
     RDKit          3D

 73 78  0  0  0  0  0  0  0  0999 V2000
   -5.5297   -1.9301    1.7762 C   0  0  0  0  0  0  0  0  0  0  0  0
   -4.7194   -1.6532    0.5804 C   0  0  1  0  0  0  0  0  0  0  0  0
   -5.4986   -0.9267   -0.5172 C   0  0  0  0  0  0  0  0  0  0  0  0
   -4.8298   -1.1677   -1.8148 C   0  0  0  0  0  0  0  0  0  0  0  0
   -3.3549   -1.0333   -1.7597 C   0  0  0  0  0  0  0  0  0  0  0  0
   -2.7430   -0.9098   -0.5395 C   0  0  0  0  0  0  0  0  0  0  0  0
   -3.4437   -0.8955    0.7700 C   0  0  2  0  0  0  0  0  0  0  0  0
   -2.5647   -1.5293    1.8282 C   0  0  0  0  0  0  0  0  0  0  0  0
   -3.6845    0.5696    1.0687 C   0  0  0  0  0  0  0  0  0  0  0  0
   -5.1565    0.9164    1.0287 C   0  0  0  0  0  0  0  0  0  0  0  0
   -5.8181    0.3862   -0.1324 N   0  0  0  0  0  0  0  0  0  0  0  0
   -6.0569    1.3456   -1.1332 C   0  0  0  0  0  0  0  0  0  0  0  0
   -7.1180    2.3336   -0.7697 C   0  0  0  0  0  0  0  0  0  0  0  0
   -8.5261    1.7878   -0.5229 C   0  0  0  0  0  0  0  0  0  0  0  0
   -7.7475    2.3832    0.5973 C   0  0  0  0  0  0  0  0  0  0  0  0
   -1.3707   -0.7824   -0.5336 C   0  0  0  0  0  0  0  0  0  0  0  0
   -0.6099   -0.7742   -1.6833 C   0  0  0  0  0  0  0  0  0  0  0  0
   -1.2933   -0.9033   -2.8775 C   0  0  0  0  0  0  0  0  0  0  0  0
   -2.6655   -1.0351   -2.9543 C   0  0  0  0  0  0  0  0  0  0  0  0
    0.8387   -0.6312   -1.6909 C   0  0  0  0  0  0  0  0  0  0  0  0
    1.4542   -0.6044   -2.7985 O   0  0  0  0  0  0  0  0  0  0  0  0
    1.6268   -0.5165   -0.5258 N   0  0  0  0  0  0  0  0  0  0  0  0
    3.0662   -0.3710   -0.6294 C   0  0  0  0  0  0  0  0  0  0  0  0
    3.6534   -0.2771    0.7762 C   0  0  0  0  0  0  0  0  0  0  0  0
    5.1223   -0.1102    0.7176 C   0  0  0  0  0  0  0  0  0  0  0  0
    5.6061    1.1956    0.6738 C   0  0  0  0  0  0  0  0  0  0  0  0
    6.9812    1.3666    0.6180 C   0  0  0  0  0  0  0  0  0  0  0  0
    7.8607    0.3115    0.6050 C   0  0  0  0  0  0  0  0  0  0  0  0
    7.3507   -0.9230    0.6487 N   0  0  0  0  0  0  0  0  0  0  0  0
    6.0293   -1.1392    0.7032 C   0  0  0  0  0  0  0  0  0  0  0  0
    9.3083    0.4837    0.5459 C   0  0  0  0  0  0  0  0  0  0  0  0
    9.9236    1.7185    0.4994 C   0  0  0  0  0  0  0  0  0  0  0  0
   11.2945    1.8792    0.4433 C   0  0  0  0  0  0  0  0  0  0  0  0
   12.0659    0.7309    0.4344 C   0  0  0  0  0  0  0  0  0  0  0  0
   11.5110   -0.5401    0.4790 C   0  0  0  0  0  0  0  0  0  0  0  0
   10.1351   -0.6189    0.5339 C   0  0  0  0  0  0  0  0  0  0  0  0
   -6.5530   -1.5317    1.5979 H   0  0  0  0  0  0  0  0  0  0  0  0
   -5.6793   -3.0455    1.8784 H   0  0  0  0  0  0  0  0  0  0  0  0
   -5.1697   -1.6048    2.7461 H   0  0  0  0  0  0  0  0  0  0  0  0
   -4.4596   -2.6401    0.0903 H   0  0  0  0  0  0  0  0  0  0  0  0
   -6.4728   -1.5036   -0.5559 H   0  0  0  0  0  0  0  0  0  0  0  0
   -5.2001   -0.5666   -2.6514 H   0  0  0  0  0  0  0  0  0  0  0  0
   -4.9970   -2.2400   -2.1535 H   0  0  0  0  0  0  0  0  0  0  0  0
   -2.0384   -2.3903    1.3871 H   0  0  0  0  0  0  0  0  0  0  0  0
   -3.1743   -1.8193    2.6791 H   0  0  0  0  0  0  0  0  0  0  0  0
   -1.8708   -0.7310    2.1849 H   0  0  0  0  0  0  0  0  0  0  0  0
   -3.1453    1.2621    0.3971 H   0  0  0  0  0  0  0  0  0  0  0  0
   -3.3303    0.7691    2.0976 H   0  0  0  0  0  0  0  0  0  0  0  0
   -5.5817    0.6174    2.0019 H   0  0  0  0  0  0  0  0  0  0  0  0
   -5.2019    2.0180    0.9763 H   0  0  0  0  0  0  0  0  0  0  0  0
   -6.3405    0.8925   -2.1254 H   0  0  0  0  0  0  0  0  0  0  0  0
   -5.1289    1.9738   -1.3400 H   0  0  0  0  0  0  0  0  0  0  0  0
   -7.1088    3.3362   -1.2972 H   0  0  0  0  0  0  0  0  0  0  0  0
   -9.3606    2.3699   -0.9583 H   0  0  0  0  0  0  0  0  0  0  0  0
   -8.6427    0.6908   -0.5743 H   0  0  0  0  0  0  0  0  0  0  0  0
   -7.4852    1.6826    1.3790 H   0  0  0  0  0  0  0  0  0  0  0  0
   -8.1147    3.3728    0.9653 H   0  0  0  0  0  0  0  0  0  0  0  0
   -0.8583   -0.6840    0.4002 H   0  0  0  0  0  0  0  0  0  0  0  0
   -0.7063   -0.8997   -3.7989 H   0  0  0  0  0  0  0  0  0  0  0  0
   -3.1832   -1.1359   -3.9011 H   0  0  0  0  0  0  0  0  0  0  0  0
    1.1692   -0.5371    0.4102 H   0  0  0  0  0  0  0  0  0  0  0  0
    3.3238    0.5605   -1.1740 H   0  0  0  0  0  0  0  0  0  0  0  0
    3.5229   -1.2285   -1.1638 H   0  0  0  0  0  0  0  0  0  0  0  0
    3.2272    0.5617    1.3339 H   0  0  0  0  0  0  0  0  0  0  0  0
    3.4453   -1.2302    1.3291 H   0  0  0  0  0  0  0  0  0  0  0  0
    4.9248    2.0326    0.6837 H   0  0  0  0  0  0  0  0  0  0  0  0
    7.3338    2.3772    0.5852 H   0  0  0  0  0  0  0  0  0  0  0  0
    5.6710   -2.1445    0.7361 H   0  0  0  0  0  0  0  0  0  0  0  0
    9.3366    2.6210    0.5061 H   0  0  0  0  0  0  0  0  0  0  0  0
   11.7769    2.8539    0.4073 H   0  0  0  0  0  0  0  0  0  0  0  0
   13.1498    0.7934    0.3918 H   0  0  0  0  0  0  0  0  0  0  0  0
   12.1633   -1.3935    0.4691 H   0  0  0  0  0  0  0  0  0  0  0  0
    9.6620   -1.5953    0.5702 H   0  0  0  0  0  0  0  0  0  0  0  0
  1  2  1  0
  2  3  1  0
  3  4  1  0
  4  5  1  0
  5  6  2  0
  6  7  1  0
  7  8  1  1
  7  9  1  0
  9 10  1  0
 10 11  1  0
 11 12  1  0
 12 13  1  0
 13 14  1  0
 14 15  1  0
  6 16  1  0
 16 17  2  0
 17 18  1  0
 18 19  2  0
 17 20  1  0
 20 21  2  0
 20 22  1  0
 22 23  1  0
 23 24  1  0
 24 25  1  0
 25 26  2  0
 26 27  1  0
 27 28  2  0
 28 29  1  0
 29 30  2  0
 28 31  1  0
 31 32  2  0
 32 33  1  0
 33 34  2  0
 34 35  1  0
 35 36  2  0
  7  2  1  0
 15 13  1  0
 30 25  1  0
 36 31  1  0
 11  3  1  0
 19  5  1  0
  1 37  1  0
  1 38  1  0
  1 39  1  0
  2 40  1  6
  3 41  1  0
  4 42  1  0
  4 43  1  0
  8 44  1  0
  8 45  1  0
  8 46  1  0
  9 47  1  0
  9 48  1  0
 10 49  1  0
 10 50  1  0
 12 51  1  0
 12 52  1  0
 13 53  1  0
 14 54  1  0
 14 55  1  0
 15 56  1  0
 15 57  1  0
 16 58  1  0
 18 59  1  0
 19 60  1  0
 22 61  1  0
 23 62  1  0
 23 63  1  0
 24 64  1  0
 24 65  1  0
 26 66  1  0
 27 67  1  0
 30 68  1  0
 32 69  1  0
 33 70  1  0
 34 71  1  0
 35 72  1  0
 36 73  1  0
M  END
>  <Ligand ID>  (1) 
LIG0005527

>  <Ligand>  (1) 
CHEMBL2347238

>  <SMILES>  (1) 
C[C@H]1C2Cc3c([C@@]1(C)CCN2CC1CC1)cc(cc3)C(=O)NCCc1ccc(nc1)c1ccccc1

>  <CID>  (1) 
44241022.0

>  <ChEMBL ID>  (1) 
nan

>  <InChiKey>  (1) 
VUDMJACUAGOBNX-WTBOZYSNSA-N

>  <InChi>  (1) 
InChI=1S/C32H37N3O/c1-22-30-19-26-11-12-27(18-28(26)32(22,2)15-17-35(30)21-24-8-9-24)31(36)33-16-14-23-10-13-29(34-20-23)25-6-4-3-5-7-25/h3-7,10-13,18,20,22,24,30H,8-9,14-17,19,21H2,1-2H3,(H,33,36)/t22-,30?,32-/m0/s1

>  <IUPAC Name>  (1) 
(1S,13R)-10-(cyclopropylmethyl)-1,13-dimethyl-N-[2-(6-phenylpyridin-3-yl)ethyl]-10-azatricyclo[7.3.1.02,7]trideca-2(7),3,5-triene-4-carboxamide

$$$$
