
     RDKit          3D

 84 88  0  0  0  0  0  0  0  0999 V2000
    0.3786   -3.3489   -0.1715 C   0  0  0  0  0  0  0  0  0  0  0  0
   -0.8968   -2.8128    0.3360 C   0  0  0  0  0  0  0  0  0  0  0  0
   -0.8941   -1.5665    1.1176 C   0  0  0  0  0  0  0  0  0  0  0  0
   -0.3807   -0.3329    0.4984 C   0  0  2  0  0  0  0  0  0  0  0  0
   -1.0036    0.1364   -0.6892 N   0  0  0  0  0  0  0  0  0  0  0  0
   -0.0696    0.3580   -1.8377 C   0  0  0  0  0  0  0  0  0  0  0  0
    1.0026    1.2925   -1.3218 C   0  0  0  0  0  0  0  0  0  0  0  0
    1.8557    0.4113   -0.4848 N   0  0  0  0  0  0  0  0  0  0  0  0
    1.1272   -0.3947    0.4252 C   0  0  0  0  0  0  0  0  0  0  0  0
    1.7038   -1.1711    1.1886 O   0  0  0  0  0  0  0  0  0  0  0  0
    3.2963    0.4106   -0.6275 C   0  0  2  0  0  0  0  0  0  0  0  0
    3.8539   -0.8222   -1.1894 C   0  0  0  0  0  0  0  0  0  0  0  0
    4.0418   -0.9155   -2.4612 O   0  0  0  0  0  0  0  0  0  0  0  0
    4.2264   -1.9741   -0.4575 N   0  0  0  0  0  0  0  0  0  0  0  0
    4.7681   -3.1304   -1.1494 C   0  0  0  0  0  0  0  0  0  0  0  0
    3.9245    0.9240    0.6157 C   0  0  0  0  0  0  0  0  0  0  0  0
    5.3782    1.0135    0.6442 C   0  0  0  0  0  0  0  0  0  0  0  0
    5.9620    2.1819    0.1454 C   0  0  0  0  0  0  0  0  0  0  0  0
    7.3197    2.3844    0.1340 C   0  0  0  0  0  0  0  0  0  0  0  0
    8.1750    1.4216    0.6247 C   0  0  0  0  0  0  0  0  0  0  0  0
    7.6280    0.2618    1.1219 C   0  0  0  0  0  0  0  0  0  0  0  0
    6.2503    0.0700    1.1273 C   0  0  0  0  0  0  0  0  0  0  0  0
    8.4936   -0.6918    1.6099 C   0  0  0  0  0  0  0  0  0  0  0  0
    9.8425   -0.4673    1.5887 C   0  0  0  0  0  0  0  0  0  0  0  0
   10.4054    0.7019    1.0881 C   0  0  0  0  0  0  0  0  0  0  0  0
    9.5375    1.6494    0.6027 C   0  0  0  0  0  0  0  0  0  0  0  0
   -2.3452    0.4082   -0.9508 C   0  0  0  0  0  0  0  0  0  0  0  0
   -2.6001    0.8264   -2.1666 O   0  0  0  0  0  0  0  0  0  0  0  0
   -3.5405    0.3132   -0.1218 C   0  0  2  0  0  0  0  0  0  0  0  0
   -4.7237    0.5838   -0.9423 N   0  0  0  0  0  0  0  0  0  0  0  0
   -5.7890   -0.3137   -1.0947 C   0  0  0  0  0  0  0  0  0  0  0  0
   -5.8343   -1.4548   -0.5341 O   0  0  0  0  0  0  0  0  0  0  0  0
   -6.9086    0.1044   -1.9544 C   0  0  0  0  0  0  0  0  0  0  0  0
   -8.0103   -0.7152   -2.1620 C   0  0  0  0  0  0  0  0  0  0  0  0
   -9.0509   -0.2849   -2.9816 C   0  0  0  0  0  0  0  0  0  0  0  0
   -8.9927    0.9691   -3.5976 C   0  0  0  0  0  0  0  0  0  0  0  0
   -7.8933    1.7459   -3.3692 C   0  0  0  0  0  0  0  0  0  0  0  0
   -6.9297    1.2925   -2.5816 N   0  0  0  0  0  0  0  0  0  0  0  0
   -3.4467    1.2478    1.0379 C   0  0  0  0  0  0  0  0  0  0  0  0
   -4.7015    1.1737    1.8924 C   0  0  0  0  0  0  0  0  0  0  0  0
   -4.8060    0.2871    2.9399 C   0  0  0  0  0  0  0  0  0  0  0  0
   -5.9842    0.2861    3.6654 C   0  0  0  0  0  0  0  0  0  0  0  0
   -7.0331    1.1363    3.3676 C   0  0  0  0  0  0  0  0  0  0  0  0
   -6.9135    2.0200    2.3142 C   0  0  0  0  0  0  0  0  0  0  0  0
   -5.7426    2.0445    1.5671 C   0  0  0  0  0  0  0  0  0  0  0  0
   -8.1794    1.1188    4.0921 F   0  0  0  0  0  0  0  0  0  0  0  0
    0.1129   -4.2598   -0.7970 H   0  0  0  0  0  0  0  0  0  0  0  0
    1.0864   -3.7511    0.5731 H   0  0  0  0  0  0  0  0  0  0  0  0
    0.8315   -2.6650   -0.9214 H   0  0  0  0  0  0  0  0  0  0  0  0
   -1.5615   -2.6402   -0.5625 H   0  0  0  0  0  0  0  0  0  0  0  0
   -1.4645   -3.5933    0.9156 H   0  0  0  0  0  0  0  0  0  0  0  0
   -0.2196   -1.7621    2.0197 H   0  0  0  0  0  0  0  0  0  0  0  0
   -1.8835   -1.3851    1.5753 H   0  0  0  0  0  0  0  0  0  0  0  0
   -0.5188    0.4921    1.2697 H   0  0  0  0  0  0  0  0  0  0  0  0
    0.4188   -0.5786   -2.1178 H   0  0  0  0  0  0  0  0  0  0  0  0
   -0.5831    0.7461   -2.7135 H   0  0  0  0  0  0  0  0  0  0  0  0
    1.5738    1.7973   -2.1015 H   0  0  0  0  0  0  0  0  0  0  0  0
    0.5196    2.0141   -0.6257 H   0  0  0  0  0  0  0  0  0  0  0  0
    3.4970    1.2036   -1.4311 H   0  0  0  0  0  0  0  0  0  0  0  0
    4.1327   -2.0375    0.5615 H   0  0  0  0  0  0  0  0  0  0  0  0
    5.8647   -3.2463   -0.9977 H   0  0  0  0  0  0  0  0  0  0  0  0
    4.2246   -4.0664   -0.8260 H   0  0  0  0  0  0  0  0  0  0  0  0
    4.5789   -3.0416   -2.2353 H   0  0  0  0  0  0  0  0  0  0  0  0
    3.5220    1.9591    0.8153 H   0  0  0  0  0  0  0  0  0  0  0  0
    3.5906    0.3077    1.4892 H   0  0  0  0  0  0  0  0  0  0  0  0
    5.3404    2.9794   -0.2559 H   0  0  0  0  0  0  0  0  0  0  0  0
    7.7146    3.3249   -0.2714 H   0  0  0  0  0  0  0  0  0  0  0  0
    5.8844   -0.8390    1.5291 H   0  0  0  0  0  0  0  0  0  0  0  0
    8.1105   -1.6183    2.0103 H   0  0  0  0  0  0  0  0  0  0  0  0
   10.4842   -1.2465    1.9833 H   0  0  0  0  0  0  0  0  0  0  0  0
   11.4858    0.8501    1.0853 H   0  0  0  0  0  0  0  0  0  0  0  0
    9.9135    2.5912    0.1949 H   0  0  0  0  0  0  0  0  0  0  0  0
   -3.7216   -0.7020    0.2680 H   0  0  0  0  0  0  0  0  0  0  0  0
   -4.7072    1.5328   -1.4206 H   0  0  0  0  0  0  0  0  0  0  0  0
   -8.0703   -1.6905   -1.6913 H   0  0  0  0  0  0  0  0  0  0  0  0
   -9.9277   -0.8798   -3.1754 H   0  0  0  0  0  0  0  0  0  0  0  0
   -9.7681    1.3418   -4.2355 H   0  0  0  0  0  0  0  0  0  0  0  0
   -7.7544    2.7421   -3.8060 H   0  0  0  0  0  0  0  0  0  0  0  0
   -2.6748    0.8459    1.7204 H   0  0  0  0  0  0  0  0  0  0  0  0
   -3.1544    2.2736    0.8141 H   0  0  0  0  0  0  0  0  0  0  0  0
   -3.9752   -0.3758    3.1638 H   0  0  0  0  0  0  0  0  0  0  0  0
   -6.0581   -0.4239    4.4989 H   0  0  0  0  0  0  0  0  0  0  0  0
   -7.7170    2.7039    2.0494 H   0  0  0  0  0  0  0  0  0  0  0  0
   -5.6280    2.7188    0.7503 H   0  0  0  0  0  0  0  0  0  0  0  0
  1  2  1  0
  2  3  1  0
  3  4  1  0
  4  5  1  0
  5  6  1  0
  6  7  1  0
  7  8  1  0
  8  9  1  0
  9 10  2  0
  8 11  1  0
 11 12  1  0
 12 13  2  0
 12 14  1  0
 14 15  1  0
 11 16  1  0
 16 17  1  0
 17 18  2  0
 18 19  1  0
 19 20  2  0
 20 21  1  0
 21 22  2  0
 21 23  1  0
 23 24  2  0
 24 25  1  0
 25 26  2  0
  5 27  1  0
 27 28  2  0
 27 29  1  0
 29 30  1  0
 30 31  1  0
 31 32  2  0
 31 33  1  0
 33 34  2  0
 34 35  1  0
 35 36  2  0
 36 37  1  0
 37 38  2  0
 29 39  1  0
 39 40  1  0
 40 41  2  0
 41 42  1  0
 42 43  2  0
 43 44  1  0
 44 45  2  0
 43 46  1  0
  9  4  1  0
 22 17  1  0
 38 33  1  0
 45 40  1  0
 26 20  1  0
  1 47  1  0
  1 48  1  0
  1 49  1  0
  2 50  1  0
  2 51  1  0
  3 52  1  0
  3 53  1  0
  4 54  1  1
  6 55  1  0
  6 56  1  0
  7 57  1  0
  7 58  1  0
 11 59  1  6
 14 60  1  0
 15 61  1  0
 15 62  1  0
 15 63  1  0
 16 64  1  0
 16 65  1  0
 18 66  1  0
 19 67  1  0
 22 68  1  0
 23 69  1  0
 24 70  1  0
 25 71  1  0
 26 72  1  0
 29 73  1  1
 30 74  1  0
 34 75  1  0
 35 76  1  0
 36 77  1  0
 37 78  1  0
 39 79  1  0
 39 80  1  0
 41 81  1  0
 42 82  1  0
 44 83  1  0
 45 84  1  0
M  END
>  <Ligand ID>  (1) 
LIG0004079

>  <Ligand>  (1) 
CHEMBL448337

>  <SMILES>  (1) 
CCC[C@@H]1N(CCN(C1=O)[C@H](C(=O)NC)Cc1ccc2c(c1)cccc2)C(=O)[C@H](NC(=O)c1ccccn1)Cc1ccc(cc1)F

>  <CID>  (1) 
25132867.0

>  <ChEMBL ID>  (1) 
nan

>  <InChiKey>  (1) 
BUTABXHVJVEFTF-RTOKGZNSSA-N

>  <InChi>  (1) 
InChI=1S/C36H38FN5O4/c1-3-8-31-36(46)42(32(34(44)38-2)23-25-12-15-26-9-4-5-10-27(26)21-25)20-19-41(31)35(45)30(22-24-13-16-28(37)17-14-24)40-33(43)29-11-6-7-18-39-29/h4-7,9-18,21,30-32H,3,8,19-20,22-23H2,1-2H3,(H,38,44)(H,40,43)/t30-,31+,32+/m1/s1

>  <IUPAC Name>  (1) 
N-[(2R)-3-(4-fluorophenyl)-1-[(2S)-4-[(2S)-1-(methylamino)-3-naphthalen-2-yl-1-oxopropan-2-yl]-3-oxo-2-propylpiperazin-1-yl]-1-oxopropan-2-yl]pyridine-2-carboxamide

$$$$
