
     RDKit          3D

 20 20  0  0  0  0  0  0  0  0999 V2000
    3.6112    0.2565    0.1877 C   0  0  0  0  0  0  0  0  0  0  0  0
    2.2378    0.5053    0.2630 O   0  0  0  0  0  0  0  0  0  0  0  0
    1.2214   -0.3277   -0.1145 C   0  0  0  0  0  0  0  0  0  0  0  0
    1.4954   -1.4599   -0.5907 O   0  0  0  0  0  0  0  0  0  0  0  0
   -0.1802    0.0630    0.0207 C   0  0  0  0  0  0  0  0  0  0  0  0
   -0.5162    1.2971    0.5389 C   0  0  0  0  0  0  0  0  0  0  0  0
   -1.8084    1.7310    0.6949 C   0  0  0  0  0  0  0  0  0  0  0  0
   -2.8162    0.8659    0.3039 C   0  0  0  0  0  0  0  0  0  0  0  0
   -2.5042   -0.3710   -0.2161 C   0  0  0  0  0  0  0  0  0  0  0  0
   -1.1895   -0.7871   -0.3640 C   0  0  0  0  0  0  0  0  0  0  0  0
   -0.9447   -2.0552   -0.8988 N   0  0  0  0  0  0  0  0  0  0  0  0
    3.9272   -0.1551    1.1780 H   0  0  0  0  0  0  0  0  0  0  0  0
    4.2227    1.1432   -0.0195 H   0  0  0  0  0  0  0  0  0  0  0  0
    3.8743   -0.5267   -0.5605 H   0  0  0  0  0  0  0  0  0  0  0  0
    0.2925    1.9649    0.8414 H   0  0  0  0  0  0  0  0  0  0  0  0
   -2.0009    2.7133    1.1091 H   0  0  0  0  0  0  0  0  0  0  0  0
   -3.8272    1.2287    0.4359 H   0  0  0  0  0  0  0  0  0  0  0  0
   -3.3430   -1.0050   -0.5049 H   0  0  0  0  0  0  0  0  0  0  0  0
   -0.4000   -2.8206   -0.4452 H   0  0  0  0  0  0  0  0  0  0  0  0
   -1.3518   -2.2605   -1.8591 H   0  0  0  0  0  0  0  0  0  0  0  0
  1  2  1  0
  2  3  1  0
  3  4  2  0
  3  5  1  0
  5  6  2  0
  6  7  1  0
  7  8  2  0
  8  9  1  0
  9 10  2  0
 10 11  1  0
 10  5  1  0
  1 12  1  0
  1 13  1  0
  1 14  1  0
  6 15  1  0
  7 16  1  0
  8 17  1  0
  9 18  1  0
 11 19  1  0
 11 20  1  0
M  END
>  <Ligand ID>  (1) 
LIG0005038

>  <Ligand>  (1) 
Methyl Anthranilate

>  <SMILES>  (1) 
COC(=O)c1ccccc1N

>  <CID>  (1) 
8635.0

>  <ChEMBL ID>  (1) 
nan

>  <InChiKey>  (1) 
VAMXMNNIEUEQDV-UHFFFAOYSA-N

>  <InChi>  (1) 
InChI=1S/C8H9NO2/c1-11-8(10)6-4-2-3-5-7(6)9/h2-5H,9H2,1H3

>  <IUPAC Name>  (1) 
methyl 2-aminobenzoate

$$$$
