
     RDKit          3D

 26 26  0  0  0  0  0  0  0  0999 V2000
    3.8564    2.2656   -0.9701 N   0  0  0  0  0  0  0  0  0  0  0  0
    3.5739    1.2069   -0.5650 C   0  0  0  0  0  0  0  0  0  0  0  0
    3.2251   -0.0921   -0.0592 C   0  0  0  0  0  0  0  0  0  0  0  0
    2.0695   -0.6360   -0.2409 N   0  0  0  0  0  0  0  0  0  0  0  0
    1.0981    0.0465   -0.9567 N   0  0  0  0  0  0  0  0  0  0  0  0
   -0.2311    0.1621   -0.4244 C   0  0  0  0  0  0  0  0  0  0  0  0
   -0.5448   -0.3987    0.7877 C   0  0  0  0  0  0  0  0  0  0  0  0
   -1.8461   -0.2690    1.2781 C   0  0  0  0  0  0  0  0  0  0  0  0
   -2.8142    0.4232    0.5424 C   0  0  0  0  0  0  0  0  0  0  0  0
   -2.4951    0.9903   -0.6843 C   0  0  0  0  0  0  0  0  0  0  0  0
   -1.1915    0.8474   -1.1517 C   0  0  0  0  0  0  0  0  0  0  0  0
   -4.1040    0.5617    1.0103 O   0  0  0  0  0  0  0  0  0  0  0  0
   -5.0781   -0.4218    0.6771 C   0  0  0  0  0  0  0  0  0  0  0  0
   -4.6695   -1.6576    1.1579 F   0  0  0  0  0  0  0  0  0  0  0  0
   -5.2032   -0.4373   -0.7110 F   0  0  0  0  0  0  0  0  0  0  0  0
   -6.2976   -0.1308    1.2054 F   0  0  0  0  0  0  0  0  0  0  0  0
    4.1971   -0.8763    0.7072 C   0  0  0  0  0  0  0  0  0  0  0  0
    3.6863   -2.3468    1.2346 S   0  0  0  0  0  0  0  0  0  0  0  0
    5.5105   -0.4004    0.9839 N   0  0  0  0  0  0  0  0  0  0  0  0
    1.3415    0.4631   -1.8630 H   0  0  0  0  0  0  0  0  0  0  0  0
    0.1713   -0.9407    1.3872 H   0  0  0  0  0  0  0  0  0  0  0  0
   -2.1180   -0.7007    2.2282 H   0  0  0  0  0  0  0  0  0  0  0  0
   -3.1863    1.5266   -1.2873 H   0  0  0  0  0  0  0  0  0  0  0  0
   -0.8951    1.2681   -2.0952 H   0  0  0  0  0  0  0  0  0  0  0  0
    5.9720   -0.6360    1.8941 H   0  0  0  0  0  0  0  0  0  0  0  0
    5.9729    0.1831    0.2422 H   0  0  0  0  0  0  0  0  0  0  0  0
  1  2  3  0
  2  3  1  0
  3  4  2  3
  4  5  1  0
  5  6  1  0
  6  7  2  0
  7  8  1  0
  8  9  2  0
  9 10  1  0
 10 11  2  0
  9 12  1  0
 12 13  1  0
 13 14  1  0
 13 15  1  0
 13 16  1  0
  3 17  1  0
 17 18  2  0
 17 19  1  0
 11  6  1  0
  5 20  1  0
  7 21  1  0
  8 22  1  0
 10 23  1  0
 11 24  1  0
 19 25  1  0
 19 26  1  0
M  END
>  <Ligand ID>  (1) 
LIG0005964

>  <Ligand>  (1) 
AC1MCI7P

>  <SMILES>  (1) 
N#CC(=NNc1ccc(cc1)OC(F)(F)F)C(=S)N

>  <CID>  (1) 
2744440.0

>  <ChEMBL ID>  (1) 
nan

>  <InChiKey>  (1) 
TYHJLVQXPFKZIB-UHFFFAOYSA-N

>  <InChi>  (1) 
InChI=1S/C10H7F3N4OS/c11-10(12,13)18-7-3-1-6(2-4-7)16-17-8(5-14)9(15)19/h1-4,16H,(H2,15,19)

>  <IUPAC Name>  (1) 
2-amino-2-sulfanylidene-N-[4-(trifluoromethoxy)anilino]ethanimidoyl cyanide

$$$$
