
     RDKit          3D

 23 24  0  0  0  0  0  0  0  0999 V2000
   -3.0317    1.6593    0.6250 O   0  0  0  0  0  0  0  0  0  0  0  0
   -2.8288    0.2877    0.7032 C   0  0  0  0  0  0  0  0  0  0  0  0
   -3.7004   -0.4107    1.2902 O   0  0  0  0  0  0  0  0  0  0  0  0
   -1.6060   -0.3118    0.1010 C   0  0  1  0  0  0  0  0  0  0  0  0
   -1.0700    0.3914   -1.0629 C   0  0  1  0  0  0  0  0  0  0  0  0
   -0.2884    0.4801    0.1647 C   0  0  2  0  0  0  0  0  0  0  0  0
    0.9885   -0.2650    0.0889 C   0  0  2  0  0  0  0  0  0  0  0  0
    1.4617   -0.3770   -1.3185 C   0  0  0  0  0  0  0  0  0  0  0  0
   -0.0903   -0.5613   -2.2221 S   0  0  0  0  0  0  0  0  0  0  0  0
   -0.5276   -2.0326   -2.0928 O   0  0  0  0  0  0  0  0  0  0  0  0
    0.8829   -1.6139    0.6297 N   0  0  0  0  0  0  0  0  0  0  0  0
    2.0568    0.4494    0.8395 C   0  0  0  0  0  0  0  0  0  0  0  0
    2.7107   -0.0993    1.7734 O   0  0  0  0  0  0  0  0  0  0  0  0
    2.3932    1.7657    0.5508 O   0  0  0  0  0  0  0  0  0  0  0  0
   -3.9691    2.0686    0.6877 H   0  0  0  0  0  0  0  0  0  0  0  0
   -1.4688   -1.3903    0.1750 H   0  0  0  0  0  0  0  0  0  0  0  0
   -1.5066    1.3711   -1.4155 H   0  0  0  0  0  0  0  0  0  0  0  0
   -0.3539    1.3075    0.9062 H   0  0  0  0  0  0  0  0  0  0  0  0
    2.1282   -1.2266   -1.4589 H   0  0  0  0  0  0  0  0  0  0  0  0
    1.8781    0.6023   -1.6144 H   0  0  0  0  0  0  0  0  0  0  0  0
    1.6793   -1.8438    1.2573 H   0  0  0  0  0  0  0  0  0  0  0  0
    0.8919   -2.3439   -0.1220 H   0  0  0  0  0  0  0  0  0  0  0  0
    3.3701    2.0932    0.5711 H   0  0  0  0  0  0  0  0  0  0  0  0
  1  2  1  0
  2  3  2  0
  2  4  1  0
  4  5  1  0
  5  6  1  0
  6  7  1  0
  7  8  1  0
  8  9  1  0
  9 10  2  0
  7 11  1  1
  7 12  1  0
 12 13  2  0
 12 14  1  0
  6  4  1  0
  9  5  1  0
  1 15  1  0
  4 16  1  6
  5 17  1  6
  6 18  1  1
  8 19  1  0
  8 20  1  0
 11 21  1  0
 11 22  1  0
 14 23  1  0
M  END
>  <Ligand ID>  (1) 
LIG0005659

>  <Ligand>  (1) 
CHEMBL218710

>  <SMILES>  (1) 
OC(=O)[C@H]1[C@H]2[C@@H]1[C@](CS2=O)(N)C(=O)O

>  <CID>  (1) 
10353365.0

>  <ChEMBL ID>  (1) 
nan

>  <InChiKey>  (1) 
PYCDNJSXQRXRFH-BPOMBSSQSA-N

>  <InChi>  (1) 
InChI=1S/C7H9NO5S/c8-7(6(11)12)1-14(13)4-2(3(4)7)5(9)10/h2-4H,1,8H2,(H,9,10)(H,11,12)/t2-,3-,4+,7+,14?/m1/s1

>  <IUPAC Name>  (1) 
(1R,4S,5S,6S)-4-amino-2-oxo-2lambda4-thiabicyclo[3.1.0]hexane-4,6-dicarboxylic acid

$$$$
