
     RDKit          3D

 34 35  0  0  0  0  0  0  0  0999 V2000
   -2.6074    1.3693    2.3614 O   0  0  0  0  0  0  0  0  0  0  0  0
   -3.1449    1.3851    1.0829 C   0  0  0  0  0  0  0  0  0  0  0  0
   -4.2757    1.8738    0.9201 O   0  0  0  0  0  0  0  0  0  0  0  0
   -2.4323    0.8440   -0.1082 C   0  0  0  0  0  0  0  0  0  0  0  0
   -2.2438   -0.6092    0.1178 C   0  0  0  0  0  0  0  0  0  0  0  0
   -3.2361   -1.4506    0.5697 C   0  0  0  0  0  0  0  0  0  0  0  0
   -2.7429   -2.7136    0.6568 N   0  0  0  0  0  0  0  0  0  0  0  0
   -1.4608   -2.6801    0.2687 N   0  0  0  0  0  0  0  0  0  0  0  0
   -1.1322   -1.4018   -0.0659 C   0  0  0  0  0  0  0  0  0  0  0  0
    0.2126   -0.9141   -0.5400 C   0  0  0  0  0  0  0  0  0  0  0  0
    0.9375   -0.2466    0.6050 C   0  0  0  0  0  0  0  0  0  0  0  0
    2.2695    0.2799    0.2385 C   0  0  0  0  0  0  0  0  0  0  0  0
    2.3458    1.5823   -0.2181 C   0  0  0  0  0  0  0  0  0  0  0  0
    3.5301    2.1857   -0.5876 C   0  0  0  0  0  0  0  0  0  0  0  0
    4.7048    1.4330   -0.4913 C   0  0  0  0  0  0  0  0  0  0  0  0
    4.6432    0.1122   -0.0306 C   0  0  0  0  0  0  0  0  0  0  0  0
    3.4358   -0.4556    0.3299 C   0  0  0  0  0  0  0  0  0  0  0  0
   -0.5725   -3.7239    0.1985 O   0  0  0  0  0  0  0  0  0  0  0  0
   -3.3577    1.0626   -1.2367 N   0  0  0  0  0  0  0  0  0  0  0  0
   -2.6914    2.2054    2.9468 H   0  0  0  0  0  0  0  0  0  0  0  0
   -1.4966    1.3978   -0.2637 H   0  0  0  0  0  0  0  0  0  0  0  0
   -4.2457   -1.1430    0.8140 H   0  0  0  0  0  0  0  0  0  0  0  0
    0.1130   -0.2194   -1.3754 H   0  0  0  0  0  0  0  0  0  0  0  0
    0.7790   -1.8260   -0.8494 H   0  0  0  0  0  0  0  0  0  0  0  0
    1.0811   -0.9843    1.4451 H   0  0  0  0  0  0  0  0  0  0  0  0
    0.3380    0.5960    0.9930 H   0  0  0  0  0  0  0  0  0  0  0  0
    1.4425    2.1896   -0.3022 H   0  0  0  0  0  0  0  0  0  0  0  0
    3.5572    3.2254   -0.9465 H   0  0  0  0  0  0  0  0  0  0  0  0
    5.6377    1.8976   -0.7789 H   0  0  0  0  0  0  0  0  0  0  0  0
    5.5870   -0.4476    0.0312 H   0  0  0  0  0  0  0  0  0  0  0  0
    3.3899   -1.4866    0.6889 H   0  0  0  0  0  0  0  0  0  0  0  0
   -0.9073   -4.6799    0.1037 H   0  0  0  0  0  0  0  0  0  0  0  0
   -4.3379    0.9600   -0.9141 H   0  0  0  0  0  0  0  0  0  0  0  0
   -3.1196    0.3828   -2.0129 H   0  0  0  0  0  0  0  0  0  0  0  0
  1  2  1  0
  2  3  2  0
  2  4  1  0
  4  5  1  0
  5  6  1  0
  6  7  2  0
  7  8  1  0
  8  9  1  0
  9 10  1  0
 10 11  1  0
 11 12  1  0
 12 13  2  0
 13 14  1  0
 14 15  2  0
 15 16  1  0
 16 17  2  0
  8 18  1  0
  4 19  1  0
  9  5  2  0
 17 12  1  0
  1 20  1  0
  4 21  1  0
  6 22  1  0
 10 23  1  0
 10 24  1  0
 11 25  1  0
 11 26  1  0
 13 27  1  0
 14 28  1  0
 15 29  1  0
 16 30  1  0
 17 31  1  0
 18 32  1  0
 19 33  1  0
 19 34  1  0
M  END
>  <Ligand ID>  (1) 
LIG0002672

>  <Ligand>  (1) 
CHEMBL397048

>  <SMILES>  (1) 
OC(=O)C(c1cnn(c1CCc1ccccc1)O)N

>  <CID>  (1) 
44428737.0

>  <ChEMBL ID>  (1) 
nan

>  <InChiKey>  (1) 
IDQIRWBETFBCHQ-UHFFFAOYSA-N

>  <InChi>  (1) 
InChI=1S/C13H15N3O3/c14-12(13(17)18)10-8-15-16(19)11(10)7-6-9-4-2-1-3-5-9/h1-5,8,12,19H,6-7,14H2,(H,17,18)

>  <IUPAC Name>  (1) 
2-amino-2-[1-hydroxy-5-(2-phenylethyl)pyrazol-4-yl]acetic acid

$$$$
