
     RDKit          3D

 65 64  0  0  0  0  0  0  0  0999 V2000
    7.3699   -0.9999    3.7632 C   0  0  0  0  0  0  0  0  0  0  0  0
    6.6497    0.0243    2.8862 C   0  0  0  0  0  0  0  0  0  0  0  0
    6.8471   -0.4359    1.4582 C   0  0  0  0  0  0  0  0  0  0  0  0
    6.1837    0.4909    0.4759 C   0  0  0  0  0  0  0  0  0  0  0  0
    4.6762    0.5624    0.7115 C   0  0  0  0  0  0  0  0  0  0  0  0
    4.0446    1.4744   -0.2442 C   0  0  0  0  0  0  0  0  0  0  0  0
    3.1297    1.1745   -1.1314 C   0  0  0  0  0  0  0  0  0  0  0  0
    2.5976   -0.2316   -1.2732 C   0  0  0  0  0  0  0  0  0  0  0  0
    2.9033   -0.6441   -2.6644 C   0  0  0  0  0  0  0  0  0  0  0  0
    2.0063   -1.0007   -3.5593 C   0  0  0  0  0  0  0  0  0  0  0  0
    0.5565   -1.0294   -3.2575 C   0  0  0  0  0  0  0  0  0  0  0  0
   -0.0954   -0.0718   -4.1848 C   0  0  0  0  0  0  0  0  0  0  0  0
   -0.7945    0.9789   -3.8057 C   0  0  0  0  0  0  0  0  0  0  0  0
   -1.0393    1.3686   -2.3992 C   0  0  0  0  0  0  0  0  0  0  0  0
   -2.5065    1.3571   -2.1849 C   0  0  0  0  0  0  0  0  0  0  0  0
   -3.1508    0.6052   -1.3193 C   0  0  0  0  0  0  0  0  0  0  0  0
   -2.5823   -0.3710   -0.3899 C   0  0  0  0  0  0  0  0  0  0  0  0
   -3.1269   -1.7847   -0.6485 C   0  0  0  0  0  0  0  0  0  0  0  0
   -4.6072   -1.7602   -0.4750 C   0  0  0  0  0  0  0  0  0  0  0  0
   -4.9424   -1.3339    0.9102 C   0  0  0  0  0  0  0  0  0  0  0  0
   -4.7848   -2.0903    1.9152 O   0  0  0  0  0  0  0  0  0  0  0  0
   -5.4557   -0.0654    1.1954 O   0  0  0  0  0  0  0  0  0  0  0  0
   -5.7645    0.2944    2.5541 C   0  0  0  0  0  0  0  0  0  0  0  0
   -4.9205    1.5218    2.8557 C   0  0  0  0  0  0  0  0  0  0  0  0
   -5.1189    1.9904    4.1514 O   0  0  0  0  0  0  0  0  0  0  0  0
   -7.2331    0.6215    2.5564 C   0  0  0  0  0  0  0  0  0  0  0  0
   -7.8917   -0.5499    2.1348 O   0  0  0  0  0  0  0  0  0  0  0  0
    6.8099   -1.9507    3.6175 H   0  0  0  0  0  0  0  0  0  0  0  0
    8.4294   -1.1095    3.4576 H   0  0  0  0  0  0  0  0  0  0  0  0
    7.2602   -0.6952    4.8223 H   0  0  0  0  0  0  0  0  0  0  0  0
    5.5984    0.0687    3.1816 H   0  0  0  0  0  0  0  0  0  0  0  0
    7.1969    0.9841    3.0219 H   0  0  0  0  0  0  0  0  0  0  0  0
    7.9355   -0.4581    1.2590 H   0  0  0  0  0  0  0  0  0  0  0  0
    6.4608   -1.4768    1.3933 H   0  0  0  0  0  0  0  0  0  0  0  0
    6.6055    1.4916    0.5888 H   0  0  0  0  0  0  0  0  0  0  0  0
    6.4151    0.1181   -0.5388 H   0  0  0  0  0  0  0  0  0  0  0  0
    4.2251   -0.4029    0.8690 H   0  0  0  0  0  0  0  0  0  0  0  0
    4.6036    1.0845    1.7241 H   0  0  0  0  0  0  0  0  0  0  0  0
    4.3712    2.5294   -0.2160 H   0  0  0  0  0  0  0  0  0  0  0  0
    2.6950    1.8951   -1.8172 H   0  0  0  0  0  0  0  0  0  0  0  0
    3.0884   -0.9444   -0.6009 H   0  0  0  0  0  0  0  0  0  0  0  0
    1.5554   -0.1752   -0.9979 H   0  0  0  0  0  0  0  0  0  0  0  0
    3.9517   -0.6467   -2.9518 H   0  0  0  0  0  0  0  0  0  0  0  0
    2.2964   -1.2942   -4.5731 H   0  0  0  0  0  0  0  0  0  0  0  0
    0.2112   -2.0507   -3.6390 H   0  0  0  0  0  0  0  0  0  0  0  0
    0.2857   -0.9692   -2.2220 H   0  0  0  0  0  0  0  0  0  0  0  0
    0.0259   -0.2696   -5.2504 H   0  0  0  0  0  0  0  0  0  0  0  0
   -1.2390    1.6297   -4.5710 H   0  0  0  0  0  0  0  0  0  0  0  0
   -0.7145    2.4471   -2.3182 H   0  0  0  0  0  0  0  0  0  0  0  0
   -0.5536    0.7813   -1.6390 H   0  0  0  0  0  0  0  0  0  0  0  0
   -3.0810    2.0530   -2.8263 H   0  0  0  0  0  0  0  0  0  0  0  0
   -4.2486    0.7323   -1.2954 H   0  0  0  0  0  0  0  0  0  0  0  0
   -2.8751   -0.1281    0.6753 H   0  0  0  0  0  0  0  0  0  0  0  0
   -1.4990   -0.4873   -0.4271 H   0  0  0  0  0  0  0  0  0  0  0  0
   -2.7948   -2.0960   -1.6458 H   0  0  0  0  0  0  0  0  0  0  0  0
   -2.6660   -2.4531    0.0900 H   0  0  0  0  0  0  0  0  0  0  0  0
   -5.1297   -1.0911   -1.1676 H   0  0  0  0  0  0  0  0  0  0  0  0
   -4.9700   -2.7928   -0.6807 H   0  0  0  0  0  0  0  0  0  0  0  0
   -5.5481   -0.5229    3.2483 H   0  0  0  0  0  0  0  0  0  0  0  0
   -3.8529    1.2193    2.7413 H   0  0  0  0  0  0  0  0  0  0  0  0
   -5.1114    2.2851    2.0849 H   0  0  0  0  0  0  0  0  0  0  0  0
   -5.9083    1.5381    4.5437 H   0  0  0  0  0  0  0  0  0  0  0  0
   -7.5908    0.9203    3.5477 H   0  0  0  0  0  0  0  0  0  0  0  0
   -7.3856    1.4038    1.7767 H   0  0  0  0  0  0  0  0  0  0  0  0
   -7.8031   -1.2627    2.7905 H   0  0  0  0  0  0  0  0  0  0  0  0
  1  2  1  0
  2  3  1  0
  3  4  1  0
  4  5  1  0
  5  6  1  0
  6  7  2  0
  7  8  1  0
  8  9  1  0
  9 10  2  0
 10 11  1  0
 11 12  1  0
 12 13  2  0
 13 14  1  0
 14 15  1  0
 15 16  2  0
 16 17  1  0
 17 18  1  0
 18 19  1  0
 19 20  1  0
 20 21  2  0
 20 22  1  0
 22 23  1  0
 23 24  1  0
 24 25  1  0
 23 26  1  0
 26 27  1  0
  1 28  1  0
  1 29  1  0
  1 30  1  0
  2 31  1  0
  2 32  1  0
  3 33  1  0
  3 34  1  0
  4 35  1  0
  4 36  1  0
  5 37  1  0
  5 38  1  0
  6 39  1  0
  7 40  1  0
  8 41  1  0
  8 42  1  0
  9 43  1  0
 10 44  1  0
 11 45  1  0
 11 46  1  0
 12 47  1  0
 13 48  1  0
 14 49  1  0
 14 50  1  0
 15 51  1  0
 16 52  1  0
 17 53  1  0
 17 54  1  0
 18 55  1  0
 18 56  1  0
 19 57  1  0
 19 58  1  0
 23 59  1  0
 24 60  1  0
 24 61  1  0
 25 62  1  0
 26 63  1  0
 26 64  1  0
 27 65  1  0
M  END
>  <Ligand ID>  (1) 
LIG0001864

>  <Ligand>  (1) 
2-arachidonoylglycerol

>  <SMILES>  (1) 
CCCCC/C=C\C/C=C\C/C=C\C/C=C\CCCC(=O)OC(CO)CO

>  <CID>  (1) 
5282280.0

>  <ChEMBL ID>  (1) 
nan

>  <InChiKey>  (1) 
RCRCTBLIHCHWDZ-DOFZRALJSA-N

>  <InChi>  (1) 
InChI=1S/C23H38O4/c1-2-3-4-5-6-7-8-9-10-11-12-13-14-15-16-17-18-19-23(26)27-22(20-24)21-25/h6-7,9-10,12-13,15-16,22,24-25H,2-5,8,11,14,17-21H2,1H3/b7-6-,10-9-,13-12-,16-15-

>  <IUPAC Name>  (1) 
1,3-dihydroxypropan-2-yl (5Z,8Z,11Z,14Z)-icosa-5,8,11,14-tetraenoate

$$$$
