
     RDKit          3D

 63 68  0  0  0  0  0  0  0  0999 V2000
   -5.9375    3.2236   -0.2180 C   0  0  0  0  0  0  0  0  0  0  0  0
   -4.5843    2.9397   -0.4240 O   0  0  0  0  0  0  0  0  0  0  0  0
   -3.9847    1.7475   -0.0664 C   0  0  0  0  0  0  0  0  0  0  0  0
   -4.7606    0.7695    0.5251 C   0  0  0  0  0  0  0  0  0  0  0  0
   -4.1407   -0.4122    0.8725 C   0  0  0  0  0  0  0  0  0  0  0  0
   -2.7893   -0.6154    0.6388 C   0  0  0  0  0  0  0  0  0  0  0  0
   -1.9943    0.3696    0.0407 C   0  0  0  0  0  0  0  0  0  0  0  0
   -2.6445    1.5339   -0.2926 C   0  0  0  0  0  0  0  0  0  0  0  0
   -1.9317    2.5599   -0.8907 O   0  0  0  0  0  0  0  0  0  0  0  0
   -0.5825    0.1027   -0.1775 C   0  0  2  0  0  0  0  0  0  0  0  0
   -0.2973   -0.5701   -1.5001 C   0  0  0  0  0  0  0  0  0  0  0  0
   -0.6682   -2.0150   -1.5304 C   0  0  0  0  0  0  0  0  0  0  0  0
   -0.4134   -2.7303   -0.3272 N   0  0  0  0  0  0  0  0  0  0  0  0
   -0.7740   -2.0782    0.8889 C   0  0  0  0  0  0  0  0  0  0  0  0
   -2.2439   -1.9339    1.0484 C   0  0  0  0  0  0  0  0  0  0  0  0
   -0.0710   -0.7490    0.9470 C   0  0  2  0  0  0  0  0  0  0  0  0
   -0.2271   -0.1634    2.3077 C   0  0  0  0  0  0  0  0  0  0  0  0
    0.2294    1.2348    2.4838 C   0  0  0  0  0  0  0  0  0  0  0  0
    0.2348    1.9721    1.1903 C   0  0  0  0  0  0  0  0  0  0  0  0
    0.1275    3.1991    1.2816 O   0  0  0  0  0  0  0  0  0  0  0  0
    0.3607    1.2574   -0.0907 C   0  0  1  0  0  0  0  0  0  0  0  0
    1.6647    0.4850    0.0213 C   0  0  0  0  0  0  0  0  0  0  0  0
    2.8199    0.9782   -0.3650 C   0  0  0  0  0  0  0  0  0  0  0  0
    4.0912    0.2973   -0.2840 C   0  0  0  0  0  0  0  0  0  0  0  0
    4.6090   -0.3495    0.7922 C   0  0  0  0  0  0  0  0  0  0  0  0
    5.8535   -0.9967    0.7522 C   0  0  0  0  0  0  0  0  0  0  0  0
    6.6141   -0.9995   -0.4029 C   0  0  0  0  0  0  0  0  0  0  0  0
    6.0889   -0.3344   -1.5164 C   0  0  0  0  0  0  0  0  0  0  0  0
    4.8636    0.2931   -1.4524 C   0  0  0  0  0  0  0  0  0  0  0  0
    2.8488    2.3753   -0.9380 C   0  0  0  0  0  0  0  0  0  0  0  0
    1.3810   -0.8573    0.5852 C   0  0  0  0  0  0  0  0  0  0  0  0
   -1.2189   -3.9611   -0.4184 C   0  0  0  0  0  0  0  0  0  0  0  0
   -6.1591    4.3129   -0.2255 H   0  0  0  0  0  0  0  0  0  0  0  0
   -6.5082    2.8155   -1.1005 H   0  0  0  0  0  0  0  0  0  0  0  0
   -6.3300    2.8312    0.7405 H   0  0  0  0  0  0  0  0  0  0  0  0
   -5.8145    0.8687    0.7271 H   0  0  0  0  0  0  0  0  0  0  0  0
   -4.7424   -1.1901    1.3392 H   0  0  0  0  0  0  0  0  0  0  0  0
   -2.2912    3.0525   -1.7190 H   0  0  0  0  0  0  0  0  0  0  0  0
   -0.9136   -0.0420   -2.2660 H   0  0  0  0  0  0  0  0  0  0  0  0
    0.7582   -0.4021   -1.7994 H   0  0  0  0  0  0  0  0  0  0  0  0
   -1.7353   -2.1757   -1.8250 H   0  0  0  0  0  0  0  0  0  0  0  0
   -0.0628   -2.5012   -2.3270 H   0  0  0  0  0  0  0  0  0  0  0  0
   -0.4019   -2.7453    1.7219 H   0  0  0  0  0  0  0  0  0  0  0  0
   -2.8452   -2.6966    0.4976 H   0  0  0  0  0  0  0  0  0  0  0  0
   -2.5507   -2.0675    2.1282 H   0  0  0  0  0  0  0  0  0  0  0  0
    0.3771   -0.8196    3.0050 H   0  0  0  0  0  0  0  0  0  0  0  0
   -1.2618   -0.2437    2.7080 H   0  0  0  0  0  0  0  0  0  0  0  0
    1.2594    1.2301    2.9406 H   0  0  0  0  0  0  0  0  0  0  0  0
   -0.4053    1.7696    3.2221 H   0  0  0  0  0  0  0  0  0  0  0  0
    0.3462    1.9164   -0.9693 H   0  0  0  0  0  0  0  0  0  0  0  0
    4.1011   -0.3778    1.7185 H   0  0  0  0  0  0  0  0  0  0  0  0
    6.2203   -1.5022    1.6508 H   0  0  0  0  0  0  0  0  0  0  0  0
    7.5751   -1.4897   -0.4597 H   0  0  0  0  0  0  0  0  0  0  0  0
    6.7028   -0.3495   -2.4056 H   0  0  0  0  0  0  0  0  0  0  0  0
    4.5080    0.7920   -2.3443 H   0  0  0  0  0  0  0  0  0  0  0  0
    2.1424    2.3646   -1.7932 H   0  0  0  0  0  0  0  0  0  0  0  0
    3.8528    2.6150   -1.3090 H   0  0  0  0  0  0  0  0  0  0  0  0
    2.5176    3.1044   -0.1483 H   0  0  0  0  0  0  0  0  0  0  0  0
    1.4651   -1.6075   -0.2637 H   0  0  0  0  0  0  0  0  0  0  0  0
    2.0051   -1.1811    1.4081 H   0  0  0  0  0  0  0  0  0  0  0  0
   -0.6346   -4.7572   -0.9422 H   0  0  0  0  0  0  0  0  0  0  0  0
   -1.5838   -4.3102    0.5450 H   0  0  0  0  0  0  0  0  0  0  0  0
   -2.1144   -3.7870   -1.0704 H   0  0  0  0  0  0  0  0  0  0  0  0
  1  2  1  0
  2  3  1  0
  3  4  2  0
  4  5  1  0
  5  6  2  0
  6  7  1  0
  7  8  2  0
  8  9  1  0
  7 10  1  0
 10 11  1  6
 11 12  1  0
 12 13  1  0
 13 14  1  0
 14 15  1  0
 14 16  1  0
 16 17  1  1
 17 18  1  0
 18 19  1  0
 19 20  2  0
 19 21  1  0
 21 22  1  0
 22 23  2  0
 23 24  1  0
 24 25  2  0
 25 26  1  0
 26 27  2  0
 27 28  1  0
 28 29  2  0
 23 30  1  0
 22 31  1  0
 13 32  1  0
  8  3  1  0
 21 10  1  0
 29 24  1  0
 15  6  1  0
 31 16  1  0
 16 10  1  0
  1 33  1  0
  1 34  1  0
  1 35  1  0
  4 36  1  0
  5 37  1  0
  9 38  1  0
 11 39  1  0
 11 40  1  0
 12 41  1  0
 12 42  1  0
 14 43  1  0
 15 44  1  0
 15 45  1  0
 17 46  1  0
 17 47  1  0
 18 48  1  0
 18 49  1  0
 21 50  1  6
 25 51  1  0
 26 52  1  0
 27 53  1  0
 28 54  1  0
 29 55  1  0
 30 56  1  0
 30 57  1  0
 30 58  1  0
 31 59  1  0
 31 60  1  0
 32 61  1  0
 32 62  1  0
 32 63  1  0
M  END
>  <Ligand ID>  (1) 
LIG0002322

>  <Ligand>  (1) 
CHEMBL110124

>  <SMILES>  (1) 
COc1ccc2c(c1O)[C@@]13CCN(C(C2)[C@@]23CCC(=O)[C@H]1/C(=C(/c1ccccc1)\C)/C2)C

>  <CID>  (1) 
44337683.0

>  <ChEMBL ID>  (1) 
nan

>  <InChiKey>  (1) 
LDDLOXPGPQDUOX-WYNUPRQPSA-N

>  <InChi>  (1) 
InChI=1S/C28H31NO3/c1-17(18-7-5-4-6-8-18)20-16-27-12-11-21(30)25(20)28(27)13-14-29(2)23(27)15-19-9-10-22(32-3)26(31)24(19)28/h4-10,23,25,31H,11-16H2,1-3H3/b20-17+/t23?,25-,27-,28+/m1/s1

>  <IUPAC Name>  (1) 
(1S,10S,14S,18E)-3-hydroxy-4-methoxy-17-methyl-18-(1-phenylethylidene)-17-azapentacyclo[7.5.3.210,14.01,10.02,7]nonadeca-2(7),3,5-trien-13-one

$$$$
