
     RDKit          3D

 57 60  0  0  0  0  0  0  0  0999 V2000
    4.8782    1.7529    0.5684 C   0  0  0  0  0  0  0  0  0  0  0  0
    5.4088    0.4206    0.1952 C   0  0  0  0  0  0  0  0  0  0  0  0
    4.3996   -0.6730    0.0021 C   0  0  0  0  0  0  0  0  0  0  0  0
    3.3957   -0.4273   -1.0527 C   0  0  0  0  0  0  0  0  0  0  0  0
    2.0363    0.0144   -0.5974 C   0  0  0  0  0  0  0  0  0  0  0  0
    1.5708   -0.7866    0.6127 C   0  0  0  0  0  0  0  0  0  0  0  0
    2.5392   -0.5022    1.7069 C   0  0  0  0  0  0  0  0  0  0  0  0
    3.8481   -1.1583    1.3223 C   0  0  0  0  0  0  0  0  0  0  0  0
    0.2175   -0.5414    0.8883 N   0  0  0  0  0  0  0  0  0  0  0  0
   -0.2101    0.7574    1.1863 C   0  0  0  0  0  0  0  0  0  0  0  0
   -1.7335    0.7416    1.0764 C   0  0  0  0  0  0  0  0  0  0  0  0
   -2.0726   -0.1072   -0.1051 C   0  0  0  0  0  0  0  0  0  0  0  0
   -1.8981   -1.5559    0.2687 C   0  0  0  0  0  0  0  0  0  0  0  0
   -0.6518   -1.6144    1.1485 C   0  0  0  0  0  0  0  0  0  0  0  0
   -3.3164    0.2037   -0.7355 N   0  0  0  0  0  0  0  0  0  0  0  0
   -3.4710    0.6624   -2.0876 C   0  0  0  0  0  0  0  0  0  0  0  0
   -2.5465    0.8627   -2.9277 O   0  0  0  0  0  0  0  0  0  0  0  0
   -4.8950    0.8822   -2.3966 C   0  0  0  0  0  0  0  0  0  0  0  0
   -5.5621    0.5230   -1.1394 C   0  0  0  0  0  0  0  0  0  0  0  0
   -4.6277    0.1308   -0.1848 C   0  0  0  0  0  0  0  0  0  0  0  0
   -5.0801   -0.2407    1.0555 C   0  0  0  0  0  0  0  0  0  0  0  0
   -6.4354   -0.2314    1.3679 C   0  0  0  0  0  0  0  0  0  0  0  0
   -7.3705    0.1584    0.4207 C   0  0  0  0  0  0  0  0  0  0  0  0
   -6.9255    0.5368   -0.8388 C   0  0  0  0  0  0  0  0  0  0  0  0
    6.3227    0.5727   -1.0024 C   0  0  0  0  0  0  0  0  0  0  0  0
    4.0791    2.1243   -0.1152 H   0  0  0  0  0  0  0  0  0  0  0  0
    4.6450    1.9012    1.6407 H   0  0  0  0  0  0  0  0  0  0  0  0
    5.7317    2.4753    0.3972 H   0  0  0  0  0  0  0  0  0  0  0  0
    6.0795    0.0959    1.0366 H   0  0  0  0  0  0  0  0  0  0  0  0
    5.0410   -1.5445   -0.3375 H   0  0  0  0  0  0  0  0  0  0  0  0
    3.2469   -1.3331   -1.6837 H   0  0  0  0  0  0  0  0  0  0  0  0
    3.7754    0.3418   -1.7567 H   0  0  0  0  0  0  0  0  0  0  0  0
    1.3139   -0.2083   -1.4114 H   0  0  0  0  0  0  0  0  0  0  0  0
    1.9304    1.1005   -0.4189 H   0  0  0  0  0  0  0  0  0  0  0  0
    1.6842   -1.8520    0.3192 H   0  0  0  0  0  0  0  0  0  0  0  0
    2.6825    0.5519    1.9362 H   0  0  0  0  0  0  0  0  0  0  0  0
    2.2590   -0.9983    2.6740 H   0  0  0  0  0  0  0  0  0  0  0  0
    4.6192   -1.0318    2.1014 H   0  0  0  0  0  0  0  0  0  0  0  0
    3.6295   -2.2577    1.2684 H   0  0  0  0  0  0  0  0  0  0  0  0
    0.0885    0.9955    2.2455 H   0  0  0  0  0  0  0  0  0  0  0  0
    0.1806    1.5571    0.5274 H   0  0  0  0  0  0  0  0  0  0  0  0
   -2.1411    1.7575    1.0133 H   0  0  0  0  0  0  0  0  0  0  0  0
   -2.0203    0.2178    2.0146 H   0  0  0  0  0  0  0  0  0  0  0  0
   -1.2735    0.0820   -0.8799 H   0  0  0  0  0  0  0  0  0  0  0  0
   -1.6971   -2.1235   -0.6799 H   0  0  0  0  0  0  0  0  0  0  0  0
   -2.7768   -2.0020    0.7696 H   0  0  0  0  0  0  0  0  0  0  0  0
   -0.1098   -2.5698    0.9626 H   0  0  0  0  0  0  0  0  0  0  0  0
   -0.9705   -1.6562    2.2070 H   0  0  0  0  0  0  0  0  0  0  0  0
   -5.2555    0.2117   -3.2167 H   0  0  0  0  0  0  0  0  0  0  0  0
   -5.0535    1.9450   -2.6381 H   0  0  0  0  0  0  0  0  0  0  0  0
   -4.3928   -0.5453    1.8067 H   0  0  0  0  0  0  0  0  0  0  0  0
   -6.7644   -0.5263    2.3450 H   0  0  0  0  0  0  0  0  0  0  0  0
   -8.4474    0.1738    0.6447 H   0  0  0  0  0  0  0  0  0  0  0  0
   -7.6411    0.8471   -1.6000 H   0  0  0  0  0  0  0  0  0  0  0  0
    6.9736   -0.3359   -1.0868 H   0  0  0  0  0  0  0  0  0  0  0  0
    5.7596    0.7888   -1.9104 H   0  0  0  0  0  0  0  0  0  0  0  0
    7.0033    1.4362   -0.7743 H   0  0  0  0  0  0  0  0  0  0  0  0
  1  2  1  0
  2  3  1  0
  3  4  1  0
  4  5  1  0
  5  6  1  0
  6  7  1  0
  7  8  1  0
  6  9  1  0
  9 10  1  0
 10 11  1  0
 11 12  1  0
 12 13  1  0
 13 14  1  0
 12 15  1  0
 15 16  1  0
 16 17  2  0
 16 18  1  0
 18 19  1  0
 19 20  2  0
 20 21  1  0
 21 22  2  0
 22 23  1  0
 23 24  2  0
  2 25  1  0
  8  3  1  0
 14  9  1  0
 20 15  1  0
 24 19  1  0
  1 26  1  0
  1 27  1  0
  1 28  1  0
  2 29  1  0
  3 30  1  0
  4 31  1  0
  4 32  1  0
  5 33  1  0
  5 34  1  0
  6 35  1  0
  7 36  1  0
  7 37  1  0
  8 38  1  0
  8 39  1  0
 10 40  1  0
 10 41  1  0
 11 42  1  0
 11 43  1  0
 12 44  1  0
 13 45  1  0
 13 46  1  0
 14 47  1  0
 14 48  1  0
 18 49  1  0
 18 50  1  0
 21 51  1  0
 22 52  1  0
 23 53  1  0
 24 54  1  0
 25 55  1  0
 25 56  1  0
 25 57  1  0
M  END
>  <Ligand ID>  (1) 
LIG0003462

>  <Ligand>  (1) 
CHEMBL99738

>  <SMILES>  (1) 
CC(C1CCC(CC1)N1CCC(CC1)N1C(=O)Cc2c1cccc2)C

>  <CID>  (1) 
10042904.0

>  <ChEMBL ID>  (1) 
nan

>  <InChiKey>  (1) 
KZQZXGOXGSLNTB-UHFFFAOYSA-N

>  <InChi>  (1) 
InChI=1S/C22H32N2O/c1-16(2)17-7-9-19(10-8-17)23-13-11-20(12-14-23)24-21-6-4-3-5-18(21)15-22(24)25/h3-6,16-17,19-20H,7-15H2,1-2H3

>  <IUPAC Name>  (1) 
1-[1-(4-propan-2-ylcyclohexyl)piperidin-4-yl]-3H-indol-2-one

$$$$
