
     RDKit          3D

 51 54  0  0  0  0  0  0  0  0999 V2000
    7.7446    0.6022   -0.6203 C   0  0  0  0  0  0  0  0  0  0  0  0
    6.3859    1.2228   -0.6335 C   0  0  0  0  0  0  0  0  0  0  0  0
    6.1985    2.5744   -0.8678 C   0  0  0  0  0  0  0  0  0  0  0  0
    4.8941    3.0650   -0.8631 C   0  0  0  0  0  0  0  0  0  0  0  0
    3.8295    2.2430   -0.6350 C   0  0  0  0  0  0  0  0  0  0  0  0
    3.9937    0.9005   -0.4009 C   0  0  0  0  0  0  0  0  0  0  0  0
    5.2947    0.4247   -0.4082 C   0  0  0  0  0  0  0  0  0  0  0  0
    2.8931   -0.0227   -0.1550 C   0  0  0  0  0  0  0  0  0  0  0  0
    3.1697   -1.3322    0.0669 N   0  0  0  0  0  0  0  0  0  0  0  0
    2.2384   -2.2670    0.2990 C   0  0  0  0  0  0  0  0  0  0  0  0
    2.5900   -3.5852    0.5167 C   0  0  0  0  0  0  0  0  0  0  0  0
    1.6229   -4.5517    0.7558 C   0  0  0  0  0  0  0  0  0  0  0  0
    0.3115   -4.1216    0.7623 C   0  0  0  0  0  0  0  0  0  0  0  0
   -0.0327   -2.8074    0.5450 C   0  0  0  0  0  0  0  0  0  0  0  0
    0.9222   -1.8531    0.3092 C   0  0  0  0  0  0  0  0  0  0  0  0
    0.5351   -0.5623    0.0981 C   0  0  0  0  0  0  0  0  0  0  0  0
    1.5698    0.3591   -0.1383 C   0  0  0  0  0  0  0  0  0  0  0  0
   -0.8017   -0.0387    0.0871 C   0  0  0  0  0  0  0  0  0  0  0  0
   -1.1448    0.6296   -0.9520 O   0  0  0  0  0  0  0  0  0  0  0  0
   -1.7851   -0.1667    1.0873 N   0  0  0  0  0  0  0  0  0  0  0  0
   -3.0502    0.4125    0.9724 C   0  0  0  0  0  0  0  0  0  0  0  0
   -3.1875    2.0675    1.6836 S   0  0  0  0  0  0  0  0  0  0  0  0
   -4.9493    2.1934    1.2119 C   0  0  0  0  0  0  0  0  0  0  0  0
   -5.2591    0.9979    0.5756 C   0  0  0  0  0  0  0  0  0  0  0  0
   -4.2589    0.0999    0.4673 C   0  0  0  0  0  0  0  0  0  0  0  0
   -4.4651   -1.2173   -0.2088 C   0  0  0  0  0  0  0  0  0  0  0  0
   -3.5034   -2.0135   -0.2965 O   0  0  0  0  0  0  0  0  0  0  0  0
   -5.6975   -1.6158   -0.7596 N   0  0  0  0  0  0  0  0  0  0  0  0
   -6.6742    0.7978    0.0629 C   0  0  0  0  0  0  0  0  0  0  0  0
   -5.8073    3.3733    1.4922 C   0  0  0  0  0  0  0  0  0  0  0  0
    7.9455    0.0829    0.3370 H   0  0  0  0  0  0  0  0  0  0  0  0
    7.8161   -0.1345   -1.4373 H   0  0  0  0  0  0  0  0  0  0  0  0
    8.5310    1.3727   -0.7440 H   0  0  0  0  0  0  0  0  0  0  0  0
    7.0517    3.2259   -1.0499 H   0  0  0  0  0  0  0  0  0  0  0  0
    4.7664    4.1259   -1.0475 H   0  0  0  0  0  0  0  0  0  0  0  0
    2.8453    2.6791   -0.6429 H   0  0  0  0  0  0  0  0  0  0  0  0
    5.4617   -0.6469   -0.2222 H   0  0  0  0  0  0  0  0  0  0  0  0
    3.6199   -3.9161    0.5109 H   0  0  0  0  0  0  0  0  0  0  0  0
    1.9154   -5.5809    0.9242 H   0  0  0  0  0  0  0  0  0  0  0  0
   -0.4618   -4.8754    0.9492 H   0  0  0  0  0  0  0  0  0  0  0  0
   -1.0467   -2.5224    0.5586 H   0  0  0  0  0  0  0  0  0  0  0  0
    1.3301    1.3788   -0.3097 H   0  0  0  0  0  0  0  0  0  0  0  0
   -1.5534   -0.7070    1.9482 H   0  0  0  0  0  0  0  0  0  0  0  0
   -6.0171   -1.2714   -1.6906 H   0  0  0  0  0  0  0  0  0  0  0  0
   -6.3641   -2.2817   -0.2771 H   0  0  0  0  0  0  0  0  0  0  0  0
   -7.0801   -0.1492    0.4649 H   0  0  0  0  0  0  0  0  0  0  0  0
   -6.7420    0.8830   -1.0199 H   0  0  0  0  0  0  0  0  0  0  0  0
   -7.3524    1.5790    0.5166 H   0  0  0  0  0  0  0  0  0  0  0  0
   -6.2527    3.8233    0.5822 H   0  0  0  0  0  0  0  0  0  0  0  0
   -5.2940    4.0987    2.1383 H   0  0  0  0  0  0  0  0  0  0  0  0
   -6.6957    3.0273    2.0951 H   0  0  0  0  0  0  0  0  0  0  0  0
  1  2  1  0
  2  3  2  0
  3  4  1  0
  4  5  2  0
  5  6  1  0
  6  7  2  0
  6  8  1  0
  8  9  2  0
  9 10  1  0
 10 11  2  0
 11 12  1  0
 12 13  2  0
 13 14  1  0
 14 15  2  0
 15 16  1  0
 16 17  2  0
 16 18  1  0
 18 19  2  0
 18 20  1  0
 20 21  1  0
 21 22  1  0
 22 23  1  0
 23 24  2  0
 24 25  1  0
 25 26  1  0
 26 27  2  0
 26 28  1  0
 24 29  1  0
 23 30  1  0
  7  2  1  0
 17  8  1  0
 25 21  2  0
 15 10  1  0
  1 31  1  0
  1 32  1  0
  1 33  1  0
  3 34  1  0
  4 35  1  0
  5 36  1  0
  7 37  1  0
 11 38  1  0
 12 39  1  0
 13 40  1  0
 14 41  1  0
 17 42  1  0
 20 43  1  0
 28 44  1  0
 28 45  1  0
 29 46  1  0
 29 47  1  0
 29 48  1  0
 30 49  1  0
 30 50  1  0
 30 51  1  0
M  END
>  <Ligand ID>  (1) 
LIG0003849

>  <Ligand>  (1) 
MLS000579674

>  <SMILES>  (1) 
Cc1cccc(c1)c1nc2ccccc2c(c1)C(=O)Nc1sc(c(c1C(=O)N)C)C

>  <CID>  (1) 
1358604.0

>  <ChEMBL ID>  (1) 
nan

>  <InChiKey>  (1) 
QGPGSBQJJPTHDE-UHFFFAOYSA-N

>  <InChi>  (1) 
InChI=1S/C24H21N3O2S/c1-13-7-6-8-16(11-13)20-12-18(17-9-4-5-10-19(17)26-20)23(29)27-24-21(22(25)28)14(2)15(3)30-24/h4-12H,1-3H3,(H2,25,28)(H,27,29)

>  <IUPAC Name>  (1) 
N-(3-carbamoyl-4,5-dimethylthiophen-2-yl)-2-(3-methylphenyl)quinoline-4-carboxamide

$$$$
