
     RDKit          3D

 84 91  0  0  0  0  0  0  0  0999 V2000
    7.5922   -0.3635    2.4218 O   0  0  0  0  0  0  0  0  0  0  0  0
    7.8703   -1.2743    1.4004 C   0  0  0  0  0  0  0  0  0  0  0  0
    8.0379   -0.4791    0.1198 C   0  0  0  0  0  0  0  0  0  0  0  0
    6.7764    0.2472   -0.1618 C   0  0  0  0  0  0  0  0  0  0  0  0
    5.8599   -0.1373   -1.1043 C   0  0  0  0  0  0  0  0  0  0  0  0
    4.6936    0.5913   -1.3184 C   0  0  0  0  0  0  0  0  0  0  0  0
    4.4177    1.7437   -0.5764 C   0  0  0  0  0  0  0  0  0  0  0  0
    5.3481    2.1194    0.3685 C   0  0  0  0  0  0  0  0  0  0  0  0
    6.5115    1.3780    0.5703 C   0  0  0  0  0  0  0  0  0  0  0  0
    3.2034    2.5451   -0.7647 C   0  0  0  0  0  0  0  0  0  0  0  0
    2.1301    2.1660    0.0214 O   0  0  0  0  0  0  0  0  0  0  0  0
    1.7432    0.8470   -0.2243 C   0  0  0  0  0  0  0  0  0  0  0  0
    0.5717    0.4403    0.6369 C   0  0  1  0  0  0  0  0  0  0  0  0
   -0.6400    1.3122    0.3897 C   0  0  0  0  0  0  0  0  0  0  0  0
   -1.7517    0.4613   -0.1148 C   0  0  1  0  0  0  0  0  0  0  0  0
   -1.2147   -0.1396   -1.4247 C   0  0  0  0  0  0  0  0  0  0  0  0
   -0.1528   -1.1512   -1.0804 C   0  0  0  0  0  0  0  0  0  0  0  0
    0.2944   -1.0350    0.3564 C   0  0  1  0  0  0  0  0  0  0  0  0
    1.4687   -1.7510    0.4905 O   0  0  0  0  0  0  0  0  0  0  0  0
    2.0547   -1.7272    1.7229 C   0  0  0  0  0  0  0  0  0  0  0  0
   -0.8006   -1.4733    1.2419 C   0  0  1  0  0  0  0  0  0  0  0  0
   -2.0259   -0.6447    0.8619 C   0  0  1  0  0  0  0  0  0  0  0  0
   -2.7008   -0.1917    2.0921 C   0  0  0  0  0  0  0  0  0  0  0  0
   -3.8610    0.6943    1.8358 C   0  0  0  0  0  0  0  0  0  0  0  0
   -3.4494    1.7537    0.9256 N   0  0  0  0  0  0  0  0  0  0  0  0
   -3.0682    1.1511   -0.3585 C   0  0  2  0  0  0  0  0  0  0  0  0
   -4.1249    0.2311   -0.8502 C   0  0  0  0  0  0  0  0  0  0  0  0
   -3.8424   -1.2062   -0.6811 C   0  0  0  0  0  0  0  0  0  0  0  0
   -2.7988   -1.6184    0.0792 C   0  0  0  0  0  0  0  0  0  0  0  0
   -2.3583   -2.8955    0.2714 C   0  0  0  0  0  0  0  0  0  0  0  0
   -1.2459   -2.8086    1.1183 O   0  0  0  0  0  0  0  0  0  0  0  0
   -3.0580   -3.8904   -0.3746 C   0  0  0  0  0  0  0  0  0  0  0  0
   -2.6502   -5.2044   -0.2070 O   0  0  0  0  0  0  0  0  0  0  0  0
   -3.4104   -6.1843   -0.8978 C   0  0  0  0  0  0  0  0  0  0  0  0
   -4.1527   -3.5465   -1.1758 C   0  0  0  0  0  0  0  0  0  0  0  0
   -4.5505   -2.2122   -1.3353 C   0  0  0  0  0  0  0  0  0  0  0  0
   -4.5627    2.6537    0.7843 C   0  0  0  0  0  0  0  0  0  0  0  0
   -4.2914    3.8082   -0.1311 C   0  0  0  0  0  0  0  0  0  0  0  0
   -5.4541    4.8109   -0.3220 C   0  0  0  0  0  0  0  0  0  0  0  0
   -5.1696    3.8548   -1.4182 C   0  0  0  0  0  0  0  0  0  0  0  0
    9.0836    0.4431    0.2232 O   0  0  0  0  0  0  0  0  0  0  0  0
    7.2874   -0.8668    3.2267 H   0  0  0  0  0  0  0  0  0  0  0  0
    8.7882   -1.8396    1.6392 H   0  0  0  0  0  0  0  0  0  0  0  0
    7.0068   -1.9561    1.2265 H   0  0  0  0  0  0  0  0  0  0  0  0
    8.2841   -1.1897   -0.7199 H   0  0  0  0  0  0  0  0  0  0  0  0
    6.0782   -1.0314   -1.6771 H   0  0  0  0  0  0  0  0  0  0  0  0
    3.9826    0.2659   -2.0714 H   0  0  0  0  0  0  0  0  0  0  0  0
    5.2115    3.0035    0.9895 H   0  0  0  0  0  0  0  0  0  0  0  0
    7.2148    1.7174    1.3294 H   0  0  0  0  0  0  0  0  0  0  0  0
    3.4559    3.5900   -0.5085 H   0  0  0  0  0  0  0  0  0  0  0  0
    2.9528    2.5522   -1.8446 H   0  0  0  0  0  0  0  0  0  0  0  0
    2.6321    0.2230   -0.0001 H   0  0  0  0  0  0  0  0  0  0  0  0
    1.5743    0.7762   -1.3015 H   0  0  0  0  0  0  0  0  0  0  0  0
    0.8621    0.5902    1.6840 H   0  0  0  0  0  0  0  0  0  0  0  0
   -0.9062    1.9342    1.2639 H   0  0  0  0  0  0  0  0  0  0  0  0
   -0.3670    2.0252   -0.4311 H   0  0  0  0  0  0  0  0  0  0  0  0
   -0.7042    0.7275   -1.9391 H   0  0  0  0  0  0  0  0  0  0  0  0
   -1.9812   -0.5644   -2.0633 H   0  0  0  0  0  0  0  0  0  0  0  0
   -0.5774   -2.1639   -1.2154 H   0  0  0  0  0  0  0  0  0  0  0  0
    0.7077   -1.1108   -1.7869 H   0  0  0  0  0  0  0  0  0  0  0  0
    2.9950   -2.3505    1.6553 H   0  0  0  0  0  0  0  0  0  0  0  0
    2.3408   -0.7660    2.1358 H   0  0  0  0  0  0  0  0  0  0  0  0
    1.3947   -2.3213    2.4096 H   0  0  0  0  0  0  0  0  0  0  0  0
   -0.6145   -1.2963    2.3239 H   0  0  0  0  0  0  0  0  0  0  0  0
   -2.9758   -1.0988    2.6944 H   0  0  0  0  0  0  0  0  0  0  0  0
   -1.9851    0.3977    2.7421 H   0  0  0  0  0  0  0  0  0  0  0  0
   -4.1142    1.2463    2.7942 H   0  0  0  0  0  0  0  0  0  0  0  0
   -4.7505    0.1518    1.5191 H   0  0  0  0  0  0  0  0  0  0  0  0
   -2.9048    1.9778   -1.0551 H   0  0  0  0  0  0  0  0  0  0  0  0
   -5.1417    0.3930   -0.4347 H   0  0  0  0  0  0  0  0  0  0  0  0
   -4.2747    0.4804   -1.9526 H   0  0  0  0  0  0  0  0  0  0  0  0
   -2.9662   -7.1971   -0.8144 H   0  0  0  0  0  0  0  0  0  0  0  0
   -3.4123   -5.8835   -1.9849 H   0  0  0  0  0  0  0  0  0  0  0  0
   -4.4473   -6.1118   -0.5244 H   0  0  0  0  0  0  0  0  0  0  0  0
   -4.7069   -4.3352   -1.6862 H   0  0  0  0  0  0  0  0  0  0  0  0
   -5.3945   -1.9393   -1.9538 H   0  0  0  0  0  0  0  0  0  0  0  0
   -5.5150    2.1969    0.5114 H   0  0  0  0  0  0  0  0  0  0  0  0
   -4.7207    3.0922    1.7966 H   0  0  0  0  0  0  0  0  0  0  0  0
   -3.2883    4.2579   -0.2188 H   0  0  0  0  0  0  0  0  0  0  0  0
   -6.3613    4.6450    0.3016 H   0  0  0  0  0  0  0  0  0  0  0  0
   -5.1679    5.8773   -0.4126 H   0  0  0  0  0  0  0  0  0  0  0  0
   -5.8992    3.0102   -1.5332 H   0  0  0  0  0  0  0  0  0  0  0  0
   -4.7221    4.2599   -2.3260 H   0  0  0  0  0  0  0  0  0  0  0  0
    8.8078    1.3131   -0.1710 H   0  0  0  0  0  0  0  0  0  0  0  0
  1  2  1  0
  2  3  1  0
  3  4  1  0
  4  5  2  0
  5  6  1  0
  6  7  2  0
  7  8  1  0
  8  9  2  0
  7 10  1  0
 10 11  1  0
 11 12  1  0
 12 13  1  0
 13 14  1  0
 15 14  1  1
 15 16  1  0
 16 17  1  0
 17 18  1  0
 18 19  1  6
 19 20  1  0
 18 21  1  0
 21 22  1  0
 22 23  1  1
 23 24  1  0
 24 25  1  0
 25 26  1  0
 26 27  1  0
 27 28  1  0
 28 29  1  0
 29 30  2  0
 30 31  1  0
 30 32  1  0
 32 33  1  0
 33 34  1  0
 32 35  2  0
 35 36  1  0
 25 37  1  0
 37 38  1  0
 38 39  1  0
 39 40  1  0
  3 41  1  0
  9  4  1  0
 18 13  1  0
 31 21  1  0
 40 38  1  0
 26 15  1  0
 36 28  2  0
 22 15  1  0
 29 22  1  0
  1 42  1  0
  2 43  1  0
  2 44  1  0
  3 45  1  0
  5 46  1  0
  6 47  1  0
  8 48  1  0
  9 49  1  0
 10 50  1  0
 10 51  1  0
 12 52  1  0
 12 53  1  0
 13 54  1  1
 14 55  1  0
 14 56  1  0
 16 57  1  0
 16 58  1  0
 17 59  1  0
 17 60  1  0
 20 61  1  0
 20 62  1  0
 20 63  1  0
 21 64  1  1
 23 65  1  0
 23 66  1  0
 24 67  1  0
 24 68  1  0
 26 69  1  6
 27 70  1  0
 27 71  1  0
 34 72  1  0
 34 73  1  0
 34 74  1  0
 35 75  1  0
 36 76  1  0
 37 77  1  0
 37 78  1  0
 38 79  1  0
 39 80  1  0
 39 81  1  0
 40 82  1  0
 40 83  1  0
 41 84  1  0
M  END
>  <Ligand ID>  (1) 
LIG0004771

>  <Ligand>  (1) 
SCHEMBL15485428

>  <SMILES>  (1) 
OCC(c1ccc(cc1)COC[C@H]1C[C@]23CC[C@]1(OC)[C@H]1[C@]43CCN([C@@H]2Cc2c4c(O1)c(OC)cc2)CC1CC1)O

>  <CID>  (1) 
89978382.0

>  <ChEMBL ID>  (1) 
nan

>  <InChiKey>  (1) 
RTJWYSXNAXKJOC-FEJKDCIJSA-N

>  <InChi>  (1) 
InChI=1S/C34H43NO6/c1-38-27-10-9-24-15-28-32-11-12-34(39-2,25(16-32)20-40-19-22-5-7-23(8-6-22)26(37)18-36)31-33(32,29(24)30(27)41-31)13-14-35(28)17-21-3-4-21/h5-10,21,25-26,28,31,36-37H,3-4,11-20H2,1-2H3/t25-,26?,28-,31-,32-,33+,34-/m1/s1

>  <IUPAC Name>  (1) 
1-[4-[[(1S,2S,6R,14R,15R,16R)-5-(cyclopropylmethyl)-11,15-dimethoxy-13-oxa-5-azahexacyclo[13.2.2.12,8.01,6.02,14.012,20]icosa-8(20),9,11-trien-16-yl]methoxymethyl]phenyl]ethane-1,2-diol

$$$$
