
     RDKit          3D

209217  0  0  0  0  0  0  0  0999 V2000
  -11.4974    3.4935    0.5856 N   0  0  0  0  0  0  0  0  0  0  0  0
  -11.2545    2.3420   -0.1968 C   0  0  0  0  0  0  0  0  0  0  0  0
  -10.8090    2.4489   -1.3937 N   0  0  0  0  0  0  0  0  0  0  0  0
  -11.5108    1.0398    0.3442 N   0  0  0  0  0  0  0  0  0  0  0  0
  -10.6887   -0.0865    0.1167 C   0  0  0  0  0  0  0  0  0  0  0  0
   -9.3213   -0.0729    0.7824 C   0  0  0  0  0  0  0  0  0  0  0  0
   -8.4814    1.0951    0.3712 C   0  0  0  0  0  0  0  0  0  0  0  0
   -7.1767    1.1067    0.9398 C   0  0  1  0  0  0  0  0  0  0  0  0
   -6.2131    0.0711    0.5728 C   0  0  0  0  0  0  0  0  0  0  0  0
   -4.9845    0.3771    0.9111 O   0  0  0  0  0  0  0  0  0  0  0  0
   -6.3639   -1.1521   -0.0634 N   0  0  0  0  0  0  0  0  0  0  0  0
   -5.1996   -2.0422   -0.0517 C   0  0  1  0  0  0  0  0  0  0  0  0
   -5.1012   -2.5340    1.4327 C   0  0  0  0  0  0  0  0  0  0  0  0
   -6.3060   -3.2011    1.9012 C   0  0  0  0  0  0  0  0  0  0  0  0
   -7.4984   -3.5643    1.3454 C   0  0  0  0  0  0  0  0  0  0  0  0
   -8.3082   -4.1657    2.2605 N   0  0  0  0  0  0  0  0  0  0  0  0
   -7.6581   -4.2018    3.4133 C   0  0  0  0  0  0  0  0  0  0  0  0
   -6.4286   -3.6244    3.2507 C   0  0  0  0  0  0  0  0  0  0  0  0
   -5.5932   -3.5715    4.3333 C   0  0  0  0  0  0  0  0  0  0  0  0
   -5.9542   -4.0789    5.5659 C   0  0  0  0  0  0  0  0  0  0  0  0
   -7.2107   -4.6566    5.6855 C   0  0  0  0  0  0  0  0  0  0  0  0
   -8.0849   -4.7333    4.6234 C   0  0  0  0  0  0  0  0  0  0  0  0
   -5.1949   -3.2082   -0.8754 C   0  0  0  0  0  0  0  0  0  0  0  0
   -6.1531   -3.7013   -1.5470 O   0  0  0  0  0  0  0  0  0  0  0  0
   -3.9609   -3.9405   -0.9933 N   0  0  0  0  0  0  0  0  0  0  0  0
   -3.8927   -5.2434   -1.5841 C   0  0  1  0  0  0  0  0  0  0  0  0
   -3.6529   -5.2412   -3.0845 C   0  0  0  0  0  0  0  0  0  0  0  0
   -4.7120   -4.5763   -3.8434 C   0  0  0  0  0  0  0  0  0  0  0  0
   -4.7259   -3.3940   -4.2351 O   0  0  0  0  0  0  0  0  0  0  0  0
   -5.8621   -5.4129   -4.1643 N   0  0  0  0  0  0  0  0  0  0  0  0
   -2.8926   -6.1322   -0.9761 C   0  0  0  0  0  0  0  0  0  0  0  0
   -3.1778   -7.3824   -0.9435 O   0  0  0  0  0  0  0  0  0  0  0  0
   -1.6466   -5.7449   -0.4459 N   0  0  0  0  0  0  0  0  0  0  0  0
   -0.8317   -6.7158    0.2443 C   0  0  1  0  0  0  0  0  0  0  0  0
   -0.8686   -8.0360   -0.6066 C   0  0  0  0  0  0  0  0  0  0  0  0
    0.5633   -6.3770    0.4794 C   0  0  0  0  0  0  0  0  0  0  0  0
    1.1595   -7.0952    1.3736 O   0  0  0  0  0  0  0  0  0  0  0  0
    1.3324   -5.3837   -0.1534 N   0  0  0  0  0  0  0  0  0  0  0  0
    2.7694   -5.3113    0.2952 C   0  0  1  0  0  0  0  0  0  0  0  0
    3.3716   -6.4642   -0.4864 C   0  0  0  0  0  0  0  0  0  0  0  0
    4.7757   -6.7582   -0.3069 C   0  0  0  0  0  0  0  0  0  0  0  0
    5.1402   -7.5259    0.8075 C   0  0  0  0  0  0  0  0  0  0  0  0
    6.4241   -7.9280    1.0609 C   0  0  0  0  0  0  0  0  0  0  0  0
    7.4592   -7.5906    0.2108 C   0  0  0  0  0  0  0  0  0  0  0  0
    7.0990   -6.8276   -0.8932 C   0  0  0  0  0  0  0  0  0  0  0  0
    5.8110   -6.4260   -1.1470 C   0  0  0  0  0  0  0  0  0  0  0  0
    3.3165   -4.0069    0.0179 C   0  0  0  0  0  0  0  0  0  0  0  0
    2.5963   -3.2001   -0.6821 O   0  0  0  0  0  0  0  0  0  0  0  0
    4.5631   -3.4725    0.4225 N   0  0  0  0  0  0  0  0  0  0  0  0
    5.0408   -2.1802    0.0983 C   0  0  1  0  0  0  0  0  0  0  0  0
    4.7909   -1.1537    1.2128 C   0  0  0  0  0  0  0  0  0  0  0  0
    5.6663    0.3287    0.6657 S   0  0  0  0  0  0  0  0  0  0  0  0
    5.3435    1.9053    1.9849 S   0  0  0  0  0  0  0  0  0  0  0  0
    3.9177    2.8905    1.3723 C   0  0  0  0  0  0  0  0  0  0  0  0
    4.2763    3.5018    0.0445 C   0  0  1  0  0  0  0  0  0  0  0  0
    3.2948    4.4513   -0.5026 C   0  0  0  0  0  0  0  0  0  0  0  0
    3.5879    5.5892   -0.9921 O   0  0  0  0  0  0  0  0  0  0  0  0
    1.8819    4.1592   -0.5322 N   0  0  0  0  0  0  0  0  0  0  0  0
    1.0321    5.1858   -1.2239 C   0  0  2  0  0  0  0  0  0  0  0  0
   -0.2881    5.2582   -0.5920 C   0  0  0  0  0  0  0  0  0  0  0  0
   -1.0500    6.2195   -0.9925 O   0  0  0  0  0  0  0  0  0  0  0  0
   -0.8456    4.4148    0.4040 N   0  0  0  0  0  0  0  0  0  0  0  0
   -2.2595    4.6404    0.7637 C   0  0  1  0  0  0  0  0  0  0  0  0
   -3.1036    3.6975   -0.0071 C   0  0  0  0  0  0  0  0  0  0  0  0
   -2.7041    2.6327   -0.5184 O   0  0  0  0  0  0  0  0  0  0  0  0
   -4.4466    4.0701   -0.1612 N   0  0  0  0  0  0  0  0  0  0  0  0
   -5.4410    3.2951   -0.9287 C   0  0  1  0  0  0  0  0  0  0  0  0
   -6.6951    3.2079   -0.1160 C   0  0  0  0  0  0  0  0  0  0  0  0
   -6.5030    2.4695    1.0980 N   0  0  0  0  0  0  0  0  0  0  0  0
   -6.0003    2.8987    2.3147 C   0  0  0  0  0  0  0  0  0  0  0  0
   -6.4492    1.9156    3.1409 O   0  0  0  0  0  0  0  0  0  0  0  0
   -5.2832    3.8224    3.1139 C   0  0  0  0  0  0  0  0  0  0  0  0
   -4.2027    5.0829    2.6879 S   0  0  0  0  0  0  0  0  0  0  0  0
   -2.5365    4.8987    2.1665 C   0  0  0  0  0  0  0  0  0  0  0  0
   -5.8169    4.0549   -2.1751 C   0  0  0  0  0  0  0  0  0  0  0  0
   -6.4059    5.3854   -1.8983 C   0  0  0  0  0  0  0  0  0  0  0  0
   -7.7489    5.6399   -1.7787 C   0  0  0  0  0  0  0  0  0  0  0  0
   -8.2502    6.8869   -1.5137 C   0  0  0  0  0  0  0  0  0  0  0  0
   -7.4177    7.9818   -1.3485 C   0  0  0  0  0  0  0  0  0  0  0  0
   -6.0686    7.7555   -1.4626 C   0  0  0  0  0  0  0  0  0  0  0  0
   -5.5690    6.5046   -1.7282 C   0  0  0  0  0  0  0  0  0  0  0  0
    0.9009    4.6160   -2.6462 C   0  0  0  0  0  0  0  0  0  0  0  0
    0.2148    5.4025   -3.6435 C   0  0  0  0  0  0  0  0  0  0  0  0
   -0.2635    6.6835   -3.7416 C   0  0  0  0  0  0  0  0  0  0  0  0
   -0.7687    6.9112   -4.9842 N   0  0  0  0  0  0  0  0  0  0  0  0
   -0.6038    5.7818   -5.6540 C   0  0  0  0  0  0  0  0  0  0  0  0
   -0.0327    4.8706   -4.9070 N   0  0  0  0  0  0  0  0  0  0  0  0
    5.6350    3.8668   -0.0610 N   0  0  0  0  0  0  0  0  0  0  0  0
    6.3094    4.9912   -0.5333 C   0  0  0  0  0  0  0  0  0  0  0  0
    5.8098    6.0507   -0.9720 O   0  0  0  0  0  0  0  0  0  0  0  0
    7.8227    4.9937   -0.5528 C   0  0  2  0  0  0  0  0  0  0  0  0
    8.3693    4.6889    0.7915 C   0  0  0  0  0  0  0  0  0  0  0  0
    7.9492    5.6570    1.8043 C   0  0  0  0  0  0  0  0  0  0  0  0
    8.7590    6.7897    1.9735 C   0  0  0  0  0  0  0  0  0  0  0  0
    8.4689    7.7471    2.8984 C   0  0  0  0  0  0  0  0  0  0  0  0
    7.3402    7.6526    3.7320 C   0  0  0  0  0  0  0  0  0  0  0  0
    6.5361    6.5312    3.5655 C   0  0  0  0  0  0  0  0  0  0  0  0
    6.8563    5.5604    2.6083 C   0  0  0  0  0  0  0  0  0  0  0  0
    7.0625    8.6329    4.6656 O   0  0  0  0  0  0  0  0  0  0  0  0
    8.2615    6.3081   -0.9748 N   0  0  0  0  0  0  0  0  0  0  0  0
    6.4457   -2.1434   -0.2698 C   0  0  0  0  0  0  0  0  0  0  0  0
    6.9492   -1.0112   -0.6108 O   0  0  0  0  0  0  0  0  0  0  0  0
    7.3528   -3.2238   -0.3041 N   0  0  0  0  0  0  0  0  0  0  0  0
    8.7647   -3.0842   -0.6998 C   0  0  2  0  0  0  0  0  0  0  0  0
    8.8674   -3.5975   -2.0813 C   0  0  0  0  0  0  0  0  0  0  0  0
    9.9504   -3.6222   -2.7425 O   0  0  0  0  0  0  0  0  0  0  0  0
    7.7209   -4.1168   -2.7937 N   0  0  0  0  0  0  0  0  0  0  0  0
    9.5473   -3.9134    0.2515 C   0  0  0  0  0  0  0  0  0  0  0  0
   10.9875   -3.8662   -0.0702 C   0  0  0  0  0  0  0  0  0  0  0  0
   11.8473   -2.8875    0.3876 C   0  0  0  0  0  0  0  0  0  0  0  0
   13.2136   -2.9054    0.0747 C   0  0  0  0  0  0  0  0  0  0  0  0
   13.7005   -3.9381   -0.7127 C   0  0  0  0  0  0  0  0  0  0  0  0
   12.8468   -4.9133   -1.1681 C   0  0  0  0  0  0  0  0  0  0  0  0
   11.5099   -4.8793   -0.8533 C   0  0  0  0  0  0  0  0  0  0  0  0
   15.0732   -3.9545   -1.0276 O   0  0  0  0  0  0  0  0  0  0  0  0
  -11.8103    3.4858    1.5836 H   0  0  0  0  0  0  0  0  0  0  0  0
  -11.3654    4.4509    0.1356 H   0  0  0  0  0  0  0  0  0  0  0  0
  -10.6372    1.5960   -1.9593 H   0  0  0  0  0  0  0  0  0  0  0  0
  -12.3857    0.9548    0.9599 H   0  0  0  0  0  0  0  0  0  0  0  0
  -10.5809   -0.2211   -1.0005 H   0  0  0  0  0  0  0  0  0  0  0  0
  -11.2360   -1.0069    0.4646 H   0  0  0  0  0  0  0  0  0  0  0  0
   -8.8954   -1.0720    0.6842 H   0  0  0  0  0  0  0  0  0  0  0  0
   -9.5569   -0.0071    1.9006 H   0  0  0  0  0  0  0  0  0  0  0  0
   -8.5330    1.0729   -0.7591 H   0  0  0  0  0  0  0  0  0  0  0  0
   -9.0702    1.9945    0.7513 H   0  0  0  0  0  0  0  0  0  0  0  0
   -7.3738    0.7287    2.0608 H   0  0  0  0  0  0  0  0  0  0  0  0
   -7.1829   -1.5083   -0.5903 H   0  0  0  0  0  0  0  0  0  0  0  0
   -4.2361   -1.4746   -0.1315 H   0  0  0  0  0  0  0  0  0  0  0  0
   -4.1851   -3.1438    1.4499 H   0  0  0  0  0  0  0  0  0  0  0  0
   -4.9489   -1.6295    2.0323 H   0  0  0  0  0  0  0  0  0  0  0  0
   -7.8393   -3.4395    0.3428 H   0  0  0  0  0  0  0  0  0  0  0  0
   -9.2893   -4.5280    2.0621 H   0  0  0  0  0  0  0  0  0  0  0  0
   -4.6063   -3.1241    4.2684 H   0  0  0  0  0  0  0  0  0  0  0  0
   -5.3187   -4.0589    6.4399 H   0  0  0  0  0  0  0  0  0  0  0  0
   -7.5397   -5.0733    6.6228 H   0  0  0  0  0  0  0  0  0  0  0  0
   -9.0721   -5.1863    4.7406 H   0  0  0  0  0  0  0  0  0  0  0  0
   -3.0464   -3.5349   -0.6411 H   0  0  0  0  0  0  0  0  0  0  0  0
   -4.9061   -5.7178   -1.4715 H   0  0  0  0  0  0  0  0  0  0  0  0
   -3.5943   -6.2988   -3.4093 H   0  0  0  0  0  0  0  0  0  0  0  0
   -2.6457   -4.8028   -3.2845 H   0  0  0  0  0  0  0  0  0  0  0  0
   -6.1114   -5.6150   -5.1667 H   0  0  0  0  0  0  0  0  0  0  0  0
   -6.4054   -5.7872   -3.3488 H   0  0  0  0  0  0  0  0  0  0  0  0
   -1.2731   -4.7655   -0.5282 H   0  0  0  0  0  0  0  0  0  0  0  0
   -1.3694   -7.0439    1.1484 H   0  0  0  0  0  0  0  0  0  0  0  0
   -1.5255   -8.7873   -0.1328 H   0  0  0  0  0  0  0  0  0  0  0  0
   -1.0510   -7.8269   -1.6504 H   0  0  0  0  0  0  0  0  0  0  0  0
    0.1610   -8.4301   -0.5274 H   0  0  0  0  0  0  0  0  0  0  0  0
    0.9879   -4.7252   -0.8760 H   0  0  0  0  0  0  0  0  0  0  0  0
    2.7700   -5.5510    1.3623 H   0  0  0  0  0  0  0  0  0  0  0  0
    2.7856   -7.3934   -0.2575 H   0  0  0  0  0  0  0  0  0  0  0  0
    3.1916   -6.3169   -1.5904 H   0  0  0  0  0  0  0  0  0  0  0  0
    4.3724   -7.8259    1.5263 H   0  0  0  0  0  0  0  0  0  0  0  0
    6.6583   -8.5128    1.9303 H   0  0  0  0  0  0  0  0  0  0  0  0
    8.4729   -7.9027    0.4136 H   0  0  0  0  0  0  0  0  0  0  0  0
    7.9301   -6.5790   -1.5477 H   0  0  0  0  0  0  0  0  0  0  0  0
    5.5749   -5.8288   -2.0158 H   0  0  0  0  0  0  0  0  0  0  0  0
    5.1708   -4.1077    1.0131 H   0  0  0  0  0  0  0  0  0  0  0  0
    4.4311   -1.7388   -0.7584 H   0  0  0  0  0  0  0  0  0  0  0  0
    3.7153   -0.9785    1.3424 H   0  0  0  0  0  0  0  0  0  0  0  0
    5.3134   -1.5021    2.1310 H   0  0  0  0  0  0  0  0  0  0  0  0
    3.8129    3.7139    2.1005 H   0  0  0  0  0  0  0  0  0  0  0  0
    2.9926    2.3304    1.3465 H   0  0  0  0  0  0  0  0  0  0  0  0
    4.1690    2.6195   -0.7471 H   0  0  0  0  0  0  0  0  0  0  0  0
    1.4606    3.3109   -0.1164 H   0  0  0  0  0  0  0  0  0  0  0  0
    1.5647    6.1096   -1.2414 H   0  0  0  0  0  0  0  0  0  0  0  0
   -0.2895    3.6449    0.8738 H   0  0  0  0  0  0  0  0  0  0  0  0
   -2.5082    5.6483    0.2298 H   0  0  0  0  0  0  0  0  0  0  0  0
   -4.8751    4.9529    0.2693 H   0  0  0  0  0  0  0  0  0  0  0  0
   -4.9642    2.3646   -1.2164 H   0  0  0  0  0  0  0  0  0  0  0  0
   -7.2236    4.1475    0.0618 H   0  0  0  0  0  0  0  0  0  0  0  0
   -7.3852    2.6486   -0.8268 H   0  0  0  0  0  0  0  0  0  0  0  0
   -4.7308    3.2351    3.9868 H   0  0  0  0  0  0  0  0  0  0  0  0
   -6.1325    4.3438    3.7731 H   0  0  0  0  0  0  0  0  0  0  0  0
   -2.0069    4.1380    2.8531 H   0  0  0  0  0  0  0  0  0  0  0  0
   -2.0069    5.8899    2.4003 H   0  0  0  0  0  0  0  0  0  0  0  0
   -6.4674    3.4302   -2.7951 H   0  0  0  0  0  0  0  0  0  0  0  0
   -4.8352    4.2201   -2.7273 H   0  0  0  0  0  0  0  0  0  0  0  0
   -8.4186    4.7829   -1.9188 H   0  0  0  0  0  0  0  0  0  0  0  0
   -9.3272    7.0202   -1.4316 H   0  0  0  0  0  0  0  0  0  0  0  0
   -7.7841    8.9722   -1.1418 H   0  0  0  0  0  0  0  0  0  0  0  0
   -5.3694    8.5923   -1.3385 H   0  0  0  0  0  0  0  0  0  0  0  0
   -4.4930    6.3524   -1.8178 H   0  0  0  0  0  0  0  0  0  0  0  0
    1.9394    4.3767   -3.0492 H   0  0  0  0  0  0  0  0  0  0  0  0
    0.4172    3.6027   -2.4713 H   0  0  0  0  0  0  0  0  0  0  0  0
   -0.2380    7.4552   -3.0153 H   0  0  0  0  0  0  0  0  0  0  0  0
   -1.2056    7.7675   -5.3751 H   0  0  0  0  0  0  0  0  0  0  0  0
   -0.9070    5.6470   -6.6827 H   0  0  0  0  0  0  0  0  0  0  0  0
    6.3184    3.0836    0.2890 H   0  0  0  0  0  0  0  0  0  0  0  0
    8.1690    4.2635   -1.3333 H   0  0  0  0  0  0  0  0  0  0  0  0
    9.5207    4.6527    0.7439 H   0  0  0  0  0  0  0  0  0  0  0  0
    8.0151    3.6781    1.1114 H   0  0  0  0  0  0  0  0  0  0  0  0
    9.6506    6.9436    1.3648 H   0  0  0  0  0  0  0  0  0  0  0  0
    9.0891    8.6336    3.0511 H   0  0  0  0  0  0  0  0  0  0  0  0
    5.6411    6.3866    4.1670 H   0  0  0  0  0  0  0  0  0  0  0  0
    6.2067    4.7120    2.5187 H   0  0  0  0  0  0  0  0  0  0  0  0
    7.7523    9.1115    5.2379 H   0  0  0  0  0  0  0  0  0  0  0  0
    7.6007    7.0670   -0.6700 H   0  0  0  0  0  0  0  0  0  0  0  0
    8.5229    6.3632   -1.9847 H   0  0  0  0  0  0  0  0  0  0  0  0
    7.0287   -4.1458   -0.0271 H   0  0  0  0  0  0  0  0  0  0  0  0
    8.9851   -1.9976   -0.6691 H   0  0  0  0  0  0  0  0  0  0  0  0
    6.7558   -3.7273   -2.5539 H   0  0  0  0  0  0  0  0  0  0  0  0
    7.8291   -4.8481   -3.5236 H   0  0  0  0  0  0  0  0  0  0  0  0
    9.4483   -3.5982    1.3137 H   0  0  0  0  0  0  0  0  0  0  0  0
    9.1451   -4.9562    0.2016 H   0  0  0  0  0  0  0  0  0  0  0  0
   11.4261   -2.0942    1.0148 H   0  0  0  0  0  0  0  0  0  0  0  0
   13.8944   -2.1404    0.4271 H   0  0  0  0  0  0  0  0  0  0  0  0
   13.2568   -5.7111   -1.7927 H   0  0  0  0  0  0  0  0  0  0  0  0
   10.8749   -5.6786   -1.2283 H   0  0  0  0  0  0  0  0  0  0  0  0
   15.4217   -4.8351   -1.3795 H   0  0  0  0  0  0  0  0  0  0  0  0
  1  2  1  0
  2  3  2  3
  2  4  1  0
  4  5  1  0
  5  6  1  0
  6  7  1  0
  7  8  1  0
  8  9  1  0
  9 10  2  0
  9 11  1  0
 11 12  1  0
 12 13  1  0
 13 14  1  0
 14 15  2  0
 15 16  1  0
 16 17  1  0
 17 18  2  0
 18 19  1  0
 19 20  2  0
 20 21  1  0
 21 22  2  0
 12 23  1  0
 23 24  2  0
 23 25  1  0
 25 26  1  0
 26 27  1  0
 27 28  1  0
 28 29  2  0
 28 30  1  0
 26 31  1  0
 31 32  2  0
 31 33  1  0
 33 34  1  0
 34 35  1  0
 34 36  1  0
 36 37  2  0
 36 38  1  0
 38 39  1  0
 39 40  1  0
 40 41  1  0
 41 42  2  0
 42 43  1  0
 43 44  2  0
 44 45  1  0
 45 46  2  0
 39 47  1  0
 47 48  2  0
 47 49  1  0
 49 50  1  0
 50 51  1  0
 51 52  1  0
 52 53  1  0
 53 54  1  0
 54 55  1  0
 55 56  1  0
 56 57  2  0
 56 58  1  0
 58 59  1  0
 59 60  1  0
 60 61  2  0
 60 62  1  0
 62 63  1  0
 63 64  1  0
 64 65  2  0
 64 66  1  0
 66 67  1  0
 67 68  1  0
 68 69  1  0
 69 70  1  0
 70 71  2  0
 70 72  1  0
 72 73  1  0
 73 74  1  0
 67 75  1  0
 75 76  1  0
 76 77  2  0
 77 78  1  0
 78 79  2  0
 79 80  1  0
 80 81  2  0
 59 82  1  0
 82 83  1  0
 83 84  2  0
 84 85  1  0
 85 86  1  0
 86 87  2  0
 55 88  1  0
 88 89  1  0
 89 90  2  0
 89 91  1  0
 91 92  1  0
 92 93  1  0
 93 94  2  0
 94 95  1  0
 95 96  2  0
 96 97  1  0
 97 98  2  0
 96 99  1  0
 91100  1  0
 50101  1  0
101102  2  0
101103  1  0
103104  1  0
104105  1  0
105106  2  0
105107  1  0
104108  1  0
108109  1  0
109110  2  0
110111  1  0
111112  2  0
112113  1  0
113114  2  0
112115  1  0
 69  8  1  0
 81 76  1  0
 87 83  1  0
 98 93  1  0
114109  1  0
 18 14  1  0
 46 41  1  0
 74 63  1  0
 22 17  1  0
  1116  1  0
  1117  1  0
  3118  1  0
  4119  1  0
  5120  1  0
  5121  1  0
  6122  1  0
  6123  1  0
  7124  1  0
  7125  1  0
  8126  1  1
 11127  1  0
 12128  1  6
 13129  1  0
 13130  1  0
 15131  1  0
 16132  1  0
 19133  1  0
 20134  1  0
 21135  1  0
 22136  1  0
 25137  1  0
 26138  1  6
 27139  1  0
 27140  1  0
 30141  1  0
 30142  1  0
 33143  1  0
 34144  1  1
 35145  1  0
 35146  1  0
 35147  1  0
 38148  1  0
 39149  1  1
 40150  1  0
 40151  1  0
 42152  1  0
 43153  1  0
 44154  1  0
 45155  1  0
 46156  1  0
 49157  1  0
 50158  1  6
 51159  1  0
 51160  1  0
 54161  1  0
 54162  1  0
 55163  1  6
 58164  1  0
 59165  1  6
 62166  1  0
 63167  1  6
 66168  1  0
 67169  1  6
 68170  1  0
 68171  1  0
 72172  1  0
 72173  1  0
 74174  1  0
 74175  1  0
 75176  1  0
 75177  1  0
 77178  1  0
 78179  1  0
 79180  1  0
 80181  1  0
 81182  1  0
 82183  1  0
 82184  1  0
 84185  1  0
 85186  1  0
 86187  1  0
 88188  1  0
 91189  1  6
 92190  1  0
 92191  1  0
 94192  1  0
 95193  1  0
 97194  1  0
 98195  1  0
 99196  1  0
100197  1  0
100198  1  0
103199  1  0
104200  1  6
107201  1  0
107202  1  0
108203  1  0
108204  1  0
110205  1  0
111206  1  0
113207  1  0
114208  1  0
115209  1  0
M  END
>  <Ligand ID>  (1) 
LIG0001149

>  <Ligand>  (1) 
CID 51351024

>  <SMILES>  (1) 
NC(=N)NCCC[C@H]1C(=O)N[C@@H](Cc2c[nH]c3c2cccc3)C(=O)N[C@@H](CC(=O)N)C(=O)N[C@@H](C)C(=O)N[C@@H](Cc2ccccc2)C(=O)N[C@@H](CSSC[C@@H](C(=O)N[C@H](C(=O)N[C@H]2C(=O)N[C@@H](CN1C(=O)CSC2)Cc1ccccc1)Cc1c[nH]cn1)NC(=O)[C@H](Cc1ccc(cc1)O)N)C(=O)N[C@H](C(=O)N)Cc1ccc(cc1)O

>  <CID>  (1) 
51351024.0

>  <ChEMBL ID>  (1) 
nan

>  <InChiKey>  (1) 
LDYAQMAQKPCOKX-JRSPOBCWSA-N

>  <InChi>  (1) 
InChI=1S/C77H94N20O15S3/c1-42-67(103)90-56(30-44-13-6-3-7-14-44)70(106)96-62(74(110)89-55(66(80)102)29-46-20-24-51(99)25-21-46)39-115-114-38-61(94-68(104)53(78)28-45-18-22-50(98)23-19-45)75(111)91-58(32-48-35-83-41-86-48)72(108)95-60-37-113-40-65(101)97(36-49(88-73(60)109)27-43-11-4-2-5-12-43)63(17-10-26-84-77(81)82)76(112)93-57(31-47-34-85-54-16-9-8-15-52(47)54)71(107)92-59(33-64(79)100)69(105)87-42/h2-9,11-16,18-25,34-35,41-42,49,53,55-63,85,98-99H,10,17,26-33,36-40,78H2,1H3,(H2,79,100)(H2,80,102)(H,83,86)(H,87,105)(H,88,109)(H,89,110)(H,90,103)(H,91,111)(H,92,107)(H,93,112)(H,94,104)(H,95,108)(H,96,106)(H4,81,82,84)/t42-,49+,53-,55-,56-,57-,58-,59-,60+,61-,62-,63-/m0/s1

>  <IUPAC Name>  (1) 
(2S,5S,8S,11S,14S,17R,22R,25S,28S,34R)-N-[(2S)-1-amino-3-(4-hydroxyphenyl)-1-oxopropan-2-yl]-22-[[(2S)-2-amino-3-(4-hydroxyphenyl)propanoyl]amino]-8-(2-amino-2-oxoethyl)-14,34-dibenzyl-2-(3-carbamimidamidopropyl)-25-(1H-imidazol-4-ylmethyl)-5-(1H-indol-3-ylmethyl)-11-methyl-3,6,9,12,15,23,26,32,36-nonaoxo-19,20,30-trithia-1,4,7,10,13,16,24,27,35-nonazabicyclo[26.4.4]hexatriacontane-17-carboxamide

$$$$
