
     RDKit          3D

 26 26  0  0  0  0  0  0  0  0999 V2000
   -2.4355    0.9374   -0.2934 C   0  0  0  0  0  0  0  0  0  0  0  0
   -1.6626   -0.0788   -0.9347 N   0  0  0  0  0  0  0  0  0  0  0  0
   -1.1629   -1.1119   -0.0864 C   0  0  1  0  0  0  0  0  0  0  0  0
   -0.2463   -0.6272    1.0101 C   0  0  0  0  0  0  0  0  0  0  0  0
    0.9576    0.0596    0.4774 C   0  0  0  0  0  0  0  0  0  0  0  0
    2.0902   -0.6734    0.2052 C   0  0  0  0  0  0  0  0  0  0  0  0
    3.2498   -0.1133   -0.2906 C   0  0  0  0  0  0  0  0  0  0  0  0
    3.2874    1.2439   -0.5284 C   0  0  0  0  0  0  0  0  0  0  0  0
    2.1620    2.0284   -0.2672 C   0  0  0  0  0  0  0  0  0  0  0  0
    1.0137    1.4153    0.2334 C   0  0  0  0  0  0  0  0  0  0  0  0
   -2.2771   -1.9115    0.5519 C   0  0  0  0  0  0  0  0  0  0  0  0
   -2.0928    1.2225    0.7201 H   0  0  0  0  0  0  0  0  0  0  0  0
   -3.5222    0.7021   -0.2789 H   0  0  0  0  0  0  0  0  0  0  0  0
   -2.3629    1.8746   -0.9174 H   0  0  0  0  0  0  0  0  0  0  0  0
   -0.9788    0.3356   -1.5711 H   0  0  0  0  0  0  0  0  0  0  0  0
   -0.5705   -1.8000   -0.7314 H   0  0  0  0  0  0  0  0  0  0  0  0
   -0.8071   -0.0024    1.7202 H   0  0  0  0  0  0  0  0  0  0  0  0
    0.1073   -1.5002    1.5963 H   0  0  0  0  0  0  0  0  0  0  0  0
    2.0640   -1.7445    0.3917 H   0  0  0  0  0  0  0  0  0  0  0  0
    4.1393   -0.7100   -0.5009 H   0  0  0  0  0  0  0  0  0  0  0  0
    4.2056    1.6836   -0.9204 H   0  0  0  0  0  0  0  0  0  0  0  0
    2.2006    3.0978   -0.4578 H   0  0  0  0  0  0  0  0  0  0  0  0
    0.1478    2.0308    0.4328 H   0  0  0  0  0  0  0  0  0  0  0  0
   -1.7730   -2.7700    1.0694 H   0  0  0  0  0  0  0  0  0  0  0  0
   -2.9873   -2.2880   -0.2053 H   0  0  0  0  0  0  0  0  0  0  0  0
   -2.7460   -1.3003    1.3305 H   0  0  0  0  0  0  0  0  0  0  0  0
  1  2  1  0
  2  3  1  0
  3  4  1  0
  4  5  1  0
  5  6  2  0
  6  7  1  0
  7  8  2  0
  8  9  1  0
  9 10  2  0
  3 11  1  0
 10  5  1  0
  1 12  1  0
  1 13  1  0
  1 14  1  0
  2 15  1  0
  3 16  1  6
  4 17  1  0
  4 18  1  0
  6 19  1  0
  7 20  1  0
  8 21  1  0
  9 22  1  0
 10 23  1  0
 11 24  1  0
 11 25  1  0
 11 26  1  0
M  END
>  <Ligand ID>  (1) 
LIG0001111

>  <Ligand>  (1) 
Levmetamfetamine

>  <SMILES>  (1) 
CN[C@@H](Cc1ccccc1)C

>  <CID>  (1) 
36604.0

>  <ChEMBL ID>  (1) 
nan

>  <InChiKey>  (1) 
MYWUZJCMWCOHBA-SECBINFHSA-N

>  <InChi>  (1) 
InChI=1S/C10H15N/c1-9(11-2)8-10-6-4-3-5-7-10/h3-7,9,11H,8H2,1-2H3/t9-/m1/s1

>  <IUPAC Name>  (1) 
(2R)-N-methyl-1-phenylpropan-2-amine

$$$$
