
     RDKit          3D

 55 57  0  0  0  0  0  0  0  0999 V2000
   -3.5519   -1.7135    3.2849 O   0  0  0  0  0  0  0  0  0  0  0  0
   -2.8277   -1.7839    2.1239 N   0  0  0  0  0  0  0  0  0  0  0  0
   -3.2464   -1.0240    0.9802 C   0  0  0  0  0  0  0  0  0  0  0  0
   -4.2801   -0.3282    1.1348 O   0  0  0  0  0  0  0  0  0  0  0  0
   -2.4778   -1.0808   -0.2981 C   0  0  2  0  0  0  0  0  0  0  0  0
   -2.4581   -2.5026   -0.8407 C   0  0  0  0  0  0  0  0  0  0  0  0
   -1.0883   -3.1369   -0.7646 C   0  0  0  0  0  0  0  0  0  0  0  0
   -0.0466   -2.3528   -1.5063 C   0  0  0  0  0  0  0  0  0  0  0  0
   -0.2717   -0.8429   -1.3980 C   0  0  0  0  0  0  0  0  0  0  0  0
   -1.0900   -0.5396   -0.1388 C   0  0  0  0  0  0  0  0  0  0  0  0
   -0.9329    0.8143    0.1716 N   0  0  0  0  0  0  0  0  0  0  0  0
   -0.0736    1.0813    1.6034 S   0  0  0  0  0  0  0  0  0  0  0  0
    0.0914    2.5354    1.9020 O   0  0  0  0  0  0  0  0  0  0  0  0
   -0.7587    0.4834    2.8112 O   0  0  0  0  0  0  0  0  0  0  0  0
    1.5788    0.4357    1.5015 C   0  0  0  0  0  0  0  0  0  0  0  0
    1.8685   -0.8506    1.9054 C   0  0  0  0  0  0  0  0  0  0  0  0
    3.1648   -1.3051    1.8048 C   0  0  0  0  0  0  0  0  0  0  0  0
    4.1830   -0.5204    1.3149 C   0  0  0  0  0  0  0  0  0  0  0  0
    3.8908    0.7689    0.9105 C   0  0  0  0  0  0  0  0  0  0  0  0
    2.5947    1.2298    1.0087 C   0  0  0  0  0  0  0  0  0  0  0  0
    5.4963   -0.9400    1.1983 O   0  0  0  0  0  0  0  0  0  0  0  0
    5.8631   -2.2471    1.5938 C   0  0  0  0  0  0  0  0  0  0  0  0
   -1.9105    1.7700   -0.0990 C   0  0  0  0  0  0  0  0  0  0  0  0
   -1.4521    2.7531   -1.1054 C   0  0  0  0  0  0  0  0  0  0  0  0
   -1.6083    2.4110   -2.4496 C   0  0  0  0  0  0  0  0  0  0  0  0
   -1.2307    3.2565   -3.4723 C   0  0  0  0  0  0  0  0  0  0  0  0
   -0.6766    4.4895   -3.1991 C   0  0  0  0  0  0  0  0  0  0  0  0
   -0.5257    4.8207   -1.8691 C   0  0  0  0  0  0  0  0  0  0  0  0
   -0.9037    3.9750   -0.8450 C   0  0  0  0  0  0  0  0  0  0  0  0
   -4.5120   -1.9281    3.1211 H   0  0  0  0  0  0  0  0  0  0  0  0
   -1.9816   -2.3933    2.0992 H   0  0  0  0  0  0  0  0  0  0  0  0
   -3.0138   -0.4691   -1.0445 H   0  0  0  0  0  0  0  0  0  0  0  0
   -2.7361   -2.4769   -1.9015 H   0  0  0  0  0  0  0  0  0  0  0  0
   -3.1620   -3.0909   -0.2511 H   0  0  0  0  0  0  0  0  0  0  0  0
   -1.1877   -4.1101   -1.3205 H   0  0  0  0  0  0  0  0  0  0  0  0
   -0.8344   -3.4107    0.2592 H   0  0  0  0  0  0  0  0  0  0  0  0
    0.0326   -2.6045   -2.5648 H   0  0  0  0  0  0  0  0  0  0  0  0
    0.9332   -2.5943   -1.0372 H   0  0  0  0  0  0  0  0  0  0  0  0
    0.7094   -0.3758   -1.3246 H   0  0  0  0  0  0  0  0  0  0  0  0
   -0.7818   -0.5204   -2.3211 H   0  0  0  0  0  0  0  0  0  0  0  0
   -0.6028   -1.2176    0.6412 H   0  0  0  0  0  0  0  0  0  0  0  0
    1.0998   -1.5002    2.2970 H   0  0  0  0  0  0  0  0  0  0  0  0
    3.3800   -2.3148    2.1243 H   0  0  0  0  0  0  0  0  0  0  0  0
    4.6735    1.4278    0.5140 H   0  0  0  0  0  0  0  0  0  0  0  0
    2.3497    2.2357    0.6967 H   0  0  0  0  0  0  0  0  0  0  0  0
    5.1000   -3.0123    1.2797 H   0  0  0  0  0  0  0  0  0  0  0  0
    6.0326   -2.2318    2.6894 H   0  0  0  0  0  0  0  0  0  0  0  0
    6.8642   -2.5240    1.1525 H   0  0  0  0  0  0  0  0  0  0  0  0
   -2.1399    2.3642    0.8303 H   0  0  0  0  0  0  0  0  0  0  0  0
   -2.9067    1.4101   -0.4496 H   0  0  0  0  0  0  0  0  0  0  0  0
   -2.0369    1.4636   -2.7468 H   0  0  0  0  0  0  0  0  0  0  0  0
   -1.3657    2.9603   -4.5025 H   0  0  0  0  0  0  0  0  0  0  0  0
   -0.3874    5.1367   -4.0160 H   0  0  0  0  0  0  0  0  0  0  0  0
   -0.0885    5.7938   -1.6412 H   0  0  0  0  0  0  0  0  0  0  0  0
   -0.7578    4.3265    0.1528 H   0  0  0  0  0  0  0  0  0  0  0  0
  1  2  1  0
  2  3  1  0
  3  4  2  0
  3  5  1  0
  5  6  1  0
  6  7  1  0
  7  8  1  0
  8  9  1  0
  9 10  1  0
 10 11  1  0
 11 12  1  0
 12 13  2  0
 12 14  2  0
 12 15  1  0
 15 16  2  0
 16 17  1  0
 17 18  2  0
 18 19  1  0
 19 20  2  0
 18 21  1  0
 21 22  1  0
 11 23  1  0
 23 24  1  0
 24 25  2  0
 25 26  1  0
 26 27  2  0
 27 28  1  0
 28 29  2  0
 10  5  1  0
 20 15  1  0
 29 24  1  0
  1 30  1  0
  2 31  1  0
  5 32  1  6
  6 33  1  0
  6 34  1  0
  7 35  1  0
  7 36  1  0
  8 37  1  0
  8 38  1  0
  9 39  1  0
  9 40  1  0
 10 41  1  0
 16 42  1  0
 17 43  1  0
 19 44  1  0
 20 45  1  0
 22 46  1  0
 22 47  1  0
 22 48  1  0
 23 49  1  0
 23 50  1  0
 25 51  1  0
 26 52  1  0
 27 53  1  0
 28 54  1  0
 29 55  1  0
M  END
>  <Ligand ID>  (1) 
LIG0004825

>  <Ligand>  (1) 
CHEMBL81113

>  <SMILES>  (1) 
ONC(=O)[C@@H]1CCCCC1N(S(=O)(=O)c1ccc(cc1)OC)Cc1ccccc1

>  <CID>  (1) 
44317451.0

>  <ChEMBL ID>  (1) 
nan

>  <InChiKey>  (1) 
BDCJZZXWIQJYLP-FIWHBWSRSA-N

>  <InChi>  (1) 
InChI=1S/C21H26N2O5S/c1-28-17-11-13-18(14-12-17)29(26,27)23(15-16-7-3-2-4-8-16)20-10-6-5-9-19(20)21(24)22-25/h2-4,7-8,11-14,19-20,25H,5-6,9-10,15H2,1H3,(H,22,24)/t19-,20?/m1/s1

>  <IUPAC Name>  (1) 
(1R)-2-[benzyl-(4-methoxyphenyl)sulfonylamino]-N-hydroxycyclohexane-1-carboxamide

$$$$
