
     RDKit          3D

 58 61  0  0  0  0  0  0  0  0999 V2000
    5.3038   -0.2329   -1.8497 C   0  0  0  0  0  0  0  0  0  0  0  0
    6.1201   -1.3668   -1.2669 C   0  0  0  0  0  0  0  0  0  0  0  0
    6.3332   -1.2633    0.1310 N   0  0  0  0  0  0  0  0  0  0  0  0
    5.1717   -2.1170    1.0073 S   0  0  0  0  0  0  0  0  0  0  0  0
    5.2502   -3.5721    0.5545 O   0  0  0  0  0  0  0  0  0  0  0  0
    5.4379   -2.1587    2.4855 O   0  0  0  0  0  0  0  0  0  0  0  0
    3.5311   -1.5693    0.7787 C   0  0  0  0  0  0  0  0  0  0  0  0
    2.6729   -2.1359   -0.1522 C   0  0  0  0  0  0  0  0  0  0  0  0
    1.3789   -1.6797   -0.3121 C   0  0  0  0  0  0  0  0  0  0  0  0
    0.8834   -0.6501    0.4377 C   0  0  0  0  0  0  0  0  0  0  0  0
    1.7495   -0.0914    1.3631 C   0  0  0  0  0  0  0  0  0  0  0  0
    3.0447   -0.5210    1.5499 C   0  0  0  0  0  0  0  0  0  0  0  0
   -0.4209   -0.1188    0.3538 N   0  0  0  0  0  0  0  0  0  0  0  0
   -1.4708   -0.5685   -0.4549 C   0  0  0  0  0  0  0  0  0  0  0  0
   -1.3328   -1.5534   -1.2181 O   0  0  0  0  0  0  0  0  0  0  0  0
   -2.7443    0.1454   -0.3882 C   0  0  0  0  0  0  0  0  0  0  0  0
   -3.9122   -0.4000    0.0775 C   0  0  0  0  0  0  0  0  0  0  0  0
   -5.0605    0.3700    0.1043 C   0  0  0  0  0  0  0  0  0  0  0  0
   -4.9581    1.6264   -0.3363 N   0  0  0  0  0  0  0  0  0  0  0  0
   -3.8747    2.2338   -0.8008 C   0  0  0  0  0  0  0  0  0  0  0  0
   -2.7038    1.4737   -0.8365 C   0  0  0  0  0  0  0  0  0  0  0  0
   -1.5520    2.0468   -1.3070 C   0  0  0  0  0  0  0  0  0  0  0  0
   -1.5784    3.3694   -1.7354 C   0  0  0  0  0  0  0  0  0  0  0  0
   -2.7270    4.1356   -1.7065 C   0  0  0  0  0  0  0  0  0  0  0  0
   -3.8895    3.5583   -1.2325 C   0  0  0  0  0  0  0  0  0  0  0  0
   -6.3474   -0.1268    0.5682 C   0  0  0  0  0  0  0  0  0  0  0  0
   -6.5468   -1.4034    1.0505 C   0  0  0  0  0  0  0  0  0  0  0  0
   -7.7882   -1.8557    1.4756 C   0  0  0  0  0  0  0  0  0  0  0  0
   -8.8508   -0.9852    1.4069 C   0  0  0  0  0  0  0  0  0  0  0  0
   -8.6725    0.2869    0.9304 C   0  0  0  0  0  0  0  0  0  0  0  0
   -7.4476    0.7013    0.5219 C   0  0  0  0  0  0  0  0  0  0  0  0
    6.6629    0.0451    0.5660 C   0  0  0  0  0  0  0  0  0  0  0  0
    7.8389    0.1501    1.4856 C   0  0  0  0  0  0  0  0  0  0  0  0
    4.7524    0.3469   -1.1122 H   0  0  0  0  0  0  0  0  0  0  0  0
    4.5570   -0.6883   -2.5397 H   0  0  0  0  0  0  0  0  0  0  0  0
    5.9475    0.4215   -2.5128 H   0  0  0  0  0  0  0  0  0  0  0  0
    5.6719   -2.3595   -1.4929 H   0  0  0  0  0  0  0  0  0  0  0  0
    7.1031   -1.3645   -1.7852 H   0  0  0  0  0  0  0  0  0  0  0  0
    3.0386   -2.9535   -0.7610 H   0  0  0  0  0  0  0  0  0  0  0  0
    0.7845   -2.1717   -1.0508 H   0  0  0  0  0  0  0  0  0  0  0  0
    1.4419    0.7434    2.0147 H   0  0  0  0  0  0  0  0  0  0  0  0
    3.7013   -0.0821    2.2663 H   0  0  0  0  0  0  0  0  0  0  0  0
   -0.6391    0.7216    0.9703 H   0  0  0  0  0  0  0  0  0  0  0  0
   -3.9195   -1.4195    0.4137 H   0  0  0  0  0  0  0  0  0  0  0  0
   -0.6398    1.5055   -1.3589 H   0  0  0  0  0  0  0  0  0  0  0  0
   -0.6878    3.8749   -2.1148 H   0  0  0  0  0  0  0  0  0  0  0  0
   -2.7794    5.1613   -2.0324 H   0  0  0  0  0  0  0  0  0  0  0  0
   -4.8026    4.1443   -1.2003 H   0  0  0  0  0  0  0  0  0  0  0  0
   -5.7133   -2.0565    1.0945 H   0  0  0  0  0  0  0  0  0  0  0  0
   -7.9400   -2.8457    1.8512 H   0  0  0  0  0  0  0  0  0  0  0  0
   -9.8611   -1.2712    1.7236 H   0  0  0  0  0  0  0  0  0  0  0  0
   -9.4939    1.0069    0.8580 H   0  0  0  0  0  0  0  0  0  0  0  0
   -7.3095    1.6886    0.1501 H   0  0  0  0  0  0  0  0  0  0  0  0
    6.9131    0.6446   -0.3567 H   0  0  0  0  0  0  0  0  0  0  0  0
    5.8053    0.5351    1.1071 H   0  0  0  0  0  0  0  0  0  0  0  0
    8.4474    1.0543    1.2384 H   0  0  0  0  0  0  0  0  0  0  0  0
    7.5588    0.2896    2.5499 H   0  0  0  0  0  0  0  0  0  0  0  0
    8.5621   -0.6988    1.3460 H   0  0  0  0  0  0  0  0  0  0  0  0
  1  2  1  0
  2  3  1  0
  3  4  1  0
  4  5  2  0
  4  6  2  0
  4  7  1  0
  7  8  2  0
  8  9  1  0
  9 10  2  0
 10 11  1  0
 11 12  2  0
 10 13  1  0
 13 14  1  0
 14 15  2  0
 14 16  1  0
 16 17  2  0
 17 18  1  0
 18 19  2  0
 19 20  1  0
 20 21  2  0
 21 22  1  0
 22 23  2  0
 23 24  1  0
 24 25  2  0
 18 26  1  0
 26 27  2  0
 27 28  1  0
 28 29  2  0
 29 30  1  0
 30 31  2  0
  3 32  1  0
 32 33  1  0
 12  7  1  0
 21 16  1  0
 31 26  1  0
 25 20  1  0
  1 34  1  0
  1 35  1  0
  1 36  1  0
  2 37  1  0
  2 38  1  0
  8 39  1  0
  9 40  1  0
 11 41  1  0
 12 42  1  0
 13 43  1  0
 17 44  1  0
 22 45  1  0
 23 46  1  0
 24 47  1  0
 25 48  1  0
 27 49  1  0
 28 50  1  0
 29 51  1  0
 30 52  1  0
 31 53  1  0
 32 54  1  0
 32 55  1  0
 33 56  1  0
 33 57  1  0
 33 58  1  0
M  END
>  <Ligand ID>  (1) 
LIG0004382

>  <Ligand>  (1) 
SMR000199184

>  <SMILES>  (1) 
CCN(S(=O)(=O)c1ccc(cc1)NC(=O)c1cc(nc2c1cccc2)c1ccccc1)CC

>  <CID>  (1) 
1306259.0

>  <ChEMBL ID>  (1) 
nan

>  <InChiKey>  (1) 
VRBFBZLCEMASTI-UHFFFAOYSA-N

>  <InChi>  (1) 
InChI=1S/C26H25N3O3S/c1-3-29(4-2)33(31,32)21-16-14-20(15-17-21)27-26(30)23-18-25(19-10-6-5-7-11-19)28-24-13-9-8-12-22(23)24/h5-18H,3-4H2,1-2H3,(H,27,30)

>  <IUPAC Name>  (1) 
N-[4-(diethylsulfamoyl)phenyl]-2-phenylquinoline-4-carboxamide

$$$$
