
     RDKit          3D

 24 25  0  0  0  0  0  0  0  0999 V2000
    1.3646   -2.4342   -0.5569 O   0  0  0  0  0  0  0  0  0  0  0  0
    1.1606   -1.2818   -0.2156 C   0  0  0  0  0  0  0  0  0  0  0  0
    1.9638   -0.1723   -0.8393 C   0  0  0  0  0  0  0  0  0  0  0  0
    1.1667    1.0999   -0.8166 C   0  0  0  0  0  0  0  0  0  0  0  0
    0.0968    1.0967    0.2278 C   0  0  0  0  0  0  0  0  0  0  0  0
    0.6503    0.3797    1.4539 C   0  0  0  0  0  0  0  0  0  0  0  0
    0.1441   -0.9065    0.8006 C   0  0  0  0  0  0  0  0  0  0  0  0
   -0.8834   -0.0317    0.1128 C   0  0  0  0  0  0  0  0  0  0  0  0
   -2.0763    0.1509    0.9962 C   0  0  0  0  0  0  0  0  0  0  0  0
   -1.2720   -0.4706   -1.2521 C   0  0  0  0  0  0  0  0  0  0  0  0
    2.9478   -0.0882   -0.3188 H   0  0  0  0  0  0  0  0  0  0  0  0
    2.2038   -0.4621   -1.8951 H   0  0  0  0  0  0  0  0  0  0  0  0
    0.8078    1.3318   -1.8194 H   0  0  0  0  0  0  0  0  0  0  0  0
    1.8703    1.9202   -0.5438 H   0  0  0  0  0  0  0  0  0  0  0  0
   -0.3067    2.0871    0.4620 H   0  0  0  0  0  0  0  0  0  0  0  0
    0.1576    0.6405    2.4015 H   0  0  0  0  0  0  0  0  0  0  0  0
    1.7525    0.3554    1.5169 H   0  0  0  0  0  0  0  0  0  0  0  0
   -0.2300   -1.6752    1.4650 H   0  0  0  0  0  0  0  0  0  0  0  0
   -2.5620   -0.8629    1.0751 H   0  0  0  0  0  0  0  0  0  0  0  0
   -1.8392    0.4360    2.0281 H   0  0  0  0  0  0  0  0  0  0  0  0
   -2.8315    0.7960    0.5210 H   0  0  0  0  0  0  0  0  0  0  0  0
   -1.6033    0.3358   -1.9220 H   0  0  0  0  0  0  0  0  0  0  0  0
   -2.1726   -1.1310   -1.1221 H   0  0  0  0  0  0  0  0  0  0  0  0
   -0.5098   -1.1135   -1.7590 H   0  0  0  0  0  0  0  0  0  0  0  0
  1  2  2  0
  2  3  1  0
  3  4  1  0
  4  5  1  0
  5  6  1  0
  6  7  1  0
  7  8  1  0
  8  9  1  0
  8 10  1  0
  7  2  1  0
  8  5  1  0
  3 11  1  0
  3 12  1  0
  4 13  1  0
  4 14  1  0
  5 15  1  0
  6 16  1  0
  6 17  1  0
  7 18  1  0
  9 19  1  0
  9 20  1  0
  9 21  1  0
 10 22  1  0
 10 23  1  0
 10 24  1  0
M  END
>  <Ligand ID>  (1) 
LIG0000768

>  <Ligand>  (1) 
Bicyclo(3.1.1)heptan-2-one, 6,6-dimethyl-

>  <SMILES>  (1) 
O=C1CCC2CC1C2(C)C

>  <CID>  (1) 
32735.0

>  <ChEMBL ID>  (1) 
nan

>  <InChiKey>  (1) 
XZFDKWMYCUEKSS-UHFFFAOYSA-N

>  <InChi>  (1) 
InChI=1S/C9H14O/c1-9(2)6-3-4-8(10)7(9)5-6/h6-7H,3-5H2,1-2H3

>  <IUPAC Name>  (1) 
6,6-dimethylbicyclo[3.1.1]heptan-2-one

$$$$
