
     RDKit          3D

 70 72  0  0  0  0  0  0  0  0999 V2000
   -9.0072   -3.1008    0.0054 O   0  0  0  0  0  0  0  0  0  0  0  0
   -9.1092   -1.7343   -0.2232 C   0  0  0  0  0  0  0  0  0  0  0  0
   -7.8979   -0.9831    0.3469 C   0  0  1  0  0  0  0  0  0  0  0  0
   -6.7994   -1.4912   -0.2928 O   0  0  0  0  0  0  0  0  0  0  0  0
   -5.6169   -0.7899   -0.1026 C   0  0  2  0  0  0  0  0  0  0  0  0
   -4.9298   -1.2384    1.0407 O   0  0  0  0  0  0  0  0  0  0  0  0
   -3.4790   -1.9770    0.5832 P   0  0  0  0  0  0  0  0  0  0  0  0
   -3.8141   -2.8985   -0.5739 O   0  0  0  0  0  0  0  0  0  0  0  0
   -2.3172   -0.8803    0.0603 O   0  0  0  0  0  0  0  0  0  0  0  0
   -0.7951   -1.5858    0.2648 P   0  0  0  0  0  0  0  0  0  0  0  0
   -0.9774   -3.0985    0.2593 O   0  0  0  0  0  0  0  0  0  0  0  0
    0.2756   -1.1714   -0.9471 O   0  0  0  0  0  0  0  0  0  0  0  0
    1.3651   -0.0257   -0.3510 P   0  0  0  0  0  0  0  0  0  0  0  0
    2.2689    0.4816   -1.4780 O   0  0  0  0  0  0  0  0  0  0  0  0
    0.5017    1.2989    0.1928 O   0  0  0  0  0  0  0  0  0  0  0  0
    1.3711    2.2642    1.2542 P   0  0  0  0  0  0  0  0  0  0  0  0
    0.5962    2.3717    2.5673 O   0  0  0  0  0  0  0  0  0  0  0  0
    2.8954    1.6876    1.6143 O   0  0  0  0  0  0  0  0  0  0  0  0
    3.9336    2.3753    1.0229 C   0  0  0  0  0  0  0  0  0  0  0  0
    5.2977    1.8411    1.3715 C   0  0  1  0  0  0  0  0  0  0  0  0
    5.3743    0.5243    0.9552 O   0  0  0  0  0  0  0  0  0  0  0  0
    6.6767    0.2823    0.5594 C   0  0  2  0  0  0  0  0  0  0  0  0
    7.2136    1.5609   -0.0244 C   0  0  1  0  0  0  0  0  0  0  0  0
    6.3262    2.6141    0.5867 C   0  0  2  0  0  0  0  0  0  0  0  0
    7.0080    3.4941    1.4074 O   0  0  0  0  0  0  0  0  0  0  0  0
    8.5295    1.7994    0.4046 O   0  0  0  0  0  0  0  0  0  0  0  0
    6.6490   -0.7438   -0.4654 N   0  0  0  0  0  0  0  0  0  0  0  0
    5.5150   -1.2035   -1.0217 C   0  0  0  0  0  0  0  0  0  0  0  0
    5.4978   -2.1840   -2.0001 C   0  0  0  0  0  0  0  0  0  0  0  0
    6.7079   -2.7010   -2.4105 C   0  0  0  0  0  0  0  0  0  0  0  0
    6.7218   -3.5932   -3.2981 O   0  0  0  0  0  0  0  0  0  0  0  0
    7.8489   -2.2323   -1.8447 N   0  0  0  0  0  0  0  0  0  0  0  0
    7.8074   -1.2715   -0.8909 C   0  0  0  0  0  0  0  0  0  0  0  0
    8.8815   -0.8422   -0.3700 O   0  0  0  0  0  0  0  0  0  0  0  0
    1.4145    3.8378    0.5921 O   0  0  0  0  0  0  0  0  0  0  0  0
    2.3275   -0.6670    0.8894 O   0  0  0  0  0  0  0  0  0  0  0  0
   -0.1559   -1.0927    1.7484 O   0  0  0  0  0  0  0  0  0  0  0  0
   -2.8407   -2.8424    1.8884 O   0  0  0  0  0  0  0  0  0  0  0  0
   -5.7638    0.6975   -0.1119 C   0  0  1  0  0  0  0  0  0  0  0  0
   -7.0460    1.0010   -0.8921 C   0  0  2  0  0  0  0  0  0  0  0  0
   -8.1597    0.4708    0.0207 C   0  0  1  0  0  0  0  0  0  0  0  0
   -9.4182    0.7245   -0.4657 O   0  0  0  0  0  0  0  0  0  0  0  0
   -7.0610    0.1976   -2.0251 O   0  0  0  0  0  0  0  0  0  0  0  0
   -5.9707    1.2280    1.1595 O   0  0  0  0  0  0  0  0  0  0  0  0
   -8.4136   -3.2266    0.7621 H   0  0  0  0  0  0  0  0  0  0  0  0
   -9.0434   -1.5918   -1.3275 H   0  0  0  0  0  0  0  0  0  0  0  0
  -10.0595   -1.3007    0.1113 H   0  0  0  0  0  0  0  0  0  0  0  0
   -7.9436   -1.1768    1.4378 H   0  0  0  0  0  0  0  0  0  0  0  0
   -4.9663   -1.0707   -0.9590 H   0  0  0  0  0  0  0  0  0  0  0  0
    3.8533    3.4738    1.2182 H   0  0  0  0  0  0  0  0  0  0  0  0
    3.8223    2.2732   -0.0802 H   0  0  0  0  0  0  0  0  0  0  0  0
    5.5497    1.8933    2.4301 H   0  0  0  0  0  0  0  0  0  0  0  0
    7.3337   -0.0359    1.3888 H   0  0  0  0  0  0  0  0  0  0  0  0
    7.2177    1.5857   -1.1345 H   0  0  0  0  0  0  0  0  0  0  0  0
    5.8804    3.1938   -0.2504 H   0  0  0  0  0  0  0  0  0  0  0  0
    6.3492    3.9907    1.9484 H   0  0  0  0  0  0  0  0  0  0  0  0
    8.7616    2.7599    0.4221 H   0  0  0  0  0  0  0  0  0  0  0  0
    4.5767   -0.7883   -0.6893 H   0  0  0  0  0  0  0  0  0  0  0  0
    4.5826   -2.5508   -2.4445 H   0  0  0  0  0  0  0  0  0  0  0  0
    8.7410   -2.6424   -2.1761 H   0  0  0  0  0  0  0  0  0  0  0  0
    1.2741    3.8259   -0.3805 H   0  0  0  0  0  0  0  0  0  0  0  0
    2.0143   -1.5955    1.0369 H   0  0  0  0  0  0  0  0  0  0  0  0
   -0.6803   -0.3304    2.0948 H   0  0  0  0  0  0  0  0  0  0  0  0
   -2.9996   -3.8147    1.7287 H   0  0  0  0  0  0  0  0  0  0  0  0
   -4.8776    1.1461   -0.5648 H   0  0  0  0  0  0  0  0  0  0  0  0
   -7.1784    2.0662   -1.0778 H   0  0  0  0  0  0  0  0  0  0  0  0
   -8.0306    1.0575    0.9693 H   0  0  0  0  0  0  0  0  0  0  0  0
   -9.9655    1.2287    0.1784 H   0  0  0  0  0  0  0  0  0  0  0  0
   -7.4317    0.6864   -2.8037 H   0  0  0  0  0  0  0  0  0  0  0  0
   -6.2121    0.5398    1.8239 H   0  0  0  0  0  0  0  0  0  0  0  0
  1  2  1  0
  2  3  1  0
  3  4  1  0
  4  5  1  0
  5  6  1  0
  6  7  1  0
  7  8  2  0
  7  9  1  0
  9 10  1  0
 10 11  2  0
 10 12  1  0
 12 13  1  0
 13 14  2  0
 13 15  1  0
 15 16  1  0
 16 17  2  0
 16 18  1  0
 18 19  1  0
 19 20  1  0
 20 21  1  0
 21 22  1  0
 22 23  1  0
 23 24  1  0
 24 25  1  0
 23 26  1  0
 22 27  1  0
 27 28  1  0
 28 29  2  0
 29 30  1  0
 30 31  2  0
 30 32  1  0
 32 33  1  0
 33 34  2  0
 16 35  1  0
 13 36  1  0
 10 37  1  0
  7 38  1  0
  5 39  1  0
 39 40  1  0
 40 41  1  0
 41 42  1  0
 40 43  1  0
 39 44  1  0
 41  3  1  0
 24 20  1  0
 33 27  1  0
  1 45  1  0
  2 46  1  0
  2 47  1  0
  3 48  1  1
  5 49  1  6
 19 50  1  0
 19 51  1  0
 20 52  1  1
 22 53  1  1
 23 54  1  6
 24 55  1  6
 25 56  1  0
 26 57  1  0
 28 58  1  0
 29 59  1  0
 32 60  1  0
 35 61  1  0
 36 62  1  0
 37 63  1  0
 38 64  1  0
 39 65  1  6
 40 66  1  6
 41 67  1  1
 42 68  1  0
 43 69  1  0
 44 70  1  0
M  END
>  <Ligand ID>  (1) 
LIG0002825

>  <Ligand>  (1) 
CHEMBL444212

>  <SMILES>  (1) 
OC[C@H]1O[C@H](OP(=O)(OP(=O)(OP(=O)(OP(=O)(OC[C@H]2O[C@H]([C@@H]([C@@H]2O)O)n2ccc(=O)[nH]c2=O)O)O)O)O)[C@@H]([C@H]([C@H]1O)O)O

>  <CID>  (1) 
44585519.0

>  <ChEMBL ID>  (1) 
nan

>  <InChiKey>  (1) 
AJLLTXOUJGYGAA-ABVWGUQPSA-N

>  <InChi>  (1) 
InChI=1S/C15H26N2O23P4/c18-3-5-8(20)10(22)12(24)14(36-5)37-42(28,29)39-44(32,33)40-43(30,31)38-41(26,27)34-4-6-9(21)11(23)13(35-6)17-2-1-7(19)16-15(17)25/h1-2,5-6,8-14,18,20-24H,3-4H2,(H,26,27)(H,28,29)(H,30,31)(H,32,33)(H,16,19,25)/t5-,6-,8+,9-,10+,11-,12-,13-,14-/m1/s1

>  <IUPAC Name>  (1) 
[[(2R,3S,4R,5R)-5-(2,4-dioxopyrimidin-1-yl)-3,4-dihydroxyoxolan-2-yl]methoxy-hydroxyphosphoryl] [hydroxy-[hydroxy-[(2R,3R,4S,5R,6R)-3,4,5-trihydroxy-6-(hydroxymethyl)oxan-2-yl]oxyphosphoryl]oxyphosphoryl] hydrogen phosphate

$$$$
