
     RDKit          3D

 46 46  0  0  0  0  0  0  0  0999 V2000
   -0.8586    3.8883   -0.2030 O   0  0  0  0  0  0  0  0  0  0  0  0
   -0.5478    2.7326   -0.5370 C   0  0  0  0  0  0  0  0  0  0  0  0
   -1.3162    1.8898   -1.5017 C   0  0  0  0  0  0  0  0  0  0  0  0
   -2.4747    1.1993   -0.7776 C   0  0  0  0  0  0  0  0  0  0  0  0
   -2.0208    0.5775    0.5313 C   0  0  0  0  0  0  0  0  0  0  0  0
   -2.9866   -0.3874    1.1223 C   0  0  0  0  0  0  0  0  0  0  0  0
   -3.2592   -1.5883    0.2938 C   0  0  0  0  0  0  0  0  0  0  0  0
   -2.2025   -2.6372    0.1889 C   0  0  0  0  0  0  0  0  0  0  0  0
   -0.8373   -2.0769    0.0225 C   0  0  0  0  0  0  0  0  0  0  0  0
    0.2075   -3.0745   -0.4449 C   0  0  0  0  0  0  0  0  0  0  0  0
    1.5638   -2.5289   -0.3010 C   0  0  0  0  0  0  0  0  0  0  0  0
    1.6954   -1.0416   -0.5627 C   0  0  0  0  0  0  0  0  0  0  0  0
    2.9734   -0.6572   -0.7228 O   0  0  0  0  0  0  0  0  0  0  0  0
    3.4263    0.5863   -0.7836 C   0  0  0  0  0  0  0  0  0  0  0  0
    3.6054    1.4354    0.3991 C   0  0  0  0  0  0  0  0  0  0  0  0
    2.5740    1.8144    1.3470 C   0  0  0  0  0  0  0  0  0  0  0  0
    1.4246    2.6516    0.8847 C   0  0  0  0  0  0  0  0  0  0  0  0
    0.5917    2.0604   -0.0303 O   0  0  0  0  0  0  0  0  0  0  0  0
   -0.7099    1.1242   -1.9987 H   0  0  0  0  0  0  0  0  0  0  0  0
   -1.7861    2.5057   -2.2962 H   0  0  0  0  0  0  0  0  0  0  0  0
   -3.3038    1.9089   -0.6080 H   0  0  0  0  0  0  0  0  0  0  0  0
   -2.8323    0.4397   -1.4886 H   0  0  0  0  0  0  0  0  0  0  0  0
   -0.9762    0.4148    0.5255 H   0  0  0  0  0  0  0  0  0  0  0  0
   -2.1055    1.4895    1.2742 H   0  0  0  0  0  0  0  0  0  0  0  0
   -3.9311    0.1783    1.3426 H   0  0  0  0  0  0  0  0  0  0  0  0
   -2.5971   -0.6544    2.1332 H   0  0  0  0  0  0  0  0  0  0  0  0
   -4.2577   -2.0475    0.5838 H   0  0  0  0  0  0  0  0  0  0  0  0
   -3.4667   -1.2702   -0.7757 H   0  0  0  0  0  0  0  0  0  0  0  0
   -2.2991   -3.3029    1.0807 H   0  0  0  0  0  0  0  0  0  0  0  0
   -2.4271   -3.2612   -0.7158 H   0  0  0  0  0  0  0  0  0  0  0  0
   -0.9006   -1.3527   -0.8132 H   0  0  0  0  0  0  0  0  0  0  0  0
   -0.4362   -1.6912    0.9771 H   0  0  0  0  0  0  0  0  0  0  0  0
    0.0535   -3.9907    0.1884 H   0  0  0  0  0  0  0  0  0  0  0  0
   -0.0633   -3.3562   -1.4831 H   0  0  0  0  0  0  0  0  0  0  0  0
    1.9734   -2.7413    0.7267 H   0  0  0  0  0  0  0  0  0  0  0  0
    2.2415   -3.1123   -0.9833 H   0  0  0  0  0  0  0  0  0  0  0  0
    1.3103   -0.5562    0.3737 H   0  0  0  0  0  0  0  0  0  0  0  0
    1.1158   -0.7746   -1.4509 H   0  0  0  0  0  0  0  0  0  0  0  0
    4.4694    0.5219   -1.2753 H   0  0  0  0  0  0  0  0  0  0  0  0
    2.8448    1.1296   -1.5994 H   0  0  0  0  0  0  0  0  0  0  0  0
    4.0148    2.4380   -0.0270 H   0  0  0  0  0  0  0  0  0  0  0  0
    4.5683    1.1025    0.9594 H   0  0  0  0  0  0  0  0  0  0  0  0
    2.2261    0.9514    1.9835 H   0  0  0  0  0  0  0  0  0  0  0  0
    3.0800    2.4679    2.1448 H   0  0  0  0  0  0  0  0  0  0  0  0
    0.7776    2.9681    1.7580 H   0  0  0  0  0  0  0  0  0  0  0  0
    1.8585    3.6270    0.5390 H   0  0  0  0  0  0  0  0  0  0  0  0
  1  2  2  0
  2  3  1  0
  3  4  1  0
  4  5  1  0
  5  6  1  0
  6  7  1  0
  7  8  1  0
  8  9  1  0
  9 10  1  0
 10 11  1  0
 11 12  1  0
 12 13  1  0
 13 14  1  0
 14 15  1  0
 15 16  1  0
 16 17  1  0
 17 18  1  0
 18  2  1  0
  3 19  1  0
  3 20  1  0
  4 21  1  0
  4 22  1  0
  5 23  1  0
  5 24  1  0
  6 25  1  0
  6 26  1  0
  7 27  1  0
  7 28  1  0
  8 29  1  0
  8 30  1  0
  9 31  1  0
  9 32  1  0
 10 33  1  0
 10 34  1  0
 11 35  1  0
 11 36  1  0
 12 37  1  0
 12 38  1  0
 14 39  1  0
 14 40  1  0
 15 41  1  0
 15 42  1  0
 16 43  1  0
 16 44  1  0
 17 45  1  0
 17 46  1  0
M  END
>  <Ligand ID>  (1) 
LIG0001066

>  <Ligand>  (1) 
Cervolide

>  <SMILES>  (1) 
O=C1CCCCCCCCCCOCCCCO1

>  <CID>  (1) 
23173.0

>  <ChEMBL ID>  (1) 
nan

>  <InChiKey>  (1) 
MRMOPGVGWFNHIN-UHFFFAOYSA-N

>  <InChi>  (1) 
InChI=1S/C15H28O3/c16-15-11-7-5-3-1-2-4-6-8-12-17-13-9-10-14-18-15/h1-14H2

>  <IUPAC Name>  (1) 
1,6-dioxacycloheptadecan-7-one

$$$$
