
     RDKit          3D

 14 13  0  0  0  0  0  0  0  0999 V2000
   -1.3425    0.6571   -0.4892 C   0  0  0  0  0  0  0  0  0  0  0  0
   -0.8759   -0.7539   -0.5321 C   0  0  0  0  0  0  0  0  0  0  0  0
    0.4273   -1.0912   -0.0048 C   0  0  0  0  0  0  0  0  0  0  0  0
    0.7208   -2.3673   -0.0961 O   0  0  0  0  0  0  0  0  0  0  0  0
    1.4471   -0.2858    0.5947 C   0  0  0  0  0  0  0  0  0  0  0  0
    1.4628    0.9999    0.8271 C   0  0  0  0  0  0  0  0  0  0  0  0
   -0.7844    1.3478   -1.1277 H   0  0  0  0  0  0  0  0  0  0  0  0
   -2.4154    0.6666   -0.9053 H   0  0  0  0  0  0  0  0  0  0  0  0
   -1.5045    1.0045    0.5485 H   0  0  0  0  0  0  0  0  0  0  0  0
   -1.6386   -1.4305   -0.0309 H   0  0  0  0  0  0  0  0  0  0  0  0
   -0.9210   -1.0945   -1.6162 H   0  0  0  0  0  0  0  0  0  0  0  0
    2.3691   -0.8214    0.9150 H   0  0  0  0  0  0  0  0  0  0  0  0
    0.6976    1.7174    0.6088 H   0  0  0  0  0  0  0  0  0  0  0  0
    2.3576    1.4513    1.3083 H   0  0  0  0  0  0  0  0  0  0  0  0
  1  2  1  0
  2  3  1  0
  3  4  2  0
  3  5  1  0
  5  6  2  0
  1  7  1  0
  1  8  1  0
  1  9  1  0
  2 10  1  0
  2 11  1  0
  5 12  1  0
  6 13  1  0
  6 14  1  0
M  END
>  <Ligand ID>  (1) 
LIG0000459

>  <Ligand>  (1) 
Pent-1-en-3-one

>  <SMILES>  (1) 
CCC(=O)C=C

>  <CID>  (1) 
15394.0

>  <ChEMBL ID>  (1) 
nan

>  <InChiKey>  (1) 
JLIDVCMBCGBIEY-UHFFFAOYSA-N

>  <InChi>  (1) 
InChI=1S/C5H8O/c1-3-5(6)4-2/h3H,1,4H2,2H3

>  <IUPAC Name>  (1) 
pent-1-en-3-one

$$$$
