
     RDKit          3D

 54 58  0  0  0  0  0  0  0  0999 V2000
   -7.3336    1.2433   -1.9784 Cl  0  0  0  0  0  0  0  0  0  0  0  0
   -5.7873    1.0880   -1.1367 C   0  0  0  0  0  0  0  0  0  0  0  0
   -5.7429    0.5530    0.1244 C   0  0  0  0  0  0  0  0  0  0  0  0
   -4.4965    0.4555    0.7379 C   0  0  0  0  0  0  0  0  0  0  0  0
   -3.3474    0.8819    0.1000 C   0  0  0  0  0  0  0  0  0  0  0  0
   -3.4483    1.4142   -1.1721 C   0  0  0  0  0  0  0  0  0  0  0  0
   -4.6749    1.5290   -1.8199 C   0  0  0  0  0  0  0  0  0  0  0  0
   -2.0016    0.7735    0.7690 C   0  0  0  0  0  0  0  0  0  0  0  0
   -1.3384   -0.4910    0.4743 C   0  0  0  0  0  0  0  0  0  0  0  0
   -1.5791   -1.6595    1.1901 C   0  0  0  0  0  0  0  0  0  0  0  0
   -0.9285   -2.8409    0.8793 C   0  0  0  0  0  0  0  0  0  0  0  0
   -0.0139   -2.8730   -0.1667 C   0  0  0  0  0  0  0  0  0  0  0  0
    0.2416   -1.7213   -0.8921 C   0  0  0  0  0  0  0  0  0  0  0  0
   -0.4198   -0.5914   -0.5508 C   0  0  0  0  0  0  0  0  0  0  0  0
    1.1236   -1.7107   -1.9315 C   0  0  0  0  0  0  0  0  0  0  0  0
    1.5116   -0.5470   -2.7441 C   0  0  0  0  0  0  0  0  0  0  0  0
    2.5308    0.2562   -2.0518 C   0  0  0  0  0  0  0  0  0  0  0  0
    3.8280   -0.2672   -2.0325 C   0  0  0  0  0  0  0  0  0  0  0  0
    4.8790    0.3767   -1.4413 C   0  0  0  0  0  0  0  0  0  0  0  0
    4.6752    1.5963   -0.8314 C   0  0  0  0  0  0  0  0  0  0  0  0
    3.4160    2.1371   -0.8328 C   0  0  0  0  0  0  0  0  0  0  0  0
    2.3547    1.4617   -1.4436 C   0  0  0  0  0  0  0  0  0  0  0  0
    5.7731    2.2067   -0.2470 O   0  0  0  0  0  0  0  0  0  0  0  0
    6.1085    1.9647    1.1065 C   0  0  0  0  0  0  0  0  0  0  0  0
    5.0481    2.3591    1.8756 F   0  0  0  0  0  0  0  0  0  0  0  0
    7.2334    2.6451    1.4793 F   0  0  0  0  0  0  0  0  0  0  0  0
    6.2635    0.5918    1.3131 F   0  0  0  0  0  0  0  0  0  0  0  0
    1.7535   -2.9224   -2.2274 C   0  0  0  0  0  0  0  0  0  0  0  0
    1.5063   -4.0737   -1.5134 C   0  0  0  0  0  0  0  0  0  0  0  0
    2.0899   -5.1585   -1.8017 O   0  0  0  0  0  0  0  0  0  0  0  0
    0.6219   -4.0099   -0.4961 N   0  0  0  0  0  0  0  0  0  0  0  0
   -2.1695    0.9326    2.2210 C   0  0  0  0  0  0  0  0  0  0  0  0
   -2.3404    0.3744    3.1947 N   0  0  0  0  0  0  0  0  0  0  0  0
   -2.4636    0.7672    4.4457 C   0  0  0  0  0  0  0  0  0  0  0  0
   -2.3723    2.1073    4.6484 C   0  0  0  0  0  0  0  0  0  0  0  0
   -2.0960    2.7349    2.8857 S   0  0  0  0  0  0  0  0  0  0  0  0
   -6.6400    0.2067    0.6534 H   0  0  0  0  0  0  0  0  0  0  0  0
   -4.4405    0.0282    1.7519 H   0  0  0  0  0  0  0  0  0  0  0  0
   -2.5771    1.7622   -1.7138 H   0  0  0  0  0  0  0  0  0  0  0  0
   -4.7611    1.9464   -2.8200 H   0  0  0  0  0  0  0  0  0  0  0  0
   -1.3273    1.5935    0.3770 H   0  0  0  0  0  0  0  0  0  0  0  0
   -2.2839   -1.6722    2.0079 H   0  0  0  0  0  0  0  0  0  0  0  0
   -1.1372   -3.7140    1.4462 H   0  0  0  0  0  0  0  0  0  0  0  0
   -0.2388    0.3047   -1.1199 H   0  0  0  0  0  0  0  0  0  0  0  0
    0.6365    0.1267   -2.9440 H   0  0  0  0  0  0  0  0  0  0  0  0
    1.9479   -0.8854   -3.7217 H   0  0  0  0  0  0  0  0  0  0  0  0
    4.0519   -1.2319   -2.5003 H   0  0  0  0  0  0  0  0  0  0  0  0
    5.8627   -0.0572   -1.4464 H   0  0  0  0  0  0  0  0  0  0  0  0
    3.2714    3.0905   -0.3525 H   0  0  0  0  0  0  0  0  0  0  0  0
    1.4043    1.9230   -1.4256 H   0  0  0  0  0  0  0  0  0  0  0  0
    2.4672   -2.9761   -3.0471 H   0  0  0  0  0  0  0  0  0  0  0  0
    0.4029   -4.8602    0.0750 H   0  0  0  0  0  0  0  0  0  0  0  0
   -2.6290    0.0624    5.2769 H   0  0  0  0  0  0  0  0  0  0  0  0
   -2.4147    2.7691    5.4436 H   0  0  0  0  0  0  0  0  0  0  0  0
  1  2  1  0
  2  3  2  0
  3  4  1  0
  4  5  2  0
  5  6  1  0
  6  7  2  0
  5  8  1  0
  8  9  1  0
  9 10  2  0
 10 11  1  0
 11 12  2  0
 12 13  1  0
 13 14  2  0
 13 15  1  0
 15 16  1  0
 16 17  1  0
 17 18  2  0
 18 19  1  0
 19 20  2  0
 20 21  1  0
 21 22  2  0
 20 23  1  0
 23 24  1  0
 24 25  1  0
 24 26  1  0
 24 27  1  0
 15 28  2  0
 28 29  1  0
 29 30  2  0
 29 31  1  0
  8 32  1  0
 32 33  2  0
 33 34  1  0
 34 35  2  0
 35 36  1  0
  7  2  1  0
 14  9  1  0
 22 17  1  0
 36 32  1  0
 31 12  1  0
  3 37  1  0
  4 38  1  0
  6 39  1  0
  7 40  1  0
  8 41  1  0
 10 42  1  0
 11 43  1  0
 14 44  1  0
 16 45  1  0
 16 46  1  0
 18 47  1  0
 19 48  1  0
 21 49  1  0
 22 50  1  0
 28 51  1  0
 31 52  1  0
 34 53  1  0
 35 54  1  0
M  END
>  <Ligand ID>  (1) 
LIG0005910

>  <Ligand>  (1) 
CHEMBL3933872

>  <SMILES>  (1) 
Clc1ccc(cc1)C(c1ccc2c(c1)c(Cc1ccc(cc1)OC(F)(F)F)cc(=O)[nH]2)c1nccs1

>  <CID>  (1) 
118323968.0

>  <ChEMBL ID>  (1) 
nan

>  <InChiKey>  (1) 
WJTAKJCKVXTWDS-UHFFFAOYSA-N

>  <InChi>  (1) 
InChI=1S/C27H18ClF3N2O2S/c28-20-6-3-17(4-7-20)25(26-32-11-12-36-26)18-5-10-23-22(14-18)19(15-24(34)33-23)13-16-1-8-21(9-2-16)35-27(29,30)31/h1-12,14-15,25H,13H2,(H,33,34)

>  <IUPAC Name>  (1) 
6-[(4-chlorophenyl)-(1,3-thiazol-2-yl)methyl]-4-[[4-(trifluoromethoxy)phenyl]methyl]-1H-quinolin-2-one

$$$$
