
     RDKit          3D

 41 44  0  0  0  0  0  0  0  0999 V2000
    7.0352    2.7315   -0.7592 Cl  0  0  0  0  0  0  0  0  0  0  0  0
    5.8124    1.5893   -0.2364 C   0  0  0  0  0  0  0  0  0  0  0  0
    5.0090    0.8949   -1.1114 C   0  0  0  0  0  0  0  0  0  0  0  0
    4.0677    0.0103   -0.6200 C   0  0  0  0  0  0  0  0  0  0  0  0
    3.9311   -0.1790    0.7465 C   0  0  0  0  0  0  0  0  0  0  0  0
    4.7267    0.5069    1.6471 C   0  0  0  0  0  0  0  0  0  0  0  0
    5.6630    1.3892    1.1195 C   0  0  0  0  0  0  0  0  0  0  0  0
    4.5670    0.2807    3.3743 Cl  0  0  0  0  0  0  0  0  0  0  0  0
    2.9226   -1.1440    1.3054 C   0  0  0  0  0  0  0  0  0  0  0  0
    1.7993   -1.7713    0.0638 S   0  0  0  0  0  0  0  0  0  0  0  0
    0.7142   -0.4791   -0.5185 C   0  0  0  0  0  0  0  0  0  0  0  0
    0.8543    0.4003   -1.5050 N   0  0  0  0  0  0  0  0  0  0  0  0
   -0.2148    1.1530   -1.5617 N   0  0  0  0  0  0  0  0  0  0  0  0
   -1.0974    0.7954   -0.6135 C   0  0  0  0  0  0  0  0  0  0  0  0
   -0.5106   -0.2385    0.0476 N   0  0  0  0  0  0  0  0  0  0  0  0
   -1.0840   -0.9714    1.1509 C   0  0  0  0  0  0  0  0  0  0  0  0
   -1.8225   -2.1256    0.5610 C   0  0  0  0  0  0  0  0  0  0  0  0
   -3.1443   -2.2194    0.1693 C   0  0  0  0  0  0  0  0  0  0  0  0
   -3.5666   -3.3754   -0.3354 C   0  0  0  0  0  0  0  0  0  0  0  0
   -2.7084   -4.4171   -0.4526 C   0  0  0  0  0  0  0  0  0  0  0  0
   -1.1387   -3.7353    0.2051 S   0  0  0  0  0  0  0  0  0  0  0  0
   -2.3848    1.4187   -0.3867 C   0  0  0  0  0  0  0  0  0  0  0  0
   -2.9597    2.1641   -1.3977 C   0  0  0  0  0  0  0  0  0  0  0  0
   -4.1816    2.7926   -1.2640 C   0  0  0  0  0  0  0  0  0  0  0  0
   -4.8621    2.6727   -0.0668 C   0  0  0  0  0  0  0  0  0  0  0  0
   -4.2519    1.9198    0.9154 C   0  0  0  0  0  0  0  0  0  0  0  0
   -3.0625    1.3169    0.7629 N   0  0  0  0  0  0  0  0  0  0  0  0
    5.1569    1.0818   -2.1707 H   0  0  0  0  0  0  0  0  0  0  0  0
    3.4637   -0.5169   -1.3154 H   0  0  0  0  0  0  0  0  0  0  0  0
    6.2926    1.9304    1.8389 H   0  0  0  0  0  0  0  0  0  0  0  0
    2.3403   -0.5629    2.0506 H   0  0  0  0  0  0  0  0  0  0  0  0
    3.5060   -1.9620    1.7785 H   0  0  0  0  0  0  0  0  0  0  0  0
   -1.7116   -0.3948    1.8293 H   0  0  0  0  0  0  0  0  0  0  0  0
   -0.2247   -1.3381    1.7764 H   0  0  0  0  0  0  0  0  0  0  0  0
   -3.7990   -1.3283    0.2925 H   0  0  0  0  0  0  0  0  0  0  0  0
   -4.6341   -3.5131   -0.6722 H   0  0  0  0  0  0  0  0  0  0  0  0
   -2.8270   -5.3951   -0.8145 H   0  0  0  0  0  0  0  0  0  0  0  0
   -2.4728    2.3004   -2.3740 H   0  0  0  0  0  0  0  0  0  0  0  0
   -4.6200    3.3782   -2.0756 H   0  0  0  0  0  0  0  0  0  0  0  0
   -5.8298    3.1445    0.1029 H   0  0  0  0  0  0  0  0  0  0  0  0
   -4.7532    1.7955    1.8781 H   0  0  0  0  0  0  0  0  0  0  0  0
  1  2  1  0
  2  3  2  0
  3  4  1  0
  4  5  2  0
  5  6  1  0
  6  7  2  0
  6  8  1  0
  5  9  1  0
  9 10  1  0
 10 11  1  0
 11 12  2  0
 12 13  1  0
 13 14  2  0
 14 15  1  0
 15 16  1  0
 16 17  1  0
 17 18  2  0
 18 19  1  0
 19 20  2  0
 20 21  1  0
 14 22  1  0
 22 23  2  0
 23 24  1  0
 24 25  2  0
 25 26  1  0
 26 27  2  0
  7  2  1  0
 15 11  1  0
 21 17  1  0
 27 22  1  0
  3 28  1  0
  4 29  1  0
  7 30  1  0
  9 31  1  0
  9 32  1  0
 16 33  1  0
 16 34  1  0
 18 35  1  0
 19 36  1  0
 20 37  1  0
 23 38  1  0
 24 39  1  0
 25 40  1  0
 26 41  1  0
M  END
>  <Ligand ID>  (1) 
LIG0002771

>  <Ligand>  (1) 
KSC-5-247F

>  <SMILES>  (1) 
Clc1ccc(c(c1)Cl)CSc1nnc(n1Cc1cccs1)c1ccccn1

>  <CID>  (1) 
44601469.0

>  <ChEMBL ID>  (1) 
nan

>  <InChiKey>  (1) 
CHDLYHTXJUVGMK-UHFFFAOYSA-N

>  <InChi>  (1) 
InChI=1S/C19H14Cl2N4S2/c20-14-7-6-13(16(21)10-14)12-27-19-24-23-18(17-5-1-2-8-22-17)25(19)11-15-4-3-9-26-15/h1-10H,11-12H2

>  <IUPAC Name>  (1) 
2-[5-[(2,4-dichlorophenyl)methylsulfanyl]-4-(thiophen-2-ylmethyl)-1,2,4-triazol-3-yl]pyridine

$$$$
