
     RDKit          3D

155160  0  0  0  0  0  0  0  0999 V2000
    1.6863   -2.4167    2.5794 C   0  0  0  0  0  0  0  0  0  0  0  0
    1.9593   -0.9275    3.5029 S   0  0  0  0  0  0  0  0  0  0  0  0
    3.0898    0.2412    2.7847 C   0  0  0  0  0  0  0  0  0  0  0  0
    2.5404    0.9213    1.5827 C   0  0  0  0  0  0  0  0  0  0  0  0
    2.2661    0.0276    0.4462 C   0  0  1  0  0  0  0  0  0  0  0  0
    1.6906    0.8225   -0.7302 C   0  0  0  0  0  0  0  0  0  0  0  0
    2.4305    1.0102   -1.7035 O   0  0  0  0  0  0  0  0  0  0  0  0
    0.3767    1.3329   -0.7313 N   0  0  0  0  0  0  0  0  0  0  0  0
   -0.1174    2.1374   -1.8673 C   0  0  0  0  0  0  0  0  0  0  0  0
   -0.9950    3.1413   -1.1914 C   0  0  0  0  0  0  0  0  0  0  0  0
   -1.1270    2.7357    0.2682 C   0  0  0  0  0  0  0  0  0  0  0  0
   -0.7180    1.2681    0.1740 C   0  0  1  0  0  0  0  0  0  0  0  0
   -1.9048    0.5661   -0.4277 C   0  0  0  0  0  0  0  0  0  0  0  0
   -1.8904   -0.0173   -1.5197 O   0  0  0  0  0  0  0  0  0  0  0  0
   -3.0959    0.6028    0.3420 N   0  0  0  0  0  0  0  0  0  0  0  0
   -4.3503   -0.0427   -0.1397 C   0  0  2  0  0  0  0  0  0  0  0  0
   -5.2886    1.0987   -0.2566 C   0  0  0  0  0  0  0  0  0  0  0  0
   -4.8148    2.2269    0.1251 O   0  0  0  0  0  0  0  0  0  0  0  0
   -6.6117    1.0408   -0.7382 N   0  0  0  0  0  0  0  0  0  0  0  0
   -7.4018    2.2418   -0.7909 C   0  0  2  0  0  0  0  0  0  0  0  0
   -8.1545    2.3160    0.5235 C   0  0  0  0  0  0  0  0  0  0  0  0
   -7.9200    1.3740    1.3185 O   0  0  0  0  0  0  0  0  0  0  0  0
   -9.0447    3.3734    0.8182 N   0  0  0  0  0  0  0  0  0  0  0  0
   -9.7793    3.5247    2.0434 C   0  0  0  0  0  0  0  0  0  0  0  0
  -10.9084    2.5703    2.0850 C   0  0  0  0  0  0  0  0  0  0  0  0
  -12.1226    2.9120    1.5174 C   0  0  0  0  0  0  0  0  0  0  0  0
  -13.1647    2.0283    1.5793 C   0  0  0  0  0  0  0  0  0  0  0  0
  -13.0505    0.7940    2.1939 C   0  0  0  0  0  0  0  0  0  0  0  0
  -11.8543    0.4342    2.7644 C   0  0  0  0  0  0  0  0  0  0  0  0
  -10.8107    1.3274    2.6980 C   0  0  0  0  0  0  0  0  0  0  0  0
  -11.6410   -0.8707    3.4493 C   0  0  0  0  0  0  0  0  0  0  0  0
  -11.7873   -0.6415    4.7916 F   0  0  0  0  0  0  0  0  0  0  0  0
  -12.5350   -1.7948    2.9977 F   0  0  0  0  0  0  0  0  0  0  0  0
  -10.3625   -1.3656    3.2381 F   0  0  0  0  0  0  0  0  0  0  0  0
  -14.4840    2.4074    0.9615 C   0  0  0  0  0  0  0  0  0  0  0  0
  -15.3538    2.7992    1.9545 F   0  0  0  0  0  0  0  0  0  0  0  0
  -14.2618    3.4196    0.0460 F   0  0  0  0  0  0  0  0  0  0  0  0
  -15.0369    1.3392    0.2908 F   0  0  0  0  0  0  0  0  0  0  0  0
   -8.3177    2.4228   -1.9289 C   0  0  0  0  0  0  0  0  0  0  0  0
   -9.3711    1.4117   -2.1241 C   0  0  0  0  0  0  0  0  0  0  0  0
  -10.6934    1.5164   -1.6751 C   0  0  0  0  0  0  0  0  0  0  0  0
  -11.3865    0.4260   -1.9971 N   0  0  0  0  0  0  0  0  0  0  0  0
  -10.5818   -0.4220   -2.6533 C   0  0  0  0  0  0  0  0  0  0  0  0
   -9.3316    0.1737   -2.7405 C   0  0  0  0  0  0  0  0  0  0  0  0
   -8.3510   -0.5306   -3.3963 C   0  0  0  0  0  0  0  0  0  0  0  0
   -8.6024   -1.7679   -3.9374 C   0  0  0  0  0  0  0  0  0  0  0  0
   -9.8369   -2.3718   -3.8579 C   0  0  0  0  0  0  0  0  0  0  0  0
  -10.8307   -1.6794   -3.2050 C   0  0  0  0  0  0  0  0  0  0  0  0
   -4.6846   -1.0284    0.9387 C   0  0  0  0  0  0  0  0  0  0  0  0
   -5.9053   -1.8508    0.7494 C   0  0  0  0  0  0  0  0  0  0  0  0
   -6.0665   -2.8137    1.9445 C   0  0  0  0  0  0  0  0  0  0  0  0
   -5.8712   -2.6949   -0.4990 C   0  0  0  0  0  0  0  0  0  0  0  0
    3.5951   -0.3439   -0.1032 N   0  0  0  0  0  0  0  0  0  0  0  0
    3.8708   -1.6230   -0.6343 C   0  0  0  0  0  0  0  0  0  0  0  0
    3.0534   -2.5668   -0.7054 O   0  0  0  0  0  0  0  0  0  0  0  0
    5.2439   -1.8645   -1.1528 C   0  0  2  0  0  0  0  0  0  0  0  0
    5.9299   -3.0540   -0.5970 C   0  0  0  0  0  0  0  0  0  0  0  0
    5.2518   -4.3424   -0.8346 C   0  0  0  0  0  0  0  0  0  0  0  0
    5.5322   -5.0323   -2.0137 C   0  0  0  0  0  0  0  0  0  0  0  0
    4.9389   -6.2387   -2.2865 C   0  0  0  0  0  0  0  0  0  0  0  0
    4.0455   -6.8280   -1.4241 C   0  0  0  0  0  0  0  0  0  0  0  0
    3.7637   -6.1407   -0.2474 C   0  0  0  0  0  0  0  0  0  0  0  0
    4.3605   -4.9326    0.0226 C   0  0  0  0  0  0  0  0  0  0  0  0
    6.0801   -0.6848   -1.0005 N   0  0  0  0  0  0  0  0  0  0  0  0
    6.3089    0.1743   -2.1056 C   0  0  0  0  0  0  0  0  0  0  0  0
    5.7647   -0.1124   -3.2080 O   0  0  0  0  0  0  0  0  0  0  0  0
    7.1392    1.3948   -2.0612 C   0  0  0  0  0  0  0  0  0  0  0  0
    7.7623    1.5569   -0.7671 N   0  0  0  0  0  0  0  0  0  0  0  0
    8.7018    0.5848   -0.3620 C   0  0  0  0  0  0  0  0  0  0  0  0
    8.9871   -0.4010   -1.1315 O   0  0  0  0  0  0  0  0  0  0  0  0
    9.4213    0.6162    0.9408 C   0  0  2  0  0  0  0  0  0  0  0  0
   10.4762   -0.3734    0.9782 N   0  0  0  0  0  0  0  0  0  0  0  0
   11.7951    0.0994    1.2286 C   0  0  0  0  0  0  0  0  0  0  0  0
   11.9571    1.3384    1.4053 O   0  0  0  0  0  0  0  0  0  0  0  0
   12.9928   -0.7536    1.2956 C   0  0  2  0  0  0  0  0  0  0  0  0
   13.8770   -0.4966    0.0990 C   0  0  0  0  0  0  0  0  0  0  0  0
   14.2972    0.9096    0.0764 C   0  0  0  0  0  0  0  0  0  0  0  0
   13.6192    1.8966   -0.6417 C   0  0  0  0  0  0  0  0  0  0  0  0
   14.0151    3.2114   -0.6535 C   0  0  0  0  0  0  0  0  0  0  0  0
   15.1171    3.6342    0.0524 C   0  0  0  0  0  0  0  0  0  0  0  0
   15.8093    2.6653    0.7765 C   0  0  0  0  0  0  0  0  0  0  0  0
   15.4066    1.3541    0.7822 C   0  0  0  0  0  0  0  0  0  0  0  0
   15.5046    4.9638    0.0324 O   0  0  0  0  0  0  0  0  0  0  0  0
   12.6188   -2.1604    1.2136 N   0  0  0  0  0  0  0  0  0  0  0  0
    8.4014    0.2026    2.0087 C   0  0  0  0  0  0  0  0  0  0  0  0
    0.7380   -2.4207    2.0332 H   0  0  0  0  0  0  0  0  0  0  0  0
    2.5498   -2.6038    1.9316 H   0  0  0  0  0  0  0  0  0  0  0  0
    1.5932   -3.2892    3.3120 H   0  0  0  0  0  0  0  0  0  0  0  0
    4.0148   -0.3277    2.4391 H   0  0  0  0  0  0  0  0  0  0  0  0
    3.4079    0.9769    3.5755 H   0  0  0  0  0  0  0  0  0  0  0  0
    3.2991    1.7053    1.2696 H   0  0  0  0  0  0  0  0  0  0  0  0
    1.6141    1.4736    1.9445 H   0  0  0  0  0  0  0  0  0  0  0  0
    1.6774   -0.8396    0.6302 H   0  0  0  0  0  0  0  0  0  0  0  0
   -0.6127    1.5130   -2.6196 H   0  0  0  0  0  0  0  0  0  0  0  0
    0.7361    2.6947   -2.3245 H   0  0  0  0  0  0  0  0  0  0  0  0
   -0.5262    4.1541   -1.1690 H   0  0  0  0  0  0  0  0  0  0  0  0
   -1.9922    3.2308   -1.6519 H   0  0  0  0  0  0  0  0  0  0  0  0
   -0.4462    3.2898    0.9163 H   0  0  0  0  0  0  0  0  0  0  0  0
   -2.1632    2.8798    0.5652 H   0  0  0  0  0  0  0  0  0  0  0  0
   -0.5021    0.8710    1.1645 H   0  0  0  0  0  0  0  0  0  0  0  0
   -3.1479    1.0830    1.2792 H   0  0  0  0  0  0  0  0  0  0  0  0
   -4.1697   -0.5410   -1.1033 H   0  0  0  0  0  0  0  0  0  0  0  0
   -6.9840    0.1307   -1.0561 H   0  0  0  0  0  0  0  0  0  0  0  0
   -6.6598    3.0853   -0.6882 H   0  0  0  0  0  0  0  0  0  0  0  0
   -9.1780    4.1022    0.0863 H   0  0  0  0  0  0  0  0  0  0  0  0
  -10.1488    4.5700    2.1448 H   0  0  0  0  0  0  0  0  0  0  0  0
   -9.1358    3.3081    2.9282 H   0  0  0  0  0  0  0  0  0  0  0  0
  -12.2250    3.8710    1.0371 H   0  0  0  0  0  0  0  0  0  0  0  0
  -13.8566    0.0869    2.2493 H   0  0  0  0  0  0  0  0  0  0  0  0
   -9.8842    1.0309    3.1552 H   0  0  0  0  0  0  0  0  0  0  0  0
   -7.7920    2.5848   -2.9047 H   0  0  0  0  0  0  0  0  0  0  0  0
   -8.8470    3.4127   -1.7714 H   0  0  0  0  0  0  0  0  0  0  0  0
  -11.0585    2.3741   -1.1462 H   0  0  0  0  0  0  0  0  0  0  0  0
  -12.3990    0.2148   -1.7956 H   0  0  0  0  0  0  0  0  0  0  0  0
   -7.3700   -0.0473   -3.4610 H   0  0  0  0  0  0  0  0  0  0  0  0
   -7.7938   -2.2980   -4.4554 H   0  0  0  0  0  0  0  0  0  0  0  0
  -10.0663   -3.3443   -4.2690 H   0  0  0  0  0  0  0  0  0  0  0  0
  -11.8227   -2.1404   -3.1289 H   0  0  0  0  0  0  0  0  0  0  0  0
   -4.6755   -0.5012    1.9201 H   0  0  0  0  0  0  0  0  0  0  0  0
   -3.8193   -1.7491    0.9898 H   0  0  0  0  0  0  0  0  0  0  0  0
   -6.8164   -1.2155    0.7696 H   0  0  0  0  0  0  0  0  0  0  0  0
   -6.1453   -2.2065    2.8603 H   0  0  0  0  0  0  0  0  0  0  0  0
   -7.0315   -3.3339    1.7468 H   0  0  0  0  0  0  0  0  0  0  0  0
   -5.2414   -3.5364    1.9500 H   0  0  0  0  0  0  0  0  0  0  0  0
   -4.9043   -2.6129   -1.0350 H   0  0  0  0  0  0  0  0  0  0  0  0
   -5.9744   -3.7883   -0.2721 H   0  0  0  0  0  0  0  0  0  0  0  0
   -6.7196   -2.4689   -1.1913 H   0  0  0  0  0  0  0  0  0  0  0  0
    4.3647    0.3940   -0.0877 H   0  0  0  0  0  0  0  0  0  0  0  0
    5.1199   -2.0059   -2.2653 H   0  0  0  0  0  0  0  0  0  0  0  0
    6.9613   -3.1470   -1.0435 H   0  0  0  0  0  0  0  0  0  0  0  0
    6.1098   -2.9962    0.4987 H   0  0  0  0  0  0  0  0  0  0  0  0
    6.2337   -4.6049   -2.7289 H   0  0  0  0  0  0  0  0  0  0  0  0
    5.1980   -6.7297   -3.2259 H   0  0  0  0  0  0  0  0  0  0  0  0
    3.5606   -7.7785   -1.6108 H   0  0  0  0  0  0  0  0  0  0  0  0
    3.0643   -6.5656    0.4675 H   0  0  0  0  0  0  0  0  0  0  0  0
    4.1229   -4.4383    0.9471 H   0  0  0  0  0  0  0  0  0  0  0  0
    6.4977   -0.4792   -0.0773 H   0  0  0  0  0  0  0  0  0  0  0  0
    6.4747    2.2591   -2.2678 H   0  0  0  0  0  0  0  0  0  0  0  0
    7.9439    1.3457   -2.8563 H   0  0  0  0  0  0  0  0  0  0  0  0
    7.5428    2.3547   -0.1376 H   0  0  0  0  0  0  0  0  0  0  0  0
    9.8180    1.5963    1.1883 H   0  0  0  0  0  0  0  0  0  0  0  0
   10.3378   -1.3899    0.8373 H   0  0  0  0  0  0  0  0  0  0  0  0
   13.5572   -0.6245    2.2524 H   0  0  0  0  0  0  0  0  0  0  0  0
   14.7613   -1.1884    0.1090 H   0  0  0  0  0  0  0  0  0  0  0  0
   13.2885   -0.7514   -0.8224 H   0  0  0  0  0  0  0  0  0  0  0  0
   12.7400    1.5825   -1.2128 H   0  0  0  0  0  0  0  0  0  0  0  0
   13.4809    3.9754   -1.2188 H   0  0  0  0  0  0  0  0  0  0  0  0
   16.6734    3.0345    1.3218 H   0  0  0  0  0  0  0  0  0  0  0  0
   15.9859    0.6394    1.3661 H   0  0  0  0  0  0  0  0  0  0  0  0
   15.2119    5.5458   -0.7569 H   0  0  0  0  0  0  0  0  0  0  0  0
   13.5100   -2.7159    1.0781 H   0  0  0  0  0  0  0  0  0  0  0  0
   12.0900   -2.2895    0.3223 H   0  0  0  0  0  0  0  0  0  0  0  0
    8.9421    0.1172    2.9878 H   0  0  0  0  0  0  0  0  0  0  0  0
    8.0529   -0.8261    1.7140 H   0  0  0  0  0  0  0  0  0  0  0  0
    7.5755    0.9048    2.0963 H   0  0  0  0  0  0  0  0  0  0  0  0
  1  2  1  0
  2  3  1  0
  3  4  1  0
  4  5  1  0
  5  6  1  0
  6  7  2  0
  6  8  1  0
  8  9  1  0
  9 10  1  0
 10 11  1  0
 11 12  1  0
 12 13  1  0
 13 14  2  0
 13 15  1  0
 15 16  1  0
 16 17  1  0
 17 18  2  0
 17 19  1  0
 19 20  1  0
 20 21  1  0
 21 22  2  0
 21 23  1  0
 23 24  1  0
 24 25  1  0
 25 26  2  0
 26 27  1  0
 27 28  2  0
 28 29  1  0
 29 30  2  0
 29 31  1  0
 31 32  1  0
 31 33  1  0
 31 34  1  0
 27 35  1  0
 35 36  1  0
 35 37  1  0
 35 38  1  0
 20 39  1  0
 39 40  1  0
 40 41  2  0
 41 42  1  0
 42 43  1  0
 43 44  2  0
 44 45  1  0
 45 46  2  0
 46 47  1  0
 47 48  2  0
 16 49  1  0
 49 50  1  0
 50 51  1  0
 50 52  1  0
  5 53  1  0
 53 54  1  0
 54 55  2  0
 54 56  1  0
 56 57  1  0
 57 58  1  0
 58 59  2  0
 59 60  1  0
 60 61  2  0
 61 62  1  0
 62 63  2  0
 56 64  1  0
 64 65  1  0
 65 66  2  0
 65 67  1  0
 67 68  1  0
 68 69  1  0
 69 70  2  0
 69 71  1  0
 71 72  1  0
 72 73  1  0
 73 74  2  0
 73 75  1  0
 75 76  1  0
 76 77  1  0
 77 78  2  0
 78 79  1  0
 79 80  2  0
 80 81  1  0
 81 82  2  0
 80 83  1  0
 75 84  1  0
 71 85  1  0
 12  8  1  0
 30 25  1  0
 44 40  1  0
 63 58  1  0
 82 77  1  0
 48 43  1  0
  1 86  1  0
  1 87  1  0
  1 88  1  0
  3 89  1  0
  3 90  1  0
  4 91  1  0
  4 92  1  0
  5 93  1  1
  9 94  1  0
  9 95  1  0
 10 96  1  0
 10 97  1  0
 11 98  1  0
 11 99  1  0
 12100  1  1
 15101  1  0
 16102  1  6
 19103  1  0
 20104  1  1
 23105  1  0
 24106  1  0
 24107  1  0
 26108  1  0
 28109  1  0
 30110  1  0
 39111  1  0
 39112  1  0
 41113  1  0
 42114  1  0
 45115  1  0
 46116  1  0
 47117  1  0
 48118  1  0
 49119  1  0
 49120  1  0
 50121  1  0
 51122  1  0
 51123  1  0
 51124  1  0
 52125  1  0
 52126  1  0
 52127  1  0
 53128  1  0
 56129  1  6
 57130  1  0
 57131  1  0
 59132  1  0
 60133  1  0
 61134  1  0
 62135  1  0
 63136  1  0
 64137  1  0
 67138  1  0
 67139  1  0
 68140  1  0
 71141  1  1
 72142  1  0
 75143  1  1
 76144  1  0
 76145  1  0
 78146  1  0
 79147  1  0
 81148  1  0
 82149  1  0
 83150  1  0
 84151  1  0
 84152  1  0
 85153  1  0
 85154  1  0
 85155  1  0
M  END
>  <Ligand ID>  (1) 
LIG0005379

>  <Ligand>  (1) 
CHEMBL507340

>  <SMILES>  (1) 
CSCC[C@@H](C(=O)N1CCC[C@H]1C(=O)N[C@H](C(=O)N[C@H](C(=O)NCc1cc(cc(c1)C(F)(F)F)C(F)(F)F)Cc1c[nH]c2c1cccc2)CC(C)C)NC(=O)[C@H](Cc1ccccc1)NC(=O)CNC(=O)[C@H](NC(=O)[C@H](Cc1ccc(cc1)O)N)C

>  <CID>  (1) 
25129133.0

>  <ChEMBL ID>  (1) 
nan

>  <InChiKey>  (1) 
UTXLSPLKQGPIPL-WXYSSXJFSA-N

>  <InChi>  (1) 
InChI=1S/C59H70F6N10O9S/c1-33(2)23-46(54(81)73-48(28-38-31-67-44-14-9-8-13-42(38)44)53(80)68-30-37-24-39(58(60,61)62)29-40(25-37)59(63,64)65)74-56(83)49-15-10-21-75(49)57(84)45(20-22-85-4)72-55(82)47(27-35-11-6-5-7-12-35)71-50(77)32-69-51(78)34(3)70-52(79)43(66)26-36-16-18-41(76)19-17-36/h5-9,11-14,16-19,24-25,29,31,33-34,43,45-49,67,76H,10,15,20-23,26-28,30,32,66H2,1-4H3,(H,68,80)(H,69,78)(H,70,79)(H,71,77)(H,72,82)(H,73,81)(H,74,83)/t34-,43+,45+,46+,47+,48+,49+/m1/s1

>  <IUPAC Name>  (1) 
(2S)-1-[(2S)-2-[[(2S)-2-[[2-[[(2R)-2-[[(2S)-2-amino-3-(4-hydroxyphenyl)propanoyl]amino]propanoyl]amino]acetyl]amino]-3-phenylpropanoyl]amino]-4-methylsulfanylbutanoyl]-N-[(2S)-1-[[(2S)-1-[[3,5-bis(trifluoromethyl)phenyl]methylamino]-3-(1H-indol-3-yl)-1-oxopropan-2-yl]amino]-4-methyl-1-oxopentan-2-yl]pyrrolidine-2-carboxamide

$$$$
