
     RDKit          3D

 51 54  0  0  0  0  0  0  0  0999 V2000
   -2.5778   -2.3851    1.4881 C   0  0  0  0  0  0  0  0  0  0  0  0
   -1.3905   -1.9182    0.7261 C   0  0  2  0  0  0  0  0  0  0  0  0
   -0.4223   -1.1277    1.5694 C   0  0  0  0  0  0  0  0  0  0  0  0
    0.8779   -1.0156    0.9471 N   0  0  0  0  0  0  0  0  0  0  0  0
    0.8083   -0.9847   -0.4631 C   0  0  0  0  0  0  0  0  0  0  0  0
   -0.5092   -0.2724   -0.8056 C   0  0  0  0  0  0  0  0  0  0  0  0
   -1.6896   -1.1836   -0.5355 C   0  0  2  0  0  0  0  0  0  0  0  0
   -2.9287   -0.4212   -0.5754 C   0  0  0  0  0  0  0  0  0  0  0  0
   -3.5644    0.1756    0.4835 C   0  0  0  0  0  0  0  0  0  0  0  0
   -4.7484    0.8847    0.3553 C   0  0  0  0  0  0  0  0  0  0  0  0
   -5.3518    1.0219   -0.8793 C   0  0  0  0  0  0  0  0  0  0  0  0
   -4.7320    0.4302   -1.9622 C   0  0  0  0  0  0  0  0  0  0  0  0
   -3.5539   -0.2727   -1.8210 C   0  0  0  0  0  0  0  0  0  0  0  0
   -2.9880   -0.8375   -2.9376 F   0  0  0  0  0  0  0  0  0  0  0  0
   -6.6138    1.7725   -1.0434 C   0  0  0  0  0  0  0  0  0  0  0  0
   -7.5094    1.2878   -0.1263 F   0  0  0  0  0  0  0  0  0  0  0  0
   -6.4513    3.1386   -0.8474 F   0  0  0  0  0  0  0  0  0  0  0  0
   -7.1007    1.5336   -2.3338 F   0  0  0  0  0  0  0  0  0  0  0  0
    1.8221   -0.2174    1.6163 C   0  0  0  0  0  0  0  0  0  0  0  0
    3.1319   -0.0405    0.9906 C   0  0  0  0  0  0  0  0  0  0  0  0
    4.1896   -0.8739    1.1335 N   0  0  0  0  0  0  0  0  0  0  0  0
    5.2325   -0.4240    0.4468 C   0  0  0  0  0  0  0  0  0  0  0  0
    4.8197    0.7445   -0.1576 C   0  0  0  0  0  0  0  0  0  0  0  0
    3.5367    0.9619    0.1857 N   0  0  0  0  0  0  0  0  0  0  0  0
    2.7918    2.1160   -0.2727 C   0  0  0  0  0  0  0  0  0  0  0  0
    5.7285    1.4313   -0.9480 C   0  0  0  0  0  0  0  0  0  0  0  0
    7.0133    0.9167   -1.0985 C   0  0  0  0  0  0  0  0  0  0  0  0
    7.3475   -0.2584   -0.4601 C   0  0  0  0  0  0  0  0  0  0  0  0
    6.4728   -0.9295    0.3071 N   0  0  0  0  0  0  0  0  0  0  0  0
   -2.5019   -3.4816    1.6261 H   0  0  0  0  0  0  0  0  0  0  0  0
   -3.4983   -2.2485    0.8847 H   0  0  0  0  0  0  0  0  0  0  0  0
   -2.6442   -1.9807    2.5174 H   0  0  0  0  0  0  0  0  0  0  0  0
   -0.8059   -2.8488    0.4382 H   0  0  0  0  0  0  0  0  0  0  0  0
   -0.3093   -1.5687    2.5863 H   0  0  0  0  0  0  0  0  0  0  0  0
   -0.8193   -0.1081    1.7259 H   0  0  0  0  0  0  0  0  0  0  0  0
    1.6037   -0.3949   -0.9561 H   0  0  0  0  0  0  0  0  0  0  0  0
    0.8507   -1.9782   -0.9551 H   0  0  0  0  0  0  0  0  0  0  0  0
   -0.4164   -0.0135   -1.8764 H   0  0  0  0  0  0  0  0  0  0  0  0
   -0.5479    0.6006   -0.1413 H   0  0  0  0  0  0  0  0  0  0  0  0
   -1.7056   -1.9675   -1.3651 H   0  0  0  0  0  0  0  0  0  0  0  0
   -3.1494    0.1033    1.4634 H   0  0  0  0  0  0  0  0  0  0  0  0
   -5.2379    1.3516    1.2088 H   0  0  0  0  0  0  0  0  0  0  0  0
   -5.1563    0.5018   -2.9600 H   0  0  0  0  0  0  0  0  0  0  0  0
    1.9295   -0.5848    2.6692 H   0  0  0  0  0  0  0  0  0  0  0  0
    1.3928    0.8239    1.7307 H   0  0  0  0  0  0  0  0  0  0  0  0
    3.4663    2.9969   -0.4211 H   0  0  0  0  0  0  0  0  0  0  0  0
    2.0312    2.4455    0.4501 H   0  0  0  0  0  0  0  0  0  0  0  0
    2.3549    1.8832   -1.2531 H   0  0  0  0  0  0  0  0  0  0  0  0
    5.4483    2.3568   -1.4444 H   0  0  0  0  0  0  0  0  0  0  0  0
    7.7027    1.4743   -1.7219 H   0  0  0  0  0  0  0  0  0  0  0  0
    8.3714   -0.6155   -0.6146 H   0  0  0  0  0  0  0  0  0  0  0  0
  1  2  1  0
  2  3  1  0
  3  4  1  0
  4  5  1  0
  5  6  1  0
  6  7  1  0
  7  8  1  0
  8  9  2  0
  9 10  1  0
 10 11  2  0
 11 12  1  0
 12 13  2  0
 13 14  1  0
 11 15  1  0
 15 16  1  0
 15 17  1  0
 15 18  1  0
  4 19  1  0
 19 20  1  0
 20 21  2  0
 21 22  1  0
 22 23  2  0
 23 24  1  0
 24 25  1  0
 23 26  1  0
 26 27  2  0
 27 28  1  0
 28 29  2  0
  7  2  1  0
 13  8  1  0
 24 20  1  0
 29 22  1  0
  1 30  1  0
  1 31  1  0
  1 32  1  0
  2 33  1  6
  3 34  1  0
  3 35  1  0
  5 36  1  0
  5 37  1  0
  6 38  1  0
  6 39  1  0
  7 40  1  6
  9 41  1  0
 10 42  1  0
 12 43  1  0
 19 44  1  0
 19 45  1  0
 25 46  1  0
 25 47  1  0
 25 48  1  0
 26 49  1  0
 27 50  1  0
 28 51  1  0
M  END
>  <Ligand ID>  (1) 
LIG0005261

>  <Ligand>  (1) 
CHEMBL1774234

>  <SMILES>  (1) 
C[C@@H]1CN(CC[C@@H]1c1ccc(cc1F)C(F)(F)F)Cc1nc2c(n1C)cccn2

>  <CID>  (1) 
51354017.0

>  <ChEMBL ID>  (1) 
nan

>  <InChiKey>  (1) 
FVYBXACUKLZYDM-HIFRSBDPSA-N

>  <InChi>  (1) 
InChI=1S/C21H22F4N4/c1-13-11-29(12-19-27-20-18(28(19)2)4-3-8-26-20)9-7-15(13)16-6-5-14(10-17(16)22)21(23,24)25/h3-6,8,10,13,15H,7,9,11-12H2,1-2H3/t13-,15+/m1/s1

>  <IUPAC Name>  (1) 
2-[[(3S,4S)-4-[2-fluoro-4-(trifluoromethyl)phenyl]-3-methylpiperidin-1-yl]methyl]-1-methylimidazo[4,5-b]pyridine

$$$$
