
     RDKit          3D

 55 56  0  0  0  0  0  0  0  0999 V2000
    6.0619    2.7123    1.7649 C   0  0  0  0  0  0  0  0  0  0  0  0
    6.6743    1.4991    1.1301 C   0  0  0  0  0  0  0  0  0  0  0  0
    5.6394    0.5918    0.5018 C   0  0  0  0  0  0  0  0  0  0  0  0
    4.6799    0.1279    1.5472 C   0  0  0  0  0  0  0  0  0  0  0  0
    3.6274   -0.7851    0.9542 C   0  0  0  0  0  0  0  0  0  0  0  0
    2.8432   -0.0880   -0.1042 C   0  0  1  0  0  0  0  0  0  0  0  0
    1.7926   -0.9608   -0.7130 C   0  0  0  0  0  0  0  0  0  0  0  0
    0.6103   -1.1434   -0.1201 C   0  0  0  0  0  0  0  0  0  0  0  0
   -0.4087   -2.0238   -0.7649 C   0  0  1  0  0  0  0  0  0  0  0  0
   -1.1571   -2.8883    0.1931 C   0  0  0  0  0  0  0  0  0  0  0  0
   -2.3493   -3.3394   -0.6512 C   0  0  0  0  0  0  0  0  0  0  0  0
   -2.6066   -2.1276   -1.4750 C   0  0  0  0  0  0  0  0  0  0  0  0
   -3.6755   -1.8281   -2.1067 O   0  0  0  0  0  0  0  0  0  0  0  0
   -1.4367   -1.3114   -1.4580 N   0  0  0  0  0  0  0  0  0  0  0  0
   -1.3461    0.0050   -2.0513 C   0  0  0  0  0  0  0  0  0  0  0  0
   -1.7256    1.0946   -1.0847 C   0  0  0  0  0  0  0  0  0  0  0  0
   -3.0831    1.0134   -0.5598 C   0  0  0  0  0  0  0  0  0  0  0  0
   -4.0979    1.6533   -1.2389 C   0  0  0  0  0  0  0  0  0  0  0  0
   -5.4079    1.6215   -0.8041 C   0  0  0  0  0  0  0  0  0  0  0  0
   -5.7503    0.9370    0.3434 C   0  0  0  0  0  0  0  0  0  0  0  0
   -4.7565    0.2881    1.0425 C   0  0  0  0  0  0  0  0  0  0  0  0
   -3.4483    0.3309    0.5913 C   0  0  0  0  0  0  0  0  0  0  0  0
   -7.1428    0.9229    0.7755 C   0  0  0  0  0  0  0  0  0  0  0  0
   -7.9814    1.5440    0.0728 O   0  0  0  0  0  0  0  0  0  0  0  0
   -7.5534    0.2594    1.9111 O   0  0  0  0  0  0  0  0  0  0  0  0
    2.3383    1.0937    0.4120 O   0  0  0  0  0  0  0  0  0  0  0  0
    5.7786    2.5215    2.8242 H   0  0  0  0  0  0  0  0  0  0  0  0
    6.8794    3.4901    1.8177 H   0  0  0  0  0  0  0  0  0  0  0  0
    5.2746    3.1694    1.1582 H   0  0  0  0  0  0  0  0  0  0  0  0
    7.4233    1.8306    0.3725 H   0  0  0  0  0  0  0  0  0  0  0  0
    7.2549    0.9655    1.9250 H   0  0  0  0  0  0  0  0  0  0  0  0
    6.1573   -0.2220   -0.0394 H   0  0  0  0  0  0  0  0  0  0  0  0
    5.1273    1.2347   -0.2710 H   0  0  0  0  0  0  0  0  0  0  0  0
    4.1119    1.0409    1.8808 H   0  0  0  0  0  0  0  0  0  0  0  0
    5.2347   -0.3363    2.3627 H   0  0  0  0  0  0  0  0  0  0  0  0
    4.2117   -1.6354    0.4943 H   0  0  0  0  0  0  0  0  0  0  0  0
    3.0043   -1.2618    1.7215 H   0  0  0  0  0  0  0  0  0  0  0  0
    3.5139    0.1871   -0.9438 H   0  0  0  0  0  0  0  0  0  0  0  0
    1.9464   -1.4843   -1.6646 H   0  0  0  0  0  0  0  0  0  0  0  0
    0.3812   -0.6620    0.8208 H   0  0  0  0  0  0  0  0  0  0  0  0
    0.0981   -2.7098   -1.5030 H   0  0  0  0  0  0  0  0  0  0  0  0
   -1.5711   -2.3106    1.0435 H   0  0  0  0  0  0  0  0  0  0  0  0
   -0.5847   -3.7779    0.5266 H   0  0  0  0  0  0  0  0  0  0  0  0
   -3.2211   -3.5903   -0.0220 H   0  0  0  0  0  0  0  0  0  0  0  0
   -2.0606   -4.1621   -1.3563 H   0  0  0  0  0  0  0  0  0  0  0  0
   -1.8806    0.0714   -3.0090 H   0  0  0  0  0  0  0  0  0  0  0  0
   -0.2731    0.1655   -2.2968 H   0  0  0  0  0  0  0  0  0  0  0  0
   -1.5045    2.0878   -1.5243 H   0  0  0  0  0  0  0  0  0  0  0  0
   -1.0254    1.0037   -0.2069 H   0  0  0  0  0  0  0  0  0  0  0  0
   -3.9019    2.2128   -2.1519 H   0  0  0  0  0  0  0  0  0  0  0  0
   -6.1755    2.1402   -1.3707 H   0  0  0  0  0  0  0  0  0  0  0  0
   -5.0329   -0.2418    1.9342 H   0  0  0  0  0  0  0  0  0  0  0  0
   -2.6779   -0.1837    1.1509 H   0  0  0  0  0  0  0  0  0  0  0  0
   -8.4721   -0.1583    1.9640 H   0  0  0  0  0  0  0  0  0  0  0  0
    1.6438    1.4161   -0.2178 H   0  0  0  0  0  0  0  0  0  0  0  0
  1  2  1  0
  2  3  1  0
  3  4  1  0
  4  5  1  0
  5  6  1  0
  6  7  1  0
  7  8  2  0
  8  9  1  0
  9 10  1  0
 10 11  1  0
 11 12  1  0
 12 13  2  0
 12 14  1  0
 14 15  1  0
 15 16  1  0
 16 17  1  0
 17 18  2  0
 18 19  1  0
 19 20  2  0
 20 21  1  0
 21 22  2  0
 20 23  1  0
 23 24  2  0
 23 25  1  0
  6 26  1  0
 14  9  1  0
 22 17  1  0
  1 27  1  0
  1 28  1  0
  1 29  1  0
  2 30  1  0
  2 31  1  0
  3 32  1  0
  3 33  1  0
  4 34  1  0
  4 35  1  0
  5 36  1  0
  5 37  1  0
  6 38  1  6
  7 39  1  0
  8 40  1  0
  9 41  1  6
 10 42  1  0
 10 43  1  0
 11 44  1  0
 11 45  1  0
 15 46  1  0
 15 47  1  0
 16 48  1  0
 16 49  1  0
 18 50  1  0
 19 51  1  0
 21 52  1  0
 22 53  1  0
 25 54  1  0
 26 55  1  0
M  END
>  <Ligand ID>  (1) 
LIG0001860

>  <Ligand>  (1) 
CHEMBL222715

>  <SMILES>  (1) 
CCCCC[C@@H](/C=C/[C@H]1CCC(=O)N1CCc1ccc(cc1)C(=O)O)O

>  <CID>  (1) 
10291963.0

>  <ChEMBL ID>  (1) 
nan

>  <InChiKey>  (1) 
JDFLTRXXHVSTHR-OCSRFSMESA-N

>  <InChi>  (1) 
InChI=1S/C21H29NO4/c1-2-3-4-5-19(23)12-10-18-11-13-20(24)22(18)15-14-16-6-8-17(9-7-16)21(25)26/h6-10,12,18-19,23H,2-5,11,13-15H2,1H3,(H,25,26)/b12-10+/t18-,19-/m0/s1

>  <IUPAC Name>  (1) 
4-[2-[(2R)-2-[(E,3S)-3-hydroxyoct-1-enyl]-5-oxopyrrolidin-1-yl]ethyl]benzoic acid

$$$$
