
     RDKit          3D

 43 45  0  0  0  0  0  0  0  0999 V2000
   -0.1374    3.6264   -1.9339 C   0  0  0  0  0  0  0  0  0  0  0  0
   -1.0385    2.7537   -1.1903 N   0  0  0  0  0  0  0  0  0  0  0  0
   -0.7441    1.3964   -0.9192 C   0  0  0  0  0  0  0  0  0  0  0  0
    0.4304    0.9182   -1.3826 N   0  0  0  0  0  0  0  0  0  0  0  0
    0.8049   -0.3606   -1.1779 C   0  0  0  0  0  0  0  0  0  0  0  0
    2.0915   -0.9130   -1.6766 C   0  0  0  0  0  0  0  0  0  0  0  0
    3.1821   -0.7501   -0.6863 C   0  0  0  0  0  0  0  0  0  0  0  0
    3.4669   -1.6970    0.2713 C   0  0  0  0  0  0  0  0  0  0  0  0
    4.5157   -1.4351    1.1493 C   0  0  0  0  0  0  0  0  0  0  0  0
    5.2365   -0.2591    1.0492 C   0  0  0  0  0  0  0  0  0  0  0  0
    4.9529    0.6992    0.0847 C   0  0  0  0  0  0  0  0  0  0  0  0
    3.9214    0.4322   -0.7721 C   0  0  0  0  0  0  0  0  0  0  0  0
   -0.0212   -1.1461   -0.5008 N   0  0  0  0  0  0  0  0  0  0  0  0
   -1.2215   -0.7517    0.0023 C   0  0  0  0  0  0  0  0  0  0  0  0
   -1.5929    0.5580   -0.2137 C   0  0  0  0  0  0  0  0  0  0  0  0
   -2.7990    1.2932    0.1859 C   0  0  0  0  0  0  0  0  0  0  0  0
   -3.8232    0.4249    0.8548 C   0  0  0  0  0  0  0  0  0  0  0  0
   -3.9899   -0.7284   -0.0123 N   0  0  0  0  0  0  0  0  0  0  0  0
   -3.3795   -1.8384    0.6678 C   0  0  0  0  0  0  0  0  0  0  0  0
   -1.9079   -1.8342    0.6995 C   0  0  2  0  0  0  0  0  0  0  0  0
   -1.4484   -1.8189    2.1530 C   0  0  0  0  0  0  0  0  0  0  0  0
    0.0262    4.5057   -1.2615 H   0  0  0  0  0  0  0  0  0  0  0  0
    0.8441    3.1626   -2.0973 H   0  0  0  0  0  0  0  0  0  0  0  0
   -0.5556    3.9704   -2.8923 H   0  0  0  0  0  0  0  0  0  0  0  0
   -1.9326    3.2121   -0.8670 H   0  0  0  0  0  0  0  0  0  0  0  0
    1.9620   -2.0191   -1.8183 H   0  0  0  0  0  0  0  0  0  0  0  0
    2.4141   -0.4904   -2.6289 H   0  0  0  0  0  0  0  0  0  0  0  0
    2.8882   -2.6097    0.3296 H   0  0  0  0  0  0  0  0  0  0  0  0
    4.7817   -2.1560    1.9282 H   0  0  0  0  0  0  0  0  0  0  0  0
    6.0535   -0.0471    1.7275 H   0  0  0  0  0  0  0  0  0  0  0  0
    5.5037    1.6224   -0.0091 H   0  0  0  0  0  0  0  0  0  0  0  0
    3.6977    1.1843   -1.5302 H   0  0  0  0  0  0  0  0  0  0  0  0
   -2.5428    2.1915    0.7906 H   0  0  0  0  0  0  0  0  0  0  0  0
   -3.2736    1.6737   -0.7466 H   0  0  0  0  0  0  0  0  0  0  0  0
   -4.7595    1.0088    0.9590 H   0  0  0  0  0  0  0  0  0  0  0  0
   -3.4464    0.1570    1.8676 H   0  0  0  0  0  0  0  0  0  0  0  0
   -4.9984   -0.9543   -0.1689 H   0  0  0  0  0  0  0  0  0  0  0  0
   -3.7498   -2.7501    0.1541 H   0  0  0  0  0  0  0  0  0  0  0  0
   -3.8227   -1.8810    1.6896 H   0  0  0  0  0  0  0  0  0  0  0  0
   -1.5003   -2.7979    0.2981 H   0  0  0  0  0  0  0  0  0  0  0  0
   -1.3479   -0.7991    2.5588 H   0  0  0  0  0  0  0  0  0  0  0  0
   -0.5076   -2.4285    2.2884 H   0  0  0  0  0  0  0  0  0  0  0  0
   -2.2328   -2.3248    2.7764 H   0  0  0  0  0  0  0  0  0  0  0  0
  1  2  1  0
  2  3  1  0
  3  4  2  0
  4  5  1  0
  5  6  1  0
  6  7  1  0
  7  8  2  0
  8  9  1  0
  9 10  2  0
 10 11  1  0
 11 12  2  0
  5 13  2  0
 13 14  1  0
 14 15  2  0
 15 16  1  0
 16 17  1  0
 17 18  1  0
 18 19  1  0
 19 20  1  0
 20 21  1  0
 15  3  1  0
 12  7  1  0
 20 14  1  0
  1 22  1  0
  1 23  1  0
  1 24  1  0
  2 25  1  0
  6 26  1  0
  6 27  1  0
  8 28  1  0
  9 29  1  0
 10 30  1  0
 11 31  1  0
 12 32  1  0
 16 33  1  0
 16 34  1  0
 17 35  1  0
 17 36  1  0
 18 37  1  0
 19 38  1  0
 19 39  1  0
 20 40  1  6
 21 41  1  0
 21 42  1  0
 21 43  1  0
M  END
>  <Ligand ID>  (1) 
LIG0005547

>  <Ligand>  (1) 
CHEMBL3286556

>  <SMILES>  (1) 
CNc1nc(Cc2ccccc2)nc2c1CCNC[C@@H]2C

>  <CID>  (1) 
90644511.0

>  <ChEMBL ID>  (1) 
nan

>  <InChiKey>  (1) 
IHHALLDEDARSAL-LBPRGKRZSA-N

>  <InChi>  (1) 
InChI=1S/C17H22N4/c1-12-11-19-9-8-14-16(12)20-15(21-17(14)18-2)10-13-6-4-3-5-7-13/h3-7,12,19H,8-11H2,1-2H3,(H,18,20,21)/t12-/m0/s1

>  <IUPAC Name>  (1) 
(9S)-2-benzyl-N,9-dimethyl-6,7,8,9-tetrahydro-5H-pyrimido[4,5-d]azepin-4-amine

$$$$
