
     RDKit          3D

153157  0  0  0  0  0  0  0  0999 V2000
   -8.9163    2.9515   -0.0203 C   0  0  0  0  0  0  0  0  0  0  0  0
   -9.6130    2.3332   -1.2283 C   0  0  0  0  0  0  0  0  0  0  0  0
  -10.2212    1.0234   -0.8967 C   0  0  0  0  0  0  0  0  0  0  0  0
   -9.4113   -0.0584   -0.3379 C   0  0  0  0  0  0  0  0  0  0  0  0
   -8.2929   -0.7066   -1.0338 C   0  0  1  0  0  0  0  0  0  0  0  0
   -7.1652    0.1475   -1.3923 C   0  0  0  0  0  0  0  0  0  0  0  0
   -7.1407    1.0048   -2.3032 O   0  0  0  0  0  0  0  0  0  0  0  0
   -5.9257    0.0319   -0.6513 N   0  0  0  0  0  0  0  0  0  0  0  0
   -4.8341    0.9333   -1.1033 C   0  0  1  0  0  0  0  0  0  0  0  0
   -4.8897    2.0353   -0.0400 C   0  0  0  0  0  0  0  0  0  0  0  0
   -3.8467    3.0500   -0.2235 C   0  0  0  0  0  0  0  0  0  0  0  0
   -2.9937    3.0892   -1.1176 O   0  0  0  0  0  0  0  0  0  0  0  0
   -3.7405    4.1548    0.7129 N   0  0  0  0  0  0  0  0  0  0  0  0
   -2.6538    5.1470    0.5665 C   0  0  0  0  0  0  0  0  0  0  0  0
   -1.3985    4.3705    0.8028 C   0  0  0  0  0  0  0  0  0  0  0  0
   -0.1537    5.1844    0.6807 C   0  0  0  0  0  0  0  0  0  0  0  0
   -0.0645    5.7612   -0.7101 C   0  0  0  0  0  0  0  0  0  0  0  0
    1.4112    6.2291   -0.9435 C   0  0  2  0  0  0  0  0  0  0  0  0
    2.1848    4.9784   -0.7512 N   0  0  0  0  0  0  0  0  0  0  0  0
    2.4253    4.1021   -1.8662 C   0  0  0  0  0  0  0  0  0  0  0  0
    2.0689    4.5711   -2.9636 O   0  0  0  0  0  0  0  0  0  0  0  0
    3.0200    2.7881   -1.7944 C   0  0  2  0  0  0  0  0  0  0  0  0
    1.8817    1.7967   -2.2239 C   0  0  0  0  0  0  0  0  0  0  0  0
    3.4318    2.3574   -0.4459 N   0  0  0  0  0  0  0  0  0  0  0  0
    3.6605    0.9710   -0.1859 C   0  0  0  0  0  0  0  0  0  0  0  0
    3.4192    0.2197   -1.1496 O   0  0  0  0  0  0  0  0  0  0  0  0
    4.1196    0.3980    1.0680 C   0  0  1  0  0  0  0  0  0  0  0  0
    3.7869   -1.0183    1.1705 N   0  0  0  0  0  0  0  0  0  0  0  0
    3.9702   -1.8414    2.3072 C   0  0  0  0  0  0  0  0  0  0  0  0
    4.5928   -1.3127    3.2445 O   0  0  0  0  0  0  0  0  0  0  0  0
    3.4642   -3.2370    2.3481 C   0  0  1  0  0  0  0  0  0  0  0  0
    2.2836   -3.3628    1.5134 N   0  0  0  0  0  0  0  0  0  0  0  0
    1.2543   -4.3445    1.8443 C   0  0  0  0  0  0  0  0  0  0  0  0
    1.5720   -5.0917    2.7720 O   0  0  0  0  0  0  0  0  0  0  0  0
   -0.0292   -4.4430    1.1347 C   0  0  1  0  0  0  0  0  0  0  0  0
   -0.3017   -3.2601    0.3359 N   0  0  0  0  0  0  0  0  0  0  0  0
   -1.6041   -2.5993    0.4101 C   0  0  0  0  0  0  0  0  0  0  0  0
   -2.4177   -3.2437    1.0941 O   0  0  0  0  0  0  0  0  0  0  0  0
   -1.8116   -1.3473   -0.2768 C   0  0  1  0  0  0  0  0  0  0  0  0
   -3.1644   -0.7972   -0.1756 N   0  0  0  0  0  0  0  0  0  0  0  0
   -3.5205    0.2989   -1.0268 C   0  0  0  0  0  0  0  0  0  0  0  0
   -2.5716    0.7048   -1.7329 O   0  0  0  0  0  0  0  0  0  0  0  0
   -0.8358   -0.3345    0.3570 C   0  0  0  0  0  0  0  0  0  0  0  0
   -1.0570   -0.0689    1.7742 C   0  0  0  0  0  0  0  0  0  0  0  0
   -0.1941    0.7868    2.4827 C   0  0  0  0  0  0  0  0  0  0  0  0
   -0.5913    0.8552    3.7554 N   0  0  0  0  0  0  0  0  0  0  0  0
   -1.6763    0.0796    3.9010 C   0  0  0  0  0  0  0  0  0  0  0  0
   -1.9356   -0.4693    2.6777 N   0  0  0  0  0  0  0  0  0  0  0  0
   -0.2536   -5.7226    0.3966 C   0  0  0  0  0  0  0  0  0  0  0  0
    0.6703   -6.0769   -0.6587 C   0  0  0  0  0  0  0  0  0  0  0  0
    0.3738   -5.6533   -1.9600 C   0  0  0  0  0  0  0  0  0  0  0  0
    1.2255   -5.9745   -3.0199 C   0  0  0  0  0  0  0  0  0  0  0  0
    2.3725   -6.7128   -2.8089 C   0  0  0  0  0  0  0  0  0  0  0  0
    2.6187   -7.1069   -1.5053 C   0  0  0  0  0  0  0  0  0  0  0  0
    1.8142   -6.8141   -0.4457 C   0  0  0  0  0  0  0  0  0  0  0  0
    4.5690   -4.1741    1.7945 C   0  0  0  0  0  0  0  0  0  0  0  0
    4.9214   -3.7932    0.3938 C   0  0  0  0  0  0  0  0  0  0  0  0
    6.0067   -4.7536   -0.0896 C   0  0  0  0  0  0  0  0  0  0  0  0
    6.4161   -4.4431   -1.4294 N   0  0  0  0  0  0  0  0  0  0  0  0
    6.3556   -5.3060   -2.3775 C   0  0  0  0  0  0  0  0  0  0  0  0
    6.7879   -4.8964   -3.6723 N   0  0  0  0  0  0  0  0  0  0  0  0
    5.8933   -6.6332   -2.2409 N   0  0  0  0  0  0  0  0  0  0  0  0
    5.6887    0.3185    0.8682 C   0  0  0  0  0  0  0  0  0  0  0  0
    6.1170    1.7067    0.6157 C   0  0  0  0  0  0  0  0  0  0  0  0
    6.5251    2.1511   -0.6327 C   0  0  0  0  0  0  0  0  0  0  0  0
    6.8772    3.4397   -0.5858 N   0  0  0  0  0  0  0  0  0  0  0  0
    6.7062    3.8499    0.6786 C   0  0  0  0  0  0  0  0  0  0  0  0
    6.2349    2.7860    1.4397 C   0  0  0  0  0  0  0  0  0  0  0  0
    5.9699    2.9403    2.7828 C   0  0  0  0  0  0  0  0  0  0  0  0
    6.1920    4.1882    3.3289 C   0  0  0  0  0  0  0  0  0  0  0  0
    6.6582    5.2372    2.5716 C   0  0  0  0  0  0  0  0  0  0  0  0
    6.9316    5.1037    1.2196 C   0  0  0  0  0  0  0  0  0  0  0  0
    1.7897    7.3146   -0.0836 C   0  0  0  0  0  0  0  0  0  0  0  0
    2.7185    7.1890    0.7834 O   0  0  0  0  0  0  0  0  0  0  0  0
    1.1234    8.5698   -0.1879 N   0  0  0  0  0  0  0  0  0  0  0  0
   -7.7976   -1.8226   -0.1603 N   0  0  0  0  0  0  0  0  0  0  0  0
   -7.8605   -3.1496   -0.6893 C   0  0  0  0  0  0  0  0  0  0  0  0
   -8.3056   -3.4121   -1.8338 O   0  0  0  0  0  0  0  0  0  0  0  0
   -7.3882   -4.3306    0.1119 C   0  0  0  0  0  0  0  0  0  0  0  0
   -9.6599    3.2852    0.7370 H   0  0  0  0  0  0  0  0  0  0  0  0
   -8.3383    3.8377   -0.3522 H   0  0  0  0  0  0  0  0  0  0  0  0
   -8.2413    2.2100    0.4496 H   0  0  0  0  0  0  0  0  0  0  0  0
  -10.5243    3.0789   -1.3641 H   0  0  0  0  0  0  0  0  0  0  0  0
   -9.1115    2.4658   -2.1727 H   0  0  0  0  0  0  0  0  0  0  0  0
  -11.1698    1.1981   -0.2823 H   0  0  0  0  0  0  0  0  0  0  0  0
  -10.6861    0.6043   -1.8622 H   0  0  0  0  0  0  0  0  0  0  0  0
   -9.0308    0.3543    0.6854 H   0  0  0  0  0  0  0  0  0  0  0  0
  -10.1374   -0.8568    0.0859 H   0  0  0  0  0  0  0  0  0  0  0  0
   -8.6322   -1.2452   -1.9675 H   0  0  0  0  0  0  0  0  0  0  0  0
   -5.8063   -0.6207    0.1289 H   0  0  0  0  0  0  0  0  0  0  0  0
   -5.0478    1.3671   -2.0912 H   0  0  0  0  0  0  0  0  0  0  0  0
   -4.7063    1.5003    0.9235 H   0  0  0  0  0  0  0  0  0  0  0  0
   -5.9167    2.4814   -0.0024 H   0  0  0  0  0  0  0  0  0  0  0  0
   -4.4490    4.1739    1.4308 H   0  0  0  0  0  0  0  0  0  0  0  0
   -2.6716    5.6048   -0.4230 H   0  0  0  0  0  0  0  0  0  0  0  0
   -2.7300    5.9305    1.3123 H   0  0  0  0  0  0  0  0  0  0  0  0
   -1.4699    4.0119    1.8727 H   0  0  0  0  0  0  0  0  0  0  0  0
   -1.2560    3.4897    0.1355 H   0  0  0  0  0  0  0  0  0  0  0  0
   -0.2481    6.0245    1.4176 H   0  0  0  0  0  0  0  0  0  0  0  0
    0.7341    4.5554    0.9333 H   0  0  0  0  0  0  0  0  0  0  0  0
   -0.2650    5.0266   -1.4963 H   0  0  0  0  0  0  0  0  0  0  0  0
   -0.6555    6.6905   -0.7680 H   0  0  0  0  0  0  0  0  0  0  0  0
    1.4221    6.4559   -2.0139 H   0  0  0  0  0  0  0  0  0  0  0  0
    2.5794    4.6825    0.1283 H   0  0  0  0  0  0  0  0  0  0  0  0
    3.8166    2.5135   -2.4734 H   0  0  0  0  0  0  0  0  0  0  0  0
    1.1430    2.4258   -2.7486 H   0  0  0  0  0  0  0  0  0  0  0  0
    1.4136    1.3714   -1.3328 H   0  0  0  0  0  0  0  0  0  0  0  0
    2.2623    1.0843   -2.9654 H   0  0  0  0  0  0  0  0  0  0  0  0
    3.5744    2.9728    0.3447 H   0  0  0  0  0  0  0  0  0  0  0  0
    3.9850    0.9897    1.9479 H   0  0  0  0  0  0  0  0  0  0  0  0
    3.3998   -1.4609    0.3404 H   0  0  0  0  0  0  0  0  0  0  0  0
    3.3551   -3.5783    3.3738 H   0  0  0  0  0  0  0  0  0  0  0  0
    2.0652   -2.8343    0.6776 H   0  0  0  0  0  0  0  0  0  0  0  0
   -0.8260   -4.4508    1.9242 H   0  0  0  0  0  0  0  0  0  0  0  0
    0.3363   -2.8165   -0.3159 H   0  0  0  0  0  0  0  0  0  0  0  0
   -1.4529   -1.4001   -1.3343 H   0  0  0  0  0  0  0  0  0  0  0  0
   -3.8892   -1.1195    0.4505 H   0  0  0  0  0  0  0  0  0  0  0  0
    0.1705   -0.8490    0.2703 H   0  0  0  0  0  0  0  0  0  0  0  0
   -0.7641    0.5822   -0.2638 H   0  0  0  0  0  0  0  0  0  0  0  0
    0.6638    1.3247    2.1090 H   0  0  0  0  0  0  0  0  0  0  0  0
   -2.2376   -0.0724    4.8259 H   0  0  0  0  0  0  0  0  0  0  0  0
   -2.7256   -1.0931    2.5322 H   0  0  0  0  0  0  0  0  0  0  0  0
   -1.3395   -5.7579    0.1255 H   0  0  0  0  0  0  0  0  0  0  0  0
   -0.1525   -6.5329    1.1855 H   0  0  0  0  0  0  0  0  0  0  0  0
   -0.5145   -5.0723   -2.1694 H   0  0  0  0  0  0  0  0  0  0  0  0
    0.9304   -5.6141   -4.0097 H   0  0  0  0  0  0  0  0  0  0  0  0
    3.0209   -6.9546   -3.6386 H   0  0  0  0  0  0  0  0  0  0  0  0
    3.5141   -7.6948   -1.2977 H   0  0  0  0  0  0  0  0  0  0  0  0
    2.0337   -7.1379    0.5819 H   0  0  0  0  0  0  0  0  0  0  0  0
    4.1225   -5.1750    1.7983 H   0  0  0  0  0  0  0  0  0  0  0  0
    5.4147   -4.0598    2.4664 H   0  0  0  0  0  0  0  0  0  0  0  0
    4.0939   -3.7964   -0.3154 H   0  0  0  0  0  0  0  0  0  0  0  0
    5.4334   -2.7882    0.3921 H   0  0  0  0  0  0  0  0  0  0  0  0
    6.8444   -4.7280    0.6254 H   0  0  0  0  0  0  0  0  0  0  0  0
    5.5753   -5.7934   -0.0282 H   0  0  0  0  0  0  0  0  0  0  0  0
    6.0788   -4.4935   -4.3501 H   0  0  0  0  0  0  0  0  0  0  0  0
    7.7875   -5.0026   -3.9272 H   0  0  0  0  0  0  0  0  0  0  0  0
    6.0377   -7.2508   -1.4265 H   0  0  0  0  0  0  0  0  0  0  0  0
    5.3456   -7.0558   -3.0401 H   0  0  0  0  0  0  0  0  0  0  0  0
    6.0848   -0.1257    1.7820 H   0  0  0  0  0  0  0  0  0  0  0  0
    5.8191   -0.3094   -0.0334 H   0  0  0  0  0  0  0  0  0  0  0  0
    6.5630    1.5447   -1.5381 H   0  0  0  0  0  0  0  0  0  0  0  0
    7.2218    3.9877   -1.4135 H   0  0  0  0  0  0  0  0  0  0  0  0
    5.6031    2.0920    3.3371 H   0  0  0  0  0  0  0  0  0  0  0  0
    5.9987    4.3619    4.3702 H   0  0  0  0  0  0  0  0  0  0  0  0
    6.8415    6.2311    2.9829 H   0  0  0  0  0  0  0  0  0  0  0  0
    7.2960    5.9133    0.6082 H   0  0  0  0  0  0  0  0  0  0  0  0
    0.0930    8.6131    0.0048 H   0  0  0  0  0  0  0  0  0  0  0  0
    1.6447    9.4423   -0.4545 H   0  0  0  0  0  0  0  0  0  0  0  0
   -7.4328   -1.6310    0.7824 H   0  0  0  0  0  0  0  0  0  0  0  0
   -8.0551   -5.2238   -0.0546 H   0  0  0  0  0  0  0  0  0  0  0  0
   -7.2860   -4.1040    1.1824 H   0  0  0  0  0  0  0  0  0  0  0  0
   -6.4163   -4.6179   -0.2983 H   0  0  0  0  0  0  0  0  0  0  0  0
  1  2  1  0
  2  3  1  0
  3  4  1  0
  4  5  1  0
  5  6  1  0
  6  7  2  0
  6  8  1  0
  8  9  1  0
  9 10  1  0
 10 11  1  0
 11 12  2  0
 11 13  1  0
 13 14  1  0
 14 15  1  0
 15 16  1  0
 16 17  1  0
 17 18  1  0
 18 19  1  0
 19 20  1  0
 20 21  2  0
 20 22  1  0
 22 23  1  0
 22 24  1  0
 24 25  1  0
 25 26  2  0
 25 27  1  0
 27 28  1  0
 28 29  1  0
 29 30  2  0
 29 31  1  0
 31 32  1  0
 32 33  1  0
 33 34  2  0
 33 35  1  0
 35 36  1  0
 36 37  1  0
 37 38  2  0
 37 39  1  0
 39 40  1  0
 40 41  1  0
 41 42  2  0
 39 43  1  0
 43 44  1  0
 44 45  2  0
 45 46  1  0
 46 47  2  0
 47 48  1  0
 35 49  1  0
 49 50  1  0
 50 51  2  0
 51 52  1  0
 52 53  2  0
 53 54  1  0
 54 55  2  0
 31 56  1  0
 56 57  1  0
 57 58  1  0
 58 59  1  0
 59 60  2  3
 60 61  1  0
 60 62  1  0
 27 63  1  0
 63 64  1  0
 64 65  2  0
 65 66  1  0
 66 67  1  0
 67 68  2  0
 68 69  1  0
 69 70  2  0
 70 71  1  0
 71 72  2  0
 18 73  1  0
 73 74  2  0
 73 75  1  0
  5 76  1  0
 76 77  1  0
 77 78  2  0
 77 79  1  0
 41  9  1  0
 48 44  1  0
 55 50  1  0
 68 64  1  0
 72 67  1  0
  1 80  1  0
  1 81  1  0
  1 82  1  0
  2 83  1  0
  2 84  1  0
  3 85  1  0
  3 86  1  0
  4 87  1  0
  4 88  1  0
  5 89  1  6
  8 90  1  0
  9 91  1  6
 10 92  1  0
 10 93  1  0
 13 94  1  0
 14 95  1  0
 14 96  1  0
 15 97  1  0
 15 98  1  0
 16 99  1  0
 16100  1  0
 17101  1  0
 17102  1  0
 18103  1  6
 19104  1  0
 22105  1  6
 23106  1  0
 23107  1  0
 23108  1  0
 24109  1  0
 27110  1  1
 28111  1  0
 31112  1  1
 32113  1  0
 35114  1  1
 36115  1  0
 39116  1  6
 40117  1  0
 43118  1  0
 43119  1  0
 45120  1  0
 47121  1  0
 48122  1  0
 49123  1  0
 49124  1  0
 51125  1  0
 52126  1  0
 53127  1  0
 54128  1  0
 55129  1  0
 56130  1  0
 56131  1  0
 57132  1  0
 57133  1  0
 58134  1  0
 58135  1  0
 61136  1  0
 61137  1  0
 62138  1  0
 62139  1  0
 63140  1  0
 63141  1  0
 65142  1  0
 66143  1  0
 69144  1  0
 70145  1  0
 71146  1  0
 72147  1  0
 75148  1  0
 75149  1  0
 76150  1  0
 79151  1  0
 79152  1  0
 79153  1  0
M  END
>  <Ligand ID>  (1) 
LIG0001767

>  <Ligand>  (1) 
CHEMBL217584

>  <SMILES>  (1) 
CCCC[C@@H](C(=O)N[C@H]1CC(=O)NCCCC[C@H](NC(=O)[C@H](C)NC(=O)[C@@H](NC(=O)[C@@H](NC(=O)[C@@H](NC(=O)[C@@H](NC1=O)Cc1cnc[nH]1)Cc1ccccc1)CCCN=C(N)N)Cc1c[nH]c2c1cccc2)C(=O)N)NC(=O)C

>  <CID>  (1) 
10463896.0

>  <ChEMBL ID>  (1) 
nan

>  <InChiKey>  (1) 
WZIILWAZGXRRFZ-OBNAOPLASA-N

>  <InChi>  (1) 
InChI=1S/C53H74N16O10/c1-4-5-17-38(63-31(3)70)47(74)69-43-26-44(71)58-21-12-11-19-37(45(54)72)64-46(73)30(2)62-49(76)41(24-33-27-60-36-18-10-9-16-35(33)36)67-48(75)39(20-13-22-59-53(55)56)65-50(77)40(23-32-14-7-6-8-15-32)66-51(78)42(68-52(43)79)25-34-28-57-29-61-34/h6-10,14-16,18,27-30,37-43,60H,4-5,11-13,17,19-26H2,1-3H3,(H2,54,72)(H,57,61)(H,58,71)(H,62,76)(H,63,70)(H,64,73)(H,65,77)(H,66,78)(H,67,75)(H,68,79)(H,69,74)(H4,55,56,59)/t30-,37-,38-,39-,40-,41-,42-,43-/m0/s1

>  <IUPAC Name>  (1) 
(3S,6S,9S,12S,15S,18S,26S)-18-[[(2S)-2-acetamidohexanoyl]amino]-12-benzyl-9-[3-(diaminomethylideneamino)propyl]-15-(1H-imidazol-5-ylmethyl)-6-(1H-indol-3-ylmethyl)-3-methyl-2,5,8,11,14,17,20-heptaoxo-1,4,7,10,13,16,21-heptazacyclohexacosane-26-carboxamide

$$$$
