
     RDKit          3D

 56 58  0  0  0  0  0  0  0  0999 V2000
    5.4583   -0.9264    1.1818 C   0  0  0  0  0  0  0  0  0  0  0  0
    4.8287   -0.7354   -0.0799 N   0  0  0  0  0  0  0  0  0  0  0  0
    4.1331    0.5523   -0.1960 C   0  0  0  0  0  0  0  0  0  0  0  0
    3.3081    0.4474   -1.4485 C   0  0  0  0  0  0  0  0  0  0  0  0
    2.1114   -0.4123   -1.1855 N   0  0  0  0  0  0  0  0  0  0  0  0
    2.4950   -1.3752   -0.1563 C   0  0  0  0  0  0  0  0  0  0  0  0
    3.9475   -1.7971   -0.4633 C   0  0  0  0  0  0  0  0  0  0  0  0
    1.0484    0.4711   -0.7859 C   0  0  0  0  0  0  0  0  0  0  0  0
   -0.3499    0.0889   -0.9173 C   0  0  1  0  0  0  0  0  0  0  0  0
   -0.9924   -1.0550   -0.2794 C   0  0  0  0  0  0  0  0  0  0  0  0
   -0.5180   -2.3132   -0.6180 O   0  0  0  0  0  0  0  0  0  0  0  0
   -1.0474   -1.0502    1.2386 C   0  0  0  0  0  0  0  0  0  0  0  0
   -1.5047   -2.4567    1.6435 C   0  0  0  0  0  0  0  0  0  0  0  0
   -2.5279   -3.0083    0.7139 C   0  0  0  0  0  0  0  0  0  0  0  0
   -3.3231   -1.9211    0.0769 C   0  0  0  0  0  0  0  0  0  0  0  0
   -2.4583   -1.0727   -0.7861 C   0  0  0  0  0  0  0  0  0  0  0  0
   -1.2305    1.3412   -0.8547 C   0  0  0  0  0  0  0  0  0  0  0  0
   -1.8941    1.7801   -1.9922 C   0  0  0  0  0  0  0  0  0  0  0  0
   -2.6863    2.9375   -1.9107 C   0  0  0  0  0  0  0  0  0  0  0  0
   -2.8065    3.6306   -0.7236 C   0  0  0  0  0  0  0  0  0  0  0  0
   -2.1443    3.1894    0.4055 C   0  0  0  0  0  0  0  0  0  0  0  0
   -1.3574    2.0411    0.3260 C   0  0  0  0  0  0  0  0  0  0  0  0
   -2.2708    3.8941    1.6071 O   0  0  0  0  0  0  0  0  0  0  0  0
   -3.2927    3.5959    2.5395 C   0  0  0  0  0  0  0  0  0  0  0  0
   -3.2055    4.4282    3.6478 F   0  0  0  0  0  0  0  0  0  0  0  0
   -4.5554    3.7120    2.0038 F   0  0  0  0  0  0  0  0  0  0  0  0
   -3.1122    2.2828    2.9483 F   0  0  0  0  0  0  0  0  0  0  0  0
    6.5603   -0.8273    1.0205 H   0  0  0  0  0  0  0  0  0  0  0  0
    5.1665   -0.1146    1.8884 H   0  0  0  0  0  0  0  0  0  0  0  0
    5.2714   -1.9364    1.5849 H   0  0  0  0  0  0  0  0  0  0  0  0
    3.5140    0.7640    0.6772 H   0  0  0  0  0  0  0  0  0  0  0  0
    4.9317    1.3035   -0.4017 H   0  0  0  0  0  0  0  0  0  0  0  0
    2.9730    1.4129   -1.8256 H   0  0  0  0  0  0  0  0  0  0  0  0
    3.8531   -0.0600   -2.2650 H   0  0  0  0  0  0  0  0  0  0  0  0
    1.9313   -2.2974   -0.3180 H   0  0  0  0  0  0  0  0  0  0  0  0
    2.4103   -0.9445    0.8613 H   0  0  0  0  0  0  0  0  0  0  0  0
    4.1885   -2.7821   -0.0022 H   0  0  0  0  0  0  0  0  0  0  0  0
    3.9963   -1.9300   -1.5603 H   0  0  0  0  0  0  0  0  0  0  0  0
    1.2002    1.3853   -1.4577 H   0  0  0  0  0  0  0  0  0  0  0  0
    1.2935    0.9376    0.2249 H   0  0  0  0  0  0  0  0  0  0  0  0
   -0.4676   -0.1514   -2.0596 H   0  0  0  0  0  0  0  0  0  0  0  0
   -0.4298   -2.3217   -1.6009 H   0  0  0  0  0  0  0  0  0  0  0  0
   -0.0153   -0.9573    1.6113 H   0  0  0  0  0  0  0  0  0  0  0  0
   -1.7797   -0.3509    1.6349 H   0  0  0  0  0  0  0  0  0  0  0  0
   -1.9278   -2.4003    2.6895 H   0  0  0  0  0  0  0  0  0  0  0  0
   -0.6627   -3.1733    1.7034 H   0  0  0  0  0  0  0  0  0  0  0  0
   -2.1569   -3.7847    0.0035 H   0  0  0  0  0  0  0  0  0  0  0  0
   -3.2702   -3.5924    1.3470 H   0  0  0  0  0  0  0  0  0  0  0  0
   -4.0990   -2.4239   -0.5641 H   0  0  0  0  0  0  0  0  0  0  0  0
   -3.8468   -1.3545    0.8762 H   0  0  0  0  0  0  0  0  0  0  0  0
   -2.4652   -1.4690   -1.8179 H   0  0  0  0  0  0  0  0  0  0  0  0
   -2.8952   -0.0507   -0.7661 H   0  0  0  0  0  0  0  0  0  0  0  0
   -1.8345    1.2737   -2.9458 H   0  0  0  0  0  0  0  0  0  0  0  0
   -3.2017    3.2851   -2.7816 H   0  0  0  0  0  0  0  0  0  0  0  0
   -3.4306    4.5321   -0.6834 H   0  0  0  0  0  0  0  0  0  0  0  0
   -0.8603    1.7592    1.2407 H   0  0  0  0  0  0  0  0  0  0  0  0
  1  2  1  0
  2  3  1  0
  3  4  1  0
  4  5  1  0
  5  6  1  0
  6  7  1  0
  5  8  1  0
  8  9  1  0
  9 10  1  0
 10 11  1  0
 10 12  1  0
 12 13  1  0
 13 14  1  0
 14 15  1  0
 15 16  1  0
  9 17  1  0
 17 18  2  0
 18 19  1  0
 19 20  2  0
 20 21  1  0
 21 22  2  0
 21 23  1  0
 23 24  1  0
 24 25  1  0
 24 26  1  0
 24 27  1  0
  7  2  1  0
 16 10  1  0
 22 17  1  0
  1 28  1  0
  1 29  1  0
  1 30  1  0
  3 31  1  0
  3 32  1  0
  4 33  1  0
  4 34  1  0
  6 35  1  0
  6 36  1  0
  7 37  1  0
  7 38  1  0
  8 39  1  0
  8 40  1  0
  9 41  1  6
 11 42  1  0
 12 43  1  0
 12 44  1  0
 13 45  1  0
 13 46  1  0
 14 47  1  0
 14 48  1  0
 15 49  1  0
 15 50  1  0
 16 51  1  0
 16 52  1  0
 18 53  1  0
 19 54  1  0
 20 55  1  0
 22 56  1  0
M  END
>  <Ligand ID>  (1) 
LIG0000709

>  <Ligand>  (1) 
CHEMBL469668

>  <SMILES>  (1) 
CN1CCN(CC1)C[C@@H](C1(O)CCCCC1)c1cccc(c1)OC(F)(F)F

>  <CID>  (1) 
11574574.0

>  <ChEMBL ID>  (1) 
nan

>  <InChiKey>  (1) 
AKRIZMRTOCYSRB-GOSISDBHSA-N

>  <InChi>  (1) 
InChI=1S/C20H29F3N2O2/c1-24-10-12-25(13-11-24)15-18(19(26)8-3-2-4-9-19)16-6-5-7-17(14-16)27-20(21,22)23/h5-7,14,18,26H,2-4,8-13,15H2,1H3/t18-/m1/s1

>  <IUPAC Name>  (1) 
1-[(1S)-2-(4-methylpiperazin-1-yl)-1-[3-(trifluoromethoxy)phenyl]ethyl]cyclohexan-1-ol

$$$$
