
     RDKit          3D

193200  0  0  0  0  0  0  0  0999 V2000
   -7.0159   -6.8316   -3.2784 N   0  0  0  0  0  0  0  0  0  0  0  0
   -7.2445   -6.5743   -1.8532 C   0  0  0  0  0  0  0  0  0  0  0  0
   -7.3401   -5.0610   -1.7211 C   0  0  0  0  0  0  0  0  0  0  0  0
   -7.5731   -4.6566   -0.2840 C   0  0  0  0  0  0  0  0  0  0  0  0
   -7.6960   -3.1720   -0.2090 C   0  0  0  0  0  0  0  0  0  0  0  0
   -6.4864   -2.4649   -0.6886 C   0  0  2  0  0  0  0  0  0  0  0  0
   -5.2656   -2.7334    0.0212 N   0  0  0  0  0  0  0  0  0  0  0  0
   -3.9922   -2.8197   -0.6655 C   0  0  0  0  0  0  0  0  0  0  0  0
   -4.0696   -2.6646   -1.8938 O   0  0  0  0  0  0  0  0  0  0  0  0
   -2.6974   -3.0505   -0.0434 C   0  0  1  0  0  0  0  0  0  0  0  0
   -2.5027   -4.1726    0.8807 C   0  0  0  0  0  0  0  0  0  0  0  0
   -2.6841   -5.5438    0.4835 C   0  0  0  0  0  0  0  0  0  0  0  0
   -1.5859   -6.2445   -0.0352 C   0  0  0  0  0  0  0  0  0  0  0  0
   -1.6969   -7.5620   -0.4219 C   0  0  0  0  0  0  0  0  0  0  0  0
   -2.8776   -8.2655   -0.3243 C   0  0  0  0  0  0  0  0  0  0  0  0
   -3.9594   -7.5824    0.1862 C   0  0  0  0  0  0  0  0  0  0  0  0
   -3.8597   -6.2737    0.5727 C   0  0  0  0  0  0  0  0  0  0  0  0
   -1.6210   -2.9122   -1.0430 N   0  0  0  0  0  0  0  0  0  0  0  0
   -0.3365   -2.4110   -0.7069 C   0  0  0  0  0  0  0  0  0  0  0  0
   -0.1212   -2.2549    0.5070 O   0  0  0  0  0  0  0  0  0  0  0  0
    0.7406   -2.0769   -1.6560 C   0  0  2  0  0  0  0  0  0  0  0  0
    0.8686   -2.8771   -2.8854 C   0  0  0  0  0  0  0  0  0  0  0  0
    1.1112   -4.3082   -2.7841 C   0  0  0  0  0  0  0  0  0  0  0  0
    2.3651   -4.8468   -2.7136 N   0  0  0  0  0  0  0  0  0  0  0  0
    2.2912   -6.1877   -2.6530 C   0  0  0  0  0  0  0  0  0  0  0  0
    1.0103   -6.5429   -2.6823 N   0  0  0  0  0  0  0  0  0  0  0  0
    0.2703   -5.4001   -2.7634 C   0  0  0  0  0  0  0  0  0  0  0  0
    1.9496   -1.9532   -0.8670 N   0  0  0  0  0  0  0  0  0  0  0  0
    2.4989   -0.7091   -0.4237 C   0  0  0  0  0  0  0  0  0  0  0  0
    1.8240    0.2889   -0.7012 O   0  0  0  0  0  0  0  0  0  0  0  0
    3.7786   -0.7324    0.3070 C   0  0  1  0  0  0  0  0  0  0  0  0
    4.4072   -2.0138    0.3595 N   0  0  0  0  0  0  0  0  0  0  0  0
    4.4584   -2.6570    1.6297 C   0  0  0  0  0  0  0  0  0  0  0  0
    3.9610   -2.1394    2.6799 O   0  0  0  0  0  0  0  0  0  0  0  0
    5.0988   -3.9932    1.8389 C   0  0  2  0  0  0  0  0  0  0  0  0
    5.9233   -4.0051    3.0814 C   0  0  0  0  0  0  0  0  0  0  0  0
    6.5427   -5.3406    3.2451 C   0  0  0  0  0  0  0  0  0  0  0  0
    7.8017   -5.5153    2.6815 C   0  0  0  0  0  0  0  0  0  0  0  0
    8.4821   -6.7167    2.7807 C   0  0  0  0  0  0  0  0  0  0  0  0
    7.8667   -7.7443    3.4613 C   0  0  0  0  0  0  0  0  0  0  0  0
    6.6142   -7.6276    4.0425 C   0  0  0  0  0  0  0  0  0  0  0  0
    5.9915   -6.3917    3.9029 C   0  0  0  0  0  0  0  0  0  0  0  0
    8.5389   -8.9651    3.5710 O   0  0  0  0  0  0  0  0  0  0  0  0
    5.8046   -4.4414    0.6805 N   0  0  0  0  0  0  0  0  0  0  0  0
    4.7577    0.3674   -0.0948 C   0  0  0  0  0  0  0  0  0  0  0  0
    4.2843    1.5854    0.5642 C   0  0  0  0  0  0  0  0  0  0  0  0
    3.2517    1.6198    1.1624 O   0  0  0  0  0  0  0  0  0  0  0  0
    5.0088    2.8735    0.5596 N   0  0  0  0  0  0  0  0  0  0  0  0
    6.0816    2.7879   -0.3372 C   0  0  2  0  0  0  0  0  0  0  0  0
    7.4483    2.8859    0.1713 C   0  0  0  0  0  0  0  0  0  0  0  0
    7.9031    3.4988    1.1425 O   0  0  0  0  0  0  0  0  0  0  0  0
    8.4414    2.1276   -0.5895 N   0  0  0  0  0  0  0  0  0  0  0  0
    5.9097    3.7491   -1.5051 C   0  0  0  0  0  0  0  0  0  0  0  0
    7.0185    3.5600   -2.4364 C   0  0  0  0  0  0  0  0  0  0  0  0
    8.2399    4.1610   -2.3940 C   0  0  0  0  0  0  0  0  0  0  0  0
    9.1610    3.8906   -3.3832 C   0  0  0  0  0  0  0  0  0  0  0  0
    8.9371    3.0388   -4.4393 C   0  0  0  0  0  0  0  0  0  0  0  0
    7.6964    2.4214   -4.4896 C   0  0  0  0  0  0  0  0  0  0  0  0
    6.7975    2.6922   -3.5117 C   0  0  0  0  0  0  0  0  0  0  0  0
    9.9214    2.8326   -5.3806 O   0  0  0  0  0  0  0  0  0  0  0  0
    4.4355    3.9018    1.4113 C   0  0  2  0  0  0  0  0  0  0  0  0
    4.0319    3.2361    2.7484 C   0  0  0  0  0  0  0  0  0  0  0  0
    3.2690    4.3483    0.6521 N   0  0  0  0  0  0  0  0  0  0  0  0
    2.2257    5.1545    1.2859 C   0  0  0  0  0  0  0  0  0  0  0  0
    2.4577    5.3783    2.4809 O   0  0  0  0  0  0  0  0  0  0  0  0
    1.0476    5.6005    0.5362 C   0  0  1  0  0  0  0  0  0  0  0  0
   -0.1574    5.7296    1.4285 N   0  0  0  0  0  0  0  0  0  0  0  0
   -1.3561    5.1530    0.9688 C   0  0  0  0  0  0  0  0  0  0  0  0
   -1.3155    4.5075   -0.0822 O   0  0  0  0  0  0  0  0  0  0  0  0
   -2.6860    5.2929    1.7039 C   0  0  1  0  0  0  0  0  0  0  0  0
   -3.6858    4.5894    0.8997 N   0  0  0  0  0  0  0  0  0  0  0  0
   -3.9677    5.1602   -0.3675 C   0  0  0  0  0  0  0  0  0  0  0  0
   -3.3251    6.1849   -0.6609 O   0  0  0  0  0  0  0  0  0  0  0  0
   -4.9373    4.6402   -1.3619 C   0  0  1  0  0  0  0  0  0  0  0  0
   -5.7463    3.6478   -0.6950 N   0  0  0  0  0  0  0  0  0  0  0  0
   -5.4474    2.2476   -0.6476 C   0  0  0  0  0  0  0  0  0  0  0  0
   -4.3792    1.9191   -1.1552 O   0  0  0  0  0  0  0  0  0  0  0  0
   -6.4423    1.3690   -0.0010 C   0  0  1  0  0  0  0  0  0  0  0  0
   -5.9923   -0.0113   -0.0492 N   0  0  0  0  0  0  0  0  0  0  0  0
   -6.8396   -0.9807   -0.6580 C   0  0  0  0  0  0  0  0  0  0  0  0
   -7.8788   -0.5536   -1.1631 O   0  0  0  0  0  0  0  0  0  0  0  0
   -6.6689    1.8577    1.4225 C   0  0  0  0  0  0  0  0  0  0  0  0
   -7.7013    0.9773    2.0666 C   0  0  0  0  0  0  0  0  0  0  0  0
   -9.0599    1.2881    2.1431 C   0  0  0  0  0  0  0  0  0  0  0  0
   -9.7258    0.2698    2.7165 N   0  0  0  0  0  0  0  0  0  0  0  0
   -8.8360   -0.6706    3.0047 C   0  0  0  0  0  0  0  0  0  0  0  0
   -7.5499   -0.2748    2.6184 C   0  0  0  0  0  0  0  0  0  0  0  0
   -6.4986   -1.1127    2.8355 C   0  0  0  0  0  0  0  0  0  0  0  0
   -6.6751   -2.3321    3.4196 C   0  0  0  0  0  0  0  0  0  0  0  0
   -7.9265   -2.7656    3.8159 C   0  0  0  0  0  0  0  0  0  0  0  0
   -8.9825   -1.8935    3.5858 C   0  0  0  0  0  0  0  0  0  0  0  0
   -5.7319    5.7278   -1.9687 C   0  0  0  0  0  0  0  0  0  0  0  0
   -4.9421    6.7257   -2.6837 C   0  0  0  0  0  0  0  0  0  0  0  0
   -4.5425    7.8237   -2.2224 O   0  0  0  0  0  0  0  0  0  0  0  0
   -4.5605    6.4668   -4.0541 N   0  0  0  0  0  0  0  0  0  0  0  0
   -2.6415    4.9426    3.1131 C   0  0  0  0  0  0  0  0  0  0  0  0
    1.1906    7.0716    0.1379 C   0  0  0  0  0  0  0  0  0  0  0  0
    2.2938    7.4905   -0.6847 C   0  0  0  0  0  0  0  0  0  0  0  0
    3.4186    8.0328   -0.0498 C   0  0  0  0  0  0  0  0  0  0  0  0
    4.4993    8.4823   -0.7739 C   0  0  0  0  0  0  0  0  0  0  0  0
    4.5281    8.4217   -2.1503 C   0  0  0  0  0  0  0  0  0  0  0  0
    3.4162    7.8859   -2.7707 C   0  0  0  0  0  0  0  0  0  0  0  0
    2.3357    7.4354   -2.0573 C   0  0  0  0  0  0  0  0  0  0  0  0
    5.3245    4.9838    1.8116 C   0  0  0  0  0  0  0  0  0  0  0  0
    5.4314    6.1199    1.3112 O   0  0  0  0  0  0  0  0  0  0  0  0
    6.1722    4.7416    2.9122 O   0  0  0  0  0  0  0  0  0  0  0  0
   -6.4686   -6.0502   -3.6656 H   0  0  0  0  0  0  0  0  0  0  0  0
   -7.9710   -6.7491   -3.7091 H   0  0  0  0  0  0  0  0  0  0  0  0
   -6.3676   -6.8866   -1.2533 H   0  0  0  0  0  0  0  0  0  0  0  0
   -8.1716   -7.0492   -1.4868 H   0  0  0  0  0  0  0  0  0  0  0  0
   -6.4290   -4.5835   -2.0867 H   0  0  0  0  0  0  0  0  0  0  0  0
   -8.2163   -4.7089   -2.3059 H   0  0  0  0  0  0  0  0  0  0  0  0
   -6.7979   -5.0408    0.3923 H   0  0  0  0  0  0  0  0  0  0  0  0
   -8.5216   -5.1628    0.0911 H   0  0  0  0  0  0  0  0  0  0  0  0
   -7.9564   -2.8865    0.8465 H   0  0  0  0  0  0  0  0  0  0  0  0
   -8.6134   -2.8407   -0.7860 H   0  0  0  0  0  0  0  0  0  0  0  0
   -6.3051   -2.6077   -1.7985 H   0  0  0  0  0  0  0  0  0  0  0  0
   -5.1744   -2.8953    1.0274 H   0  0  0  0  0  0  0  0  0  0  0  0
   -2.4907   -2.1322    0.6249 H   0  0  0  0  0  0  0  0  0  0  0  0
   -3.2233   -3.9844    1.7461 H   0  0  0  0  0  0  0  0  0  0  0  0
   -1.5046   -4.0116    1.4022 H   0  0  0  0  0  0  0  0  0  0  0  0
   -0.6456   -5.7319   -0.1090 H   0  0  0  0  0  0  0  0  0  0  0  0
   -0.8500   -8.1026   -0.8176 H   0  0  0  0  0  0  0  0  0  0  0  0
   -2.9250   -9.2961   -0.6344 H   0  0  0  0  0  0  0  0  0  0  0  0
   -4.9174   -8.0800    0.2889 H   0  0  0  0  0  0  0  0  0  0  0  0
   -4.7084   -5.7888    0.9595 H   0  0  0  0  0  0  0  0  0  0  0  0
   -1.7501   -3.1722   -2.0182 H   0  0  0  0  0  0  0  0  0  0  0  0
    0.5759   -0.9936   -2.0117 H   0  0  0  0  0  0  0  0  0  0  0  0
   -0.0785   -2.6648   -3.4966 H   0  0  0  0  0  0  0  0  0  0  0  0
    1.6533   -2.3580   -3.5272 H   0  0  0  0  0  0  0  0  0  0  0  0
    3.1136   -6.9157   -2.5851 H   0  0  0  0  0  0  0  0  0  0  0  0
    0.5854   -7.5209   -2.6527 H   0  0  0  0  0  0  0  0  0  0  0  0
   -0.8090   -5.3263   -2.8033 H   0  0  0  0  0  0  0  0  0  0  0  0
    2.4556   -2.7875   -0.5912 H   0  0  0  0  0  0  0  0  0  0  0  0
    3.4876   -0.4443    1.3799 H   0  0  0  0  0  0  0  0  0  0  0  0
    4.8177   -2.4632   -0.4805 H   0  0  0  0  0  0  0  0  0  0  0  0
    4.2322   -4.6993    1.9675 H   0  0  0  0  0  0  0  0  0  0  0  0
    6.6832   -3.1978    3.0710 H   0  0  0  0  0  0  0  0  0  0  0  0
    5.2492   -3.8692    3.9681 H   0  0  0  0  0  0  0  0  0  0  0  0
    8.2496   -4.6902    2.1519 H   0  0  0  0  0  0  0  0  0  0  0  0
    9.4562   -6.8915    2.3557 H   0  0  0  0  0  0  0  0  0  0  0  0
    6.1354   -8.4438    4.5807 H   0  0  0  0  0  0  0  0  0  0  0  0
    5.0096   -6.2535    4.3415 H   0  0  0  0  0  0  0  0  0  0  0  0
    9.3752   -8.9908    4.1333 H   0  0  0  0  0  0  0  0  0  0  0  0
    5.2035   -4.7005   -0.1294 H   0  0  0  0  0  0  0  0  0  0  0  0
    6.6047   -3.8850    0.3845 H   0  0  0  0  0  0  0  0  0  0  0  0
    5.7502    0.0295    0.2699 H   0  0  0  0  0  0  0  0  0  0  0  0
    4.7209    0.4645   -1.2190 H   0  0  0  0  0  0  0  0  0  0  0  0
    6.0106    1.7443   -0.8098 H   0  0  0  0  0  0  0  0  0  0  0  0
    9.4492    2.2510   -0.4146 H   0  0  0  0  0  0  0  0  0  0  0  0
    8.1596    1.4426   -1.3138 H   0  0  0  0  0  0  0  0  0  0  0  0
    5.9022    4.8002   -1.1364 H   0  0  0  0  0  0  0  0  0  0  0  0
    4.9554    3.5297   -2.0391 H   0  0  0  0  0  0  0  0  0  0  0  0
    8.4445    4.8342   -1.5834 H   0  0  0  0  0  0  0  0  0  0  0  0
   10.1540    4.3673   -3.3598 H   0  0  0  0  0  0  0  0  0  0  0  0
    7.4533    1.7416   -5.3006 H   0  0  0  0  0  0  0  0  0  0  0  0
    5.8225    2.1809   -3.5832 H   0  0  0  0  0  0  0  0  0  0  0  0
   10.1506    3.5512   -6.0866 H   0  0  0  0  0  0  0  0  0  0  0  0
    4.2964    3.9171    3.5834 H   0  0  0  0  0  0  0  0  0  0  0  0
    4.6212    2.3056    2.8181 H   0  0  0  0  0  0  0  0  0  0  0  0
    2.9378    3.1131    2.8179 H   0  0  0  0  0  0  0  0  0  0  0  0
    3.0841    4.1497   -0.3234 H   0  0  0  0  0  0  0  0  0  0  0  0
    0.7741    5.0004   -0.3224 H   0  0  0  0  0  0  0  0  0  0  0  0
   -0.1550    6.1912    2.3147 H   0  0  0  0  0  0  0  0  0  0  0  0
   -2.8465    6.4182    1.5792 H   0  0  0  0  0  0  0  0  0  0  0  0
   -4.1836    3.7531    1.1523 H   0  0  0  0  0  0  0  0  0  0  0  0
   -4.3416    4.1409   -2.1981 H   0  0  0  0  0  0  0  0  0  0  0  0
   -6.5936    3.9457   -0.2210 H   0  0  0  0  0  0  0  0  0  0  0  0
   -7.3922    1.4940   -0.5718 H   0  0  0  0  0  0  0  0  0  0  0  0
   -5.1066   -0.3631    0.3062 H   0  0  0  0  0  0  0  0  0  0  0  0
   -5.7375    1.8647    2.0107 H   0  0  0  0  0  0  0  0  0  0  0  0
   -7.0855    2.8794    1.4085 H   0  0  0  0  0  0  0  0  0  0  0  0
   -9.5070    2.2065    1.7982 H   0  0  0  0  0  0  0  0  0  0  0  0
  -10.7597    0.2464    2.8933 H   0  0  0  0  0  0  0  0  0  0  0  0
   -5.5178   -0.7920    2.5540 H   0  0  0  0  0  0  0  0  0  0  0  0
   -5.8107   -2.9554    3.5564 H   0  0  0  0  0  0  0  0  0  0  0  0
   -8.0341   -3.7266    4.2702 H   0  0  0  0  0  0  0  0  0  0  0  0
   -9.9537   -2.2389    3.8954 H   0  0  0  0  0  0  0  0  0  0  0  0
   -6.4935    5.3013   -2.6988 H   0  0  0  0  0  0  0  0  0  0  0  0
   -6.3198    6.2862   -1.1778 H   0  0  0  0  0  0  0  0  0  0  0  0
   -5.2384    6.2419   -4.7982 H   0  0  0  0  0  0  0  0  0  0  0  0
   -3.5260    6.5280   -4.2905 H   0  0  0  0  0  0  0  0  0  0  0  0
   -3.0517    3.9426    3.3831 H   0  0  0  0  0  0  0  0  0  0  0  0
   -1.6099    5.0714    3.5173 H   0  0  0  0  0  0  0  0  0  0  0  0
   -3.2704    5.6859    3.6871 H   0  0  0  0  0  0  0  0  0  0  0  0
    1.1905    7.7065    1.0818 H   0  0  0  0  0  0  0  0  0  0  0  0
    0.2424    7.4121   -0.3685 H   0  0  0  0  0  0  0  0  0  0  0  0
    3.4590    8.1178    1.0354 H   0  0  0  0  0  0  0  0  0  0  0  0
    5.3482    8.9021   -0.2255 H   0  0  0  0  0  0  0  0  0  0  0  0
    5.3976    8.7857   -2.7040 H   0  0  0  0  0  0  0  0  0  0  0  0
    3.4461    7.8462   -3.8515 H   0  0  0  0  0  0  0  0  0  0  0  0
    1.4940    7.0269   -2.5966 H   0  0  0  0  0  0  0  0  0  0  0  0
    6.9686    5.3604    3.0706 H   0  0  0  0  0  0  0  0  0  0  0  0
  1  2  1  0
  2  3  1  0
  3  4  1  0
  4  5  1  0
  5  6  1  0
  6  7  1  0
  7  8  1  0
  8  9  2  0
  8 10  1  0
 10 11  1  0
 11 12  1  0
 12 13  2  0
 13 14  1  0
 14 15  2  0
 15 16  1  0
 16 17  2  0
 10 18  1  0
 18 19  1  0
 19 20  2  0
 19 21  1  0
 21 22  1  0
 22 23  1  0
 23 24  1  0
 24 25  2  0
 25 26  1  0
 26 27  1  0
 21 28  1  0
 28 29  1  0
 29 30  2  0
 29 31  1  0
 31 32  1  0
 32 33  1  0
 33 34  2  0
 33 35  1  0
 35 36  1  0
 36 37  1  0
 37 38  2  0
 38 39  1  0
 39 40  2  0
 40 41  1  0
 41 42  2  0
 40 43  1  0
 35 44  1  0
 31 45  1  0
 45 46  1  0
 46 47  2  0
 46 48  1  0
 48 49  1  0
 49 50  1  0
 50 51  2  0
 50 52  1  0
 49 53  1  0
 53 54  1  0
 54 55  2  0
 55 56  1  0
 56 57  2  0
 57 58  1  0
 58 59  2  0
 57 60  1  0
 48 61  1  0
 61 62  1  1
 61 63  1  0
 63 64  1  0
 64 65  2  0
 64 66  1  0
 66 67  1  0
 67 68  1  0
 68 69  2  0
 68 70  1  0
 70 71  1  0
 71 72  1  0
 72 73  2  0
 72 74  1  0
 74 75  1  0
 75 76  1  0
 76 77  2  0
 76 78  1  0
 78 79  1  0
 79 80  1  0
 80 81  2  0
 78 82  1  0
 82 83  1  0
 83 84  2  0
 84 85  1  0
 85 86  1  0
 86 87  2  0
 87 88  1  0
 88 89  2  0
 89 90  1  0
 90 91  2  0
 74 92  1  0
 92 93  1  0
 93 94  2  0
 93 95  1  0
 70 96  1  0
 66 97  1  0
 97 98  1  0
 98 99  2  0
 99100  1  0
100101  2  0
101102  1  0
102103  2  0
 61104  1  0
104105  2  0
104106  1  0
 80  6  1  0
 87 83  1  0
103 98  1  0
 17 12  1  0
 27 23  2  0
 42 37  1  0
 59 54  1  0
 91 86  1  0
  1107  1  0
  1108  1  0
  2109  1  0
  2110  1  0
  3111  1  0
  3112  1  0
  4113  1  0
  4114  1  0
  5115  1  0
  5116  1  0
  6117  1  6
  7118  1  0
 10119  1  1
 11120  1  0
 11121  1  0
 13122  1  0
 14123  1  0
 15124  1  0
 16125  1  0
 17126  1  0
 18127  1  0
 21128  1  6
 22129  1  0
 22130  1  0
 25131  1  0
 26132  1  0
 27133  1  0
 28134  1  0
 31135  1  1
 32136  1  0
 35137  1  1
 36138  1  0
 36139  1  0
 38140  1  0
 39141  1  0
 41142  1  0
 42143  1  0
 43144  1  0
 44145  1  0
 44146  1  0
 45147  1  0
 45148  1  0
 49149  1  6
 52150  1  0
 52151  1  0
 53152  1  0
 53153  1  0
 55154  1  0
 56155  1  0
 58156  1  0
 59157  1  0
 60158  1  0
 62159  1  0
 62160  1  0
 62161  1  0
 63162  1  0
 66163  1  6
 67164  1  0
 70165  1  1
 71166  1  0
 74167  1  6
 75168  1  0
 78169  1  6
 79170  1  0
 82171  1  0
 82172  1  0
 84173  1  0
 85174  1  0
 88175  1  0
 89176  1  0
 90177  1  0
 91178  1  0
 92179  1  0
 92180  1  0
 95181  1  0
 95182  1  0
 96183  1  0
 96184  1  0
 96185  1  0
 97186  1  0
 97187  1  0
 99188  1  0
100189  1  0
101190  1  0
102191  1  0
103192  1  0
106193  1  0
M  END
>  <Ligand ID>  (1) 
LIG0001127

>  <Ligand>  (1) 
CHEMBL2369977

>  <SMILES>  (1) 
NCCCC[C@@H]1NC(=O)[C@@H](Cc2ccccc2)NC(=O)[C@H](Cc2nc[nH]c2)NC(=O)[C@@H](NC(=O)[C@H](Cc2ccc(cc2)O)N)CC(=O)N([C@H](C(=O)N)Cc2ccc(cc2)O)[C@](C)(NC(=O)[C@@H](NC(=O)[C@@H](NC(=O)[C@@H](NC(=O)[C@@H](NC1=O)Cc1c[nH]c2c1cccc2)CC(=O)N)C)Cc1ccccc1)C(=O)O

>  <CID>  (1) 
73345427.0

>  <ChEMBL ID>  (1) 
nan

>  <InChiKey>  (1) 
YBPUPHOEVCKWNW-KBQUKZHLSA-N

>  <InChi>  (1) 
InChI=1S/C73H87N17O16/c1-40-63(96)83-54(31-42-15-7-4-8-16-42)71(104)89-73(2,72(105)106)90(59(62(77)95)32-44-22-26-48(92)27-23-44)61(94)36-58(84-64(97)50(75)29-43-20-24-47(91)25-21-43)70(103)87-56(34-46-38-78-39-80-46)69(102)85-53(30-41-13-5-3-6-14-41)67(100)82-52(19-11-12-28-74)65(98)86-55(33-45-37-79-51-18-10-9-17-49(45)51)68(101)88-57(35-60(76)93)66(99)81-40/h3-10,13-18,20-27,37-40,50,52-59,79,91-92H,11-12,19,28-36,74-75H2,1-2H3,(H2,76,93)(H2,77,95)(H,78,80)(H,81,99)(H,82,100)(H,83,96)(H,84,97)(H,85,102)(H,86,98)(H,87,103)(H,88,101)(H,89,104)(H,105,106)/t40-,50-,52-,53+,54-,55-,56-,57-,58-,59-,73-/m0/s1

>  <IUPAC Name>  (1) 
(2S,5S,8S,11S,14S,17S,20R,23S,26S)-17-(4-aminobutyl)-1-[(2S)-1-amino-3-(4-hydroxyphenyl)-1-oxopropan-2-yl]-26-[[(2S)-2-amino-3-(4-hydroxyphenyl)propanoyl]amino]-11-(2-amino-2-oxoethyl)-5,20-dibenzyl-23-(1H-imidazol-4-ylmethyl)-14-(1H-indol-3-ylmethyl)-2,8-dimethyl-4,7,10,13,16,19,22,25,28-nonaoxo-1,3,6,9,12,15,18,21,24-nonazacyclooctacosane-2-carboxylic acid

$$$$
