
     RDKit          3D

144145  0  0  0  0  0  0  0  0999 V2000
    9.5907   -4.5827    0.0863 C   0  0  0  0  0  0  0  0  0  0  0  0
    8.1149   -4.9153    0.2874 C   0  0  0  0  0  0  0  0  0  0  0  0
    7.2585   -4.2576   -0.7859 C   0  0  0  0  0  0  0  0  0  0  0  0
    5.8116   -4.5788   -0.5981 C   0  0  0  0  0  0  0  0  0  0  0  0
    5.2031   -4.1409    0.6786 C   0  0  0  0  0  0  0  0  0  0  0  0
    5.1128   -2.7034    0.9876 C   0  0  0  0  0  0  0  0  0  0  0  0
    4.2333   -1.9366    0.0578 N   0  0  0  0  0  0  0  0  0  0  0  0
    2.8886   -1.9189    0.4361 C   0  0  0  0  0  0  0  0  0  0  0  0
    2.6185   -2.5411    1.5367 O   0  0  0  0  0  0  0  0  0  0  0  0
    1.7104   -1.3136   -0.2227 C   0  0  2  0  0  0  0  0  0  0  0  0
    1.8261    0.1492   -0.4070 C   0  0  0  0  0  0  0  0  0  0  0  0
    2.2017    1.0495    1.0421 S   0  0  0  0  0  0  0  0  0  0  0  0
    0.7111    1.5725    2.4047 S   0  0  0  0  0  0  0  0  0  0  0  0
    0.1233    3.2379    1.9785 C   0  0  0  0  0  0  0  0  0  0  0  0
   -0.8500    3.1755    0.8224 C   0  0  0  0  0  0  0  0  0  0  0  0
   -2.1870    3.1459    1.4816 C   0  0  0  0  0  0  0  0  0  0  0  0
   -2.2021    3.0655    2.7156 O   0  0  0  0  0  0  0  0  0  0  0  0
   -3.4488    3.2024    0.8289 N   0  0  0  0  0  0  0  0  0  0  0  0
   -4.6075    3.3345    1.6747 C   0  0  1  0  0  0  0  0  0  0  0  0
   -5.1312    4.7634    1.4504 C   0  0  0  0  0  0  0  0  0  0  0  0
   -5.5051    5.0154    0.0549 C   0  0  0  0  0  0  0  0  0  0  0  0
   -4.6282    5.4755   -0.9161 C   0  0  0  0  0  0  0  0  0  0  0  0
   -5.0852    5.6840   -2.2051 C   0  0  0  0  0  0  0  0  0  0  0  0
   -6.3828    5.4567   -2.5835 C   0  0  0  0  0  0  0  0  0  0  0  0
   -7.2603    4.9996   -1.6230 C   0  0  0  0  0  0  0  0  0  0  0  0
   -6.8047    4.7925   -0.3409 C   0  0  0  0  0  0  0  0  0  0  0  0
   -6.8638    5.6589   -3.8704 O   0  0  0  0  0  0  0  0  0  0  0  0
   -5.6680    2.3508    1.6091 C   0  0  0  0  0  0  0  0  0  0  0  0
   -6.5886    2.4577    2.4824 O   0  0  0  0  0  0  0  0  0  0  0  0
   -5.8540    1.2709    0.7107 N   0  0  0  0  0  0  0  0  0  0  0  0
   -6.9982    0.3938    0.9861 C   0  0  2  0  0  0  0  0  0  0  0  0
   -6.3441   -0.8938    1.4577 C   0  0  0  0  0  0  0  0  0  0  0  0
   -6.9312   -1.6384    2.2394 O   0  0  0  0  0  0  0  0  0  0  0  0
   -5.0650   -1.2888    1.0129 N   0  0  0  0  0  0  0  0  0  0  0  0
   -4.3066   -2.4271    1.4624 C   0  0  2  0  0  0  0  0  0  0  0  0
   -3.0913   -2.6310    0.6549 C   0  0  0  0  0  0  0  0  0  0  0  0
   -2.8359   -1.9574   -0.3545 O   0  0  0  0  0  0  0  0  0  0  0  0
   -2.0945   -3.6231    0.9710 N   0  0  0  0  0  0  0  0  0  0  0  0
   -1.0262   -3.9811    0.0952 C   0  0  2  0  0  0  0  0  0  0  0  0
    0.1020   -3.1366   -0.1556 C   0  0  0  0  0  0  0  0  0  0  0  0
    0.9790   -3.6129   -0.9761 O   0  0  0  0  0  0  0  0  0  0  0  0
    0.4762   -1.8449    0.3256 N   0  0  0  0  0  0  0  0  0  0  0  0
   -1.6095   -4.5644   -1.2140 C   0  0  0  0  0  0  0  0  0  0  0  0
   -0.5430   -4.9431   -2.1420 C   0  0  0  0  0  0  0  0  0  0  0  0
   -0.1975   -4.2358   -3.1525 O   0  0  0  0  0  0  0  0  0  0  0  0
    0.1615   -6.1736   -1.9180 N   0  0  0  0  0  0  0  0  0  0  0  0
   -5.1834   -3.7065    1.3257 C   0  0  0  0  0  0  0  0  0  0  0  0
   -5.6238   -3.9673   -0.0591 C   0  0  0  0  0  0  0  0  0  0  0  0
   -6.4567   -5.2229   -0.0266 C   0  0  0  0  0  0  0  0  0  0  0  0
   -6.7012   -5.8321    1.0474 O   0  0  0  0  0  0  0  0  0  0  0  0
   -7.0017   -5.7692   -1.2206 N   0  0  0  0  0  0  0  0  0  0  0  0
   -7.7202    0.1488   -0.3097 C   0  0  2  0  0  0  0  0  0  0  0  0
   -8.2183    1.4248   -0.8770 C   0  0  0  0  0  0  0  0  0  0  0  0
   -9.1911    2.1594   -0.0139 C   0  0  0  0  0  0  0  0  0  0  0  0
   -8.9043   -0.7736   -0.1067 C   0  0  0  0  0  0  0  0  0  0  0  0
    4.8927   -1.3075   -1.0323 C   0  0  0  0  0  0  0  0  0  0  0  0
    5.5360   -0.0274   -0.6351 C   0  0  0  0  0  0  0  0  0  0  0  0
    6.1698    0.5659   -1.5753 O   0  0  0  0  0  0  0  0  0  0  0  0
    5.4949    0.5329    0.6460 N   0  0  0  0  0  0  0  0  0  0  0  0
    6.1784    1.8028    1.0106 C   0  0  2  0  0  0  0  0  0  0  0  0
    5.6137    2.9740    0.3691 C   0  0  0  0  0  0  0  0  0  0  0  0
    5.9941    4.1806    0.5997 O   0  0  0  0  0  0  0  0  0  0  0  0
    4.5470    2.9360   -0.6078 N   0  0  0  0  0  0  0  0  0  0  0  0
    4.0220    4.1493   -1.2072 C   0  0  0  0  0  0  0  0  0  0  0  0
    5.1108    4.8246   -1.9523 C   0  0  0  0  0  0  0  0  0  0  0  0
    6.2529    4.3330   -2.0048 O   0  0  0  0  0  0  0  0  0  0  0  0
    4.7688    6.0557   -2.5942 N   0  0  0  0  0  0  0  0  0  0  0  0
    7.6248    1.5378    1.0378 C   0  0  0  0  0  0  0  0  0  0  0  0
    8.6357    2.5508    1.3698 C   0  0  0  0  0  0  0  0  0  0  0  0
    8.7974    3.7403    0.5094 C   0  0  0  0  0  0  0  0  0  0  0  0
    9.9798    1.7987    1.4825 C   0  0  0  0  0  0  0  0  0  0  0  0
    9.7188   -3.6059   -0.4274 H   0  0  0  0  0  0  0  0  0  0  0  0
    9.9776   -5.3525   -0.6360 H   0  0  0  0  0  0  0  0  0  0  0  0
   10.1549   -4.5802    1.0211 H   0  0  0  0  0  0  0  0  0  0  0  0
    7.9821   -5.9997    0.3128 H   0  0  0  0  0  0  0  0  0  0  0  0
    7.8274   -4.5001    1.2725 H   0  0  0  0  0  0  0  0  0  0  0  0
    7.5642   -4.7626   -1.7429 H   0  0  0  0  0  0  0  0  0  0  0  0
    7.5135   -3.2070   -0.9217 H   0  0  0  0  0  0  0  0  0  0  0  0
    5.2223   -4.3068   -1.4979 H   0  0  0  0  0  0  0  0  0  0  0  0
    5.7587   -5.7155   -0.5952 H   0  0  0  0  0  0  0  0  0  0  0  0
    4.1372   -4.5417    0.7121 H   0  0  0  0  0  0  0  0  0  0  0  0
    5.6995   -4.6424    1.5477 H   0  0  0  0  0  0  0  0  0  0  0  0
    4.6750   -2.5687    1.9900 H   0  0  0  0  0  0  0  0  0  0  0  0
    6.1037   -2.1904    1.0387 H   0  0  0  0  0  0  0  0  0  0  0  0
    1.8346   -1.7387   -1.3034 H   0  0  0  0  0  0  0  0  0  0  0  0
    2.5215    0.3892   -1.2753 H   0  0  0  0  0  0  0  0  0  0  0  0
    0.8329    0.5339   -0.8455 H   0  0  0  0  0  0  0  0  0  0  0  0
   -0.3728    3.6296    2.9023 H   0  0  0  0  0  0  0  0  0  0  0  0
    0.9899    3.9031    1.7462 H   0  0  0  0  0  0  0  0  0  0  0  0
   -0.7955    4.0906    0.2006 H   0  0  0  0  0  0  0  0  0  0  0  0
   -0.6623    2.3090    0.1671 H   0  0  0  0  0  0  0  0  0  0  0  0
   -3.4229    3.1413   -0.1843 H   0  0  0  0  0  0  0  0  0  0  0  0
   -4.2987    3.3701    2.7684 H   0  0  0  0  0  0  0  0  0  0  0  0
   -4.3389    5.4626    1.8004 H   0  0  0  0  0  0  0  0  0  0  0  0
   -6.0225    4.8740    2.0913 H   0  0  0  0  0  0  0  0  0  0  0  0
   -3.5979    5.6650   -0.6519 H   0  0  0  0  0  0  0  0  0  0  0  0
   -4.4103    6.0449   -2.9796 H   0  0  0  0  0  0  0  0  0  0  0  0
   -8.3001    4.7990   -1.8544 H   0  0  0  0  0  0  0  0  0  0  0  0
   -7.4979    4.4389    0.4028 H   0  0  0  0  0  0  0  0  0  0  0  0
   -7.8128    5.9465   -4.0046 H   0  0  0  0  0  0  0  0  0  0  0  0
   -5.2022    1.1869   -0.0477 H   0  0  0  0  0  0  0  0  0  0  0  0
   -7.6184    0.7082    1.8155 H   0  0  0  0  0  0  0  0  0  0  0  0
   -4.6468   -0.6939    0.2870 H   0  0  0  0  0  0  0  0  0  0  0  0
   -4.1355   -2.3909    2.5355 H   0  0  0  0  0  0  0  0  0  0  0  0
   -2.2282   -4.0433    1.8994 H   0  0  0  0  0  0  0  0  0  0  0  0
   -0.5775   -4.9483    0.5720 H   0  0  0  0  0  0  0  0  0  0  0  0
   -0.1408   -1.4198    0.9961 H   0  0  0  0  0  0  0  0  0  0  0  0
   -2.2997   -3.8031   -1.6130 H   0  0  0  0  0  0  0  0  0  0  0  0
   -2.2020   -5.4850   -0.9641 H   0  0  0  0  0  0  0  0  0  0  0  0
    0.2724   -6.9101   -2.6301 H   0  0  0  0  0  0  0  0  0  0  0  0
    0.6080   -6.3764   -0.9783 H   0  0  0  0  0  0  0  0  0  0  0  0
   -4.4709   -4.5159    1.6666 H   0  0  0  0  0  0  0  0  0  0  0  0
   -5.9745   -3.6511    2.0378 H   0  0  0  0  0  0  0  0  0  0  0  0
   -6.2374   -3.1173   -0.4233 H   0  0  0  0  0  0  0  0  0  0  0  0
   -4.7358   -4.1770   -0.6982 H   0  0  0  0  0  0  0  0  0  0  0  0
   -6.7156   -6.6860   -1.6113 H   0  0  0  0  0  0  0  0  0  0  0  0
   -7.7163   -5.2149   -1.7116 H   0  0  0  0  0  0  0  0  0  0  0  0
   -6.9816   -0.3036   -0.9991 H   0  0  0  0  0  0  0  0  0  0  0  0
   -8.7733    1.1731   -1.8284 H   0  0  0  0  0  0  0  0  0  0  0  0
   -7.3776    2.0955   -1.2232 H   0  0  0  0  0  0  0  0  0  0  0  0
   -9.5663    3.0628   -0.5145 H   0  0  0  0  0  0  0  0  0  0  0  0
   -8.8490    2.4362    0.9780 H   0  0  0  0  0  0  0  0  0  0  0  0
  -10.0804    1.4849    0.1069 H   0  0  0  0  0  0  0  0  0  0  0  0
   -9.5246   -0.4419    0.7429 H   0  0  0  0  0  0  0  0  0  0  0  0
   -9.5557   -0.7723   -1.0068 H   0  0  0  0  0  0  0  0  0  0  0  0
   -8.5204   -1.8030    0.0078 H   0  0  0  0  0  0  0  0  0  0  0  0
    4.2029   -1.1127   -1.9000 H   0  0  0  0  0  0  0  0  0  0  0  0
    5.6588   -1.9772   -1.4600 H   0  0  0  0  0  0  0  0  0  0  0  0
    4.9461    0.0002    1.3761 H   0  0  0  0  0  0  0  0  0  0  0  0
    5.8813    1.9132    2.1251 H   0  0  0  0  0  0  0  0  0  0  0  0
    4.1322    2.0525   -0.9006 H   0  0  0  0  0  0  0  0  0  0  0  0
    3.1349    3.9476   -1.8159 H   0  0  0  0  0  0  0  0  0  0  0  0
    3.6770    4.7803   -0.3490 H   0  0  0  0  0  0  0  0  0  0  0  0
    4.5885    6.9405   -2.0539 H   0  0  0  0  0  0  0  0  0  0  0  0
    4.7025    6.0518   -3.6398 H   0  0  0  0  0  0  0  0  0  0  0  0
    7.7579    0.7051    1.8296 H   0  0  0  0  0  0  0  0  0  0  0  0
    7.9681    0.9963    0.0905 H   0  0  0  0  0  0  0  0  0  0  0  0
    8.4375    2.8634    2.4481 H   0  0  0  0  0  0  0  0  0  0  0  0
    8.4997    4.6991    0.9954 H   0  0  0  0  0  0  0  0  0  0  0  0
    8.3500    3.6214   -0.4833 H   0  0  0  0  0  0  0  0  0  0  0  0
    9.9384    3.8631    0.3644 H   0  0  0  0  0  0  0  0  0  0  0  0
   10.7405    2.4482    1.9471 H   0  0  0  0  0  0  0  0  0  0  0  0
    9.7723    0.8799    2.0556 H   0  0  0  0  0  0  0  0  0  0  0  0
   10.2498    1.5278    0.4364 H   0  0  0  0  0  0  0  0  0  0  0  0
  1  2  1  0
  2  3  1  0
  3  4  1  0
  4  5  1  0
  5  6  1  0
  6  7  1  0
  7  8  1  0
  8  9  2  0
  8 10  1  0
 10 11  1  0
 11 12  1  0
 12 13  1  0
 13 14  1  0
 14 15  1  0
 15 16  1  0
 16 17  2  0
 16 18  1  0
 18 19  1  0
 19 20  1  0
 20 21  1  0
 21 22  2  0
 22 23  1  0
 23 24  2  0
 24 25  1  0
 25 26  2  0
 24 27  1  0
 19 28  1  0
 28 29  2  0
 28 30  1  0
 30 31  1  0
 31 32  1  0
 32 33  2  0
 32 34  1  0
 34 35  1  0
 35 36  1  0
 36 37  2  0
 36 38  1  0
 38 39  1  0
 39 40  1  0
 40 41  2  0
 40 42  1  0
 39 43  1  0
 43 44  1  0
 44 45  2  0
 44 46  1  0
 35 47  1  0
 47 48  1  0
 48 49  1  0
 49 50  2  0
 49 51  1  0
 31 52  1  0
 52 53  1  0
 53 54  1  0
 52 55  1  0
  7 56  1  0
 56 57  1  0
 57 58  2  0
 57 59  1  0
 59 60  1  0
 60 61  1  0
 61 62  2  0
 61 63  1  0
 63 64  1  0
 64 65  1  0
 65 66  2  0
 65 67  1  0
 60 68  1  0
 68 69  1  0
 69 70  1  0
 69 71  1  0
 42 10  1  0
 26 21  1  0
  1 72  1  0
  1 73  1  0
  1 74  1  0
  2 75  1  0
  2 76  1  0
  3 77  1  0
  3 78  1  0
  4 79  1  0
  4 80  1  0
  5 81  1  0
  5 82  1  0
  6 83  1  0
  6 84  1  0
 10 85  1  6
 11 86  1  0
 11 87  1  0
 14 88  1  0
 14 89  1  0
 15 90  1  0
 15 91  1  0
 18 92  1  0
 19 93  1  1
 20 94  1  0
 20 95  1  0
 22 96  1  0
 23 97  1  0
 25 98  1  0
 26 99  1  0
 27100  1  0
 30101  1  0
 31102  1  1
 34103  1  0
 35104  1  1
 38105  1  0
 39106  1  1
 42107  1  0
 43108  1  0
 43109  1  0
 46110  1  0
 46111  1  0
 47112  1  0
 47113  1  0
 48114  1  0
 48115  1  0
 51116  1  0
 51117  1  0
 52118  1  6
 53119  1  0
 53120  1  0
 54121  1  0
 54122  1  0
 54123  1  0
 55124  1  0
 55125  1  0
 55126  1  0
 56127  1  0
 56128  1  0
 59129  1  0
 60130  1  1
 63131  1  0
 64132  1  0
 64133  1  0
 67134  1  0
 67135  1  0
 68136  1  0
 68137  1  0
 69138  1  0
 70139  1  0
 70140  1  0
 70141  1  0
 71142  1  0
 71143  1  0
 71144  1  0
M  END
>  <Ligand ID>  (1) 
LIG0001893

>  <Ligand>  (1) 
CHEMBL3353940

>  <SMILES>  (1) 
CCCCCCN(C(=O)[C@@H]1CSSCCC(=O)N[C@@H](Cc2ccc(cc2)O)C(=O)N[C@H](C(=O)N[C@H](C(=O)N[C@H](C(=O)N1)CC(=O)N)CCC(=O)N)[C@H](CC)C)CC(=O)N[C@H](C(=O)NCC(=O)N)CC(C)C

>  <CID>  (1) 
118719829.0

>  <ChEMBL ID>  (1) 
nan

>  <InChiKey>  (1) 
NMHDGUIZZYBIPM-SFKWGLIHSA-N

>  <InChi>  (1) 
InChI=1S/C46H73N11O12S2/c1-6-8-9-10-18-57(24-39(63)52-31(20-26(3)4)41(64)50-23-37(49)61)46(69)34-25-71-70-19-17-38(62)51-32(21-28-11-13-29(58)14-12-28)44(67)56-40(27(5)7-2)45(68)53-30(15-16-35(47)59)42(65)54-33(22-36(48)60)43(66)55-34/h11-14,26-27,30-34,40,58H,6-10,15-25H2,1-5H3,(H2,47,59)(H2,48,60)(H2,49,61)(H,50,64)(H,51,62)(H,52,63)(H,53,68)(H,54,65)(H,55,66)(H,56,67)/t27-,30-,31-,32-,33-,34-,40-/m0/s1

>  <IUPAC Name>  (1) 
(4R,7S,10S,13S,16S)-7-(2-amino-2-oxoethyl)-N-[2-[[(2S)-1-[(2-amino-2-oxoethyl)amino]-4-methyl-1-oxopentan-2-yl]amino]-2-oxoethyl]-10-(3-amino-3-oxopropyl)-13-[(2S)-butan-2-yl]-N-hexyl-16-[(4-hydroxyphenyl)methyl]-6,9,12,15,18-pentaoxo-1,2-dithia-5,8,11,14,17-pentazacycloicosane-4-carboxamide

$$$$
