
     RDKit          3D

 54 57  0  0  0  0  0  0  0  0999 V2000
    6.8336   -1.2783   -2.0367 N   0  0  0  0  0  0  0  0  0  0  0  0
    7.2271   -0.4101   -1.3745 C   0  0  0  0  0  0  0  0  0  0  0  0
    7.7046    0.6404   -0.5452 C   0  0  0  0  0  0  0  0  0  0  0  0
    9.0794    0.7517   -0.3332 C   0  0  0  0  0  0  0  0  0  0  0  0
    9.5862    1.7285    0.4433 N   0  0  0  0  0  0  0  0  0  0  0  0
    8.7539    2.6096    1.0229 C   0  0  0  0  0  0  0  0  0  0  0  0
    7.3887    2.5693    0.8648 C   0  0  0  0  0  0  0  0  0  0  0  0
    6.8766    1.5582    0.0621 C   0  0  0  0  0  0  0  0  0  0  0  0
    5.4067    1.4693   -0.1414 C   0  0  0  0  0  0  0  0  0  0  0  0
    4.8394    0.4194    0.6226 O   0  0  0  0  0  0  0  0  0  0  0  0
    3.4683    0.2278    0.5259 C   0  0  0  0  0  0  0  0  0  0  0  0
    2.8607   -0.7827    1.2494 C   0  0  0  0  0  0  0  0  0  0  0  0
    1.5387   -0.9167    1.1142 N   0  0  0  0  0  0  0  0  0  0  0  0
    0.7481   -0.1731    0.3513 C   0  0  0  0  0  0  0  0  0  0  0  0
    1.3524    0.8218   -0.3599 N   0  0  0  0  0  0  0  0  0  0  0  0
    2.6629    1.0232   -0.2827 C   0  0  0  0  0  0  0  0  0  0  0  0
   -0.6744   -0.3694    0.2491 N   0  0  0  0  0  0  0  0  0  0  0  0
   -1.4174    0.5282   -0.5823 C   0  0  0  0  0  0  0  0  0  0  0  0
   -2.6451   -0.0257   -1.2135 C   0  0  0  0  0  0  0  0  0  0  0  0
   -3.1848   -1.1703   -0.4645 N   0  0  0  0  0  0  0  0  0  0  0  0
   -2.2005   -2.1701   -0.0737 C   0  0  0  0  0  0  0  0  0  0  0  0
   -1.3363   -1.4297    0.9578 C   0  0  1  0  0  0  0  0  0  0  0  0
   -0.4508   -2.3634    1.7025 C   0  0  0  0  0  0  0  0  0  0  0  0
   -4.5655   -1.2800   -0.1490 C   0  0  0  0  0  0  0  0  0  0  0  0
   -5.0274   -2.2778    0.5029 O   0  0  0  0  0  0  0  0  0  0  0  0
   -5.4085   -0.2625   -0.5726 O   0  0  0  0  0  0  0  0  0  0  0  0
   -6.7690   -0.3346   -0.2804 C   0  0  0  0  0  0  0  0  0  0  0  0
   -7.3899    0.9495    0.2425 C   0  0  0  0  0  0  0  0  0  0  0  0
   -8.6684    0.4839   -0.4646 C   0  0  0  0  0  0  0  0  0  0  0  0
   -7.7213   -0.1869   -1.4698 C   0  0  0  0  0  0  0  0  0  0  0  0
   -7.3417    0.7213   -2.4157 F   0  0  0  0  0  0  0  0  0  0  0  0
   -8.2552   -1.3610   -1.9240 F   0  0  0  0  0  0  0  0  0  0  0  0
   -9.3617   -0.4241    0.3150 F   0  0  0  0  0  0  0  0  0  0  0  0
   -9.4019    1.4708   -1.0511 F   0  0  0  0  0  0  0  0  0  0  0  0
    9.7339    0.0540   -0.7920 H   0  0  0  0  0  0  0  0  0  0  0  0
    9.1682    3.3819    1.6380 H   0  0  0  0  0  0  0  0  0  0  0  0
    6.7215    3.2794    1.3325 H   0  0  0  0  0  0  0  0  0  0  0  0
    5.2162    1.2312   -1.2137 H   0  0  0  0  0  0  0  0  0  0  0  0
    4.8914    2.3945    0.1756 H   0  0  0  0  0  0  0  0  0  0  0  0
    3.3978   -1.4541    1.9051 H   0  0  0  0  0  0  0  0  0  0  0  0
    3.1689    1.8139   -0.8430 H   0  0  0  0  0  0  0  0  0  0  0  0
   -0.7341    1.0001   -1.3318 H   0  0  0  0  0  0  0  0  0  0  0  0
   -1.7531    1.4049    0.0470 H   0  0  0  0  0  0  0  0  0  0  0  0
   -3.4397    0.7127   -1.3793 H   0  0  0  0  0  0  0  0  0  0  0  0
   -2.3626   -0.4355   -2.2126 H   0  0  0  0  0  0  0  0  0  0  0  0
   -2.6311   -3.0925    0.3199 H   0  0  0  0  0  0  0  0  0  0  0  0
   -1.5078   -2.3431   -0.9419 H   0  0  0  0  0  0  0  0  0  0  0  0
   -1.9924   -0.9275    1.7126 H   0  0  0  0  0  0  0  0  0  0  0  0
   -1.1284   -3.1759    2.1067 H   0  0  0  0  0  0  0  0  0  0  0  0
   -0.0507   -1.8722    2.5878 H   0  0  0  0  0  0  0  0  0  0  0  0
    0.2725   -2.9147    1.0771 H   0  0  0  0  0  0  0  0  0  0  0  0
   -7.0375   -1.2452    0.2897 H   0  0  0  0  0  0  0  0  0  0  0  0
   -7.4679    1.0278    1.3300 H   0  0  0  0  0  0  0  0  0  0  0  0
   -6.9725    1.8205   -0.2990 H   0  0  0  0  0  0  0  0  0  0  0  0
  1  2  3  0
  2  3  1  0
  3  4  2  0
  4  5  1  0
  5  6  2  0
  6  7  1  0
  7  8  2  0
  8  9  1  0
  9 10  1  0
 10 11  1  0
 11 12  2  0
 12 13  1  0
 13 14  2  0
 14 15  1  0
 15 16  2  0
 14 17  1  0
 17 18  1  0
 18 19  1  0
 19 20  1  0
 20 21  1  0
 21 22  1  0
 22 23  1  0
 20 24  1  0
 24 25  2  0
 24 26  1  0
 26 27  1  0
 27 28  1  0
 28 29  1  0
 29 30  1  0
 30 31  1  0
 30 32  1  0
 29 33  1  0
 29 34  1  0
  8  3  1  0
 16 11  1  0
 22 17  1  0
 30 27  1  0
  4 35  1  0
  6 36  1  0
  7 37  1  0
  9 38  1  0
  9 39  1  0
 12 40  1  0
 16 41  1  0
 18 42  1  0
 18 43  1  0
 19 44  1  0
 19 45  1  0
 21 46  1  0
 21 47  1  0
 22 48  1  1
 23 49  1  0
 23 50  1  0
 23 51  1  0
 27 52  1  0
 28 53  1  0
 28 54  1  0
M  END
>  <Ligand ID>  (1) 
LIG0005298

>  <Ligand>  (1) 
CHEMBL2382412

>  <SMILES>  (1) 
N#Cc1cnccc1COc1cnc(nc1)N1CCN(C[C@H]1C)C(=O)OC1CC(C1(F)F)(F)F

>  <CID>  (1) 
73353419.0

>  <ChEMBL ID>  (1) 
nan

>  <InChiKey>  (1) 
DFBQZZNEWIABJW-FWJOYPJLSA-N

>  <InChi>  (1) 
InChI=1S/C21H20F4N6O3/c1-13-11-30(19(32)34-17-6-20(22,23)21(17,24)25)4-5-31(13)18-28-9-16(10-29-18)33-12-14-2-3-27-8-15(14)7-26/h2-3,8-10,13,17H,4-6,11-12H2,1H3/t13-,17?/m1/s1

>  <IUPAC Name>  (1) 
(2,2,3,3-tetrafluorocyclobutyl) (3R)-4-[5-[(3-cyanopyridin-4-yl)methoxy]pyrimidin-2-yl]-3-methylpiperazine-1-carboxylate

$$$$
