
     RDKit          3D

 22 22  0  0  0  0  0  0  0  0999 V2000
    2.3368   -1.4141   -0.8307 C   0  0  0  0  0  0  0  0  0  0  0  0
    1.1339   -0.6834   -0.4022 C   0  0  0  0  0  0  0  0  0  0  0  0
   -0.0969   -1.1473   -0.7230 N   0  0  0  0  0  0  0  0  0  0  0  0
   -1.2189   -0.4993   -0.3444 C   0  0  0  0  0  0  0  0  0  0  0  0
   -2.5508   -1.0324   -0.7111 C   0  0  0  0  0  0  0  0  0  0  0  0
   -1.1555    0.6670    0.3880 C   0  0  0  0  0  0  0  0  0  0  0  0
    0.0645    1.1484    0.7195 N   0  0  0  0  0  0  0  0  0  0  0  0
    1.1792    0.4969    0.3385 C   0  0  0  0  0  0  0  0  0  0  0  0
    2.5435    1.0197    0.6995 C   0  0  0  0  0  0  0  0  0  0  0  0
   -2.3286    1.4321    0.8387 C   0  0  0  0  0  0  0  0  0  0  0  0
    3.1303   -0.7450   -1.2493 H   0  0  0  0  0  0  0  0  0  0  0  0
    2.7789   -2.0639   -0.0463 H   0  0  0  0  0  0  0  0  0  0  0  0
    2.0680   -2.0866   -1.6688 H   0  0  0  0  0  0  0  0  0  0  0  0
   -2.9649   -1.5831    0.1763 H   0  0  0  0  0  0  0  0  0  0  0  0
   -3.2749   -0.2935   -1.0490 H   0  0  0  0  0  0  0  0  0  0  0  0
   -2.4581   -1.8399   -1.4925 H   0  0  0  0  0  0  0  0  0  0  0  0
    2.3882    1.7861    1.4968 H   0  0  0  0  0  0  0  0  0  0  0  0
    3.1737    0.2085    1.1458 H   0  0  0  0  0  0  0  0  0  0  0  0
    3.0530    1.4757   -0.1581 H   0  0  0  0  0  0  0  0  0  0  0  0
   -3.2626    1.2207    0.3171 H   0  0  0  0  0  0  0  0  0  0  0  0
   -2.4408    1.4259    1.9563 H   0  0  0  0  0  0  0  0  0  0  0  0
   -2.0979    2.5074    0.5988 H   0  0  0  0  0  0  0  0  0  0  0  0
  1  2  1  0
  2  3  2  0
  3  4  1  0
  4  5  1  0
  4  6  2  0
  6  7  1  0
  7  8  2  0
  8  9  1  0
  6 10  1  0
  8  2  1  0
  1 11  1  0
  1 12  1  0
  1 13  1  0
  5 14  1  0
  5 15  1  0
  5 16  1  0
  9 17  1  0
  9 18  1  0
  9 19  1  0
 10 20  1  0
 10 21  1  0
 10 22  1  0
M  END
>  <Ligand ID>  (1) 
LIG0000740

>  <Ligand>  (1) 
Ligustrazine

>  <SMILES>  (1) 
Cc1nc(C)c(nc1C)C

>  <CID>  (1) 
14296.0

>  <ChEMBL ID>  (1) 
nan

>  <InChiKey>  (1) 
FINHMKGKINIASC-UHFFFAOYSA-N

>  <InChi>  (1) 
InChI=1S/C8H12N2/c1-5-6(2)10-8(4)7(3)9-5/h1-4H3

>  <IUPAC Name>  (1) 
2,3,5,6-tetramethylpyrazine

$$$$
