
     RDKit          3D

 20 20  0  0  0  0  0  0  0  0999 V2000
   -2.5898    0.3837   -1.1124 C   0  0  0  0  0  0  0  0  0  0  0  0
   -1.1073    0.4095   -1.1849 C   0  0  0  0  0  0  0  0  0  0  0  0
   -0.4153    1.1187   -0.0696 C   0  0  0  0  0  0  0  0  0  0  0  0
    0.9912    1.0872   -0.2305 O   0  0  0  0  0  0  0  0  0  0  0  0
    1.4496   -0.0635    0.3915 C   0  0  0  0  0  0  0  0  0  0  0  0
    0.5856   -0.5004    1.2914 C   0  0  0  0  0  0  0  0  0  0  0  0
   -0.5421    0.4571    1.2509 C   0  0  0  0  0  0  0  0  0  0  0  0
   -1.4087    0.6591    2.1389 O   0  0  0  0  0  0  0  0  0  0  0  0
    0.6633   -1.6135    2.1269 O   0  0  0  0  0  0  0  0  0  0  0  0
    2.7569   -0.7322    0.0873 C   0  0  0  0  0  0  0  0  0  0  0  0
   -3.0173   -0.5294   -0.6532 H   0  0  0  0  0  0  0  0  0  0  0  0
   -2.9999    1.3088   -0.6162 H   0  0  0  0  0  0  0  0  0  0  0  0
   -2.9962    0.4058   -2.1454 H   0  0  0  0  0  0  0  0  0  0  0  0
   -0.7181   -0.6151   -1.2518 H   0  0  0  0  0  0  0  0  0  0  0  0
   -0.8005    0.9193   -2.1211 H   0  0  0  0  0  0  0  0  0  0  0  0
   -0.7087    2.1721    0.0489 H   0  0  0  0  0  0  0  0  0  0  0  0
    1.4634   -2.2239    1.9757 H   0  0  0  0  0  0  0  0  0  0  0  0
    3.3428   -0.9347    1.0292 H   0  0  0  0  0  0  0  0  0  0  0  0
    2.6484   -1.6731   -0.4597 H   0  0  0  0  0  0  0  0  0  0  0  0
    3.4027   -0.0353   -0.4960 H   0  0  0  0  0  0  0  0  0  0  0  0
  1  2  1  0
  2  3  1  0
  3  4  1  0
  4  5  1  0
  5  6  2  0
  6  7  1  0
  7  8  2  0
  6  9  1  0
  5 10  1  0
  7  3  1  0
  1 11  1  0
  1 12  1  0
  1 13  1  0
  2 14  1  0
  2 15  1  0
  3 16  1  0
  9 17  1  0
 10 18  1  0
 10 19  1  0
 10 20  1  0
M  END
>  <Ligand ID>  (1) 
LIG0002064

>  <Ligand>  (1) 
2-ethyl-4-hydroxy-5-methylfuran-3-one

>  <SMILES>  (1) 
CCC1OC(=C(C1=O)O)C

>  <CID>  (1) 
33931.0

>  <ChEMBL ID>  (1) 
nan

>  <InChiKey>  (1) 
GWCRPYGYVRXVLI-UHFFFAOYSA-N

>  <InChi>  (1) 
InChI=1S/C7H10O3/c1-3-5-7(9)6(8)4(2)10-5/h5,8H,3H2,1-2H3

>  <IUPAC Name>  (1) 
2-ethyl-4-hydroxy-5-methylfuran-3-one

$$$$
