
     RDKit          3D

 62 65  0  0  0  0  0  0  0  0999 V2000
    6.5666   -3.8812   -4.5096 C   0  0  0  0  0  0  0  0  0  0  0  0
    5.4587   -4.1538   -3.6752 O   0  0  0  0  0  0  0  0  0  0  0  0
    4.8785   -3.2535   -2.8078 C   0  0  0  0  0  0  0  0  0  0  0  0
    5.3339   -1.9701   -2.6675 C   0  0  0  0  0  0  0  0  0  0  0  0
    4.7317   -1.0911   -1.7890 C   0  0  0  0  0  0  0  0  0  0  0  0
    3.6398   -1.4972   -1.0221 C   0  0  0  0  0  0  0  0  0  0  0  0
    3.1675   -2.7866   -1.1507 C   0  0  0  0  0  0  0  0  0  0  0  0
    3.8057   -3.6433   -2.0507 C   0  0  0  0  0  0  0  0  0  0  0  0
    3.0598   -0.5006   -0.1097 C   0  0  0  0  0  0  0  0  0  0  0  0
    1.9573    0.3106   -0.7680 C   0  0  0  0  0  0  0  0  0  0  0  0
    1.4109    1.2846    0.1544 N   0  0  0  0  0  0  0  0  0  0  0  0
    1.8532    2.4935    0.0774 C   0  0  0  0  0  0  0  0  0  0  0  0
    1.2903    3.4255    1.0046 N   0  0  0  0  0  0  0  0  0  0  0  0
   -0.0620    3.4351    1.3907 C   0  0  0  0  0  0  0  0  0  0  0  0
   -0.4340    4.3783    2.3628 C   0  0  0  0  0  0  0  0  0  0  0  0
   -1.7289    4.4848    2.8134 C   0  0  0  0  0  0  0  0  0  0  0  0
   -2.6937    3.6297    2.2864 C   0  0  0  0  0  0  0  0  0  0  0  0
   -2.3739    2.6892    1.3307 C   0  0  0  0  0  0  0  0  0  0  0  0
   -1.0457    2.6346    0.9188 C   0  0  0  0  0  0  0  0  0  0  0  0
   -3.5659    1.9339    0.9570 C   0  0  1  0  0  0  0  0  0  0  0  0
   -3.5590    0.5449    1.3758 N   0  0  0  0  0  0  0  0  0  0  0  0
   -3.7567   -0.4962    0.4366 C   0  0  0  0  0  0  0  0  0  0  0  0
   -3.9398   -0.2041   -0.7682 O   0  0  0  0  0  0  0  0  0  0  0  0
   -3.7570   -1.9035    0.8125 C   0  0  0  0  0  0  0  0  0  0  0  0
   -3.9810   -2.8332   -0.1917 C   0  0  0  0  0  0  0  0  0  0  0  0
   -3.9859   -4.1818    0.1320 C   0  0  0  0  0  0  0  0  0  0  0  0
   -3.7753   -4.6258    1.4191 C   0  0  0  0  0  0  0  0  0  0  0  0
   -3.5559   -3.6865    2.3942 C   0  0  0  0  0  0  0  0  0  0  0  0
   -3.5466   -2.3496    2.0984 C   0  0  0  0  0  0  0  0  0  0  0  0
   -3.7780   -6.4579    1.8797 Br  0  0  0  0  0  0  0  0  0  0  0  0
   -4.7321    2.6792    1.5605 C   0  0  1  0  0  0  0  0  0  0  0  0
   -4.1249    3.5576    2.6096 C   0  0  0  0  0  0  0  0  0  0  0  0
   -5.4393    3.4086    0.6089 O   0  0  0  0  0  0  0  0  0  0  0  0
    2.8833    2.9323   -0.8978 C   0  0  0  0  0  0  0  0  0  0  0  0
    7.1338   -4.8384   -4.7052 H   0  0  0  0  0  0  0  0  0  0  0  0
    7.2419   -3.1031   -4.0998 H   0  0  0  0  0  0  0  0  0  0  0  0
    6.2466   -3.5321   -5.5167 H   0  0  0  0  0  0  0  0  0  0  0  0
    6.1754   -1.5971   -3.2348 H   0  0  0  0  0  0  0  0  0  0  0  0
    5.1126   -0.0763   -1.6958 H   0  0  0  0  0  0  0  0  0  0  0  0
    2.3177   -3.1062   -0.5563 H   0  0  0  0  0  0  0  0  0  0  0  0
    3.4182   -4.6406   -2.1304 H   0  0  0  0  0  0  0  0  0  0  0  0
    2.5403   -1.0728    0.7068 H   0  0  0  0  0  0  0  0  0  0  0  0
    3.7928    0.1484    0.3974 H   0  0  0  0  0  0  0  0  0  0  0  0
    1.1358   -0.3695   -1.0999 H   0  0  0  0  0  0  0  0  0  0  0  0
    2.2880    0.8242   -1.6900 H   0  0  0  0  0  0  0  0  0  0  0  0
    1.9707    4.1422    1.4028 H   0  0  0  0  0  0  0  0  0  0  0  0
    0.3031    5.0523    2.7842 H   0  0  0  0  0  0  0  0  0  0  0  0
   -1.9812    5.2312    3.5720 H   0  0  0  0  0  0  0  0  0  0  0  0
   -0.8215    1.8960    0.1680 H   0  0  0  0  0  0  0  0  0  0  0  0
   -3.7295    1.9520   -0.1408 H   0  0  0  0  0  0  0  0  0  0  0  0
   -3.4055    0.3323    2.3864 H   0  0  0  0  0  0  0  0  0  0  0  0
   -4.1537   -2.5614   -1.2237 H   0  0  0  0  0  0  0  0  0  0  0  0
   -4.1644   -4.9003   -0.6681 H   0  0  0  0  0  0  0  0  0  0  0  0
   -3.3820   -3.9813    3.4353 H   0  0  0  0  0  0  0  0  0  0  0  0
   -3.3730   -1.6379    2.8836 H   0  0  0  0  0  0  0  0  0  0  0  0
   -5.4070    1.9616    2.1067 H   0  0  0  0  0  0  0  0  0  0  0  0
   -4.3035    3.1718    3.6508 H   0  0  0  0  0  0  0  0  0  0  0  0
   -4.6259    4.5636    2.5192 H   0  0  0  0  0  0  0  0  0  0  0  0
   -6.1513    2.7905    0.2655 H   0  0  0  0  0  0  0  0  0  0  0  0
    3.7798    2.2786   -0.7034 H   0  0  0  0  0  0  0  0  0  0  0  0
    3.2300    3.9534   -0.6445 H   0  0  0  0  0  0  0  0  0  0  0  0
    2.6102    2.8125   -1.9445 H   0  0  0  0  0  0  0  0  0  0  0  0
  1  2  1  0
  2  3  1  0
  3  4  2  0
  4  5  1  0
  5  6  2  0
  6  7  1  0
  7  8  2  0
  6  9  1  0
  9 10  1  0
 10 11  1  0
 11 12  2  3
 12 13  1  0
 13 14  1  0
 14 15  2  0
 15 16  1  0
 16 17  2  0
 17 18  1  0
 18 19  2  0
 18 20  1  0
 20 21  1  0
 21 22  1  0
 22 23  2  0
 22 24  1  0
 24 25  2  0
 25 26  1  0
 26 27  2  0
 27 28  1  0
 28 29  2  0
 27 30  1  0
 20 31  1  0
 31 32  1  0
 31 33  1  0
 12 34  1  0
  8  3  1  0
 19 14  1  0
 29 24  1  0
 32 17  1  0
  1 35  1  0
  1 36  1  0
  1 37  1  0
  4 38  1  0
  5 39  1  0
  7 40  1  0
  8 41  1  0
  9 42  1  0
  9 43  1  0
 10 44  1  0
 10 45  1  0
 13 46  1  0
 15 47  1  0
 16 48  1  0
 19 49  1  0
 20 50  1  6
 21 51  1  0
 25 52  1  0
 26 53  1  0
 28 54  1  0
 29 55  1  0
 31 56  1  1
 32 57  1  0
 32 58  1  0
 33 59  1  0
 34 60  1  0
 34 61  1  0
 34 62  1  0
M  END
>  <Ligand ID>  (1) 
LIG0003264

>  <Ligand>  (1) 
CHEMBL3616497

>  <SMILES>  (1) 
COc1ccc(cc1)CCN=C(Nc1ccc2c(c1)[C@@H](NC(=O)c1ccc(cc1)Br)[C@@H](C2)O)C

>  <CID>  (1) 
122191004.0

>  <ChEMBL ID>  (1) 
nan

>  <InChiKey>  (1) 
HIAHAOIBWTWJRB-CLJLJLNGSA-N

>  <InChi>  (1) 
InChI=1S/C27H28BrN3O3/c1-17(29-14-13-18-3-11-23(34-2)12-4-18)30-22-10-7-20-15-25(32)26(24(20)16-22)31-27(33)19-5-8-21(28)9-6-19/h3-12,16,25-26,32H,13-15H2,1-2H3,(H,29,30)(H,31,33)/t25-,26-/m1/s1

>  <IUPAC Name>  (1) 
4-bromo-N-[(1R,2R)-2-hydroxy-6-[[N-[2-(4-methoxyphenyl)ethyl]-C-methylcarbonimidoyl]amino]-2,3-dihydro-1H-inden-1-yl]benzamide

$$$$
