
     RDKit          3D

 45 46  0  0  0  0  0  0  0  0999 V2000
    5.1868   -1.6589   -0.6345 C   0  0  0  0  0  0  0  0  0  0  0  0
    4.2292   -1.6392    0.2857 C   0  0  0  0  0  0  0  0  0  0  0  0
    2.7877   -1.9026   -0.0472 C   0  0  0  0  0  0  0  0  0  0  0  0
    1.9715   -0.7549    0.2989 N   0  0  0  0  0  0  0  0  0  0  0  0
    2.2720    0.3420   -0.5568 C   0  0  0  0  0  0  0  0  0  0  0  0
    1.9453    1.6934    0.0591 C   0  0  0  0  0  0  0  0  0  0  0  0
    0.4689    1.9301    0.0223 C   0  0  0  0  0  0  0  0  0  0  0  0
   -0.5141    0.9730   -0.2445 C   0  0  0  0  0  0  0  0  0  0  0  0
   -0.3190   -0.4437   -0.5422 C   0  0  0  0  0  0  0  0  0  0  0  0
    0.6177   -1.1662    0.3839 C   0  0  0  0  0  0  0  0  0  0  0  0
   -1.6141   -1.1704   -0.4946 C   0  0  0  0  0  0  0  0  0  0  0  0
   -2.3761   -1.3918   -1.6523 C   0  0  0  0  0  0  0  0  0  0  0  0
   -3.5653   -2.0517   -1.6425 C   0  0  0  0  0  0  0  0  0  0  0  0
   -4.0837   -2.5427   -0.4657 C   0  0  0  0  0  0  0  0  0  0  0  0
   -3.3740   -2.3502    0.6899 C   0  0  0  0  0  0  0  0  0  0  0  0
   -2.1584   -1.6735    0.6689 C   0  0  0  0  0  0  0  0  0  0  0  0
   -1.8166    1.4186   -0.2251 C   0  0  0  0  0  0  0  0  0  0  0  0
   -2.1369    2.7335    0.0418 C   0  0  0  0  0  0  0  0  0  0  0  0
   -1.1494    3.6545    0.3010 C   0  0  0  0  0  0  0  0  0  0  0  0
    0.1503    3.2452    0.2899 C   0  0  0  0  0  0  0  0  0  0  0  0
   -1.5388    4.9532    0.5600 O   0  0  0  0  0  0  0  0  0  0  0  0
   -3.4761    3.1031    0.0426 O   0  0  0  0  0  0  0  0  0  0  0  0
    0.6844    0.0000    0.0000 Cl  0  0  0  0  0  0  0  0  0  0  0  0
    4.8793   -1.8786   -1.6616 H   0  0  0  0  0  0  0  0  0  0  0  0
    6.1911   -1.4615   -0.3304 H   0  0  0  0  0  0  0  0  0  0  0  0
    4.4432   -1.4300    1.3309 H   0  0  0  0  0  0  0  0  0  0  0  0
    2.5031   -2.8148    0.5035 H   0  0  0  0  0  0  0  0  0  0  0  0
    2.6750   -2.1293   -1.1304 H   0  0  0  0  0  0  0  0  0  0  0  0
    1.8546    0.3090   -1.5609 H   0  0  0  0  0  0  0  0  0  0  0  0
    3.3924    0.3565   -0.6912 H   0  0  0  0  0  0  0  0  0  0  0  0
    2.2994    1.7398    1.1006 H   0  0  0  0  0  0  0  0  0  0  0  0
    2.4773    2.4600   -0.5366 H   0  0  0  0  0  0  0  0  0  0  0  0
    0.0238   -0.5606   -1.6168 H   0  0  0  0  0  0  0  0  0  0  0  0
    0.4819   -2.2622    0.1913 H   0  0  0  0  0  0  0  0  0  0  0  0
    0.2711   -0.9784    1.4310 H   0  0  0  0  0  0  0  0  0  0  0  0
   -1.9866   -1.0182   -2.5724 H   0  0  0  0  0  0  0  0  0  0  0  0
   -4.1406   -2.2116   -2.5486 H   0  0  0  0  0  0  0  0  0  0  0  0
   -5.0215   -3.0744   -0.3886 H   0  0  0  0  0  0  0  0  0  0  0  0
   -3.7575   -2.7251    1.6286 H   0  0  0  0  0  0  0  0  0  0  0  0
   -1.6575   -1.5591    1.6096 H   0  0  0  0  0  0  0  0  0  0  0  0
   -2.6135    0.7191   -0.4219 H   0  0  0  0  0  0  0  0  0  0  0  0
    0.9399    3.9627    0.4946 H   0  0  0  0  0  0  0  0  0  0  0  0
   -0.8689    5.6964    0.4539 H   0  0  0  0  0  0  0  0  0  0  0  0
   -3.8930    3.5592    0.8316 H   0  0  0  0  0  0  0  0  0  0  0  0
   -0.6844    0.0000    0.0000 H   0  0  0  0  0  0  0  0  0  0  0  0
  1  2  2  0
  2  3  1  0
  3  4  1  0
  4  5  1  0
  5  6  1  0
  6  7  1  0
  7  8  2  0
  8  9  1  0
  9 10  1  0
  9 11  1  0
 11 12  2  0
 12 13  1  0
 13 14  2  0
 14 15  1  0
 15 16  2  0
  8 17  1  0
 17 18  2  0
 18 19  1  0
 19 20  2  0
 19 21  1  0
 18 22  1  0
 10  4  1  0
 16 11  1  0
 20  7  1  0
  1 24  1  0
  1 25  1  0
  2 26  1  0
  3 27  1  0
  3 28  1  0
  5 29  1  0
  5 30  1  0
  6 31  1  0
  6 32  1  0
  9 33  1  0
 10 34  1  0
 10 35  1  0
 12 36  1  0
 13 37  1  0
 14 38  1  0
 15 39  1  0
 16 40  1  0
 17 41  1  0
 20 42  1  0
 21 43  1  0
 22 44  1  0
 23 45  1  0
M  END
>  <Ligand ID>  (1) 
LIG0005640

>  <Ligand>  (1) 
CHEMBL552611

>  <SMILES>  (1) 
C=CCN1CCc2c(C(C1)c1ccccc1)cc(c(c2)O)O.Cl

>  <CID>  (1) 
13720692.0

>  <ChEMBL ID>  (1) 
nan

>  <InChiKey>  (1) 
YAEZFDKWOWTEDU-UHFFFAOYSA-N

>  <InChi>  (1) 
InChI=1S/C19H21NO2.ClH/c1-2-9-20-10-8-15-11-18(21)19(22)12-16(15)17(13-20)14-6-4-3-5-7-14;/h2-7,11-12,17,21-22H,1,8-10,13H2;1H

>  <IUPAC Name>  (1) 
5-phenyl-3-prop-2-enyl-1,2,4,5-tetrahydro-3-benzazepine-7,8-diol;hydrochloride

$$$$
