
     RDKit          3D

 95 98  0  0  0  0  0  0  0  0999 V2000
   -5.0125    1.5949   -1.4191 C   0  0  0  0  0  0  0  0  0  0  0  0
   -4.2896    0.2797   -1.4240 C   0  0  0  0  0  0  0  0  0  0  0  0
   -3.3871    0.1551   -2.2838 O   0  0  0  0  0  0  0  0  0  0  0  0
   -4.6398   -0.7406   -0.4896 N   0  0  0  0  0  0  0  0  0  0  0  0
   -4.0465   -2.0248   -0.3990 C   0  0  2  0  0  0  0  0  0  0  0  0
   -2.9442   -2.1676    0.5614 C   0  0  0  0  0  0  0  0  0  0  0  0
   -2.3795   -3.2853    0.7220 O   0  0  0  0  0  0  0  0  0  0  0  0
   -2.5540   -0.9983    1.2860 N   0  0  0  0  0  0  0  0  0  0  0  0
   -1.4993   -0.9603    2.2556 C   0  0  1  0  0  0  0  0  0  0  0  0
   -0.3518   -0.1295    1.7974 C   0  0  0  0  0  0  0  0  0  0  0  0
    0.6232    0.0506    2.5654 O   0  0  0  0  0  0  0  0  0  0  0  0
   -0.4303    0.4254    0.4827 N   0  0  0  0  0  0  0  0  0  0  0  0
    0.6477    1.2626   -0.0608 C   0  0  2  0  0  0  0  0  0  0  0  0
    1.9332    0.5714   -0.1509 C   0  0  0  0  0  0  0  0  0  0  0  0
    2.9695    1.2345   -0.5070 O   0  0  0  0  0  0  0  0  0  0  0  0
    2.1634   -0.7998    0.1203 N   0  0  0  0  0  0  0  0  0  0  0  0
    3.4670   -1.4148    0.0141 C   0  0  2  0  0  0  0  0  0  0  0  0
    3.3690   -2.3690   -1.1530 C   0  0  0  0  0  0  0  0  0  0  0  0
    4.3527   -3.0631   -1.5181 O   0  0  0  0  0  0  0  0  0  0  0  0
    2.1644   -2.5273   -1.8911 N   0  0  0  0  0  0  0  0  0  0  0  0
    3.8442   -2.2398    1.1890 C   0  0  0  0  0  0  0  0  0  0  0  0
    5.1948   -2.8341    1.0194 C   0  0  0  0  0  0  0  0  0  0  0  0
    5.5642   -4.1267    0.7132 C   0  0  0  0  0  0  0  0  0  0  0  0
    6.9264   -4.1667    0.6767 N   0  0  0  0  0  0  0  0  0  0  0  0
    7.3947   -2.9302    0.9531 C   0  0  0  0  0  0  0  0  0  0  0  0
    6.3513   -2.0699    1.1728 C   0  0  0  0  0  0  0  0  0  0  0  0
    6.5540   -0.7249    1.4798 C   0  0  0  0  0  0  0  0  0  0  0  0
    7.8266   -0.2090    1.5735 C   0  0  0  0  0  0  0  0  0  0  0  0
    8.8994   -1.0655    1.3537 C   0  0  0  0  0  0  0  0  0  0  0  0
    8.6772   -2.3999    1.0498 C   0  0  0  0  0  0  0  0  0  0  0  0
    0.6474    2.5744    0.6402 C   0  0  0  0  0  0  0  0  0  0  0  0
    1.6872    3.5612    0.1894 C   0  0  0  0  0  0  0  0  0  0  0  0
    1.4729    3.8681   -1.2732 C   0  0  0  0  0  0  0  0  0  0  0  0
    2.4976    4.8251   -1.6778 N   0  0  0  0  0  0  0  0  0  0  0  0
    2.1668    5.6217   -2.6624 C   0  0  0  0  0  0  0  0  0  0  0  0
    0.8929    5.5566   -3.2945 N   0  0  0  0  0  0  0  0  0  0  0  0
    3.0825    6.6067   -3.1538 N   0  0  0  0  0  0  0  0  0  0  0  0
   -2.0459   -0.5150    3.5764 C   0  0  0  0  0  0  0  0  0  0  0  0
   -2.6320    0.8371    3.4185 C   0  0  0  0  0  0  0  0  0  0  0  0
   -3.9696    1.0382    3.0737 C   0  0  0  0  0  0  0  0  0  0  0  0
   -4.5176    2.2856    2.9281 C   0  0  0  0  0  0  0  0  0  0  0  0
   -3.7586    3.4115    3.1189 C   0  0  0  0  0  0  0  0  0  0  0  0
   -2.4333    3.2518    3.4602 C   0  0  0  0  0  0  0  0  0  0  0  0
   -1.8956    2.0035    3.6034 C   0  0  0  0  0  0  0  0  0  0  0  0
   -3.7514   -2.7191   -1.7207 C   0  0  0  0  0  0  0  0  0  0  0  0
   -4.9737   -2.9595   -2.4791 C   0  0  0  0  0  0  0  0  0  0  0  0
   -5.5276   -2.1671   -3.4459 C   0  0  0  0  0  0  0  0  0  0  0  0
   -6.7164   -2.4974   -4.0958 C   0  0  0  0  0  0  0  0  0  0  0  0
   -7.3558   -3.6483   -3.7626 N   0  0  0  0  0  0  0  0  0  0  0  0
   -6.8565   -4.4571   -2.8250 C   0  0  0  0  0  0  0  0  0  0  0  0
   -5.6833   -4.1357   -2.1802 C   0  0  0  0  0  0  0  0  0  0  0  0
   -4.4044    2.4036   -1.8449 H   0  0  0  0  0  0  0  0  0  0  0  0
   -5.9812    1.5450   -1.9367 H   0  0  0  0  0  0  0  0  0  0  0  0
   -5.1901    1.8436   -0.3434 H   0  0  0  0  0  0  0  0  0  0  0  0
   -5.4235   -0.4631    0.1822 H   0  0  0  0  0  0  0  0  0  0  0  0
   -4.8954   -2.6975   -0.0099 H   0  0  0  0  0  0  0  0  0  0  0  0
   -3.0661   -0.1034    1.1026 H   0  0  0  0  0  0  0  0  0  0  0  0
   -1.0624   -1.9967    2.3784 H   0  0  0  0  0  0  0  0  0  0  0  0
   -1.2985    0.2113   -0.0909 H   0  0  0  0  0  0  0  0  0  0  0  0
    0.3053    1.4993   -1.1183 H   0  0  0  0  0  0  0  0  0  0  0  0
    1.3558   -1.3965    0.4020 H   0  0  0  0  0  0  0  0  0  0  0  0
    4.1876   -0.6329   -0.2474 H   0  0  0  0  0  0  0  0  0  0  0  0
    1.3836   -3.0865   -1.4750 H   0  0  0  0  0  0  0  0  0  0  0  0
    2.0633   -2.0902   -2.8330 H   0  0  0  0  0  0  0  0  0  0  0  0
    3.1583   -3.1272    1.3055 H   0  0  0  0  0  0  0  0  0  0  0  0
    3.8521   -1.6206    2.1017 H   0  0  0  0  0  0  0  0  0  0  0  0
    4.8518   -4.9113    0.5477 H   0  0  0  0  0  0  0  0  0  0  0  0
    7.4991   -5.0091    0.4709 H   0  0  0  0  0  0  0  0  0  0  0  0
    5.7083   -0.0536    1.6524 H   0  0  0  0  0  0  0  0  0  0  0  0
    7.9409    0.8269    1.8123 H   0  0  0  0  0  0  0  0  0  0  0  0
    9.9119   -0.6868    1.4209 H   0  0  0  0  0  0  0  0  0  0  0  0
    9.4936   -3.0912    0.8732 H   0  0  0  0  0  0  0  0  0  0  0  0
    0.8004    2.4252    1.7324 H   0  0  0  0  0  0  0  0  0  0  0  0
   -0.3324    3.1016    0.5511 H   0  0  0  0  0  0  0  0  0  0  0  0
    1.4184    4.5243    0.7223 H   0  0  0  0  0  0  0  0  0  0  0  0
    2.7123    3.3340    0.4741 H   0  0  0  0  0  0  0  0  0  0  0  0
    0.4858    4.4180   -1.3237 H   0  0  0  0  0  0  0  0  0  0  0  0
    1.4439    2.9911   -1.9121 H   0  0  0  0  0  0  0  0  0  0  0  0
    0.0432    5.8922   -2.7664 H   0  0  0  0  0  0  0  0  0  0  0  0
    0.7611    5.1842   -4.2764 H   0  0  0  0  0  0  0  0  0  0  0  0
    3.6306    6.4123   -4.0159 H   0  0  0  0  0  0  0  0  0  0  0  0
    3.1846    7.5182   -2.6287 H   0  0  0  0  0  0  0  0  0  0  0  0
   -1.2921   -0.5511    4.3894 H   0  0  0  0  0  0  0  0  0  0  0  0
   -2.8780   -1.2367    3.8180 H   0  0  0  0  0  0  0  0  0  0  0  0
   -4.6165    0.1918    2.9103 H   0  0  0  0  0  0  0  0  0  0  0  0
   -5.5695    2.4508    2.6581 H   0  0  0  0  0  0  0  0  0  0  0  0
   -4.1154    4.4234    3.0234 H   0  0  0  0  0  0  0  0  0  0  0  0
   -1.8027    4.1320    3.6190 H   0  0  0  0  0  0  0  0  0  0  0  0
   -0.8490    1.9448    3.8753 H   0  0  0  0  0  0  0  0  0  0  0  0
   -2.9590   -2.1979   -2.2916 H   0  0  0  0  0  0  0  0  0  0  0  0
   -3.3056   -3.6947   -1.4403 H   0  0  0  0  0  0  0  0  0  0  0  0
   -5.0614   -1.2685   -3.7439 H   0  0  0  0  0  0  0  0  0  0  0  0
   -7.1143   -1.8356   -4.8554 H   0  0  0  0  0  0  0  0  0  0  0  0
   -7.3932   -5.3746   -2.5792 H   0  0  0  0  0  0  0  0  0  0  0  0
   -5.2996   -4.8171   -1.4177 H   0  0  0  0  0  0  0  0  0  0  0  0
  1  2  1  0
  2  3  2  0
  2  4  1  0
  4  5  1  0
  5  6  1  0
  6  7  2  0
  6  8  1  0
  8  9  1  0
  9 10  1  0
 10 11  2  0
 10 12  1  0
 12 13  1  0
 13 14  1  0
 14 15  2  0
 14 16  1  0
 16 17  1  0
 17 18  1  0
 18 19  2  0
 18 20  1  0
 17 21  1  0
 21 22  1  0
 22 23  2  0
 23 24  1  0
 24 25  1  0
 25 26  2  0
 26 27  1  0
 27 28  2  0
 28 29  1  0
 29 30  2  0
 13 31  1  0
 31 32  1  0
 32 33  1  0
 33 34  1  0
 34 35  2  3
 35 36  1  0
 35 37  1  0
  9 38  1  0
 38 39  1  0
 39 40  2  0
 40 41  1  0
 41 42  2  0
 42 43  1  0
 43 44  2  0
  5 45  1  0
 45 46  1  0
 46 47  2  0
 47 48  1  0
 48 49  2  0
 49 50  1  0
 50 51  2  0
 26 22  1  0
 44 39  1  0
 51 46  1  0
 30 25  1  0
  1 52  1  0
  1 53  1  0
  1 54  1  0
  4 55  1  0
  5 56  1  1
  8 57  1  0
  9 58  1  1
 12 59  1  0
 13 60  1  6
 16 61  1  0
 17 62  1  6
 20 63  1  0
 20 64  1  0
 21 65  1  0
 21 66  1  0
 23 67  1  0
 24 68  1  0
 27 69  1  0
 28 70  1  0
 29 71  1  0
 30 72  1  0
 31 73  1  0
 31 74  1  0
 32 75  1  0
 32 76  1  0
 33 77  1  0
 33 78  1  0
 36 79  1  0
 36 80  1  0
 37 81  1  0
 37 82  1  0
 38 83  1  0
 38 84  1  0
 40 85  1  0
 41 86  1  0
 42 87  1  0
 43 88  1  0
 44 89  1  0
 45 90  1  0
 45 91  1  0
 47 92  1  0
 48 93  1  0
 50 94  1  0
 51 95  1  0
M  END
>  <Ligand ID>  (1) 
LIG0001398

>  <Ligand>  (1) 
CHEMBL317968

>  <SMILES>  (1) 
CC(=O)N[C@H](C(=O)N[C@@H](C(=O)N[C@H](C(=O)N[C@H](C(=O)N)Cc1c[nH]c2c1cccc2)CCCN=C(N)N)Cc1ccccc1)Cc1ccncc1

>  <CID>  (1) 
11966921.0

>  <ChEMBL ID>  (1) 
nan

>  <InChiKey>  (1) 
JXXVTKYSEJEATG-XHPANXIASA-N

>  <InChi>  (1) 
InChI=1S/C36H44N10O5/c1-22(47)43-30(19-24-13-16-40-17-14-24)34(50)46-31(18-23-8-3-2-4-9-23)35(51)44-28(12-7-15-41-36(38)39)33(49)45-29(32(37)48)20-25-21-42-27-11-6-5-10-26(25)27/h2-6,8-11,13-14,16-17,21,28-31,42H,7,12,15,18-20H2,1H3,(H2,37,48)(H,43,47)(H,44,51)(H,45,49)(H,46,50)(H4,38,39,41)/t28-,29-,30-,31+/m0/s1

>  <IUPAC Name>  (1) 
(2S)-2-[[(2R)-2-[[(2S)-2-acetamido-3-pyridin-4-ylpropanoyl]amino]-3-phenylpropanoyl]amino]-N-[(2S)-1-amino-3-(1H-indol-3-yl)-1-oxopropan-2-yl]-5-(diaminomethylideneamino)pentanamide

$$$$
