
     RDKit          3D

 81 82  0  0  0  0  0  0  0  0999 V2000
   11.7211    0.4506   -0.5851 O   0  0  0  0  0  0  0  0  0  0  0  0
   11.2199   -0.4741    0.2951 C   0  0  0  0  0  0  0  0  0  0  0  0
    9.7301   -0.5183    0.1649 C   0  0  0  0  0  0  0  0  0  0  0  0
    8.9250    0.0838    1.1341 C   0  0  0  0  0  0  0  0  0  0  0  0
    7.5530    0.0431    1.0276 C   0  0  0  0  0  0  0  0  0  0  0  0
    6.9942   -0.6018   -0.0514 C   0  0  0  0  0  0  0  0  0  0  0  0
    7.7974   -1.2059   -1.0245 C   0  0  0  0  0  0  0  0  0  0  0  0
    9.1711   -1.1635   -0.9153 C   0  0  0  0  0  0  0  0  0  0  0  0
   10.0238   -1.7473   -1.8538 O   0  0  0  0  0  0  0  0  0  0  0  0
    6.7702    0.7091    2.0937 C   0  0  2  0  0  0  0  0  0  0  0  0
    5.2610    0.6336    1.8564 C   0  0  0  0  0  0  0  0  0  0  0  0
    4.8358    1.4092    0.7626 N   0  0  0  0  0  0  0  0  0  0  0  0
    3.4786    1.4725    0.3947 C   0  0  0  0  0  0  0  0  0  0  0  0
    2.7857    0.3583   -0.2737 C   0  0  0  0  0  0  0  0  0  0  0  0
    2.7033   -0.9765    0.3590 C   0  0  0  0  0  0  0  0  0  0  0  0
    1.8503   -1.9455   -0.4762 C   0  0  0  0  0  0  0  0  0  0  0  0
    0.4332   -1.4702   -0.6442 C   0  0  0  0  0  0  0  0  0  0  0  0
   -0.2049   -1.3297    0.6987 C   0  0  0  0  0  0  0  0  0  0  0  0
   -1.5222   -0.9363    0.6680 O   0  0  0  0  0  0  0  0  0  0  0  0
   -1.6566    0.2866    0.0582 C   0  0  0  0  0  0  0  0  0  0  0  0
   -3.1388    0.7194    0.0570 C   0  0  0  0  0  0  0  0  0  0  0  0
   -3.1914    2.0630   -0.6305 C   0  0  0  0  0  0  0  0  0  0  0  0
   -4.6260    2.5644   -0.6624 C   0  0  0  0  0  0  0  0  0  0  0  0
   -5.4283    1.5689   -1.4175 C   0  0  0  0  0  0  0  0  0  0  0  0
   -5.6253    1.6904   -2.7833 C   0  0  0  0  0  0  0  0  0  0  0  0
   -6.3742    0.7520   -3.4906 C   0  0  0  0  0  0  0  0  0  0  0  0
   -6.9126   -0.3012   -2.7868 C   0  0  0  0  0  0  0  0  0  0  0  0
   -6.7460   -0.4672   -1.4312 C   0  0  0  0  0  0  0  0  0  0  0  0
   -6.0020    0.4770   -0.7654 C   0  0  0  0  0  0  0  0  0  0  0  0
   -7.4723   -1.8513   -0.6650 S   0  0  0  0  0  0  0  0  0  0  0  0
   -7.4936   -2.9886   -1.6363 O   0  0  0  0  0  0  0  0  0  0  0  0
   -6.6556   -2.2848    0.5214 O   0  0  0  0  0  0  0  0  0  0  0  0
   -9.0555   -1.5043   -0.1186 N   0  0  0  0  0  0  0  0  0  0  0  0
   -9.0909   -0.4611    0.8654 C   0  0  0  0  0  0  0  0  0  0  0  0
   -9.7015   -0.9818    2.1383 C   0  0  0  0  0  0  0  0  0  0  0  0
   -9.9522    0.6832    0.3675 C   0  0  0  0  0  0  0  0  0  0  0  0
    7.1866    2.0001    2.3546 O   0  0  0  0  0  0  0  0  0  0  0  0
   12.2019    1.1848   -0.1038 H   0  0  0  0  0  0  0  0  0  0  0  0
   11.4770   -0.1540    1.3394 H   0  0  0  0  0  0  0  0  0  0  0  0
   11.6574   -1.4865    0.1673 H   0  0  0  0  0  0  0  0  0  0  0  0
    9.4543    0.5687    1.9484 H   0  0  0  0  0  0  0  0  0  0  0  0
    5.9205   -0.6403   -0.1495 H   0  0  0  0  0  0  0  0  0  0  0  0
    7.3357   -1.7166   -1.8814 H   0  0  0  0  0  0  0  0  0  0  0  0
   10.3949   -2.6666   -1.6122 H   0  0  0  0  0  0  0  0  0  0  0  0
    7.0216    0.1247    3.0334 H   0  0  0  0  0  0  0  0  0  0  0  0
    4.8448    1.1683    2.7855 H   0  0  0  0  0  0  0  0  0  0  0  0
    4.9033   -0.3795    1.8513 H   0  0  0  0  0  0  0  0  0  0  0  0
    5.3185    2.3259    0.6497 H   0  0  0  0  0  0  0  0  0  0  0  0
    3.3783    2.3944   -0.2912 H   0  0  0  0  0  0  0  0  0  0  0  0
    2.8569    1.8543    1.2912 H   0  0  0  0  0  0  0  0  0  0  0  0
    1.7022    0.6765   -0.4738 H   0  0  0  0  0  0  0  0  0  0  0  0
    3.1539    0.1978   -1.3337 H   0  0  0  0  0  0  0  0  0  0  0  0
    3.7486   -1.4408    0.3760 H   0  0  0  0  0  0  0  0  0  0  0  0
    2.3373   -1.0220    1.3894 H   0  0  0  0  0  0  0  0  0  0  0  0
    2.3930   -2.0948   -1.4154 H   0  0  0  0  0  0  0  0  0  0  0  0
    1.8574   -2.9126    0.0725 H   0  0  0  0  0  0  0  0  0  0  0  0
   -0.1126   -2.3095   -1.1580 H   0  0  0  0  0  0  0  0  0  0  0  0
    0.3633   -0.6126   -1.3094 H   0  0  0  0  0  0  0  0  0  0  0  0
    0.3754   -0.5662    1.2717 H   0  0  0  0  0  0  0  0  0  0  0  0
   -0.0761   -2.2975    1.2667 H   0  0  0  0  0  0  0  0  0  0  0  0
   -1.3854    0.3073   -1.0181 H   0  0  0  0  0  0  0  0  0  0  0  0
   -1.1368    1.1091    0.6119 H   0  0  0  0  0  0  0  0  0  0  0  0
   -3.5159    0.7311    1.0799 H   0  0  0  0  0  0  0  0  0  0  0  0
   -3.6244   -0.0760   -0.5812 H   0  0  0  0  0  0  0  0  0  0  0  0
   -2.8373    1.8907   -1.6656 H   0  0  0  0  0  0  0  0  0  0  0  0
   -2.5297    2.8025   -0.1651 H   0  0  0  0  0  0  0  0  0  0  0  0
   -4.9311    2.6369    0.4063 H   0  0  0  0  0  0  0  0  0  0  0  0
   -4.6784    3.5417   -1.1645 H   0  0  0  0  0  0  0  0  0  0  0  0
   -5.1951    2.5268   -3.3254 H   0  0  0  0  0  0  0  0  0  0  0  0
   -6.4987    0.8937   -4.5575 H   0  0  0  0  0  0  0  0  0  0  0  0
   -7.4888   -1.0185   -3.3467 H   0  0  0  0  0  0  0  0  0  0  0  0
   -5.8435    0.3878    0.2945 H   0  0  0  0  0  0  0  0  0  0  0  0
   -9.4520   -2.3746    0.2957 H   0  0  0  0  0  0  0  0  0  0  0  0
   -8.0440   -0.1211    1.0420 H   0  0  0  0  0  0  0  0  0  0  0  0
  -10.7542   -1.2567    1.9239 H   0  0  0  0  0  0  0  0  0  0  0  0
   -9.7482   -0.2053    2.9239 H   0  0  0  0  0  0  0  0  0  0  0  0
   -9.1601   -1.8690    2.5349 H   0  0  0  0  0  0  0  0  0  0  0  0
   -9.3145    1.4793   -0.0933 H   0  0  0  0  0  0  0  0  0  0  0  0
  -10.6983    0.2878   -0.3451 H   0  0  0  0  0  0  0  0  0  0  0  0
  -10.4720    1.1376    1.2477 H   0  0  0  0  0  0  0  0  0  0  0  0
    7.2106    2.2368    3.3088 H   0  0  0  0  0  0  0  0  0  0  0  0
  1  2  1  0
  2  3  1  0
  3  4  2  0
  4  5  1  0
  5  6  2  0
  6  7  1  0
  7  8  2  0
  8  9  1  0
  5 10  1  0
 10 11  1  0
 11 12  1  0
 12 13  1  0
 13 14  1  0
 14 15  1  0
 15 16  1  0
 16 17  1  0
 17 18  1  0
 18 19  1  0
 19 20  1  0
 20 21  1  0
 21 22  1  0
 22 23  1  0
 23 24  1  0
 24 25  2  0
 25 26  1  0
 26 27  2  0
 27 28  1  0
 28 29  2  0
 28 30  1  0
 30 31  2  0
 30 32  2  0
 30 33  1  0
 33 34  1  0
 34 35  1  0
 34 36  1  0
 10 37  1  0
  8  3  1  0
 29 24  1  0
  1 38  1  0
  2 39  1  0
  2 40  1  0
  4 41  1  0
  6 42  1  0
  7 43  1  0
  9 44  1  0
 10 45  1  1
 11 46  1  0
 11 47  1  0
 12 48  1  0
 13 49  1  0
 13 50  1  0
 14 51  1  0
 14 52  1  0
 15 53  1  0
 15 54  1  0
 16 55  1  0
 16 56  1  0
 17 57  1  0
 17 58  1  0
 18 59  1  0
 18 60  1  0
 20 61  1  0
 20 62  1  0
 21 63  1  0
 21 64  1  0
 22 65  1  0
 22 66  1  0
 23 67  1  0
 23 68  1  0
 25 69  1  0
 26 70  1  0
 27 71  1  0
 29 72  1  0
 33 73  1  0
 34 74  1  0
 35 75  1  0
 35 76  1  0
 35 77  1  0
 36 78  1  0
 36 79  1  0
 36 80  1  0
 37 81  1  0
M  END
>  <Ligand ID>  (1) 
LIG0003489

>  <Ligand>  (1) 
CHEMBL514032

>  <SMILES>  (1) 
OCc1cc(ccc1O)[C@H](CNCCCCCCOCCCCc1cccc(c1)S(=O)(=O)NC(C)C)O

>  <CID>  (1) 
42625517.0

>  <ChEMBL ID>  (1) 
nan

>  <InChiKey>  (1) 
QKILZCKYJGKJNE-NDEPHWFRSA-N

>  <InChi>  (1) 
InChI=1S/C28H44N2O6S/c1-22(2)30-37(34,35)26-12-9-11-23(18-26)10-5-8-17-36-16-7-4-3-6-15-29-20-28(33)24-13-14-27(32)25(19-24)21-31/h9,11-14,18-19,22,28-33H,3-8,10,15-17,20-21H2,1-2H3/t28-/m0/s1

>  <IUPAC Name>  (1) 
3-[4-[6-[[(2R)-2-hydroxy-2-[4-hydroxy-3-(hydroxymethyl)phenyl]ethyl]amino]hexoxy]butyl]-N-propan-2-ylbenzenesulfonamide

$$$$
