
     RDKit          3D

 33 34  0  0  0  0  0  0  0  0999 V2000
   -2.4670    2.9810    0.2324 C   0  0  0  0  0  0  0  0  0  0  0  0
   -2.8167    1.5372    0.2605 C   0  0  0  0  0  0  0  0  0  0  0  0
   -4.1073    1.2240    0.4350 C   0  0  0  0  0  0  0  0  0  0  0  0
   -4.4751   -0.1876    0.4660 C   0  0  0  0  0  0  0  0  0  0  0  0
   -5.6873   -0.4943    0.6297 O   0  0  0  0  0  0  0  0  0  0  0  0
   -3.4524   -1.2334    0.3095 C   0  0  0  0  0  0  0  0  0  0  0  0
   -2.1773   -0.9048    0.1374 C   0  0  0  0  0  0  0  0  0  0  0  0
   -1.7967    0.4994    0.1045 C   0  0  0  0  0  0  0  0  0  0  0  0
   -0.5669    0.8247   -0.0614 N   0  0  0  0  0  0  0  0  0  0  0  0
    0.4055   -0.1639   -0.2102 O   0  0  0  0  0  0  0  0  0  0  0  0
    1.7155    0.2187   -1.2471 S   0  0  0  0  0  0  0  0  0  0  0  0
    1.5174   -0.6201   -2.4915 O   0  0  0  0  0  0  0  0  0  0  0  0
    1.6803    1.6553   -1.6937 O   0  0  0  0  0  0  0  0  0  0  0  0
    3.2569   -0.1238   -0.4961 C   0  0  0  0  0  0  0  0  0  0  0  0
    3.8391    0.9068    0.2367 C   0  0  0  0  0  0  0  0  0  0  0  0
    5.0681    0.6985    0.8605 C   0  0  0  0  0  0  0  0  0  0  0  0
    5.7109   -0.5308    0.7531 C   0  0  0  0  0  0  0  0  0  0  0  0
    5.1111   -1.5498    0.0148 C   0  0  0  0  0  0  0  0  0  0  0  0
    3.8868   -1.3541   -0.6112 C   0  0  0  0  0  0  0  0  0  0  0  0
   -3.8716   -2.6637    0.3474 C   0  0  0  0  0  0  0  0  0  0  0  0
   -2.5437    3.4631    1.2287 H   0  0  0  0  0  0  0  0  0  0  0  0
   -3.1479    3.4544   -0.5153 H   0  0  0  0  0  0  0  0  0  0  0  0
   -1.4480    3.1212   -0.1848 H   0  0  0  0  0  0  0  0  0  0  0  0
   -4.8327    2.0255    0.5468 H   0  0  0  0  0  0  0  0  0  0  0  0
   -1.4241   -1.6877    0.0219 H   0  0  0  0  0  0  0  0  0  0  0  0
    3.3666    1.8778    0.3417 H   0  0  0  0  0  0  0  0  0  0  0  0
    5.5104    1.5217    1.4327 H   0  0  0  0  0  0  0  0  0  0  0  0
    6.6711   -0.7055    1.2359 H   0  0  0  0  0  0  0  0  0  0  0  0
    5.6439   -2.4841   -0.0414 H   0  0  0  0  0  0  0  0  0  0  0  0
    3.4226   -2.1412   -1.1820 H   0  0  0  0  0  0  0  0  0  0  0  0
   -3.9571   -3.1115   -0.6510 H   0  0  0  0  0  0  0  0  0  0  0  0
   -3.1713   -3.2942    0.9663 H   0  0  0  0  0  0  0  0  0  0  0  0
   -4.8629   -2.7588    0.8387 H   0  0  0  0  0  0  0  0  0  0  0  0
  1  2  1  0
  2  3  2  0
  3  4  1  0
  4  5  2  0
  4  6  1  0
  6  7  2  0
  7  8  1  0
  8  9  2  0
  9 10  1  0
 10 11  1  0
 11 12  2  0
 11 13  2  0
 11 14  1  0
 14 15  2  0
 15 16  1  0
 16 17  2  0
 17 18  1  0
 18 19  2  0
  6 20  1  0
  8  2  1  0
 19 14  1  0
  1 21  1  0
  1 22  1  0
  1 23  1  0
  3 24  1  0
  7 25  1  0
 15 26  1  0
 16 27  1  0
 17 28  1  0
 18 29  1  0
 19 30  1  0
 20 31  1  0
 20 32  1  0
 20 33  1  0
M  END
>  <Ligand ID>  (1) 
LIG0003688

>  <Ligand>  (1) 
AC1NW0NQ

>  <SMILES>  (1) 
CC1=CC(=O)C(=C/C/1=N\OS(=O)(=O)c1ccccc1)C

>  <CID>  (1) 
5663704.0

>  <ChEMBL ID>  (1) 
nan

>  <InChiKey>  (1) 
AEPLJPYPGBUUDJ-FYWRMAATSA-N

>  <InChi>  (1) 
InChI=1S/C14H13NO4S/c1-10-9-14(16)11(2)8-13(10)15-19-20(17,18)12-6-4-3-5-7-12/h3-9H,1-2H3/b15-13+

>  <IUPAC Name>  (1) 
[(E)-(2,5-dimethyl-4-oxocyclohexa-2,5-dien-1-ylidene)amino] benzenesulfonate

$$$$
