
     RDKit          3D

 60 62  0  0  0  0  0  0  0  0999 V2000
    4.5680   -1.0103   -1.5835 O   0  0  0  0  0  0  0  0  0  0  0  0
    4.7581   -0.7706   -0.3422 C   0  0  0  0  0  0  0  0  0  0  0  0
    6.1327   -0.7273    0.1968 C   0  0  2  0  0  0  0  0  0  0  0  0
    6.4532    0.6074    0.8420 C   0  0  0  0  0  0  0  0  0  0  0  0
    6.3807    1.6376   -0.0795 O   0  0  0  0  0  0  0  0  0  0  0  0
    6.7303    3.1498    0.5824 P   0  0  0  0  0  0  0  0  0  0  0  0
    5.9824    4.1815   -0.2464 O   0  0  0  0  0  0  0  0  0  0  0  0
    8.4137    3.4159    0.5012 O   0  0  0  0  0  0  0  0  0  0  0  0
    6.2824    3.1922    2.1923 O   0  0  0  0  0  0  0  0  0  0  0  0
    7.0904   -0.9861   -0.8721 N   0  0  0  0  0  0  0  0  0  0  0  0
    6.2847   -1.8400    1.2099 C   0  0  0  0  0  0  0  0  0  0  0  0
    3.6430   -0.5469    0.5122 N   0  0  0  0  0  0  0  0  0  0  0  0
    2.3497   -0.6143   -0.1286 C   0  0  0  0  0  0  0  0  0  0  0  0
    1.7523   -1.8638   -0.1510 C   0  0  0  0  0  0  0  0  0  0  0  0
    0.5161   -1.9773   -0.7534 C   0  0  0  0  0  0  0  0  0  0  0  0
   -0.1242   -0.8735   -1.3269 C   0  0  0  0  0  0  0  0  0  0  0  0
    0.5136    0.3588   -1.2801 C   0  0  0  0  0  0  0  0  0  0  0  0
    1.7605    0.5066   -0.6800 C   0  0  0  0  0  0  0  0  0  0  0  0
   -1.3708   -1.0438   -1.9219 O   0  0  0  0  0  0  0  0  0  0  0  0
   -1.9093   -2.3508   -1.9013 C   0  0  0  0  0  0  0  0  0  0  0  0
   -3.2666   -2.3374   -2.5953 C   0  0  0  0  0  0  0  0  0  0  0  0
   -4.1058   -1.3925   -1.8243 C   0  0  0  0  0  0  0  0  0  0  0  0
   -4.1838   -0.0450   -2.1018 C   0  0  0  0  0  0  0  0  0  0  0  0
   -5.0038    0.7739   -1.3194 C   0  0  0  0  0  0  0  0  0  0  0  0
   -5.7273    0.2181   -0.2748 C   0  0  0  0  0  0  0  0  0  0  0  0
   -5.6499   -1.1423    0.0070 C   0  0  0  0  0  0  0  0  0  0  0  0
   -4.8391   -1.9453   -0.7685 C   0  0  0  0  0  0  0  0  0  0  0  0
   -6.6020    1.0117    0.5820 C   0  0  0  0  0  0  0  0  0  0  0  0
   -7.7371    0.4202    1.1325 C   0  0  0  0  0  0  0  0  0  0  0  0
   -8.5934    1.1473    1.9542 C   0  0  0  0  0  0  0  0  0  0  0  0
   -8.3422    2.4878    2.2514 C   0  0  0  0  0  0  0  0  0  0  0  0
   -7.2029    3.0627    1.6923 C   0  0  0  0  0  0  0  0  0  0  0  0
   -6.3534    2.3404    0.8768 C   0  0  0  0  0  0  0  0  0  0  0  0
    7.4880    0.5521    1.2143 H   0  0  0  0  0  0  0  0  0  0  0  0
    5.7265    0.7774    1.6659 H   0  0  0  0  0  0  0  0  0  0  0  0
    8.7454    2.8776   -0.2767 H   0  0  0  0  0  0  0  0  0  0  0  0
    6.8852    3.8384    2.6599 H   0  0  0  0  0  0  0  0  0  0  0  0
    6.5780   -1.5982   -1.5590 H   0  0  0  0  0  0  0  0  0  0  0  0
    7.3743   -0.1437   -1.3832 H   0  0  0  0  0  0  0  0  0  0  0  0
    6.0753   -2.8155    0.7269 H   0  0  0  0  0  0  0  0  0  0  0  0
    5.6187   -1.6856    2.0814 H   0  0  0  0  0  0  0  0  0  0  0  0
    7.3296   -1.8185    1.5913 H   0  0  0  0  0  0  0  0  0  0  0  0
    3.7386   -0.3470    1.5329 H   0  0  0  0  0  0  0  0  0  0  0  0
    2.2402   -2.7407    0.2941 H   0  0  0  0  0  0  0  0  0  0  0  0
    0.0550   -2.9456   -0.7699 H   0  0  0  0  0  0  0  0  0  0  0  0
    0.0233    1.2212   -1.7230 H   0  0  0  0  0  0  0  0  0  0  0  0
    2.2620    1.4584   -0.6393 H   0  0  0  0  0  0  0  0  0  0  0  0
   -2.0238   -2.7663   -0.8837 H   0  0  0  0  0  0  0  0  0  0  0  0
   -1.2578   -3.0584   -2.4579 H   0  0  0  0  0  0  0  0  0  0  0  0
   -3.2011   -1.9831   -3.6234 H   0  0  0  0  0  0  0  0  0  0  0  0
   -3.6829   -3.3613   -2.6040 H   0  0  0  0  0  0  0  0  0  0  0  0
   -3.6056    0.3637   -2.9268 H   0  0  0  0  0  0  0  0  0  0  0  0
   -5.0776    1.8242   -1.5198 H   0  0  0  0  0  0  0  0  0  0  0  0
   -6.1929   -1.6120    0.8058 H   0  0  0  0  0  0  0  0  0  0  0  0
   -4.7788   -3.0049   -0.5490 H   0  0  0  0  0  0  0  0  0  0  0  0
   -7.9838   -0.6286    0.9333 H   0  0  0  0  0  0  0  0  0  0  0  0
   -9.4681    0.6315    2.3576 H   0  0  0  0  0  0  0  0  0  0  0  0
   -9.0189    3.0342    2.8910 H   0  0  0  0  0  0  0  0  0  0  0  0
   -6.9852    4.1099    1.9103 H   0  0  0  0  0  0  0  0  0  0  0  0
   -5.4640    2.7760    0.4359 H   0  0  0  0  0  0  0  0  0  0  0  0
  1  2  2  0
  2  3  1  0
  3  4  1  0
  4  5  1  0
  5  6  1  0
  6  7  2  0
  6  8  1  0
  6  9  1  0
  3 10  1  6
  3 11  1  0
  2 12  1  0
 12 13  1  0
 13 14  2  0
 14 15  1  0
 15 16  2  0
 16 17  1  0
 17 18  2  0
 16 19  1  0
 19 20  1  0
 20 21  1  0
 21 22  1  0
 22 23  2  0
 23 24  1  0
 24 25  2  0
 25 26  1  0
 26 27  2  0
 25 28  1  0
 28 29  2  0
 29 30  1  0
 30 31  2  0
 31 32  1  0
 32 33  2  0
 18 13  1  0
 27 22  1  0
 33 28  1  0
  4 34  1  0
  4 35  1  0
  8 36  1  0
  9 37  1  0
 10 38  1  0
 10 39  1  0
 11 40  1  0
 11 41  1  0
 11 42  1  0
 12 43  1  0
 14 44  1  0
 15 45  1  0
 17 46  1  0
 18 47  1  0
 20 48  1  0
 20 49  1  0
 21 50  1  0
 21 51  1  0
 23 52  1  0
 24 53  1  0
 26 54  1  0
 27 55  1  0
 29 56  1  0
 30 57  1  0
 31 58  1  0
 32 59  1  0
 33 60  1  0
M  END
>  <Ligand ID>  (1) 
LIG0005096

>  <Ligand>  (1) 
CHEMBL475405

>  <SMILES>  (1) 
O=C([C@](COP(=O)(O)O)(N)C)Nc1ccc(cc1)OCCc1ccc(cc1)c1ccccc1

>  <CID>  (1) 
11540052.0

>  <ChEMBL ID>  (1) 
nan

>  <InChiKey>  (1) 
NOERNAQPKCFUKL-DEOSSOPVSA-N

>  <InChi>  (1) 
InChI=1S/C24H27N2O6P/c1-24(25,17-32-33(28,29)30)23(27)26-21-11-13-22(14-12-21)31-16-15-18-7-9-20(10-8-18)19-5-3-2-4-6-19/h2-14H,15-17,25H2,1H3,(H,26,27)(H2,28,29,30)/t24-/m0/s1

>  <IUPAC Name>  (1) 
[(2S)-2-amino-2-methyl-3-oxo-3-[4-[2-(4-phenylphenyl)ethoxy]anilino]propyl] dihydrogen phosphate

$$$$
