
     RDKit          3D

 50 53  0  0  0  0  0  0  0  0999 V2000
    5.5561    2.0222    2.2197 C   0  0  0  0  0  0  0  0  0  0  0  0
    5.4356    1.8539    0.7306 C   0  0  0  0  0  0  0  0  0  0  0  0
    4.3798    0.8426    0.3862 C   0  0  0  0  0  0  0  0  0  0  0  0
    3.2785    1.1811   -0.3897 C   0  0  0  0  0  0  0  0  0  0  0  0
    2.3153    0.2392   -0.6980 C   0  0  0  0  0  0  0  0  0  0  0  0
    2.4692   -1.0466   -0.2191 C   0  0  0  0  0  0  0  0  0  0  0  0
    3.5623   -1.4022    0.5568 C   0  0  0  0  0  0  0  0  0  0  0  0
    4.5181   -0.4531    0.8584 C   0  0  0  0  0  0  0  0  0  0  0  0
    1.4755   -2.1225   -0.5055 C   0  0  0  0  0  0  0  0  0  0  0  0
    0.1754   -2.1892    0.7629 S   0  0  0  0  0  0  0  0  0  0  0  0
   -0.7586   -0.6597    0.6289 C   0  0  0  0  0  0  0  0  0  0  0  0
   -0.5367    0.5026    1.2499 N   0  0  0  0  0  0  0  0  0  0  0  0
   -1.4308    1.3823    0.8961 N   0  0  0  0  0  0  0  0  0  0  0  0
   -2.2526    0.7574    0.0172 C   0  0  0  0  0  0  0  0  0  0  0  0
   -1.8557   -0.5143   -0.1660 N   0  0  0  0  0  0  0  0  0  0  0  0
   -2.4206   -1.5508   -1.0036 C   0  0  0  0  0  0  0  0  0  0  0  0
   -3.4016   -2.3036   -0.2777 C   0  0  0  0  0  0  0  0  0  0  0  0
   -4.7326   -2.2411   -0.0472 C   0  0  0  0  0  0  0  0  0  0  0  0
   -5.3503   -3.1440    0.7064 C   0  0  0  0  0  0  0  0  0  0  0  0
   -4.5705   -4.1670    1.2556 C   0  0  0  0  0  0  0  0  0  0  0  0
   -2.8674   -3.8495    0.6847 S   0  0  0  0  0  0  0  0  0  0  0  0
   -3.3959    1.3926   -0.6251 C   0  0  0  0  0  0  0  0  0  0  0  0
   -4.6438    1.3821   -0.0327 C   0  0  0  0  0  0  0  0  0  0  0  0
   -5.7092    2.0062   -0.6879 C   0  0  0  0  0  0  0  0  0  0  0  0
   -5.4805    2.6162   -1.9119 C   0  0  0  0  0  0  0  0  0  0  0  0
   -4.2062    2.6058   -2.4781 C   0  0  0  0  0  0  0  0  0  0  0  0
   -3.1918    1.9859   -1.8070 N   0  0  0  0  0  0  0  0  0  0  0  0
    6.7233    1.3988    0.0939 C   0  0  0  0  0  0  0  0  0  0  0  0
    4.9996    2.9583    2.5052 H   0  0  0  0  0  0  0  0  0  0  0  0
    6.6319    2.1477    2.4660 H   0  0  0  0  0  0  0  0  0  0  0  0
    5.1432    1.1141    2.7025 H   0  0  0  0  0  0  0  0  0  0  0  0
    5.1373    2.7960    0.2624 H   0  0  0  0  0  0  0  0  0  0  0  0
    3.1727    2.1913   -0.7565 H   0  0  0  0  0  0  0  0  0  0  0  0
    1.4391    0.4692   -1.3035 H   0  0  0  0  0  0  0  0  0  0  0  0
    3.6624   -2.4162    0.9213 H   0  0  0  0  0  0  0  0  0  0  0  0
    5.3947   -0.7004    1.4693 H   0  0  0  0  0  0  0  0  0  0  0  0
    1.9865   -3.1175   -0.6104 H   0  0  0  0  0  0  0  0  0  0  0  0
    1.0217   -1.9165   -1.4753 H   0  0  0  0  0  0  0  0  0  0  0  0
   -2.7903   -1.1046   -1.9247 H   0  0  0  0  0  0  0  0  0  0  0  0
   -1.5611   -2.2162   -1.3096 H   0  0  0  0  0  0  0  0  0  0  0  0
   -5.3137   -1.3921   -0.5182 H   0  0  0  0  0  0  0  0  0  0  0  0
   -6.4329   -3.1448    0.9300 H   0  0  0  0  0  0  0  0  0  0  0  0
   -4.8591   -5.0165    1.9044 H   0  0  0  0  0  0  0  0  0  0  0  0
   -4.7452    0.8915    0.9134 H   0  0  0  0  0  0  0  0  0  0  0  0
   -6.7043    2.0001   -0.2204 H   0  0  0  0  0  0  0  0  0  0  0  0
   -6.3077    3.1070   -2.4316 H   0  0  0  0  0  0  0  0  0  0  0  0
   -4.0249    3.0806   -3.4322 H   0  0  0  0  0  0  0  0  0  0  0  0
    6.4757    1.1936   -0.9787 H   0  0  0  0  0  0  0  0  0  0  0  0
    7.5229    2.1413    0.1498 H   0  0  0  0  0  0  0  0  0  0  0  0
    7.0671    0.4089    0.4977 H   0  0  0  0  0  0  0  0  0  0  0  0
  1  2  1  0
  2  3  1  0
  3  4  2  0
  4  5  1  0
  5  6  2  0
  6  7  1  0
  7  8  2  0
  6  9  1  0
  9 10  1  0
 10 11  1  0
 11 12  2  0
 12 13  1  0
 13 14  2  0
 14 15  1  0
 15 16  1  0
 16 17  1  0
 17 18  2  0
 18 19  1  0
 19 20  2  0
 20 21  1  0
 14 22  1  0
 22 23  2  0
 23 24  1  0
 24 25  2  0
 25 26  1  0
 26 27  2  0
  2 28  1  0
  8  3  1  0
 15 11  1  0
 21 17  1  0
 27 22  1  0
  1 29  1  0
  1 30  1  0
  1 31  1  0
  2 32  1  0
  4 33  1  0
  5 34  1  0
  7 35  1  0
  8 36  1  0
  9 37  1  0
  9 38  1  0
 16 39  1  0
 16 40  1  0
 18 41  1  0
 19 42  1  0
 20 43  1  0
 23 44  1  0
 24 45  1  0
 25 46  1  0
 26 47  1  0
 28 48  1  0
 28 49  1  0
 28 50  1  0
M  END
>  <Ligand ID>  (1) 
LIG0003457

>  <Ligand>  (1) 
KUC104197N

>  <SMILES>  (1) 
CC(c1ccc(cc1)CSc1nnc(n1Cc1cccs1)c1ccccn1)C

>  <CID>  (1) 
44620929.0

>  <ChEMBL ID>  (1) 
nan

>  <InChiKey>  (1) 
HATTXEXXJCLNSP-UHFFFAOYSA-N

>  <InChi>  (1) 
InChI=1S/C22H22N4S2/c1-16(2)18-10-8-17(9-11-18)15-28-22-25-24-21(20-7-3-4-12-23-20)26(22)14-19-6-5-13-27-19/h3-13,16H,14-15H2,1-2H3

>  <IUPAC Name>  (1) 
2-[5-[(4-propan-2-ylphenyl)methylsulfanyl]-4-(thiophen-2-ylmethyl)-1,2,4-triazol-3-yl]pyridine

$$$$
