
     RDKit          3D

 51 52  0  0  0  0  0  0  0  0999 V2000
    0.3602    0.0067    2.8937 O   0  0  0  0  0  0  0  0  0  0  0  0
   -0.1810    0.5092    1.8560 C   0  0  0  0  0  0  0  0  0  0  0  0
   -1.5651    0.1294    1.6164 C   0  0  0  0  0  0  0  0  0  0  0  0
   -2.1695   -0.7360    2.5260 C   0  0  0  0  0  0  0  0  0  0  0  0
   -3.4999   -1.1361    2.3462 C   0  0  0  0  0  0  0  0  0  0  0  0
   -4.2525   -0.6955    1.2776 C   0  0  0  0  0  0  0  0  0  0  0  0
   -3.6367    0.1602    0.3886 C   0  0  0  0  0  0  0  0  0  0  0  0
   -2.3223    0.5531    0.5696 C   0  0  0  0  0  0  0  0  0  0  0  0
   -5.5570   -1.1270    1.1582 O   0  0  0  0  0  0  0  0  0  0  0  0
   -6.3282   -0.7045    0.1053 C   0  0  0  0  0  0  0  0  0  0  0  0
   -6.4220   -1.3450   -1.1056 C   0  0  0  0  0  0  0  0  0  0  0  0
   -7.2304   -0.8349   -2.1041 C   0  0  0  0  0  0  0  0  0  0  0  0
   -7.9580    0.3200   -1.9138 C   0  0  0  0  0  0  0  0  0  0  0  0
   -7.8762    0.9775   -0.7028 C   0  0  0  0  0  0  0  0  0  0  0  0
   -7.0699    0.4563    0.2737 C   0  0  0  0  0  0  0  0  0  0  0  0
    0.5544    1.3810    1.0120 N   0  0  0  0  0  0  0  0  0  0  0  0
    1.9206    1.7695    1.2261 C   0  0  0  0  0  0  0  0  0  0  0  0
    2.8721    0.5730    1.2249 C   0  0  0  0  0  0  0  0  0  0  0  0
    2.7953   -0.1431   -0.1084 C   0  0  0  0  0  0  0  0  0  0  0  0
    3.7015   -1.3062   -0.1541 C   0  0  0  0  0  0  0  0  0  0  0  0
    5.1587   -1.0557    0.0230 C   0  0  0  0  0  0  0  0  0  0  0  0
    5.7668   -0.2039   -0.9391 N   0  0  0  0  0  0  0  0  0  0  0  0
    5.8196    1.1979   -0.5790 C   0  0  0  0  0  0  0  0  0  0  0  0
    7.1548   -0.6188   -1.0777 C   0  0  0  0  0  0  0  0  0  0  0  0
   -1.6777   -1.1343    3.3843 H   0  0  0  0  0  0  0  0  0  0  0  0
   -3.9577   -1.8204    3.0770 H   0  0  0  0  0  0  0  0  0  0  0  0
   -4.2066    0.5223   -0.4619 H   0  0  0  0  0  0  0  0  0  0  0  0
   -1.9082    1.2153   -0.1542 H   0  0  0  0  0  0  0  0  0  0  0  0
   -5.8523   -2.2490   -1.2543 H   0  0  0  0  0  0  0  0  0  0  0  0
   -7.3275   -1.3141   -3.0700 H   0  0  0  0  0  0  0  0  0  0  0  0
   -8.6037    0.7532   -2.6708 H   0  0  0  0  0  0  0  0  0  0  0  0
   -8.4300    1.8859   -0.5118 H   0  0  0  0  0  0  0  0  0  0  0  0
   -7.0184    0.9846    1.2150 H   0  0  0  0  0  0  0  0  0  0  0  0
    0.0183    1.7517    0.1711 H   0  0  0  0  0  0  0  0  0  0  0  0
    2.0612    2.3708    2.1454 H   0  0  0  0  0  0  0  0  0  0  0  0
    2.2486    2.3912    0.3714 H   0  0  0  0  0  0  0  0  0  0  0  0
    3.8806    0.8586    1.5320 H   0  0  0  0  0  0  0  0  0  0  0  0
    2.5018   -0.1123    2.0244 H   0  0  0  0  0  0  0  0  0  0  0  0
    1.7525   -0.5215   -0.1700 H   0  0  0  0  0  0  0  0  0  0  0  0
    2.8826    0.5623   -0.9528 H   0  0  0  0  0  0  0  0  0  0  0  0
    3.5576   -1.9170   -1.0698 H   0  0  0  0  0  0  0  0  0  0  0  0
    3.3943   -2.0007    0.6746 H   0  0  0  0  0  0  0  0  0  0  0  0
    5.7147   -2.0144    0.0485 H   0  0  0  0  0  0  0  0  0  0  0  0
    5.3564   -0.5840    1.0288 H   0  0  0  0  0  0  0  0  0  0  0  0
    5.3653   -0.3481   -1.8982 H   0  0  0  0  0  0  0  0  0  0  0  0
    6.0031    1.2993    0.5074 H   0  0  0  0  0  0  0  0  0  0  0  0
    4.9466    1.7838   -0.8610 H   0  0  0  0  0  0  0  0  0  0  0  0
    6.7123    1.7026   -1.0527 H   0  0  0  0  0  0  0  0  0  0  0  0
    7.5313   -0.8169   -0.0504 H   0  0  0  0  0  0  0  0  0  0  0  0
    7.7829    0.1888   -1.4878 H   0  0  0  0  0  0  0  0  0  0  0  0
    7.2363   -1.5646   -1.6542 H   0  0  0  0  0  0  0  0  0  0  0  0
  1  2  2  0
  2  3  1  0
  3  4  2  0
  4  5  1  0
  5  6  2  0
  6  7  1  0
  7  8  2  0
  6  9  1  0
  9 10  1  0
 10 11  2  0
 11 12  1  0
 12 13  2  0
 13 14  1  0
 14 15  2  0
  2 16  1  0
 16 17  1  0
 17 18  1  0
 18 19  1  0
 19 20  1  0
 20 21  1  0
 21 22  1  0
 22 23  1  0
 22 24  1  0
  8  3  1  0
 15 10  1  0
  4 25  1  0
  5 26  1  0
  7 27  1  0
  8 28  1  0
 11 29  1  0
 12 30  1  0
 13 31  1  0
 14 32  1  0
 15 33  1  0
 16 34  1  0
 17 35  1  0
 17 36  1  0
 18 37  1  0
 18 38  1  0
 19 39  1  0
 19 40  1  0
 20 41  1  0
 20 42  1  0
 21 43  1  0
 21 44  1  0
 22 45  1  0
 23 46  1  0
 23 47  1  0
 23 48  1  0
 24 49  1  0
 24 50  1  0
 24 51  1  0
M  CHG  1  22   1
M  END
>  <Ligand ID>  (1) 
LIG0005550

>  <Ligand>  (1) 
CHEMBL375470

>  <SMILES>  (1) 
O=C(c1ccc(cc1)Oc1ccccc1)NCCCCC[NH+](C)C

>  <CID>  (1) 
91935904.0

>  <ChEMBL ID>  (1) 
nan

>  <InChiKey>  (1) 
YVMNRFOOTWSIIZ-UHFFFAOYSA-O

>  <InChi>  (1) 
InChI=1S/C20H26N2O2/c1-22(2)16-8-4-7-15-21-20(23)17-11-13-19(14-12-17)24-18-9-5-3-6-10-18/h3,5-6,9-14H,4,7-8,15-16H2,1-2H3,(H,21,23)/p+1

>  <IUPAC Name>  (1) 
dimethyl-[5-[(4-phenoxybenzoyl)amino]pentyl]azanium

$$$$
