
     RDKit          3D

 29 28  0  0  0  0  0  0  0  0999 V2000
    4.1980    0.7763    0.1368 C   0  0  0  0  0  0  0  0  0  0  0  0
    3.0396   -0.1936   -0.1393 C   0  0  0  0  0  0  0  0  0  0  0  0
    1.8556    0.4132    0.5767 C   0  0  0  0  0  0  0  0  0  0  0  0
    0.6014   -0.3944    0.4286 C   0  0  0  0  0  0  0  0  0  0  0  0
    0.1398   -0.5777   -0.9719 C   0  0  0  0  0  0  0  0  0  0  0  0
   -1.1230   -1.4042   -0.9696 C   0  0  0  0  0  0  0  0  0  0  0  0
   -2.2430   -0.7729   -0.1970 C   0  0  0  0  0  0  0  0  0  0  0  0
   -2.6842    0.5642   -0.6819 C   0  0  0  0  0  0  0  0  0  0  0  0
   -3.8181    1.0899    0.1825 C   0  0  0  0  0  0  0  0  0  0  0  0
    3.9294    1.8189   -0.0696 H   0  0  0  0  0  0  0  0  0  0  0  0
    4.4496    0.6977    1.2284 H   0  0  0  0  0  0  0  0  0  0  0  0
    5.1173    0.4703   -0.3953 H   0  0  0  0  0  0  0  0  0  0  0  0
    2.8915   -0.3539   -1.2059 H   0  0  0  0  0  0  0  0  0  0  0  0
    3.3484   -1.1472    0.3362 H   0  0  0  0  0  0  0  0  0  0  0  0
    2.1051    0.4393    1.6589 H   0  0  0  0  0  0  0  0  0  0  0  0
    1.6804    1.4604    0.2577 H   0  0  0  0  0  0  0  0  0  0  0  0
    0.7142   -1.3877    0.9033 H   0  0  0  0  0  0  0  0  0  0  0  0
   -0.2128    0.1154    0.9838 H   0  0  0  0  0  0  0  0  0  0  0  0
    0.9200   -1.1825   -1.4983 H   0  0  0  0  0  0  0  0  0  0  0  0
    0.0204    0.3449   -1.5320 H   0  0  0  0  0  0  0  0  0  0  0  0
   -1.4536   -1.6514   -2.0004 H   0  0  0  0  0  0  0  0  0  0  0  0
   -0.9423   -2.3867   -0.4841 H   0  0  0  0  0  0  0  0  0  0  0  0
   -3.1241   -1.4655   -0.3117 H   0  0  0  0  0  0  0  0  0  0  0  0
   -2.0467   -0.7691    0.8899 H   0  0  0  0  0  0  0  0  0  0  0  0
   -3.1330    0.4228   -1.7008 H   0  0  0  0  0  0  0  0  0  0  0  0
   -1.8771    1.3200   -0.6996 H   0  0  0  0  0  0  0  0  0  0  0  0
   -3.6031    2.1391    0.4995 H   0  0  0  0  0  0  0  0  0  0  0  0
   -3.9565    0.4994    1.1081 H   0  0  0  0  0  0  0  0  0  0  0  0
   -4.7932    1.1149   -0.3414 H   0  0  0  0  0  0  0  0  0  0  0  0
  1  2  1  0
  2  3  1  0
  3  4  1  0
  4  5  1  0
  5  6  1  0
  6  7  1  0
  7  8  1  0
  8  9  1  0
  1 10  1  0
  1 11  1  0
  1 12  1  0
  2 13  1  0
  2 14  1  0
  3 15  1  0
  3 16  1  0
  4 17  1  0
  4 18  1  0
  5 19  1  0
  5 20  1  0
  6 21  1  0
  6 22  1  0
  7 23  1  0
  7 24  1  0
  8 25  1  0
  8 26  1  0
  9 27  1  0
  9 28  1  0
  9 29  1  0
M  END
>  <Ligand ID>  (1) 
LIG0005028

>  <Ligand>  (1) 
nonane

>  <SMILES>  (1) 
CCCCCCCCC

>  <CID>  (1) 
8141.0

>  <ChEMBL ID>  (1) 
nan

>  <InChiKey>  (1) 
BKIMMITUMNQMOS-UHFFFAOYSA-N

>  <InChi>  (1) 
InChI=1S/C9H20/c1-3-5-7-9-8-6-4-2/h3-9H2,1-2H3

>  <IUPAC Name>  (1) 
nonane

$$$$
