
     RDKit          3D

 58 60  0  0  0  0  0  0  0  0999 V2000
    4.2347    1.4157    0.2932 O   0  0  0  0  0  0  0  0  0  0  0  0
    4.0901    0.0806    0.0118 C   0  0  2  0  0  0  0  0  0  0  0  0
    4.9924   -0.3514   -1.1304 C   0  0  0  0  0  0  0  0  0  0  0  0
    6.2778   -0.1909   -0.8434 O   0  0  0  0  0  0  0  0  0  0  0  0
    7.3967    0.3510   -0.5253 C   0  0  0  0  0  0  0  0  0  0  0  0
    7.5272    1.7247   -0.2896 C   0  0  0  0  0  0  0  0  0  0  0  0
    8.7268    2.2995    0.0510 C   0  0  0  0  0  0  0  0  0  0  0  0
    9.8297    1.4839    0.1607 C   0  0  0  0  0  0  0  0  0  0  0  0
    9.7757    0.1300   -0.0574 C   0  0  0  0  0  0  0  0  0  0  0  0
    8.5615   -0.4419   -0.4012 C   0  0  0  0  0  0  0  0  0  0  0  0
   11.0332    2.0996    0.5098 O   0  0  0  0  0  0  0  0  0  0  0  0
    2.6429   -0.2194   -0.2772 C   0  0  0  0  0  0  0  0  0  0  0  0
    1.8897    0.1680    0.9276 N   0  0  0  0  0  0  0  0  0  0  0  0
    0.4900   -0.1092    0.7592 C   0  0  0  0  0  0  0  0  0  0  0  0
    0.1360   -1.5830    0.7474 C   0  0  0  0  0  0  0  0  0  0  0  0
   -1.3466   -1.6158    0.4927 C   0  0  0  0  0  0  0  0  0  0  0  0
   -2.2895   -1.5482    1.4905 C   0  0  0  0  0  0  0  0  0  0  0  0
   -3.6541   -1.5667    1.1437 C   0  0  0  0  0  0  0  0  0  0  0  0
   -4.0123   -1.6500   -0.1749 C   0  0  0  0  0  0  0  0  0  0  0  0
   -3.0345   -1.7180   -1.1824 C   0  0  0  0  0  0  0  0  0  0  0  0
   -1.7109   -1.7007   -0.8582 C   0  0  0  0  0  0  0  0  0  0  0  0
   -5.3503   -1.6468   -0.6545 N   0  0  0  0  0  0  0  0  0  0  0  0
   -5.9078   -0.3856   -0.9902 C   0  0  0  0  0  0  0  0  0  0  0  0
   -5.1923    0.6571   -0.8334 O   0  0  0  0  0  0  0  0  0  0  0  0
   -7.2647   -0.1707   -1.5148 C   0  0  0  0  0  0  0  0  0  0  0  0
   -8.0018    0.5863   -0.4456 C   0  0  0  0  0  0  0  0  0  0  0  0
   -7.8096    1.9430   -0.2543 C   0  0  0  0  0  0  0  0  0  0  0  0
   -8.5450    2.5467    0.7492 C   0  0  0  0  0  0  0  0  0  0  0  0
   -9.4035    1.8372    1.4976 N   0  0  0  0  0  0  0  0  0  0  0  0
   -9.5825    0.5205    1.3032 C   0  0  0  0  0  0  0  0  0  0  0  0
   -8.8840   -0.1616    0.3171 C   0  0  0  0  0  0  0  0  0  0  0  0
    3.3710    1.7633    0.6616 H   0  0  0  0  0  0  0  0  0  0  0  0
    4.3517   -0.5689    0.9098 H   0  0  0  0  0  0  0  0  0  0  0  0
    4.6827   -1.3682   -1.4986 H   0  0  0  0  0  0  0  0  0  0  0  0
    4.7076    0.3048   -2.0233 H   0  0  0  0  0  0  0  0  0  0  0  0
    6.6817    2.3774   -0.3704 H   0  0  0  0  0  0  0  0  0  0  0  0
    8.7786    3.3891    0.2225 H   0  0  0  0  0  0  0  0  0  0  0  0
   10.6308   -0.5169    0.0234 H   0  0  0  0  0  0  0  0  0  0  0  0
    8.4743   -1.5237   -0.5808 H   0  0  0  0  0  0  0  0  0  0  0  0
   11.0412    2.9642    1.0657 H   0  0  0  0  0  0  0  0  0  0  0  0
    2.2744    0.3714   -1.1367 H   0  0  0  0  0  0  0  0  0  0  0  0
    2.5247   -1.2933   -0.4840 H   0  0  0  0  0  0  0  0  0  0  0  0
    2.2260   -0.3419    1.7555 H   0  0  0  0  0  0  0  0  0  0  0  0
    0.0098    0.2765    1.7108 H   0  0  0  0  0  0  0  0  0  0  0  0
   -0.0016    0.4435   -0.0426 H   0  0  0  0  0  0  0  0  0  0  0  0
    0.3573   -2.0112    1.7230 H   0  0  0  0  0  0  0  0  0  0  0  0
    0.6172   -2.1419   -0.0739 H   0  0  0  0  0  0  0  0  0  0  0  0
   -1.9885   -1.4866    2.5160 H   0  0  0  0  0  0  0  0  0  0  0  0
   -4.4238   -1.5120    1.8930 H   0  0  0  0  0  0  0  0  0  0  0  0
   -3.3175   -1.7817   -2.2231 H   0  0  0  0  0  0  0  0  0  0  0  0
   -0.9677   -1.7572   -1.6348 H   0  0  0  0  0  0  0  0  0  0  0  0
   -5.9301   -2.5045   -0.7709 H   0  0  0  0  0  0  0  0  0  0  0  0
   -7.1534    0.4768   -2.4337 H   0  0  0  0  0  0  0  0  0  0  0  0
   -7.7448   -1.1292   -1.7536 H   0  0  0  0  0  0  0  0  0  0  0  0
   -7.1149    2.5002   -0.8628 H   0  0  0  0  0  0  0  0  0  0  0  0
   -8.4142    3.5881    0.9191 H   0  0  0  0  0  0  0  0  0  0  0  0
  -10.2725   -0.0788    1.8909 H   0  0  0  0  0  0  0  0  0  0  0  0
   -9.0152   -1.2233    0.1519 H   0  0  0  0  0  0  0  0  0  0  0  0
  1  2  1  0
  2  3  1  0
  3  4  1  0
  4  5  1  0
  5  6  2  0
  6  7  1  0
  7  8  2  0
  8  9  1  0
  9 10  2  0
  8 11  1  0
  2 12  1  0
 12 13  1  0
 13 14  1  0
 14 15  1  0
 15 16  1  0
 16 17  2  0
 17 18  1  0
 18 19  2  0
 19 20  1  0
 20 21  2  0
 19 22  1  0
 22 23  1  0
 23 24  2  0
 23 25  1  0
 25 26  1  0
 26 27  2  0
 27 28  1  0
 28 29  2  0
 29 30  1  0
 30 31  2  0
 10  5  1  0
 21 16  1  0
 31 26  1  0
  1 32  1  0
  2 33  1  1
  3 34  1  0
  3 35  1  0
  6 36  1  0
  7 37  1  0
  9 38  1  0
 10 39  1  0
 11 40  1  0
 12 41  1  0
 12 42  1  0
 13 43  1  0
 14 44  1  0
 14 45  1  0
 15 46  1  0
 15 47  1  0
 17 48  1  0
 18 49  1  0
 20 50  1  0
 21 51  1  0
 22 52  1  0
 25 53  1  0
 25 54  1  0
 27 55  1  0
 28 56  1  0
 30 57  1  0
 31 58  1  0
M  END
>  <Ligand ID>  (1) 
LIG0002557

>  <Ligand>  (1) 
CHEMBL561693

>  <SMILES>  (1) 
O[C@H](COc1ccc(cc1)O)CNCCc1ccc(cc1)NC(=O)Cc1ccncc1

>  <CID>  (1) 
44127374.0

>  <ChEMBL ID>  (1) 
nan

>  <InChiKey>  (1) 
ORNVIMKPXHWHDZ-QFIPXVFZSA-N

>  <InChi>  (1) 
InChI=1S/C24H27N3O4/c28-21-5-7-23(8-6-21)31-17-22(29)16-26-14-9-18-1-3-20(4-2-18)27-24(30)15-19-10-12-25-13-11-19/h1-8,10-13,22,26,28-29H,9,14-17H2,(H,27,30)/t22-/m0/s1

>  <IUPAC Name>  (1) 
N-[4-[2-[[(2S)-2-hydroxy-3-(4-hydroxyphenoxy)propyl]amino]ethyl]phenyl]-2-pyridin-4-ylacetamide

$$$$
