
     RDKit          3D

 67 70  0  0  0  0  0  0  0  0999 V2000
    1.9508   -3.4381   -1.1669 C   0  0  0  0  0  0  0  0  0  0  0  0
    1.4267   -2.1358   -0.7618 N   0  0  0  0  0  0  0  0  0  0  0  0
    2.2313   -0.9707   -0.7798 C   0  0  0  0  0  0  0  0  0  0  0  0
    3.4358   -1.1478   -1.1781 O   0  0  0  0  0  0  0  0  0  0  0  0
    1.8165    0.3752   -0.3961 C   0  0  1  0  0  0  0  0  0  0  0  0
    0.4501    0.4068    0.0824 N   0  0  0  0  0  0  0  0  0  0  0  0
    0.0075   -0.1777    1.3232 C   0  0  0  0  0  0  0  0  0  0  0  0
   -1.3882   -0.7197    1.3386 C   0  0  0  0  0  0  0  0  0  0  0  0
   -2.2936    0.2478    0.7548 N   0  0  0  0  0  0  0  0  0  0  0  0
   -1.7749    1.4721    0.1161 C   0  0  2  0  0  0  0  0  0  0  0  0
   -0.5505    1.0941   -0.6854 C   0  0  0  0  0  0  0  0  0  0  0  0
   -0.4244    1.3543   -1.8929 O   0  0  0  0  0  0  0  0  0  0  0  0
   -1.5055    2.5646    1.0963 C   0  0  0  0  0  0  0  0  0  0  0  0
   -3.7143    0.0789    0.7503 C   0  0  0  0  0  0  0  0  0  0  0  0
   -4.4374    0.9999    0.2329 O   0  0  0  0  0  0  0  0  0  0  0  0
   -4.4326   -1.0793    1.2963 C   0  0  1  0  0  0  0  0  0  0  0  0
   -5.2599   -1.8309    0.2819 C   0  0  0  0  0  0  0  0  0  0  0  0
   -6.2778   -0.9418   -0.2978 C   0  0  0  0  0  0  0  0  0  0  0  0
   -6.1572   -0.2259   -1.4522 C   0  0  0  0  0  0  0  0  0  0  0  0
   -7.1571    0.5993   -1.9369 C   0  0  0  0  0  0  0  0  0  0  0  0
   -8.3511    0.7156   -1.2239 C   0  0  0  0  0  0  0  0  0  0  0  0
   -8.4982    0.0033   -0.0558 C   0  0  0  0  0  0  0  0  0  0  0  0
   -7.4780   -0.8197    0.4109 C   0  0  0  0  0  0  0  0  0  0  0  0
   -9.3293    1.5223   -1.6976 F   0  0  0  0  0  0  0  0  0  0  0  0
   -3.5328   -2.0440    1.9022 N   0  0  0  0  0  0  0  0  0  0  0  0
    2.7270    0.9581    0.6229 C   0  0  0  0  0  0  0  0  0  0  0  0
    4.1198    1.0937    0.2400 C   0  0  0  0  0  0  0  0  0  0  0  0
    4.5029    2.2415   -0.4532 C   0  0  0  0  0  0  0  0  0  0  0  0
    5.7991    2.4695   -0.8426 C   0  0  0  0  0  0  0  0  0  0  0  0
    6.7805    1.5466   -0.5511 C   0  0  0  0  0  0  0  0  0  0  0  0
    6.4427    0.3907    0.1373 C   0  0  0  0  0  0  0  0  0  0  0  0
    5.1294    0.1945    0.5133 C   0  0  0  0  0  0  0  0  0  0  0  0
    7.4534   -0.5009    0.4066 C   0  0  0  0  0  0  0  0  0  0  0  0
    8.7469   -0.2437    0.0025 C   0  0  0  0  0  0  0  0  0  0  0  0
    9.0824    0.9220   -0.6908 C   0  0  0  0  0  0  0  0  0  0  0  0
    8.0710    1.8155   -0.9609 C   0  0  0  0  0  0  0  0  0  0  0  0
    1.7639   -4.2064   -0.3810 H   0  0  0  0  0  0  0  0  0  0  0  0
    3.0668   -3.3650   -1.2414 H   0  0  0  0  0  0  0  0  0  0  0  0
    1.5674   -3.7444   -2.1467 H   0  0  0  0  0  0  0  0  0  0  0  0
    0.4560   -2.0783   -0.4681 H   0  0  0  0  0  0  0  0  0  0  0  0
    1.8137    0.9743   -1.3462 H   0  0  0  0  0  0  0  0  0  0  0  0
    0.6677   -1.0314    1.6453 H   0  0  0  0  0  0  0  0  0  0  0  0
    0.0769    0.5956    2.1476 H   0  0  0  0  0  0  0  0  0  0  0  0
   -1.6215   -0.8708    2.4313 H   0  0  0  0  0  0  0  0  0  0  0  0
   -1.4810   -1.6480    0.7763 H   0  0  0  0  0  0  0  0  0  0  0  0
   -2.5344    1.7715   -0.6314 H   0  0  0  0  0  0  0  0  0  0  0  0
   -0.4183    2.8107    1.1656 H   0  0  0  0  0  0  0  0  0  0  0  0
   -2.0017    3.5110    0.7918 H   0  0  0  0  0  0  0  0  0  0  0  0
   -1.8871    2.3486    2.1195 H   0  0  0  0  0  0  0  0  0  0  0  0
   -5.1545   -0.7521    2.1088 H   0  0  0  0  0  0  0  0  0  0  0  0
   -4.5925   -2.1933   -0.5552 H   0  0  0  0  0  0  0  0  0  0  0  0
   -5.7282   -2.7199    0.7529 H   0  0  0  0  0  0  0  0  0  0  0  0
   -5.2203   -0.3166   -2.0217 H   0  0  0  0  0  0  0  0  0  0  0  0
   -7.0077    1.1439   -2.8571 H   0  0  0  0  0  0  0  0  0  0  0  0
   -9.4405    0.0998    0.4998 H   0  0  0  0  0  0  0  0  0  0  0  0
   -7.6338   -1.3709    1.3469 H   0  0  0  0  0  0  0  0  0  0  0  0
   -3.8134   -2.2699    2.8654 H   0  0  0  0  0  0  0  0  0  0  0  0
   -3.4670   -2.8721    1.2783 H   0  0  0  0  0  0  0  0  0  0  0  0
    2.7084    0.2718    1.5218 H   0  0  0  0  0  0  0  0  0  0  0  0
    2.3812    1.9325    1.0275 H   0  0  0  0  0  0  0  0  0  0  0  0
    3.7623    2.9887   -0.7002 H   0  0  0  0  0  0  0  0  0  0  0  0
    6.0424    3.3740   -1.3770 H   0  0  0  0  0  0  0  0  0  0  0  0
    4.9006   -0.6989    1.0488 H   0  0  0  0  0  0  0  0  0  0  0  0
    7.2350   -1.4019    0.9342 H   0  0  0  0  0  0  0  0  0  0  0  0
    9.5619   -0.9418    0.2090 H   0  0  0  0  0  0  0  0  0  0  0  0
   10.1082    1.1186   -1.0075 H   0  0  0  0  0  0  0  0  0  0  0  0
    8.2782    2.7501   -1.5040 H   0  0  0  0  0  0  0  0  0  0  0  0
  1  2  1  0
  2  3  1  0
  3  4  2  0
  3  5  1  0
  5  6  1  0
  6  7  1  0
  7  8  1  0
  8  9  1  0
  9 10  1  0
 10 11  1  0
 11 12  2  0
 10 13  1  0
  9 14  1  0
 14 15  2  0
 14 16  1  0
 16 17  1  0
 17 18  1  0
 18 19  2  0
 19 20  1  0
 20 21  2  0
 21 22  1  0
 22 23  2  0
 21 24  1  0
 16 25  1  0
  5 26  1  0
 26 27  1  0
 27 28  2  0
 28 29  1  0
 29 30  2  0
 30 31  1  0
 31 32  2  0
 31 33  1  0
 33 34  2  0
 34 35  1  0
 35 36  2  0
 11  6  1  0
 23 18  1  0
 32 27  1  0
 36 30  1  0
  1 37  1  0
  1 38  1  0
  1 39  1  0
  2 40  1  0
  5 41  1  6
  7 42  1  0
  7 43  1  0
  8 44  1  0
  8 45  1  0
 10 46  1  6
 13 47  1  0
 13 48  1  0
 13 49  1  0
 16 50  1  1
 17 51  1  0
 17 52  1  0
 19 53  1  0
 20 54  1  0
 22 55  1  0
 23 56  1  0
 25 57  1  0
 25 58  1  0
 26 59  1  0
 26 60  1  0
 28 61  1  0
 29 62  1  0
 32 63  1  0
 33 64  1  0
 34 65  1  0
 35 66  1  0
 36 67  1  0
M  END
>  <Ligand ID>  (1) 
LIG0002274

>  <Ligand>  (1) 
CHEMBL517108

>  <SMILES>  (1) 
CNC(=O)[C@@H](N1CCN([C@H](C1=O)C)C(=O)[C@@H](Cc1ccc(cc1)F)N)Cc1ccc2c(c1)cccc2

>  <CID>  (1) 
25128748.0

>  <ChEMBL ID>  (1) 
nan

>  <InChiKey>  (1) 
GQPNXZXCXCXNAT-MUEKUWCCSA-N

>  <InChi>  (1) 
InChI=1S/C28H31FN4O3/c1-18-27(35)33(14-13-32(18)28(36)24(30)16-19-8-11-23(29)12-9-19)25(26(34)31-2)17-20-7-10-21-5-3-4-6-22(21)15-20/h3-12,15,18,24-25H,13-14,16-17,30H2,1-2H3,(H,31,34)/t18-,24+,25-/m0/s1

>  <IUPAC Name>  (1) 
(2S)-2-[(3S)-4-[(2R)-2-amino-3-(4-fluorophenyl)propanoyl]-3-methyl-2-oxopiperazin-1-yl]-N-methyl-3-naphthalen-2-ylpropanamide

$$$$
