
     RDKit          3D

 61 63  0  0  0  0  0  0  0  0999 V2000
    0.7003   -1.5901    1.3516 C   0  0  0  0  0  0  0  0  0  0  0  0
   -0.3640   -0.8962    0.5600 C   0  0  0  0  0  0  0  0  0  0  0  0
   -0.0005   -0.1621   -0.5833 C   0  0  0  0  0  0  0  0  0  0  0  0
    1.3058   -0.1256   -0.9062 O   0  0  0  0  0  0  0  0  0  0  0  0
    2.0408    0.4592   -1.8980 C   0  0  0  0  0  0  0  0  0  0  0  0
    2.0322    1.9446   -2.0038 C   0  0  0  0  0  0  0  0  0  0  0  0
    2.5291    2.6707   -0.7893 C   0  0  0  0  0  0  0  0  0  0  0  0
    3.9349    2.3649   -0.3972 C   0  0  0  0  0  0  0  0  0  0  0  0
    4.1811    1.0219   -0.0920 O   0  0  0  0  0  0  0  0  0  0  0  0
    5.4578    0.5717    0.2957 C   0  0  0  0  0  0  0  0  0  0  0  0
    6.5060    1.4847    0.3789 C   0  0  0  0  0  0  0  0  0  0  0  0
    7.7591    1.0286    0.7621 C   0  0  0  0  0  0  0  0  0  0  0  0
    7.9479   -0.3071    1.0522 C   0  0  0  0  0  0  0  0  0  0  0  0
    6.8970   -1.1976    0.9643 C   0  0  0  0  0  0  0  0  0  0  0  0
    5.6218   -0.7681    0.5807 C   0  0  0  0  0  0  0  0  0  0  0  0
    9.2902   -0.7212    1.4490 C   0  0  0  0  0  0  0  0  0  0  0  0
   10.1884    0.1449    1.5049 O   0  0  0  0  0  0  0  0  0  0  0  0
    9.5928   -2.0459    1.7642 O   0  0  0  0  0  0  0  0  0  0  0  0
   -1.0455    0.4392   -1.2446 C   0  0  0  0  0  0  0  0  0  0  0  0
   -2.3616    0.3491   -0.8428 C   0  0  0  0  0  0  0  0  0  0  0  0
   -2.6901   -0.3712    0.2736 C   0  0  0  0  0  0  0  0  0  0  0  0
   -1.6755   -0.9875    0.9623 C   0  0  0  0  0  0  0  0  0  0  0  0
   -1.9439   -1.7444    2.1193 O   0  0  0  0  0  0  0  0  0  0  0  0
   -4.0610   -0.5044    0.7494 C   0  0  0  0  0  0  0  0  0  0  0  0
   -4.2413   -1.1900    1.7850 O   0  0  0  0  0  0  0  0  0  0  0  0
   -5.1255    0.1685   -0.0117 C   0  0  0  0  0  0  0  0  0  0  0  0
   -6.4490   -0.1181    0.6725 C   0  0  0  0  0  0  0  0  0  0  0  0
   -6.7427   -1.5855    0.7253 C   0  0  0  0  0  0  0  0  0  0  0  0
   -8.2542   -1.6857    0.6860 C   0  0  0  0  0  0  0  0  0  0  0  0
   -8.7781   -0.2863    0.4157 C   0  0  0  0  0  0  0  0  0  0  0  0
   -7.5801    0.4327   -0.1587 C   0  0  0  0  0  0  0  0  0  0  0  0
    0.8843   -0.9419    2.2441 H   0  0  0  0  0  0  0  0  0  0  0  0
    1.6597   -1.5782    0.7881 H   0  0  0  0  0  0  0  0  0  0  0  0
    0.3876   -2.5927    1.6844 H   0  0  0  0  0  0  0  0  0  0  0  0
    1.6268    0.0749   -2.8829 H   0  0  0  0  0  0  0  0  0  0  0  0
    3.0708    0.0296   -1.8798 H   0  0  0  0  0  0  0  0  0  0  0  0
    2.7391    2.2571   -2.8363 H   0  0  0  0  0  0  0  0  0  0  0  0
    1.0588    2.3586   -2.3054 H   0  0  0  0  0  0  0  0  0  0  0  0
    1.8929    2.5172    0.1021 H   0  0  0  0  0  0  0  0  0  0  0  0
    2.4760    3.7544   -1.0118 H   0  0  0  0  0  0  0  0  0  0  0  0
    4.6552    2.7823   -1.1337 H   0  0  0  0  0  0  0  0  0  0  0  0
    4.1348    2.9364    0.5415 H   0  0  0  0  0  0  0  0  0  0  0  0
    6.3695    2.5365    0.1534 H   0  0  0  0  0  0  0  0  0  0  0  0
    8.5551    1.7565    0.8188 H   0  0  0  0  0  0  0  0  0  0  0  0
    7.0951   -2.2423    1.2032 H   0  0  0  0  0  0  0  0  0  0  0  0
    4.8359   -1.4898    0.5252 H   0  0  0  0  0  0  0  0  0  0  0  0
   10.5455   -2.4122    1.6970 H   0  0  0  0  0  0  0  0  0  0  0  0
   -0.8504    1.0143   -2.1339 H   0  0  0  0  0  0  0  0  0  0  0  0
   -3.1653    0.8299   -1.3778 H   0  0  0  0  0  0  0  0  0  0  0  0
   -2.3040   -2.6857    2.0349 H   0  0  0  0  0  0  0  0  0  0  0  0
   -4.9628    1.2586   -0.0632 H   0  0  0  0  0  0  0  0  0  0  0  0
   -5.1736   -0.2158   -1.0541 H   0  0  0  0  0  0  0  0  0  0  0  0
   -6.4021    0.3321    1.6784 H   0  0  0  0  0  0  0  0  0  0  0  0
   -6.3206   -2.0544   -0.1899 H   0  0  0  0  0  0  0  0  0  0  0  0
   -6.3852   -2.0982    1.6415 H   0  0  0  0  0  0  0  0  0  0  0  0
   -8.6736   -2.0274    1.6690 H   0  0  0  0  0  0  0  0  0  0  0  0
   -8.5819   -2.3401   -0.1403 H   0  0  0  0  0  0  0  0  0  0  0  0
   -9.1397    0.1988    1.3383 H   0  0  0  0  0  0  0  0  0  0  0  0
   -9.6039   -0.3128   -0.3280 H   0  0  0  0  0  0  0  0  0  0  0  0
   -7.4276    0.0347   -1.1874 H   0  0  0  0  0  0  0  0  0  0  0  0
   -7.6682    1.5257   -0.1400 H   0  0  0  0  0  0  0  0  0  0  0  0
  1  2  1  0
  2  3  2  0
  3  4  1  0
  4  5  1  0
  5  6  1  0
  6  7  1  0
  7  8  1  0
  8  9  1  0
  9 10  1  0
 10 11  2  0
 11 12  1  0
 12 13  2  0
 13 14  1  0
 14 15  2  0
 13 16  1  0
 16 17  2  0
 16 18  1  0
  3 19  1  0
 19 20  2  0
 20 21  1  0
 21 22  2  0
 22 23  1  0
 21 24  1  0
 24 25  2  0
 24 26  1  0
 26 27  1  0
 27 28  1  0
 28 29  1  0
 29 30  1  0
 30 31  1  0
 22  2  1  0
 31 27  1  0
 15 10  1  0
  1 32  1  0
  1 33  1  0
  1 34  1  0
  5 35  1  0
  5 36  1  0
  6 37  1  0
  6 38  1  0
  7 39  1  0
  7 40  1  0
  8 41  1  0
  8 42  1  0
 11 43  1  0
 12 44  1  0
 14 45  1  0
 15 46  1  0
 18 47  1  0
 19 48  1  0
 20 49  1  0
 23 50  1  0
 26 51  1  0
 26 52  1  0
 27 53  1  0
 28 54  1  0
 28 55  1  0
 29 56  1  0
 29 57  1  0
 30 58  1  0
 30 59  1  0
 31 60  1  0
 31 61  1  0
M  END
>  <Ligand ID>  (1) 
LIG0003652

>  <Ligand>  (1) 
CHEMBL3287672

>  <SMILES>  (1) 
Cc1c(OCCCCOc2ccc(cc2)C(=O)O)ccc(c1O)C(=O)CC1CCCC1

>  <CID>  (1) 
90643859.0

>  <ChEMBL ID>  (1) 
nan

>  <InChiKey>  (1) 
LAYLGZDXNCBQLL-UHFFFAOYSA-N

>  <InChi>  (1) 
InChI=1S/C25H30O6/c1-17-23(13-12-21(24(17)27)22(26)16-18-6-2-3-7-18)31-15-5-4-14-30-20-10-8-19(9-11-20)25(28)29/h8-13,18,27H,2-7,14-16H2,1H3,(H,28,29)

>  <IUPAC Name>  (1) 
4-[4-[4-(2-cyclopentylacetyl)-3-hydroxy-2-methylphenoxy]butoxy]benzoic acid

$$$$
