
     RDKit          3D

 96 99  0  0  0  0  0  0  0  0999 V2000
   -1.9273   -3.1710   -3.5675 O   0  0  0  0  0  0  0  0  0  0  0  0
   -1.7164   -4.0199   -2.6858 C   0  0  0  0  0  0  0  0  0  0  0  0
   -0.3575   -4.5258   -2.7189 N   0  0  0  0  0  0  0  0  0  0  0  0
    0.6015   -4.0450   -3.7147 C   0  0  0  0  0  0  0  0  0  0  0  0
    0.8402   -2.5536   -3.6163 C   0  0  0  0  0  0  0  0  0  0  0  0
    1.3782   -2.1699   -2.2617 C   0  0  0  0  0  0  0  0  0  0  0  0
    1.3993   -0.6316   -2.2097 C   0  0  0  0  0  0  0  0  0  0  0  0
    1.8442   -0.1625   -0.8840 C   0  0  1  0  0  0  0  0  0  0  0  0
    3.1819   -0.3864   -0.4757 N   0  0  0  0  0  0  0  0  0  0  0  0
    3.6045   -1.2496    0.5730 C   0  0  0  0  0  0  0  0  0  0  0  0
    2.7818   -1.9261    1.2700 O   0  0  0  0  0  0  0  0  0  0  0  0
    5.0429   -1.4086    0.9134 C   0  0  2  0  0  0  0  0  0  0  0  0
    5.2916   -0.9665    2.3488 C   0  0  0  0  0  0  0  0  0  0  0  0
    6.7658   -1.1694    2.5817 C   0  0  0  0  0  0  0  0  0  0  0  0
    7.6743   -0.1728    2.3101 C   0  0  0  0  0  0  0  0  0  0  0  0
    9.0401   -0.3442    2.5215 C   0  0  0  0  0  0  0  0  0  0  0  0
    9.4514   -1.5635    3.0183 C   0  0  0  0  0  0  0  0  0  0  0  0
    8.5771   -2.5963    3.3069 C   0  0  0  0  0  0  0  0  0  0  0  0
    7.2323   -2.3759    3.0796 C   0  0  0  0  0  0  0  0  0  0  0  0
   10.8315   -1.7083    3.2214 O   0  0  0  0  0  0  0  0  0  0  0  0
    5.8061   -0.6191   -0.0215 N   0  0  0  0  0  0  0  0  0  0  0  0
    1.2156    1.0657   -0.4127 C   0  0  0  0  0  0  0  0  0  0  0  0
    1.7695    1.7053    0.5067 O   0  0  0  0  0  0  0  0  0  0  0  0
    0.0094    1.6505   -0.8993 N   0  0  0  0  0  0  0  0  0  0  0  0
   -0.5868    2.7304   -0.0827 C   0  0  2  0  0  0  0  0  0  0  0  0
   -1.8225    1.9864    0.4131 C   0  0  0  0  0  0  0  0  0  0  0  0
   -2.3483    2.2380    1.5025 O   0  0  0  0  0  0  0  0  0  0  0  0
   -2.4508    0.9746   -0.3568 N   0  0  0  0  0  0  0  0  0  0  0  0
   -3.4144   -0.0123    0.0359 C   0  0  2  0  0  0  0  0  0  0  0  0
   -3.3346   -1.1511   -0.9698 C   0  0  0  0  0  0  0  0  0  0  0  0
   -2.7851   -0.8850   -2.0307 O   0  0  0  0  0  0  0  0  0  0  0  0
   -3.8251   -2.4362   -0.7572 N   0  0  0  0  0  0  0  0  0  0  0  0
   -3.9114   -3.5633   -1.6420 C   0  0  1  0  0  0  0  0  0  0  0  0
   -2.7248   -4.4713   -1.7122 C   0  0  0  0  0  0  0  0  0  0  0  0
   -5.2094   -4.2618   -1.5623 C   0  0  0  0  0  0  0  0  0  0  0  0
   -6.1459   -3.8790   -0.7801 O   0  0  0  0  0  0  0  0  0  0  0  0
   -5.3958   -5.4026   -2.4012 N   0  0  0  0  0  0  0  0  0  0  0  0
   -4.8534    0.4508    0.0950 C   0  0  0  0  0  0  0  0  0  0  0  0
   -5.1669    1.5100    1.0357 C   0  0  0  0  0  0  0  0  0  0  0  0
   -5.4443    2.8195    0.7349 C   0  0  0  0  0  0  0  0  0  0  0  0
   -5.7565    3.7684    1.6617 C   0  0  0  0  0  0  0  0  0  0  0  0
   -5.8022    3.4126    2.9908 C   0  0  0  0  0  0  0  0  0  0  0  0
   -5.5335    2.1118    3.3570 C   0  0  0  0  0  0  0  0  0  0  0  0
   -5.2211    1.1767    2.3949 C   0  0  0  0  0  0  0  0  0  0  0  0
   -4.9684   -0.0806    2.8128 F   0  0  0  0  0  0  0  0  0  0  0  0
   -6.1109    4.3260    3.9681 F   0  0  0  0  0  0  0  0  0  0  0  0
   -0.9624    3.9210   -0.8451 C   0  0  0  0  0  0  0  0  0  0  0  0
   -1.5469    5.0438   -0.0716 C   0  0  0  0  0  0  0  0  0  0  0  0
   -0.6508    5.9211    0.5205 C   0  0  0  0  0  0  0  0  0  0  0  0
   -1.0582    7.0147    1.2570 C   0  0  0  0  0  0  0  0  0  0  0  0
   -2.4269    7.2134    1.3896 C   0  0  0  0  0  0  0  0  0  0  0  0
   -3.3317    6.3501    0.8068 C   0  0  0  0  0  0  0  0  0  0  0  0
   -2.8951    5.2633    0.0742 C   0  0  0  0  0  0  0  0  0  0  0  0
   -0.1621   -5.2201   -2.0019 H   0  0  0  0  0  0  0  0  0  0  0  0
    1.5847   -4.5264   -3.5588 H   0  0  0  0  0  0  0  0  0  0  0  0
    0.2699   -4.3445   -4.7244 H   0  0  0  0  0  0  0  0  0  0  0  0
    1.6192   -2.3463   -4.4140 H   0  0  0  0  0  0  0  0  0  0  0  0
   -0.0453   -2.0034   -3.9191 H   0  0  0  0  0  0  0  0  0  0  0  0
    2.4516   -2.4611   -2.2014 H   0  0  0  0  0  0  0  0  0  0  0  0
    0.7626   -2.6086   -1.4682 H   0  0  0  0  0  0  0  0  0  0  0  0
    2.0332   -0.3161   -3.0419 H   0  0  0  0  0  0  0  0  0  0  0  0
    0.3421   -0.3580   -2.3723 H   0  0  0  0  0  0  0  0  0  0  0  0
    1.2822   -0.9605   -0.1522 H   0  0  0  0  0  0  0  0  0  0  0  0
    3.9500    0.1225   -0.9823 H   0  0  0  0  0  0  0  0  0  0  0  0
    5.2916   -2.4820    0.7966 H   0  0  0  0  0  0  0  0  0  0  0  0
    4.7380   -1.6410    3.0296 H   0  0  0  0  0  0  0  0  0  0  0  0
    5.0940    0.0971    2.4766 H   0  0  0  0  0  0  0  0  0  0  0  0
    7.3514    0.7831    1.9211 H   0  0  0  0  0  0  0  0  0  0  0  0
    9.7476    0.4677    2.2967 H   0  0  0  0  0  0  0  0  0  0  0  0
    8.9367   -3.5500    3.7009 H   0  0  0  0  0  0  0  0  0  0  0  0
    6.5300   -3.1792    3.3016 H   0  0  0  0  0  0  0  0  0  0  0  0
   11.3456   -2.1004    2.4264 H   0  0  0  0  0  0  0  0  0  0  0  0
    6.8332   -0.8060    0.0734 H   0  0  0  0  0  0  0  0  0  0  0  0
    5.6309    0.3943    0.1884 H   0  0  0  0  0  0  0  0  0  0  0  0
   -0.3440    1.3183   -1.7716 H   0  0  0  0  0  0  0  0  0  0  0  0
    0.0105    2.9679    0.8008 H   0  0  0  0  0  0  0  0  0  0  0  0
   -2.1772    0.9854   -1.3592 H   0  0  0  0  0  0  0  0  0  0  0  0
   -3.1906   -0.3343    1.0663 H   0  0  0  0  0  0  0  0  0  0  0  0
   -4.1866   -2.5954    0.2212 H   0  0  0  0  0  0  0  0  0  0  0  0
   -3.9440   -3.0470   -2.6874 H   0  0  0  0  0  0  0  0  0  0  0  0
   -2.2096   -4.5577   -0.7216 H   0  0  0  0  0  0  0  0  0  0  0  0
   -3.0911   -5.5009   -1.9186 H   0  0  0  0  0  0  0  0  0  0  0  0
   -5.1323   -6.3644   -2.0954 H   0  0  0  0  0  0  0  0  0  0  0  0
   -5.8057   -5.2680   -3.3412 H   0  0  0  0  0  0  0  0  0  0  0  0
   -5.5019   -0.4278    0.3534 H   0  0  0  0  0  0  0  0  0  0  0  0
   -5.1971    0.7703   -0.9199 H   0  0  0  0  0  0  0  0  0  0  0  0
   -5.4099    3.0882   -0.3206 H   0  0  0  0  0  0  0  0  0  0  0  0
   -5.9694    4.7901    1.3942 H   0  0  0  0  0  0  0  0  0  0  0  0
   -5.5705    1.8332    4.4022 H   0  0  0  0  0  0  0  0  0  0  0  0
   -1.7668    3.6681   -1.6095 H   0  0  0  0  0  0  0  0  0  0  0  0
   -0.1441    4.2991   -1.5333 H   0  0  0  0  0  0  0  0  0  0  0  0
    0.4331    5.7931    0.4348 H   0  0  0  0  0  0  0  0  0  0  0  0
   -0.3767    7.7104    1.7268 H   0  0  0  0  0  0  0  0  0  0  0  0
   -2.7379    8.0752    1.9701 H   0  0  0  0  0  0  0  0  0  0  0  0
   -4.3771    6.5279    0.9264 H   0  0  0  0  0  0  0  0  0  0  0  0
   -3.5518    4.5624   -0.4151 H   0  0  0  0  0  0  0  0  0  0  0  0
  1  2  2  0
  2  3  1  0
  3  4  1  0
  4  5  1  0
  5  6  1  0
  6  7  1  0
  7  8  1  0
  8  9  1  0
  9 10  1  0
 10 11  2  0
 10 12  1  0
 12 13  1  0
 13 14  1  0
 14 15  2  0
 15 16  1  0
 16 17  2  0
 17 18  1  0
 18 19  2  0
 17 20  1  0
 12 21  1  0
  8 22  1  0
 22 23  2  0
 22 24  1  0
 24 25  1  0
 25 26  1  0
 26 27  2  0
 26 28  1  0
 28 29  1  0
 29 30  1  0
 30 31  2  0
 30 32  1  0
 32 33  1  0
 33 34  1  0
 33 35  1  0
 35 36  2  0
 35 37  1  0
 29 38  1  0
 38 39  1  0
 39 40  2  0
 40 41  1  0
 41 42  2  0
 42 43  1  0
 43 44  2  0
 44 45  1  0
 42 46  1  0
 25 47  1  0
 47 48  1  0
 48 49  2  0
 49 50  1  0
 50 51  2  0
 51 52  1  0
 52 53  2  0
 34  2  1  0
 44 39  1  0
 53 48  1  0
 19 14  1  0
  3 54  1  0
  4 55  1  0
  4 56  1  0
  5 57  1  0
  5 58  1  0
  6 59  1  0
  6 60  1  0
  7 61  1  0
  7 62  1  0
  8 63  1  1
  9 64  1  0
 12 65  1  1
 13 66  1  0
 13 67  1  0
 15 68  1  0
 16 69  1  0
 18 70  1  0
 19 71  1  0
 20 72  1  0
 21 73  1  0
 21 74  1  0
 24 75  1  0
 25 76  1  1
 28 77  1  0
 29 78  1  1
 32 79  1  0
 33 80  1  6
 34 81  1  0
 34 82  1  0
 37 83  1  0
 37 84  1  0
 38 85  1  0
 38 86  1  0
 40 87  1  0
 41 88  1  0
 43 89  1  0
 47 90  1  0
 47 91  1  0
 49 92  1  0
 50 93  1  0
 51 94  1  0
 52 95  1  0
 53 96  1  0
M  END
>  <Ligand ID>  (1) 
LIG0003104

>  <Ligand>  (1) 
CHEMBL3580743

>  <SMILES>  (1) 
O=C1NCCCC[C@@H](NC(=O)[C@H](Cc2ccc(cc2)O)N)C(=O)N[C@H](C(=O)N[C@H](C(=O)N[C@@H](C1)C(=O)N)Cc1ccc(cc1F)F)Cc1ccccc1

>  <CID>  (1) 
122178420.0

>  <ChEMBL ID>  (1) 
nan

>  <InChiKey>  (1) 
ARPMOQQOTWEYPJ-JZVHMONDSA-N

>  <InChi>  (1) 
InChI=1S/C37H43F2N7O7/c38-24-12-11-23(26(39)19-24)18-31-37(53)44-29(33(41)49)20-32(48)42-15-5-4-8-28(43-34(50)27(40)16-22-9-13-25(47)14-10-22)35(51)45-30(36(52)46-31)17-21-6-2-1-3-7-21/h1-3,6-7,9-14,19,27-31,47H,4-5,8,15-18,20,40H2,(H2,41,49)(H,42,48)(H,43,50)(H,44,53)(H,45,51)(H,46,52)/t27-,28+,29-,30-,31-/m0/s1

>  <IUPAC Name>  (1) 
(2S,5S,8S,16R)-16-[[(2S)-2-amino-3-(4-hydroxyphenyl)propanoyl]amino]-2-benzyl-5-[(2,4-difluorophenyl)methyl]-3,6,10,17-tetraoxo-1,4,7,11-tetrazacycloheptadecane-8-carboxamide

$$$$
