
     RDKit          3D

 70 77  0  0  0  0  0  0  0  0999 V2000
    3.1142   -2.0874   -0.5688 O   0  0  0  0  0  0  0  0  0  0  0  0
    3.0273   -0.8630   -0.2105 C   0  0  0  0  0  0  0  0  0  0  0  0
    4.2077   -0.0080   -0.1466 C   0  0  0  0  0  0  0  0  0  0  0  0
    4.1439    1.2836    0.2236 N   0  0  0  0  0  0  0  0  0  0  0  0
    5.2585    2.0631    0.2783 C   0  0  0  0  0  0  0  0  0  0  0  0
    6.4916    1.5119   -0.0559 C   0  0  0  0  0  0  0  0  0  0  0  0
    6.5685    0.1933   -0.4357 C   0  0  0  0  0  0  0  0  0  0  0  0
    5.4212   -0.5675   -0.4804 C   0  0  0  0  0  0  0  0  0  0  0  0
    7.7671   -0.3928   -0.7742 C   0  0  0  0  0  0  0  0  0  0  0  0
    8.9420    0.3320   -0.7426 C   0  0  0  0  0  0  0  0  0  0  0  0
    8.8858    1.6561   -0.3642 C   0  0  0  0  0  0  0  0  0  0  0  0
    7.6637    2.2333   -0.0249 C   0  0  0  0  0  0  0  0  0  0  0  0
   10.1607   -0.3005   -1.0982 N   0  0  0  0  0  0  0  0  0  0  0  0
   10.1869   -1.4819   -1.4347 O   0  0  0  0  0  0  0  0  0  0  0  0
   11.3423    0.4235   -1.0670 O   0  0  0  0  0  0  0  0  0  0  0  0
    1.7262   -0.3424    0.1320 N   0  0  0  0  0  0  0  0  0  0  0  0
    0.5702   -1.2502    0.0504 C   0  0  1  0  0  0  0  0  0  0  0  0
    0.0733   -1.4623    1.4266 C   0  0  0  0  0  0  0  0  0  0  0  0
   -1.2555   -0.8912    1.7801 C   0  0  0  0  0  0  0  0  0  0  0  0
   -2.2626   -1.1822    0.6650 C   0  0  2  0  0  0  0  0  0  0  0  0
   -1.7634   -0.4701   -0.5340 C   0  0  2  0  0  0  0  0  0  0  0  0
   -0.3508   -0.7135   -0.9656 C   0  0  1  0  0  0  0  0  0  0  0  0
    0.0613    0.5680   -1.5161 O   0  0  0  0  0  0  0  0  0  0  0  0
   -0.6034    1.5479   -0.7445 C   0  0  0  0  0  0  0  0  0  0  0  0
   -1.6715    0.9547   -0.1311 C   0  0  0  0  0  0  0  0  0  0  0  0
   -2.5717    1.5166    0.7035 C   0  0  0  0  0  0  0  0  0  0  0  0
   -3.6681    0.7849    1.3709 C   0  0  0  0  0  0  0  0  0  0  0  0
   -3.6232   -0.6654    0.9852 C   0  0  1  0  0  0  0  0  0  0  0  0
   -4.6167   -0.8059   -0.0836 N   0  0  0  0  0  0  0  0  0  0  0  0
   -3.9631   -1.3879   -1.2652 C   0  0  0  0  0  0  0  0  0  0  0  0
   -2.7265   -0.6720   -1.6726 C   0  0  0  0  0  0  0  0  0  0  0  0
   -5.6245   -1.7832    0.2903 C   0  0  0  0  0  0  0  0  0  0  0  0
   -6.8883   -1.5894   -0.4776 C   0  0  0  0  0  0  0  0  0  0  0  0
   -7.6206   -0.2961   -0.2496 C   0  0  0  0  0  0  0  0  0  0  0  0
   -6.9679   -0.5656   -1.5579 C   0  0  0  0  0  0  0  0  0  0  0  0
   -2.3717    2.8913    0.9596 C   0  0  0  0  0  0  0  0  0  0  0  0
   -1.2981    3.5571    0.3602 C   0  0  0  0  0  0  0  0  0  0  0  0
   -0.4115    2.8881   -0.4924 C   0  0  0  0  0  0  0  0  0  0  0  0
    0.6553    3.5496   -1.0873 O   0  0  0  0  0  0  0  0  0  0  0  0
   -2.2463   -2.5652    0.4801 O   0  0  0  0  0  0  0  0  0  0  0  0
    5.2214    3.0985    0.5729 H   0  0  0  0  0  0  0  0  0  0  0  0
    5.5111   -1.5994   -0.7818 H   0  0  0  0  0  0  0  0  0  0  0  0
    7.8336   -1.4228   -1.0716 H   0  0  0  0  0  0  0  0  0  0  0  0
    9.8181    2.2381   -0.3372 H   0  0  0  0  0  0  0  0  0  0  0  0
    7.6524    3.2747    0.2681 H   0  0  0  0  0  0  0  0  0  0  0  0
    1.5862    0.6446    0.4313 H   0  0  0  0  0  0  0  0  0  0  0  0
    0.9383   -2.2645   -0.3081 H   0  0  0  0  0  0  0  0  0  0  0  0
    0.8170   -1.0906    2.1977 H   0  0  0  0  0  0  0  0  0  0  0  0
    0.0076   -2.5652    1.6772 H   0  0  0  0  0  0  0  0  0  0  0  0
   -1.6603   -1.4121    2.6883 H   0  0  0  0  0  0  0  0  0  0  0  0
   -1.1240    0.1546    2.0180 H   0  0  0  0  0  0  0  0  0  0  0  0
   -0.3508   -1.3728   -1.8563 H   0  0  0  0  0  0  0  0  0  0  0  0
   -3.5891    0.9099    2.4863 H   0  0  0  0  0  0  0  0  0  0  0  0
   -4.6652    1.1961    1.0372 H   0  0  0  0  0  0  0  0  0  0  0  0
   -4.0616   -1.2701    1.8444 H   0  0  0  0  0  0  0  0  0  0  0  0
   -4.6707   -1.3368   -2.0994 H   0  0  0  0  0  0  0  0  0  0  0  0
   -3.8236   -2.4979   -1.1072 H   0  0  0  0  0  0  0  0  0  0  0  0
   -2.1926   -1.3532   -2.3971 H   0  0  0  0  0  0  0  0  0  0  0  0
   -2.9034    0.2556   -2.2277 H   0  0  0  0  0  0  0  0  0  0  0  0
   -5.2120   -2.8127    0.2046 H   0  0  0  0  0  0  0  0  0  0  0  0
   -5.8451   -1.5873    1.3724 H   0  0  0  0  0  0  0  0  0  0  0  0
   -7.4955   -2.5215   -0.5956 H   0  0  0  0  0  0  0  0  0  0  0  0
   -7.2017    0.4294    0.4763 H   0  0  0  0  0  0  0  0  0  0  0  0
   -8.7345   -0.3898   -0.1864 H   0  0  0  0  0  0  0  0  0  0  0  0
   -6.2042    0.1777   -1.8001 H   0  0  0  0  0  0  0  0  0  0  0  0
   -7.6623   -0.7738   -2.4032 H   0  0  0  0  0  0  0  0  0  0  0  0
   -3.0641    3.3972    1.6205 H   0  0  0  0  0  0  0  0  0  0  0  0
   -1.1632    4.6163    0.5697 H   0  0  0  0  0  0  0  0  0  0  0  0
    0.8450    3.3038   -2.0632 H   0  0  0  0  0  0  0  0  0  0  0  0
   -2.3692   -3.0373    1.3501 H   0  0  0  0  0  0  0  0  0  0  0  0
  1  2  2  0
  2  3  1  0
  3  4  2  0
  4  5  1  0
  5  6  2  0
  6  7  1  0
  7  8  2  0
  7  9  1  0
  9 10  2  0
 10 11  1  0
 11 12  2  0
 10 13  1  0
 13 14  2  0
 13 15  1  0
  2 16  1  0
 16 17  1  0
 17 18  1  0
 18 19  1  0
 19 20  1  0
 20 21  1  0
 21 22  1  0
 22 23  1  0
 23 24  1  0
 24 25  2  0
 25 26  1  0
 26 27  1  0
 27 28  1  0
 28 29  1  0
 29 30  1  0
 30 31  1  0
 29 32  1  0
 32 33  1  0
 33 34  1  0
 34 35  1  0
 26 36  2  0
 36 37  1  0
 37 38  2  0
 38 39  1  0
 20 40  1  6
  8  3  1  0
 22 17  1  0
 38 24  1  0
 12  6  1  0
 28 20  1  0
 35 33  1  0
 21 31  1  6
 25 21  1  0
  5 41  1  0
  8 42  1  0
  9 43  1  0
 11 44  1  0
 12 45  1  0
 16 46  1  0
 17 47  1  6
 18 48  1  0
 18 49  1  0
 19 50  1  0
 19 51  1  0
 22 52  1  6
 27 53  1  0
 27 54  1  0
 28 55  1  1
 30 56  1  0
 30 57  1  0
 31 58  1  0
 31 59  1  0
 32 60  1  0
 32 61  1  0
 33 62  1  0
 34 63  1  0
 34 64  1  0
 35 65  1  0
 35 66  1  0
 36 67  1  0
 37 68  1  0
 39 69  1  0
 40 70  1  0
M  CHG  2  13   1  15  -1
M  END
>  <Ligand ID>  (1) 
LIG0002885

>  <Ligand>  (1) 
CHEMBL3401554

>  <SMILES>  (1) 
O=C(c1ncc2c(c1)cc(cc2)[N+](=O)[O-])N[C@H]1CC[C@@]2([C@@]34[C@H]1Oc1c4c(C[C@H]2N(CC3)CC2CC2)ccc1O)O

>  <CID>  (1) 
117738965.0

>  <ChEMBL ID>  (1) 
nan

>  <InChiKey>  (1) 
XIIVDDDMNYXPRO-YSAQZOOCSA-N

>  <InChi>  (1) 
InChI=1S/C30H30N4O6/c35-23-6-4-17-13-24-30(37)8-7-21(27-29(30,25(17)26(23)40-27)9-10-33(24)15-16-1-2-16)32-28(36)22-12-19-11-20(34(38)39)5-3-18(19)14-31-22/h3-6,11-12,14,16,21,24,27,35,37H,1-2,7-10,13,15H2,(H,32,36)/t21-,24+,27-,29-,30+/m0/s1

>  <IUPAC Name>  (1) 
N-[(4R,4aS,7S,7aR,12bS)-3-(cyclopropylmethyl)-4a,9-dihydroxy-1,2,4,5,6,7,7a,13-octahydro-4,12-methanobenzofuro[3,2-e]isoquinolin-7-yl]-6-nitroisoquinoline-3-carboxamide

$$$$
