
     RDKit          3D

 35 37  0  0  0  0  0  0  0  0999 V2000
    3.5962   -2.1114    0.5320 C   0  0  0  0  0  0  0  0  0  0  0  0
    3.1378   -1.4830   -0.7491 C   0  0  0  0  0  0  0  0  0  0  0  0
    1.9904   -0.5417   -0.5219 C   0  0  0  0  0  0  0  0  0  0  0  0
    0.6853   -0.9801   -0.5767 C   0  0  0  0  0  0  0  0  0  0  0  0
   -0.3075   -0.0483   -0.3563 C   0  0  0  0  0  0  0  0  0  0  0  0
   -1.7002   -0.4677   -0.4181 C   0  0  1  0  0  0  0  0  0  0  0  0
   -2.0505   -1.8162    0.0744 C   0  0  0  0  0  0  0  0  0  0  0  0
   -3.5090   -1.7502    0.2284 N   0  0  0  0  0  0  0  0  0  0  0  0
   -3.8650   -0.3205    0.2012 C   0  0  0  0  0  0  0  0  0  0  0  0
   -2.5833    0.3518    0.5406 C   0  0  2  0  0  0  0  0  0  0  0  0
   -2.4299    1.7084    0.0625 N   0  0  0  0  0  0  0  0  0  0  0  0
   -1.0855    2.2392    0.1361 C   0  0  0  0  0  0  0  0  0  0  0  0
   -0.8915    3.4558    0.3788 O   0  0  0  0  0  0  0  0  0  0  0  0
    0.0059    1.2851   -0.0882 C   0  0  0  0  0  0  0  0  0  0  0  0
    1.3071    1.7385   -0.0294 C   0  0  0  0  0  0  0  0  0  0  0  0
    2.2875    0.7606   -0.2597 C   0  0  0  0  0  0  0  0  0  0  0  0
    1.6894    3.1276    0.2752 C   0  0  0  0  0  0  0  0  0  0  0  0
    1.3198    3.5812    1.5169 F   0  0  0  0  0  0  0  0  0  0  0  0
    3.0728    3.1806    0.3160 F   0  0  0  0  0  0  0  0  0  0  0  0
    1.3665    4.0080   -0.7394 F   0  0  0  0  0  0  0  0  0  0  0  0
    4.0761   -3.0774    0.2904 H   0  0  0  0  0  0  0  0  0  0  0  0
    4.2858   -1.4075    1.0399 H   0  0  0  0  0  0  0  0  0  0  0  0
    2.6885   -2.3376    1.1295 H   0  0  0  0  0  0  0  0  0  0  0  0
    2.7182   -2.2968   -1.3814 H   0  0  0  0  0  0  0  0  0  0  0  0
    3.9341   -0.9999   -1.3211 H   0  0  0  0  0  0  0  0  0  0  0  0
    0.5006   -2.0225   -0.7877 H   0  0  0  0  0  0  0  0  0  0  0  0
   -2.1334   -0.3587   -1.4376 H   0  0  0  0  0  0  0  0  0  0  0  0
   -1.5688   -1.9762    1.0795 H   0  0  0  0  0  0  0  0  0  0  0  0
   -1.8301   -2.6520   -0.6021 H   0  0  0  0  0  0  0  0  0  0  0  0
   -3.8094   -2.1746    1.1455 H   0  0  0  0  0  0  0  0  0  0  0  0
   -4.7235   -0.0852    0.8410 H   0  0  0  0  0  0  0  0  0  0  0  0
   -4.0637   -0.1207   -0.8859 H   0  0  0  0  0  0  0  0  0  0  0  0
   -2.2446    0.2074    1.5678 H   0  0  0  0  0  0  0  0  0  0  0  0
   -3.1855    2.3005   -0.3113 H   0  0  0  0  0  0  0  0  0  0  0  0
    3.3192    1.0837   -0.2214 H   0  0  0  0  0  0  0  0  0  0  0  0
  1  2  1  0
  2  3  1  0
  3  4  2  0
  4  5  1  0
  5  6  1  0
  6  7  1  0
  7  8  1  0
  8  9  1  0
  9 10  1  0
 10 11  1  0
 11 12  1  0
 12 13  2  0
 12 14  1  0
 14 15  1  0
 15 16  2  0
 15 17  1  0
 17 18  1  0
 17 19  1  0
 17 20  1  0
 16  3  1  0
 14  5  2  0
 10  6  1  0
  1 21  1  0
  1 22  1  0
  1 23  1  0
  2 24  1  0
  2 25  1  0
  4 26  1  0
  6 27  1  6
  7 28  1  0
  7 29  1  0
  8 30  1  0
  9 31  1  0
  9 32  1  0
 10 33  1  1
 11 34  1  0
 16 35  1  0
M  END
>  <Ligand ID>  (1) 
LIG0004106

>  <Ligand>  (1) 
CHEMBL2337106

>  <SMILES>  (1) 
CCc1cc2[C@H]3CNC[C@@H]3NC(=O)c2c(c1)C(F)(F)F

>  <CID>  (1) 
11493484.0

>  <ChEMBL ID>  (1) 
nan

>  <InChiKey>  (1) 
ZGBJXYZTHWMREU-KOLCDFICSA-N

>  <InChi>  (1) 
InChI=1S/C14H15F3N2O/c1-2-7-3-8-9-5-18-6-11(9)19-13(20)12(8)10(4-7)14(15,16)17/h3-4,9,11,18H,2,5-6H2,1H3,(H,19,20)/t9-,11+/m1/s1

>  <IUPAC Name>  (1) 
(3aR,9bS)-8-ethyl-6-(trifluoromethyl)-1,2,3,3a,4,9b-hexahydropyrrolo[3,4-c]isoquinolin-5-one

$$$$
