
     RDKit          3D

 72 73  0  0  0  0  0  0  0  0999 V2000
   11.0522    0.3230   -1.5268 O   0  0  0  0  0  0  0  0  0  0  0  0
   10.5978    0.6419   -0.2401 C   0  0  0  0  0  0  0  0  0  0  0  0
    9.2993   -0.0343   -0.0169 C   0  0  0  0  0  0  0  0  0  0  0  0
    8.0823    0.6024   -0.0576 C   0  0  0  0  0  0  0  0  0  0  0  0
    6.8963   -0.0739    0.1588 C   0  0  0  0  0  0  0  0  0  0  0  0
    6.9507   -1.4183    0.4201 C   0  0  0  0  0  0  0  0  0  0  0  0
    8.1612   -2.0919    0.4692 C   0  0  0  0  0  0  0  0  0  0  0  0
    9.3175   -1.3787    0.2476 C   0  0  0  0  0  0  0  0  0  0  0  0
   10.5350   -2.0733    0.3005 O   0  0  0  0  0  0  0  0  0  0  0  0
    5.6480    0.7213    0.0892 C   0  0  2  0  0  0  0  0  0  0  0  0
    4.4648   -0.1808    0.2611 C   0  0  0  0  0  0  0  0  0  0  0  0
    3.2114    0.4671    0.3439 N   0  0  0  0  0  0  0  0  0  0  0  0
    2.7097    1.0608   -0.8201 C   0  0  0  0  0  0  0  0  0  0  0  0
    2.3349    0.0028   -1.8331 C   0  0  0  0  0  0  0  0  0  0  0  0
    1.3363   -0.9833   -1.3536 C   0  0  0  0  0  0  0  0  0  0  0  0
    0.0165   -0.4608   -0.9057 C   0  0  0  0  0  0  0  0  0  0  0  0
    0.0690    0.4118    0.1362 O   0  0  0  0  0  0  0  0  0  0  0  0
   -1.1322    0.9053    0.5989 C   0  0  0  0  0  0  0  0  0  0  0  0
   -2.0765   -0.1280    1.1250 C   0  0  0  0  0  0  0  0  0  0  0  0
   -3.3277    0.5101    1.6577 C   0  0  0  0  0  0  0  0  0  0  0  0
   -4.0672    1.2480    0.6150 C   0  0  0  0  0  0  0  0  0  0  0  0
   -5.3373    1.8983    1.0830 C   0  0  0  0  0  0  0  0  0  0  0  0
   -6.3907    1.0247    1.6258 C   0  0  0  0  0  0  0  0  0  0  0  0
   -6.9634    0.0173    0.7403 C   0  0  0  0  0  0  0  0  0  0  0  0
   -6.5284   -1.2706    0.5799 C   0  0  0  0  0  0  0  0  0  0  0  0
   -7.1328   -2.1825   -0.2725 C   0  0  0  0  0  0  0  0  0  0  0  0
   -8.2338   -1.8151   -1.0178 C   0  0  0  0  0  0  0  0  0  0  0  0
   -8.6890   -0.5292   -0.8751 C   0  0  0  0  0  0  0  0  0  0  0  0
   -8.0852    0.3749   -0.0267 C   0  0  0  0  0  0  0  0  0  0  0  0
  -10.0935   -0.0049   -1.7801 S   0  0  0  0  0  0  0  0  0  0  0  0
  -10.2038   -0.8986   -2.9964 O   0  0  0  0  0  0  0  0  0  0  0  0
   -9.9278    1.4272   -2.1633 O   0  0  0  0  0  0  0  0  0  0  0  0
  -11.4751   -0.2581   -0.7510 N   0  0  0  0  0  0  0  0  0  0  0  0
    5.5993    1.4652   -1.0719 O   0  0  0  0  0  0  0  0  0  0  0  0
   10.2321    0.2647   -2.1021 H   0  0  0  0  0  0  0  0  0  0  0  0
   10.4825    1.7252   -0.1645 H   0  0  0  0  0  0  0  0  0  0  0  0
   11.3290    0.2676    0.5266 H   0  0  0  0  0  0  0  0  0  0  0  0
    8.1045    1.6816   -0.2720 H   0  0  0  0  0  0  0  0  0  0  0  0
    6.0626   -1.9857    0.5895 H   0  0  0  0  0  0  0  0  0  0  0  0
    8.2076   -3.1374    0.6720 H   0  0  0  0  0  0  0  0  0  0  0  0
   10.5583   -3.0679    0.2060 H   0  0  0  0  0  0  0  0  0  0  0  0
    5.6727    1.4470    0.9676 H   0  0  0  0  0  0  0  0  0  0  0  0
    4.5693   -0.8014    1.2046 H   0  0  0  0  0  0  0  0  0  0  0  0
    4.4585   -0.9639   -0.5486 H   0  0  0  0  0  0  0  0  0  0  0  0
    3.0759    1.0074    1.2183 H   0  0  0  0  0  0  0  0  0  0  0  0
    1.8046    1.6891   -0.5603 H   0  0  0  0  0  0  0  0  0  0  0  0
    3.4013    1.7941   -1.3062 H   0  0  0  0  0  0  0  0  0  0  0  0
    2.0215    0.5553   -2.7434 H   0  0  0  0  0  0  0  0  0  0  0  0
    3.2514   -0.5431   -2.1292 H   0  0  0  0  0  0  0  0  0  0  0  0
    1.1124   -1.7332   -2.1701 H   0  0  0  0  0  0  0  0  0  0  0  0
    1.7756   -1.6034   -0.5283 H   0  0  0  0  0  0  0  0  0  0  0  0
   -0.5834   -1.3645   -0.5889 H   0  0  0  0  0  0  0  0  0  0  0  0
   -0.5567   -0.0409   -1.7630 H   0  0  0  0  0  0  0  0  0  0  0  0
   -0.8708    1.6731    1.3697 H   0  0  0  0  0  0  0  0  0  0  0  0
   -1.6134    1.5160   -0.2225 H   0  0  0  0  0  0  0  0  0  0  0  0
   -1.5662   -0.5745    2.0285 H   0  0  0  0  0  0  0  0  0  0  0  0
   -2.2919   -0.9298    0.3875 H   0  0  0  0  0  0  0  0  0  0  0  0
   -3.9534   -0.3183    2.0585 H   0  0  0  0  0  0  0  0  0  0  0  0
   -2.9654    1.1656    2.4924 H   0  0  0  0  0  0  0  0  0  0  0  0
   -3.4180    2.0876    0.2337 H   0  0  0  0  0  0  0  0  0  0  0  0
   -4.2328    0.5836   -0.2553 H   0  0  0  0  0  0  0  0  0  0  0  0
   -5.7655    2.4493    0.2097 H   0  0  0  0  0  0  0  0  0  0  0  0
   -5.0919    2.7037    1.8131 H   0  0  0  0  0  0  0  0  0  0  0  0
   -7.2336    1.7024    1.9538 H   0  0  0  0  0  0  0  0  0  0  0  0
   -6.1166    0.5049    2.5731 H   0  0  0  0  0  0  0  0  0  0  0  0
   -5.6882   -1.6074    1.1304 H   0  0  0  0  0  0  0  0  0  0  0  0
   -6.7549   -3.2012   -0.3725 H   0  0  0  0  0  0  0  0  0  0  0  0
   -8.7397   -2.4858   -1.6937 H   0  0  0  0  0  0  0  0  0  0  0  0
   -8.4902    1.3830    0.0453 H   0  0  0  0  0  0  0  0  0  0  0  0
  -11.2239   -0.8653    0.0589 H   0  0  0  0  0  0  0  0  0  0  0  0
  -11.7312    0.6733   -0.3463 H   0  0  0  0  0  0  0  0  0  0  0  0
    6.1501    1.0293   -1.7745 H   0  0  0  0  0  0  0  0  0  0  0  0
  1  2  1  0
  2  3  1  0
  3  4  2  0
  4  5  1  0
  5  6  2  0
  6  7  1  0
  7  8  2  0
  8  9  1  0
  5 10  1  0
 10 11  1  0
 11 12  1  0
 12 13  1  0
 13 14  1  0
 14 15  1  0
 15 16  1  0
 16 17  1  0
 17 18  1  0
 18 19  1  0
 19 20  1  0
 20 21  1  0
 21 22  1  0
 22 23  1  0
 23 24  1  0
 24 25  2  0
 25 26  1  0
 26 27  2  0
 27 28  1  0
 28 29  2  0
 28 30  1  0
 30 31  2  0
 30 32  2  0
 30 33  1  0
 10 34  1  0
  8  3  1  0
 29 24  1  0
  1 35  1  0
  2 36  1  0
  2 37  1  0
  4 38  1  0
  6 39  1  0
  7 40  1  0
  9 41  1  0
 10 42  1  1
 11 43  1  0
 11 44  1  0
 12 45  1  0
 13 46  1  0
 13 47  1  0
 14 48  1  0
 14 49  1  0
 15 50  1  0
 15 51  1  0
 16 52  1  0
 16 53  1  0
 18 54  1  0
 18 55  1  0
 19 56  1  0
 19 57  1  0
 20 58  1  0
 20 59  1  0
 21 60  1  0
 21 61  1  0
 22 62  1  0
 22 63  1  0
 23 64  1  0
 23 65  1  0
 25 66  1  0
 26 67  1  0
 27 68  1  0
 29 69  1  0
 33 70  1  0
 33 71  1  0
 34 72  1  0
M  END
>  <Ligand ID>  (1) 
LIG0002523

>  <Ligand>  (1) 
CHEMBL483407

>  <SMILES>  (1) 
OCc1cc(ccc1O)[C@H](CNCCCCOCCCCCCc1cccc(c1)S(=O)(=O)N)O

>  <CID>  (1) 
42625743.0

>  <ChEMBL ID>  (1) 
nan

>  <InChiKey>  (1) 
VLVDEVCGKJEOKJ-VWLOTQADSA-N

>  <InChi>  (1) 
InChI=1S/C25H38N2O6S/c26-34(31,32)23-10-7-9-20(16-23)8-3-1-2-5-14-33-15-6-4-13-27-18-25(30)21-11-12-24(29)22(17-21)19-28/h7,9-12,16-17,25,27-30H,1-6,8,13-15,18-19H2,(H2,26,31,32)/t25-/m0/s1

>  <IUPAC Name>  (1) 
3-[6-[4-[[(2R)-2-hydroxy-2-[4-hydroxy-3-(hydroxymethyl)phenyl]ethyl]amino]butoxy]hexyl]benzenesulfonamide

$$$$
