
     RDKit          3D

 56 58  0  0  0  0  0  0  0  0999 V2000
   11.2253    0.1107   -0.8439 O   0  0  0  0  0  0  0  0  0  0  0  0
   10.1090   -0.0209   -0.0291 C   0  0  0  0  0  0  0  0  0  0  0  0
   10.2409    0.0335    1.2372 O   0  0  0  0  0  0  0  0  0  0  0  0
    8.7751   -0.2230   -0.6276 C   0  0  0  0  0  0  0  0  0  0  0  0
    7.7828   -0.3330    0.3491 O   0  0  0  0  0  0  0  0  0  0  0  0
    6.4472   -0.5249    0.1145 C   0  0  0  0  0  0  0  0  0  0  0  0
    5.5869   -0.6140    1.1848 C   0  0  0  0  0  0  0  0  0  0  0  0
    4.2306   -0.8082    0.9679 C   0  0  0  0  0  0  0  0  0  0  0  0
    3.6813   -0.9193   -0.2904 C   0  0  0  0  0  0  0  0  0  0  0  0
    4.5836   -0.8245   -1.3518 C   0  0  0  0  0  0  0  0  0  0  0  0
    5.9326   -0.6321   -1.1565 C   0  0  0  0  0  0  0  0  0  0  0  0
    2.3112   -1.0996   -0.5581 N   0  0  0  0  0  0  0  0  0  0  0  0
    1.2331   -0.7295    0.2711 C   0  0  0  0  0  0  0  0  0  0  0  0
    0.0099   -1.3930    0.1518 C   0  0  0  0  0  0  0  0  0  0  0  0
   -1.0833   -1.0661    0.9170 C   0  0  0  0  0  0  0  0  0  0  0  0
   -1.0261   -0.0541    1.8524 C   0  0  0  0  0  0  0  0  0  0  0  0
    0.1657    0.6148    1.9896 C   0  0  0  0  0  0  0  0  0  0  0  0
    1.2733    0.2776    1.2081 C   0  0  0  0  0  0  0  0  0  0  0  0
   -2.2113    0.2675    2.6515 C   0  0  0  0  0  0  0  0  0  0  0  0
   -3.0854    1.3155    1.9959 C   0  0  0  0  0  0  0  0  0  0  0  0
   -3.5664    0.8924    0.7039 N   0  0  0  0  0  0  0  0  0  0  0  0
   -4.3865    1.9708    0.1775 C   0  0  0  0  0  0  0  0  0  0  0  0
   -4.9494    1.6332   -1.1879 C   0  0  0  0  0  0  0  0  0  0  0  0
   -5.8964    0.4956   -1.0674 C   0  0  0  0  0  0  0  0  0  0  0  0
   -5.5441   -0.7270   -1.6080 C   0  0  0  0  0  0  0  0  0  0  0  0
   -6.4109   -1.7947   -1.5056 C   0  0  0  0  0  0  0  0  0  0  0  0
   -7.6187   -1.6076   -0.8584 C   0  0  0  0  0  0  0  0  0  0  0  0
   -7.9763   -0.3807   -0.3139 C   0  0  0  0  0  0  0  0  0  0  0  0
   -7.1007    0.6834   -0.4217 C   0  0  0  0  0  0  0  0  0  0  0  0
   -9.5264   -0.2561    0.4819 Cl  0  0  0  0  0  0  0  0  0  0  0  0
   -5.7150    2.7475   -1.5794 O   0  0  0  0  0  0  0  0  0  0  0  0
   12.1757   -0.0451   -0.4859 H   0  0  0  0  0  0  0  0  0  0  0  0
    8.7825   -1.1701   -1.2167 H   0  0  0  0  0  0  0  0  0  0  0  0
    8.5233    0.5871   -1.3519 H   0  0  0  0  0  0  0  0  0  0  0  0
    5.9730   -0.5322    2.1851 H   0  0  0  0  0  0  0  0  0  0  0  0
    3.6183   -0.8817    1.8527 H   0  0  0  0  0  0  0  0  0  0  0  0
    4.1797   -0.9086   -2.3446 H   0  0  0  0  0  0  0  0  0  0  0  0
    6.6171   -0.5611   -1.9938 H   0  0  0  0  0  0  0  0  0  0  0  0
    2.0629   -1.5642   -1.4836 H   0  0  0  0  0  0  0  0  0  0  0  0
   -0.0817   -2.1948   -0.5701 H   0  0  0  0  0  0  0  0  0  0  0  0
   -1.9975   -1.6120    0.7804 H   0  0  0  0  0  0  0  0  0  0  0  0
    0.2076    1.4026    2.7187 H   0  0  0  0  0  0  0  0  0  0  0  0
    2.1542    0.8583    1.3727 H   0  0  0  0  0  0  0  0  0  0  0  0
   -1.9582    0.6010    3.6754 H   0  0  0  0  0  0  0  0  0  0  0  0
   -2.8416   -0.6469    2.7904 H   0  0  0  0  0  0  0  0  0  0  0  0
   -3.9488    1.5427    2.6431 H   0  0  0  0  0  0  0  0  0  0  0  0
   -2.4513    2.2059    1.8393 H   0  0  0  0  0  0  0  0  0  0  0  0
   -2.8130    0.7274    0.0206 H   0  0  0  0  0  0  0  0  0  0  0  0
   -5.2077    2.1151    0.8962 H   0  0  0  0  0  0  0  0  0  0  0  0
   -3.7934    2.8850    0.1781 H   0  0  0  0  0  0  0  0  0  0  0  0
   -4.1742    1.4809   -1.9391 H   0  0  0  0  0  0  0  0  0  0  0  0
   -4.5792   -0.8166   -2.1070 H   0  0  0  0  0  0  0  0  0  0  0  0
   -6.1265   -2.7640   -1.9368 H   0  0  0  0  0  0  0  0  0  0  0  0
   -8.2688   -2.4597   -0.7971 H   0  0  0  0  0  0  0  0  0  0  0  0
   -7.3880    1.6404    0.0071 H   0  0  0  0  0  0  0  0  0  0  0  0
   -6.1558    3.0766   -0.7545 H   0  0  0  0  0  0  0  0  0  0  0  0
  1  2  1  0
  2  3  2  0
  2  4  1  0
  4  5  1  0
  5  6  1  0
  6  7  2  0
  7  8  1  0
  8  9  2  0
  9 10  1  0
 10 11  2  0
  9 12  1  0
 12 13  1  0
 13 14  2  0
 14 15  1  0
 15 16  2  0
 16 17  1  0
 17 18  2  0
 16 19  1  0
 19 20  1  0
 20 21  1  0
 21 22  1  0
 22 23  1  0
 23 24  1  0
 24 25  2  0
 25 26  1  0
 26 27  2  0
 27 28  1  0
 28 29  2  0
 28 30  1  0
 23 31  1  0
 11  6  1  0
 18 13  1  0
 29 24  1  0
  1 32  1  0
  4 33  1  0
  4 34  1  0
  7 35  1  0
  8 36  1  0
 10 37  1  0
 11 38  1  0
 12 39  1  0
 14 40  1  0
 15 41  1  0
 17 42  1  0
 18 43  1  0
 19 44  1  0
 19 45  1  0
 20 46  1  0
 20 47  1  0
 21 48  1  0
 22 49  1  0
 22 50  1  0
 23 51  1  0
 25 52  1  0
 26 53  1  0
 27 54  1  0
 29 55  1  0
 31 56  1  0
M  END
>  <Ligand ID>  (1) 
LIG0005836

>  <Ligand>  (1) 
CHEMBL536330

>  <SMILES>  (1) 
OC(=O)COc1ccc(cc1)Nc1ccc(cc1)CCNCC(c1cccc(c1)Cl)O

>  <CID>  (1) 
22171507.0

>  <ChEMBL ID>  (1) 
nan

>  <InChiKey>  (1) 
MMVLFLMDZXLYHZ-UHFFFAOYSA-N

>  <InChi>  (1) 
InChI=1S/C24H25ClN2O4/c25-19-3-1-2-18(14-19)23(28)15-26-13-12-17-4-6-20(7-5-17)27-21-8-10-22(11-9-21)31-16-24(29)30/h1-11,14,23,26-28H,12-13,15-16H2,(H,29,30)

>  <IUPAC Name>  (1) 
2-[4-[4-[2-[[2-(3-chlorophenyl)-2-hydroxyethyl]amino]ethyl]anilino]phenoxy]acetic acid

$$$$
