
     RDKit          3D

 31 32  0  0  0  0  0  0  0  0999 V2000
    4.6546    0.4562    0.1522 C   0  0  0  0  0  0  0  0  0  0  0  0
    3.7506   -0.4676   -0.3729 O   0  0  0  0  0  0  0  0  0  0  0  0
    2.3906   -0.4763   -0.2336 C   0  0  0  0  0  0  0  0  0  0  0  0
    1.6534    0.4459    0.4656 C   0  0  0  0  0  0  0  0  0  0  0  0
    0.2649    0.3653    0.5595 C   0  0  0  0  0  0  0  0  0  0  0  0
   -0.2799    1.4674    1.3593 C   0  0  0  0  0  0  0  0  0  0  0  0
   -1.6125    1.9573    0.8188 C   0  0  0  0  0  0  0  0  0  0  0  0
   -2.5716    0.9222    1.2260 N   0  0  0  0  0  0  0  0  0  0  0  0
   -2.8056    0.1339    0.0486 C   0  0  0  0  0  0  0  0  0  0  0  0
   -1.8598   -1.0043   -0.1353 C   0  0  0  0  0  0  0  0  0  0  0  0
   -0.4368   -0.6552   -0.0523 C   0  0  0  0  0  0  0  0  0  0  0  0
    0.3091   -1.5816   -0.7553 C   0  0  0  0  0  0  0  0  0  0  0  0
    1.6834   -1.5065   -0.8514 C   0  0  0  0  0  0  0  0  0  0  0  0
    2.6276   -2.8305   -1.8431 Br  0  0  0  0  0  0  0  0  0  0  0  0
   -2.1464   -1.5525   -1.5357 C   0  0  0  0  0  0  0  0  0  0  0  0
    5.3193    0.8218   -0.6802 H   0  0  0  0  0  0  0  0  0  0  0  0
    4.1969    1.3320    0.6463 H   0  0  0  0  0  0  0  0  0  0  0  0
    5.2955   -0.0336    0.9160 H   0  0  0  0  0  0  0  0  0  0  0  0
    2.1738    1.2473    0.9493 H   0  0  0  0  0  0  0  0  0  0  0  0
    0.4281    2.3174    1.4657 H   0  0  0  0  0  0  0  0  0  0  0  0
   -0.4206    1.0928    2.4097 H   0  0  0  0  0  0  0  0  0  0  0  0
   -1.8714    2.9366    1.2501 H   0  0  0  0  0  0  0  0  0  0  0  0
   -1.5341    2.0575   -0.2747 H   0  0  0  0  0  0  0  0  0  0  0  0
   -3.4433    1.3462    1.6024 H   0  0  0  0  0  0  0  0  0  0  0  0
   -2.8586    0.7794   -0.8758 H   0  0  0  0  0  0  0  0  0  0  0  0
   -3.8248   -0.2966    0.1385 H   0  0  0  0  0  0  0  0  0  0  0  0
   -2.1584   -1.8348    0.5510 H   0  0  0  0  0  0  0  0  0  0  0  0
   -0.1770   -2.3885   -1.2464 H   0  0  0  0  0  0  0  0  0  0  0  0
   -1.4204   -1.1253   -2.2563 H   0  0  0  0  0  0  0  0  0  0  0  0
   -3.1510   -1.2542   -1.9033 H   0  0  0  0  0  0  0  0  0  0  0  0
   -2.1754   -2.6717   -1.5428 H   0  0  0  0  0  0  0  0  0  0  0  0
  1  2  1  0
  2  3  1  0
  3  4  2  0
  4  5  1  0
  5  6  1  0
  6  7  1  0
  7  8  1  0
  8  9  1  0
  9 10  1  0
 10 11  1  0
 11 12  1  0
 12 13  2  0
 13 14  1  0
 10 15  1  0
 13  3  1  0
 11  5  2  0
  1 16  1  0
  1 17  1  0
  1 18  1  0
  4 19  1  0
  6 20  1  0
  6 21  1  0
  7 22  1  0
  7 23  1  0
  8 24  1  0
  9 25  1  0
  9 26  1  0
 10 27  1  0
 12 28  1  0
 15 29  1  0
 15 30  1  0
 15 31  1  0
M  END
>  <Ligand ID>  (1) 
LIG0004024

>  <Ligand>  (1) 
CHEMBL180815

>  <SMILES>  (1) 
COc1cc2CCNCC(c2cc1Br)C

>  <CID>  (1) 
9881885.0

>  <ChEMBL ID>  (1) 
nan

>  <InChiKey>  (1) 
HQQAIJWQKAFMGF-UHFFFAOYSA-N

>  <InChi>  (1) 
InChI=1S/C12H16BrNO/c1-8-7-14-4-3-9-5-12(15-2)11(13)6-10(8)9/h5-6,8,14H,3-4,7H2,1-2H3

>  <IUPAC Name>  (1) 
7-bromo-8-methoxy-5-methyl-2,3,4,5-tetrahydro-1H-3-benzazepine

$$$$
