
     RDKit          3D

 29 29  0  0  0  0  0  0  0  0999 V2000
    4.2747   -1.1277    0.0215 C   0  0  0  0  0  0  0  0  0  0  0  0
    2.9886   -1.5530   -0.3776 O   0  0  0  0  0  0  0  0  0  0  0  0
    1.8982   -0.6994   -0.2417 C   0  0  0  0  0  0  0  0  0  0  0  0
    2.0698    0.5700    0.2852 C   0  0  0  0  0  0  0  0  0  0  0  0
    0.9638    1.3895    0.4049 C   0  0  0  0  0  0  0  0  0  0  0  0
   -0.3026    0.9550    0.0058 C   0  0  0  0  0  0  0  0  0  0  0  0
   -0.4668   -0.3201   -0.5220 C   0  0  0  0  0  0  0  0  0  0  0  0
    0.6460   -1.1318   -0.6375 C   0  0  0  0  0  0  0  0  0  0  0  0
   -1.7956   -0.8238   -0.9596 C   0  0  0  0  0  0  0  0  0  0  0  0
   -2.5511   -1.5138    0.1205 C   0  0  0  0  0  0  0  0  0  0  0  0
   -2.7844   -0.6843    1.2797 N   0  0  0  0  0  0  0  0  0  0  0  0
   -1.6264   -1.7187   -2.0327 O   0  0  0  0  0  0  0  0  0  0  0  0
   -1.4081    1.7846    0.1295 O   0  0  0  0  0  0  0  0  0  0  0  0
   -1.3059    3.1043    0.6635 C   0  0  0  0  0  0  0  0  0  0  0  0
    5.0215   -1.8723   -0.2855 H   0  0  0  0  0  0  0  0  0  0  0  0
    4.3475   -1.0010    1.1236 H   0  0  0  0  0  0  0  0  0  0  0  0
    4.5534   -0.1234   -0.4108 H   0  0  0  0  0  0  0  0  0  0  0  0
    3.0356    0.9430    0.6058 H   0  0  0  0  0  0  0  0  0  0  0  0
    1.0607    2.3871    0.8121 H   0  0  0  0  0  0  0  0  0  0  0  0
    0.5428   -2.1173   -1.0411 H   0  0  0  0  0  0  0  0  0  0  0  0
   -2.3423    0.0299   -1.3579 H   0  0  0  0  0  0  0  0  0  0  0  0
   -3.5472   -1.7750   -0.2904 H   0  0  0  0  0  0  0  0  0  0  0  0
   -2.0790   -2.4353    0.4548 H   0  0  0  0  0  0  0  0  0  0  0  0
   -3.5860   -0.0208    1.1755 H   0  0  0  0  0  0  0  0  0  0  0  0
   -2.9316   -1.2415    2.1495 H   0  0  0  0  0  0  0  0  0  0  0  0
   -0.8485   -1.3849   -2.5392 H   0  0  0  0  0  0  0  0  0  0  0  0
   -2.3313    3.4703    0.8412 H   0  0  0  0  0  0  0  0  0  0  0  0
   -0.6754    3.1291    1.5840 H   0  0  0  0  0  0  0  0  0  0  0  0
   -0.8205    3.7814   -0.0761 H   0  0  0  0  0  0  0  0  0  0  0  0
  1  2  1  0
  2  3  1  0
  3  4  2  0
  4  5  1  0
  5  6  2  0
  6  7  1  0
  7  8  2  0
  7  9  1  0
  9 10  1  0
 10 11  1  0
  9 12  1  0
  6 13  1  0
 13 14  1  0
  8  3  1  0
  1 15  1  0
  1 16  1  0
  1 17  1  0
  4 18  1  0
  5 19  1  0
  8 20  1  0
  9 21  1  0
 10 22  1  0
 10 23  1  0
 11 24  1  0
 11 25  1  0
 12 26  1  0
 14 27  1  0
 14 28  1  0
 14 29  1  0
M  END
>  <Ligand ID>  (1) 
LIG0002004

>  <Ligand>  (1) 
3600-87-1

>  <SMILES>  (1) 
COc1ccc(c(c1)C(CN)O)OC

>  <CID>  (1) 
43260.0

>  <ChEMBL ID>  (1) 
nan

>  <InChiKey>  (1) 
VFRCNXKYZVQYLX-UHFFFAOYSA-N

>  <InChi>  (1) 
InChI=1S/C10H15NO3/c1-13-7-3-4-10(14-2)8(5-7)9(12)6-11/h3-5,9,12H,6,11H2,1-2H3

>  <IUPAC Name>  (1) 
2-amino-1-(2,5-dimethoxyphenyl)ethanol

$$$$
