
     RDKit          3D

 50 53  0  0  0  0  0  0  0  0999 V2000
    5.8960   -3.6746   -1.8932 C   0  0  0  0  0  0  0  0  0  0  0  0
    4.9362   -2.5661   -1.5645 C   0  0  0  0  0  0  0  0  0  0  0  0
    4.2632   -2.5746   -0.3665 C   0  0  0  0  0  0  0  0  0  0  0  0
    3.3719   -1.5534   -0.0480 C   0  0  0  0  0  0  0  0  0  0  0  0
    3.1442   -0.5113   -0.9272 C   0  0  0  0  0  0  0  0  0  0  0  0
    3.8273   -0.5266   -2.1145 C   0  0  0  0  0  0  0  0  0  0  0  0
    4.7228   -1.5368   -2.4532 C   0  0  0  0  0  0  0  0  0  0  0  0
    2.2243    0.5825   -0.6429 C   0  0  0  0  0  0  0  0  0  0  0  0
    2.0635    1.5233   -1.4892 O   0  0  0  0  0  0  0  0  0  0  0  0
    1.4689    0.6701    0.5610 N   0  0  0  0  0  0  0  0  0  0  0  0
    0.5973    1.7755    0.7547 C   0  0  0  0  0  0  0  0  0  0  0  0
    1.0244    2.9261    1.3491 N   0  0  0  0  0  0  0  0  0  0  0  0
   -0.0013    3.7968    1.3989 C   0  0  0  0  0  0  0  0  0  0  0  0
   -1.0646    3.1381    0.8160 C   0  0  0  0  0  0  0  0  0  0  0  0
   -0.6808    1.8980    0.4258 N   0  0  0  0  0  0  0  0  0  0  0  0
   -1.5400    0.9572   -0.2151 C   0  0  0  0  0  0  0  0  0  0  0  0
   -2.2527    0.0993    0.7831 C   0  0  0  0  0  0  0  0  0  0  0  0
   -3.1349   -0.8598    0.2238 N   0  0  0  0  0  0  0  0  0  0  0  0
   -2.5260   -1.9349   -0.5174 C   0  0  0  0  0  0  0  0  0  0  0  0
   -3.5613   -3.0441   -0.5276 C   0  0  0  0  0  0  0  0  0  0  0  0
   -4.5721   -2.7163    0.5341 C   0  0  0  0  0  0  0  0  0  0  0  0
   -4.0163   -1.4759    1.1928 C   0  0  0  0  0  0  0  0  0  0  0  0
   -2.2686    3.8224    0.7382 C   0  0  0  0  0  0  0  0  0  0  0  0
   -2.3935    5.1108    1.2257 C   0  0  0  0  0  0  0  0  0  0  0  0
   -1.3251    5.7582    1.8055 C   0  0  0  0  0  0  0  0  0  0  0  0
   -0.1243    5.0940    1.8905 C   0  0  0  0  0  0  0  0  0  0  0  0
    6.3626   -3.5088   -2.8651 H   0  0  0  0  0  0  0  0  0  0  0  0
    5.3369   -4.6185   -1.8288 H   0  0  0  0  0  0  0  0  0  0  0  0
    6.6775   -3.7064   -1.0856 H   0  0  0  0  0  0  0  0  0  0  0  0
    4.4608   -3.4033    0.3015 H   0  0  0  0  0  0  0  0  0  0  0  0
    2.8593   -1.5858    0.8971 H   0  0  0  0  0  0  0  0  0  0  0  0
    3.6432    0.3039   -2.8105 H   0  0  0  0  0  0  0  0  0  0  0  0
    5.2557   -1.5352   -3.3970 H   0  0  0  0  0  0  0  0  0  0  0  0
    1.5575   -0.0735    1.2916 H   0  0  0  0  0  0  0  0  0  0  0  0
   -0.8730    0.3439   -0.8907 H   0  0  0  0  0  0  0  0  0  0  0  0
   -2.2959    1.5112   -0.8118 H   0  0  0  0  0  0  0  0  0  0  0  0
   -1.5053   -0.4036    1.4064 H   0  0  0  0  0  0  0  0  0  0  0  0
   -2.8972    0.8020    1.3858 H   0  0  0  0  0  0  0  0  0  0  0  0
   -2.1508   -1.6628   -1.5038 H   0  0  0  0  0  0  0  0  0  0  0  0
   -1.6650   -2.3058    0.0776 H   0  0  0  0  0  0  0  0  0  0  0  0
   -4.0563   -3.0191   -1.5330 H   0  0  0  0  0  0  0  0  0  0  0  0
   -3.1207   -4.0522   -0.3987 H   0  0  0  0  0  0  0  0  0  0  0  0
   -4.7141   -3.5227    1.2749 H   0  0  0  0  0  0  0  0  0  0  0  0
   -5.5257   -2.4068    0.0522 H   0  0  0  0  0  0  0  0  0  0  0  0
   -3.3946   -1.8164    2.0542 H   0  0  0  0  0  0  0  0  0  0  0  0
   -4.8269   -0.7803    1.5061 H   0  0  0  0  0  0  0  0  0  0  0  0
   -3.0886    3.3064    0.2851 H   0  0  0  0  0  0  0  0  0  0  0  0
   -3.3677    5.5691    1.1242 H   0  0  0  0  0  0  0  0  0  0  0  0
   -1.4703    6.7798    2.1788 H   0  0  0  0  0  0  0  0  0  0  0  0
    0.7202    5.6071    2.3495 H   0  0  0  0  0  0  0  0  0  0  0  0
  1  2  1  0
  2  3  2  0
  3  4  1  0
  4  5  2  0
  5  6  1  0
  6  7  2  0
  5  8  1  0
  8  9  2  0
  8 10  1  0
 10 11  1  0
 11 12  2  0
 12 13  1  0
 13 14  2  0
 14 15  1  0
 15 16  1  0
 16 17  1  0
 17 18  1  0
 18 19  1  0
 19 20  1  0
 20 21  1  0
 21 22  1  0
 14 23  1  0
 23 24  2  0
 24 25  1  0
 25 26  2  0
  7  2  1  0
 15 11  1  0
 22 18  1  0
 26 13  1  0
  1 27  1  0
  1 28  1  0
  1 29  1  0
  3 30  1  0
  4 31  1  0
  6 32  1  0
  7 33  1  0
 10 34  1  0
 16 35  1  0
 16 36  1  0
 17 37  1  0
 17 38  1  0
 19 39  1  0
 19 40  1  0
 20 41  1  0
 20 42  1  0
 21 43  1  0
 21 44  1  0
 22 45  1  0
 22 46  1  0
 23 47  1  0
 24 48  1  0
 25 49  1  0
 26 50  1  0
M  END
>  <Ligand ID>  (1) 
LIG0003799

>  <Ligand>  (1) 
CHEMBL1488893

>  <SMILES>  (1) 
Cc1ccc(cc1)C(=O)Nc1nc2c(n1CCN1CCCC1)cccc2

>  <CID>  (1) 
780684.0

>  <ChEMBL ID>  (1) 
nan

>  <InChiKey>  (1) 
ZUUSQINWWMDMMW-UHFFFAOYSA-N

>  <InChi>  (1) 
InChI=1S/C21H24N4O/c1-16-8-10-17(11-9-16)20(26)23-21-22-18-6-2-3-7-19(18)25(21)15-14-24-12-4-5-13-24/h2-3,6-11H,4-5,12-15H2,1H3,(H,22,23,26)

>  <IUPAC Name>  (1) 
4-methyl-N-[1-(2-pyrrolidin-1-ylethyl)benzimidazol-2-yl]benzamide

$$$$
