
     RDKit          3D

 69 72  0  0  0  0  0  0  0  0999 V2000
   -0.6894    1.3016   -0.4266 C   0  0  0  0  0  0  0  0  0  0  0  0
   -0.6318   -0.0621   -1.0742 C   0  0  2  0  0  0  0  0  0  0  0  0
   -0.9359   -1.1770   -0.1371 C   0  0  0  0  0  0  0  0  0  0  0  0
   -2.3347   -1.0126    0.4226 C   0  0  0  0  0  0  0  0  0  0  0  0
   -2.6757   -0.5705    1.6839 C   0  0  0  0  0  0  0  0  0  0  0  0
   -4.0104   -0.5472    1.8400 N   0  0  0  0  0  0  0  0  0  0  0  0
   -4.5449   -0.9728    0.6837 C   0  0  0  0  0  0  0  0  0  0  0  0
   -3.5277   -1.2707   -0.2188 C   0  0  0  0  0  0  0  0  0  0  0  0
   -3.8326   -1.7294   -1.4832 C   0  0  0  0  0  0  0  0  0  0  0  0
   -5.1652   -1.8764   -1.8062 C   0  0  0  0  0  0  0  0  0  0  0  0
   -6.1879   -1.5810   -0.9105 C   0  0  0  0  0  0  0  0  0  0  0  0
   -5.8812   -1.1184    0.3652 C   0  0  0  0  0  0  0  0  0  0  0  0
   -6.8691   -0.8154    1.2806 O   0  0  0  0  0  0  0  0  0  0  0  0
   -7.5927    0.7049    1.4555 S   0  0  0  0  0  0  0  0  0  0  0  0
   -7.0470    1.7246    0.4959 O   0  0  0  0  0  0  0  0  0  0  0  0
   -7.3946    1.2653    2.8470 O   0  0  0  0  0  0  0  0  0  0  0  0
   -9.3339    0.5402    1.1500 C   0  0  0  0  0  0  0  0  0  0  0  0
  -10.0052    1.8985    1.2934 C   0  0  0  0  0  0  0  0  0  0  0  0
   -9.5344    0.0399   -0.2599 C   0  0  0  0  0  0  0  0  0  0  0  0
    0.3581   -0.3006   -2.0082 N   0  0  0  0  0  0  0  0  0  0  0  0
    1.6830    0.0914   -1.9282 C   0  0  0  0  0  0  0  0  0  0  0  0
    2.5182   -0.5642   -0.8964 C   0  0  1  0  0  0  0  0  0  0  0  0
    3.9714   -0.2341   -1.0413 C   0  0  0  0  0  0  0  0  0  0  0  0
    4.4393    0.5815   -2.0473 C   0  0  0  0  0  0  0  0  0  0  0  0
    5.7673    0.8732   -2.1547 C   0  0  0  0  0  0  0  0  0  0  0  0
    6.6299    0.3232   -1.2194 C   0  0  0  0  0  0  0  0  0  0  0  0
    6.2393   -0.4895   -0.1979 C   0  0  0  0  0  0  0  0  0  0  0  0
    4.8590   -0.7613   -0.1310 C   0  0  0  0  0  0  0  0  0  0  0  0
    7.0333   -1.1179    0.7620 N   0  0  0  0  0  0  0  0  0  0  0  0
    8.0523   -0.4671    1.9471 S   0  0  0  0  0  0  0  0  0  0  0  0
    7.1656    0.4456    2.8101 O   0  0  0  0  0  0  0  0  0  0  0  0
    8.6184   -1.5348    2.8577 O   0  0  0  0  0  0  0  0  0  0  0  0
    9.3371    0.4628    1.3210 C   0  0  0  0  0  0  0  0  0  0  0  0
   10.6571    0.1928    1.3500 C   0  0  0  0  0  0  0  0  0  0  0  0
   11.5356    1.0411    0.8067 C   0  0  0  0  0  0  0  0  0  0  0  0
   11.0615    2.1811    0.2258 C   0  0  0  0  0  0  0  0  0  0  0  0
    9.2220    2.0588    0.4579 S   0  0  0  0  0  0  0  0  0  0  0  0
    2.1524   -0.4006    0.4119 O   0  0  0  0  0  0  0  0  0  0  0  0
   -0.7477    2.0772   -1.2186 H   0  0  0  0  0  0  0  0  0  0  0  0
    0.1219    1.4585    0.2871 H   0  0  0  0  0  0  0  0  0  0  0  0
   -1.6471    1.3512    0.1329 H   0  0  0  0  0  0  0  0  0  0  0  0
   -1.6210   -0.0084   -1.7379 H   0  0  0  0  0  0  0  0  0  0  0  0
   -0.2834   -1.1977    0.7388 H   0  0  0  0  0  0  0  0  0  0  0  0
   -0.9643   -2.1549   -0.6596 H   0  0  0  0  0  0  0  0  0  0  0  0
   -1.9473   -0.2888    2.4218 H   0  0  0  0  0  0  0  0  0  0  0  0
   -4.5288   -0.2524    2.6999 H   0  0  0  0  0  0  0  0  0  0  0  0
   -3.0243   -1.9562   -2.1722 H   0  0  0  0  0  0  0  0  0  0  0  0
   -5.4223   -2.2424   -2.8133 H   0  0  0  0  0  0  0  0  0  0  0  0
   -7.2424   -1.7029   -1.1794 H   0  0  0  0  0  0  0  0  0  0  0  0
   -9.8154   -0.1599    1.8506 H   0  0  0  0  0  0  0  0  0  0  0  0
   -9.5831    2.6036    0.5761 H   0  0  0  0  0  0  0  0  0  0  0  0
  -11.0814    1.8040    1.1073 H   0  0  0  0  0  0  0  0  0  0  0  0
   -9.8708    2.2789    2.3360 H   0  0  0  0  0  0  0  0  0  0  0  0
   -8.6722    0.4486   -0.8604 H   0  0  0  0  0  0  0  0  0  0  0  0
  -10.5178    0.3138   -0.6893 H   0  0  0  0  0  0  0  0  0  0  0  0
   -9.3950   -1.0654   -0.2348 H   0  0  0  0  0  0  0  0  0  0  0  0
    0.0618   -0.8506   -2.8636 H   0  0  0  0  0  0  0  0  0  0  0  0
    1.8462    1.2088   -1.9414 H   0  0  0  0  0  0  0  0  0  0  0  0
    2.1681   -0.1998   -2.9289 H   0  0  0  0  0  0  0  0  0  0  0  0
    2.4725   -1.6742   -1.1047 H   0  0  0  0  0  0  0  0  0  0  0  0
    3.7732    1.0165   -2.7806 H   0  0  0  0  0  0  0  0  0  0  0  0
    6.1331    1.5119   -2.9415 H   0  0  0  0  0  0  0  0  0  0  0  0
    7.6705    0.5455   -1.3442 H   0  0  0  0  0  0  0  0  0  0  0  0
    4.4648   -1.3981    0.6482 H   0  0  0  0  0  0  0  0  0  0  0  0
    6.9829   -2.2015    0.7340 H   0  0  0  0  0  0  0  0  0  0  0  0
   11.0184   -0.7617    1.8391 H   0  0  0  0  0  0  0  0  0  0  0  0
   12.6361    0.8536    0.8127 H   0  0  0  0  0  0  0  0  0  0  0  0
   11.5177    3.0325   -0.2808 H   0  0  0  0  0  0  0  0  0  0  0  0
    2.3909    0.4879    0.7616 H   0  0  0  0  0  0  0  0  0  0  0  0
  1  2  1  0
  2  3  1  0
  3  4  1  0
  4  5  2  0
  5  6  1  0
  6  7  1  0
  7  8  2  0
  8  9  1  0
  9 10  2  0
 10 11  1  0
 11 12  2  0
 12 13  1  0
 13 14  1  0
 14 15  2  0
 14 16  2  0
 14 17  1  0
 17 18  1  0
 17 19  1  0
  2 20  1  0
 20 21  1  0
 21 22  1  0
 22 23  1  0
 23 24  2  0
 24 25  1  0
 25 26  2  0
 26 27  1  0
 27 28  2  0
 27 29  1  0
 29 30  1  0
 30 31  2  0
 30 32  2  0
 30 33  1  0
 33 34  2  0
 34 35  1  0
 35 36  2  0
 36 37  1  0
 22 38  1  0
  8  4  1  0
 28 23  1  0
 37 33  1  0
 12  7  1  0
  1 39  1  0
  1 40  1  0
  1 41  1  0
  2 42  1  6
  3 43  1  0
  3 44  1  0
  5 45  1  0
  6 46  1  0
  9 47  1  0
 10 48  1  0
 11 49  1  0
 17 50  1  0
 18 51  1  0
 18 52  1  0
 18 53  1  0
 19 54  1  0
 19 55  1  0
 19 56  1  0
 20 57  1  0
 21 58  1  0
 21 59  1  0
 22 60  1  6
 24 61  1  0
 25 62  1  0
 26 63  1  0
 28 64  1  0
 29 65  1  0
 34 66  1  0
 35 67  1  0
 36 68  1  0
 38 69  1  0
M  END
>  <Ligand ID>  (1) 
LIG0002216

>  <Ligand>  (1) 
CHEMBL185660

>  <SMILES>  (1) 
C[C@H](Cc1c[nH]c2c1cccc2OS(=O)(=O)C(C)C)NC[C@@H](c1cccc(c1)NS(=O)(=O)c1cccs1)O

>  <CID>  (1) 
44396513.0

>  <ChEMBL ID>  (1) 
nan

>  <InChiKey>  (1) 
YSWZMAWNVCMFHO-JPYJTQIMSA-N

>  <InChi>  (1) 
InChI=1S/C26H31N3O6S3/c1-17(2)38(33,34)35-24-10-5-9-22-20(15-28-26(22)24)13-18(3)27-16-23(30)19-7-4-8-21(14-19)29-37(31,32)25-11-6-12-36-25/h4-12,14-15,17-18,23,27-30H,13,16H2,1-3H3/t18-,23+/m1/s1

>  <IUPAC Name>  (1) 
[3-[(2R)-2-[[(2R)-2-hydroxy-2-[3-(thiophen-2-ylsulfonylamino)phenyl]ethyl]amino]propyl]-1H-indol-7-yl] propane-2-sulfonate

$$$$
