
     RDKit          3D

 43 43  0  0  0  0  0  0  0  0999 V2000
    7.3471    1.6594    0.8925 O   0  0  0  0  0  0  0  0  0  0  0  0
    6.3602    0.9819    0.1310 C   0  0  0  0  0  0  0  0  0  0  0  0
    6.1228   -0.1798    0.4901 O   0  0  0  0  0  0  0  0  0  0  0  0
    5.7606    1.7329   -0.9625 C   0  0  0  0  0  0  0  0  0  0  0  0
    4.5768    0.7616   -1.9023 S   0  0  0  0  0  0  0  0  0  0  0  0
    3.1663    0.2393   -0.9758 C   0  0  0  0  0  0  0  0  0  0  0  0
    2.2889    1.2333   -0.5349 C   0  0  0  0  0  0  0  0  0  0  0  0
    1.1524    0.9316    0.1807 C   0  0  0  0  0  0  0  0  0  0  0  0
    0.8987   -0.3943    0.4549 C   0  0  0  0  0  0  0  0  0  0  0  0
    1.7672   -1.3625    0.0154 C   0  0  0  0  0  0  0  0  0  0  0  0
    2.9193   -1.0859   -0.7089 C   0  0  0  0  0  0  0  0  0  0  0  0
    3.6986   -2.1636   -1.1470 N   0  0  0  0  0  0  0  0  0  0  0  0
    3.1011   -3.2660   -1.3283 O   0  0  0  0  0  0  0  0  0  0  0  0
    5.0324   -2.1714   -1.4093 O   0  0  0  0  0  0  0  0  0  0  0  0
   -0.3236   -0.7997    1.2351 C   0  0  0  0  0  0  0  0  0  0  0  0
   -1.6417   -1.3586    0.1297 P   0  0  0  0  0  0  0  0  0  0  0  0
   -1.2078   -1.1722   -1.3037 O   0  0  0  0  0  0  0  0  0  0  0  0
   -3.0781   -0.2737    0.4009 C   0  0  0  0  0  0  0  0  0  0  0  0
   -4.1709   -0.4805   -0.5938 C   0  0  0  0  0  0  0  0  0  0  0  0
   -5.3321    0.4485   -0.3148 C   0  0  2  0  0  0  0  0  0  0  0  0
   -4.9623    1.8771   -0.3754 C   0  0  0  0  0  0  0  0  0  0  0  0
   -5.2662    2.6423    0.5769 O   0  0  0  0  0  0  0  0  0  0  0  0
   -4.2818    2.3845   -1.4747 O   0  0  0  0  0  0  0  0  0  0  0  0
   -6.0206    0.1399    0.9055 N   0  0  0  0  0  0  0  0  0  0  0  0
   -2.0827   -2.9617    0.4373 O   0  0  0  0  0  0  0  0  0  0  0  0
   -0.0153   -1.7470    2.2048 O   0  0  0  0  0  0  0  0  0  0  0  0
    7.4993    1.3406    1.8247 H   0  0  0  0  0  0  0  0  0  0  0  0
    6.5780    2.0980   -1.6390 H   0  0  0  0  0  0  0  0  0  0  0  0
    5.2635    2.6462   -0.5178 H   0  0  0  0  0  0  0  0  0  0  0  0
    2.4987    2.2897   -0.7581 H   0  0  0  0  0  0  0  0  0  0  0  0
    0.4542    1.6935    0.5346 H   0  0  0  0  0  0  0  0  0  0  0  0
    1.5146   -2.4015    0.2627 H   0  0  0  0  0  0  0  0  0  0  0  0
   -0.6166    0.1192    1.8138 H   0  0  0  0  0  0  0  0  0  0  0  0
   -2.6760    0.7604    0.3976 H   0  0  0  0  0  0  0  0  0  0  0  0
   -3.4510   -0.5297    1.4207 H   0  0  0  0  0  0  0  0  0  0  0  0
   -4.5664   -1.5078   -0.4607 H   0  0  0  0  0  0  0  0  0  0  0  0
   -3.8396   -0.3256   -1.6240 H   0  0  0  0  0  0  0  0  0  0  0  0
   -6.0718    0.2778   -1.1513 H   0  0  0  0  0  0  0  0  0  0  0  0
   -4.1529    3.4009   -1.5175 H   0  0  0  0  0  0  0  0  0  0  0  0
   -5.8295   -0.8096    1.2738 H   0  0  0  0  0  0  0  0  0  0  0  0
   -7.0703    0.2642    0.8367 H   0  0  0  0  0  0  0  0  0  0  0  0
   -1.3042   -3.5292    0.2345 H   0  0  0  0  0  0  0  0  0  0  0  0
   -0.0394   -1.4025    3.1325 H   0  0  0  0  0  0  0  0  0  0  0  0
  1  2  1  0
  2  3  2  0
  2  4  1  0
  4  5  1  0
  5  6  1  0
  6  7  2  0
  7  8  1  0
  8  9  2  0
  9 10  1  0
 10 11  2  0
 11 12  1  0
 12 13  2  0
 12 14  1  0
  9 15  1  0
 15 16  1  0
 16 17  2  0
 16 18  1  0
 18 19  1  0
 19 20  1  0
 20 21  1  0
 21 22  2  0
 21 23  1  0
 20 24  1  0
 16 25  1  0
 15 26  1  0
 11  6  1  0
  1 27  1  0
  4 28  1  0
  4 29  1  0
  7 30  1  0
  8 31  1  0
 10 32  1  0
 15 33  1  0
 18 34  1  0
 18 35  1  0
 19 36  1  0
 19 37  1  0
 20 38  1  6
 23 39  1  0
 24 40  1  0
 24 41  1  0
 25 42  1  0
 26 43  1  0
M  CHG  2  12   1  14  -1
M  END
>  <Ligand ID>  (1) 
LIG0002475

>  <Ligand>  (1) 
US9212196, Derivative 25

>  <SMILES>  (1) 
OC(=O)CSc1ccc(cc1[N+](=O)[O-])C(P(=O)(CC[C@H](C(=O)O)N)O)O

>  <CID>  (1) 
122197955.0

>  <ChEMBL ID>  (1) 
nan

>  <InChiKey>  (1) 
ZDPGMBDQVVWLAD-UOGPZTOASA-N

>  <InChi>  (1) 
InChI=1S/C13H17N2O9PS/c14-8(12(18)19)3-4-25(23,24)13(20)7-1-2-10(26-6-11(16)17)9(5-7)15(21)22/h1-2,5,8,13,20H,3-4,6,14H2,(H,16,17)(H,18,19)(H,23,24)/t8-,13?/m1/s1

>  <IUPAC Name>  (1) 
(2R)-2-amino-4-[[[4-(carboxymethylsulfanyl)-3-nitrophenyl]-hydroxymethyl]-hydroxyphosphoryl]butanoic acid

$$$$
