
     RDKit          3D

 64 66  0  0  0  0  0  0  0  0999 V2000
   -5.3606   -2.0907   -0.3000 O   0  0  0  0  0  0  0  0  0  0  0  0
   -4.8877   -1.1554    0.4207 C   0  0  0  0  0  0  0  0  0  0  0  0
   -3.4526   -1.0580    0.5727 C   0  0  0  0  0  0  0  0  0  0  0  0
   -2.6498   -2.0049   -0.0648 C   0  0  0  0  0  0  0  0  0  0  0  0
   -1.2706   -1.9805    0.0364 C   0  0  0  0  0  0  0  0  0  0  0  0
   -0.6020   -1.0312    0.7639 C   0  0  0  0  0  0  0  0  0  0  0  0
   -1.4309   -0.0823    1.4018 C   0  0  0  0  0  0  0  0  0  0  0  0
   -2.7889   -0.1045    1.3039 C   0  0  0  0  0  0  0  0  0  0  0  0
   -3.5124    0.8632    1.9610 O   0  0  0  0  0  0  0  0  0  0  0  0
   -0.7879    1.0020    2.2267 C   0  0  0  0  0  0  0  0  0  0  0  0
    0.7214   -0.8941    0.9463 O   0  0  0  0  0  0  0  0  0  0  0  0
    1.7590   -1.6311    0.4495 C   0  0  0  0  0  0  0  0  0  0  0  0
    1.9207   -1.5888   -1.0300 C   0  0  0  0  0  0  0  0  0  0  0  0
    2.1640   -0.1816   -1.5470 C   0  0  0  0  0  0  0  0  0  0  0  0
    3.4348    0.3851   -0.9233 C   0  0  0  0  0  0  0  0  0  0  0  0
    4.5405   -0.4289   -1.2605 O   0  0  0  0  0  0  0  0  0  0  0  0
    5.8447   -0.1841   -0.8471 C   0  0  0  0  0  0  0  0  0  0  0  0
    6.1709    0.9112   -0.0478 C   0  0  0  0  0  0  0  0  0  0  0  0
    7.4862    1.0957    0.3271 C   0  0  0  0  0  0  0  0  0  0  0  0
    8.4797    0.2239   -0.0704 C   0  0  0  0  0  0  0  0  0  0  0  0
    8.1683   -0.8632   -0.8615 C   0  0  0  0  0  0  0  0  0  0  0  0
    6.8524   -1.0446   -1.2343 C   0  0  0  0  0  0  0  0  0  0  0  0
    6.4815   -2.2155   -2.0931 C   0  0  0  0  0  0  0  0  0  0  0  0
    7.8305    2.2413    1.1637 C   0  0  0  0  0  0  0  0  0  0  0  0
    6.9065    3.0195    1.5115 O   0  0  0  0  0  0  0  0  0  0  0  0
    9.1363    2.4678    1.5650 O   0  0  0  0  0  0  0  0  0  0  0  0
   -5.8815   -0.2501    1.0377 C   0  0  0  0  0  0  0  0  0  0  0  0
   -6.2020    0.9492    0.1451 C   0  0  0  0  0  0  0  0  0  0  0  0
   -6.7692    0.4764   -1.1721 C   0  0  0  0  0  0  0  0  0  0  0  0
   -8.1091    1.1827   -1.2996 C   0  0  0  0  0  0  0  0  0  0  0  0
   -8.5406    1.2626    0.1717 C   0  0  0  0  0  0  0  0  0  0  0  0
   -7.2819    1.7599    0.8262 C   0  0  0  0  0  0  0  0  0  0  0  0
   -3.1221   -2.7939   -0.6653 H   0  0  0  0  0  0  0  0  0  0  0  0
   -0.7429   -2.7639   -0.4741 H   0  0  0  0  0  0  0  0  0  0  0  0
   -3.5755    1.8360    1.6923 H   0  0  0  0  0  0  0  0  0  0  0  0
   -1.4837    1.1999    3.0677 H   0  0  0  0  0  0  0  0  0  0  0  0
    0.1396    0.5718    2.6823 H   0  0  0  0  0  0  0  0  0  0  0  0
   -0.6042    1.9049    1.6357 H   0  0  0  0  0  0  0  0  0  0  0  0
    2.7147   -1.4023    0.9898 H   0  0  0  0  0  0  0  0  0  0  0  0
    1.5616   -2.7141    0.7466 H   0  0  0  0  0  0  0  0  0  0  0  0
    2.8433   -2.1677   -1.2828 H   0  0  0  0  0  0  0  0  0  0  0  0
    1.0651   -1.9869   -1.5598 H   0  0  0  0  0  0  0  0  0  0  0  0
    1.3119    0.4946   -1.4082 H   0  0  0  0  0  0  0  0  0  0  0  0
    2.3368   -0.2701   -2.6395 H   0  0  0  0  0  0  0  0  0  0  0  0
    3.5865    1.3889   -1.3868 H   0  0  0  0  0  0  0  0  0  0  0  0
    3.3252    0.5150    0.1648 H   0  0  0  0  0  0  0  0  0  0  0  0
    5.4020    1.6006    0.2697 H   0  0  0  0  0  0  0  0  0  0  0  0
    9.5144    0.3904    0.2388 H   0  0  0  0  0  0  0  0  0  0  0  0
    8.8972   -1.5810   -1.2057 H   0  0  0  0  0  0  0  0  0  0  0  0
    5.6572   -2.7817   -1.5843 H   0  0  0  0  0  0  0  0  0  0  0  0
    7.3187   -2.9233   -2.1914 H   0  0  0  0  0  0  0  0  0  0  0  0
    6.1549   -1.9099   -3.0962 H   0  0  0  0  0  0  0  0  0  0  0  0
    9.4274    3.3457    2.0151 H   0  0  0  0  0  0  0  0  0  0  0  0
   -5.6411    0.1114    2.0373 H   0  0  0  0  0  0  0  0  0  0  0  0
   -6.8673   -0.8119    1.1702 H   0  0  0  0  0  0  0  0  0  0  0  0
   -5.2786    1.5439   -0.0180 H   0  0  0  0  0  0  0  0  0  0  0  0
   -6.0900    0.8273   -1.9949 H   0  0  0  0  0  0  0  0  0  0  0  0
   -6.9238   -0.6180   -1.1749 H   0  0  0  0  0  0  0  0  0  0  0  0
   -7.9151    2.2060   -1.6492 H   0  0  0  0  0  0  0  0  0  0  0  0
   -8.7913    0.5915   -1.9096 H   0  0  0  0  0  0  0  0  0  0  0  0
   -9.4208    1.8901    0.3179 H   0  0  0  0  0  0  0  0  0  0  0  0
   -8.6864    0.2121    0.5320 H   0  0  0  0  0  0  0  0  0  0  0  0
   -7.1418    2.8517    0.6930 H   0  0  0  0  0  0  0  0  0  0  0  0
   -7.3419    1.4841    1.9082 H   0  0  0  0  0  0  0  0  0  0  0  0
  1  2  2  0
  2  3  1  0
  3  4  2  0
  4  5  1  0
  5  6  2  0
  6  7  1  0
  7  8  2  0
  8  9  1  0
  7 10  1  0
  6 11  1  0
 11 12  1  0
 12 13  1  0
 13 14  1  0
 14 15  1  0
 15 16  1  0
 16 17  1  0
 17 18  2  0
 18 19  1  0
 19 20  2  0
 20 21  1  0
 21 22  2  0
 22 23  1  0
 19 24  1  0
 24 25  2  0
 24 26  1  0
  2 27  1  0
 27 28  1  0
 28 29  1  0
 29 30  1  0
 30 31  1  0
 31 32  1  0
  8  3  1  0
 22 17  1  0
 32 28  1  0
  4 33  1  0
  5 34  1  0
  9 35  1  0
 10 36  1  0
 10 37  1  0
 10 38  1  0
 12 39  1  0
 12 40  1  0
 13 41  1  0
 13 42  1  0
 14 43  1  0
 14 44  1  0
 15 45  1  0
 15 46  1  0
 18 47  1  0
 20 48  1  0
 21 49  1  0
 23 50  1  0
 23 51  1  0
 23 52  1  0
 26 53  1  0
 27 54  1  0
 27 55  1  0
 28 56  1  0
 29 57  1  0
 29 58  1  0
 30 59  1  0
 30 60  1  0
 31 61  1  0
 31 62  1  0
 32 63  1  0
 32 64  1  0
M  END
>  <Ligand ID>  (1) 
LIG0003611

>  <Ligand>  (1) 
CHEMBL3287690

>  <SMILES>  (1) 
O=C(c1ccc(c(c1O)C)OCCCCOc1cc(ccc1C)C(=O)O)CC1CCCC1

>  <CID>  (1) 
90643868.0

>  <ChEMBL ID>  (1) 
nan

>  <InChiKey>  (1) 
XCACYPAKNKDVCI-UHFFFAOYSA-N

>  <InChi>  (1) 
InChI=1S/C26H32O6/c1-17-9-10-20(26(29)30)16-24(17)32-14-6-5-13-31-23-12-11-21(25(28)18(23)2)22(27)15-19-7-3-4-8-19/h9-12,16,19,28H,3-8,13-15H2,1-2H3,(H,29,30)

>  <IUPAC Name>  (1) 
3-[4-[4-(2-cyclopentylacetyl)-3-hydroxy-2-methylphenoxy]butoxy]-4-methylbenzoic acid

$$$$
