
     RDKit          3D

 34 35  0  0  0  0  0  0  0  0999 V2000
    4.1627    1.0037   -0.7775 C   0  0  0  0  0  0  0  0  0  0  0  0
    3.5197   -0.1288   -0.2072 O   0  0  0  0  0  0  0  0  0  0  0  0
    2.1430   -0.1718   -0.0280 C   0  0  0  0  0  0  0  0  0  0  0  0
    1.3026    0.8627   -0.3823 C   0  0  0  0  0  0  0  0  0  0  0  0
   -0.0815    0.7920   -0.1901 C   0  0  0  0  0  0  0  0  0  0  0  0
   -0.6906    2.0330   -0.6622 C   0  0  0  0  0  0  0  0  0  0  0  0
   -2.0581    2.3643   -0.2439 C   0  0  0  0  0  0  0  0  0  0  0  0
   -2.5924    1.5405    0.8154 N   0  0  0  0  0  0  0  0  0  0  0  0
   -2.9800    0.2613    0.2361 C   0  0  0  0  0  0  0  0  0  0  0  0
   -1.9542   -0.7205    0.6894 C   0  0  0  0  0  0  0  0  0  0  0  0
   -0.5772   -0.3550    0.3693 C   0  0  0  0  0  0  0  0  0  0  0  0
    0.2762   -1.3853    0.7203 C   0  0  0  0  0  0  0  0  0  0  0  0
    1.6372   -1.3336    0.5390 C   0  0  0  0  0  0  0  0  0  0  0  0
    2.5356   -2.4541    0.9243 C   0  0  0  0  0  0  0  0  0  0  0  0
    1.8340   -3.4976    1.4623 F   0  0  0  0  0  0  0  0  0  0  0  0
    3.4776   -2.0482    1.8664 F   0  0  0  0  0  0  0  0  0  0  0  0
    3.2579   -2.8634   -0.1800 F   0  0  0  0  0  0  0  0  0  0  0  0
   -2.3396   -2.0852    0.1429 C   0  0  0  0  0  0  0  0  0  0  0  0
    3.5234    1.2779   -1.6671 H   0  0  0  0  0  0  0  0  0  0  0  0
    5.1934    0.7451   -1.0905 H   0  0  0  0  0  0  0  0  0  0  0  0
    4.1689    1.8621   -0.0819 H   0  0  0  0  0  0  0  0  0  0  0  0
    1.7299    1.7499   -0.8200 H   0  0  0  0  0  0  0  0  0  0  0  0
   -0.6564    2.0234   -1.7923 H   0  0  0  0  0  0  0  0  0  0  0  0
    0.0281    2.8562   -0.3934 H   0  0  0  0  0  0  0  0  0  0  0  0
   -2.7541    2.4025   -1.1251 H   0  0  0  0  0  0  0  0  0  0  0  0
   -2.0744    3.4040    0.1471 H   0  0  0  0  0  0  0  0  0  0  0  0
   -3.3945    2.0296    1.2463 H   0  0  0  0  0  0  0  0  0  0  0  0
   -3.1302    0.2985   -0.8521 H   0  0  0  0  0  0  0  0  0  0  0  0
   -3.9486   -0.0082    0.7313 H   0  0  0  0  0  0  0  0  0  0  0  0
   -2.0709   -0.7994    1.8073 H   0  0  0  0  0  0  0  0  0  0  0  0
   -0.1232   -2.2884    1.1617 H   0  0  0  0  0  0  0  0  0  0  0  0
   -2.3888   -2.8605    0.9475 H   0  0  0  0  0  0  0  0  0  0  0  0
   -1.6363   -2.4381   -0.6249 H   0  0  0  0  0  0  0  0  0  0  0  0
   -3.3390   -2.0688   -0.3378 H   0  0  0  0  0  0  0  0  0  0  0  0
  1  2  1  0
  2  3  1  0
  3  4  2  0
  4  5  1  0
  5  6  1  0
  6  7  1  0
  7  8  1  0
  8  9  1  0
  9 10  1  0
 10 11  1  0
 11 12  1  0
 12 13  2  0
 13 14  1  0
 14 15  1  0
 14 16  1  0
 14 17  1  0
 10 18  1  0
 13  3  1  0
 11  5  2  0
  1 19  1  0
  1 20  1  0
  1 21  1  0
  4 22  1  0
  6 23  1  0
  6 24  1  0
  7 25  1  0
  7 26  1  0
  8 27  1  0
  9 28  1  0
  9 29  1  0
 10 30  1  0
 12 31  1  0
 18 32  1  0
 18 33  1  0
 18 34  1  0
M  END
>  <Ligand ID>  (1) 
LIG0004027

>  <Ligand>  (1) 
CHEMBL179915

>  <SMILES>  (1) 
COc1cc2CCNCC(c2cc1C(F)(F)F)C

>  <CID>  (1) 
10015414.0

>  <ChEMBL ID>  (1) 
nan

>  <InChiKey>  (1) 
VZPBGKYNLKOIBH-UHFFFAOYSA-N

>  <InChi>  (1) 
InChI=1S/C13H16F3NO/c1-8-7-17-4-3-9-5-12(18-2)11(6-10(8)9)13(14,15)16/h5-6,8,17H,3-4,7H2,1-2H3

>  <IUPAC Name>  (1) 
8-methoxy-5-methyl-7-(trifluoromethyl)-2,3,4,5-tetrahydro-1H-3-benzazepine

$$$$
