
     RDKit          3D

 36 36  0  0  0  0  0  0  0  0999 V2000
   -5.0005   -0.5729    1.0547 C   0  0  0  0  0  0  0  0  0  0  0  0
   -4.3424    0.2779    0.0054 C   0  0  0  0  0  0  0  0  0  0  0  0
   -3.0138   -0.2368   -0.4305 C   0  0  0  0  0  0  0  0  0  0  0  0
   -2.0115   -0.3289    0.6911 C   0  0  0  0  0  0  0  0  0  0  0  0
   -0.6872   -0.8139    0.2736 C   0  0  0  0  0  0  0  0  0  0  0  0
    0.1358   -0.0654   -0.7027 C   0  0  0  0  0  0  0  0  0  0  0  0
    0.6165    1.2701   -0.3368 C   0  0  0  0  0  0  0  0  0  0  0  0
    1.9483    1.4620   -0.2008 C   0  0  0  0  0  0  0  0  0  0  0  0
    2.9748    0.4912   -0.3836 C   0  0  0  0  0  0  0  0  0  0  0  0
    3.8601    0.2828    0.6857 C   0  0  0  0  0  0  0  0  0  0  0  0
    4.9159   -0.5981    0.5895 C   0  0  0  0  0  0  0  0  0  0  0  0
    5.1569   -1.3187   -0.5594 C   0  0  0  0  0  0  0  0  0  0  0  0
    4.2995   -1.1274   -1.6193 C   0  0  0  0  0  0  0  0  0  0  0  0
    3.2379   -0.2379   -1.5156 C   0  0  0  0  0  0  0  0  0  0  0  0
   -0.1899    2.4581   -0.1336 C   0  0  0  0  0  0  0  0  0  0  0  0
   -1.4346    2.5340   -0.2218 O   0  0  0  0  0  0  0  0  0  0  0  0
   -4.6929   -0.2846    2.0864 H   0  0  0  0  0  0  0  0  0  0  0  0
   -6.0904   -0.3691    1.0125 H   0  0  0  0  0  0  0  0  0  0  0  0
   -4.8616   -1.6479    0.8862 H   0  0  0  0  0  0  0  0  0  0  0  0
   -4.2870    1.3256    0.3959 H   0  0  0  0  0  0  0  0  0  0  0  0
   -5.0442    0.3363   -0.8542 H   0  0  0  0  0  0  0  0  0  0  0  0
   -2.6207    0.3809   -1.2439 H   0  0  0  0  0  0  0  0  0  0  0  0
   -3.1811   -1.2452   -0.8846 H   0  0  0  0  0  0  0  0  0  0  0  0
   -2.0392    0.5400    1.3651 H   0  0  0  0  0  0  0  0  0  0  0  0
   -2.4212   -1.1646    1.3803 H   0  0  0  0  0  0  0  0  0  0  0  0
   -0.7655   -1.8824   -0.0952 H   0  0  0  0  0  0  0  0  0  0  0  0
   -0.0508   -0.8732    1.2227 H   0  0  0  0  0  0  0  0  0  0  0  0
   -0.3741   -0.0035   -1.7229 H   0  0  0  0  0  0  0  0  0  0  0  0
    1.0116   -0.7636   -0.9025 H   0  0  0  0  0  0  0  0  0  0  0  0
    2.3131    2.4797    0.0855 H   0  0  0  0  0  0  0  0  0  0  0  0
    3.7378    0.8103    1.6204 H   0  0  0  0  0  0  0  0  0  0  0  0
    5.5824   -0.7368    1.4346 H   0  0  0  0  0  0  0  0  0  0  0  0
    5.9681   -2.0136   -0.6719 H   0  0  0  0  0  0  0  0  0  0  0  0
    4.4509   -1.6731   -2.5434 H   0  0  0  0  0  0  0  0  0  0  0  0
    2.6220   -0.1269   -2.3959 H   0  0  0  0  0  0  0  0  0  0  0  0
    0.2771    3.4358    0.1295 H   0  0  0  0  0  0  0  0  0  0  0  0
  1  2  1  0
  2  3  1  0
  3  4  1  0
  4  5  1  0
  5  6  1  0
  6  7  1  0
  7  8  2  0
  8  9  1  0
  9 10  2  0
 10 11  1  0
 11 12  2  0
 12 13  1  0
 13 14  2  0
  7 15  1  0
 15 16  2  0
 14  9  1  0
  1 17  1  0
  1 18  1  0
  1 19  1  0
  2 20  1  0
  2 21  1  0
  3 22  1  0
  3 23  1  0
  4 24  1  0
  4 25  1  0
  5 26  1  0
  5 27  1  0
  6 28  1  0
  6 29  1  0
  8 30  1  0
 10 31  1  0
 11 32  1  0
 12 33  1  0
 13 34  1  0
 14 35  1  0
 15 36  1  0
M  END
>  <Ligand ID>  (1) 
LIG0000220

>  <Ligand>  (1) 
alpha-Hexylcinnamaldehyde

>  <SMILES>  (1) 
CCCCCC/C(=C\c1ccccc1)/C=O

>  <CID>  (1) 
1550884.0

>  <ChEMBL ID>  (1) 
nan

>  <InChiKey>  (1) 
GUUHFMWKWLOQMM-NTCAYCPXSA-N

>  <InChi>  (1) 
InChI=1S/C15H20O/c1-2-3-4-6-11-15(13-16)12-14-9-7-5-8-10-14/h5,7-10,12-13H,2-4,6,11H2,1H3/b15-12+

>  <IUPAC Name>  (1) 
(2E)-2-benzylideneoctanal

$$$$
