
     RDKit          3D

136138  0  0  0  0  0  0  0  0999 V2000
   10.0795    4.3947    1.0383 N   0  0  0  0  0  0  0  0  0  0  0  0
    9.0351    4.0663    0.0865 C   0  0  0  0  0  0  0  0  0  0  0  0
    8.8265    2.5457    0.0586 C   0  0  0  0  0  0  0  0  0  0  0  0
    7.7415    2.2770   -0.9433 C   0  0  0  0  0  0  0  0  0  0  0  0
    7.4367    0.8110   -1.0742 C   0  0  1  0  0  0  0  0  0  0  0  0
    8.6136    0.0195   -1.5319 C   0  0  0  0  0  0  0  0  0  0  0  0
    9.1204   -0.8730   -0.8065 O   0  0  0  0  0  0  0  0  0  0  0  0
    9.1919    0.2507   -2.8054 N   0  0  0  0  0  0  0  0  0  0  0  0
   10.3021   -0.4496   -3.3571 C   0  0  0  0  0  0  0  0  0  0  0  0
   11.5133   -0.3089   -2.5392 C   0  0  0  0  0  0  0  0  0  0  0  0
   12.5595   -0.9067   -2.9512 O   0  0  0  0  0  0  0  0  0  0  0  0
   11.6369    0.4219   -1.3419 N   0  0  0  0  0  0  0  0  0  0  0  0
    6.9933    0.3412    0.2333 N   0  0  0  0  0  0  0  0  0  0  0  0
    5.6402   -0.1438    0.3212 C   0  0  0  0  0  0  0  0  0  0  0  0
    4.8748   -0.1616   -0.6654 O   0  0  0  0  0  0  0  0  0  0  0  0
    5.2325   -0.6231    1.6927 C   0  0  2  0  0  0  0  0  0  0  0  0
    5.8242   -1.9993    1.8067 C   0  0  0  0  0  0  0  0  0  0  0  0
    4.8587   -2.7782    2.6139 C   0  0  0  0  0  0  0  0  0  0  0  0
    3.4881   -2.1646    2.2962 C   0  0  0  0  0  0  0  0  0  0  0  0
    3.7741   -0.8699    1.7342 N   0  0  0  0  0  0  0  0  0  0  0  0
    2.8979    0.1304    1.2272 C   0  0  0  0  0  0  0  0  0  0  0  0
    3.4396    1.2661    0.8483 O   0  0  0  0  0  0  0  0  0  0  0  0
    1.4507    0.1218    1.0404 C   0  0  2  0  0  0  0  0  0  0  0  0
    0.8548    1.3173    1.8170 C   0  0  0  0  0  0  0  0  0  0  0  0
   -0.7971    1.7186    1.1450 S   0  0  0  0  0  0  0  0  0  0  0  0
   -0.5311    2.5141   -0.8428 S   0  0  0  0  0  0  0  0  0  0  0  0
   -0.3416    4.2638   -0.8863 C   0  0  0  0  0  0  0  0  0  0  0  0
   -1.4958    5.1723   -0.9095 C   0  0  2  0  0  0  0  0  0  0  0  0
   -0.9784    6.5298   -0.6223 N   0  0  0  0  0  0  0  0  0  0  0  0
   -2.7170    4.9530   -0.1658 C   0  0  0  0  0  0  0  0  0  0  0  0
   -2.9928    5.3294    0.9852 O   0  0  0  0  0  0  0  0  0  0  0  0
   -3.7928    4.2152   -0.7966 N   0  0  0  0  0  0  0  0  0  0  0  0
   -5.0780    3.9705   -0.0880 C   0  0  1  0  0  0  0  0  0  0  0  0
   -6.2654    4.2269   -0.9246 C   0  0  0  0  0  0  0  0  0  0  0  0
   -6.3627    3.4128   -2.1433 C   0  0  0  0  0  0  0  0  0  0  0  0
   -5.7649    3.9378   -3.2960 C   0  0  0  0  0  0  0  0  0  0  0  0
   -5.8007    3.2554   -4.4940 C   0  0  0  0  0  0  0  0  0  0  0  0
   -6.4418    2.0273   -4.5532 C   0  0  0  0  0  0  0  0  0  0  0  0
   -7.0295    1.5154   -3.4122 C   0  0  0  0  0  0  0  0  0  0  0  0
   -6.9961    2.1904   -2.2186 C   0  0  0  0  0  0  0  0  0  0  0  0
   -4.8829    2.5806    0.3665 C   0  0  0  0  0  0  0  0  0  0  0  0
   -3.7902    2.0646    0.0425 O   0  0  0  0  0  0  0  0  0  0  0  0
   -5.7554    1.7356    1.1151 N   0  0  0  0  0  0  0  0  0  0  0  0
   -5.1559    0.4982    1.5270 C   0  0  2  0  0  0  0  0  0  0  0  0
   -5.7013   -0.7831    1.0800 C   0  0  0  0  0  0  0  0  0  0  0  0
   -6.8508   -1.0905    0.7918 O   0  0  0  0  0  0  0  0  0  0  0  0
   -4.7337   -1.8258    0.9441 N   0  0  0  0  0  0  0  0  0  0  0  0
   -4.8411   -3.2231    0.7171 C   0  0  2  0  0  0  0  0  0  0  0  0
   -3.4539   -3.7285    1.0921 C   0  0  0  0  0  0  0  0  0  0  0  0
   -3.2015   -4.7253    1.7268 O   0  0  0  0  0  0  0  0  0  0  0  0
   -2.3771   -2.9374    0.6169 N   0  0  0  0  0  0  0  0  0  0  0  0
   -0.9966   -2.9517    1.0339 C   0  0  2  0  0  0  0  0  0  0  0  0
   -0.3803   -1.6071    0.7367 C   0  0  0  0  0  0  0  0  0  0  0  0
   -0.8414   -0.8216   -0.1056 O   0  0  0  0  0  0  0  0  0  0  0  0
    0.7897   -1.1155    1.4191 N   0  0  0  0  0  0  0  0  0  0  0  0
   -0.2055   -3.9867    0.2219 C   0  0  0  0  0  0  0  0  0  0  0  0
   -0.7125   -5.3588    0.3891 C   0  0  0  0  0  0  0  0  0  0  0  0
   -0.4082   -5.9612    1.4746 O   0  0  0  0  0  0  0  0  0  0  0  0
   -1.5055   -6.0461   -0.5663 N   0  0  0  0  0  0  0  0  0  0  0  0
   -5.0274   -3.5128   -0.7943 C   0  0  0  0  0  0  0  0  0  0  0  0
   -5.1267   -5.0185   -0.8838 C   0  0  0  0  0  0  0  0  0  0  0  0
   -5.3193   -5.5432   -2.2679 C   0  0  0  0  0  0  0  0  0  0  0  0
   -4.2545   -5.2055   -3.2176 C   0  0  0  0  0  0  0  0  0  0  0  0
   -3.2546   -4.4830   -2.9510 O   0  0  0  0  0  0  0  0  0  0  0  0
   -4.3091   -5.7093   -4.5621 N   0  0  0  0  0  0  0  0  0  0  0  0
   -5.2872    0.5122    3.0713 C   0  0  2  0  0  0  0  0  0  0  0  0
   -4.6854   -0.7370    3.6085 C   0  0  0  0  0  0  0  0  0  0  0  0
   -4.7826   -0.7922    5.1307 C   0  0  0  0  0  0  0  0  0  0  0  0
   -6.7609    0.5285    3.3813 C   0  0  0  0  0  0  0  0  0  0  0  0
    9.9897    5.3664    1.3898 H   0  0  0  0  0  0  0  0  0  0  0  0
   10.1179    3.7166    1.8331 H   0  0  0  0  0  0  0  0  0  0  0  0
    9.3050    4.3660   -0.9499 H   0  0  0  0  0  0  0  0  0  0  0  0
    8.1054    4.5737    0.4168 H   0  0  0  0  0  0  0  0  0  0  0  0
    9.7708    2.0244   -0.1113 H   0  0  0  0  0  0  0  0  0  0  0  0
    8.4664    2.2300    1.0686 H   0  0  0  0  0  0  0  0  0  0  0  0
    7.9911    2.7483   -1.9183 H   0  0  0  0  0  0  0  0  0  0  0  0
    6.8088    2.7421   -0.5192 H   0  0  0  0  0  0  0  0  0  0  0  0
    6.5790    0.6815   -1.7679 H   0  0  0  0  0  0  0  0  0  0  0  0
    8.7510    1.0076   -3.3803 H   0  0  0  0  0  0  0  0  0  0  0  0
   10.0248   -1.5447   -3.3583 H   0  0  0  0  0  0  0  0  0  0  0  0
   10.5245   -0.1107   -4.3912 H   0  0  0  0  0  0  0  0  0  0  0  0
   11.6924   -0.0226   -0.3819 H   0  0  0  0  0  0  0  0  0  0  0  0
   11.6740    1.4790   -1.4461 H   0  0  0  0  0  0  0  0  0  0  0  0
    7.6334    0.3596    1.0575 H   0  0  0  0  0  0  0  0  0  0  0  0
    5.5445    0.0825    2.4618 H   0  0  0  0  0  0  0  0  0  0  0  0
    6.8375   -1.9331    2.2752 H   0  0  0  0  0  0  0  0  0  0  0  0
    5.9132   -2.4453    0.7854 H   0  0  0  0  0  0  0  0  0  0  0  0
    5.0737   -2.6365    3.6718 H   0  0  0  0  0  0  0  0  0  0  0  0
    4.9147   -3.8460    2.3089 H   0  0  0  0  0  0  0  0  0  0  0  0
    3.0031   -2.8771    1.6346 H   0  0  0  0  0  0  0  0  0  0  0  0
    2.9514   -2.0677    3.2912 H   0  0  0  0  0  0  0  0  0  0  0  0
    1.1643    0.3377   -0.0104 H   0  0  0  0  0  0  0  0  0  0  0  0
    0.7577    1.0514    2.8728 H   0  0  0  0  0  0  0  0  0  0  0  0
    1.5463    2.1609    1.6368 H   0  0  0  0  0  0  0  0  0  0  0  0
    0.3253    4.5972   -1.7493 H   0  0  0  0  0  0  0  0  0  0  0  0
    0.2724    4.5524    0.0453 H   0  0  0  0  0  0  0  0  0  0  0  0
   -1.8454    5.3190   -2.0038 H   0  0  0  0  0  0  0  0  0  0  0  0
   -1.7926    7.1676   -0.4363 H   0  0  0  0  0  0  0  0  0  0  0  0
   -0.4236    6.5330    0.2665 H   0  0  0  0  0  0  0  0  0  0  0  0
   -3.6020    3.8880   -1.7334 H   0  0  0  0  0  0  0  0  0  0  0  0
   -5.0800    4.6442    0.7959 H   0  0  0  0  0  0  0  0  0  0  0  0
   -7.1567    4.0981   -0.2536 H   0  0  0  0  0  0  0  0  0  0  0  0
   -6.2742    5.3119   -1.1715 H   0  0  0  0  0  0  0  0  0  0  0  0
   -5.2557    4.9129   -3.2505 H   0  0  0  0  0  0  0  0  0  0  0  0
   -5.3297    3.6796   -5.3791 H   0  0  0  0  0  0  0  0  0  0  0  0
   -6.4426    1.5367   -5.5085 H   0  0  0  0  0  0  0  0  0  0  0  0
   -7.5214    0.5436   -3.5149 H   0  0  0  0  0  0  0  0  0  0  0  0
   -7.4584    1.7851   -1.3279 H   0  0  0  0  0  0  0  0  0  0  0  0
   -6.6868    2.0833    1.2708 H   0  0  0  0  0  0  0  0  0  0  0  0
   -4.0473    0.4916    1.3411 H   0  0  0  0  0  0  0  0  0  0  0  0
   -3.7483   -1.4291    1.0300 H   0  0  0  0  0  0  0  0  0  0  0  0
   -5.6056   -3.7908    1.1874 H   0  0  0  0  0  0  0  0  0  0  0  0
   -2.6076   -2.2969   -0.1633 H   0  0  0  0  0  0  0  0  0  0  0  0
   -0.8039   -3.2158    2.0708 H   0  0  0  0  0  0  0  0  0  0  0  0
    1.0640   -1.7220    2.1958 H   0  0  0  0  0  0  0  0  0  0  0  0
   -0.1459   -3.6642   -0.8223 H   0  0  0  0  0  0  0  0  0  0  0  0
    0.8325   -3.9710    0.6122 H   0  0  0  0  0  0  0  0  0  0  0  0
   -1.3154   -5.8395   -1.5713 H   0  0  0  0  0  0  0  0  0  0  0  0
   -2.2285   -6.7144   -0.2662 H   0  0  0  0  0  0  0  0  0  0  0  0
   -4.2114   -3.0687   -1.3607 H   0  0  0  0  0  0  0  0  0  0  0  0
   -5.9980   -3.1022   -1.0625 H   0  0  0  0  0  0  0  0  0  0  0  0
   -4.2644   -5.4621   -0.3535 H   0  0  0  0  0  0  0  0  0  0  0  0
   -6.0136   -5.2880   -0.2442 H   0  0  0  0  0  0  0  0  0  0  0  0
   -6.3321   -5.1962   -2.6105 H   0  0  0  0  0  0  0  0  0  0  0  0
   -5.4500   -6.6563   -2.1655 H   0  0  0  0  0  0  0  0  0  0  0  0
   -4.1654   -5.1033   -5.3986 H   0  0  0  0  0  0  0  0  0  0  0  0
   -4.5056   -6.7392   -4.6428 H   0  0  0  0  0  0  0  0  0  0  0  0
   -4.8272    1.4385    3.4722 H   0  0  0  0  0  0  0  0  0  0  0  0
   -5.2459   -1.6056    3.2401 H   0  0  0  0  0  0  0  0  0  0  0  0
   -3.6066   -0.8529    3.3141 H   0  0  0  0  0  0  0  0  0  0  0  0
   -4.7283    0.2047    5.5799 H   0  0  0  0  0  0  0  0  0  0  0  0
   -5.7299   -1.2874    5.4194 H   0  0  0  0  0  0  0  0  0  0  0  0
   -3.9596   -1.4592    5.4707 H   0  0  0  0  0  0  0  0  0  0  0  0
   -6.8417    0.3392    4.4787 H   0  0  0  0  0  0  0  0  0  0  0  0
   -7.3212   -0.2758    2.8996 H   0  0  0  0  0  0  0  0  0  0  0  0
   -7.2508    1.4965    3.1162 H   0  0  0  0  0  0  0  0  0  0  0  0
  1  2  1  0
  2  3  1  0
  3  4  1  0
  4  5  1  0
  5  6  1  0
  6  7  2  0
  6  8  1  0
  8  9  1  0
  9 10  1  0
 10 11  2  0
 10 12  1  0
  5 13  1  0
 13 14  1  0
 14 15  2  0
 14 16  1  0
 16 17  1  0
 17 18  1  0
 18 19  1  0
 19 20  1  0
 20 21  1  0
 21 22  2  0
 21 23  1  0
 23 24  1  0
 24 25  1  0
 25 26  1  0
 26 27  1  0
 27 28  1  0
 28 29  1  0
 28 30  1  0
 30 31  2  0
 30 32  1  0
 32 33  1  0
 33 34  1  0
 34 35  1  0
 35 36  2  0
 36 37  1  0
 37 38  2  0
 38 39  1  0
 39 40  2  0
 33 41  1  0
 41 42  2  0
 41 43  1  0
 43 44  1  0
 44 45  1  0
 45 46  2  0
 45 47  1  0
 47 48  1  0
 48 49  1  0
 49 50  2  0
 49 51  1  0
 51 52  1  0
 52 53  1  0
 53 54  2  0
 53 55  1  0
 52 56  1  0
 56 57  1  0
 57 58  2  0
 57 59  1  0
 48 60  1  0
 60 61  1  0
 61 62  1  0
 62 63  1  0
 63 64  2  0
 63 65  1  0
 44 66  1  0
 66 67  1  0
 67 68  1  0
 66 69  1  0
 20 16  1  0
 55 23  1  0
 40 35  1  0
  1 70  1  0
  1 71  1  0
  2 72  1  0
  2 73  1  0
  3 74  1  0
  3 75  1  0
  4 76  1  0
  4 77  1  0
  5 78  1  6
  8 79  1  0
  9 80  1  0
  9 81  1  0
 12 82  1  0
 12 83  1  0
 13 84  1  0
 16 85  1  1
 17 86  1  0
 17 87  1  0
 18 88  1  0
 18 89  1  0
 19 90  1  0
 19 91  1  0
 23 92  1  6
 24 93  1  0
 24 94  1  0
 27 95  1  0
 27 96  1  0
 28 97  1  6
 29 98  1  0
 29 99  1  0
 32100  1  0
 33101  1  1
 34102  1  0
 34103  1  0
 36104  1  0
 37105  1  0
 38106  1  0
 39107  1  0
 40108  1  0
 43109  1  0
 44110  1  1
 47111  1  0
 48112  1  1
 51113  1  0
 52114  1  1
 55115  1  0
 56116  1  0
 56117  1  0
 59118  1  0
 59119  1  0
 60120  1  0
 60121  1  0
 61122  1  0
 61123  1  0
 62124  1  0
 62125  1  0
 65126  1  0
 65127  1  0
 66128  1  1
 67129  1  0
 67130  1  0
 68131  1  0
 68132  1  0
 68133  1  0
 69134  1  0
 69135  1  0
 69136  1  0
M  END
>  <Ligand ID>  (1) 
LIG0000920

>  <Ligand>  (1) 
CHEMBL1817702

>  <SMILES>  (1) 
NCCC[C@@H](C(=O)NCC(=O)N)NC(=O)[C@@H]1CCCN1C(=O)[C@@H]1CSSC[C@H](N)C(=O)N[C@@H](Cc2ccccc2)C(=O)N[C@H](C(=O)N[C@H](C(=O)N[C@H](C(=O)N1)CC(=O)N)CCCC(=O)N)[C@H](CC)C

>  <CID>  (1) 
53362370.0

>  <ChEMBL ID>  (1) 
nan

>  <InChiKey>  (1) 
UFXWPXXCMCHPHB-GHDRINTISA-N

>  <InChi>  (1) 
InChI=1S/C43H67N13O11S2/c1-3-23(2)35-42(66)51-27(12-7-15-32(46)57)38(62)53-29(19-33(47)58)39(63)54-30(22-69-68-21-25(45)36(60)52-28(40(64)55-35)18-24-10-5-4-6-11-24)43(67)56-17-9-14-31(56)41(65)50-26(13-8-16-44)37(61)49-20-34(48)59/h4-6,10-11,23,25-31,35H,3,7-9,12-22,44-45H2,1-2H3,(H2,46,57)(H2,47,58)(H2,48,59)(H,49,61)(H,50,65)(H,51,66)(H,52,60)(H,53,62)(H,54,63)(H,55,64)/t23-,25-,26-,27-,28-,29-,30-,31-,35-/m0/s1

>  <IUPAC Name>  (1) 
(2S)-1-[(4R,7S,10S,13S,16S,19R)-19-amino-10-(4-amino-4-oxobutyl)-7-(2-amino-2-oxoethyl)-16-benzyl-13-[(2S)-butan-2-yl]-6,9,12,15,18-pentaoxo-1,2-dithia-5,8,11,14,17-pentazacycloicosane-4-carbonyl]-N-[(2S)-5-amino-1-[(2-amino-2-oxoethyl)amino]-1-oxopentan-2-yl]pyrrolidine-2-carboxamide

$$$$
