
     RDKit          3D

 36 38  0  0  0  0  0  0  0  0999 V2000
    4.8472    2.7858   -0.4798 C   0  0  0  0  0  0  0  0  0  0  0  0
    3.5930    2.0843   -0.2783 N   0  0  0  0  0  0  0  0  0  0  0  0
    2.4483    2.6691    0.0854 C   0  0  0  0  0  0  0  0  0  0  0  0
    1.5157    1.6191    0.1582 C   0  0  0  0  0  0  0  0  0  0  0  0
    2.1135    0.4333   -0.1621 C   0  0  0  0  0  0  0  0  0  0  0  0
    3.4037    0.8009   -0.4208 N   0  0  0  0  0  0  0  0  0  0  0  0
    1.6930   -0.9416   -0.2000 C   0  0  0  0  0  0  0  0  0  0  0  0
    2.7002   -1.9119   -0.3446 C   0  0  0  0  0  0  0  0  0  0  0  0
    2.4495   -3.2551   -0.2849 C   0  0  0  0  0  0  0  0  0  0  0  0
    1.1829   -3.7416   -0.0776 C   0  0  0  0  0  0  0  0  0  0  0  0
    0.1796   -2.8060    0.0646 C   0  0  0  0  0  0  0  0  0  0  0  0
    0.4384   -1.4282    0.0012 C   0  0  0  0  0  0  0  0  0  0  0  0
   -0.6890   -0.5848    0.0478 N   0  0  0  0  0  0  0  0  0  0  0  0
   -2.0126   -1.1920    0.3070 C   0  0  0  0  0  0  0  0  0  0  0  0
   -3.0918   -0.1907    0.3358 C   0  0  0  0  0  0  0  0  0  0  0  0
   -2.9081    1.0669    0.1517 N   0  0  0  0  0  0  0  0  0  0  0  0
   -4.1583    1.7922    0.2398 C   0  0  0  0  0  0  0  0  0  0  0  0
   -5.1777    0.7000    0.0213 C   0  0  0  0  0  0  0  0  0  0  0  0
   -4.4533   -0.4495    0.5625 N   0  0  0  0  0  0  0  0  0  0  0  0
    5.1105    3.4004    0.4105 H   0  0  0  0  0  0  0  0  0  0  0  0
    5.6933    2.0842   -0.6273 H   0  0  0  0  0  0  0  0  0  0  0  0
    4.7278    3.5038   -1.3226 H   0  0  0  0  0  0  0  0  0  0  0  0
    2.3090    3.7062    0.2710 H   0  0  0  0  0  0  0  0  0  0  0  0
    0.5197    1.8173    0.4575 H   0  0  0  0  0  0  0  0  0  0  0  0
    3.7403   -1.6256   -0.5139 H   0  0  0  0  0  0  0  0  0  0  0  0
    3.2668   -3.9462   -0.4024 H   0  0  0  0  0  0  0  0  0  0  0  0
    1.0221   -4.8084   -0.0347 H   0  0  0  0  0  0  0  0  0  0  0  0
   -0.8122   -3.1906    0.2277 H   0  0  0  0  0  0  0  0  0  0  0  0
   -0.7326    0.4176   -0.1091 H   0  0  0  0  0  0  0  0  0  0  0  0
   -1.9533   -1.7635    1.2412 H   0  0  0  0  0  0  0  0  0  0  0  0
   -2.2011   -1.9133   -0.5393 H   0  0  0  0  0  0  0  0  0  0  0  0
   -4.2327    2.5976   -0.5175 H   0  0  0  0  0  0  0  0  0  0  0  0
   -4.2919    2.1487    1.2687 H   0  0  0  0  0  0  0  0  0  0  0  0
   -5.2718    0.5480   -1.0772 H   0  0  0  0  0  0  0  0  0  0  0  0
   -6.1439    0.8773    0.5257 H   0  0  0  0  0  0  0  0  0  0  0  0
   -4.8241   -1.3035    1.0272 H   0  0  0  0  0  0  0  0  0  0  0  0
  1  2  1  0
  2  3  1  0
  3  4  2  0
  4  5  1  0
  5  6  2  0
  5  7  1  0
  7  8  2  0
  8  9  1  0
  9 10  2  0
 10 11  1  0
 11 12  2  0
 12 13  1  0
 13 14  1  0
 14 15  1  0
 15 16  2  0
 16 17  1  0
 17 18  1  0
 18 19  1  0
  6  2  1  0
 12  7  1  0
 19 15  1  0
  1 20  1  0
  1 21  1  0
  1 22  1  0
  3 23  1  0
  4 24  1  0
  8 25  1  0
  9 26  1  0
 10 27  1  0
 11 28  1  0
 13 29  1  0
 14 30  1  0
 14 31  1  0
 17 32  1  0
 17 33  1  0
 18 34  1  0
 18 35  1  0
 19 36  1  0
M  END
>  <Ligand ID>  (1) 
LIG0004575

>  <Ligand>  (1) 
CHEMBL17856

>  <SMILES>  (1) 
Cn1ccc(n1)c1ccccc1NCC1=NCCN1

>  <CID>  (1) 
9816515.0

>  <ChEMBL ID>  (1) 
nan

>  <InChiKey>  (1) 
QBZZRVBTXBSWLN-UHFFFAOYSA-N

>  <InChi>  (1) 
InChI=1S/C14H17N5/c1-19-9-6-13(18-19)11-4-2-3-5-12(11)17-10-14-15-7-8-16-14/h2-6,9,17H,7-8,10H2,1H3,(H,15,16)

>  <IUPAC Name>  (1) 
N-(4,5-dihydro-1H-imidazol-2-ylmethyl)-2-(1-methylpyrazol-3-yl)aniline

$$$$
