
     RDKit          3D

 65 68  0  0  0  0  0  0  0  0999 V2000
   -7.8507   -2.6908    1.3034 C   0  0  0  0  0  0  0  0  0  0  0  0
   -7.9560   -1.2832    1.2415 O   0  0  0  0  0  0  0  0  0  0  0  0
   -6.9656   -0.5901    0.5373 C   0  0  0  0  0  0  0  0  0  0  0  0
   -5.9553   -1.3153   -0.0529 C   0  0  0  0  0  0  0  0  0  0  0  0
   -4.9808   -0.6354   -0.7442 C   0  0  0  0  0  0  0  0  0  0  0  0
   -5.0627    0.7257   -0.8114 C   0  0  0  0  0  0  0  0  0  0  0  0
   -6.0693    1.4458   -0.2233 C   0  0  0  0  0  0  0  0  0  0  0  0
   -7.0471    0.7956    0.4673 C   0  0  0  0  0  0  0  0  0  0  0  0
   -8.1045    1.3945    1.0987 O   0  0  0  0  0  0  0  0  0  0  0  0
   -8.3688    2.7658    1.1482 C   0  0  0  0  0  0  0  0  0  0  0  0
   -3.6428   -1.4148   -1.5537 S   0  0  0  0  0  0  0  0  0  0  0  0
   -4.1422   -2.7450   -2.0364 O   0  0  0  0  0  0  0  0  0  0  0  0
   -3.2701   -0.5820   -2.7461 O   0  0  0  0  0  0  0  0  0  0  0  0
   -2.3319   -1.6869   -0.4783 N   0  0  0  0  0  0  0  0  0  0  0  0
   -1.7825   -0.5160    0.0804 C   0  0  0  0  0  0  0  0  0  0  0  0
   -0.5818    0.0798   -0.5721 C   0  0  0  0  0  0  0  0  0  0  0  0
    0.2283   -1.0174   -1.3171 C   0  0  0  0  0  0  0  0  0  0  0  0
   -0.0121   -2.2458   -0.5396 C   0  0  0  0  0  0  0  0  0  0  0  0
   -1.4416   -2.7087   -0.9212 C   0  0  0  0  0  0  0  0  0  0  0  0
    1.4686   -0.5692   -1.6870 N   0  0  0  0  0  0  0  0  0  0  0  0
    2.5085   -0.1416   -0.8868 C   0  0  0  0  0  0  0  0  0  0  0  0
    3.2850   -1.1190   -0.0702 C   0  0  1  0  0  0  0  0  0  0  0  0
    4.3676   -0.4589    0.7599 C   0  0  0  0  0  0  0  0  0  0  0  0
    5.2887    0.2894    0.0266 O   0  0  0  0  0  0  0  0  0  0  0  0
    6.3610    0.9782    0.6137 C   0  0  0  0  0  0  0  0  0  0  0  0
    6.5822    0.9655    1.9666 C   0  0  0  0  0  0  0  0  0  0  0  0
    7.6818    1.6881    2.4434 C   0  0  0  0  0  0  0  0  0  0  0  0
    8.5181    2.3888    1.6025 C   0  0  0  0  0  0  0  0  0  0  0  0
    8.2364    2.3574    0.2568 C   0  0  0  0  0  0  0  0  0  0  0  0
    7.1734    1.6689   -0.2819 C   0  0  0  0  0  0  0  0  0  0  0  0
    7.1416    1.8144   -1.6235 N   0  0  0  0  0  0  0  0  0  0  0  0
    8.1951    2.6006   -1.9172 C   0  0  0  0  0  0  0  0  0  0  0  0
    8.5561    3.0024   -3.0760 O   0  0  0  0  0  0  0  0  0  0  0  0
    8.8681    2.9398   -0.8051 N   0  0  0  0  0  0  0  0  0  0  0  0
    2.4597   -1.7720    0.8178 O   0  0  0  0  0  0  0  0  0  0  0  0
   -8.0119   -3.0885    0.2853 H   0  0  0  0  0  0  0  0  0  0  0  0
   -6.8758   -3.0127    1.7342 H   0  0  0  0  0  0  0  0  0  0  0  0
   -8.6459   -3.1117    1.9745 H   0  0  0  0  0  0  0  0  0  0  0  0
   -5.8717   -2.3861   -0.0129 H   0  0  0  0  0  0  0  0  0  0  0  0
   -4.2963    1.2933   -1.3568 H   0  0  0  0  0  0  0  0  0  0  0  0
   -6.0872    2.5207   -0.3066 H   0  0  0  0  0  0  0  0  0  0  0  0
   -9.2697    3.0087    0.5273 H   0  0  0  0  0  0  0  0  0  0  0  0
   -8.6981    3.0207    2.1963 H   0  0  0  0  0  0  0  0  0  0  0  0
   -7.5129    3.3709    0.8494 H   0  0  0  0  0  0  0  0  0  0  0  0
   -2.5824    0.2791    0.0482 H   0  0  0  0  0  0  0  0  0  0  0  0
   -1.6460   -0.6865    1.1865 H   0  0  0  0  0  0  0  0  0  0  0  0
   -0.7866    0.9342   -1.2380 H   0  0  0  0  0  0  0  0  0  0  0  0
    0.1035    0.4377    0.2219 H   0  0  0  0  0  0  0  0  0  0  0  0
   -0.3897   -1.1221   -2.2801 H   0  0  0  0  0  0  0  0  0  0  0  0
   -0.1184   -2.0754    0.5624 H   0  0  0  0  0  0  0  0  0  0  0  0
    0.6153   -3.1071   -0.6985 H   0  0  0  0  0  0  0  0  0  0  0  0
   -1.6474   -3.7239   -0.5869 H   0  0  0  0  0  0  0  0  0  0  0  0
   -1.4331   -2.6962   -2.0503 H   0  0  0  0  0  0  0  0  0  0  0  0
    1.8038   -0.8965   -2.6300 H   0  0  0  0  0  0  0  0  0  0  0  0
    3.2914    0.3258   -1.5841 H   0  0  0  0  0  0  0  0  0  0  0  0
    2.2363    0.7751   -0.2570 H   0  0  0  0  0  0  0  0  0  0  0  0
    3.7867   -1.8872   -0.7394 H   0  0  0  0  0  0  0  0  0  0  0  0
    4.8694   -1.2674    1.3534 H   0  0  0  0  0  0  0  0  0  0  0  0
    3.9319    0.2120    1.5311 H   0  0  0  0  0  0  0  0  0  0  0  0
    5.9479    0.4304    2.6283 H   0  0  0  0  0  0  0  0  0  0  0  0
    7.8281    1.6556    3.5306 H   0  0  0  0  0  0  0  0  0  0  0  0
    9.3457    2.9231    2.0388 H   0  0  0  0  0  0  0  0  0  0  0  0
    6.4569    1.4111   -2.2868 H   0  0  0  0  0  0  0  0  0  0  0  0
    9.7192    3.5291   -0.6788 H   0  0  0  0  0  0  0  0  0  0  0  0
    2.5825   -1.4746    1.7727 H   0  0  0  0  0  0  0  0  0  0  0  0
  1  2  1  0
  2  3  1  0
  3  4  2  0
  4  5  1  0
  5  6  2  0
  6  7  1  0
  7  8  2  0
  8  9  1  0
  9 10  1  0
  5 11  1  0
 11 12  2  0
 11 13  2  0
 11 14  1  0
 14 15  1  0
 15 16  1  0
 16 17  1  0
 17 18  1  0
 18 19  1  0
 17 20  1  0
 20 21  1  0
 21 22  1  0
 22 23  1  0
 23 24  1  0
 24 25  1  0
 25 26  2  0
 26 27  1  0
 27 28  2  0
 28 29  1  0
 29 30  2  0
 30 31  1  0
 31 32  1  0
 32 33  2  0
 32 34  1  0
 22 35  1  0
  8  3  1  0
 19 14  1  0
 30 25  1  0
 34 29  1  0
  1 36  1  0
  1 37  1  0
  1 38  1  0
  4 39  1  0
  6 40  1  0
  7 41  1  0
 10 42  1  0
 10 43  1  0
 10 44  1  0
 15 45  1  0
 15 46  1  0
 16 47  1  0
 16 48  1  0
 17 49  1  0
 18 50  1  0
 18 51  1  0
 19 52  1  0
 19 53  1  0
 20 54  1  0
 21 55  1  0
 21 56  1  0
 22 57  1  6
 23 58  1  0
 23 59  1  0
 26 60  1  0
 27 61  1  0
 28 62  1  0
 31 63  1  0
 34 64  1  0
 35 65  1  0
M  END
>  <Ligand ID>  (1) 
LIG0004741

>  <Ligand>  (1) 
CHEMBL306430

>  <SMILES>  (1) 
COc1cc(ccc1OC)S(=O)(=O)N1CCC(CC1)NC[C@@H](COc1cccc2c1[nH]c(=O)[nH]2)O

>  <CID>  (1) 
10278987.0

>  <ChEMBL ID>  (1) 
nan

>  <InChiKey>  (1) 
QLLHNAFICOTLDD-INIZCTEOSA-N

>  <InChi>  (1) 
InChI=1S/C23H30N4O7S/c1-32-19-7-6-17(12-21(19)33-2)35(30,31)27-10-8-15(9-11-27)24-13-16(28)14-34-20-5-3-4-18-22(20)26-23(29)25-18/h3-7,12,15-16,24,28H,8-11,13-14H2,1-2H3,(H2,25,26,29)/t16-/m0/s1

>  <IUPAC Name>  (1) 
4-[(2S)-3-[[1-(3,4-dimethoxyphenyl)sulfonylpiperidin-4-yl]amino]-2-hydroxypropoxy]-1,3-dihydrobenzimidazol-2-one

$$$$
