
     RDKit          3D

112113  0  0  0  0  0  0  0  0999 V2000
    8.4853    0.5959   -0.5747 O   0  0  0  0  0  0  0  0  0  0  0  0
    8.0945    0.0822   -1.6449 C   0  0  0  0  0  0  0  0  0  0  0  0
    8.6018    0.6350   -2.8754 N   0  0  0  0  0  0  0  0  0  0  0  0
    9.5178    1.7235   -2.8804 C   0  0  0  0  0  0  0  0  0  0  0  0
    9.9251    2.2392   -1.7833 N   0  0  0  0  0  0  0  0  0  0  0  0
   10.8668    3.3568   -1.8365 C   0  0  0  0  0  0  0  0  0  0  0  0
   12.1216    2.9543   -1.0557 C   0  0  0  0  0  0  0  0  0  0  0  0
   11.7183    2.6545    0.3805 C   0  0  0  0  0  0  0  0  0  0  0  0
   12.9775    2.2725    1.1001 C   0  0  0  0  0  0  0  0  0  0  0  0
   13.4812    1.0277    1.2163 N   0  0  0  0  0  0  0  0  0  0  0  0
   14.6162    1.1159    1.9304 C   0  0  0  0  0  0  0  0  0  0  0  0
   14.8622    2.3959    2.2827 N   0  0  0  0  0  0  0  0  0  0  0  0
   13.8337    3.1103    1.7598 C   0  0  0  0  0  0  0  0  0  0  0  0
    9.9498    2.2032   -4.1690 N   0  0  0  0  0  0  0  0  0  0  0  0
    7.1563   -1.0442   -1.7701 C   0  0  0  0  0  0  0  0  0  0  0  0
    6.6272   -1.5419   -0.4387 C   0  0  0  0  0  0  0  0  0  0  0  0
    5.8607   -0.5127    0.3226 C   0  0  0  0  0  0  0  0  0  0  0  0
    5.3698   -1.0471    1.6310 C   0  0  0  0  0  0  0  0  0  0  0  0
    4.4570   -2.2577    1.3255 C   0  0  0  0  0  0  0  0  0  0  0  0
    3.9065   -2.8240    2.5884 C   0  0  0  0  0  0  0  0  0  0  0  0
    3.0641   -4.0152    2.4974 C   0  0  0  0  0  0  0  0  0  0  0  0
    1.7412   -4.1799    1.9478 C   0  0  0  0  0  0  0  0  0  0  0  0
    1.2196   -3.8976    0.6290 C   0  0  0  0  0  0  0  0  0  0  0  0
    1.0066   -2.5438    0.0978 C   0  0  0  0  0  0  0  0  0  0  0  0
    0.0190   -1.7432    0.9680 C   0  0  0  0  0  0  0  0  0  0  0  0
   -1.2996   -2.4579    1.0199 C   0  0  0  0  0  0  0  0  0  0  0  0
   -2.3780   -1.8492    1.8143 C   0  0  0  0  0  0  0  0  0  0  0  0
   -2.8614   -0.4982    1.4406 C   0  0  0  0  0  0  0  0  0  0  0  0
   -3.3916   -0.4235    0.0108 C   0  0  0  0  0  0  0  0  0  0  0  0
   -4.4913   -1.3993   -0.2193 C   0  0  0  0  0  0  0  0  0  0  0  0
   -5.0615   -1.3646   -1.5665 C   0  0  0  0  0  0  0  0  0  0  0  0
   -5.8491   -0.2557   -2.0851 C   0  0  0  0  0  0  0  0  0  0  0  0
   -5.3815    1.1338   -2.1346 C   0  0  0  0  0  0  0  0  0  0  0  0
   -6.4878    1.9542   -2.8117 C   0  0  0  0  0  0  0  0  0  0  0  0
   -7.7568    1.9066   -2.0661 C   0  0  0  0  0  0  0  0  0  0  0  0
   -7.8837    1.4639   -0.8987 O   0  0  0  0  0  0  0  0  0  0  0  0
   -8.9356    2.3835   -2.6918 N   0  0  0  0  0  0  0  0  0  0  0  0
  -10.2138    2.3286   -2.0147 C   0  0  0  0  0  0  0  0  0  0  0  0
  -10.5049    1.8966   -0.9514 N   0  0  0  0  0  0  0  0  0  0  0  0
  -10.3525    1.3136    0.2445 C   0  0  0  0  0  0  0  0  0  0  0  0
  -11.6849    1.0181    0.9914 C   0  0  0  0  0  0  0  0  0  0  0  0
  -12.4130    2.3013    1.2083 C   0  0  0  0  0  0  0  0  0  0  0  0
  -13.6899    1.9323    1.9249 C   0  0  0  0  0  0  0  0  0  0  0  0
  -13.9325    1.8437    3.2259 N   0  0  0  0  0  0  0  0  0  0  0  0
  -15.2330    1.4676    3.3726 C   0  0  0  0  0  0  0  0  0  0  0  0
  -15.7914    1.3252    2.1432 N   0  0  0  0  0  0  0  0  0  0  0  0
  -14.8359    1.6131    1.2380 C   0  0  0  0  0  0  0  0  0  0  0  0
  -11.2832    2.9175   -2.8424 N   0  0  0  0  0  0  0  0  0  0  0  0
    8.2866    0.2249   -3.8064 H   0  0  0  0  0  0  0  0  0  0  0  0
   11.1120    3.6023   -2.8803 H   0  0  0  0  0  0  0  0  0  0  0  0
   10.3788    4.2332   -1.3579 H   0  0  0  0  0  0  0  0  0  0  0  0
   12.5208    2.0438   -1.5451 H   0  0  0  0  0  0  0  0  0  0  0  0
   12.8136    3.8082   -1.0920 H   0  0  0  0  0  0  0  0  0  0  0  0
   10.9922    1.8284    0.3765 H   0  0  0  0  0  0  0  0  0  0  0  0
   11.2846    3.5467    0.8693 H   0  0  0  0  0  0  0  0  0  0  0  0
   13.0800    0.1321    0.8287 H   0  0  0  0  0  0  0  0  0  0  0  0
   15.2336    0.2427    2.1745 H   0  0  0  0  0  0  0  0  0  0  0  0
   13.7598    4.1763    1.8812 H   0  0  0  0  0  0  0  0  0  0  0  0
    9.4060    2.9682   -4.6569 H   0  0  0  0  0  0  0  0  0  0  0  0
   10.8037    1.7893   -4.6150 H   0  0  0  0  0  0  0  0  0  0  0  0
    6.3312   -0.8009   -2.4764 H   0  0  0  0  0  0  0  0  0  0  0  0
    7.6740   -1.9319   -2.2317 H   0  0  0  0  0  0  0  0  0  0  0  0
    5.9921   -2.4338   -0.7029 H   0  0  0  0  0  0  0  0  0  0  0  0
    7.5111   -1.9312    0.1072 H   0  0  0  0  0  0  0  0  0  0  0  0
    4.9298   -0.2880   -0.2842 H   0  0  0  0  0  0  0  0  0  0  0  0
    6.4459    0.4277    0.4693 H   0  0  0  0  0  0  0  0  0  0  0  0
    4.8288   -0.3001    2.2196 H   0  0  0  0  0  0  0  0  0  0  0  0
    6.1847   -1.4857    2.2533 H   0  0  0  0  0  0  0  0  0  0  0  0
    5.1108   -3.0714    0.8906 H   0  0  0  0  0  0  0  0  0  0  0  0
    3.7403   -1.8892    0.6133 H   0  0  0  0  0  0  0  0  0  0  0  0
    3.3761   -2.0197    3.1838 H   0  0  0  0  0  0  0  0  0  0  0  0
    4.8137   -3.0919    3.2179 H   0  0  0  0  0  0  0  0  0  0  0  0
    3.0202   -4.4267    3.5925 H   0  0  0  0  0  0  0  0  0  0  0  0
    3.7253   -4.8662    1.9892 H   0  0  0  0  0  0  0  0  0  0  0  0
    1.4695   -5.3156    2.1437 H   0  0  0  0  0  0  0  0  0  0  0  0
    1.0165   -3.7326    2.7601 H   0  0  0  0  0  0  0  0  0  0  0  0
    0.2821   -4.5421    0.4213 H   0  0  0  0  0  0  0  0  0  0  0  0
    1.9401   -4.4022   -0.1253 H   0  0  0  0  0  0  0  0  0  0  0  0
    1.8458   -1.9479   -0.1467 H   0  0  0  0  0  0  0  0  0  0  0  0
    0.4814   -2.7118   -0.9210 H   0  0  0  0  0  0  0  0  0  0  0  0
   -0.0164   -0.7307    0.5305 H   0  0  0  0  0  0  0  0  0  0  0  0
    0.4912   -1.6603    1.9618 H   0  0  0  0  0  0  0  0  0  0  0  0
   -1.6653   -2.7359    0.0065 H   0  0  0  0  0  0  0  0  0  0  0  0
   -1.0814   -3.4651    1.4965 H   0  0  0  0  0  0  0  0  0  0  0  0
   -2.0742   -1.9096    2.8960 H   0  0  0  0  0  0  0  0  0  0  0  0
   -3.2573   -2.5654    1.7728 H   0  0  0  0  0  0  0  0  0  0  0  0
   -2.1425    0.3098    1.5818 H   0  0  0  0  0  0  0  0  0  0  0  0
   -3.7532   -0.2830    2.0897 H   0  0  0  0  0  0  0  0  0  0  0  0
   -2.5446   -0.7644   -0.6754 H   0  0  0  0  0  0  0  0  0  0  0  0
   -3.5434    0.6097   -0.2399 H   0  0  0  0  0  0  0  0  0  0  0  0
   -5.2526   -1.3926    0.6046 H   0  0  0  0  0  0  0  0  0  0  0  0
   -4.0151   -2.4234   -0.0892 H   0  0  0  0  0  0  0  0  0  0  0  0
   -5.7215   -2.3004   -1.6862 H   0  0  0  0  0  0  0  0  0  0  0  0
   -4.2214   -1.6227   -2.2978 H   0  0  0  0  0  0  0  0  0  0  0  0
   -6.9321   -0.3435   -1.7199 H   0  0  0  0  0  0  0  0  0  0  0  0
   -6.0342   -0.5279   -3.2012 H   0  0  0  0  0  0  0  0  0  0  0  0
   -4.5106    1.2377   -2.7956 H   0  0  0  0  0  0  0  0  0  0  0  0
   -5.2848    1.6416   -1.1472 H   0  0  0  0  0  0  0  0  0  0  0  0
   -6.6616    1.5268   -3.8164 H   0  0  0  0  0  0  0  0  0  0  0  0
   -6.1550    2.9965   -2.9804 H   0  0  0  0  0  0  0  0  0  0  0  0
   -8.8433    2.7738   -3.6594 H   0  0  0  0  0  0  0  0  0  0  0  0
   -9.8741    0.2858    0.2825 H   0  0  0  0  0  0  0  0  0  0  0  0
   -9.7643    1.8686    1.0423 H   0  0  0  0  0  0  0  0  0  0  0  0
  -12.2489    0.2245    0.4862 H   0  0  0  0  0  0  0  0  0  0  0  0
  -11.3752    0.6177    1.9873 H   0  0  0  0  0  0  0  0  0  0  0  0
  -11.8244    2.9170    1.9211 H   0  0  0  0  0  0  0  0  0  0  0  0
  -12.6318    2.8271    0.2561 H   0  0  0  0  0  0  0  0  0  0  0  0
  -13.2250    2.0360    3.9633 H   0  0  0  0  0  0  0  0  0  0  0  0
  -15.7026    1.3186    4.3476 H   0  0  0  0  0  0  0  0  0  0  0  0
  -15.0284    1.5724    0.1697 H   0  0  0  0  0  0  0  0  0  0  0  0
  -11.9211    3.6263   -2.4144 H   0  0  0  0  0  0  0  0  0  0  0  0
  -11.3431    2.5878   -3.8243 H   0  0  0  0  0  0  0  0  0  0  0  0
  1  2  2  0
  2  3  1  0
  3  4  1  0
  4  5  2  3
  5  6  1  0
  6  7  1  0
  7  8  1  0
  8  9  1  0
  9 10  1  0
 10 11  1  0
 11 12  2  0
 12 13  1  0
  4 14  1  0
  2 15  1  0
 15 16  1  0
 16 17  1  0
 17 18  1  0
 18 19  1  0
 19 20  1  0
 20 21  1  0
 21 22  1  0
 22 23  1  0
 23 24  1  0
 24 25  1  0
 25 26  1  0
 26 27  1  0
 27 28  1  0
 28 29  1  0
 29 30  1  0
 30 31  1  0
 31 32  1  0
 32 33  1  0
 33 34  1  0
 34 35  1  0
 35 36  2  0
 35 37  1  0
 37 38  1  0
 38 39  2  3
 39 40  1  0
 40 41  1  0
 41 42  1  0
 42 43  1  0
 43 44  1  0
 44 45  1  0
 45 46  2  0
 46 47  1  0
 38 48  1  0
 13  9  2  0
 47 43  2  0
  3 49  1  0
  6 50  1  0
  6 51  1  0
  7 52  1  0
  7 53  1  0
  8 54  1  0
  8 55  1  0
 10 56  1  0
 11 57  1  0
 13 58  1  0
 14 59  1  0
 14 60  1  0
 15 61  1  0
 15 62  1  0
 16 63  1  0
 16 64  1  0
 17 65  1  0
 17 66  1  0
 18 67  1  0
 18 68  1  0
 19 69  1  0
 19 70  1  0
 20 71  1  0
 20 72  1  0
 21 73  1  0
 21 74  1  0
 22 75  1  0
 22 76  1  0
 23 77  1  0
 23 78  1  0
 24 79  1  0
 24 80  1  0
 25 81  1  0
 25 82  1  0
 26 83  1  0
 26 84  1  0
 27 85  1  0
 27 86  1  0
 28 87  1  0
 28 88  1  0
 29 89  1  0
 29 90  1  0
 30 91  1  0
 30 92  1  0
 31 93  1  0
 31 94  1  0
 32 95  1  0
 32 96  1  0
 33 97  1  0
 33 98  1  0
 34 99  1  0
 34100  1  0
 37101  1  0
 40102  1  0
 40103  1  0
 41104  1  0
 41105  1  0
 42106  1  0
 42107  1  0
 44108  1  0
 45109  1  0
 47110  1  0
 48111  1  0
 48112  1  0
M  END
>  <Ligand ID>  (1) 
LIG0002461

>  <Ligand>  (1) 
CHEMBL2165644

>  <SMILES>  (1) 
O=C(NC(=NCCCc1[nH]cnc1)N)CCCCCCCCCCCCCCCCCCCCC(=O)NC(=NCCCc1[nH]cnc1)N

>  <CID>  (1) 
56954427.0

>  <ChEMBL ID>  (1) 
nan

>  <InChiKey>  (1) 
DRBIFKPSERWRDO-UHFFFAOYSA-N

>  <InChi>  (1) 
InChI=1S/C36H64N10O2/c37-35(41-25-19-21-31-27-39-29-43-31)45-33(47)23-17-15-13-11-9-7-5-3-1-2-4-6-8-10-12-14-16-18-24-34(48)46-36(38)42-26-20-22-32-28-40-30-44-32/h27-30H,1-26H2,(H,39,43)(H,40,44)(H3,37,41,45,47)(H3,38,42,46,48)

>  <IUPAC Name>  (1) 
N,N'-bis[N'-[3-(1H-imidazol-5-yl)propyl]carbamimidoyl]docosanediamide

$$$$
