
     RDKit          3D

 55 58  0  0  0  0  0  0  0  0999 V2000
    6.9134   -1.8981   -2.2288 N   0  0  0  0  0  0  0  0  0  0  0  0
    7.3716   -1.0536   -1.5723 C   0  0  0  0  0  0  0  0  0  0  0  0
    7.9300   -0.0328   -0.7616 C   0  0  0  0  0  0  0  0  0  0  0  0
    9.2876   -0.0455   -0.5198 C   0  0  0  0  0  0  0  0  0  0  0  0
    9.8935    0.8991    0.2464 N   0  0  0  0  0  0  0  0  0  0  0  0
    9.1220    1.8836    0.7861 C   0  0  0  0  0  0  0  0  0  0  0  0
    7.7615    1.9485    0.5802 C   0  0  0  0  0  0  0  0  0  0  0  0
    7.1721    0.9767   -0.2018 C   0  0  0  0  0  0  0  0  0  0  0  0
    5.7122    0.9780   -0.4685 C   0  0  0  0  0  0  0  0  0  0  0  0
    5.0378   -0.0002    0.3007 O   0  0  0  0  0  0  0  0  0  0  0  0
    3.6728   -0.1731    0.2083 C   0  0  0  0  0  0  0  0  0  0  0  0
    3.1023   -1.1624    1.0074 C   0  0  0  0  0  0  0  0  0  0  0  0
    1.7736   -1.3609    0.9448 N   0  0  0  0  0  0  0  0  0  0  0  0
    0.9931   -0.6244    0.1289 C   0  0  0  0  0  0  0  0  0  0  0  0
    1.5265    0.3305   -0.6454 N   0  0  0  0  0  0  0  0  0  0  0  0
    2.8692    0.5788   -0.6259 C   0  0  0  0  0  0  0  0  0  0  0  0
   -0.4050   -0.8738    0.1008 N   0  0  0  0  0  0  0  0  0  0  0  0
   -1.3330   -0.1554   -0.7480 C   0  0  0  0  0  0  0  0  0  0  0  0
   -2.2646    0.6134    0.1645 C   0  0  0  0  0  0  0  0  0  0  0  0
   -2.8836   -0.3541    1.0527 N   0  0  0  0  0  0  0  0  0  0  0  0
   -2.1161   -1.3242    1.7947 C   0  0  0  0  0  0  0  0  0  0  0  0
   -0.9903   -1.9088    0.9636 C   0  0  1  0  0  0  0  0  0  0  0  0
   -1.6291   -2.8941    0.0033 C   0  0  0  0  0  0  0  0  0  0  0  0
   -4.3197   -0.3409    1.1947 C   0  0  0  0  0  0  0  0  0  0  0  0
   -5.0274   -1.1416    1.9611 O   0  0  0  0  0  0  0  0  0  0  0  0
   -6.2729   -0.8502    1.8430 N   0  0  0  0  0  0  0  0  0  0  0  0
   -6.4264    0.1676    0.9812 C   0  0  0  0  0  0  0  0  0  0  0  0
   -5.1751    0.4868    0.5719 N   0  0  0  0  0  0  0  0  0  0  0  0
   -7.6764    0.8251    0.5490 C   0  0  0  0  0  0  0  0  0  0  0  0
   -7.6693    2.3123    0.6935 C   0  0  0  0  0  0  0  0  0  0  0  0
   -7.8353    0.4754   -0.9371 C   0  0  0  0  0  0  0  0  0  0  0  0
    9.9513   -0.8066   -0.9247 H   0  0  0  0  0  0  0  0  0  0  0  0
    9.6106    2.6380    1.3993 H   0  0  0  0  0  0  0  0  0  0  0  0
    7.1341    2.7297    1.0055 H   0  0  0  0  0  0  0  0  0  0  0  0
    5.2715    1.9903   -0.3252 H   0  0  0  0  0  0  0  0  0  0  0  0
    5.5705    0.7141   -1.5344 H   0  0  0  0  0  0  0  0  0  0  0  0
    3.7154   -1.7616    1.6673 H   0  0  0  0  0  0  0  0  0  0  0  0
    3.3038    1.3485   -1.2492 H   0  0  0  0  0  0  0  0  0  0  0  0
   -0.7498    0.5799   -1.3609 H   0  0  0  0  0  0  0  0  0  0  0  0
   -1.8845   -0.8740   -1.3963 H   0  0  0  0  0  0  0  0  0  0  0  0
   -3.0362    1.1045   -0.4769 H   0  0  0  0  0  0  0  0  0  0  0  0
   -1.6518    1.3608    0.7047 H   0  0  0  0  0  0  0  0  0  0  0  0
   -1.7113   -0.9227    2.7341 H   0  0  0  0  0  0  0  0  0  0  0  0
   -2.7817   -2.1684    2.0696 H   0  0  0  0  0  0  0  0  0  0  0  0
   -0.2541   -2.3934    1.6102 H   0  0  0  0  0  0  0  0  0  0  0  0
   -1.4555   -3.9464    0.3120 H   0  0  0  0  0  0  0  0  0  0  0  0
   -1.2362   -2.8065   -1.0278 H   0  0  0  0  0  0  0  0  0  0  0  0
   -2.7362   -2.7433   -0.0598 H   0  0  0  0  0  0  0  0  0  0  0  0
   -8.5044    0.3326    1.1128 H   0  0  0  0  0  0  0  0  0  0  0  0
   -8.6698    2.6759    1.0030 H   0  0  0  0  0  0  0  0  0  0  0  0
   -6.9194    2.6637    1.4448 H   0  0  0  0  0  0  0  0  0  0  0  0
   -7.3772    2.7718   -0.2923 H   0  0  0  0  0  0  0  0  0  0  0  0
   -8.7109    1.0967   -1.2656 H   0  0  0  0  0  0  0  0  0  0  0  0
   -8.0983   -0.5946   -0.9825 H   0  0  0  0  0  0  0  0  0  0  0  0
   -6.8951    0.7290   -1.4382 H   0  0  0  0  0  0  0  0  0  0  0  0
  1  2  3  0
  2  3  1  0
  3  4  2  0
  4  5  1  0
  5  6  2  0
  6  7  1  0
  7  8  2  0
  8  9  1  0
  9 10  1  0
 10 11  1  0
 11 12  2  0
 12 13  1  0
 13 14  2  0
 14 15  1  0
 15 16  2  0
 14 17  1  0
 17 18  1  0
 18 19  1  0
 19 20  1  0
 20 21  1  0
 21 22  1  0
 22 23  1  0
 20 24  1  0
 24 25  1  0
 25 26  1  0
 26 27  2  0
 27 28  1  0
 27 29  1  0
 29 30  1  0
 29 31  1  0
  8  3  1  0
 16 11  1  0
 22 17  1  0
 28 24  2  0
  4 32  1  0
  6 33  1  0
  7 34  1  0
  9 35  1  0
  9 36  1  0
 12 37  1  0
 16 38  1  0
 18 39  1  0
 18 40  1  0
 19 41  1  0
 19 42  1  0
 21 43  1  0
 21 44  1  0
 22 45  1  1
 23 46  1  0
 23 47  1  0
 23 48  1  0
 29 49  1  0
 30 50  1  0
 30 51  1  0
 30 52  1  0
 31 53  1  0
 31 54  1  0
 31 55  1  0
M  END
>  <Ligand ID>  (1) 
LIG0005303

>  <Ligand>  (1) 
CHEMBL2087084

>  <SMILES>  (1) 
N#Cc1cnccc1COc1cnc(nc1)N1CCN(C[C@H]1C)c1onc(n1)C(C)C

>  <CID>  (1) 
51030898.0

>  <ChEMBL ID>  (1) 
nan

>  <InChiKey>  (1) 
FZVZKIUKIXHKNV-OAHLLOKOSA-N

>  <InChi>  (1) 
InChI=1S/C21H24N8O2/c1-14(2)19-26-21(31-27-19)28-6-7-29(15(3)12-28)20-24-10-18(11-25-20)30-13-16-4-5-23-9-17(16)8-22/h4-5,9-11,14-15H,6-7,12-13H2,1-3H3/t15-/m1/s1

>  <IUPAC Name>  (1) 
4-[[2-[(2R)-2-methyl-4-(3-propan-2-yl-1,2,4-oxadiazol-5-yl)piperazin-1-yl]pyrimidin-5-yl]oxymethyl]pyridine-3-carbonitrile

$$$$
