
     RDKit          3D

 57 61  0  0  0  0  0  0  0  0999 V2000
   -6.0034   -1.4398   -0.6443 C   0  0  0  0  0  0  0  0  0  0  0  0
   -5.5997   -0.7214    0.6218 C   0  0  0  0  0  0  0  0  0  0  0  0
   -4.3360   -0.0165    0.4705 N   0  0  0  0  0  0  0  0  0  0  0  0
   -4.1230    1.2556    0.0589 C   0  0  0  0  0  0  0  0  0  0  0  0
   -5.0514    2.2033   -0.3206 C   0  0  0  0  0  0  0  0  0  0  0  0
   -4.5828    3.4498   -0.7065 C   0  0  0  0  0  0  0  0  0  0  0  0
   -3.2205    3.7387   -0.7119 C   0  0  0  0  0  0  0  0  0  0  0  0
   -2.3237    2.7591   -0.3239 C   0  0  0  0  0  0  0  0  0  0  0  0
   -2.7600    1.4996    0.0686 C   0  0  0  0  0  0  0  0  0  0  0  0
   -2.1596    0.3696    0.4871 N   0  0  0  0  0  0  0  0  0  0  0  0
   -3.1227   -0.5410    0.7274 C   0  0  0  0  0  0  0  0  0  0  0  0
   -2.9350   -1.7198    1.1347 O   0  0  0  0  0  0  0  0  0  0  0  0
   -0.7253    0.2442    0.6253 C   0  0  2  0  0  0  0  0  0  0  0  0
   -0.0319    0.1973   -0.7369 C   0  0  0  0  0  0  0  0  0  0  0  0
    1.3326   -0.4289   -0.5357 C   0  0  0  0  0  0  0  0  0  0  0  0
    1.8688   -0.1691    0.7903 N   0  0  0  0  0  0  0  0  0  0  0  0
    1.1132   -0.7909    1.8314 C   0  0  1  0  0  0  0  0  0  0  0  0
   -0.3019   -0.9964    1.3318 C   0  0  0  0  0  0  0  0  0  0  0  0
    1.7224   -2.0444    2.3724 C   0  0  0  0  0  0  0  0  0  0  0  0
    2.3193   -2.9487    1.3292 C   0  0  0  0  0  0  0  0  0  0  0  0
    3.3227   -2.1460    0.5333 C   0  0  0  0  0  0  0  0  0  0  0  0
    3.2195   -0.6791    0.8221 C   0  0  1  0  0  0  0  0  0  0  0  0
    4.1750    0.0684    0.0018 C   0  0  0  0  0  0  0  0  0  0  0  0
    4.1277    1.4646    0.0842 C   0  0  0  0  0  0  0  0  0  0  0  0
    4.9885    2.2576   -0.6513 C   0  0  0  0  0  0  0  0  0  0  0  0
    5.9264    1.6897   -1.4945 C   0  0  0  0  0  0  0  0  0  0  0  0
    5.9590    0.3056   -1.5635 C   0  0  0  0  0  0  0  0  0  0  0  0
    5.1093   -0.5014   -0.8382 C   0  0  0  0  0  0  0  0  0  0  0  0
   -7.0105   -1.0631   -0.9193 H   0  0  0  0  0  0  0  0  0  0  0  0
   -5.2541   -1.3687   -1.4360 H   0  0  0  0  0  0  0  0  0  0  0  0
   -6.1343   -2.5368   -0.4476 H   0  0  0  0  0  0  0  0  0  0  0  0
   -5.4765   -1.4773    1.4308 H   0  0  0  0  0  0  0  0  0  0  0  0
   -6.3895   -0.0095    0.9752 H   0  0  0  0  0  0  0  0  0  0  0  0
   -6.1300    1.9800   -0.3182 H   0  0  0  0  0  0  0  0  0  0  0  0
   -5.2889    4.2190   -1.0114 H   0  0  0  0  0  0  0  0  0  0  0  0
   -2.8933    4.7374   -1.0243 H   0  0  0  0  0  0  0  0  0  0  0  0
   -1.2523    2.9797   -0.3259 H   0  0  0  0  0  0  0  0  0  0  0  0
   -0.3412    1.1508    1.1261 H   0  0  0  0  0  0  0  0  0  0  0  0
    0.1185    1.1768   -1.1889 H   0  0  0  0  0  0  0  0  0  0  0  0
   -0.5883   -0.4600   -1.4380 H   0  0  0  0  0  0  0  0  0  0  0  0
    2.0684    0.0128   -1.2436 H   0  0  0  0  0  0  0  0  0  0  0  0
    1.3286   -1.5186   -0.7859 H   0  0  0  0  0  0  0  0  0  0  0  0
    1.0292   -0.0821    2.6922 H   0  0  0  0  0  0  0  0  0  0  0  0
   -0.9031   -1.2565    2.2173 H   0  0  0  0  0  0  0  0  0  0  0  0
   -0.3650   -1.8601    0.6224 H   0  0  0  0  0  0  0  0  0  0  0  0
    2.4584   -1.7769    3.1579 H   0  0  0  0  0  0  0  0  0  0  0  0
    0.9098   -2.6293    2.8844 H   0  0  0  0  0  0  0  0  0  0  0  0
    1.5305   -3.3820    0.7130 H   0  0  0  0  0  0  0  0  0  0  0  0
    2.7953   -3.7887    1.8888 H   0  0  0  0  0  0  0  0  0  0  0  0
    4.3388   -2.4648    0.9020 H   0  0  0  0  0  0  0  0  0  0  0  0
    3.1918   -2.3215   -0.5336 H   0  0  0  0  0  0  0  0  0  0  0  0
    3.5559   -0.5507    1.8922 H   0  0  0  0  0  0  0  0  0  0  0  0
    3.4187    1.9730    0.7239 H   0  0  0  0  0  0  0  0  0  0  0  0
    4.9410    3.3527   -0.5775 H   0  0  0  0  0  0  0  0  0  0  0  0
    6.5885    2.3240   -2.0595 H   0  0  0  0  0  0  0  0  0  0  0  0
    6.7004   -0.1237   -2.2295 H   0  0  0  0  0  0  0  0  0  0  0  0
    5.1459   -1.5958   -0.9024 H   0  0  0  0  0  0  0  0  0  0  0  0
  1  2  1  0
  2  3  1  0
  3  4  1  0
  4  5  2  0
  5  6  1  0
  6  7  2  0
  7  8  1  0
  8  9  2  0
  9 10  1  0
 10 11  1  0
 11 12  2  0
 10 13  1  0
 13 14  1  0
 14 15  1  0
 15 16  1  0
 16 17  1  0
 17 18  1  0
 17 19  1  0
 19 20  1  0
 20 21  1  0
 21 22  1  0
 22 23  1  0
 23 24  2  0
 24 25  1  0
 25 26  2  0
 26 27  1  0
 27 28  2  0
 11  3  1  0
 18 13  1  0
 28 23  1  0
  9  4  1  0
 22 16  1  0
  1 29  1  0
  1 30  1  0
  1 31  1  0
  2 32  1  0
  2 33  1  0
  5 34  1  0
  6 35  1  0
  7 36  1  0
  8 37  1  0
 13 38  1  1
 14 39  1  0
 14 40  1  0
 15 41  1  0
 15 42  1  0
 17 43  1  1
 18 44  1  0
 18 45  1  0
 19 46  1  0
 19 47  1  0
 20 48  1  0
 20 49  1  0
 21 50  1  0
 21 51  1  0
 22 52  1  1
 24 53  1  0
 25 54  1  0
 26 55  1  0
 27 56  1  0
 28 57  1  0
M  END
>  <Ligand ID>  (1) 
LIG0004401

>  <Ligand>  (1) 
SR-14138

>  <SMILES>  (1) 
CCn1c2ccccc2n(c1=O)[C@@H]1CCN2[C@@H](C1)CCC[C@H]2c1ccccc1

>  <CID>  (1) 
10407144.0

>  <ChEMBL ID>  (1) 
nan

>  <InChiKey>  (1) 
RTCXPSZQJKHURF-NJYVYQBISA-N

>  <InChi>  (1) 
InChI=1S/C24H29N3O/c1-2-25-22-12-6-7-13-23(22)27(24(25)28)20-15-16-26-19(17-20)11-8-14-21(26)18-9-4-3-5-10-18/h3-7,9-10,12-13,19-21H,2,8,11,14-17H2,1H3/t19-,20-,21+/m1/s1

>  <IUPAC Name>  (1) 
1-[(2R,6S,9aR)-6-phenyl-2,3,4,6,7,8,9,9a-octahydro-1H-quinolizin-2-yl]-3-ethylbenzimidazol-2-one

$$$$
