
     RDKit          3D

 34 35  0  0  0  0  0  0  0  0999 V2000
   -1.2186    2.8799    0.0803 C   0  0  0  0  0  0  0  0  0  0  0  0
   -0.7257    1.5416    0.3705 N   0  0  0  0  0  0  0  0  0  0  0  0
   -1.5737    0.3975    0.5544 C   0  0  1  0  0  0  0  0  0  0  0  0
   -2.9723    0.4928    0.0915 C   0  0  0  0  0  0  0  0  0  0  0  0
   -3.3295   -0.9166   -0.1357 N   0  0  0  0  0  0  0  0  0  0  0  0
   -2.0704   -1.6746   -0.1232 C   0  0  0  0  0  0  0  0  0  0  0  0
   -1.0959   -0.6192   -0.4912 C   0  0  2  0  0  0  0  0  0  0  0  0
    0.3223   -0.9330   -0.3821 C   0  0  0  0  0  0  0  0  0  0  0  0
    1.2166    0.0232    0.0865 C   0  0  0  0  0  0  0  0  0  0  0  0
    0.6898    1.3250    0.4861 C   0  0  0  0  0  0  0  0  0  0  0  0
    1.4271    2.2468    0.9222 O   0  0  0  0  0  0  0  0  0  0  0  0
    2.5665   -0.2103    0.2066 C   0  0  0  0  0  0  0  0  0  0  0  0
    2.9928   -1.4909   -0.1765 C   0  0  0  0  0  0  0  0  0  0  0  0
    2.1120   -2.4426   -0.6408 C   0  0  0  0  0  0  0  0  0  0  0  0
    0.7643   -2.1784   -0.7508 C   0  0  0  0  0  0  0  0  0  0  0  0
    3.5530    0.7766    0.6716 C   0  0  0  0  0  0  0  0  0  0  0  0
    3.6773    1.8996   -0.1034 F   0  0  0  0  0  0  0  0  0  0  0  0
    3.4404    1.0593    2.0227 F   0  0  0  0  0  0  0  0  0  0  0  0
    4.8192    0.2154    0.6024 F   0  0  0  0  0  0  0  0  0  0  0  0
    0.6912    0.0000    0.0000 Cl  0  0  0  0  0  0  0  0  0  0  0  0
   -1.0769    3.0471   -1.0092 H   0  0  0  0  0  0  0  0  0  0  0  0
   -0.6053    3.6447    0.6310 H   0  0  0  0  0  0  0  0  0  0  0  0
   -2.2826    2.9802    0.3117 H   0  0  0  0  0  0  0  0  0  0  0  0
   -1.5113   -0.0870    1.5376 H   0  0  0  0  0  0  0  0  0  0  0  0
   -3.6704    0.9870    0.7697 H   0  0  0  0  0  0  0  0  0  0  0  0
   -2.9840    0.9642   -0.9218 H   0  0  0  0  0  0  0  0  0  0  0  0
   -3.7455   -1.0657   -1.0725 H   0  0  0  0  0  0  0  0  0  0  0  0
   -2.1179   -2.5394   -0.8003 H   0  0  0  0  0  0  0  0  0  0  0  0
   -1.9011   -1.9283    0.9446 H   0  0  0  0  0  0  0  0  0  0  0  0
   -1.3630   -0.2453   -1.5212 H   0  0  0  0  0  0  0  0  0  0  0  0
    4.0503   -1.7561   -0.1103 H   0  0  0  0  0  0  0  0  0  0  0  0
    2.4828   -3.4236   -0.9275 H   0  0  0  0  0  0  0  0  0  0  0  0
    0.1296   -2.9702   -1.1229 H   0  0  0  0  0  0  0  0  0  0  0  0
   -0.6912    0.0000    0.0000 H   0  0  0  0  0  0  0  0  0  0  0  0
  1  2  1  0
  2  3  1  0
  3  4  1  0
  4  5  1  0
  5  6  1  0
  6  7  1  0
  7  8  1  0
  8  9  2  0
  9 10  1  0
 10 11  2  0
  9 12  1  0
 12 13  2  0
 13 14  1  0
 14 15  2  0
 12 16  1  0
 16 17  1  0
 16 18  1  0
 16 19  1  0
 10  2  1  0
  7  3  1  0
 15  8  1  0
  1 21  1  0
  1 22  1  0
  1 23  1  0
  3 24  1  1
  4 25  1  0
  4 26  1  0
  5 27  1  0
  6 28  1  0
  6 29  1  0
  7 30  1  6
 13 31  1  0
 14 32  1  0
 15 33  1  0
 20 34  1  0
M  END
>  <Ligand ID>  (1) 
LIG0004557

>  <Ligand>  (1) 
CHEMBL2337492

>  <SMILES>  (1) 
CN1[C@H]2CNC[C@@H]2c2c(C1=O)c(ccc2)C(F)(F)F.Cl

>  <CID>  (1) 
11652451.0

>  <ChEMBL ID>  (1) 
nan

>  <InChiKey>  (1) 
SGJOLVLEAQVGFB-SCYNACPDSA-N

>  <InChi>  (1) 
InChI=1S/C13H13F3N2O.ClH/c1-18-10-6-17-5-8(10)7-3-2-4-9(13(14,15)16)11(7)12(18)19;/h2-4,8,10,17H,5-6H2,1H3;1H/t8-,10+;/m1./s1

>  <IUPAC Name>  (1) 
(3aR,9bS)-4-methyl-6-(trifluoromethyl)-2,3,3a,9b-tetrahydro-1H-pyrrolo[3,4-c]isoquinolin-5-one;hydrochloride

$$$$
