
     RDKit          3D

 61 64  0  0  0  0  0  0  0  0999 V2000
   -5.0439    2.6834   -2.4858 C   0  0  0  0  0  0  0  0  0  0  0  0
   -4.3884    3.7080   -1.5875 C   0  0  0  0  0  0  0  0  0  0  0  0
   -2.9103    3.4237   -1.4130 C   0  0  0  0  0  0  0  0  0  0  0  0
   -2.6827    2.0885   -0.8052 C   0  0  0  0  0  0  0  0  0  0  0  0
   -3.6724    1.2494   -0.4589 N   0  0  0  0  0  0  0  0  0  0  0  0
   -3.4149    0.0368    0.0942 C   0  0  0  0  0  0  0  0  0  0  0  0
   -4.4486   -0.8098    0.4365 C   0  0  0  0  0  0  0  0  0  0  0  0
   -4.1427   -2.0364    0.9909 C   0  0  0  0  0  0  0  0  0  0  0  0
   -5.1457   -2.9121    1.3474 O   0  0  0  0  0  0  0  0  0  0  0  0
   -6.5070   -2.5693    1.1514 C   0  0  0  0  0  0  0  0  0  0  0  0
   -2.8184   -2.3878    1.1895 C   0  0  0  0  0  0  0  0  0  0  0  0
   -1.7826   -1.5453    0.8492 C   0  0  0  0  0  0  0  0  0  0  0  0
   -2.0918   -0.3250    0.2982 C   0  0  0  0  0  0  0  0  0  0  0  0
   -1.0771    0.5285   -0.0530 C   0  0  0  0  0  0  0  0  0  0  0  0
   -1.4031    1.7229   -0.6005 N   0  0  0  0  0  0  0  0  0  0  0  0
    0.3003    0.2683    0.1320 N   0  0  0  0  0  0  0  0  0  0  0  0
    0.9548    0.1736    1.4165 C   0  0  0  0  0  0  0  0  0  0  0  0
    2.1495   -0.7791    1.2231 C   0  0  0  0  0  0  0  0  0  0  0  0
    3.0881   -0.1091    0.2996 N   0  0  0  0  0  0  0  0  0  0  0  0
    2.4832    0.6996   -0.7259 C   0  0  0  0  0  0  0  0  0  0  0  0
    1.1154    0.0771   -1.0473 C   0  0  0  0  0  0  0  0  0  0  0  0
    4.4893   -0.2948    0.4523 C   0  0  0  0  0  0  0  0  0  0  0  0
    4.9804   -1.2635    1.3032 C   0  0  0  0  0  0  0  0  0  0  0  0
    6.3557   -1.4796    1.4623 C   0  0  0  0  0  0  0  0  0  0  0  0
    7.2801   -0.7325    0.7739 C   0  0  0  0  0  0  0  0  0  0  0  0
    6.7996    0.2368   -0.0780 C   0  0  0  0  0  0  0  0  0  0  0  0
    5.4314    0.4517   -0.2358 C   0  0  0  0  0  0  0  0  0  0  0  0
    5.0543    1.4362   -1.1016 O   0  0  0  0  0  0  0  0  0  0  0  0
    5.8760    2.2642   -1.8593 C   0  0  0  0  0  0  0  0  0  0  0  0
   -2.5618   -3.6184    1.7434 O   0  0  0  0  0  0  0  0  0  0  0  0
   -1.3012   -4.1496    2.0195 C   0  0  0  0  0  0  0  0  0  0  0  0
   -5.5948    1.9058   -1.8926 H   0  0  0  0  0  0  0  0  0  0  0  0
   -4.2024    2.1849   -3.0447 H   0  0  0  0  0  0  0  0  0  0  0  0
   -5.7774    3.1204   -3.1853 H   0  0  0  0  0  0  0  0  0  0  0  0
   -4.8771    3.7866   -0.5974 H   0  0  0  0  0  0  0  0  0  0  0  0
   -4.5190    4.6881   -2.0888 H   0  0  0  0  0  0  0  0  0  0  0  0
   -2.5102    4.2018   -0.7272 H   0  0  0  0  0  0  0  0  0  0  0  0
   -2.3933    3.4283   -2.3933 H   0  0  0  0  0  0  0  0  0  0  0  0
   -5.4735   -0.5015    0.2663 H   0  0  0  0  0  0  0  0  0  0  0  0
   -6.7318   -1.6823    1.8082 H   0  0  0  0  0  0  0  0  0  0  0  0
   -7.1567   -3.4320    1.4218 H   0  0  0  0  0  0  0  0  0  0  0  0
   -6.7437   -2.2922    0.1195 H   0  0  0  0  0  0  0  0  0  0  0  0
   -0.7580   -1.8460    1.0076 H   0  0  0  0  0  0  0  0  0  0  0  0
    0.3398   -0.1699    2.2376 H   0  0  0  0  0  0  0  0  0  0  0  0
    1.3965    1.1919    1.5970 H   0  0  0  0  0  0  0  0  0  0  0  0
    1.8190   -1.7025    0.7123 H   0  0  0  0  0  0  0  0  0  0  0  0
    2.5943   -1.0451    2.1765 H   0  0  0  0  0  0  0  0  0  0  0  0
    3.0064    0.6901   -1.7017 H   0  0  0  0  0  0  0  0  0  0  0  0
    2.3090    1.7422   -0.4390 H   0  0  0  0  0  0  0  0  0  0  0  0
    0.6794    0.5345   -1.9516 H   0  0  0  0  0  0  0  0  0  0  0  0
    1.2882   -1.0105   -1.1489 H   0  0  0  0  0  0  0  0  0  0  0  0
    4.3567   -1.9185    1.8969 H   0  0  0  0  0  0  0  0  0  0  0  0
    6.7309   -2.2436    2.1339 H   0  0  0  0  0  0  0  0  0  0  0  0
    8.3314   -0.9266    0.9217 H   0  0  0  0  0  0  0  0  0  0  0  0
    7.5375    0.8239   -0.6196 H   0  0  0  0  0  0  0  0  0  0  0  0
    6.2414    3.1623   -1.3222 H   0  0  0  0  0  0  0  0  0  0  0  0
    5.2606    2.6514   -2.7239 H   0  0  0  0  0  0  0  0  0  0  0  0
    6.6902    1.6418   -2.2948 H   0  0  0  0  0  0  0  0  0  0  0  0
   -1.3738   -5.2646    2.0564 H   0  0  0  0  0  0  0  0  0  0  0  0
   -0.8737   -3.8266    2.9774 H   0  0  0  0  0  0  0  0  0  0  0  0
   -0.5618   -3.9288    1.2048 H   0  0  0  0  0  0  0  0  0  0  0  0
  1  2  1  0
  2  3  1  0
  3  4  1  0
  4  5  2  0
  5  6  1  0
  6  7  2  0
  7  8  1  0
  8  9  1  0
  9 10  1  0
  8 11  2  0
 11 12  1  0
 12 13  2  0
 13 14  1  0
 14 15  2  0
 14 16  1  0
 16 17  1  0
 17 18  1  0
 18 19  1  0
 19 20  1  0
 20 21  1  0
 19 22  1  0
 22 23  2  0
 23 24  1  0
 24 25  2  0
 25 26  1  0
 26 27  2  0
 27 28  1  0
 28 29  1  0
 11 30  1  0
 30 31  1  0
 15  4  1  0
 21 16  1  0
 27 22  1  0
 13  6  1  0
  1 32  1  0
  1 33  1  0
  1 34  1  0
  2 35  1  0
  2 36  1  0
  3 37  1  0
  3 38  1  0
  7 39  1  0
 10 40  1  0
 10 41  1  0
 10 42  1  0
 12 43  1  0
 17 44  1  0
 17 45  1  0
 18 46  1  0
 18 47  1  0
 20 48  1  0
 20 49  1  0
 21 50  1  0
 21 51  1  0
 23 52  1  0
 24 53  1  0
 25 54  1  0
 26 55  1  0
 29 56  1  0
 29 57  1  0
 29 58  1  0
 31 59  1  0
 31 60  1  0
 31 61  1  0
M  END
>  <Ligand ID>  (1) 
LIG0004183

>  <Ligand>  (1) 
CHEMBL2431116

>  <SMILES>  (1) 
CCCc1nc2cc(OC)c(cc2c(n1)N1CCN(CC1)c1ccccc1OC)OC

>  <CID>  (1) 
54758538.0

>  <ChEMBL ID>  (1) 
nan

>  <InChiKey>  (1) 
SSCLJYKQUUTJQX-UHFFFAOYSA-N

>  <InChi>  (1) 
InChI=1S/C24H30N4O3/c1-5-8-23-25-18-16-22(31-4)21(30-3)15-17(18)24(26-23)28-13-11-27(12-14-28)19-9-6-7-10-20(19)29-2/h6-7,9-10,15-16H,5,8,11-14H2,1-4H3

>  <IUPAC Name>  (1) 
6,7-dimethoxy-4-[4-(2-methoxyphenyl)piperazin-1-yl]-2-propylquinazoline

$$$$
