
     RDKit          3D

 25 24  0  0  0  0  0  0  0  0999 V2000
    3.5990    0.3046    0.3581 C   0  0  0  0  0  0  0  0  0  0  0  0
    2.6461   -0.8487    0.4818 C   0  0  0  0  0  0  0  0  0  0  0  0
    1.1974   -0.4105    0.4942 C   0  0  0  0  0  0  0  0  0  0  0  0
    0.8123    0.3225   -0.7605 C   0  0  0  0  0  0  0  0  0  0  0  0
   -0.6278    0.7723   -0.7659 C   0  0  0  0  0  0  0  0  0  0  0  0
   -1.6053   -0.3179   -0.6683 C   0  0  0  0  0  0  0  0  0  0  0  0
   -1.3436   -1.5043   -0.6052 O   0  0  0  0  0  0  0  0  0  0  0  0
   -3.0556    0.0417   -0.6427 C   0  0  0  0  0  0  0  0  0  0  0  0
   -3.5512    0.0329    0.7779 C   0  0  0  0  0  0  0  0  0  0  0  0
    3.7309    0.6464   -0.6978 H   0  0  0  0  0  0  0  0  0  0  0  0
    3.3582    1.1570    1.0092 H   0  0  0  0  0  0  0  0  0  0  0  0
    4.5919   -0.0670    0.6852 H   0  0  0  0  0  0  0  0  0  0  0  0
    2.8574   -1.5670   -0.3307 H   0  0  0  0  0  0  0  0  0  0  0  0
    2.8380   -1.3956    1.4225 H   0  0  0  0  0  0  0  0  0  0  0  0
    0.6137   -1.3457    0.6028 H   0  0  0  0  0  0  0  0  0  0  0  0
    0.9710    0.1816    1.4039 H   0  0  0  0  0  0  0  0  0  0  0  0
    1.5053    1.1507   -0.9978 H   0  0  0  0  0  0  0  0  0  0  0  0
    0.8934   -0.3967   -1.6307 H   0  0  0  0  0  0  0  0  0  0  0  0
   -0.8311    1.3398   -1.7002 H   0  0  0  0  0  0  0  0  0  0  0  0
   -0.8218    1.5033    0.0742 H   0  0  0  0  0  0  0  0  0  0  0  0
   -3.1828    0.9794   -1.1808 H   0  0  0  0  0  0  0  0  0  0  0  0
   -3.6328   -0.7352   -1.1888 H   0  0  0  0  0  0  0  0  0  0  0  0
   -4.6214   -0.2246    0.8239 H   0  0  0  0  0  0  0  0  0  0  0  0
   -2.9154   -0.6592    1.3761 H   0  0  0  0  0  0  0  0  0  0  0  0
   -3.4259    1.0403    1.2288 H   0  0  0  0  0  0  0  0  0  0  0  0
  1  2  1  0
  2  3  1  0
  3  4  1  0
  4  5  1  0
  5  6  1  0
  6  7  2  0
  6  8  1  0
  8  9  1  0
  1 10  1  0
  1 11  1  0
  1 12  1  0
  2 13  1  0
  2 14  1  0
  3 15  1  0
  3 16  1  0
  4 17  1  0
  4 18  1  0
  5 19  1  0
  5 20  1  0
  8 21  1  0
  8 22  1  0
  9 23  1  0
  9 24  1  0
  9 25  1  0
M  END
>  <Ligand ID>  (1) 
LIG0000096

>  <Ligand>  (1) 
3-Octanone

>  <SMILES>  (1) 
CCCCCC(=O)CC

>  <CID>  (1) 
246728.0

>  <ChEMBL ID>  (1) 
nan

>  <InChiKey>  (1) 
RHLVCLIPMVJYKS-UHFFFAOYSA-N

>  <InChi>  (1) 
InChI=1S/C8H16O/c1-3-5-6-7-8(9)4-2/h3-7H2,1-2H3

>  <IUPAC Name>  (1) 
octan-3-one

$$$$
