
     RDKit          3D

 60 64  0  0  0  0  0  0  0  0999 V2000
   -5.7853   -2.7259   -1.9057 N   0  0  0  0  0  0  0  0  0  0  0  0
   -5.9402   -1.7547   -1.2880 C   0  0  0  0  0  0  0  0  0  0  0  0
   -6.1549   -0.5496   -0.5051 C   0  0  0  0  0  0  0  0  0  0  0  0
   -7.1745    0.2790   -0.8733 C   0  0  0  0  0  0  0  0  0  0  0  0
   -7.3971    1.4197   -0.1525 C   0  0  0  0  0  0  0  0  0  0  0  0
   -6.5835    1.7159    0.9401 C   0  0  0  0  0  0  0  0  0  0  0  0
   -5.5473    0.8684    1.3099 C   0  0  0  0  0  0  0  0  0  0  0  0
   -5.3210   -0.2806    0.5863 C   0  0  0  0  0  0  0  0  0  0  0  0
   -4.2670   -1.2621    0.8704 C   0  0  0  0  0  0  0  0  0  0  0  0
   -3.1971   -1.1310   -0.0712 N   0  0  0  0  0  0  0  0  0  0  0  0
   -2.1426   -2.1044    0.1573 C   0  0  0  0  0  0  0  0  0  0  0  0
   -0.8241   -1.5646   -0.4101 C   0  0  0  0  0  0  0  0  0  0  0  0
   -0.3024   -0.4324    0.4544 C   0  0  0  0  0  0  0  0  0  0  0  0
   -1.4974    0.4487    0.7790 C   0  0  0  0  0  0  0  0  0  0  0  0
   -2.6527    0.2092   -0.1747 C   0  0  0  0  0  0  0  0  0  0  0  0
    0.6150    0.3231   -0.3576 N   0  0  0  0  0  0  0  0  0  0  0  0
    1.6998   -0.5316   -0.8661 C   0  0  0  0  0  0  0  0  0  0  0  0
    2.4543    0.3205   -1.8879 C   0  0  0  0  0  0  0  0  0  0  0  0
    3.1697    1.4647   -1.2468 C   0  0  0  0  0  0  0  0  0  0  0  0
    1.9987    2.2732   -0.6325 C   0  0  0  0  0  0  0  0  0  0  0  0
    1.3062    1.3830    0.3700 C   0  0  0  0  0  0  0  0  0  0  0  0
    4.1169    1.1744   -0.2186 N   0  0  0  0  0  0  0  0  0  0  0  0
    4.3227    1.8987    0.9131 C   0  0  0  0  0  0  0  0  0  0  0  0
    3.7433    2.9592    1.3008 O   0  0  0  0  0  0  0  0  0  0  0  0
    5.2901    1.3424    1.6623 N   0  0  0  0  0  0  0  0  0  0  0  0
    5.7388    0.2494    1.0446 C   0  0  0  0  0  0  0  0  0  0  0  0
    5.0102    0.1477   -0.1216 C   0  0  0  0  0  0  0  0  0  0  0  0
    5.3229   -0.9268   -0.9294 C   0  0  0  0  0  0  0  0  0  0  0  0
    6.2990   -1.8321   -0.5833 C   0  0  0  0  0  0  0  0  0  0  0  0
    7.0129   -1.7099    0.5876 C   0  0  0  0  0  0  0  0  0  0  0  0
    6.7172   -0.6385    1.4145 C   0  0  0  0  0  0  0  0  0  0  0  0
    8.2550   -2.8828    1.0017 Cl  0  0  0  0  0  0  0  0  0  0  0  0
   -7.8091    0.0311   -1.7386 H   0  0  0  0  0  0  0  0  0  0  0  0
   -8.2139    2.0748   -0.4542 H   0  0  0  0  0  0  0  0  0  0  0  0
   -6.7737    2.6352    1.5101 H   0  0  0  0  0  0  0  0  0  0  0  0
   -4.9064    1.0782    2.1503 H   0  0  0  0  0  0  0  0  0  0  0  0
   -4.7004   -2.2585    0.7608 H   0  0  0  0  0  0  0  0  0  0  0  0
   -3.8839   -1.0649    1.9013 H   0  0  0  0  0  0  0  0  0  0  0  0
   -2.0470   -2.4119    1.2038 H   0  0  0  0  0  0  0  0  0  0  0  0
   -2.3607   -3.0201   -0.4399 H   0  0  0  0  0  0  0  0  0  0  0  0
   -0.1444   -2.4428   -0.4371 H   0  0  0  0  0  0  0  0  0  0  0  0
   -1.0402   -1.2087   -1.4279 H   0  0  0  0  0  0  0  0  0  0  0  0
    0.1401   -0.8853    1.3601 H   0  0  0  0  0  0  0  0  0  0  0  0
   -1.8355    0.2781    1.8246 H   0  0  0  0  0  0  0  0  0  0  0  0
   -1.2550    1.5239    0.6766 H   0  0  0  0  0  0  0  0  0  0  0  0
   -2.3178    0.3649   -1.2096 H   0  0  0  0  0  0  0  0  0  0  0  0
   -3.4298    0.9256    0.0772 H   0  0  0  0  0  0  0  0  0  0  0  0
    1.2217   -1.3343   -1.4687 H   0  0  0  0  0  0  0  0  0  0  0  0
    2.3485   -0.9080   -0.0593 H   0  0  0  0  0  0  0  0  0  0  0  0
    2.9455   -0.2452   -2.6554 H   0  0  0  0  0  0  0  0  0  0  0  0
    1.5836    0.8328   -2.4554 H   0  0  0  0  0  0  0  0  0  0  0  0
    3.5969    2.0739   -2.0721 H   0  0  0  0  0  0  0  0  0  0  0  0
    1.2555    2.3512   -1.4917 H   0  0  0  0  0  0  0  0  0  0  0  0
    2.2601    3.2624   -0.3237 H   0  0  0  0  0  0  0  0  0  0  0  0
    2.1048    0.8515    0.9663 H   0  0  0  0  0  0  0  0  0  0  0  0
    0.6773    1.9647    1.0364 H   0  0  0  0  0  0  0  0  0  0  0  0
    5.6558    1.6944    2.5954 H   0  0  0  0  0  0  0  0  0  0  0  0
    4.8107   -1.0723   -1.8540 H   0  0  0  0  0  0  0  0  0  0  0  0
    6.5467   -2.6878   -1.2278 H   0  0  0  0  0  0  0  0  0  0  0  0
    7.2852   -0.5535    2.3314 H   0  0  0  0  0  0  0  0  0  0  0  0
  1  2  3  0
  2  3  1  0
  3  4  2  0
  4  5  1  0
  5  6  2  0
  6  7  1  0
  7  8  2  0
  8  9  1  0
  9 10  1  0
 10 11  1  0
 11 12  1  0
 12 13  1  0
 13 14  1  0
 14 15  1  0
 13 16  1  0
 16 17  1  0
 17 18  1  0
 18 19  1  0
 19 20  1  0
 20 21  1  0
 19 22  1  0
 22 23  1  0
 23 24  2  0
 23 25  1  0
 25 26  1  0
 26 27  2  0
 27 28  1  0
 28 29  2  0
 29 30  1  0
 30 31  2  0
 30 32  1  0
  8  3  1  0
 15 10  1  0
 21 16  1  0
 27 22  1  0
 31 26  1  0
  4 33  1  0
  5 34  1  0
  6 35  1  0
  7 36  1  0
  9 37  1  0
  9 38  1  0
 11 39  1  0
 11 40  1  0
 12 41  1  0
 12 42  1  0
 13 43  1  0
 14 44  1  0
 14 45  1  0
 15 46  1  0
 15 47  1  0
 17 48  1  0
 17 49  1  0
 18 50  1  0
 18 51  1  0
 19 52  1  0
 20 53  1  0
 20 54  1  0
 21 55  1  0
 21 56  1  0
 25 57  1  0
 28 58  1  0
 29 59  1  0
 31 60  1  0
M  END
>  <Ligand ID>  (1) 
LIG0000867

>  <Ligand>  (1) 
CHEMBL491208

>  <SMILES>  (1) 
N#Cc1ccccc1CN1CCC(CC1)N1CCC(CC1)n1c(=O)[nH]c2c1ccc(c2)Cl

>  <CID>  (1) 
44579416.0

>  <ChEMBL ID>  (1) 
nan

>  <InChiKey>  (1) 
FVBQJCJEQPAJFJ-UHFFFAOYSA-N

>  <InChi>  (1) 
InChI=1S/C25H28ClN5O/c26-20-5-6-24-23(15-20)28-25(32)31(24)22-9-13-30(14-10-22)21-7-11-29(12-8-21)17-19-4-2-1-3-18(19)16-27/h1-6,15,21-22H,7-14,17H2,(H,28,32)

>  <IUPAC Name>  (1) 
2-[[4-[4-(5-chloro-2-oxo-3H-benzimidazol-1-yl)piperidin-1-yl]piperidin-1-yl]methyl]benzonitrile

$$$$
