
     RDKit          3D

 49 52  0  0  0  0  0  0  0  0999 V2000
    5.0971    2.4862    2.0059 N   0  0  0  0  0  0  0  0  0  0  0  0
    5.8148    1.7798    1.4396 C   0  0  0  0  0  0  0  0  0  0  0  0
    6.7243    0.9164    0.7215 C   0  0  0  0  0  0  0  0  0  0  0  0
    8.0408    0.7819    1.1173 C   0  0  0  0  0  0  0  0  0  0  0  0
    8.8605   -0.0278    0.4300 N   0  0  0  0  0  0  0  0  0  0  0  0
    8.4432   -0.7307   -0.6544 C   0  0  0  0  0  0  0  0  0  0  0  0
    7.1359   -0.6281   -1.0874 C   0  0  0  0  0  0  0  0  0  0  0  0
    6.2893    0.2059   -0.3804 C   0  0  0  0  0  0  0  0  0  0  0  0
    4.8508    0.3931   -0.7642 C   0  0  0  0  0  0  0  0  0  0  0  0
    4.1165   -0.3709    0.1852 O   0  0  0  0  0  0  0  0  0  0  0  0
    2.7346   -0.3629    0.0640 C   0  0  0  0  0  0  0  0  0  0  0  0
    2.0168   -1.1137    0.9939 C   0  0  0  0  0  0  0  0  0  0  0  0
    0.6537   -1.1330    0.9126 N   0  0  0  0  0  0  0  0  0  0  0  0
    0.0252   -0.4350   -0.0532 C   0  0  0  0  0  0  0  0  0  0  0  0
    0.7138    0.3022   -0.9677 N   0  0  0  0  0  0  0  0  0  0  0  0
    2.0724    0.3498   -0.9241 C   0  0  0  0  0  0  0  0  0  0  0  0
   -1.3988   -0.5003   -0.0749 N   0  0  0  0  0  0  0  0  0  0  0  0
   -2.0765   -1.3354    0.8783 C   0  0  0  0  0  0  0  0  0  0  0  0
   -3.3401   -1.9491    0.3283 C   0  0  0  0  0  0  0  0  0  0  0  0
   -4.1186   -0.8516   -0.2124 N   0  0  0  0  0  0  0  0  0  0  0  0
   -3.5305   -0.0412   -1.2516 C   0  0  0  0  0  0  0  0  0  0  0  0
   -2.0951    0.2884   -1.0628 C   0  0  1  0  0  0  0  0  0  0  0  0
   -1.9020    1.7845   -0.7726 C   0  0  0  0  0  0  0  0  0  0  0  0
   -5.4259   -0.6273    0.3090 C   0  0  0  0  0  0  0  0  0  0  0  0
   -5.9501   -1.4100    1.2975 N   0  0  0  0  0  0  0  0  0  0  0  0
   -7.1731   -0.9124    1.5279 N   0  0  0  0  0  0  0  0  0  0  0  0
   -7.4035    0.1355    0.7189 C   0  0  0  0  0  0  0  0  0  0  0  0
   -6.3180    0.2677    0.0019 O   0  0  0  0  0  0  0  0  0  0  0  0
   -8.6630    0.9218    0.7115 C   0  0  0  0  0  0  0  0  0  0  0  0
   -8.4998    2.1544    1.2993 F   0  0  0  0  0  0  0  0  0  0  0  0
   -9.0571    1.1610   -0.6118 F   0  0  0  0  0  0  0  0  0  0  0  0
   -9.6923    0.1885    1.2673 F   0  0  0  0  0  0  0  0  0  0  0  0
    8.3388    1.3561    1.9846 H   0  0  0  0  0  0  0  0  0  0  0  0
    9.1628   -1.3777   -1.1759 H   0  0  0  0  0  0  0  0  0  0  0  0
    6.7711   -1.1740   -1.9469 H   0  0  0  0  0  0  0  0  0  0  0  0
    4.6628   -0.0546   -1.7691 H   0  0  0  0  0  0  0  0  0  0  0  0
    4.5412    1.4567   -0.7492 H   0  0  0  0  0  0  0  0  0  0  0  0
    2.5023   -1.6788    1.7748 H   0  0  0  0  0  0  0  0  0  0  0  0
    2.6478    0.9300   -1.6414 H   0  0  0  0  0  0  0  0  0  0  0  0
   -2.3395   -0.7713    1.8013 H   0  0  0  0  0  0  0  0  0  0  0  0
   -1.4144   -2.1782    1.1801 H   0  0  0  0  0  0  0  0  0  0  0  0
   -3.8432   -2.4864    1.1405 H   0  0  0  0  0  0  0  0  0  0  0  0
   -3.0538   -2.6007   -0.5412 H   0  0  0  0  0  0  0  0  0  0  0  0
   -4.1016    0.9069   -1.3325 H   0  0  0  0  0  0  0  0  0  0  0  0
   -3.7128   -0.5869   -2.2136 H   0  0  0  0  0  0  0  0  0  0  0  0
   -1.5794    0.1141   -2.0364 H   0  0  0  0  0  0  0  0  0  0  0  0
   -0.9593    2.1592   -1.2657 H   0  0  0  0  0  0  0  0  0  0  0  0
   -1.8073    1.9653    0.3136 H   0  0  0  0  0  0  0  0  0  0  0  0
   -2.7605    2.3324   -1.1730 H   0  0  0  0  0  0  0  0  0  0  0  0
  1  2  3  0
  2  3  1  0
  3  4  2  0
  4  5  1  0
  5  6  2  0
  6  7  1  0
  7  8  2  0
  8  9  1  0
  9 10  1  0
 10 11  1  0
 11 12  2  0
 12 13  1  0
 13 14  2  0
 14 15  1  0
 15 16  2  0
 14 17  1  0
 17 18  1  0
 18 19  1  0
 19 20  1  0
 20 21  1  0
 21 22  1  0
 22 23  1  0
 20 24  1  0
 24 25  2  0
 25 26  1  0
 26 27  2  0
 27 28  1  0
 27 29  1  0
 29 30  1  0
 29 31  1  0
 29 32  1  0
  8  3  1  0
 16 11  1  0
 22 17  1  0
 28 24  1  0
  4 33  1  0
  6 34  1  0
  7 35  1  0
  9 36  1  0
  9 37  1  0
 12 38  1  0
 16 39  1  0
 18 40  1  0
 18 41  1  0
 19 42  1  0
 19 43  1  0
 21 44  1  0
 21 45  1  0
 22 46  1  6
 23 47  1  0
 23 48  1  0
 23 49  1  0
M  END
>  <Ligand ID>  (1) 
LIG0005308

>  <Ligand>  (1) 
CHEMBL3218816

>  <SMILES>  (1) 
N#Cc1cnccc1COc1cnc(nc1)N1CCN(C[C@H]1C)c1nnc(o1)C(F)(F)F

>  <CID>  (1) 
90665949.0

>  <ChEMBL ID>  (1) 
nan

>  <InChiKey>  (1) 
TYKANWVCVGBBPK-GFCCVEGCSA-N

>  <InChi>  (1) 
InChI=1S/C19H17F3N8O2/c1-12-10-29(18-28-27-16(32-18)19(20,21)22)4-5-30(12)17-25-8-15(9-26-17)31-11-13-2-3-24-7-14(13)6-23/h2-3,7-9,12H,4-5,10-11H2,1H3/t12-/m1/s1

>  <IUPAC Name>  (1) 
4-[[2-[(2R)-2-methyl-4-[5-(trifluoromethyl)-1,3,4-oxadiazol-2-yl]piperazin-1-yl]pyrimidin-5-yl]oxymethyl]pyridine-3-carbonitrile

$$$$
