
     RDKit          3D

 59 61  0  0  0  0  0  0  0  0999 V2000
  -10.9134    2.5316   -0.1610 Cl  0  0  0  0  0  0  0  0  0  0  0  0
  -10.0557    0.9855   -0.2135 C   0  0  0  0  0  0  0  0  0  0  0  0
  -10.5910   -0.0820   -0.8719 C   0  0  0  0  0  0  0  0  0  0  0  0
   -9.8762   -1.2882   -0.8722 C   0  0  0  0  0  0  0  0  0  0  0  0
   -8.6627   -1.3596   -0.2131 C   0  0  0  0  0  0  0  0  0  0  0  0
   -8.1058   -0.2834    0.4578 C   0  0  0  0  0  0  0  0  0  0  0  0
   -8.8462    0.8941    0.4354 C   0  0  0  0  0  0  0  0  0  0  0  0
   -6.8258   -0.4216    1.1854 C   0  0  0  0  0  0  0  0  0  0  0  0
   -5.6927   -0.3456    0.1880 C   0  0  0  0  0  0  0  0  0  0  0  0
   -4.3894   -0.4481    0.7817 N   0  0  0  0  0  0  0  0  0  0  0  0
   -3.3215   -0.7080   -0.1255 C   0  0  0  0  0  0  0  0  0  0  0  0
   -1.9752   -0.7617    0.5493 C   0  0  0  0  0  0  0  0  0  0  0  0
   -0.8485   -1.1370   -0.4061 C   0  0  0  0  0  0  0  0  0  0  0  0
    0.6961   -1.1621    0.5290 S   0  0  0  0  0  0  0  0  0  0  0  0
    1.1898    0.5488    0.9083 C   0  0  0  0  0  0  0  0  0  0  0  0
    1.6596    1.2621   -0.3243 C   0  0  0  0  0  0  0  0  0  0  0  0
    2.7519    0.8067   -1.0308 N   0  0  0  0  0  0  0  0  0  0  0  0
    4.0842    0.8832   -0.7239 C   0  0  0  0  0  0  0  0  0  0  0  0
    4.7574    0.1567    0.3701 C   0  0  1  0  0  0  0  0  0  0  0  0
    6.2225    0.5209    0.2860 C   0  0  0  0  0  0  0  0  0  0  0  0
    6.7026    1.7582    0.6256 C   0  0  0  0  0  0  0  0  0  0  0  0
    8.0538    1.9612    0.4899 C   0  0  0  0  0  0  0  0  0  0  0  0
    8.9370    1.0344    0.0490 C   0  0  0  0  0  0  0  0  0  0  0  0
    8.5177   -0.2607   -0.3176 C   0  0  0  0  0  0  0  0  0  0  0  0
    7.1439   -0.4493   -0.1756 C   0  0  0  0  0  0  0  0  0  0  0  0
    6.8564   -2.1886   -0.6916 S   0  0  0  0  0  0  0  0  0  0  0  0
    8.7036   -2.4506   -1.0491 C   0  0  0  0  0  0  0  0  0  0  0  0
    9.1270   -3.5197   -1.4555 O   0  0  0  0  0  0  0  0  0  0  0  0
    9.2309   -1.2515   -0.7428 N   0  0  0  0  0  0  0  0  0  0  0  0
   10.2801    1.4022   -0.0329 O   0  0  0  0  0  0  0  0  0  0  0  0
    4.3904    0.3997    1.6535 O   0  0  0  0  0  0  0  0  0  0  0  0
  -11.5450    0.0047   -1.3755 H   0  0  0  0  0  0  0  0  0  0  0  0
  -10.2671   -2.1693   -1.3877 H   0  0  0  0  0  0  0  0  0  0  0  0
   -8.1543   -2.3249   -0.2507 H   0  0  0  0  0  0  0  0  0  0  0  0
   -8.4538    1.7470    0.9443 H   0  0  0  0  0  0  0  0  0  0  0  0
   -6.7795    0.3585    1.9492 H   0  0  0  0  0  0  0  0  0  0  0  0
   -6.8507   -1.4106    1.7042 H   0  0  0  0  0  0  0  0  0  0  0  0
   -5.8157   -1.0879   -0.6076 H   0  0  0  0  0  0  0  0  0  0  0  0
   -5.7669    0.6799   -0.2668 H   0  0  0  0  0  0  0  0  0  0  0  0
   -4.3341   -0.8536    1.7121 H   0  0  0  0  0  0  0  0  0  0  0  0
   -3.3499    0.0283   -0.9493 H   0  0  0  0  0  0  0  0  0  0  0  0
   -3.5497   -1.7180   -0.5872 H   0  0  0  0  0  0  0  0  0  0  0  0
   -1.9755   -1.4861    1.3749 H   0  0  0  0  0  0  0  0  0  0  0  0
   -1.8161    0.2390    1.0027 H   0  0  0  0  0  0  0  0  0  0  0  0
   -1.0079   -2.1399   -0.8201 H   0  0  0  0  0  0  0  0  0  0  0  0
   -0.7916   -0.4210   -1.2751 H   0  0  0  0  0  0  0  0  0  0  0  0
    1.8672    0.6141    1.7438 H   0  0  0  0  0  0  0  0  0  0  0  0
    0.2055    1.0279    1.2617 H   0  0  0  0  0  0  0  0  0  0  0  0
    0.7545    1.2386   -1.0412 H   0  0  0  0  0  0  0  0  0  0  0  0
    1.6966    2.3650   -0.0650 H   0  0  0  0  0  0  0  0  0  0  0  0
    2.5530    0.1233   -1.8129 H   0  0  0  0  0  0  0  0  0  0  0  0
    4.6615    0.5427   -1.6769 H   0  0  0  0  0  0  0  0  0  0  0  0
    4.4494    1.9956   -0.7282 H   0  0  0  0  0  0  0  0  0  0  0  0
    4.7011   -0.9573    0.2241 H   0  0  0  0  0  0  0  0  0  0  0  0
    6.0286    2.5094    0.9790 H   0  0  0  0  0  0  0  0  0  0  0  0
    8.4237    2.9393    0.7574 H   0  0  0  0  0  0  0  0  0  0  0  0
   10.3068   -1.1731   -0.8773 H   0  0  0  0  0  0  0  0  0  0  0  0
   10.5434    2.1626   -0.6663 H   0  0  0  0  0  0  0  0  0  0  0  0
    5.0654    0.1382    2.3232 H   0  0  0  0  0  0  0  0  0  0  0  0
  1  2  1  0
  2  3  2  0
  3  4  1  0
  4  5  2  0
  5  6  1  0
  6  7  2  0
  6  8  1  0
  8  9  1  0
  9 10  1  0
 10 11  1  0
 11 12  1  0
 12 13  1  0
 13 14  1  0
 14 15  1  0
 15 16  1  0
 16 17  1  0
 17 18  1  0
 18 19  1  0
 19 20  1  0
 20 21  2  0
 21 22  1  0
 22 23  2  0
 23 24  1  0
 24 25  2  0
 25 26  1  0
 26 27  1  0
 27 28  2  0
 27 29  1  0
 23 30  1  0
 19 31  1  0
  7  2  1  0
 25 20  1  0
 29 24  1  0
  3 32  1  0
  4 33  1  0
  5 34  1  0
  7 35  1  0
  8 36  1  0
  8 37  1  0
  9 38  1  0
  9 39  1  0
 10 40  1  0
 11 41  1  0
 11 42  1  0
 12 43  1  0
 12 44  1  0
 13 45  1  0
 13 46  1  0
 15 47  1  0
 15 48  1  0
 16 49  1  0
 16 50  1  0
 17 51  1  0
 18 52  1  0
 18 53  1  0
 19 54  1  6
 21 55  1  0
 22 56  1  0
 29 57  1  0
 30 58  1  0
 31 59  1  0
M  END
>  <Ligand ID>  (1) 
LIG0005843

>  <Ligand>  (1) 
CHEMBL1807827

>  <SMILES>  (1) 
Clc1cccc(c1)CCNCCCSCCNC[C@@H](c1ccc(c2c1sc(=O)[nH]2)O)O

>  <CID>  (1) 
16049450.0

>  <ChEMBL ID>  (1) 
nan

>  <InChiKey>  (1) 
HZLLPPSEGLYDSB-IBGZPJMESA-N

>  <InChi>  (1) 
InChI=1S/C22H28ClN3O3S2/c23-16-4-1-3-15(13-16)7-9-24-8-2-11-30-12-10-25-14-19(28)17-5-6-18(27)20-21(17)31-22(29)26-20/h1,3-6,13,19,24-25,27-28H,2,7-12,14H2,(H,26,29)/t19-/m0/s1

>  <IUPAC Name>  (1) 
7-[(1R)-2-[2-[3-[2-(3-chlorophenyl)ethylamino]propylsulfanyl]ethylamino]-1-hydroxyethyl]-4-hydroxy-3H-1,3-benzothiazol-2-one

$$$$
