
     RDKit          3D

117124  0  0  0  0  0  0  0  0999 V2000
  -13.6397    4.6214   -0.0476 C   0  0  0  0  0  0  0  0  0  0  0  0
  -13.7570    3.5058   -1.0426 C   0  0  0  0  0  0  0  0  0  0  0  0
  -13.3428    2.2187   -0.5289 N   0  0  0  0  0  0  0  0  0  0  0  0
  -13.9945    1.6548    0.5925 C   0  0  0  0  0  0  0  0  0  0  0  0
  -14.9338    2.3369    1.1030 O   0  0  0  0  0  0  0  0  0  0  0  0
  -13.6645    0.3554    1.1996 C   0  0  1  0  0  0  0  0  0  0  0  0
  -12.6667   -0.3343    0.5258 O   0  0  0  0  0  0  0  0  0  0  0  0
  -12.0902   -1.2083    1.4297 C   0  0  2  0  0  0  0  0  0  0  0  0
  -12.4734   -0.8140    2.8256 C   0  0  1  0  0  0  0  0  0  0  0  0
  -13.1344    0.5275    2.6191 C   0  0  2  0  0  0  0  0  0  0  0  0
  -14.1685    0.7713    3.5197 O   0  0  0  0  0  0  0  0  0  0  0  0
  -13.3843   -1.7208    3.3714 O   0  0  0  0  0  0  0  0  0  0  0  0
  -10.6519   -1.2442    1.2077 N   0  0  0  0  0  0  0  0  0  0  0  0
   -9.8534   -0.1654    1.1385 C   0  0  0  0  0  0  0  0  0  0  0  0
   -8.6181   -0.6294    0.9006 N   0  0  0  0  0  0  0  0  0  0  0  0
   -8.6099   -1.9625    0.8179 C   0  0  0  0  0  0  0  0  0  0  0  0
   -9.9203   -2.3802    1.0154 C   0  0  0  0  0  0  0  0  0  0  0  0
  -10.1585   -3.6825    0.9751 N   0  0  0  0  0  0  0  0  0  0  0  0
   -9.1654   -4.5936    0.7480 C   0  0  0  0  0  0  0  0  0  0  0  0
   -7.8993   -4.1518    0.5583 N   0  0  0  0  0  0  0  0  0  0  0  0
   -7.5733   -2.8437    0.5837 C   0  0  0  0  0  0  0  0  0  0  0  0
   -6.2256   -2.3886    0.3404 N   0  0  0  0  0  0  0  0  0  0  0  0
   -5.2318   -3.3569    0.1102 C   0  0  0  0  0  0  0  0  0  0  0  0
   -4.0336   -3.0255   -0.6907 C   0  0  0  0  0  0  0  0  0  0  0  0
   -4.2487   -2.6988   -2.1369 C   0  0  0  0  0  0  0  0  0  0  0  0
   -5.1271   -1.4845   -2.2740 C   0  0  0  0  0  0  0  0  0  0  0  0
   -4.5229   -0.3175   -1.6727 N   0  0  0  0  0  0  0  0  0  0  0  0
   -3.3141    0.2444   -2.2417 C   0  0  0  0  0  0  0  0  0  0  0  0
   -2.8903   -0.3371   -3.2675 O   0  0  0  0  0  0  0  0  0  0  0  0
   -2.6815    1.4204   -1.6111 C   0  0  0  0  0  0  0  0  0  0  0  0
   -1.8387    2.2257   -2.5242 C   0  0  0  0  0  0  0  0  0  0  0  0
   -0.7112    1.5800   -3.2129 C   0  0  0  0  0  0  0  0  0  0  0  0
    0.3627    0.9534   -2.4135 C   0  0  0  0  0  0  0  0  0  0  0  0
    1.0923    1.8903   -1.4676 C   0  0  0  0  0  0  0  0  0  0  0  0
    2.1592    1.1576   -0.8157 N   0  0  0  0  0  0  0  0  0  0  0  0
    1.9659    0.0032   -0.0151 C   0  0  0  0  0  0  0  0  0  0  0  0
    0.8197   -0.4758    0.2102 O   0  0  0  0  0  0  0  0  0  0  0  0
    3.2078   -0.6400    0.5601 C   0  0  0  0  0  0  0  0  0  0  0  0
    4.3270    0.0827    0.1631 O   0  0  0  0  0  0  0  0  0  0  0  0
    5.6422   -0.1517    0.4043 C   0  0  0  0  0  0  0  0  0  0  0  0
    6.1107   -1.2258    1.1189 C   0  0  0  0  0  0  0  0  0  0  0  0
    7.4732   -1.3999    1.3219 C   0  0  0  0  0  0  0  0  0  0  0  0
    8.4015   -0.5183    0.8251 C   0  0  0  0  0  0  0  0  0  0  0  0
    7.9016    0.5610    0.1073 C   0  0  0  0  0  0  0  0  0  0  0  0
    6.5633    0.7635   -0.1128 C   0  0  0  0  0  0  0  0  0  0  0  0
    9.8488   -0.6726    0.9838 C   0  0  0  0  0  0  0  0  0  0  0  0
   10.4283   -1.6734    1.5840 C   0  0  0  0  0  0  0  0  0  0  0  0
   11.8293   -1.9250    1.7965 C   0  0  0  0  0  0  0  0  0  0  0  0
   12.2535   -3.0842    2.4793 C   0  0  0  0  0  0  0  0  0  0  0  0
   13.6164   -3.1188    2.5513 C   0  0  0  0  0  0  0  0  0  0  0  0
   14.0364   -1.9557    1.8981 C   0  0  0  0  0  0  0  0  0  0  0  0
   12.9515   -1.2694    1.4634 N   0  0  0  0  0  0  0  0  0  0  0  0
   13.1749    0.0442    0.7292 B   0  0  0  0  0  0  0  0  0  0  0  0
   12.6783   -0.0672   -0.6298 F   0  0  0  0  0  0  0  0  0  0  0  0
   12.5585    1.1845    1.4323 F   0  0  0  0  0  0  0  0  0  0  0  0
   14.6781    0.3683    0.5674 N   0  0  0  0  0  0  0  0  0  0  0  0
   15.1734    1.4089   -0.0256 C   0  0  0  0  0  0  0  0  0  0  0  0
   16.6399    1.2956    0.0684 C   0  0  0  0  0  0  0  0  0  0  0  0
   16.9762    0.1951    0.7112 C   0  0  0  0  0  0  0  0  0  0  0  0
   15.7103   -0.4467    1.0576 C   0  0  0  0  0  0  0  0  0  0  0  0
   15.4096   -1.5428    1.6936 C   0  0  0  0  0  0  0  0  0  0  0  0
   14.5269    2.5118   -0.6820 C   0  0  0  0  0  0  0  0  0  0  0  0
   14.7313    3.0527   -1.9593 C   0  0  0  0  0  0  0  0  0  0  0  0
   14.0029    4.0870   -2.3414 C   0  0  0  0  0  0  0  0  0  0  0  0
   13.0585    4.6323   -1.5090 C   0  0  0  0  0  0  0  0  0  0  0  0
   13.1997    3.5426    0.0444 S   0  0  0  0  0  0  0  0  0  0  0  0
  -12.6072    4.7467    0.3448 H   0  0  0  0  0  0  0  0  0  0  0  0
  -13.8659    5.5618   -0.6086 H   0  0  0  0  0  0  0  0  0  0  0  0
  -14.4167    4.5835    0.7465 H   0  0  0  0  0  0  0  0  0  0  0  0
  -14.8334    3.4258   -1.3143 H   0  0  0  0  0  0  0  0  0  0  0  0
  -13.2131    3.7605   -1.9598 H   0  0  0  0  0  0  0  0  0  0  0  0
  -12.5528    1.6576   -0.9539 H   0  0  0  0  0  0  0  0  0  0  0  0
  -14.5762   -0.2621    1.2694 H   0  0  0  0  0  0  0  0  0  0  0  0
  -12.5444   -2.2110    1.2132 H   0  0  0  0  0  0  0  0  0  0  0  0
  -11.5817   -0.7193    3.4898 H   0  0  0  0  0  0  0  0  0  0  0  0
  -12.3485    1.3045    2.6153 H   0  0  0  0  0  0  0  0  0  0  0  0
  -13.7195    1.0768    4.3607 H   0  0  0  0  0  0  0  0  0  0  0  0
  -14.2725   -1.2862    3.3997 H   0  0  0  0  0  0  0  0  0  0  0  0
  -10.2237    0.8421    1.2616 H   0  0  0  0  0  0  0  0  0  0  0  0
   -9.3480   -5.6540    0.7090 H   0  0  0  0  0  0  0  0  0  0  0  0
   -6.1118   -1.3492    0.3871 H   0  0  0  0  0  0  0  0  0  0  0  0
   -4.9603   -3.8005    1.1163 H   0  0  0  0  0  0  0  0  0  0  0  0
   -5.7160   -4.2512   -0.4047 H   0  0  0  0  0  0  0  0  0  0  0  0
   -3.2381   -3.8134   -0.6200 H   0  0  0  0  0  0  0  0  0  0  0  0
   -3.5416   -2.1429   -0.1577 H   0  0  0  0  0  0  0  0  0  0  0  0
   -3.2788   -2.4807   -2.6481 H   0  0  0  0  0  0  0  0  0  0  0  0
   -4.6637   -3.5615   -2.7070 H   0  0  0  0  0  0  0  0  0  0  0  0
   -6.1150   -1.7053   -1.8564 H   0  0  0  0  0  0  0  0  0  0  0  0
   -5.2833   -1.2659   -3.3867 H   0  0  0  0  0  0  0  0  0  0  0  0
   -4.8828    0.1886   -0.8413 H   0  0  0  0  0  0  0  0  0  0  0  0
   -3.5114    2.0705   -1.2101 H   0  0  0  0  0  0  0  0  0  0  0  0
   -2.1353    1.0775   -0.6971 H   0  0  0  0  0  0  0  0  0  0  0  0
   -1.5281    3.1662   -1.9906 H   0  0  0  0  0  0  0  0  0  0  0  0
   -2.5385    2.6030   -3.3440 H   0  0  0  0  0  0  0  0  0  0  0  0
   -1.0720    0.8154   -3.9414 H   0  0  0  0  0  0  0  0  0  0  0  0
   -0.2137    2.4190   -3.8286 H   0  0  0  0  0  0  0  0  0  0  0  0
    1.1280    0.5595   -3.1170 H   0  0  0  0  0  0  0  0  0  0  0  0
   -0.0566    0.0846   -1.8770 H   0  0  0  0  0  0  0  0  0  0  0  0
    1.4948    2.7650   -1.9685 H   0  0  0  0  0  0  0  0  0  0  0  0
    0.3544    2.1347   -0.6443 H   0  0  0  0  0  0  0  0  0  0  0  0
    3.1468    1.5262   -0.9621 H   0  0  0  0  0  0  0  0  0  0  0  0
    3.0411   -0.7207    1.6411 H   0  0  0  0  0  0  0  0  0  0  0  0
    3.1913   -1.6747    0.1457 H   0  0  0  0  0  0  0  0  0  0  0  0
    5.4109   -1.9404    1.5253 H   0  0  0  0  0  0  0  0  0  0  0  0
    7.7550   -2.2654    1.8903 H   0  0  0  0  0  0  0  0  0  0  0  0
    8.5848    1.3053   -0.3161 H   0  0  0  0  0  0  0  0  0  0  0  0
    6.2378    1.6367   -0.6858 H   0  0  0  0  0  0  0  0  0  0  0  0
   10.4534    0.1016    0.5728 H   0  0  0  0  0  0  0  0  0  0  0  0
    9.7088   -2.4275    1.9769 H   0  0  0  0  0  0  0  0  0  0  0  0
   11.6315   -3.8661    2.9081 H   0  0  0  0  0  0  0  0  0  0  0  0
   14.2153   -3.8876    3.0146 H   0  0  0  0  0  0  0  0  0  0  0  0
   17.3773    1.9881   -0.3156 H   0  0  0  0  0  0  0  0  0  0  0  0
   17.9701   -0.1967    0.9565 H   0  0  0  0  0  0  0  0  0  0  0  0
   16.2490   -2.1396    2.0680 H   0  0  0  0  0  0  0  0  0  0  0  0
   15.5096    2.5712   -2.5897 H   0  0  0  0  0  0  0  0  0  0  0  0
   14.1273    4.5583   -3.3570 H   0  0  0  0  0  0  0  0  0  0  0  0
   12.3792    5.4011   -1.5394 H   0  0  0  0  0  0  0  0  0  0  0  0
  1  2  1  0
  2  3  1  0
  3  4  1  0
  4  5  2  0
  4  6  1  0
  6  7  1  0
  7  8  1  0
  8  9  1  0
  9 10  1  0
 10 11  1  0
  9 12  1  0
  8 13  1  0
 13 14  1  0
 14 15  2  0
 15 16  1  0
 16 17  2  0
 17 18  1  0
 18 19  2  0
 19 20  1  0
 20 21  2  0
 21 22  1  0
 22 23  1  0
 23 24  1  0
 24 25  1  0
 25 26  1  0
 26 27  1  0
 27 28  1  0
 28 29  2  0
 28 30  1  0
 30 31  1  0
 31 32  1  0
 32 33  1  0
 33 34  1  0
 34 35  1  0
 35 36  1  0
 36 37  2  0
 36 38  1  0
 38 39  1  0
 39 40  1  0
 40 41  2  0
 41 42  1  0
 42 43  2  0
 43 44  1  0
 44 45  2  0
 43 46  1  0
 46 47  2  0
 47 48  1  0
 48 49  2  0
 49 50  1  0
 50 51  2  0
 51 52  1  0
 52 53  1  0
 53 54  1  0
 53 55  1  0
 53 56  1  0
 56 57  2  0
 57 58  1  0
 58 59  2  0
 59 60  1  0
 60 61  2  0
 57 62  1  0
 62 63  2  0
 63 64  1  0
 64 65  2  0
 65 66  1  0
 10  6  1  0
 17 13  1  0
 45 40  1  0
 52 48  1  0
 60 56  1  0
 66 62  1  0
 21 16  1  0
 61 51  1  0
  1 67  1  0
  1 68  1  0
  1 69  1  0
  2 70  1  0
  2 71  1  0
  3 72  1  0
  6 73  1  1
  8 74  1  6
  9 75  1  1
 10 76  1  6
 11 77  1  0
 12 78  1  0
 14 79  1  0
 19 80  1  0
 22 81  1  0
 23 82  1  0
 23 83  1  0
 24 84  1  0
 24 85  1  0
 25 86  1  0
 25 87  1  0
 26 88  1  0
 26 89  1  0
 27 90  1  0
 30 91  1  0
 30 92  1  0
 31 93  1  0
 31 94  1  0
 32 95  1  0
 32 96  1  0
 33 97  1  0
 33 98  1  0
 34 99  1  0
 34100  1  0
 35101  1  0
 38102  1  0
 38103  1  0
 41104  1  0
 42105  1  0
 44106  1  0
 45107  1  0
 46108  1  0
 47109  1  0
 49110  1  0
 50111  1  0
 58112  1  0
 59113  1  0
 61114  1  0
 63115  1  0
 64116  1  0
 65117  1  0
M  CHG  2  53  -1  56   1
M  END
>  <Ligand ID>  (1) 
LIG0001075

>  <Ligand>  (1) 
CHEMBL414055

>  <SMILES>  (1) 
CCNC(=O)[C@H]1O[C@H]([C@@H]([C@@H]1O)O)n1cnc2c1ncnc2NCCCCNC(=O)CCCCCNC(=O)COc1ccc(cc1)/C=C/c1ccc2n1[B-](F)(F)[N+]1=C(C=CC1=C2)c1cccs1

>  <CID>  (1) 
16109359.0

>  <ChEMBL ID>  (1) 
nan

>  <InChiKey>  (1) 
LODSCYWXMGXOOZ-ZQJYZEHFSA-N

>  <InChi>  (1) 
InChI=1S/C45H51BF2N10O7S/c1-2-49-44(63)41-39(61)40(62)45(65-41)56-28-55-38-42(53-27-54-43(38)56)52-23-7-6-22-50-36(59)10-4-3-5-21-51-37(60)26-64-33-18-12-29(13-19-33)11-14-30-15-16-31-25-32-17-20-34(35-9-8-24-66-35)58(32)46(47,48)57(30)31/h8-9,11-20,24-25,27-28,39-41,45,61-62H,2-7,10,21-23,26H2,1H3,(H,49,63)(H,50,59)(H,51,60)(H,52,53,54)/b14-11+/t39-,40+,41-,45+/m0/s1

>  <IUPAC Name>  (1) 
(2S,3S,4R,5R)-5-[6-[4-[6-[[2-[4-[(E)-2-(2,2-difluoro-12-thiophen-2-yl-3-aza-1-azonia-2-boranuidatricyclo[7.3.0.03,7]dodeca-1(12),4,6,8,10-pentaen-4-yl)ethenyl]phenoxy]acetyl]amino]hexanoylamino]butylamino]purin-9-yl]-N-ethyl-3,4-dihydroxyoxolane-2-carboxamide

$$$$
