
     RDKit          3D

 32 34  0  0  0  0  0  0  0  0999 V2000
    0.5508    2.1210    1.0977 O   0  0  0  0  0  0  0  0  0  0  0  0
    0.3114    1.0086    0.5413 C   0  0  0  0  0  0  0  0  0  0  0  0
   -1.0654    0.6518    0.2810 N   0  0  0  0  0  0  0  0  0  0  0  0
   -1.9879    1.7425    0.1375 C   0  0  0  0  0  0  0  0  0  0  0  0
   -3.2593    1.2431   -0.4874 C   0  0  0  0  0  0  0  0  0  0  0  0
   -3.6244    0.0506    0.2709 N   0  0  0  0  0  0  0  0  0  0  0  0
   -2.7835   -1.0431   -0.0936 C   0  0  0  0  0  0  0  0  0  0  0  0
   -1.3540   -0.7503    0.2005 C   0  0  1  0  0  0  0  0  0  0  0  0
   -0.4144   -1.4869   -0.7299 C   0  0  0  0  0  0  0  0  0  0  0  0
    0.9718   -1.0956   -0.4481 C   0  0  0  0  0  0  0  0  0  0  0  0
    1.3636    0.0771    0.1521 C   0  0  0  0  0  0  0  0  0  0  0  0
    2.6902    0.4081    0.3913 C   0  0  0  0  0  0  0  0  0  0  0  0
    3.6257   -0.5303   -0.0186 C   0  0  0  0  0  0  0  0  0  0  0  0
    3.2957   -1.7192   -0.6236 C   0  0  0  0  0  0  0  0  0  0  0  0
    1.9656   -2.0038   -0.8392 C   0  0  0  0  0  0  0  0  0  0  0  0
    3.1072    1.6450    1.0555 C   0  0  0  0  0  0  0  0  0  0  0  0
    2.6718    1.7952    2.3534 F   0  0  0  0  0  0  0  0  0  0  0  0
    2.9104    2.7750    0.2840 F   0  0  0  0  0  0  0  0  0  0  0  0
    4.4843    1.5912    1.1852 F   0  0  0  0  0  0  0  0  0  0  0  0
   -2.2502    2.0573    1.1816 H   0  0  0  0  0  0  0  0  0  0  0  0
   -1.5574    2.6104   -0.4019 H   0  0  0  0  0  0  0  0  0  0  0  0
   -4.0619    1.9944   -0.3851 H   0  0  0  0  0  0  0  0  0  0  0  0
   -3.1146    0.9938   -1.5667 H   0  0  0  0  0  0  0  0  0  0  0  0
   -4.6307   -0.1348    0.3025 H   0  0  0  0  0  0  0  0  0  0  0  0
   -3.1064   -1.9411    0.4803 H   0  0  0  0  0  0  0  0  0  0  0  0
   -2.8965   -1.3095   -1.1711 H   0  0  0  0  0  0  0  0  0  0  0  0
   -1.1344   -1.1662    1.2196 H   0  0  0  0  0  0  0  0  0  0  0  0
   -0.5061   -2.5633   -0.4702 H   0  0  0  0  0  0  0  0  0  0  0  0
   -0.6676   -1.3266   -1.7967 H   0  0  0  0  0  0  0  0  0  0  0  0
    4.6790   -0.3205    0.1443 H   0  0  0  0  0  0  0  0  0  0  0  0
    4.0547   -2.4368   -0.9345 H   0  0  0  0  0  0  0  0  0  0  0  0
    1.7325   -2.9372   -1.3122 H   0  0  0  0  0  0  0  0  0  0  0  0
  1  2  2  0
  2  3  1  0
  3  4  1  0
  4  5  1  0
  5  6  1  0
  6  7  1  0
  7  8  1  0
  8  9  1  0
  9 10  1  0
 10 11  2  0
 11 12  1  0
 12 13  2  0
 13 14  1  0
 14 15  2  0
 12 16  1  0
 16 17  1  0
 16 18  1  0
 16 19  1  0
 11  2  1  0
  8  3  1  0
 15 10  1  0
  4 20  1  0
  4 21  1  0
  5 22  1  0
  5 23  1  0
  6 24  1  0
  7 25  1  0
  7 26  1  0
  8 27  1  1
  9 28  1  0
  9 29  1  0
 13 30  1  0
 14 31  1  0
 15 32  1  0
M  END
>  <Ligand ID>  (1) 
LIG0003210

>  <Ligand>  (1) 
SCHEMBL3556023

>  <SMILES>  (1) 
O=C1N2CCNC[C@H]2Cc2c1c(ccc2)C(F)(F)F

>  <CID>  (1) 
24826787.0

>  <ChEMBL ID>  (1) 
nan

>  <InChiKey>  (1) 
SNGLXIKSHSJVQV-SECBINFHSA-N

>  <InChi>  (1) 
InChI=1S/C13H13F3N2O/c14-13(15,16)10-3-1-2-8-6-9-7-17-4-5-18(9)12(19)11(8)10/h1-3,9,17H,4-7H2/t9-/m1/s1

>  <IUPAC Name>  (1) 
(11aR)-7-(trifluoromethyl)-1,2,3,4,11,11a-hexahydropyrazino[1,2-b]isoquinolin-6-one

$$$$
