
     RDKit          3D

 25 25  0  0  0  0  0  0  0  0999 V2000
    2.6591    1.2087   -0.9936 O   0  0  0  0  0  0  0  0  0  0  0  0
    3.4341    0.2439   -0.3637 C   0  0  0  0  0  0  0  0  0  0  0  0
    4.6453    0.1587   -0.7494 O   0  0  0  0  0  0  0  0  0  0  0  0
    2.9378   -0.6544    0.6932 C   0  0  0  0  0  0  0  0  0  0  0  0
    1.5370   -0.4091    0.9978 N   0  0  0  0  0  0  0  0  0  0  0  0
    0.9817    0.3970    1.8640 N   0  0  0  0  0  0  0  0  0  0  0  0
   -0.3536    0.2977    1.8041 N   0  0  0  0  0  0  0  0  0  0  0  0
   -0.6492   -0.6133    0.8559 C   0  0  0  0  0  0  0  0  0  0  0  0
    0.5472   -1.0649    0.3411 C   0  0  0  0  0  0  0  0  0  0  0  0
   -1.9772   -1.0951    0.3936 C   0  0  0  0  0  0  0  0  0  0  0  0
   -2.4790   -0.2375   -0.7472 C   0  0  1  0  0  0  0  0  0  0  0  0
   -2.5935    1.1484   -0.2602 C   0  0  0  0  0  0  0  0  0  0  0  0
   -3.3853    1.4053    0.6965 O   0  0  0  0  0  0  0  0  0  0  0  0
   -1.8803    2.2164   -0.7857 O   0  0  0  0  0  0  0  0  0  0  0  0
   -1.5259   -0.2904   -1.8324 N   0  0  0  0  0  0  0  0  0  0  0  0
    3.0936    1.9087   -1.5667 H   0  0  0  0  0  0  0  0  0  0  0  0
    3.5262   -0.5097    1.6388 H   0  0  0  0  0  0  0  0  0  0  0  0
    3.1020   -1.6991    0.4074 H   0  0  0  0  0  0  0  0  0  0  0  0
    0.6594   -1.8094   -0.4455 H   0  0  0  0  0  0  0  0  0  0  0  0
   -2.6695   -1.0252    1.2640 H   0  0  0  0  0  0  0  0  0  0  0  0
   -1.9650   -2.1710    0.1136 H   0  0  0  0  0  0  0  0  0  0  0  0
   -3.4471   -0.6475   -1.0993 H   0  0  0  0  0  0  0  0  0  0  0  0
   -1.5448    2.9842   -0.2026 H   0  0  0  0  0  0  0  0  0  0  0  0
   -0.6751    0.2454   -1.5635 H   0  0  0  0  0  0  0  0  0  0  0  0
   -1.9781    0.0124   -2.7102 H   0  0  0  0  0  0  0  0  0  0  0  0
  1  2  1  0
  2  3  2  0
  2  4  1  0
  4  5  1  0
  5  6  1  0
  6  7  2  0
  7  8  1  0
  8  9  2  0
  8 10  1  0
 10 11  1  0
 11 12  1  0
 12 13  2  0
 12 14  1  0
 11 15  1  0
  9  5  1  0
  1 16  1  0
  4 17  1  0
  4 18  1  0
  9 19  1  0
 10 20  1  0
 10 21  1  0
 11 22  1  6
 14 23  1  0
 15 24  1  0
 15 25  1  0
M  END
>  <Ligand ID>  (1) 
LIG0005756

>  <Ligand>  (1) 
CHEMBL1288411

>  <SMILES>  (1) 
OC(=O)Cn1nnc(c1)C[C@@H](C(=O)O)N

>  <CID>  (1) 
52941387.0

>  <ChEMBL ID>  (1) 
nan

>  <InChiKey>  (1) 
SKGULNXKJSHPGF-YFKPBYRVSA-N

>  <InChi>  (1) 
InChI=1S/C7H10N4O4/c8-5(7(14)15)1-4-2-11(10-9-4)3-6(12)13/h2,5H,1,3,8H2,(H,12,13)(H,14,15)/t5-/m0/s1

>  <IUPAC Name>  (1) 
(2S)-2-amino-3-[1-(carboxymethyl)triazol-4-yl]propanoic acid

$$$$
