
     RDKit          3D

 32 34  0  0  0  0  0  0  0  0999 V2000
    4.5067   -0.0143    0.5217 C   0  0  0  0  0  0  0  0  0  0  0  0
    4.2700    0.2995   -0.9377 C   0  0  0  0  0  0  0  0  0  0  0  0
    2.8301    0.1732   -1.0414 N   0  0  0  0  0  0  0  0  0  0  0  0
    2.3475   -0.4421   -0.0163 C   0  0  0  0  0  0  0  0  0  0  0  0
    3.3789   -0.7886    0.8662 O   0  0  0  0  0  0  0  0  0  0  0  0
    0.9704   -0.7597    0.2484 N   0  0  0  0  0  0  0  0  0  0  0  0
   -0.0724   -0.0549   -0.5063 C   0  0  0  0  0  0  0  0  0  0  0  0
    0.0573    1.3941   -0.2339 C   0  0  0  0  0  0  0  0  0  0  0  0
   -1.1592    2.2239   -0.2054 C   0  0  0  0  0  0  0  0  0  0  0  0
   -2.4283    1.6194    0.2447 C   0  0  0  0  0  0  0  0  0  0  0  0
   -2.4547    0.1379    0.2222 C   0  0  0  0  0  0  0  0  0  0  0  0
   -1.3711   -0.6406   -0.1234 C   0  0  0  0  0  0  0  0  0  0  0  0
   -1.4708   -2.0235   -0.1214 C   0  0  0  0  0  0  0  0  0  0  0  0
   -2.6747   -2.6350    0.2322 C   0  0  0  0  0  0  0  0  0  0  0  0
   -3.7649   -1.8462    0.5801 C   0  0  0  0  0  0  0  0  0  0  0  0
   -3.6492   -0.4698    0.5731 C   0  0  0  0  0  0  0  0  0  0  0  0
    4.5449    0.8988    1.1442 H   0  0  0  0  0  0  0  0  0  0  0  0
    5.4213   -0.6334    0.6504 H   0  0  0  0  0  0  0  0  0  0  0  0
    4.7270   -0.4698   -1.5953 H   0  0  0  0  0  0  0  0  0  0  0  0
    4.5975    1.3249   -1.1929 H   0  0  0  0  0  0  0  0  0  0  0  0
    0.7529   -1.4789    0.9664 H   0  0  0  0  0  0  0  0  0  0  0  0
    0.1045   -0.3083   -1.5765 H   0  0  0  0  0  0  0  0  0  0  0  0
    0.6875    1.5797    0.6850 H   0  0  0  0  0  0  0  0  0  0  0  0
    0.7195    1.8001   -1.0568 H   0  0  0  0  0  0  0  0  0  0  0  0
   -1.3286    2.7336   -1.2000 H   0  0  0  0  0  0  0  0  0  0  0  0
   -0.9611    3.1039    0.4749 H   0  0  0  0  0  0  0  0  0  0  0  0
   -2.7250    1.9088    1.2714 H   0  0  0  0  0  0  0  0  0  0  0  0
   -3.2850    1.9366   -0.4123 H   0  0  0  0  0  0  0  0  0  0  0  0
   -0.6285   -2.6272   -0.3900 H   0  0  0  0  0  0  0  0  0  0  0  0
   -2.7128   -3.7098    0.2217 H   0  0  0  0  0  0  0  0  0  0  0  0
   -4.6980   -2.3269    0.8540 H   0  0  0  0  0  0  0  0  0  0  0  0
   -4.5314    0.0947    0.8531 H   0  0  0  0  0  0  0  0  0  0  0  0
  1  2  1  0
  2  3  1  0
  3  4  2  0
  4  5  1  0
  4  6  1  0
  6  7  1  0
  7  8  1  0
  8  9  1  0
  9 10  1  0
 10 11  1  0
 11 12  2  0
 12 13  1  0
 13 14  2  0
 14 15  1  0
 15 16  2  0
  5  1  1  0
 12  7  1  0
 16 11  1  0
  1 17  1  0
  1 18  1  0
  2 19  1  0
  2 20  1  0
  6 21  1  0
  7 22  1  0
  8 23  1  0
  8 24  1  0
  9 25  1  0
  9 26  1  0
 10 27  1  0
 10 28  1  0
 13 29  1  0
 14 30  1  0
 15 31  1  0
 16 32  1  0
M  END
>  <Ligand ID>  (1) 
LIG0002937

>  <Ligand>  (1) 
2-(1,2,3,4-Tetrahydro-1-naphthylamino)-2-oxazoline

>  <SMILES>  (1) 
C1CN=C(O1)NC1CCCc2c1cccc2

>  <CID>  (1) 
218362.0

>  <ChEMBL ID>  (1) 
nan

>  <InChiKey>  (1) 
FXNNPMSELIMMHU-UHFFFAOYSA-N

>  <InChi>  (1) 
InChI=1S/C13H16N2O/c1-2-6-11-10(4-1)5-3-7-12(11)15-13-14-8-9-16-13/h1-2,4,6,12H,3,5,7-9H2,(H,14,15)

>  <IUPAC Name>  (1) 
N-(1,2,3,4-tetrahydronaphthalen-1-yl)-4,5-dihydro-1,3-oxazol-2-amine

$$$$
