
     RDKit          3D

156161  0  0  0  0  0  0  0  0999 V2000
    0.8221    2.7649   -4.3554 C   0  0  0  0  0  0  0  0  0  0  0  0
    1.3210    2.0962   -3.0877 C   0  0  0  0  0  0  0  0  0  0  0  0
    1.0082    0.5943   -3.1490 C   0  0  0  0  0  0  0  0  0  0  0  0
    1.4872   -0.0900   -1.9353 C   0  0  1  0  0  0  0  0  0  0  0  0
    1.2665   -1.5312   -1.8158 C   0  0  0  0  0  0  0  0  0  0  0  0
    2.3522   -2.2240   -1.6098 O   0  0  0  0  0  0  0  0  0  0  0  0
    0.1002   -2.2991   -1.8790 N   0  0  0  0  0  0  0  0  0  0  0  0
    0.1773   -3.7688   -1.6532 C   0  0  0  0  0  0  0  0  0  0  0  0
   -0.8909   -4.3761   -2.5177 C   0  0  0  0  0  0  0  0  0  0  0  0
   -1.6343   -3.2035   -3.0998 C   0  0  0  0  0  0  0  0  0  0  0  0
   -1.2850   -2.0635   -2.1341 C   0  0  1  0  0  0  0  0  0  0  0  0
   -2.1871   -2.2740   -0.9591 C   0  0  0  0  0  0  0  0  0  0  0  0
   -2.6369   -3.3864   -0.6115 O   0  0  0  0  0  0  0  0  0  0  0  0
   -2.5893   -1.1501   -0.1493 N   0  0  0  0  0  0  0  0  0  0  0  0
   -3.4746   -1.3173    1.0026 C   0  0  2  0  0  0  0  0  0  0  0  0
   -4.8699   -0.9554    0.5582 C   0  0  0  0  0  0  0  0  0  0  0  0
   -4.9089   -0.6702   -0.7040 O   0  0  0  0  0  0  0  0  0  0  0  0
   -6.0049   -0.9217    1.3708 N   0  0  0  0  0  0  0  0  0  0  0  0
   -7.2728   -0.5599    0.6964 C   0  0  2  0  0  0  0  0  0  0  0  0
   -7.9704    0.5914    1.2346 C   0  0  0  0  0  0  0  0  0  0  0  0
   -7.9354    0.7309    2.5277 O   0  0  0  0  0  0  0  0  0  0  0  0
   -8.6220    1.5072    0.5811 O   0  0  0  0  0  0  0  0  0  0  0  0
   -9.2814    2.4353   -0.0587 C   0  0  0  0  0  0  0  0  0  0  0  0
  -10.7459    2.4823    0.1024 C   0  0  0  0  0  0  0  0  0  0  0  0
  -11.4079    3.0302    1.1674 C   0  0  0  0  0  0  0  0  0  0  0  0
  -12.7965    3.0807    1.1495 C   0  0  0  0  0  0  0  0  0  0  0  0
  -13.5292    2.5895    0.0745 C   0  0  0  0  0  0  0  0  0  0  0  0
  -12.8732    2.0383   -0.9978 C   0  0  0  0  0  0  0  0  0  0  0  0
  -11.4979    1.9895   -0.9726 C   0  0  0  0  0  0  0  0  0  0  0  0
  -13.5616    1.4943   -2.2024 C   0  0  0  0  0  0  0  0  0  0  0  0
  -13.7348    2.5292   -3.0779 F   0  0  0  0  0  0  0  0  0  0  0  0
  -12.7386    0.5671   -2.8219 F   0  0  0  0  0  0  0  0  0  0  0  0
  -14.7406    0.9022   -1.8669 F   0  0  0  0  0  0  0  0  0  0  0  0
  -13.5907    3.6534    2.2672 C   0  0  0  0  0  0  0  0  0  0  0  0
  -14.6393    2.7786    2.5847 F   0  0  0  0  0  0  0  0  0  0  0  0
  -14.1814    4.8161    1.8291 F   0  0  0  0  0  0  0  0  0  0  0  0
  -12.7825    3.8213    3.3593 F   0  0  0  0  0  0  0  0  0  0  0  0
   -8.1446   -1.8082    0.7826 C   0  0  0  0  0  0  0  0  0  0  0  0
   -9.4700   -1.7124    0.2369 C   0  0  0  0  0  0  0  0  0  0  0  0
   -9.8746   -2.0512   -1.0306 C   0  0  0  0  0  0  0  0  0  0  0  0
  -11.1836   -1.8460   -1.2080 N   0  0  0  0  0  0  0  0  0  0  0  0
  -11.6604   -1.3619   -0.0363 C   0  0  0  0  0  0  0  0  0  0  0  0
  -10.6369   -1.2671    0.8657 C   0  0  0  0  0  0  0  0  0  0  0  0
  -10.9165   -0.8079    2.1471 C   0  0  0  0  0  0  0  0  0  0  0  0
  -12.2077   -0.4439    2.5252 C   0  0  0  0  0  0  0  0  0  0  0  0
  -13.2503   -0.5390    1.6057 C   0  0  0  0  0  0  0  0  0  0  0  0
  -12.9228   -0.9982    0.3583 C   0  0  0  0  0  0  0  0  0  0  0  0
   -3.0771   -0.5860    2.2256 C   0  0  0  0  0  0  0  0  0  0  0  0
   -1.7061   -0.9394    2.7696 C   0  0  0  0  0  0  0  0  0  0  0  0
   -0.5998   -0.6199    1.8186 C   0  0  0  0  0  0  0  0  0  0  0  0
   -1.4872   -0.4012    4.1435 C   0  0  0  0  0  0  0  0  0  0  0  0
    2.9578    0.0873   -1.7809 N   0  0  0  0  0  0  0  0  0  0  0  0
    3.5020    0.2503   -0.4665 C   0  0  0  0  0  0  0  0  0  0  0  0
    2.6027    0.2125    0.4486 O   0  0  0  0  0  0  0  0  0  0  0  0
    4.8715    0.4300   -0.0817 C   0  0  2  0  0  0  0  0  0  0  0  0
    5.8729    0.8574   -1.0504 C   0  0  0  0  0  0  0  0  0  0  0  0
    5.6565    2.1805   -1.6188 C   0  0  0  0  0  0  0  0  0  0  0  0
    5.1368    2.4894   -2.8408 C   0  0  0  0  0  0  0  0  0  0  0  0
    4.9739    3.7961   -3.2614 C   0  0  0  0  0  0  0  0  0  0  0  0
    5.3263    4.8736   -2.4783 C   0  0  0  0  0  0  0  0  0  0  0  0
    5.8582    4.5755   -1.2296 C   0  0  0  0  0  0  0  0  0  0  0  0
    6.0165    3.2762   -0.8181 C   0  0  0  0  0  0  0  0  0  0  0  0
    5.4212   -0.4167    0.9707 N   0  0  0  0  0  0  0  0  0  0  0  0
    4.8173   -1.2089    1.9158 C   0  0  0  0  0  0  0  0  0  0  0  0
    3.5556   -1.3328    2.0103 O   0  0  0  0  0  0  0  0  0  0  0  0
    5.5738   -2.0183    2.9419 C   0  0  0  0  0  0  0  0  0  0  0  0
    6.9832   -1.8716    2.8760 N   0  0  0  0  0  0  0  0  0  0  0  0
    7.8371   -2.2348    1.7960 C   0  0  0  0  0  0  0  0  0  0  0  0
    7.4324   -2.7738    0.7428 O   0  0  0  0  0  0  0  0  0  0  0  0
    9.2977   -1.9080    2.0209 C   0  0  2  0  0  0  0  0  0  0  0  0
   10.0761   -2.1655    0.8579 N   0  0  0  0  0  0  0  0  0  0  0  0
   10.5427   -1.0405    0.0779 C   0  0  0  0  0  0  0  0  0  0  0  0
   10.2223    0.1017    0.4615 O   0  0  0  0  0  0  0  0  0  0  0  0
   11.3812   -1.2399   -1.1400 C   0  0  2  0  0  0  0  0  0  0  0  0
   12.7602   -1.7673   -0.7501 C   0  0  0  0  0  0  0  0  0  0  0  0
   13.4469   -0.7825    0.1451 C   0  0  0  0  0  0  0  0  0  0  0  0
   14.2334    0.2196   -0.3974 C   0  0  0  0  0  0  0  0  0  0  0  0
   14.8492    1.1162    0.4576 C   0  0  0  0  0  0  0  0  0  0  0  0
   14.6973    1.0343    1.8425 C   0  0  0  0  0  0  0  0  0  0  0  0
   13.9060    0.0261    2.3845 C   0  0  0  0  0  0  0  0  0  0  0  0
   13.2964   -0.8607    1.5302 C   0  0  0  0  0  0  0  0  0  0  0  0
   15.3402    1.9610    2.6750 O   0  0  0  0  0  0  0  0  0  0  0  0
   11.5724   -0.0171   -1.8641 N   0  0  0  0  0  0  0  0  0  0  0  0
    9.8010   -2.5553    3.2838 C   0  0  0  0  0  0  0  0  0  0  0  0
    0.5110    2.7287   -1.9416 C   0  0  0  0  0  0  0  0  0  0  0  0
    1.2654    3.7884   -4.4068 H   0  0  0  0  0  0  0  0  0  0  0  0
   -0.2781    2.8936   -4.2938 H   0  0  0  0  0  0  0  0  0  0  0  0
    1.1387    2.1771   -5.2493 H   0  0  0  0  0  0  0  0  0  0  0  0
    2.3713    2.3188   -2.9237 H   0  0  0  0  0  0  0  0  0  0  0  0
   -0.0682    0.4985   -3.2969 H   0  0  0  0  0  0  0  0  0  0  0  0
    1.5189    0.2549   -4.0849 H   0  0  0  0  0  0  0  0  0  0  0  0
    1.0325    0.3666   -1.0301 H   0  0  0  0  0  0  0  0  0  0  0  0
    0.0399   -3.9958   -0.5814 H   0  0  0  0  0  0  0  0  0  0  0  0
    1.1874   -4.1470   -1.9134 H   0  0  0  0  0  0  0  0  0  0  0  0
   -1.6020   -4.9797   -1.8921 H   0  0  0  0  0  0  0  0  0  0  0  0
   -0.4458   -5.0263   -3.3093 H   0  0  0  0  0  0  0  0  0  0  0  0
   -2.7151   -3.3493   -3.1871 H   0  0  0  0  0  0  0  0  0  0  0  0
   -1.1569   -2.9145   -4.0625 H   0  0  0  0  0  0  0  0  0  0  0  0
   -1.5232   -1.0902   -2.6262 H   0  0  0  0  0  0  0  0  0  0  0  0
   -2.2080   -0.2211   -0.4336 H   0  0  0  0  0  0  0  0  0  0  0  0
   -3.4537   -2.4267    1.2209 H   0  0  0  0  0  0  0  0  0  0  0  0
   -5.9377   -1.1397    2.3700 H   0  0  0  0  0  0  0  0  0  0  0  0
   -7.0170   -0.4416   -0.3539 H   0  0  0  0  0  0  0  0  0  0  0  0
   -8.9467    3.5128    0.2289 H   0  0  0  0  0  0  0  0  0  0  0  0
   -9.0684    2.3774   -1.1883 H   0  0  0  0  0  0  0  0  0  0  0  0
  -10.8646    3.4178    2.0069 H   0  0  0  0  0  0  0  0  0  0  0  0
  -14.5965    2.6219    0.0367 H   0  0  0  0  0  0  0  0  0  0  0  0
  -10.9849    1.5453   -1.8391 H   0  0  0  0  0  0  0  0  0  0  0  0
   -7.6028   -2.6275    0.2545 H   0  0  0  0  0  0  0  0  0  0  0  0
   -8.1992   -2.0382    1.8785 H   0  0  0  0  0  0  0  0  0  0  0  0
   -9.1874   -2.4358   -1.7794 H   0  0  0  0  0  0  0  0  0  0  0  0
  -11.7746   -2.0040   -2.0379 H   0  0  0  0  0  0  0  0  0  0  0  0
  -10.1530   -0.7324    2.8776 H   0  0  0  0  0  0  0  0  0  0  0  0
  -12.4464   -0.0887    3.5166 H   0  0  0  0  0  0  0  0  0  0  0  0
  -14.2620   -0.2569    1.8812 H   0  0  0  0  0  0  0  0  0  0  0  0
  -13.7199   -1.0791   -0.3637 H   0  0  0  0  0  0  0  0  0  0  0  0
   -3.7969   -0.8275    3.0655 H   0  0  0  0  0  0  0  0  0  0  0  0
   -3.1728    0.5288    2.1179 H   0  0  0  0  0  0  0  0  0  0  0  0
   -1.7336   -2.0796    2.8576 H   0  0  0  0  0  0  0  0  0  0  0  0
    0.3800   -0.6102    2.3834 H   0  0  0  0  0  0  0  0  0  0  0  0
   -0.7691    0.4039    1.3720 H   0  0  0  0  0  0  0  0  0  0  0  0
   -0.4455   -1.3560    1.0220 H   0  0  0  0  0  0  0  0  0  0  0  0
   -1.1545    0.6443    4.1574 H   0  0  0  0  0  0  0  0  0  0  0  0
   -2.4122   -0.5351    4.7596 H   0  0  0  0  0  0  0  0  0  0  0  0
   -0.7038   -0.9953    4.6813 H   0  0  0  0  0  0  0  0  0  0  0  0
    3.5882    0.0753   -2.5990 H   0  0  0  0  0  0  0  0  0  0  0  0
    4.7439    1.4342    0.6122 H   0  0  0  0  0  0  0  0  0  0  0  0
    5.9602    0.1567   -1.9372 H   0  0  0  0  0  0  0  0  0  0  0  0
    6.9068    0.9090   -0.5560 H   0  0  0  0  0  0  0  0  0  0  0  0
    4.8465    1.7223   -3.5260 H   0  0  0  0  0  0  0  0  0  0  0  0
    4.5529    4.0118   -4.2427 H   0  0  0  0  0  0  0  0  0  0  0  0
    5.2152    5.9075   -2.7762 H   0  0  0  0  0  0  0  0  0  0  0  0
    6.1513    5.4080   -0.5913 H   0  0  0  0  0  0  0  0  0  0  0  0
    6.4399    3.1258    0.1662 H   0  0  0  0  0  0  0  0  0  0  0  0
    6.4999   -0.3670    0.9975 H   0  0  0  0  0  0  0  0  0  0  0  0
    5.1739   -1.7329    3.9249 H   0  0  0  0  0  0  0  0  0  0  0  0
    5.2356   -3.0715    2.7679 H   0  0  0  0  0  0  0  0  0  0  0  0
    7.4533   -1.4412    3.7384 H   0  0  0  0  0  0  0  0  0  0  0  0
    9.2758   -0.7955    2.2012 H   0  0  0  0  0  0  0  0  0  0  0  0
   10.3122   -3.1518    0.5594 H   0  0  0  0  0  0  0  0  0  0  0  0
   10.8971   -1.9849   -1.7764 H   0  0  0  0  0  0  0  0  0  0  0  0
   12.6935   -2.7757   -0.3102 H   0  0  0  0  0  0  0  0  0  0  0  0
   13.3542   -1.8383   -1.6730 H   0  0  0  0  0  0  0  0  0  0  0  0
   14.3879    0.3340   -1.4601 H   0  0  0  0  0  0  0  0  0  0  0  0
   15.4724    1.9129    0.0820 H   0  0  0  0  0  0  0  0  0  0  0  0
   13.8107    0.0013    3.4597 H   0  0  0  0  0  0  0  0  0  0  0  0
   12.6673   -1.6607    1.9307 H   0  0  0  0  0  0  0  0  0  0  0  0
   15.8397    1.5822    3.4794 H   0  0  0  0  0  0  0  0  0  0  0  0
   11.5958    0.8063   -1.2659 H   0  0  0  0  0  0  0  0  0  0  0  0
   12.3002   -0.0396   -2.5958 H   0  0  0  0  0  0  0  0  0  0  0  0
   10.8866   -2.6089    3.2674 H   0  0  0  0  0  0  0  0  0  0  0  0
    9.5199   -1.9264    4.1636 H   0  0  0  0  0  0  0  0  0  0  0  0
    9.3003   -3.5235    3.4557 H   0  0  0  0  0  0  0  0  0  0  0  0
    0.6235    3.8264   -2.0687 H   0  0  0  0  0  0  0  0  0  0  0  0
    0.9606    2.4398   -0.9731 H   0  0  0  0  0  0  0  0  0  0  0  0
   -0.5420    2.4412   -2.0594 H   0  0  0  0  0  0  0  0  0  0  0  0
  1  2  1  0
  2  3  1  0
  3  4  1  0
  4  5  1  0
  5  6  2  0
  5  7  1  0
  7  8  1  0
  8  9  1  0
  9 10  1  0
 10 11  1  0
 11 12  1  0
 12 13  2  0
 12 14  1  0
 14 15  1  0
 15 16  1  0
 16 17  2  0
 16 18  1  0
 18 19  1  0
 19 20  1  0
 20 21  2  0
 20 22  1  0
 22 23  1  0
 23 24  1  0
 24 25  2  0
 25 26  1  0
 26 27  2  0
 27 28  1  0
 28 29  2  0
 28 30  1  0
 30 31  1  0
 30 32  1  0
 30 33  1  0
 26 34  1  0
 34 35  1  0
 34 36  1  0
 34 37  1  0
 19 38  1  0
 38 39  1  0
 39 40  2  0
 40 41  1  0
 41 42  1  0
 42 43  2  0
 43 44  1  0
 44 45  2  0
 45 46  1  0
 46 47  2  0
 15 48  1  0
 48 49  1  0
 49 50  1  0
 49 51  1  0
  4 52  1  0
 52 53  1  0
 53 54  2  0
 53 55  1  0
 55 56  1  0
 56 57  1  0
 57 58  2  0
 58 59  1  0
 59 60  2  0
 60 61  1  0
 61 62  2  0
 55 63  1  0
 63 64  1  0
 64 65  2  0
 64 66  1  0
 66 67  1  0
 67 68  1  0
 68 69  2  0
 68 70  1  0
 70 71  1  0
 71 72  1  0
 72 73  2  0
 72 74  1  0
 74 75  1  0
 75 76  1  0
 76 77  2  0
 77 78  1  0
 78 79  2  0
 79 80  1  0
 80 81  2  0
 79 82  1  0
 74 83  1  0
 70 84  1  0
  2 85  1  0
 11  7  1  0
 29 24  1  0
 43 39  1  0
 62 57  1  0
 81 76  1  0
 47 42  1  0
  1 86  1  0
  1 87  1  0
  1 88  1  0
  2 89  1  0
  3 90  1  0
  3 91  1  0
  4 92  1  1
  8 93  1  0
  8 94  1  0
  9 95  1  0
  9 96  1  0
 10 97  1  0
 10 98  1  0
 11 99  1  6
 14100  1  0
 15101  1  1
 18102  1  0
 19103  1  6
 23104  1  0
 23105  1  0
 25106  1  0
 27107  1  0
 29108  1  0
 38109  1  0
 38110  1  0
 40111  1  0
 41112  1  0
 44113  1  0
 45114  1  0
 46115  1  0
 47116  1  0
 48117  1  0
 48118  1  0
 49119  1  0
 50120  1  0
 50121  1  0
 50122  1  0
 51123  1  0
 51124  1  0
 51125  1  0
 52126  1  0
 55127  1  1
 56128  1  0
 56129  1  0
 58130  1  0
 59131  1  0
 60132  1  0
 61133  1  0
 62134  1  0
 63135  1  0
 66136  1  0
 66137  1  0
 67138  1  0
 70139  1  1
 71140  1  0
 74141  1  6
 75142  1  0
 75143  1  0
 77144  1  0
 78145  1  0
 80146  1  0
 81147  1  0
 82148  1  0
 83149  1  0
 83150  1  0
 84151  1  0
 84152  1  0
 84153  1  0
 85154  1  0
 85155  1  0
 85156  1  0
M  END
>  <Ligand ID>  (1) 
LIG0005373

>  <Ligand>  (1) 
CHEMBL389651

>  <SMILES>  (1) 
CC(C[C@@H](C(=O)N1CCC[C@H]1C(=O)N[C@H](C(=O)N[C@H](C(=O)OCc1cc(cc(c1)C(F)(F)F)C(F)(F)F)Cc1c[nH]c2c1cccc2)CC(C)C)NC(=O)[C@H](Cc1ccccc1)NC(=O)CNC(=O)[C@H](NC(=O)[C@H](Cc1ccc(cc1)O)N)C)C

>  <CID>  (1) 
16737629.0

>  <ChEMBL ID>  (1) 
nan

>  <InChiKey>  (1) 
HTNOITRQNGWBCW-CYLPJFJESA-N

>  <InChi>  (1) 
InChI=1S/C60H71F6N9O10/c1-33(2)22-46(54(80)74-49(28-39-30-68-45-15-10-9-14-43(39)45)58(84)85-32-38-24-40(59(61,62)63)29-41(25-38)60(64,65)66)72-56(82)50-16-11-21-75(50)57(83)48(23-34(3)4)73-55(81)47(27-36-12-7-6-8-13-36)71-51(77)31-69-52(78)35(5)70-53(79)44(67)26-37-17-19-42(76)20-18-37/h6-10,12-15,17-20,24-25,29-30,33-35,44,46-50,68,76H,11,16,21-23,26-28,31-32,67H2,1-5H3,(H,69,78)(H,70,79)(H,71,77)(H,72,82)(H,73,81)(H,74,80)/t35-,44+,46+,47+,48+,49+,50+/m1/s1

>  <IUPAC Name>  (1) 
[3,5-bis(trifluoromethyl)phenyl]methyl (2S)-2-[[(2S)-2-[[(2S)-1-[(2S)-2-[[(2S)-2-[[2-[[(2R)-2-[[(2S)-2-amino-3-(4-hydroxyphenyl)propanoyl]amino]propanoyl]amino]acetyl]amino]-3-phenylpropanoyl]amino]-4-methylpentanoyl]pyrrolidine-2-carbonyl]amino]-4-methylpentanoyl]amino]-3-(1H-indol-3-yl)propanoate

$$$$
