
     RDKit          3D

121123  0  0  0  0  0  0  0  0999 V2000
   10.7869   -0.5946    2.9705 N   0  0  0  0  0  0  0  0  0  0  0  0
    9.6556   -1.1459    2.2429 C   0  0  0  0  0  0  0  0  0  0  0  0
    8.9732    0.0096    1.5369 C   0  0  0  0  0  0  0  0  0  0  0  0
    7.7853   -0.4126    0.7569 C   0  0  1  0  0  0  0  0  0  0  0  0
    8.1367   -1.4251   -0.3232 C   0  0  0  0  0  0  0  0  0  0  0  0
    7.4713   -2.4782   -0.4629 O   0  0  0  0  0  0  0  0  0  0  0  0
    9.2551   -1.0918   -1.1486 N   0  0  0  0  0  0  0  0  0  0  0  0
    9.6479   -1.9910   -2.2169 C   0  0  0  0  0  0  0  0  0  0  0  0
   10.8463   -1.3782   -2.8884 C   0  0  0  0  0  0  0  0  0  0  0  0
   11.4012   -1.9438   -3.8721 O   0  0  0  0  0  0  0  0  0  0  0  0
   11.3981   -0.1394   -2.4386 N   0  0  0  0  0  0  0  0  0  0  0  0
    6.6567   -0.8619    1.5148 N   0  0  0  0  0  0  0  0  0  0  0  0
    5.3605   -0.6914    0.9657 C   0  0  0  0  0  0  0  0  0  0  0  0
    5.1586   -0.1711   -0.1618 O   0  0  0  0  0  0  0  0  0  0  0  0
    4.1183   -1.1300    1.7087 C   0  0  2  0  0  0  0  0  0  0  0  0
    4.2987   -2.4998    2.2826 C   0  0  0  0  0  0  0  0  0  0  0  0
    4.1429   -3.3772    1.0918 C   0  0  0  0  0  0  0  0  0  0  0  0
    3.2739   -2.6657    0.1057 C   0  0  0  0  0  0  0  0  0  0  0  0
    3.0937   -1.2995    0.7145 N   0  0  0  0  0  0  0  0  0  0  0  0
    2.0582   -0.5202    0.2135 C   0  0  0  0  0  0  0  0  0  0  0  0
    1.3601   -1.1030   -0.7348 O   0  0  0  0  0  0  0  0  0  0  0  0
    1.5749    0.8390    0.5172 C   0  0  2  0  0  0  0  0  0  0  0  0
    1.1701    1.0804    1.9241 C   0  0  0  0  0  0  0  0  0  0  0  0
    0.3811    2.7072    2.0592 S   0  0  0  0  0  0  0  0  0  0  0  0
   -0.5341    3.0584    3.9124 S   0  0  0  0  0  0  0  0  0  0  0  0
   -2.2899    2.5951    3.9659 C   0  0  0  0  0  0  0  0  0  0  0  0
   -2.4090    1.1310    3.7619 C   0  0  2  0  0  0  0  0  0  0  0  0
   -1.9010    0.7234    2.4516 N   0  0  0  0  0  0  0  0  0  0  0  0
   -3.8126    0.5979    3.8158 C   0  0  0  0  0  0  0  0  0  0  0  0
   -4.5756    0.7587    4.7768 O   0  0  0  0  0  0  0  0  0  0  0  0
   -4.3446   -0.1447    2.7241 N   0  0  0  0  0  0  0  0  0  0  0  0
   -5.6899   -0.7090    2.6777 C   0  0  0  0  0  0  0  0  0  0  0  0
   -6.7112    0.3671    2.8843 C   0  0  0  0  0  0  0  0  0  0  0  0
   -7.2727   -0.4233    4.0511 C   0  0  0  0  0  0  0  0  0  0  0  0
   -6.1642   -1.4539    3.8617 C   0  0  0  0  0  0  0  0  0  0  0  0
   -5.7809   -1.4192    1.3467 C   0  0  0  0  0  0  0  0  0  0  0  0
   -5.4846   -2.6092    1.1907 O   0  0  0  0  0  0  0  0  0  0  0  0
   -6.2230   -0.7364    0.1848 N   0  0  0  0  0  0  0  0  0  0  0  0
   -6.2674   -1.2605   -1.1559 C   0  0  2  0  0  0  0  0  0  0  0  0
   -5.4585   -0.2582   -1.9590 C   0  0  0  0  0  0  0  0  0  0  0  0
   -5.4428   -0.2169   -3.1848 O   0  0  0  0  0  0  0  0  0  0  0  0
   -4.6571    0.6901   -1.2771 N   0  0  0  0  0  0  0  0  0  0  0  0
   -3.8851    1.7687   -1.9252 C   0  0  2  0  0  0  0  0  0  0  0  0
   -2.5107    1.3570   -2.1656 C   0  0  0  0  0  0  0  0  0  0  0  0
   -2.2433    0.1163   -1.9569 O   0  0  0  0  0  0  0  0  0  0  0  0
   -1.3925    2.0878   -2.5879 N   0  0  0  0  0  0  0  0  0  0  0  0
   -0.0955    1.5523   -2.9227 C   0  0  2  0  0  0  0  0  0  0  0  0
    0.8072    1.2541   -1.8117 C   0  0  0  0  0  0  0  0  0  0  0  0
    2.0161    1.0591   -2.0649 O   0  0  0  0  0  0  0  0  0  0  0  0
    0.4700    1.1486   -0.4342 N   0  0  0  0  0  0  0  0  0  0  0  0
    0.6044    2.2717   -4.0266 C   0  0  0  0  0  0  0  0  0  0  0  0
   -0.2453    2.2096   -5.2707 C   0  0  0  0  0  0  0  0  0  0  0  0
   -1.3568    1.6670   -5.2396 O   0  0  0  0  0  0  0  0  0  0  0  0
    0.2282    2.7691   -6.4706 N   0  0  0  0  0  0  0  0  0  0  0  0
   -4.0073    2.9527   -1.0369 C   0  0  0  0  0  0  0  0  0  0  0  0
   -3.3217    4.1787   -1.4820 C   0  0  0  0  0  0  0  0  0  0  0  0
   -2.3994    4.7173   -0.7873 O   0  0  0  0  0  0  0  0  0  0  0  0
   -3.7327    4.7484   -2.7397 N   0  0  0  0  0  0  0  0  0  0  0  0
   -7.6080   -1.4017   -1.7809 C   0  0  2  0  0  0  0  0  0  0  0  0
   -8.5433   -2.3300   -1.0575 C   0  0  0  0  0  0  0  0  0  0  0  0
   -8.8583   -1.9529    0.3487 C   0  0  0  0  0  0  0  0  0  0  0  0
   -7.4133   -1.9073   -3.2040 C   0  0  0  0  0  0  0  0  0  0  0  0
   11.6783   -0.6070    2.4325 H   0  0  0  0  0  0  0  0  0  0  0  0
   10.8830   -0.9742    3.9289 H   0  0  0  0  0  0  0  0  0  0  0  0
   10.0150   -1.9316    1.5830 H   0  0  0  0  0  0  0  0  0  0  0  0
    8.9535   -1.5268    3.0283 H   0  0  0  0  0  0  0  0  0  0  0  0
    9.6479    0.5874    0.9068 H   0  0  0  0  0  0  0  0  0  0  0  0
    8.6356    0.6941    2.3470 H   0  0  0  0  0  0  0  0  0  0  0  0
    7.4389    0.4582    0.1241 H   0  0  0  0  0  0  0  0  0  0  0  0
    9.7722   -0.2000   -0.9636 H   0  0  0  0  0  0  0  0  0  0  0  0
    9.8679   -3.0147   -1.9005 H   0  0  0  0  0  0  0  0  0  0  0  0
    8.8649   -1.9863   -3.0327 H   0  0  0  0  0  0  0  0  0  0  0  0
   10.9376    0.7862   -2.5975 H   0  0  0  0  0  0  0  0  0  0  0  0
   12.3254   -0.1616   -1.9137 H   0  0  0  0  0  0  0  0  0  0  0  0
    6.7859   -1.3106    2.4717 H   0  0  0  0  0  0  0  0  0  0  0  0
    3.8808   -0.3800    2.4933 H   0  0  0  0  0  0  0  0  0  0  0  0
    5.2761   -2.6257    2.7975 H   0  0  0  0  0  0  0  0  0  0  0  0
    3.5350   -2.7315    3.0220 H   0  0  0  0  0  0  0  0  0  0  0  0
    3.6793   -4.3435    1.4079 H   0  0  0  0  0  0  0  0  0  0  0  0
    5.1600   -3.6104    0.6704 H   0  0  0  0  0  0  0  0  0  0  0  0
    2.2913   -3.1424   -0.0409 H   0  0  0  0  0  0  0  0  0  0  0  0
    3.8020   -2.4861   -0.8636 H   0  0  0  0  0  0  0  0  0  0  0  0
    2.4091    1.5114    0.1519 H   0  0  0  0  0  0  0  0  0  0  0  0
    0.6709    0.2626    2.4195 H   0  0  0  0  0  0  0  0  0  0  0  0
    2.1613    1.1771    2.5071 H   0  0  0  0  0  0  0  0  0  0  0  0
   -2.7545    2.9544    4.8835 H   0  0  0  0  0  0  0  0  0  0  0  0
   -2.7886    3.0790    3.0733 H   0  0  0  0  0  0  0  0  0  0  0  0
   -1.8473    0.5198    4.5014 H   0  0  0  0  0  0  0  0  0  0  0  0
   -2.2876    1.2460    1.6639 H   0  0  0  0  0  0  0  0  0  0  0  0
   -1.7295   -0.2745    2.3558 H   0  0  0  0  0  0  0  0  0  0  0  0
   -3.7009   -0.2557    1.9311 H   0  0  0  0  0  0  0  0  0  0  0  0
   -7.4428    0.5509    2.0957 H   0  0  0  0  0  0  0  0  0  0  0  0
   -6.2584    1.3521    3.2159 H   0  0  0  0  0  0  0  0  0  0  0  0
   -8.3006   -0.7844    3.8098 H   0  0  0  0  0  0  0  0  0  0  0  0
   -7.2366    0.1296    4.9908 H   0  0  0  0  0  0  0  0  0  0  0  0
   -5.4686   -1.3972    4.7283 H   0  0  0  0  0  0  0  0  0  0  0  0
   -6.5912   -2.4589    3.6617 H   0  0  0  0  0  0  0  0  0  0  0  0
   -6.5383    0.2294    0.3310 H   0  0  0  0  0  0  0  0  0  0  0  0
   -5.7293   -2.2709   -1.1627 H   0  0  0  0  0  0  0  0  0  0  0  0
   -4.6270    0.6008   -0.2573 H   0  0  0  0  0  0  0  0  0  0  0  0
   -4.3453    1.9826   -2.9314 H   0  0  0  0  0  0  0  0  0  0  0  0
   -1.5071    3.1009   -2.6685 H   0  0  0  0  0  0  0  0  0  0  0  0
   -0.3697    0.5118   -3.3505 H   0  0  0  0  0  0  0  0  0  0  0  0
   -0.4896    1.2862   -0.1801 H   0  0  0  0  0  0  0  0  0  0  0  0
    0.7947    3.3283   -3.8264 H   0  0  0  0  0  0  0  0  0  0  0  0
    1.5876    1.7752   -4.2563 H   0  0  0  0  0  0  0  0  0  0  0  0
   -0.0746    2.3124   -7.3629 H   0  0  0  0  0  0  0  0  0  0  0  0
    0.8488    3.5913   -6.5703 H   0  0  0  0  0  0  0  0  0  0  0  0
   -3.5862    2.6242   -0.0289 H   0  0  0  0  0  0  0  0  0  0  0  0
   -5.0938    3.1723   -0.8036 H   0  0  0  0  0  0  0  0  0  0  0  0
   -3.5935    4.1205   -3.5664 H   0  0  0  0  0  0  0  0  0  0  0  0
   -4.1375    5.7145   -2.8096 H   0  0  0  0  0  0  0  0  0  0  0  0
   -8.1138   -0.4186   -1.8217 H   0  0  0  0  0  0  0  0  0  0  0  0
   -8.2241   -3.4040   -1.1640 H   0  0  0  0  0  0  0  0  0  0  0  0
   -9.5188   -2.3009   -1.6330 H   0  0  0  0  0  0  0  0  0  0  0  0
   -9.9708   -2.0246    0.5652 H   0  0  0  0  0  0  0  0  0  0  0  0
   -8.3912   -2.6327    1.1062 H   0  0  0  0  0  0  0  0  0  0  0  0
   -8.5924   -0.9136    0.6185 H   0  0  0  0  0  0  0  0  0  0  0  0
   -8.1142   -2.7549   -3.3893 H   0  0  0  0  0  0  0  0  0  0  0  0
   -7.5777   -1.0796   -3.9191 H   0  0  0  0  0  0  0  0  0  0  0  0
   -6.4002   -2.3288   -3.3639 H   0  0  0  0  0  0  0  0  0  0  0  0
  1  2  1  0
  2  3  1  0
  3  4  1  0
  4  5  1  0
  5  6  2  0
  5  7  1  0
  7  8  1  0
  8  9  1  0
  9 10  2  0
  9 11  1  0
  4 12  1  0
 12 13  1  0
 13 14  2  0
 13 15  1  0
 15 16  1  0
 16 17  1  0
 17 18  1  0
 18 19  1  0
 19 20  1  0
 20 21  2  0
 20 22  1  0
 22 23  1  0
 23 24  1  0
 24 25  1  0
 25 26  1  0
 26 27  1  0
 27 28  1  0
 27 29  1  0
 29 30  2  0
 29 31  1  0
 31 32  1  0
 32 33  1  0
 33 34  1  0
 34 35  1  0
 32 36  1  0
 36 37  2  0
 36 38  1  0
 38 39  1  0
 39 40  1  0
 40 41  2  0
 40 42  1  0
 42 43  1  0
 43 44  1  0
 44 45  2  0
 44 46  1  0
 46 47  1  0
 47 48  1  0
 48 49  2  0
 48 50  1  0
 47 51  1  0
 51 52  1  0
 52 53  2  0
 52 54  1  0
 43 55  1  0
 55 56  1  0
 56 57  2  0
 56 58  1  0
 39 59  1  0
 59 60  1  0
 60 61  1  0
 59 62  1  0
 19 15  1  0
 50 22  1  0
 35 32  1  0
  1 63  1  0
  1 64  1  0
  2 65  1  0
  2 66  1  0
  3 67  1  0
  3 68  1  0
  4 69  1  6
  7 70  1  0
  8 71  1  0
  8 72  1  0
 11 73  1  0
 11 74  1  0
 12 75  1  0
 15 76  1  1
 16 77  1  0
 16 78  1  0
 17 79  1  0
 17 80  1  0
 18 81  1  0
 18 82  1  0
 22 83  1  6
 23 84  1  0
 23 85  1  0
 26 86  1  0
 26 87  1  0
 27 88  1  1
 28 89  1  0
 28 90  1  0
 31 91  1  0
 33 92  1  0
 33 93  1  0
 34 94  1  0
 34 95  1  0
 35 96  1  0
 35 97  1  0
 38 98  1  0
 39 99  1  1
 42100  1  0
 43101  1  6
 46102  1  0
 47103  1  6
 50104  1  0
 51105  1  0
 51106  1  0
 54107  1  0
 54108  1  0
 55109  1  0
 55110  1  0
 58111  1  0
 58112  1  0
 59113  1  6
 60114  1  0
 60115  1  0
 61116  1  0
 61117  1  0
 61118  1  0
 62119  1  0
 62120  1  0
 62121  1  0
M  END
>  <Ligand ID>  (1) 
LIG0001626

>  <Ligand>  (1) 
CHEMBL1817767

>  <SMILES>  (1) 
NCC[C@@H](C(=O)NCC(=O)N)NC(=O)[C@@H]1CCCN1C(=O)[C@@H]1CSSC[C@H](N)C(=O)NC2(CCC2)C(=O)N[C@H](C(=O)N[C@H](C(=O)N[C@H](C(=O)N1)CC(=O)N)CC(=O)N)[C@H](CC)C

>  <CID>  (1) 
53362913.0

>  <ChEMBL ID>  (1) 
nan

>  <InChiKey>  (1) 
DPRWQFYKMXBCRX-DJCJEFMLSA-N

>  <InChi>  (1) 
InChI=1S/C36H59N13O11S2/c1-3-17(2)27-33(58)45-21(13-25(40)51)30(55)44-20(12-24(39)50)31(56)46-22(16-62-61-15-18(38)28(53)48-36(8-5-9-36)35(60)47-27)34(59)49-11-4-6-23(49)32(57)43-19(7-10-37)29(54)42-14-26(41)52/h17-23,27H,3-16,37-38H2,1-2H3,(H2,39,50)(H2,40,51)(H2,41,52)(H,42,54)(H,43,57)(H,44,55)(H,45,58)(H,46,56)(H,47,60)(H,48,53)/t17-,18-,19-,20-,21-,22-,23-,27-/m0/s1

>  <IUPAC Name>  (1) 
(2S)-N-[(2S)-4-amino-1-[(2-amino-2-oxoethyl)amino]-1-oxobutan-2-yl]-1-[(7R,12R,15S,18S,21S)-7-amino-15,18-bis(2-amino-2-oxoethyl)-21-[(2S)-butan-2-yl]-6,14,17,20,23-pentaoxo-9,10-dithia-5,13,16,19,22-pentazaspiro[3.19]tricosane-12-carbonyl]pyrrolidine-2-carboxamide

$$$$
