
     RDKit          3D

 40 39  0  0  0  0  0  0  0  0999 V2000
   -3.2381   -2.8118   -0.0438 O   0  0  0  0  0  0  0  0  0  0  0  0
   -2.1492   -2.0307    0.3836 C   0  0  0  0  0  0  0  0  0  0  0  0
   -2.0031   -1.7691    1.6035 O   0  0  0  0  0  0  0  0  0  0  0  0
   -1.2296   -1.5635   -0.6816 C   0  0  1  0  0  0  0  0  0  0  0  0
   -1.9438   -0.5108   -1.5015 C   0  0  0  0  0  0  0  0  0  0  0  0
   -1.9355    0.6435   -0.5007 C   0  0  2  0  0  0  0  0  0  0  0  0
   -0.7274    0.3804    0.3909 C   0  0  0  0  0  0  0  0  0  0  0  0
   -0.1828   -0.7809   -0.1248 N   0  0  0  0  0  0  0  0  0  0  0  0
    0.9232   -1.4351    0.4030 C   0  0  0  0  0  0  0  0  0  0  0  0
    2.0986   -0.5403    0.4457 C   0  0  0  0  0  0  0  0  0  0  0  0
    3.0195   -0.6830   -0.5964 C   0  0  0  0  0  0  0  0  0  0  0  0
    4.1489    0.1043   -0.6828 C   0  0  0  0  0  0  0  0  0  0  0  0
    4.3810    1.0627    0.2859 C   0  0  0  0  0  0  0  0  0  0  0  0
    3.4696    1.1843    1.2935 C   0  0  0  0  0  0  0  0  0  0  0  0
    2.3285    0.4077    1.4052 C   0  0  0  0  0  0  0  0  0  0  0  0
    1.4521    0.5786    2.4462 O   0  0  0  0  0  0  0  0  0  0  0  0
   -3.1672    0.5735    0.2605 N   0  0  0  0  0  0  0  0  0  0  0  0
   -1.7829    1.9426   -1.1811 C   0  0  0  0  0  0  0  0  0  0  0  0
   -0.7239    2.0968   -1.8788 O   0  0  0  0  0  0  0  0  0  0  0  0
   -2.7037    2.9767   -1.1060 O   0  0  0  0  0  0  0  0  0  0  0  0
    0.6851    0.0000    0.0000 Cl  0  0  0  0  0  0  0  0  0  0  0  0
    0.6891    0.0000    0.0000 Cl  0  0  0  0  0  0  0  0  0  0  0  0
   -3.8037   -3.2751    0.6569 H   0  0  0  0  0  0  0  0  0  0  0  0
   -0.8934   -2.4215   -1.2873 H   0  0  0  0  0  0  0  0  0  0  0  0
   -1.2961   -0.2425   -2.3768 H   0  0  0  0  0  0  0  0  0  0  0  0
   -2.9685   -0.7985   -1.7862 H   0  0  0  0  0  0  0  0  0  0  0  0
   -1.0902    0.3656    1.4452 H   0  0  0  0  0  0  0  0  0  0  0  0
   -0.0673    1.2788    0.3366 H   0  0  0  0  0  0  0  0  0  0  0  0
    0.7035   -1.7164    1.4597 H   0  0  0  0  0  0  0  0  0  0  0  0
    1.1574   -2.3659   -0.1350 H   0  0  0  0  0  0  0  0  0  0  0  0
    2.8816   -1.4198   -1.3802 H   0  0  0  0  0  0  0  0  0  0  0  0
    4.8656   -0.0124   -1.5021 H   0  0  0  0  0  0  0  0  0  0  0  0
    5.2756    1.6591    0.1817 H   0  0  0  0  0  0  0  0  0  0  0  0
    3.6653    1.9434    2.0469 H   0  0  0  0  0  0  0  0  0  0  0  0
    1.4246    1.5006    2.9011 H   0  0  0  0  0  0  0  0  0  0  0  0
   -3.9507    0.1860   -0.3027 H   0  0  0  0  0  0  0  0  0  0  0  0
   -3.4459    1.5646    0.4981 H   0  0  0  0  0  0  0  0  0  0  0  0
   -2.4920    3.9280   -1.3762 H   0  0  0  0  0  0  0  0  0  0  0  0
   -0.6851    0.0000    0.0000 H   0  0  0  0  0  0  0  0  0  0  0  0
   -0.6891    0.0000    0.0000 H   0  0  0  0  0  0  0  0  0  0  0  0
  1  2  1  0
  2  3  2  0
  2  4  1  0
  4  5  1  0
  5  6  1  0
  6  7  1  0
  7  8  1  0
  8  9  1  0
  9 10  1  0
 10 11  2  0
 11 12  1  0
 12 13  2  0
 13 14  1  0
 14 15  2  0
 15 16  1  0
  6 17  1  1
  6 18  1  0
 18 19  2  0
 18 20  1  0
  8  4  1  0
 15 10  1  0
  1 23  1  0
  4 24  1  6
  5 25  1  0
  5 26  1  0
  7 27  1  0
  7 28  1  0
  9 29  1  0
  9 30  1  0
 11 31  1  0
 12 32  1  0
 13 33  1  0
 14 34  1  0
 16 35  1  0
 17 36  1  0
 17 37  1  0
 20 38  1  0
 21 39  1  0
 22 40  1  0
M  END
>  <Ligand ID>  (1) 
LIG0005690

>  <Ligand>  (1) 
CHEMBL540015

>  <SMILES>  (1) 
OC(=O)[C@H]1C[C@](CN1Cc1ccccc1O)(N)C(=O)O.Cl.Cl

>  <CID>  (1) 
10473247.0

>  <ChEMBL ID>  (1) 
nan

>  <InChiKey>  (1) 
LIMPMGWGIUKFMF-LLCUTAAJSA-N

>  <InChi>  (1) 
InChI=1S/C13H16N2O5.2ClH/c14-13(12(19)20)5-9(11(17)18)15(7-13)6-8-3-1-2-4-10(8)16;;/h1-4,9,16H,5-7,14H2,(H,17,18)(H,19,20);2*1H/t9-,13-;;/m1../s1

>  <IUPAC Name>  (1) 
(2R,4R)-4-amino-1-[(2-hydroxyphenyl)methyl]pyrrolidine-2,4-dicarboxylic acid;dihydrochloride

$$$$
