
     RDKit          3D

215223  0  0  0  0  0  0  0  0999 V2000
    9.5687    1.1987    0.0204 N   0  0  0  0  0  0  0  0  0  0  0  0
    9.0417    1.0696    1.3487 C   0  0  0  0  0  0  0  0  0  0  0  0
    9.2287    0.0250    2.0826 N   0  0  0  0  0  0  0  0  0  0  0  0
    8.2875    2.1311    1.9081 N   0  0  0  0  0  0  0  0  0  0  0  0
    7.6082    2.1578    3.1304 C   0  0  0  0  0  0  0  0  0  0  0  0
    6.3257    1.4775    3.3978 C   0  0  0  0  0  0  0  0  0  0  0  0
    5.1294    1.8772    2.6514 C   0  0  0  0  0  0  0  0  0  0  0  0
    4.9693    1.4535    1.2206 C   0  0  2  0  0  0  0  0  0  0  0  0
    3.7445    2.1202    0.6969 N   0  0  0  0  0  0  0  0  0  0  0  0
    3.5555    2.5107   -0.6402 C   0  0  0  0  0  0  0  0  0  0  0  0
    4.4653    2.1857   -1.4874 O   0  0  0  0  0  0  0  0  0  0  0  0
    2.4210    3.2432   -1.1760 C   0  0  1  0  0  0  0  0  0  0  0  0
    1.3228    2.3925   -1.8131 C   0  0  0  0  0  0  0  0  0  0  0  0
    1.8646    0.9326   -2.6715 S   0  0  0  0  0  0  0  0  0  0  0  0
    2.0736   -0.4777   -1.5709 C   0  0  0  0  0  0  0  0  0  0  0  0
    2.9955   -0.4110   -0.5033 C   0  0  0  0  0  0  0  0  0  0  0  0
    2.4156   -0.0848    0.6396 O   0  0  0  0  0  0  0  0  0  0  0  0
    4.3342   -0.5647   -0.1182 N   0  0  0  0  0  0  0  0  0  0  0  0
    4.6659   -0.0751    1.2500 C   0  0  0  0  0  0  0  0  0  0  0  0
    5.4159   -1.0807   -0.8371 C   0  0  1  0  0  0  0  0  0  0  0  0
    6.7009   -0.3186   -0.7066 C   0  0  0  0  0  0  0  0  0  0  0  0
    7.7459   -1.0295   -1.5069 C   0  0  0  0  0  0  0  0  0  0  0  0
    7.8416   -0.7857   -2.8651 C   0  0  0  0  0  0  0  0  0  0  0  0
    8.8239   -1.4448   -3.5477 C   0  0  0  0  0  0  0  0  0  0  0  0
    9.6401   -2.2940   -2.8627 C   0  0  0  0  0  0  0  0  0  0  0  0
    9.5490   -2.5450   -1.4984 C   0  0  0  0  0  0  0  0  0  0  0  0
    8.5686   -1.8838   -0.8185 C   0  0  0  0  0  0  0  0  0  0  0  0
   10.7117   -3.0105   -3.5585 C   0  0  0  0  0  0  0  0  0  0  0  0
   11.1203   -4.2517   -3.1216 C   0  0  0  0  0  0  0  0  0  0  0  0
   12.1444   -4.8953   -3.7953 C   0  0  0  0  0  0  0  0  0  0  0  0
   12.7512   -4.3089   -4.8887 C   0  0  0  0  0  0  0  0  0  0  0  0
   12.3040   -3.0722   -5.2797 C   0  0  0  0  0  0  0  0  0  0  0  0
   11.2870   -2.3791   -4.6504 C   0  0  0  0  0  0  0  0  0  0  0  0
    5.6566   -2.5352   -0.3036 C   0  0  0  0  0  0  0  0  0  0  0  0
    6.3547   -3.3054   -1.0060 O   0  0  0  0  0  0  0  0  0  0  0  0
    5.1388   -2.9938    0.8948 N   0  0  0  0  0  0  0  0  0  0  0  0
    5.3618   -4.4387    1.2531 C   0  0  1  0  0  0  0  0  0  0  0  0
    6.1987   -4.5005    2.4978 C   0  0  0  0  0  0  0  0  0  0  0  0
    6.5171   -5.8798    2.9165 C   0  0  0  0  0  0  0  0  0  0  0  0
    6.1856   -6.9219    2.3165 O   0  0  0  0  0  0  0  0  0  0  0  0
    7.2739   -6.0357    4.1145 N   0  0  0  0  0  0  0  0  0  0  0  0
    3.9941   -5.0449    1.4293 C   0  0  0  0  0  0  0  0  0  0  0  0
    3.8118   -6.2532    1.7037 O   0  0  0  0  0  0  0  0  0  0  0  0
    2.8314   -4.2414    1.2838 N   0  0  0  0  0  0  0  0  0  0  0  0
    1.4638   -4.7602    1.4158 C   0  0  1  0  0  0  0  0  0  0  0  0
    0.9017   -4.3248    2.7734 C   0  0  0  0  0  0  0  0  0  0  0  0
    0.6437   -4.1752    0.3580 C   0  0  0  0  0  0  0  0  0  0  0  0
    1.2481   -3.3079   -0.3925 O   0  0  0  0  0  0  0  0  0  0  0  0
   -0.6897   -4.4122    0.0328 N   0  0  0  0  0  0  0  0  0  0  0  0
   -1.4021   -3.6971   -1.0444 C   0  0  1  0  0  0  0  0  0  0  0  0
   -1.4268   -4.4607   -2.3263 C   0  0  0  0  0  0  0  0  0  0  0  0
   -2.0612   -5.7714   -2.2951 C   0  0  0  0  0  0  0  0  0  0  0  0
   -3.3866   -6.0122   -2.5830 C   0  0  0  0  0  0  0  0  0  0  0  0
   -3.9676   -7.2557   -2.5437 C   0  0  0  0  0  0  0  0  0  0  0  0
   -3.1407   -8.3126   -2.1895 C   0  0  0  0  0  0  0  0  0  0  0  0
   -1.8083   -8.1507   -1.8902 C   0  0  0  0  0  0  0  0  0  0  0  0
   -1.2781   -6.8802   -1.9454 C   0  0  0  0  0  0  0  0  0  0  0  0
   -2.6578   -3.2030   -0.5323 C   0  0  0  0  0  0  0  0  0  0  0  0
   -2.9020   -3.3416    0.7229 O   0  0  0  0  0  0  0  0  0  0  0  0
   -3.7018   -2.5661   -1.2573 N   0  0  0  0  0  0  0  0  0  0  0  0
   -4.9185   -2.0878   -0.6582 C   0  0  1  0  0  0  0  0  0  0  0  0
   -5.5296   -0.8837   -1.2471 C   0  0  0  0  0  0  0  0  0  0  0  0
   -4.7459    0.6942   -0.7783 S   0  0  0  0  0  0  0  0  0  0  0  0
   -5.1791    1.0698    1.3016 S   0  0  0  0  0  0  0  0  0  0  0  0
   -6.7038    1.9898    1.4765 C   0  0  0  0  0  0  0  0  0  0  0  0
   -6.6005    3.4609    1.0638 C   0  0  1  0  0  0  0  0  0  0  0  0
   -5.6838    4.1618    1.9878 C   0  0  0  0  0  0  0  0  0  0  0  0
   -6.1731    4.2607    3.1840 O   0  0  0  0  0  0  0  0  0  0  0  0
   -4.4175    4.6863    1.7107 N   0  0  0  0  0  0  0  0  0  0  0  0
   -3.5641    5.3976    2.6588 C   0  0  2  0  0  0  0  0  0  0  0  0
   -2.1741    5.5172    2.2777 C   0  0  0  0  0  0  0  0  0  0  0  0
   -1.3429    5.9312    3.1339 O   0  0  0  0  0  0  0  0  0  0  0  0
   -1.6026    5.2232    0.9902 N   0  0  0  0  0  0  0  0  0  0  0  0
   -0.1332    5.2219    0.9644 C   0  0  1  0  0  0  0  0  0  0  0  0
    0.4220    4.4892   -0.1929 C   0  0  0  0  0  0  0  0  0  0  0  0
   -0.2822    4.3900   -1.2167 O   0  0  0  0  0  0  0  0  0  0  0  0
    1.7073    3.9343   -0.0619 N   0  0  0  0  0  0  0  0  0  0  0  0
    0.3186    6.6949    0.8107 C   0  0  0  0  0  0  0  0  0  0  0  0
    1.8121    6.6852    0.7878 C   0  0  0  0  0  0  0  0  0  0  0  0
    2.4830    6.7687    2.0043 C   0  0  0  0  0  0  0  0  0  0  0  0
    3.8709    6.7612    2.0795 C   0  0  0  0  0  0  0  0  0  0  0  0
    4.6040    6.6694    0.9144 C   0  0  0  0  0  0  0  0  0  0  0  0
    3.9349    6.5884   -0.2871 C   0  0  0  0  0  0  0  0  0  0  0  0
    2.5427    6.5942   -0.3737 C   0  0  0  0  0  0  0  0  0  0  0  0
   -3.7673    4.9369    4.0955 C   0  0  0  0  0  0  0  0  0  0  0  0
   -2.8452    5.6338    5.0150 C   0  0  0  0  0  0  0  0  0  0  0  0
   -1.6406    5.2513    5.5627 C   0  0  0  0  0  0  0  0  0  0  0  0
   -1.1813    6.1791    6.4235 N   0  0  0  0  0  0  0  0  0  0  0  0
   -2.1225    7.1622    6.4127 C   0  0  0  0  0  0  0  0  0  0  0  0
   -3.1156    6.8418    5.5780 N   0  0  0  0  0  0  0  0  0  0  0  0
   -6.3065    3.5994   -0.3212 N   0  0  0  0  0  0  0  0  0  0  0  0
   -7.4210    3.9861   -1.1610 C   0  0  0  0  0  0  0  0  0  0  0  0
   -8.5796    4.1751   -0.6343 O   0  0  0  0  0  0  0  0  0  0  0  0
   -7.3499    4.1882   -2.6078 C   0  0  2  0  0  0  0  0  0  0  0  0
   -6.6391    5.5206   -2.8520 C   0  0  0  0  0  0  0  0  0  0  0  0
   -6.5689    5.7589   -4.3182 C   0  0  0  0  0  0  0  0  0  0  0  0
   -5.5213    5.3551   -5.1111 C   0  0  0  0  0  0  0  0  0  0  0  0
   -5.6067    5.6378   -6.4659 C   0  0  0  0  0  0  0  0  0  0  0  0
   -6.6969    6.2974   -7.0113 C   0  0  0  0  0  0  0  0  0  0  0  0
   -7.7544    6.7051   -6.2138 C   0  0  0  0  0  0  0  0  0  0  0  0
   -7.6696    6.4256   -4.8676 C   0  0  0  0  0  0  0  0  0  0  0  0
   -6.7289    6.5544   -8.3733 O   0  0  0  0  0  0  0  0  0  0  0  0
   -8.7160    4.4153   -3.0844 N   0  0  0  0  0  0  0  0  0  0  0  0
   -5.8936   -3.2242   -0.5569 C   0  0  0  0  0  0  0  0  0  0  0  0
   -5.6863   -4.3702   -0.9946 O   0  0  0  0  0  0  0  0  0  0  0  0
   -7.1194   -2.9089    0.1008 N   0  0  0  0  0  0  0  0  0  0  0  0
   -8.1692   -3.9077    0.3174 C   0  0  2  0  0  0  0  0  0  0  0  0
   -9.4298   -3.4273   -0.2349 C   0  0  0  0  0  0  0  0  0  0  0  0
  -10.5234   -4.0655   -0.2113 O   0  0  0  0  0  0  0  0  0  0  0  0
   -9.5108   -2.1321   -0.8731 N   0  0  0  0  0  0  0  0  0  0  0  0
   -8.2729   -4.0173    1.8263 C   0  0  0  0  0  0  0  0  0  0  0  0
   -9.2956   -4.9901    2.2182 C   0  0  0  0  0  0  0  0  0  0  0  0
  -10.5947   -4.6172    2.4786 C   0  0  0  0  0  0  0  0  0  0  0  0
  -11.5201   -5.5489    2.8494 C   0  0  0  0  0  0  0  0  0  0  0  0
  -11.1146   -6.8860    2.9546 C   0  0  0  0  0  0  0  0  0  0  0  0
   -9.8220   -7.2861    2.6988 C   0  0  0  0  0  0  0  0  0  0  0  0
   -8.9167   -6.3072    2.3276 C   0  0  0  0  0  0  0  0  0  0  0  0
  -12.0306   -7.8497    3.3247 O   0  0  0  0  0  0  0  0  0  0  0  0
    9.0011    1.7470   -0.6431 H   0  0  0  0  0  0  0  0  0  0  0  0
   10.4789    0.7651   -0.2645 H   0  0  0  0  0  0  0  0  0  0  0  0
    9.7767   -0.7994    1.7628 H   0  0  0  0  0  0  0  0  0  0  0  0
    8.2476    3.0144    1.3003 H   0  0  0  0  0  0  0  0  0  0  0  0
    7.5869    3.2302    3.5438 H   0  0  0  0  0  0  0  0  0  0  0  0
    8.3441    1.6778    3.8907 H   0  0  0  0  0  0  0  0  0  0  0  0
    6.0738    1.5288    4.5140 H   0  0  0  0  0  0  0  0  0  0  0  0
    6.5455    0.3616    3.2996 H   0  0  0  0  0  0  0  0  0  0  0  0
    5.0371    3.0071    2.6280 H   0  0  0  0  0  0  0  0  0  0  0  0
    4.2084    1.4844    3.1771 H   0  0  0  0  0  0  0  0  0  0  0  0
    5.7865    1.6265    0.5935 H   0  0  0  0  0  0  0  0  0  0  0  0
    2.9962    2.3134    1.4071 H   0  0  0  0  0  0  0  0  0  0  0  0
    2.6368    3.9972   -1.9177 H   0  0  0  0  0  0  0  0  0  0  0  0
    0.5574    2.1180   -1.0645 H   0  0  0  0  0  0  0  0  0  0  0  0
    0.7752    3.0137   -2.5977 H   0  0  0  0  0  0  0  0  0  0  0  0
    1.0097   -0.6262   -1.1111 H   0  0  0  0  0  0  0  0  0  0  0  0
    2.0845   -1.3991   -2.2290 H   0  0  0  0  0  0  0  0  0  0  0  0
    5.6252   -0.4756    1.6213 H   0  0  0  0  0  0  0  0  0  0  0  0
    3.9428   -0.3199    2.0162 H   0  0  0  0  0  0  0  0  0  0  0  0
    5.3261   -1.2873   -1.9409 H   0  0  0  0  0  0  0  0  0  0  0  0
    6.6559    0.6747   -1.2249 H   0  0  0  0  0  0  0  0  0  0  0  0
    7.0646   -0.2977    0.3157 H   0  0  0  0  0  0  0  0  0  0  0  0
    7.1711   -0.1107   -3.3364 H   0  0  0  0  0  0  0  0  0  0  0  0
    8.9649   -1.3066   -4.6021 H   0  0  0  0  0  0  0  0  0  0  0  0
   10.2064   -3.2233   -0.9746 H   0  0  0  0  0  0  0  0  0  0  0  0
    8.4386   -2.0320    0.2394 H   0  0  0  0  0  0  0  0  0  0  0  0
   10.6515   -4.7287   -2.2624 H   0  0  0  0  0  0  0  0  0  0  0  0
   12.5136   -5.8755   -3.4945 H   0  0  0  0  0  0  0  0  0  0  0  0
   13.5523   -4.8406   -5.3881 H   0  0  0  0  0  0  0  0  0  0  0  0
   12.7810   -2.6066   -6.1594 H   0  0  0  0  0  0  0  0  0  0  0  0
   10.9624   -1.4058   -4.9833 H   0  0  0  0  0  0  0  0  0  0  0  0
    4.6015   -2.5019    1.6248 H   0  0  0  0  0  0  0  0  0  0  0  0
    5.8974   -4.9098    0.4298 H   0  0  0  0  0  0  0  0  0  0  0  0
    5.7194   -3.9420    3.3411 H   0  0  0  0  0  0  0  0  0  0  0  0
    7.1991   -4.0391    2.2499 H   0  0  0  0  0  0  0  0  0  0  0  0
    6.9369   -6.6666    4.8930 H   0  0  0  0  0  0  0  0  0  0  0  0
    8.1969   -5.5144    4.2346 H   0  0  0  0  0  0  0  0  0  0  0  0
    2.8676   -3.2053    1.0599 H   0  0  0  0  0  0  0  0  0  0  0  0
    1.4603   -5.8487    1.3895 H   0  0  0  0  0  0  0  0  0  0  0  0
    1.6282   -4.5918    3.5676 H   0  0  0  0  0  0  0  0  0  0  0  0
    0.6640   -3.2567    2.6899 H   0  0  0  0  0  0  0  0  0  0  0  0
    0.0102   -4.9637    2.9472 H   0  0  0  0  0  0  0  0  0  0  0  0
   -1.2227   -5.1363    0.5720 H   0  0  0  0  0  0  0  0  0  0  0  0
   -0.7092   -2.8013   -1.2249 H   0  0  0  0  0  0  0  0  0  0  0  0
   -1.8698   -3.7844   -3.1021 H   0  0  0  0  0  0  0  0  0  0  0  0
   -0.3644   -4.6097   -2.6757 H   0  0  0  0  0  0  0  0  0  0  0  0
   -3.9901   -5.1817   -2.8698 H   0  0  0  0  0  0  0  0  0  0  0  0
   -5.0153   -7.4328   -2.7692 H   0  0  0  0  0  0  0  0  0  0  0  0
   -3.5947   -9.2777   -2.1575 H   0  0  0  0  0  0  0  0  0  0  0  0
   -1.1554   -8.9588   -1.6197 H   0  0  0  0  0  0  0  0  0  0  0  0
   -0.2261   -6.7314   -1.7090 H   0  0  0  0  0  0  0  0  0  0  0  0
   -3.5795   -2.4258   -2.2916 H   0  0  0  0  0  0  0  0  0  0  0  0
   -4.6768   -1.8082    0.4412 H   0  0  0  0  0  0  0  0  0  0  0  0
   -5.4805   -0.9124   -2.3820 H   0  0  0  0  0  0  0  0  0  0  0  0
   -6.6208   -0.8459   -1.0292 H   0  0  0  0  0  0  0  0  0  0  0  0
   -7.5165    1.4952    0.8785 H   0  0  0  0  0  0  0  0  0  0  0  0
   -7.0222    1.9878    2.5337 H   0  0  0  0  0  0  0  0  0  0  0  0
   -7.6369    3.8549    1.2669 H   0  0  0  0  0  0  0  0  0  0  0  0
   -4.0440    4.5612    0.7382 H   0  0  0  0  0  0  0  0  0  0  0  0
   -4.0566    6.4339    2.7078 H   0  0  0  0  0  0  0  0  0  0  0  0
   -2.1677    5.0296    0.1432 H   0  0  0  0  0  0  0  0  0  0  0  0
    0.2164    4.8473    1.9261 H   0  0  0  0  0  0  0  0  0  0  0  0
    2.2087    4.0033    0.8445 H   0  0  0  0  0  0  0  0  0  0  0  0
   -0.0643    7.1166   -0.1302 H   0  0  0  0  0  0  0  0  0  0  0  0
   -0.0048    7.2295    1.7253 H   0  0  0  0  0  0  0  0  0  0  0  0
    1.9343    6.8426    2.9316 H   0  0  0  0  0  0  0  0  0  0  0  0
    4.3231    6.8266    3.0703 H   0  0  0  0  0  0  0  0  0  0  0  0
    5.6947    6.6691    0.9738 H   0  0  0  0  0  0  0  0  0  0  0  0
    4.5003    6.5225   -1.1981 H   0  0  0  0  0  0  0  0  0  0  0  0
    2.0316    6.5382   -1.3165 H   0  0  0  0  0  0  0  0  0  0  0  0
   -4.8188    5.2109    4.4093 H   0  0  0  0  0  0  0  0  0  0  0  0
   -3.5731    3.8507    4.1702 H   0  0  0  0  0  0  0  0  0  0  0  0
   -1.1275    4.3223    5.3352 H   0  0  0  0  0  0  0  0  0  0  0  0
   -0.3077    6.1760    6.9907 H   0  0  0  0  0  0  0  0  0  0  0  0
   -2.1053    8.0802    6.9814 H   0  0  0  0  0  0  0  0  0  0  0  0
   -5.3822    3.4460   -0.7742 H   0  0  0  0  0  0  0  0  0  0  0  0
   -6.8546    3.3703   -3.1272 H   0  0  0  0  0  0  0  0  0  0  0  0
   -5.6129    5.5166   -2.4556 H   0  0  0  0  0  0  0  0  0  0  0  0
   -7.2003    6.3071   -2.3191 H   0  0  0  0  0  0  0  0  0  0  0  0
   -4.6981    4.8416   -4.6608 H   0  0  0  0  0  0  0  0  0  0  0  0
   -4.7894    5.3399   -7.1388 H   0  0  0  0  0  0  0  0  0  0  0  0
   -8.6177    7.2166   -6.6046 H   0  0  0  0  0  0  0  0  0  0  0  0
   -8.4998    6.7418   -4.2298 H   0  0  0  0  0  0  0  0  0  0  0  0
   -7.5980    6.8363   -8.8008 H   0  0  0  0  0  0  0  0  0  0  0  0
   -8.8194    4.0372   -4.0302 H   0  0  0  0  0  0  0  0  0  0  0  0
   -9.3902    3.9731   -2.4213 H   0  0  0  0  0  0  0  0  0  0  0  0
   -7.3378   -1.9506    0.4783 H   0  0  0  0  0  0  0  0  0  0  0  0
   -7.8565   -4.8779   -0.1118 H   0  0  0  0  0  0  0  0  0  0  0  0
   -9.6068   -2.1761   -1.9237 H   0  0  0  0  0  0  0  0  0  0  0  0
   -9.4730   -1.2464   -0.3422 H   0  0  0  0  0  0  0  0  0  0  0  0
   -8.5273   -2.9956    2.2277 H   0  0  0  0  0  0  0  0  0  0  0  0
   -7.2834   -4.3707    2.2136 H   0  0  0  0  0  0  0  0  0  0  0  0
  -10.9360   -3.5729    2.4107 H   0  0  0  0  0  0  0  0  0  0  0  0
  -12.5385   -5.2382    3.0504 H   0  0  0  0  0  0  0  0  0  0  0  0
   -9.5180   -8.3165    2.7882 H   0  0  0  0  0  0  0  0  0  0  0  0
   -7.8690   -6.5689    2.1164 H   0  0  0  0  0  0  0  0  0  0  0  0
  -12.0284   -8.1741    4.2943 H   0  0  0  0  0  0  0  0  0  0  0  0
  1  2  1  0
  2  3  2  3
  2  4  1  0
  4  5  1  0
  5  6  1  0
  6  7  1  0
  7  8  1  0
  8  9  1  0
  9 10  1  0
 10 11  2  0
 10 12  1  0
 12 13  1  0
 13 14  1  0
 14 15  1  0
 15 16  1  0
 16 17  2  0
 16 18  1  0
 18 19  1  0
 18 20  1  0
 20 21  1  0
 21 22  1  0
 22 23  2  0
 23 24  1  0
 24 25  2  0
 25 26  1  0
 26 27  2  0
 25 28  1  0
 28 29  2  0
 29 30  1  0
 30 31  2  0
 31 32  1  0
 32 33  2  0
 20 34  1  0
 34 35  2  0
 34 36  1  0
 36 37  1  0
 37 38  1  0
 38 39  1  0
 39 40  2  0
 39 41  1  0
 37 42  1  0
 42 43  2  0
 42 44  1  0
 44 45  1  0
 45 46  1  0
 45 47  1  0
 47 48  2  0
 47 49  1  0
 49 50  1  0
 50 51  1  0
 51 52  1  0
 52 53  2  0
 53 54  1  0
 54 55  2  0
 55 56  1  0
 56 57  2  0
 50 58  1  0
 58 59  2  0
 58 60  1  0
 60 61  1  0
 61 62  1  0
 62 63  1  0
 63 64  1  0
 64 65  1  0
 65 66  1  0
 66 67  1  0
 67 68  2  0
 67 69  1  0
 69 70  1  0
 70 71  1  0
 71 72  2  0
 71 73  1  0
 73 74  1  0
 74 75  1  0
 75 76  2  0
 75 77  1  0
 74 78  1  0
 78 79  1  0
 79 80  2  0
 80 81  1  0
 81 82  2  0
 82 83  1  0
 83 84  2  0
 70 85  1  0
 85 86  1  0
 86 87  2  0
 87 88  1  0
 88 89  1  0
 89 90  2  0
 66 91  1  0
 91 92  1  0
 92 93  2  0
 92 94  1  0
 94 95  1  0
 95 96  1  0
 96 97  2  0
 97 98  1  0
 98 99  2  0
 99100  1  0
100101  2  0
 99102  1  0
 94103  1  0
 61104  1  0
104105  2  0
104106  1  0
106107  1  0
107108  1  0
108109  2  0
108110  1  0
107111  1  0
111112  1  0
112113  2  0
113114  1  0
114115  2  0
115116  1  0
116117  2  0
115118  1  0
 19  8  1  0
 27 22  1  0
 33 28  1  0
 57 52  1  0
 84 79  1  0
 90 86  1  0
101 96  1  0
117112  1  0
 77 12  1  0
  1119  1  0
  1120  1  0
  3121  1  0
  4122  1  0
  5123  1  0
  5124  1  0
  6125  1  0
  6126  1  0
  7127  1  0
  7128  1  0
  8129  1  6
  9130  1  0
 12131  1  6
 13132  1  0
 13133  1  0
 15134  1  0
 15135  1  0
 19136  1  0
 19137  1  0
 20138  1  6
 21139  1  0
 21140  1  0
 23141  1  0
 24142  1  0
 26143  1  0
 27144  1  0
 29145  1  0
 30146  1  0
 31147  1  0
 32148  1  0
 33149  1  0
 36150  1  0
 37151  1  6
 38152  1  0
 38153  1  0
 41154  1  0
 41155  1  0
 44156  1  0
 45157  1  1
 46158  1  0
 46159  1  0
 46160  1  0
 49161  1  0
 50162  1  6
 51163  1  0
 51164  1  0
 53165  1  0
 54166  1  0
 55167  1  0
 56168  1  0
 57169  1  0
 60170  1  0
 61171  1  1
 62172  1  0
 62173  1  0
 65174  1  0
 65175  1  0
 66176  1  6
 69177  1  0
 70178  1  1
 73179  1  0
 74180  1  1
 77181  1  0
 78182  1  0
 78183  1  0
 80184  1  0
 81185  1  0
 82186  1  0
 83187  1  0
 84188  1  0
 85189  1  0
 85190  1  0
 87191  1  0
 88192  1  0
 89193  1  0
 91194  1  0
 94195  1  6
 95196  1  0
 95197  1  0
 97198  1  0
 98199  1  0
100200  1  0
101201  1  0
102202  1  0
103203  1  0
103204  1  0
106205  1  0
107206  1  6
110207  1  0
110208  1  0
111209  1  0
111210  1  0
113211  1  0
114212  1  0
116213  1  0
117214  1  0
118215  1  0
M  END
>  <Ligand ID>  (1) 
LIG0001142

>  <Ligand>  (1) 
CID 71605013

>  <SMILES>  (1) 
NC(=N)NCCC[C@@H]1NC(=O)[C@H]2CSCC(=O)N(C1)[C@@H](Cc1ccc(cc1)c1ccccc1)C(=O)N[C@@H](CC(=O)N)C(=O)N[C@@H](C)C(=O)N[C@@H](Cc1ccccc1)C(=O)N[C@@H](CSSC[C@@H](C(=O)N[C@H](C(=O)N[C@@H](C(=O)N2)Cc1ccccc1)Cc1c[nH]cn1)NC(=O)[C@H](Cc1ccc(cc1)O)N)C(=O)N[C@H](C(=O)N)Cc1ccc(cc1)O

>  <CID>  (1) 
71605013.0

>  <ChEMBL ID>  (1) 
nan

>  <InChiKey>  (1) 
NEZJXKKVAAYZDD-FGKMWJJFSA-N

>  <InChi>  (1) 
InChI=1S/C81H97N19O15S3/c1-46-71(106)93-60(34-47-12-5-2-6-13-47)74(109)99-66(78(113)92-59(70(84)105)33-50-23-29-57(102)30-24-50)43-118-117-42-65(97-72(107)58(82)32-49-21-27-56(101)28-22-49)79(114)95-62(37-55-39-87-45-89-55)76(111)94-61(35-48-14-7-3-8-15-48)75(110)98-64-41-116-44-69(104)100(40-54(91-77(64)112)18-11-31-88-81(85)86)67(80(115)96-63(38-68(83)103)73(108)90-46)36-51-19-25-53(26-20-51)52-16-9-4-10-17-52/h2-10,12-17,19-30,39,45-46,54,58-67,101-102H,11,18,31-38,40-44,82H2,1H3,(H2,83,103)(H2,84,105)(H,87,89)(H,90,108)(H,91,112)(H,92,113)(H,93,106)(H,94,111)(H,95,114)(H,96,115)(H,97,107)(H,98,110)(H,99,109)(H4,85,86,88)/t46-,54-,58-,59-,60-,61+,62-,63-,64+,65-,66-,67-/m0/s1

>  <IUPAC Name>  (1) 
(2S,5S,8S,11S,14R,19R,22S,25R,28S,34S)-N-[(2S)-1-amino-3-(4-hydroxyphenyl)-1-oxopropan-2-yl]-19-[[(2S)-2-amino-3-(4-hydroxyphenyl)propanoyl]amino]-5-(2-amino-2-oxoethyl)-11,25-dibenzyl-34-(3-carbamimidamidopropyl)-22-(1H-imidazol-4-ylmethyl)-8-methyl-3,6,9,12,20,23,26,32,36-nonaoxo-2-[(4-phenylphenyl)methyl]-16,17,30-trithia-1,4,7,10,13,21,24,27,35-nonazabicyclo[26.4.4]hexatriacontane-14-carboxamide

$$$$
