
     RDKit          3D

 56 57  0  0  0  0  0  0  0  0999 V2000
    0.6351   -0.8377    0.2257 O   0  0  0  0  0  0  0  0  0  0  0  0
    1.0129    0.1379   -0.4825 C   0  0  0  0  0  0  0  0  0  0  0  0
    0.0364    1.0469   -1.0166 N   0  0  0  0  0  0  0  0  0  0  0  0
   -1.3588    0.8288   -0.7348 C   0  0  0  0  0  0  0  0  0  0  0  0
   -1.6469   -0.1772   -0.0159 N   0  0  0  0  0  0  0  0  0  0  0  0
   -3.0683   -0.4270    0.2900 C   0  0  0  0  0  0  0  0  0  0  0  0
   -3.7379   -0.9491   -0.9491 C   0  0  0  0  0  0  0  0  0  0  0  0
   -5.1966   -1.2825   -0.7983 C   0  0  0  0  0  0  0  0  0  0  0  0
   -6.0332   -0.1373   -0.3800 C   0  0  0  0  0  0  0  0  0  0  0  0
   -7.0259    0.8972   -1.4846 S   0  0  0  0  0  0  0  0  0  0  0  0
   -7.5990    1.9684   -0.0077 C   0  0  0  0  0  0  0  0  0  0  0  0
   -7.0482    1.4508    0.8591 N   0  0  0  0  0  0  0  0  0  0  0  0
   -6.2426    0.4154    0.8841 C   0  0  0  0  0  0  0  0  0  0  0  0
   -5.6379   -0.1163    2.1621 C   0  0  0  0  0  0  0  0  0  0  0  0
   -8.4985    3.0613   -0.3127 N   0  0  0  0  0  0  0  0  0  0  0  0
   -2.2695    1.7530   -1.2837 N   0  0  0  0  0  0  0  0  0  0  0  0
    2.4615    0.3788   -0.7853 C   0  0  0  0  0  0  0  0  0  0  0  0
    3.2642   -0.6842   -0.1086 C   0  0  0  0  0  0  0  0  0  0  0  0
    4.7452   -0.5515   -0.3395 C   0  0  0  0  0  0  0  0  0  0  0  0
    5.5161   -1.6413    0.3622 C   0  0  0  0  0  0  0  0  0  0  0  0
    6.9241   -1.2086    0.6819 C   0  0  0  0  0  0  0  0  0  0  0  0
    6.9462   -0.0650    1.6488 C   0  0  0  0  0  0  0  0  0  0  0  0
    5.7021    0.7615    1.5094 C   0  0  0  0  0  0  0  0  0  0  0  0
    5.2922    0.7792    0.0429 C   0  0  0  0  0  0  0  0  0  0  0  0
    2.7747   -2.0384   -0.5738 C   0  0  0  0  0  0  0  0  0  0  0  0
    0.3716    1.8427   -1.5966 H   0  0  0  0  0  0  0  0  0  0  0  0
   -3.1078   -1.0963    1.1580 H   0  0  0  0  0  0  0  0  0  0  0  0
   -3.4763    0.5958    0.4816 H   0  0  0  0  0  0  0  0  0  0  0  0
   -3.7010   -0.0986   -1.6960 H   0  0  0  0  0  0  0  0  0  0  0  0
   -3.1642   -1.8068   -1.3885 H   0  0  0  0  0  0  0  0  0  0  0  0
   -5.5327   -1.6144   -1.8131 H   0  0  0  0  0  0  0  0  0  0  0  0
   -5.2674   -2.1187   -0.0647 H   0  0  0  0  0  0  0  0  0  0  0  0
   -6.3558   -0.1144    2.9983 H   0  0  0  0  0  0  0  0  0  0  0  0
   -4.8038    0.5458    2.4809 H   0  0  0  0  0  0  0  0  0  0  0  0
   -5.3416   -1.1754    2.0213 H   0  0  0  0  0  0  0  0  0  0  0  0
   -9.3082    2.8944   -0.9637 H   0  0  0  0  0  0  0  0  0  0  0  0
   -8.3125    3.9976    0.1307 H   0  0  0  0  0  0  0  0  0  0  0  0
   -2.8649    2.4070   -0.7341 H   0  0  0  0  0  0  0  0  0  0  0  0
   -2.3437    1.7727   -2.3376 H   0  0  0  0  0  0  0  0  0  0  0  0
    2.6852    1.4006   -0.4827 H   0  0  0  0  0  0  0  0  0  0  0  0
    2.5606    0.2035   -1.8944 H   0  0  0  0  0  0  0  0  0  0  0  0
    3.1045   -0.5746    0.9947 H   0  0  0  0  0  0  0  0  0  0  0  0
    4.9053   -0.6948   -1.4398 H   0  0  0  0  0  0  0  0  0  0  0  0
    5.0052   -1.8918    1.3192 H   0  0  0  0  0  0  0  0  0  0  0  0
    5.5876   -2.5591   -0.2756 H   0  0  0  0  0  0  0  0  0  0  0  0
    7.4407   -2.0667    1.1713 H   0  0  0  0  0  0  0  0  0  0  0  0
    7.4974   -1.0067   -0.2434 H   0  0  0  0  0  0  0  0  0  0  0  0
    7.8094    0.6180    1.4467 H   0  0  0  0  0  0  0  0  0  0  0  0
    7.0068   -0.4623    2.7041 H   0  0  0  0  0  0  0  0  0  0  0  0
    5.9251    1.7992    1.8574 H   0  0  0  0  0  0  0  0  0  0  0  0
    4.8447    0.3566    2.0876 H   0  0  0  0  0  0  0  0  0  0  0  0
    4.6876    1.6502   -0.2028 H   0  0  0  0  0  0  0  0  0  0  0  0
    6.2638    0.9292   -0.5133 H   0  0  0  0  0  0  0  0  0  0  0  0
    2.3218   -2.5763    0.2851 H   0  0  0  0  0  0  0  0  0  0  0  0
    3.6271   -2.5942   -0.9957 H   0  0  0  0  0  0  0  0  0  0  0  0
    1.9882   -1.9254   -1.3506 H   0  0  0  0  0  0  0  0  0  0  0  0
  1  2  2  0
  2  3  1  0
  3  4  1  0
  4  5  2  3
  5  6  1  0
  6  7  1  0
  7  8  1  0
  8  9  1  0
  9 10  1  0
 10 11  1  0
 11 12  2  0
 12 13  1  0
 13 14  1  0
 11 15  1  0
  4 16  1  0
  2 17  1  0
 17 18  1  0
 18 19  1  0
 19 20  1  0
 20 21  1  0
 21 22  1  0
 22 23  1  0
 23 24  1  0
 18 25  1  0
 13  9  2  0
 24 19  1  0
  3 26  1  0
  6 27  1  0
  6 28  1  0
  7 29  1  0
  7 30  1  0
  8 31  1  0
  8 32  1  0
 14 33  1  0
 14 34  1  0
 14 35  1  0
 15 36  1  0
 15 37  1  0
 16 38  1  0
 16 39  1  0
 17 40  1  0
 17 41  1  0
 18 42  1  0
 19 43  1  0
 20 44  1  0
 20 45  1  0
 21 46  1  0
 21 47  1  0
 22 48  1  0
 22 49  1  0
 23 50  1  0
 23 51  1  0
 24 52  1  0
 24 53  1  0
 25 54  1  0
 25 55  1  0
 25 56  1  0
M  END
>  <Ligand ID>  (1) 
LIG0000951

>  <Ligand>  (1) 
CHEMBL1094142

>  <SMILES>  (1) 
O=C(NC(=NCCCc1sc(nc1C)N)N)CC(C1CCCCC1)C

>  <CID>  (1) 
46887079.0

>  <ChEMBL ID>  (1) 
nan

>  <InChiKey>  (1) 
WWEBJYNVUIMDCZ-UHFFFAOYSA-N

>  <InChi>  (1) 
InChI=1S/C18H31N5OS/c1-12(14-7-4-3-5-8-14)11-16(24)23-17(19)21-10-6-9-15-13(2)22-18(20)25-15/h12,14H,3-11H2,1-2H3,(H2,20,22)(H3,19,21,23,24)

>  <IUPAC Name>  (1) 
N-[N'-[3-(2-amino-4-methyl-1,3-thiazol-5-yl)propyl]carbamimidoyl]-3-cyclohexylbutanamide

$$$$
