
     RDKit          3D

 66 69  0  0  0  0  0  0  0  0999 V2000
  -11.0855    1.7027    1.9175 O   0  0  0  0  0  0  0  0  0  0  0  0
  -10.2746    0.9809    1.2838 C   0  0  0  0  0  0  0  0  0  0  0  0
   -9.7038   -0.1995    1.5249 N   0  0  0  0  0  0  0  0  0  0  0  0
   -8.8846   -0.6963    0.6471 C   0  0  0  0  0  0  0  0  0  0  0  0
   -8.6245   -0.0125   -0.4921 C   0  0  0  0  0  0  0  0  0  0  0  0
   -9.6034    1.5010   -0.3836 S   0  0  0  0  0  0  0  0  0  0  0  0
   -7.7523   -0.3183   -1.6555 C   0  0  0  0  0  0  0  0  0  0  0  0
   -6.3262   -0.0896   -1.3053 C   0  0  0  0  0  0  0  0  0  0  0  0
   -5.7077    1.1351   -1.4542 C   0  0  0  0  0  0  0  0  0  0  0  0
   -4.3702    1.3010   -1.1160 C   0  0  0  0  0  0  0  0  0  0  0  0
   -3.6003    0.2690   -0.6214 C   0  0  0  0  0  0  0  0  0  0  0  0
   -4.2485   -0.9542   -0.4815 C   0  0  0  0  0  0  0  0  0  0  0  0
   -5.5744   -1.1352   -0.8125 C   0  0  0  0  0  0  0  0  0  0  0  0
   -2.2360    0.4027   -0.2648 N   0  0  0  0  0  0  0  0  0  0  0  0
   -1.4778    1.6187   -0.3384 C   0  0  0  0  0  0  0  0  0  0  0  0
   -0.7694    1.7917    1.0077 C   0  0  0  0  0  0  0  0  0  0  0  0
    0.2273    0.6978    1.1774 C   0  0  0  0  0  0  0  0  0  0  0  0
   -0.0636   -0.5168    0.3367 C   0  0  0  0  0  0  0  0  0  0  0  0
   -1.5443   -0.7853    0.2115 C   0  0  0  0  0  0  0  0  0  0  0  0
    1.5423    1.2002    0.8296 N   0  0  0  0  0  0  0  0  0  0  0  0
    2.5309    0.1442    0.9704 C   0  0  0  0  0  0  0  0  0  0  0  0
    3.8757    0.7186    0.5988 C   0  0  1  0  0  0  0  0  0  0  0  0
    4.9525   -0.3256    0.7336 C   0  0  0  0  0  0  0  0  0  0  0  0
    4.7207   -1.5114    1.3811 C   0  0  0  0  0  0  0  0  0  0  0  0
    5.7328   -2.4369    1.4783 C   0  0  0  0  0  0  0  0  0  0  0  0
    6.9721   -2.1747    0.9289 C   0  0  0  0  0  0  0  0  0  0  0  0
    7.2439   -0.9755    0.2616 C   0  0  0  0  0  0  0  0  0  0  0  0
    6.1965   -0.0838    0.1926 C   0  0  0  0  0  0  0  0  0  0  0  0
    8.5172   -0.7005   -0.3063 N   0  0  0  0  0  0  0  0  0  0  0  0
    8.8923    0.7801   -1.1091 S   0  0  0  0  0  0  0  0  0  0  0  0
    8.6235    1.9211   -0.1455 O   0  0  0  0  0  0  0  0  0  0  0  0
   10.3220    0.7496   -1.5239 O   0  0  0  0  0  0  0  0  0  0  0  0
    7.8795    1.0360   -2.5269 C   0  0  0  0  0  0  0  0  0  0  0  0
    8.0302   -3.0929    1.0068 O   0  0  0  0  0  0  0  0  0  0  0  0
    3.8699    1.1893   -0.7154 O   0  0  0  0  0  0  0  0  0  0  0  0
   -8.2445   -1.9655    0.8615 O   0  0  0  0  0  0  0  0  0  0  0  0
   -9.9434   -0.7046    2.4478 H   0  0  0  0  0  0  0  0  0  0  0  0
   -7.8864   -1.3591   -2.0383 H   0  0  0  0  0  0  0  0  0  0  0  0
   -7.9838    0.3883   -2.4796 H   0  0  0  0  0  0  0  0  0  0  0  0
   -6.3199    1.9376   -1.8431 H   0  0  0  0  0  0  0  0  0  0  0  0
   -3.9567    2.2853   -1.2609 H   0  0  0  0  0  0  0  0  0  0  0  0
   -3.6709   -1.7905   -0.0945 H   0  0  0  0  0  0  0  0  0  0  0  0
   -5.9712   -2.1359   -0.6614 H   0  0  0  0  0  0  0  0  0  0  0  0
   -2.0804    2.4877   -0.5946 H   0  0  0  0  0  0  0  0  0  0  0  0
   -0.6675    1.4500   -1.1054 H   0  0  0  0  0  0  0  0  0  0  0  0
   -0.2748    2.8022    0.9241 H   0  0  0  0  0  0  0  0  0  0  0  0
   -1.5406    1.8399    1.8112 H   0  0  0  0  0  0  0  0  0  0  0  0
    0.2452    0.4184    2.2557 H   0  0  0  0  0  0  0  0  0  0  0  0
    0.3837   -1.3946    0.8595 H   0  0  0  0  0  0  0  0  0  0  0  0
    0.3570   -0.4826   -0.6696 H   0  0  0  0  0  0  0  0  0  0  0  0
   -1.6702   -1.5585   -0.5796 H   0  0  0  0  0  0  0  0  0  0  0  0
   -2.0056   -1.1865    1.1297 H   0  0  0  0  0  0  0  0  0  0  0  0
    1.5706    1.6379   -0.1091 H   0  0  0  0  0  0  0  0  0  0  0  0
    2.5269   -0.1443    2.0266 H   0  0  0  0  0  0  0  0  0  0  0  0
    2.2304   -0.6850    0.3057 H   0  0  0  0  0  0  0  0  0  0  0  0
    4.1583    1.5440    1.2767 H   0  0  0  0  0  0  0  0  0  0  0  0
    3.7645   -1.7451    1.8198 H   0  0  0  0  0  0  0  0  0  0  0  0
    5.5472   -3.3690    1.9885 H   0  0  0  0  0  0  0  0  0  0  0  0
    6.3404    0.8547   -0.3052 H   0  0  0  0  0  0  0  0  0  0  0  0
    9.2458   -1.4668   -0.2119 H   0  0  0  0  0  0  0  0  0  0  0  0
    7.1006    1.8141   -2.3646 H   0  0  0  0  0  0  0  0  0  0  0  0
    7.3729    0.0910   -2.8483 H   0  0  0  0  0  0  0  0  0  0  0  0
    8.5099    1.4183   -3.3480 H   0  0  0  0  0  0  0  0  0  0  0  0
    8.0415   -3.7827    0.2661 H   0  0  0  0  0  0  0  0  0  0  0  0
    4.5180    1.9200   -0.8462 H   0  0  0  0  0  0  0  0  0  0  0  0
   -7.9790   -2.2496    1.8006 H   0  0  0  0  0  0  0  0  0  0  0  0
  1  2  2  0
  2  3  1  0
  3  4  1  0
  4  5  2  0
  5  6  1  0
  5  7  1  0
  7  8  1  0
  8  9  2  0
  9 10  1  0
 10 11  2  0
 11 12  1  0
 12 13  2  0
 11 14  1  0
 14 15  1  0
 15 16  1  0
 16 17  1  0
 17 18  1  0
 18 19  1  0
 17 20  1  0
 20 21  1  0
 21 22  1  0
 22 23  1  0
 23 24  2  0
 24 25  1  0
 25 26  2  0
 26 27  1  0
 27 28  2  0
 27 29  1  0
 29 30  1  0
 30 31  2  0
 30 32  2  0
 30 33  1  0
 26 34  1  0
 22 35  1  0
  4 36  1  0
  6  2  1  0
 13  8  1  0
 19 14  1  0
 28 23  1  0
  3 37  1  0
  7 38  1  0
  7 39  1  0
  9 40  1  0
 10 41  1  0
 12 42  1  0
 13 43  1  0
 15 44  1  0
 15 45  1  0
 16 46  1  0
 16 47  1  0
 17 48  1  0
 18 49  1  0
 18 50  1  0
 19 51  1  0
 19 52  1  0
 20 53  1  0
 21 54  1  0
 21 55  1  0
 22 56  1  1
 24 57  1  0
 25 58  1  0
 28 59  1  0
 29 60  1  0
 33 61  1  0
 33 62  1  0
 33 63  1  0
 34 64  1  0
 35 65  1  0
 36 66  1  0
M  END
>  <Ligand ID>  (1) 
LIG0004937

>  <Ligand>  (1) 
BDBM50097798

>  <SMILES>  (1) 
O=c1[nH]c(c(s1)Cc1ccc(cc1)N1CCC(CC1)NC[C@@H](c1ccc(c(c1)NS(=O)(=O)C)O)O)O

>  <CID>  (1) 
91931604.0

>  <ChEMBL ID>  (1) 
nan

>  <InChiKey>  (1) 
UCWNAIHSSOGALM-NRFANRHFSA-N

>  <InChi>  (1) 
InChI=1S/C24H30N4O6S2/c1-36(33,34)27-19-13-16(4-7-20(19)29)21(30)14-25-17-8-10-28(11-9-17)18-5-2-15(3-6-18)12-22-23(31)26-24(32)35-22/h2-7,13,17,21,25,27,29-31H,8-12,14H2,1H3,(H,26,32)/t21-/m0/s1

>  <IUPAC Name>  (1) 
N-[2-hydroxy-5-[(1R)-1-hydroxy-2-[[1-[4-[(4-hydroxy-2-oxo-3H-1,3-thiazol-5-yl)methyl]phenyl]piperidin-4-yl]amino]ethyl]phenyl]methanesulfonamide

$$$$
