
     RDKit          3D

 62 64  0  0  0  0  0  0  0  0999 V2000
    2.6295   -1.4258    1.3188 C   0  0  0  0  0  0  0  0  0  0  0  0
    2.8871   -1.5631   -0.1398 C   0  0  2  0  0  0  0  0  0  0  0  0
    1.7783   -2.2302   -0.9190 C   0  0  0  0  0  0  0  0  0  0  0  0
    0.5514   -1.4345   -0.7682 C   0  0  0  0  0  0  0  0  0  0  0  0
   -0.3893   -1.6257    0.2207 C   0  0  0  0  0  0  0  0  0  0  0  0
   -1.5318   -0.8623    0.3416 C   0  0  0  0  0  0  0  0  0  0  0  0
   -1.7749    0.1542   -0.5592 C   0  0  0  0  0  0  0  0  0  0  0  0
   -0.8430    0.3806   -1.5791 C   0  0  0  0  0  0  0  0  0  0  0  0
    0.2968   -0.4019   -1.6770 C   0  0  0  0  0  0  0  0  0  0  0  0
   -2.9802    0.9689   -0.4446 C   0  0  0  0  0  0  0  0  0  0  0  0
   -2.9574    2.2703   -0.8399 C   0  0  0  0  0  0  0  0  0  0  0  0
   -4.1171    3.0075   -0.7177 C   0  0  0  0  0  0  0  0  0  0  0  0
   -5.2942    2.4628   -0.2079 C   0  0  0  0  0  0  0  0  0  0  0  0
   -5.3119    1.1216    0.1975 C   0  0  0  0  0  0  0  0  0  0  0  0
   -4.1577    0.4272    0.0644 C   0  0  0  0  0  0  0  0  0  0  0  0
   -6.5070    0.6544    0.6889 O   0  0  0  0  0  0  0  0  0  0  0  0
   -6.7300   -0.6525    1.1433 C   0  0  0  0  0  0  0  0  0  0  0  0
   -7.1839   -0.6987    2.5833 C   0  0  0  0  0  0  0  0  0  0  0  0
   -7.7633   -1.2637    0.2144 C   0  0  0  0  0  0  0  0  0  0  0  0
   -6.4952    3.2813   -0.0977 C   0  0  0  0  0  0  0  0  0  0  0  0
   -7.5376    2.7719    0.3618 O   0  0  0  0  0  0  0  0  0  0  0  0
   -6.4651    4.5897   -0.4967 O   0  0  0  0  0  0  0  0  0  0  0  0
    4.1524   -2.1312   -0.4885 N   0  0  0  0  0  0  0  0  0  0  0  0
    5.2978   -1.4087   -0.0445 C   0  0  0  0  0  0  0  0  0  0  0  0
    5.4453   -0.0961   -0.7485 C   0  0  1  0  0  0  0  0  0  0  0  0
    6.6774    0.5675   -0.2490 C   0  0  0  0  0  0  0  0  0  0  0  0
    7.8933    0.0133   -0.6320 C   0  0  0  0  0  0  0  0  0  0  0  0
    9.0666    0.5963   -0.1924 C   0  0  0  0  0  0  0  0  0  0  0  0
    8.9792    1.7273    0.6249 C   0  0  0  0  0  0  0  0  0  0  0  0
    7.7916    2.2496    0.9852 N   0  0  0  0  0  0  0  0  0  0  0  0
    6.6212    1.6980    0.5684 C   0  0  0  0  0  0  0  0  0  0  0  0
    5.5702   -0.3988   -2.1236 O   0  0  0  0  0  0  0  0  0  0  0  0
    2.0387   -2.2971    1.6643 H   0  0  0  0  0  0  0  0  0  0  0  0
    3.5406   -1.4216    1.9418 H   0  0  0  0  0  0  0  0  0  0  0  0
    1.9865   -0.5240    1.5175 H   0  0  0  0  0  0  0  0  0  0  0  0
    2.9125   -0.5054   -0.5428 H   0  0  0  0  0  0  0  0  0  0  0  0
    2.1103   -2.2001   -1.9909 H   0  0  0  0  0  0  0  0  0  0  0  0
    1.6049   -3.2773   -0.6020 H   0  0  0  0  0  0  0  0  0  0  0  0
   -0.2409   -2.4023    0.9385 H   0  0  0  0  0  0  0  0  0  0  0  0
   -2.2501   -1.0594    1.1528 H   0  0  0  0  0  0  0  0  0  0  0  0
   -1.0424    1.1882   -2.2900 H   0  0  0  0  0  0  0  0  0  0  0  0
    1.0230   -0.2402   -2.4561 H   0  0  0  0  0  0  0  0  0  0  0  0
   -2.0351    2.6906   -1.2374 H   0  0  0  0  0  0  0  0  0  0  0  0
   -4.0587    4.0466   -1.0449 H   0  0  0  0  0  0  0  0  0  0  0  0
   -4.1042   -0.6082    0.3576 H   0  0  0  0  0  0  0  0  0  0  0  0
   -5.8316   -1.2915    1.0822 H   0  0  0  0  0  0  0  0  0  0  0  0
   -8.0013   -1.4558    2.6628 H   0  0  0  0  0  0  0  0  0  0  0  0
   -6.3869   -1.0641    3.2673 H   0  0  0  0  0  0  0  0  0  0  0  0
   -7.5345    0.2718    2.9549 H   0  0  0  0  0  0  0  0  0  0  0  0
   -8.7526   -0.9541    0.5719 H   0  0  0  0  0  0  0  0  0  0  0  0
   -7.6414   -2.3789    0.1374 H   0  0  0  0  0  0  0  0  0  0  0  0
   -7.5633   -0.8614   -0.8015 H   0  0  0  0  0  0  0  0  0  0  0  0
   -7.2435    5.2096   -0.3518 H   0  0  0  0  0  0  0  0  0  0  0  0
    4.2582   -3.1356   -0.2961 H   0  0  0  0  0  0  0  0  0  0  0  0
    6.1883   -2.0198   -0.3453 H   0  0  0  0  0  0  0  0  0  0  0  0
    5.3886   -1.3219    1.0603 H   0  0  0  0  0  0  0  0  0  0  0  0
    4.6172    0.6019   -0.6513 H   0  0  0  0  0  0  0  0  0  0  0  0
    7.9114   -0.8763   -1.2758 H   0  0  0  0  0  0  0  0  0  0  0  0
   10.0467    0.1874   -0.4738 H   0  0  0  0  0  0  0  0  0  0  0  0
    9.9332    2.1484    0.9443 H   0  0  0  0  0  0  0  0  0  0  0  0
    5.6534    2.1210    0.8601 H   0  0  0  0  0  0  0  0  0  0  0  0
    5.8745   -1.3196   -2.2522 H   0  0  0  0  0  0  0  0  0  0  0  0
  1  2  1  0
  2  3  1  0
  3  4  1  0
  4  5  2  0
  5  6  1  0
  6  7  2  0
  7  8  1  0
  8  9  2  0
  7 10  1  0
 10 11  2  0
 11 12  1  0
 12 13  2  0
 13 14  1  0
 14 15  2  0
 14 16  1  0
 16 17  1  0
 17 18  1  0
 17 19  1  0
 13 20  1  0
 20 21  2  0
 20 22  1  0
  2 23  1  0
 23 24  1  0
 24 25  1  0
 25 26  1  0
 26 27  2  0
 27 28  1  0
 28 29  2  0
 29 30  1  0
 30 31  2  0
 25 32  1  0
  9  4  1  0
 15 10  1  0
 31 26  1  0
  1 33  1  0
  1 34  1  0
  1 35  1  0
  2 36  1  6
  3 37  1  0
  3 38  1  0
  5 39  1  0
  6 40  1  0
  8 41  1  0
  9 42  1  0
 11 43  1  0
 12 44  1  0
 15 45  1  0
 17 46  1  0
 18 47  1  0
 18 48  1  0
 18 49  1  0
 19 50  1  0
 19 51  1  0
 19 52  1  0
 22 53  1  0
 23 54  1  0
 24 55  1  0
 24 56  1  0
 25 57  1  6
 27 58  1  0
 28 59  1  0
 29 60  1  0
 31 61  1  0
 32 62  1  0
M  END
>  <Ligand ID>  (1) 
LIG0002203

>  <Ligand>  (1) 
CHEMBL452798

>  <SMILES>  (1) 
C[C@H](Cc1ccc(cc1)c1ccc(c(c1)OC(C)C)C(=O)O)NC[C@@H](c1cccnc1)O

>  <CID>  (1) 
44560792.0

>  <ChEMBL ID>  (1) 
nan

>  <InChiKey>  (1) 
KUTLABBTBPWHLG-KOSHJBKYSA-N

>  <InChi>  (1) 
InChI=1S/C26H30N2O4/c1-17(2)32-25-14-21(10-11-23(25)26(30)31)20-8-6-19(7-9-20)13-18(3)28-16-24(29)22-5-4-12-27-15-22/h4-12,14-15,17-18,24,28-29H,13,16H2,1-3H3,(H,30,31)/t18-,24+/m1/s1

>  <IUPAC Name>  (1) 
4-[4-[(2R)-2-[[(2R)-2-hydroxy-2-pyridin-3-ylethyl]amino]propyl]phenyl]-2-propan-2-yloxybenzoic acid

$$$$
