
     RDKit          3D

 50 54  0  0  0  0  0  0  0  0999 V2000
    0.0459    2.2374    0.7698 O   0  0  0  0  0  0  0  0  0  0  0  0
   -0.0504    1.0904    0.1885 C   0  0  0  0  0  0  0  0  0  0  0  0
   -1.4113    0.5476    0.0866 C   0  0  0  0  0  0  0  0  0  0  0  0
   -1.5386   -0.7077    0.9023 C   0  0  0  0  0  0  0  0  0  0  0  0
   -2.9149   -1.3493    0.7817 C   0  0  0  0  0  0  0  0  0  0  0  0
   -3.8734   -0.3765    1.4484 C   0  0  0  0  0  0  0  0  0  0  0  0
   -3.7675    0.9169    0.7112 C   0  0  0  0  0  0  0  0  0  0  0  0
   -2.4141    1.5358    0.6980 C   0  0  0  0  0  0  0  0  0  0  0  0
   -4.2345    0.6435   -0.7173 C   0  0  0  0  0  0  0  0  0  0  0  0
   -3.2294   -0.2555   -1.3694 C   0  0  0  0  0  0  0  0  0  0  0  0
   -1.8401    0.2925   -1.3359 C   0  0  0  0  0  0  0  0  0  0  0  0
   -3.2144   -1.5945   -0.6613 C   0  0  0  0  0  0  0  0  0  0  0  0
    1.1506    0.5267   -0.2630 N   0  0  0  0  0  0  0  0  0  0  0  0
    1.4996   -0.6646   -0.9907 C   0  0  0  0  0  0  0  0  0  0  0  0
    2.7743   -1.1042   -0.2634 C   0  0  0  0  0  0  0  0  0  0  0  0
    3.4309    0.2078   -0.0454 C   0  0  0  0  0  0  0  0  0  0  0  0
    2.4266    1.1820   -0.0434 C   0  0  0  0  0  0  0  0  0  0  0  0
    2.8205    2.4837    0.1492 C   0  0  0  0  0  0  0  0  0  0  0  0
    4.1418    2.8366    0.3342 C   0  0  0  0  0  0  0  0  0  0  0  0
    5.1249    1.8664    0.3301 C   0  0  0  0  0  0  0  0  0  0  0  0
    4.7616    0.5407    0.1381 C   0  0  0  0  0  0  0  0  0  0  0  0
    2.4432   -1.7712    1.0454 C   0  0  0  0  0  0  0  0  0  0  0  0
    3.6080   -2.0184   -1.1246 C   0  0  0  0  0  0  0  0  0  0  0  0
   -0.7679   -1.4428    0.6734 H   0  0  0  0  0  0  0  0  0  0  0  0
   -1.4608   -0.3560    1.9818 H   0  0  0  0  0  0  0  0  0  0  0  0
   -2.8486   -2.3026    1.3462 H   0  0  0  0  0  0  0  0  0  0  0  0
   -3.5549   -0.3127    2.5106 H   0  0  0  0  0  0  0  0  0  0  0  0
   -4.8831   -0.7753    1.3164 H   0  0  0  0  0  0  0  0  0  0  0  0
   -4.4941    1.6261    1.1830 H   0  0  0  0  0  0  0  0  0  0  0  0
   -2.0971    1.7849    1.7166 H   0  0  0  0  0  0  0  0  0  0  0  0
   -2.4260    2.4135    0.0508 H   0  0  0  0  0  0  0  0  0  0  0  0
   -5.1894    0.0687   -0.5931 H   0  0  0  0  0  0  0  0  0  0  0  0
   -4.4575    1.5495   -1.2831 H   0  0  0  0  0  0  0  0  0  0  0  0
   -3.5158   -0.4293   -2.4403 H   0  0  0  0  0  0  0  0  0  0  0  0
   -1.1853   -0.4482   -1.8142 H   0  0  0  0  0  0  0  0  0  0  0  0
   -1.7412    1.2136   -1.9504 H   0  0  0  0  0  0  0  0  0  0  0  0
   -4.1845   -2.1189   -0.7757 H   0  0  0  0  0  0  0  0  0  0  0  0
   -2.3881   -2.1725   -1.0847 H   0  0  0  0  0  0  0  0  0  0  0  0
    0.7649   -1.4535   -1.0299 H   0  0  0  0  0  0  0  0  0  0  0  0
    1.8401   -0.3329   -2.0103 H   0  0  0  0  0  0  0  0  0  0  0  0
    2.0665    3.2772    0.1580 H   0  0  0  0  0  0  0  0  0  0  0  0
    4.4327    3.8703    0.4848 H   0  0  0  0  0  0  0  0  0  0  0  0
    6.1760    2.1029    0.4721 H   0  0  0  0  0  0  0  0  0  0  0  0
    5.4897   -0.2676    0.1248 H   0  0  0  0  0  0  0  0  0  0  0  0
    2.1736   -0.9992    1.8244 H   0  0  0  0  0  0  0  0  0  0  0  0
    3.4067   -2.2156    1.4121 H   0  0  0  0  0  0  0  0  0  0  0  0
    1.6673   -2.5410    0.9459 H   0  0  0  0  0  0  0  0  0  0  0  0
    4.3401   -1.4398   -1.7597 H   0  0  0  0  0  0  0  0  0  0  0  0
    2.9127   -2.6192   -1.7443 H   0  0  0  0  0  0  0  0  0  0  0  0
    4.1845   -2.7463   -0.4844 H   0  0  0  0  0  0  0  0  0  0  0  0
  1  2  2  0
  2  3  1  0
  3  4  1  0
  4  5  1  0
  5  6  1  0
  6  7  1  0
  7  8  1  0
  7  9  1  0
  9 10  1  0
 10 11  1  0
 10 12  1  0
  2 13  1  0
 13 14  1  0
 14 15  1  0
 15 16  1  0
 16 17  2  0
 17 18  1  0
 18 19  2  0
 19 20  1  0
 20 21  2  0
 15 22  1  0
 15 23  1  0
 11  3  1  0
 17 13  1  0
  8  3  1  0
 21 16  1  0
 12  5  1  0
  4 24  1  0
  4 25  1  0
  5 26  1  0
  6 27  1  0
  6 28  1  0
  7 29  1  0
  8 30  1  0
  8 31  1  0
  9 32  1  0
  9 33  1  0
 10 34  1  0
 11 35  1  0
 11 36  1  0
 12 37  1  0
 12 38  1  0
 14 39  1  0
 14 40  1  0
 18 41  1  0
 19 42  1  0
 20 43  1  0
 21 44  1  0
 22 45  1  0
 22 46  1  0
 22 47  1  0
 23 48  1  0
 23 49  1  0
 23 50  1  0
M  END
>  <Ligand ID>  (1) 
LIG0001667

>  <Ligand>  (1) 
CHEMBL2338181

>  <SMILES>  (1) 
O=C(C12CC3CC(C2)CC(C1)C3)N1CC(c2c1cccc2)(C)C

>  <CID>  (1) 
71559524.0

>  <ChEMBL ID>  (1) 
nan

>  <InChiKey>  (1) 
ZLQWPOMATSXNAY-UHFFFAOYSA-N

>  <InChi>  (1) 
InChI=1S/C21H27NO/c1-20(2)13-22(18-6-4-3-5-17(18)20)19(23)21-10-14-7-15(11-21)9-16(8-14)12-21/h3-6,14-16H,7-13H2,1-2H3

>  <IUPAC Name>  (1) 
1-adamantyl-(3,3-dimethyl-2H-indol-1-yl)methanone

$$$$
