
     RDKit          3D

 42 43  0  0  0  0  0  0  0  0999 V2000
   -2.4864   -0.4120    1.4918 O   0  0  0  0  0  0  0  0  0  0  0  0
   -2.3961    0.8018    1.2186 C   0  0  0  0  0  0  0  0  0  0  0  0
   -1.1427    1.4502    1.3797 N   0  0  0  0  0  0  0  0  0  0  0  0
    0.0620    0.7900    1.8472 C   0  0  0  0  0  0  0  0  0  0  0  0
    0.5280    1.3679    3.1722 C   0  0  0  0  0  0  0  0  0  0  0  0
   -0.7542    1.1813    4.4126 Cl  0  0  0  0  0  0  0  0  0  0  0  0
    1.8977    0.4390    3.8008 Cl  0  0  0  0  0  0  0  0  0  0  0  0
    1.0580    3.0432    3.0301 Cl  0  0  0  0  0  0  0  0  0  0  0  0
    1.0840    1.0522    0.8736 N   0  0  0  0  0  0  0  0  0  0  0  0
    2.2751    0.3711    0.6465 C   0  0  0  0  0  0  0  0  0  0  0  0
    2.7823   -0.9708    1.4149 S   0  0  0  0  0  0  0  0  0  0  0  0
    3.1559    0.8554   -0.3998 N   0  0  0  0  0  0  0  0  0  0  0  0
    4.3899    0.2323   -0.7028 C   0  0  0  0  0  0  0  0  0  0  0  0
    4.5017   -0.8626   -1.5444 C   0  0  0  0  0  0  0  0  0  0  0  0
    5.7624   -1.3852   -1.7862 C   0  0  0  0  0  0  0  0  0  0  0  0
    6.8907   -0.8360   -1.2070 C   0  0  0  0  0  0  0  0  0  0  0  0
    6.7845    0.2601   -0.3630 C   0  0  0  0  0  0  0  0  0  0  0  0
    5.5261    0.7739   -0.1278 C   0  0  0  0  0  0  0  0  0  0  0  0
    8.6452   -1.5591   -1.5419 Br  0  0  0  0  0  0  0  0  0  0  0  0
   -3.4465    1.5551    0.7675 O   0  0  0  0  0  0  0  0  0  0  0  0
   -4.7163    1.0639    0.5689 C   0  0  0  0  0  0  0  0  0  0  0  0
   -4.8359   -0.0228   -0.4048 C   0  0  0  0  0  0  0  0  0  0  0  0
   -4.9472    0.3376   -1.7488 C   0  0  0  0  0  0  0  0  0  0  0  0
   -5.0899   -0.6091   -2.7493 C   0  0  0  0  0  0  0  0  0  0  0  0
   -5.1206   -1.9400   -2.3802 C   0  0  0  0  0  0  0  0  0  0  0  0
   -5.0162   -2.3532   -1.0757 C   0  0  0  0  0  0  0  0  0  0  0  0
   -4.8737   -1.3618   -0.1046 C   0  0  0  0  0  0  0  0  0  0  0  0
   -1.0216    2.4862    1.1556 H   0  0  0  0  0  0  0  0  0  0  0  0
   -0.1433   -0.2988    1.9753 H   0  0  0  0  0  0  0  0  0  0  0  0
    0.8987    1.8992    0.2382 H   0  0  0  0  0  0  0  0  0  0  0  0
    2.9005    1.6927   -0.9680 H   0  0  0  0  0  0  0  0  0  0  0  0
    3.6065   -1.2785   -1.9877 H   0  0  0  0  0  0  0  0  0  0  0  0
    5.8933   -2.2457   -2.4410 H   0  0  0  0  0  0  0  0  0  0  0  0
    7.6631    0.7098    0.1042 H   0  0  0  0  0  0  0  0  0  0  0  0
    5.4524    1.6344    0.5353 H   0  0  0  0  0  0  0  0  0  0  0  0
   -5.2335    0.7800    1.5388 H   0  0  0  0  0  0  0  0  0  0  0  0
   -5.3671    1.9140    0.2025 H   0  0  0  0  0  0  0  0  0  0  0  0
   -4.9224    1.3849   -2.0259 H   0  0  0  0  0  0  0  0  0  0  0  0
   -5.1719   -0.2910   -3.7771 H   0  0  0  0  0  0  0  0  0  0  0  0
   -5.2311   -2.6775   -3.1679 H   0  0  0  0  0  0  0  0  0  0  0  0
   -5.0420   -3.4097   -0.7749 H   0  0  0  0  0  0  0  0  0  0  0  0
   -4.7991   -1.6843    0.9045 H   0  0  0  0  0  0  0  0  0  0  0  0
  1  2  2  0
  2  3  1  0
  3  4  1  0
  4  5  1  0
  5  6  1  0
  5  7  1  0
  5  8  1  0
  4  9  1  0
  9 10  1  0
 10 11  2  0
 10 12  1  0
 12 13  1  0
 13 14  2  0
 14 15  1  0
 15 16  2  0
 16 17  1  0
 17 18  2  0
 16 19  1  0
  2 20  1  0
 20 21  1  0
 21 22  1  0
 22 23  2  0
 23 24  1  0
 24 25  2  0
 25 26  1  0
 26 27  2  0
 18 13  1  0
 27 22  1  0
  3 28  1  0
  4 29  1  0
  9 30  1  0
 12 31  1  0
 14 32  1  0
 15 33  1  0
 17 34  1  0
 18 35  1  0
 21 36  1  0
 21 37  1  0
 23 38  1  0
 24 39  1  0
 25 40  1  0
 26 41  1  0
 27 42  1  0
M  END
>  <Ligand ID>  (1) 
LIG0002700

>  <Ligand>  (1) 
MLS-0425697.0001

>  <SMILES>  (1) 
O=C(NC(C(Cl)(Cl)Cl)NC(=S)Nc1ccc(cc1)Br)OCc1ccccc1

>  <CID>  (1) 
3091268.0

>  <ChEMBL ID>  (1) 
nan

>  <InChiKey>  (1) 
ZRYTVCOCYWEADB-UHFFFAOYSA-N

>  <InChi>  (1) 
InChI=1S/C17H15BrCl3N3O2S/c18-12-6-8-13(9-7-12)22-15(27)23-14(17(19,20)21)24-16(25)26-10-11-4-2-1-3-5-11/h1-9,14H,10H2,(H,24,25)(H2,22,23,27)

>  <IUPAC Name>  (1) 
benzyl N-[1-[(4-bromophenyl)carbamothioylamino]-2,2,2-trichloroethyl]carbamate

$$$$
