
     RDKit          3D

 39 39  0  0  0  0  0  0  0  0999 V2000
   -1.6329    3.0427   -0.8685 O   0  0  0  0  0  0  0  0  0  0  0  0
   -1.1135    2.3568    0.1979 N   0  0  0  0  0  0  0  0  0  0  0  0
   -1.3585    2.8927    1.3348 O   0  0  0  0  0  0  0  0  0  0  0  0
   -0.3440    1.1630    0.1008 C   0  0  0  0  0  0  0  0  0  0  0  0
    1.0359    1.3598    0.2754 C   0  0  0  0  0  0  0  0  0  0  0  0
    1.5161    2.7751    0.4821 C   0  0  0  0  0  0  0  0  0  0  0  0
    1.9385    0.3019    0.2322 C   0  0  0  0  0  0  0  0  0  0  0  0
    3.3310    0.5845    0.4293 C   0  0  0  0  0  0  0  0  0  0  0  0
    3.6768    1.8046    0.6644 O   0  0  0  0  0  0  0  0  0  0  0  0
    4.4654   -0.3528    0.3981 C   0  0  0  0  0  0  0  0  0  0  0  0
    1.4037   -0.9406    0.0089 C   0  0  0  0  0  0  0  0  0  0  0  0
    0.0163   -1.1383   -0.1688 C   0  0  0  0  0  0  0  0  0  0  0  0
   -0.8816   -0.0966   -0.1271 C   0  0  0  0  0  0  0  0  0  0  0  0
   -2.3213   -0.2074   -0.3362 C   0  0  0  0  0  0  0  0  0  0  0  0
   -3.0055    0.3606    0.9277 C   0  0  0  0  0  0  0  0  0  0  0  0
   -2.9023   -1.5980   -0.4254 C   0  0  0  0  0  0  0  0  0  0  0  0
   -2.8927    0.5562   -1.4937 C   0  0  0  0  0  0  0  0  0  0  0  0
   -0.3298   -2.4979   -0.3912 N   0  0  0  0  0  0  0  0  0  0  0  0
   -0.0671   -2.9266   -1.5645 O   0  0  0  0  0  0  0  0  0  0  0  0
   -0.8653   -3.3358    0.5474 O   0  0  0  0  0  0  0  0  0  0  0  0
    2.3101   -2.1456   -0.0327 C   0  0  0  0  0  0  0  0  0  0  0  0
    1.9365    2.8971    1.4931 H   0  0  0  0  0  0  0  0  0  0  0  0
    2.1833    3.0189   -0.3581 H   0  0  0  0  0  0  0  0  0  0  0  0
    0.6472    3.5026    0.5014 H   0  0  0  0  0  0  0  0  0  0  0  0
    4.6200   -0.7535    1.4251 H   0  0  0  0  0  0  0  0  0  0  0  0
    5.4463    0.2414    0.2539 H   0  0  0  0  0  0  0  0  0  0  0  0
    4.5147   -1.0529   -0.4219 H   0  0  0  0  0  0  0  0  0  0  0  0
   -3.8715   -0.3011    1.2345 H   0  0  0  0  0  0  0  0  0  0  0  0
   -3.4381    1.3484    0.7343 H   0  0  0  0  0  0  0  0  0  0  0  0
   -2.2751    0.4180    1.7504 H   0  0  0  0  0  0  0  0  0  0  0  0
   -2.5600   -2.2263   -1.2227 H   0  0  0  0  0  0  0  0  0  0  0  0
   -3.1050   -2.0600    0.5692 H   0  0  0  0  0  0  0  0  0  0  0  0
   -4.0012   -1.3803   -0.7482 H   0  0  0  0  0  0  0  0  0  0  0  0
   -3.6264    1.3192   -1.1748 H   0  0  0  0  0  0  0  0  0  0  0  0
   -2.1763    0.8576   -2.2671 H   0  0  0  0  0  0  0  0  0  0  0  0
   -3.5632   -0.1689   -2.0689 H   0  0  0  0  0  0  0  0  0  0  0  0
    2.7172   -2.3436   -1.0227 H   0  0  0  0  0  0  0  0  0  0  0  0
    1.6108   -3.0412    0.1284 H   0  0  0  0  0  0  0  0  0  0  0  0
    2.9617   -2.2333    0.8341 H   0  0  0  0  0  0  0  0  0  0  0  0
  1  2  1  0
  2  3  2  0
  2  4  1  0
  4  5  2  0
  5  6  1  0
  5  7  1  0
  7  8  1  0
  8  9  2  0
  8 10  1  0
  7 11  2  0
 11 12  1  0
 12 13  2  0
 13 14  1  0
 14 15  1  0
 14 16  1  0
 14 17  1  0
 12 18  1  0
 18 19  2  0
 18 20  1  0
 11 21  1  0
 13  4  1  0
  6 22  1  0
  6 23  1  0
  6 24  1  0
 10 25  1  0
 10 26  1  0
 10 27  1  0
 15 28  1  0
 15 29  1  0
 15 30  1  0
 16 31  1  0
 16 32  1  0
 16 33  1  0
 17 34  1  0
 17 35  1  0
 17 36  1  0
 21 37  1  0
 21 38  1  0
 21 39  1  0
M  CHG  4   1  -1   2   1  18   1  20  -1
M  END
>  <Ligand ID>  (1) 
LIG0000055

>  <Ligand>  (1) 
musk ketone

>  <SMILES>  (1) 
[O-][N+](=O)c1c(C)c(C(=O)C)c(c(c1C(C)(C)C)[N+](=O)[O-])C

>  <CID>  (1) 
6669.0

>  <ChEMBL ID>  (1) 
nan

>  <InChiKey>  (1) 
WXCMHFPAUCOJIG-UHFFFAOYSA-N

>  <InChi>  (1) 
InChI=1S/C14H18N2O5/c1-7-10(9(3)17)8(2)13(16(20)21)11(14(4,5)6)12(7)15(18)19/h1-6H3

>  <IUPAC Name>  (1) 
1-(4-tert-butyl-2,6-dimethyl-3,5-dinitrophenyl)ethanone

$$$$
