
     RDKit          3D

 73 80  0  0  0  0  0  0  0  0999 V2000
    1.9937    0.9022    1.3522 O   0  0  0  0  0  0  0  0  0  0  0  0
    2.1912    0.5860    0.1580 C   0  0  0  0  0  0  0  0  0  0  0  0
    1.3937   -0.3214   -0.4637 O   0  0  0  0  0  0  0  0  0  0  0  0
    0.2916   -0.9917    0.1355 C   0  0  1  0  0  0  0  0  0  0  0  0
   -0.7395   -0.0349    0.6061 C   0  0  0  0  0  0  0  0  0  0  0  0
   -1.8682    0.1955   -0.3268 C   0  0  0  0  0  0  0  0  0  0  0  0
   -2.8448    1.0869    0.0900 C   0  0  0  0  0  0  0  0  0  0  0  0
   -3.9187    1.3345   -0.7465 C   0  0  0  0  0  0  0  0  0  0  0  0
   -4.0514    0.7223   -1.9865 C   0  0  0  0  0  0  0  0  0  0  0  0
   -3.0790   -0.1331   -2.3444 N   0  0  0  0  0  0  0  0  0  0  0  0
   -2.0216   -0.3887   -1.5414 C   0  0  0  0  0  0  0  0  0  0  0  0
   -1.0148   -1.3442   -2.0272 C   0  0  1  0  0  0  0  0  0  0  0  0
   -0.1810   -1.9303   -0.9302 C   0  0  1  0  0  0  0  0  0  0  0  0
    0.9325   -2.7375   -1.4903 C   0  0  0  0  0  0  0  0  0  0  0  0
    1.7053   -3.4279   -0.4127 C   0  0  0  0  0  0  0  0  0  0  0  0
    1.9302   -2.6743    0.7480 N   0  0  0  0  0  0  0  0  0  0  0  0
    0.8672   -1.8695    1.2303 C   0  0  2  0  0  0  0  0  0  0  0  0
   -0.1406   -2.7636    1.9047 C   0  0  0  0  0  0  0  0  0  0  0  0
   -1.1822   -3.2287    0.9771 C   0  0  0  0  0  0  0  0  0  0  0  0
   -1.1967   -2.8259   -0.3165 C   0  0  0  0  0  0  0  0  0  0  0  0
   -2.1342   -3.1889   -1.2570 C   0  0  0  0  0  0  0  0  0  0  0  0
   -1.7434   -2.5352   -2.4202 O   0  0  0  0  0  0  0  0  0  0  0  0
   -3.1379   -4.0314   -0.8506 C   0  0  0  0  0  0  0  0  0  0  0  0
   -3.1636   -4.4701    0.4621 C   0  0  0  0  0  0  0  0  0  0  0  0
   -2.1931   -4.0787    1.3918 C   0  0  0  0  0  0  0  0  0  0  0  0
   -4.0889   -4.4057   -1.7897 O   0  0  0  0  0  0  0  0  0  0  0  0
    3.1806   -2.6295    1.3540 C   0  0  0  0  0  0  0  0  0  0  0  0
   -4.9289    2.2837   -0.2630 C   0  0  0  0  0  0  0  0  0  0  0  0
   -6.2379    2.0751   -0.6787 C   0  0  0  0  0  0  0  0  0  0  0  0
   -7.2208    2.9602   -0.2349 C   0  0  0  0  0  0  0  0  0  0  0  0
   -6.8777    4.0062    0.5934 C   0  0  0  0  0  0  0  0  0  0  0  0
   -5.5738    4.2282    1.0177 C   0  0  0  0  0  0  0  0  0  0  0  0
   -4.6172    3.3410    0.5671 C   0  0  0  0  0  0  0  0  0  0  0  0
   -8.0989    5.1239    1.1580 Cl  0  0  0  0  0  0  0  0  0  0  0  0
    3.3345    1.2520   -0.5323 C   0  0  0  0  0  0  0  0  0  0  0  0
    3.9818    2.1877    0.4530 C   0  0  0  0  0  0  0  0  0  0  0  0
    5.1338    2.9175   -0.0902 C   0  0  0  0  0  0  0  0  0  0  0  0
    5.0604    4.1402   -0.7241 C   0  0  0  0  0  0  0  0  0  0  0  0
    6.2366    4.7079   -1.1841 C   0  0  0  0  0  0  0  0  0  0  0  0
    7.4674    4.1223   -1.0443 C   0  0  0  0  0  0  0  0  0  0  0  0
    7.5413    2.9050   -0.4133 C   0  0  0  0  0  0  0  0  0  0  0  0
    6.3877    2.3144    0.0557 C   0  0  0  0  0  0  0  0  0  0  0  0
   -0.2537    0.9788    0.7136 H   0  0  0  0  0  0  0  0  0  0  0  0
   -1.1681   -0.2376    1.5966 H   0  0  0  0  0  0  0  0  0  0  0  0
   -2.7668    1.5765    1.0480 H   0  0  0  0  0  0  0  0  0  0  0  0
   -4.8959    0.9250   -2.6304 H   0  0  0  0  0  0  0  0  0  0  0  0
   -0.4855   -0.9462   -2.8832 H   0  0  0  0  0  0  0  0  0  0  0  0
    1.5745   -2.1893   -2.2049 H   0  0  0  0  0  0  0  0  0  0  0  0
    0.4653   -3.5553   -2.1068 H   0  0  0  0  0  0  0  0  0  0  0  0
    2.6985   -3.7044   -0.8535 H   0  0  0  0  0  0  0  0  0  0  0  0
    1.2455   -4.4125   -0.1454 H   0  0  0  0  0  0  0  0  0  0  0  0
    1.2914   -1.2450    2.0634 H   0  0  0  0  0  0  0  0  0  0  0  0
    0.4196   -3.6598    2.2853 H   0  0  0  0  0  0  0  0  0  0  0  0
   -0.5618   -2.3030    2.8254 H   0  0  0  0  0  0  0  0  0  0  0  0
   -3.9752   -5.1350    0.7387 H   0  0  0  0  0  0  0  0  0  0  0  0
   -2.2449   -4.4414    2.4108 H   0  0  0  0  0  0  0  0  0  0  0  0
   -3.8098   -5.1386   -2.4564 H   0  0  0  0  0  0  0  0  0  0  0  0
    3.9701   -2.4489    0.5961 H   0  0  0  0  0  0  0  0  0  0  0  0
    3.2095   -1.8552    2.1245 H   0  0  0  0  0  0  0  0  0  0  0  0
    3.3821   -3.5950    1.8919 H   0  0  0  0  0  0  0  0  0  0  0  0
   -6.5228    1.2571   -1.3296 H   0  0  0  0  0  0  0  0  0  0  0  0
   -8.2632    2.8174   -0.5490 H   0  0  0  0  0  0  0  0  0  0  0  0
   -5.3133    5.0551    1.6704 H   0  0  0  0  0  0  0  0  0  0  0  0
   -3.5918    3.4824    0.8766 H   0  0  0  0  0  0  0  0  0  0  0  0
    2.9681    1.8180   -1.3937 H   0  0  0  0  0  0  0  0  0  0  0  0
    4.0552    0.4509   -0.8061 H   0  0  0  0  0  0  0  0  0  0  0  0
    4.2930    1.6069    1.3437 H   0  0  0  0  0  0  0  0  0  0  0  0
    3.2221    2.9198    0.7996 H   0  0  0  0  0  0  0  0  0  0  0  0
    4.0927    4.6021   -0.8350 H   0  0  0  0  0  0  0  0  0  0  0  0
    6.1974    5.6825   -1.6922 H   0  0  0  0  0  0  0  0  0  0  0  0
    8.3928    4.5604   -1.4018 H   0  0  0  0  0  0  0  0  0  0  0  0
    8.5053    2.4038   -0.2811 H   0  0  0  0  0  0  0  0  0  0  0  0
    6.4948    1.3491    0.5495 H   0  0  0  0  0  0  0  0  0  0  0  0
  1  2  2  0
  2  3  1  0
  4  3  1  6
  4  5  1  0
  5  6  1  0
  6  7  2  0
  7  8  1  0
  8  9  2  0
  9 10  1  0
 10 11  2  0
 11 12  1  0
 12 13  1  0
 13 14  1  6
 14 15  1  0
 15 16  1  0
 16 17  1  0
 17 18  1  0
 18 19  1  0
 19 20  2  0
 20 21  1  0
 21 22  1  0
 21 23  2  0
 23 24  1  0
 24 25  2  0
 23 26  1  0
 16 27  1  0
  8 28  1  0
 28 29  2  0
 29 30  1  0
 30 31  2  0
 31 32  1  0
 32 33  2  0
 31 34  1  0
  2 35  1  0
 35 36  1  0
 36 37  1  0
 37 38  2  0
 38 39  1  0
 39 40  2  0
 40 41  1  0
 41 42  2  0
 17  4  1  0
 25 19  1  0
 33 28  1  0
 42 37  1  0
 13  4  1  0
 11  6  1  0
 22 12  1  0
 20 13  1  0
  5 43  1  0
  5 44  1  0
  7 45  1  0
  9 46  1  0
 12 47  1  6
 14 48  1  0
 14 49  1  0
 15 50  1  0
 15 51  1  0
 17 52  1  1
 18 53  1  0
 18 54  1  0
 24 55  1  0
 25 56  1  0
 26 57  1  0
 27 58  1  0
 27 59  1  0
 27 60  1  0
 29 61  1  0
 30 62  1  0
 32 63  1  0
 33 64  1  0
 35 65  1  0
 35 66  1  0
 36 67  1  0
 36 68  1  0
 38 69  1  0
 39 70  1  0
 40 71  1  0
 41 72  1  0
 42 73  1  0
M  END
>  <Ligand ID>  (1) 
LIG0004603

>  <Ligand>  (1) 
CHEMBL2179662

>  <SMILES>  (1) 
O=C(O[C@]12Cc3cc(cnc3[C@H]3[C@]42CCN([C@@H]1Cc1c4c(O3)c(cc1)O)C)c1ccc(cc1)Cl)CCc1ccccc1

>  <CID>  (1) 
71457292.0

>  <ChEMBL ID>  (1) 
nan

>  <InChiKey>  (1) 
IJYIYBWQZQDHRW-JJVQHPENSA-N

>  <InChi>  (1) 
InChI=1S/C35H31ClN2O4/c1-38-16-15-34-30-23-10-13-27(39)32(30)41-33(34)31-24(17-25(20-37-31)22-8-11-26(36)12-9-22)19-35(34,28(38)18-23)42-29(40)14-7-21-5-3-2-4-6-21/h2-6,8-13,17,20,28,33,39H,7,14-16,18-19H2,1H3/t28-,33+,34+,35-/m1/s1

>  <IUPAC Name>  (1) 
[(1S,2S,10R,18R)-6-(4-chlorophenyl)-13-hydroxy-19-methyl-11-oxa-8,19-diazahexacyclo[10.9.1.01,10.02,18.04,9.016,22]docosa-4(9),5,7,12,14,16(22)-hexaen-2-yl] 3-phenylpropanoate

$$$$
