
     RDKit          3D

 33 36  0  0  0  0  0  0  0  0999 V2000
   -4.0227   -3.2947    0.8563 F   0  0  0  0  0  0  0  0  0  0  0  0
   -2.8805   -2.6071    0.6586 C   0  0  0  0  0  0  0  0  0  0  0  0
   -1.6345   -3.1637    0.8460 C   0  0  0  0  0  0  0  0  0  0  0  0
   -0.4856   -2.4085    0.6275 C   0  0  0  0  0  0  0  0  0  0  0  0
   -0.5185   -1.1011    0.2237 C   0  0  0  0  0  0  0  0  0  0  0  0
   -1.7910   -0.5478    0.0370 C   0  0  0  0  0  0  0  0  0  0  0  0
   -2.9392   -1.2987    0.2541 C   0  0  0  0  0  0  0  0  0  0  0  0
   -1.9672    0.8009   -0.3814 N   0  0  0  0  0  0  0  0  0  0  0  0
   -2.4966    1.7407    0.4515 C   0  0  0  0  0  0  0  0  0  0  0  0
   -2.5348    2.9401   -0.2482 C   0  0  0  0  0  0  0  0  0  0  0  0
   -2.0184    2.6842   -1.5045 C   0  0  0  0  0  0  0  0  0  0  0  0
   -1.6856    1.3693   -1.5420 N   0  0  0  0  0  0  0  0  0  0  0  0
    0.6292   -0.2331   -0.0303 C   0  0  0  0  0  0  0  0  0  0  0  0
    1.1015    0.5578    1.1736 C   0  0  0  0  0  0  0  0  0  0  0  0
    2.4973    0.8938    0.7544 C   0  0  0  0  0  0  0  0  0  0  0  0
    2.9582   -0.0285   -0.1254 N   0  0  0  0  0  0  0  0  0  0  0  0
    1.8804   -1.0258   -0.3312 C   0  0  0  0  0  0  0  0  0  0  0  0
    4.1949    0.2589   -0.5042 C   0  0  0  0  0  0  0  0  0  0  0  0
    4.5505    1.4267    0.1654 C   0  0  0  0  0  0  0  0  0  0  0  0
    3.4870    1.7771    0.9200 N   0  0  0  0  0  0  0  0  0  0  0  0
   -1.5571   -4.1842    1.1618 H   0  0  0  0  0  0  0  0  0  0  0  0
    0.4489   -2.9148    0.7950 H   0  0  0  0  0  0  0  0  0  0  0  0
   -3.9243   -0.8425    0.1010 H   0  0  0  0  0  0  0  0  0  0  0  0
   -2.8257    1.5905    1.4624 H   0  0  0  0  0  0  0  0  0  0  0  0
   -2.9093    3.8908    0.1490 H   0  0  0  0  0  0  0  0  0  0  0  0
   -1.9056    3.4113   -2.3049 H   0  0  0  0  0  0  0  0  0  0  0  0
    0.4164    0.4929   -0.8506 H   0  0  0  0  0  0  0  0  0  0  0  0
    0.5596    1.4984    1.2454 H   0  0  0  0  0  0  0  0  0  0  0  0
    1.0988   -0.0781    2.0714 H   0  0  0  0  0  0  0  0  0  0  0  0
    1.9134   -1.4784   -1.3189 H   0  0  0  0  0  0  0  0  0  0  0  0
    2.0173   -1.7456    0.5178 H   0  0  0  0  0  0  0  0  0  0  0  0
    4.8340   -0.2941   -1.2034 H   0  0  0  0  0  0  0  0  0  0  0  0
    5.5093    1.9133    0.0610 H   0  0  0  0  0  0  0  0  0  0  0  0
  1  2  1  0
  2  3  2  0
  3  4  1  0
  4  5  2  0
  5  6  1  0
  6  7  2  0
  6  8  1  0
  8  9  1  0
  9 10  2  0
 10 11  1  0
 11 12  2  0
  5 13  1  0
 13 14  1  0
 14 15  1  0
 15 16  1  0
 16 17  1  0
 16 18  1  0
 18 19  2  0
 19 20  1  0
  7  2  1  0
 12  8  1  0
 17 13  1  0
 20 15  2  0
  3 21  1  0
  4 22  1  0
  7 23  1  0
  9 24  1  0
 10 25  1  0
 11 26  1  0
 13 27  1  0
 14 28  1  0
 14 29  1  0
 17 30  1  0
 17 31  1  0
 18 32  1  0
 19 33  1  0
M  END
>  <Ligand ID>  (1) 
LIG0002866

>  <Ligand>  (1) 
CHEMBL466635

>  <SMILES>  (1) 
Fc1ccc(c(c1)n1cccn1)C1Cc2n(C1)ccn2

>  <CID>  (1) 
44574138.0

>  <ChEMBL ID>  (1) 
nan

>  <InChiKey>  (1) 
PUGMNVJZHKJJKF-UHFFFAOYSA-N

>  <InChi>  (1) 
InChI=1S/C15H13FN4/c16-12-2-3-13(14(9-12)20-6-1-4-18-20)11-8-15-17-5-7-19(15)10-11/h1-7,9,11H,8,10H2

>  <IUPAC Name>  (1) 
6-(4-fluoro-2-pyrazol-1-ylphenyl)-6,7-dihydro-5H-pyrrolo[1,2-a]imidazole

$$$$
