
     RDKit          3D

136137  0  0  0  0  0  0  0  0999 V2000
    5.3376    2.8102   -2.5118 C   0  0  0  0  0  0  0  0  0  0  0  0
    4.6906    2.4111   -3.6107 O   0  0  0  0  0  0  0  0  0  0  0  0
    4.3458    1.1845   -3.9256 C   0  0  0  0  0  0  0  0  0  0  0  0
    3.4083    0.2853   -3.2815 C   0  0  0  0  0  0  0  0  0  0  0  0
    3.4441   -0.1782   -1.9500 N   0  0  0  0  0  0  0  0  0  0  0  0
    2.7503    0.2438   -0.8239 C   0  0  0  0  0  0  0  0  0  0  0  0
    3.2012   -0.3126    0.3036 O   0  0  0  0  0  0  0  0  0  0  0  0
    1.6323    1.1304   -0.5381 C   0  0  2  0  0  0  0  0  0  0  0  0
    1.8940    2.5638   -0.7319 C   0  0  0  0  0  0  0  0  0  0  0  0
    1.9835    3.2967   -2.3040 S   0  0  0  0  0  0  0  0  0  0  0  0
    0.2382    3.5860   -3.3247 S   0  0  0  0  0  0  0  0  0  0  0  0
   -0.2752    2.3087   -4.3897 C   0  0  0  0  0  0  0  0  0  0  0  0
   -0.8991    1.0630   -3.8138 C   0  0  0  0  0  0  0  0  0  0  0  0
   -2.0974    1.4005   -3.0124 C   0  0  0  0  0  0  0  0  0  0  0  0
   -2.1320    2.5289   -2.4827 O   0  0  0  0  0  0  0  0  0  0  0  0
   -3.2284    0.5792   -2.7853 N   0  0  0  0  0  0  0  0  0  0  0  0
   -4.2777    1.1152   -1.8924 C   0  0  1  0  0  0  0  0  0  0  0  0
   -5.1259    2.1004   -2.7044 C   0  0  0  0  0  0  0  0  0  0  0  0
   -6.1807    2.6819   -1.8699 C   0  0  0  0  0  0  0  0  0  0  0  0
   -7.4799    2.2492   -1.7969 C   0  0  0  0  0  0  0  0  0  0  0  0
   -8.3757    2.8845   -0.9385 C   0  0  0  0  0  0  0  0  0  0  0  0
   -8.0014    3.9532   -0.1434 C   0  0  0  0  0  0  0  0  0  0  0  0
   -6.7020    4.3881   -0.2151 C   0  0  0  0  0  0  0  0  0  0  0  0
   -5.8162    3.7621   -1.0619 C   0  0  0  0  0  0  0  0  0  0  0  0
   -8.8871    4.5891    0.7126 O   0  0  0  0  0  0  0  0  0  0  0  0
   -5.0558    0.0376   -1.2745 C   0  0  0  0  0  0  0  0  0  0  0  0
   -4.9683   -1.1117   -1.7169 O   0  0  0  0  0  0  0  0  0  0  0  0
   -5.9161    0.2224   -0.1664 N   0  0  0  0  0  0  0  0  0  0  0  0
   -6.7709   -0.7126    0.4791 C   0  0  2  0  0  0  0  0  0  0  0  0
   -6.0716   -1.3166    1.6591 C   0  0  0  0  0  0  0  0  0  0  0  0
   -6.6039   -1.9142    2.5860 O   0  0  0  0  0  0  0  0  0  0  0  0
   -4.6696   -1.1860    1.6847 N   0  0  0  0  0  0  0  0  0  0  0  0
   -3.7975   -1.6720    2.7977 C   0  0  2  0  0  0  0  0  0  0  0  0
   -2.6502   -0.7339    2.8046 C   0  0  0  0  0  0  0  0  0  0  0  0
   -2.9246    0.4896    2.8679 O   0  0  0  0  0  0  0  0  0  0  0  0
   -1.2842   -1.0236    2.7293 N   0  0  0  0  0  0  0  0  0  0  0  0
   -0.2304    0.0228    2.7500 C   0  0  2  0  0  0  0  0  0  0  0  0
    0.2488    0.2066    1.3464 C   0  0  0  0  0  0  0  0  0  0  0  0
   -0.3366   -0.4176    0.4456 O   0  0  0  0  0  0  0  0  0  0  0  0
    1.3180    1.0273    0.9356 N   0  0  0  0  0  0  0  0  0  0  0  0
    0.8745   -0.4074    3.6580 C   0  0  0  0  0  0  0  0  0  0  0  0
    0.3146   -0.5945    5.0280 C   0  0  0  0  0  0  0  0  0  0  0  0
   -0.9177   -0.3538    5.1925 O   0  0  0  0  0  0  0  0  0  0  0  0
    1.1017   -1.0258    6.1317 N   0  0  0  0  0  0  0  0  0  0  0  0
   -3.5158   -3.1072    2.6761 C   0  0  0  0  0  0  0  0  0  0  0  0
   -2.7531   -3.6662    3.8338 C   0  0  0  0  0  0  0  0  0  0  0  0
   -3.5121   -3.5753    5.1384 C   0  0  0  0  0  0  0  0  0  0  0  0
   -4.6731   -3.1299    5.2241 O   0  0  0  0  0  0  0  0  0  0  0  0
   -2.8350   -4.0298    6.2914 N   0  0  0  0  0  0  0  0  0  0  0  0
   -7.2722   -1.8625   -0.3592 C   0  0  2  0  0  0  0  0  0  0  0  0
   -8.0853   -1.5287   -1.5405 C   0  0  0  0  0  0  0  0  0  0  0  0
   -8.5420   -2.7678   -2.3331 C   0  0  0  0  0  0  0  0  0  0  0  0
   -8.1566   -2.6949    0.5828 C   0  0  0  0  0  0  0  0  0  0  0  0
    4.2291   -1.4359   -1.7478 C   0  0  0  0  0  0  0  0  0  0  0  0
    5.5333   -1.3676   -1.1767 C   0  0  0  0  0  0  0  0  0  0  0  0
    6.1521   -2.5120   -1.0273 O   0  0  0  0  0  0  0  0  0  0  0  0
    6.2955   -0.2726   -0.7289 N   0  0  0  0  0  0  0  0  0  0  0  0
    7.6068   -0.3206   -0.1402 C   0  0  2  0  0  0  0  0  0  0  0  0
    7.6176    0.4678    1.1500 C   0  0  0  0  0  0  0  0  0  0  0  0
    6.5644    1.0157    1.5747 O   0  0  0  0  0  0  0  0  0  0  0  0
    8.8212    0.6094    1.9098 N   0  0  0  0  0  0  0  0  0  0  0  0
    8.8721    1.3680    3.1505 C   0  0  0  0  0  0  0  0  0  0  0  0
    7.9831    0.8428    4.1949 C   0  0  0  0  0  0  0  0  0  0  0  0
    7.9662    1.4527    5.3064 O   0  0  0  0  0  0  0  0  0  0  0  0
    7.1675   -0.3165    3.9599 N   0  0  0  0  0  0  0  0  0  0  0  0
    8.6880    0.1523   -1.0427 C   0  0  0  0  0  0  0  0  0  0  0  0
    8.9285   -0.5879   -2.3023 C   0  0  0  0  0  0  0  0  0  0  0  0
    7.7854   -0.6442   -3.2657 C   0  0  0  0  0  0  0  0  0  0  0  0
    9.4903   -1.9849   -2.0432 C   0  0  0  0  0  0  0  0  0  0  0  0
    6.3474    2.3433   -2.4270 H   0  0  0  0  0  0  0  0  0  0  0  0
    4.7649    2.6040   -1.5848 H   0  0  0  0  0  0  0  0  0  0  0  0
    5.4346    3.9314   -2.5262 H   0  0  0  0  0  0  0  0  0  0  0  0
    3.8727    1.2996   -5.0206 H   0  0  0  0  0  0  0  0  0  0  0  0
    5.3006    0.6398   -4.2682 H   0  0  0  0  0  0  0  0  0  0  0  0
    3.3839   -0.6565   -3.9864 H   0  0  0  0  0  0  0  0  0  0  0  0
    2.3067    0.6075   -3.4601 H   0  0  0  0  0  0  0  0  0  0  0  0
    0.6996    0.7797   -1.0733 H   0  0  0  0  0  0  0  0  0  0  0  0
    1.1590    3.1878   -0.0684 H   0  0  0  0  0  0  0  0  0  0  0  0
    2.8705    2.8590   -0.1703 H   0  0  0  0  0  0  0  0  0  0  0  0
    0.5039    1.9776   -5.1439 H   0  0  0  0  0  0  0  0  0  0  0  0
   -1.0834    2.7239   -5.0836 H   0  0  0  0  0  0  0  0  0  0  0  0
   -0.1395    0.5034   -3.2450 H   0  0  0  0  0  0  0  0  0  0  0  0
   -1.1450    0.4174   -4.6866 H   0  0  0  0  0  0  0  0  0  0  0  0
   -3.2525   -0.3155   -3.2451 H   0  0  0  0  0  0  0  0  0  0  0  0
   -3.7408    1.7543   -1.1642 H   0  0  0  0  0  0  0  0  0  0  0  0
   -4.4790    2.8572   -3.1476 H   0  0  0  0  0  0  0  0  0  0  0  0
   -5.5953    1.5029   -3.4990 H   0  0  0  0  0  0  0  0  0  0  0  0
   -7.7899    1.4329   -2.4015 H   0  0  0  0  0  0  0  0  0  0  0  0
   -9.4032    2.5680   -0.8547 H   0  0  0  0  0  0  0  0  0  0  0  0
   -6.3839    5.2178    0.3928 H   0  0  0  0  0  0  0  0  0  0  0  0
   -4.8001    4.1506   -1.0760 H   0  0  0  0  0  0  0  0  0  0  0  0
   -9.8568    4.7622    0.5373 H   0  0  0  0  0  0  0  0  0  0  0  0
   -5.8789    1.1841    0.2318 H   0  0  0  0  0  0  0  0  0  0  0  0
   -7.6796   -0.1967    0.8357 H   0  0  0  0  0  0  0  0  0  0  0  0
   -4.2191   -0.7345    0.8970 H   0  0  0  0  0  0  0  0  0  0  0  0
   -4.4184   -1.5150    3.6846 H   0  0  0  0  0  0  0  0  0  0  0  0
   -0.9652   -1.9645    2.6172 H   0  0  0  0  0  0  0  0  0  0  0  0
   -0.6785    0.9953    3.0655 H   0  0  0  0  0  0  0  0  0  0  0  0
    1.8387    1.5203    1.6382 H   0  0  0  0  0  0  0  0  0  0  0  0
    1.2867   -1.3717    3.2957 H   0  0  0  0  0  0  0  0  0  0  0  0
    1.6896    0.3345    3.6361 H   0  0  0  0  0  0  0  0  0  0  0  0
    0.6349   -1.7248    6.7748 H   0  0  0  0  0  0  0  0  0  0  0  0
    2.0792   -0.6778    6.3005 H   0  0  0  0  0  0  0  0  0  0  0  0
   -2.9704   -3.3482    1.7084 H   0  0  0  0  0  0  0  0  0  0  0  0
   -4.5034   -3.6397    2.6792 H   0  0  0  0  0  0  0  0  0  0  0  0
   -1.7807   -3.2497    4.0685 H   0  0  0  0  0  0  0  0  0  0  0  0
   -2.6314   -4.7886    3.6997 H   0  0  0  0  0  0  0  0  0  0  0  0
   -3.0122   -5.0411    6.5589 H   0  0  0  0  0  0  0  0  0  0  0  0
   -2.1936   -3.4585    6.8786 H   0  0  0  0  0  0  0  0  0  0  0  0
   -6.4311   -2.5292   -0.6174 H   0  0  0  0  0  0  0  0  0  0  0  0
   -7.5617   -0.9020   -2.2813 H   0  0  0  0  0  0  0  0  0  0  0  0
   -9.0369   -1.0038   -1.3152 H   0  0  0  0  0  0  0  0  0  0  0  0
   -7.6995   -3.4460   -2.5385 H   0  0  0  0  0  0  0  0  0  0  0  0
   -8.8449   -2.3626   -3.3445 H   0  0  0  0  0  0  0  0  0  0  0  0
   -9.4490   -3.2192   -1.9347 H   0  0  0  0  0  0  0  0  0  0  0  0
   -8.9388   -3.2479    0.0258 H   0  0  0  0  0  0  0  0  0  0  0  0
   -8.5914   -1.9944    1.3251 H   0  0  0  0  0  0  0  0  0  0  0  0
   -7.5903   -3.4540    1.1356 H   0  0  0  0  0  0  0  0  0  0  0  0
    4.2689   -2.0004   -2.7257 H   0  0  0  0  0  0  0  0  0  0  0  0
    3.5807   -2.0833   -1.0776 H   0  0  0  0  0  0  0  0  0  0  0  0
    5.8543    0.6666   -0.8163 H   0  0  0  0  0  0  0  0  0  0  0  0
    7.8583   -1.3886    0.1752 H   0  0  0  0  0  0  0  0  0  0  0  0
    9.7133    0.1454    1.5624 H   0  0  0  0  0  0  0  0  0  0  0  0
    8.5785    2.4431    2.9422 H   0  0  0  0  0  0  0  0  0  0  0  0
    9.9179    1.4310    3.4771 H   0  0  0  0  0  0  0  0  0  0  0  0
    7.6112   -1.2090    3.6171 H   0  0  0  0  0  0  0  0  0  0  0  0
    6.1500   -0.2298    4.1395 H   0  0  0  0  0  0  0  0  0  0  0  0
    9.6583    0.1150   -0.4634 H   0  0  0  0  0  0  0  0  0  0  0  0
    8.5764    1.2499   -1.2793 H   0  0  0  0  0  0  0  0  0  0  0  0
    9.7834   -0.0529   -2.8225 H   0  0  0  0  0  0  0  0  0  0  0  0
    7.0886    0.1557   -2.9846 H   0  0  0  0  0  0  0  0  0  0  0  0
    8.1588   -0.3516   -4.2863 H   0  0  0  0  0  0  0  0  0  0  0  0
    7.3434   -1.6347   -3.3771 H   0  0  0  0  0  0  0  0  0  0  0  0
    9.5665   -2.4837   -3.0305 H   0  0  0  0  0  0  0  0  0  0  0  0
   10.5397   -1.8244   -1.6649 H   0  0  0  0  0  0  0  0  0  0  0  0
    8.8605   -2.5273   -1.3387 H   0  0  0  0  0  0  0  0  0  0  0  0
  1  2  1  0
  2  3  1  0
  3  4  1  0
  4  5  1  0
  5  6  1  0
  6  7  2  0
  6  8  1  0
  8  9  1  0
  9 10  1  0
 10 11  1  0
 11 12  1  0
 12 13  1  0
 13 14  1  0
 14 15  2  0
 14 16  1  0
 16 17  1  0
 17 18  1  0
 18 19  1  0
 19 20  2  0
 20 21  1  0
 21 22  2  0
 22 23  1  0
 23 24  2  0
 22 25  1  0
 17 26  1  0
 26 27  2  0
 26 28  1  0
 28 29  1  0
 29 30  1  0
 30 31  2  0
 30 32  1  0
 32 33  1  0
 33 34  1  0
 34 35  2  0
 34 36  1  0
 36 37  1  0
 37 38  1  0
 38 39  2  0
 38 40  1  0
 37 41  1  0
 41 42  1  0
 42 43  2  0
 42 44  1  0
 33 45  1  0
 45 46  1  0
 46 47  1  0
 47 48  2  0
 47 49  1  0
 29 50  1  0
 50 51  1  0
 51 52  1  0
 50 53  1  0
  5 54  1  0
 54 55  1  0
 55 56  2  0
 55 57  1  0
 57 58  1  0
 58 59  1  0
 59 60  2  0
 59 61  1  0
 61 62  1  0
 62 63  1  0
 63 64  2  0
 63 65  1  0
 58 66  1  0
 66 67  1  0
 67 68  1  0
 67 69  1  0
 40  8  1  0
 24 19  1  0
  1 70  1  0
  1 71  1  0
  1 72  1  0
  3 73  1  0
  3 74  1  0
  4 75  1  0
  4 76  1  0
  8 77  1  6
  9 78  1  0
  9 79  1  0
 12 80  1  0
 12 81  1  0
 13 82  1  0
 13 83  1  0
 16 84  1  0
 17 85  1  1
 18 86  1  0
 18 87  1  0
 20 88  1  0
 21 89  1  0
 23 90  1  0
 24 91  1  0
 25 92  1  0
 28 93  1  0
 29 94  1  1
 32 95  1  0
 33 96  1  1
 36 97  1  0
 37 98  1  1
 40 99  1  0
 41100  1  0
 41101  1  0
 44102  1  0
 44103  1  0
 45104  1  0
 45105  1  0
 46106  1  0
 46107  1  0
 49108  1  0
 49109  1  0
 50110  1  6
 51111  1  0
 51112  1  0
 52113  1  0
 52114  1  0
 52115  1  0
 53116  1  0
 53117  1  0
 53118  1  0
 54119  1  0
 54120  1  0
 57121  1  0
 58122  1  1
 61123  1  0
 62124  1  0
 62125  1  0
 65126  1  0
 65127  1  0
 66128  1  0
 66129  1  0
 67130  1  0
 68131  1  0
 68132  1  0
 68133  1  0
 69134  1  0
 69135  1  0
 69136  1  0
M  END
>  <Ligand ID>  (1) 
LIG0001651

>  <Ligand>  (1) 
CHEMBL3353942

>  <SMILES>  (1) 
COCCN(C(=O)[C@@H]1CSSCCC(=O)N[C@@H](Cc2ccc(cc2)O)C(=O)N[C@H](C(=O)N[C@H](C(=O)N[C@H](C(=O)N1)CC(=O)N)CCC(=O)N)[C@H](CC)C)CC(=O)N[C@H](C(=O)NCC(=O)N)CC(C)C

>  <CID>  (1) 
118719831.0

>  <ChEMBL ID>  (1) 
nan

>  <InChiKey>  (1) 
PEHZFVBAOMWQGJ-WSCPPPQASA-N

>  <InChi>  (1) 
InChI=1S/C43H67N11O13S2/c1-6-24(4)37-42(65)50-27(11-12-32(44)56)39(62)51-30(19-33(45)57)40(63)52-31(22-69-68-16-13-35(59)48-29(41(64)53-37)18-25-7-9-26(55)10-8-25)43(66)54(14-15-67-5)21-36(60)49-28(17-23(2)3)38(61)47-20-34(46)58/h7-10,23-24,27-31,37,55H,6,11-22H2,1-5H3,(H2,44,56)(H2,45,57)(H2,46,58)(H,47,61)(H,48,59)(H,49,60)(H,50,65)(H,51,62)(H,52,63)(H,53,64)/t24-,27-,28-,29-,30-,31-,37-/m0/s1

>  <IUPAC Name>  (1) 
(4R,7S,10S,13S,16S)-7-(2-amino-2-oxoethyl)-N-[2-[[(2S)-1-[(2-amino-2-oxoethyl)amino]-4-methyl-1-oxopentan-2-yl]amino]-2-oxoethyl]-10-(3-amino-3-oxopropyl)-13-[(2S)-butan-2-yl]-16-[(4-hydroxyphenyl)methyl]-N-(2-methoxyethyl)-6,9,12,15,18-pentaoxo-1,2-dithia-5,8,11,14,17-pentazacycloicosane-4-carboxamide

$$$$
