
     RDKit          3D

 46 48  0  0  0  0  0  0  0  0999 V2000
   -4.2640    1.6403    1.3532 C   0  0  0  0  0  0  0  0  0  0  0  0
   -3.0579    1.1707    0.7710 O   0  0  0  0  0  0  0  0  0  0  0  0
   -2.0094    0.6650    1.5283 C   0  0  0  0  0  0  0  0  0  0  0  0
   -2.0604    0.5908    2.7701 O   0  0  0  0  0  0  0  0  0  0  0  0
   -0.7763    0.1968    0.7803 C   0  0  0  0  0  0  0  0  0  0  0  0
   -1.2117   -0.8725   -0.1206 C   0  0  0  0  0  0  0  0  0  0  0  0
   -0.5009   -1.2700   -1.2297 C   0  0  0  0  0  0  0  0  0  0  0  0
   -0.9549   -2.3003   -2.0512 C   0  0  0  0  0  0  0  0  0  0  0  0
   -2.1329   -2.9674   -1.7930 C   0  0  0  0  0  0  0  0  0  0  0  0
   -2.8506   -2.5750   -0.6843 C   0  0  0  0  0  0  0  0  0  0  0  0
   -2.4023   -1.5662    0.1169 C   0  0  0  0  0  0  0  0  0  0  0  0
   -0.3130    1.4074    0.0625 C   0  0  0  0  0  0  0  0  0  0  0  0
   -0.9024    1.6821   -1.1709 C   0  0  0  0  0  0  0  0  0  0  0  0
   -0.5288    2.8146   -1.8986 C   0  0  0  0  0  0  0  0  0  0  0  0
    0.4300    3.6940   -1.4241 C   0  0  0  0  0  0  0  0  0  0  0  0
    1.0150    3.4111   -0.1876 C   0  0  0  0  0  0  0  0  0  0  0  0
    0.6387    2.2773    0.5380 C   0  0  0  0  0  0  0  0  0  0  0  0
    0.2048   -0.3435    1.7731 C   0  0  0  0  0  0  0  0  0  0  0  0
    1.4332   -0.8489    1.1335 C   0  0  0  0  0  0  0  0  0  0  0  0
    1.4463   -2.1937    0.7769 C   0  0  0  0  0  0  0  0  0  0  0  0
    2.5919   -2.7245    0.1782 C   0  0  0  0  0  0  0  0  0  0  0  0
    3.7093   -1.9229   -0.0611 C   0  0  0  0  0  0  0  0  0  0  0  0
    3.6481   -0.5961    0.3101 C   0  0  0  0  0  0  0  0  0  0  0  0
    2.5320   -0.1486    0.8751 N   0  0  0  0  0  0  0  0  0  0  0  0
    4.8261    0.2760    0.0660 C   0  0  0  0  0  0  0  0  0  0  0  0
   -4.1693    1.4981    2.4602 H   0  0  0  0  0  0  0  0  0  0  0  0
   -4.3780    2.6787    1.0427 H   0  0  0  0  0  0  0  0  0  0  0  0
   -5.1236    1.0487    0.9715 H   0  0  0  0  0  0  0  0  0  0  0  0
    0.4400   -0.7765   -1.4963 H   0  0  0  0  0  0  0  0  0  0  0  0
   -0.3979   -2.6084   -2.9157 H   0  0  0  0  0  0  0  0  0  0  0  0
   -2.5126   -3.7694   -2.4092 H   0  0  0  0  0  0  0  0  0  0  0  0
   -3.7917   -3.0504   -0.4101 H   0  0  0  0  0  0  0  0  0  0  0  0
   -2.9799   -1.2635    0.9935 H   0  0  0  0  0  0  0  0  0  0  0  0
   -1.6592    0.9989   -1.5582 H   0  0  0  0  0  0  0  0  0  0  0  0
   -0.9953    3.0302   -2.8729 H   0  0  0  0  0  0  0  0  0  0  0  0
    0.7233    4.5738   -1.9851 H   0  0  0  0  0  0  0  0  0  0  0  0
    1.7791    4.0719    0.2369 H   0  0  0  0  0  0  0  0  0  0  0  0
    1.1134    2.1123    1.4917 H   0  0  0  0  0  0  0  0  0  0  0  0
   -0.3048   -1.1744    2.3115 H   0  0  0  0  0  0  0  0  0  0  0  0
    0.4816    0.4650    2.4852 H   0  0  0  0  0  0  0  0  0  0  0  0
    0.6375   -2.8627    0.9265 H   0  0  0  0  0  0  0  0  0  0  0  0
    2.6595   -3.7623   -0.1199 H   0  0  0  0  0  0  0  0  0  0  0  0
    4.6069   -2.3085   -0.5222 H   0  0  0  0  0  0  0  0  0  0  0  0
    4.6649    1.2384    0.6211 H   0  0  0  0  0  0  0  0  0  0  0  0
    4.9559    0.5413   -1.0032 H   0  0  0  0  0  0  0  0  0  0  0  0
    5.7401   -0.1778    0.5058 H   0  0  0  0  0  0  0  0  0  0  0  0
  1  2  1  0
  2  3  1  0
  3  4  2  0
  3  5  1  0
  5  6  1  0
  6  7  2  0
  7  8  1  0
  8  9  2  0
  9 10  1  0
 10 11  2  0
  5 12  1  0
 12 13  2  0
 13 14  1  0
 14 15  2  0
 15 16  1  0
 16 17  2  0
  5 18  1  0
 18 19  1  0
 19 20  2  0
 20 21  1  0
 21 22  2  0
 22 23  1  0
 23 24  2  0
 23 25  1  0
 11  6  1  0
 17 12  1  0
 24 19  1  0
  1 26  1  0
  1 27  1  0
  1 28  1  0
  7 29  1  0
  8 30  1  0
  9 31  1  0
 10 32  1  0
 11 33  1  0
 13 34  1  0
 14 35  1  0
 15 36  1  0
 16 37  1  0
 17 38  1  0
 18 39  1  0
 18 40  1  0
 20 41  1  0
 21 42  1  0
 22 43  1  0
 25 44  1  0
 25 45  1  0
 25 46  1  0
M  END
>  <Ligand ID>  (1) 
LIG0003921

>  <Ligand>  (1) 
MLS001181948

>  <SMILES>  (1) 
COC(=O)C(c1ccccc1)(c1ccccc1)Cc1cccc(n1)C

>  <CID>  (1) 
2818470.0

>  <ChEMBL ID>  (1) 
nan

>  <InChiKey>  (1) 
KJJSYRYJTJRJJO-UHFFFAOYSA-N

>  <InChi>  (1) 
InChI=1S/C22H21NO2/c1-17-10-9-15-20(23-17)16-22(21(24)25-2,18-11-5-3-6-12-18)19-13-7-4-8-14-19/h3-15H,16H2,1-2H3

>  <IUPAC Name>  (1) 
methyl 3-(6-methylpyridin-2-yl)-2,2-diphenylpropanoate

$$$$
