
     RDKit          3D

 70 74  0  0  0  0  0  0  0  0999 V2000
    8.6144   -0.5314   -0.6239 C   0  0  0  0  0  0  0  0  0  0  0  0
    7.7179    0.5376   -0.4105 O   0  0  0  0  0  0  0  0  0  0  0  0
    6.4060    0.2703   -0.0357 C   0  0  0  0  0  0  0  0  0  0  0  0
    5.9878   -1.0394    0.1259 C   0  0  0  0  0  0  0  0  0  0  0  0
    4.6834   -1.3071    0.4982 C   0  0  0  0  0  0  0  0  0  0  0  0
    3.7548   -0.2901    0.7217 C   0  0  0  0  0  0  0  0  0  0  0  0
    4.1813    0.9881    0.5594 C   0  0  0  0  0  0  0  0  0  0  0  0
    5.4843    1.2698    0.1868 C   0  0  0  0  0  0  0  0  0  0  0  0
    2.4090   -0.6819    1.1238 C   0  0  0  0  0  0  0  0  0  0  0  0
    1.3062   -0.1359    0.6397 C   0  0  0  0  0  0  0  0  0  0  0  0
    1.2790    0.9368   -0.3707 C   0  0  0  0  0  0  0  0  0  0  0  0
    0.1217    0.8860   -1.2323 N   0  0  0  0  0  0  0  0  0  0  0  0
   -1.0884    0.1534   -0.9494 C   0  0  0  0  0  0  0  0  0  0  0  0
   -1.1519   -0.4875    0.3555 C   0  0  0  0  0  0  0  0  0  0  0  0
    0.0017   -0.6136    1.1321 C   0  0  0  0  0  0  0  0  0  0  0  0
   -0.3362   -1.2118    2.2827 N   0  0  0  0  0  0  0  0  0  0  0  0
   -1.6319   -1.4506    2.2318 N   0  0  0  0  0  0  0  0  0  0  0  0
   -2.1743   -1.0235    1.0666 C   0  0  0  0  0  0  0  0  0  0  0  0
   -3.5888   -1.2029    0.7714 C   0  0  0  0  0  0  0  0  0  0  0  0
   -4.3981   -1.6426    1.6636 O   0  0  0  0  0  0  0  0  0  0  0  0
   -4.1807   -0.9203   -0.4844 N   0  0  0  0  0  0  0  0  0  0  0  0
   -5.6122   -1.1118   -0.7373 C   0  0  1  0  0  0  0  0  0  0  0  0
   -6.2177    0.1666   -1.1674 C   0  0  0  0  0  0  0  0  0  0  0  0
   -7.0906    0.2908   -2.2177 C   0  0  0  0  0  0  0  0  0  0  0  0
   -7.5896    1.5547   -2.5231 C   0  0  0  0  0  0  0  0  0  0  0  0
   -7.2207    2.6710   -1.7900 C   0  0  0  0  0  0  0  0  0  0  0  0
   -6.3390    2.4919   -0.7421 C   0  0  0  0  0  0  0  0  0  0  0  0
   -5.8617    1.2704   -0.4532 N   0  0  0  0  0  0  0  0  0  0  0  0
   -5.8267   -2.2184   -1.7469 C   0  0  0  0  0  0  0  0  0  0  0  0
    0.4601   -1.5611    3.4088 C   0  0  0  0  0  0  0  0  0  0  0  0
    0.7179   -2.8966    3.7450 C   0  0  0  0  0  0  0  0  0  0  0  0
    1.5002   -3.1681    4.8678 C   0  0  0  0  0  0  0  0  0  0  0  0
    2.0242   -2.1509    5.6524 C   0  0  0  0  0  0  0  0  0  0  0  0
    1.7651   -0.8324    5.3140 C   0  0  0  0  0  0  0  0  0  0  0  0
    0.9923   -0.5399    4.2054 C   0  0  0  0  0  0  0  0  0  0  0  0
    0.6394    1.1328    3.7424 Cl  0  0  0  0  0  0  0  0  0  0  0  0
    3.0094   -2.5141    7.0662 Cl  0  0  0  0  0  0  0  0  0  0  0  0
    0.1718    1.6147   -2.4536 C   0  0  0  0  0  0  0  0  0  0  0  0
   -0.7964    1.6325   -3.2784 O   0  0  0  0  0  0  0  0  0  0  0  0
    1.3675    2.4069   -2.8449 C   0  0  0  0  0  0  0  0  0  0  0  0
    1.1848    3.0833   -4.1412 C   0  0  0  0  0  0  0  0  0  0  0  0
    0.1147    2.9886   -4.8317 O   0  0  0  0  0  0  0  0  0  0  0  0
    2.2107    3.8638   -4.6533 O   0  0  0  0  0  0  0  0  0  0  0  0
    8.7729   -1.1482    0.2939 H   0  0  0  0  0  0  0  0  0  0  0  0
    9.6045   -0.1092   -0.9083 H   0  0  0  0  0  0  0  0  0  0  0  0
    8.2581   -1.2544   -1.3975 H   0  0  0  0  0  0  0  0  0  0  0  0
    6.6559   -1.8884   -0.0310 H   0  0  0  0  0  0  0  0  0  0  0  0
    4.3533   -2.3474    0.6260 H   0  0  0  0  0  0  0  0  0  0  0  0
    3.5264    1.8066    0.7234 H   0  0  0  0  0  0  0  0  0  0  0  0
    5.8098    2.2853    0.0615 H   0  0  0  0  0  0  0  0  0  0  0  0
    2.3736   -1.4892    1.8737 H   0  0  0  0  0  0  0  0  0  0  0  0
    2.2053    0.8798   -0.9894 H   0  0  0  0  0  0  0  0  0  0  0  0
    1.2028    1.9018    0.1692 H   0  0  0  0  0  0  0  0  0  0  0  0
   -1.9009    0.9438   -0.9484 H   0  0  0  0  0  0  0  0  0  0  0  0
   -1.2966   -0.5006   -1.8087 H   0  0  0  0  0  0  0  0  0  0  0  0
   -3.6254   -0.5756   -1.2716 H   0  0  0  0  0  0  0  0  0  0  0  0
   -6.0502   -1.4732    0.2130 H   0  0  0  0  0  0  0  0  0  0  0  0
   -7.3666   -0.5785   -2.7744 H   0  0  0  0  0  0  0  0  0  0  0  0
   -8.2756    1.6632   -3.3460 H   0  0  0  0  0  0  0  0  0  0  0  0
   -7.5787    3.6641   -1.9878 H   0  0  0  0  0  0  0  0  0  0  0  0
   -6.0169    3.3357   -0.1343 H   0  0  0  0  0  0  0  0  0  0  0  0
   -5.7697   -1.8467   -2.8009 H   0  0  0  0  0  0  0  0  0  0  0  0
   -5.0515   -3.0000   -1.6121 H   0  0  0  0  0  0  0  0  0  0  0  0
   -6.8581   -2.6034   -1.6104 H   0  0  0  0  0  0  0  0  0  0  0  0
    0.3104   -3.6959    3.1344 H   0  0  0  0  0  0  0  0  0  0  0  0
    1.7170   -4.2057    5.1531 H   0  0  0  0  0  0  0  0  0  0  0  0
    2.1603   -0.0064    5.9074 H   0  0  0  0  0  0  0  0  0  0  0  0
    1.6013    3.1943   -2.0958 H   0  0  0  0  0  0  0  0  0  0  0  0
    2.2157    1.6680   -2.8925 H   0  0  0  0  0  0  0  0  0  0  0  0
    2.0224    4.7020   -5.2200 H   0  0  0  0  0  0  0  0  0  0  0  0
  1  2  1  0
  2  3  1  0
  3  4  2  0
  4  5  1  0
  5  6  2  0
  6  7  1  0
  7  8  2  0
  6  9  1  0
  9 10  2  0
 10 11  1  0
 11 12  1  0
 12 13  1  0
 13 14  1  0
 14 15  2  0
 15 16  1  0
 16 17  1  0
 17 18  2  0
 18 19  1  0
 19 20  2  0
 19 21  1  0
 21 22  1  0
 22 23  1  0
 23 24  2  0
 24 25  1  0
 25 26  2  0
 26 27  1  0
 27 28  2  0
 22 29  1  0
 16 30  1  0
 30 31  2  0
 31 32  1  0
 32 33  2  0
 33 34  1  0
 34 35  2  0
 35 36  1  0
 33 37  1  0
 12 38  1  0
 38 39  2  0
 38 40  1  0
 40 41  1  0
 41 42  2  0
 41 43  1  0
  8  3  1  0
 15 10  1  0
 28 23  1  0
 35 30  1  0
 18 14  1  0
  1 44  1  0
  1 45  1  0
  1 46  1  0
  4 47  1  0
  5 48  1  0
  7 49  1  0
  8 50  1  0
  9 51  1  0
 11 52  1  0
 11 53  1  0
 13 54  1  0
 13 55  1  0
 21 56  1  0
 22 57  1  1
 24 58  1  0
 25 59  1  0
 26 60  1  0
 27 61  1  0
 29 62  1  0
 29 63  1  0
 29 64  1  0
 31 65  1  0
 32 66  1  0
 34 67  1  0
 40 68  1  0
 40 69  1  0
 43 70  1  0
M  END
>  <Ligand ID>  (1) 
LIG0005440

>  <Ligand>  (1) 
CHEMBL3951226

>  <SMILES>  (1) 
COc1ccc(cc1)/C=C/1\CN(Cc2c1n(nc2C(=O)N[C@@H](c1ccccn1)C)c1ccc(cc1Cl)Cl)C(=O)CC(=O)O

>  <CID>  (1) 
134146936.0

>  <ChEMBL ID>  (1) 
nan

>  <InChiKey>  (1) 
ONGMGQZMIUDISF-JZQBQCRLSA-N

>  <InChi>  (1) 
InChI=1S/C31H27Cl2N5O5/c1-18(25-5-3-4-12-34-25)35-31(42)29-23-17-37(27(39)15-28(40)41)16-20(13-19-6-9-22(43-2)10-7-19)30(23)38(36-29)26-11-8-21(32)14-24(26)33/h3-14,18H,15-17H2,1-2H3,(H,35,42)(H,40,41)/b20-13+/t18-/m1/s1

>  <IUPAC Name>  (1) 
3-[(7E)-1-(2,4-dichlorophenyl)-7-[(4-methoxyphenyl)methylidene]-3-[[(1R)-1-pyridin-2-ylethyl]carbamoyl]-4,6-dihydropyrazolo[4,3-c]pyridin-5-yl]-3-oxopropanoic acid

$$$$
