
     RDKit          3D

 21 21  0  0  0  0  0  0  0  0999 V2000
    1.5783   -1.8386   -0.8767 C   0  0  0  0  0  0  0  0  0  0  0  0
    1.6578   -0.9563    0.3276 C   0  0  0  0  0  0  0  0  0  0  0  0
    0.9201    0.3232    0.1539 C   0  0  0  0  0  0  0  0  0  0  0  0
    1.6127    1.4660   -0.0669 N   0  0  0  0  0  0  0  0  0  0  0  0
    0.9984    2.6492   -0.2283 C   0  0  0  0  0  0  0  0  0  0  0  0
   -0.3633    2.6986   -0.1676 C   0  0  0  0  0  0  0  0  0  0  0  0
   -1.0656    1.5841    0.0490 N   0  0  0  0  0  0  0  0  0  0  0  0
   -0.4560    0.3721    0.2153 C   0  0  0  0  0  0  0  0  0  0  0  0
   -1.2800   -0.8040    0.4443 C   0  0  0  0  0  0  0  0  0  0  0  0
   -0.8315   -1.9674    0.5984 O   0  0  0  0  0  0  0  0  0  0  0  0
   -2.7654   -0.6606    0.5069 C   0  0  0  0  0  0  0  0  0  0  0  0
    1.4260   -2.9071   -0.6371 H   0  0  0  0  0  0  0  0  0  0  0  0
    0.8273   -1.4592   -1.6049 H   0  0  0  0  0  0  0  0  0  0  0  0
    2.5680   -1.8144   -1.4146 H   0  0  0  0  0  0  0  0  0  0  0  0
    2.7403   -0.6892    0.5195 H   0  0  0  0  0  0  0  0  0  0  0  0
    1.2876   -1.4158    1.2692 H   0  0  0  0  0  0  0  0  0  0  0  0
    1.5344    3.5742   -0.4059 H   0  0  0  0  0  0  0  0  0  0  0  0
   -0.9220    3.6373   -0.2919 H   0  0  0  0  0  0  0  0  0  0  0  0
   -3.0265   -0.2151    1.5012 H   0  0  0  0  0  0  0  0  0  0  0  0
   -3.1583    0.0582   -0.2543 H   0  0  0  0  0  0  0  0  0  0  0  0
   -3.2822   -1.6351    0.3628 H   0  0  0  0  0  0  0  0  0  0  0  0
  1  2  1  0
  2  3  1  0
  3  4  2  0
  4  5  1  0
  5  6  2  0
  6  7  1  0
  7  8  2  0
  8  9  1  0
  9 10  2  0
  9 11  1  0
  8  3  1  0
  1 12  1  0
  1 13  1  0
  1 14  1  0
  2 15  1  0
  2 16  1  0
  5 17  1  0
  6 18  1  0
 11 19  1  0
 11 20  1  0
 11 21  1  0
M  END
>  <Ligand ID>  (1) 
LIG0000302

>  <Ligand>  (1) 
2-Acetyl-3-ethylpyrazine

>  <SMILES>  (1) 
CCc1nccnc1C(=O)C

>  <CID>  (1) 
61918.0

>  <ChEMBL ID>  (1) 
nan

>  <InChiKey>  (1) 
PPJSYGVFDJEMRP-UHFFFAOYSA-N

>  <InChi>  (1) 
InChI=1S/C8H10N2O/c1-3-7-8(6(2)11)10-5-4-9-7/h4-5H,3H2,1-2H3

>  <IUPAC Name>  (1) 
1-(3-ethylpyrazin-2-yl)ethanone

$$$$
