
     RDKit          3D

 34 34  0  0  0  0  0  0  0  0999 V2000
   -1.8793   -2.0683    1.4883 C   0  0  0  0  0  0  0  0  0  0  0  0
   -2.9531   -1.3027    0.3319 S   0  0  0  0  0  0  0  0  0  0  0  0
   -4.2808   -1.0607    0.9622 O   0  0  0  0  0  0  0  0  0  0  0  0
   -3.1668   -2.1362   -0.8976 O   0  0  0  0  0  0  0  0  0  0  0  0
   -2.2572    0.2670   -0.1001 C   0  0  0  0  0  0  0  0  0  0  0  0
   -2.9580    1.4316    0.1519 C   0  0  0  0  0  0  0  0  0  0  0  0
   -2.4503    2.6600   -0.1649 C   0  0  0  0  0  0  0  0  0  0  0  0
   -1.2111    2.7161   -0.7476 C   0  0  0  0  0  0  0  0  0  0  0  0
   -0.5092    1.5488   -1.0000 C   0  0  0  0  0  0  0  0  0  0  0  0
   -0.9862    0.2966   -0.6959 C   0  0  0  0  0  0  0  0  0  0  0  0
   -0.2918   -0.9082   -0.9538 N   0  0  0  0  0  0  0  0  0  0  0  0
    1.0166   -1.0038   -1.5510 C   0  0  0  0  0  0  0  0  0  0  0  0
    2.0886   -0.3704   -0.7067 C   0  0  0  0  0  0  0  0  0  0  0  0
    2.9311    0.5397   -1.0142 N   0  0  0  0  0  0  0  0  0  0  0  0
    3.7881    0.8704    0.0760 C   0  0  0  0  0  0  0  0  0  0  0  0
    3.5992   -0.2820    1.0319 C   0  0  0  0  0  0  0  0  0  0  0  0
    2.2916   -0.7748    0.6467 N   0  0  0  0  0  0  0  0  0  0  0  0
    0.6859    0.0000    0.0000 Cl  0  0  0  0  0  0  0  0  0  0  0  0
   -2.3794   -2.1176    2.4758 H   0  0  0  0  0  0  0  0  0  0  0  0
   -0.9403   -1.4843    1.6811 H   0  0  0  0  0  0  0  0  0  0  0  0
   -1.6470   -3.1244    1.2056 H   0  0  0  0  0  0  0  0  0  0  0  0
   -3.9384    1.3433    0.6156 H   0  0  0  0  0  0  0  0  0  0  0  0
   -2.9891    3.5752    0.0276 H   0  0  0  0  0  0  0  0  0  0  0  0
   -0.7919    3.6809   -1.0058 H   0  0  0  0  0  0  0  0  0  0  0  0
    0.4513    1.6602   -1.4611 H   0  0  0  0  0  0  0  0  0  0  0  0
   -0.7700   -1.8115   -0.6888 H   0  0  0  0  0  0  0  0  0  0  0  0
    1.3062   -2.0567   -1.6971 H   0  0  0  0  0  0  0  0  0  0  0  0
    0.9787   -0.4434   -2.5132 H   0  0  0  0  0  0  0  0  0  0  0  0
    4.8377    0.8101   -0.2947 H   0  0  0  0  0  0  0  0  0  0  0  0
    3.5718    1.8527    0.5422 H   0  0  0  0  0  0  0  0  0  0  0  0
    4.4013   -1.0478    0.9226 H   0  0  0  0  0  0  0  0  0  0  0  0
    3.4994    0.0562    2.0856 H   0  0  0  0  0  0  0  0  0  0  0  0
    1.6384   -1.3159    1.2477 H   0  0  0  0  0  0  0  0  0  0  0  0
   -0.6859    0.0000    0.0000 H   0  0  0  0  0  0  0  0  0  0  0  0
  1  2  1  0
  2  3  2  0
  2  4  2  0
  2  5  1  0
  5  6  2  0
  6  7  1  0
  7  8  2  0
  8  9  1  0
  9 10  2  0
 10 11  1  0
 11 12  1  0
 12 13  1  0
 13 14  2  0
 14 15  1  0
 15 16  1  0
 16 17  1  0
 10  5  1  0
 17 13  1  0
  1 19  1  0
  1 20  1  0
  1 21  1  0
  6 22  1  0
  7 23  1  0
  8 24  1  0
  9 25  1  0
 11 26  1  0
 12 27  1  0
 12 28  1  0
 15 29  1  0
 15 30  1  0
 16 31  1  0
 16 32  1  0
 17 33  1  0
 18 34  1  0
M  END
>  <Ligand ID>  (1) 
LIG0001005

>  <Ligand>  (1) 
CHEMBL544290

>  <SMILES>  (1) 
CS(=O)(=O)c1ccccc1NCC1=NCCN1.Cl

>  <CID>  (1) 
10379435.0

>  <ChEMBL ID>  (1) 
nan

>  <InChiKey>  (1) 
RIZMQYKRNDNKEZ-UHFFFAOYSA-N

>  <InChi>  (1) 
InChI=1S/C11H15N3O2S.ClH/c1-17(15,16)10-5-3-2-4-9(10)14-8-11-12-6-7-13-11;/h2-5,14H,6-8H2,1H3,(H,12,13);1H

>  <IUPAC Name>  (1) 
N-(4,5-dihydro-1H-imidazol-2-ylmethyl)-2-methylsulfonylaniline;hydrochloride

$$$$
