
     RDKit          3D

100104  0  0  0  0  0  0  0  0999 V2000
    3.0963    3.5026   -1.0842 N   0  0  0  0  0  0  0  0  0  0  0  0
    2.1595    3.9544   -2.0682 C   0  0  0  0  0  0  0  0  0  0  0  0
    1.5728    3.0807   -2.7728 N   0  0  0  0  0  0  0  0  0  0  0  0
    1.9011    1.6613   -2.5253 C   0  0  0  0  0  0  0  0  0  0  0  0
    0.8750    0.7587   -3.0981 C   0  0  0  0  0  0  0  0  0  0  0  0
    1.0588   -0.7036   -2.9346 C   0  0  0  0  0  0  0  0  0  0  0  0
    1.0878   -1.2811   -1.5853 C   0  0  1  0  0  0  0  0  0  0  0  0
    2.1537   -0.8043   -0.7095 C   0  0  0  0  0  0  0  0  0  0  0  0
    1.8106   -0.3210    0.4132 O   0  0  0  0  0  0  0  0  0  0  0  0
    3.5425   -0.8345   -0.9944 N   0  0  0  0  0  0  0  0  0  0  0  0
    4.5351   -0.3267   -0.0107 C   0  0  2  0  0  0  0  0  0  0  0  0
    5.3945    0.6205   -0.6929 C   0  0  0  0  0  0  0  0  0  0  0  0
    5.3011    0.7300   -1.9593 O   0  0  0  0  0  0  0  0  0  0  0  0
    6.3563    1.4698   -0.0805 N   0  0  0  0  0  0  0  0  0  0  0  0
    5.1930   -1.5464    0.5754 C   0  0  0  0  0  0  0  0  0  0  0  0
    6.2275   -1.3512    1.5663 C   0  0  0  0  0  0  0  0  0  0  0  0
    5.9976   -1.3873    2.9475 C   0  0  0  0  0  0  0  0  0  0  0  0
    7.1442   -1.1464    3.6017 N   0  0  0  0  0  0  0  0  0  0  0  0
    8.1426   -0.9486    2.7231 C   0  0  0  0  0  0  0  0  0  0  0  0
    7.5821   -1.0740    1.4706 C   0  0  0  0  0  0  0  0  0  0  0  0
    8.4134   -0.9262    0.3903 C   0  0  0  0  0  0  0  0  0  0  0  0
    9.7532   -0.6621    0.5724 C   0  0  0  0  0  0  0  0  0  0  0  0
   10.3102   -0.5360    1.8387 C   0  0  0  0  0  0  0  0  0  0  0  0
    9.4751   -0.6850    2.9434 C   0  0  0  0  0  0  0  0  0  0  0  0
   -0.2301   -1.0975   -0.9385 N   0  0  0  0  0  0  0  0  0  0  0  0
   -0.9377   -2.2312   -0.4438 C   0  0  0  0  0  0  0  0  0  0  0  0
   -0.4146   -3.3431   -0.5805 O   0  0  0  0  0  0  0  0  0  0  0  0
   -2.2667   -2.0011    0.2112 C   0  0  1  0  0  0  0  0  0  0  0  0
   -2.6548   -0.6091    0.2047 N   0  0  0  0  0  0  0  0  0  0  0  0
   -2.5489    0.2108    1.3479 C   0  0  0  0  0  0  0  0  0  0  0  0
   -2.0798   -0.3261    2.3943 O   0  0  0  0  0  0  0  0  0  0  0  0
   -2.9230    1.6343    1.4455 C   0  0  1  0  0  0  0  0  0  0  0  0
   -3.6801    2.1518    0.3453 N   0  0  0  0  0  0  0  0  0  0  0  0
   -4.8251    1.5503   -0.2375 C   0  0  0  0  0  0  0  0  0  0  0  0
   -5.3295    0.4641    0.1557 O   0  0  0  0  0  0  0  0  0  0  0  0
   -5.5352    2.1946   -1.4000 C   0  0  0  0  0  0  0  0  0  0  0  0
   -6.2102    1.3600   -2.4113 C   0  0  0  0  0  0  0  0  0  0  0  0
   -7.0331    2.0432   -1.3487 C   0  0  0  0  0  0  0  0  0  0  0  0
   -3.4016    2.0494    2.7806 C   0  0  0  0  0  0  0  0  0  0  0  0
   -4.5948    1.3926    3.2830 C   0  0  0  0  0  0  0  0  0  0  0  0
   -5.8319    1.9501    2.9260 C   0  0  0  0  0  0  0  0  0  0  0  0
   -7.0255    1.4251    3.3548 C   0  0  0  0  0  0  0  0  0  0  0  0
   -7.0730    0.3087    4.1685 C   0  0  0  0  0  0  0  0  0  0  0  0
   -5.8681   -0.2510    4.5287 C   0  0  0  0  0  0  0  0  0  0  0  0
   -4.6566    0.2870    4.0905 C   0  0  0  0  0  0  0  0  0  0  0  0
   -8.6136   -0.3153    4.6833 Cl  0  0  0  0  0  0  0  0  0  0  0  0
   -3.3023   -2.9919   -0.0937 C   0  0  0  0  0  0  0  0  0  0  0  0
   -3.7284   -3.2056   -1.4602 C   0  0  0  0  0  0  0  0  0  0  0  0
   -4.7662   -2.5046   -2.0486 C   0  0  0  0  0  0  0  0  0  0  0  0
   -5.1768   -2.7098   -3.3501 C   0  0  0  0  0  0  0  0  0  0  0  0
   -4.5626   -3.6422   -4.1457 C   0  0  0  0  0  0  0  0  0  0  0  0
   -3.5219   -4.3557   -3.5784 C   0  0  0  0  0  0  0  0  0  0  0  0
   -3.1030   -4.1597   -2.2836 C   0  0  0  0  0  0  0  0  0  0  0  0
    1.8806    5.3477   -2.2632 N   0  0  0  0  0  0  0  0  0  0  0  0
    4.1243    3.3844   -1.3075 H   0  0  0  0  0  0  0  0  0  0  0  0
    2.8215    3.2690   -0.1056 H   0  0  0  0  0  0  0  0  0  0  0  0
    2.0113    1.5979   -1.4319 H   0  0  0  0  0  0  0  0  0  0  0  0
    2.9164    1.4914   -2.9910 H   0  0  0  0  0  0  0  0  0  0  0  0
    0.8213    0.9901   -4.2089 H   0  0  0  0  0  0  0  0  0  0  0  0
   -0.1375    1.1074   -2.7403 H   0  0  0  0  0  0  0  0  0  0  0  0
    0.2221   -1.2375   -3.4963 H   0  0  0  0  0  0  0  0  0  0  0  0
    1.9774   -1.0426   -3.5052 H   0  0  0  0  0  0  0  0  0  0  0  0
    1.2293   -2.3882   -1.6931 H   0  0  0  0  0  0  0  0  0  0  0  0
    3.8497   -1.2199   -1.9049 H   0  0  0  0  0  0  0  0  0  0  0  0
    3.8964    0.1366    0.8024 H   0  0  0  0  0  0  0  0  0  0  0  0
    6.1440    1.9957    0.8119 H   0  0  0  0  0  0  0  0  0  0  0  0
    7.3029    1.5988   -0.4980 H   0  0  0  0  0  0  0  0  0  0  0  0
    5.6070   -2.1876   -0.2539 H   0  0  0  0  0  0  0  0  0  0  0  0
    4.3506   -2.1599    1.0158 H   0  0  0  0  0  0  0  0  0  0  0  0
    5.0592   -1.5773    3.4586 H   0  0  0  0  0  0  0  0  0  0  0  0
    7.2571   -1.1146    4.6508 H   0  0  0  0  0  0  0  0  0  0  0  0
    7.9604   -1.0290   -0.5921 H   0  0  0  0  0  0  0  0  0  0  0  0
   10.4061   -0.5470   -0.3055 H   0  0  0  0  0  0  0  0  0  0  0  0
   11.3745   -0.3259    1.9776 H   0  0  0  0  0  0  0  0  0  0  0  0
    9.9217   -0.5839    3.9247 H   0  0  0  0  0  0  0  0  0  0  0  0
   -0.6289   -0.1230   -0.8517 H   0  0  0  0  0  0  0  0  0  0  0  0
   -2.0040   -2.1868    1.3116 H   0  0  0  0  0  0  0  0  0  0  0  0
   -2.9961   -0.2259   -0.7022 H   0  0  0  0  0  0  0  0  0  0  0  0
   -1.8829    2.1512    1.3195 H   0  0  0  0  0  0  0  0  0  0  0  0
   -3.3919    3.0778   -0.1082 H   0  0  0  0  0  0  0  0  0  0  0  0
   -5.0759    3.1604   -1.7158 H   0  0  0  0  0  0  0  0  0  0  0  0
   -6.2562    1.7762   -3.4487 H   0  0  0  0  0  0  0  0  0  0  0  0
   -6.0666    0.2688   -2.3565 H   0  0  0  0  0  0  0  0  0  0  0  0
   -7.4659    1.3665   -0.5776 H   0  0  0  0  0  0  0  0  0  0  0  0
   -7.6886    2.8807   -1.5906 H   0  0  0  0  0  0  0  0  0  0  0  0
   -2.5471    1.8395    3.5016 H   0  0  0  0  0  0  0  0  0  0  0  0
   -3.5659    3.1735    2.7920 H   0  0  0  0  0  0  0  0  0  0  0  0
   -5.8747    2.8385    2.2804 H   0  0  0  0  0  0  0  0  0  0  0  0
   -7.9622    1.9097    3.0386 H   0  0  0  0  0  0  0  0  0  0  0  0
   -5.8738   -1.1362    5.1730 H   0  0  0  0  0  0  0  0  0  0  0  0
   -3.7772   -0.1970    4.4239 H   0  0  0  0  0  0  0  0  0  0  0  0
   -2.9854   -3.9672    0.3508 H   0  0  0  0  0  0  0  0  0  0  0  0
   -4.2113   -2.7159    0.5190 H   0  0  0  0  0  0  0  0  0  0  0  0
   -5.2549   -1.7712   -1.4234 H   0  0  0  0  0  0  0  0  0  0  0  0
   -5.9894   -2.1374   -3.7569 H   0  0  0  0  0  0  0  0  0  0  0  0
   -4.8755   -3.8104   -5.1631 H   0  0  0  0  0  0  0  0  0  0  0  0
   -3.0265   -5.1022   -4.2102 H   0  0  0  0  0  0  0  0  0  0  0  0
   -2.2894   -4.7668   -1.9348 H   0  0  0  0  0  0  0  0  0  0  0  0
    2.5287    5.9836   -2.7842 H   0  0  0  0  0  0  0  0  0  0  0  0
    0.9762    5.6863   -1.8424 H   0  0  0  0  0  0  0  0  0  0  0  0
  1  2  1  0
  2  3  2  3
  3  4  1  0
  4  5  1  0
  5  6  1  0
  6  7  1  0
  7  8  1  0
  8  9  2  0
  8 10  1  0
 10 11  1  0
 11 12  1  0
 12 13  2  0
 12 14  1  0
 11 15  1  0
 15 16  1  0
 16 17  2  0
 17 18  1  0
 18 19  1  0
 19 20  2  0
 20 21  1  0
 21 22  2  0
 22 23  1  0
 23 24  2  0
  7 25  1  0
 25 26  1  0
 26 27  2  0
 26 28  1  0
 28 29  1  0
 29 30  1  0
 30 31  2  0
 30 32  1  0
 32 33  1  0
 33 34  1  0
 34 35  2  0
 34 36  1  0
 36 37  1  0
 37 38  1  0
 32 39  1  0
 39 40  1  0
 40 41  2  0
 41 42  1  0
 42 43  2  0
 43 44  1  0
 44 45  2  0
 43 46  1  0
 28 47  1  0
 47 48  1  0
 48 49  2  0
 49 50  1  0
 50 51  2  0
 51 52  1  0
 52 53  2  0
  2 54  1  0
 20 16  1  0
 38 36  1  0
 45 40  1  0
 53 48  1  0
 24 19  1  0
  1 55  1  0
  1 56  1  0
  4 57  1  0
  4 58  1  0
  5 59  1  0
  5 60  1  0
  6 61  1  0
  6 62  1  0
  7 63  1  6
 10 64  1  0
 11 65  1  1
 14 66  1  0
 14 67  1  0
 15 68  1  0
 15 69  1  0
 17 70  1  0
 18 71  1  0
 21 72  1  0
 22 73  1  0
 23 74  1  0
 24 75  1  0
 25 76  1  0
 28 77  1  1
 29 78  1  0
 32 79  1  6
 33 80  1  0
 36 81  1  0
 37 82  1  0
 37 83  1  0
 38 84  1  0
 38 85  1  0
 39 86  1  0
 39 87  1  0
 41 88  1  0
 42 89  1  0
 44 90  1  0
 45 91  1  0
 47 92  1  0
 47 93  1  0
 49 94  1  0
 50 95  1  0
 51 96  1  0
 52 97  1  0
 53 98  1  0
 54 99  1  0
 54100  1  0
M  END
>  <Ligand ID>  (1) 
LIG0002945

>  <Ligand>  (1) 
CHEMBL359702

>  <SMILES>  (1) 
NC(=NCCC[C@@H](C(=O)N[C@H](C(=O)N)Cc1c[nH]c2c1cccc2)NC(=O)[C@@H](NC(=O)[C@@H](NC(=O)C1CC1)Cc1ccc(cc1)Cl)Cc1ccccc1)N

>  <CID>  (1) 
44394581.0

>  <ChEMBL ID>  (1) 
nan

>  <InChiKey>  (1) 
OPHLMMMJARHZQY-YRCZKMHPSA-N

>  <InChi>  (1) 
InChI=1S/C39H46ClN9O5/c40-27-16-12-24(13-17-27)20-32(48-35(51)25-14-15-25)38(54)49-33(19-23-7-2-1-3-8-23)37(53)46-30(11-6-18-44-39(42)43)36(52)47-31(34(41)50)21-26-22-45-29-10-5-4-9-28(26)29/h1-5,7-10,12-13,16-17,22,25,30-33,45H,6,11,14-15,18-21H2,(H2,41,50)(H,46,53)(H,47,52)(H,48,51)(H,49,54)(H4,42,43,44)/t30-,31-,32-,33-/m0/s1

>  <IUPAC Name>  (1) 
N-[(2S)-1-[[(2S)-1-[[(2S)-1-[[(2S)-1-amino-3-(1H-indol-3-yl)-1-oxopropan-2-yl]amino]-5-(diaminomethylideneamino)-1-oxopentan-2-yl]amino]-1-oxo-3-phenylpropan-2-yl]amino]-3-(4-chlorophenyl)-1-oxopropan-2-yl]cyclopropanecarboxamide

$$$$
