
     RDKit          3D

 97101  0  0  0  0  0  0  0  0999 V2000
    2.9911    1.3686   -4.5872 C   0  0  0  0  0  0  0  0  0  0  0  0
    2.7593    2.8383   -4.3476 C   0  0  0  0  0  0  0  0  0  0  0  0
    3.1819    3.1252   -3.0157 O   0  0  0  0  0  0  0  0  0  0  0  0
    2.5510    2.4586   -1.9547 C   0  0  0  0  0  0  0  0  0  0  0  0
    1.6655    1.6560   -2.2856 O   0  0  0  0  0  0  0  0  0  0  0  0
    2.9390    2.7223   -0.5696 N   0  0  0  0  0  0  0  0  0  0  0  0
    3.9970    3.7506   -0.5254 C   0  0  0  0  0  0  0  0  0  0  0  0
    3.3529    5.0241    0.0699 C   0  0  0  0  0  0  0  0  0  0  0  0
    5.2190    3.4859    0.2278 C   0  0  0  0  0  0  0  0  0  0  0  0
    2.3048    2.1740    0.5543 C   0  0  0  0  0  0  0  0  0  0  0  0
    2.4561    0.8686    1.1572 C   0  0  0  0  0  0  0  0  0  0  0  0
    1.4992    0.9941    2.3796 C   0  0  0  0  0  0  0  0  0  0  0  0
    0.0678    0.8920    2.1330 C   0  0  0  0  0  0  0  0  0  0  0  0
   -0.2510   -0.3994    1.5439 N   0  0  0  0  0  0  0  0  0  0  0  0
    0.9347   -1.1746    1.1301 C   0  0  0  0  0  0  0  0  0  0  0  0
    1.7349   -0.1584    0.2960 C   0  0  0  0  0  0  0  0  0  0  0  0
   -1.5714   -0.8104    1.3682 C   0  0  0  0  0  0  0  0  0  0  0  0
   -2.4860   -0.0147    1.7543 O   0  0  0  0  0  0  0  0  0  0  0  0
   -2.0139   -2.1039    0.7599 C   0  0  1  0  0  0  0  0  0  0  0  0
   -1.7378   -3.2117    1.7466 C   0  0  0  0  0  0  0  0  0  0  0  0
   -2.1541   -4.5342    1.1850 C   0  0  0  0  0  0  0  0  0  0  0  0
   -1.1925   -5.2055    0.4471 C   0  0  0  0  0  0  0  0  0  0  0  0
   -1.4686   -6.4395   -0.1294 C   0  0  0  0  0  0  0  0  0  0  0  0
   -2.7344   -6.9383    0.0779 C   0  0  0  0  0  0  0  0  0  0  0  0
   -3.6894   -6.2639    0.8149 C   0  0  0  0  0  0  0  0  0  0  0  0
   -3.4234   -5.0331    1.3946 C   0  0  0  0  0  0  0  0  0  0  0  0
   -3.1381   -8.4919   -0.6269 Cl  0  0  0  0  0  0  0  0  0  0  0  0
   -3.4802   -2.0168    0.6367 N   0  0  0  0  0  0  0  0  0  0  0  0
   -3.9762   -1.8213   -0.6748 C   0  0  0  0  0  0  0  0  0  0  0  0
   -3.0992   -1.7434   -1.5966 O   0  0  0  0  0  0  0  0  0  0  0  0
   -5.3836   -1.7007   -1.0425 C   0  0  2  0  0  0  0  0  0  0  0  0
   -5.4557   -1.3899   -2.4590 N   0  0  0  0  0  0  0  0  0  0  0  0
   -5.0668   -0.0116   -2.7244 C   0  0  0  0  0  0  0  0  0  0  0  0
   -6.1550    0.8213   -2.1135 C   0  0  0  0  0  0  0  0  0  0  0  0
   -6.6731    0.3979   -0.9050 C   0  0  0  0  0  0  0  0  0  0  0  0
   -6.2081   -0.8064   -0.1750 C   0  0  0  0  0  0  0  0  0  0  0  0
   -7.6955    1.1629   -0.3262 C   0  0  0  0  0  0  0  0  0  0  0  0
   -8.1656    2.3114   -0.9578 C   0  0  0  0  0  0  0  0  0  0  0  0
   -7.6003    2.6707   -2.1596 C   0  0  0  0  0  0  0  0  0  0  0  0
   -6.5925    1.9467   -2.7643 C   0  0  0  0  0  0  0  0  0  0  0  0
    3.7529    0.3152    1.6811 C   0  0  0  0  0  0  0  0  0  0  0  0
    4.3883    1.0060    2.8244 C   0  0  0  0  0  0  0  0  0  0  0  0
    5.8712    0.9629    2.8845 C   0  0  0  0  0  0  0  0  0  0  0  0
    6.4776   -0.2779    2.2854 C   0  0  0  0  0  0  0  0  0  0  0  0
    6.1108   -0.2032    0.8031 C   0  0  0  0  0  0  0  0  0  0  0  0
    4.6384   -0.3787    0.7124 C   0  0  0  0  0  0  0  0  0  0  0  0
    3.4348    0.8332   -3.7181 H   0  0  0  0  0  0  0  0  0  0  0  0
    2.0423    0.8044   -4.8214 H   0  0  0  0  0  0  0  0  0  0  0  0
    3.7464    1.2146   -5.4146 H   0  0  0  0  0  0  0  0  0  0  0  0
    1.7075    3.1607   -4.5064 H   0  0  0  0  0  0  0  0  0  0  0  0
    3.4581    3.4128   -4.9952 H   0  0  0  0  0  0  0  0  0  0  0  0
    4.2141    3.9862   -1.6036 H   0  0  0  0  0  0  0  0  0  0  0  0
    3.1205    4.8439    1.1327 H   0  0  0  0  0  0  0  0  0  0  0  0
    2.3823    5.2294   -0.4415 H   0  0  0  0  0  0  0  0  0  0  0  0
    3.9713    5.9142   -0.1231 H   0  0  0  0  0  0  0  0  0  0  0  0
    5.9314    2.8224   -0.2612 H   0  0  0  0  0  0  0  0  0  0  0  0
    5.0709    3.3406    1.3209 H   0  0  0  0  0  0  0  0  0  0  0  0
    5.7912    4.5002    0.2304 H   0  0  0  0  0  0  0  0  0  0  0  0
    1.1870    2.2488    0.2821 H   0  0  0  0  0  0  0  0  0  0  0  0
    2.3391    2.9767    1.3619 H   0  0  0  0  0  0  0  0  0  0  0  0
    1.8084    0.2077    3.1067 H   0  0  0  0  0  0  0  0  0  0  0  0
    1.7680    1.9553    2.9011 H   0  0  0  0  0  0  0  0  0  0  0  0
   -0.4320    0.9791    3.1510 H   0  0  0  0  0  0  0  0  0  0  0  0
   -0.4005    1.7208    1.5653 H   0  0  0  0  0  0  0  0  0  0  0  0
    1.4328   -1.4513    2.0719 H   0  0  0  0  0  0  0  0  0  0  0  0
    0.6863   -2.0211    0.4884 H   0  0  0  0  0  0  0  0  0  0  0  0
    0.9012    0.4127   -0.2112 H   0  0  0  0  0  0  0  0  0  0  0  0
    2.3023   -0.5828   -0.5105 H   0  0  0  0  0  0  0  0  0  0  0  0
   -1.5119   -2.2853   -0.1910 H   0  0  0  0  0  0  0  0  0  0  0  0
   -2.3837   -3.0449    2.6352 H   0  0  0  0  0  0  0  0  0  0  0  0
   -0.6953   -3.2257    2.0900 H   0  0  0  0  0  0  0  0  0  0  0  0
   -0.1958   -4.8036    0.2899 H   0  0  0  0  0  0  0  0  0  0  0  0
   -0.6949   -6.9289   -0.6935 H   0  0  0  0  0  0  0  0  0  0  0  0
   -4.6841   -6.7211    0.9422 H   0  0  0  0  0  0  0  0  0  0  0  0
   -4.1767   -4.5470    1.9531 H   0  0  0  0  0  0  0  0  0  0  0  0
   -4.1229   -2.0895    1.4366 H   0  0  0  0  0  0  0  0  0  0  0  0
   -5.8507   -2.7271   -0.9531 H   0  0  0  0  0  0  0  0  0  0  0  0
   -6.4661   -1.4394   -2.7954 H   0  0  0  0  0  0  0  0  0  0  0  0
   -5.0257    0.1279   -3.8039 H   0  0  0  0  0  0  0  0  0  0  0  0
   -4.1338    0.2115   -2.1769 H   0  0  0  0  0  0  0  0  0  0  0  0
   -7.1071   -1.3171    0.2551 H   0  0  0  0  0  0  0  0  0  0  0  0
   -5.6410   -0.4185    0.7010 H   0  0  0  0  0  0  0  0  0  0  0  0
   -8.1183    0.8229    0.6372 H   0  0  0  0  0  0  0  0  0  0  0  0
   -8.9450    2.8470   -0.4575 H   0  0  0  0  0  0  0  0  0  0  0  0
   -7.9761    3.5664   -2.6399 H   0  0  0  0  0  0  0  0  0  0  0  0
   -6.1285    2.1981   -3.6936 H   0  0  0  0  0  0  0  0  0  0  0  0
    3.3202   -0.6368    2.2261 H   0  0  0  0  0  0  0  0  0  0  0  0
    4.0607    2.0577    2.9426 H   0  0  0  0  0  0  0  0  0  0  0  0
    4.0671    0.5805    3.8476 H   0  0  0  0  0  0  0  0  0  0  0  0
    6.2378    0.9532    3.9624 H   0  0  0  0  0  0  0  0  0  0  0  0
    6.4149    1.8290    2.4607 H   0  0  0  0  0  0  0  0  0  0  0  0
    6.2208   -1.2160    2.7641 H   0  0  0  0  0  0  0  0  0  0  0  0
    7.5924   -0.0781    2.2908 H   0  0  0  0  0  0  0  0  0  0  0  0
    6.5265    0.7437    0.4318 H   0  0  0  0  0  0  0  0  0  0  0  0
    6.5841   -1.0708    0.2617 H   0  0  0  0  0  0  0  0  0  0  0  0
    4.3689   -0.1971   -0.3528 H   0  0  0  0  0  0  0  0  0  0  0  0
    4.5202   -1.5233    0.7594 H   0  0  0  0  0  0  0  0  0  0  0  0
  1  2  1  0
  2  3  1  0
  3  4  1  0
  4  5  2  0
  4  6  1  0
  6  7  1  0
  7  8  1  0
  7  9  1  0
  6 10  1  0
 10 11  1  0
 11 12  1  0
 12 13  1  0
 13 14  1  0
 14 15  1  0
 15 16  1  0
 14 17  1  0
 17 18  2  0
 17 19  1  0
 19 20  1  0
 20 21  1  0
 21 22  2  0
 22 23  1  0
 23 24  2  0
 24 25  1  0
 25 26  2  0
 24 27  1  0
 19 28  1  0
 28 29  1  0
 29 30  2  0
 29 31  1  0
 31 32  1  0
 32 33  1  0
 33 34  1  0
 34 35  2  0
 35 36  1  0
 35 37  1  0
 37 38  2  0
 38 39  1  0
 39 40  2  0
 11 41  1  0
 41 42  1  0
 42 43  1  0
 43 44  1  0
 44 45  1  0
 45 46  1  0
 16 11  1  0
 26 21  1  0
 36 31  1  0
 46 41  1  0
 40 34  1  0
  1 47  1  0
  1 48  1  0
  1 49  1  0
  2 50  1  0
  2 51  1  0
  7 52  1  0
  8 53  1  0
  8 54  1  0
  8 55  1  0
  9 56  1  0
  9 57  1  0
  9 58  1  0
 10 59  1  0
 10 60  1  0
 12 61  1  0
 12 62  1  0
 13 63  1  0
 13 64  1  0
 15 65  1  0
 15 66  1  0
 16 67  1  0
 16 68  1  0
 19 69  1  6
 20 70  1  0
 20 71  1  0
 22 72  1  0
 23 73  1  0
 25 74  1  0
 26 75  1  0
 28 76  1  0
 31 77  1  6
 32 78  1  0
 33 79  1  0
 33 80  1  0
 36 81  1  0
 36 82  1  0
 37 83  1  0
 38 84  1  0
 39 85  1  0
 40 86  1  0
 41 87  1  0
 42 88  1  0
 42 89  1  0
 43 90  1  0
 43 91  1  0
 44 92  1  0
 44 93  1  0
 45 94  1  0
 45 95  1  0
 46 96  1  0
 46 97  1  0
M  END
>  <Ligand ID>  (1) 
LIG0001938

>  <Ligand>  (1) 
CHEMBL380727

>  <SMILES>  (1) 
CCOC(=O)N(C(C)C)CC1(CCN(CC1)C(=O)[C@@H](Cc1ccc(cc1)Cl)NC(=O)[C@@H]1NCc2c(C1)cccc2)C1CCCCC1

>  <CID>  (1) 
44408253.0

>  <ChEMBL ID>  (1) 
nan

>  <InChiKey>  (1) 
HXKRGRRDOBSQCO-CZNDPXEESA-N

>  <InChi>  (1) 
InChI=1S/C37H51ClN4O4/c1-4-46-36(45)42(26(2)3)25-37(30-12-6-5-7-13-30)18-20-41(21-19-37)35(44)33(22-27-14-16-31(38)17-15-27)40-34(43)32-23-28-10-8-9-11-29(28)24-39-32/h8-11,14-17,26,30,32-33,39H,4-7,12-13,18-25H2,1-3H3,(H,40,43)/t32-,33-/m1/s1

>  <IUPAC Name>  (1) 
ethyl N-[[1-[(2R)-3-(4-chlorophenyl)-2-[[(3R)-1,2,3,4-tetrahydroisoquinoline-3-carbonyl]amino]propanoyl]-4-cyclohexylpiperidin-4-yl]methyl]-N-propan-2-ylcarbamate

$$$$
