
     RDKit          3D

 55 56  0  0  0  0  0  0  0  0999 V2000
   -3.1767   -3.1840    0.3616 O   0  0  0  0  0  0  0  0  0  0  0  0
   -3.1519   -2.0843   -0.4697 C   0  0  2  0  0  0  0  0  0  0  0  0
   -2.3950   -0.9347    0.1654 C   0  0  1  0  0  0  0  0  0  0  0  0
   -0.9518   -0.9036   -0.2244 C   0  0  0  0  0  0  0  0  0  0  0  0
   -0.2597   -2.0275    0.1806 O   0  0  0  0  0  0  0  0  0  0  0  0
    1.3692   -1.9739   -0.2690 P   0  0  0  0  0  0  0  0  0  0  0  0
    1.6045   -3.1180   -1.2382 O   0  0  0  0  0  0  0  0  0  0  0  0
    1.7762   -0.5336   -1.0153 O   0  0  0  0  0  0  0  0  0  0  0  0
    2.7518    0.3991   -0.0105 P   0  0  0  0  0  0  0  0  0  0  0  0
    1.9336    0.8465    1.1805 O   0  0  0  0  0  0  0  0  0  0  0  0
    4.1116   -0.4444    0.5785 O   0  0  0  0  0  0  0  0  0  0  0  0
    5.4179   -0.0209    0.2885 C   0  0  0  0  0  0  0  0  0  0  0  0
    6.2462   -0.8802   -0.3903 C   0  0  0  0  0  0  0  0  0  0  0  0
    7.5286   -0.4618   -0.6738 C   0  0  0  0  0  0  0  0  0  0  0  0
    7.9667    0.7879   -0.2849 C   0  0  0  0  0  0  0  0  0  0  0  0
    7.1369    1.6712    0.4050 C   0  0  0  0  0  0  0  0  0  0  0  0
    5.8491    1.2393    0.6845 C   0  0  0  0  0  0  0  0  0  0  0  0
    9.3051    1.1428   -0.6166 N   0  0  0  0  0  0  0  0  0  0  0  0
    9.7879    2.2587   -0.3028 O   0  0  0  0  0  0  0  0  0  0  0  0
   10.1558    0.2963   -1.2980 O   0  0  0  0  0  0  0  0  0  0  0  0
    3.2911    1.7807   -0.8214 O   0  0  0  0  0  0  0  0  0  0  0  0
    2.3623   -2.2923    1.0762 O   0  0  0  0  0  0  0  0  0  0  0  0
   -3.0804    0.2275   -0.2612 O   0  0  0  0  0  0  0  0  0  0  0  0
   -4.3817   -0.1957    0.0970 C   0  0  2  0  0  0  0  0  0  0  0  0
   -4.5346   -1.4451   -0.6453 C   0  0  2  0  0  0  0  0  0  0  0  0
   -5.4245   -2.2816    0.0273 O   0  0  0  0  0  0  0  0  0  0  0  0
   -5.3540    0.8264   -0.0760 N   0  0  0  0  0  0  0  0  0  0  0  0
   -5.1050    2.0452    0.4458 C   0  0  0  0  0  0  0  0  0  0  0  0
   -5.9995    3.0811    0.3174 C   0  0  0  0  0  0  0  0  0  0  0  0
   -7.1701    2.8911   -0.3491 C   0  0  0  0  0  0  0  0  0  0  0  0
   -7.9615    3.8657   -0.4440 O   0  0  0  0  0  0  0  0  0  0  0  0
   -7.4180    1.6803   -0.8678 N   0  0  0  0  0  0  0  0  0  0  0  0
   -6.5275    0.6819   -0.7293 C   0  0  0  0  0  0  0  0  0  0  0  0
   -6.8001   -0.4163   -1.2245 O   0  0  0  0  0  0  0  0  0  0  0  0
   -0.0048   -0.0071    0.2721 N   0  0  0  0  0  0  0  0  0  0  0  0
   -2.4735   -3.1033    1.0564 H   0  0  0  0  0  0  0  0  0  0  0  0
   -2.6872   -2.3638   -1.4352 H   0  0  0  0  0  0  0  0  0  0  0  0
   -2.4996   -0.9592    1.2696 H   0  0  0  0  0  0  0  0  0  0  0  0
   -0.8486   -0.7280   -1.3141 H   0  0  0  0  0  0  0  0  0  0  0  0
   -0.5138   -0.0035    0.2561 H   0  0  0  0  0  0  0  0  0  0  0  0
    5.8958   -1.8561   -0.6909 H   0  0  0  0  0  0  0  0  0  0  0  0
    8.1625   -1.1625   -1.2121 H   0  0  0  0  0  0  0  0  0  0  0  0
    7.5025    2.6440    0.6987 H   0  0  0  0  0  0  0  0  0  0  0  0
    5.1716    1.8918    1.2176 H   0  0  0  0  0  0  0  0  0  0  0  0
    4.2196    1.6068   -1.1443 H   0  0  0  0  0  0  0  0  0  0  0  0
    1.8417   -2.4364    1.9031 H   0  0  0  0  0  0  0  0  0  0  0  0
   -4.3191   -0.4291    1.1817 H   0  0  0  0  0  0  0  0  0  0  0  0
   -4.7022   -1.3919   -1.7139 H   0  0  0  0  0  0  0  0  0  0  0  0
   -5.3932   -2.0553    1.0041 H   0  0  0  0  0  0  0  0  0  0  0  0
   -4.1676    2.2101    0.9837 H   0  0  0  0  0  0  0  0  0  0  0  0
   -5.7668    4.0579    0.7528 H   0  0  0  0  0  0  0  0  0  0  0  0
   -8.3243    1.5546   -1.3770 H   0  0  0  0  0  0  0  0  0  0  0  0
   -0.5173   -0.8287   -0.0928 H   0  0  0  0  0  0  0  0  0  0  0  0
   -0.4420    0.8796   -0.0897 H   0  0  0  0  0  0  0  0  0  0  0  0
    0.9641   -0.0437   -0.0896 H   0  0  0  0  0  0  0  0  0  0  0  0
  1  2  1  0
  2  3  1  0
  3  4  1  0
  4  5  1  0
  5  6  1  0
  6  7  2  0
  6  8  1  0
  8  9  1  0
  9 10  2  0
  9 11  1  0
 11 12  1  0
 12 13  2  0
 13 14  1  0
 14 15  2  0
 15 16  1  0
 16 17  2  0
 15 18  1  0
 18 19  2  0
 18 20  1  0
  9 21  1  0
  6 22  1  0
  3 23  1  0
 23 24  1  0
 24 25  1  0
 25 26  1  0
 24 27  1  0
 27 28  1  0
 28 29  2  0
 29 30  1  0
 30 31  2  0
 30 32  1  0
 32 33  1  0
 33 34  2  0
 25  2  1  0
 33 27  1  0
 17 12  1  0
  1 36  1  0
  2 37  1  6
  3 38  1  1
  4 39  1  0
  4 40  1  0
 13 41  1  0
 14 42  1  0
 16 43  1  0
 17 44  1  0
 21 45  1  0
 22 46  1  0
 24 47  1  1
 25 48  1  6
 26 49  1  0
 28 50  1  0
 29 51  1  0
 32 52  1  0
 35 53  1  0
 35 54  1  0
 35 55  1  0
M  CHG  2  18   1  20  -1
M  END
>  <Ligand ID>  (1) 
LIG0005874

>  <Ligand>  (1) 
CHEMBL612119

>  <SMILES>  (1) 
O[C@@H]1[C@@H](COP(=O)(OP(=O)(Oc2ccc(cc2)[N+](=O)[O-])O)O)O[C@H]([C@@H]1O)n1ccc(=O)[nH]c1=O.N

>  <CID>  (1) 
44627801.0

>  <ChEMBL ID>  (1) 
nan

>  <InChiKey>  (1) 
RRIGBJNTHODANE-VNQMUNOFSA-N

>  <InChi>  (1) 
InChI=1S/C15H17N3O14P2.H3N/c19-11-5-6-17(15(22)16-11)14-13(21)12(20)10(30-14)7-29-33(25,26)32-34(27,28)31-9-3-1-8(2-4-9)18(23)24;/h1-6,10,12-14,20-21H,7H2,(H,25,26)(H,27,28)(H,16,19,22);1H3/t10-,12-,13-,14-;/m1./s1

>  <IUPAC Name>  (1) 
azane;[[(2R,3S,4R,5R)-5-(2,4-dioxopyrimidin-1-yl)-3,4-dihydroxyoxolan-2-yl]methoxy-hydroxyphosphoryl] (4-nitrophenyl) hydrogen phosphate

$$$$
