
     RDKit          3D

 32 33  0  0  0  0  0  0  0  0999 V2000
   -3.6261    1.3087    0.9210 C   0  0  0  0  0  0  0  0  0  0  0  0
   -2.8501    0.2132    0.1569 C   0  0  0  0  0  0  0  0  0  0  0  0
   -1.4164    0.6334   -0.0122 C   0  0  0  0  0  0  0  0  0  0  0  0
   -0.6481   -0.3769   -0.7604 C   0  0  0  0  0  0  0  0  0  0  0  0
    0.7911   -0.0504   -0.9683 C   0  0  0  0  0  0  0  0  0  0  0  0
    1.2545    0.5366   -2.1514 C   0  0  0  0  0  0  0  0  0  0  0  0
    2.5832    0.8685   -2.3144 C   0  0  0  0  0  0  0  0  0  0  0  0
    2.9796    1.3984   -3.3942 O   0  0  0  0  0  0  0  0  0  0  0  0
    3.4486    0.6386   -1.3543 O   0  0  0  0  0  0  0  0  0  0  0  0
    3.0814    0.0912   -0.2236 C   0  0  0  0  0  0  0  0  0  0  0  0
    1.7571   -0.2638   -0.0040 C   0  0  0  0  0  0  0  0  0  0  0  0
    1.4214   -0.8398    1.1938 C   0  0  0  0  0  0  0  0  0  0  0  0
    0.2513   -1.1908    1.4624 O   0  0  0  0  0  0  0  0  0  0  0  0
    2.4076   -1.0234    2.0900 N   0  0  0  0  0  0  0  0  0  0  0  0
    3.6874   -0.6705    1.8607 C   0  0  0  0  0  0  0  0  0  0  0  0
    4.6084   -0.8479    2.7145 O   0  0  0  0  0  0  0  0  0  0  0  0
    4.0431   -0.1053    0.6936 N   0  0  0  0  0  0  0  0  0  0  0  0
   -2.9959   -1.0761    0.9172 C   0  0  0  0  0  0  0  0  0  0  0  0
   -3.1277    1.5661    1.8649 H   0  0  0  0  0  0  0  0  0  0  0  0
   -3.7930    2.1498    0.2279 H   0  0  0  0  0  0  0  0  0  0  0  0
   -4.6157    0.8634    1.1469 H   0  0  0  0  0  0  0  0  0  0  0  0
   -3.3795    0.0899   -0.8089 H   0  0  0  0  0  0  0  0  0  0  0  0
   -0.9830    1.0738    0.8990 H   0  0  0  0  0  0  0  0  0  0  0  0
   -1.4762    1.5517   -0.6994 H   0  0  0  0  0  0  0  0  0  0  0  0
   -1.0793   -0.3211   -1.8160 H   0  0  0  0  0  0  0  0  0  0  0  0
   -0.8219   -1.4386   -0.5643 H   0  0  0  0  0  0  0  0  0  0  0  0
    0.5196    0.7221   -2.9448 H   0  0  0  0  0  0  0  0  0  0  0  0
    2.2080   -1.4558    3.0186 H   0  0  0  0  0  0  0  0  0  0  0  0
    5.0486    0.1704    0.5160 H   0  0  0  0  0  0  0  0  0  0  0  0
   -4.0693   -1.4347    0.8038 H   0  0  0  0  0  0  0  0  0  0  0  0
   -2.8259   -0.9320    2.0106 H   0  0  0  0  0  0  0  0  0  0  0  0
   -2.3826   -1.8489    0.4715 H   0  0  0  0  0  0  0  0  0  0  0  0
  1  2  1  0
  2  3  1  0
  3  4  1  0
  4  5  1  0
  5  6  2  0
  6  7  1  0
  7  8  2  0
  7  9  1  0
  9 10  1  0
 10 11  2  0
 11 12  1  0
 12 13  2  0
 12 14  1  0
 14 15  1  0
 15 16  2  0
 15 17  1  0
  2 18  1  0
 11  5  1  0
 17 10  1  0
  1 19  1  0
  1 20  1  0
  1 21  1  0
  2 22  1  0
  3 23  1  0
  3 24  1  0
  4 25  1  0
  4 26  1  0
  6 27  1  0
 14 28  1  0
 17 29  1  0
 18 30  1  0
 18 31  1  0
 18 32  1  0
M  END
>  <Ligand ID>  (1) 
LIG0003468

>  <Ligand>  (1) 
CHEMBL2036948

>  <SMILES>  (1) 
CC(CCc1cc(=O)oc2c1c(=O)[nH]c(=O)[nH]2)C

>  <CID>  (1) 
15604642.0

>  <ChEMBL ID>  (1) 
nan

>  <InChiKey>  (1) 
XDLZEYWTUFKVLJ-UHFFFAOYSA-N

>  <InChi>  (1) 
InChI=1S/C12H14N2O4/c1-6(2)3-4-7-5-8(15)18-11-9(7)10(16)13-12(17)14-11/h5-6H,3-4H2,1-2H3,(H2,13,14,16,17)

>  <IUPAC Name>  (1) 
5-(3-methylbutyl)-1H-pyrano[2,3-d]pyrimidine-2,4,7-trione

$$$$
