
     RDKit          3D

 48 51  0  0  0  0  0  0  0  0999 V2000
   -3.5844    4.6479   -0.7857 C   0  0  0  0  0  0  0  0  0  0  0  0
   -2.1035    4.5032    0.2321 S   0  0  0  0  0  0  0  0  0  0  0  0
   -1.6841    2.7450    0.5338 C   0  0  0  0  0  0  0  0  0  0  0  0
   -1.2898    2.1123   -0.7499 C   0  0  0  0  0  0  0  0  0  0  0  0
   -0.8616    0.6855   -0.7206 C   0  0  0  0  0  0  0  0  0  0  0  0
   -1.8023   -0.2754   -0.2264 N   0  0  0  0  0  0  0  0  0  0  0  0
   -2.2610   -0.4986    1.1197 C   0  0  0  0  0  0  0  0  0  0  0  0
   -1.9119    0.1155    2.1557 O   0  0  0  0  0  0  0  0  0  0  0  0
   -3.2323   -1.5829    1.1431 C   0  0  0  0  0  0  0  0  0  0  0  0
   -3.3891   -2.0352   -0.1293 C   0  0  0  0  0  0  0  0  0  0  0  0
   -2.5339   -1.2614   -0.9900 C   0  0  0  0  0  0  0  0  0  0  0  0
   -2.4468   -1.4360   -2.2477 O   0  0  0  0  0  0  0  0  0  0  0  0
   -4.2616   -3.0876   -0.4453 C   0  0  0  0  0  0  0  0  0  0  0  0
   -4.9876   -3.6918    0.5440 C   0  0  0  0  0  0  0  0  0  0  0  0
   -4.8329   -3.2367    1.8405 C   0  0  0  0  0  0  0  0  0  0  0  0
   -3.9732   -2.2009    2.1454 C   0  0  0  0  0  0  0  0  0  0  0  0
    0.5133    0.5687   -0.1699 C   0  0  0  0  0  0  0  0  0  0  0  0
    1.4217   -0.0850   -0.8745 C   0  0  0  0  0  0  0  0  0  0  0  0
    2.8026   -0.2714   -0.4660 C   0  0  0  0  0  0  0  0  0  0  0  0
    3.8230   -0.1449   -1.3728 N   0  0  0  0  0  0  0  0  0  0  0  0
    4.9934   -0.3621   -0.7674 C   0  0  0  0  0  0  0  0  0  0  0  0
    4.6978   -0.6301    0.5451 C   0  0  0  0  0  0  0  0  0  0  0  0
    3.3408   -0.5722    0.7239 N   0  0  0  0  0  0  0  0  0  0  0  0
    5.7601   -0.8909    1.3871 C   0  0  0  0  0  0  0  0  0  0  0  0
    7.0504   -0.8695    0.8835 C   0  0  0  0  0  0  0  0  0  0  0  0
    7.3335   -0.5960   -0.4429 C   0  0  0  0  0  0  0  0  0  0  0  0
    6.2648   -0.3352   -1.2913 C   0  0  0  0  0  0  0  0  0  0  0  0
    1.0328   -0.6839   -2.1471 C   0  0  0  0  0  0  0  0  0  0  0  0
    0.7179   -1.1803   -3.1552 N   0  0  0  0  0  0  0  0  0  0  0  0
    0.8833    1.1014    1.0313 O   0  0  0  0  0  0  0  0  0  0  0  0
   -3.7192    5.7516   -0.9839 H   0  0  0  0  0  0  0  0  0  0  0  0
   -4.4828    4.3124   -0.2527 H   0  0  0  0  0  0  0  0  0  0  0  0
   -3.4628    4.1685   -1.7896 H   0  0  0  0  0  0  0  0  0  0  0  0
   -0.9762    2.7019    1.3523 H   0  0  0  0  0  0  0  0  0  0  0  0
   -2.6623    2.2961    0.8621 H   0  0  0  0  0  0  0  0  0  0  0  0
   -2.1225    2.3011   -1.4929 H   0  0  0  0  0  0  0  0  0  0  0  0
   -0.4345    2.6890   -1.1997 H   0  0  0  0  0  0  0  0  0  0  0  0
   -0.8066    0.4387   -1.8599 H   0  0  0  0  0  0  0  0  0  0  0  0
   -4.3742   -3.4373   -1.4590 H   0  0  0  0  0  0  0  0  0  0  0  0
   -5.6524   -4.5029    0.2679 H   0  0  0  0  0  0  0  0  0  0  0  0
   -5.4293   -3.7400    2.6082 H   0  0  0  0  0  0  0  0  0  0  0  0
   -3.8582   -1.8468    3.1597 H   0  0  0  0  0  0  0  0  0  0  0  0
    2.8178   -0.7283    1.5999 H   0  0  0  0  0  0  0  0  0  0  0  0
    5.5716   -1.1131    2.4497 H   0  0  0  0  0  0  0  0  0  0  0  0
    7.8958   -1.0720    1.5303 H   0  0  0  0  0  0  0  0  0  0  0  0
    8.3473   -0.5785   -0.8405 H   0  0  0  0  0  0  0  0  0  0  0  0
    6.4061   -0.1140   -2.3430 H   0  0  0  0  0  0  0  0  0  0  0  0
    1.4630    1.9223    1.0875 H   0  0  0  0  0  0  0  0  0  0  0  0
  1  2  1  0
  2  3  1  0
  3  4  1  0
  4  5  1  0
  5  6  1  0
  6  7  1  0
  7  8  2  0
  7  9  1  0
  9 10  2  0
 10 11  1  0
 11 12  2  0
 10 13  1  0
 13 14  2  0
 14 15  1  0
 15 16  2  0
  5 17  1  0
 17 18  2  0
 18 19  1  0
 19 20  2  0
 20 21  1  0
 21 22  2  0
 22 23  1  0
 22 24  1  0
 24 25  2  0
 25 26  1  0
 26 27  2  0
 18 28  1  0
 28 29  3  0
 17 30  1  0
 11  6  1  0
 23 19  1  0
 16  9  1  0
 27 21  1  0
  1 31  1  0
  1 32  1  0
  1 33  1  0
  3 34  1  0
  3 35  1  0
  4 36  1  0
  4 37  1  0
  5 38  1  0
 13 39  1  0
 14 40  1  0
 15 41  1  0
 16 42  1  0
 23 43  1  0
 24 44  1  0
 25 45  1  0
 26 46  1  0
 27 47  1  0
 30 48  1  0
M  END
>  <Ligand ID>  (1) 
LIG0004971

>  <Ligand>  (1) 
AC1NSJDQ

>  <SMILES>  (1) 
CSCCC(N1C(=O)c2c(C1=O)cccc2)/C(=C(/c1nc2c([nH]1)cccc2)\C#N)/O

>  <CID>  (1) 
135449217.0

>  <ChEMBL ID>  (1) 
nan

>  <InChiKey>  (1) 
NBXSYKFEHWPSFM-CYVLTUHYSA-N

>  <InChi>  (1) 
InChI=1S/C22H18N4O3S/c1-30-11-10-18(26-21(28)13-6-2-3-7-14(13)22(26)29)19(27)15(12-23)20-24-16-8-4-5-9-17(16)25-20/h2-9,18,27H,10-11H2,1H3,(H,24,25)/b19-15-

>  <IUPAC Name>  (1) 
(Z)-2-(1H-benzimidazol-2-yl)-4-(1,3-dioxoisoindol-2-yl)-3-hydroxy-6-methylsulfanylhex-2-enenitrile

$$$$
