
     RDKit          3D

 72 74  0  0  0  0  0  0  0  0999 V2000
   -5.5097   -2.9485   -0.2594 C   0  0  0  0  0  0  0  0  0  0  0  0
   -5.0511   -1.6323   -0.6278 N   0  0  0  0  0  0  0  0  0  0  0  0
   -3.6577   -1.7230   -1.0883 C   0  0  0  0  0  0  0  0  0  0  0  0
   -2.7685   -2.0657    0.0661 C   0  0  0  0  0  0  0  0  0  0  0  0
   -2.7657   -0.9960    1.1138 C   0  0  0  0  0  0  0  0  0  0  0  0
   -2.3443    0.3100    0.6342 N   0  0  0  0  0  0  0  0  0  0  0  0
   -1.0156    0.7394    0.5791 C   0  0  0  0  0  0  0  0  0  0  0  0
   -0.8313    1.9866    0.3419 O   0  0  0  0  0  0  0  0  0  0  0  0
    0.1724   -0.0491    0.7468 C   0  0  0  0  0  0  0  0  0  0  0  0
    0.9363   -0.2141   -0.4407 C   0  0  0  0  0  0  0  0  0  0  0  0
    2.0969   -0.9507   -0.4125 C   0  0  0  0  0  0  0  0  0  0  0  0
    2.5369   -1.5401    0.7669 C   0  0  0  0  0  0  0  0  0  0  0  0
    1.8070   -1.3818    1.8950 C   0  0  0  0  0  0  0  0  0  0  0  0
    0.6179   -0.6343    1.8987 C   0  0  0  0  0  0  0  0  0  0  0  0
    4.0298   -2.4559    0.6461 S   0  0  0  0  0  0  0  0  0  0  0  0
    3.9249   -3.2501   -0.6484 O   0  0  0  0  0  0  0  0  0  0  0  0
    4.0996   -3.4974    1.7483 O   0  0  0  0  0  0  0  0  0  0  0  0
    5.4127   -1.4544    0.6587 N   0  0  0  0  0  0  0  0  0  0  0  0
    5.5074   -0.7316    1.8616 C   0  0  0  0  0  0  0  0  0  0  0  0
    6.9058   -0.3102    2.2271 C   0  0  0  0  0  0  0  0  0  0  0  0
    7.8516   -0.3154    1.0904 C   0  0  0  0  0  0  0  0  0  0  0  0
    7.7224   -1.2357    0.0762 C   0  0  0  0  0  0  0  0  0  0  0  0
    6.5583   -2.1922    0.2406 C   0  0  0  0  0  0  0  0  0  0  0  0
    8.5552   -1.3090   -1.0148 C   0  0  0  0  0  0  0  0  0  0  0  0
    9.5927   -0.3845   -1.0834 C   0  0  0  0  0  0  0  0  0  0  0  0
    9.7404    0.5444   -0.0801 C   0  0  0  0  0  0  0  0  0  0  0  0
    8.8921    0.6032    1.0125 C   0  0  0  0  0  0  0  0  0  0  0  0
   -3.3971    1.2407    0.2351 C   0  0  0  0  0  0  0  0  0  0  0  0
   -4.5723    1.3287    0.1772 N   0  0  0  0  0  0  0  0  0  0  0  0
   -5.2972    2.3257   -0.2709 C   0  0  0  0  0  0  0  0  0  0  0  0
   -4.6114    3.3958   -0.7259 C   0  0  0  0  0  0  0  0  0  0  0  0
   -2.8991    2.8922   -0.4777 S   0  0  0  0  0  0  0  0  0  0  0  0
   -5.1523    4.5562   -1.2433 C   0  0  0  0  0  0  0  0  0  0  0  0
   -6.5510    4.6514   -1.3134 C   0  0  0  0  0  0  0  0  0  0  0  0
   -7.2512    3.5616   -0.8491 C   0  0  0  0  0  0  0  0  0  0  0  0
   -6.6993    2.4163   -0.3381 C   0  0  0  0  0  0  0  0  0  0  0  0
   -7.1876    5.8721   -1.8692 C   0  0  0  0  0  0  0  0  0  0  0  0
   -5.7939   -1.0859   -1.7639 C   0  0  0  0  0  0  0  0  0  0  0  0
    0.0000    0.0000    0.0000 Cl  0  0  0  0  0  0  0  0  0  0  0  0
    0.0000    0.0000    0.0000 H   0  0  0  0  0 15  0  0  0  0  0  0
   -5.4947   -3.0106    0.8313 H   0  0  0  0  0  0  0  0  0  0  0  0
   -4.7815   -3.6865   -0.6694 H   0  0  0  0  0  0  0  0  0  0  0  0
   -6.4971   -3.1917   -0.6859 H   0  0  0  0  0  0  0  0  0  0  0  0
   -3.3693   -0.7035   -1.4469 H   0  0  0  0  0  0  0  0  0  0  0  0
   -3.6294   -2.4112   -1.9312 H   0  0  0  0  0  0  0  0  0  0  0  0
   -1.7810   -2.4829   -0.1904 H   0  0  0  0  0  0  0  0  0  0  0  0
   -3.3127   -2.9406    0.5758 H   0  0  0  0  0  0  0  0  0  0  0  0
   -3.7854   -0.9633    1.5586 H   0  0  0  0  0  0  0  0  0  0  0  0
   -2.0868   -1.3102    1.9335 H   0  0  0  0  0  0  0  0  0  0  0  0
    0.6143    0.2451   -1.3656 H   0  0  0  0  0  0  0  0  0  0  0  0
    2.6583   -1.0564   -1.3516 H   0  0  0  0  0  0  0  0  0  0  0  0
    2.1724   -1.8612    2.8060 H   0  0  0  0  0  0  0  0  0  0  0  0
    0.0334   -0.5044    2.7839 H   0  0  0  0  0  0  0  0  0  0  0  0
    4.9010    0.2134    1.7603 H   0  0  0  0  0  0  0  0  0  0  0  0
    5.0606   -1.2582    2.7290 H   0  0  0  0  0  0  0  0  0  0  0  0
    7.2942   -0.9304    3.0649 H   0  0  0  0  0  0  0  0  0  0  0  0
    6.9047    0.7363    2.6286 H   0  0  0  0  0  0  0  0  0  0  0  0
    6.3732   -2.6088   -0.7656 H   0  0  0  0  0  0  0  0  0  0  0  0
    6.8497   -2.9833    0.9536 H   0  0  0  0  0  0  0  0  0  0  0  0
    8.4070   -2.0536   -1.7794 H   0  0  0  0  0  0  0  0  0  0  0  0
   10.3032   -0.3801   -1.9192 H   0  0  0  0  0  0  0  0  0  0  0  0
   10.5668    1.2484   -0.1746 H   0  0  0  0  0  0  0  0  0  0  0  0
    9.0253    1.3542    1.8064 H   0  0  0  0  0  0  0  0  0  0  0  0
   -4.5124    5.3549   -1.5798 H   0  0  0  0  0  0  0  0  0  0  0  0
   -8.3511    3.6457   -0.9103 H   0  0  0  0  0  0  0  0  0  0  0  0
   -7.3479    1.6466   -0.0122 H   0  0  0  0  0  0  0  0  0  0  0  0
   -8.2062    5.6797   -2.2819 H   0  0  0  0  0  0  0  0  0  0  0  0
   -7.3036    6.6672   -1.1033 H   0  0  0  0  0  0  0  0  0  0  0  0
   -6.5206    6.3085   -2.6394 H   0  0  0  0  0  0  0  0  0  0  0  0
   -6.8111   -0.7414   -1.4655 H   0  0  0  0  0  0  0  0  0  0  0  0
   -5.8077   -1.8651   -2.5431 H   0  0  0  0  0  0  0  0  0  0  0  0
   -5.1699   -0.2232   -2.1262 H   0  0  0  0  0  0  0  0  0  0  0  0
  1  2  1  0
  2  3  1  0
  3  4  1  0
  4  5  1  0
  5  6  1  0
  6  7  1  0
  7  8  2  0
  7  9  1  0
  9 10  2  0
 10 11  1  0
 11 12  2  0
 12 13  1  0
 13 14  2  0
 12 15  1  0
 15 16  2  0
 15 17  2  0
 15 18  1  0
 18 19  1  0
 19 20  1  0
 20 21  1  0
 21 22  2  0
 22 23  1  0
 22 24  1  0
 24 25  2  0
 25 26  1  0
 26 27  2  0
  6 28  1  0
 28 29  2  0
 29 30  1  0
 30 31  2  0
 31 32  1  0
 31 33  1  0
 33 34  2  0
 34 35  1  0
 35 36  2  0
 34 37  1  0
  2 38  1  0
 14  9  1  0
 23 18  1  0
 32 28  1  0
 27 21  1  0
 36 30  1  0
  1 41  1  0
  1 42  1  0
  1 43  1  0
  3 44  1  0
  3 45  1  0
  4 46  1  0
  4 47  1  0
  5 48  1  0
  5 49  1  0
 10 50  1  0
 11 51  1  0
 13 52  1  0
 14 53  1  0
 19 54  1  0
 19 55  1  0
 20 56  1  0
 20 57  1  0
 23 58  1  0
 23 59  1  0
 24 60  1  0
 25 61  1  0
 26 62  1  0
 27 63  1  0
 33 64  1  0
 35 65  1  0
 36 66  1  0
 37 67  1  0
 37 68  1  0
 37 69  1  0
 38 70  1  0
 38 71  1  0
 38 72  1  0
M  CHG  2  39  -1  40   1
M  END
>  <Ligand ID>  (1) 
LIG0001077

>  <Ligand>  (1) 
MLS-0383995.0001

>  <SMILES>  (1) 
CN(CCCN(C(=O)c1ccc(cc1)S(=O)(=O)N1CCc2c(C1)cccc2)c1nc2c(s1)cc(cc2)C)C.[Cl-].[H+]

>  <CID>  (1) 
49852599.0

>  <ChEMBL ID>  (1) 
nan

>  <InChiKey>  (1) 
KCBOUHQOBPIIQM-UHFFFAOYSA-N

>  <InChi>  (1) 
InChI=1S/C29H32N4O3S2.ClH/c1-21-9-14-26-27(19-21)37-29(30-26)33(17-6-16-31(2)3)28(34)23-10-12-25(13-11-23)38(35,36)32-18-15-22-7-4-5-8-24(22)20-32;/h4-5,7-14,19H,6,15-18,20H2,1-3H3;1H

>  <IUPAC Name>  (1) 
4-(3,4-dihydro-1H-isoquinolin-2-ylsulfonyl)-N-[3-(dimethylamino)propyl]-N-(6-methyl-1,3-benzothiazol-2-yl)benzamide;hydron;chloride

$$$$
