
     RDKit          3D

145147  0  0  0  0  0  0  0  0999 V2000
   10.2204   -2.7175    0.5184 C   0  0  0  0  0  0  0  0  0  0  0  0
    9.8535   -2.0289    1.7982 C   0  0  0  0  0  0  0  0  0  0  0  0
    8.3643   -2.1630    2.1339 C   0  0  1  0  0  0  0  0  0  0  0  0
    7.5588   -1.5714    1.0760 C   0  0  2  0  0  0  0  0  0  0  0  0
    7.8803   -0.0950    0.8609 N   0  0  0  0  0  0  0  0  0  0  0  0
    7.3003    0.3978   -0.3135 C   0  0  0  0  0  0  0  0  0  0  0  0
    6.7257   -0.4354   -1.0507 O   0  0  0  0  0  0  0  0  0  0  0  0
    7.2660    1.8105   -0.8119 C   0  0  1  0  0  0  0  0  0  0  0  0
    6.1815    1.8413   -1.7899 N   0  0  0  0  0  0  0  0  0  0  0  0
    4.7935    1.9850   -1.3967 C   0  0  0  0  0  0  0  0  0  0  0  0
    4.6231    2.2196   -0.1990 O   0  0  0  0  0  0  0  0  0  0  0  0
    3.6724    1.8708   -2.3641 C   0  0  0  0  0  0  0  0  0  0  0  0
    2.4442    2.6255   -1.9986 C   0  0  0  0  0  0  0  0  0  0  0  0
    1.0998    2.2583   -3.1420 S   0  0  0  0  0  0  0  0  0  0  0  0
    0.1052    0.3970   -2.6154 S   0  0  0  0  0  0  0  0  0  0  0  0
   -1.2512    0.8027   -1.5038 C   0  0  0  0  0  0  0  0  0  0  0  0
   -2.0736   -0.2541   -0.9121 C   0  0  2  0  0  0  0  0  0  0  0  0
   -1.4005   -1.2909   -0.1476 N   0  0  0  0  0  0  0  0  0  0  0  0
   -0.6936   -0.9731    1.0535 C   0  0  0  0  0  0  0  0  0  0  0  0
   -0.6883    0.2260    1.3488 O   0  0  0  0  0  0  0  0  0  0  0  0
    0.0095   -2.0399    1.8812 C   0  0  1  0  0  0  0  0  0  0  0  0
    1.3814   -1.5997    1.8894 N   0  0  0  0  0  0  0  0  0  0  0  0
    2.5408   -2.4629    1.7763 C   0  0  0  0  0  0  0  0  0  0  0  0
    2.3596   -3.6332    2.0181 O   0  0  0  0  0  0  0  0  0  0  0  0
    3.7505   -1.7400    1.3864 C   0  0  1  0  0  0  0  0  0  0  0  0
    5.0447   -2.3505    1.3643 N   0  0  0  0  0  0  0  0  0  0  0  0
    6.1099   -1.4418    1.2588 C   0  0  0  0  0  0  0  0  0  0  0  0
    5.7257   -0.2072    1.3335 O   0  0  0  0  0  0  0  0  0  0  0  0
    3.4323   -1.3172   -0.1235 C   0  0  0  0  0  0  0  0  0  0  0  0
    3.1946   -2.4720   -0.9861 C   0  0  0  0  0  0  0  0  0  0  0  0
    4.2432   -3.4344   -1.2726 C   0  0  0  0  0  0  0  0  0  0  0  0
    5.4806   -3.2332   -1.2095 O   0  0  0  0  0  0  0  0  0  0  0  0
    3.8624   -4.7627   -1.6750 N   0  0  0  0  0  0  0  0  0  0  0  0
   -0.6048   -2.1334    3.2430 C   0  0  0  0  0  0  0  0  0  0  0  0
   -0.5433   -0.9338    4.0724 C   0  0  0  0  0  0  0  0  0  0  0  0
    0.0667    0.1306    3.8078 O   0  0  0  0  0  0  0  0  0  0  0  0
   -1.2501   -0.9535    5.3237 N   0  0  0  0  0  0  0  0  0  0  0  0
   -3.3481   -0.5915   -1.5201 C   0  0  0  0  0  0  0  0  0  0  0  0
   -3.5551   -0.1188   -2.6997 O   0  0  0  0  0  0  0  0  0  0  0  0
   -4.3786   -1.3882   -0.9196 N   0  0  0  0  0  0  0  0  0  0  0  0
   -4.3054   -1.8315    0.4618 C   0  0  0  0  0  0  0  0  0  0  0  0
   -4.8138   -0.8365    1.4407 C   0  0  0  0  0  0  0  0  0  0  0  0
   -4.7363   -1.1927    2.6700 O   0  0  0  0  0  0  0  0  0  0  0  0
   -5.3615    0.4385    1.0731 N   0  0  0  0  0  0  0  0  0  0  0  0
   -5.8147    1.3160    2.0787 C   0  0  2  0  0  0  0  0  0  0  0  0
   -7.3143    1.0934    2.2791 C   0  0  0  0  0  0  0  0  0  0  0  0
   -7.9786    1.9363    2.9249 O   0  0  0  0  0  0  0  0  0  0  0  0
   -7.9620   -0.0517    1.7517 N   0  0  0  0  0  0  0  0  0  0  0  0
   -9.3656   -0.2582    1.9273 C   0  0  0  0  0  0  0  0  0  0  0  0
  -10.2173    0.8029    1.3176 C   0  0  0  0  0  0  0  0  0  0  0  0
   -9.7658    1.7928    0.7026 O   0  0  0  0  0  0  0  0  0  0  0  0
  -11.6204    0.6544    1.4610 N   0  0  0  0  0  0  0  0  0  0  0  0
   -5.6058    2.7520    1.8976 C   0  0  0  0  0  0  0  0  0  0  0  0
   -6.2288    3.3962    0.7039 C   0  0  0  0  0  0  0  0  0  0  0  0
   -5.9292    4.9337    0.8352 C   0  0  0  0  0  0  0  0  0  0  0  0
   -5.5248    2.9713   -0.5859 C   0  0  0  0  0  0  0  0  0  0  0  0
   -5.4500   -1.8639   -1.7661 C   0  0  0  0  0  0  0  0  0  0  0  0
   -6.5899   -0.9578   -1.9568 C   0  0  0  0  0  0  0  0  0  0  0  0
   -7.6423   -1.4995   -2.8079 N   0  0  0  0  0  0  0  0  0  0  0  0
   -8.3386   -2.5831   -2.2010 C   0  0  0  0  0  0  0  0  0  0  0  0
   -8.3053   -3.8858   -2.9397 C   0  0  0  0  0  0  0  0  0  0  0  0
   -8.2892   -3.7594   -4.3273 O   0  0  0  0  0  0  0  0  0  0  0  0
   -7.0770   -3.0987   -4.6094 C   0  0  0  0  0  0  0  0  0  0  0  0
   -7.2449   -1.6867   -4.1638 C   0  0  0  0  0  0  0  0  0  0  0  0
    7.2993    2.8308    0.2488 C   0  0  0  0  0  0  0  0  0  0  0  0
    7.2666    4.2465   -0.1108 C   0  0  0  0  0  0  0  0  0  0  0  0
    6.1558    5.0439   -0.0217 C   0  0  0  0  0  0  0  0  0  0  0  0
    6.2243    6.3728   -0.4151 C   0  0  0  0  0  0  0  0  0  0  0  0
    7.3496    6.9579   -0.8971 C   0  0  0  0  0  0  0  0  0  0  0  0
    8.4839    6.1529   -0.9909 C   0  0  0  0  0  0  0  0  0  0  0  0
    8.4621    4.8097   -0.6065 C   0  0  0  0  0  0  0  0  0  0  0  0
    7.3495    8.2785   -1.2695 O   0  0  0  0  0  0  0  0  0  0  0  0
    8.1390   -3.6864    2.2091 C   0  0  0  0  0  0  0  0  0  0  0  0
   11.0334   -3.4785    0.6699 H   0  0  0  0  0  0  0  0  0  0  0  0
   10.6640   -1.9836   -0.2114 H   0  0  0  0  0  0  0  0  0  0  0  0
    9.3967   -3.2154   -0.0058 H   0  0  0  0  0  0  0  0  0  0  0  0
   10.4756   -2.4422    2.6223 H   0  0  0  0  0  0  0  0  0  0  0  0
   10.1361   -0.9528    1.7481 H   0  0  0  0  0  0  0  0  0  0  0  0
    8.1774   -1.8009    3.1585 H   0  0  0  0  0  0  0  0  0  0  0  0
    7.7482   -2.0315    0.0798 H   0  0  0  0  0  0  0  0  0  0  0  0
    8.4290    0.4546    1.4553 H   0  0  0  0  0  0  0  0  0  0  0  0
    8.2483    1.9249   -1.4030 H   0  0  0  0  0  0  0  0  0  0  0  0
    6.3096    1.7778   -2.8031 H   0  0  0  0  0  0  0  0  0  0  0  0
    4.0852    2.2281   -3.3509 H   0  0  0  0  0  0  0  0  0  0  0  0
    3.3729    0.8047   -2.5036 H   0  0  0  0  0  0  0  0  0  0  0  0
    2.0974    2.2594   -0.9727 H   0  0  0  0  0  0  0  0  0  0  0  0
    2.5856    3.7192   -1.8367 H   0  0  0  0  0  0  0  0  0  0  0  0
   -0.9447    1.5802   -0.7559 H   0  0  0  0  0  0  0  0  0  0  0  0
   -1.9616    1.4122   -2.1662 H   0  0  0  0  0  0  0  0  0  0  0  0
   -2.4862    0.3693    0.0611 H   0  0  0  0  0  0  0  0  0  0  0  0
   -1.3638   -2.2867   -0.4051 H   0  0  0  0  0  0  0  0  0  0  0  0
   -0.1344   -2.9979    1.3748 H   0  0  0  0  0  0  0  0  0  0  0  0
    1.5876   -0.6127    1.9972 H   0  0  0  0  0  0  0  0  0  0  0  0
    3.7177   -0.7228    1.8342 H   0  0  0  0  0  0  0  0  0  0  0  0
    5.2755   -3.3339    1.4376 H   0  0  0  0  0  0  0  0  0  0  0  0
    4.1694   -0.5851   -0.3656 H   0  0  0  0  0  0  0  0  0  0  0  0
    2.4537   -0.7736    0.0019 H   0  0  0  0  0  0  0  0  0  0  0  0
    2.8580   -2.0735   -2.0007 H   0  0  0  0  0  0  0  0  0  0  0  0
    2.2497   -3.0438   -0.6720 H   0  0  0  0  0  0  0  0  0  0  0  0
    3.0776   -5.2053   -1.1408 H   0  0  0  0  0  0  0  0  0  0  0  0
    4.3587   -5.2542   -2.4660 H   0  0  0  0  0  0  0  0  0  0  0  0
   -1.6977   -2.3434    3.0560 H   0  0  0  0  0  0  0  0  0  0  0  0
   -0.2182   -3.0389    3.7509 H   0  0  0  0  0  0  0  0  0  0  0  0
   -2.2943   -0.8652    5.3588 H   0  0  0  0  0  0  0  0  0  0  0  0
   -0.7614   -1.0611    6.2214 H   0  0  0  0  0  0  0  0  0  0  0  0
   -5.0230   -2.7142    0.5915 H   0  0  0  0  0  0  0  0  0  0  0  0
   -3.3396   -2.2524    0.7188 H   0  0  0  0  0  0  0  0  0  0  0  0
   -5.3818    0.6082    0.0580 H   0  0  0  0  0  0  0  0  0  0  0  0
   -5.3625    0.9592    3.0806 H   0  0  0  0  0  0  0  0  0  0  0  0
   -7.3525   -0.7275    1.2449 H   0  0  0  0  0  0  0  0  0  0  0  0
   -9.6596   -0.2789    3.0069 H   0  0  0  0  0  0  0  0  0  0  0  0
   -9.6606   -1.2142    1.5001 H   0  0  0  0  0  0  0  0  0  0  0  0
  -12.2739    1.4375    1.6860 H   0  0  0  0  0  0  0  0  0  0  0  0
  -12.0372   -0.3081    1.3331 H   0  0  0  0  0  0  0  0  0  0  0  0
   -4.4880    2.9396    1.8959 H   0  0  0  0  0  0  0  0  0  0  0  0
   -5.9816    3.3055    2.8256 H   0  0  0  0  0  0  0  0  0  0  0  0
   -7.3226    3.3369    0.6384 H   0  0  0  0  0  0  0  0  0  0  0  0
   -6.1842    5.3303   -0.1802 H   0  0  0  0  0  0  0  0  0  0  0  0
   -4.8816    5.0815    1.0949 H   0  0  0  0  0  0  0  0  0  0  0  0
   -6.6696    5.2851    1.5775 H   0  0  0  0  0  0  0  0  0  0  0  0
   -6.1181    2.3196   -1.2305 H   0  0  0  0  0  0  0  0  0  0  0  0
   -4.5108    2.6167   -0.4426 H   0  0  0  0  0  0  0  0  0  0  0  0
   -5.4014    3.9290   -1.1902 H   0  0  0  0  0  0  0  0  0  0  0  0
   -5.8080   -2.8541   -1.3621 H   0  0  0  0  0  0  0  0  0  0  0  0
   -4.9813   -2.1160   -2.7464 H   0  0  0  0  0  0  0  0  0  0  0  0
   -7.0675   -0.6180   -1.0378 H   0  0  0  0  0  0  0  0  0  0  0  0
   -6.2540   -0.0231   -2.4803 H   0  0  0  0  0  0  0  0  0  0  0  0
   -7.9022   -2.7567   -1.1921 H   0  0  0  0  0  0  0  0  0  0  0  0
   -9.3947   -2.2511   -2.0130 H   0  0  0  0  0  0  0  0  0  0  0  0
   -9.2534   -4.4174   -2.6936 H   0  0  0  0  0  0  0  0  0  0  0  0
   -7.4790   -4.5558   -2.6806 H   0  0  0  0  0  0  0  0  0  0  0  0
   -6.2501   -3.6400   -4.1179 H   0  0  0  0  0  0  0  0  0  0  0  0
   -6.8729   -3.1448   -5.6849 H   0  0  0  0  0  0  0  0  0  0  0  0
   -6.2845   -1.1180   -4.3154 H   0  0  0  0  0  0  0  0  0  0  0  0
   -8.0165   -1.2089   -4.8338 H   0  0  0  0  0  0  0  0  0  0  0  0
    6.5192    2.6890    1.0409 H   0  0  0  0  0  0  0  0  0  0  0  0
    8.2696    2.7031    0.8409 H   0  0  0  0  0  0  0  0  0  0  0  0
    5.2231    4.7078    0.3534 H   0  0  0  0  0  0  0  0  0  0  0  0
    5.3263    7.0086   -0.3429 H   0  0  0  0  0  0  0  0  0  0  0  0
    9.3919    6.5884   -1.3615 H   0  0  0  0  0  0  0  0  0  0  0  0
    9.3647    4.1964   -0.6866 H   0  0  0  0  0  0  0  0  0  0  0  0
    7.4376    9.0812   -0.6670 H   0  0  0  0  0  0  0  0  0  0  0  0
    7.7683   -3.9666    1.1909 H   0  0  0  0  0  0  0  0  0  0  0  0
    9.0770   -4.2417    2.3793 H   0  0  0  0  0  0  0  0  0  0  0  0
    7.4379   -3.9541    3.0041 H   0  0  0  0  0  0  0  0  0  0  0  0
  1  2  1  0
  2  3  1  0
  3  4  1  0
  4  5  1  0
  5  6  1  0
  6  7  2  0
  6  8  1  0
  8  9  1  0
  9 10  1  0
 10 11  2  0
 10 12  1  0
 12 13  1  0
 13 14  1  0
 14 15  1  0
 15 16  1  0
 16 17  1  0
 17 18  1  0
 18 19  1  0
 19 20  2  0
 19 21  1  0
 21 22  1  0
 22 23  1  0
 23 24  2  0
 23 25  1  0
 25 26  1  0
 26 27  1  0
 27 28  2  0
 25 29  1  0
 29 30  1  0
 30 31  1  0
 31 32  2  0
 31 33  1  0
 21 34  1  0
 34 35  1  0
 35 36  2  0
 35 37  1  0
 17 38  1  0
 38 39  2  0
 38 40  1  0
 40 41  1  0
 41 42  1  0
 42 43  2  0
 42 44  1  0
 44 45  1  0
 45 46  1  0
 46 47  2  0
 46 48  1  0
 48 49  1  0
 49 50  1  0
 50 51  2  0
 50 52  1  0
 45 53  1  0
 53 54  1  0
 54 55  1  0
 54 56  1  0
 40 57  1  0
 57 58  1  0
 58 59  1  0
 59 60  1  0
 60 61  1  0
 61 62  1  0
 62 63  1  0
 63 64  1  0
  8 65  1  0
 65 66  1  0
 66 67  2  0
 67 68  1  0
 68 69  2  0
 69 70  1  0
 70 71  2  0
 69 72  1  0
  3 73  1  0
 27  4  1  0
 64 59  1  0
 71 66  1  0
  1 74  1  0
  1 75  1  0
  1 76  1  0
  2 77  1  0
  2 78  1  0
  3 79  1  1
  4 80  1  6
  5 81  1  0
  8 82  1  6
  9 83  1  0
 12 84  1  0
 12 85  1  0
 13 86  1  0
 13 87  1  0
 16 88  1  0
 16 89  1  0
 17 90  1  1
 18 91  1  0
 21 92  1  6
 22 93  1  0
 25 94  1  1
 26 95  1  0
 29 96  1  0
 29 97  1  0
 30 98  1  0
 30 99  1  0
 33100  1  0
 33101  1  0
 34102  1  0
 34103  1  0
 37104  1  0
 37105  1  0
 41106  1  0
 41107  1  0
 44108  1  0
 45109  1  1
 48110  1  0
 49111  1  0
 49112  1  0
 52113  1  0
 52114  1  0
 53115  1  0
 53116  1  0
 54117  1  0
 55118  1  0
 55119  1  0
 55120  1  0
 56121  1  0
 56122  1  0
 56123  1  0
 57124  1  0
 57125  1  0
 58126  1  0
 58127  1  0
 60128  1  0
 60129  1  0
 61130  1  0
 61131  1  0
 63132  1  0
 63133  1  0
 64134  1  0
 64135  1  0
 65136  1  0
 65137  1  0
 67138  1  0
 68139  1  0
 70140  1  0
 71141  1  0
 72142  1  0
 73143  1  0
 73144  1  0
 73145  1  0
M  END
>  <Ligand ID>  (1) 
LIG0001650

>  <Ligand>  (1) 
CHEMBL3354574

>  <SMILES>  (1) 
CC[C@@H]([C@@H]1NC(=O)[C@@H](NC(=O)CCSSC[C@H](NC(=O)[C@@H](NC(=O)[C@@H](NC1=O)CCC(=O)N)CC(=O)N)C(=O)N(CC(=O)N[C@H](C(=O)NCC(=O)N)CC(C)C)CCN1CCOCC1)Cc1ccc(cc1)O)C

>  <CID>  (1) 
118720263.0

>  <ChEMBL ID>  (1) 
nan

>  <InChiKey>  (1) 
LNUSUKTXIPEFHC-SFKWGLIHSA-N

>  <InChi>  (1) 
InChI=1S/C46H72N12O13S2/c1-5-27(4)40-45(69)53-30(10-11-35(47)60)42(66)54-33(22-36(48)61)43(67)55-34(25-73-72-19-12-38(63)51-32(44(68)56-40)21-28-6-8-29(59)9-7-28)46(70)58(14-13-57-15-17-71-18-16-57)24-39(64)52-31(20-26(2)3)41(65)50-23-37(49)62/h6-9,26-27,30-34,40,59H,5,10-25H2,1-4H3,(H2,47,60)(H2,48,61)(H2,49,62)(H,50,65)(H,51,63)(H,52,64)(H,53,69)(H,54,66)(H,55,67)(H,56,68)/t27-,30-,31-,32-,33-,34-,40-/m0/s1

>  <IUPAC Name>  (1) 
(4R,7S,10S,13S,16S)-7-(2-amino-2-oxoethyl)-N-[2-[[(2S)-1-[(2-amino-2-oxoethyl)amino]-4-methyl-1-oxopentan-2-yl]amino]-2-oxoethyl]-10-(3-amino-3-oxopropyl)-13-[(2S)-butan-2-yl]-16-[(4-hydroxyphenyl)methyl]-N-(2-morpholin-4-ylethyl)-6,9,12,15,18-pentaoxo-1,2-dithia-5,8,11,14,17-pentazacycloicosane-4-carboxamide

$$$$
