
     RDKit          3D

 46 48  0  0  0  0  0  0  0  0999 V2000
    8.1882    0.4101   -1.6808 O   0  0  0  0  0  0  0  0  0  0  0  0
    6.8310    0.1811   -1.5132 C   0  0  0  0  0  0  0  0  0  0  0  0
    6.0714    0.2957   -2.5020 O   0  0  0  0  0  0  0  0  0  0  0  0
    6.2430   -0.1957   -0.2028 C   0  0  0  0  0  0  0  0  0  0  0  0
    5.5478    0.9836    0.4618 C   0  0  0  0  0  0  0  0  0  0  0  0
    4.9564    0.5965    1.7770 C   0  0  0  0  0  0  0  0  0  0  0  0
    4.0090   -0.4006    1.7220 O   0  0  0  0  0  0  0  0  0  0  0  0
    2.7911   -0.4451    1.1353 C   0  0  0  0  0  0  0  0  0  0  0  0
    2.0815   -1.6543    1.2485 C   0  0  0  0  0  0  0  0  0  0  0  0
    0.8399   -1.8336    0.7044 C   0  0  0  0  0  0  0  0  0  0  0  0
    0.2183   -0.8194    0.0093 C   0  0  0  0  0  0  0  0  0  0  0  0
    0.8805    0.3720   -0.1196 C   0  0  0  0  0  0  0  0  0  0  0  0
    2.1502    0.5458    0.4406 C   0  0  0  0  0  0  0  0  0  0  0  0
   -1.1150   -1.0203   -0.5806 C   0  0  0  0  0  0  0  0  0  0  0  0
   -1.3948   -2.2994   -1.0140 C   0  0  0  0  0  0  0  0  0  0  0  0
   -2.6077   -2.5633   -1.5724 C   0  0  0  0  0  0  0  0  0  0  0  0
   -3.5207   -1.5413   -1.6876 C   0  0  0  0  0  0  0  0  0  0  0  0
   -3.2609   -0.2440   -1.2578 C   0  0  0  0  0  0  0  0  0  0  0  0
   -2.0277    0.0056   -0.6946 C   0  0  0  0  0  0  0  0  0  0  0  0
   -4.2511    0.6828   -1.4281 O   0  0  0  0  0  0  0  0  0  0  0  0
   -5.2627    0.9780   -0.5379 C   0  0  0  0  0  0  0  0  0  0  0  0
   -5.4069    0.3619    0.6924 C   0  0  0  0  0  0  0  0  0  0  0  0
   -6.4532    0.6991    1.5575 C   0  0  0  0  0  0  0  0  0  0  0  0
   -7.3307    1.6717    1.1265 C   0  0  0  0  0  0  0  0  0  0  0  0
   -7.2242    2.3070   -0.0843 C   0  0  0  0  0  0  0  0  0  0  0  0
   -6.1731    1.9570   -0.9345 C   0  0  0  0  0  0  0  0  0  0  0  0
    8.5738    0.3804   -2.6280 H   0  0  0  0  0  0  0  0  0  0  0  0
    7.0792   -0.5467    0.4690 H   0  0  0  0  0  0  0  0  0  0  0  0
    5.5433   -1.0504   -0.2886 H   0  0  0  0  0  0  0  0  0  0  0  0
    4.7780    1.3309   -0.2277 H   0  0  0  0  0  0  0  0  0  0  0  0
    6.2953    1.8066    0.5641 H   0  0  0  0  0  0  0  0  0  0  0  0
    4.5343    1.5156    2.2982 H   0  0  0  0  0  0  0  0  0  0  0  0
    5.7479    0.2531    2.5041 H   0  0  0  0  0  0  0  0  0  0  0  0
    2.5243   -2.4905    1.7870 H   0  0  0  0  0  0  0  0  0  0  0  0
    0.3292   -2.7967    0.8227 H   0  0  0  0  0  0  0  0  0  0  0  0
    0.4167    1.1887   -0.6611 H   0  0  0  0  0  0  0  0  0  0  0  0
    2.5867    1.5039    0.3107 H   0  0  0  0  0  0  0  0  0  0  0  0
   -0.6708   -3.1098   -0.9234 H   0  0  0  0  0  0  0  0  0  0  0  0
   -2.8678   -3.5350   -1.9207 H   0  0  0  0  0  0  0  0  0  0  0  0
   -4.4805   -1.7712   -2.1352 H   0  0  0  0  0  0  0  0  0  0  0  0
   -1.7978    1.0002   -0.3516 H   0  0  0  0  0  0  0  0  0  0  0  0
   -4.6782   -0.4049    0.9837 H   0  0  0  0  0  0  0  0  0  0  0  0
   -6.5643    0.2114    2.5276 H   0  0  0  0  0  0  0  0  0  0  0  0
   -8.1739    1.9744    1.7700 H   0  0  0  0  0  0  0  0  0  0  0  0
   -7.8970    3.0629   -0.4324 H   0  0  0  0  0  0  0  0  0  0  0  0
   -6.0580    2.4462   -1.9126 H   0  0  0  0  0  0  0  0  0  0  0  0
  1  2  1  0
  2  3  2  0
  2  4  1  0
  4  5  1  0
  5  6  1  0
  6  7  1  0
  7  8  1  0
  8  9  2  0
  9 10  1  0
 10 11  2  0
 11 12  1  0
 12 13  2  0
 11 14  1  0
 14 15  2  0
 15 16  1  0
 16 17  2  0
 17 18  1  0
 18 19  2  0
 18 20  1  0
 20 21  1  0
 21 22  2  0
 22 23  1  0
 23 24  2  0
 24 25  1  0
 25 26  2  0
 13  8  1  0
 19 14  1  0
 26 21  1  0
  1 27  1  0
  4 28  1  0
  4 29  1  0
  5 30  1  0
  5 31  1  0
  6 32  1  0
  6 33  1  0
  9 34  1  0
 10 35  1  0
 12 36  1  0
 13 37  1  0
 15 38  1  0
 16 39  1  0
 17 40  1  0
 19 41  1  0
 22 42  1  0
 23 43  1  0
 24 44  1  0
 25 45  1  0
 26 46  1  0
M  END
>  <Ligand ID>  (1) 
LIG0002730

>  <Ligand>  (1) 
CHEMBL3897776

>  <SMILES>  (1) 
OC(=O)CCCOc1ccc(cc1)c1cccc(c1)Oc1ccccc1

>  <CID>  (1) 
134134149.0

>  <ChEMBL ID>  (1) 
nan

>  <InChiKey>  (1) 
NWBXINDGEUFMJI-UHFFFAOYSA-N

>  <InChi>  (1) 
InChI=1S/C22H20O4/c23-22(24)10-5-15-25-19-13-11-17(12-14-19)18-6-4-9-21(16-18)26-20-7-2-1-3-8-20/h1-4,6-9,11-14,16H,5,10,15H2,(H,23,24)

>  <IUPAC Name>  (1) 
4-[4-(3-phenoxyphenyl)phenoxy]butanoic acid

$$$$
