
     RDKit          3D

 24 24  0  0  0  0  0  0  0  0999 V2000
   -3.8915    0.6708   -0.2762 C   0  0  0  0  0  0  0  0  0  0  0  0
   -2.9737   -0.4293   -0.7003 C   0  0  0  0  0  0  0  0  0  0  0  0
   -3.4559   -1.5311   -0.8988 O   0  0  0  0  0  0  0  0  0  0  0  0
   -1.5155   -0.1808   -0.8722 C   0  0  0  0  0  0  0  0  0  0  0  0
   -0.8044   -0.6566    0.3841 C   0  0  0  0  0  0  0  0  0  0  0  0
    0.6293   -0.4034    0.1969 C   0  0  0  0  0  0  0  0  0  0  0  0
    1.1333    0.8180    0.6007 C   0  0  0  0  0  0  0  0  0  0  0  0
    2.4766    1.1469    0.4648 C   0  0  0  0  0  0  0  0  0  0  0  0
    3.2947    0.2082   -0.0902 C   0  0  0  0  0  0  0  0  0  0  0  0
    2.8368   -1.0296   -0.5093 C   0  0  0  0  0  0  0  0  0  0  0  0
    1.5016   -1.3136   -0.3571 C   0  0  0  0  0  0  0  0  0  0  0  0
    4.6434    0.5030   -0.2426 O   0  0  0  0  0  0  0  0  0  0  0  0
   -4.4969    0.9393   -1.1706 H   0  0  0  0  0  0  0  0  0  0  0  0
   -4.5417    0.3295    0.5690 H   0  0  0  0  0  0  0  0  0  0  0  0
   -3.2982    1.5628    0.0464 H   0  0  0  0  0  0  0  0  0  0  0  0
   -1.1051   -0.6632   -1.7744 H   0  0  0  0  0  0  0  0  0  0  0  0
   -1.3042    0.9041   -0.9598 H   0  0  0  0  0  0  0  0  0  0  0  0
   -1.0471   -1.7070    0.6079 H   0  0  0  0  0  0  0  0  0  0  0  0
   -1.1860   -0.0439    1.2379 H   0  0  0  0  0  0  0  0  0  0  0  0
    0.4820    1.5777    1.0494 H   0  0  0  0  0  0  0  0  0  0  0  0
    2.8814    2.0913    0.7725 H   0  0  0  0  0  0  0  0  0  0  0  0
    3.5379   -1.7383   -0.9465 H   0  0  0  0  0  0  0  0  0  0  0  0
    1.0988   -2.2775   -0.6728 H   0  0  0  0  0  0  0  0  0  0  0  0
    5.1043    1.2228    0.2790 H   0  0  0  0  0  0  0  0  0  0  0  0
  1  2  1  0
  2  3  2  0
  2  4  1  0
  4  5  1  0
  5  6  1  0
  6  7  2  0
  7  8  1  0
  8  9  2  0
  9 10  1  0
 10 11  2  0
  9 12  1  0
 11  6  1  0
  1 13  1  0
  1 14  1  0
  1 15  1  0
  4 16  1  0
  4 17  1  0
  5 18  1  0
  5 19  1  0
  7 20  1  0
  8 21  1  0
 10 22  1  0
 11 23  1  0
 12 24  1  0
M  END
>  <Ligand ID>  (1) 
LIG0001022

>  <Ligand>  (1) 
Raspberry Ketone

>  <SMILES>  (1) 
CC(=O)CCc1ccc(cc1)O

>  <CID>  (1) 
21648.0

>  <ChEMBL ID>  (1) 
nan

>  <InChiKey>  (1) 
NJGBTKGETPDVIK-UHFFFAOYSA-N

>  <InChi>  (1) 
InChI=1S/C10H12O2/c1-8(11)2-3-9-4-6-10(12)7-5-9/h4-7,12H,2-3H2,1H3

>  <IUPAC Name>  (1) 
4-(4-hydroxyphenyl)butan-2-one

$$$$
