
     RDKit          3D

 62 66  0  0  0  0  0  0  0  0999 V2000
   10.6906   -1.6244    0.7150 F   0  0  0  0  0  0  0  0  0  0  0  0
    9.4113   -1.2795    0.4861 C   0  0  0  0  0  0  0  0  0  0  0  0
    9.0992    0.0594    0.3874 C   0  0  0  0  0  0  0  0  0  0  0  0
    7.8063    0.4650    0.1534 C   0  0  0  0  0  0  0  0  0  0  0  0
    6.7557   -0.4492    0.0056 C   0  0  0  0  0  0  0  0  0  0  0  0
    7.0801   -1.7919    0.1067 C   0  0  0  0  0  0  0  0  0  0  0  0
    8.3814   -2.1865    0.3414 C   0  0  0  0  0  0  0  0  0  0  0  0
    5.4163   -0.0019   -0.2285 N   0  0  0  0  0  0  0  0  0  0  0  0
    5.0979    1.3903   -0.0658 C   0  0  0  0  0  0  0  0  0  0  0  0
    3.6402    1.6511    0.2770 C   0  0  0  0  0  0  0  0  0  0  0  0
    3.0240    0.4129    0.5738 N   0  0  0  0  0  0  0  0  0  0  0  0
    3.0603   -0.4165   -0.6115 C   0  0  0  0  0  0  0  0  0  0  0  0
    4.4646   -1.0190   -0.6319 C   0  0  0  0  0  0  0  0  0  0  0  0
    1.7793    0.4122    1.2388 C   0  0  0  0  0  0  0  0  0  0  0  0
    0.6025    0.9467    0.4521 C   0  0  0  0  0  0  0  0  0  0  0  0
   -0.5981    0.8307    1.3682 C   0  0  0  0  0  0  0  0  0  0  0  0
   -1.7742    1.3322    0.6988 N   0  0  0  0  0  0  0  0  0  0  0  0
   -2.3038    0.8102   -0.5027 C   0  0  0  0  0  0  0  0  0  0  0  0
   -1.7118   -0.1760   -1.0647 O   0  0  0  0  0  0  0  0  0  0  0  0
   -3.5168    1.3209   -1.1846 C   0  0  0  0  0  0  0  0  0  0  0  0
   -4.6654    0.4535   -0.9344 N   0  0  0  0  0  0  0  0  0  0  0  0
   -4.8787   -0.5875   -1.7931 C   0  0  0  0  0  0  0  0  0  0  0  0
   -4.0878   -0.7535   -2.7603 O   0  0  0  0  0  0  0  0  0  0  0  0
   -5.9302   -1.4647   -1.6365 C   0  0  0  0  0  0  0  0  0  0  0  0
   -6.2926   -2.5553   -2.3916 C   0  0  0  0  0  0  0  0  0  0  0  0
   -7.4203   -3.0635   -1.7737 C   0  0  0  0  0  0  0  0  0  0  0  0
   -7.6801   -2.2693   -0.6946 C   0  0  0  0  0  0  0  0  0  0  0  0
   -6.7627   -1.2810   -0.6059 N   0  0  0  0  0  0  0  0  0  0  0  0
   -6.5596   -0.2599    0.2417 C   0  0  0  0  0  0  0  0  0  0  0  0
   -5.5085    0.6248    0.0927 C   0  0  0  0  0  0  0  0  0  0  0  0
   -5.3482    1.6458    0.9745 C   0  0  0  0  0  0  0  0  0  0  0  0
   -6.2089    1.8311    2.0279 C   0  0  0  0  0  0  0  0  0  0  0  0
   -7.2576    0.9504    2.1796 C   0  0  0  0  0  0  0  0  0  0  0  0
   -7.4385   -0.0903    1.2964 C   0  0  0  0  0  0  0  0  0  0  0  0
    9.8938    0.8129    0.4964 H   0  0  0  0  0  0  0  0  0  0  0  0
    7.6407    1.5363    0.0866 H   0  0  0  0  0  0  0  0  0  0  0  0
    6.3259   -2.5591    0.0060 H   0  0  0  0  0  0  0  0  0  0  0  0
    8.6512   -3.2367    0.4243 H   0  0  0  0  0  0  0  0  0  0  0  0
    5.7526    1.7434    0.7859 H   0  0  0  0  0  0  0  0  0  0  0  0
    5.4067    2.0041   -0.9351 H   0  0  0  0  0  0  0  0  0  0  0  0
    3.1484    2.1091   -0.6258 H   0  0  0  0  0  0  0  0  0  0  0  0
    3.6316    2.3883    1.1004 H   0  0  0  0  0  0  0  0  0  0  0  0
    2.2831   -1.2039   -0.5584 H   0  0  0  0  0  0  0  0  0  0  0  0
    2.8563    0.1994   -1.5194 H   0  0  0  0  0  0  0  0  0  0  0  0
    4.4481   -1.8057    0.1449 H   0  0  0  0  0  0  0  0  0  0  0  0
    4.6771   -1.4526   -1.6215 H   0  0  0  0  0  0  0  0  0  0  0  0
    1.5264   -0.6621    1.4575 H   0  0  0  0  0  0  0  0  0  0  0  0
    1.7858    0.9218    2.2263 H   0  0  0  0  0  0  0  0  0  0  0  0
    0.4560    0.3338   -0.4498 H   0  0  0  0  0  0  0  0  0  0  0  0
    0.6952    2.0133    0.1787 H   0  0  0  0  0  0  0  0  0  0  0  0
   -0.4051    1.3852    2.3094 H   0  0  0  0  0  0  0  0  0  0  0  0
   -0.7696   -0.2431    1.6249 H   0  0  0  0  0  0  0  0  0  0  0  0
   -2.2512    2.1504    1.1519 H   0  0  0  0  0  0  0  0  0  0  0  0
   -3.7325    2.3848   -1.0015 H   0  0  0  0  0  0  0  0  0  0  0  0
   -3.3153    1.2619   -2.2772 H   0  0  0  0  0  0  0  0  0  0  0  0
   -5.7908   -2.9307   -3.2836 H   0  0  0  0  0  0  0  0  0  0  0  0
   -7.9349   -3.9414   -2.1526 H   0  0  0  0  0  0  0  0  0  0  0  0
   -8.4999   -2.4213   -0.0205 H   0  0  0  0  0  0  0  0  0  0  0  0
   -4.5457    2.3247    0.8518 H   0  0  0  0  0  0  0  0  0  0  0  0
   -6.0942    2.6490    2.7533 H   0  0  0  0  0  0  0  0  0  0  0  0
   -7.9221    1.1091    3.0118 H   0  0  0  0  0  0  0  0  0  0  0  0
   -8.2836   -0.7383    1.4792 H   0  0  0  0  0  0  0  0  0  0  0  0
  1  2  1  0
  2  3  2  0
  3  4  1  0
  4  5  2  0
  5  6  1  0
  6  7  2  0
  5  8  1  0
  8  9  1  0
  9 10  1  0
 10 11  1  0
 11 12  1  0
 12 13  1  0
 11 14  1  0
 14 15  1  0
 15 16  1  0
 16 17  1  0
 17 18  1  0
 18 19  2  0
 18 20  1  0
 20 21  1  0
 21 22  1  0
 22 23  2  0
 22 24  1  0
 24 25  2  0
 25 26  1  0
 26 27  2  0
 27 28  1  0
 28 29  1  0
 29 30  2  0
 30 31  1  0
 31 32  2  0
 32 33  1  0
 33 34  2  0
  7  2  1  0
 13  8  1  0
 30 21  1  0
 28 24  1  0
 34 29  1  0
  3 35  1  0
  4 36  1  0
  6 37  1  0
  7 38  1  0
  9 39  1  0
  9 40  1  0
 10 41  1  0
 10 42  1  0
 12 43  1  0
 12 44  1  0
 13 45  1  0
 13 46  1  0
 14 47  1  0
 14 48  1  0
 15 49  1  0
 15 50  1  0
 16 51  1  0
 16 52  1  0
 17 53  1  0
 20 54  1  0
 20 55  1  0
 25 56  1  0
 26 57  1  0
 27 58  1  0
 31 59  1  0
 32 60  1  0
 33 61  1  0
 34 62  1  0
M  END
>  <Ligand ID>  (1) 
LIG0003169

>  <Ligand>  (1) 
MLS-0360688.0001

>  <SMILES>  (1) 
Fc1ccc(cc1)N1CCN(CC1)CCCNC(=O)Cn1c(=O)c2cccn2c2c1cccc2

>  <CID>  (1) 
22522555.0

>  <ChEMBL ID>  (1) 
nan

>  <InChiKey>  (1) 
HZGZXCPCTCRQGY-UHFFFAOYSA-N

>  <InChi>  (1) 
InChI=1S/C26H28FN5O2/c27-20-8-10-21(11-9-20)30-17-15-29(16-18-30)13-4-12-28-25(33)19-32-23-6-2-1-5-22(23)31-14-3-7-24(31)26(32)34/h1-3,5-11,14H,4,12-13,15-19H2,(H,28,33)

>  <IUPAC Name>  (1) 
N-[3-[4-(4-fluorophenyl)piperazin-1-yl]propyl]-2-(4-oxopyrrolo[1,2-a]quinoxalin-5-yl)acetamide

$$$$
