
     RDKit          3D

 31 30  0  0  0  0  0  0  0  0999 V2000
    3.9351    0.9806    0.0764 C   0  0  0  0  0  0  0  0  0  0  0  0
    3.7313   -0.5095   -0.0393 C   0  0  0  0  0  0  0  0  0  0  0  0
    2.3892   -0.9327    0.5728 C   0  0  0  0  0  0  0  0  0  0  0  0
    1.3377   -0.1848   -0.2147 C   0  0  0  0  0  0  0  0  0  0  0  0
   -0.0744   -0.4755    0.2472 C   0  0  0  0  0  0  0  0  0  0  0  0
   -0.9827    0.3342   -0.6249 C   0  0  0  0  0  0  0  0  0  0  0  0
   -2.4414    0.1556   -0.2905 C   0  0  0  0  0  0  0  0  0  0  0  0
   -3.2007    1.0335   -1.2555 C   0  0  0  0  0  0  0  0  0  0  0  0
   -2.5108    1.6560   -2.0449 O   0  0  0  0  0  0  0  0  0  0  0  0
   -2.7869    0.6516    1.0805 C   0  0  0  0  0  0  0  0  0  0  0  0
   -2.9460   -1.2394   -0.4756 C   0  0  0  0  0  0  0  0  0  0  0  0
    3.7374    1.5251   -0.8594 H   0  0  0  0  0  0  0  0  0  0  0  0
    3.3754    1.4516    0.8982 H   0  0  0  0  0  0  0  0  0  0  0  0
    5.0199    1.1669    0.2953 H   0  0  0  0  0  0  0  0  0  0  0  0
    3.6425   -0.7164   -1.1288 H   0  0  0  0  0  0  0  0  0  0  0  0
    4.5782   -1.0446    0.4360 H   0  0  0  0  0  0  0  0  0  0  0  0
    2.4053   -0.6403    1.6299 H   0  0  0  0  0  0  0  0  0  0  0  0
    2.2578   -2.0022    0.4236 H   0  0  0  0  0  0  0  0  0  0  0  0
    1.3964   -0.4062   -1.2988 H   0  0  0  0  0  0  0  0  0  0  0  0
    1.4860    0.9210   -0.1239 H   0  0  0  0  0  0  0  0  0  0  0  0
   -0.2185   -0.2581    1.3156 H   0  0  0  0  0  0  0  0  0  0  0  0
   -0.2159   -1.5756    0.0927 H   0  0  0  0  0  0  0  0  0  0  0  0
   -0.8040    0.1116   -1.6801 H   0  0  0  0  0  0  0  0  0  0  0  0
   -0.7495    1.4062   -0.4093 H   0  0  0  0  0  0  0  0  0  0  0  0
   -4.2631    1.1150   -1.2602 H   0  0  0  0  0  0  0  0  0  0  0  0
   -2.6011   -0.1273    1.8383 H   0  0  0  0  0  0  0  0  0  0  0  0
   -2.2227    1.5681    1.2765 H   0  0  0  0  0  0  0  0  0  0  0  0
   -3.8888    0.8378    1.0844 H   0  0  0  0  0  0  0  0  0  0  0  0
   -2.5771   -1.7206   -1.3998 H   0  0  0  0  0  0  0  0  0  0  0  0
   -2.7571   -1.9031    0.4167 H   0  0  0  0  0  0  0  0  0  0  0  0
   -4.0514   -1.1786   -0.5727 H   0  0  0  0  0  0  0  0  0  0  0  0
  1  2  1  0
  2  3  1  0
  3  4  1  0
  4  5  1  0
  5  6  1  0
  6  7  1  0
  7  8  1  0
  8  9  2  0
  7 10  1  0
  7 11  1  0
  1 12  1  0
  1 13  1  0
  1 14  1  0
  2 15  1  0
  2 16  1  0
  3 17  1  0
  3 18  1  0
  4 19  1  0
  4 20  1  0
  5 21  1  0
  5 22  1  0
  6 23  1  0
  6 24  1  0
  8 25  1  0
 10 26  1  0
 10 27  1  0
 10 28  1  0
 11 29  1  0
 11 30  1  0
 11 31  1  0
M  END
>  <Ligand ID>  (1) 
LIG0005025

>  <Ligand>  (1) 
2,2-dimethyloctanal

>  <SMILES>  (1) 
CCCCCCC(C=O)(C)C

>  <CID>  (1) 
19601697.0

>  <ChEMBL ID>  (1) 
nan

>  <InChiKey>  (1) 
KVGYAHNHKCCHSP-UHFFFAOYSA-N

>  <InChi>  (1) 
InChI=1S/C10H20O/c1-4-5-6-7-8-10(2,3)9-11/h9H,4-8H2,1-3H3

>  <IUPAC Name>  (1) 
2,2-dimethyloctanal

$$$$
