
     RDKit          3D

 44 48  0  0  0  0  0  0  0  0999 V2000
   -0.7860   -2.7216    1.2678 Cl  0  0  0  0  0  0  0  0  0  0  0  0
   -0.1306   -1.3881    0.3625 C   0  0  0  0  0  0  0  0  0  0  0  0
    0.6723   -1.6642   -0.7238 C   0  0  0  0  0  0  0  0  0  0  0  0
    1.2189   -0.6258   -1.4778 C   0  0  0  0  0  0  0  0  0  0  0  0
    0.9134    0.6386   -1.0784 C   0  0  0  0  0  0  0  0  0  0  0  0
    0.0988    0.9235    0.0235 C   0  0  0  0  0  0  0  0  0  0  0  0
   -0.4401   -0.1061    0.7670 C   0  0  0  0  0  0  0  0  0  0  0  0
   -1.2682    0.1815    1.8872 N   0  0  0  0  0  0  0  0  0  0  0  0
   -1.0962   -0.1479    3.1828 C   0  0  0  0  0  0  0  0  0  0  0  0
   -0.0403   -0.8562    3.6904 O   0  0  0  0  0  0  0  0  0  0  0  0
   -2.1839    0.3649    3.8887 C   0  0  0  0  0  0  0  0  0  0  0  0
   -3.0029    1.0056    2.9783 C   0  0  0  0  0  0  0  0  0  0  0  0
   -2.4254    0.8839    1.7500 C   0  0  0  0  0  0  0  0  0  0  0  0
   -2.9621    1.4063    0.5719 O   0  0  0  0  0  0  0  0  0  0  0  0
   -4.1455    1.5377    3.7560 C   0  0  2  0  0  0  0  0  0  0  0  0
   -3.4576    1.8942    5.0621 C   0  0  0  0  0  0  0  0  0  0  0  0
   -2.8373    0.5151    5.2066 C   0  0  1  0  0  0  0  0  0  0  0  0
   -4.1007   -0.2937    5.1270 C   0  0  0  0  0  0  0  0  0  0  0  0
   -4.9001    0.3274    4.2401 C   0  0  0  0  0  0  0  0  0  0  0  0
    2.0262   -0.9888   -2.5688 N   0  0  0  0  0  0  0  0  0  0  0  0
    2.6745   -0.1024   -3.4593 C   0  0  0  0  0  0  0  0  0  0  0  0
    2.5939    1.1403   -3.3649 O   0  0  0  0  0  0  0  0  0  0  0  0
    3.4966   -0.6384   -4.5682 C   0  0  0  0  0  0  0  0  0  0  0  0
    4.1430    0.1942   -5.4554 C   0  0  0  0  0  0  0  0  0  0  0  0
    4.9130   -0.2794   -6.4943 C   0  0  0  0  0  0  0  0  0  0  0  0
    5.0301   -1.6465   -6.6368 C   0  0  0  0  0  0  0  0  0  0  0  0
    4.3838   -2.4843   -5.7498 C   0  0  0  0  0  0  0  0  0  0  0  0
    3.6444   -1.9603   -4.7529 N   0  0  0  0  0  0  0  0  0  0  0  0
    0.8663   -2.7137   -0.9744 H   0  0  0  0  0  0  0  0  0  0  0  0
    1.2914    1.4888   -1.6015 H   0  0  0  0  0  0  0  0  0  0  0  0
   -0.1125    1.9481    0.2979 H   0  0  0  0  0  0  0  0  0  0  0  0
    0.7721   -0.4869    4.1531 H   0  0  0  0  0  0  0  0  0  0  0  0
   -2.6004    1.1797   -0.3523 H   0  0  0  0  0  0  0  0  0  0  0  0
   -4.7200    2.2962    3.2836 H   0  0  0  0  0  0  0  0  0  0  0  0
   -4.1820    2.1168    5.8569 H   0  0  0  0  0  0  0  0  0  0  0  0
   -2.6898    2.6805    4.9206 H   0  0  0  0  0  0  0  0  0  0  0  0
   -2.2199    0.3488    6.0591 H   0  0  0  0  0  0  0  0  0  0  0  0
   -4.3438   -1.1906    5.6591 H   0  0  0  0  0  0  0  0  0  0  0  0
   -5.8841    0.0445    3.9187 H   0  0  0  0  0  0  0  0  0  0  0  0
    2.1858   -2.0224   -2.7730 H   0  0  0  0  0  0  0  0  0  0  0  0
    4.0458    1.2738   -5.3364 H   0  0  0  0  0  0  0  0  0  0  0  0
    5.4213    0.3794   -7.1919 H   0  0  0  0  0  0  0  0  0  0  0  0
    5.6384   -2.0023   -7.4578 H   0  0  0  0  0  0  0  0  0  0  0  0
    4.4992   -3.5570   -5.8934 H   0  0  0  0  0  0  0  0  0  0  0  0
  1  2  1  0
  2  3  2  0
  3  4  1  0
  4  5  2  0
  5  6  1  0
  6  7  2  0
  7  8  1  0
  8  9  1  0
  9 10  1  0
  9 11  2  0
 11 12  1  0
 12 13  2  0
 13 14  1  0
 12 15  1  0
 15 16  1  0
 16 17  1  0
 17 18  1  0
 18 19  2  0
  4 20  1  0
 20 21  1  0
 21 22  2  0
 21 23  1  0
 23 24  2  0
 24 25  1  0
 25 26  2  0
 26 27  1  0
 27 28  2  0
  7  2  1  0
 13  8  1  0
 19 15  1  0
 28 23  1  0
 17 11  1  0
  3 29  1  0
  5 30  1  0
  6 31  1  0
 10 32  1  0
 14 33  1  0
 15 34  1  6
 16 35  1  0
 16 36  1  0
 17 37  1  1
 18 38  1  0
 19 39  1  0
 20 40  1  0
 24 41  1  0
 25 42  1  0
 26 43  1  0
 27 44  1  0
M  END
>  <Ligand ID>  (1) 
LIG0000817

>  <Ligand>  (1) 
BDBM50358179

>  <SMILES>  (1) 
Clc1cc(ccc1n1c(O)c2c(c1O)[C@@H]1C[C@H]2C=C1)NC(=O)c1ccccn1

>  <CID>  (1) 
136042197.0

>  <ChEMBL ID>  (1) 
nan

>  <InChiKey>  (1) 
XWFPWABBHYLIQP-TXEJJXNPSA-N

>  <InChi>  (1) 
InChI=1S/C21H16ClN3O3/c22-14-10-13(24-19(26)15-3-1-2-8-23-15)6-7-16(14)25-20(27)17-11-4-5-12(9-11)18(17)21(25)28/h1-8,10-12,27-28H,9H2,(H,24,26)/t11-,12+

>  <IUPAC Name>  (1) 
N-[3-chloro-4-[(1S,7R)-3,5-dihydroxy-4-azatricyclo[5.2.1.02,6]deca-2,5,8-trien-4-yl]phenyl]pyridine-2-carboxamide

$$$$
