
     RDKit          3D

 58 62  0  0  0  0  0  0  0  0999 V2000
   -2.5296    4.8433   -1.1090 C   0  0  0  0  0  0  0  0  0  0  0  0
   -2.5564    4.5397    0.2673 O   0  0  0  0  0  0  0  0  0  0  0  0
   -2.8086    3.2985    0.7964 C   0  0  0  0  0  0  0  0  0  0  0  0
   -2.8054    3.1392    2.1708 C   0  0  0  0  0  0  0  0  0  0  0  0
   -3.0622    1.8806    2.6810 C   0  0  0  0  0  0  0  0  0  0  0  0
   -3.3192    0.7912    1.8413 C   0  0  0  0  0  0  0  0  0  0  0  0
   -3.3233    0.9449    0.4755 C   0  0  0  0  0  0  0  0  0  0  0  0
   -3.0658    2.2054   -0.0153 C   0  0  0  0  0  0  0  0  0  0  0  0
   -3.5937   -0.1535   -0.4802 C   0  0  0  0  0  0  0  0  0  0  0  0
   -2.4148   -0.9799   -0.7949 C   0  0  0  0  0  0  0  0  0  0  0  0
   -2.2914   -2.2466   -0.2242 C   0  0  0  0  0  0  0  0  0  0  0  0
   -1.2135   -3.0671   -0.4744 C   0  0  0  0  0  0  0  0  0  0  0  0
   -0.2669   -2.6076   -1.2972 N   0  0  0  0  0  0  0  0  0  0  0  0
   -0.3401   -1.4254   -1.8559 N   0  0  0  0  0  0  0  0  0  0  0  0
   -1.3891   -0.5951   -1.6289 C   0  0  0  0  0  0  0  0  0  0  0  0
   -1.4235    0.5278   -2.1823 O   0  0  0  0  0  0  0  0  0  0  0  0
    0.7576   -1.0347   -2.7277 C   0  0  0  0  0  0  0  0  0  0  0  0
    1.8270   -0.3479   -1.9279 C   0  0  0  0  0  0  0  0  0  0  0  0
    2.7416   -0.9901   -1.3449 O   0  0  0  0  0  0  0  0  0  0  0  0
    1.8428    1.0886   -1.7993 N   0  0  0  0  0  0  0  0  0  0  0  0
    2.8959    1.6680   -1.0157 C   0  0  0  0  0  0  0  0  0  0  0  0
    2.6362    1.8607    0.3130 C   0  0  0  0  0  0  0  0  0  0  0  0
    3.5818    2.4083    1.1640 C   0  0  0  0  0  0  0  0  0  0  0  0
    4.8052    2.7561    0.6229 C   0  0  0  0  0  0  0  0  0  0  0  0
    5.0673    2.5607   -0.7219 C   0  0  0  0  0  0  0  0  0  0  0  0
    4.1147    2.0145   -1.5554 C   0  0  0  0  0  0  0  0  0  0  0  0
    6.3811    3.0155   -0.9299 O   0  0  0  0  0  0  0  0  0  0  0  0
    6.9920    3.2991    0.3100 C   0  0  0  0  0  0  0  0  0  0  0  0
    5.9323    3.3204    1.2335 O   0  0  0  0  0  0  0  0  0  0  0  0
   -1.0677   -4.3921    0.1169 C   0  0  0  0  0  0  0  0  0  0  0  0
   -1.9945   -4.9483    0.9733 C   0  0  0  0  0  0  0  0  0  0  0  0
   -1.8000   -6.2246    1.5160 C   0  0  0  0  0  0  0  0  0  0  0  0
   -0.6578   -6.9460    1.1899 C   0  0  0  0  0  0  0  0  0  0  0  0
    0.2779   -6.4025    0.3341 C   0  0  0  0  0  0  0  0  0  0  0  0
    0.0454   -5.1502   -0.1728 C   0  0  0  0  0  0  0  0  0  0  0  0
   -3.3792    4.3550   -1.6651 H   0  0  0  0  0  0  0  0  0  0  0  0
   -1.5779    4.6781   -1.6088 H   0  0  0  0  0  0  0  0  0  0  0  0
   -2.7464    5.9425   -1.1702 H   0  0  0  0  0  0  0  0  0  0  0  0
   -2.6103    3.9570    2.8545 H   0  0  0  0  0  0  0  0  0  0  0  0
   -3.0644    1.7294    3.7719 H   0  0  0  0  0  0  0  0  0  0  0  0
   -3.5175   -0.1861    2.2585 H   0  0  0  0  0  0  0  0  0  0  0  0
   -3.0534    2.4202   -1.0901 H   0  0  0  0  0  0  0  0  0  0  0  0
   -4.3658   -0.7883   -0.0093 H   0  0  0  0  0  0  0  0  0  0  0  0
   -3.9746    0.2609   -1.4422 H   0  0  0  0  0  0  0  0  0  0  0  0
   -3.0871   -2.5633    0.4321 H   0  0  0  0  0  0  0  0  0  0  0  0
    1.1993   -1.9388   -3.1653 H   0  0  0  0  0  0  0  0  0  0  0  0
    0.3802   -0.2893   -3.4394 H   0  0  0  0  0  0  0  0  0  0  0  0
    1.1093    1.6762   -2.2652 H   0  0  0  0  0  0  0  0  0  0  0  0
    1.6854    1.5905    0.7334 H   0  0  0  0  0  0  0  0  0  0  0  0
    3.4254    2.5793    2.2092 H   0  0  0  0  0  0  0  0  0  0  0  0
    4.3099    1.8548   -2.6237 H   0  0  0  0  0  0  0  0  0  0  0  0
    7.5189    4.2807    0.2966 H   0  0  0  0  0  0  0  0  0  0  0  0
    7.7522    2.5556    0.6171 H   0  0  0  0  0  0  0  0  0  0  0  0
   -2.8860   -4.4072    1.2384 H   0  0  0  0  0  0  0  0  0  0  0  0
   -2.5108   -6.6807    2.1876 H   0  0  0  0  0  0  0  0  0  0  0  0
   -0.5130   -7.9464    1.6205 H   0  0  0  0  0  0  0  0  0  0  0  0
    1.1484   -7.0042    0.1123 H   0  0  0  0  0  0  0  0  0  0  0  0
    0.7821   -4.7267   -0.8447 H   0  0  0  0  0  0  0  0  0  0  0  0
  1  2  1  0
  2  3  1  0
  3  4  2  0
  4  5  1  0
  5  6  2  0
  6  7  1  0
  7  8  2  0
  7  9  1  0
  9 10  1  0
 10 11  2  0
 11 12  1  0
 12 13  2  0
 13 14  1  0
 14 15  1  0
 15 16  2  0
 14 17  1  0
 17 18  1  0
 18 19  2  0
 18 20  1  0
 20 21  1  0
 21 22  2  0
 22 23  1  0
 23 24  2  0
 24 25  1  0
 25 26  2  0
 25 27  1  0
 27 28  1  0
 28 29  1  0
 12 30  1  0
 30 31  2  0
 31 32  1  0
 32 33  2  0
 33 34  1  0
 34 35  2  0
  8  3  1  0
 15 10  1  0
 26 21  1  0
 35 30  1  0
 29 24  1  0
  1 36  1  0
  1 37  1  0
  1 38  1  0
  4 39  1  0
  5 40  1  0
  6 41  1  0
  8 42  1  0
  9 43  1  0
  9 44  1  0
 11 45  1  0
 17 46  1  0
 17 47  1  0
 20 48  1  0
 22 49  1  0
 23 50  1  0
 26 51  1  0
 28 52  1  0
 28 53  1  0
 31 54  1  0
 32 55  1  0
 33 56  1  0
 34 57  1  0
 35 58  1  0
M  END
>  <Ligand ID>  (1) 
LIG0004848

>  <Ligand>  (1) 
CHEMBL2391259

>  <SMILES>  (1) 
COc1cccc(c1)Cc1cc(nn(c1=O)CC(=O)Nc1ccc2c(c1)OCO2)c1ccccc1

>  <CID>  (1) 
71698532.0

>  <ChEMBL ID>  (1) 
nan

>  <InChiKey>  (1) 
OMHHLYIMYPHLCD-UHFFFAOYSA-N

>  <InChi>  (1) 
InChI=1S/C27H23N3O5/c1-33-22-9-5-6-18(13-22)12-20-14-23(19-7-3-2-4-8-19)29-30(27(20)32)16-26(31)28-21-10-11-24-25(15-21)35-17-34-24/h2-11,13-15H,12,16-17H2,1H3,(H,28,31)

>  <IUPAC Name>  (1) 
N-(1,3-benzodioxol-5-yl)-2-[5-[(3-methoxyphenyl)methyl]-6-oxo-3-phenylpyridazin-1-yl]acetamide

$$$$
