
     RDKit          3D

 37 40  0  0  0  0  0  0  0  0999 V2000
    4.8995   -1.5349    0.1799 N   0  0  0  0  0  0  0  0  0  0  0  0
    3.6915   -1.8166   -0.5743 C   0  0  0  0  0  0  0  0  0  0  0  0
    2.8934   -0.5631   -0.7851 C   0  0  1  0  0  0  0  0  0  0  0  0
    1.6490   -0.7126   -1.5340 C   0  0  0  0  0  0  0  0  0  0  0  0
    1.5162   -0.4703   -0.0624 C   0  0  2  0  0  0  0  0  0  0  0  0
    1.2303    0.8508    0.4989 C   0  0  0  0  0  0  0  0  0  0  0  0
    2.3147    1.6497    0.8745 C   0  0  0  0  0  0  0  0  0  0  0  0
    2.1501    2.9145    1.3980 C   0  0  0  0  0  0  0  0  0  0  0  0
    0.8597    3.3674    1.5393 C   0  0  0  0  0  0  0  0  0  0  0  0
   -0.2029    2.5826    1.1714 C   0  0  0  0  0  0  0  0  0  0  0  0
   -0.0540    1.3008    0.6406 C   0  0  0  0  0  0  0  0  0  0  0  0
   -1.2477    0.5506    0.3180 C   0  0  0  0  0  0  0  0  0  0  0  0
   -1.4426   -0.7354   -0.1094 C   0  0  0  0  0  0  0  0  0  0  0  0
   -2.8144   -0.9645   -0.2741 C   0  0  0  0  0  0  0  0  0  0  0  0
   -3.3937    0.2353    0.0748 C   0  0  0  0  0  0  0  0  0  0  0  0
   -2.4659    1.0617    0.4026 O   0  0  0  0  0  0  0  0  0  0  0  0
   -4.7635    0.3948    0.0358 C   0  0  0  0  0  0  0  0  0  0  0  0
   -5.5380   -0.6883   -0.3647 C   0  0  0  0  0  0  0  0  0  0  0  0
   -4.9444   -1.8998   -0.7165 C   0  0  0  0  0  0  0  0  0  0  0  0
   -3.5723   -2.0403   -0.6712 C   0  0  0  0  0  0  0  0  0  0  0  0
    4.6015   -1.0053    1.0253 H   0  0  0  0  0  0  0  0  0  0  0  0
    5.4908   -0.8992   -0.3905 H   0  0  0  0  0  0  0  0  0  0  0  0
    4.0396   -2.1333   -1.5931 H   0  0  0  0  0  0  0  0  0  0  0  0
    3.1002   -2.6469   -0.1568 H   0  0  0  0  0  0  0  0  0  0  0  0
    3.4648    0.3524   -0.9539 H   0  0  0  0  0  0  0  0  0  0  0  0
    1.3028   -1.7381   -1.8329 H   0  0  0  0  0  0  0  0  0  0  0  0
    1.2509    0.1058   -2.1858 H   0  0  0  0  0  0  0  0  0  0  0  0
    1.3985   -1.3215    0.6604 H   0  0  0  0  0  0  0  0  0  0  0  0
    3.3328    1.3051    0.7768 H   0  0  0  0  0  0  0  0  0  0  0  0
    2.9691    3.5536    1.6964 H   0  0  0  0  0  0  0  0  0  0  0  0
    0.6890    4.3524    1.9452 H   0  0  0  0  0  0  0  0  0  0  0  0
   -1.1963    3.0251    1.3196 H   0  0  0  0  0  0  0  0  0  0  0  0
   -0.7212   -1.4800   -0.2941 H   0  0  0  0  0  0  0  0  0  0  0  0
   -5.2481    1.3270    0.3046 H   0  0  0  0  0  0  0  0  0  0  0  0
   -6.6238   -0.5745   -0.3997 H   0  0  0  0  0  0  0  0  0  0  0  0
   -5.5564   -2.7448   -1.0295 H   0  0  0  0  0  0  0  0  0  0  0  0
   -3.0591   -2.9603   -0.9341 H   0  0  0  0  0  0  0  0  0  0  0  0
  1  2  1  0
  2  3  1  0
  3  4  1  0
  4  5  1  0
  5  6  1  0
  6  7  2  0
  7  8  1  0
  8  9  2  0
  9 10  1  0
 10 11  2  0
 11 12  1  0
 12 13  2  0
 13 14  1  0
 14 15  2  0
 15 16  1  0
 15 17  1  0
 17 18  2  0
 18 19  1  0
 19 20  2  0
  5  3  1  0
 11  6  1  0
 16 12  1  0
 20 14  1  0
  1 21  1  0
  1 22  1  0
  2 23  1  0
  2 24  1  0
  3 25  1  6
  4 26  1  0
  4 27  1  0
  5 28  1  1
  7 29  1  0
  8 30  1  0
  9 31  1  0
 10 32  1  0
 13 33  1  0
 17 34  1  0
 18 35  1  0
 19 36  1  0
 20 37  1  0
M  END
>  <Ligand ID>  (1) 
LIG0005680

>  <Ligand>  (1) 
CHEMBL475021

>  <SMILES>  (1) 
NC[C@H]1C[C@@H]1c1ccccc1c1cc2c(o1)cccc2

>  <CID>  (1) 
44572254.0

>  <ChEMBL ID>  (1) 
nan

>  <InChiKey>  (1) 
XSIQBHMWGCRUBA-CJNGLKHVSA-N

>  <InChi>  (1) 
InChI=1S/C18H17NO/c19-11-13-9-16(13)14-6-2-3-7-15(14)18-10-12-5-1-4-8-17(12)20-18/h1-8,10,13,16H,9,11,19H2/t13-,16+/m1/s1

>  <IUPAC Name>  (1) 
[(1S,2S)-2-[2-(1-benzofuran-2-yl)phenyl]cyclopropyl]methanamine

$$$$
