
     RDKit          3D

 76 83  0  0  0  0  0  0  0  0999 V2000
   -2.9000    6.3740   -1.1128 C   0  0  0  0  0  0  0  0  0  0  0  0
   -1.9353    5.3130   -1.0473 O   0  0  0  0  0  0  0  0  0  0  0  0
   -2.3764    4.0190   -0.7830 C   0  0  0  0  0  0  0  0  0  0  0  0
   -3.7251    3.7362   -0.5355 C   0  0  0  0  0  0  0  0  0  0  0  0
   -4.1700    2.4377   -0.2812 C   0  0  0  0  0  0  0  0  0  0  0  0
   -3.2332    1.4010   -0.2794 C   0  0  0  0  0  0  0  0  0  0  0  0
   -1.9576    1.7581   -0.5322 C   0  0  0  0  0  0  0  0  0  0  0  0
   -1.4526    2.9896   -0.7785 C   0  0  0  0  0  0  0  0  0  0  0  0
   -0.0894    2.8257   -0.9490 O   0  0  0  0  0  0  0  0  0  0  0  0
    0.3081    1.4812   -0.8298 C   0  0  2  0  0  0  0  0  0  0  0  0
   -0.9550    0.6756   -0.7083 C   0  0  2  0  0  0  0  0  0  0  0  0
   -1.2956   -0.0650   -1.9625 C   0  0  0  0  0  0  0  0  0  0  0  0
   -1.7633   -1.4457   -1.7931 C   0  0  0  0  0  0  0  0  0  0  0  0
   -2.2071   -1.8537   -0.4968 N   0  0  0  0  0  0  0  0  0  0  0  0
   -2.3659   -0.8462    0.4688 C   0  0  2  0  0  0  0  0  0  0  0  0
   -3.5533    0.0003    0.0561 C   0  0  0  0  0  0  0  0  0  0  0  0
   -1.0643   -0.1121    0.5604 C   0  0  2  0  0  0  0  0  0  0  0  0
   -0.9504    0.8740    1.7052 C   0  0  0  0  0  0  0  0  0  0  0  0
    0.4389    1.4651    1.6646 C   0  0  0  0  0  0  0  0  0  0  0  0
    1.1584    1.1352    0.3641 C   0  0  2  0  0  0  0  0  0  0  0  0
    2.4168    1.6696    0.3609 O   0  0  0  0  0  0  0  0  0  0  0  0
    2.5028    3.0409    0.3235 C   0  0  0  0  0  0  0  0  0  0  0  0
    1.3104   -0.3876    0.3540 C   0  0  2  0  0  0  0  0  0  0  0  0
    0.0643   -1.0982    0.7725 C   0  0  0  0  0  0  0  0  0  0  0  0
    2.5877   -0.8550    1.0277 C   0  0  0  0  0  0  0  0  0  0  0  0
    3.6158   -0.4478    0.4264 O   0  0  0  0  0  0  0  0  0  0  0  0
    4.6332   -0.0543   -0.1524 C   0  0  0  0  0  0  0  0  0  0  0  0
    5.5873   -1.2186   -0.4066 C   0  0  0  0  0  0  0  0  0  0  0  0
    5.4759   -2.0360   -1.4909 C   0  0  0  0  0  0  0  0  0  0  0  0
    6.3275   -3.1081   -1.7420 C   0  0  0  0  0  0  0  0  0  0  0  0
    7.3255   -3.2993   -0.7986 C   0  0  0  0  0  0  0  0  0  0  0  0
    7.5013   -2.5256    0.3101 C   0  0  0  0  0  0  0  0  0  0  0  0
    6.6148   -1.4753    0.4979 C   0  0  0  0  0  0  0  0  0  0  0  0
   -2.8664   -3.0675   -0.4893 C   0  0  0  0  0  0  0  0  0  0  0  0
   -3.3491   -3.7181    0.7256 C   0  0  0  0  0  0  0  0  0  0  0  0
   -4.3336   -3.2249    1.6915 C   0  0  0  0  0  0  0  0  0  0  0  0
   -4.8145   -4.2175    0.6926 C   0  0  0  0  0  0  0  0  0  0  0  0
   -3.5963    6.3398   -0.2695 H   0  0  0  0  0  0  0  0  0  0  0  0
   -2.4046    7.3592   -1.1346 H   0  0  0  0  0  0  0  0  0  0  0  0
   -3.5114    6.2772   -2.0423 H   0  0  0  0  0  0  0  0  0  0  0  0
   -4.4688    4.5240   -0.5367 H   0  0  0  0  0  0  0  0  0  0  0  0
   -5.2041    2.2049   -0.0875 H   0  0  0  0  0  0  0  0  0  0  0  0
    0.9148    1.1941   -1.7256 H   0  0  0  0  0  0  0  0  0  0  0  0
   -2.0398    0.5176   -2.5462 H   0  0  0  0  0  0  0  0  0  0  0  0
   -0.3740   -0.0066   -2.6227 H   0  0  0  0  0  0  0  0  0  0  0  0
   -2.5732   -1.7350   -2.4944 H   0  0  0  0  0  0  0  0  0  0  0  0
   -0.9065   -2.1323   -2.0289 H   0  0  0  0  0  0  0  0  0  0  0  0
   -2.5646   -1.2642    1.4602 H   0  0  0  0  0  0  0  0  0  0  0  0
   -4.0795   -0.4530   -0.8027 H   0  0  0  0  0  0  0  0  0  0  0  0
   -4.3363   -0.0229    0.8797 H   0  0  0  0  0  0  0  0  0  0  0  0
   -1.6569    1.7345    1.6127 H   0  0  0  0  0  0  0  0  0  0  0  0
   -1.0499    0.3429    2.6863 H   0  0  0  0  0  0  0  0  0  0  0  0
    1.0908    1.1041    2.4702 H   0  0  0  0  0  0  0  0  0  0  0  0
    0.3995    2.5839    1.7967 H   0  0  0  0  0  0  0  0  0  0  0  0
    3.5956    3.2943    0.3446 H   0  0  0  0  0  0  0  0  0  0  0  0
    2.1402    3.3774   -0.6896 H   0  0  0  0  0  0  0  0  0  0  0  0
    2.0484    3.5828    1.1553 H   0  0  0  0  0  0  0  0  0  0  0  0
    1.4476   -0.6517   -0.7399 H   0  0  0  0  0  0  0  0  0  0  0  0
   -0.0888   -2.0472    0.2511 H   0  0  0  0  0  0  0  0  0  0  0  0
    0.1670   -1.2567    1.8906 H   0  0  0  0  0  0  0  0  0  0  0  0
    2.5043   -0.6442    2.1508 H   0  0  0  0  0  0  0  0  0  0  0  0
    2.5067   -2.0027    0.9830 H   0  0  0  0  0  0  0  0  0  0  0  0
    5.2626    0.6794    0.4485 H   0  0  0  0  0  0  0  0  0  0  0  0
    4.5256    0.4089   -1.2053 H   0  0  0  0  0  0  0  0  0  0  0  0
    4.6985   -1.8686   -2.2151 H   0  0  0  0  0  0  0  0  0  0  0  0
    6.2019   -3.7239   -2.6129 H   0  0  0  0  0  0  0  0  0  0  0  0
    8.0099   -4.1343   -0.9711 H   0  0  0  0  0  0  0  0  0  0  0  0
    8.3031   -2.7107    1.0297 H   0  0  0  0  0  0  0  0  0  0  0  0
    6.6867   -0.7959    1.3572 H   0  0  0  0  0  0  0  0  0  0  0  0
   -3.7676   -2.9554   -1.1906 H   0  0  0  0  0  0  0  0  0  0  0  0
   -2.2468   -3.8244   -1.0716 H   0  0  0  0  0  0  0  0  0  0  0  0
   -2.6670   -4.5667    1.1152 H   0  0  0  0  0  0  0  0  0  0  0  0
   -4.2710   -3.5767    2.7547 H   0  0  0  0  0  0  0  0  0  0  0  0
   -4.7173   -2.2047    1.5943 H   0  0  0  0  0  0  0  0  0  0  0  0
   -5.4558   -3.8392   -0.1044 H   0  0  0  0  0  0  0  0  0  0  0  0
   -5.0338   -5.2477    0.9852 H   0  0  0  0  0  0  0  0  0  0  0  0
  1  2  1  0
  2  3  1  0
  3  4  2  0
  4  5  1  0
  5  6  2  0
  6  7  1  0
  7  8  2  0
  8  9  1  0
  9 10  1  0
 10 11  1  0
 11 12  1  6
 12 13  1  0
 13 14  1  0
 14 15  1  0
 15 16  1  0
 15 17  1  0
 17 18  1  1
 18 19  1  0
 19 20  1  0
 20 21  1  6
 21 22  1  0
 20 23  1  0
 23 24  1  0
 23 25  1  0
 25 26  1  0
 26 27  1  0
 27 28  1  0
 28 29  2  0
 29 30  1  0
 30 31  2  0
 31 32  1  0
 32 33  2  0
 14 34  1  0
 34 35  1  0
 35 36  1  0
 36 37  1  0
  8  3  1  0
 20 10  1  0
 33 28  1  0
 37 35  1  0
 16  6  1  0
 24 17  1  0
 11  7  1  0
 17 11  1  0
  1 38  1  0
  1 39  1  0
  1 40  1  0
  4 41  1  0
  5 42  1  0
 10 43  1  6
 12 44  1  0
 12 45  1  0
 13 46  1  0
 13 47  1  0
 15 48  1  1
 16 49  1  0
 16 50  1  0
 18 51  1  0
 18 52  1  0
 19 53  1  0
 19 54  1  0
 22 55  1  0
 22 56  1  0
 22 57  1  0
 23 58  1  6
 24 59  1  0
 24 60  1  0
 25 61  1  0
 25 62  1  0
 27 63  1  0
 27 64  1  0
 29 65  1  0
 30 66  1  0
 31 67  1  0
 32 68  1  0
 33 69  1  0
 34 70  1  0
 34 71  1  0
 35 72  1  0
 36 73  1  0
 36 74  1  0
 37 75  1  0
 37 76  1  0
M  END
>  <Ligand ID>  (1) 
LIG0004772

>  <Ligand>  (1) 
BDBM4203

>  <SMILES>  (1) 
COc1ccc2c3c1O[C@@H]1[C@@]43CCN([C@H](C2)[C@@]24CC[C@@]1(OC)[C@H](C2)COCc1ccccc1)CC1CC1

>  <CID>  (1) 
58296565.0

>  <ChEMBL ID>  (1) 
nan

>  <InChiKey>  (1) 
JHEVLALGAHRXET-BUVWRSTLSA-N

>  <InChi>  (1) 
InChI=1S/C32H39NO4/c1-34-25-11-10-23-16-26-30-12-13-32(35-2,24(17-30)20-36-19-22-6-4-3-5-7-22)29-31(30,27(23)28(25)37-29)14-15-33(26)18-21-8-9-21/h3-7,10-11,21,24,26,29H,8-9,12-20H2,1-2H3/t24-,26-,29-,30-,31+,32-/m1/s1

>  <IUPAC Name>  (1) 
(1S,2S,6R,14R,15R,16R)-5-(cyclopropylmethyl)-11,15-dimethoxy-16-(phenylmethoxymethyl)-13-oxa-5-azahexacyclo[13.2.2.12,8.01,6.02,14.012,20]icosa-8(20),9,11-triene

$$$$
