
     RDKit          3D

 22 22  0  0  0  0  0  0  0  0999 V2000
    3.6204   -0.0527   -0.0729 C   0  0  0  0  0  0  0  0  0  0  0  0
    2.1443   -0.0286   -0.0393 C   0  0  0  0  0  0  0  0  0  0  0  0
    1.3645    0.0617   -1.1710 C   0  0  0  0  0  0  0  0  0  0  0  0
   -0.0131    0.0811   -1.0944 C   0  0  0  0  0  0  0  0  0  0  0  0
   -0.6771    0.0114    0.1136 C   0  0  0  0  0  0  0  0  0  0  0  0
    0.1252   -0.0792    1.2434 C   0  0  0  0  0  0  0  0  0  0  0  0
    1.5078   -0.0989    1.1688 C   0  0  0  0  0  0  0  0  0  0  0  0
   -2.1340    0.0315    0.2008 C   0  0  0  0  0  0  0  0  0  0  0  0
   -2.7940   -0.0342    1.3472 C   0  0  0  0  0  0  0  0  0  0  0  0
   -2.8948    0.1312   -1.0744 C   0  0  0  0  0  0  0  0  0  0  0  0
    4.0167   -0.9400    0.4961 H   0  0  0  0  0  0  0  0  0  0  0  0
    4.0313    0.8501    0.4173 H   0  0  0  0  0  0  0  0  0  0  0  0
    4.0137   -0.1635   -1.1154 H   0  0  0  0  0  0  0  0  0  0  0  0
    1.8400    0.1197   -2.1562 H   0  0  0  0  0  0  0  0  0  0  0  0
   -0.5690    0.1537   -2.0224 H   0  0  0  0  0  0  0  0  0  0  0  0
   -0.2988   -0.1384    2.2312 H   0  0  0  0  0  0  0  0  0  0  0  0
    2.1062   -0.1707    2.0742 H   0  0  0  0  0  0  0  0  0  0  0  0
   -2.3237   -0.1079    2.3139 H   0  0  0  0  0  0  0  0  0  0  0  0
   -3.8747   -0.0146    1.3437 H   0  0  0  0  0  0  0  0  0  0  0  0
   -2.4579    0.8840   -1.7672 H   0  0  0  0  0  0  0  0  0  0  0  0
   -2.7589   -0.8587   -1.5686 H   0  0  0  0  0  0  0  0  0  0  0  0
   -3.9740    0.3629   -0.8684 H   0  0  0  0  0  0  0  0  0  0  0  0
  1  2  1  0
  2  3  2  0
  3  4  1  0
  4  5  2  0
  5  6  1  0
  6  7  2  0
  5  8  1  0
  8  9  2  0
  8 10  1  0
  7  2  1  0
  1 11  1  0
  1 12  1  0
  1 13  1  0
  3 14  1  0
  4 15  1  0
  6 16  1  0
  7 17  1  0
  9 18  1  0
  9 19  1  0
 10 20  1  0
 10 21  1  0
 10 22  1  0
M  END
>  <Ligand ID>  (1) 
LIG0000456

>  <Ligand>  (1) 
p-alpha-Dimethyl styrene

>  <SMILES>  (1) 
Cc1ccc(cc1)C(=C)C

>  <CID>  (1) 
62385.0

>  <ChEMBL ID>  (1) 
nan

>  <InChiKey>  (1) 
MMSLOZQEMPDGPI-UHFFFAOYSA-N

>  <InChi>  (1) 
InChI=1S/C10H12/c1-8(2)10-6-4-9(3)5-7-10/h4-7H,1H2,2-3H3

>  <IUPAC Name>  (1) 
1-methyl-4-prop-1-en-2-ylbenzene

$$$$
