
     RDKit          3D

 65 69  0  0  0  0  0  0  0  0999 V2000
   -6.0081    4.2353    1.8346 C   0  0  0  0  0  0  0  0  0  0  0  0
   -5.4558    3.0806    2.4217 O   0  0  0  0  0  0  0  0  0  0  0  0
   -4.6759    2.2047    1.6783 C   0  0  0  0  0  0  0  0  0  0  0  0
   -4.4452    2.4721    0.3613 C   0  0  0  0  0  0  0  0  0  0  0  0
   -3.6702    1.6012   -0.3763 C   0  0  0  0  0  0  0  0  0  0  0  0
   -3.1359    0.4655    0.2304 C   0  0  0  0  0  0  0  0  0  0  0  0
   -3.3593    0.1801    1.5610 C   0  0  0  0  0  0  0  0  0  0  0  0
   -4.1404    1.0775    2.2634 C   0  0  0  0  0  0  0  0  0  0  0  0
   -2.3292   -0.3924   -0.6413 C   0  0  0  0  0  0  0  0  0  0  0  0
   -1.2079    0.0407   -1.2470 N   0  0  0  0  0  0  0  0  0  0  0  0
   -0.4841   -0.7387   -2.0347 N   0  0  0  0  0  0  0  0  0  0  0  0
    0.7170   -0.2805   -2.6863 C   0  0  0  0  0  0  0  0  0  0  0  0
    1.9528   -0.5076   -1.8592 C   0  0  0  0  0  0  0  0  0  0  0  0
    1.8938    0.2082   -0.5349 C   0  0  0  0  0  0  0  0  0  0  0  0
    3.0985    1.0317   -0.2150 C   0  0  0  0  0  0  0  0  0  0  0  0
    4.3614    0.3747   -0.6102 C   0  0  0  0  0  0  0  0  0  0  0  0
    4.4092   -0.1860   -1.8773 C   0  0  0  0  0  0  0  0  0  0  0  0
    3.1450   -0.0488   -2.6842 C   0  0  0  0  0  0  0  0  0  0  0  0
    5.5240   -0.8269   -2.3731 C   0  0  0  0  0  0  0  0  0  0  0  0
    6.6264   -0.8967   -1.5449 C   0  0  0  0  0  0  0  0  0  0  0  0
    6.5746   -0.3363   -0.2814 C   0  0  0  0  0  0  0  0  0  0  0  0
    5.4651    0.3046    0.2182 C   0  0  0  0  0  0  0  0  0  0  0  0
    5.3705    0.8714    1.4598 O   0  0  0  0  0  0  0  0  0  0  0  0
    6.3645    0.9158    2.4411 C   0  0  0  0  0  0  0  0  0  0  0  0
    7.5623    1.6530    1.9707 C   0  0  0  0  0  0  0  0  0  0  0  0
    8.5388    1.7373    2.7482 O   0  0  0  0  0  0  0  0  0  0  0  0
    7.6631    2.2526    0.7265 O   0  0  0  0  0  0  0  0  0  0  0  0
   -0.8762   -2.0106   -2.2427 C   0  0  0  0  0  0  0  0  0  0  0  0
   -0.2081   -2.7779   -2.9878 O   0  0  0  0  0  0  0  0  0  0  0  0
   -2.0120   -2.5401   -1.6630 C   0  0  0  0  0  0  0  0  0  0  0  0
   -2.7519   -1.7104   -0.8453 C   0  0  0  0  0  0  0  0  0  0  0  0
   -3.9642   -2.1908   -0.1936 C   0  0  0  0  0  0  0  0  0  0  0  0
   -3.9196   -3.2615    0.7075 C   0  0  0  0  0  0  0  0  0  0  0  0
   -5.0735   -3.7163    1.3263 C   0  0  0  0  0  0  0  0  0  0  0  0
   -6.3112   -3.1181    1.0671 C   0  0  0  0  0  0  0  0  0  0  0  0
   -6.3458   -2.0621    0.1764 C   0  0  0  0  0  0  0  0  0  0  0  0
   -5.1880   -1.6092   -0.4417 C   0  0  0  0  0  0  0  0  0  0  0  0
   -5.1988    4.9482    1.6284 H   0  0  0  0  0  0  0  0  0  0  0  0
   -6.5130    4.0081    0.8524 H   0  0  0  0  0  0  0  0  0  0  0  0
   -6.7639    4.6896    2.5027 H   0  0  0  0  0  0  0  0  0  0  0  0
   -4.8440    3.3479   -0.1504 H   0  0  0  0  0  0  0  0  0  0  0  0
   -3.4895    1.8210   -1.4291 H   0  0  0  0  0  0  0  0  0  0  0  0
   -2.9315   -0.7082    2.0027 H   0  0  0  0  0  0  0  0  0  0  0  0
   -4.3283    0.8702    3.3139 H   0  0  0  0  0  0  0  0  0  0  0  0
    0.6183    0.8222   -2.8270 H   0  0  0  0  0  0  0  0  0  0  0  0
    0.8156   -0.6883   -3.7101 H   0  0  0  0  0  0  0  0  0  0  0  0
    2.0690   -1.5901   -1.6448 H   0  0  0  0  0  0  0  0  0  0  0  0
    0.9924    0.8595   -0.4657 H   0  0  0  0  0  0  0  0  0  0  0  0
    1.7580   -0.5256    0.3129 H   0  0  0  0  0  0  0  0  0  0  0  0
    3.0356    2.0484   -0.6674 H   0  0  0  0  0  0  0  0  0  0  0  0
    3.1414    1.1558    0.8935 H   0  0  0  0  0  0  0  0  0  0  0  0
    3.2797   -0.6315   -3.5915 H   0  0  0  0  0  0  0  0  0  0  0  0
    3.0086    1.0199   -2.9472 H   0  0  0  0  0  0  0  0  0  0  0  0
    5.5176   -1.2495   -3.3666 H   0  0  0  0  0  0  0  0  0  0  0  0
    7.5029   -1.3873   -1.9034 H   0  0  0  0  0  0  0  0  0  0  0  0
    7.4574   -0.4255    0.3207 H   0  0  0  0  0  0  0  0  0  0  0  0
    5.9912    1.4659    3.3299 H   0  0  0  0  0  0  0  0  0  0  0  0
    6.6205   -0.1356    2.6913 H   0  0  0  0  0  0  0  0  0  0  0  0
    8.5988    2.4587    0.3810 H   0  0  0  0  0  0  0  0  0  0  0  0
   -2.3496   -3.5474   -1.8088 H   0  0  0  0  0  0  0  0  0  0  0  0
   -2.9428   -3.7224    0.9028 H   0  0  0  0  0  0  0  0  0  0  0  0
   -5.0118   -4.5605    2.0315 H   0  0  0  0  0  0  0  0  0  0  0  0
   -7.2220   -3.4645    1.5450 H   0  0  0  0  0  0  0  0  0  0  0  0
   -7.2966   -1.5823   -0.0399 H   0  0  0  0  0  0  0  0  0  0  0  0
   -5.2196   -0.7933   -1.1287 H   0  0  0  0  0  0  0  0  0  0  0  0
  1  2  1  0
  2  3  1  0
  3  4  2  0
  4  5  1  0
  5  6  2  0
  6  7  1  0
  7  8  2  0
  6  9  1  0
  9 10  2  0
 10 11  1  0
 11 12  1  0
 12 13  1  0
 13 14  1  0
 14 15  1  0
 15 16  1  0
 16 17  2  0
 17 18  1  0
 17 19  1  0
 19 20  2  0
 20 21  1  0
 21 22  2  0
 22 23  1  0
 23 24  1  0
 24 25  1  0
 25 26  2  0
 25 27  1  0
 11 28  1  0
 28 29  2  0
 28 30  1  0
 30 31  2  0
 31 32  1  0
 32 33  2  0
 33 34  1  0
 34 35  2  0
 35 36  1  0
 36 37  2  0
  8  3  1  0
 31  9  1  0
 37 32  1  0
 18 13  1  0
 22 16  1  0
  1 38  1  0
  1 39  1  0
  1 40  1  0
  4 41  1  0
  5 42  1  0
  7 43  1  0
  8 44  1  0
 12 45  1  0
 12 46  1  0
 13 47  1  0
 14 48  1  0
 14 49  1  0
 15 50  1  0
 15 51  1  0
 18 52  1  0
 18 53  1  0
 19 54  1  0
 20 55  1  0
 21 56  1  0
 24 57  1  0
 24 58  1  0
 27 59  1  0
 30 60  1  0
 33 61  1  0
 34 62  1  0
 35 63  1  0
 36 64  1  0
 37 65  1  0
M  END
>  <Ligand ID>  (1) 
LIG0004804

>  <Ligand>  (1) 
CHEMBL3398215

>  <SMILES>  (1) 
COc1ccc(cc1)c1nn(CC2CCc3c(C2)cccc3OCC(=O)O)c(=O)cc1c1ccccc1

>  <CID>  (1) 
118727294.0

>  <ChEMBL ID>  (1) 
nan

>  <InChiKey>  (1) 
BCPHVBRRBWWPKE-UHFFFAOYSA-N

>  <InChi>  (1) 
InChI=1S/C30H28N2O5/c1-36-24-13-11-22(12-14-24)30-26(21-6-3-2-4-7-21)17-28(33)32(31-30)18-20-10-15-25-23(16-20)8-5-9-27(25)37-19-29(34)35/h2-9,11-14,17,20H,10,15-16,18-19H2,1H3,(H,34,35)

>  <IUPAC Name>  (1) 
2-[[6-[[3-(4-methoxyphenyl)-6-oxo-4-phenylpyridazin-1-yl]methyl]-5,6,7,8-tetrahydronaphthalen-1-yl]oxy]acetic acid

$$$$
