
     RDKit          3D

 54 57  0  0  0  0  0  0  0  0999 V2000
   -5.1223   -3.4475   -2.1859 C   0  0  0  0  0  0  0  0  0  0  0  0
   -5.0212   -2.4577   -1.0817 C   0  0  0  0  0  0  0  0  0  0  0  0
   -6.1013   -2.2563   -0.2497 C   0  0  0  0  0  0  0  0  0  0  0  0
   -5.9907   -1.3271    0.7780 C   0  0  0  0  0  0  0  0  0  0  0  0
   -4.8187   -0.6018    0.9812 C   0  0  0  0  0  0  0  0  0  0  0  0
   -3.7505   -0.8172    0.1394 C   0  0  0  0  0  0  0  0  0  0  0  0
   -3.8523   -1.7508   -0.8984 C   0  0  0  0  0  0  0  0  0  0  0  0
   -2.5090   -0.1430    0.2432 N   0  0  0  0  0  0  0  0  0  0  0  0
   -1.3824   -0.7313    0.7222 C   0  0  0  0  0  0  0  0  0  0  0  0
   -0.3816    0.2388    0.6652 C   0  0  0  0  0  0  0  0  0  0  0  0
   -0.9245    1.3927    0.1532 C   0  0  0  0  0  0  0  0  0  0  0  0
   -2.2229    1.1063   -0.0872 N   0  0  0  0  0  0  0  0  0  0  0  0
   -0.3419    2.6929   -0.0965 C   0  0  0  0  0  0  0  0  0  0  0  0
    0.8266    2.9517   -0.7318 C   0  0  0  0  0  0  0  0  0  0  0  0
    1.3123    4.2458   -0.9182 C   0  0  0  0  0  0  0  0  0  0  0  0
    0.5996    5.3454   -0.4489 C   0  0  0  0  0  0  0  0  0  0  0  0
   -0.5890    5.0747    0.1967 C   0  0  0  0  0  0  0  0  0  0  0  0
   -1.0637    3.7946    0.3781 C   0  0  0  0  0  0  0  0  0  0  0  0
    1.0047   -0.0373    1.1007 C   0  0  0  0  0  0  0  0  0  0  0  0
    1.9167   -0.2871    0.0365 N   0  0  0  0  0  0  0  0  0  0  0  0
    3.2683   -0.5624    0.4165 C   0  0  0  0  0  0  0  0  0  0  0  0
    4.0788   -0.8217   -0.8560 C   0  0  0  0  0  0  0  0  0  0  0  0
    5.4896   -1.1144   -0.4960 C   0  0  0  0  0  0  0  0  0  0  0  0
    6.4658   -0.1721   -0.3802 C   0  0  0  0  0  0  0  0  0  0  0  0
    7.7296   -0.5418   -0.0462 N   0  0  0  0  0  0  0  0  0  0  0  0
    8.0436   -1.8375    0.1762 C   0  0  0  0  0  0  0  0  0  0  0  0
    7.0597   -2.7900    0.0599 C   0  0  0  0  0  0  0  0  0  0  0  0
    5.8191   -2.3954   -0.2717 N   0  0  0  0  0  0  0  0  0  0  0  0
   -4.6735    0.3940    2.0681 C   0  0  0  0  0  0  0  0  0  0  0  0
   -4.1504   -3.5613   -2.7116 H   0  0  0  0  0  0  0  0  0  0  0  0
   -5.8508   -3.1549   -2.9531 H   0  0  0  0  0  0  0  0  0  0  0  0
   -5.3957   -4.4592   -1.8310 H   0  0  0  0  0  0  0  0  0  0  0  0
   -7.0389   -2.7854   -0.3527 H   0  0  0  0  0  0  0  0  0  0  0  0
   -6.8163   -1.1385    1.4540 H   0  0  0  0  0  0  0  0  0  0  0  0
   -3.0187   -1.9336   -1.5723 H   0  0  0  0  0  0  0  0  0  0  0  0
   -1.3077   -1.7536    1.0720 H   0  0  0  0  0  0  0  0  0  0  0  0
    1.4155    2.1454   -1.1203 H   0  0  0  0  0  0  0  0  0  0  0  0
    2.2582    4.3937   -1.4359 H   0  0  0  0  0  0  0  0  0  0  0  0
    0.9697    6.3449   -0.5902 H   0  0  0  0  0  0  0  0  0  0  0  0
   -1.1693    5.9297    0.5754 H   0  0  0  0  0  0  0  0  0  0  0  0
   -2.0206    3.6410    0.9015 H   0  0  0  0  0  0  0  0  0  0  0  0
    1.0155   -0.8288    1.8913 H   0  0  0  0  0  0  0  0  0  0  0  0
    1.3814    0.8769    1.6470 H   0  0  0  0  0  0  0  0  0  0  0  0
    1.5699   -0.9169   -0.7010 H   0  0  0  0  0  0  0  0  0  0  0  0
    3.7351    0.2624    0.9747 H   0  0  0  0  0  0  0  0  0  0  0  0
    3.3185   -1.4854    1.0403 H   0  0  0  0  0  0  0  0  0  0  0  0
    4.0392    0.0830   -1.5047 H   0  0  0  0  0  0  0  0  0  0  0  0
    3.6773   -1.6942   -1.3874 H   0  0  0  0  0  0  0  0  0  0  0  0
    6.2202    0.8762   -0.5583 H   0  0  0  0  0  0  0  0  0  0  0  0
    9.0304   -2.1719    0.4421 H   0  0  0  0  0  0  0  0  0  0  0  0
    7.2284   -3.8484    0.2218 H   0  0  0  0  0  0  0  0  0  0  0  0
   -3.8815    0.1254    2.7925 H   0  0  0  0  0  0  0  0  0  0  0  0
   -4.4626    1.4135    1.6878 H   0  0  0  0  0  0  0  0  0  0  0  0
   -5.6159    0.4955    2.6511 H   0  0  0  0  0  0  0  0  0  0  0  0
  1  2  1  0
  2  3  2  0
  3  4  1  0
  4  5  2  0
  5  6  1  0
  6  7  2  0
  6  8  1  0
  8  9  1  0
  9 10  2  0
 10 11  1  0
 11 12  2  0
 11 13  1  0
 13 14  2  0
 14 15  1  0
 15 16  2  0
 16 17  1  0
 17 18  2  0
 10 19  1  0
 19 20  1  0
 20 21  1  0
 21 22  1  0
 22 23  1  0
 23 24  2  0
 24 25  1  0
 25 26  2  0
 26 27  1  0
 27 28  2  0
  5 29  1  0
  7  2  1  0
 12  8  1  0
 18 13  1  0
 28 23  1  0
  1 30  1  0
  1 31  1  0
  1 32  1  0
  3 33  1  0
  4 34  1  0
  7 35  1  0
  9 36  1  0
 14 37  1  0
 15 38  1  0
 16 39  1  0
 17 40  1  0
 18 41  1  0
 19 42  1  0
 19 43  1  0
 20 44  1  0
 21 45  1  0
 21 46  1  0
 22 47  1  0
 22 48  1  0
 24 49  1  0
 26 50  1  0
 27 51  1  0
 29 52  1  0
 29 53  1  0
 29 54  1  0
M  END
>  <Ligand ID>  (1) 
LIG0003704

>  <Ligand>  (1) 
MLS000734515

>  <SMILES>  (1) 
Cc1ccc(c(c1)n1cc(c(n1)c1ccccc1)CNCCc1cnccn1)C

>  <CID>  (1) 
16187377.0

>  <ChEMBL ID>  (1) 
nan

>  <InChiKey>  (1) 
FFAQZBJIGLDKCL-UHFFFAOYSA-N

>  <InChi>  (1) 
InChI=1S/C24H25N5/c1-18-8-9-19(2)23(14-18)29-17-21(24(28-29)20-6-4-3-5-7-20)15-25-11-10-22-16-26-12-13-27-22/h3-9,12-14,16-17,25H,10-11,15H2,1-2H3

>  <IUPAC Name>  (1) 
N-[[1-(2,5-dimethylphenyl)-3-phenylpyrazol-4-yl]methyl]-2-pyrazin-2-ylethanamine

$$$$
