
     RDKit          3D

 56 60  0  0  0  0  0  0  0  0999 V2000
    7.1273    4.3002    0.3634 F   0  0  0  0  0  0  0  0  0  0  0  0
    6.2114    3.2917    0.2716 C   0  0  0  0  0  0  0  0  0  0  0  0
    6.3718    2.2595   -0.6131 C   0  0  0  0  0  0  0  0  0  0  0  0
    5.4062    1.2766   -0.6506 C   0  0  0  0  0  0  0  0  0  0  0  0
    4.2871    1.2818    0.1591 C   0  0  0  0  0  0  0  0  0  0  0  0
    4.1694    2.3459    1.0370 C   0  0  0  0  0  0  0  0  0  0  0  0
    5.1046    3.3576    1.1175 C   0  0  0  0  0  0  0  0  0  0  0  0
    3.0774    2.3673    1.8400 F   0  0  0  0  0  0  0  0  0  0  0  0
    3.2961    0.2612    0.1112 N   0  0  0  0  0  0  0  0  0  0  0  0
    2.0465    0.4435    0.4213 N   0  0  0  0  0  0  0  0  0  0  0  0
    1.3023   -0.6745    0.2971 C   0  0  0  0  0  0  0  0  0  0  0  0
    2.2067   -1.6412   -0.1379 C   0  0  0  0  0  0  0  0  0  0  0  0
    3.4471   -1.0418   -0.2493 C   0  0  0  0  0  0  0  0  0  0  0  0
    4.4585   -2.0389   -0.7150 C   0  0  2  0  0  0  0  0  0  0  0  0
    4.2376   -2.5726   -2.0606 C   0  0  0  0  0  0  0  0  0  0  0  0
    3.7013   -3.2933   -0.8613 C   0  0  2  0  0  0  0  0  0  0  0  0
    2.2531   -3.0589   -0.5061 C   0  0  0  0  0  0  0  0  0  0  0  0
   -0.1263   -0.8419    0.5586 C   0  0  0  0  0  0  0  0  0  0  0  0
   -0.6170   -1.9839    0.3711 O   0  0  0  0  0  0  0  0  0  0  0  0
   -0.8851    0.2767    1.0066 N   0  0  0  0  0  0  0  0  0  0  0  0
   -2.3280    0.1685    1.2856 C   0  0  0  0  0  0  0  0  0  0  0  0
   -3.0800   -0.2334    0.0748 C   0  0  0  0  0  0  0  0  0  0  0  0
   -4.4752   -0.4037    0.2596 N   0  0  0  0  0  0  0  0  0  0  0  0
   -5.3075    0.7105    0.4948 C   0  0  0  0  0  0  0  0  0  0  0  0
   -5.4252    1.6218   -0.7213 C   0  0  0  0  0  0  0  0  0  0  0  0
   -5.9882    0.8816   -1.7774 O   0  0  0  0  0  0  0  0  0  0  0  0
   -5.2112   -0.2216   -2.0648 C   0  0  0  0  0  0  0  0  0  0  0  0
   -5.0745   -1.1422   -0.8689 C   0  0  0  0  0  0  0  0  0  0  0  0
   -2.4856   -0.7617    2.4437 C   0  0  0  0  0  0  0  0  0  0  0  0
   -2.7356    1.5524    1.7440 C   0  0  0  0  0  0  0  0  0  0  0  0
    7.2442    2.2084   -1.2799 H   0  0  0  0  0  0  0  0  0  0  0  0
    5.4970    0.4450   -1.3350 H   0  0  0  0  0  0  0  0  0  0  0  0
    4.9575    4.1613    1.8236 H   0  0  0  0  0  0  0  0  0  0  0  0
    5.4251   -2.0928   -0.1791 H   0  0  0  0  0  0  0  0  0  0  0  0
    3.5909   -2.0676   -2.7828 H   0  0  0  0  0  0  0  0  0  0  0  0
    5.1143   -3.0928   -2.5213 H   0  0  0  0  0  0  0  0  0  0  0  0
    4.1131   -4.2478   -0.5170 H   0  0  0  0  0  0  0  0  0  0  0  0
    1.6852   -3.2789   -1.4555 H   0  0  0  0  0  0  0  0  0  0  0  0
    1.8705   -3.7534    0.2440 H   0  0  0  0  0  0  0  0  0  0  0  0
   -0.3603    1.1697    1.1228 H   0  0  0  0  0  0  0  0  0  0  0  0
   -2.6134   -1.1239   -0.4437 H   0  0  0  0  0  0  0  0  0  0  0  0
   -2.9805    0.5643   -0.7385 H   0  0  0  0  0  0  0  0  0  0  0  0
   -6.3731    0.2670    0.5648 H   0  0  0  0  0  0  0  0  0  0  0  0
   -5.2212    1.2869    1.3938 H   0  0  0  0  0  0  0  0  0  0  0  0
   -6.1688    2.4029   -0.4612 H   0  0  0  0  0  0  0  0  0  0  0  0
   -4.4914    2.1081   -0.9954 H   0  0  0  0  0  0  0  0  0  0  0  0
   -5.7139   -0.8117   -2.8528 H   0  0  0  0  0  0  0  0  0  0  0  0
   -4.2037    0.1102   -2.3665 H   0  0  0  0  0  0  0  0  0  0  0  0
   -4.3874   -1.9448   -1.1234 H   0  0  0  0  0  0  0  0  0  0  0  0
   -6.0383   -1.5331   -0.5306 H   0  0  0  0  0  0  0  0  0  0  0  0
   -1.5364   -0.9309    3.0004 H   0  0  0  0  0  0  0  0  0  0  0  0
   -2.8701   -1.7736    2.1790 H   0  0  0  0  0  0  0  0  0  0  0  0
   -3.2332   -0.3805    3.1989 H   0  0  0  0  0  0  0  0  0  0  0  0
   -3.1375    2.1929    0.9650 H   0  0  0  0  0  0  0  0  0  0  0  0
   -1.7989    2.1137    2.0950 H   0  0  0  0  0  0  0  0  0  0  0  0
   -3.3350    1.5143    2.6851 H   0  0  0  0  0  0  0  0  0  0  0  0
  1  2  1  0
  2  3  2  0
  3  4  1  0
  4  5  2  0
  5  6  1  0
  6  7  2  0
  6  8  1  0
  5  9  1  0
  9 10  1  0
 10 11  2  0
 11 12  1  0
 12 13  2  0
 13 14  1  0
 14 15  1  0
 15 16  1  0
 16 17  1  0
 11 18  1  0
 18 19  2  0
 18 20  1  0
 20 21  1  0
 21 22  1  0
 22 23  1  0
 23 24  1  0
 24 25  1  0
 25 26  1  0
 26 27  1  0
 27 28  1  0
 21 29  1  0
 21 30  1  0
  7  2  1  0
 13  9  1  0
 16 14  1  0
 28 23  1  0
 17 12  1  0
  3 31  1  0
  4 32  1  0
  7 33  1  0
 14 34  1  1
 15 35  1  0
 15 36  1  0
 16 37  1  1
 17 38  1  0
 17 39  1  0
 20 40  1  0
 22 41  1  0
 22 42  1  0
 24 43  1  0
 24 44  1  0
 25 45  1  0
 25 46  1  0
 27 47  1  0
 27 48  1  0
 28 49  1  0
 28 50  1  0
 29 51  1  0
 29 52  1  0
 29 53  1  0
 30 54  1  0
 30 55  1  0
 30 56  1  0
M  END
>  <Ligand ID>  (1) 
LIG0001489

>  <Ligand>  (1) 
CHEMBL3354960

>  <SMILES>  (1) 
Fc1ccc(c(c1)F)n1nc(c2c1[C@@H]1C[C@@H]1C2)C(=O)NC(CN1CCOCC1)(C)C

>  <CID>  (1) 
118720570.0

>  <ChEMBL ID>  (1) 
nan

>  <InChiKey>  (1) 
NJIMMCJWYQAPMV-UKRRQHHQSA-N

>  <InChi>  (1) 
InChI=1S/C22H26F2N4O2/c1-22(2,12-27-5-7-30-8-6-27)25-21(29)19-16-10-13-9-15(13)20(16)28(26-19)18-4-3-14(23)11-17(18)24/h3-4,11,13,15H,5-10,12H2,1-2H3,(H,25,29)/t13-,15-/m1/s1

>  <IUPAC Name>  (1) 
(2R,4R)-9-(2,4-difluorophenyl)-N-(2-methyl-1-morpholin-4-ylpropan-2-yl)-8,9-diazatricyclo[4.3.0.02,4]nona-1(6),7-diene-7-carboxamide

$$$$
