
     RDKit          3D

 12 11  0  0  0  0  0  0  0  0999 V2000
    1.4351   -0.0023   -0.0480 C   0  0  0  0  0  0  0  0  0  0  0  0
   -0.0378    0.2303    0.2061 C   0  0  0  0  0  0  0  0  0  0  0  0
   -0.6048    1.8223   -0.4317 S   0  0  0  0  0  0  0  0  0  0  0  0
   -0.8911   -0.9181   -0.2540 C   0  0  0  0  0  0  0  0  0  0  0  0
    1.7186   -0.9060    0.5327 H   0  0  0  0  0  0  0  0  0  0  0  0
    1.9610    0.8462    0.4584 H   0  0  0  0  0  0  0  0  0  0  0  0
    1.6810   -0.0885   -1.1159 H   0  0  0  0  0  0  0  0  0  0  0  0
   -0.1569    0.2776    1.3186 H   0  0  0  0  0  0  0  0  0  0  0  0
   -1.6648    2.3118    0.3751 H   0  0  0  0  0  0  0  0  0  0  0  0
   -0.9491   -1.6995    0.5391 H   0  0  0  0  0  0  0  0  0  0  0  0
   -0.5713   -1.3728   -1.1999 H   0  0  0  0  0  0  0  0  0  0  0  0
   -1.9200   -0.5009   -0.3806 H   0  0  0  0  0  0  0  0  0  0  0  0
  1  2  1  0
  2  3  1  0
  2  4  1  0
  1  5  1  0
  1  6  1  0
  1  7  1  0
  2  8  1  0
  3  9  1  0
  4 10  1  0
  4 11  1  0
  4 12  1  0
M  END
>  <Ligand ID>  (1) 
LIG0002056

>  <Ligand>  (1) 
2-Propanethiol

>  <SMILES>  (1) 
CC(S)C

>  <CID>  (1) 
6364.0

>  <ChEMBL ID>  (1) 
nan

>  <InChiKey>  (1) 
KJRCEJOSASVSRA-UHFFFAOYSA-N

>  <InChi>  (1) 
InChI=1S/C3H8S/c1-3(2)4/h3-4H,1-2H3

>  <IUPAC Name>  (1) 
propane-2-thiol

$$$$
