
     RDKit          3D

 25 24  0  0  0  0  0  0  0  0999 V2000
    3.0630    1.2526    0.4206 C   0  0  0  0  0  0  0  0  0  0  0  0
    2.8557    0.0192   -0.4042 C   0  0  0  0  0  0  0  0  0  0  0  0
    1.7607   -0.8574    0.1482 C   0  0  0  0  0  0  0  0  0  0  0  0
    0.4310   -0.1359    0.1976 C   0  0  0  0  0  0  0  0  0  0  0  0
   -0.6465   -1.0300    0.7521 C   0  0  0  0  0  0  0  0  0  0  0  0
   -1.9903   -0.3899    0.8338 C   0  0  0  0  0  0  0  0  0  0  0  0
   -2.5705    0.0840   -0.4511 C   0  0  0  0  0  0  0  0  0  0  0  0
   -3.9127    0.6819   -0.0972 C   0  0  0  0  0  0  0  0  0  0  0  0
   -4.1857    0.6338    1.1063 O   0  0  0  0  0  0  0  0  0  0  0  0
   -2.8337   -0.9526   -1.3155 F   0  0  0  0  0  0  0  0  0  0  0  0
   -1.8583    1.1098   -1.0466 F   0  0  0  0  0  0  0  0  0  0  0  0
    4.1241    1.5536    0.5201 H   0  0  0  0  0  0  0  0  0  0  0  0
    2.6628    1.1002    1.4370 H   0  0  0  0  0  0  0  0  0  0  0  0
    2.4624    2.0830   -0.0331 H   0  0  0  0  0  0  0  0  0  0  0  0
    3.7869   -0.6038   -0.3897 H   0  0  0  0  0  0  0  0  0  0  0  0
    2.6610    0.2975   -1.4705 H   0  0  0  0  0  0  0  0  0  0  0  0
    2.0845   -1.2199    1.1307 H   0  0  0  0  0  0  0  0  0  0  0  0
    1.6316   -1.6814   -0.6037 H   0  0  0  0  0  0  0  0  0  0  0  0
    0.2007    0.1161   -0.8777 H   0  0  0  0  0  0  0  0  0  0  0  0
    0.4928    0.8021    0.7468 H   0  0  0  0  0  0  0  0  0  0  0  0
   -0.3457   -1.2970    1.7861 H   0  0  0  0  0  0  0  0  0  0  0  0
   -0.6734   -1.9921    0.1993 H   0  0  0  0  0  0  0  0  0  0  0  0
   -2.6957   -1.1321    1.2560 H   0  0  0  0  0  0  0  0  0  0  0  0
   -1.9403    0.4514    1.5524 H   0  0  0  0  0  0  0  0  0  0  0  0
   -4.5644    1.1071   -0.8247 H   0  0  0  0  0  0  0  0  0  0  0  0
  1  2  1  0
  2  3  1  0
  3  4  1  0
  4  5  1  0
  5  6  1  0
  6  7  1  0
  7  8  1  0
  8  9  2  0
  7 10  1  0
  7 11  1  0
  1 12  1  0
  1 13  1  0
  1 14  1  0
  2 15  1  0
  2 16  1  0
  3 17  1  0
  3 18  1  0
  4 19  1  0
  4 20  1  0
  5 21  1  0
  5 22  1  0
  6 23  1  0
  6 24  1  0
  8 25  1  0
M  END
>  <Ligand ID>  (1) 
LIG0005026

>  <Ligand>  (1) 
2,2-difluorooctanal

>  <SMILES>  (1) 
CCCCCCC(C=O)(F)F

>  <CID>  (1) 
101018249.0

>  <ChEMBL ID>  (1) 
nan

>  <InChiKey>  (1) 
SYIBSAKOYXXJNU-UHFFFAOYSA-N

>  <InChi>  (1) 
InChI=1S/C8H14F2O/c1-2-3-4-5-6-8(9,10)7-11/h7H,2-6H2,1H3

>  <IUPAC Name>  (1) 
2,2-difluorooctanal

$$$$
