
     RDKit          3D

 38 39  0  0  0  0  0  0  0  0999 V2000
   -3.9248    1.7246    2.0827 O   0  0  0  0  0  0  0  0  0  0  0  0
   -2.8377    1.3177    1.3158 C   0  0  0  0  0  0  0  0  0  0  0  0
   -2.7012   -0.0140    0.9080 C   0  0  0  0  0  0  0  0  0  0  0  0
   -1.5956   -0.3865    0.1383 C   0  0  0  0  0  0  0  0  0  0  0  0
   -1.5851   -1.8094   -0.2335 C   0  0  0  0  0  0  0  0  0  0  0  0
   -1.5420   -2.0781   -1.6961 C   0  0  0  0  0  0  0  0  0  0  0  0
   -0.9706   -0.9666   -2.4088 N   0  0  0  0  0  0  0  0  0  0  0  0
    0.4263   -0.8755   -1.9520 C   0  0  0  0  0  0  0  0  0  0  0  0
    0.5797    0.3094   -1.0270 C   0  0  1  0  0  0  0  0  0  0  0  0
   -0.6306    0.5491   -0.2260 C   0  0  0  0  0  0  0  0  0  0  0  0
   -0.8077    1.8507    0.1986 C   0  0  0  0  0  0  0  0  0  0  0  0
   -1.8859    2.2553    0.9592 C   0  0  0  0  0  0  0  0  0  0  0  0
   -2.0617    3.5671    1.3860 O   0  0  0  0  0  0  0  0  0  0  0  0
    1.8026    0.0604   -0.2231 C   0  0  0  0  0  0  0  0  0  0  0  0
    2.0857    0.7421    0.9496 C   0  0  0  0  0  0  0  0  0  0  0  0
    3.2450    0.5092    1.6830 C   0  0  0  0  0  0  0  0  0  0  0  0
    4.1596   -0.4165    1.2637 C   0  0  0  0  0  0  0  0  0  0  0  0
    3.9111   -1.1036    0.1149 C   0  0  0  0  0  0  0  0  0  0  0  0
    2.7578   -0.8731   -0.6168 C   0  0  0  0  0  0  0  0  0  0  0  0
    0.6894    0.0000    0.0000 Cl  0  0  0  0  0  0  0  0  0  0  0  0
   -3.8047    2.0225    3.0619 H   0  0  0  0  0  0  0  0  0  0  0  0
   -3.4416   -0.7603    1.1810 H   0  0  0  0  0  0  0  0  0  0  0  0
   -0.6994   -2.2771    0.2443 H   0  0  0  0  0  0  0  0  0  0  0  0
   -2.4792   -2.3042    0.1987 H   0  0  0  0  0  0  0  0  0  0  0  0
   -0.9927   -3.0009   -1.8795 H   0  0  0  0  0  0  0  0  0  0  0  0
   -2.6006   -2.1934   -2.0539 H   0  0  0  0  0  0  0  0  0  0  0  0
   -1.4957   -0.0965   -2.2883 H   0  0  0  0  0  0  0  0  0  0  0  0
    1.0258   -0.7046   -2.8632 H   0  0  0  0  0  0  0  0  0  0  0  0
    0.7082   -1.7789   -1.3838 H   0  0  0  0  0  0  0  0  0  0  0  0
    0.7664    1.1965   -1.6525 H   0  0  0  0  0  0  0  0  0  0  0  0
   -0.0879    2.6118   -0.0691 H   0  0  0  0  0  0  0  0  0  0  0  0
   -2.5179    4.2697    0.8439 H   0  0  0  0  0  0  0  0  0  0  0  0
    1.4193    1.4720    1.3359 H   0  0  0  0  0  0  0  0  0  0  0  0
    3.4284    1.0606    2.5902 H   0  0  0  0  0  0  0  0  0  0  0  0
    5.0483   -0.5725    1.8565 H   0  0  0  0  0  0  0  0  0  0  0  0
    4.6423   -1.8419   -0.2179 H   0  0  0  0  0  0  0  0  0  0  0  0
    2.6559   -1.4650   -1.5206 H   0  0  0  0  0  0  0  0  0  0  0  0
   -0.6894    0.0000    0.0000 H   0  0  0  0  0  0  0  0  0  0  0  0
  1  2  1  0
  2  3  2  0
  3  4  1  0
  4  5  1  0
  5  6  1  0
  6  7  1  0
  7  8  1  0
  8  9  1  0
  9 10  1  0
 10 11  1  0
 11 12  2  0
 12 13  1  0
  9 14  1  0
 14 15  2  0
 15 16  1  0
 16 17  2  0
 17 18  1  0
 18 19  2  0
 12  2  1  0
 19 14  1  0
 10  4  2  0
  1 21  1  0
  3 22  1  0
  5 23  1  0
  5 24  1  0
  6 25  1  0
  6 26  1  0
  7 27  1  0
  8 28  1  0
  8 29  1  0
  9 30  1  6
 11 31  1  0
 13 32  1  0
 15 33  1  0
 16 34  1  0
 17 35  1  0
 18 36  1  0
 19 37  1  0
 20 38  1  0
M  END
>  <Ligand ID>  (1) 
LIG0003229

>  <Ligand>  (1) 
(R)-(+)-SKF-38393 HYDROCHLORIDE

>  <SMILES>  (1) 
Oc1cc2CCNC[C@@H](c2cc1O)c1ccccc1.Cl

>  <CID>  (1) 
6852375.0

>  <ChEMBL ID>  (1) 
nan

>  <InChiKey>  (1) 
YEWHJCLOUYPAOH-PFEQFJNWSA-N

>  <InChi>  (1) 
InChI=1S/C16H17NO2.ClH/c18-15-8-12-6-7-17-10-14(13(12)9-16(15)19)11-4-2-1-3-5-11;/h1-5,8-9,14,17-19H,6-7,10H2;1H/t14-;/m1./s1

>  <IUPAC Name>  (1) 
(5R)-5-phenyl-2,3,4,5-tetrahydro-1H-3-benzazepine-7,8-diol;hydrochloride

$$$$
