
     RDKit          3D

 68 67  0  0  0  0  0  0  0  0999 V2000
   -7.5014    2.5844    2.0203 C   0  0  0  0  0  0  0  0  0  0  0  0
   -8.0073    1.9040    0.7635 C   0  0  0  0  0  0  0  0  0  0  0  0
   -7.4083    0.4824    0.7560 C   0  0  0  0  0  0  0  0  0  0  0  0
   -7.8698   -0.2449   -0.4652 C   0  0  0  0  0  0  0  0  0  0  0  0
   -7.4076   -1.6188   -0.6101 C   0  0  0  0  0  0  0  0  0  0  0  0
   -6.0105   -2.0157   -0.7794 C   0  0  0  0  0  0  0  0  0  0  0  0
   -4.9722   -1.7212    0.2112 C   0  0  0  0  0  0  0  0  0  0  0  0
   -3.6501   -2.3814   -0.2474 C   0  0  0  0  0  0  0  0  0  0  0  0
   -3.2202   -1.8499   -1.5297 C   0  0  0  0  0  0  0  0  0  0  0  0
   -2.0529   -1.1979   -1.7338 C   0  0  0  0  0  0  0  0  0  0  0  0
   -1.0627   -0.9412   -0.6779 C   0  0  0  0  0  0  0  0  0  0  0  0
    0.2324   -1.6095   -1.0759 C   0  0  0  0  0  0  0  0  0  0  0  0
    1.3346   -1.4224   -0.0741 C   0  0  0  0  0  0  0  0  0  0  0  0
    1.7121    0.0089    0.1820 C   0  0  0  0  0  0  0  0  0  0  0  0
    2.1848    0.6449   -1.1317 C   0  0  0  0  0  0  0  0  0  0  0  0
    2.5511    2.0609   -0.8431 C   0  0  0  0  0  0  0  0  0  0  0  0
    3.6415    2.2246    0.1655 C   0  0  0  0  0  0  0  0  0  0  0  0
    4.9270    1.6262   -0.1849 C   0  0  0  0  0  0  0  0  0  0  0  0
    5.1911    1.0267   -1.2562 O   0  0  0  0  0  0  0  0  0  0  0  0
    5.9925    1.7213    0.7645 N   0  0  0  0  0  0  0  0  0  0  0  0
    7.3085    1.1642    0.5268 C   0  0  0  0  0  0  0  0  0  0  0  0
    7.3023   -0.3131    0.3173 C   0  0  0  0  0  0  0  0  0  0  0  0
    8.6457   -0.8786    0.0749 C   0  0  0  0  0  0  0  0  0  0  0  0
    8.9272   -1.5765   -1.1680 S   0  0  0  0  0  0  0  0  0  0  0  0
    9.9255   -0.7073    1.3049 P   0  0  0  0  0  0  0  0  0  0  0  0
    9.4717   -1.3073    2.6181 O   0  0  0  0  0  0  0  0  0  0  0  0
   10.2259    0.9484    1.6114 O   0  0  0  0  0  0  0  0  0  0  0  0
   11.3388   -1.4980    0.8560 O   0  0  0  0  0  0  0  0  0  0  0  0
   -6.3855    2.5864    1.9507 H   0  0  0  0  0  0  0  0  0  0  0  0
   -7.8157    3.6364    2.0032 H   0  0  0  0  0  0  0  0  0  0  0  0
   -7.8493    2.0572    2.9194 H   0  0  0  0  0  0  0  0  0  0  0  0
   -7.6513    2.4011   -0.1430 H   0  0  0  0  0  0  0  0  0  0  0  0
   -9.0949    1.7701    0.8122 H   0  0  0  0  0  0  0  0  0  0  0  0
   -7.8152    0.0242    1.6988 H   0  0  0  0  0  0  0  0  0  0  0  0
   -6.3358    0.5573    0.9097 H   0  0  0  0  0  0  0  0  0  0  0  0
   -7.7422    0.3852   -1.3890 H   0  0  0  0  0  0  0  0  0  0  0  0
   -9.0114   -0.2609   -0.3697 H   0  0  0  0  0  0  0  0  0  0  0  0
   -7.9674   -2.0977   -1.4999 H   0  0  0  0  0  0  0  0  0  0  0  0
   -7.8768   -2.2460    0.2419 H   0  0  0  0  0  0  0  0  0  0  0  0
   -5.6101   -1.6629   -1.7903 H   0  0  0  0  0  0  0  0  0  0  0  0
   -6.0238   -3.1563   -0.8910 H   0  0  0  0  0  0  0  0  0  0  0  0
   -5.2578   -2.0958    1.2028 H   0  0  0  0  0  0  0  0  0  0  0  0
   -4.6569   -0.6458    0.2565 H   0  0  0  0  0  0  0  0  0  0  0  0
   -3.9464   -3.4686   -0.3459 H   0  0  0  0  0  0  0  0  0  0  0  0
   -2.9444   -2.3354    0.5739 H   0  0  0  0  0  0  0  0  0  0  0  0
   -3.8163   -1.9549   -2.4412 H   0  0  0  0  0  0  0  0  0  0  0  0
   -1.7967   -0.8221   -2.7428 H   0  0  0  0  0  0  0  0  0  0  0  0
   -1.3777   -1.1064    0.3461 H   0  0  0  0  0  0  0  0  0  0  0  0
   -0.8433    0.1699   -0.7398 H   0  0  0  0  0  0  0  0  0  0  0  0
    0.0332   -2.7004   -1.1162 H   0  0  0  0  0  0  0  0  0  0  0  0
    0.4939   -1.2888   -2.0861 H   0  0  0  0  0  0  0  0  0  0  0  0
    2.2305   -1.9245   -0.4949 H   0  0  0  0  0  0  0  0  0  0  0  0
    1.0981   -1.9500    0.8693 H   0  0  0  0  0  0  0  0  0  0  0  0
    0.9583    0.6039    0.6926 H   0  0  0  0  0  0  0  0  0  0  0  0
    2.6212   -0.0170    0.8186 H   0  0  0  0  0  0  0  0  0  0  0  0
    3.0981    0.0810   -1.3970 H   0  0  0  0  0  0  0  0  0  0  0  0
    1.4247    0.5323   -1.9177 H   0  0  0  0  0  0  0  0  0  0  0  0
    2.8444    2.6355   -1.7439 H   0  0  0  0  0  0  0  0  0  0  0  0
    1.6593    2.6129   -0.4306 H   0  0  0  0  0  0  0  0  0  0  0  0
    3.8069    3.3159    0.3022 H   0  0  0  0  0  0  0  0  0  0  0  0
    3.3314    1.8603    1.1762 H   0  0  0  0  0  0  0  0  0  0  0  0
    5.7931    2.2266    1.6810 H   0  0  0  0  0  0  0  0  0  0  0  0
    7.6705    1.6879   -0.4070 H   0  0  0  0  0  0  0  0  0  0  0  0
    7.9708    1.4963    1.3364 H   0  0  0  0  0  0  0  0  0  0  0  0
    6.9390   -0.7812    1.2729 H   0  0  0  0  0  0  0  0  0  0  0  0
    6.5789   -0.6367   -0.4494 H   0  0  0  0  0  0  0  0  0  0  0  0
   10.2962    1.4081    0.7476 H   0  0  0  0  0  0  0  0  0  0  0  0
   11.2206   -2.2102    0.1885 H   0  0  0  0  0  0  0  0  0  0  0  0
  1  2  1  0
  2  3  1  0
  3  4  1  0
  4  5  1  0
  5  6  1  0
  6  7  1  0
  7  8  1  0
  8  9  1  0
  9 10  2  0
 10 11  1  0
 11 12  1  0
 12 13  1  0
 13 14  1  0
 14 15  1  0
 15 16  1  0
 16 17  1  0
 17 18  1  0
 18 19  2  0
 18 20  1  0
 20 21  1  0
 21 22  1  0
 22 23  1  0
 23 24  2  0
 23 25  1  0
 25 26  2  0
 25 27  1  0
 25 28  1  0
  1 29  1  0
  1 30  1  0
  1 31  1  0
  2 32  1  0
  2 33  1  0
  3 34  1  0
  3 35  1  0
  4 36  1  0
  4 37  1  0
  5 38  1  0
  5 39  1  0
  6 40  1  0
  6 41  1  0
  7 42  1  0
  7 43  1  0
  8 44  1  0
  8 45  1  0
  9 46  1  0
 10 47  1  0
 11 48  1  0
 11 49  1  0
 12 50  1  0
 12 51  1  0
 13 52  1  0
 13 53  1  0
 14 54  1  0
 14 55  1  0
 15 56  1  0
 15 57  1  0
 16 58  1  0
 16 59  1  0
 17 60  1  0
 17 61  1  0
 20 62  1  0
 21 63  1  0
 21 64  1  0
 22 65  1  0
 22 66  1  0
 27 67  1  0
 28 68  1  0
M  END
>  <Ligand ID>  (1) 
LIG0004217

>  <Ligand>  (1) 
CHEMBL325970

>  <SMILES>  (1) 
CCCCCCCC/C=C\CCCCCCCC(=O)NCCC(=S)P(=O)(O)O

>  <CID>  (1) 
44343851.0

>  <ChEMBL ID>  (1) 
nan

>  <InChiKey>  (1) 
XZTCVMGTFXITNZ-KTKRTIGZSA-N

>  <InChi>  (1) 
InChI=1S/C21H40NO4PS/c1-2-3-4-5-6-7-8-9-10-11-12-13-14-15-16-17-20(23)22-19-18-21(28)27(24,25)26/h9-10H,2-8,11-19H2,1H3,(H,22,23)(H2,24,25,26)/b10-9-

>  <IUPAC Name>  (1) 
3-[[(Z)-octadec-9-enoyl]amino]propanethioylphosphonic acid

$$$$
