
     RDKit          3D

 56 57  0  0  0  0  0  0  0  0999 V2000
   -1.6972   -0.1776   -0.7640 O   0  0  0  0  0  0  0  0  0  0  0  0
   -0.7054    0.0478    0.1807 C   0  0  0  0  0  0  0  0  0  0  0  0
   -0.9933    0.4896    1.3247 O   0  0  0  0  0  0  0  0  0  0  0  0
    0.6932   -0.2207   -0.1265 C   0  0  0  0  0  0  0  0  0  0  0  0
    1.0059   -0.6687   -1.2799 O   0  0  0  0  0  0  0  0  0  0  0  0
    1.6898   -0.0099    0.7793 O   0  0  0  0  0  0  0  0  0  0  0  0
   -3.9982   -2.7829    0.7575 C   0  0  0  0  0  0  0  0  0  0  0  0
   -3.1445   -1.7952    1.2985 O   0  0  0  0  0  0  0  0  0  0  0  0
   -2.7071   -0.7930    0.4190 C   0  0  0  0  0  0  0  0  0  0  0  0
   -1.5181   -0.9468   -0.3045 C   0  0  0  0  0  0  0  0  0  0  0  0
   -0.7665   -2.1903   -0.0710 C   0  0  0  0  0  0  0  0  0  0  0  0
   -0.0339   -2.1658    1.1688 N   0  0  0  0  0  0  0  0  0  0  0  0
    1.1001   -1.2861    1.1888 C   0  0  0  0  0  0  0  0  0  0  0  0
    2.2293   -1.8012    0.3220 C   0  0  0  0  0  0  0  0  0  0  0  0
    3.4253   -0.9413    0.3107 C   0  0  0  0  0  0  0  0  0  0  0  0
    4.5287   -1.1734    1.1013 C   0  0  0  0  0  0  0  0  0  0  0  0
    5.4709   -0.2394    0.9238 N   0  0  0  0  0  0  0  0  0  0  0  0
    4.9677    0.6058    0.0046 C   0  0  0  0  0  0  0  0  0  0  0  0
    3.7097    0.2053   -0.3960 C   0  0  0  0  0  0  0  0  0  0  0  0
    3.0149    0.9202   -1.3364 C   0  0  0  0  0  0  0  0  0  0  0  0
    3.6086    2.0465   -1.8666 C   0  0  0  0  0  0  0  0  0  0  0  0
    4.8700    2.4459   -1.4618 C   0  0  0  0  0  0  0  0  0  0  0  0
    5.5938    1.7379   -0.5100 C   0  0  0  0  0  0  0  0  0  0  0  0
   -1.1551    0.0712   -1.1430 C   0  0  0  0  0  0  0  0  0  0  0  0
   -1.9523    1.2154   -1.2618 C   0  0  0  0  0  0  0  0  0  0  0  0
   -3.1158    1.3893   -0.5666 C   0  0  0  0  0  0  0  0  0  0  0  0
   -3.4772    0.3356    0.2908 C   0  0  0  0  0  0  0  0  0  0  0  0
   -4.7299    0.4252    1.0865 C   0  0  0  0  0  0  0  0  0  0  0  0
   -3.9618    2.4555   -0.6041 O   0  0  0  0  0  0  0  0  0  0  0  0
   -3.7388    3.5748   -1.4006 C   0  0  0  0  0  0  0  0  0  0  0  0
   -2.6168    0.2252   -0.5988 H   0  0  0  0  0  0  0  0  0  0  0  0
    2.6238    0.3143    0.4843 H   0  0  0  0  0  0  0  0  0  0  0  0
   -5.0029   -2.7549    1.2780 H   0  0  0  0  0  0  0  0  0  0  0  0
   -3.5888   -3.7910    0.7785 H   0  0  0  0  0  0  0  0  0  0  0  0
   -4.2688   -2.5735   -0.3100 H   0  0  0  0  0  0  0  0  0  0  0  0
   -1.4650   -3.0445   -0.0092 H   0  0  0  0  0  0  0  0  0  0  0  0
   -0.0650   -2.4271   -0.9125 H   0  0  0  0  0  0  0  0  0  0  0  0
   -0.6565   -1.9183    1.9642 H   0  0  0  0  0  0  0  0  0  0  0  0
    0.8665   -0.2575    0.8342 H   0  0  0  0  0  0  0  0  0  0  0  0
    1.4835   -1.2753    2.2272 H   0  0  0  0  0  0  0  0  0  0  0  0
    1.8817   -1.8862   -0.7487 H   0  0  0  0  0  0  0  0  0  0  0  0
    2.5083   -2.8429    0.5917 H   0  0  0  0  0  0  0  0  0  0  0  0
    4.6548   -1.9961    1.7939 H   0  0  0  0  0  0  0  0  0  0  0  0
    6.4110   -0.1668    1.3958 H   0  0  0  0  0  0  0  0  0  0  0  0
    2.0391    0.5597   -1.6128 H   0  0  0  0  0  0  0  0  0  0  0  0
    3.0884    2.6363   -2.6132 H   0  0  0  0  0  0  0  0  0  0  0  0
    5.3667    3.3280   -1.8584 H   0  0  0  0  0  0  0  0  0  0  0  0
    6.5698    2.0652   -0.2110 H   0  0  0  0  0  0  0  0  0  0  0  0
   -0.2426   -0.0446   -1.7036 H   0  0  0  0  0  0  0  0  0  0  0  0
   -1.5975    1.9562   -1.9314 H   0  0  0  0  0  0  0  0  0  0  0  0
   -5.2703    1.3895    0.8577 H   0  0  0  0  0  0  0  0  0  0  0  0
   -5.4204   -0.4267    0.9218 H   0  0  0  0  0  0  0  0  0  0  0  0
   -4.4371    0.4971    2.1529 H   0  0  0  0  0  0  0  0  0  0  0  0
   -2.8152    3.4614   -1.9895 H   0  0  0  0  0  0  0  0  0  0  0  0
   -4.5663    3.6755   -2.1644 H   0  0  0  0  0  0  0  0  0  0  0  0
   -3.6936    4.5230   -0.8117 H   0  0  0  0  0  0  0  0  0  0  0  0
  1  2  1  0
  2  3  2  0
  2  4  1  0
  4  5  2  0
  4  6  1  0
  7  8  1  0
  8  9  1  0
  9 10  2  0
 10 11  1  0
 11 12  1  0
 12 13  1  0
 13 14  1  0
 14 15  1  0
 15 16  2  0
 16 17  1  0
 17 18  1  0
 18 19  2  0
 19 20  1  0
 20 21  2  0
 21 22  1  0
 22 23  2  0
 10 24  1  0
 24 25  2  0
 25 26  1  0
 26 27  2  0
 27 28  1  0
 26 29  1  0
 29 30  1  0
 27  9  1  0
 19 15  1  0
 23 18  1  0
  1 31  1  0
  6 32  1  0
  7 33  1  0
  7 34  1  0
  7 35  1  0
 11 36  1  0
 11 37  1  0
 12 38  1  0
 13 39  1  0
 13 40  1  0
 14 41  1  0
 14 42  1  0
 16 43  1  0
 17 44  1  0
 20 45  1  0
 21 46  1  0
 22 47  1  0
 23 48  1  0
 24 49  1  0
 25 50  1  0
 28 51  1  0
 28 52  1  0
 28 53  1  0
 30 54  1  0
 30 55  1  0
 30 56  1  0
M  END
>  <Ligand ID>  (1) 
LIG0003657

>  <Ligand>  (1) 
MLS001205297

>  <SMILES>  (1) 
OC(=O)C(=O)O.COc1c(CNCCc2c[nH]c3c2cccc3)ccc(c1C)OC

>  <CID>  (1) 
17367616.0

>  <ChEMBL ID>  (1) 
nan

>  <InChiKey>  (1) 
FLIIARILWXPYLW-UHFFFAOYSA-N

>  <InChi>  (1) 
InChI=1S/C20H24N2O2.C2H2O4/c1-14-19(23-2)9-8-16(20(14)24-3)12-21-11-10-15-13-22-18-7-5-4-6-17(15)18;3-1(4)2(5)6/h4-9,13,21-22H,10-12H2,1-3H3;(H,3,4)(H,5,6)

>  <IUPAC Name>  (1) 
N-[(2,4-dimethoxy-3-methylphenyl)methyl]-2-(1H-indol-3-yl)ethanamine;oxalic acid

$$$$
