
     RDKit          3D

 73 77  0  0  0  0  0  0  0  0999 V2000
    1.5120    1.1520   -2.6670 O   0  0  0  0  0  0  0  0  0  0  0  0
    2.1259   -0.0077   -2.2650 C   0  0  0  0  0  0  0  0  0  0  0  0
    2.6810    0.0009   -0.8612 C   0  0  0  0  0  0  0  0  0  0  0  0
    3.3080   -1.3564   -0.6559 C   0  0  0  0  0  0  0  0  0  0  0  0
    4.6074   -1.4825   -1.4113 C   0  0  0  0  0  0  0  0  0  0  0  0
    5.7805   -1.2851   -0.4412 C   0  0  0  0  0  0  0  0  0  0  0  0
    6.4075    0.0287   -0.7506 C   0  0  0  0  0  0  0  0  0  0  0  0
    5.9913    1.1273    0.1958 C   0  0  0  0  0  0  0  0  0  0  0  0
    4.5056    1.0742    0.5026 C   0  0  0  0  0  0  0  0  0  0  0  0
    3.6768    1.1144   -0.7567 C   0  0  0  0  0  0  0  0  0  0  0  0
    1.6404    0.2258    0.0636 N   0  0  0  0  0  0  0  0  0  0  0  0
    0.9171    1.4001    0.1057 C   0  0  0  0  0  0  0  0  0  0  0  0
   -0.6155    1.2421    0.1937 C   0  0  0  0  0  0  0  0  0  0  0  0
   -0.8480    0.4358    1.4567 C   0  0  0  0  0  0  0  0  0  0  0  0
   -0.2365   -0.9116    1.1400 C   0  0  0  0  0  0  0  0  0  0  0  0
    1.2708   -0.8355    0.9197 C   0  0  0  0  0  0  0  0  0  0  0  0
   -2.2072    0.2568    1.8246 N   0  0  0  0  0  0  0  0  0  0  0  0
   -3.2973    0.1923    1.0661 C   0  0  0  0  0  0  0  0  0  0  0  0
   -4.3961    0.0094    1.8585 N   0  0  0  0  0  0  0  0  0  0  0  0
   -3.9835   -0.0411    3.1352 C   0  0  0  0  0  0  0  0  0  0  0  0
   -2.6129    0.1131    3.1235 C   0  0  0  0  0  0  0  0  0  0  0  0
   -1.9031    0.1007    4.3294 C   0  0  0  0  0  0  0  0  0  0  0  0
   -2.5047   -0.0588    5.5438 C   0  0  0  0  0  0  0  0  0  0  0  0
   -3.8939   -0.2150    5.5546 C   0  0  0  0  0  0  0  0  0  0  0  0
   -4.5922   -0.2025    4.3625 C   0  0  0  0  0  0  0  0  0  0  0  0
   -3.4237    0.2863   -0.3450 N   0  0  0  0  0  0  0  0  0  0  0  0
   -3.6561    1.5746   -1.0214 C   0  0  0  0  0  0  0  0  0  0  0  0
   -4.8344    1.4647   -1.9667 C   0  0  0  0  0  0  0  0  0  0  0  0
   -4.6993    0.2786   -2.8236 N   0  0  0  0  0  0  0  0  0  0  0  0
   -4.6908   -0.8663   -1.9654 C   0  0  0  0  0  0  0  0  0  0  0  0
   -3.3432   -0.8673   -1.2299 C   0  0  0  0  0  0  0  0  0  0  0  0
   -4.9417   -2.1584   -2.6953 C   0  0  0  0  0  0  0  0  0  0  0  0
    1.9027    1.5535   -3.5015 H   0  0  0  0  0  0  0  0  0  0  0  0
    2.8771   -0.2546   -3.0470 H   0  0  0  0  0  0  0  0  0  0  0  0
    1.3483   -0.8164   -2.3857 H   0  0  0  0  0  0  0  0  0  0  0  0
    2.6188   -2.1089   -1.1118 H   0  0  0  0  0  0  0  0  0  0  0  0
    3.5310   -1.5959    0.4017 H   0  0  0  0  0  0  0  0  0  0  0  0
    4.6468   -0.7895   -2.2679 H   0  0  0  0  0  0  0  0  0  0  0  0
    4.6955   -2.5057   -1.8863 H   0  0  0  0  0  0  0  0  0  0  0  0
    5.3871   -1.3529    0.6003 H   0  0  0  0  0  0  0  0  0  0  0  0
    6.4913   -2.1469   -0.5692 H   0  0  0  0  0  0  0  0  0  0  0  0
    6.2677    0.3417   -1.7846 H   0  0  0  0  0  0  0  0  0  0  0  0
    7.5201   -0.0829   -0.5936 H   0  0  0  0  0  0  0  0  0  0  0  0
    6.2566    2.0920   -0.2858 H   0  0  0  0  0  0  0  0  0  0  0  0
    6.5217    1.1025    1.1686 H   0  0  0  0  0  0  0  0  0  0  0  0
    4.2792    0.2571    1.1854 H   0  0  0  0  0  0  0  0  0  0  0  0
    4.2830    2.0058    1.0649 H   0  0  0  0  0  0  0  0  0  0  0  0
    4.3725    1.0745   -1.6195 H   0  0  0  0  0  0  0  0  0  0  0  0
    3.1388    2.0758   -0.8727 H   0  0  0  0  0  0  0  0  0  0  0  0
    1.1739    2.1259   -0.6570 H   0  0  0  0  0  0  0  0  0  0  0  0
    1.1539    1.9267    1.0869 H   0  0  0  0  0  0  0  0  0  0  0  0
   -1.0192    2.2496    0.2145 H   0  0  0  0  0  0  0  0  0  0  0  0
   -0.9322    0.6139   -0.6408 H   0  0  0  0  0  0  0  0  0  0  0  0
   -0.2507    0.8931    2.2865 H   0  0  0  0  0  0  0  0  0  0  0  0
   -0.5011   -1.6877    1.8610 H   0  0  0  0  0  0  0  0  0  0  0  0
   -0.6727   -1.2279    0.1505 H   0  0  0  0  0  0  0  0  0  0  0  0
    1.5475   -1.8263    0.5632 H   0  0  0  0  0  0  0  0  0  0  0  0
    1.7026   -0.6491    1.9370 H   0  0  0  0  0  0  0  0  0  0  0  0
   -0.8217    0.2229    4.3196 H   0  0  0  0  0  0  0  0  0  0  0  0
   -1.9251   -0.0619    6.4357 H   0  0  0  0  0  0  0  0  0  0  0  0
   -4.3644   -0.3409    6.5186 H   0  0  0  0  0  0  0  0  0  0  0  0
   -5.6711   -0.3275    4.4199 H   0  0  0  0  0  0  0  0  0  0  0  0
   -3.8659    2.3853   -0.3147 H   0  0  0  0  0  0  0  0  0  0  0  0
   -2.7722    1.7350   -1.6713 H   0  0  0  0  0  0  0  0  0  0  0  0
   -5.7621    1.4168   -1.3768 H   0  0  0  0  0  0  0  0  0  0  0  0
   -4.8340    2.3511   -2.6055 H   0  0  0  0  0  0  0  0  0  0  0  0
   -5.5544    0.2661   -3.4205 H   0  0  0  0  0  0  0  0  0  0  0  0
   -5.5292   -0.7319   -1.2368 H   0  0  0  0  0  0  0  0  0  0  0  0
   -3.2414   -1.8137   -0.6429 H   0  0  0  0  0  0  0  0  0  0  0  0
   -2.5693   -0.7617   -1.9890 H   0  0  0  0  0  0  0  0  0  0  0  0
   -6.0496   -2.1874   -2.8920 H   0  0  0  0  0  0  0  0  0  0  0  0
   -4.7367   -2.9889   -1.9971 H   0  0  0  0  0  0  0  0  0  0  0  0
   -4.3872   -2.2200   -3.6547 H   0  0  0  0  0  0  0  0  0  0  0  0
  1  2  1  0
  2  3  1  0
  3  4  1  0
  4  5  1  0
  5  6  1  0
  6  7  1  0
  7  8  1  0
  8  9  1  0
  9 10  1  0
  3 11  1  0
 11 12  1  0
 12 13  1  0
 13 14  1  0
 14 15  1  0
 15 16  1  0
 14 17  1  0
 17 18  1  0
 18 19  2  0
 19 20  1  0
 20 21  2  0
 21 22  1  0
 22 23  2  0
 23 24  1  0
 24 25  2  0
 18 26  1  0
 26 27  1  0
 27 28  1  0
 28 29  1  0
 29 30  1  0
 30 31  1  0
 30 32  1  0
 10  3  1  0
 16 11  1  0
 21 17  1  0
 31 26  1  0
 25 20  1  0
  1 33  1  0
  2 34  1  0
  2 35  1  0
  4 36  1  0
  4 37  1  0
  5 38  1  0
  5 39  1  0
  6 40  1  0
  6 41  1  0
  7 42  1  0
  7 43  1  0
  8 44  1  0
  8 45  1  0
  9 46  1  0
  9 47  1  0
 10 48  1  0
 10 49  1  0
 12 50  1  0
 12 51  1  0
 13 52  1  0
 13 53  1  0
 14 54  1  0
 15 55  1  0
 15 56  1  0
 16 57  1  0
 16 58  1  0
 22 59  1  0
 23 60  1  0
 24 61  1  0
 25 62  1  0
 27 63  1  0
 27 64  1  0
 28 65  1  0
 28 66  1  0
 29 67  1  0
 30 68  1  0
 31 69  1  0
 31 70  1  0
 32 71  1  0
 32 72  1  0
 32 73  1  0
M  END
>  <Ligand ID>  (1) 
LIG0004015

>  <Ligand>  (1) 
CHEMBL1650848

>  <SMILES>  (1) 
OCC1(CCCCCCC1)N1CCC(CC1)n1c(nc2c1cccc2)N1CCNC(C1)C

>  <CID>  (1) 
53322245.0

>  <ChEMBL ID>  (1) 
nan

>  <InChiKey>  (1) 
ZFBVHBCZNNALTI-UHFFFAOYSA-N

>  <InChi>  (1) 
InChI=1S/C26H41N5O/c1-21-19-29(18-15-27-21)25-28-23-9-5-6-10-24(23)31(25)22-11-16-30(17-12-22)26(20-32)13-7-3-2-4-8-14-26/h5-6,9-10,21-22,27,32H,2-4,7-8,11-20H2,1H3

>  <IUPAC Name>  (1) 
[1-[4-[2-(3-methylpiperazin-1-yl)benzimidazol-1-yl]piperidin-1-yl]cyclooctyl]methanol

$$$$
