
     RDKit          3D

 26 27  0  0  0  0  0  0  0  0999 V2000
   -3.4389    0.8835   -0.1685 N   0  0  0  0  0  0  0  0  0  0  0  0
   -2.3113    0.0485    0.2809 C   0  0  0  0  0  0  0  0  0  0  0  0
   -2.0581   -1.0482   -0.6766 C   0  0  0  0  0  0  0  0  0  0  0  0
   -0.7146   -1.6382   -0.7273 C   0  0  0  0  0  0  0  0  0  0  0  0
    0.3861   -0.7621   -0.2776 C   0  0  0  0  0  0  0  0  0  0  0  0
    0.1544    0.4590    0.3246 C   0  0  0  0  0  0  0  0  0  0  0  0
   -1.2091    0.9967    0.5723 C   0  0  0  0  0  0  0  0  0  0  0  0
    1.2152    1.2440    0.7286 C   0  0  0  0  0  0  0  0  0  0  0  0
    2.5072    0.7763    0.5147 C   0  0  0  0  0  0  0  0  0  0  0  0
    2.7395   -0.4420   -0.0861 C   0  0  0  0  0  0  0  0  0  0  0  0
    1.6834   -1.2396   -0.4963 C   0  0  0  0  0  0  0  0  0  0  0  0
    4.0588   -0.8605   -0.2753 O   0  0  0  0  0  0  0  0  0  0  0  0
    3.5707    1.5931    0.9344 O   0  0  0  0  0  0  0  0  0  0  0  0
   -3.1249    1.4021   -1.0296 H   0  0  0  0  0  0  0  0  0  0  0  0
   -3.5486    1.6440    0.5686 H   0  0  0  0  0  0  0  0  0  0  0  0
   -2.6611   -0.3650    1.2705 H   0  0  0  0  0  0  0  0  0  0  0  0
   -2.3791   -0.6653   -1.6906 H   0  0  0  0  0  0  0  0  0  0  0  0
   -2.7942   -1.8737   -0.4599 H   0  0  0  0  0  0  0  0  0  0  0  0
   -0.4787   -1.9287   -1.7757 H   0  0  0  0  0  0  0  0  0  0  0  0
   -0.6377   -2.6118   -0.1609 H   0  0  0  0  0  0  0  0  0  0  0  0
   -1.2372    1.3419    1.6475 H   0  0  0  0  0  0  0  0  0  0  0  0
   -1.2817    1.9660   -0.0016 H   0  0  0  0  0  0  0  0  0  0  0  0
    1.0621    2.1951    1.1980 H   0  0  0  0  0  0  0  0  0  0  0  0
    1.8444   -2.2052   -0.9728 H   0  0  0  0  0  0  0  0  0  0  0  0
    4.6296   -1.0283    0.5652 H   0  0  0  0  0  0  0  0  0  0  0  0
    4.0238    2.1183    0.1932 H   0  0  0  0  0  0  0  0  0  0  0  0
  1  2  1  0
  2  3  1  0
  3  4  1  0
  4  5  1  0
  5  6  2  0
  6  7  1  0
  6  8  1  0
  8  9  2  0
  9 10  1  0
 10 11  2  0
 10 12  1  0
  9 13  1  0
  7  2  1  0
 11  5  1  0
  1 14  1  0
  1 15  1  0
  2 16  1  0
  3 17  1  0
  3 18  1  0
  4 19  1  0
  4 20  1  0
  7 21  1  0
  7 22  1  0
  8 23  1  0
 11 24  1  0
 12 25  1  0
 13 26  1  0
M  END
>  <Ligand ID>  (1) 
LIG0003019

>  <Ligand>  (1) 
(+)-ADTN

>  <SMILES>  (1) 
NC1CCc2c(C1)cc(c(c2)O)O

>  <CID>  (1) 
3153.0

>  <ChEMBL ID>  (1) 
nan

>  <InChiKey>  (1) 
ASXGAOFCKGHGMF-UHFFFAOYSA-N

>  <InChi>  (1) 
InChI=1S/C10H13NO2/c11-8-2-1-6-4-9(12)10(13)5-7(6)3-8/h4-5,8,12-13H,1-3,11H2

>  <IUPAC Name>  (1) 
6-amino-5,6,7,8-tetrahydronaphthalene-2,3-diol

$$$$
