
     RDKit          3D

 52 54  0  0  0  0  0  0  0  0999 V2000
   -2.9780    2.9201   -1.9813 C   0  0  0  0  0  0  0  0  0  0  0  0
   -3.2852    2.9073   -0.6062 O   0  0  0  0  0  0  0  0  0  0  0  0
   -3.3002    1.7075    0.0899 C   0  0  0  0  0  0  0  0  0  0  0  0
   -3.0189    0.5082   -0.5322 C   0  0  0  0  0  0  0  0  0  0  0  0
   -3.0229   -0.7049    0.1217 C   0  0  0  0  0  0  0  0  0  0  0  0
   -3.3301   -0.6981    1.4846 C   0  0  0  0  0  0  0  0  0  0  0  0
   -3.6189    0.4880    2.1475 C   0  0  0  0  0  0  0  0  0  0  0  0
   -3.5962    1.6597    1.4319 C   0  0  0  0  0  0  0  0  0  0  0  0
   -3.9157    0.4234    3.5016 O   0  0  0  0  0  0  0  0  0  0  0  0
   -4.2101    1.6643    4.1602 C   0  0  0  0  0  0  0  0  0  0  0  0
   -2.7204   -1.9980   -0.5259 C   0  0  0  0  0  0  0  0  0  0  0  0
   -1.2980   -2.4010   -0.4278 C   0  0  0  0  0  0  0  0  0  0  0  0
   -0.9365   -3.3860    0.4893 C   0  0  0  0  0  0  0  0  0  0  0  0
    0.3696   -3.8097    0.6365 C   0  0  0  0  0  0  0  0  0  0  0  0
    0.7716   -4.8598    1.6098 C   0  0  0  0  0  0  0  0  0  0  0  0
    1.2988   -3.2315   -0.1472 N   0  0  0  0  0  0  0  0  0  0  0  0
    0.9931   -2.2905   -1.0317 N   0  0  0  0  0  0  0  0  0  0  0  0
   -0.2889   -1.8605   -1.1906 C   0  0  0  0  0  0  0  0  0  0  0  0
   -0.5567   -0.9682   -2.0345 O   0  0  0  0  0  0  0  0  0  0  0  0
    2.0693   -1.7160   -1.8421 C   0  0  0  0  0  0  0  0  0  0  0  0
    2.6605   -0.5273   -1.1527 C   0  0  0  0  0  0  0  0  0  0  0  0
    2.1955   -0.1802   -0.0282 O   0  0  0  0  0  0  0  0  0  0  0  0
    3.7172    0.1622   -1.7860 N   0  0  0  0  0  0  0  0  0  0  0  0
    4.2491    1.3005   -1.0758 C   0  0  0  0  0  0  0  0  0  0  0  0
    3.7431    2.5709   -1.2529 C   0  0  0  0  0  0  0  0  0  0  0  0
    4.3292    3.5976   -0.5178 C   0  0  0  0  0  0  0  0  0  0  0  0
    5.3776    3.3599    0.3571 C   0  0  0  0  0  0  0  0  0  0  0  0
    5.8612    2.0864    0.5138 C   0  0  0  0  0  0  0  0  0  0  0  0
    5.2993    1.0498   -0.2021 C   0  0  0  0  0  0  0  0  0  0  0  0
    6.1856    4.7595    1.3674 Br  0  0  0  0  0  0  0  0  0  0  0  0
   -1.9039    2.7119   -2.1874 H   0  0  0  0  0  0  0  0  0  0  0  0
   -3.5827    2.1787   -2.5743 H   0  0  0  0  0  0  0  0  0  0  0  0
   -3.2179    3.9037   -2.4358 H   0  0  0  0  0  0  0  0  0  0  0  0
   -2.7884    0.5467   -1.5876 H   0  0  0  0  0  0  0  0  0  0  0  0
   -3.3432   -1.6459    2.0398 H   0  0  0  0  0  0  0  0  0  0  0  0
   -3.8159    2.5944    1.9191 H   0  0  0  0  0  0  0  0  0  0  0  0
   -4.3495    1.5482    5.2342 H   0  0  0  0  0  0  0  0  0  0  0  0
   -3.3658    2.3434    3.8939 H   0  0  0  0  0  0  0  0  0  0  0  0
   -5.1261    2.0579    3.7005 H   0  0  0  0  0  0  0  0  0  0  0  0
   -3.3500   -2.8260   -0.1143 H   0  0  0  0  0  0  0  0  0  0  0  0
   -2.9154   -1.8867   -1.6333 H   0  0  0  0  0  0  0  0  0  0  0  0
   -1.6671   -3.8691    1.1340 H   0  0  0  0  0  0  0  0  0  0  0  0
    1.8660   -4.7925    1.7632 H   0  0  0  0  0  0  0  0  0  0  0  0
    0.2026   -4.8517    2.5442 H   0  0  0  0  0  0  0  0  0  0  0  0
    0.5688   -5.8622    1.1422 H   0  0  0  0  0  0  0  0  0  0  0  0
    2.7908   -2.5218   -2.0273 H   0  0  0  0  0  0  0  0  0  0  0  0
    1.5935   -1.3425   -2.7812 H   0  0  0  0  0  0  0  0  0  0  0  0
    4.1174   -0.1133   -2.7232 H   0  0  0  0  0  0  0  0  0  0  0  0
    2.9323    2.7446   -1.9315 H   0  0  0  0  0  0  0  0  0  0  0  0
    3.9451    4.6214   -0.6398 H   0  0  0  0  0  0  0  0  0  0  0  0
    6.6798    1.8984    1.1964 H   0  0  0  0  0  0  0  0  0  0  0  0
    5.6851    0.0290   -0.0778 H   0  0  0  0  0  0  0  0  0  0  0  0
  1  2  1  0
  2  3  1  0
  3  4  2  0
  4  5  1  0
  5  6  2  0
  6  7  1  0
  7  8  2  0
  7  9  1  0
  9 10  1  0
  5 11  1  0
 11 12  1  0
 12 13  2  0
 13 14  1  0
 14 15  1  0
 14 16  2  0
 16 17  1  0
 17 18  1  0
 18 19  2  0
 17 20  1  0
 20 21  1  0
 21 22  2  0
 21 23  1  0
 23 24  1  0
 24 25  2  0
 25 26  1  0
 26 27  2  0
 27 28  1  0
 28 29  2  0
 27 30  1  0
  8  3  1  0
 18 12  1  0
 29 24  1  0
  1 31  1  0
  1 32  1  0
  1 33  1  0
  4 34  1  0
  6 35  1  0
  8 36  1  0
 10 37  1  0
 10 38  1  0
 10 39  1  0
 11 40  1  0
 11 41  1  0
 13 42  1  0
 15 43  1  0
 15 44  1  0
 15 45  1  0
 20 46  1  0
 20 47  1  0
 23 48  1  0
 25 49  1  0
 26 50  1  0
 28 51  1  0
 29 52  1  0
M  END
>  <Ligand ID>  (1) 
LIG0003937

>  <Ligand>  (1) 
CHEMBL2391283

>  <SMILES>  (1) 
COc1cc(cc(c1)OC)Cc1cc(C)nn(c1=O)CC(=O)Nc1ccc(cc1)Br

>  <CID>  (1) 
71698970.0

>  <ChEMBL ID>  (1) 
nan

>  <InChiKey>  (1) 
DHRIGMYFOGALHW-UHFFFAOYSA-N

>  <InChi>  (1) 
InChI=1S/C22H22BrN3O4/c1-14-8-16(9-15-10-19(29-2)12-20(11-15)30-3)22(28)26(25-14)13-21(27)24-18-6-4-17(23)5-7-18/h4-8,10-12H,9,13H2,1-3H3,(H,24,27)

>  <IUPAC Name>  (1) 
N-(4-bromophenyl)-2-[5-[(3,5-dimethoxyphenyl)methyl]-3-methyl-6-oxopyridazin-1-yl]acetamide

$$$$
