
     RDKit          3D

 43 45  0  0  0  0  0  0  0  0999 V2000
    2.9294    3.1719   -1.0144 N   0  0  0  0  0  0  0  0  0  0  0  0
    1.7479    2.6999   -0.3775 C   0  0  0  0  0  0  0  0  0  0  0  0
    1.3270    1.3081   -0.7093 C   0  0  2  0  0  0  0  0  0  0  0  0
    0.1363    1.1083    0.0386 O   0  0  0  0  0  0  0  0  0  0  0  0
   -0.3874   -0.1075   -0.3988 C   0  0  0  0  0  0  0  0  0  0  0  0
    0.2686   -1.1664    0.4544 C   0  0  0  0  0  0  0  0  0  0  0  0
    1.7309   -0.9408    0.2950 C   0  0  0  0  0  0  0  0  0  0  0  0
    2.2388    0.2408   -0.2626 C   0  0  0  0  0  0  0  0  0  0  0  0
    3.6133    0.3047   -0.3494 C   0  0  0  0  0  0  0  0  0  0  0  0
    4.4468   -0.7174    0.0798 C   0  0  0  0  0  0  0  0  0  0  0  0
    3.9248   -1.8642    0.6224 C   0  0  0  0  0  0  0  0  0  0  0  0
    2.5605   -1.9582    0.7222 C   0  0  0  0  0  0  0  0  0  0  0  0
    2.0415   -3.1256    1.2740 O   0  0  0  0  0  0  0  0  0  0  0  0
    4.7869   -2.8658    1.0411 O   0  0  0  0  0  0  0  0  0  0  0  0
   -1.8726   -0.0302   -0.2514 C   0  0  0  0  0  0  0  0  0  0  0  0
   -2.3327    0.2046    1.1575 C   0  0  0  0  0  0  0  0  0  0  0  0
   -3.7949    0.6108    1.1374 C   0  0  0  0  0  0  0  0  0  0  0  0
   -4.3837    0.5642   -0.2465 C   0  0  0  0  0  0  0  0  0  0  0  0
   -4.1046   -0.7992   -0.8236 C   0  0  0  0  0  0  0  0  0  0  0  0
   -2.6401   -1.1343   -0.8989 C   0  0  0  0  0  0  0  0  0  0  0  0
    2.6796    3.4502   -1.9919 H   0  0  0  0  0  0  0  0  0  0  0  0
    3.2139    4.0500   -0.4906 H   0  0  0  0  0  0  0  0  0  0  0  0
    1.7700    2.7898    0.7293 H   0  0  0  0  0  0  0  0  0  0  0  0
    0.8869    3.3584   -0.6836 H   0  0  0  0  0  0  0  0  0  0  0  0
    0.9948    1.1801   -1.7655 H   0  0  0  0  0  0  0  0  0  0  0  0
   -0.1503   -0.3328   -1.4431 H   0  0  0  0  0  0  0  0  0  0  0  0
   -0.0235   -2.1902    0.1579 H   0  0  0  0  0  0  0  0  0  0  0  0
    0.0602   -0.9996    1.5395 H   0  0  0  0  0  0  0  0  0  0  0  0
    4.0945    1.1663   -0.7633 H   0  0  0  0  0  0  0  0  0  0  0  0
    5.5211   -0.6375   -0.0015 H   0  0  0  0  0  0  0  0  0  0  0  0
    1.2643   -3.6179    0.8904 H   0  0  0  0  0  0  0  0  0  0  0  0
    5.4628   -2.6030    1.7435 H   0  0  0  0  0  0  0  0  0  0  0  0
   -2.1645    0.9075   -0.8116 H   0  0  0  0  0  0  0  0  0  0  0  0
   -1.7418    0.9921    1.6452 H   0  0  0  0  0  0  0  0  0  0  0  0
   -2.1642   -0.7373    1.7203 H   0  0  0  0  0  0  0  0  0  0  0  0
   -4.3525   -0.1554    1.7477 H   0  0  0  0  0  0  0  0  0  0  0  0
   -3.9632    1.5772    1.6513 H   0  0  0  0  0  0  0  0  0  0  0  0
   -5.5022    0.6030   -0.1139 H   0  0  0  0  0  0  0  0  0  0  0  0
   -4.1415    1.4052   -0.8923 H   0  0  0  0  0  0  0  0  0  0  0  0
   -4.6208   -0.9280   -1.7924 H   0  0  0  0  0  0  0  0  0  0  0  0
   -4.5730   -1.5336   -0.1152 H   0  0  0  0  0  0  0  0  0  0  0  0
   -2.3643   -1.1255   -1.9912 H   0  0  0  0  0  0  0  0  0  0  0  0
   -2.4231   -2.1226   -0.4587 H   0  0  0  0  0  0  0  0  0  0  0  0
  1  2  1  0
  2  3  1  0
  3  4  1  0
  4  5  1  0
  5  6  1  0
  6  7  1  0
  7  8  2  0
  8  9  1  0
  9 10  2  0
 10 11  1  0
 11 12  2  0
 12 13  1  0
 11 14  1  0
  5 15  1  0
 15 16  1  0
 16 17  1  0
 17 18  1  0
 18 19  1  0
 19 20  1  0
  8  3  1  0
 20 15  1  0
 12  7  1  0
  1 21  1  0
  1 22  1  0
  2 23  1  0
  2 24  1  0
  3 25  1  6
  5 26  1  0
  6 27  1  0
  6 28  1  0
  9 29  1  0
 10 30  1  0
 13 31  1  0
 14 32  1  0
 15 33  1  0
 16 34  1  0
 16 35  1  0
 17 36  1  0
 17 37  1  0
 18 38  1  0
 18 39  1  0
 19 40  1  0
 19 41  1  0
 20 42  1  0
 20 43  1  0
M  END
>  <Ligand ID>  (1) 
LIG0003054

>  <Ligand>  (1) 
CHEMBL314459

>  <SMILES>  (1) 
NC[C@@H]1OC(Cc2c1ccc(c2O)O)C1CCCCC1

>  <CID>  (1) 
44320050.0

>  <ChEMBL ID>  (1) 
nan

>  <InChiKey>  (1) 
BOKASTZDGGZFET-LOACHALJSA-N

>  <InChi>  (1) 
InChI=1S/C16H23NO3/c17-9-15-11-6-7-13(18)16(19)12(11)8-14(20-15)10-4-2-1-3-5-10/h6-7,10,14-15,18-19H,1-5,8-9,17H2/t14?,15-/m0/s1

>  <IUPAC Name>  (1) 
(1R)-1-(aminomethyl)-3-cyclohexyl-3,4-dihydro-1H-isochromene-5,6-diol

$$$$
