
     RDKit          3D

 41 43  0  0  0  0  0  0  0  0999 V2000
    7.3020   -0.1460    0.5833 O   0  0  0  0  0  0  0  0  0  0  0  0
    6.4981    0.6990   -0.1794 C   0  0  0  0  0  0  0  0  0  0  0  0
    7.0664    1.3783   -1.0681 O   0  0  0  0  0  0  0  0  0  0  0  0
    5.0444    0.7453    0.0988 C   0  0  0  0  0  0  0  0  0  0  0  0
    4.3996   -0.6132   -0.0879 C   0  0  0  0  0  0  0  0  0  0  0  0
    2.9315   -0.5504    0.1966 C   0  0  0  0  0  0  0  0  0  0  0  0
    2.2921   -0.7310    1.3136 O   0  0  0  0  0  0  0  0  0  0  0  0
    0.9884   -0.5856    1.1383 C   0  0  0  0  0  0  0  0  0  0  0  0
    0.7904   -0.2900   -0.1945 C   0  0  0  0  0  0  0  0  0  0  0  0
    2.0196   -0.2616   -0.8194 C   0  0  0  0  0  0  0  0  0  0  0  0
   -0.4552   -0.0708   -0.7453 C   0  0  0  0  0  0  0  0  0  0  0  0
   -1.5584   -0.1568    0.1048 C   0  0  0  0  0  0  0  0  0  0  0  0
   -1.4051   -0.4474    1.4315 C   0  0  0  0  0  0  0  0  0  0  0  0
   -0.1265   -0.6598    1.9368 C   0  0  0  0  0  0  0  0  0  0  0  0
   -2.8580    0.0843   -0.5291 C   0  0  0  0  0  0  0  0  0  0  0  0
   -3.9506   -0.7131   -0.2955 C   0  0  0  0  0  0  0  0  0  0  0  0
   -5.1841   -0.4782   -0.9018 C   0  0  0  0  0  0  0  0  0  0  0  0
   -5.2975    0.5949   -1.7634 C   0  0  0  0  0  0  0  0  0  0  0  0
   -4.1906    1.3881   -1.9887 C   0  0  0  0  0  0  0  0  0  0  0  0
   -2.9653    1.1600   -1.3905 C   0  0  0  0  0  0  0  0  0  0  0  0
   -1.9284    1.9905   -1.6687 F   0  0  0  0  0  0  0  0  0  0  0  0
   -6.2101   -1.3278   -0.6052 O   0  0  0  0  0  0  0  0  0  0  0  0
   -7.1522   -1.2395    0.4099 C   0  0  0  0  0  0  0  0  0  0  0  0
   -7.9828   -2.3612    0.2789 F   0  0  0  0  0  0  0  0  0  0  0  0
   -7.9887   -0.1398    0.3296 F   0  0  0  0  0  0  0  0  0  0  0  0
   -6.6111   -1.3240    1.6767 F   0  0  0  0  0  0  0  0  0  0  0  0
    4.8580    1.2351    1.5195 C   0  0  0  0  0  0  0  0  0  0  0  0
    8.1780   -0.4567    0.2249 H   0  0  0  0  0  0  0  0  0  0  0  0
    4.5474    1.4326   -0.6146 H   0  0  0  0  0  0  0  0  0  0  0  0
    4.8913   -1.3496    0.5833 H   0  0  0  0  0  0  0  0  0  0  0  0
    4.5801   -0.9470   -1.1223 H   0  0  0  0  0  0  0  0  0  0  0  0
    2.2219   -0.0642   -1.8428 H   0  0  0  0  0  0  0  0  0  0  0  0
   -0.5530    0.1579   -1.7984 H   0  0  0  0  0  0  0  0  0  0  0  0
   -2.2571   -0.5083    2.0617 H   0  0  0  0  0  0  0  0  0  0  0  0
    0.0379   -0.8935    2.9872 H   0  0  0  0  0  0  0  0  0  0  0  0
   -3.8388   -1.5425    0.3787 H   0  0  0  0  0  0  0  0  0  0  0  0
   -6.2337    0.7995   -2.2436 H   0  0  0  0  0  0  0  0  0  0  0  0
   -4.3243    2.2238   -2.6753 H   0  0  0  0  0  0  0  0  0  0  0  0
    4.7059    0.3241    2.1432 H   0  0  0  0  0  0  0  0  0  0  0  0
    5.7568    1.7532    1.8974 H   0  0  0  0  0  0  0  0  0  0  0  0
    3.9621    1.8915    1.5733 H   0  0  0  0  0  0  0  0  0  0  0  0
  1  2  1  0
  2  3  2  0
  2  4  1  0
  4  5  1  0
  5  6  1  0
  6  7  1  0
  7  8  1  0
  8  9  2  0
  9 10  1  0
  9 11  1  0
 11 12  2  0
 12 13  1  0
 13 14  2  0
 12 15  1  0
 15 16  2  0
 16 17  1  0
 17 18  2  0
 18 19  1  0
 19 20  2  0
 20 21  1  0
 17 22  1  0
 22 23  1  0
 23 24  1  0
 23 25  1  0
 23 26  1  0
  4 27  1  0
 10  6  2  0
 20 15  1  0
 14  8  1  0
  1 28  1  0
  4 29  1  0
  5 30  1  0
  5 31  1  0
 10 32  1  0
 11 33  1  0
 13 34  1  0
 14 35  1  0
 16 36  1  0
 18 37  1  0
 19 38  1  0
 27 39  1  0
 27 40  1  0
 27 41  1  0
M  END
>  <Ligand ID>  (1) 
LIG0003525

>  <Ligand>  (1) 
CHEMBL3921062

>  <SMILES>  (1) 
OC(=O)C(Cc1oc2c(c1)cc(cc2)c1cc(ccc1F)OC(F)(F)F)C

>  <CID>  (1) 
134140073.0

>  <ChEMBL ID>  (1) 
nan

>  <InChiKey>  (1) 
AGPNPJDYUDCBPM-UHFFFAOYSA-N

>  <InChi>  (1) 
InChI=1S/C19H14F4O4/c1-10(18(24)25)6-14-8-12-7-11(2-5-17(12)26-14)15-9-13(3-4-16(15)20)27-19(21,22)23/h2-5,7-10H,6H2,1H3,(H,24,25)

>  <IUPAC Name>  (1) 
3-[5-[2-fluoro-5-(trifluoromethoxy)phenyl]-1-benzofuran-2-yl]-2-methylpropanoic acid

$$$$
