
     RDKit          3D

 72 79  0  0  0  0  0  0  0  0999 V2000
    1.7411   -4.0591   -0.4181 C   0  0  0  0  0  0  0  0  0  0  0  0
    2.0010   -2.8032    0.0591 O   0  0  0  0  0  0  0  0  0  0  0  0
    0.9343   -1.9320    0.0585 C   0  0  2  0  0  0  0  0  0  0  0  0
    0.4707   -1.7888   -1.3716 C   0  0  0  0  0  0  0  0  0  0  0  0
   -0.3985   -0.5523   -1.4587 C   0  0  0  0  0  0  0  0  0  0  0  0
   -0.7822   -0.0749   -0.1035 C   0  0  2  0  0  0  0  0  0  0  0  0
    0.4198    0.4864    0.5765 C   0  0  0  0  0  0  0  0  0  0  0  0
    1.4740   -0.6004    0.5681 C   0  0  2  0  0  0  0  0  0  0  0  0
    2.6514   -0.1198   -0.2135 C   0  0  0  0  0  0  0  0  0  0  0  0
    3.7210   -1.0091   -0.1764 O   0  0  0  0  0  0  0  0  0  0  0  0
    4.7724   -0.5147   -0.9284 C   0  0  0  0  0  0  0  0  0  0  0  0
    5.2847    0.7840   -0.4598 C   0  0  0  0  0  0  0  0  0  0  0  0
    6.2794    0.7654    0.5009 C   0  0  0  0  0  0  0  0  0  0  0  0
    6.8257    1.9567    0.9919 C   0  0  0  0  0  0  0  0  0  0  0  0
    6.3657    3.1667    0.5109 C   0  0  0  0  0  0  0  0  0  0  0  0
    5.3714    3.2108   -0.4501 C   0  0  0  0  0  0  0  0  0  0  0  0
    4.8647    2.0066   -0.9023 C   0  0  0  0  0  0  0  0  0  0  0  0
   -1.2774   -1.2422    0.7327 C   0  0  2  0  0  0  0  0  0  0  0  0
   -0.2250   -2.3229    0.9068 C   0  0  1  0  0  0  0  0  0  0  0  0
   -0.8692   -3.5195    0.5491 O   0  0  0  0  0  0  0  0  0  0  0  0
   -1.9723   -3.2721   -0.2545 C   0  0  0  0  0  0  0  0  0  0  0  0
   -2.2088   -1.9437   -0.1779 C   0  0  0  0  0  0  0  0  0  0  0  0
   -3.1763   -1.2393   -0.7993 C   0  0  0  0  0  0  0  0  0  0  0  0
   -3.2211    0.2272   -0.6107 C   0  0  0  0  0  0  0  0  0  0  0  0
   -1.9748    0.8720   -0.1416 C   0  0  1  0  0  0  0  0  0  0  0  0
   -2.0432    1.4465    1.1609 N   0  0  0  0  0  0  0  0  0  0  0  0
   -2.2705    0.5483    2.2373 C   0  0  0  0  0  0  0  0  0  0  0  0
   -1.9660   -0.8732    1.9800 C   0  0  0  0  0  0  0  0  0  0  0  0
   -2.6043    2.7140    1.3199 C   0  0  0  0  0  0  0  0  0  0  0  0
   -4.0729    2.8690    1.0977 C   0  0  0  0  0  0  0  0  0  0  0  0
   -4.5492    4.3129    1.3022 C   0  0  0  0  0  0  0  0  0  0  0  0
   -4.5828    3.7206   -0.0594 C   0  0  0  0  0  0  0  0  0  0  0  0
   -4.0418   -1.9517   -1.6140 C   0  0  0  0  0  0  0  0  0  0  0  0
   -3.8594   -3.3339   -1.7397 C   0  0  0  0  0  0  0  0  0  0  0  0
   -2.8303   -4.0045   -1.0668 C   0  0  0  0  0  0  0  0  0  0  0  0
   -2.5570   -5.8690   -1.2169 Br  0  0  0  0  0  0  0  0  0  0  0  0
    1.3851   -4.0881   -1.4769 H   0  0  0  0  0  0  0  0  0  0  0  0
    2.7423   -4.5805   -0.4707 H   0  0  0  0  0  0  0  0  0  0  0  0
    1.1257   -4.6860    0.2239 H   0  0  0  0  0  0  0  0  0  0  0  0
   -0.0864   -2.6923   -1.6755 H   0  0  0  0  0  0  0  0  0  0  0  0
    1.3288   -1.7368   -2.0812 H   0  0  0  0  0  0  0  0  0  0  0  0
    0.2149    0.2402   -1.9803 H   0  0  0  0  0  0  0  0  0  0  0  0
   -1.2059   -0.7855   -2.1502 H   0  0  0  0  0  0  0  0  0  0  0  0
    0.7881    1.4285    0.1184 H   0  0  0  0  0  0  0  0  0  0  0  0
    0.2116    0.7346    1.6423 H   0  0  0  0  0  0  0  0  0  0  0  0
    1.8466   -0.8176    1.6022 H   0  0  0  0  0  0  0  0  0  0  0  0
    2.4815    0.1174   -1.2618 H   0  0  0  0  0  0  0  0  0  0  0  0
    3.0623    0.8306    0.2422 H   0  0  0  0  0  0  0  0  0  0  0  0
    4.4826   -0.3598   -1.9995 H   0  0  0  0  0  0  0  0  0  0  0  0
    5.5871   -1.2851   -0.9854 H   0  0  0  0  0  0  0  0  0  0  0  0
    6.6519   -0.1950    0.8893 H   0  0  0  0  0  0  0  0  0  0  0  0
    7.6123    1.9196    1.7525 H   0  0  0  0  0  0  0  0  0  0  0  0
    6.8267    4.0569    0.9291 H   0  0  0  0  0  0  0  0  0  0  0  0
    5.0333    4.1743   -0.8064 H   0  0  0  0  0  0  0  0  0  0  0  0
    4.0848    2.0238   -1.6555 H   0  0  0  0  0  0  0  0  0  0  0  0
    0.0375   -2.3019    2.0008 H   0  0  0  0  0  0  0  0  0  0  0  0
   -4.0787    0.5060    0.0368 H   0  0  0  0  0  0  0  0  0  0  0  0
   -3.5126    0.6253   -1.6309 H   0  0  0  0  0  0  0  0  0  0  0  0
   -1.6988    1.6793   -0.8504 H   0  0  0  0  0  0  0  0  0  0  0  0
   -1.6730    0.8975    3.1049 H   0  0  0  0  0  0  0  0  0  0  0  0
   -3.3369    0.7029    2.5600 H   0  0  0  0  0  0  0  0  0  0  0  0
   -1.3551   -1.3184    2.8224 H   0  0  0  0  0  0  0  0  0  0  0  0
   -2.9284   -1.4573    2.0594 H   0  0  0  0  0  0  0  0  0  0  0  0
   -2.0952    3.4883    0.6984 H   0  0  0  0  0  0  0  0  0  0  0  0
   -2.4060    3.0493    2.3746 H   0  0  0  0  0  0  0  0  0  0  0  0
   -4.7792    2.1597    1.5960 H   0  0  0  0  0  0  0  0  0  0  0  0
   -5.5101    4.5099    1.7891 H   0  0  0  0  0  0  0  0  0  0  0  0
   -3.8027    5.1043    1.5007 H   0  0  0  0  0  0  0  0  0  0  0  0
   -5.5441    3.3769   -0.4900 H   0  0  0  0  0  0  0  0  0  0  0  0
   -3.8170    3.9486   -0.8176 H   0  0  0  0  0  0  0  0  0  0  0  0
   -4.8295   -1.4235   -2.1280 H   0  0  0  0  0  0  0  0  0  0  0  0
   -4.5377   -3.9075   -2.3805 H   0  0  0  0  0  0  0  0  0  0  0  0
  1  2  1  0
  3  2  1  6
  3  4  1  0
  4  5  1  0
  6  5  1  6
  6  7  1  0
  7  8  1  0
  8  9  1  0
  9 10  1  0
 10 11  1  0
 11 12  1  0
 12 13  2  0
 13 14  1  0
 14 15  2  0
 15 16  1  0
 16 17  2  0
  6 18  1  0
 18 19  1  0
 19 20  1  0
 20 21  1  0
 21 22  2  0
 22 23  1  0
 23 24  1  0
 24 25  1  0
 25 26  1  0
 26 27  1  0
 27 28  1  0
 26 29  1  0
 29 30  1  0
 30 31  1  0
 31 32  1  0
 23 33  2  0
 33 34  1  0
 34 35  2  0
 35 36  1  0
  8  3  1  0
 17 12  1  0
 18 28  1  1
 32 30  1  0
 19  3  1  0
 35 21  1  0
 25  6  1  0
 22 18  1  0
  1 37  1  0
  1 38  1  0
  1 39  1  0
  4 40  1  0
  4 41  1  0
  5 42  1  0
  5 43  1  0
  7 44  1  0
  7 45  1  0
  8 46  1  1
  9 47  1  0
  9 48  1  0
 11 49  1  0
 11 50  1  0
 13 51  1  0
 14 52  1  0
 15 53  1  0
 16 54  1  0
 17 55  1  0
 19 56  1  1
 24 57  1  0
 24 58  1  0
 25 59  1  6
 27 60  1  0
 27 61  1  0
 28 62  1  0
 28 63  1  0
 29 64  1  0
 29 65  1  0
 30 66  1  0
 31 67  1  0
 31 68  1  0
 32 69  1  0
 32 70  1  0
 33 71  1  0
 34 72  1  0
M  END
>  <Ligand ID>  (1) 
LIG0004693

>  <Ligand>  (1) 
SCHEMBL15485876

>  <SMILES>  (1) 
CO[C@]12CC[C@]3(C[C@@H]1COCc1ccccc1)[C@@]14[C@H]2Oc2c4c(C[C@H]3N(CC1)CC1CC1)ccc2Br

>  <CID>  (1) 
89978686.0

>  <ChEMBL ID>  (1) 
nan

>  <InChiKey>  (1) 
ZQPMWEQJZNJYEY-VTPACTEHSA-N

>  <InChi>  (1) 
InChI=1S/C31H36BrNO3/c1-34-31-12-11-29(16-23(31)19-35-18-21-5-3-2-4-6-21)25-15-22-9-10-24(32)27-26(22)30(29,28(31)36-27)13-14-33(25)17-20-7-8-20/h2-6,9-10,20,23,25,28H,7-8,11-19H2,1H3/t23-,25-,28-,29-,30+,31-/m1/s1

>  <IUPAC Name>  (1) 
(1S,2S,6R,14R,15R,16R)-11-bromo-5-(cyclopropylmethyl)-15-methoxy-16-(phenylmethoxymethyl)-13-oxa-5-azahexacyclo[13.2.2.12,8.01,6.02,14.012,20]icosa-8(20),9,11-triene

$$$$
