
     RDKit          3D

 32 32  0  0  0  0  0  0  0  0999 V2000
    3.4397    2.9439   -0.9516 C   0  0  0  0  0  0  0  0  0  0  0  0
    1.9868    1.9299   -0.6556 S   0  0  0  0  0  0  0  0  0  0  0  0
    2.4150    0.2938   -0.0724 C   0  0  0  0  0  0  0  0  0  0  0  0
    3.7183   -0.1134    0.1183 C   0  0  0  0  0  0  0  0  0  0  0  0
    4.0186   -1.3944    0.5735 C   0  0  0  0  0  0  0  0  0  0  0  0
    2.9646   -2.2697    0.8366 C   0  0  0  0  0  0  0  0  0  0  0  0
    1.6607   -1.8483    0.6410 C   0  0  0  0  0  0  0  0  0  0  0  0
    1.3700   -0.5696    0.1869 C   0  0  0  0  0  0  0  0  0  0  0  0
    0.0264   -0.1863    0.0029 N   0  0  0  0  0  0  0  0  0  0  0  0
   -1.1144   -1.0220    0.2490 C   0  0  0  0  0  0  0  0  0  0  0  0
   -2.4005   -0.3377   -0.0371 C   0  0  0  0  0  0  0  0  0  0  0  0
   -2.4849    0.8619   -0.4568 N   0  0  0  0  0  0  0  0  0  0  0  0
   -3.8856    1.2224   -0.6347 C   0  0  0  0  0  0  0  0  0  0  0  0
   -4.5416    0.2267    0.3075 C   0  0  0  0  0  0  0  0  0  0  0  0
   -3.6883   -0.9295    0.1188 N   0  0  0  0  0  0  0  0  0  0  0  0
    0.0000    0.0000    0.0000 Cl  0  0  0  0  0  0  0  0  0  0  0  0
    3.6896    2.9329   -2.0494 H   0  0  0  0  0  0  0  0  0  0  0  0
    3.2036    4.0175   -0.7028 H   0  0  0  0  0  0  0  0  0  0  0  0
    4.2872    2.5772   -0.3676 H   0  0  0  0  0  0  0  0  0  0  0  0
    4.5293    0.5709   -0.0879 H   0  0  0  0  0  0  0  0  0  0  0  0
    5.0490   -1.6974    0.7177 H   0  0  0  0  0  0  0  0  0  0  0  0
    3.1715   -3.2721    1.1918 H   0  0  0  0  0  0  0  0  0  0  0  0
    0.8565   -2.5416    0.8505 H   0  0  0  0  0  0  0  0  0  0  0  0
   -0.1721    0.7954   -0.3447 H   0  0  0  0  0  0  0  0  0  0  0  0
   -1.0911   -1.3005    1.3336 H   0  0  0  0  0  0  0  0  0  0  0  0
   -1.0230   -1.9501   -0.3597 H   0  0  0  0  0  0  0  0  0  0  0  0
   -4.2048    1.0978   -1.6705 H   0  0  0  0  0  0  0  0  0  0  0  0
   -4.0064    2.2642   -0.3096 H   0  0  0  0  0  0  0  0  0  0  0  0
   -5.5995    0.0583    0.0946 H   0  0  0  0  0  0  0  0  0  0  0  0
   -4.4271    0.6208    1.3585 H   0  0  0  0  0  0  0  0  0  0  0  0
   -3.7422   -1.5973    0.9041 H   0  0  0  0  0  0  0  0  0  0  0  0
   -4.0054   -1.3839   -0.7850 H   0  0  0  0  0  0  0  0  0  0  0  0
  1  2  1  0
  2  3  1  0
  3  4  2  0
  4  5  1  0
  5  6  2  0
  6  7  1  0
  7  8  2  0
  8  9  1  0
  9 10  1  0
 10 11  1  0
 11 12  2  0
 12 13  1  0
 13 14  1  0
 14 15  1  0
  8  3  1  0
 15 11  1  0
  1 17  1  0
  1 18  1  0
  1 19  1  0
  4 20  1  0
  5 21  1  0
  6 22  1  0
  7 23  1  0
  9 24  1  0
 10 25  1  0
 10 26  1  0
 13 27  1  0
 13 28  1  0
 14 29  1  0
 14 30  1  0
 15 31  1  0
 15 32  1  0
M  CHG  2  15   1  16  -1
M  END
>  <Ligand ID>  (1) 
LIG0001013

>  <Ligand>  (1) 
CID 11108000

>  <SMILES>  (1) 
CSc1ccccc1NCC1=NCC[NH2+]1.[Cl-]

>  <CID>  (1) 
11108000.0

>  <ChEMBL ID>  (1) 
nan

>  <InChiKey>  (1) 
OGDPWAJDPLTWOW-UHFFFAOYSA-N

>  <InChi>  (1) 
InChI=1S/C11H15N3S.ClH/c1-15-10-5-3-2-4-9(10)14-8-11-12-6-7-13-11;/h2-5,14H,6-8H2,1H3,(H,12,13);1H

>  <IUPAC Name>  (1) 
N-(4,5-dihydro-1H-imidazol-1-ium-2-ylmethyl)-2-methylsulfanylaniline;chloride

$$$$
