
     RDKit          3D

 65 67  0  0  0  0  0  0  0  0999 V2000
   -2.9466   -0.4346    0.9285 C   0  0  0  0  0  0  0  0  0  0  0  0
   -3.1895    0.0641   -0.4851 C   0  0  2  0  0  0  0  0  0  0  0  0
   -2.4070   -0.8375   -1.4575 C   0  0  2  0  0  0  0  0  0  0  0  0
   -0.9436   -0.8045   -1.1741 C   0  0  0  0  0  0  0  0  0  0  0  0
   -0.3639   -1.6554   -0.3302 C   0  0  0  0  0  0  0  0  0  0  0  0
    1.0808   -1.6436   -0.0330 C   0  0  1  0  0  0  0  0  0  0  0  0
    1.3989   -2.9808    0.6226 C   0  0  0  0  0  0  0  0  0  0  0  0
    1.8933   -3.8711   -0.4951 C   0  0  0  0  0  0  0  0  0  0  0  0
    1.9867   -2.9535   -1.6652 C   0  0  0  0  0  0  0  0  0  0  0  0
    2.1001   -3.3444   -2.8776 O   0  0  0  0  0  0  0  0  0  0  0  0
    1.9289   -1.5869   -1.2085 N   0  0  0  0  0  0  0  0  0  0  0  0
    2.5920   -0.4871   -1.8418 C   0  0  0  0  0  0  0  0  0  0  0  0
    3.9779   -0.2042   -1.3719 C   0  0  0  0  0  0  0  0  0  0  0  0
    4.1238    0.1267    0.0736 C   0  0  0  0  0  0  0  0  0  0  0  0
    5.5363    0.3790    0.3639 C   0  0  0  0  0  0  0  0  0  0  0  0
    6.5719   -0.4430    0.7601 C   0  0  0  0  0  0  0  0  0  0  0  0
    7.7756    0.0837    0.9508 C   0  0  0  0  0  0  0  0  0  0  0  0
    7.9606    1.4373    0.7486 C   0  0  0  0  0  0  0  0  0  0  0  0
    6.3160    2.0637    0.2431 S   0  0  0  0  0  0  0  0  0  0  0  0
    9.0852    2.2938    0.8606 C   0  0  0  0  0  0  0  0  0  0  0  0
    8.9584    3.5196    0.6074 O   0  0  0  0  0  0  0  0  0  0  0  0
   10.3073    1.7669    1.2475 O   0  0  0  0  0  0  0  0  0  0  0  0
    3.1838   -4.3000   -0.1976 F   0  0  0  0  0  0  0  0  0  0  0  0
    1.0807   -4.9368   -0.7563 F   0  0  0  0  0  0  0  0  0  0  0  0
   -2.6941   -0.4122   -2.7534 O   0  0  0  0  0  0  0  0  0  0  0  0
   -2.7896    1.4696   -0.6828 C   0  0  0  0  0  0  0  0  0  0  0  0
   -3.3769    2.5523    0.1013 C   0  0  0  0  0  0  0  0  0  0  0  0
   -4.7896    2.9243    0.0631 C   0  0  0  0  0  0  0  0  0  0  0  0
   -5.7553    1.9133    0.4722 C   0  0  0  0  0  0  0  0  0  0  0  0
   -5.9702    1.7131    1.8421 C   0  0  0  0  0  0  0  0  0  0  0  0
   -6.9123    0.8195    2.3068 C   0  0  0  0  0  0  0  0  0  0  0  0
   -7.6865    0.0816    1.4357 C   0  0  0  0  0  0  0  0  0  0  0  0
   -7.4942    0.2604    0.0917 C   0  0  0  0  0  0  0  0  0  0  0  0
   -6.5498    1.1562   -0.3607 C   0  0  0  0  0  0  0  0  0  0  0  0
   -1.8732   -0.3914    1.2034 H   0  0  0  0  0  0  0  0  0  0  0  0
   -3.5826    0.1017    1.6567 H   0  0  0  0  0  0  0  0  0  0  0  0
   -3.2392   -1.5045    0.9348 H   0  0  0  0  0  0  0  0  0  0  0  0
   -4.2305   -0.1078   -0.7356 H   0  0  0  0  0  0  0  0  0  0  0  0
   -2.8456   -1.8498   -1.3413 H   0  0  0  0  0  0  0  0  0  0  0  0
   -0.3635   -0.0604   -1.6808 H   0  0  0  0  0  0  0  0  0  0  0  0
   -1.0579   -2.3801    0.1361 H   0  0  0  0  0  0  0  0  0  0  0  0
    1.4103   -0.8388    0.6497 H   0  0  0  0  0  0  0  0  0  0  0  0
    2.1045   -2.8693    1.4485 H   0  0  0  0  0  0  0  0  0  0  0  0
    0.4821   -3.4702    1.0111 H   0  0  0  0  0  0  0  0  0  0  0  0
    1.9718    0.4456   -1.8139 H   0  0  0  0  0  0  0  0  0  0  0  0
    2.6821   -0.7353   -2.9349 H   0  0  0  0  0  0  0  0  0  0  0  0
    4.3737    0.6328   -1.9583 H   0  0  0  0  0  0  0  0  0  0  0  0
    4.5661   -1.1520   -1.5441 H   0  0  0  0  0  0  0  0  0  0  0  0
    3.7907   -0.6903    0.7631 H   0  0  0  0  0  0  0  0  0  0  0  0
    3.5232    1.0070    0.3889 H   0  0  0  0  0  0  0  0  0  0  0  0
    6.3535   -1.5269    0.9052 H   0  0  0  0  0  0  0  0  0  0  0  0
    8.6578   -0.5211    1.2710 H   0  0  0  0  0  0  0  0  0  0  0  0
   11.1763    2.3064    1.1572 H   0  0  0  0  0  0  0  0  0  0  0  0
   -1.9984    0.2197   -3.0747 H   0  0  0  0  0  0  0  0  0  0  0  0
   -2.9941    1.7231   -1.7836 H   0  0  0  0  0  0  0  0  0  0  0  0
   -1.6471    1.4935   -0.6540 H   0  0  0  0  0  0  0  0  0  0  0  0
   -3.0925    2.4833    1.2078 H   0  0  0  0  0  0  0  0  0  0  0  0
   -2.7673    3.4957   -0.1820 H   0  0  0  0  0  0  0  0  0  0  0  0
   -5.0998    3.3680   -0.9389 H   0  0  0  0  0  0  0  0  0  0  0  0
   -4.9208    3.7775    0.8221 H   0  0  0  0  0  0  0  0  0  0  0  0
   -5.3955    2.2611    2.5831 H   0  0  0  0  0  0  0  0  0  0  0  0
   -7.0551    0.6871    3.3793 H   0  0  0  0  0  0  0  0  0  0  0  0
   -8.4349   -0.6285    1.7583 H   0  0  0  0  0  0  0  0  0  0  0  0
   -8.0692   -0.2880   -0.6594 H   0  0  0  0  0  0  0  0  0  0  0  0
   -6.4138    1.2824   -1.4211 H   0  0  0  0  0  0  0  0  0  0  0  0
  1  2  1  0
  2  3  1  0
  3  4  1  0
  4  5  2  0
  5  6  1  0
  6  7  1  0
  7  8  1  0
  8  9  1  0
  9 10  2  0
  9 11  1  0
 11 12  1  0
 12 13  1  0
 13 14  1  0
 14 15  1  0
 15 16  2  0
 16 17  1  0
 17 18  2  0
 18 19  1  0
 18 20  1  0
 20 21  2  0
 20 22  1  0
  8 23  1  0
  8 24  1  0
  3 25  1  0
  2 26  1  0
 26 27  1  0
 27 28  1  0
 28 29  1  0
 29 30  2  0
 30 31  1  0
 31 32  2  0
 32 33  1  0
 33 34  2  0
 11  6  1  0
 19 15  1  0
 34 29  1  0
  1 35  1  0
  1 36  1  0
  1 37  1  0
  2 38  1  6
  3 39  1  6
  4 40  1  0
  5 41  1  0
  6 42  1  1
  7 43  1  0
  7 44  1  0
 12 45  1  0
 12 46  1  0
 13 47  1  0
 13 48  1  0
 14 49  1  0
 14 50  1  0
 16 51  1  0
 17 52  1  0
 22 53  1  0
 25 54  1  0
 26 55  1  0
 26 56  1  0
 27 57  1  0
 27 58  1  0
 28 59  1  0
 28 60  1  0
 30 61  1  0
 31 62  1  0
 32 63  1  0
 33 64  1  0
 34 65  1  0
M  END
>  <Ligand ID>  (1) 
LIG0005222

>  <Ligand>  (1) 
CHEMBL3937596

>  <SMILES>  (1) 
C[C@H]([C@H](/C=C/[C@H]1CC(C(=O)N1CCCc1ccc(s1)C(=O)O)(F)F)O)CCCc1ccccc1

>  <CID>  (1) 
90054537.0

>  <ChEMBL ID>  (1) 
nan

>  <InChiKey>  (1) 
UXQWNSWYEJSWBM-DYRIQIPYSA-N

>  <InChi>  (1) 
InChI=1S/C26H31F2NO4S/c1-18(7-5-10-19-8-3-2-4-9-19)22(30)14-12-20-17-26(27,28)25(33)29(20)16-6-11-21-13-15-23(34-21)24(31)32/h2-4,8-9,12-15,18,20,22,30H,5-7,10-11,16-17H2,1H3,(H,31,32)/b14-12+/t18-,20-,22-/m0/s1

>  <IUPAC Name>  (1) 
5-[3-[(5R)-3,3-difluoro-5-[(E,3R,4S)-3-hydroxy-4-methyl-7-phenylhept-1-enyl]-2-oxopyrrolidin-1-yl]propyl]thiophene-2-carboxylic acid

$$$$
