
     RDKit          3D

 64 66  0  0  0  0  0  0  0  0999 V2000
   -7.5727   -2.5475    0.7770 C   0  0  0  0  0  0  0  0  0  0  0  0
   -6.8789   -1.3296    1.3258 C   0  0  0  0  0  0  0  0  0  0  0  0
   -6.4912   -0.3315    0.2403 C   0  0  0  0  0  0  0  0  0  0  0  0
   -5.8136    0.8148    0.9681 C   0  0  0  0  0  0  0  0  0  0  0  0
   -5.3625    1.8962    0.0561 C   0  0  0  0  0  0  0  0  0  0  0  0
   -4.3783    1.5059   -0.9895 C   0  0  0  0  0  0  0  0  0  0  0  0
   -3.0935    0.9571   -0.5113 C   0  0  2  0  0  0  0  0  0  0  0  0
   -2.3840    1.9726    0.3518 C   0  0  0  0  0  0  0  0  0  0  0  0
   -1.1019    1.3921    0.9438 C   0  0  0  0  0  0  0  0  0  0  0  0
   -0.3014    0.9093   -0.2068 C   0  0  0  0  0  0  0  0  0  0  0  0
   -0.8479    0.5372   -1.4157 C   0  0  0  0  0  0  0  0  0  0  0  0
   -2.2848    0.5664   -1.7305 C   0  0  0  0  0  0  0  0  0  0  0  0
    0.0148    0.1050   -2.4068 C   0  0  0  0  0  0  0  0  0  0  0  0
    1.3797    0.0302   -2.2430 C   0  0  0  0  0  0  0  0  0  0  0  0
    1.9213    0.4042   -1.0303 C   0  0  0  0  0  0  0  0  0  0  0  0
    1.0740    0.8376   -0.0313 C   0  0  0  0  0  0  0  0  0  0  0  0
    3.3781    0.3625   -0.7501 C   0  0  1  0  0  0  0  0  0  0  0  0
    3.9182    1.7313   -0.3833 C   0  0  0  0  0  0  0  0  0  0  0  0
    5.3054    1.3824    0.1150 C   0  0  0  0  0  0  0  0  0  0  0  0
    5.1861   -0.0184    0.6961 C   0  0  2  0  0  0  0  0  0  0  0  0
    3.7644   -0.4661    0.4252 C   0  0  0  0  0  0  0  0  0  0  0  0
    5.4019    0.0013    2.1127 N   0  0  0  0  0  0  0  0  0  0  0  0
    6.1209   -0.9774   -0.0146 C   0  0  0  0  0  0  0  0  0  0  0  0
    5.8770   -2.2534    0.5106 O   0  0  0  0  0  0  0  0  0  0  0  0
    6.9523   -3.3000   -0.3055 P   0  0  0  0  0  0  0  0  0  0  0  0
    7.2239   -4.5240    0.5173 O   0  0  0  0  0  0  0  0  0  0  0  0
    8.4007   -2.4097   -0.4924 O   0  0  0  0  0  0  0  0  0  0  0  0
    6.3043   -3.6592   -1.8033 O   0  0  0  0  0  0  0  0  0  0  0  0
   -6.8215   -3.3238    0.5958 H   0  0  0  0  0  0  0  0  0  0  0  0
   -8.1477   -2.2799   -0.1228 H   0  0  0  0  0  0  0  0  0  0  0  0
   -8.2883   -2.8686    1.5901 H   0  0  0  0  0  0  0  0  0  0  0  0
   -7.5346   -0.7886    2.0525 H   0  0  0  0  0  0  0  0  0  0  0  0
   -5.9942   -1.6652    1.8934 H   0  0  0  0  0  0  0  0  0  0  0  0
   -5.8382   -0.8666   -0.4602 H   0  0  0  0  0  0  0  0  0  0  0  0
   -7.3938    0.0740   -0.2353 H   0  0  0  0  0  0  0  0  0  0  0  0
   -6.6435    1.2617    1.5869 H   0  0  0  0  0  0  0  0  0  0  0  0
   -5.0765    0.4786    1.7202 H   0  0  0  0  0  0  0  0  0  0  0  0
   -6.2796    2.3027   -0.4312 H   0  0  0  0  0  0  0  0  0  0  0  0
   -4.9932    2.7346    0.6824 H   0  0  0  0  0  0  0  0  0  0  0  0
   -4.1486    2.4177   -1.5811 H   0  0  0  0  0  0  0  0  0  0  0  0
   -4.8798    0.8248   -1.7177 H   0  0  0  0  0  0  0  0  0  0  0  0
   -3.1665    0.0338    0.0901 H   0  0  0  0  0  0  0  0  0  0  0  0
   -3.0597    2.2966    1.1479 H   0  0  0  0  0  0  0  0  0  0  0  0
   -2.0738    2.8209   -0.2922 H   0  0  0  0  0  0  0  0  0  0  0  0
   -0.5785    2.2212    1.4361 H   0  0  0  0  0  0  0  0  0  0  0  0
   -1.3416    0.5713    1.6603 H   0  0  0  0  0  0  0  0  0  0  0  0
   -2.5251    1.1963   -2.6130 H   0  0  0  0  0  0  0  0  0  0  0  0
   -2.5668   -0.4761   -2.0579 H   0  0  0  0  0  0  0  0  0  0  0  0
   -0.3872   -0.1972   -3.3765 H   0  0  0  0  0  0  0  0  0  0  0  0
    2.0464   -0.3167   -3.0456 H   0  0  0  0  0  0  0  0  0  0  0  0
    1.5054    1.1286    0.9157 H   0  0  0  0  0  0  0  0  0  0  0  0
    3.9602    0.0055   -1.6222 H   0  0  0  0  0  0  0  0  0  0  0  0
    3.9027    2.4391   -1.2159 H   0  0  0  0  0  0  0  0  0  0  0  0
    3.3539    2.0916    0.5164 H   0  0  0  0  0  0  0  0  0  0  0  0
    5.7124    2.1178    0.8372 H   0  0  0  0  0  0  0  0  0  0  0  0
    5.9536    1.3046   -0.7997 H   0  0  0  0  0  0  0  0  0  0  0  0
    3.7617   -1.5427    0.0986 H   0  0  0  0  0  0  0  0  0  0  0  0
    3.1241   -0.3226    1.3112 H   0  0  0  0  0  0  0  0  0  0  0  0
    5.0088    0.8984    2.4891 H   0  0  0  0  0  0  0  0  0  0  0  0
    6.4434   -0.0323    2.2677 H   0  0  0  0  0  0  0  0  0  0  0  0
    7.1755   -0.6684    0.0628 H   0  0  0  0  0  0  0  0  0  0  0  0
    5.8743   -1.0567   -1.0924 H   0  0  0  0  0  0  0  0  0  0  0  0
    8.8715   -2.8301   -1.2580 H   0  0  0  0  0  0  0  0  0  0  0  0
    5.3327   -3.5738   -1.8610 H   0  0  0  0  0  0  0  0  0  0  0  0
  1  2  1  0
  2  3  1  0
  3  4  1  0
  4  5  1  0
  5  6  1  0
  6  7  1  0
  7  8  1  0
  8  9  1  0
  9 10  1  0
 10 11  2  0
 11 12  1  0
 11 13  1  0
 13 14  2  0
 14 15  1  0
 15 16  2  0
 15 17  1  0
 17 18  1  0
 18 19  1  0
 19 20  1  0
 20 21  1  0
 20 22  1  1
 20 23  1  0
 23 24  1  0
 24 25  1  0
 25 26  2  0
 25 27  1  0
 25 28  1  0
 12  7  1  0
 21 17  1  0
 16 10  1  0
  1 29  1  0
  1 30  1  0
  1 31  1  0
  2 32  1  0
  2 33  1  0
  3 34  1  0
  3 35  1  0
  4 36  1  0
  4 37  1  0
  5 38  1  0
  5 39  1  0
  6 40  1  0
  6 41  1  0
  7 42  1  1
  8 43  1  0
  8 44  1  0
  9 45  1  0
  9 46  1  0
 12 47  1  0
 12 48  1  0
 13 49  1  0
 14 50  1  0
 16 51  1  0
 17 52  1  6
 18 53  1  0
 18 54  1  0
 19 55  1  0
 19 56  1  0
 21 57  1  0
 21 58  1  0
 22 59  1  0
 22 60  1  0
 23 61  1  0
 23 62  1  0
 27 63  1  0
 28 64  1  0
M  END
>  <Ligand ID>  (1) 
LIG0004206

>  <Ligand>  (1) 
CHEMBL3806205

>  <SMILES>  (1) 
CCCCCC[C@@H]1CCc2c(C1)ccc(c2)[C@H]1CC[C@](C1)(N)COP(=O)(O)O

>  <CID>  (1) 
78321974.0

>  <ChEMBL ID>  (1) 
nan

>  <InChiKey>  (1) 
BWKSEIHXZRSETR-VOQZNFBZSA-N

>  <InChi>  (1) 
InChI=1S/C22H36NO4P/c1-2-3-4-5-6-17-7-8-19-14-20(10-9-18(19)13-17)21-11-12-22(23,15-21)16-27-28(24,25)26/h9-10,14,17,21H,2-8,11-13,15-16,23H2,1H3,(H2,24,25,26)/t17-,21+,22-/m1/s1

>  <IUPAC Name>  (1) 
[(1R,3S)-1-amino-3-[(6R)-6-hexyl-5,6,7,8-tetrahydronaphthalen-2-yl]cyclopentyl]methyl dihydrogen phosphate

$$$$
