
     RDKit          3D

 42 44  0  0  0  0  0  0  0  0999 V2000
    1.6024   -3.2267   -0.2856 N   0  0  0  0  0  0  0  0  0  0  0  0
    1.4697   -2.1187    0.0207 C   0  0  0  0  0  0  0  0  0  0  0  0
    1.3126   -0.7352    0.3839 C   0  0  0  0  0  0  0  0  0  0  0  0
    0.1649   -0.2977    1.0556 C   0  0  0  0  0  0  0  0  0  0  0  0
   -1.0503   -1.5321    1.4285 S   0  0  0  0  0  0  0  0  0  0  0  0
   -2.4659   -0.8187    2.2761 C   0  0  0  0  0  0  0  0  0  0  0  0
   -3.2105    0.0701    1.3893 C   0  0  0  0  0  0  0  0  0  0  0  0
   -3.0931    1.4274    1.3013 C   0  0  0  0  0  0  0  0  0  0  0  0
   -3.8231    2.2119    0.4206 C   0  0  0  0  0  0  0  0  0  0  0  0
   -4.7332    1.5949   -0.4297 C   0  0  0  0  0  0  0  0  0  0  0  0
   -4.8752    0.2294   -0.3651 C   0  0  0  0  0  0  0  0  0  0  0  0
   -4.1352   -0.5256    0.5210 C   0  0  0  0  0  0  0  0  0  0  0  0
   -5.8304   -0.4242   -1.2568 C   0  0  0  0  0  0  0  0  0  0  0  0
   -6.4886    0.2751   -2.0495 O   0  0  0  0  0  0  0  0  0  0  0  0
   -6.0305   -1.7910   -1.2528 O   0  0  0  0  0  0  0  0  0  0  0  0
    0.0736    0.9953    1.3666 N   0  0  0  0  0  0  0  0  0  0  0  0
    1.0666    1.8278    1.0335 C   0  0  0  0  0  0  0  0  0  0  0  0
    2.2140    1.4508    0.3745 C   0  0  0  0  0  0  0  0  0  0  0  0
    2.3353    0.1190    0.0402 C   0  0  0  0  0  0  0  0  0  0  0  0
    3.5362   -0.3262   -0.6599 C   0  0  0  0  0  0  0  0  0  0  0  0
    4.6594   -0.7597    0.0094 C   0  0  0  0  0  0  0  0  0  0  0  0
    5.7858   -1.1769   -0.6899 C   0  0  0  0  0  0  0  0  0  0  0  0
    5.8012   -1.1651   -2.0735 C   0  0  0  0  0  0  0  0  0  0  0  0
    4.6746   -0.7302   -2.7482 C   0  0  0  0  0  0  0  0  0  0  0  0
    3.5545   -0.3152   -2.0584 C   0  0  0  0  0  0  0  0  0  0  0  0
    6.8686   -1.5597   -2.7940 F   0  0  0  0  0  0  0  0  0  0  0  0
    3.2258    2.4193    0.0598 C   0  0  0  0  0  0  0  0  0  0  0  0
    4.0356    3.1980   -0.2066 N   0  0  0  0  0  0  0  0  0  0  0  0
    0.9145    3.2129    1.3944 N   0  0  0  0  0  0  0  0  0  0  0  0
   -3.1163   -1.6368    2.6673 H   0  0  0  0  0  0  0  0  0  0  0  0
   -2.1528   -0.2653    3.2130 H   0  0  0  0  0  0  0  0  0  0  0  0
   -2.4130    1.9437    1.9479 H   0  0  0  0  0  0  0  0  0  0  0  0
   -3.7083    3.2880    0.3727 H   0  0  0  0  0  0  0  0  0  0  0  0
   -5.3068    2.2073   -1.1212 H   0  0  0  0  0  0  0  0  0  0  0  0
   -4.2887   -1.5940    0.5276 H   0  0  0  0  0  0  0  0  0  0  0  0
   -6.9806   -2.1363   -1.3718 H   0  0  0  0  0  0  0  0  0  0  0  0
    4.6626   -0.7750    1.1054 H   0  0  0  0  0  0  0  0  0  0  0  0
    6.6751   -1.5205   -0.1404 H   0  0  0  0  0  0  0  0  0  0  0  0
    4.6611   -0.7112   -3.8399 H   0  0  0  0  0  0  0  0  0  0  0  0
    2.6906    0.0190   -2.6340 H   0  0  0  0  0  0  0  0  0  0  0  0
    0.7829    3.4508    2.4085 H   0  0  0  0  0  0  0  0  0  0  0  0
    0.9349    3.9660    0.6598 H   0  0  0  0  0  0  0  0  0  0  0  0
  1  2  3  0
  2  3  1  0
  3  4  2  0
  4  5  1  0
  5  6  1  0
  6  7  1  0
  7  8  2  0
  8  9  1  0
  9 10  2  0
 10 11  1  0
 11 12  2  0
 11 13  1  0
 13 14  2  0
 13 15  1  0
  4 16  1  0
 16 17  2  0
 17 18  1  0
 18 19  2  0
 19 20  1  0
 20 21  2  0
 21 22  1  0
 22 23  2  0
 23 24  1  0
 24 25  2  0
 23 26  1  0
 18 27  1  0
 27 28  3  0
 17 29  1  0
 19  3  1  0
 25 20  1  0
 12  7  1  0
  6 30  1  0
  6 31  1  0
  8 32  1  0
  9 33  1  0
 10 34  1  0
 12 35  1  0
 15 36  1  0
 21 37  1  0
 22 38  1  0
 24 39  1  0
 25 40  1  0
 29 41  1  0
 29 42  1  0
M  END
>  <Ligand ID>  (1) 
LIG0002506

>  <Ligand>  (1) 
SCHEMBL3327352

>  <SMILES>  (1) 
N#Cc1c(SCc2cccc(c2)C(=O)O)nc(c(c1c1ccc(cc1)F)C#N)N

>  <CID>  (1) 
68597381.0

>  <ChEMBL ID>  (1) 
nan

>  <InChiKey>  (1) 
GXIGLULYZQIHGN-UHFFFAOYSA-N

>  <InChi>  (1) 
InChI=1S/C21H13FN4O2S/c22-15-6-4-13(5-7-15)18-16(9-23)19(25)26-20(17(18)10-24)29-11-12-2-1-3-14(8-12)21(27)28/h1-8H,11H2,(H2,25,26)(H,27,28)

>  <IUPAC Name>  (1) 
3-[[6-amino-3,5-dicyano-4-(4-fluorophenyl)pyridin-2-yl]sulfanylmethyl]benzoic acid

$$$$
