
     RDKit          3D

 22 23  0  0  0  0  0  0  0  0999 V2000
    2.3624    3.1606    0.8945 Cl  0  0  0  0  0  0  0  0  0  0  0  0
    2.1313    1.4836    0.4134 C   0  0  0  0  0  0  0  0  0  0  0  0
    3.2569    0.7043    0.2080 C   0  0  0  0  0  0  0  0  0  0  0  0
    3.0657   -0.6230   -0.1729 C   0  0  0  0  0  0  0  0  0  0  0  0
    1.7825   -1.1103   -0.3306 C   0  0  0  0  0  0  0  0  0  0  0  0
    0.6592   -0.3252   -0.1234 C   0  0  0  0  0  0  0  0  0  0  0  0
    0.8625    0.9726    0.2492 C   0  0  0  0  0  0  0  0  0  0  0  0
   -0.6932   -0.8822   -0.3020 C   0  0  1  0  0  0  0  0  0  0  0  0
   -1.3307   -1.1252    1.0347 C   0  0  0  0  0  0  0  0  0  0  0  0
   -2.5651   -0.4644    0.8995 O   0  0  0  0  0  0  0  0  0  0  0  0
   -2.6507    0.1818   -0.3215 C   0  0  0  0  0  0  0  0  0  0  0  0
   -1.5944   -0.0359   -1.0363 N   0  0  0  0  0  0  0  0  0  0  0  0
   -3.8041    0.9748   -0.6709 N   0  0  0  0  0  0  0  0  0  0  0  0
    4.2311    1.1142    0.3391 H   0  0  0  0  0  0  0  0  0  0  0  0
    3.9098   -1.2512   -0.3394 H   0  0  0  0  0  0  0  0  0  0  0  0
    1.6406   -2.1291   -0.6229 H   0  0  0  0  0  0  0  0  0  0  0  0
   -0.0134    1.5894    0.4121 H   0  0  0  0  0  0  0  0  0  0  0  0
   -0.6002   -1.8659   -0.8435 H   0  0  0  0  0  0  0  0  0  0  0  0
   -1.5116   -2.2076    1.2099 H   0  0  0  0  0  0  0  0  0  0  0  0
   -0.7255   -0.6982    1.8695 H   0  0  0  0  0  0  0  0  0  0  0  0
   -4.2895    0.8686   -1.5905 H   0  0  0  0  0  0  0  0  0  0  0  0
   -4.1237    1.6681    0.0635 H   0  0  0  0  0  0  0  0  0  0  0  0
  1  2  1  0
  2  3  2  0
  3  4  1  0
  4  5  2  0
  5  6  1  0
  6  7  2  0
  6  8  1  0
  8  9  1  0
  9 10  1  0
 10 11  1  0
 11 12  2  0
 11 13  1  0
  7  2  1  0
 12  8  1  0
  3 14  1  0
  4 15  1  0
  5 16  1  0
  7 17  1  0
  8 18  1  6
  9 19  1  0
  9 20  1  0
 13 21  1  0
 13 22  1  0
M  END
>  <Ligand ID>  (1) 
LIG0005696

>  <Ligand>  (1) 
SCHEMBL3607416

>  <SMILES>  (1) 
Clc1cccc(c1)[C@H]1COC(=N1)N

>  <CID>  (1) 
59323754.0

>  <ChEMBL ID>  (1) 
nan

>  <InChiKey>  (1) 
CYOQNBYJYMBMTG-MRVPVSSYSA-N

>  <InChi>  (1) 
InChI=1S/C9H9ClN2O/c10-7-3-1-2-6(4-7)8-5-13-9(11)12-8/h1-4,8H,5H2,(H2,11,12)/t8-/m1/s1

>  <IUPAC Name>  (1) 
(4S)-4-(3-chlorophenyl)-4,5-dihydro-1,3-oxazol-2-amine

$$$$
