
     RDKit          3D

 63 65  0  0  0  0  0  0  0  0999 V2000
    0.1930   -3.6282   -1.7915 O   0  0  0  0  0  0  0  0  0  0  0  0
   -0.4641   -2.7376   -0.9534 C   0  0  2  0  0  0  0  0  0  0  0  0
   -1.8550   -3.3169   -0.7153 C   0  0  2  0  0  0  0  0  0  0  0  0
   -2.0856   -4.4673   -1.4630 O   0  0  0  0  0  0  0  0  0  0  0  0
   -2.7467   -2.2465   -1.2544 C   0  0  2  0  0  0  0  0  0  0  0  0
   -2.0201   -1.0866   -1.0074 O   0  0  0  0  0  0  0  0  0  0  0  0
   -0.7904   -1.4378   -1.6015 C   0  0  1  0  0  0  0  0  0  0  0  0
    0.1810   -0.4074   -1.5077 N   0  0  0  0  0  0  0  0  0  0  0  0
   -0.2453    0.8797   -1.6508 C   0  0  0  0  0  0  0  0  0  0  0  0
    0.6419    1.9460   -1.5724 C   0  0  0  0  0  0  0  0  0  0  0  0
    1.9907    1.7286   -1.3455 C   0  0  0  0  0  0  0  0  0  0  0  0
    2.3672    0.4329   -1.2098 N   0  0  0  0  0  0  0  0  0  0  0  0
    1.4868   -0.5746   -1.2906 C   0  0  0  0  0  0  0  0  0  0  0  0
    1.9206   -1.7415   -1.1534 O   0  0  0  0  0  0  0  0  0  0  0  0
    2.9388    2.7860   -1.2568 N   0  0  0  0  0  0  0  0  0  0  0  0
    4.2681    2.5284   -1.0305 O   0  0  0  0  0  0  0  0  0  0  0  0
    4.5999    2.7763    0.2923 C   0  0  0  0  0  0  0  0  0  0  0  0
    6.0443    2.5140    0.6117 C   0  0  0  0  0  0  0  0  0  0  0  0
    6.4145    1.1716    0.3706 O   0  0  0  0  0  0  0  0  0  0  0  0
    7.7327    0.7824    0.6241 C   0  0  0  0  0  0  0  0  0  0  0  0
    8.6080    1.7431    1.1012 C   0  0  0  0  0  0  0  0  0  0  0  0
    9.9142    1.3927    1.3614 C   0  0  0  0  0  0  0  0  0  0  0  0
   10.3653    0.0953    1.1534 C   0  0  0  0  0  0  0  0  0  0  0  0
    9.4456   -0.8250    0.6747 C   0  0  0  0  0  0  0  0  0  0  0  0
    8.1384   -0.5174    0.4033 C   0  0  0  0  0  0  0  0  0  0  0  0
   -4.1040   -2.2225   -0.6000 C   0  0  0  0  0  0  0  0  0  0  0  0
   -4.0180   -2.0957    0.7839 O   0  0  0  0  0  0  0  0  0  0  0  0
   -5.5989   -2.0817    1.3840 P   0  0  0  0  0  0  0  0  0  0  0  0
   -6.6116   -2.5318    0.3646 O   0  0  0  0  0  0  0  0  0  0  0  0
   -5.9918   -0.5574    1.9976 O   0  0  0  0  0  0  0  0  0  0  0  0
   -6.9400    0.3273    0.9127 P   0  0  0  0  0  0  0  0  0  0  0  0
   -6.0822    1.3407    0.1971 O   0  0  0  0  0  0  0  0  0  0  0  0
   -8.1271    1.1055    1.8554 O   0  0  0  0  0  0  0  0  0  0  0  0
   -8.7078    2.4878    1.0629 P   0  0  0  0  0  0  0  0  0  0  0  0
   -8.4970    2.4118   -0.4149 O   0  0  0  0  0  0  0  0  0  0  0  0
  -10.3720    2.6411    1.3829 O   0  0  0  0  0  0  0  0  0  0  0  0
   -7.8497    3.8156    1.6946 O   0  0  0  0  0  0  0  0  0  0  0  0
   -7.7106   -0.6719   -0.2078 O   0  0  0  0  0  0  0  0  0  0  0  0
   -5.6797   -3.1669    2.6754 O   0  0  0  0  0  0  0  0  0  0  0  0
   -0.2420   -3.7506   -2.6519 H   0  0  0  0  0  0  0  0  0  0  0  0
    0.1045   -2.6628   -0.0068 H   0  0  0  0  0  0  0  0  0  0  0  0
   -2.0259   -3.5760    0.3430 H   0  0  0  0  0  0  0  0  0  0  0  0
   -1.6863   -5.2530   -1.0374 H   0  0  0  0  0  0  0  0  0  0  0  0
   -2.9078   -2.4143   -2.3356 H   0  0  0  0  0  0  0  0  0  0  0  0
   -1.0420   -1.6624   -2.6757 H   0  0  0  0  0  0  0  0  0  0  0  0
   -1.2821    1.1280   -1.8300 H   0  0  0  0  0  0  0  0  0  0  0  0
    0.2816    2.9706   -1.6896 H   0  0  0  0  0  0  0  0  0  0  0  0
    2.5772    3.7579   -1.3712 H   0  0  0  0  0  0  0  0  0  0  0  0
    3.9658    2.1624    0.9475 H   0  0  0  0  0  0  0  0  0  0  0  0
    4.4193    3.8608    0.4593 H   0  0  0  0  0  0  0  0  0  0  0  0
    6.1508    2.6848    1.7123 H   0  0  0  0  0  0  0  0  0  0  0  0
    6.7181    3.1899    0.0400 H   0  0  0  0  0  0  0  0  0  0  0  0
    8.3326    2.7665    1.2868 H   0  0  0  0  0  0  0  0  0  0  0  0
   10.6090    2.1439    1.7373 H   0  0  0  0  0  0  0  0  0  0  0  0
   11.3869   -0.1293    1.3694 H   0  0  0  0  0  0  0  0  0  0  0  0
    9.7975   -1.8537    0.5082 H   0  0  0  0  0  0  0  0  0  0  0  0
    7.4515   -1.2603    0.0317 H   0  0  0  0  0  0  0  0  0  0  0  0
   -4.6114   -3.1510   -0.9056 H   0  0  0  0  0  0  0  0  0  0  0  0
   -4.6591   -1.3746   -1.0105 H   0  0  0  0  0  0  0  0  0  0  0  0
  -10.7369    3.3139    0.7270 H   0  0  0  0  0  0  0  0  0  0  0  0
   -8.0715    4.5944    1.1095 H   0  0  0  0  0  0  0  0  0  0  0  0
   -8.7007   -0.5703   -0.1686 H   0  0  0  0  0  0  0  0  0  0  0  0
   -6.5826   -3.5074    2.8446 H   0  0  0  0  0  0  0  0  0  0  0  0
  1  2  1  0
  2  3  1  0
  3  4  1  0
  3  5  1  0
  5  6  1  0
  6  7  1  0
  7  8  1  0
  8  9  1  0
  9 10  2  0
 10 11  1  0
 11 12  2  0
 12 13  1  0
 13 14  2  0
 11 15  1  0
 15 16  1  0
 16 17  1  0
 17 18  1  0
 18 19  1  0
 19 20  1  0
 20 21  2  0
 21 22  1  0
 22 23  2  0
 23 24  1  0
 24 25  2  0
  5 26  1  0
 26 27  1  0
 27 28  1  0
 28 29  2  0
 28 30  1  0
 30 31  1  0
 31 32  2  0
 31 33  1  0
 33 34  1  0
 34 35  2  0
 34 36  1  0
 34 37  1  0
 31 38  1  0
 28 39  1  0
  7  2  1  0
 13  8  1  0
 25 20  1  0
  1 40  1  0
  2 41  1  1
  3 42  1  1
  4 43  1  0
  5 44  1  6
  7 45  1  6
  9 46  1  0
 10 47  1  0
 15 48  1  0
 17 49  1  0
 17 50  1  0
 18 51  1  0
 18 52  1  0
 21 53  1  0
 22 54  1  0
 23 55  1  0
 24 56  1  0
 25 57  1  0
 26 58  1  0
 26 59  1  0
 36 60  1  0
 37 61  1  0
 38 62  1  0
 39 63  1  0
M  END
>  <Ligand ID>  (1) 
LIG0002732

>  <Ligand>  (1) 
CHEMBL3261361

>  <SMILES>  (1) 
O[C@@H]1[C@H](O)[C@H](O[C@H]1n1ccc(nc1=O)NOCCOc1ccccc1)COP(=O)(OP(=O)(OP(=O)(O)O)O)O

>  <CID>  (1) 
90656212.0

>  <ChEMBL ID>  (1) 
nan

>  <InChiKey>  (1) 
AXEDFADFROXMCZ-DTZQCDIJSA-N

>  <InChi>  (1) 
InChI=1S/C17H24N3O16P3/c21-14-12(10-33-38(27,28)36-39(29,30)35-37(24,25)26)34-16(15(14)22)20-7-6-13(18-17(20)23)19-32-9-8-31-11-4-2-1-3-5-11/h1-7,12,14-16,21-22H,8-10H2,(H,27,28)(H,29,30)(H,18,19,23)(H2,24,25,26)/t12-,14-,15-,16-/m1/s1

>  <IUPAC Name>  (1) 
[[(2R,3S,4R,5R)-3,4-dihydroxy-5-[2-oxo-4-(2-phenoxyethoxyamino)pyrimidin-1-yl]oxolan-2-yl]methoxy-hydroxyphosphoryl] phosphono hydrogen phosphate

$$$$
