
     RDKit          3D

 43 44  0  0  0  0  0  0  0  0999 V2000
    5.0368    0.6509   -1.4675 C   0  0  0  0  0  0  0  0  0  0  0  0
    4.4920   -0.4208   -0.6362 N   0  0  0  0  0  0  0  0  0  0  0  0
    3.8655   -0.1162    0.6161 C   0  0  0  0  0  0  0  0  0  0  0  0
    4.6689   -0.0966    1.6979 N   0  0  0  0  0  0  0  0  0  0  0  0
    4.1075    0.1868    2.8882 C   0  0  0  0  0  0  0  0  0  0  0  0
    4.8159    0.2177    3.9308 O   0  0  0  0  0  0  0  0  0  0  0  0
    2.7483    0.4473    2.9824 C   0  0  0  0  0  0  0  0  0  0  0  0
    1.9363    0.4226    1.8575 C   0  0  0  0  0  0  0  0  0  0  0  0
    2.5421    0.1349    0.6908 N   0  0  0  0  0  0  0  0  0  0  0  0
    1.8013    0.0786   -0.5566 C   0  0  2  0  0  0  0  0  0  0  0  0
    0.5240    0.5873   -0.4676 O   0  0  0  0  0  0  0  0  0  0  0  0
   -0.3200   -0.3198   -1.1345 C   0  0  1  0  0  0  0  0  0  0  0  0
    0.2127   -1.6191   -0.5664 C   0  0  2  0  0  0  0  0  0  0  0  0
    1.6901   -1.3910   -0.9187 C   0  0  1  0  0  0  0  0  0  0  0  0
    1.8255   -1.5154   -2.2918 O   0  0  0  0  0  0  0  0  0  0  0  0
   -0.2257   -2.7411   -1.2391 O   0  0  0  0  0  0  0  0  0  0  0  0
   -1.7582   -0.0857   -0.7418 C   0  0  0  0  0  0  0  0  0  0  0  0
   -2.2006    1.1769   -1.0456 O   0  0  0  0  0  0  0  0  0  0  0  0
   -3.7827    1.4916   -0.6354 P   0  0  0  0  0  0  0  0  0  0  0  0
   -4.4612    2.4907   -1.5378 O   0  0  0  0  0  0  0  0  0  0  0  0
   -4.7385    0.1126   -0.5548 O   0  0  0  0  0  0  0  0  0  0  0  0
   -6.1444    0.3901    0.3484 P   0  0  0  0  0  0  0  0  0  0  0  0
   -6.8956    1.5791   -0.2146 O   0  0  0  0  0  0  0  0  0  0  0  0
   -7.1535   -0.9380    0.2879 O   0  0  0  0  0  0  0  0  0  0  0  0
   -5.6642    0.6471    1.9531 O   0  0  0  0  0  0  0  0  0  0  0  0
   -3.7981    2.1647    0.9378 O   0  0  0  0  0  0  0  0  0  0  0  0
    4.6033    0.5140   -2.4743 H   0  0  0  0  0  0  0  0  0  0  0  0
    6.1365    0.6181   -1.4556 H   0  0  0  0  0  0  0  0  0  0  0  0
    4.7012    1.6298   -1.0855 H   0  0  0  0  0  0  0  0  0  0  0  0
    4.5839   -1.3974   -0.9996 H   0  0  0  0  0  0  0  0  0  0  0  0
    2.3061    0.6738    3.9417 H   0  0  0  0  0  0  0  0  0  0  0  0
    0.8750    0.6216    1.9024 H   0  0  0  0  0  0  0  0  0  0  0  0
    2.4337    0.6167   -1.2961 H   0  0  0  0  0  0  0  0  0  0  0  0
   -0.1261   -0.2662   -2.2071 H   0  0  0  0  0  0  0  0  0  0  0  0
    0.0783   -1.6591    0.5276 H   0  0  0  0  0  0  0  0  0  0  0  0
    2.3570   -2.0428   -0.3323 H   0  0  0  0  0  0  0  0  0  0  0  0
    2.0384   -0.6362   -2.7133 H   0  0  0  0  0  0  0  0  0  0  0  0
   -1.1992   -2.5998   -1.4094 H   0  0  0  0  0  0  0  0  0  0  0  0
   -2.3822   -0.9147   -1.1025 H   0  0  0  0  0  0  0  0  0  0  0  0
   -1.7818   -0.1647    0.3800 H   0  0  0  0  0  0  0  0  0  0  0  0
   -6.7113   -1.8162    0.3220 H   0  0  0  0  0  0  0  0  0  0  0  0
   -6.4734    0.5265    2.5098 H   0  0  0  0  0  0  0  0  0  0  0  0
   -4.5636    2.7615    1.0615 H   0  0  0  0  0  0  0  0  0  0  0  0
  1  2  1  0
  2  3  1  0
  3  4  2  0
  4  5  1  0
  5  6  2  0
  5  7  1  0
  7  8  2  0
  8  9  1  0
  9 10  1  0
 10 11  1  0
 11 12  1  0
 12 13  1  0
 13 14  1  0
 14 15  1  0
 13 16  1  0
 12 17  1  0
 17 18  1  0
 18 19  1  0
 19 20  2  0
 19 21  1  0
 21 22  1  0
 22 23  2  0
 22 24  1  0
 22 25  1  0
 19 26  1  0
  9  3  1  0
 14 10  1  0
  1 27  1  0
  1 28  1  0
  1 29  1  0
  2 30  1  0
  7 31  1  0
  8 32  1  0
 10 33  1  6
 12 34  1  6
 13 35  1  1
 14 36  1  1
 15 37  1  0
 16 38  1  0
 17 39  1  0
 17 40  1  0
 24 41  1  0
 25 42  1  0
 26 43  1  0
M  END
>  <Ligand ID>  (1) 
LIG0004685

>  <Ligand>  (1) 
CHEMBL1767416

>  <SMILES>  (1) 
CNc1nc(=O)ccn1[C@@H]1O[C@@H]([C@H]([C@H]1O)O)COP(=O)(OP(=O)(O)O)O

>  <CID>  (1) 
52952393.0

>  <ChEMBL ID>  (1) 
nan

>  <InChiKey>  (1) 
AIHLUFHMTBEKOV-ZOQUXTDFSA-N

>  <InChi>  (1) 
InChI=1S/C10H17N3O11P2/c1-11-10-12-6(14)2-3-13(10)9-8(16)7(15)5(23-9)4-22-26(20,21)24-25(17,18)19/h2-3,5,7-9,15-16H,4H2,1H3,(H,20,21)(H,11,12,14)(H2,17,18,19)/t5-,7-,8-,9-/m1/s1

>  <IUPAC Name>  (1) 
[(2R,3S,4R,5R)-3,4-dihydroxy-5-[2-(methylamino)-4-oxopyrimidin-1-yl]oxolan-2-yl]methyl phosphono hydrogen phosphate

$$$$
