
     RDKit          3D

 73 76  0  0  0  0  0  0  0  0999 V2000
    8.0124    1.9453    3.6535 O   0  0  0  0  0  0  0  0  0  0  0  0
    7.0334    1.3105    2.8850 C   0  0  0  0  0  0  0  0  0  0  0  0
    6.4043    0.1748    3.3633 C   0  0  0  0  0  0  0  0  0  0  0  0
    5.4255   -0.4803    2.6215 C   0  0  0  0  0  0  0  0  0  0  0  0
    5.0992    0.0400    1.3873 C   0  0  0  0  0  0  0  0  0  0  0  0
    5.7334    1.1773    0.9154 C   0  0  0  0  0  0  0  0  0  0  0  0
    6.7014    1.8244    1.6500 C   0  0  0  0  0  0  0  0  0  0  0  0
    5.2985    1.6517   -0.4370 C   0  0  0  0  0  0  0  0  0  0  0  0
    3.8740    1.7371   -0.4009 N   0  0  0  0  0  0  0  0  0  0  0  0
    3.1730    0.5834    0.0483 C   0  0  2  0  0  0  0  0  0  0  0  0
    4.0747   -0.5638    0.4936 C   0  0  0  0  0  0  0  0  0  0  0  0
    2.2945    0.1047   -1.0696 C   0  0  0  0  0  0  0  0  0  0  0  0
    2.3188    0.7529   -2.1647 O   0  0  0  0  0  0  0  0  0  0  0  0
    1.4523   -1.0398   -0.9270 N   0  0  0  0  0  0  0  0  0  0  0  0
    0.6515   -1.4167   -2.0577 C   0  0  1  0  0  0  0  0  0  0  0  0
    1.2330   -2.7145   -2.5876 C   0  0  0  0  0  0  0  0  0  0  0  0
    1.2254   -3.8387   -1.6091 C   0  0  0  0  0  0  0  0  0  0  0  0
    0.6039   -3.0736   -3.9301 C   0  0  0  0  0  0  0  0  0  0  0  0
   -0.7874   -1.5213   -1.7156 C   0  0  0  0  0  0  0  0  0  0  0  0
   -1.3214   -0.3094   -1.2528 N   0  0  0  0  0  0  0  0  0  0  0  0
   -0.9671    0.2218   -0.0111 C   0  0  0  0  0  0  0  0  0  0  0  0
   -2.1565    0.9242    0.6650 C   0  0  0  0  0  0  0  0  0  0  0  0
   -3.4348    0.1860    0.3526 C   0  0  1  0  0  0  0  0  0  0  0  0
   -3.6786    0.3731   -1.1340 C   0  0  2  0  0  0  0  0  0  0  0  0
   -2.4373    0.2392   -1.9419 C   0  0  0  0  0  0  0  0  0  0  0  0
   -4.2944    1.7284   -1.4142 C   0  0  0  0  0  0  0  0  0  0  0  0
   -3.3300   -1.2859    0.6873 C   0  0  0  0  0  0  0  0  0  0  0  0
   -4.5431    0.7547    1.1583 C   0  0  0  0  0  0  0  0  0  0  0  0
   -5.8005    0.1580    0.9852 C   0  0  0  0  0  0  0  0  0  0  0  0
   -6.9064    0.6085    1.6834 C   0  0  0  0  0  0  0  0  0  0  0  0
   -6.7395    1.6624    2.5560 C   0  0  0  0  0  0  0  0  0  0  0  0
   -5.5165    2.2698    2.7477 C   0  0  0  0  0  0  0  0  0  0  0  0
   -4.4235    1.7924    2.0297 C   0  0  0  0  0  0  0  0  0  0  0  0
   -5.3942    3.3358    3.6431 O   0  0  0  0  0  0  0  0  0  0  0  0
    7.9756    2.9692    3.6392 H   0  0  0  0  0  0  0  0  0  0  0  0
    6.6803   -0.2138    4.3382 H   0  0  0  0  0  0  0  0  0  0  0  0
    4.9215   -1.3700    2.9771 H   0  0  0  0  0  0  0  0  0  0  0  0
    7.1694    2.7018    1.2493 H   0  0  0  0  0  0  0  0  0  0  0  0
    5.6614    1.0124   -1.2564 H   0  0  0  0  0  0  0  0  0  0  0  0
    5.6771    2.6938   -0.5653 H   0  0  0  0  0  0  0  0  0  0  0  0
    3.4237    2.2132   -1.1939 H   0  0  0  0  0  0  0  0  0  0  0  0
    2.4866    0.7885    0.9052 H   0  0  0  0  0  0  0  0  0  0  0  0
    4.6293   -0.9613   -0.3768 H   0  0  0  0  0  0  0  0  0  0  0  0
    3.4498   -1.3029    0.9932 H   0  0  0  0  0  0  0  0  0  0  0  0
    1.4814   -1.5261   -0.0125 H   0  0  0  0  0  0  0  0  0  0  0  0
    0.7495   -0.6884   -2.8956 H   0  0  0  0  0  0  0  0  0  0  0  0
    2.3050   -2.4695   -2.8141 H   0  0  0  0  0  0  0  0  0  0  0  0
    2.1528   -4.4735   -1.7141 H   0  0  0  0  0  0  0  0  0  0  0  0
    0.3945   -4.5571   -1.7875 H   0  0  0  0  0  0  0  0  0  0  0  0
    1.2631   -3.4571   -0.5804 H   0  0  0  0  0  0  0  0  0  0  0  0
    0.5341   -2.1014   -4.4862 H   0  0  0  0  0  0  0  0  0  0  0  0
   -0.3992   -3.5227   -3.8002 H   0  0  0  0  0  0  0  0  0  0  0  0
    1.2924   -3.6924   -4.5317 H   0  0  0  0  0  0  0  0  0  0  0  0
   -0.9420   -2.3833   -0.9856 H   0  0  0  0  0  0  0  0  0  0  0  0
   -1.3790   -1.8854   -2.6126 H   0  0  0  0  0  0  0  0  0  0  0  0
   -0.5195   -0.5161    0.7049 H   0  0  0  0  0  0  0  0  0  0  0  0
   -0.2177    1.0300   -0.1266 H   0  0  0  0  0  0  0  0  0  0  0  0
   -2.2446    1.9060    0.1570 H   0  0  0  0  0  0  0  0  0  0  0  0
   -1.9449    1.0169    1.7346 H   0  0  0  0  0  0  0  0  0  0  0  0
   -4.4359   -0.4012   -1.4634 H   0  0  0  0  0  0  0  0  0  0  0  0
   -2.6091   -0.4009   -2.8406 H   0  0  0  0  0  0  0  0  0  0  0  0
   -2.1368    1.2317   -2.3349 H   0  0  0  0  0  0  0  0  0  0  0  0
   -3.4598    2.4889   -1.4419 H   0  0  0  0  0  0  0  0  0  0  0  0
   -4.7903    1.7728   -2.3859 H   0  0  0  0  0  0  0  0  0  0  0  0
   -4.9534    2.0845   -0.5959 H   0  0  0  0  0  0  0  0  0  0  0  0
   -3.2485   -1.8972   -0.2356 H   0  0  0  0  0  0  0  0  0  0  0  0
   -2.5243   -1.5263    1.4011 H   0  0  0  0  0  0  0  0  0  0  0  0
   -4.2671   -1.6155    1.1717 H   0  0  0  0  0  0  0  0  0  0  0  0
   -5.9398   -0.6579    0.3119 H   0  0  0  0  0  0  0  0  0  0  0  0
   -7.8667    0.1285    1.5298 H   0  0  0  0  0  0  0  0  0  0  0  0
   -7.5992    2.0192    3.1042 H   0  0  0  0  0  0  0  0  0  0  0  0
   -3.4819    2.2582    2.1746 H   0  0  0  0  0  0  0  0  0  0  0  0
   -6.1662    3.9920    3.7731 H   0  0  0  0  0  0  0  0  0  0  0  0
  1  2  1  0
  2  3  2  0
  3  4  1  0
  4  5  2  0
  5  6  1  0
  6  7  2  0
  6  8  1  0
  8  9  1  0
  9 10  1  0
 10 11  1  0
 10 12  1  0
 12 13  2  0
 12 14  1  0
 14 15  1  0
 15 16  1  0
 16 17  1  0
 16 18  1  0
 15 19  1  0
 19 20  1  0
 20 21  1  0
 21 22  1  0
 22 23  1  0
 23 24  1  0
 24 25  1  0
 24 26  1  0
 23 27  1  6
 23 28  1  0
 28 29  2  0
 29 30  1  0
 30 31  2  0
 31 32  1  0
 32 33  2  0
 32 34  1  0
  7  2  1  0
 25 20  1  0
 33 28  1  0
 11  5  1  0
  1 35  1  0
  3 36  1  0
  4 37  1  0
  7 38  1  0
  8 39  1  0
  8 40  1  0
  9 41  1  0
 10 42  1  1
 11 43  1  0
 11 44  1  0
 14 45  1  0
 15 46  1  6
 16 47  1  0
 17 48  1  0
 17 49  1  0
 17 50  1  0
 18 51  1  0
 18 52  1  0
 18 53  1  0
 19 54  1  0
 19 55  1  0
 21 56  1  0
 21 57  1  0
 22 58  1  0
 22 59  1  0
 24 60  1  6
 25 61  1  0
 25 62  1  0
 26 63  1  0
 26 64  1  0
 26 65  1  0
 27 66  1  0
 27 67  1  0
 27 68  1  0
 29 69  1  0
 30 70  1  0
 31 71  1  0
 33 72  1  0
 34 73  1  0
M  END
>  <Ligand ID>  (1) 
LIG0002302

>  <Ligand>  (1) 
JDTic

>  <SMILES>  (1) 
Oc1ccc2c(c1)CN[C@H](C2)C(=O)N[C@@H](C(C)C)CN1CC[C@@]([C@H](C1)C)(C)c1cccc(c1)O

>  <CID>  (1) 
9956146.0

>  <ChEMBL ID>  (1) 
nan

>  <InChiKey>  (1) 
ZLVXBBHTMQJRSX-VMGNSXQWSA-N

>  <InChi>  (1) 
InChI=1S/C28H39N3O3/c1-18(2)26(30-27(34)25-13-20-8-9-24(33)12-21(20)15-29-25)17-31-11-10-28(4,19(3)16-31)22-6-5-7-23(32)14-22/h5-9,12,14,18-19,25-26,29,32-33H,10-11,13,15-17H2,1-4H3,(H,30,34)/t19-,25+,26+,28+/m0/s1

>  <IUPAC Name>  (1) 
(3R)-7-hydroxy-N-[(2S)-1-[(3R,4R)-4-(3-hydroxyphenyl)-3,4-dimethylpiperidin-1-yl]-3-methylbutan-2-yl]-1,2,3,4-tetrahydroisoquinoline-3-carboxamide

$$$$
