
     RDKit          3D

 60 62  0  0  0  0  0  0  0  0999 V2000
   -6.7716    1.0820    1.8125 C   0  0  0  0  0  0  0  0  0  0  0  0
   -7.4016   -0.2997    1.6509 C   0  0  0  0  0  0  0  0  0  0  0  0
   -6.1608   -1.5834    1.9903 S   0  0  0  0  0  0  0  0  0  0  0  0
   -4.9009   -1.5632    0.7244 C   0  0  0  0  0  0  0  0  0  0  0  0
   -3.8475   -0.6823    0.9097 C   0  0  0  0  0  0  0  0  0  0  0  0
   -2.8306   -0.6140   -0.0210 C   0  0  0  0  0  0  0  0  0  0  0  0
   -2.9259   -1.4622   -1.1264 C   0  0  0  0  0  0  0  0  0  0  0  0
   -3.9790   -2.3308   -1.2935 C   0  0  0  0  0  0  0  0  0  0  0  0
   -4.9975   -2.3930   -0.3538 C   0  0  0  0  0  0  0  0  0  0  0  0
   -6.0972   -3.3287   -0.5469 C   0  0  0  0  0  0  0  0  0  0  0  0
   -7.0460   -3.4725    0.2410 O   0  0  0  0  0  0  0  0  0  0  0  0
   -6.1089   -4.1356   -1.6953 O   0  0  0  0  0  0  0  0  0  0  0  0
   -1.6981    0.2793    0.0832 C   0  0  0  0  0  0  0  0  0  0  0  0
   -1.1309    0.7313   -1.0953 C   0  0  0  0  0  0  0  0  0  0  0  0
   -0.0478    1.5832   -1.0927 C   0  0  0  0  0  0  0  0  0  0  0  0
    0.4672    1.9824    0.1464 C   0  0  0  0  0  0  0  0  0  0  0  0
   -0.0761    1.5504    1.3375 C   0  0  0  0  0  0  0  0  0  0  0  0
   -1.1625    0.6956    1.2975 C   0  0  0  0  0  0  0  0  0  0  0  0
    1.6718    2.8938    0.1272 C   0  0  0  0  0  0  0  0  0  0  0  0
    2.8559    1.8891    0.1640 C   0  0  0  0  0  0  0  0  0  0  0  0
    4.1048    2.5561    0.1470 N   0  0  0  0  0  0  0  0  0  0  0  0
    5.2247    1.6934    0.3425 C   0  0  0  0  0  0  0  0  0  0  0  0
    5.4640    0.7642   -0.7799 C   0  0  1  0  0  0  0  0  0  0  0  0
    6.7063   -0.0540   -0.5543 C   0  0  0  0  0  0  0  0  0  0  0  0
    6.9766   -1.0747   -1.4734 C   0  0  0  0  0  0  0  0  0  0  0  0
    8.1094   -1.8790   -1.3091 C   0  0  0  0  0  0  0  0  0  0  0  0
    8.9250   -1.6238   -0.2276 C   0  0  0  0  0  0  0  0  0  0  0  0
    8.6565   -0.6116    0.6836 C   0  0  0  0  0  0  0  0  0  0  0  0
    7.5407    0.1842    0.5258 C   0  0  0  0  0  0  0  0  0  0  0  0
    4.4132   -0.0950   -1.0278 O   0  0  0  0  0  0  0  0  0  0  0  0
   -7.9004   -0.3628    0.2252 C   0  0  0  0  0  0  0  0  0  0  0  0
   -7.5475    1.7956    2.1025 H   0  0  0  0  0  0  0  0  0  0  0  0
   -6.3449    1.3760    0.8399 H   0  0  0  0  0  0  0  0  0  0  0  0
   -5.9931    0.9943    2.6070 H   0  0  0  0  0  0  0  0  0  0  0  0
   -8.2447   -0.3549    2.3421 H   0  0  0  0  0  0  0  0  0  0  0  0
   -3.7807   -0.0311    1.7657 H   0  0  0  0  0  0  0  0  0  0  0  0
   -2.1683   -1.4775   -1.9077 H   0  0  0  0  0  0  0  0  0  0  0  0
   -4.0501   -2.9883   -2.1532 H   0  0  0  0  0  0  0  0  0  0  0  0
   -6.6947   -4.9655   -1.7726 H   0  0  0  0  0  0  0  0  0  0  0  0
   -1.5055    0.4438   -2.0752 H   0  0  0  0  0  0  0  0  0  0  0  0
    0.3899    1.9342   -2.0249 H   0  0  0  0  0  0  0  0  0  0  0  0
    0.3515    1.8846    2.2763 H   0  0  0  0  0  0  0  0  0  0  0  0
   -1.6065    0.3417    2.2054 H   0  0  0  0  0  0  0  0  0  0  0  0
    1.7060    3.3998   -0.8524 H   0  0  0  0  0  0  0  0  0  0  0  0
    1.7009    3.5812    0.9691 H   0  0  0  0  0  0  0  0  0  0  0  0
    2.6681    1.2627    1.0386 H   0  0  0  0  0  0  0  0  0  0  0  0
    2.7445    1.3274   -0.8155 H   0  0  0  0  0  0  0  0  0  0  0  0
    4.2113    3.2748   -0.5823 H   0  0  0  0  0  0  0  0  0  0  0  0
    5.0152    1.0977    1.2636 H   0  0  0  0  0  0  0  0  0  0  0  0
    6.1086    2.3602    0.5012 H   0  0  0  0  0  0  0  0  0  0  0  0
    5.6617    1.3329   -1.7372 H   0  0  0  0  0  0  0  0  0  0  0  0
    6.3461   -1.2811   -2.3198 H   0  0  0  0  0  0  0  0  0  0  0  0
    8.3281   -2.6769   -2.0151 H   0  0  0  0  0  0  0  0  0  0  0  0
    9.8072   -2.2663   -0.1189 H   0  0  0  0  0  0  0  0  0  0  0  0
    9.3167   -0.4203    1.5422 H   0  0  0  0  0  0  0  0  0  0  0  0
    7.3461    0.9617    1.2403 H   0  0  0  0  0  0  0  0  0  0  0  0
    4.2127   -0.1876   -1.9967 H   0  0  0  0  0  0  0  0  0  0  0  0
   -7.0296   -0.4411   -0.4761 H   0  0  0  0  0  0  0  0  0  0  0  0
   -8.5831   -1.1833    0.0093 H   0  0  0  0  0  0  0  0  0  0  0  0
   -8.3989    0.5867   -0.0498 H   0  0  0  0  0  0  0  0  0  0  0  0
  1  2  1  0
  2  3  1  0
  3  4  1  0
  4  5  2  0
  5  6  1  0
  6  7  2  0
  7  8  1  0
  8  9  2  0
  9 10  1  0
 10 11  2  0
 10 12  1  0
  6 13  1  0
 13 14  2  0
 14 15  1  0
 15 16  2  0
 16 17  1  0
 17 18  2  0
 16 19  1  0
 19 20  1  0
 20 21  1  0
 21 22  1  0
 22 23  1  0
 23 24  1  0
 24 25  2  0
 25 26  1  0
 26 27  2  0
 27 28  1  0
 28 29  2  0
 23 30  1  0
  2 31  1  0
  9  4  1  0
 18 13  1  0
 29 24  1  0
  1 32  1  0
  1 33  1  0
  1 34  1  0
  2 35  1  0
  5 36  1  0
  7 37  1  0
  8 38  1  0
 12 39  1  0
 14 40  1  0
 15 41  1  0
 17 42  1  0
 18 43  1  0
 19 44  1  0
 19 45  1  0
 20 46  1  0
 20 47  1  0
 21 48  1  0
 22 49  1  0
 22 50  1  0
 23 51  1  6
 25 52  1  0
 26 53  1  0
 27 54  1  0
 28 55  1  0
 29 56  1  0
 30 57  1  0
 31 58  1  0
 31 59  1  0
 31 60  1  0
M  END
>  <Ligand ID>  (1) 
LIG0001544

>  <Ligand>  (1) 
CHEMBL271574

>  <SMILES>  (1) 
CC(Sc1cc(ccc1C(=O)O)c1ccc(cc1)CCNC[C@@H](c1ccccc1)O)C

>  <CID>  (1) 
11453340.0

>  <ChEMBL ID>  (1) 
nan

>  <InChiKey>  (1) 
FYONCJXSNAVJFY-DEOSSOPVSA-N

>  <InChi>  (1) 
InChI=1S/C26H29NO3S/c1-18(2)31-25-16-22(12-13-23(25)26(29)30)20-10-8-19(9-11-20)14-15-27-17-24(28)21-6-4-3-5-7-21/h3-13,16,18,24,27-28H,14-15,17H2,1-2H3,(H,29,30)/t24-/m0/s1

>  <IUPAC Name>  (1) 
4-[4-[2-[[(2R)-2-hydroxy-2-phenylethyl]amino]ethyl]phenyl]-2-propan-2-ylsulfanylbenzoic acid

$$$$
