
     RDKit          3D

 74 73  0  0  0  0  0  0  0  0999 V2000
   -7.6214    2.0214   -2.9464 C   0  0  0  0  0  0  0  0  0  0  0  0
   -8.0064    1.8693   -1.4796 C   0  0  0  0  0  0  0  0  0  0  0  0
   -6.9077    2.5525   -0.6756 C   0  0  0  0  0  0  0  0  0  0  0  0
   -7.2631    2.4229    0.7823 C   0  0  0  0  0  0  0  0  0  0  0  0
   -7.3830    0.9937    1.2241 C   0  0  0  0  0  0  0  0  0  0  0  0
   -6.0131    0.3269    0.9807 C   0  0  0  0  0  0  0  0  0  0  0  0
   -6.0490   -1.0723    1.4041 C   0  0  0  0  0  0  0  0  0  0  0  0
   -5.3176   -1.7159    2.2568 C   0  0  0  0  0  0  0  0  0  0  0  0
   -4.2079   -1.3872    3.1104 C   0  0  0  0  0  0  0  0  0  0  0  0
   -3.4637   -0.1538    3.1418 C   0  0  0  0  0  0  0  0  0  0  0  0
   -2.6301    0.4115    2.0890 C   0  0  0  0  0  0  0  0  0  0  0  0
   -1.4429   -0.3450    1.5939 C   0  0  0  0  0  0  0  0  0  0  0  0
   -1.7607   -1.5953    0.8972 C   0  0  0  0  0  0  0  0  0  0  0  0
   -0.5026   -2.3038    0.3693 C   0  0  0  0  0  0  0  0  0  0  0  0
    0.2625   -1.4428   -0.6063 C   0  0  0  0  0  0  0  0  0  0  0  0
    1.4438   -2.2684   -1.0226 C   0  0  0  0  0  0  0  0  0  0  0  0
    1.3337   -3.1532   -1.9315 O   0  0  0  0  0  0  0  0  0  0  0  0
    2.6978   -2.1071   -0.4413 O   0  0  0  0  0  0  0  0  0  0  0  0
    3.7893   -2.8844   -0.8401 C   0  0  0  0  0  0  0  0  0  0  0  0
    4.9892   -2.4678   -0.0174 C   0  0  0  0  0  0  0  0  0  0  0  0
    5.2626   -1.0116   -0.2646 C   0  0  0  0  0  0  0  0  0  0  0  0
    5.5241   -0.8067   -1.6067 O   0  0  0  0  0  0  0  0  0  0  0  0
    5.8508    0.8181   -1.9556 P   0  0  0  0  0  0  0  0  0  0  0  0
    5.5204    1.6247   -0.7305 O   0  0  0  0  0  0  0  0  0  0  0  0
    7.5030    0.9358   -2.3677 O   0  0  0  0  0  0  0  0  0  0  0  0
    8.2423    1.3098   -1.2509 C   0  0  0  0  0  0  0  0  0  0  0  0
    9.7172    1.3754   -1.5937 C   0  0  1  0  0  0  0  0  0  0  0  0
   10.4336    1.7791   -0.3409 C   0  0  0  0  0  0  0  0  0  0  0  0
   10.1716    2.8819    0.2142 O   0  0  0  0  0  0  0  0  0  0  0  0
   11.3985    0.9405    0.2262 O   0  0  0  0  0  0  0  0  0  0  0  0
   10.1844    0.0769   -2.0475 N   0  0  0  0  0  0  0  0  0  0  0  0
    4.9418    1.2909   -3.2978 O   0  0  0  0  0  0  0  0  0  0  0  0
   -8.0169    2.9900   -3.3144 H   0  0  0  0  0  0  0  0  0  0  0  0
   -8.0919    1.1597   -3.4921 H   0  0  0  0  0  0  0  0  0  0  0  0
   -6.5247    1.9701   -3.0043 H   0  0  0  0  0  0  0  0  0  0  0  0
   -8.0271    0.7958   -1.2607 H   0  0  0  0  0  0  0  0  0  0  0  0
   -8.9503    2.3979   -1.2533 H   0  0  0  0  0  0  0  0  0  0  0  0
   -6.9024    3.6492   -0.9239 H   0  0  0  0  0  0  0  0  0  0  0  0
   -5.9053    2.1984   -0.8980 H   0  0  0  0  0  0  0  0  0  0  0  0
   -8.1664    3.0213    1.0272 H   0  0  0  0  0  0  0  0  0  0  0  0
   -6.3704    2.8399    1.3383 H   0  0  0  0  0  0  0  0  0  0  0  0
   -7.6159    1.0111    2.3055 H   0  0  0  0  0  0  0  0  0  0  0  0
   -8.1980    0.4380    0.7259 H   0  0  0  0  0  0  0  0  0  0  0  0
   -5.8372    0.3697   -0.0989 H   0  0  0  0  0  0  0  0  0  0  0  0
   -5.3268    0.9873    1.5041 H   0  0  0  0  0  0  0  0  0  0  0  0
   -6.8519   -1.6781    0.8942 H   0  0  0  0  0  0  0  0  0  0  0  0
   -5.6412   -2.8199    2.3562 H   0  0  0  0  0  0  0  0  0  0  0  0
   -4.6013   -1.4774    4.2393 H   0  0  0  0  0  0  0  0  0  0  0  0
   -3.5286   -2.2884    3.1546 H   0  0  0  0  0  0  0  0  0  0  0  0
   -4.1455    0.7066    3.5578 H   0  0  0  0  0  0  0  0  0  0  0  0
   -2.7554   -0.2100    4.0768 H   0  0  0  0  0  0  0  0  0  0  0  0
   -2.2210    1.4182    2.5237 H   0  0  0  0  0  0  0  0  0  0  0  0
   -3.1998    0.8339    1.2044 H   0  0  0  0  0  0  0  0  0  0  0  0
   -0.7622   -0.6244    2.4729 H   0  0  0  0  0  0  0  0  0  0  0  0
   -0.8286    0.3613    0.9454 H   0  0  0  0  0  0  0  0  0  0  0  0
   -2.4304   -1.3724    0.0418 H   0  0  0  0  0  0  0  0  0  0  0  0
   -2.2216   -2.3385    1.5435 H   0  0  0  0  0  0  0  0  0  0  0  0
   -0.8262   -3.2072   -0.1862 H   0  0  0  0  0  0  0  0  0  0  0  0
    0.1543   -2.5666    1.2069 H   0  0  0  0  0  0  0  0  0  0  0  0
    0.7047   -0.5459   -0.0835 H   0  0  0  0  0  0  0  0  0  0  0  0
   -0.3256   -1.1409   -1.4757 H   0  0  0  0  0  0  0  0  0  0  0  0
    3.5397   -3.9491   -0.5613 H   0  0  0  0  0  0  0  0  0  0  0  0
    3.9780   -2.7980   -1.9297 H   0  0  0  0  0  0  0  0  0  0  0  0
    5.8560   -3.1115   -0.1478 H   0  0  0  0  0  0  0  0  0  0  0  0
    4.6481   -2.5306    1.0561 H   0  0  0  0  0  0  0  0  0  0  0  0
    4.3763   -0.4028   -0.0184 H   0  0  0  0  0  0  0  0  0  0  0  0
    6.1389   -0.6889    0.3352 H   0  0  0  0  0  0  0  0  0  0  0  0
    7.8590    2.2748   -0.8813 H   0  0  0  0  0  0  0  0  0  0  0  0
    8.0787    0.5216   -0.4891 H   0  0  0  0  0  0  0  0  0  0  0  0
    9.9376    2.1284   -2.3529 H   0  0  0  0  0  0  0  0  0  0  0  0
   11.4715    0.8960    1.2375 H   0  0  0  0  0  0  0  0  0  0  0  0
   10.5063    0.0889   -3.0501 H   0  0  0  0  0  0  0  0  0  0  0  0
   11.0426   -0.1755   -1.5004 H   0  0  0  0  0  0  0  0  0  0  0  0
    5.2834    2.1328   -3.6989 H   0  0  0  0  0  0  0  0  0  0  0  0
  1  2  1  0
  2  3  1  0
  3  4  1  0
  4  5  1  0
  5  6  1  0
  6  7  1  0
  7  8  2  0
  8  9  1  0
  9 10  1  0
 10 11  1  0
 11 12  1  0
 12 13  1  0
 13 14  1  0
 14 15  1  0
 15 16  1  0
 16 17  2  0
 16 18  1  0
 18 19  1  0
 19 20  1  0
 20 21  1  0
 21 22  1  0
 22 23  1  0
 23 24  2  0
 23 25  1  0
 25 26  1  0
 26 27  1  0
 27 28  1  0
 28 29  2  0
 28 30  1  0
 27 31  1  0
 23 32  1  0
  1 33  1  0
  1 34  1  0
  1 35  1  0
  2 36  1  0
  2 37  1  0
  3 38  1  0
  3 39  1  0
  4 40  1  0
  4 41  1  0
  5 42  1  0
  5 43  1  0
  6 44  1  0
  6 45  1  0
  7 46  1  0
  8 47  1  0
  9 48  1  0
  9 49  1  0
 10 50  1  0
 10 51  1  0
 11 52  1  0
 11 53  1  0
 12 54  1  0
 12 55  1  0
 13 56  1  0
 13 57  1  0
 14 58  1  0
 14 59  1  0
 15 60  1  0
 15 61  1  0
 19 62  1  0
 19 63  1  0
 20 64  1  0
 20 65  1  0
 21 66  1  0
 21 67  1  0
 26 68  1  0
 26 69  1  0
 27 70  1  6
 30 71  1  0
 31 72  1  0
 31 73  1  0
 32 74  1  0
M  END
>  <Ligand ID>  (1) 
LIG0004208

>  <Ligand>  (1) 
CHEMBL3577149

>  <SMILES>  (1) 
CCCCCC/C=C\CCCCCCCC(=O)OCCCOP(=O)(OC[C@@H](C(=O)O)N)O

>  <CID>  (1) 
122177497.0

>  <ChEMBL ID>  (1) 
nan

>  <InChiKey>  (1) 
CZDMDSMYEOVSIH-AQWUKCDYSA-N

>  <InChi>  (1) 
InChI=1S/C22H42NO8P/c1-2-3-4-5-6-7-8-9-10-11-12-13-14-16-21(24)29-17-15-18-30-32(27,28)31-19-20(23)22(25)26/h7-8,20H,2-6,9-19,23H2,1H3,(H,25,26)(H,27,28)/b8-7-/t20-/m0/s1

>  <IUPAC Name>  (1) 
(2S)-2-amino-3-[3-[(Z)-hexadec-9-enoyl]oxypropoxy-hydroxyphosphoryl]oxypropanoic acid

$$$$
