
     RDKit          3D

 33 36  0  0  0  0  0  0  0  0999 V2000
    0.4353   -2.5332   -0.6082 C   0  0  0  0  0  0  0  0  0  0  0  0
   -0.6710   -1.8705   -0.1588 C   0  0  0  0  0  0  0  0  0  0  0  0
   -0.5632   -0.5801    0.3433 C   0  0  0  0  0  0  0  0  0  0  0  0
    0.6648    0.0471    0.3936 C   0  0  0  0  0  0  0  0  0  0  0  0
    1.7796   -0.6230   -0.0602 C   0  0  0  0  0  0  0  0  0  0  0  0
    1.6618   -1.9226   -0.5643 C   0  0  0  0  0  0  0  0  0  0  0  0
    3.1195   -0.0599   -0.0578 C   0  0  0  0  0  0  0  0  0  0  0  0
    3.5855    1.1622   -0.4593 C   0  0  0  0  0  0  0  0  0  0  0  0
    4.9280    1.1970   -0.2458 N   0  0  0  0  0  0  0  0  0  0  0  0
    5.3221    0.0459    0.2732 N   0  0  0  0  0  0  0  0  0  0  0  0
    4.2461   -0.7504    0.4040 C   0  0  0  0  0  0  0  0  0  0  0  0
    0.4678    1.3953    0.9734 C   0  0  0  0  0  0  0  0  0  0  0  0
   -1.0129    1.6776    0.6811 C   0  0  0  0  0  0  0  0  0  0  0  0
   -1.6156    0.3187    0.8795 C   0  0  0  0  0  0  0  0  0  0  0  0
   -2.9201    0.1436    0.2007 C   0  0  0  0  0  0  0  0  0  0  0  0
   -3.8475   -0.7489    0.6463 N   0  0  0  0  0  0  0  0  0  0  0  0
   -4.9130   -0.6747   -0.1707 C   0  0  0  0  0  0  0  0  0  0  0  0
   -4.6582    0.2702   -1.1388 C   0  0  0  0  0  0  0  0  0  0  0  0
   -3.4230    0.7574   -0.8844 N   0  0  0  0  0  0  0  0  0  0  0  0
    0.3661   -3.5307   -0.9986 H   0  0  0  0  0  0  0  0  0  0  0  0
   -1.6437   -2.3350   -0.1857 H   0  0  0  0  0  0  0  0  0  0  0  0
    2.5413   -2.4542   -0.9235 H   0  0  0  0  0  0  0  0  0  0  0  0
    2.9837    1.9562   -0.8751 H   0  0  0  0  0  0  0  0  0  0  0  0
    5.5733    1.9941   -0.4498 H   0  0  0  0  0  0  0  0  0  0  0  0
    4.2695   -1.7694    0.8083 H   0  0  0  0  0  0  0  0  0  0  0  0
    0.5214    1.3148    2.0952 H   0  0  0  0  0  0  0  0  0  0  0  0
    1.1000    2.1788    0.5673 H   0  0  0  0  0  0  0  0  0  0  0  0
   -1.4054    2.4473    1.3482 H   0  0  0  0  0  0  0  0  0  0  0  0
   -1.0625    2.0240   -0.3721 H   0  0  0  0  0  0  0  0  0  0  0  0
   -1.7563    0.1861    1.9779 H   0  0  0  0  0  0  0  0  0  0  0  0
   -5.7911   -1.2979   -0.0169 H   0  0  0  0  0  0  0  0  0  0  0  0
   -5.3440    0.5447   -1.9386 H   0  0  0  0  0  0  0  0  0  0  0  0
   -2.9386    1.4893   -1.4384 H   0  0  0  0  0  0  0  0  0  0  0  0
  1  2  2  0
  2  3  1  0
  3  4  2  0
  4  5  1  0
  5  6  2  0
  5  7  1  0
  7  8  2  0
  8  9  1  0
  9 10  1  0
 10 11  2  0
  4 12  1  0
 12 13  1  0
 13 14  1  0
 14 15  1  0
 15 16  2  0
 16 17  1  0
 17 18  2  0
 18 19  1  0
  6  1  1  0
 11  7  1  0
 19 15  1  0
 14  3  1  0
  1 20  1  0
  2 21  1  0
  6 22  1  0
  8 23  1  0
  9 24  1  0
 11 25  1  0
 12 26  1  0
 12 27  1  0
 13 28  1  0
 13 29  1  0
 14 30  1  0
 17 31  1  0
 18 32  1  0
 19 33  1  0
M  END
>  <Ligand ID>  (1) 
LIG0001341

>  <Ligand>  (1) 
CHEMBL406316

>  <SMILES>  (1) 
c1cc2c(c(c1)c1c[nH]nc1)CCC2c1ncc[nH]1

>  <CID>  (1) 
44449730.0

>  <ChEMBL ID>  (1) 
nan

>  <InChiKey>  (1) 
ZXQIPWRUBBPGML-UHFFFAOYSA-N

>  <InChi>  (1) 
InChI=1S/C15H14N4/c1-2-11(10-8-18-19-9-10)13-4-5-14(12(13)3-1)15-16-6-7-17-15/h1-3,6-9,14H,4-5H2,(H,16,17)(H,18,19)

>  <IUPAC Name>  (1) 
2-[4-(1H-pyrazol-4-yl)-2,3-dihydro-1H-inden-1-yl]-1H-imidazole

$$$$
