
     RDKit          3D

141147  0  0  0  0  0  0  0  0999 V2000
   -2.7800    9.3721   -3.0314 N   0  0  0  0  0  0  0  0  0  0  0  0
   -3.0879    7.9907   -2.7994 C   0  0  0  0  0  0  0  0  0  0  0  0
   -2.4307    7.0330   -3.3885 N   0  0  0  0  0  0  0  0  0  0  0  0
   -2.8525    5.6754   -3.0567 C   0  0  0  0  0  0  0  0  0  0  0  0
   -2.1581    5.1871   -1.8081 C   0  0  0  0  0  0  0  0  0  0  0  0
   -2.5831    3.7749   -1.4088 C   0  0  0  0  0  0  0  0  0  0  0  0
   -1.8573    3.3608   -0.1456 C   0  0  2  0  0  0  0  0  0  0  0  0
   -0.4449    3.3750   -0.4246 N   0  0  0  0  0  0  0  0  0  0  0  0
    0.5296    4.1490    0.3111 C   0  0  0  0  0  0  0  0  0  0  0  0
    0.0439    4.7451    1.2863 O   0  0  0  0  0  0  0  0  0  0  0  0
    1.9251    4.2502   -0.0102 C   0  0  2  0  0  0  0  0  0  0  0  0
    2.0838    3.9535   -1.5237 C   0  0  0  0  0  0  0  0  0  0  0  0
    3.5860    4.1551   -1.6146 C   0  0  0  0  0  0  0  0  0  0  0  0
    4.0549    3.4870   -0.3427 C   0  0  0  0  0  0  0  0  0  0  0  0
    2.9260    3.4288    0.5428 N   0  0  0  0  0  0  0  0  0  0  0  0
    2.8468    2.6487    1.7444 C   0  0  0  0  0  0  0  0  0  0  0  0
    1.7176    2.6961    2.2699 O   0  0  0  0  0  0  0  0  0  0  0  0
    3.9920    1.8722    2.2918 C   0  0  1  0  0  0  0  0  0  0  0  0
    3.5475    1.4047    3.6861 C   0  0  0  0  0  0  0  0  0  0  0  0
    2.8601    0.0959    3.4470 C   0  0  0  0  0  0  0  0  0  0  0  0
    3.1028   -0.2137    1.9808 C   0  0  0  0  0  0  0  0  0  0  0  0
    4.2132    0.5755    1.6144 N   0  0  0  0  0  0  0  0  0  0  0  0
    5.3970    0.3313    0.8578 C   0  0  0  0  0  0  0  0  0  0  0  0
    6.2331    1.2584    1.0164 O   0  0  0  0  0  0  0  0  0  0  0  0
    5.7181   -0.7876    0.0030 C   0  0  2  0  0  0  0  0  0  0  0  0
    6.2484   -0.2685   -1.3238 C   0  0  0  0  0  0  0  0  0  0  0  0
    7.4544    0.5188   -1.2699 C   0  0  0  0  0  0  0  0  0  0  0  0
    7.5418    1.9016   -1.2412 C   0  0  0  0  0  0  0  0  0  0  0  0
    8.7557    2.5666   -1.1850 C   0  0  0  0  0  0  0  0  0  0  0  0
    9.9168    1.8455   -1.1567 C   0  0  0  0  0  0  0  0  0  0  0  0
    9.8892    0.4710   -1.1842 C   0  0  0  0  0  0  0  0  0  0  0  0
    8.6781   -0.1520   -1.2395 C   0  0  0  0  0  0  0  0  0  0  0  0
    4.6794   -1.7713   -0.2263 N   0  0  0  0  0  0  0  0  0  0  0  0
    4.8831   -3.1777   -0.3163 C   0  0  0  0  0  0  0  0  0  0  0  0
    6.0724   -3.5308   -0.2714 O   0  0  0  0  0  0  0  0  0  0  0  0
    3.7727   -4.1397   -0.4657 C   0  0  1  0  0  0  0  0  0  0  0  0
    2.5097   -3.6269   -0.0625 N   0  0  0  0  0  0  0  0  0  0  0  0
    1.2824   -4.3703    0.0910 C   0  0  0  0  0  0  0  0  0  0  0  0
    1.3203   -5.5266   -0.3214 O   0  0  0  0  0  0  0  0  0  0  0  0
    0.1776   -3.6407    0.6985 C   0  0  1  0  0  0  0  0  0  0  0  0
   -1.1662   -4.1164    0.5331 N   0  0  0  0  0  0  0  0  0  0  0  0
   -2.1734   -3.1077    0.6695 C   0  0  0  0  0  0  0  0  0  0  0  0
   -1.7345   -1.9782    0.9800 O   0  0  0  0  0  0  0  0  0  0  0  0
   -3.6273   -3.2391    0.5031 C   0  0  0  0  0  0  0  0  0  0  0  0
   -4.1719   -1.9477    1.0067 N   0  0  0  0  0  0  0  0  0  0  0  0
   -3.8230   -0.7086    0.4072 C   0  0  0  0  0  0  0  0  0  0  0  0
   -3.1977   -0.7426   -0.6477 O   0  0  0  0  0  0  0  0  0  0  0  0
   -4.2245    0.5711    1.0698 C   0  0  1  0  0  0  0  0  0  0  0  0
   -3.7921    1.7517    0.4041 N   0  0  0  0  0  0  0  0  0  0  0  0
   -2.3854    2.1016    0.3868 C   0  0  0  0  0  0  0  0  0  0  0  0
   -1.6470    1.2260    0.8592 O   0  0  0  0  0  0  0  0  0  0  0  0
   -5.6872    0.5744    1.2957 C   0  0  0  0  0  0  0  0  0  0  0  0
   -6.1301    1.8507    1.9548 C   0  0  0  0  0  0  0  0  0  0  0  0
   -6.0627    1.9644    3.3281 C   0  0  0  0  0  0  0  0  0  0  0  0
   -6.4867    3.1558    3.9243 C   0  0  0  0  0  0  0  0  0  0  0  0
   -6.9578    4.1806    3.1385 C   0  0  0  0  0  0  0  0  0  0  0  0
   -7.0373    4.0964    1.7666 C   0  0  0  0  0  0  0  0  0  0  0  0
   -6.6150    2.9117    1.1855 C   0  0  0  0  0  0  0  0  0  0  0  0
   -4.1274   -3.5597   -0.8454 C   0  0  0  0  0  0  0  0  0  0  0  0
   -3.6434   -4.8432   -1.4027 C   0  0  0  0  0  0  0  0  0  0  0  0
   -2.5962   -4.8533   -2.3097 C   0  0  0  0  0  0  0  0  0  0  0  0
   -2.0925   -6.0360   -2.8300 C   0  0  0  0  0  0  0  0  0  0  0  0
   -2.6209   -7.2572   -2.4606 C   0  0  0  0  0  0  0  0  0  0  0  0
   -3.6804   -7.2698   -1.5459 C   0  0  0  0  0  0  0  0  0  0  0  0
   -4.1563   -6.0749   -1.0493 C   0  0  0  0  0  0  0  0  0  0  0  0
   -5.2078   -6.1231   -0.1602 C   0  0  0  0  0  0  0  0  0  0  0  0
   -5.7701   -7.3349    0.2257 C   0  0  0  0  0  0  0  0  0  0  0  0
   -5.2736   -8.5122   -0.2850 C   0  0  0  0  0  0  0  0  0  0  0  0
   -4.2109   -8.4989   -1.1868 C   0  0  0  0  0  0  0  0  0  0  0  0
    0.3623   -3.6101    2.2425 C   0  0  0  0  0  0  0  0  0  0  0  0
    0.4001   -4.9332    2.8480 C   0  0  0  0  0  0  0  0  0  0  0  0
    0.5106   -4.9746    4.1305 O   0  0  0  0  0  0  0  0  0  0  0  0
    0.3320   -6.1776    2.2058 N   0  0  0  0  0  0  0  0  0  0  0  0
    3.7499   -4.3950   -2.0132 C   0  0  0  0  0  0  0  0  0  0  0  0
   -4.1547    7.7379   -1.8892 N   0  0  0  0  0  0  0  0  0  0  0  0
   -2.7251    9.7880   -3.9897 H   0  0  0  0  0  0  0  0  0  0  0  0
   -2.6113    9.9365   -2.1646 H   0  0  0  0  0  0  0  0  0  0  0  0
   -2.5249    5.0454   -3.9165 H   0  0  0  0  0  0  0  0  0  0  0  0
   -3.9422    5.5848   -2.9782 H   0  0  0  0  0  0  0  0  0  0  0  0
   -1.0593    5.1446   -2.0315 H   0  0  0  0  0  0  0  0  0  0  0  0
   -2.3373    5.8826   -0.9514 H   0  0  0  0  0  0  0  0  0  0  0  0
   -3.6807    3.8427   -1.2807 H   0  0  0  0  0  0  0  0  0  0  0  0
   -2.3944    3.0874   -2.2524 H   0  0  0  0  0  0  0  0  0  0  0  0
   -2.0845    4.1417    0.6668 H   0  0  0  0  0  0  0  0  0  0  0  0
   -0.0503    2.8155   -1.1761 H   0  0  0  0  0  0  0  0  0  0  0  0
    2.2366    5.3588    0.0674 H   0  0  0  0  0  0  0  0  0  0  0  0
    1.5018    4.7012   -2.0715 H   0  0  0  0  0  0  0  0  0  0  0  0
    1.8454    2.9117   -1.7342 H   0  0  0  0  0  0  0  0  0  0  0  0
    3.9702    3.6626   -2.5130 H   0  0  0  0  0  0  0  0  0  0  0  0
    3.7707    5.2407   -1.6539 H   0  0  0  0  0  0  0  0  0  0  0  0
    4.4143    2.4864   -0.6546 H   0  0  0  0  0  0  0  0  0  0  0  0
    4.8415    4.1201    0.1019 H   0  0  0  0  0  0  0  0  0  0  0  0
    4.8922    2.4831    2.3310 H   0  0  0  0  0  0  0  0  0  0  0  0
    4.4277    1.3479    4.3615 H   0  0  0  0  0  0  0  0  0  0  0  0
    2.8604    2.1681    4.1378 H   0  0  0  0  0  0  0  0  0  0  0  0
    1.7718    0.1358    3.6809 H   0  0  0  0  0  0  0  0  0  0  0  0
    3.3701   -0.6846    4.0729 H   0  0  0  0  0  0  0  0  0  0  0  0
    3.2756   -1.3156    1.8639 H   0  0  0  0  0  0  0  0  0  0  0  0
    2.1767    0.0609    1.4200 H   0  0  0  0  0  0  0  0  0  0  0  0
    6.5922   -1.3716    0.4270 H   0  0  0  0  0  0  0  0  0  0  0  0
    6.2837   -1.1329   -2.0425 H   0  0  0  0  0  0  0  0  0  0  0  0
    5.4188    0.4118   -1.6901 H   0  0  0  0  0  0  0  0  0  0  0  0
    6.6631    2.5172   -1.2814 H   0  0  0  0  0  0  0  0  0  0  0  0
    8.8376    3.6397   -1.1603 H   0  0  0  0  0  0  0  0  0  0  0  0
   10.8630    2.3618   -1.1120 H   0  0  0  0  0  0  0  0  0  0  0  0
   10.8335   -0.0533   -1.1627 H   0  0  0  0  0  0  0  0  0  0  0  0
    8.7018   -1.2520   -1.2621 H   0  0  0  0  0  0  0  0  0  0  0  0
    3.7333   -1.4373   -0.3735 H   0  0  0  0  0  0  0  0  0  0  0  0
    3.9362   -5.1471   -0.0819 H   0  0  0  0  0  0  0  0  0  0  0  0
    2.4037   -2.6320    0.1428 H   0  0  0  0  0  0  0  0  0  0  0  0
    0.2761   -2.5522    0.4506 H   0  0  0  0  0  0  0  0  0  0  0  0
   -1.4996   -5.0474    0.3357 H   0  0  0  0  0  0  0  0  0  0  0  0
   -4.0024   -3.9934    1.2384 H   0  0  0  0  0  0  0  0  0  0  0  0
   -4.8220   -1.8960    1.7911 H   0  0  0  0  0  0  0  0  0  0  0  0
   -3.7006    0.4631    2.0776 H   0  0  0  0  0  0  0  0  0  0  0  0
   -4.3807    2.4156   -0.0933 H   0  0  0  0  0  0  0  0  0  0  0  0
   -6.2690    0.5423    0.3218 H   0  0  0  0  0  0  0  0  0  0  0  0
   -6.0775   -0.3023    1.8560 H   0  0  0  0  0  0  0  0  0  0  0  0
   -5.6839    1.1400    3.9206 H   0  0  0  0  0  0  0  0  0  0  0  0
   -6.4351    3.2489    4.9905 H   0  0  0  0  0  0  0  0  0  0  0  0
   -7.2894    5.1080    3.5836 H   0  0  0  0  0  0  0  0  0  0  0  0
   -7.4161    4.9236    1.1640 H   0  0  0  0  0  0  0  0  0  0  0  0
   -6.6900    2.8558    0.1108 H   0  0  0  0  0  0  0  0  0  0  0  0
   -3.8120   -2.7679   -1.5675 H   0  0  0  0  0  0  0  0  0  0  0  0
   -5.2429   -3.5701   -0.8848 H   0  0  0  0  0  0  0  0  0  0  0  0
   -2.1778   -3.9016   -2.6046 H   0  0  0  0  0  0  0  0  0  0  0  0
   -1.2712   -6.0592   -3.5415 H   0  0  0  0  0  0  0  0  0  0  0  0
   -2.2218   -8.1893   -2.8729 H   0  0  0  0  0  0  0  0  0  0  0  0
   -5.6711   -5.2437    0.2771 H   0  0  0  0  0  0  0  0  0  0  0  0
   -6.5929   -7.3787    0.9232 H   0  0  0  0  0  0  0  0  0  0  0  0
   -5.7342   -9.4421    0.0397 H   0  0  0  0  0  0  0  0  0  0  0  0
   -3.8684   -9.4385   -1.5499 H   0  0  0  0  0  0  0  0  0  0  0  0
   -0.5326   -3.0745    2.6124 H   0  0  0  0  0  0  0  0  0  0  0  0
    1.2377   -2.9710    2.5128 H   0  0  0  0  0  0  0  0  0  0  0  0
   -0.5129   -6.6197    1.7976 H   0  0  0  0  0  0  0  0  0  0  0  0
    1.2417   -6.7219    2.1336 H   0  0  0  0  0  0  0  0  0  0  0  0
    3.3964   -3.5065   -2.5392 H   0  0  0  0  0  0  0  0  0  0  0  0
    3.2089   -5.3289   -2.2053 H   0  0  0  0  0  0  0  0  0  0  0  0
    4.8093   -4.5629   -2.3001 H   0  0  0  0  0  0  0  0  0  0  0  0
   -5.1568    7.6712   -2.1811 H   0  0  0  0  0  0  0  0  0  0  0  0
   -3.9869    7.6023   -0.8527 H   0  0  0  0  0  0  0  0  0  0  0  0
  1  2  1  0
  2  3  2  3
  3  4  1  0
  4  5  1  0
  5  6  1  0
  6  7  1  0
  7  8  1  0
  8  9  1  0
  9 10  2  0
  9 11  1  0
 11 12  1  0
 12 13  1  0
 13 14  1  0
 14 15  1  0
 15 16  1  0
 16 17  2  0
 16 18  1  0
 18 19  1  0
 19 20  1  0
 20 21  1  0
 21 22  1  0
 22 23  1  0
 23 24  2  0
 23 25  1  0
 25 26  1  0
 26 27  1  0
 27 28  2  0
 28 29  1  0
 29 30  2  0
 30 31  1  0
 31 32  2  0
 25 33  1  0
 33 34  1  0
 34 35  2  0
 34 36  1  0
 36 37  1  0
 37 38  1  0
 38 39  2  0
 38 40  1  0
 40 41  1  0
 41 42  1  0
 42 43  2  0
 42 44  1  0
 44 45  1  0
 45 46  1  0
 46 47  2  0
 46 48  1  0
 48 49  1  0
 49 50  1  0
 50 51  2  0
 48 52  1  0
 52 53  1  0
 53 54  2  0
 54 55  1  0
 55 56  2  0
 56 57  1  0
 57 58  2  0
 44 59  1  0
 59 60  1  0
 60 61  2  0
 61 62  1  0
 62 63  2  0
 63 64  1  0
 64 65  2  0
 65 66  1  0
 66 67  2  0
 67 68  1  0
 68 69  2  0
 40 70  1  0
 70 71  1  0
 71 72  2  0
 71 73  1  0
 36 74  1  0
  2 75  1  0
 50  7  1  0
 58 53  1  0
 65 60  1  0
 15 11  1  0
 22 18  1  0
 32 27  1  0
 69 64  1  0
  1 76  1  0
  1 77  1  0
  4 78  1  0
  4 79  1  0
  5 80  1  0
  5 81  1  0
  6 82  1  0
  6 83  1  0
  7 84  1  1
  8 85  1  0
 11 86  1  6
 12 87  1  0
 12 88  1  0
 13 89  1  0
 13 90  1  0
 14 91  1  0
 14 92  1  0
 18 93  1  1
 19 94  1  0
 19 95  1  0
 20 96  1  0
 20 97  1  0
 21 98  1  0
 21 99  1  0
 25100  1  1
 26101  1  0
 26102  1  0
 28103  1  0
 29104  1  0
 30105  1  0
 31106  1  0
 32107  1  0
 33108  1  0
 36109  1  1
 37110  1  0
 40111  1  6
 41112  1  0
 44113  1  0
 45114  1  0
 48115  1  1
 49116  1  0
 52117  1  0
 52118  1  0
 54119  1  0
 55120  1  0
 56121  1  0
 57122  1  0
 58123  1  0
 59124  1  0
 59125  1  0
 61126  1  0
 62127  1  0
 63128  1  0
 66129  1  0
 67130  1  0
 68131  1  0
 69132  1  0
 70133  1  0
 70134  1  0
 73135  1  0
 73136  1  0
 74137  1  0
 74138  1  0
 74139  1  0
 75140  1  0
 75141  1  0
M  END
>  <Ligand ID>  (1) 
LIG0005504

>  <Ligand>  (1) 
CHEMBL3577993

>  <SMILES>  (1) 
NC(=NCCC[C@@H]1NC(=O)[C@@H]2CCCN2C(=O)[C@H]2CCCN2C(=O)[C@H](Cc2ccccc2)NC(=O)[C@@H](NC(=O)[C@@H](NC(=O)C(NC(=O)[C@@H](NC1=O)Cc1ccccc1)Cc1cccc2c1cccc2)CC(=O)N)C)N

>  <CID>  (1) 
122178164.0

>  <ChEMBL ID>  (1) 
nan

>  <InChiKey>  (1) 
FNNIXVXBPJLPNQ-JHQNEBCVSA-N

>  <InChi>  (1) 
InChI=1S/C54H66N12O9/c1-32-46(68)64-42(29-34-16-6-3-7-17-34)52(74)66-27-13-24-44(66)53(75)65-26-12-23-43(65)51(73)60-38(22-11-25-58-54(56)57)47(69)61-39(28-33-14-4-2-5-15-33)49(71)62-40(50(72)63-41(31-45(55)67)48(70)59-32)30-36-20-10-19-35-18-8-9-21-37(35)36/h2-10,14-21,32,38-44H,11-13,22-31H2,1H3,(H2,55,67)(H,59,70)(H,60,73)(H,61,69)(H,62,71)(H,63,72)(H,64,68)(H4,56,57,58)/t32-,38-,39-,40?,41-,42-,43-,44+/m0/s1

>  <IUPAC Name>  (1) 
2-[(3R,9S,12S,15S,21S,24S,27S)-9,21-dibenzyl-24-[3-(diaminomethylideneamino)propyl]-12-methyl-18-(naphthalen-1-ylmethyl)-2,8,11,14,17,20,23,26-octaoxo-1,7,10,13,16,19,22,25-octazatricyclo[25.3.0.03,7]triacontan-15-yl]acetamide

$$$$
