
     RDKit          3D

 83 86  0  0  0  0  0  0  0  0999 V2000
    0.5888    4.9290    0.4028 C   0  0  0  0  0  0  0  0  0  0  0  0
    0.2633    4.1906    1.6711 C   0  0  0  0  0  0  0  0  0  0  0  0
   -0.8067    3.1278    1.4432 C   0  0  0  0  0  0  0  0  0  0  0  0
   -0.3246    2.1589    0.4384 C   0  0  2  0  0  0  0  0  0  0  0  0
   -1.2315    1.0768    0.1050 N   0  0  0  0  0  0  0  0  0  0  0  0
   -0.6246   -0.0827   -0.5534 C   0  0  0  0  0  0  0  0  0  0  0  0
    0.6061    0.3994   -1.3695 C   0  0  0  0  0  0  0  0  0  0  0  0
    1.5654    0.7668   -0.3439 N   0  0  0  0  0  0  0  0  0  0  0  0
    0.9837    1.5241    0.7571 C   0  0  0  0  0  0  0  0  0  0  0  0
    1.5671    1.6066    1.8596 O   0  0  0  0  0  0  0  0  0  0  0  0
    2.9497    0.4230   -0.3365 C   0  0  2  0  0  0  0  0  0  0  0  0
    3.7268    1.0547   -1.4126 C   0  0  0  0  0  0  0  0  0  0  0  0
    4.9812    0.8023   -1.4674 O   0  0  0  0  0  0  0  0  0  0  0  0
    3.2347    1.9179   -2.3998 N   0  0  0  0  0  0  0  0  0  0  0  0
    4.0958    2.4958   -3.4385 C   0  0  0  0  0  0  0  0  0  0  0  0
    3.2003   -1.0482   -0.3003 C   0  0  0  0  0  0  0  0  0  0  0  0
    4.6113   -1.4663   -0.2943 C   0  0  0  0  0  0  0  0  0  0  0  0
    5.3322   -1.8362   -1.4081 C   0  0  0  0  0  0  0  0  0  0  0  0
    6.6677   -2.1885   -1.2502 C   0  0  0  0  0  0  0  0  0  0  0  0
    7.2986   -2.1836   -0.0329 C   0  0  0  0  0  0  0  0  0  0  0  0
    6.5815   -1.8152    1.0807 C   0  0  0  0  0  0  0  0  0  0  0  0
    5.2581   -1.4628    0.9474 C   0  0  0  0  0  0  0  0  0  0  0  0
    7.1711   -1.7901    2.3234 C   0  0  0  0  0  0  0  0  0  0  0  0
    8.4920   -2.1261    2.5254 C   0  0  0  0  0  0  0  0  0  0  0  0
    9.2283   -2.5015    1.4031 C   0  0  0  0  0  0  0  0  0  0  0  0
    8.6308   -2.5276    0.1392 C   0  0  0  0  0  0  0  0  0  0  0  0
   -2.6057    1.0564    0.3532 C   0  0  0  0  0  0  0  0  0  0  0  0
   -3.1937    2.0279    0.9344 O   0  0  0  0  0  0  0  0  0  0  0  0
   -3.5145   -0.0684   -0.0251 C   0  0  1  0  0  0  0  0  0  0  0  0
   -3.2470   -1.3451    0.6746 C   0  0  0  0  0  0  0  0  0  0  0  0
   -4.2225   -2.3808    0.1927 C   0  0  0  0  0  0  0  0  0  0  0  0
   -3.9175   -3.1620   -0.9162 C   0  0  0  0  0  0  0  0  0  0  0  0
   -4.7849   -4.1326   -1.3934 C   0  0  0  0  0  0  0  0  0  0  0  0
   -6.0063   -4.3405   -0.7473 C   0  0  0  0  0  0  0  0  0  0  0  0
   -6.3186   -3.5714    0.3533 C   0  0  0  0  0  0  0  0  0  0  0  0
   -5.4299   -2.6081    0.8069 C   0  0  0  0  0  0  0  0  0  0  0  0
   -6.8706   -5.2931   -1.2059 F   0  0  0  0  0  0  0  0  0  0  0  0
   -4.8622    0.3900    0.3758 N   0  0  0  0  0  0  0  0  0  0  0  0
   -5.8185    0.7449   -0.5952 C   0  0  0  0  0  0  0  0  0  0  0  0
   -5.4442    0.6345   -1.8168 O   0  0  0  0  0  0  0  0  0  0  0  0
   -7.1785    1.2249   -0.3703 C   0  0  0  0  0  0  0  0  0  0  0  0
   -7.6078    1.3428    0.9845 N   0  0  0  0  0  0  0  0  0  0  0  0
   -7.7905    0.0813    1.6266 C   0  0  0  0  0  0  0  0  0  0  0  0
    1.2328    5.7976    0.7080 H   0  0  0  0  0  0  0  0  0  0  0  0
   -0.2774    5.3260   -0.1251 H   0  0  0  0  0  0  0  0  0  0  0  0
    1.2516    4.3111   -0.2689 H   0  0  0  0  0  0  0  0  0  0  0  0
    1.1817    3.8285    2.1204 H   0  0  0  0  0  0  0  0  0  0  0  0
   -0.1480    4.9499    2.3796 H   0  0  0  0  0  0  0  0  0  0  0  0
   -1.1345    2.7079    2.3907 H   0  0  0  0  0  0  0  0  0  0  0  0
   -1.6600    3.6879    0.9935 H   0  0  0  0  0  0  0  0  0  0  0  0
   -0.2264    2.7365   -0.5372 H   0  0  0  0  0  0  0  0  0  0  0  0
   -0.1748   -0.7640    0.1942 H   0  0  0  0  0  0  0  0  0  0  0  0
   -1.2861   -0.5575   -1.2906 H   0  0  0  0  0  0  0  0  0  0  0  0
    0.8966   -0.4625   -1.9794 H   0  0  0  0  0  0  0  0  0  0  0  0
    0.1983    1.2653   -1.9263 H   0  0  0  0  0  0  0  0  0  0  0  0
    3.3517    0.8552    0.6451 H   0  0  0  0  0  0  0  0  0  0  0  0
    2.2433    2.1916   -2.4349 H   0  0  0  0  0  0  0  0  0  0  0  0
    3.5951    2.4465   -4.4196 H   0  0  0  0  0  0  0  0  0  0  0  0
    4.2440    3.5559   -3.1721 H   0  0  0  0  0  0  0  0  0  0  0  0
    5.0129    1.9011   -3.4989 H   0  0  0  0  0  0  0  0  0  0  0  0
    2.7337   -1.4527    0.6427 H   0  0  0  0  0  0  0  0  0  0  0  0
    2.7112   -1.5962   -1.1325 H   0  0  0  0  0  0  0  0  0  0  0  0
    4.8306   -1.8384   -2.3645 H   0  0  0  0  0  0  0  0  0  0  0  0
    7.2468   -2.4817   -2.1141 H   0  0  0  0  0  0  0  0  0  0  0  0
    4.7268   -1.1819    1.8296 H   0  0  0  0  0  0  0  0  0  0  0  0
    6.5930   -1.4972    3.1917 H   0  0  0  0  0  0  0  0  0  0  0  0
    8.9416   -2.1017    3.5064 H   0  0  0  0  0  0  0  0  0  0  0  0
   10.2630   -2.7647    1.5592 H   0  0  0  0  0  0  0  0  0  0  0  0
    9.2199   -2.8208   -0.7122 H   0  0  0  0  0  0  0  0  0  0  0  0
   -3.4983   -0.0947   -1.1233 H   0  0  0  0  0  0  0  0  0  0  0  0
   -3.4700   -1.1832    1.7568 H   0  0  0  0  0  0  0  0  0  0  0  0
   -2.2655   -1.7962    0.5453 H   0  0  0  0  0  0  0  0  0  0  0  0
   -2.9772   -3.0160   -1.4292 H   0  0  0  0  0  0  0  0  0  0  0  0
   -4.5509   -4.7487   -2.2631 H   0  0  0  0  0  0  0  0  0  0  0  0
   -7.2662   -3.7286    0.8582 H   0  0  0  0  0  0  0  0  0  0  0  0
   -5.6692   -1.9924    1.6795 H   0  0  0  0  0  0  0  0  0  0  0  0
   -5.1265    0.4617    1.3776 H   0  0  0  0  0  0  0  0  0  0  0  0
   -7.8905    0.4900   -0.8607 H   0  0  0  0  0  0  0  0  0  0  0  0
   -7.3930    2.1855   -0.9077 H   0  0  0  0  0  0  0  0  0  0  0  0
   -7.1204    2.0683    1.5331 H   0  0  0  0  0  0  0  0  0  0  0  0
   -7.5983   -0.7597    0.9523 H   0  0  0  0  0  0  0  0  0  0  0  0
   -7.1410    0.0263    2.5173 H   0  0  0  0  0  0  0  0  0  0  0  0
   -8.8346    0.0003    2.0433 H   0  0  0  0  0  0  0  0  0  0  0  0
  1  2  1  0
  2  3  1  0
  3  4  1  0
  4  5  1  0
  5  6  1  0
  6  7  1  0
  7  8  1  0
  8  9  1  0
  9 10  2  0
  8 11  1  0
 11 12  1  0
 12 13  2  0
 12 14  1  0
 14 15  1  0
 11 16  1  0
 16 17  1  0
 17 18  2  0
 18 19  1  0
 19 20  2  0
 20 21  1  0
 21 22  2  0
 21 23  1  0
 23 24  2  0
 24 25  1  0
 25 26  2  0
  5 27  1  0
 27 28  2  0
 27 29  1  0
 29 30  1  0
 30 31  1  0
 31 32  2  0
 32 33  1  0
 33 34  2  0
 34 35  1  0
 35 36  2  0
 34 37  1  0
 29 38  1  0
 38 39  1  0
 39 40  2  0
 39 41  1  0
 41 42  1  0
 42 43  1  0
  9  4  1  0
 22 17  1  0
 36 31  1  0
 26 20  1  0
  1 44  1  0
  1 45  1  0
  1 46  1  0
  2 47  1  0
  2 48  1  0
  3 49  1  0
  3 50  1  0
  4 51  1  6
  6 52  1  0
  6 53  1  0
  7 54  1  0
  7 55  1  0
 11 56  1  1
 14 57  1  0
 15 58  1  0
 15 59  1  0
 15 60  1  0
 16 61  1  0
 16 62  1  0
 18 63  1  0
 19 64  1  0
 22 65  1  0
 23 66  1  0
 24 67  1  0
 25 68  1  0
 26 69  1  0
 29 70  1  6
 30 71  1  0
 30 72  1  0
 32 73  1  0
 33 74  1  0
 35 75  1  0
 36 76  1  0
 38 77  1  0
 41 78  1  0
 41 79  1  0
 42 80  1  0
 43 81  1  0
 43 82  1  0
 43 83  1  0
M  END
>  <Ligand ID>  (1) 
LIG0004085

>  <Ligand>  (1) 
CHEMBL452710

>  <SMILES>  (1) 
CCC[C@@H]1N(CCN(C1=O)[C@H](C(=O)NC)Cc1ccc2c(c1)cccc2)C(=O)[C@@H](Cc1ccc(cc1)F)NC(=O)CNC

>  <CID>  (1) 
25133209.0

>  <ChEMBL ID>  (1) 
nan

>  <InChiKey>  (1) 
JICSVJQEGDFDBH-ULNSLHSMSA-N

>  <InChi>  (1) 
InChI=1S/C33H40FN5O4/c1-4-7-28-33(43)39(29(31(41)36-3)20-23-10-13-24-8-5-6-9-25(24)18-23)17-16-38(28)32(42)27(37-30(40)21-35-2)19-22-11-14-26(34)15-12-22/h5-6,8-15,18,27-29,35H,4,7,16-17,19-21H2,1-3H3,(H,36,41)(H,37,40)/t27-,28+,29+/m1/s1

>  <IUPAC Name>  (1) 
(2S)-2-[(3S)-4-[(2R)-3-(4-fluorophenyl)-2-[[2-(methylamino)acetyl]amino]propanoyl]-2-oxo-3-propylpiperazin-1-yl]-N-methyl-3-naphthalen-2-ylpropanamide

$$$$
