
     RDKit          3D

 43 46  0  0  0  0  0  0  0  0999 V2000
    5.3761    4.5129   -0.4708 F   0  0  0  0  0  0  0  0  0  0  0  0
    4.4920    3.4911   -0.3531 C   0  0  0  0  0  0  0  0  0  0  0  0
    4.7389    2.2295   -0.8651 C   0  0  0  0  0  0  0  0  0  0  0  0
    3.8269    1.1999   -0.7360 C   0  0  0  0  0  0  0  0  0  0  0  0
    2.6294    1.4580   -0.0680 C   0  0  0  0  0  0  0  0  0  0  0  0
    2.3711    2.7180    0.4491 C   0  0  0  0  0  0  0  0  0  0  0  0
    3.3000    3.7526    0.3133 C   0  0  0  0  0  0  0  0  0  0  0  0
    1.1901    2.9531    1.1019 F   0  0  0  0  0  0  0  0  0  0  0  0
    1.6969    0.3842    0.0575 N   0  0  0  0  0  0  0  0  0  0  0  0
    0.3898    0.5828    0.0158 N   0  0  0  0  0  0  0  0  0  0  0  0
   -0.2918   -0.5728    0.1548 C   0  0  0  0  0  0  0  0  0  0  0  0
    0.6747   -1.5466    0.2912 C   0  0  0  0  0  0  0  0  0  0  0  0
    1.9196   -0.9234    0.2271 C   0  0  0  0  0  0  0  0  0  0  0  0
    3.0029   -1.9043    0.3659 C   0  0  2  0  0  0  0  0  0  0  0  0
    3.0808   -3.0399   -0.6528 C   0  0  0  0  0  0  0  0  0  0  0  0
    2.3214   -3.2004    0.6196 C   0  0  2  0  0  0  0  0  0  0  0  0
    0.8321   -2.9975    0.4783 C   0  0  0  0  0  0  0  0  0  0  0  0
   -1.7570   -0.7330    0.1570 C   0  0  0  0  0  0  0  0  0  0  0  0
   -2.2054   -1.8917    0.2993 O   0  0  0  0  0  0  0  0  0  0  0  0
   -2.5677    0.4000    0.0022 N   0  0  0  0  0  0  0  0  0  0  0  0
   -4.0240    0.3085   -0.0043 C   0  0  0  0  0  0  0  0  0  0  0  0
   -4.5727   -0.2607    1.2686 C   0  0  0  0  0  0  0  0  0  0  0  0
   -4.4307   -0.5762   -1.1596 C   0  0  0  0  0  0  0  0  0  0  0  0
   -4.6188    1.6895   -0.1929 C   0  0  0  0  0  0  0  0  0  0  0  0
    5.6738    2.0312   -1.3856 H   0  0  0  0  0  0  0  0  0  0  0  0
    4.0719    0.2512   -1.1501 H   0  0  0  0  0  0  0  0  0  0  0  0
    3.1249    4.7344    0.7034 H   0  0  0  0  0  0  0  0  0  0  0  0
    3.9370   -1.6903    0.9014 H   0  0  0  0  0  0  0  0  0  0  0  0
    4.0294   -3.5815   -0.7209 H   0  0  0  0  0  0  0  0  0  0  0  0
    2.5784   -2.8033   -1.5978 H   0  0  0  0  0  0  0  0  0  0  0  0
    2.6979   -3.8905    1.3962 H   0  0  0  0  0  0  0  0  0  0  0  0
    0.2941   -3.3905    1.3527 H   0  0  0  0  0  0  0  0  0  0  0  0
    0.4803   -3.5074   -0.4578 H   0  0  0  0  0  0  0  0  0  0  0  0
   -2.1073    1.3364   -0.1116 H   0  0  0  0  0  0  0  0  0  0  0  0
   -5.6027    0.1106    1.4065 H   0  0  0  0  0  0  0  0  0  0  0  0
   -3.9464   -0.0326    2.1585 H   0  0  0  0  0  0  0  0  0  0  0  0
   -4.6651   -1.3745    1.1949 H   0  0  0  0  0  0  0  0  0  0  0  0
   -4.6245    0.0769   -2.0394 H   0  0  0  0  0  0  0  0  0  0  0  0
   -5.3681   -1.0997   -0.8807 H   0  0  0  0  0  0  0  0  0  0  0  0
   -3.6341   -1.2719   -1.4436 H   0  0  0  0  0  0  0  0  0  0  0  0
   -5.6155    1.5887   -0.6458 H   0  0  0  0  0  0  0  0  0  0  0  0
   -3.9546    2.3433   -0.7938 H   0  0  0  0  0  0  0  0  0  0  0  0
   -4.7441    2.1358    0.8148 H   0  0  0  0  0  0  0  0  0  0  0  0
  1  2  1  0
  2  3  2  0
  3  4  1  0
  4  5  2  0
  5  6  1  0
  6  7  2  0
  6  8  1  0
  5  9  1  0
  9 10  1  0
 10 11  2  0
 11 12  1  0
 12 13  2  0
 13 14  1  0
 14 15  1  0
 15 16  1  0
 16 17  1  0
 11 18  1  0
 18 19  2  0
 18 20  1  0
 20 21  1  0
 21 22  1  0
 21 23  1  0
 21 24  1  0
  7  2  1  0
 13  9  1  0
 16 14  1  0
 17 12  1  0
  3 25  1  0
  4 26  1  0
  7 27  1  0
 14 28  1  1
 15 29  1  0
 15 30  1  0
 16 31  1  1
 17 32  1  0
 17 33  1  0
 20 34  1  0
 22 35  1  0
 22 36  1  0
 22 37  1  0
 23 38  1  0
 23 39  1  0
 23 40  1  0
 24 41  1  0
 24 42  1  0
 24 43  1  0
M  END
>  <Ligand ID>  (1) 
LIG0001478

>  <Ligand>  (1) 
CHEMBL3354950

>  <SMILES>  (1) 
Fc1ccc(c(c1)F)n1nc(c2c1[C@@H]1C[C@@H]1C2)C(=O)NC(C)(C)C

>  <CID>  (1) 
68182368.0

>  <ChEMBL ID>  (1) 
nan

>  <InChiKey>  (1) 
QZYTVFOJAQEKOY-MWLCHTKSSA-N

>  <InChi>  (1) 
InChI=1S/C18H19F2N3O/c1-18(2,3)21-17(24)15-12-7-9-6-11(9)16(12)23(22-15)14-5-4-10(19)8-13(14)20/h4-5,8-9,11H,6-7H2,1-3H3,(H,21,24)/t9-,11-/m1/s1

>  <IUPAC Name>  (1) 
(2R,4R)-N-tert-butyl-9-(2,4-difluorophenyl)-8,9-diazatricyclo[4.3.0.02,4]nona-1(6),7-diene-7-carboxamide

$$$$
