
     RDKit          3D

 62 66  0  0  0  0  0  0  0  0999 V2000
   -8.3497   -0.5531    1.9766 F   0  0  0  0  0  0  0  0  0  0  0  0
   -7.0731   -0.5265    1.4900 C   0  0  0  0  0  0  0  0  0  0  0  0
   -6.8271   -0.0864    0.1938 C   0  0  0  0  0  0  0  0  0  0  0  0
   -5.5348   -0.0617   -0.2903 C   0  0  0  0  0  0  0  0  0  0  0  0
   -4.4580   -0.4622    0.4711 C   0  0  0  0  0  0  0  0  0  0  0  0
   -4.7185   -0.8948    1.7471 C   0  0  0  0  0  0  0  0  0  0  0  0
   -6.0023   -0.9390    2.2844 C   0  0  0  0  0  0  0  0  0  0  0  0
   -3.0884   -0.5017   -0.0232 C   0  0  0  0  0  0  0  0  0  0  0  0
   -2.0903    0.2005    0.4832 C   0  0  0  0  0  0  0  0  0  0  0  0
   -2.2949    1.1119    1.6249 C   0  0  0  0  0  0  0  0  0  0  0  0
   -0.9610    1.3517    2.3125 C   0  0  0  0  0  0  0  0  0  0  0  0
   -0.3274    0.0225    2.5718 C   0  0  0  0  0  0  0  0  0  0  0  0
    0.8976   -0.1903    1.6800 C   0  0  0  0  0  0  0  0  0  0  0  0
    0.4738   -0.2115    0.2637 C   0  0  0  0  0  0  0  0  0  0  0  0
   -0.8254   -0.0396   -0.2274 C   0  0  0  0  0  0  0  0  0  0  0  0
   -0.7867   -0.1268   -1.5647 N   0  0  0  0  0  0  0  0  0  0  0  0
    0.4667   -0.3425   -1.8962 N   0  0  0  0  0  0  0  0  0  0  0  0
    1.2878   -0.4043   -0.8165 C   0  0  0  0  0  0  0  0  0  0  0  0
    2.7082   -0.6326   -0.9412 C   0  0  0  0  0  0  0  0  0  0  0  0
    3.1873   -0.7778   -2.1051 O   0  0  0  0  0  0  0  0  0  0  0  0
    3.6382   -0.7127    0.1162 N   0  0  0  0  0  0  0  0  0  0  0  0
    5.0472   -0.9476   -0.1460 C   0  0  1  0  0  0  0  0  0  0  0  0
    5.9245    0.1259    0.3495 C   0  0  0  0  0  0  0  0  0  0  0  0
    6.9614    0.6641   -0.3933 C   0  0  0  0  0  0  0  0  0  0  0  0
    7.7511    1.6823    0.1479 C   0  0  0  0  0  0  0  0  0  0  0  0
    7.4980    2.1582    1.4341 C   0  0  0  0  0  0  0  0  0  0  0  0
    6.4568    1.5896    2.1290 C   0  0  0  0  0  0  0  0  0  0  0  0
    5.7093    0.6113    1.5904 N   0  0  0  0  0  0  0  0  0  0  0  0
    5.3872   -2.3118    0.4335 C   0  0  0  0  0  0  0  0  0  0  0  0
   -1.8322   -0.0028   -2.5252 C   0  0  0  0  0  0  0  0  0  0  0  0
   -2.7071    1.0930   -2.5204 C   0  0  0  0  0  0  0  0  0  0  0  0
   -3.7108    1.2082   -3.4772 C   0  0  0  0  0  0  0  0  0  0  0  0
   -3.8780    0.2603   -4.4515 C   0  0  0  0  0  0  0  0  0  0  0  0
   -3.0189   -0.8370   -4.4740 C   0  0  0  0  0  0  0  0  0  0  0  0
   -2.0206   -0.9621   -3.5312 C   0  0  0  0  0  0  0  0  0  0  0  0
   -3.2036   -2.0706   -5.7069 Cl  0  0  0  0  0  0  0  0  0  0  0  0
   -5.1411    0.3957   -5.6637 Cl  0  0  0  0  0  0  0  0  0  0  0  0
   -7.6563    0.2341   -0.4261 H   0  0  0  0  0  0  0  0  0  0  0  0
   -5.3734    0.2847   -1.3011 H   0  0  0  0  0  0  0  0  0  0  0  0
   -3.9327   -1.2540    2.3878 H   0  0  0  0  0  0  0  0  0  0  0  0
   -6.1614   -1.2799    3.2783 H   0  0  0  0  0  0  0  0  0  0  0  0
   -2.9463   -1.2114   -0.8610 H   0  0  0  0  0  0  0  0  0  0  0  0
   -2.6906    2.0862    1.2173 H   0  0  0  0  0  0  0  0  0  0  0  0
   -2.9686    0.7567    2.4177 H   0  0  0  0  0  0  0  0  0  0  0  0
   -0.3189    1.9990    1.6460 H   0  0  0  0  0  0  0  0  0  0  0  0
   -1.1325    1.9081    3.2664 H   0  0  0  0  0  0  0  0  0  0  0  0
    0.0659    0.0081    3.6199 H   0  0  0  0  0  0  0  0  0  0  0  0
   -0.9964   -0.8337    2.4308 H   0  0  0  0  0  0  0  0  0  0  0  0
    1.5843    0.6635    1.8312 H   0  0  0  0  0  0  0  0  0  0  0  0
    1.3227   -1.1417    2.0235 H   0  0  0  0  0  0  0  0  0  0  0  0
    3.3586   -0.6094    1.1004 H   0  0  0  0  0  0  0  0  0  0  0  0
    5.1918   -1.0353   -1.2367 H   0  0  0  0  0  0  0  0  0  0  0  0
    7.1349    0.2751   -1.3893 H   0  0  0  0  0  0  0  0  0  0  0  0
    8.5719    2.1019   -0.4520 H   0  0  0  0  0  0  0  0  0  0  0  0
    8.1005    2.9489    1.8724 H   0  0  0  0  0  0  0  0  0  0  0  0
    6.1906    1.9012    3.1381 H   0  0  0  0  0  0  0  0  0  0  0  0
    6.5005   -2.3864    0.4696 H   0  0  0  0  0  0  0  0  0  0  0  0
    4.9959   -3.0695   -0.2798 H   0  0  0  0  0  0  0  0  0  0  0  0
    4.9394   -2.3611    1.4399 H   0  0  0  0  0  0  0  0  0  0  0  0
   -2.6049    1.8703   -1.7580 H   0  0  0  0  0  0  0  0  0  0  0  0
   -4.3938    2.0574   -3.4790 H   0  0  0  0  0  0  0  0  0  0  0  0
   -1.3266   -1.7925   -3.5023 H   0  0  0  0  0  0  0  0  0  0  0  0
  1  2  1  0
  2  3  2  0
  3  4  1  0
  4  5  2  0
  5  6  1  0
  6  7  2  0
  5  8  1  0
  8  9  2  0
  9 10  1  0
 10 11  1  0
 11 12  1  0
 12 13  1  0
 13 14  1  0
 14 15  2  0
 15 16  1  0
 16 17  1  0
 17 18  2  0
 18 19  1  0
 19 20  2  0
 19 21  1  0
 21 22  1  0
 22 23  1  0
 23 24  2  0
 24 25  1  0
 25 26  2  0
 26 27  1  0
 27 28  2  0
 22 29  1  0
 16 30  1  0
 30 31  2  0
 31 32  1  0
 32 33  2  0
 33 34  1  0
 34 35  2  0
 34 36  1  0
 33 37  1  0
  7  2  1  0
 15  9  1  0
 28 23  1  0
 35 30  1  0
 18 14  1  0
  3 38  1  0
  4 39  1  0
  6 40  1  0
  7 41  1  0
  8 42  1  0
 10 43  1  0
 10 44  1  0
 11 45  1  0
 11 46  1  0
 12 47  1  0
 12 48  1  0
 13 49  1  0
 13 50  1  0
 21 51  1  0
 22 52  1  6
 24 53  1  0
 25 54  1  0
 26 55  1  0
 27 56  1  0
 29 57  1  0
 29 58  1  0
 29 59  1  0
 31 60  1  0
 32 61  1  0
 35 62  1  0
M  END
>  <Ligand ID>  (1) 
LIG0005426

>  <Ligand>  (1) 
CHEMBL3928040

>  <SMILES>  (1) 
Fc1ccc(cc1)/C=C/1\CCCCc2c1n(nc2C(=O)N[C@@H](c1ccccn1)C)c1ccc(c(c1)Cl)Cl

>  <CID>  (1) 
134140841.0

>  <ChEMBL ID>  (1) 
nan

>  <InChiKey>  (1) 
FNJXDPLNWFEMPF-RILMWAFASA-N

>  <InChi>  (1) 
InChI=1S/C29H25Cl2FN4O/c1-18(26-8-4-5-15-33-26)34-29(37)27-23-7-3-2-6-20(16-19-9-11-21(32)12-10-19)28(23)36(35-27)22-13-14-24(30)25(31)17-22/h4-5,8-18H,2-3,6-7H2,1H3,(H,34,37)/b20-16+/t18-/m1/s1

>  <IUPAC Name>  (1) 
(8E)-1-(3,4-dichlorophenyl)-8-[(4-fluorophenyl)methylidene]-N-[(1R)-1-pyridin-2-ylethyl]-4,5,6,7-tetrahydrocyclohepta[c]pyrazole-3-carboxamide

$$$$
