
     RDKit          3D

 51 53  0  0  0  0  0  0  0  0999 V2000
   -2.7851    6.1473   -0.2942 O   0  0  0  0  0  0  0  0  0  0  0  0
   -3.5354    4.9856   -0.1578 C   0  0  0  0  0  0  0  0  0  0  0  0
   -2.6510    3.7582   -0.2576 C   0  0  0  0  0  0  0  0  0  0  0  0
   -3.3951    2.5414   -0.1207 N   0  0  0  0  0  0  0  0  0  0  0  0
   -2.8268    1.2384   -0.1732 C   0  0  0  0  0  0  0  0  0  0  0  0
   -1.4969    1.0724   -0.3635 N   0  0  0  0  0  0  0  0  0  0  0  0
   -0.9370   -0.1523   -0.4168 C   0  0  0  0  0  0  0  0  0  0  0  0
    0.8133   -0.4079   -0.6664 S   0  0  0  0  0  0  0  0  0  0  0  0
    1.6978   -0.4521    0.9006 C   0  0  0  0  0  0  0  0  0  0  0  0
    3.1372   -0.6667    0.6106 C   0  0  0  0  0  0  0  0  0  0  0  0
    3.5712   -1.9896    0.5513 C   0  0  0  0  0  0  0  0  0  0  0  0
    4.8901   -2.3120    0.2882 C   0  0  0  0  0  0  0  0  0  0  0  0
    5.7401   -1.2818    0.0910 N   0  0  0  0  0  0  0  0  0  0  0  0
    5.3452    0.0076    0.1432 C   0  0  0  0  0  0  0  0  0  0  0  0
    4.0328    0.3614    0.4042 C   0  0  0  0  0  0  0  0  0  0  0  0
    6.3214    1.0756   -0.0810 C   0  0  0  0  0  0  0  0  0  0  0  0
    5.9952    2.2902   -0.0411 O   0  0  0  0  0  0  0  0  0  0  0  0
    7.6784    0.7498   -0.3522 N   0  0  0  0  0  0  0  0  0  0  0  0
    8.6928    1.7534   -0.5827 C   0  0  0  0  0  0  0  0  0  0  0  0
   -1.7169   -1.2935   -0.2765 C   0  0  0  0  0  0  0  0  0  0  0  0
   -3.0773   -1.1757   -0.0807 C   0  0  0  0  0  0  0  0  0  0  0  0
   -3.5961    0.1021   -0.0346 C   0  0  0  0  0  0  0  0  0  0  0  0
   -5.0225    0.2323    0.1705 C   0  0  0  0  0  0  0  0  0  0  0  0
   -6.1485    0.3470    0.3283 N   0  0  0  0  0  0  0  0  0  0  0  0
   -3.9237   -2.3352    0.0695 C   0  0  0  0  0  0  0  0  0  0  0  0
   -4.4820   -2.8866   -1.0654 C   0  0  0  0  0  0  0  0  0  0  0  0
   -5.3079   -4.0042   -0.9995 C   0  0  0  0  0  0  0  0  0  0  0  0
   -5.5473   -4.5397    0.2425 C   0  0  0  0  0  0  0  0  0  0  0  0
   -4.9738   -3.9619    1.3417 C   0  0  0  0  0  0  0  0  0  0  0  0
   -4.1730   -2.8779    1.2759 N   0  0  0  0  0  0  0  0  0  0  0  0
   -1.1579   -2.5993   -0.3279 C   0  0  0  0  0  0  0  0  0  0  0  0
   -0.7018   -3.6600   -0.3869 N   0  0  0  0  0  0  0  0  0  0  0  0
   -1.9337    6.0660    0.2109 H   0  0  0  0  0  0  0  0  0  0  0  0
   -4.3177    4.9835   -0.9426 H   0  0  0  0  0  0  0  0  0  0  0  0
   -4.0185    5.0218    0.8481 H   0  0  0  0  0  0  0  0  0  0  0  0
   -1.8273    3.8371    0.4772 H   0  0  0  0  0  0  0  0  0  0  0  0
   -2.1973    3.7748   -1.2847 H   0  0  0  0  0  0  0  0  0  0  0  0
   -4.4257    2.6178    0.0277 H   0  0  0  0  0  0  0  0  0  0  0  0
    1.3038   -1.2585    1.5837 H   0  0  0  0  0  0  0  0  0  0  0  0
    1.6272    0.4857    1.4782 H   0  0  0  0  0  0  0  0  0  0  0  0
    2.8929   -2.8266    0.7090 H   0  0  0  0  0  0  0  0  0  0  0  0
    5.2053   -3.3449    0.2467 H   0  0  0  0  0  0  0  0  0  0  0  0
    3.6896    1.3821    0.4517 H   0  0  0  0  0  0  0  0  0  0  0  0
    7.9931   -0.2500   -0.3945 H   0  0  0  0  0  0  0  0  0  0  0  0
    8.3410    2.7730   -0.3158 H   0  0  0  0  0  0  0  0  0  0  0  0
    9.5824    1.5644    0.0602 H   0  0  0  0  0  0  0  0  0  0  0  0
    8.9821    1.7676   -1.6444 H   0  0  0  0  0  0  0  0  0  0  0  0
   -4.2813   -2.4503   -2.0330 H   0  0  0  0  0  0  0  0  0  0  0  0
   -5.7424   -4.4286   -1.9097 H   0  0  0  0  0  0  0  0  0  0  0  0
   -6.1843   -5.4118    0.3516 H   0  0  0  0  0  0  0  0  0  0  0  0
   -5.1486   -4.3689    2.3412 H   0  0  0  0  0  0  0  0  0  0  0  0
  1  2  1  0
  2  3  1  0
  3  4  1  0
  4  5  1  0
  5  6  2  0
  6  7  1  0
  7  8  1  0
  8  9  1  0
  9 10  1  0
 10 11  2  0
 11 12  1  0
 12 13  2  0
 13 14  1  0
 14 15  2  0
 14 16  1  0
 16 17  2  0
 16 18  1  0
 18 19  1  0
  7 20  2  0
 20 21  1  0
 21 22  2  0
 22 23  1  0
 23 24  3  0
 21 25  1  0
 25 26  2  0
 26 27  1  0
 27 28  2  0
 28 29  1  0
 29 30  2  0
 20 31  1  0
 31 32  3  0
 22  5  1  0
 30 25  1  0
 15 10  1  0
  1 33  1  0
  2 34  1  0
  2 35  1  0
  3 36  1  0
  3 37  1  0
  4 38  1  0
  9 39  1  0
  9 40  1  0
 11 41  1  0
 12 42  1  0
 15 43  1  0
 18 44  1  0
 19 45  1  0
 19 46  1  0
 19 47  1  0
 26 48  1  0
 27 49  1  0
 28 50  1  0
 29 51  1  0
M  END
>  <Ligand ID>  (1) 
LIG0004675

>  <Ligand>  (1) 
SCHEMBL3328362

>  <SMILES>  (1) 
OCCNc1nc(SCc2ccnc(c2)C(=O)NC)c(c(c1C#N)c1ccccn1)C#N

>  <CID>  (1) 
68597882.0

>  <ChEMBL ID>  (1) 
nan

>  <InChiKey>  (1) 
AYWPFTKLLZHBJC-UHFFFAOYSA-N

>  <InChi>  (1) 
InChI=1S/C22H19N7O2S/c1-25-21(31)18-10-14(5-7-27-18)13-32-22-16(12-24)19(17-4-2-3-6-26-17)15(11-23)20(29-22)28-8-9-30/h2-7,10,30H,8-9,13H2,1H3,(H,25,31)(H,28,29)

>  <IUPAC Name>  (1) 
4-[[3,5-dicyano-6-(2-hydroxyethylamino)-4-pyridin-2-ylpyridin-2-yl]sulfanylmethyl]-N-methylpyridine-2-carboxamide

$$$$
