
     RDKit          3D

 62 65  0  0  0  0  0  0  0  0999 V2000
   -0.8711    0.3848    0.0773 O   0  0  0  0  0  0  0  0  0  0  0  0
   -0.9992    0.4277   -1.3262 C   0  0  2  0  0  0  0  0  0  0  0  0
   -2.0644   -0.5790   -1.6916 C   0  0  0  0  0  0  0  0  0  0  0  0
   -3.3014   -0.3780   -1.1360 O   0  0  0  0  0  0  0  0  0  0  0  0
   -4.2128    0.6066   -1.2111 C   0  0  0  0  0  0  0  0  0  0  0  0
   -4.1378    1.7685   -1.9384 C   0  0  0  0  0  0  0  0  0  0  0  0
   -5.1358    2.7293   -1.9507 C   0  0  0  0  0  0  0  0  0  0  0  0
   -6.2717    2.5258   -1.2006 C   0  0  0  0  0  0  0  0  0  0  0  0
   -6.3918    1.3798   -0.4583 C   0  0  0  0  0  0  0  0  0  0  0  0
   -5.3906    0.4424   -0.4612 C   0  0  0  0  0  0  0  0  0  0  0  0
   -5.8108   -0.5817    0.3734 C   0  0  0  0  0  0  0  0  0  0  0  0
   -5.2503   -1.7856    0.7694 C   0  0  0  0  0  0  0  0  0  0  0  0
   -5.9570   -2.5953    1.6352 C   0  0  0  0  0  0  0  0  0  0  0  0
   -7.2127   -2.2407    2.1219 C   0  0  0  0  0  0  0  0  0  0  0  0
   -7.7675   -1.0379    1.7230 C   0  0  0  0  0  0  0  0  0  0  0  0
   -7.0733   -0.2212    0.8602 C   0  0  0  0  0  0  0  0  0  0  0  0
   -7.3891    0.9613    0.3399 N   0  0  0  0  0  0  0  0  0  0  0  0
    0.3111   -0.0697   -1.8983 C   0  0  0  0  0  0  0  0  0  0  0  0
    1.4619    0.6683   -1.5926 N   0  0  0  0  0  0  0  0  0  0  0  0
    1.9637    0.7128   -0.2765 C   0  0  0  0  0  0  0  0  0  0  0  0
    2.4880   -0.6313    0.1671 C   0  0  0  0  0  0  0  0  0  0  0  0
    3.0419   -0.6013    1.5797 C   0  0  0  0  0  0  0  0  0  0  0  0
    4.1698    0.3794    1.6220 C   0  0  0  0  0  0  0  0  0  0  0  0
    5.1827    0.1351    0.6163 N   0  0  0  0  0  0  0  0  0  0  0  0
    4.9245   -1.0974   -0.1067 C   0  0  0  0  0  0  0  0  0  0  0  0
    3.5718   -1.0619   -0.7866 C   0  0  0  0  0  0  0  0  0  0  0  0
    6.4485   -0.0350    1.2964 C   0  0  0  0  0  0  0  0  0  0  0  0
    7.6054   -0.2408    0.3724 C   0  0  0  0  0  0  0  0  0  0  0  0
    7.7522    0.9652   -0.5214 C   0  0  0  0  0  0  0  0  0  0  0  0
    7.9833    2.1142    0.2494 F   0  0  0  0  0  0  0  0  0  0  0  0
    8.8706    0.8617   -1.3443 F   0  0  0  0  0  0  0  0  0  0  0  0
    6.6751    1.2202   -1.3073 F   0  0  0  0  0  0  0  0  0  0  0  0
   -1.5250    1.0117    0.5002 H   0  0  0  0  0  0  0  0  0  0  0  0
   -1.2093    1.4582   -1.6319 H   0  0  0  0  0  0  0  0  0  0  0  0
   -1.6597   -1.6039   -1.5371 H   0  0  0  0  0  0  0  0  0  0  0  0
   -2.1885   -0.4769   -2.8161 H   0  0  0  0  0  0  0  0  0  0  0  0
   -3.2819    1.9580   -2.5380 H   0  0  0  0  0  0  0  0  0  0  0  0
   -5.0538    3.6378   -2.5314 H   0  0  0  0  0  0  0  0  0  0  0  0
   -7.0366    3.2862   -1.2226 H   0  0  0  0  0  0  0  0  0  0  0  0
   -4.2679   -2.0461    0.3772 H   0  0  0  0  0  0  0  0  0  0  0  0
   -5.4995   -3.5384    1.9340 H   0  0  0  0  0  0  0  0  0  0  0  0
   -7.7169   -2.9175    2.7979 H   0  0  0  0  0  0  0  0  0  0  0  0
   -8.7343   -0.7666    2.1006 H   0  0  0  0  0  0  0  0  0  0  0  0
   -8.2821    1.4726    0.5324 H   0  0  0  0  0  0  0  0  0  0  0  0
    0.1706   -0.0321   -3.0148 H   0  0  0  0  0  0  0  0  0  0  0  0
    0.3964   -1.1743   -1.6906 H   0  0  0  0  0  0  0  0  0  0  0  0
    2.1203    0.7324   -2.3681 H   0  0  0  0  0  0  0  0  0  0  0  0
    1.2604    1.1179    0.4853 H   0  0  0  0  0  0  0  0  0  0  0  0
    2.8168    1.4687   -0.2960 H   0  0  0  0  0  0  0  0  0  0  0  0
    1.6192   -1.3239    0.1959 H   0  0  0  0  0  0  0  0  0  0  0  0
    3.3466   -1.6117    1.8501 H   0  0  0  0  0  0  0  0  0  0  0  0
    2.2488   -0.2477    2.2740 H   0  0  0  0  0  0  0  0  0  0  0  0
    4.6372    0.4033    2.6421 H   0  0  0  0  0  0  0  0  0  0  0  0
    3.7886    1.4154    1.4744 H   0  0  0  0  0  0  0  0  0  0  0  0
    4.9733   -1.9785    0.5638 H   0  0  0  0  0  0  0  0  0  0  0  0
    5.6915   -1.2147   -0.8857 H   0  0  0  0  0  0  0  0  0  0  0  0
    3.6185   -0.4560   -1.7145 H   0  0  0  0  0  0  0  0  0  0  0  0
    3.3425   -2.0965   -1.1051 H   0  0  0  0  0  0  0  0  0  0  0  0
    6.4009   -0.9387    1.9570 H   0  0  0  0  0  0  0  0  0  0  0  0
    6.6604    0.8026    2.0023 H   0  0  0  0  0  0  0  0  0  0  0  0
    8.5526   -0.2822    0.9855 H   0  0  0  0  0  0  0  0  0  0  0  0
    7.5979   -1.1856   -0.1868 H   0  0  0  0  0  0  0  0  0  0  0  0
  1  2  1  0
  2  3  1  0
  3  4  1  0
  4  5  1  0
  5  6  2  0
  6  7  1  0
  7  8  2  0
  8  9  1  0
  9 10  2  0
 10 11  1  0
 11 12  2  0
 12 13  1  0
 13 14  2  0
 14 15  1  0
 15 16  2  0
 16 17  1  0
  2 18  1  0
 18 19  1  0
 19 20  1  0
 20 21  1  0
 21 22  1  0
 22 23  1  0
 23 24  1  0
 24 25  1  0
 25 26  1  0
 24 27  1  0
 27 28  1  0
 28 29  1  0
 29 30  1  0
 29 31  1  0
 29 32  1  0
 10  5  1  0
 16 11  1  0
 26 21  1  0
 17  9  1  0
  1 33  1  0
  2 34  1  6
  3 35  1  0
  3 36  1  0
  6 37  1  0
  7 38  1  0
  8 39  1  0
 12 40  1  0
 13 41  1  0
 14 42  1  0
 15 43  1  0
 17 44  1  0
 18 45  1  0
 18 46  1  0
 19 47  1  0
 20 48  1  0
 20 49  1  0
 21 50  1  0
 22 51  1  0
 22 52  1  0
 23 53  1  0
 23 54  1  0
 25 55  1  0
 25 56  1  0
 26 57  1  0
 26 58  1  0
 27 59  1  0
 27 60  1  0
 28 61  1  0
 28 62  1  0
M  END
>  <Ligand ID>  (1) 
LIG0003139

>  <Ligand>  (1) 
CHEMBL103137

>  <SMILES>  (1) 
O[C@H](COc1cccc2c1c1ccccc1[nH]2)CNCC1CCN(CC1)CCC(F)(F)F

>  <CID>  (1) 
44331766.0

>  <ChEMBL ID>  (1) 
nan

>  <InChiKey>  (1) 
KYEXTNNLWDSEAZ-SFHVURJKSA-N

>  <InChi>  (1) 
InChI=1S/C24H30F3N3O2/c25-24(26,27)10-13-30-11-8-17(9-12-30)14-28-15-18(31)16-32-22-7-3-6-21-23(22)19-4-1-2-5-20(19)29-21/h1-7,17-18,28-29,31H,8-16H2/t18-/m0/s1

>  <IUPAC Name>  (1) 
(2S)-1-(9H-carbazol-4-yloxy)-3-[[1-(3,3,3-trifluoropropyl)piperidin-4-yl]methylamino]propan-2-ol

$$$$
