
     RDKit          3D

 50 49  0  0  0  0  0  0  0  0999 V2000
   -7.7259    0.7812   -0.3720 C   0  0  0  0  0  0  0  0  0  0  0  0
   -6.4696    0.8712    0.5092 C   0  0  0  0  0  0  0  0  0  0  0  0
   -5.6636    1.9994    0.0658 C   0  0  0  0  0  0  0  0  0  0  0  0
   -4.4449    2.0433   -0.3889 C   0  0  0  0  0  0  0  0  0  0  0  0
   -3.4508    1.0144   -0.6264 C   0  0  0  0  0  0  0  0  0  0  0  0
   -3.7502   -0.3809   -0.4026 C   0  0  0  0  0  0  0  0  0  0  0  0
   -3.1838   -1.2156    0.4469 C   0  0  0  0  0  0  0  0  0  0  0  0
   -2.0808   -0.8808    1.3809 C   0  0  0  0  0  0  0  0  0  0  0  0
   -0.9500   -1.7707    1.0229 C   0  0  0  0  0  0  0  0  0  0  0  0
    0.2350   -1.3689    0.6279 C   0  0  0  0  0  0  0  0  0  0  0  0
    0.6791    0.0205    0.4614 C   0  0  0  0  0  0  0  0  0  0  0  0
    1.0707    0.2153   -0.9856 C   0  0  0  0  0  0  0  0  0  0  0  0
    2.1614   -0.6991   -1.4253 C   0  0  0  0  0  0  0  0  0  0  0  0
    3.3998   -0.4316   -0.5654 C   0  0  0  0  0  0  0  0  0  0  0  0
    4.5303   -1.3377   -0.9825 C   0  0  0  0  0  0  0  0  0  0  0  0
    5.7285   -1.0611   -0.1192 C   0  0  0  0  0  0  0  0  0  0  0  0
    6.1850    0.3465   -0.2940 C   0  0  0  0  0  0  0  0  0  0  0  0
    7.3783    0.6586    0.5568 C   0  0  0  0  0  0  0  0  0  0  0  0
    7.2803    0.4481    1.8038 O   0  0  0  0  0  0  0  0  0  0  0  0
    8.5631    1.1643    0.0005 O   0  0  0  0  0  0  0  0  0  0  0  0
   -8.4634    1.5537   -0.0686 H   0  0  0  0  0  0  0  0  0  0  0  0
   -8.1250   -0.2333   -0.2276 H   0  0  0  0  0  0  0  0  0  0  0  0
   -7.4349    0.8805   -1.4371 H   0  0  0  0  0  0  0  0  0  0  0  0
   -6.8853    1.0866    1.5361 H   0  0  0  0  0  0  0  0  0  0  0  0
   -5.9781   -0.0812    0.4618 H   0  0  0  0  0  0  0  0  0  0  0  0
   -6.1837    2.9967    0.1276 H   0  0  0  0  0  0  0  0  0  0  0  0
   -4.0894    3.0859   -0.6573 H   0  0  0  0  0  0  0  0  0  0  0  0
   -2.5032    1.3116   -0.0684 H   0  0  0  0  0  0  0  0  0  0  0  0
   -3.1010    1.1479   -1.7097 H   0  0  0  0  0  0  0  0  0  0  0  0
   -4.5348   -0.8420   -1.0499 H   0  0  0  0  0  0  0  0  0  0  0  0
   -3.5334   -2.2659    0.4964 H   0  0  0  0  0  0  0  0  0  0  0  0
   -1.8891    0.1678    1.4539 H   0  0  0  0  0  0  0  0  0  0  0  0
   -2.4496   -1.2058    2.4002 H   0  0  0  0  0  0  0  0  0  0  0  0
   -1.1594   -2.8549    1.1049 H   0  0  0  0  0  0  0  0  0  0  0  0
    0.9656   -2.1565    0.4019 H   0  0  0  0  0  0  0  0  0  0  0  0
   -0.1253    0.7670    0.6372 H   0  0  0  0  0  0  0  0  0  0  0  0
    1.5127    0.2085    1.1660 H   0  0  0  0  0  0  0  0  0  0  0  0
    0.1594    0.1444   -1.6367 H   0  0  0  0  0  0  0  0  0  0  0  0
    1.4457    1.2637   -1.1644 H   0  0  0  0  0  0  0  0  0  0  0  0
    2.4054   -0.4401   -2.4980 H   0  0  0  0  0  0  0  0  0  0  0  0
    1.8401   -1.7484   -1.3687 H   0  0  0  0  0  0  0  0  0  0  0  0
    3.6402    0.6222   -0.6901 H   0  0  0  0  0  0  0  0  0  0  0  0
    3.1838   -0.6412    0.4963 H   0  0  0  0  0  0  0  0  0  0  0  0
    4.7817   -1.1658   -2.0587 H   0  0  0  0  0  0  0  0  0  0  0  0
    4.2430   -2.3920   -0.7863 H   0  0  0  0  0  0  0  0  0  0  0  0
    5.4109   -1.2557    0.9415 H   0  0  0  0  0  0  0  0  0  0  0  0
    6.5127   -1.8024   -0.3944 H   0  0  0  0  0  0  0  0  0  0  0  0
    5.3987    1.0447    0.0869 H   0  0  0  0  0  0  0  0  0  0  0  0
    6.3672    0.5625   -1.3440 H   0  0  0  0  0  0  0  0  0  0  0  0
    9.0963    1.8250    0.5611 H   0  0  0  0  0  0  0  0  0  0  0  0
  1  2  1  0
  2  3  1  0
  3  4  2  0
  4  5  1  0
  5  6  1  0
  6  7  2  0
  7  8  1  0
  8  9  1  0
  9 10  2  0
 10 11  1  0
 11 12  1  0
 12 13  1  0
 13 14  1  0
 14 15  1  0
 15 16  1  0
 16 17  1  0
 17 18  1  0
 18 19  2  0
 18 20  1  0
  1 21  1  0
  1 22  1  0
  1 23  1  0
  2 24  1  0
  2 25  1  0
  3 26  1  0
  4 27  1  0
  5 28  1  0
  5 29  1  0
  6 30  1  0
  7 31  1  0
  8 32  1  0
  8 33  1  0
  9 34  1  0
 10 35  1  0
 11 36  1  0
 11 37  1  0
 12 38  1  0
 12 39  1  0
 13 40  1  0
 13 41  1  0
 14 42  1  0
 14 43  1  0
 15 44  1  0
 15 45  1  0
 16 46  1  0
 16 47  1  0
 17 48  1  0
 17 49  1  0
 20 50  1  0
M  END
>  <Ligand ID>  (1) 
LIG0003549

>  <Ligand>  (1) 
alpha;-linolenic acid

>  <SMILES>  (1) 
CC/C=C\C/C=C\C/C=C\CCCCCCCC(=O)O

>  <CID>  (1) 
5280934.0

>  <ChEMBL ID>  (1) 
nan

>  <InChiKey>  (1) 
DTOSIQBPPRVQHS-PDBXOOCHSA-N

>  <InChi>  (1) 
InChI=1S/C18H30O2/c1-2-3-4-5-6-7-8-9-10-11-12-13-14-15-16-17-18(19)20/h3-4,6-7,9-10H,2,5,8,11-17H2,1H3,(H,19,20)/b4-3-,7-6-,10-9-

>  <IUPAC Name>  (1) 
(9Z,12Z,15Z)-octadeca-9,12,15-trienoic acid

$$$$
