
     RDKit          3D

132137  0  0  0  0  0  0  0  0999 V2000
   -5.5939   -5.4274    5.9271 N   0  0  0  0  0  0  0  0  0  0  0  0
   -5.8580   -5.6394    4.5323 C   0  0  0  0  0  0  0  0  0  0  0  0
   -5.0077   -5.3677    3.6114 N   0  0  0  0  0  0  0  0  0  0  0  0
   -3.6988   -4.8266    3.8256 C   0  0  0  0  0  0  0  0  0  0  0  0
   -3.1252   -4.3910    2.5173 C   0  0  0  0  0  0  0  0  0  0  0  0
   -3.9151   -3.3277    1.8314 C   0  0  0  0  0  0  0  0  0  0  0  0
   -3.2999   -2.9406    0.5047 C   0  0  2  0  0  0  0  0  0  0  0  0
   -1.9567   -2.4437    0.5919 N   0  0  0  0  0  0  0  0  0  0  0  0
   -0.8231   -3.0774   -0.0597 C   0  0  0  0  0  0  0  0  0  0  0  0
   -1.1419   -4.0830   -0.7157 O   0  0  0  0  0  0  0  0  0  0  0  0
    0.5054   -2.5341    0.0891 C   0  0  2  0  0  0  0  0  0  0  0  0
    0.4913   -1.1487   -0.6245 C   0  0  0  0  0  0  0  0  0  0  0  0
    0.5687   -1.6011   -2.0709 C   0  0  0  0  0  0  0  0  0  0  0  0
    1.2661   -2.9625   -2.0220 C   0  0  0  0  0  0  0  0  0  0  0  0
    1.5865   -3.1826   -0.6559 N   0  0  0  0  0  0  0  0  0  0  0  0
    2.6703   -3.8579   -0.0309 C   0  0  0  0  0  0  0  0  0  0  0  0
    2.5669   -4.0018    1.1889 O   0  0  0  0  0  0  0  0  0  0  0  0
    3.8586   -4.3546   -0.8366 C   0  0  1  0  0  0  0  0  0  0  0  0
    3.4643   -5.3389   -1.8734 C   0  0  0  0  0  0  0  0  0  0  0  0
    4.4379   -5.0253   -3.0178 C   0  0  0  0  0  0  0  0  0  0  0  0
    4.8002   -3.5597   -2.8484 C   0  0  0  0  0  0  0  0  0  0  0  0
    4.2663   -3.1426   -1.6128 N   0  0  0  0  0  0  0  0  0  0  0  0
    4.0792   -1.8757   -1.0313 C   0  0  0  0  0  0  0  0  0  0  0  0
    3.6822   -1.9027    0.1548 O   0  0  0  0  0  0  0  0  0  0  0  0
    4.2930   -0.5482   -1.6539 C   0  0  2  0  0  0  0  0  0  0  0  0
    5.5999   -0.2495   -2.2315 C   0  0  0  0  0  0  0  0  0  0  0  0
    6.7761   -0.2420   -1.3661 C   0  0  0  0  0  0  0  0  0  0  0  0
    7.2218    0.9898   -0.8661 C   0  0  0  0  0  0  0  0  0  0  0  0
    8.3230    1.0717   -0.0397 C   0  0  0  0  0  0  0  0  0  0  0  0
    9.0271   -0.0432    0.3280 C   0  0  0  0  0  0  0  0  0  0  0  0
    8.6108   -1.2582   -0.1466 C   0  0  0  0  0  0  0  0  0  0  0  0
    7.5051   -1.3391   -0.9766 C   0  0  0  0  0  0  0  0  0  0  0  0
    3.8491    0.5019   -0.7532 N   0  0  0  0  0  0  0  0  0  0  0  0
    4.1872    0.6359    0.6131 C   0  0  0  0  0  0  0  0  0  0  0  0
    5.0692   -0.1250    1.0451 O   0  0  0  0  0  0  0  0  0  0  0  0
    3.6014    1.5944    1.5551 C   0  0  1  0  0  0  0  0  0  0  0  0
    2.3873    2.2461    1.1663 N   0  0  0  0  0  0  0  0  0  0  0  0
    2.2523    3.6772    1.0149 C   0  0  0  0  0  0  0  0  0  0  0  0
    3.3370    4.2774    1.1748 O   0  0  0  0  0  0  0  0  0  0  0  0
    1.0555    4.4047    0.7166 C   0  0  1  0  0  0  0  0  0  0  0  0
   -0.1853    3.6586    0.5654 N   0  0  0  0  0  0  0  0  0  0  0  0
   -1.3078    4.2829   -0.1057 C   0  0  0  0  0  0  0  0  0  0  0  0
   -1.0432    5.4684   -0.4517 O   0  0  0  0  0  0  0  0  0  0  0  0
   -2.5933    3.7396   -0.3893 C   0  0  1  0  0  0  0  0  0  0  0  0
   -2.8407    2.3202   -0.2917 N   0  0  0  0  0  0  0  0  0  0  0  0
   -3.9154    1.7680   -1.0638 C   0  0  0  0  0  0  0  0  0  0  0  0
   -4.5765    2.6612   -1.6939 O   0  0  0  0  0  0  0  0  0  0  0  0
   -4.3398    0.4049   -1.2175 C   0  0  0  0  0  0  0  0  0  0  0  0
   -3.5891   -0.6404   -0.5974 N   0  0  0  0  0  0  0  0  0  0  0  0
   -4.1477   -1.8790   -0.1101 C   0  0  0  0  0  0  0  0  0  0  0  0
   -5.3775   -1.9607   -0.2583 O   0  0  0  0  0  0  0  0  0  0  0  0
   -4.3789    0.0378   -2.6932 C   0  0  0  0  0  0  0  0  0  0  0  0
   -5.5737    0.1316   -3.3949 C   0  0  0  0  0  0  0  0  0  0  0  0
   -5.6454   -0.1970   -4.7251 C   0  0  0  0  0  0  0  0  0  0  0  0
   -4.5040   -0.6294   -5.3732 C   0  0  0  0  0  0  0  0  0  0  0  0
   -3.3275   -0.7188   -4.6749 C   0  0  0  0  0  0  0  0  0  0  0  0
   -3.2358   -0.3892   -3.3254 C   0  0  0  0  0  0  0  0  0  0  0  0
   -3.6297    4.4847    0.4861 C   0  0  0  0  0  0  0  0  0  0  0  0
   -3.6633    5.9340    0.2169 C   0  0  0  0  0  0  0  0  0  0  0  0
   -2.9271    6.8215    0.9915 C   0  0  0  0  0  0  0  0  0  0  0  0
   -2.9742    8.1811    0.7108 C   0  0  0  0  0  0  0  0  0  0  0  0
   -3.7654    8.6212   -0.3510 C   0  0  0  0  0  0  0  0  0  0  0  0
   -4.4908    7.7670   -1.1177 C   0  0  0  0  0  0  0  0  0  0  0  0
   -4.4428    6.4204   -0.8373 C   0  0  0  0  0  0  0  0  0  0  0  0
    0.8473    5.5197    1.7688 C   0  0  0  0  0  0  0  0  0  0  0  0
    0.7118    5.0270    3.1267 C   0  0  0  0  0  0  0  0  0  0  0  0
    0.7461    3.8323    3.5046 O   0  0  0  0  0  0  0  0  0  0  0  0
    0.5142    6.0024    4.1720 N   0  0  0  0  0  0  0  0  0  0  0  0
    3.4832    0.9049    2.8973 C   0  0  0  0  0  0  0  0  0  0  0  0
   -7.1119   -6.1821    4.1494 N   0  0  0  0  0  0  0  0  0  0  0  0
   -6.0963   -6.0192    6.6511 H   0  0  0  0  0  0  0  0  0  0  0  0
   -4.9096   -4.6962    6.2488 H   0  0  0  0  0  0  0  0  0  0  0  0
   -3.7192   -4.0086    4.5772 H   0  0  0  0  0  0  0  0  0  0  0  0
   -3.0259   -5.5965    4.2534 H   0  0  0  0  0  0  0  0  0  0  0  0
   -2.9469   -5.2883    1.8851 H   0  0  0  0  0  0  0  0  0  0  0  0
   -2.1128   -3.9636    2.7480 H   0  0  0  0  0  0  0  0  0  0  0  0
   -3.9574   -2.4398    2.4902 H   0  0  0  0  0  0  0  0  0  0  0  0
   -4.9294   -3.7041    1.6545 H   0  0  0  0  0  0  0  0  0  0  0  0
   -3.3646   -3.8660   -0.1206 H   0  0  0  0  0  0  0  0  0  0  0  0
   -1.7207   -1.6086    1.1207 H   0  0  0  0  0  0  0  0  0  0  0  0
    0.7521   -2.3512    1.1384 H   0  0  0  0  0  0  0  0  0  0  0  0
   -0.4351   -0.6133   -0.4687 H   0  0  0  0  0  0  0  0  0  0  0  0
    1.3873   -0.5881   -0.3655 H   0  0  0  0  0  0  0  0  0  0  0  0
   -0.4020   -1.7524   -2.5525 H   0  0  0  0  0  0  0  0  0  0  0  0
    1.1327   -0.8926   -2.7152 H   0  0  0  0  0  0  0  0  0  0  0  0
    2.0466   -2.9304   -2.7611 H   0  0  0  0  0  0  0  0  0  0  0  0
    0.5421   -3.7446   -2.4186 H   0  0  0  0  0  0  0  0  0  0  0  0
    4.6415   -4.6461   -0.1406 H   0  0  0  0  0  0  0  0  0  0  0  0
    3.6634   -6.3641   -1.4632 H   0  0  0  0  0  0  0  0  0  0  0  0
    2.4189   -5.2087   -2.1615 H   0  0  0  0  0  0  0  0  0  0  0  0
    3.8925   -5.2163   -3.9392 H   0  0  0  0  0  0  0  0  0  0  0  0
    5.3118   -5.7010   -2.8525 H   0  0  0  0  0  0  0  0  0  0  0  0
    4.3118   -2.9857   -3.6651 H   0  0  0  0  0  0  0  0  0  0  0  0
    5.9039   -3.5222   -2.9262 H   0  0  0  0  0  0  0  0  0  0  0  0
    3.5454   -0.5732   -2.5482 H   0  0  0  0  0  0  0  0  0  0  0  0
    5.8478   -0.9717   -3.0905 H   0  0  0  0  0  0  0  0  0  0  0  0
    5.6064    0.7420   -2.7984 H   0  0  0  0  0  0  0  0  0  0  0  0
    6.7012    1.9208   -1.1244 H   0  0  0  0  0  0  0  0  0  0  0  0
    8.6384    2.0239    0.3240 H   0  0  0  0  0  0  0  0  0  0  0  0
    9.8947   -0.0293    0.9735 H   0  0  0  0  0  0  0  0  0  0  0  0
    9.1615   -2.1518    0.1381 H   0  0  0  0  0  0  0  0  0  0  0  0
    7.1963   -2.3141   -1.3393 H   0  0  0  0  0  0  0  0  0  0  0  0
    3.2309    1.2398   -1.1161 H   0  0  0  0  0  0  0  0  0  0  0  0
    4.3907    2.3871    1.7123 H   0  0  0  0  0  0  0  0  0  0  0  0
    1.5241    1.7353    0.9650 H   0  0  0  0  0  0  0  0  0  0  0  0
    1.1471    5.0188   -0.2191 H   0  0  0  0  0  0  0  0  0  0  0  0
   -0.3711    2.7154    0.8850 H   0  0  0  0  0  0  0  0  0  0  0  0
   -2.9599    4.0435   -1.4267 H   0  0  0  0  0  0  0  0  0  0  0  0
   -2.3354    1.6443    0.2751 H   0  0  0  0  0  0  0  0  0  0  0  0
   -5.4044    0.2716   -0.8480 H   0  0  0  0  0  0  0  0  0  0  0  0
   -2.5979   -0.5459   -0.4618 H   0  0  0  0  0  0  0  0  0  0  0  0
   -6.4551    0.4806   -2.8471 H   0  0  0  0  0  0  0  0  0  0  0  0
   -6.6062   -0.0998   -5.2056 H   0  0  0  0  0  0  0  0  0  0  0  0
   -4.5424   -0.8957   -6.4241 H   0  0  0  0  0  0  0  0  0  0  0  0
   -2.4559   -1.0598   -5.2140 H   0  0  0  0  0  0  0  0  0  0  0  0
   -2.3205   -0.4474   -2.7646 H   0  0  0  0  0  0  0  0  0  0  0  0
   -4.6457    4.0835    0.3376 H   0  0  0  0  0  0  0  0  0  0  0  0
   -3.3799    4.3332    1.5648 H   0  0  0  0  0  0  0  0  0  0  0  0
   -2.3372    6.4393    1.8012 H   0  0  0  0  0  0  0  0  0  0  0  0
   -2.4113    8.8790    1.2996 H   0  0  0  0  0  0  0  0  0  0  0  0
   -3.8217    9.6830   -0.5995 H   0  0  0  0  0  0  0  0  0  0  0  0
   -5.1225    8.0586   -1.9566 H   0  0  0  0  0  0  0  0  0  0  0  0
   -4.9980    5.7068   -1.4145 H   0  0  0  0  0  0  0  0  0  0  0  0
   -0.0119    6.1519    1.5017 H   0  0  0  0  0  0  0  0  0  0  0  0
    1.7586    6.1834    1.7563 H   0  0  0  0  0  0  0  0  0  0  0  0
    1.1003    6.8690    4.1258 H   0  0  0  0  0  0  0  0  0  0  0  0
   -0.1838    5.8225    4.9166 H   0  0  0  0  0  0  0  0  0  0  0  0
    3.8687    1.5451    3.7262 H   0  0  0  0  0  0  0  0  0  0  0  0
    2.4413    0.6474    3.0886 H   0  0  0  0  0  0  0  0  0  0  0  0
    4.1211   -0.0126    2.9165 H   0  0  0  0  0  0  0  0  0  0  0  0
   -7.2052   -6.9095    3.4116 H   0  0  0  0  0  0  0  0  0  0  0  0
   -8.0285   -5.8807    4.5898 H   0  0  0  0  0  0  0  0  0  0  0  0
  1  2  1  0
  2  3  2  3
  3  4  1  0
  4  5  1  0
  5  6  1  0
  6  7  1  0
  7  8  1  0
  8  9  1  0
  9 10  2  0
  9 11  1  0
 11 12  1  0
 12 13  1  0
 13 14  1  0
 14 15  1  0
 15 16  1  0
 16 17  2  0
 16 18  1  0
 18 19  1  0
 19 20  1  0
 20 21  1  0
 21 22  1  0
 22 23  1  0
 23 24  2  0
 23 25  1  0
 25 26  1  0
 26 27  1  0
 27 28  2  0
 28 29  1  0
 29 30  2  0
 30 31  1  0
 31 32  2  0
 25 33  1  0
 33 34  1  0
 34 35  2  0
 34 36  1  0
 36 37  1  0
 37 38  1  0
 38 39  2  0
 38 40  1  0
 40 41  1  0
 41 42  1  0
 42 43  2  0
 42 44  1  0
 44 45  1  0
 45 46  1  0
 46 47  2  0
 46 48  1  0
 48 49  1  0
 49 50  1  0
 50 51  2  0
 48 52  1  0
 52 53  2  0
 53 54  1  0
 54 55  2  0
 55 56  1  0
 56 57  2  0
 44 58  1  0
 58 59  1  0
 59 60  2  0
 60 61  1  0
 61 62  2  0
 62 63  1  0
 63 64  2  0
 40 65  1  0
 65 66  1  0
 66 67  2  0
 66 68  1  0
 36 69  1  0
  2 70  1  0
 50  7  1  0
 57 52  1  0
 64 59  1  0
 15 11  1  0
 22 18  1  0
 32 27  1  0
  1 71  1  0
  1 72  1  0
  4 73  1  0
  4 74  1  0
  5 75  1  0
  5 76  1  0
  6 77  1  0
  6 78  1  0
  7 79  1  6
  8 80  1  0
 11 81  1  1
 12 82  1  0
 12 83  1  0
 13 84  1  0
 13 85  1  0
 14 86  1  0
 14 87  1  0
 18 88  1  1
 19 89  1  0
 19 90  1  0
 20 91  1  0
 20 92  1  0
 21 93  1  0
 21 94  1  0
 25 95  1  6
 26 96  1  0
 26 97  1  0
 28 98  1  0
 29 99  1  0
 30100  1  0
 31101  1  0
 32102  1  0
 33103  1  0
 36104  1  1
 37105  1  0
 40106  1  6
 41107  1  0
 44108  1  6
 45109  1  0
 48110  1  0
 49111  1  0
 53112  1  0
 54113  1  0
 55114  1  0
 56115  1  0
 57116  1  0
 58117  1  0
 58118  1  0
 60119  1  0
 61120  1  0
 62121  1  0
 63122  1  0
 64123  1  0
 65124  1  0
 65125  1  0
 68126  1  0
 68127  1  0
 69128  1  0
 69129  1  0
 69130  1  0
 70131  1  0
 70132  1  0
M  END
>  <Ligand ID>  (1) 
LIG0005509

>  <Ligand>  (1) 
CHEMBL3577984

>  <SMILES>  (1) 
NC(=NCCC[C@@H]1NC(=O)[C@@H]2CCCN2C(=O)[C@H]2CCCN2C(=O)[C@H](Cc2ccccc2)NC(=O)[C@@H](NC(=O)[C@@H](NC(=O)[C@@H](NC(=O)C(NC1=O)c1ccccc1)Cc1ccccc1)CC(=O)N)C)N

>  <CID>  (1) 
122178154.0

>  <ChEMBL ID>  (1) 
nan

>  <InChiKey>  (1) 
NCOWMOZNYGRNIJ-JMUQTYQMSA-N

>  <InChi>  (1) 
InChI=1S/C49H62N12O9/c1-29-41(63)58-36(27-31-16-7-3-8-17-31)47(69)61-25-13-22-38(61)48(70)60-24-12-21-37(60)45(67)55-33(20-11-23-53-49(51)52)42(64)59-40(32-18-9-4-10-19-32)46(68)57-34(26-30-14-5-2-6-15-30)44(66)56-35(28-39(50)62)43(65)54-29/h2-10,14-19,29,33-38,40H,11-13,20-28H2,1H3,(H2,50,62)(H,54,65)(H,55,67)(H,56,66)(H,57,68)(H,58,63)(H,59,64)(H4,51,52,53)/t29-,33-,34-,35-,36-,37-,38+,40?/m0/s1

>  <IUPAC Name>  (1) 
2-[(3R,9S,12S,15S,18S,24S,27S)-9,18-dibenzyl-24-[3-(diaminomethylideneamino)propyl]-12-methyl-2,8,11,14,17,20,23,26-octaoxo-21-phenyl-1,7,10,13,16,19,22,25-octazatricyclo[25.3.0.03,7]triacontan-15-yl]acetamide

$$$$
