
     RDKit          3D

 44 46  0  0  0  0  0  0  0  0999 V2000
    3.1759   -0.3745    0.3250 C   0  0  0  0  0  0  0  0  0  0  0  0
    2.1446   -0.2885   -0.7825 C   0  0  0  0  0  0  0  0  0  0  0  0
    2.1420    1.1501   -1.2362 C   0  0  0  0  0  0  0  0  0  0  0  0
    2.4238    1.4947   -2.4322 N   0  0  0  0  0  0  0  0  0  0  0  0
    2.3299    2.9262   -2.5335 C   0  0  0  0  0  0  0  0  0  0  0  0
    2.2336    3.4271   -1.1220 C   0  0  0  0  0  0  0  0  0  0  0  0
    1.8349    2.2404   -0.4024 N   0  0  0  0  0  0  0  0  0  0  0  0
    0.8620   -0.5990   -0.3565 O   0  0  0  0  0  0  0  0  0  0  0  0
    0.0145   -1.5732   -0.7881 C   0  0  0  0  0  0  0  0  0  0  0  0
    0.3009   -2.4843   -1.7918 C   0  0  0  0  0  0  0  0  0  0  0  0
   -0.5789   -3.4569   -2.2039 C   0  0  0  0  0  0  0  0  0  0  0  0
   -1.8120   -3.5528   -1.6068 C   0  0  0  0  0  0  0  0  0  0  0  0
   -2.1164   -2.6654   -0.6149 C   0  0  0  0  0  0  0  0  0  0  0  0
   -1.2278   -1.6696   -0.1862 C   0  0  0  0  0  0  0  0  0  0  0  0
   -1.6917   -0.7900    0.8886 C   0  0  0  0  0  0  0  0  0  0  0  0
   -1.4080   -1.2311    2.2841 C   0  0  0  0  0  0  0  0  0  0  0  0
   -2.0196   -0.3041    3.2614 C   0  0  0  0  0  0  0  0  0  0  0  0
   -2.3089    1.0831    2.8642 C   0  0  0  0  0  0  0  0  0  0  0  0
   -1.9980    1.5028    1.4631 C   0  0  0  0  0  0  0  0  0  0  0  0
   -1.0340    0.5689    0.7645 C   0  0  0  0  0  0  0  0  0  0  0  0
    2.9245   -1.2269    0.9554 H   0  0  0  0  0  0  0  0  0  0  0  0
    3.0432    0.5746    0.9208 H   0  0  0  0  0  0  0  0  0  0  0  0
    4.1882   -0.3251   -0.0735 H   0  0  0  0  0  0  0  0  0  0  0  0
    2.4471   -0.9708   -1.5846 H   0  0  0  0  0  0  0  0  0  0  0  0
    1.3935    3.2139   -3.0552 H   0  0  0  0  0  0  0  0  0  0  0  0
    3.1804    3.3718   -3.0895 H   0  0  0  0  0  0  0  0  0  0  0  0
    1.4790    4.2213   -0.9650 H   0  0  0  0  0  0  0  0  0  0  0  0
    3.2380    3.7270   -0.7312 H   0  0  0  0  0  0  0  0  0  0  0  0
    1.4079    2.2759    0.5503 H   0  0  0  0  0  0  0  0  0  0  0  0
    1.2532   -2.4443   -2.2846 H   0  0  0  0  0  0  0  0  0  0  0  0
   -0.3508   -4.1674   -2.9894 H   0  0  0  0  0  0  0  0  0  0  0  0
   -2.5052   -4.3243   -1.9361 H   0  0  0  0  0  0  0  0  0  0  0  0
   -3.1061   -2.7585   -0.1505 H   0  0  0  0  0  0  0  0  0  0  0  0
   -2.7962   -0.6750    0.8012 H   0  0  0  0  0  0  0  0  0  0  0  0
   -0.3034   -1.2668    2.4150 H   0  0  0  0  0  0  0  0  0  0  0  0
   -1.8381   -2.2603    2.3905 H   0  0  0  0  0  0  0  0  0  0  0  0
   -2.9471   -0.7896    3.6897 H   0  0  0  0  0  0  0  0  0  0  0  0
   -1.3375   -0.2873    4.1627 H   0  0  0  0  0  0  0  0  0  0  0  0
   -3.3818    1.3246    3.0388 H   0  0  0  0  0  0  0  0  0  0  0  0
   -1.7781    1.8302    3.5274 H   0  0  0  0  0  0  0  0  0  0  0  0
   -1.5617    2.5213    1.3925 H   0  0  0  0  0  0  0  0  0  0  0  0
   -2.9141    1.5068    0.8357 H   0  0  0  0  0  0  0  0  0  0  0  0
   -0.9041    0.9269   -0.2535 H   0  0  0  0  0  0  0  0  0  0  0  0
   -0.0974    0.5981    1.3939 H   0  0  0  0  0  0  0  0  0  0  0  0
  1  2  1  0
  2  3  1  0
  3  4  2  0
  4  5  1  0
  5  6  1  0
  6  7  1  0
  2  8  1  0
  8  9  1  0
  9 10  2  0
 10 11  1  0
 11 12  2  0
 12 13  1  0
 13 14  2  0
 14 15  1  0
 15 16  1  0
 16 17  1  0
 17 18  1  0
 18 19  1  0
 19 20  1  0
  7  3  1  0
 14  9  1  0
 20 15  1  0
  1 21  1  0
  1 22  1  0
  1 23  1  0
  2 24  1  0
  5 25  1  0
  5 26  1  0
  6 27  1  0
  6 28  1  0
  7 29  1  0
 10 30  1  0
 11 31  1  0
 12 32  1  0
 13 33  1  0
 15 34  1  0
 16 35  1  0
 16 36  1  0
 17 37  1  0
 17 38  1  0
 18 39  1  0
 18 40  1  0
 19 41  1  0
 19 42  1  0
 20 43  1  0
 20 44  1  0
M  END
>  <Ligand ID>  (1) 
LIG0003519

>  <Ligand>  (1) 
CHEMBL451229

>  <SMILES>  (1) 
CC(C1=NCCN1)Oc1ccccc1C1CCCCC1

>  <CID>  (1) 
23622576.0

>  <ChEMBL ID>  (1) 
nan

>  <InChiKey>  (1) 
RIMQFOFQYZBTDB-UHFFFAOYSA-N

>  <InChi>  (1) 
InChI=1S/C17H24N2O/c1-13(17-18-11-12-19-17)20-16-10-6-5-9-15(16)14-7-3-2-4-8-14/h5-6,9-10,13-14H,2-4,7-8,11-12H2,1H3,(H,18,19)

>  <IUPAC Name>  (1) 
2-[1-(2-cyclohexylphenoxy)ethyl]-4,5-dihydro-1H-imidazole

$$$$
