
     RDKit          3D

 59 63  0  0  0  0  0  0  0  0999 V2000
   -7.8078   -0.9865   -3.1398 Cl  0  0  0  0  0  0  0  0  0  0  0  0
   -6.3796   -0.6204   -2.2088 C   0  0  0  0  0  0  0  0  0  0  0  0
   -5.3676    0.0783   -2.8121 C   0  0  0  0  0  0  0  0  0  0  0  0
   -4.2249    0.3831   -2.1013 C   0  0  0  0  0  0  0  0  0  0  0  0
   -4.0351    0.0158   -0.7820 C   0  0  0  0  0  0  0  0  0  0  0  0
   -5.0906   -0.6955   -0.2028 C   0  0  0  0  0  0  0  0  0  0  0  0
   -6.2368   -1.0015   -0.9149 C   0  0  0  0  0  0  0  0  0  0  0  0
   -2.8055    0.3456   -0.0185 C   0  0  0  0  0  0  0  0  0  0  0  0
   -1.7570   -0.6788   -0.1705 C   0  0  0  0  0  0  0  0  0  0  0  0
   -2.0556   -1.9695    0.1883 C   0  0  0  0  0  0  0  0  0  0  0  0
   -1.0881   -2.9301    0.0643 C   0  0  0  0  0  0  0  0  0  0  0  0
    0.1752   -2.6330   -0.4112 C   0  0  0  0  0  0  0  0  0  0  0  0
    0.5008   -1.3449   -0.7789 C   0  0  0  0  0  0  0  0  0  0  0  0
   -0.4765   -0.3901   -0.6502 C   0  0  0  0  0  0  0  0  0  0  0  0
    1.7854   -1.0378   -1.2625 C   0  0  0  0  0  0  0  0  0  0  0  0
    2.1225    0.2555   -1.6675 N   0  0  0  0  0  0  0  0  0  0  0  0
    3.3929    0.7337   -2.1537 C   0  0  0  0  0  0  0  0  0  0  0  0
    4.3633    0.9071   -1.0759 C   0  0  0  0  0  0  0  0  0  0  0  0
    4.2677    2.0978   -0.3352 C   0  0  0  0  0  0  0  0  0  0  0  0
    5.1407    2.3879    0.6889 C   0  0  0  0  0  0  0  0  0  0  0  0
    6.1480    1.5304    1.0388 C   0  0  0  0  0  0  0  0  0  0  0  0
    6.2549    0.3549    0.3188 C   0  0  0  0  0  0  0  0  0  0  0  0
    5.3740    0.0642   -0.7136 C   0  0  0  0  0  0  0  0  0  0  0  0
    7.1199    1.7779    2.1268 C   0  0  0  0  0  0  0  0  0  0  0  0
    6.9627    0.8225    3.1177 F   0  0  0  0  0  0  0  0  0  0  0  0
    6.9333    3.0526    2.6119 F   0  0  0  0  0  0  0  0  0  0  0  0
    8.4168    1.6892    1.6490 F   0  0  0  0  0  0  0  0  0  0  0  0
    2.6371   -2.1310   -1.3212 C   0  0  0  0  0  0  0  0  0  0  0  0
    2.2644   -3.4019   -0.9411 C   0  0  0  0  0  0  0  0  0  0  0  0
    3.0888   -4.3588   -1.0177 O   0  0  0  0  0  0  0  0  0  0  0  0
    1.0437   -3.6519   -0.4897 N   0  0  0  0  0  0  0  0  0  0  0  0
   -3.0370    0.8119    1.3530 C   0  0  0  0  0  0  0  0  0  0  0  0
   -3.4641    2.1323    1.5565 C   0  0  0  0  0  0  0  0  0  0  0  0
   -3.6931    2.6335    2.8202 C   0  0  0  0  0  0  0  0  0  0  0  0
   -3.5122    1.8580    3.9436 C   0  0  0  0  0  0  0  0  0  0  0  0
   -3.0925    0.5565    3.7680 C   0  0  0  0  0  0  0  0  0  0  0  0
   -2.8658    0.0648    2.4930 C   0  0  0  0  0  0  0  0  0  0  0  0
   -3.8077    2.5113    5.5368 Cl  0  0  0  0  0  0  0  0  0  0  0  0
   -5.3998    0.4214   -3.8431 H   0  0  0  0  0  0  0  0  0  0  0  0
   -3.4055    0.9383   -2.5597 H   0  0  0  0  0  0  0  0  0  0  0  0
   -5.0378   -1.0234    0.8157 H   0  0  0  0  0  0  0  0  0  0  0  0
   -7.0497   -1.5587   -0.4419 H   0  0  0  0  0  0  0  0  0  0  0  0
   -2.3880    1.2544   -0.5638 H   0  0  0  0  0  0  0  0  0  0  0  0
   -3.0220   -2.2928    0.5614 H   0  0  0  0  0  0  0  0  0  0  0  0
   -1.3268   -3.9518    0.3495 H   0  0  0  0  0  0  0  0  0  0  0  0
   -0.3160    0.6431   -0.9101 H   0  0  0  0  0  0  0  0  0  0  0  0
    1.3645    1.0020   -1.6221 H   0  0  0  0  0  0  0  0  0  0  0  0
    3.2383    1.6575   -2.7518 H   0  0  0  0  0  0  0  0  0  0  0  0
    3.7665   -0.0665   -2.8374 H   0  0  0  0  0  0  0  0  0  0  0  0
    3.4884    2.8306   -0.5575 H   0  0  0  0  0  0  0  0  0  0  0  0
    5.0284    3.3094    1.2261 H   0  0  0  0  0  0  0  0  0  0  0  0
    7.0393   -0.3419    0.5710 H   0  0  0  0  0  0  0  0  0  0  0  0
    5.5346   -0.8555   -1.2299 H   0  0  0  0  0  0  0  0  0  0  0  0
    3.6323   -2.0097   -1.6915 H   0  0  0  0  0  0  0  0  0  0  0  0
    0.7902   -4.6206   -0.2101 H   0  0  0  0  0  0  0  0  0  0  0  0
   -3.6219    2.7843    0.7129 H   0  0  0  0  0  0  0  0  0  0  0  0
   -4.0226    3.6516    2.9798 H   0  0  0  0  0  0  0  0  0  0  0  0
   -2.9520   -0.0470    4.6471 H   0  0  0  0  0  0  0  0  0  0  0  0
   -2.5353   -0.9579    2.4304 H   0  0  0  0  0  0  0  0  0  0  0  0
  1  2  1  0
  2  3  2  0
  3  4  1  0
  4  5  2  0
  5  6  1  0
  6  7  2  0
  5  8  1  0
  8  9  1  0
  9 10  2  0
 10 11  1  0
 11 12  2  0
 12 13  1  0
 13 14  2  0
 13 15  1  0
 15 16  1  0
 16 17  1  0
 17 18  1  0
 18 19  2  0
 19 20  1  0
 20 21  2  0
 21 22  1  0
 22 23  2  0
 21 24  1  0
 24 25  1  0
 24 26  1  0
 24 27  1  0
 15 28  2  0
 28 29  1  0
 29 30  2  0
 29 31  1  0
  8 32  1  0
 32 33  2  0
 33 34  1  0
 34 35  2  0
 35 36  1  0
 36 37  2  0
 35 38  1  0
  7  2  1  0
 14  9  1  0
 23 18  1  0
 37 32  1  0
 31 12  1  0
  3 39  1  0
  4 40  1  0
  6 41  1  0
  7 42  1  0
  8 43  1  0
 10 44  1  0
 11 45  1  0
 14 46  1  0
 16 47  1  0
 17 48  1  0
 17 49  1  0
 19 50  1  0
 20 51  1  0
 22 52  1  0
 23 53  1  0
 28 54  1  0
 31 55  1  0
 33 56  1  0
 34 57  1  0
 36 58  1  0
 37 59  1  0
M  END
>  <Ligand ID>  (1) 
LIG0005947

>  <Ligand>  (1) 
CHEMBL3918083

>  <SMILES>  (1) 
Clc1ccc(cc1)C(c1ccc2c(c1)c(NCc1ccc(cc1)C(F)(F)F)cc(=O)[nH]2)c1ccc(cc1)Cl

>  <CID>  (1) 
118329971.0

>  <ChEMBL ID>  (1) 
nan

>  <InChiKey>  (1) 
PRBBCXCNBGDHHW-UHFFFAOYSA-N

>  <InChi>  (1) 
InChI=1S/C30H21Cl2F3N2O/c31-23-10-3-19(4-11-23)29(20-5-12-24(32)13-6-20)21-7-14-26-25(15-21)27(16-28(38)37-26)36-17-18-1-8-22(9-2-18)30(33,34)35/h1-16,29H,17H2,(H2,36,37,38)

>  <IUPAC Name>  (1) 
6-[bis(4-chlorophenyl)methyl]-4-[[4-(trifluoromethyl)phenyl]methylamino]-1H-quinolin-2-one

$$$$
