
     RDKit          3D

 34 34  0  0  0  0  0  0  0  0999 V2000
   -3.4232    2.5422    0.2758 C   0  0  0  0  0  0  0  0  0  0  0  0
   -2.9607    1.4142   -0.2977 C   0  0  0  0  0  0  0  0  0  0  0  0
   -1.6590    1.4619   -0.9714 C   0  0  0  0  0  0  0  0  0  0  0  0
   -0.7317    0.5936   -0.4349 O   0  0  0  0  0  0  0  0  0  0  0  0
   -0.7906   -0.7599   -0.3987 C   0  0  0  0  0  0  0  0  0  0  0  0
   -1.7920   -1.5477   -0.9144 C   0  0  0  0  0  0  0  0  0  0  0  0
   -1.7872   -2.9348   -0.8413 C   0  0  0  0  0  0  0  0  0  0  0  0
   -2.8079   -3.6471   -1.3707 F   0  0  0  0  0  0  0  0  0  0  0  0
   -0.7470   -3.5957   -0.2313 C   0  0  0  0  0  0  0  0  0  0  0  0
    0.2667   -2.8354    0.2915 C   0  0  0  0  0  0  0  0  0  0  0  0
    0.2617   -1.4357    0.2177 C   0  0  0  0  0  0  0  0  0  0  0  0
    1.4356   -0.7655    0.8165 C   0  0  0  0  0  0  0  0  0  0  0  0
    2.7146   -0.7611    0.0221 C   0  0  0  0  0  0  0  0  0  0  0  0
    1.9719    0.5002    0.3230 C   0  0  0  0  0  0  0  0  0  0  0  0
    2.5891    1.5208    1.2565 C   0  0  0  0  0  0  0  0  0  0  0  0
    3.0212    2.6415    0.5044 N   0  0  0  0  0  0  0  0  0  0  0  0
   -0.7904   -4.9451   -0.1865 F   0  0  0  0  0  0  0  0  0  0  0  0
    0.6910    0.0000    0.0000 Cl  0  0  0  0  0  0  0  0  0  0  0  0
   -4.3693    2.5967    0.7915 H   0  0  0  0  0  0  0  0  0  0  0  0
   -2.8498    3.4748    0.2451 H   0  0  0  0  0  0  0  0  0  0  0  0
   -3.6120    0.5616   -0.2006 H   0  0  0  0  0  0  0  0  0  0  0  0
   -1.2988    2.5296   -0.9722 H   0  0  0  0  0  0  0  0  0  0  0  0
   -1.7952    1.2242   -2.0708 H   0  0  0  0  0  0  0  0  0  0  0  0
   -2.6169   -1.1038   -1.4130 H   0  0  0  0  0  0  0  0  0  0  0  0
    1.0863   -3.3688    0.7724 H   0  0  0  0  0  0  0  0  0  0  0  0
    1.5323   -0.9304    1.9231 H   0  0  0  0  0  0  0  0  0  0  0  0
    3.6172   -1.0388    0.5896 H   0  0  0  0  0  0  0  0  0  0  0  0
    2.7281   -1.1315   -1.0061 H   0  0  0  0  0  0  0  0  0  0  0  0
    1.4910    0.9719   -0.5511 H   0  0  0  0  0  0  0  0  0  0  0  0
    1.8282    1.8989    1.9950 H   0  0  0  0  0  0  0  0  0  0  0  0
    3.4311    1.1302    1.8480 H   0  0  0  0  0  0  0  0  0  0  0  0
    2.2798    3.2800    0.1660 H   0  0  0  0  0  0  0  0  0  0  0  0
    3.7769    2.4590   -0.1776 H   0  0  0  0  0  0  0  0  0  0  0  0
   -0.6910    0.0000    0.0000 H   0  0  0  0  0  0  0  0  0  0  0  0
  1  2  2  0
  2  3  1  0
  3  4  1  0
  4  5  1  0
  5  6  2  0
  6  7  1  0
  7  8  1  0
  7  9  2  0
  9 10  1  0
 10 11  2  0
 11 12  1  0
 12 13  1  0
 13 14  1  0
 14 15  1  0
 15 16  1  0
  9 17  1  0
 11  5  1  0
 14 12  1  0
  1 19  1  0
  1 20  1  0
  2 21  1  0
  3 22  1  0
  3 23  1  0
  6 24  1  0
 10 25  1  0
 12 26  1  0
 13 27  1  0
 13 28  1  0
 14 29  1  0
 15 30  1  0
 15 31  1  0
 16 32  1  0
 16 33  1  0
 18 34  1  0
M  END
>  <Ligand ID>  (1) 
LIG0002340

>  <Ligand>  (1) 
CHEMBL3769968

>  <SMILES>  (1) 
C=CCOc1cc(F)c(cc1C1CC1CN)F.Cl

>  <CID>  (1) 
127028408.0

>  <ChEMBL ID>  (1) 
nan

>  <InChiKey>  (1) 
XGCOQOYOBQPELW-UHFFFAOYSA-N

>  <InChi>  (1) 
InChI=1S/C13H15F2NO.ClH/c1-2-3-17-13-6-12(15)11(14)5-10(13)9-4-8(9)7-16;/h2,5-6,8-9H,1,3-4,7,16H2;1H

>  <IUPAC Name>  (1) 
[2-(4,5-difluoro-2-prop-2-enoxyphenyl)cyclopropyl]methanamine;hydrochloride

$$$$
