
     RDKit          3D

 70 73  0  0  0  0  0  0  0  0999 V2000
    3.1423   -2.7655    1.3848 C   0  0  0  0  0  0  0  0  0  0  0  0
    3.6103   -1.6074    0.5187 C   0  0  0  0  0  0  0  0  0  0  0  0
    4.8030   -0.9982    1.1617 C   0  0  0  0  0  0  0  0  0  0  0  0
    6.0030   -1.0461    0.4702 C   0  0  0  0  0  0  0  0  0  0  0  0
    7.1642   -0.4979    1.0052 C   0  0  0  0  0  0  0  0  0  0  0  0
    7.1095    0.1079    2.2593 C   0  0  0  0  0  0  0  0  0  0  0  0
    5.8980    0.1566    2.9582 C   0  0  0  0  0  0  0  0  0  0  0  0
    4.7396   -0.4007    2.4033 C   0  0  0  0  0  0  0  0  0  0  0  0
    2.5098   -0.5783    0.3129 C   0  0  0  0  0  0  0  0  0  0  0  0
    1.3706   -1.2404   -0.3497 C   0  0  0  0  0  0  0  0  0  0  0  0
    1.4272   -2.4746   -0.6469 O   0  0  0  0  0  0  0  0  0  0  0  0
    0.1617   -0.5738   -0.6961 N   0  0  0  0  0  0  0  0  0  0  0  0
   -0.8413   -1.3583   -1.3319 C   0  0  0  0  0  0  0  0  0  0  0  0
   -0.9175   -1.5264   -2.6988 C   0  0  0  0  0  0  0  0  0  0  0  0
   -0.0894   -0.9881   -3.4466 O   0  0  0  0  0  0  0  0  0  0  0  0
   -1.9037   -2.2838   -3.2117 N   0  0  0  0  0  0  0  0  0  0  0  0
   -2.8124   -2.8771   -2.4154 C   0  0  0  0  0  0  0  0  0  0  0  0
   -3.6959   -3.5660   -2.9978 O   0  0  0  0  0  0  0  0  0  0  0  0
   -2.7828   -2.7437   -1.0593 N   0  0  0  0  0  0  0  0  0  0  0  0
   -1.7920   -1.9835   -0.5537 C   0  0  0  0  0  0  0  0  0  0  0  0
   -1.7062   -1.8059    0.8753 N   0  0  0  0  0  0  0  0  0  0  0  0
   -3.7713   -3.3936   -0.2609 C   0  0  0  0  0  0  0  0  0  0  0  0
   -4.9871   -2.6409    0.0190 C   0  0  0  0  0  0  0  0  0  0  0  0
   -6.0962   -2.7061   -0.8238 C   0  0  0  0  0  0  0  0  0  0  0  0
   -7.2550   -1.9923   -0.5629 C   0  0  0  0  0  0  0  0  0  0  0  0
   -7.3723   -1.1792    0.5451 C   0  0  0  0  0  0  0  0  0  0  0  0
   -6.2819   -1.1064    1.3867 C   0  0  0  0  0  0  0  0  0  0  0  0
   -5.1237   -1.8219    1.1228 C   0  0  0  0  0  0  0  0  0  0  0  0
    0.0039    0.8320   -0.3896 C   0  0  0  0  0  0  0  0  0  0  0  0
    0.4718    1.7506   -1.4920 C   0  0  0  0  0  0  0  0  0  0  0  0
    0.2728    3.1919   -1.0819 C   0  0  0  0  0  0  0  0  0  0  0  0
   -0.5043    3.9676   -1.8033 C   0  0  0  0  0  0  0  0  0  0  0  0
   -0.7496    5.3894   -1.4676 C   0  0  0  0  0  0  0  0  0  0  0  0
    0.1043    5.8808   -0.3434 C   0  0  0  0  0  0  0  0  0  0  0  0
    1.3603    5.1073   -0.1205 C   0  0  0  0  0  0  0  0  0  0  0  0
    0.9859    3.6530    0.1413 C   0  0  0  0  0  0  0  0  0  0  0  0
    2.9782   -3.6838    0.7782 H   0  0  0  0  0  0  0  0  0  0  0  0
    3.9159   -3.0412    2.1328 H   0  0  0  0  0  0  0  0  0  0  0  0
    2.2467   -2.4924    1.9802 H   0  0  0  0  0  0  0  0  0  0  0  0
    3.9105   -2.0164   -0.4621 H   0  0  0  0  0  0  0  0  0  0  0  0
    6.0866   -1.5039   -0.4984 H   0  0  0  0  0  0  0  0  0  0  0  0
    8.0964   -0.5432    0.4515 H   0  0  0  0  0  0  0  0  0  0  0  0
    8.0228    0.5452    2.6926 H   0  0  0  0  0  0  0  0  0  0  0  0
    5.8446    0.6184    3.9202 H   0  0  0  0  0  0  0  0  0  0  0  0
    3.7916   -0.3741    2.9267 H   0  0  0  0  0  0  0  0  0  0  0  0
    2.9260    0.2068   -0.3308 H   0  0  0  0  0  0  0  0  0  0  0  0
    2.2355   -0.1491    1.2996 H   0  0  0  0  0  0  0  0  0  0  0  0
   -1.9426   -2.3983   -4.2562 H   0  0  0  0  0  0  0  0  0  0  0  0
   -1.4055   -2.6043    1.4852 H   0  0  0  0  0  0  0  0  0  0  0  0
   -1.9544   -0.8543    1.2800 H   0  0  0  0  0  0  0  0  0  0  0  0
   -4.0267   -4.3840   -0.7160 H   0  0  0  0  0  0  0  0  0  0  0  0
   -3.3217   -3.6635    0.7378 H   0  0  0  0  0  0  0  0  0  0  0  0
   -6.1042   -3.3127   -1.7132 H   0  0  0  0  0  0  0  0  0  0  0  0
   -8.1166   -2.0585   -1.2404 H   0  0  0  0  0  0  0  0  0  0  0  0
   -8.2856   -0.6507    0.7007 H   0  0  0  0  0  0  0  0  0  0  0  0
   -6.3571   -0.4758    2.2566 H   0  0  0  0  0  0  0  0  0  0  0  0
   -4.3244   -1.7040    1.8358 H   0  0  0  0  0  0  0  0  0  0  0  0
    0.6264    1.1060    0.5036 H   0  0  0  0  0  0  0  0  0  0  0  0
   -1.0716    1.0484   -0.2392 H   0  0  0  0  0  0  0  0  0  0  0  0
    1.5324    1.6000   -1.7808 H   0  0  0  0  0  0  0  0  0  0  0  0
   -0.1174    1.5512   -2.4299 H   0  0  0  0  0  0  0  0  0  0  0  0
   -1.0040    3.5810   -2.6908 H   0  0  0  0  0  0  0  0  0  0  0  0
   -1.8337    5.4666   -1.1697 H   0  0  0  0  0  0  0  0  0  0  0  0
   -0.6488    5.9758   -2.3954 H   0  0  0  0  0  0  0  0  0  0  0  0
    0.3623    6.9443   -0.5637 H   0  0  0  0  0  0  0  0  0  0  0  0
   -0.4939    5.8784    0.6013 H   0  0  0  0  0  0  0  0  0  0  0  0
    1.8822    5.5528    0.7401 H   0  0  0  0  0  0  0  0  0  0  0  0
    1.9912    5.2094   -1.0225 H   0  0  0  0  0  0  0  0  0  0  0  0
    1.8725    3.0579    0.3678 H   0  0  0  0  0  0  0  0  0  0  0  0
    0.2309    3.6872    0.9612 H   0  0  0  0  0  0  0  0  0  0  0  0
  1  2  1  0
  2  3  1  0
  3  4  2  0
  4  5  1  0
  5  6  2  0
  6  7  1  0
  7  8  2  0
  2  9  1  0
  9 10  1  0
 10 11  2  0
 10 12  1  0
 12 13  1  0
 13 14  1  0
 14 15  2  0
 14 16  1  0
 16 17  1  0
 17 18  2  0
 17 19  1  0
 19 20  1  0
 20 21  1  0
 19 22  1  0
 22 23  1  0
 23 24  2  0
 24 25  1  0
 25 26  2  0
 26 27  1  0
 27 28  2  0
 12 29  1  0
 29 30  1  0
 30 31  1  0
 31 32  2  0
 32 33  1  0
 33 34  1  0
 34 35  1  0
 35 36  1  0
  8  3  1  0
 20 13  2  0
 28 23  1  0
 36 31  1  0
  1 37  1  0
  1 38  1  0
  1 39  1  0
  2 40  1  0
  4 41  1  0
  5 42  1  0
  6 43  1  0
  7 44  1  0
  8 45  1  0
  9 46  1  0
  9 47  1  0
 16 48  1  0
 21 49  1  0
 21 50  1  0
 22 51  1  0
 22 52  1  0
 24 53  1  0
 25 54  1  0
 26 55  1  0
 27 56  1  0
 28 57  1  0
 29 58  1  0
 29 59  1  0
 30 60  1  0
 30 61  1  0
 32 62  1  0
 33 63  1  0
 33 64  1  0
 34 65  1  0
 34 66  1  0
 35 67  1  0
 35 68  1  0
 36 69  1  0
 36 70  1  0
M  END
>  <Ligand ID>  (1) 
LIG0003523

>  <Ligand>  (1) 
MLS001148297

>  <SMILES>  (1) 
CC(c1ccccc1)CC(=O)N(c1c(=O)[nH]c(=O)n(c1N)Cc1ccccc1)CCC1=CCCCC1

>  <CID>  (1) 
24687019.0

>  <ChEMBL ID>  (1) 
nan

>  <InChiKey>  (1) 
JJEUHHOBVBKNGG-UHFFFAOYSA-N

>  <InChi>  (1) 
InChI=1S/C29H34N4O3/c1-21(24-15-9-4-10-16-24)19-25(34)32(18-17-22-11-5-2-6-12-22)26-27(30)33(29(36)31-28(26)35)20-23-13-7-3-8-14-23/h3-4,7-11,13-16,21H,2,5-6,12,17-20,30H2,1H3,(H,31,35,36)

>  <IUPAC Name>  (1) 
N-(6-amino-1-benzyl-2,4-dioxopyrimidin-5-yl)-N-[2-(cyclohexen-1-yl)ethyl]-3-phenylbutanamide

$$$$
