
     RDKit          3D

 43 44  0  0  0  0  0  0  0  0999 V2000
   -1.8791   -2.5099    1.1388 C   0  0  0  0  0  0  0  0  0  0  0  0
   -1.6462   -1.9206   -0.0955 O   0  0  0  0  0  0  0  0  0  0  0  0
   -0.8604   -0.8181   -0.3726 C   0  0  0  0  0  0  0  0  0  0  0  0
    0.4822   -1.0693   -0.6404 C   0  0  0  0  0  0  0  0  0  0  0  0
    1.0500   -2.4430   -0.6301 C   0  0  0  0  0  0  0  0  0  0  0  0
    1.3527   -0.0388   -0.9308 C   0  0  0  0  0  0  0  0  0  0  0  0
    2.7225   -0.3038   -1.2031 N   0  0  0  0  0  0  0  0  0  0  0  0
    3.6558   -0.3194   -0.1611 C   0  0  0  0  0  0  0  0  0  0  0  0
    3.4191   -0.1070    1.1257 N   0  0  0  0  0  0  0  0  0  0  0  0
    4.5608   -0.2013    1.8405 C   0  0  0  0  0  0  0  0  0  0  0  0
    5.5609   -0.4897    0.9355 C   0  0  0  0  0  0  0  0  0  0  0  0
    4.9871   -0.5549   -0.2612 N   0  0  0  0  0  0  0  0  0  0  0  0
    0.8485    1.2452   -0.9467 C   0  0  0  0  0  0  0  0  0  0  0  0
   -0.4814    1.4794   -0.6801 C   0  0  0  0  0  0  0  0  0  0  0  0
   -1.3805    0.4571   -0.3842 C   0  0  0  0  0  0  0  0  0  0  0  0
   -2.7986    0.7736   -0.1071 C   0  0  0  0  0  0  0  0  0  0  0  0
   -2.9930    2.2826   -0.2241 C   0  0  0  0  0  0  0  0  0  0  0  0
   -3.2299    0.4250    1.3048 C   0  0  0  0  0  0  0  0  0  0  0  0
   -3.6748    0.0324   -1.0946 C   0  0  0  0  0  0  0  0  0  0  0  0
    1.7711    2.3921   -1.2598 C   0  0  0  0  0  0  0  0  0  0  0  0
   -1.5104   -3.5628    1.0952 H   0  0  0  0  0  0  0  0  0  0  0  0
   -1.3619   -1.9287    1.9243 H   0  0  0  0  0  0  0  0  0  0  0  0
   -2.9700   -2.5798    1.3157 H   0  0  0  0  0  0  0  0  0  0  0  0
    0.6310   -3.1064    0.1241 H   0  0  0  0  0  0  0  0  0  0  0  0
    0.8998   -2.8230   -1.6807 H   0  0  0  0  0  0  0  0  0  0  0  0
    2.1367   -2.4161   -0.4703 H   0  0  0  0  0  0  0  0  0  0  0  0
    3.0071   -0.4843   -2.1927 H   0  0  0  0  0  0  0  0  0  0  0  0
    2.4589    0.1047    1.5095 H   0  0  0  0  0  0  0  0  0  0  0  0
    4.6455   -0.0700    2.9228 H   0  0  0  0  0  0  0  0  0  0  0  0
    6.5967   -0.6265    1.2033 H   0  0  0  0  0  0  0  0  0  0  0  0
   -0.7973    2.5275   -0.7139 H   0  0  0  0  0  0  0  0  0  0  0  0
   -4.0743    2.5203   -0.0409 H   0  0  0  0  0  0  0  0  0  0  0  0
   -2.7668    2.5863   -1.2465 H   0  0  0  0  0  0  0  0  0  0  0  0
   -2.3739    2.7427    0.5634 H   0  0  0  0  0  0  0  0  0  0  0  0
   -2.4039    0.2107    1.9864 H   0  0  0  0  0  0  0  0  0  0  0  0
   -3.9500   -0.4171    1.2856 H   0  0  0  0  0  0  0  0  0  0  0  0
   -3.8171    1.2677    1.7778 H   0  0  0  0  0  0  0  0  0  0  0  0
   -4.2368    0.8003   -1.6977 H   0  0  0  0  0  0  0  0  0  0  0  0
   -3.0932   -0.5580   -1.8279 H   0  0  0  0  0  0  0  0  0  0  0  0
   -4.4055   -0.6235   -0.5778 H   0  0  0  0  0  0  0  0  0  0  0  0
    2.0824    2.8372   -0.2848 H   0  0  0  0  0  0  0  0  0  0  0  0
    1.2274    3.1963   -1.8119 H   0  0  0  0  0  0  0  0  0  0  0  0
    2.6088    2.0909   -1.8996 H   0  0  0  0  0  0  0  0  0  0  0  0
  1  2  1  0
  2  3  1  0
  3  4  2  0
  4  5  1  0
  4  6  1  0
  6  7  1  0
  7  8  1  0
  8  9  1  0
  9 10  1  0
 10 11  2  0
 11 12  1  0
  6 13  2  0
 13 14  1  0
 14 15  2  0
 15 16  1  0
 16 17  1  0
 16 18  1  0
 16 19  1  0
 13 20  1  0
 15  3  1  0
 12  8  2  0
  1 21  1  0
  1 22  1  0
  1 23  1  0
  5 24  1  0
  5 25  1  0
  5 26  1  0
  7 27  1  0
  9 28  1  0
 10 29  1  0
 11 30  1  0
 14 31  1  0
 17 32  1  0
 17 33  1  0
 17 34  1  0
 18 35  1  0
 18 36  1  0
 18 37  1  0
 19 38  1  0
 19 39  1  0
 19 40  1  0
 20 41  1  0
 20 42  1  0
 20 43  1  0
M  END
>  <Ligand ID>  (1) 
LIG0003698

>  <Ligand>  (1) 
CHEMBL75257

>  <SMILES>  (1) 
COc1c(C)c(Nc2[nH]ccn2)c(cc1C(C)(C)C)C

>  <CID>  (1) 
9795515.0

>  <ChEMBL ID>  (1) 
nan

>  <InChiKey>  (1) 
AZADEQYOIWOMER-UHFFFAOYSA-N

>  <InChi>  (1) 
InChI=1S/C16H23N3O/c1-10-9-12(16(3,4)5)14(20-6)11(2)13(10)19-15-17-7-8-18-15/h7-9H,1-6H3,(H2,17,18,19)

>  <IUPAC Name>  (1) 
N-(4-tert-butyl-3-methoxy-2,6-dimethylphenyl)-1H-imidazol-2-amine

$$$$
