
     RDKit          3D

 63 63  0  0  0  0  0  0  0  0999 V2000
   -6.1759    1.7029   -1.3345 C   0  0  0  0  0  0  0  0  0  0  0  0
   -7.4375    1.2734   -0.6935 C   0  0  0  0  0  0  0  0  0  0  0  0
   -7.3944    0.4834    0.5534 C   0  0  0  0  0  0  0  0  0  0  0  0
   -6.7612    1.0691    1.7530 C   0  0  0  0  0  0  0  0  0  0  0  0
   -5.2919    1.3634    1.6587 C   0  0  0  0  0  0  0  0  0  0  0  0
   -4.4809    0.1031    1.4167 C   0  0  0  0  0  0  0  0  0  0  0  0
   -3.0080    0.3775    1.2987 C   0  0  0  0  0  0  0  0  0  0  0  0
   -2.2105   -0.8975    1.0560 C   0  0  0  0  0  0  0  0  0  0  0  0
   -2.6309   -1.5900   -0.2137 C   0  0  0  0  0  0  0  0  0  0  0  0
   -1.8632   -2.8560   -0.4870 C   0  0  0  0  0  0  0  0  0  0  0  0
   -0.4083   -2.6058   -0.6191 C   0  0  0  0  0  0  0  0  0  0  0  0
    0.4723   -2.6411    0.4401 C   0  0  0  0  0  0  0  0  0  0  0  0
    1.8232   -2.3946    0.2307 C   0  0  0  0  0  0  0  0  0  0  0  0
    2.3058   -2.1091   -1.0476 C   0  0  0  0  0  0  0  0  0  0  0  0
    1.4181   -2.0755   -2.1034 C   0  0  0  0  0  0  0  0  0  0  0  0
    0.1000   -2.3189   -1.8817 C   0  0  0  0  0  0  0  0  0  0  0  0
    3.6932   -1.8573   -1.2546 N   0  0  0  0  0  0  0  0  0  0  0  0
    4.2298   -0.5145   -1.1644 C   0  0  0  0  0  0  0  0  0  0  0  0
    3.3671    0.3638   -0.8941 O   0  0  0  0  0  0  0  0  0  0  0  0
    5.6604   -0.2629   -1.3787 C   0  0  1  0  0  0  0  0  0  0  0  0
    6.4526    0.1749   -0.2081 C   0  0  0  0  0  0  0  0  0  0  0  0
    5.9592    1.4564    0.3672 C   0  0  0  0  0  0  0  0  0  0  0  0
    6.8220    1.7589    1.4472 O   0  0  0  0  0  0  0  0  0  0  0  0
    7.5230    3.2694    1.2934 P   0  0  0  0  0  0  0  0  0  0  0  0
    6.5122    4.3531    1.6052 O   0  0  0  0  0  0  0  0  0  0  0  0
    8.1316    3.5308   -0.2701 O   0  0  0  0  0  0  0  0  0  0  0  0
    8.8108    3.3575    2.3746 O   0  0  0  0  0  0  0  0  0  0  0  0
    4.6921    1.3487    0.9266 F   0  0  0  0  0  0  0  0  0  0  0  0
    6.2118   -1.5105   -1.9440 N   0  0  0  0  0  0  0  0  0  0  0  0
   -6.3639    1.6671   -2.4586 H   0  0  0  0  0  0  0  0  0  0  0  0
   -5.2939    1.0668   -1.1876 H   0  0  0  0  0  0  0  0  0  0  0  0
   -5.9830    2.7924   -1.1536 H   0  0  0  0  0  0  0  0  0  0  0  0
   -8.0353    0.6634   -1.4346 H   0  0  0  0  0  0  0  0  0  0  0  0
   -8.0627    2.1964   -0.5358 H   0  0  0  0  0  0  0  0  0  0  0  0
   -8.4671    0.2553    0.8234 H   0  0  0  0  0  0  0  0  0  0  0  0
   -6.9563   -0.5351    0.3488 H   0  0  0  0  0  0  0  0  0  0  0  0
   -7.3034    2.0040    2.0708 H   0  0  0  0  0  0  0  0  0  0  0  0
   -6.8819    0.3736    2.6307 H   0  0  0  0  0  0  0  0  0  0  0  0
   -5.1189    2.1437    0.9115 H   0  0  0  0  0  0  0  0  0  0  0  0
   -4.9200    1.7985    2.6240 H   0  0  0  0  0  0  0  0  0  0  0  0
   -4.9078   -0.4213    0.5577 H   0  0  0  0  0  0  0  0  0  0  0  0
   -4.5838   -0.5265    2.3540 H   0  0  0  0  0  0  0  0  0  0  0  0
   -2.6135    0.8144    2.2276 H   0  0  0  0  0  0  0  0  0  0  0  0
   -2.8570    1.1014    0.4725 H   0  0  0  0  0  0  0  0  0  0  0  0
   -2.2312   -1.5287    1.9468 H   0  0  0  0  0  0  0  0  0  0  0  0
   -1.1591   -0.5651    0.9335 H   0  0  0  0  0  0  0  0  0  0  0  0
   -2.4517   -0.8871   -1.0379 H   0  0  0  0  0  0  0  0  0  0  0  0
   -3.6965   -1.8654   -0.2219 H   0  0  0  0  0  0  0  0  0  0  0  0
   -2.2382   -3.2449   -1.4561 H   0  0  0  0  0  0  0  0  0  0  0  0
   -2.0342   -3.6155    0.3001 H   0  0  0  0  0  0  0  0  0  0  0  0
    0.0875   -2.8632    1.4258 H   0  0  0  0  0  0  0  0  0  0  0  0
    2.5152   -2.4193    1.0442 H   0  0  0  0  0  0  0  0  0  0  0  0
    1.7975   -1.8527   -3.0987 H   0  0  0  0  0  0  0  0  0  0  0  0
   -0.5807   -2.2903   -2.7084 H   0  0  0  0  0  0  0  0  0  0  0  0
    4.3425   -2.6276   -1.4730 H   0  0  0  0  0  0  0  0  0  0  0  0
    5.7287    0.4932   -2.1987 H   0  0  0  0  0  0  0  0  0  0  0  0
    6.4716   -0.5736    0.6197 H   0  0  0  0  0  0  0  0  0  0  0  0
    7.5224    0.2550   -0.5563 H   0  0  0  0  0  0  0  0  0  0  0  0
    5.9772    2.3251   -0.3135 H   0  0  0  0  0  0  0  0  0  0  0  0
    8.8962    2.9232   -0.4394 H   0  0  0  0  0  0  0  0  0  0  0  0
    9.4593    4.0114    2.0137 H   0  0  0  0  0  0  0  0  0  0  0  0
    6.8304   -1.3117   -2.7432 H   0  0  0  0  0  0  0  0  0  0  0  0
    6.5890   -2.1093   -1.2025 H   0  0  0  0  0  0  0  0  0  0  0  0
  1  2  1  0
  2  3  1  0
  3  4  1  0
  4  5  1  0
  5  6  1  0
  6  7  1  0
  7  8  1  0
  8  9  1  0
  9 10  1  0
 10 11  1  0
 11 12  2  0
 12 13  1  0
 13 14  2  0
 14 15  1  0
 15 16  2  0
 14 17  1  0
 17 18  1  0
 18 19  2  0
 18 20  1  0
 20 21  1  0
 21 22  1  0
 22 23  1  0
 23 24  1  0
 24 25  2  0
 24 26  1  0
 24 27  1  0
 22 28  1  0
 20 29  1  0
 16 11  1  0
  1 30  1  0
  1 31  1  0
  1 32  1  0
  2 33  1  0
  2 34  1  0
  3 35  1  0
  3 36  1  0
  4 37  1  0
  4 38  1  0
  5 39  1  0
  5 40  1  0
  6 41  1  0
  6 42  1  0
  7 43  1  0
  7 44  1  0
  8 45  1  0
  8 46  1  0
  9 47  1  0
  9 48  1  0
 10 49  1  0
 10 50  1  0
 12 51  1  0
 13 52  1  0
 15 53  1  0
 16 54  1  0
 17 55  1  0
 20 56  1  6
 21 57  1  0
 21 58  1  0
 22 59  1  0
 26 60  1  0
 27 61  1  0
 29 62  1  0
 29 63  1  0
M  END
>  <Ligand ID>  (1) 
LIG0001885

>  <Ligand>  (1) 
CHEMBL226612

>  <SMILES>  (1) 
CCCCCCCCCCc1ccc(cc1)NC(=O)[C@@H](CC(OP(=O)(O)O)F)N

>  <CID>  (1) 
44422604.0

>  <ChEMBL ID>  (1) 
nan

>  <InChiKey>  (1) 
AOBJVCONKJVQNW-MRTLOADZSA-N

>  <InChi>  (1) 
InChI=1S/C20H34FN2O5P/c1-2-3-4-5-6-7-8-9-10-16-11-13-17(14-12-16)23-20(24)18(22)15-19(21)28-29(25,26)27/h11-14,18-19H,2-10,15,22H2,1H3,(H,23,24)(H2,25,26,27)/t18-,19?/m1/s1

>  <IUPAC Name>  (1) 
[(3R)-3-amino-4-(4-decylanilino)-1-fluoro-4-oxobutyl] dihydrogen phosphate

$$$$
