
     RDKit          3D

177182  0  0  0  0  0  0  0  0999 V2000
  -13.3694    4.2261    0.0227 C   0  0  0  0  0  0  0  0  0  0  0  0
  -12.4449    5.2580    0.3433 N   0  0  0  0  0  0  0  0  0  0  0  0
  -11.5379    5.3751    1.2007 C   0  0  0  0  0  0  0  0  0  0  0  0
  -11.1430    4.4217    2.1663 N   0  0  0  0  0  0  0  0  0  0  0  0
  -11.1418    2.9963    1.7677 C   0  0  0  0  0  0  0  0  0  0  0  0
  -10.3984    2.3001    2.8372 C   0  0  0  0  0  0  0  0  0  0  0  0
  -10.1785    0.8570    2.7498 C   0  0  0  0  0  0  0  0  0  0  0  0
   -9.4817    0.2971    1.5668 C   0  0  1  0  0  0  0  0  0  0  0  0
  -10.1659    0.4596    0.2578 C   0  0  0  0  0  0  0  0  0  0  0  0
   -9.6696    1.0558   -0.7298 O   0  0  0  0  0  0  0  0  0  0  0  0
  -11.4933   -0.0696    0.0188 N   0  0  0  0  0  0  0  0  0  0  0  0
  -12.0496    0.1750   -1.2844 C   0  0  2  0  0  0  0  0  0  0  0  0
  -13.4624    0.7175   -1.1346 C   0  0  0  0  0  0  0  0  0  0  0  0
  -14.0394    0.9611   -2.2083 O   0  0  0  0  0  0  0  0  0  0  0  0
  -14.0375    0.9148    0.1520 N   0  0  0  0  0  0  0  0  0  0  0  0
  -12.1848   -1.0145   -2.1834 C   0  0  0  0  0  0  0  0  0  0  0  0
  -13.0628   -2.0719   -1.6705 C   0  0  0  0  0  0  0  0  0  0  0  0
  -14.3756   -2.2432   -2.1247 C   0  0  0  0  0  0  0  0  0  0  0  0
  -14.9390   -3.2875   -1.4793 N   0  0  0  0  0  0  0  0  0  0  0  0
  -14.0570   -3.8194   -0.6123 C   0  0  0  0  0  0  0  0  0  0  0  0
  -12.8827   -3.0572   -0.7322 C   0  0  0  0  0  0  0  0  0  0  0  0
  -11.7762   -3.3411    0.0289 C   0  0  0  0  0  0  0  0  0  0  0  0
  -11.8104   -4.4000    0.9330 C   0  0  0  0  0  0  0  0  0  0  0  0
  -12.9643   -5.1445    1.0428 C   0  0  0  0  0  0  0  0  0  0  0  0
  -14.0952   -4.8701    0.2813 C   0  0  0  0  0  0  0  0  0  0  0  0
   -8.1428    0.9470    1.4527 N   0  0  0  0  0  0  0  0  0  0  0  0
   -6.9615    0.1891    1.2813 C   0  0  0  0  0  0  0  0  0  0  0  0
   -7.1699   -1.0907    1.2307 O   0  0  0  0  0  0  0  0  0  0  0  0
   -5.5927    0.6164    1.1643 C   0  0  1  0  0  0  0  0  0  0  0  0
   -4.7533   -0.6242    1.3681 N   0  0  0  0  0  0  0  0  0  0  0  0
   -3.3849   -0.5354    1.6421 C   0  0  0  0  0  0  0  0  0  0  0  0
   -2.7166    0.5242    1.7200 O   0  0  0  0  0  0  0  0  0  0  0  0
   -2.6459   -1.7523    1.8487 N   0  0  0  0  0  0  0  0  0  0  0  0
   -1.2426   -1.6021    1.9994 N   0  0  0  0  0  0  0  0  0  0  0  0
   -0.5350   -1.7880    0.7957 C   0  0  0  0  0  0  0  0  0  0  0  0
   -1.3249   -2.0581   -0.2299 O   0  0  0  0  0  0  0  0  0  0  0  0
    0.8637   -1.7464    0.4886 C   0  0  1  0  0  0  0  0  0  0  0  0
    1.7836   -1.2436    1.4724 N   0  0  0  0  0  0  0  0  0  0  0  0
    2.9719   -0.6302    0.9344 C   0  0  0  0  0  0  0  0  0  0  0  0
    3.0345   -0.6099   -0.3207 O   0  0  0  0  0  0  0  0  0  0  0  0
    4.0598   -0.0668    1.7774 C   0  0  2  0  0  0  0  0  0  0  0  0
    3.6950    0.8979    2.8141 C   0  0  2  0  0  0  0  0  0  0  0  0
    2.6335    0.4226    3.5806 O   0  0  0  0  0  0  0  0  0  0  0  0
    3.5009    2.3240    2.3928 C   0  0  0  0  0  0  0  0  0  0  0  0
    5.1393    0.2969    0.8936 N   0  0  0  0  0  0  0  0  0  0  0  0
    5.0995    1.1212   -0.2351 C   0  0  0  0  0  0  0  0  0  0  0  0
    4.0117    1.6936   -0.5816 O   0  0  0  0  0  0  0  0  0  0  0  0
    6.2525    1.4319   -1.1381 C   0  0  1  0  0  0  0  0  0  0  0  0
    7.3691    0.6362   -0.7939 N   0  0  0  0  0  0  0  0  0  0  0  0
    8.7686    1.0366   -0.8244 C   0  0  0  0  0  0  0  0  0  0  0  0
    9.0073    2.1814   -1.1842 O   0  0  0  0  0  0  0  0  0  0  0  0
    9.7085   -0.0333   -0.4119 C   0  0  2  0  0  0  0  0  0  0  0  0
    9.4503   -0.3053    1.0222 C   0  0  0  0  0  0  0  0  0  0  0  0
   10.2650   -1.3297    1.6730 C   0  0  0  0  0  0  0  0  0  0  0  0
   11.3239   -1.0611    2.5269 C   0  0  0  0  0  0  0  0  0  0  0  0
   11.7911   -2.2589    2.9118 N   0  0  0  0  0  0  0  0  0  0  0  0
   11.0719   -3.2607    2.3332 C   0  0  0  0  0  0  0  0  0  0  0  0
   10.1047   -2.6711    1.5477 C   0  0  0  0  0  0  0  0  0  0  0  0
    9.1916   -3.4059    0.8069 C   0  0  0  0  0  0  0  0  0  0  0  0
    9.2894   -4.7779    0.8897 C   0  0  0  0  0  0  0  0  0  0  0  0
   10.2291   -5.4389    1.6511 C   0  0  0  0  0  0  0  0  0  0  0  0
   11.1063   -4.6369    2.3627 C   0  0  0  0  0  0  0  0  0  0  0  0
   11.0390    0.1707   -0.7696 N   0  0  0  0  0  0  0  0  0  0  0  0
   11.7644    1.0835   -1.5139 C   0  0  0  0  0  0  0  0  0  0  0  0
   11.3247    2.1237   -2.0771 O   0  0  0  0  0  0  0  0  0  0  0  0
   13.2309    0.8372   -1.6870 C   0  0  1  0  0  0  0  0  0  0  0  0
   13.8527    1.2024   -0.3322 C   0  0  0  0  0  0  0  0  0  0  0  0
   13.6682    2.5808    0.0853 C   0  0  0  0  0  0  0  0  0  0  0  0
   14.6127    3.5167   -0.2314 C   0  0  0  0  0  0  0  0  0  0  0  0
   14.5426    4.8315    0.1378 C   0  0  0  0  0  0  0  0  0  0  0  0
   13.4461    5.2408    0.8807 C   0  0  0  0  0  0  0  0  0  0  0  0
   12.4593    4.3121    1.2209 C   0  0  0  0  0  0  0  0  0  0  0  0
   12.5762    2.9858    0.8210 C   0  0  0  0  0  0  0  0  0  0  0  0
   13.3710    6.5741    1.2617 O   0  0  0  0  0  0  0  0  0  0  0  0
   13.5342   -0.5814   -1.8590 N   0  0  0  0  0  0  0  0  0  0  0  0
   14.7639   -1.0525   -2.3993 C   0  0  0  0  0  0  0  0  0  0  0  0
   15.7030   -0.2650   -2.7642 O   0  0  0  0  0  0  0  0  0  0  0  0
   15.0581   -2.5113   -2.5868 C   0  0  0  0  0  0  0  0  0  0  0  0
    5.8268    1.0900   -2.5862 C   0  0  0  0  0  0  0  0  0  0  0  0
    5.4900   -0.3477   -2.7347 C   0  0  0  0  0  0  0  0  0  0  0  0
    5.5926   -1.1987   -1.8193 O   0  0  0  0  0  0  0  0  0  0  0  0
    5.0183   -0.8165   -3.9903 N   0  0  0  0  0  0  0  0  0  0  0  0
    1.3804   -3.1319   -0.0030 C   0  0  0  0  0  0  0  0  0  0  0  0
    0.6826   -3.5576   -1.2215 C   0  0  0  0  0  0  0  0  0  0  0  0
    1.2046   -3.0735   -2.4335 C   0  0  0  0  0  0  0  0  0  0  0  0
    0.6033   -3.4528   -3.6187 C   0  0  0  0  0  0  0  0  0  0  0  0
   -0.4688   -4.2746   -3.6329 C   0  0  0  0  0  0  0  0  0  0  0  0
   -1.0135   -4.7745   -2.4578 C   0  0  0  0  0  0  0  0  0  0  0  0
   -0.4018   -4.3843   -1.2783 C   0  0  0  0  0  0  0  0  0  0  0  0
   -2.0642   -5.5992   -2.4518 F   0  0  0  0  0  0  0  0  0  0  0  0
   -5.0714    1.2995   -0.0474 C   0  0  0  0  0  0  0  0  0  0  0  0
   -5.5945    2.5950   -0.5136 C   0  0  0  0  0  0  0  0  0  0  0  0
   -4.6708    2.9394   -1.7512 C   0  0  0  0  0  0  0  0  0  0  0  0
   -6.9605    2.6053   -1.1328 C   0  0  0  0  0  0  0  0  0  0  0  0
  -10.8340    6.6585    1.2102 N   0  0  0  0  0  0  0  0  0  0  0  0
  -12.8812    3.3928   -0.5015 H   0  0  0  0  0  0  0  0  0  0  0  0
  -13.9719    3.8634    0.8782 H   0  0  0  0  0  0  0  0  0  0  0  0
  -14.1695    4.6343   -0.6863 H   0  0  0  0  0  0  0  0  0  0  0  0
  -10.8590    4.7173    3.1398 H   0  0  0  0  0  0  0  0  0  0  0  0
  -10.6718    2.9497    0.7759 H   0  0  0  0  0  0  0  0  0  0  0  0
  -12.1894    2.7027    1.6808 H   0  0  0  0  0  0  0  0  0  0  0  0
   -9.4300    2.8767    2.9911 H   0  0  0  0  0  0  0  0  0  0  0  0
  -10.9372    2.5048    3.8134 H   0  0  0  0  0  0  0  0  0  0  0  0
   -9.5136    0.6005    3.6355 H   0  0  0  0  0  0  0  0  0  0  0  0
  -11.1031    0.2914    2.9649 H   0  0  0  0  0  0  0  0  0  0  0  0
   -9.2913   -0.7759    1.6942 H   0  0  0  0  0  0  0  0  0  0  0  0
  -11.9625   -0.5756    0.7838 H   0  0  0  0  0  0  0  0  0  0  0  0
  -11.4820    0.9497   -1.8473 H   0  0  0  0  0  0  0  0  0  0  0  0
  -13.6658    0.4897    1.0286 H   0  0  0  0  0  0  0  0  0  0  0  0
  -14.8823    1.5253    0.2057 H   0  0  0  0  0  0  0  0  0  0  0  0
  -12.6157   -0.6231   -3.1438 H   0  0  0  0  0  0  0  0  0  0  0  0
  -11.1682   -1.4259   -2.4587 H   0  0  0  0  0  0  0  0  0  0  0  0
  -14.8676   -1.6220   -2.8908 H   0  0  0  0  0  0  0  0  0  0  0  0
  -15.9091   -3.5918   -1.6616 H   0  0  0  0  0  0  0  0  0  0  0  0
  -10.8872   -2.7646   -0.0698 H   0  0  0  0  0  0  0  0  0  0  0  0
  -10.9344   -4.6153    1.5388 H   0  0  0  0  0  0  0  0  0  0  0  0
  -13.0504   -5.9900    1.7343 H   0  0  0  0  0  0  0  0  0  0  0  0
  -15.0115   -5.4194    0.3469 H   0  0  0  0  0  0  0  0  0  0  0  0
   -8.0571    1.9734    1.5216 H   0  0  0  0  0  0  0  0  0  0  0  0
   -5.2504    1.2590    2.0547 H   0  0  0  0  0  0  0  0  0  0  0  0
   -5.2151   -1.5717    1.3070 H   0  0  0  0  0  0  0  0  0  0  0  0
   -3.1150   -2.6825    1.8976 H   0  0  0  0  0  0  0  0  0  0  0  0
   -0.7476   -1.3795    2.8585 H   0  0  0  0  0  0  0  0  0  0  0  0
    1.0226   -1.1340   -0.4531 H   0  0  0  0  0  0  0  0  0  0  0  0
    1.6353   -1.2997    2.4917 H   0  0  0  0  0  0  0  0  0  0  0  0
    4.4845   -0.9870    2.3407 H   0  0  0  0  0  0  0  0  0  0  0  0
    4.5552    0.9225    3.5584 H   0  0  0  0  0  0  0  0  0  0  0  0
    2.0128    1.1065    3.8903 H   0  0  0  0  0  0  0  0  0  0  0  0
    3.4742    2.9369    3.3581 H   0  0  0  0  0  0  0  0  0  0  0  0
    2.6277    2.5337    1.7834 H   0  0  0  0  0  0  0  0  0  0  0  0
    4.3970    2.7528    1.8878 H   0  0  0  0  0  0  0  0  0  0  0  0
    6.1051   -0.0973    1.1385 H   0  0  0  0  0  0  0  0  0  0  0  0
    6.4950    2.5076   -1.2055 H   0  0  0  0  0  0  0  0  0  0  0  0
    7.2047   -0.3437   -0.4864 H   0  0  0  0  0  0  0  0  0  0  0  0
    9.3507   -0.8991   -1.0859 H   0  0  0  0  0  0  0  0  0  0  0  0
    8.4045   -0.6621    1.0777 H   0  0  0  0  0  0  0  0  0  0  0  0
    9.4179    0.6581    1.5924 H   0  0  0  0  0  0  0  0  0  0  0  0
   11.6777   -0.0678    2.7986 H   0  0  0  0  0  0  0  0  0  0  0  0
   12.5741   -2.4350    3.5317 H   0  0  0  0  0  0  0  0  0  0  0  0
    8.4706   -2.8799    0.2126 H   0  0  0  0  0  0  0  0  0  0  0  0
    8.5842   -5.3808    0.3250 H   0  0  0  0  0  0  0  0  0  0  0  0
   10.3188   -6.5098    1.7210 H   0  0  0  0  0  0  0  0  0  0  0  0
   11.8904   -5.0558    3.0084 H   0  0  0  0  0  0  0  0  0  0  0  0
   11.6950   -0.6191   -0.3043 H   0  0  0  0  0  0  0  0  0  0  0  0
   13.7038    1.4097   -2.4732 H   0  0  0  0  0  0  0  0  0  0  0  0
   13.3794    0.5340    0.4057 H   0  0  0  0  0  0  0  0  0  0  0  0
   14.9255    0.9102   -0.3775 H   0  0  0  0  0  0  0  0  0  0  0  0
   15.4870    3.2185   -0.7996 H   0  0  0  0  0  0  0  0  0  0  0  0
   15.3329    5.5147   -0.1478 H   0  0  0  0  0  0  0  0  0  0  0  0
   11.6322    4.6459    1.7880 H   0  0  0  0  0  0  0  0  0  0  0  0
   11.8333    2.2448    1.0689 H   0  0  0  0  0  0  0  0  0  0  0  0
   13.6102    7.3349    0.6631 H   0  0  0  0  0  0  0  0  0  0  0  0
   12.8230   -1.3438   -1.6165 H   0  0  0  0  0  0  0  0  0  0  0  0
   14.2161   -3.0806   -2.0954 H   0  0  0  0  0  0  0  0  0  0  0  0
   15.0278   -2.8078   -3.6430 H   0  0  0  0  0  0  0  0  0  0  0  0
   15.9693   -2.8369   -2.0492 H   0  0  0  0  0  0  0  0  0  0  0  0
    4.9817    1.7643   -2.8135 H   0  0  0  0  0  0  0  0  0  0  0  0
    6.6449    1.3533   -3.2893 H   0  0  0  0  0  0  0  0  0  0  0  0
    5.5898   -0.9024   -4.8516 H   0  0  0  0  0  0  0  0  0  0  0  0
    3.9830   -1.0921   -3.9770 H   0  0  0  0  0  0  0  0  0  0  0  0
    2.4604   -3.0629   -0.2305 H   0  0  0  0  0  0  0  0  0  0  0  0
    1.2514   -3.8769    0.7798 H   0  0  0  0  0  0  0  0  0  0  0  0
    2.0784   -2.4097   -2.4312 H   0  0  0  0  0  0  0  0  0  0  0  0
    1.0096   -3.0818   -4.5410 H   0  0  0  0  0  0  0  0  0  0  0  0
   -0.9467   -4.5830   -4.5685 H   0  0  0  0  0  0  0  0  0  0  0  0
   -0.8191   -4.7582   -0.3203 H   0  0  0  0  0  0  0  0  0  0  0  0
   -3.9591    1.4831    0.1385 H   0  0  0  0  0  0  0  0  0  0  0  0
   -5.0212    0.5869   -0.9344 H   0  0  0  0  0  0  0  0  0  0  0  0
   -5.4155    3.3968    0.2210 H   0  0  0  0  0  0  0  0  0  0  0  0
   -5.1267    3.8158   -2.2646 H   0  0  0  0  0  0  0  0  0  0  0  0
   -3.6420    3.0728   -1.4226 H   0  0  0  0  0  0  0  0  0  0  0  0
   -4.7436    2.0765   -2.4335 H   0  0  0  0  0  0  0  0  0  0  0  0
   -7.1480    1.5842   -1.5048 H   0  0  0  0  0  0  0  0  0  0  0  0
   -7.7687    2.9660   -0.4946 H   0  0  0  0  0  0  0  0  0  0  0  0
   -6.9173    3.2215   -2.0808 H   0  0  0  0  0  0  0  0  0  0  0  0
  -10.0842    6.8609    1.8998 H   0  0  0  0  0  0  0  0  0  0  0  0
  -11.0633    7.3878    0.5317 H   0  0  0  0  0  0  0  0  0  0  0  0
  1  2  1  0
  2  3  2  3
  3  4  1  0
  4  5  1  0
  5  6  1  0
  6  7  1  0
  7  8  1  0
  8  9  1  0
  9 10  2  0
  9 11  1  0
 11 12  1  0
 12 13  1  0
 13 14  2  0
 13 15  1  0
 12 16  1  0
 16 17  1  0
 17 18  2  0
 18 19  1  0
 19 20  1  0
 20 21  2  0
 21 22  1  0
 22 23  2  0
 23 24  1  0
 24 25  2  0
  8 26  1  0
 26 27  1  0
 27 28  2  0
 27 29  1  0
 29 30  1  0
 30 31  1  0
 31 32  2  0
 31 33  1  0
 33 34  1  0
 34 35  1  0
 35 36  2  0
 35 37  1  0
 37 38  1  0
 38 39  1  0
 39 40  2  0
 39 41  1  0
 41 42  1  0
 42 43  1  0
 42 44  1  0
 41 45  1  0
 45 46  1  0
 46 47  2  0
 46 48  1  0
 48 49  1  0
 49 50  1  0
 50 51  2  0
 50 52  1  0
 52 53  1  0
 53 54  1  0
 54 55  2  0
 55 56  1  0
 56 57  1  0
 57 58  2  0
 58 59  1  0
 59 60  2  0
 60 61  1  0
 61 62  2  0
 52 63  1  0
 63 64  1  0
 64 65  2  0
 64 66  1  0
 66 67  1  0
 67 68  1  0
 68 69  2  0
 69 70  1  0
 70 71  2  0
 71 72  1  0
 72 73  2  0
 71 74  1  0
 66 75  1  0
 75 76  1  0
 76 77  2  0
 76 78  1  0
 48 79  1  0
 79 80  1  0
 80 81  2  0
 80 82  1  0
 37 83  1  0
 83 84  1  0
 84 85  2  0
 85 86  1  0
 86 87  2  0
 87 88  1  0
 88 89  2  0
 88 90  1  0
 29 91  1  0
 91 92  1  0
 92 93  1  0
 92 94  1  0
  3 95  1  0
 21 17  1  0
 58 54  1  0
 73 68  1  0
 89 84  1  0
 25 20  1  0
 62 57  1  0
  1 96  1  0
  1 97  1  0
  1 98  1  0
  4 99  1  0
  5100  1  0
  5101  1  0
  6102  1  0
  6103  1  0
  7104  1  0
  7105  1  0
  8106  1  1
 11107  1  0
 12108  1  6
 15109  1  0
 15110  1  0
 16111  1  0
 16112  1  0
 18113  1  0
 19114  1  0
 22115  1  0
 23116  1  0
 24117  1  0
 25118  1  0
 26119  1  0
 29120  1  1
 30121  1  0
 33122  1  0
 34123  1  0
 37124  1  6
 38125  1  0
 41126  1  1
 42127  1  1
 43128  1  0
 44129  1  0
 44130  1  0
 44131  1  0
 45132  1  0
 48133  1  6
 49134  1  0
 52135  1  6
 53136  1  0
 53137  1  0
 55138  1  0
 56139  1  0
 59140  1  0
 60141  1  0
 61142  1  0
 62143  1  0
 63144  1  0
 66145  1  6
 67146  1  0
 67147  1  0
 69148  1  0
 70149  1  0
 72150  1  0
 73151  1  0
 74152  1  0
 75153  1  0
 78154  1  0
 78155  1  0
 78156  1  0
 79157  1  0
 79158  1  0
 82159  1  0
 82160  1  0
 83161  1  0
 83162  1  0
 85163  1  0
 86164  1  0
 87165  1  0
 89166  1  0
 91167  1  0
 91168  1  0
 92169  1  0
 93170  1  0
 93171  1  0
 93172  1  0
 94173  1  0
 94174  1  0
 94175  1  0
 95176  1  0
 95177  1  0
M  END
>  <Ligand ID>  (1) 
LIG0005334

>  <Ligand>  (1) 
CHEMBL3949159

>  <SMILES>  (1) 
CN=C(NCCC[C@@H](C(=O)N[C@H](C(=O)N)Cc1c[nH]c2c1cccc2)NC(=O)[C@@H](NC(=O)NNC(=O)[C@@H](NC(=O)[C@H]([C@H](O)C)NC(=O)[C@@H](NC(=O)[C@H](Cc1c[nH]c2c1cccc2)NC(=O)[C@@H](Cc1ccc(cc1)O)NC(=O)C)CC(=O)N)Cc1cccc(c1)F)CC(C)C)N

>  <CID>  (1) 
25084920.0

>  <ChEMBL ID>  (1) 
nan

>  <InChiKey>  (1) 
RMJPJFQIOLLQHN-JKLQZZSBSA-N

>  <InChi>  (1) 
InChI=1S/C64H82FN17O13/c1-33(2)24-48(57(89)74-46(18-11-23-70-63(68)69-5)56(88)75-47(55(67)87)28-38-31-71-44-16-8-6-14-42(38)44)79-64(95)82-81-61(93)50(27-37-12-10-13-40(65)25-37)78-62(94)54(34(3)83)80-60(92)52(30-53(66)86)77-59(91)51(29-39-32-72-45-17-9-7-15-43(39)45)76-58(90)49(73-35(4)84)26-36-19-21-41(85)22-20-36/h6-10,12-17,19-22,25,31-34,46-52,54,71-72,83,85H,11,18,23-24,26-30H2,1-5H3,(H2,66,86)(H2,67,87)(H,73,84)(H,74,89)(H,75,88)(H,76,90)(H,77,91)(H,78,94)(H,80,92)(H,81,93)(H3,68,69,70)(H2,79,82,95)/t34-,46+,47+,48+,49-,50+,51+,52+,54+/m1/s1

>  <IUPAC Name>  (1) 
(2S)-2-[[(2S)-2-[[(2R)-2-acetamido-3-(4-hydroxyphenyl)propanoyl]amino]-3-(1H-indol-3-yl)propanoyl]amino]-N-[(2S,3R)-1-[[(2S)-1-[2-[[(2S)-1-[[(2S)-1-[[(2S)-1-amino-3-(1H-indol-3-yl)-1-oxopropan-2-yl]amino]-5-[(N'-methylcarbamimidoyl)amino]-1-oxopentan-2-yl]amino]-4-methyl-1-oxopentan-2-yl]carbamoyl]hydrazinyl]-3-(3-fluorophenyl)-1-oxopropan-2-yl]amino]-3-hydroxy-1-oxobutan-2-yl]butanediamide

$$$$
