
     RDKit          3D

 18 17  0  0  0  0  0  0  0  0999 V2000
    4.2230    0.4334   -0.1551 C   0  0  0  0  0  0  0  0  0  0  0  0
    2.5106    0.4801   -0.6739 S   0  0  0  0  0  0  0  0  0  0  0  0
    1.6998   -1.1256   -0.6981 C   0  0  0  0  0  0  0  0  0  0  0  0
    0.9636   -1.5122    0.9179 S   0  0  0  0  0  0  0  0  0  0  0  0
   -0.5286   -0.0325    1.2680 S   0  0  0  0  0  0  0  0  0  0  0  0
   -2.1488   -0.7155    0.9212 C   0  0  0  0  0  0  0  0  0  0  0  0
   -3.3884    0.5645    1.2868 S   0  0  0  0  0  0  0  0  0  0  0  0
   -3.8477    1.3995   -0.2429 C   0  0  0  0  0  0  0  0  0  0  0  0
    4.3323    0.8122    0.8926 H   0  0  0  0  0  0  0  0  0  0  0  0
    4.8218    1.1477   -0.7757 H   0  0  0  0  0  0  0  0  0  0  0  0
    4.7114   -0.5452   -0.2558 H   0  0  0  0  0  0  0  0  0  0  0  0
    0.8375   -1.0375   -1.4087 H   0  0  0  0  0  0  0  0  0  0  0  0
    2.3340   -1.9443   -1.0710 H   0  0  0  0  0  0  0  0  0  0  0  0
   -2.2754   -1.1301   -0.0836 H   0  0  0  0  0  0  0  0  0  0  0  0
   -2.3630   -1.5345    1.6480 H   0  0  0  0  0  0  0  0  0  0  0  0
   -4.2923    0.6532   -0.9257 H   0  0  0  0  0  0  0  0  0  0  0  0
   -2.9785    1.9238   -0.7062 H   0  0  0  0  0  0  0  0  0  0  0  0
   -4.6113    2.1629    0.0178 H   0  0  0  0  0  0  0  0  0  0  0  0
  1  2  1  0
  2  3  1  0
  3  4  1  0
  4  5  1  0
  5  6  1  0
  6  7  1  0
  7  8  1  0
  1  9  1  0
  1 10  1  0
  1 11  1  0
  3 12  1  0
  3 13  1  0
  6 14  1  0
  6 15  1  0
  8 16  1  0
  8 17  1  0
  8 18  1  0
M  END
>  <Ligand ID>  (1) 
LIG0000637

>  <Ligand>  (1) 
Disulfide, bis((methylthio)methyl)

>  <SMILES>  (1) 
CSCSSCSC

>  <CID>  (1) 
158825.0

>  <ChEMBL ID>  (1) 
nan

>  <InChiKey>  (1) 
QLDCJQYUNZUCHD-UHFFFAOYSA-N

>  <InChi>  (1) 
InChI=1S/C4H10S4/c1-5-3-7-8-4-6-2/h3-4H2,1-2H3

>  <IUPAC Name>  (1) 
methylsulfanyl-(methylsulfanylmethyldisulfanyl)methane

$$$$
