
     RDKit          3D

 57 61  0  0  0  0  0  0  0  0999 V2000
    5.7412    2.1114    2.0367 O   0  0  0  0  0  0  0  0  0  0  0  0
    5.8277    1.5605    0.7296 C   0  0  0  0  0  0  0  0  0  0  0  0
    4.8961    1.8785   -0.0268 O   0  0  0  0  0  0  0  0  0  0  0  0
    6.9807    0.7099    0.4589 C   0  0  2  0  0  0  0  0  0  0  0  0
    6.8250   -0.7512    0.4294 C   0  0  0  0  0  0  0  0  0  0  0  0
    5.9770   -1.4781   -0.5074 C   0  0  0  0  0  0  0  0  0  0  0  0
    4.5316   -1.2591   -0.5595 C   0  0  0  0  0  0  0  0  0  0  0  0
    3.7586   -1.9034    0.4144 C   0  0  0  0  0  0  0  0  0  0  0  0
    2.3832   -1.8250    0.4314 C   0  0  0  0  0  0  0  0  0  0  0  0
    1.7809   -1.0800   -0.5566 C   0  0  0  0  0  0  0  0  0  0  0  0
    2.4746   -0.4200   -1.5448 C   0  0  0  0  0  0  0  0  0  0  0  0
    3.8543   -0.5353   -1.5105 C   0  0  0  0  0  0  0  0  0  0  0  0
    1.8553    0.3147   -2.5163 F   0  0  0  0  0  0  0  0  0  0  0  0
    0.3155   -0.9550   -0.5991 C   0  0  0  0  0  0  0  0  0  0  0  0
   -0.4686   -0.3654   -1.3692 N   0  0  0  0  0  0  0  0  0  0  0  0
   -1.7680   -0.3493   -1.2771 C   0  0  0  0  0  0  0  0  0  0  0  0
   -2.2846   -1.0732   -0.2003 C   0  0  0  0  0  0  0  0  0  0  0  0
   -0.7618   -1.7367    0.6097 S   0  0  0  0  0  0  0  0  0  0  0  0
   -3.5710   -1.2120    0.1084 N   0  0  0  0  0  0  0  0  0  0  0  0
   -4.5270   -0.6130   -0.6635 C   0  0  0  0  0  0  0  0  0  0  0  0
   -4.0642    0.1117   -1.7365 C   0  0  0  0  0  0  0  0  0  0  0  0
   -2.7409    0.2653   -2.0695 C   0  0  0  0  0  0  0  0  0  0  0  0
   -5.9296   -0.7876   -0.2951 C   0  0  0  0  0  0  0  0  0  0  0  0
   -6.7534   -1.6841   -1.1950 C   0  0  0  0  0  0  0  0  0  0  0  0
   -6.3792   -2.1104    0.2032 C   0  0  0  0  0  0  0  0  0  0  0  0
   -6.6275    0.4492    0.1368 C   0  0  0  0  0  0  0  0  0  0  0  0
   -6.2548    1.1129    1.2937 C   0  0  0  0  0  0  0  0  0  0  0  0
   -6.8962    2.2721    1.7149 C   0  0  0  0  0  0  0  0  0  0  0  0
   -7.9462    2.7753    0.9423 C   0  0  0  0  0  0  0  0  0  0  0  0
   -8.3218    2.1199   -0.2097 C   0  0  0  0  0  0  0  0  0  0  0  0
   -7.6718    0.9699   -0.6103 C   0  0  0  0  0  0  0  0  0  0  0  0
    8.0288    0.9477    1.5139 N   0  0  0  0  0  0  0  0  0  0  0  0
    7.6701    1.2387   -0.8164 C   0  0  0  0  0  0  0  0  0  0  0  0
    4.9114    2.6172    2.3444 H   0  0  0  0  0  0  0  0  0  0  0  0
    6.5865   -1.1505    1.4800 H   0  0  0  0  0  0  0  0  0  0  0  0
    7.8888   -1.1850    0.2830 H   0  0  0  0  0  0  0  0  0  0  0  0
    6.1962   -2.5956   -0.3307 H   0  0  0  0  0  0  0  0  0  0  0  0
    6.4145   -1.3724   -1.5649 H   0  0  0  0  0  0  0  0  0  0  0  0
    4.2604   -2.4955    1.1967 H   0  0  0  0  0  0  0  0  0  0  0  0
    1.8008   -2.3403    1.2065 H   0  0  0  0  0  0  0  0  0  0  0  0
    4.4532   -0.0386   -2.2617 H   0  0  0  0  0  0  0  0  0  0  0  0
   -4.7987    0.5972   -2.3652 H   0  0  0  0  0  0  0  0  0  0  0  0
   -2.4102    0.8415   -2.9194 H   0  0  0  0  0  0  0  0  0  0  0  0
   -7.8190   -1.5011   -1.3704 H   0  0  0  0  0  0  0  0  0  0  0  0
   -6.2462   -2.1726   -2.0512 H   0  0  0  0  0  0  0  0  0  0  0  0
   -5.5874   -2.8962    0.2532 H   0  0  0  0  0  0  0  0  0  0  0  0
   -7.2049   -2.1819    0.9370 H   0  0  0  0  0  0  0  0  0  0  0  0
   -5.4383    0.7150    1.8869 H   0  0  0  0  0  0  0  0  0  0  0  0
   -6.6044    2.7978    2.6273 H   0  0  0  0  0  0  0  0  0  0  0  0
   -8.4881    3.6667    1.2059 H   0  0  0  0  0  0  0  0  0  0  0  0
   -9.1452    2.5165   -0.8137 H   0  0  0  0  0  0  0  0  0  0  0  0
   -8.0220    0.5140   -1.5240 H   0  0  0  0  0  0  0  0  0  0  0  0
    8.4202    1.9134    1.3600 H   0  0  0  0  0  0  0  0  0  0  0  0
    7.5557    0.8553    2.4422 H   0  0  0  0  0  0  0  0  0  0  0  0
    8.3136    0.4889   -1.2784 H   0  0  0  0  0  0  0  0  0  0  0  0
    6.8444    1.5225   -1.5251 H   0  0  0  0  0  0  0  0  0  0  0  0
    8.1850    2.1846   -0.5552 H   0  0  0  0  0  0  0  0  0  0  0  0
  1  2  1  0
  2  3  2  0
  2  4  1  0
  4  5  1  0
  5  6  1  0
  6  7  1  0
  7  8  2  0
  8  9  1  0
  9 10  2  0
 10 11  1  0
 11 12  2  0
 11 13  1  0
 10 14  1  0
 14 15  2  0
 15 16  1  0
 16 17  2  0
 17 18  1  0
 17 19  1  0
 19 20  2  0
 20 21  1  0
 21 22  2  0
 20 23  1  0
 23 24  1  0
 24 25  1  0
 23 26  1  0
 26 27  2  0
 27 28  1  0
 28 29  2  0
 29 30  1  0
 30 31  2  0
  4 32  1  1
  4 33  1  0
 12  7  1  0
 18 14  1  0
 25 23  1  0
 31 26  1  0
 22 16  1  0
  1 34  1  0
  5 35  1  0
  5 36  1  0
  6 37  1  0
  6 38  1  0
  8 39  1  0
  9 40  1  0
 12 41  1  0
 21 42  1  0
 22 43  1  0
 24 44  1  0
 24 45  1  0
 25 46  1  0
 25 47  1  0
 27 48  1  0
 28 49  1  0
 29 50  1  0
 30 51  1  0
 31 52  1  0
 32 53  1  0
 32 54  1  0
 33 55  1  0
 33 56  1  0
 33 57  1  0
M  END
>  <Ligand ID>  (1) 
LIG0005090

>  <Ligand>  (1) 
CHEMBL1950575

>  <SMILES>  (1) 
OC(=O)[C@](CCc1ccc(c(c1)F)c1nc2c(s1)nc(cc2)C1(CC1)c1ccccc1)(N)C

>  <CID>  (1) 
57392652.0

>  <ChEMBL ID>  (1) 
nan

>  <InChiKey>  (1) 
VTWSHDBNPHFDGO-VWLOTQADSA-N

>  <InChi>  (1) 
InChI=1S/C26H24FN3O2S/c1-25(28,24(31)32)12-11-16-7-8-18(19(27)15-16)22-29-20-9-10-21(30-23(20)33-22)26(13-14-26)17-5-3-2-4-6-17/h2-10,15H,11-14,28H2,1H3,(H,31,32)/t25-/m0/s1

>  <IUPAC Name>  (1) 
(2S)-2-amino-4-[3-fluoro-4-[5-(1-phenylcyclopropyl)-[1,3]thiazolo[5,4-b]pyridin-2-yl]phenyl]-2-methylbutanoic acid

$$$$
