
     RDKit          3D

 67 70  0  0  0  0  0  0  0  0999 V2000
    0.4250   -1.1516   -0.3053 O   0  0  0  0  0  0  0  0  0  0  0  0
   -0.5434   -0.5607   -1.1195 C   0  0  1  0  0  0  0  0  0  0  0  0
   -1.6126    0.1227   -0.2245 C   0  0  0  0  0  0  0  0  0  0  0  0
   -2.2648   -0.8490    0.6672 C   0  0  0  0  0  0  0  0  0  0  0  0
   -3.2847   -0.5041    1.6339 C   0  0  0  0  0  0  0  0  0  0  0  0
   -4.6019    0.0496    1.3088 C   0  0  0  0  0  0  0  0  0  0  0  0
   -5.3551    0.2770    2.6509 C   0  0  0  0  0  0  0  0  0  0  0  0
   -6.0564   -0.9994    3.0324 C   0  0  0  0  0  0  0  0  0  0  0  0
   -7.3047   -1.1770    2.1605 C   0  0  0  0  0  0  0  0  0  0  0  0
   -6.9616   -0.4484    0.8610 C   0  0  0  0  0  0  0  0  0  0  0  0
   -5.5167   -0.8530    0.5321 C   0  0  0  0  0  0  0  0  0  0  0  0
   -2.5269    0.8710   -1.1602 C   0  0  0  0  0  0  0  0  0  0  0  0
   -2.2217    2.1743   -0.4393 C   0  0  0  0  0  0  0  0  0  0  0  0
   -1.1641    1.4236    0.3186 C   0  0  0  0  0  0  0  0  0  0  0  0
    0.0255    0.3321   -2.1213 C   0  0  0  0  0  0  0  0  0  0  0  0
    1.2398    0.8726   -1.8748 C   0  0  0  0  0  0  0  0  0  0  0  0
    1.8671    1.7804   -2.8444 C   0  0  1  0  0  0  0  0  0  0  0  0
    1.9640    3.2079   -2.2889 C   0  0  0  0  0  0  0  0  0  0  0  0
    2.9129    3.7974   -3.1392 O   0  0  0  0  0  0  0  0  0  0  0  0
    3.7910    2.7917   -3.5358 C   0  0  0  0  0  0  0  0  0  0  0  0
    4.8518    3.0064   -4.1600 O   0  0  0  0  0  0  0  0  0  0  0  0
    3.2628    1.5188   -3.1064 N   0  0  0  0  0  0  0  0  0  0  0  0
    4.0625    0.3422   -3.0168 C   0  0  0  0  0  0  0  0  0  0  0  0
    4.7381    0.1293   -1.6991 C   0  0  0  0  0  0  0  0  0  0  0  0
    5.7421   -1.3827   -1.6452 S   0  0  0  0  0  0  0  0  0  0  0  0
    6.4886   -1.5474   -0.0813 C   0  0  0  0  0  0  0  0  0  0  0  0
    5.6604   -2.4570    1.3580 S   0  0  0  0  0  0  0  0  0  0  0  0
    7.0519   -2.1564    2.5098 C   0  0  0  0  0  0  0  0  0  0  0  0
    7.9663   -1.4100    1.6705 C   0  0  0  0  0  0  0  0  0  0  0  0
    7.6033   -1.1861    0.4908 N   0  0  0  0  0  0  0  0  0  0  0  0
    9.2409   -0.9875    2.2979 C   0  0  0  0  0  0  0  0  0  0  0  0
    9.4785   -1.2760    3.4833 O   0  0  0  0  0  0  0  0  0  0  0  0
   10.1711   -0.2703    1.5668 O   0  0  0  0  0  0  0  0  0  0  0  0
    0.5038   -0.7495    0.5875 H   0  0  0  0  0  0  0  0  0  0  0  0
   -1.0849   -1.3821   -1.6269 H   0  0  0  0  0  0  0  0  0  0  0  0
   -1.4118   -1.3321    1.2621 H   0  0  0  0  0  0  0  0  0  0  0  0
   -2.5577   -1.7487    0.0172 H   0  0  0  0  0  0  0  0  0  0  0  0
   -3.4924   -1.4587    2.2355 H   0  0  0  0  0  0  0  0  0  0  0  0
   -2.7845    0.1214    2.4450 H   0  0  0  0  0  0  0  0  0  0  0  0
   -4.6477    1.0531    0.8525 H   0  0  0  0  0  0  0  0  0  0  0  0
   -6.0140    1.1429    2.6090 H   0  0  0  0  0  0  0  0  0  0  0  0
   -4.6042    0.4721    3.4568 H   0  0  0  0  0  0  0  0  0  0  0  0
   -5.3768   -1.8437    2.8281 H   0  0  0  0  0  0  0  0  0  0  0  0
   -6.3360   -1.0140    4.1111 H   0  0  0  0  0  0  0  0  0  0  0  0
   -7.4282   -2.2515    1.9051 H   0  0  0  0  0  0  0  0  0  0  0  0
   -8.1911   -0.7424    2.6444 H   0  0  0  0  0  0  0  0  0  0  0  0
   -7.6116   -0.7998    0.0317 H   0  0  0  0  0  0  0  0  0  0  0  0
   -7.0849    0.6285    0.9475 H   0  0  0  0  0  0  0  0  0  0  0  0
   -5.4485   -0.6939   -0.5602 H   0  0  0  0  0  0  0  0  0  0  0  0
   -5.4542   -1.9246    0.8074 H   0  0  0  0  0  0  0  0  0  0  0  0
   -2.1569    0.9900   -2.2115 H   0  0  0  0  0  0  0  0  0  0  0  0
   -3.5908    0.5681   -1.1218 H   0  0  0  0  0  0  0  0  0  0  0  0
   -3.0335    2.6181    0.1300 H   0  0  0  0  0  0  0  0  0  0  0  0
   -1.7952    2.9864   -1.1012 H   0  0  0  0  0  0  0  0  0  0  0  0
   -0.1567    1.7151   -0.0369 H   0  0  0  0  0  0  0  0  0  0  0  0
   -1.1747    1.5536    1.4165 H   0  0  0  0  0  0  0  0  0  0  0  0
   -0.4108    0.6178   -3.0681 H   0  0  0  0  0  0  0  0  0  0  0  0
    1.7447    0.6252   -0.9534 H   0  0  0  0  0  0  0  0  0  0  0  0
    1.3139    1.8338   -3.8091 H   0  0  0  0  0  0  0  0  0  0  0  0
    2.4001    3.1267   -1.2893 H   0  0  0  0  0  0  0  0  0  0  0  0
    0.9910    3.7189   -2.3364 H   0  0  0  0  0  0  0  0  0  0  0  0
    4.7909    0.3418   -3.8626 H   0  0  0  0  0  0  0  0  0  0  0  0
    3.4027   -0.5339   -3.2033 H   0  0  0  0  0  0  0  0  0  0  0  0
    4.0720    0.1455   -0.8418 H   0  0  0  0  0  0  0  0  0  0  0  0
    5.4541    0.9905   -1.5664 H   0  0  0  0  0  0  0  0  0  0  0  0
    7.1000   -2.4572    3.4543 H   0  0  0  0  0  0  0  0  0  0  0  0
   10.9449    0.1215    2.0664 H   0  0  0  0  0  0  0  0  0  0  0  0
  1  2  1  0
  2  3  1  0
  3  4  1  0
  4  5  1  0
  5  6  1  0
  6  7  1  0
  7  8  1  0
  8  9  1  0
  9 10  1  0
 10 11  1  0
  3 12  1  0
 12 13  1  0
 13 14  1  0
  2 15  1  0
 15 16  2  0
 16 17  1  0
 17 18  1  0
 18 19  1  0
 19 20  1  0
 20 21  2  0
 20 22  1  0
 22 23  1  0
 23 24  1  0
 24 25  1  0
 25 26  1  0
 26 27  1  0
 27 28  1  0
 28 29  2  0
 29 30  1  0
 29 31  1  0
 31 32  2  0
 31 33  1  0
 14  3  1  0
 22 17  1  0
 30 26  2  0
 11  6  1  0
  1 34  1  0
  2 35  1  6
  4 36  1  0
  4 37  1  0
  5 38  1  0
  5 39  1  0
  6 40  1  0
  7 41  1  0
  7 42  1  0
  8 43  1  0
  8 44  1  0
  9 45  1  0
  9 46  1  0
 10 47  1  0
 10 48  1  0
 11 49  1  0
 11 50  1  0
 12 51  1  0
 12 52  1  0
 13 53  1  0
 13 54  1  0
 14 55  1  0
 14 56  1  0
 15 57  1  0
 16 58  1  0
 17 59  1  6
 18 60  1  0
 18 61  1  0
 23 62  1  0
 23 63  1  0
 24 64  1  0
 24 65  1  0
 28 66  1  0
 33 67  1  0
M  END
>  <Ligand ID>  (1) 
LIG0003055

>  <Ligand>  (1) 
CHEMBL3754197

>  <SMILES>  (1) 
O[C@@H](C1(CCC2CCCCC2)CCC1)/C=C/[C@H]1COC(=O)N1CCSc1scc(n1)C(=O)O

>  <CID>  (1) 
11156167.0

>  <ChEMBL ID>  (1) 
nan

>  <InChiKey>  (1) 
XOUGGWXXKDCLTN-QWCIBIBSSA-N

>  <InChi>  (1) 
InChI=1S/C24H34N2O5S2/c27-20(24(10-4-11-24)12-9-17-5-2-1-3-6-17)8-7-18-15-31-23(30)26(18)13-14-32-22-25-19(16-33-22)21(28)29/h7-8,16-18,20,27H,1-6,9-15H2,(H,28,29)/b8-7+/t18-,20+/m0/s1

>  <IUPAC Name>  (1) 
2-[2-[(4S)-4-[(E,3R)-3-[1-(2-cyclohexylethyl)cyclobutyl]-3-hydroxyprop-1-enyl]-2-oxo-1,3-oxazolidin-3-yl]ethylsulfanyl]-1,3-thiazole-4-carboxylic acid

$$$$
