
     RDKit          3D

 65 71  0  0  0  0  0  0  0  0999 V2000
    4.5426   -2.9677   -0.1182 C   0  0  0  0  0  0  0  0  0  0  0  0
    3.7409   -1.9321    0.6470 C   0  0  0  0  0  0  0  0  0  0  0  0
    2.4151   -1.9487    0.5946 C   0  0  0  0  0  0  0  0  0  0  0  0
    1.5212   -1.0016    1.2878 C   0  0  0  0  0  0  0  0  0  0  0  0
    0.6039   -0.2979    0.3042 C   0  0  1  0  0  0  0  0  0  0  0  0
   -0.2267   -1.3487   -0.3834 C   0  0  0  0  0  0  0  0  0  0  0  0
   -1.6878   -1.1998   -0.1515 C   0  0  0  0  0  0  0  0  0  0  0  0
   -2.7205   -1.8412   -0.8026 C   0  0  0  0  0  0  0  0  0  0  0  0
   -2.7750   -2.7846   -1.8355 C   0  0  0  0  0  0  0  0  0  0  0  0
   -4.0027   -3.2610   -2.2952 C   0  0  0  0  0  0  0  0  0  0  0  0
   -5.1784   -2.8057   -1.7348 C   0  0  0  0  0  0  0  0  0  0  0  0
   -5.0945   -1.8769   -0.7195 C   0  0  0  0  0  0  0  0  0  0  0  0
   -3.8970   -1.3858   -0.2420 C   0  0  0  0  0  0  0  0  0  0  0  0
   -3.6163   -0.4921    0.7246 N   0  0  0  0  0  0  0  0  0  0  0  0
   -2.2607   -0.3867    0.7703 C   0  0  0  0  0  0  0  0  0  0  0  0
   -1.4356    0.4529    1.6423 C   0  0  1  0  0  0  0  0  0  0  0  0
   -0.1752    0.7994    0.9041 C   0  0  1  0  0  0  0  0  0  0  0  0
    0.7149    1.7176    1.6866 C   0  0  0  0  0  0  0  0  0  0  0  0
    1.7817    2.2426    0.7997 C   0  0  0  0  0  0  0  0  0  0  0  0
    2.4883    1.2134    0.0681 N   0  0  0  0  0  0  0  0  0  0  0  0
    1.5834    0.3627   -0.6821 C   0  0  0  0  0  0  0  0  0  0  0  0
    0.9296    1.0643   -1.8130 C   0  0  0  0  0  0  0  0  0  0  0  0
   -0.2924    1.7814   -1.4165 C   0  0  0  0  0  0  0  0  0  0  0  0
   -0.7886    1.6266   -0.1737 C   0  0  0  0  0  0  0  0  0  0  0  0
   -1.9278    2.2234    0.2971 C   0  0  0  0  0  0  0  0  0  0  0  0
   -2.0531    1.7701    1.6255 O   0  0  0  0  0  0  0  0  0  0  0  0
   -2.6329    3.0463   -0.5369 C   0  0  0  0  0  0  0  0  0  0  0  0
   -2.1659    3.2447   -1.8331 C   0  0  0  0  0  0  0  0  0  0  0  0
   -0.9986    2.6196   -2.2872 C   0  0  0  0  0  0  0  0  0  0  0  0
   -3.7867    3.6527   -0.0608 O   0  0  0  0  0  0  0  0  0  0  0  0
    3.3928    1.8662   -0.8423 C   0  0  0  0  0  0  0  0  0  0  0  0
   -1.3004    0.0165    3.0426 C   0  0  0  0  0  0  0  0  0  0  0  0
    4.5381   -0.9573    1.4278 C   0  0  0  0  0  0  0  0  0  0  0  0
    4.7416   -2.6476   -1.1459 H   0  0  0  0  0  0  0  0  0  0  0  0
    3.9824   -3.9204   -0.0273 H   0  0  0  0  0  0  0  0  0  0  0  0
    5.5128   -3.1514    0.3881 H   0  0  0  0  0  0  0  0  0  0  0  0
    1.9685   -2.7328   -0.0139 H   0  0  0  0  0  0  0  0  0  0  0  0
    2.1645   -0.1812    1.7068 H   0  0  0  0  0  0  0  0  0  0  0  0
    0.9535   -1.5157    2.0871 H   0  0  0  0  0  0  0  0  0  0  0  0
    0.0112   -2.3726    0.0083 H   0  0  0  0  0  0  0  0  0  0  0  0
    0.0156   -1.3743   -1.4650 H   0  0  0  0  0  0  0  0  0  0  0  0
   -1.8620   -3.1535   -2.2874 H   0  0  0  0  0  0  0  0  0  0  0  0
   -4.0751   -3.9895   -3.0913 H   0  0  0  0  0  0  0  0  0  0  0  0
   -6.1594   -3.1523   -2.0648 H   0  0  0  0  0  0  0  0  0  0  0  0
   -6.0217   -1.5111   -0.2702 H   0  0  0  0  0  0  0  0  0  0  0  0
   -4.3008    0.0302    1.3333 H   0  0  0  0  0  0  0  0  0  0  0  0
    0.0713    2.5977    1.9817 H   0  0  0  0  0  0  0  0  0  0  0  0
    1.0765    1.2951    2.6401 H   0  0  0  0  0  0  0  0  0  0  0  0
    1.3316    2.9231    0.0465 H   0  0  0  0  0  0  0  0  0  0  0  0
    2.5398    2.7788    1.3973 H   0  0  0  0  0  0  0  0  0  0  0  0
    2.1919   -0.4688   -1.0940 H   0  0  0  0  0  0  0  0  0  0  0  0
    0.7502    0.3744   -2.6818 H   0  0  0  0  0  0  0  0  0  0  0  0
    1.6305    1.8215   -2.2025 H   0  0  0  0  0  0  0  0  0  0  0  0
   -2.7261    3.9026   -2.5050 H   0  0  0  0  0  0  0  0  0  0  0  0
   -0.6326    2.7679   -3.2870 H   0  0  0  0  0  0  0  0  0  0  0  0
   -3.7212    4.6522    0.1769 H   0  0  0  0  0  0  0  0  0  0  0  0
    4.3643    2.0481   -0.3010 H   0  0  0  0  0  0  0  0  0  0  0  0
    2.9932    2.8551   -1.0910 H   0  0  0  0  0  0  0  0  0  0  0  0
    3.6538    1.2598   -1.7297 H   0  0  0  0  0  0  0  0  0  0  0  0
   -2.3050    0.1935    3.5341 H   0  0  0  0  0  0  0  0  0  0  0  0
   -0.6128    0.6671    3.5778 H   0  0  0  0  0  0  0  0  0  0  0  0
   -1.1253   -1.0594    3.1886 H   0  0  0  0  0  0  0  0  0  0  0  0
    4.0148   -0.6272    2.3568 H   0  0  0  0  0  0  0  0  0  0  0  0
    4.8407   -0.0868    0.8004 H   0  0  0  0  0  0  0  0  0  0  0  0
    5.4978   -1.4351    1.7275 H   0  0  0  0  0  0  0  0  0  0  0  0
  1  2  1  0
  2  3  2  3
  3  4  1  0
  5  4  1  1
  5  6  1  0
  6  7  1  0
  7  8  1  0
  8  9  2  0
  9 10  1  0
 10 11  2  0
 11 12  1  0
 12 13  2  0
 13 14  1  0
 14 15  1  0
 15 16  1  0
 16 17  1  0
 17 18  1  1
 18 19  1  0
 19 20  1  0
 20 21  1  0
 21 22  1  0
 22 23  1  0
 23 24  2  0
 24 25  1  0
 25 26  1  0
 25 27  2  0
 27 28  1  0
 28 29  2  0
 27 30  1  0
 20 31  1  0
 16 32  1  1
  2 33  1  0
 21  5  1  0
 29 23  1  0
 17  5  1  0
 15  7  2  0
 26 16  1  0
 13  8  1  0
 24 17  1  0
  1 34  1  0
  1 35  1  0
  1 36  1  0
  3 37  1  0
  4 38  1  0
  4 39  1  0
  6 40  1  0
  6 41  1  0
  9 42  1  0
 10 43  1  0
 11 44  1  0
 12 45  1  0
 14 46  1  0
 18 47  1  0
 18 48  1  0
 19 49  1  0
 19 50  1  0
 21 51  1  0
 22 52  1  0
 22 53  1  0
 28 54  1  0
 29 55  1  0
 30 56  1  0
 31 57  1  0
 31 58  1  0
 31 59  1  0
 32 60  1  0
 32 61  1  0
 32 62  1  0
 33 63  1  0
 33 64  1  0
 33 65  1  0
M  END
>  <Ligand ID>  (1) 
LIG0003259

>  <Ligand>  (1) 
CHEMBL322875

>  <SMILES>  (1) 
CC(=CC[C@]12Cc3c4ccccc4[nH]c3[C@]3([C@]42CCN(C1Cc1c4c(O3)c(cc1)O)C)C)C

>  <CID>  (1) 
44337642.0

>  <ChEMBL ID>  (1) 
nan

>  <InChiKey>  (1) 
MKCNXIXFBHSWPM-CAQJENOZSA-N

>  <InChi>  (1) 
InChI=1S/C29H32N2O2/c1-17(2)11-12-28-16-20-19-7-5-6-8-21(19)30-26(20)27(3)29(28)13-14-31(4)23(28)15-18-9-10-22(32)25(33-27)24(18)29/h5-11,23,30,32H,12-16H2,1-4H3/t23?,27-,28-,29-/m0/s1

>  <IUPAC Name>  (1) 
(1S,2R,13R)-13,22-dimethyl-2-(3-methylbut-2-enyl)-14-oxa-11,22-diazaheptacyclo[13.9.1.01,13.02,21.04,12.05,10.019,25]pentacosa-4(12),5,7,9,15,17,19(25)-heptaen-16-ol

$$$$
