
     RDKit          3D

 34 35  0  0  0  0  0  0  0  0999 V2000
    7.3488   -1.8012   -0.2495 Cl  0  0  0  0  0  0  0  0  0  0  0  0
    5.8443   -0.9136   -0.2861 C   0  0  0  0  0  0  0  0  0  0  0  0
    5.2437   -0.6282   -1.4845 C   0  0  0  0  0  0  0  0  0  0  0  0
    4.0532    0.0728   -1.5314 C   0  0  0  0  0  0  0  0  0  0  0  0
    3.3577    0.3919   -3.1131 Cl  0  0  0  0  0  0  0  0  0  0  0  0
    3.4143    0.5178   -0.3715 C   0  0  0  0  0  0  0  0  0  0  0  0
    4.0242    0.2268    0.8123 C   0  0  0  0  0  0  0  0  0  0  0  0
    5.2243   -0.4798    0.8657 C   0  0  0  0  0  0  0  0  0  0  0  0
    3.3138    0.7596    2.3122 Cl  0  0  0  0  0  0  0  0  0  0  0  0
    2.2388    1.2041   -0.5353 O   0  0  0  0  0  0  0  0  0  0  0  0
    0.9435    0.6483   -0.6255 C   0  0  0  0  0  0  0  0  0  0  0  0
    0.5070   -0.1446    0.5579 C   0  0  0  0  0  0  0  0  0  0  0  0
   -0.7466   -0.7074    0.5255 O   0  0  0  0  0  0  0  0  0  0  0  0
   -1.9956   -0.2080    0.4383 C   0  0  0  0  0  0  0  0  0  0  0  0
   -2.3610    1.1167    0.3620 C   0  0  0  0  0  0  0  0  0  0  0  0
   -3.6718    1.5438    0.2757 C   0  0  0  0  0  0  0  0  0  0  0  0
   -4.6682    0.5917    0.2658 C   0  0  0  0  0  0  0  0  0  0  0  0
   -4.3336   -0.7076    0.3397 N   0  0  0  0  0  0  0  0  0  0  0  0
   -3.0581   -1.1281    0.4238 C   0  0  0  0  0  0  0  0  0  0  0  0
   -2.8192   -2.5320    0.4974 N   0  0  0  0  0  0  0  0  0  0  0  0
   -3.7133   -3.2735    0.9933 O   0  0  0  0  0  0  0  0  0  0  0  0
   -1.6454   -3.0991    0.0447 O   0  0  0  0  0  0  0  0  0  0  0  0
   -6.0695    1.0735    0.1724 C   0  0  0  0  0  0  0  0  0  0  0  0
    5.7137   -0.9596   -2.4074 H   0  0  0  0  0  0  0  0  0  0  0  0
    5.7043   -0.7086    1.8126 H   0  0  0  0  0  0  0  0  0  0  0  0
    1.0155   -0.0949   -1.4892 H   0  0  0  0  0  0  0  0  0  0  0  0
    0.2317    1.3959   -0.9925 H   0  0  0  0  0  0  0  0  0  0  0  0
    0.4820    0.5883    1.4218 H   0  0  0  0  0  0  0  0  0  0  0  0
    1.3105   -0.8785    0.8612 H   0  0  0  0  0  0  0  0  0  0  0  0
   -1.6054    1.8691    0.3764 H   0  0  0  0  0  0  0  0  0  0  0  0
   -3.9066    2.6010    0.2173 H   0  0  0  0  0  0  0  0  0  0  0  0
   -6.8037    0.4033    0.6466 H   0  0  0  0  0  0  0  0  0  0  0  0
   -6.3722    1.2011   -0.8814 H   0  0  0  0  0  0  0  0  0  0  0  0
   -6.2011    2.0590    0.6843 H   0  0  0  0  0  0  0  0  0  0  0  0
  1  2  1  0
  2  3  2  0
  3  4  1  0
  4  5  1  0
  4  6  2  0
  6  7  1  0
  7  8  2  0
  7  9  1  0
  6 10  1  0
 10 11  1  0
 11 12  1  0
 12 13  1  0
 13 14  1  0
 14 15  2  0
 15 16  1  0
 16 17  2  0
 17 18  1  0
 18 19  2  0
 19 20  1  0
 20 21  2  0
 20 22  1  0
 17 23  1  0
  8  2  1  0
 19 14  1  0
  3 24  1  0
  8 25  1  0
 11 26  1  0
 11 27  1  0
 12 28  1  0
 12 29  1  0
 15 30  1  0
 16 31  1  0
 23 32  1  0
 23 33  1  0
 23 34  1  0
M  CHG  2  20   1  22  -1
M  END
>  <Ligand ID>  (1) 
LIG0001741

>  <Ligand>  (1) 
CYM50174

>  <SMILES>  (1) 
Clc1cc(Cl)c(c(c1)Cl)OCCOc1ccc(nc1[N+](=O)[O-])C

>  <CID>  (1) 
44620882.0

>  <ChEMBL ID>  (1) 
nan

>  <InChiKey>  (1) 
CLAHWMCGEBXKHS-UHFFFAOYSA-N

>  <InChi>  (1) 
InChI=1S/C14H11Cl3N2O4/c1-8-2-3-12(14(18-8)19(20)21)22-4-5-23-13-10(16)6-9(15)7-11(13)17/h2-3,6-7H,4-5H2,1H3

>  <IUPAC Name>  (1) 
6-methyl-2-nitro-3-[2-(2,4,6-trichlorophenoxy)ethoxy]pyridine

$$$$
