
     RDKit          3D

 62 66  0  0  0  0  0  0  0  0999 V2000
   -8.2331   -0.9435   -3.1973 Cl  0  0  0  0  0  0  0  0  0  0  0  0
   -6.8259   -1.0375   -2.1530 C   0  0  0  0  0  0  0  0  0  0  0  0
   -6.6687   -1.5590   -0.8739 C   0  0  0  0  0  0  0  0  0  0  0  0
   -5.4385   -1.4698   -0.3478 C   0  0  0  0  0  0  0  0  0  0  0  0
   -4.4497   -0.8969   -1.0647 C   0  0  0  0  0  0  0  0  0  0  0  0
   -5.1531   -0.4063   -2.5955 S   0  0  0  0  0  0  0  0  0  0  0  0
   -3.0262   -0.6731   -0.7680 C   0  0  0  0  0  0  0  0  0  0  0  0
   -2.2520   -1.5884   -0.2029 C   0  0  0  0  0  0  0  0  0  0  0  0
   -2.8178   -2.9109    0.1543 C   0  0  0  0  0  0  0  0  0  0  0  0
   -1.7674   -3.9553   -0.0075 C   0  0  0  0  0  0  0  0  0  0  0  0
   -0.7624   -3.8205   -1.0565 C   0  0  0  0  0  0  0  0  0  0  0  0
    0.5407   -3.1783   -0.6667 C   0  0  0  0  0  0  0  0  0  0  0  0
    0.3431   -1.7835   -0.1949 C   0  0  0  0  0  0  0  0  0  0  0  0
   -0.8702   -1.1100    0.0005 C   0  0  0  0  0  0  0  0  0  0  0  0
   -0.6159    0.1349    0.4341 N   0  0  0  0  0  0  0  0  0  0  0  0
    0.7185    0.2653    0.5168 N   0  0  0  0  0  0  0  0  0  0  0  0
    1.3194   -0.9006    0.1353 C   0  0  0  0  0  0  0  0  0  0  0  0
    2.7610   -1.1153    0.1063 C   0  0  0  0  0  0  0  0  0  0  0  0
    3.1349   -2.2775   -0.2655 O   0  0  0  0  0  0  0  0  0  0  0  0
    3.6826   -0.1205    0.4608 N   0  0  0  0  0  0  0  0  0  0  0  0
    5.1255   -0.2885    0.4494 C   0  0  1  0  0  0  0  0  0  0  0  0
    5.8116    0.7495   -0.3514 C   0  0  0  0  0  0  0  0  0  0  0  0
    5.3986    2.0657   -0.1750 C   0  0  0  0  0  0  0  0  0  0  0  0
    6.0013    3.0982   -0.8961 C   0  0  0  0  0  0  0  0  0  0  0  0
    7.0134    2.8039   -1.7890 C   0  0  0  0  0  0  0  0  0  0  0  0
    7.3957    1.4889   -1.9373 C   0  0  0  0  0  0  0  0  0  0  0  0
    6.7991    0.4912   -1.2270 N   0  0  0  0  0  0  0  0  0  0  0  0
    5.5481   -0.2023    1.9226 C   0  0  0  0  0  0  0  0  0  0  0  0
   -1.4918    1.1922    0.7881 C   0  0  0  0  0  0  0  0  0  0  0  0
   -2.5417    1.0411    1.6844 C   0  0  0  0  0  0  0  0  0  0  0  0
   -3.3131    2.1324    1.9550 C   0  0  0  0  0  0  0  0  0  0  0  0
   -3.0730    3.3617    1.3650 C   0  0  0  0  0  0  0  0  0  0  0  0
   -2.0264    3.5396    0.4631 C   0  0  0  0  0  0  0  0  0  0  0  0
   -1.2533    2.4395    0.1937 C   0  0  0  0  0  0  0  0  0  0  0  0
    0.0819    2.6300   -0.9456 Cl  0  0  0  0  0  0  0  0  0  0  0  0
   -3.9494    4.5333    1.6941 C   0  0  0  0  0  0  0  0  0  0  0  0
   -3.6859    5.0330    2.9426 F   0  0  0  0  0  0  0  0  0  0  0  0
   -5.2827    4.1872    1.5086 F   0  0  0  0  0  0  0  0  0  0  0  0
   -3.6932    5.5537    0.7823 F   0  0  0  0  0  0  0  0  0  0  0  0
   -7.5456   -2.0073   -0.3726 H   0  0  0  0  0  0  0  0  0  0  0  0
   -5.2307   -1.8594    0.6848 H   0  0  0  0  0  0  0  0  0  0  0  0
   -2.6548    0.3103   -1.0728 H   0  0  0  0  0  0  0  0  0  0  0  0
   -3.1633   -2.8350    1.2206 H   0  0  0  0  0  0  0  0  0  0  0  0
   -3.6703   -3.1833   -0.5291 H   0  0  0  0  0  0  0  0  0  0  0  0
   -1.2596   -4.0665    0.9925 H   0  0  0  0  0  0  0  0  0  0  0  0
   -2.3015   -4.9401   -0.1278 H   0  0  0  0  0  0  0  0  0  0  0  0
   -0.5295   -4.7706   -1.5645 H   0  0  0  0  0  0  0  0  0  0  0  0
   -1.1945   -3.1460   -1.8515 H   0  0  0  0  0  0  0  0  0  0  0  0
    1.0567   -3.7858    0.0983 H   0  0  0  0  0  0  0  0  0  0  0  0
    1.1899   -3.1487   -1.5612 H   0  0  0  0  0  0  0  0  0  0  0  0
    3.3063    0.8121    0.7556 H   0  0  0  0  0  0  0  0  0  0  0  0
    5.3954   -1.3148    0.1355 H   0  0  0  0  0  0  0  0  0  0  0  0
    4.6180    2.3554    0.5045 H   0  0  0  0  0  0  0  0  0  0  0  0
    5.6587    4.1287   -0.7409 H   0  0  0  0  0  0  0  0  0  0  0  0
    7.4811    3.6037   -2.3476 H   0  0  0  0  0  0  0  0  0  0  0  0
    8.1850    1.2372   -2.6314 H   0  0  0  0  0  0  0  0  0  0  0  0
    5.0689    0.7281    2.3313 H   0  0  0  0  0  0  0  0  0  0  0  0
    6.6471   -0.1378    2.0285 H   0  0  0  0  0  0  0  0  0  0  0  0
    5.1283   -1.0882    2.4330 H   0  0  0  0  0  0  0  0  0  0  0  0
   -2.6883    0.0574    2.1203 H   0  0  0  0  0  0  0  0  0  0  0  0
   -4.1305    2.0379    2.6450 H   0  0  0  0  0  0  0  0  0  0  0  0
   -1.8512    4.5091    0.0079 H   0  0  0  0  0  0  0  0  0  0  0  0
  1  2  1  0
  2  3  2  0
  3  4  1  0
  4  5  2  0
  5  6  1  0
  5  7  1  0
  7  8  2  0
  8  9  1  0
  9 10  1  0
 10 11  1  0
 11 12  1  0
 12 13  1  0
 13 14  2  0
 14 15  1  0
 15 16  1  0
 16 17  2  0
 17 18  1  0
 18 19  2  0
 18 20  1  0
 20 21  1  0
 21 22  1  0
 22 23  2  0
 23 24  1  0
 24 25  2  0
 25 26  1  0
 26 27  2  0
 21 28  1  0
 15 29  1  0
 29 30  2  0
 30 31  1  0
 31 32  2  0
 32 33  1  0
 33 34  2  0
 34 35  1  0
 32 36  1  0
 36 37  1  0
 36 38  1  0
 36 39  1  0
  6  2  1  0
 14  8  1  0
 27 22  1  0
 34 29  1  0
 17 13  1  0
  3 40  1  0
  4 41  1  0
  7 42  1  0
  9 43  1  0
  9 44  1  0
 10 45  1  0
 10 46  1  0
 11 47  1  0
 11 48  1  0
 12 49  1  0
 12 50  1  0
 20 51  1  0
 21 52  1  6
 23 53  1  0
 24 54  1  0
 25 55  1  0
 26 56  1  0
 28 57  1  0
 28 58  1  0
 28 59  1  0
 30 60  1  0
 31 61  1  0
 33 62  1  0
M  END
>  <Ligand ID>  (1) 
LIG0005428

>  <Ligand>  (1) 
CHEMBL3938215

>  <SMILES>  (1) 
Clc1ccc(s1)/C=C/1\CCCCc2c1n(nc2C(=O)N[C@@H](c1ccccn1)C)c1ccc(cc1Cl)C(F)(F)F

>  <CID>  (1) 
134149775.0

>  <ChEMBL ID>  (1) 
nan

>  <InChiKey>  (1) 
AIOQZVVKJGWGOM-WECAROLCSA-N

>  <InChi>  (1) 
InChI=1S/C28H23Cl2F3N4OS/c1-16(22-8-4-5-13-34-22)35-27(38)25-20-7-3-2-6-17(14-19-10-12-24(30)39-19)26(20)37(36-25)23-11-9-18(15-21(23)29)28(31,32)33/h4-5,8-16H,2-3,6-7H2,1H3,(H,35,38)/b17-14+/t16-/m1/s1

>  <IUPAC Name>  (1) 
(8E)-8-[(5-chlorothiophen-2-yl)methylidene]-1-[2-chloro-4-(trifluoromethyl)phenyl]-N-[(1R)-1-pyridin-2-ylethyl]-4,5,6,7-tetrahydrocyclohepta[c]pyrazole-3-carboxamide

$$$$
