
     RDKit          3D

189196  0  0  0  0  0  0  0  0999 V2000
    9.2382   -3.9968   -2.8943 N   0  0  0  0  0  0  0  0  0  0  0  0
    9.9985   -3.4632   -1.7731 C   0  0  0  0  0  0  0  0  0  0  0  0
    9.4348   -3.6011   -0.6254 N   0  0  0  0  0  0  0  0  0  0  0  0
    8.1505   -4.2483   -0.6075 C   0  0  0  0  0  0  0  0  0  0  0  0
    7.9442   -5.0114    0.6942 C   0  0  0  0  0  0  0  0  0  0  0  0
    6.5317   -5.5544    0.7233 C   0  0  0  0  0  0  0  0  0  0  0  0
    5.5522   -4.4588    0.9464 C   0  0  2  0  0  0  0  0  0  0  0  0
    4.1540   -4.8575    0.8100 N   0  0  0  0  0  0  0  0  0  0  0  0
    3.1719   -4.7534    1.8134 C   0  0  0  0  0  0  0  0  0  0  0  0
    3.5603   -4.2027    2.8737 O   0  0  0  0  0  0  0  0  0  0  0  0
    1.7714   -5.1954    1.7740 C   0  0  2  0  0  0  0  0  0  0  0  0
    1.7088   -6.5282    1.1274 C   0  0  0  0  0  0  0  0  0  0  0  0
    0.5261   -6.4782    0.2078 C   0  0  0  0  0  0  0  0  0  0  0  0
    0.3783   -4.9633   -0.0702 C   0  0  0  0  0  0  0  0  0  0  0  0
    0.8006   -4.3516    1.1283 N   0  0  0  0  0  0  0  0  0  0  0  0
    0.4577   -3.1401    1.7553 C   0  0  0  0  0  0  0  0  0  0  0  0
    1.2351   -2.9324    2.7883 O   0  0  0  0  0  0  0  0  0  0  0  0
   -0.5149   -2.1157    1.5209 C   0  0  2  0  0  0  0  0  0  0  0  0
   -1.2532   -1.8217    2.8960 C   0  0  0  0  0  0  0  0  0  0  0  0
   -1.8733   -3.0988    3.3279 C   0  0  0  0  0  0  0  0  0  0  0  0
   -1.7638   -4.2346    2.6469 N   0  0  0  0  0  0  0  0  0  0  0  0
   -2.3832   -5.2370    3.1949 C   0  0  0  0  0  0  0  0  0  0  0  0
   -3.0086   -4.7164    4.4217 N   0  0  0  0  0  0  0  0  0  0  0  0
   -2.6363   -3.4265    4.3983 C   0  0  0  0  0  0  0  0  0  0  0  0
   -1.5325   -2.2286    0.5346 N   0  0  0  0  0  0  0  0  0  0  0  0
   -2.0685   -1.0569   -0.1810 C   0  0  0  0  0  0  0  0  0  0  0  0
   -1.5085   -0.0150    0.1624 O   0  0  0  0  0  0  0  0  0  0  0  0
   -3.1393   -1.2084   -1.1644 C   0  0  1  0  0  0  0  0  0  0  0  0
   -3.6214   -2.5509   -1.3610 N   0  0  0  0  0  0  0  0  0  0  0  0
   -4.0646   -2.9328   -2.6316 C   0  0  0  0  0  0  0  0  0  0  0  0
   -4.0099   -1.9839   -3.5293 O   0  0  0  0  0  0  0  0  0  0  0  0
   -4.5796   -4.2027   -3.1041 C   0  0  2  0  0  0  0  0  0  0  0  0
   -6.0638   -4.3439   -2.6876 C   0  0  0  0  0  0  0  0  0  0  0  0
   -6.1510   -4.3017   -1.2074 C   0  0  0  0  0  0  0  0  0  0  0  0
   -5.8374   -5.4963   -0.5561 C   0  0  0  0  0  0  0  0  0  0  0  0
   -5.8717   -5.5116    0.8882 C   0  0  0  0  0  0  0  0  0  0  0  0
   -6.2035   -4.3810    1.5721 C   0  0  0  0  0  0  0  0  0  0  0  0
   -6.5005   -3.2553    0.8524 C   0  0  0  0  0  0  0  0  0  0  0  0
   -6.4938   -3.1515   -0.4767 C   0  0  0  0  0  0  0  0  0  0  0  0
   -6.2143   -4.4467    2.9598 O   0  0  0  0  0  0  0  0  0  0  0  0
   -3.8451   -5.3402   -2.5540 N   0  0  0  0  0  0  0  0  0  0  0  0
   -4.3666   -0.3066   -0.9479 C   0  0  0  0  0  0  0  0  0  0  0  0
   -4.0063    1.0608   -1.2835 C   0  0  0  0  0  0  0  0  0  0  0  0
   -2.8916    1.4216   -1.4862 O   0  0  0  0  0  0  0  0  0  0  0  0
   -4.9642    2.1832   -1.4140 N   0  0  0  0  0  0  0  0  0  0  0  0
   -6.2319    1.7824   -0.9464 C   0  0  2  0  0  0  0  0  0  0  0  0
   -7.2534    1.4933   -1.9609 C   0  0  0  0  0  0  0  0  0  0  0  0
   -8.4114    1.2248   -1.5416 O   0  0  0  0  0  0  0  0  0  0  0  0
   -7.0882    1.4755   -3.3632 N   0  0  0  0  0  0  0  0  0  0  0  0
   -6.6985    2.5987    0.1795 C   0  0  0  0  0  0  0  0  0  0  0  0
   -7.9619    2.2828    0.7995 C   0  0  0  0  0  0  0  0  0  0  0  0
   -9.1114    2.9531    0.3229 C   0  0  0  0  0  0  0  0  0  0  0  0
  -10.2747    2.6037    0.9878 C   0  0  0  0  0  0  0  0  0  0  0  0
  -10.3155    1.6897    2.0194 C   0  0  0  0  0  0  0  0  0  0  0  0
   -9.1795    1.0492    2.4696 C   0  0  0  0  0  0  0  0  0  0  0  0
   -8.0094    1.3925    1.8079 C   0  0  0  0  0  0  0  0  0  0  0  0
  -11.5507    1.4428    2.5875 O   0  0  0  0  0  0  0  0  0  0  0  0
   -4.4773    3.4049   -1.9519 C   0  0  2  0  0  0  0  0  0  0  0  0
   -3.9361    2.9675   -3.3362 C   0  0  0  0  0  0  0  0  0  0  0  0
   -3.2773    3.8985   -1.2749 N   0  0  0  0  0  0  0  0  0  0  0  0
   -3.3376    4.6436   -0.0522 C   0  0  0  0  0  0  0  0  0  0  0  0
   -4.4620    4.8562    0.3938 O   0  0  0  0  0  0  0  0  0  0  0  0
   -2.1645    5.1723    0.6741 C   0  0  1  0  0  0  0  0  0  0  0  0
   -0.9395    4.6112    0.2027 N   0  0  0  0  0  0  0  0  0  0  0  0
   -0.2097    4.9530   -0.9658 C   0  0  0  0  0  0  0  0  0  0  0  0
   -0.7056    5.8157   -1.6930 O   0  0  0  0  0  0  0  0  0  0  0  0
    1.0831    4.3143   -1.3246 C   0  0  1  0  0  0  0  0  0  0  0  0
    1.5569    3.3930   -0.3079 N   0  0  0  0  0  0  0  0  0  0  0  0
    2.9633    3.0718   -0.1642 C   0  0  0  0  0  0  0  0  0  0  0  0
    3.6764    3.5869   -1.0514 O   0  0  0  0  0  0  0  0  0  0  0  0
    3.4598    2.1988    0.9266 C   0  0  1  0  0  0  0  0  0  0  0  0
    4.7048    1.5371    0.5314 N   0  0  0  0  0  0  0  0  0  0  0  0
    4.6302    0.1694    0.2335 C   0  0  0  0  0  0  0  0  0  0  0  0
    3.4721   -0.3463    0.3762 O   0  0  0  0  0  0  0  0  0  0  0  0
    5.6888   -0.7453   -0.2103 C   0  0  1  0  0  0  0  0  0  0  0  0
    5.2152   -2.1402   -0.1512 N   0  0  0  0  0  0  0  0  0  0  0  0
    5.9117   -3.0814    0.6711 C   0  0  0  0  0  0  0  0  0  0  0  0
    6.9580   -2.6041    1.1924 O   0  0  0  0  0  0  0  0  0  0  0  0
    6.2166   -0.4162   -1.5874 C   0  0  0  0  0  0  0  0  0  0  0  0
    6.8145    0.9143   -1.6583 C   0  0  0  0  0  0  0  0  0  0  0  0
    6.3484    2.0986   -2.2070 C   0  0  0  0  0  0  0  0  0  0  0  0
    7.2155    3.1041   -2.0711 N   0  0  0  0  0  0  0  0  0  0  0  0
    8.3108    2.5885   -1.4131 C   0  0  0  0  0  0  0  0  0  0  0  0
    8.0556    1.2389   -1.1565 C   0  0  0  0  0  0  0  0  0  0  0  0
    9.0148    0.5428   -0.5163 C   0  0  0  0  0  0  0  0  0  0  0  0
   10.2399    0.9966   -0.0849 C   0  0  0  0  0  0  0  0  0  0  0  0
   10.4904    2.3521   -0.3568 C   0  0  0  0  0  0  0  0  0  0  0  0
    9.5169    3.1055   -1.0100 C   0  0  0  0  0  0  0  0  0  0  0  0
    3.7484    3.1149    2.1198 C   0  0  0  0  0  0  0  0  0  0  0  0
    4.8153    4.0980    1.7186 C   0  0  0  0  0  0  0  0  0  0  0  0
    6.0266    3.7457    1.8852 O   0  0  0  0  0  0  0  0  0  0  0  0
    4.5466    5.3686    1.1759 N   0  0  0  0  0  0  0  0  0  0  0  0
    0.9136    3.5714   -2.6580 C   0  0  0  0  0  0  0  0  0  0  0  0
   -2.2173    6.7032    0.5912 C   0  0  0  0  0  0  0  0  0  0  0  0
   -1.1216    7.3753    1.3176 C   0  0  0  0  0  0  0  0  0  0  0  0
   -1.2627    7.5288    2.6694 C   0  0  0  0  0  0  0  0  0  0  0  0
   -0.3435    8.1693    3.4959 C   0  0  0  0  0  0  0  0  0  0  0  0
    0.7834    8.6754    2.8387 C   0  0  0  0  0  0  0  0  0  0  0  0
    0.9658    8.5485    1.4752 C   0  0  0  0  0  0  0  0  0  0  0  0
    0.0109    7.8991    0.7381 C   0  0  0  0  0  0  0  0  0  0  0  0
   -5.4042    4.4873   -2.2176 C   0  0  0  0  0  0  0  0  0  0  0  0
   -6.5355    4.4122   -2.7591 O   0  0  0  0  0  0  0  0  0  0  0  0
   -5.0398    5.8103   -1.8434 O   0  0  0  0  0  0  0  0  0  0  0  0
   11.2190   -2.8798   -2.0970 N   0  0  0  0  0  0  0  0  0  0  0  0
    8.5620   -3.4382   -3.4269 H   0  0  0  0  0  0  0  0  0  0  0  0
    9.4347   -4.9867   -3.1123 H   0  0  0  0  0  0  0  0  0  0  0  0
    7.3180   -3.7410   -1.0388 H   0  0  0  0  0  0  0  0  0  0  0  0
    8.3377   -5.1285   -1.3965 H   0  0  0  0  0  0  0  0  0  0  0  0
    8.2204   -4.3792    1.5346 H   0  0  0  0  0  0  0  0  0  0  0  0
    8.6988   -5.8395    0.6854 H   0  0  0  0  0  0  0  0  0  0  0  0
    6.5035   -6.2631    1.5818 H   0  0  0  0  0  0  0  0  0  0  0  0
    6.3534   -6.1022   -0.2351 H   0  0  0  0  0  0  0  0  0  0  0  0
    5.5752   -4.4090    2.1547 H   0  0  0  0  0  0  0  0  0  0  0  0
    3.8484   -5.2533   -0.0818 H   0  0  0  0  0  0  0  0  0  0  0  0
    1.4043   -5.3788    2.8487 H   0  0  0  0  0  0  0  0  0  0  0  0
    2.6548   -6.7875    0.5803 H   0  0  0  0  0  0  0  0  0  0  0  0
    1.4966   -7.3222    1.8967 H   0  0  0  0  0  0  0  0  0  0  0  0
   -0.4107   -6.8527    0.6756 H   0  0  0  0  0  0  0  0  0  0  0  0
    0.8012   -7.0062   -0.7035 H   0  0  0  0  0  0  0  0  0  0  0  0
   -0.6817   -4.8258   -0.3465 H   0  0  0  0  0  0  0  0  0  0  0  0
    1.0543   -4.7828   -0.9348 H   0  0  0  0  0  0  0  0  0  0  0  0
    0.0118   -1.1116    1.3957 H   0  0  0  0  0  0  0  0  0  0  0  0
   -1.9769   -1.0471    2.7273 H   0  0  0  0  0  0  0  0  0  0  0  0
   -0.4629   -1.4873    3.5578 H   0  0  0  0  0  0  0  0  0  0  0  0
   -2.5361   -6.2833    2.9636 H   0  0  0  0  0  0  0  0  0  0  0  0
   -3.5523   -5.3102    5.0351 H   0  0  0  0  0  0  0  0  0  0  0  0
   -2.9412   -2.7378    5.1815 H   0  0  0  0  0  0  0  0  0  0  0  0
   -1.9658   -3.1017    0.2510 H   0  0  0  0  0  0  0  0  0  0  0  0
   -2.7361   -0.8807   -2.1685 H   0  0  0  0  0  0  0  0  0  0  0  0
   -3.6740   -3.2926   -0.6055 H   0  0  0  0  0  0  0  0  0  0  0  0
   -4.5474   -4.2884   -4.1960 H   0  0  0  0  0  0  0  0  0  0  0  0
   -6.4401   -5.2909   -3.0801 H   0  0  0  0  0  0  0  0  0  0  0  0
   -6.5753   -3.4647   -3.0910 H   0  0  0  0  0  0  0  0  0  0  0  0
   -5.5836   -6.3979   -1.0277 H   0  0  0  0  0  0  0  0  0  0  0  0
   -5.6137   -6.4753    1.3462 H   0  0  0  0  0  0  0  0  0  0  0  0
   -6.7589   -2.3665    1.4554 H   0  0  0  0  0  0  0  0  0  0  0  0
   -6.7366   -2.2941   -1.0739 H   0  0  0  0  0  0  0  0  0  0  0  0
   -5.6094   -5.1260    3.4387 H   0  0  0  0  0  0  0  0  0  0  0  0
   -4.0920   -6.2484   -2.8905 H   0  0  0  0  0  0  0  0  0  0  0  0
   -3.2860   -5.1786   -1.7344 H   0  0  0  0  0  0  0  0  0  0  0  0
   -4.6541   -0.4473    0.1229 H   0  0  0  0  0  0  0  0  0  0  0  0
   -5.1567   -0.7234   -1.5816 H   0  0  0  0  0  0  0  0  0  0  0  0
   -6.0657    0.6965   -0.5236 H   0  0  0  0  0  0  0  0  0  0  0  0
   -7.5508    2.1937   -3.9706 H   0  0  0  0  0  0  0  0  0  0  0  0
   -6.5195    0.7438   -3.8604 H   0  0  0  0  0  0  0  0  0  0  0  0
   -5.9488    2.7028    1.0033 H   0  0  0  0  0  0  0  0  0  0  0  0
   -6.7928    3.6665   -0.1961 H   0  0  0  0  0  0  0  0  0  0  0  0
   -9.0656    3.6673   -0.4784 H   0  0  0  0  0  0  0  0  0  0  0  0
  -11.2102    3.0821    0.6749 H   0  0  0  0  0  0  0  0  0  0  0  0
   -9.1874    0.3473    3.2829 H   0  0  0  0  0  0  0  0  0  0  0  0
   -7.0873    0.9119    2.1245 H   0  0  0  0  0  0  0  0  0  0  0  0
  -12.2534    2.1858    2.6873 H   0  0  0  0  0  0  0  0  0  0  0  0
   -4.3953    2.0071   -3.5868 H   0  0  0  0  0  0  0  0  0  0  0  0
   -2.8482    2.8285   -3.2825 H   0  0  0  0  0  0  0  0  0  0  0  0
   -4.2117    3.7191   -4.1228 H   0  0  0  0  0  0  0  0  0  0  0  0
   -2.3604    3.7198   -1.6204 H   0  0  0  0  0  0  0  0  0  0  0  0
   -2.2083    5.0012    1.7867 H   0  0  0  0  0  0  0  0  0  0  0  0
   -0.5293    3.8534    0.7629 H   0  0  0  0  0  0  0  0  0  0  0  0
    1.8926    5.0338   -1.5142 H   0  0  0  0  0  0  0  0  0  0  0  0
    0.9848    2.8811    0.3656 H   0  0  0  0  0  0  0  0  0  0  0  0
    2.6822    1.4746    1.2171 H   0  0  0  0  0  0  0  0  0  0  0  0
    5.6101    1.9827    0.4670 H   0  0  0  0  0  0  0  0  0  0  0  0
    6.5981   -0.6440    0.4607 H   0  0  0  0  0  0  0  0  0  0  0  0
    4.4253   -2.5108   -0.6649 H   0  0  0  0  0  0  0  0  0  0  0  0
    5.3623   -0.5587   -2.3113 H   0  0  0  0  0  0  0  0  0  0  0  0
    6.9376   -1.2207   -1.8682 H   0  0  0  0  0  0  0  0  0  0  0  0
    5.3874    2.2103   -2.6925 H   0  0  0  0  0  0  0  0  0  0  0  0
    7.1906    4.0952   -2.3683 H   0  0  0  0  0  0  0  0  0  0  0  0
    8.8300   -0.5230   -0.3130 H   0  0  0  0  0  0  0  0  0  0  0  0
   10.9648    0.3834    0.4285 H   0  0  0  0  0  0  0  0  0  0  0  0
   11.4313    2.8016   -0.0590 H   0  0  0  0  0  0  0  0  0  0  0  0
    9.6959    4.1680   -1.2214 H   0  0  0  0  0  0  0  0  0  0  0  0
    2.8546    3.6841    2.3764 H   0  0  0  0  0  0  0  0  0  0  0  0
    4.0868    2.4942    2.9599 H   0  0  0  0  0  0  0  0  0  0  0  0
    5.1190    5.6539    0.3482 H   0  0  0  0  0  0  0  0  0  0  0  0
    3.8225    6.0351    1.5423 H   0  0  0  0  0  0  0  0  0  0  0  0
    1.6751    2.7905   -2.6928 H   0  0  0  0  0  0  0  0  0  0  0  0
    1.1593    4.3213   -3.4404 H   0  0  0  0  0  0  0  0  0  0  0  0
   -0.1196    3.2533   -2.7993 H   0  0  0  0  0  0  0  0  0  0  0  0
   -2.2627    7.0419   -0.4804 H   0  0  0  0  0  0  0  0  0  0  0  0
   -3.1697    7.0076    1.0579 H   0  0  0  0  0  0  0  0  0  0  0  0
   -2.1440    7.1447    3.1927 H   0  0  0  0  0  0  0  0  0  0  0  0
   -0.4774    8.2787    4.5601 H   0  0  0  0  0  0  0  0  0  0  0  0
    1.5396    9.1811    3.4092 H   0  0  0  0  0  0  0  0  0  0  0  0
    1.8758    8.9752    1.0118 H   0  0  0  0  0  0  0  0  0  0  0  0
    0.1856    7.8320   -0.3212 H   0  0  0  0  0  0  0  0  0  0  0  0
   -5.8105    6.4154   -1.5335 H   0  0  0  0  0  0  0  0  0  0  0  0
   11.8381   -3.3782   -2.7900 H   0  0  0  0  0  0  0  0  0  0  0  0
   11.4862   -1.9631   -1.6481 H   0  0  0  0  0  0  0  0  0  0  0  0
  1  2  1  0
  2  3  2  3
  3  4  1  0
  4  5  1  0
  5  6  1  0
  6  7  1  0
  7  8  1  0
  8  9  1  0
  9 10  2  0
  9 11  1  0
 11 12  1  0
 12 13  1  0
 13 14  1  0
 14 15  1  0
 15 16  1  0
 16 17  2  0
 16 18  1  0
 18 19  1  0
 19 20  1  0
 20 21  1  0
 21 22  2  0
 22 23  1  0
 23 24  1  0
 18 25  1  0
 25 26  1  0
 26 27  2  0
 26 28  1  0
 28 29  1  0
 29 30  1  0
 30 31  2  0
 30 32  1  0
 32 33  1  0
 33 34  1  0
 34 35  2  0
 35 36  1  0
 36 37  2  0
 37 38  1  0
 38 39  2  0
 37 40  1  0
 32 41  1  0
 28 42  1  0
 42 43  1  0
 43 44  2  0
 43 45  1  0
 45 46  1  0
 46 47  1  0
 47 48  2  0
 47 49  1  0
 46 50  1  0
 50 51  1  0
 51 52  2  0
 52 53  1  0
 53 54  2  0
 54 55  1  0
 55 56  2  0
 54 57  1  0
 45 58  1  0
 58 59  1  6
 58 60  1  0
 60 61  1  0
 61 62  2  0
 61 63  1  0
 63 64  1  0
 64 65  1  0
 65 66  2  0
 65 67  1  0
 67 68  1  0
 68 69  1  0
 69 70  2  0
 69 71  1  0
 71 72  1  0
 72 73  1  0
 73 74  2  0
 73 75  1  0
 75 76  1  0
 76 77  1  0
 77 78  2  0
 75 79  1  0
 79 80  1  0
 80 81  2  0
 81 82  1  0
 82 83  1  0
 83 84  2  0
 84 85  1  0
 85 86  2  0
 86 87  1  0
 87 88  2  0
 71 89  1  0
 89 90  1  0
 90 91  2  0
 90 92  1  0
 67 93  1  0
 63 94  1  0
 94 95  1  0
 95 96  2  0
 96 97  1  0
 97 98  2  0
 98 99  1  0
 99100  2  0
 58101  1  0
101102  2  0
101103  1  0
  2104  1  0
 77  7  1  0
 84 80  1  0
100 95  1  0
 15 11  1  0
 24 20  2  0
 39 34  1  0
 56 51  1  0
 88 83  1  0
  1105  1  0
  1106  1  0
  4107  1  0
  4108  1  0
  5109  1  0
  5110  1  0
  6111  1  0
  6112  1  0
  7113  1  1
  8114  1  0
 11115  1  1
 12116  1  0
 12117  1  0
 13118  1  0
 13119  1  0
 14120  1  0
 14121  1  0
 18122  1  6
 19123  1  0
 19124  1  0
 22125  1  0
 23126  1  0
 24127  1  0
 25128  1  0
 28129  1  6
 29130  1  0
 32131  1  6
 33132  1  0
 33133  1  0
 35134  1  0
 36135  1  0
 38136  1  0
 39137  1  0
 40138  1  0
 41139  1  0
 41140  1  0
 42141  1  0
 42142  1  0
 46143  1  1
 49144  1  0
 49145  1  0
 50146  1  0
 50147  1  0
 52148  1  0
 53149  1  0
 55150  1  0
 56151  1  0
 57152  1  0
 59153  1  0
 59154  1  0
 59155  1  0
 60156  1  0
 63157  1  1
 64158  1  0
 67159  1  6
 68160  1  0
 71161  1  1
 72162  1  0
 75163  1  1
 76164  1  0
 79165  1  0
 79166  1  0
 81167  1  0
 82168  1  0
 85169  1  0
 86170  1  0
 87171  1  0
 88172  1  0
 89173  1  0
 89174  1  0
 92175  1  0
 92176  1  0
 93177  1  0
 93178  1  0
 93179  1  0
 94180  1  0
 94181  1  0
 96182  1  0
 97183  1  0
 98184  1  0
 99185  1  0
100186  1  0
103187  1  0
104188  1  0
104189  1  0
M  END
>  <Ligand ID>  (1) 
LIG0001134

>  <Ligand>  (1) 
CHEMBL2369972

>  <SMILES>  (1) 
NC(=NCCC[C@@H]1NC(=O)[C@@H]2CCCN2C(=O)[C@H](Cc2nc[nH]c2)NC(=O)[C@@H](NC(=O)[C@H](Cc2ccc(cc2)O)N)CC(=O)N([C@H](C(=O)N)Cc2ccc(cc2)O)[C@](C)(NC(=O)[C@@H](NC(=O)[C@@H](NC(=O)[C@@H](NC(=O)[C@@H](NC1=O)Cc1c[nH]c2c1cccc2)CC(=O)N)C)Cc1ccccc1)C(=O)O)N

>  <CID>  (1) 
73350034.0

>  <ChEMBL ID>  (1) 
nan

>  <InChiKey>  (1) 
ICLWVIZOQVRIQF-UMJSALFSSA-N

>  <InChi>  (1) 
InChI=1S/C69H85N19O16/c1-36-58(94)81-48(27-37-10-4-3-5-11-37)64(100)86-69(2,67(103)104)88(54(57(72)93)28-39-18-22-43(90)23-19-39)56(92)32-51(82-59(95)45(70)26-38-16-20-42(89)21-17-38)63(99)85-52(30-41-34-75-35-78-41)66(102)87-25-9-15-53(87)65(101)80-47(14-8-24-76-68(73)74)60(96)83-49(29-40-33-77-46-13-7-6-12-44(40)46)62(98)84-50(31-55(71)91)61(97)79-36/h3-7,10-13,16-23,33-36,45,47-54,77,89-90H,8-9,14-15,24-32,70H2,1-2H3,(H2,71,91)(H2,72,93)(H,75,78)(H,79,97)(H,80,101)(H,81,94)(H,82,95)(H,83,96)(H,84,98)(H,85,99)(H,86,100)(H,103,104)(H4,73,74,76)/t36-,45-,47-,48-,49-,50-,51-,52-,53-,54-,69-/m0/s1

>  <IUPAC Name>  (1) 
(3S,6S,10S,13S,16S,19S,22S,25S,28S)-9-[(2S)-1-amino-3-(4-hydroxyphenyl)-1-oxopropan-2-yl]-6-[[(2S)-2-amino-3-(4-hydroxyphenyl)propanoyl]amino]-19-(2-amino-2-oxoethyl)-13-benzyl-25-[3-(diaminomethylideneamino)propyl]-3-(1H-imidazol-4-ylmethyl)-22-(1H-indol-3-ylmethyl)-10,16-dimethyl-2,5,8,12,15,18,21,24,27-nonaoxo-1,4,9,11,14,17,20,23,26-nonazabicyclo[26.3.0]hentriacontane-10-carboxylic acid

$$$$
