
     RDKit          3D

 37 39  0  0  0  0  0  0  0  0999 V2000
   -6.5635   -0.5845    0.8484 O   0  0  0  0  0  0  0  0  0  0  0  0
   -5.8242   -0.0597   -0.2285 C   0  0  0  0  0  0  0  0  0  0  0  0
   -6.1989   -0.4509   -1.3659 O   0  0  0  0  0  0  0  0  0  0  0  0
   -4.7069    0.8686    0.0135 C   0  0  0  0  0  0  0  0  0  0  0  0
   -3.9584    1.2500   -1.2581 C   0  0  0  0  0  0  0  0  0  0  0  0
   -3.3534    0.0033   -1.8909 C   0  0  0  0  0  0  0  0  0  0  0  0
   -2.4592   -0.6507   -1.1003 O   0  0  0  0  0  0  0  0  0  0  0  0
   -1.2529   -0.3934   -0.5588 C   0  0  0  0  0  0  0  0  0  0  0  0
   -0.4897    0.7499   -0.7132 C   0  0  0  0  0  0  0  0  0  0  0  0
    0.7613    0.8934   -0.1004 C   0  0  0  0  0  0  0  0  0  0  0  0
    1.2515   -0.1237    0.6800 C   0  0  0  0  0  0  0  0  0  0  0  0
    0.5148   -1.2847    0.8607 C   0  0  0  0  0  0  0  0  0  0  0  0
   -0.7022   -1.4029    0.2506 C   0  0  0  0  0  0  0  0  0  0  0  0
   -1.6127   -2.8932    0.5089 Cl  0  0  0  0  0  0  0  0  0  0  0  0
    1.1378   -2.5926    1.8554 Cl  0  0  0  0  0  0  0  0  0  0  0  0
    2.5378   -0.0810    1.3791 C   0  0  0  0  0  0  0  0  0  0  0  0
    2.6956   -0.1369    2.7227 N   0  0  0  0  0  0  0  0  0  0  0  0
    3.9763   -0.1328    2.9659 O   0  0  0  0  0  0  0  0  0  0  0  0
    4.6796   -0.0777    1.8556 C   0  0  0  0  0  0  0  0  0  0  0  0
    3.8016   -0.0405    0.7833 C   0  0  0  0  0  0  0  0  0  0  0  0
    4.2582    0.0186   -0.5195 C   0  0  0  0  0  0  0  0  0  0  0  0
    5.6260    0.0389   -0.7475 C   0  0  0  0  0  0  0  0  0  0  0  0
    6.5182   -0.0008    0.3374 C   0  0  0  0  0  0  0  0  0  0  0  0
    6.0492   -0.0578    1.6273 C   0  0  0  0  0  0  0  0  0  0  0  0
   -7.1441   -1.4312    0.7251 H   0  0  0  0  0  0  0  0  0  0  0  0
   -5.0697    1.8001    0.4732 H   0  0  0  0  0  0  0  0  0  0  0  0
   -4.0348    0.3772    0.7588 H   0  0  0  0  0  0  0  0  0  0  0  0
   -4.7156    1.6309   -1.9747 H   0  0  0  0  0  0  0  0  0  0  0  0
   -3.1884    1.9612   -1.0057 H   0  0  0  0  0  0  0  0  0  0  0  0
   -2.8165    0.3885   -2.8116 H   0  0  0  0  0  0  0  0  0  0  0  0
   -4.1075   -0.6816   -2.2684 H   0  0  0  0  0  0  0  0  0  0  0  0
   -0.8767    1.5449   -1.3357 H   0  0  0  0  0  0  0  0  0  0  0  0
    1.3451    1.8084   -0.2434 H   0  0  0  0  0  0  0  0  0  0  0  0
    3.5288    0.0487   -1.3078 H   0  0  0  0  0  0  0  0  0  0  0  0
    6.0134    0.0796   -1.7826 H   0  0  0  0  0  0  0  0  0  0  0  0
    7.5957    0.0112    0.1550 H   0  0  0  0  0  0  0  0  0  0  0  0
    6.7845   -0.0891    2.4117 H   0  0  0  0  0  0  0  0  0  0  0  0
  1  2  1  0
  2  3  2  0
  2  4  1  0
  4  5  1  0
  5  6  1  0
  6  7  1  0
  7  8  1  0
  8  9  2  0
  9 10  1  0
 10 11  2  0
 11 12  1  0
 12 13  2  0
 13 14  1  0
 12 15  1  0
 11 16  1  0
 16 17  2  0
 17 18  1  0
 18 19  1  0
 19 20  2  0
 20 21  1  0
 21 22  2  0
 22 23  1  0
 23 24  2  0
 13  8  1  0
 20 16  1  0
 24 19  1  0
  1 25  1  0
  4 26  1  0
  4 27  1  0
  5 28  1  0
  5 29  1  0
  6 30  1  0
  6 31  1  0
  9 32  1  0
 10 33  1  0
 21 34  1  0
 22 35  1  0
 23 36  1  0
 24 37  1  0
M  END
>  <Ligand ID>  (1) 
LIG0002740

>  <Ligand>  (1) 
CHEMBL3984072

>  <SMILES>  (1) 
OC(=O)CCCOc1ccc(c(c1Cl)Cl)c1noc2c1cccc2

>  <CID>  (1) 
134157563.0

>  <ChEMBL ID>  (1) 
nan

>  <InChiKey>  (1) 
NJCQGRHXZXBTAZ-UHFFFAOYSA-N

>  <InChi>  (1) 
InChI=1S/C17H13Cl2NO4/c18-15-11(17-10-4-1-2-5-12(10)24-20-17)7-8-13(16(15)19)23-9-3-6-14(21)22/h1-2,4-5,7-8H,3,6,9H2,(H,21,22)

>  <IUPAC Name>  (1) 
4-[4-(1,2-benzoxazol-3-yl)-2,3-dichlorophenoxy]butanoic acid

$$$$
