
     RDKit          3D

 55 57  0  0  0  0  0  0  0  0999 V2000
   -1.2615   -2.0374    3.0222 C   0  0  0  0  0  0  0  0  0  0  0  0
   -0.0041   -1.8099    2.4460 O   0  0  0  0  0  0  0  0  0  0  0  0
    0.0715   -1.4350    1.1125 C   0  0  0  0  0  0  0  0  0  0  0  0
   -1.0631   -1.2759    0.3236 C   0  0  0  0  0  0  0  0  0  0  0  0
   -1.0051   -0.9036   -1.0023 C   0  0  0  0  0  0  0  0  0  0  0  0
   -2.0460   -0.7483   -1.7610 O   0  0  0  0  0  0  0  0  0  0  0  0
   -3.2768   -0.6908   -2.1976 C   0  0  0  0  0  0  0  0  0  0  0  0
   -4.1433    0.3451   -1.4676 C   0  0  0  0  0  0  0  0  0  0  0  0
   -4.2264    0.0283   -0.0224 C   0  0  0  0  0  0  0  0  0  0  0  0
   -5.4955    0.5353    0.6325 C   0  0  0  0  0  0  0  0  0  0  0  0
   -6.0370    1.7550   -0.0670 C   0  0  0  0  0  0  0  0  0  0  0  0
   -6.3430    1.4629   -1.5129 C   0  0  0  0  0  0  0  0  0  0  0  0
   -5.5515    0.2810   -2.0391 C   0  0  0  0  0  0  0  0  0  0  0  0
    0.2817   -0.6865   -1.5369 C   0  0  0  0  0  0  0  0  0  0  0  0
    1.4201   -0.8311   -0.8010 C   0  0  0  0  0  0  0  0  0  0  0  0
    1.2980   -1.2033    0.5137 C   0  0  0  0  0  0  0  0  0  0  0  0
    2.4960   -1.3871    1.3696 C   0  0  0  0  0  0  0  0  0  0  0  0
    3.7362   -1.0382    0.7604 N   0  0  0  0  0  0  0  0  0  0  0  0
    4.0456    0.2679    0.3220 C   0  0  0  0  0  0  0  0  0  0  0  0
    3.2308    1.2441    0.4436 O   0  0  0  0  0  0  0  0  0  0  0  0
    5.3758    0.5046   -0.3054 C   0  0  2  0  0  0  0  0  0  0  0  0
    6.3902    0.4093    0.8362 C   0  0  0  0  0  0  0  0  0  0  0  0
    7.5682    1.2645    0.3886 C   0  0  0  0  0  0  0  0  0  0  0  0
    7.0311    1.8843   -0.9082 C   0  0  0  0  0  0  0  0  0  0  0  0
    5.5708    1.8726   -0.7197 N   0  0  0  0  0  0  0  0  0  0  0  0
    0.3770   -0.3174   -2.8425 F   0  0  0  0  0  0  0  0  0  0  0  0
   -1.8759   -2.7943    2.4665 H   0  0  0  0  0  0  0  0  0  0  0  0
   -1.1387   -2.4614    4.0413 H   0  0  0  0  0  0  0  0  0  0  0  0
   -1.8184   -1.1027    3.0736 H   0  0  0  0  0  0  0  0  0  0  0  0
   -2.0018   -1.4795    0.8455 H   0  0  0  0  0  0  0  0  0  0  0  0
   -3.9047   -1.6291   -2.1250 H   0  0  0  0  0  0  0  0  0  0  0  0
   -3.2944   -0.4041   -3.3032 H   0  0  0  0  0  0  0  0  0  0  0  0
   -3.7666    1.3693   -1.6811 H   0  0  0  0  0  0  0  0  0  0  0  0
   -3.3833    0.5067    0.5109 H   0  0  0  0  0  0  0  0  0  0  0  0
   -4.2519   -1.0817    0.1132 H   0  0  0  0  0  0  0  0  0  0  0  0
   -6.2750   -0.2554    0.6761 H   0  0  0  0  0  0  0  0  0  0  0  0
   -5.2842    0.8413    1.6821 H   0  0  0  0  0  0  0  0  0  0  0  0
   -5.3082    2.5824    0.0757 H   0  0  0  0  0  0  0  0  0  0  0  0
   -6.9417    2.0705    0.5100 H   0  0  0  0  0  0  0  0  0  0  0  0
   -7.4234    1.2030   -1.5784 H   0  0  0  0  0  0  0  0  0  0  0  0
   -6.1519    2.3950   -2.0843 H   0  0  0  0  0  0  0  0  0  0  0  0
   -5.5250    0.3959   -3.1557 H   0  0  0  0  0  0  0  0  0  0  0  0
   -6.0254   -0.6536   -1.7064 H   0  0  0  0  0  0  0  0  0  0  0  0
    2.3663   -0.6516   -1.2881 H   0  0  0  0  0  0  0  0  0  0  0  0
    2.2856   -0.8224    2.3047 H   0  0  0  0  0  0  0  0  0  0  0  0
    2.4943   -2.4666    1.6476 H   0  0  0  0  0  0  0  0  0  0  0  0
    4.4738   -1.7939    0.6247 H   0  0  0  0  0  0  0  0  0  0  0  0
    5.6038   -0.1662   -1.1346 H   0  0  0  0  0  0  0  0  0  0  0  0
    5.9128    0.9235    1.7168 H   0  0  0  0  0  0  0  0  0  0  0  0
    6.6766   -0.6349    1.0478 H   0  0  0  0  0  0  0  0  0  0  0  0
    8.4212    0.5942    0.1988 H   0  0  0  0  0  0  0  0  0  0  0  0
    7.8170    2.0483    1.1376 H   0  0  0  0  0  0  0  0  0  0  0  0
    7.2718    1.1494   -1.7196 H   0  0  0  0  0  0  0  0  0  0  0  0
    7.4336    2.8826   -1.0911 H   0  0  0  0  0  0  0  0  0  0  0  0
    5.1740    1.9449   -1.6980 H   0  0  0  0  0  0  0  0  0  0  0  0
  1  2  1  0
  2  3  1  0
  3  4  2  0
  4  5  1  0
  5  6  1  0
  6  7  1  0
  7  8  1  0
  8  9  1  0
  9 10  1  0
 10 11  1  0
 11 12  1  0
 12 13  1  0
  5 14  2  0
 14 15  1  0
 15 16  2  0
 16 17  1  0
 17 18  1  0
 18 19  1  0
 19 20  2  0
 19 21  1  0
 21 22  1  0
 22 23  1  0
 23 24  1  0
 24 25  1  0
 14 26  1  0
 16  3  1  0
 25 21  1  0
 13  8  1  0
  1 27  1  0
  1 28  1  0
  1 29  1  0
  4 30  1  0
  7 31  1  0
  7 32  1  0
  8 33  1  0
  9 34  1  0
  9 35  1  0
 10 36  1  0
 10 37  1  0
 11 38  1  0
 11 39  1  0
 12 40  1  0
 12 41  1  0
 13 42  1  0
 13 43  1  0
 15 44  1  0
 17 45  1  0
 17 46  1  0
 18 47  1  0
 21 48  1  6
 22 49  1  0
 22 50  1  0
 23 51  1  0
 23 52  1  0
 24 53  1  0
 24 54  1  0
 25 55  1  0
M  END
>  <Ligand ID>  (1) 
LIG0004789

>  <Ligand>  (1) 
CHEMBL1093699

>  <SMILES>  (1) 
COc1cc(OCC2CCCCC2)c(cc1CNC(=O)[C@@H]1CCCN1)F

>  <CID>  (1) 
46884138.0

>  <ChEMBL ID>  (1) 
nan

>  <InChiKey>  (1) 
XVMROVYEPAQHAE-KRWDZBQOSA-N

>  <InChi>  (1) 
InChI=1S/C20H29FN2O3/c1-25-18-11-19(26-13-14-6-3-2-4-7-14)16(21)10-15(18)12-23-20(24)17-8-5-9-22-17/h10-11,14,17,22H,2-9,12-13H2,1H3,(H,23,24)/t17-/m0/s1

>  <IUPAC Name>  (1) 
(2S)-N-[[4-(cyclohexylmethoxy)-5-fluoro-2-methoxyphenyl]methyl]pyrrolidine-2-carboxamide

$$$$
