
     RDKit          3D

 44 47  0  0  0  0  0  0  0  0999 V2000
   -4.0327    1.9843    2.8728 F   0  0  0  0  0  0  0  0  0  0  0  0
   -4.4358    1.0656    1.9444 C   0  0  0  0  0  0  0  0  0  0  0  0
   -5.7878    0.8116    1.8604 C   0  0  0  0  0  0  0  0  0  0  0  0
   -6.2688   -0.1117    0.9376 C   0  0  0  0  0  0  0  0  0  0  0  0
   -5.3499   -0.7652    0.1094 C   0  0  0  0  0  0  0  0  0  0  0  0
   -3.9879   -0.4777    0.2282 C   0  0  0  0  0  0  0  0  0  0  0  0
   -3.5138    0.4327    1.1377 C   0  0  0  0  0  0  0  0  0  0  0  0
   -3.1097   -1.1361   -0.6039 C   0  0  0  0  0  0  0  0  0  0  0  0
   -3.5955   -2.0356   -1.5056 N   0  0  0  0  0  0  0  0  0  0  0  0
   -4.9130   -2.3105   -1.6177 C   0  0  0  0  0  0  0  0  0  0  0  0
   -5.7817   -1.6736   -0.8094 N   0  0  0  0  0  0  0  0  0  0  0  0
   -1.7038   -0.9486   -0.5788 N   0  0  0  0  0  0  0  0  0  0  0  0
   -0.8782   -1.3015    0.5786 C   0  0  0  0  0  0  0  0  0  0  0  0
    0.2352   -0.3262    0.7790 C   0  0  0  0  0  0  0  0  0  0  0  0
    1.1759   -0.4633   -0.4087 C   0  0  0  0  0  0  0  0  0  0  0  0
    0.4686   -0.7012   -1.7066 C   0  0  0  0  0  0  0  0  0  0  0  0
   -0.9901   -0.3855   -1.7102 C   0  0  0  0  0  0  0  0  0  0  0  0
    1.9794    0.6773   -0.4889 O   0  0  0  0  0  0  0  0  0  0  0  0
    3.3339    0.7727   -0.3176 C   0  0  0  0  0  0  0  0  0  0  0  0
    3.8969    2.0458   -0.4504 C   0  0  0  0  0  0  0  0  0  0  0  0
    5.2513    2.2576   -0.2983 C   0  0  0  0  0  0  0  0  0  0  0  0
    6.0729    1.1669   -0.0044 C   0  0  0  0  0  0  0  0  0  0  0  0
    5.5090   -0.0470    0.1185 N   0  0  0  0  0  0  0  0  0  0  0  0
    4.1829   -0.2673   -0.0282 C   0  0  0  0  0  0  0  0  0  0  0  0
    7.5320    1.2913    0.1763 C   0  0  0  0  0  0  0  0  0  0  0  0
   -6.5259    1.2939    2.4800 H   0  0  0  0  0  0  0  0  0  0  0  0
   -7.3167   -0.3468    0.8322 H   0  0  0  0  0  0  0  0  0  0  0  0
   -2.4583    0.6433    1.2106 H   0  0  0  0  0  0  0  0  0  0  0  0
   -5.2446   -3.0427   -2.3602 H   0  0  0  0  0  0  0  0  0  0  0  0
   -1.5022   -1.5186    1.4403 H   0  0  0  0  0  0  0  0  0  0  0  0
   -0.3917   -2.2720    0.2703 H   0  0  0  0  0  0  0  0  0  0  0  0
   -0.0834    0.7241    0.9105 H   0  0  0  0  0  0  0  0  0  0  0  0
    0.7904   -0.6013    1.6830 H   0  0  0  0  0  0  0  0  0  0  0  0
    1.8087   -1.3471   -0.1781 H   0  0  0  0  0  0  0  0  0  0  0  0
    0.6706   -1.7383   -2.0806 H   0  0  0  0  0  0  0  0  0  0  0  0
    0.9310   -0.0370   -2.4942 H   0  0  0  0  0  0  0  0  0  0  0  0
   -1.4002   -0.8005   -2.6664 H   0  0  0  0  0  0  0  0  0  0  0  0
   -1.1655    0.7151   -1.7762 H   0  0  0  0  0  0  0  0  0  0  0  0
    3.2846    2.9023   -0.6768 H   0  0  0  0  0  0  0  0  0  0  0  0
    5.7342    3.2076   -0.3887 H   0  0  0  0  0  0  0  0  0  0  0  0
    3.7970   -1.2639    0.0834 H   0  0  0  0  0  0  0  0  0  0  0  0
    7.8526    1.1247    1.2297 H   0  0  0  0  0  0  0  0  0  0  0  0
    7.9065    2.2860   -0.1822 H   0  0  0  0  0  0  0  0  0  0  0  0
    8.0239    0.5159   -0.4601 H   0  0  0  0  0  0  0  0  0  0  0  0
  1  2  1  0
  2  3  2  0
  3  4  1  0
  4  5  2  0
  5  6  1  0
  6  7  2  0
  6  8  1  0
  8  9  2  0
  9 10  1  0
 10 11  2  0
  8 12  1  0
 12 13  1  0
 13 14  1  0
 14 15  1  0
 15 16  1  0
 16 17  1  0
 15 18  1  0
 18 19  1  0
 19 20  2  0
 20 21  1  0
 21 22  2  0
 22 23  1  0
 23 24  2  0
 22 25  1  0
  7  2  1  0
 17 12  1  0
 24 19  1  0
 11  5  1  0
  3 26  1  0
  4 27  1  0
  7 28  1  0
 10 29  1  0
 13 30  1  0
 13 31  1  0
 14 32  1  0
 14 33  1  0
 15 34  1  0
 16 35  1  0
 16 36  1  0
 17 37  1  0
 17 38  1  0
 20 39  1  0
 21 40  1  0
 24 41  1  0
 25 42  1  0
 25 43  1  0
 25 44  1  0
M  END
>  <Ligand ID>  (1) 
LIG0000963

>  <Ligand>  (1) 
CHEMBL3808485

>  <SMILES>  (1) 
Fc1ccc2c(c1)c(ncn2)N1CCC(CC1)Oc1ccc(nc1)C

>  <CID>  (1) 
127044078.0

>  <ChEMBL ID>  (1) 
nan

>  <InChiKey>  (1) 
SMYUEWYXIKCMEA-UHFFFAOYSA-N

>  <InChi>  (1) 
InChI=1S/C19H19FN4O/c1-13-2-4-16(11-21-13)25-15-6-8-24(9-7-15)19-17-10-14(20)3-5-18(17)22-12-23-19/h2-5,10-12,15H,6-9H2,1H3

>  <IUPAC Name>  (1) 
6-fluoro-4-[4-(6-methylpyridin-3-yl)oxypiperidin-1-yl]quinazoline

$$$$
