
     RDKit          3D

 60 64  0  0  0  0  0  0  0  0999 V2000
   10.3326    1.2526   -1.2218 C   0  0  0  0  0  0  0  0  0  0  0  0
    9.2529    1.0103   -0.2482 C   0  0  0  0  0  0  0  0  0  0  0  0
    9.1407    1.6983    0.8738 O   0  0  0  0  0  0  0  0  0  0  0  0
    8.1284    1.3177    1.5734 N   0  0  0  0  0  0  0  0  0  0  0  0
    7.4875    0.3083    0.9204 C   0  0  0  0  0  0  0  0  0  0  0  0
    8.2074    0.1258   -0.2278 C   0  0  0  0  0  0  0  0  0  0  0  0
    6.3482   -0.3809    1.3955 N   0  0  0  0  0  0  0  0  0  0  0  0
    5.5352   -1.6392    0.5742 S   0  0  0  0  0  0  0  0  0  0  0  0
    6.2618   -2.0663   -0.6750 O   0  0  0  0  0  0  0  0  0  0  0  0
    5.4683   -2.8002    1.5583 O   0  0  0  0  0  0  0  0  0  0  0  0
    3.9073   -1.1696    0.2019 C   0  0  0  0  0  0  0  0  0  0  0  0
    2.9131   -1.5356    1.1084 C   0  0  0  0  0  0  0  0  0  0  0  0
    1.5855   -1.2777    0.9301 C   0  0  0  0  0  0  0  0  0  0  0  0
    1.2029   -0.6064   -0.2307 C   0  0  0  0  0  0  0  0  0  0  0  0
    2.1512   -0.2237   -1.1505 C   0  0  0  0  0  0  0  0  0  0  0  0
    3.5101   -0.5051   -0.9353 C   0  0  0  0  0  0  0  0  0  0  0  0
   -0.2006   -0.4614   -0.3983 N   0  0  0  0  0  0  0  0  0  0  0  0
   -1.0263    0.2113    0.5825 C   0  0  0  0  0  0  0  0  0  0  0  0
   -0.5298    0.7217    1.6233 O   0  0  0  0  0  0  0  0  0  0  0  0
   -2.4571    0.2428    0.2843 C   0  0  0  0  0  0  0  0  0  0  0  0
   -3.0515   -0.9762    0.0372 C   0  0  0  0  0  0  0  0  0  0  0  0
   -4.3878   -1.1181   -0.2411 C   0  0  0  0  0  0  0  0  0  0  0  0
   -5.1344   -0.0065   -0.2698 N   0  0  0  0  0  0  0  0  0  0  0  0
   -4.5826    1.1993   -0.0319 C   0  0  0  0  0  0  0  0  0  0  0  0
   -3.2339    1.3620    0.2511 C   0  0  0  0  0  0  0  0  0  0  0  0
   -2.6487    2.5740    0.5130 C   0  0  0  0  0  0  0  0  0  0  0  0
   -3.4712    3.6863    0.4885 C   0  0  0  0  0  0  0  0  0  0  0  0
   -2.9465    5.0497    0.7584 C   0  0  0  0  0  0  0  0  0  0  0  0
   -4.8101    3.5392    0.2089 C   0  0  0  0  0  0  0  0  0  0  0  0
   -5.4102    2.3201   -0.0571 C   0  0  0  0  0  0  0  0  0  0  0  0
   -6.8544    2.1608   -0.3415 C   0  0  0  0  0  0  0  0  0  0  0  0
   -5.0466   -2.3930   -0.4916 C   0  0  0  0  0  0  0  0  0  0  0  0
   -4.3531   -3.5863   -0.4411 C   0  0  0  0  0  0  0  0  0  0  0  0
   -4.9715   -4.8238   -0.6554 C   0  0  0  0  0  0  0  0  0  0  0  0
   -6.3245   -4.8580   -0.9262 C   0  0  0  0  0  0  0  0  0  0  0  0
   -6.9900   -3.6517   -0.9712 C   0  0  0  0  0  0  0  0  0  0  0  0
   -6.3644   -2.4829   -0.7614 N   0  0  0  0  0  0  0  0  0  0  0  0
   10.9439    0.3189   -1.3547 H   0  0  0  0  0  0  0  0  0  0  0  0
    9.9783    1.6210   -2.2111 H   0  0  0  0  0  0  0  0  0  0  0  0
   11.0520    2.0304   -0.8465 H   0  0  0  0  0  0  0  0  0  0  0  0
    8.0234   -0.5839   -1.0175 H   0  0  0  0  0  0  0  0  0  0  0  0
    5.9629   -0.0909    2.3445 H   0  0  0  0  0  0  0  0  0  0  0  0
    3.1850   -2.0630    2.0337 H   0  0  0  0  0  0  0  0  0  0  0  0
    0.8683   -1.5761    1.6557 H   0  0  0  0  0  0  0  0  0  0  0  0
    1.8596    0.2870   -2.0371 H   0  0  0  0  0  0  0  0  0  0  0  0
    4.2695   -0.2173   -1.6449 H   0  0  0  0  0  0  0  0  0  0  0  0
   -0.6081   -0.8531   -1.2758 H   0  0  0  0  0  0  0  0  0  0  0  0
   -2.4420   -1.8780    0.0626 H   0  0  0  0  0  0  0  0  0  0  0  0
   -1.5880    2.6344    0.7258 H   0  0  0  0  0  0  0  0  0  0  0  0
   -3.7852    5.7618    0.8959 H   0  0  0  0  0  0  0  0  0  0  0  0
   -2.2825    5.3674   -0.0706 H   0  0  0  0  0  0  0  0  0  0  0  0
   -2.3864    5.0700    1.7320 H   0  0  0  0  0  0  0  0  0  0  0  0
   -5.4558    4.4048    0.1937 H   0  0  0  0  0  0  0  0  0  0  0  0
   -6.9793    1.6709   -1.3392 H   0  0  0  0  0  0  0  0  0  0  0  0
   -7.3170    1.5141    0.4263 H   0  0  0  0  0  0  0  0  0  0  0  0
   -7.3550    3.1492   -0.4175 H   0  0  0  0  0  0  0  0  0  0  0  0
   -3.2956   -3.6404   -0.2327 H   0  0  0  0  0  0  0  0  0  0  0  0
   -4.4121   -5.7529   -0.6110 H   0  0  0  0  0  0  0  0  0  0  0  0
   -6.8264   -5.7873   -1.0930 H   0  0  0  0  0  0  0  0  0  0  0  0
   -8.0476   -3.6044   -1.1782 H   0  0  0  0  0  0  0  0  0  0  0  0
  1  2  1  0
  2  3  1  0
  3  4  1  0
  4  5  2  0
  5  6  1  0
  5  7  1  0
  7  8  1  0
  8  9  2  0
  8 10  2  0
  8 11  1  0
 11 12  2  0
 12 13  1  0
 13 14  2  0
 14 15  1  0
 15 16  2  0
 14 17  1  0
 17 18  1  0
 18 19  2  0
 18 20  1  0
 20 21  2  0
 21 22  1  0
 22 23  2  0
 23 24  1  0
 24 25  2  0
 25 26  1  0
 26 27  2  0
 27 28  1  0
 27 29  1  0
 29 30  2  0
 30 31  1  0
 22 32  1  0
 32 33  2  0
 33 34  1  0
 34 35  2  0
 35 36  1  0
 36 37  2  0
  6  2  2  0
 16 11  1  0
 25 20  1  0
 37 32  1  0
 30 24  1  0
  1 38  1  0
  1 39  1  0
  1 40  1  0
  6 41  1  0
  7 42  1  0
 12 43  1  0
 13 44  1  0
 15 45  1  0
 16 46  1  0
 17 47  1  0
 21 48  1  0
 26 49  1  0
 28 50  1  0
 28 51  1  0
 28 52  1  0
 29 53  1  0
 31 54  1  0
 31 55  1  0
 31 56  1  0
 33 57  1  0
 34 58  1  0
 35 59  1  0
 36 60  1  0
M  END
>  <Ligand ID>  (1) 
LIG0003740

>  <Ligand>  (1) 
SMR000200744

>  <SMILES>  (1) 
Cc1onc(c1)NS(=O)(=O)c1ccc(cc1)NC(=O)c1cc(nc2c1cc(C)cc2C)c1ccccn1

>  <CID>  (1) 
1261872.0

>  <ChEMBL ID>  (1) 
nan

>  <InChiKey>  (1) 
NYYDIRAMLLWGJX-UHFFFAOYSA-N

>  <InChi>  (1) 
InChI=1S/C27H23N5O4S/c1-16-12-17(2)26-21(13-16)22(15-24(30-26)23-6-4-5-11-28-23)27(33)29-19-7-9-20(10-8-19)37(34,35)32-25-14-18(3)36-31-25/h4-15H,1-3H3,(H,29,33)(H,31,32)

>  <IUPAC Name>  (1) 
6,8-dimethyl-N-[4-[(5-methyl-1,2-oxazol-3-yl)sulfamoyl]phenyl]-2-pyridin-2-ylquinoline-4-carboxamide

$$$$
