
     RDKit          3D

 69 72  0  0  0  0  0  0  0  0999 V2000
   -5.4280    2.8387    2.2765 C   0  0  0  0  0  0  0  0  0  0  0  0
   -5.3914    2.4166    0.8944 N   0  0  0  0  0  0  0  0  0  0  0  0
   -4.5439    1.2304    0.7942 C   0  0  0  0  0  0  0  0  0  0  0  0
   -3.0909    1.5143    1.0560 C   0  0  0  0  0  0  0  0  0  0  0  0
   -2.3382    0.1966    0.9614 C   0  0  0  0  0  0  0  0  0  0  0  0
   -2.4504   -0.4573   -0.3087 N   0  0  0  0  0  0  0  0  0  0  0  0
   -1.5465   -0.2228   -1.3918 C   0  0  0  0  0  0  0  0  0  0  0  0
   -1.8407   -0.4468   -2.5945 O   0  0  0  0  0  0  0  0  0  0  0  0
   -0.2223    0.2756   -1.0721 C   0  0  0  0  0  0  0  0  0  0  0  0
    0.2588    1.5397   -1.2866 C   0  0  0  0  0  0  0  0  0  0  0  0
    1.5983    1.8230   -0.9368 C   0  0  0  0  0  0  0  0  0  0  0  0
    2.4054    0.8525   -0.3914 C   0  0  0  0  0  0  0  0  0  0  0  0
    1.8976   -0.4264   -0.1786 C   0  0  0  0  0  0  0  0  0  0  0  0
    0.6124   -0.7367   -0.5037 C   0  0  0  0  0  0  0  0  0  0  0  0
    4.0734    1.0690    0.0752 S   0  0  0  0  0  0  0  0  0  0  0  0
    4.5196   -0.0103    1.0168 O   0  0  0  0  0  0  0  0  0  0  0  0
    4.1993    2.3633    0.8440 O   0  0  0  0  0  0  0  0  0  0  0  0
    5.0045    1.1118   -1.3719 N   0  0  0  0  0  0  0  0  0  0  0  0
    5.6836    2.3955   -1.4090 C   0  0  0  0  0  0  0  0  0  0  0  0
    6.7246    2.4623   -0.2985 C   0  0  0  0  0  0  0  0  0  0  0  0
    6.9952    1.1687    0.3545 C   0  0  0  0  0  0  0  0  0  0  0  0
    6.6463   -0.0702   -0.1808 C   0  0  0  0  0  0  0  0  0  0  0  0
    5.9101    0.0144   -1.4926 C   0  0  0  0  0  0  0  0  0  0  0  0
    6.9127   -1.2674    0.4211 C   0  0  0  0  0  0  0  0  0  0  0  0
    7.5703   -1.2712    1.6423 C   0  0  0  0  0  0  0  0  0  0  0  0
    7.9144   -0.0753    2.1788 C   0  0  0  0  0  0  0  0  0  0  0  0
    7.6563    1.1657    1.5861 C   0  0  0  0  0  0  0  0  0  0  0  0
   -3.5011   -1.4013   -0.5997 C   0  0  0  0  0  0  0  0  0  0  0  0
   -2.7653   -3.1348   -0.1760 S   0  0  0  0  0  0  0  0  0  0  0  0
   -4.2407   -3.9738   -0.6252 C   0  0  0  0  0  0  0  0  0  0  0  0
   -5.0751   -2.9557   -1.0183 C   0  0  0  0  0  0  0  0  0  0  0  0
   -4.5597   -1.7602   -0.9445 N   0  0  0  0  0  0  0  0  0  0  0  0
   -6.3618   -3.3363   -1.4487 C   0  0  0  0  0  0  0  0  0  0  0  0
   -7.2814   -2.4400   -1.8484 F   0  0  0  0  0  0  0  0  0  0  0  0
   -6.6846   -4.6570   -1.4491 C   0  0  0  0  0  0  0  0  0  0  0  0
   -5.8388   -5.6902   -1.0512 C   0  0  0  0  0  0  0  0  0  0  0  0
   -4.5918   -5.3181   -0.6325 C   0  0  0  0  0  0  0  0  0  0  0  0
   -6.2694   -6.9536   -1.0970 F   0  0  0  0  0  0  0  0  0  0  0  0
   -6.7172    2.0832    0.3759 C   0  0  0  0  0  0  0  0  0  0  0  0
    0.6869    0.0000    0.0000 Cl  0  0  0  0  0  0  0  0  0  0  0  0
   -4.7987    3.7463    2.3526 H   0  0  0  0  0  0  0  0  0  0  0  0
   -5.0014    2.0982    2.9638 H   0  0  0  0  0  0  0  0  0  0  0  0
   -6.4884    3.0484    2.5949 H   0  0  0  0  0  0  0  0  0  0  0  0
   -4.6520    0.7818   -0.2251 H   0  0  0  0  0  0  0  0  0  0  0  0
   -4.8945    0.4790    1.5189 H   0  0  0  0  0  0  0  0  0  0  0  0
   -2.6701    2.2885    0.4139 H   0  0  0  0  0  0  0  0  0  0  0  0
   -3.0379    1.9227    2.0940 H   0  0  0  0  0  0  0  0  0  0  0  0
   -1.3004    0.4331    1.2428 H   0  0  0  0  0  0  0  0  0  0  0  0
   -2.6995   -0.4973    1.7694 H   0  0  0  0  0  0  0  0  0  0  0  0
   -0.3696    2.3216   -1.7271 H   0  0  0  0  0  0  0  0  0  0  0  0
    2.0171    2.8031   -1.0828 H   0  0  0  0  0  0  0  0  0  0  0  0
    2.5217   -1.2265    0.2490 H   0  0  0  0  0  0  0  0  0  0  0  0
    0.2397   -1.7298   -0.3247 H   0  0  0  0  0  0  0  0  0  0  0  0
    4.9463    3.1824   -1.2107 H   0  0  0  0  0  0  0  0  0  0  0  0
    6.1521    2.5416   -2.4047 H   0  0  0  0  0  0  0  0  0  0  0  0
    6.4724    3.1811    0.5039 H   0  0  0  0  0  0  0  0  0  0  0  0
    7.6864    2.8637   -0.7396 H   0  0  0  0  0  0  0  0  0  0  0  0
    6.6619    0.2378   -2.2803 H   0  0  0  0  0  0  0  0  0  0  0  0
    5.3708   -0.9068   -1.7199 H   0  0  0  0  0  0  0  0  0  0  0  0
    6.5999   -2.1764   -0.0865 H   0  0  0  0  0  0  0  0  0  0  0  0
    7.7589   -2.2400    2.0824 H   0  0  0  0  0  0  0  0  0  0  0  0
    8.4306   -0.0982    3.1454 H   0  0  0  0  0  0  0  0  0  0  0  0
    7.9493    2.0995    2.0415 H   0  0  0  0  0  0  0  0  0  0  0  0
   -7.6883   -4.9594   -1.7810 H   0  0  0  0  0  0  0  0  0  0  0  0
   -3.8989   -6.0687   -0.3106 H   0  0  0  0  0  0  0  0  0  0  0  0
   -7.4802    2.5948    0.9741 H   0  0  0  0  0  0  0  0  0  0  0  0
   -6.8904    0.9794    0.4540 H   0  0  0  0  0  0  0  0  0  0  0  0
   -6.7802    2.3841   -0.6773 H   0  0  0  0  0  0  0  0  0  0  0  0
   -0.6869    0.0000    0.0000 H   0  0  0  0  0  0  0  0  0  0  0  0
  1  2  1  0
  2  3  1  0
  3  4  1  0
  4  5  1  0
  5  6  1  0
  6  7  1  0
  7  8  2  0
  7  9  1  0
  9 10  2  0
 10 11  1  0
 11 12  2  0
 12 13  1  0
 13 14  2  0
 12 15  1  0
 15 16  2  0
 15 17  2  0
 15 18  1  0
 18 19  1  0
 19 20  1  0
 20 21  1  0
 21 22  2  0
 22 23  1  0
 22 24  1  0
 24 25  2  0
 25 26  1  0
 26 27  2  0
  6 28  1  0
 28 29  1  0
 29 30  1  0
 30 31  2  0
 31 32  1  0
 31 33  1  0
 33 34  1  0
 33 35  2  0
 35 36  1  0
 36 37  2  0
 36 38  1  0
  2 39  1  0
 14  9  1  0
 23 18  1  0
 32 28  2  0
 27 21  1  0
 37 30  1  0
  1 41  1  0
  1 42  1  0
  1 43  1  0
  3 44  1  0
  3 45  1  0
  4 46  1  0
  4 47  1  0
  5 48  1  0
  5 49  1  0
 10 50  1  0
 11 51  1  0
 13 52  1  0
 14 53  1  0
 19 54  1  0
 19 55  1  0
 20 56  1  0
 20 57  1  0
 23 58  1  0
 23 59  1  0
 24 60  1  0
 25 61  1  0
 26 62  1  0
 27 63  1  0
 35 64  1  0
 37 65  1  0
 39 66  1  0
 39 67  1  0
 39 68  1  0
 40 69  1  0
M  END
>  <Ligand ID>  (1) 
LIG0004542

>  <Ligand>  (1) 
MLS001239250

>  <SMILES>  (1) 
CN(CCCN(C(=O)c1ccc(cc1)S(=O)(=O)N1CCc2c(C1)cccc2)c1sc2c(n1)c(F)cc(c2)F)C.Cl

>  <CID>  (1) 
24891919.0

>  <ChEMBL ID>  (1) 
nan

>  <InChiKey>  (1) 
VCKWLVWQFZHSAE-UHFFFAOYSA-N

>  <InChi>  (1) 
InChI=1S/C28H28F2N4O3S2.ClH/c1-32(2)13-5-14-34(28-31-26-24(30)16-22(29)17-25(26)38-28)27(35)20-8-10-23(11-9-20)39(36,37)33-15-12-19-6-3-4-7-21(19)18-33;/h3-4,6-11,16-17H,5,12-15,18H2,1-2H3;1H

>  <IUPAC Name>  (1) 
N-(4,6-difluoro-1,3-benzothiazol-2-yl)-4-(3,4-dihydro-1H-isoquinolin-2-ylsulfonyl)-N-[3-(dimethylamino)propyl]benzamide;hydrochloride

$$$$
