
     RDKit          3D

 63 66  0  0  0  0  0  0  0  0999 V2000
   -7.4096    1.8627    2.5685 C   0  0  0  0  0  0  0  0  0  0  0  0
   -6.5549    1.3995    1.5217 O   0  0  0  0  0  0  0  0  0  0  0  0
   -6.6841    0.0746    1.1507 C   0  0  0  0  0  0  0  0  0  0  0  0
   -7.5839   -0.7857    1.7416 C   0  0  0  0  0  0  0  0  0  0  0  0
   -7.7253   -2.1091    1.3835 C   0  0  0  0  0  0  0  0  0  0  0  0
   -6.9094   -2.5897    0.3699 C   0  0  0  0  0  0  0  0  0  0  0  0
   -5.9932   -1.7604   -0.2491 C   0  0  0  0  0  0  0  0  0  0  0  0
   -5.8924   -0.4426    0.1477 C   0  0  0  0  0  0  0  0  0  0  0  0
   -4.8773    0.3852   -0.5768 C   0  0  0  0  0  0  0  0  0  0  0  0
   -3.7484    0.5529    0.3125 N   0  0  0  0  0  0  0  0  0  0  0  0
   -2.7039    1.3305   -0.3165 C   0  0  0  0  0  0  0  0  0  0  0  0
   -1.5445    1.4876    0.6173 C   0  0  0  0  0  0  0  0  0  0  0  0
   -1.4161    2.5303    1.4881 C   0  0  0  0  0  0  0  0  0  0  0  0
   -0.2968    2.5694    2.3053 C   0  0  0  0  0  0  0  0  0  0  0  0
    0.6692    1.5792    2.2443 C   0  0  0  0  0  0  0  0  0  0  0  0
    0.5425    0.5227    1.3645 C   0  0  0  0  0  0  0  0  0  0  0  0
   -0.5811    0.4756    0.5380 C   0  0  0  0  0  0  0  0  0  0  0  0
    1.5156   -0.5672    1.2341 C   0  0  0  0  0  0  0  0  0  0  0  0
    2.5948   -0.2941    0.1858 C   0  0  0  0  0  0  0  0  0  0  0  0
    2.0655   -0.1002   -1.1014 N   0  0  0  0  0  0  0  0  0  0  0  0
    2.8583    0.1825   -2.2119 C   0  0  0  0  0  0  0  0  0  0  0  0
    3.7479   -0.8305   -2.8138 C   0  0  1  0  0  0  0  0  0  0  0  0
    4.8854   -1.1762   -1.9527 C   0  0  0  0  0  0  0  0  0  0  0  0
    5.0204   -2.4521   -1.3712 C   0  0  0  0  0  0  0  0  0  0  0  0
    6.1561   -2.6332   -0.6335 C   0  0  0  0  0  0  0  0  0  0  0  0
    7.1290   -1.6890   -0.4348 C   0  0  0  0  0  0  0  0  0  0  0  0
    7.0004   -0.3988   -1.0188 C   0  0  0  0  0  0  0  0  0  0  0  0
    5.8767   -0.2264   -1.7458 C   0  0  0  0  0  0  0  0  0  0  0  0
    5.9379    1.4272   -2.3665 S   0  0  0  0  0  0  0  0  0  0  0  0
    7.5942    1.7405   -1.5198 C   0  0  0  0  0  0  0  0  0  0  0  0
    8.1635    2.8294   -1.6187 O   0  0  0  0  0  0  0  0  0  0  0  0
    7.8529    0.5901   -0.9116 N   0  0  0  0  0  0  0  0  0  0  0  0
    8.2180   -2.0335    0.3398 O   0  0  0  0  0  0  0  0  0  0  0  0
    3.0709   -1.9713   -3.2510 O   0  0  0  0  0  0  0  0  0  0  0  0
   -7.2896    2.9354    2.7255 H   0  0  0  0  0  0  0  0  0  0  0  0
   -7.1378    1.3373    3.4955 H   0  0  0  0  0  0  0  0  0  0  0  0
   -8.4675    1.6900    2.2675 H   0  0  0  0  0  0  0  0  0  0  0  0
   -8.2386   -0.4279    2.5457 H   0  0  0  0  0  0  0  0  0  0  0  0
   -8.4375   -2.7841    1.8522 H   0  0  0  0  0  0  0  0  0  0  0  0
   -6.9623   -3.6242    0.0294 H   0  0  0  0  0  0  0  0  0  0  0  0
   -5.3715   -2.1723   -1.0417 H   0  0  0  0  0  0  0  0  0  0  0  0
   -4.6228   -0.0549   -1.5474 H   0  0  0  0  0  0  0  0  0  0  0  0
   -5.2843    1.4147   -0.7732 H   0  0  0  0  0  0  0  0  0  0  0  0
   -3.3832   -0.3291    0.6952 H   0  0  0  0  0  0  0  0  0  0  0  0
   -3.0686    2.3277   -0.6301 H   0  0  0  0  0  0  0  0  0  0  0  0
   -2.3561    0.8459   -1.2656 H   0  0  0  0  0  0  0  0  0  0  0  0
   -2.1900    3.3004    1.5204 H   0  0  0  0  0  0  0  0  0  0  0  0
   -0.1948    3.4096    3.0056 H   0  0  0  0  0  0  0  0  0  0  0  0
    1.5537    1.6072    2.8866 H   0  0  0  0  0  0  0  0  0  0  0  0
   -0.6956   -0.3458   -0.1588 H   0  0  0  0  0  0  0  0  0  0  0  0
    0.9673   -1.4951    1.0705 H   0  0  0  0  0  0  0  0  0  0  0  0
    2.0567   -0.6957    2.2016 H   0  0  0  0  0  0  0  0  0  0  0  0
    3.3427   -1.0922    0.3176 H   0  0  0  0  0  0  0  0  0  0  0  0
    3.1176    0.6255    0.6004 H   0  0  0  0  0  0  0  0  0  0  0  0
    1.3121    0.6318   -1.0351 H   0  0  0  0  0  0  0  0  0  0  0  0
    2.1710    0.5150   -3.0730 H   0  0  0  0  0  0  0  0  0  0  0  0
    3.4278    1.1692   -2.0452 H   0  0  0  0  0  0  0  0  0  0  0  0
    4.2223   -0.4373   -3.7821 H   0  0  0  0  0  0  0  0  0  0  0  0
    4.2670   -3.1802   -1.5265 H   0  0  0  0  0  0  0  0  0  0  0  0
    6.2859   -3.6124   -0.1713 H   0  0  0  0  0  0  0  0  0  0  0  0
    8.7775    0.5273   -0.3443 H   0  0  0  0  0  0  0  0  0  0  0  0
    9.1192   -2.2497   -0.1157 H   0  0  0  0  0  0  0  0  0  0  0  0
    2.1012   -1.8229   -3.1228 H   0  0  0  0  0  0  0  0  0  0  0  0
  1  2  1  0
  2  3  1  0
  3  4  2  0
  4  5  1  0
  5  6  2  0
  6  7  1  0
  7  8  2  0
  8  9  1  0
  9 10  1  0
 10 11  1  0
 11 12  1  0
 12 13  2  0
 13 14  1  0
 14 15  2  0
 15 16  1  0
 16 17  2  0
 16 18  1  0
 18 19  1  0
 19 20  1  0
 20 21  1  0
 21 22  1  0
 22 23  1  0
 23 24  2  0
 24 25  1  0
 25 26  2  0
 26 27  1  0
 27 28  2  0
 28 29  1  0
 29 30  1  0
 30 31  2  0
 30 32  1  0
 26 33  1  0
 22 34  1  0
  8  3  1  0
 17 12  1  0
 28 23  1  0
 32 27  1  0
  1 35  1  0
  1 36  1  0
  1 37  1  0
  4 38  1  0
  5 39  1  0
  6 40  1  0
  7 41  1  0
  9 42  1  0
  9 43  1  0
 10 44  1  0
 11 45  1  0
 11 46  1  0
 13 47  1  0
 14 48  1  0
 15 49  1  0
 17 50  1  0
 18 51  1  0
 18 52  1  0
 19 53  1  0
 19 54  1  0
 20 55  1  0
 21 56  1  0
 21 57  1  0
 22 58  1  6
 24 59  1  0
 25 60  1  0
 32 61  1  0
 33 62  1  0
 34 63  1  0
M  END
>  <Ligand ID>  (1) 
LIG0000995

>  <Ligand>  (1) 
CHEMBL1945039

>  <SMILES>  (1) 
COc1ccccc1CNCc1cccc(c1)CCNC[C@@H](c1ccc(c2c1sc(=O)[nH]2)O)O

>  <CID>  (1) 
24900689.0

>  <ChEMBL ID>  (1) 
nan

>  <InChiKey>  (1) 
VKCKAMBPNXKGHL-QFIPXVFZSA-N

>  <InChi>  (1) 
InChI=1S/C26H29N3O4S/c1-33-23-8-3-2-7-19(23)15-28-14-18-6-4-5-17(13-18)11-12-27-16-22(31)20-9-10-21(30)24-25(20)34-26(32)29-24/h2-10,13,22,27-28,30-31H,11-12,14-16H2,1H3,(H,29,32)/t22-/m0/s1

>  <IUPAC Name>  (1) 
4-hydroxy-7-[(1R)-1-hydroxy-2-[2-[3-[[(2-methoxyphenyl)methylamino]methyl]phenyl]ethylamino]ethyl]-3H-1,3-benzothiazol-2-one

$$$$
