
     RDKit          3D

 58 61  0  0  0  0  0  0  0  0999 V2000
   -8.7569   -0.2592    2.2471 Cl  0  0  0  0  0  0  0  0  0  0  0  0
   -7.0907    0.2200    1.9415 C   0  0  0  0  0  0  0  0  0  0  0  0
   -6.7460    1.5603    1.8752 C   0  0  0  0  0  0  0  0  0  0  0  0
   -5.4203    1.8666    1.6316 C   0  0  0  0  0  0  0  0  0  0  0  0
   -4.4479    0.8798    1.4562 C   0  0  0  0  0  0  0  0  0  0  0  0
   -4.7903   -0.4460    1.5219 C   0  0  0  0  0  0  0  0  0  0  0  0
   -6.1376   -0.7359    1.7687 C   0  0  0  0  0  0  0  0  0  0  0  0
   -3.8937   -1.5821    1.3522 C   0  0  2  0  0  0  0  0  0  0  0  0
   -2.5868   -1.3223    0.6870 C   0  0  0  0  0  0  0  0  0  0  0  0
   -2.7283   -0.8085   -0.6263 N   0  0  0  0  0  0  0  0  0  0  0  0
   -1.5431   -0.6604   -1.4060 C   0  0  1  0  0  0  0  0  0  0  0  0
   -1.9205   -0.0180   -2.7332 C   0  0  0  0  0  0  0  0  0  0  0  0
   -0.9263   -0.3685   -3.8160 C   0  0  0  0  0  0  0  0  0  0  0  0
    0.2587    0.5631   -3.7644 C   0  0  0  0  0  0  0  0  0  0  0  0
    1.1705    0.1057   -2.6655 C   0  0  0  0  0  0  0  0  0  0  0  0
    0.8543   -0.0863   -1.3363 C   0  0  0  0  0  0  0  0  0  0  0  0
   -0.4848    0.1103   -0.6890 C   0  0  0  0  0  0  0  0  0  0  0  0
    1.8104   -0.5114   -0.4418 C   0  0  0  0  0  0  0  0  0  0  0  0
    3.0921   -0.7445   -0.8882 C   0  0  0  0  0  0  0  0  0  0  0  0
    3.4253   -0.5587   -2.2103 C   0  0  0  0  0  0  0  0  0  0  0  0
    2.4729   -0.1311   -3.1244 C   0  0  0  0  0  0  0  0  0  0  0  0
    4.0131   -1.1733    0.0747 O   0  0  0  0  0  0  0  0  0  0  0  0
    4.6454   -0.1252    0.7634 C   0  0  0  0  0  0  0  0  0  0  0  0
    4.3199    1.1934    0.5008 C   0  0  0  0  0  0  0  0  0  0  0  0
    4.9485    2.2079    1.1860 C   0  0  0  0  0  0  0  0  0  0  0  0
    5.8968    1.8848    2.1249 C   0  0  0  0  0  0  0  0  0  0  0  0
    6.2289    0.5707    2.3932 C   0  0  0  0  0  0  0  0  0  0  0  0
    5.5955   -0.4223    1.7053 C   0  0  0  0  0  0  0  0  0  0  0  0
    7.2462    0.2832    3.4008 C   0  0  0  0  0  0  0  0  0  0  0  0
    7.8117    1.2108    4.0254 O   0  0  0  0  0  0  0  0  0  0  0  0
    7.5597   -1.0604    3.6378 O   0  0  0  0  0  0  0  0  0  0  0  0
   -4.5872   -2.5231    0.5549 O   0  0  0  0  0  0  0  0  0  0  0  0
   -7.5151    2.3107    2.0151 H   0  0  0  0  0  0  0  0  0  0  0  0
   -5.1655    2.9185    1.5842 H   0  0  0  0  0  0  0  0  0  0  0  0
   -3.4210    1.1496    1.2734 H   0  0  0  0  0  0  0  0  0  0  0  0
   -6.4566   -1.7857    1.8287 H   0  0  0  0  0  0  0  0  0  0  0  0
   -3.7212   -2.0122    2.3813 H   0  0  0  0  0  0  0  0  0  0  0  0
   -2.0222   -2.2722    0.6829 H   0  0  0  0  0  0  0  0  0  0  0  0
   -2.0347   -0.5785    1.3410 H   0  0  0  0  0  0  0  0  0  0  0  0
   -3.4567   -0.0902   -0.7470 H   0  0  0  0  0  0  0  0  0  0  0  0
   -1.1763   -1.7104   -1.6081 H   0  0  0  0  0  0  0  0  0  0  0  0
   -1.9897    1.0631   -2.5933 H   0  0  0  0  0  0  0  0  0  0  0  0
   -2.8982   -0.4221   -3.0316 H   0  0  0  0  0  0  0  0  0  0  0  0
   -1.3798   -0.2885   -4.8178 H   0  0  0  0  0  0  0  0  0  0  0  0
   -0.5420   -1.4053   -3.7271 H   0  0  0  0  0  0  0  0  0  0  0  0
    0.7668    0.4533   -4.7578 H   0  0  0  0  0  0  0  0  0  0  0  0
    0.0050    1.6286   -3.6836 H   0  0  0  0  0  0  0  0  0  0  0  0
   -0.7728    1.1651   -0.6136 H   0  0  0  0  0  0  0  0  0  0  0  0
   -0.3788   -0.2982    0.3320 H   0  0  0  0  0  0  0  0  0  0  0  0
    1.5042   -0.6452    0.5937 H   0  0  0  0  0  0  0  0  0  0  0  0
    4.4554   -0.7567   -2.5262 H   0  0  0  0  0  0  0  0  0  0  0  0
    2.7167    0.0234   -4.1796 H   0  0  0  0  0  0  0  0  0  0  0  0
    3.5712    1.4515   -0.2392 H   0  0  0  0  0  0  0  0  0  0  0  0
    4.6656    3.2159    0.9523 H   0  0  0  0  0  0  0  0  0  0  0  0
    6.3710    2.7252    2.6461 H   0  0  0  0  0  0  0  0  0  0  0  0
    5.8142   -1.4835    1.8769 H   0  0  0  0  0  0  0  0  0  0  0  0
    8.3096   -1.3200    4.2478 H   0  0  0  0  0  0  0  0  0  0  0  0
   -4.5389   -2.1555   -0.3780 H   0  0  0  0  0  0  0  0  0  0  0  0
  1  2  1  0
  2  3  2  0
  3  4  1  0
  4  5  2  0
  5  6  1  0
  6  7  2  0
  6  8  1  0
  8  9  1  0
  9 10  1  0
 10 11  1  0
 11 12  1  0
 12 13  1  0
 13 14  1  0
 14 15  1  0
 15 16  2  0
 16 17  1  0
 16 18  1  0
 18 19  2  0
 19 20  1  0
 20 21  2  0
 19 22  1  0
 22 23  1  0
 23 24  2  0
 24 25  1  0
 25 26  2  0
 26 27  1  0
 27 28  2  0
 27 29  1  0
 29 30  2  0
 29 31  1  0
  8 32  1  0
  7  2  1  0
 17 11  1  0
 28 23  1  0
 21 15  1  0
  3 33  1  0
  4 34  1  0
  5 35  1  0
  7 36  1  0
  8 37  1  1
  9 38  1  0
  9 39  1  0
 10 40  1  0
 11 41  1  6
 12 42  1  0
 12 43  1  0
 13 44  1  0
 13 45  1  0
 14 46  1  0
 14 47  1  0
 17 48  1  0
 17 49  1  0
 18 50  1  0
 20 51  1  0
 21 52  1  0
 24 53  1  0
 25 54  1  0
 26 55  1  0
 28 56  1  0
 31 57  1  0
 32 58  1  0
M  END
>  <Ligand ID>  (1) 
LIG0002892

>  <Ligand>  (1) 
CHEMBL498531

>  <SMILES>  (1) 
Clc1cccc(c1)[C@H](CN[C@H]1CCCc2c(C1)cc(cc2)Oc1cccc(c1)C(=O)O)O

>  <CID>  (1) 
24949889.0

>  <ChEMBL ID>  (1) 
nan

>  <InChiKey>  (1) 
OYBYKWZIDBDHAI-DHLKQENFSA-N

>  <InChi>  (1) 
InChI=1S/C26H26ClNO4/c27-21-7-1-5-18(12-21)25(29)16-28-22-8-2-4-17-10-11-24(15-20(17)13-22)32-23-9-3-6-19(14-23)26(30)31/h1,3,5-7,9-12,14-15,22,25,28-29H,2,4,8,13,16H2,(H,30,31)/t22-,25-/m0/s1

>  <IUPAC Name>  (1) 
3-[[(6S)-6-[[(2R)-2-(3-chlorophenyl)-2-hydroxyethyl]amino]-6,7,8,9-tetrahydro-5H-benzo[7]annulen-3-yl]oxy]benzoic acid

$$$$
