
     RDKit          3D

 28 29  0  0  0  0  0  0  0  0999 V2000
    4.2767    0.6616    0.3103 C   0  0  0  0  0  0  0  0  0  0  0  0
    3.6084   -0.5507    0.0049 O   0  0  0  0  0  0  0  0  0  0  0  0
    2.2320   -0.6520    0.0351 C   0  0  0  0  0  0  0  0  0  0  0  0
    1.3872    0.3869    0.3565 C   0  0  0  0  0  0  0  0  0  0  0  0
   -0.0020    0.2270    0.3711 C   0  0  0  0  0  0  0  0  0  0  0  0
   -0.6204    1.5019    0.7479 C   0  0  0  0  0  0  0  0  0  0  0  0
   -1.9716    1.7527    0.1651 C   0  0  0  0  0  0  0  0  0  0  0  0
   -2.8591    0.7730    0.7907 N   0  0  0  0  0  0  0  0  0  0  0  0
   -3.0194   -0.3527   -0.0846 C   0  0  0  0  0  0  0  0  0  0  0  0
   -1.9799   -1.4020    0.0062 C   0  0  0  0  0  0  0  0  0  0  0  0
   -0.5846   -0.9621    0.0685 C   0  0  0  0  0  0  0  0  0  0  0  0
    0.2508   -2.0245   -0.2591 C   0  0  0  0  0  0  0  0  0  0  0  0
    1.6256   -1.8666   -0.2736 C   0  0  0  0  0  0  0  0  0  0  0  0
    2.7035   -3.3705   -0.7328 Br  0  0  0  0  0  0  0  0  0  0  0  0
    4.3324    0.7840    1.4109 H   0  0  0  0  0  0  0  0  0  0  0  0
    3.7093    1.5188   -0.1330 H   0  0  0  0  0  0  0  0  0  0  0  0
    5.3193    0.6380   -0.0661 H   0  0  0  0  0  0  0  0  0  0  0  0
    1.8137    1.3522    0.6042 H   0  0  0  0  0  0  0  0  0  0  0  0
    0.0551    2.3484    0.4463 H   0  0  0  0  0  0  0  0  0  0  0  0
   -0.6382    1.5566    1.8556 H   0  0  0  0  0  0  0  0  0  0  0  0
   -2.2641    2.7798    0.4414 H   0  0  0  0  0  0  0  0  0  0  0  0
   -1.9749    1.5935   -0.9117 H   0  0  0  0  0  0  0  0  0  0  0  0
   -3.7885    1.2482    0.8731 H   0  0  0  0  0  0  0  0  0  0  0  0
   -3.9915   -0.8336    0.2167 H   0  0  0  0  0  0  0  0  0  0  0  0
   -3.1630    0.0283   -1.1120 H   0  0  0  0  0  0  0  0  0  0  0  0
   -2.0600   -2.0249   -0.9317 H   0  0  0  0  0  0  0  0  0  0  0  0
   -2.2044   -2.1171    0.8341 H   0  0  0  0  0  0  0  0  0  0  0  0
   -0.1924   -2.9942   -0.5072 H   0  0  0  0  0  0  0  0  0  0  0  0
  1  2  1  0
  2  3  1  0
  3  4  2  0
  4  5  1  0
  5  6  1  0
  6  7  1  0
  7  8  1  0
  8  9  1  0
  9 10  1  0
 10 11  1  0
 11 12  1  0
 12 13  2  0
 13 14  1  0
 13  3  1  0
 11  5  2  0
  1 15  1  0
  1 16  1  0
  1 17  1  0
  4 18  1  0
  6 19  1  0
  6 20  1  0
  7 21  1  0
  7 22  1  0
  8 23  1  0
  9 24  1  0
  9 25  1  0
 10 26  1  0
 10 27  1  0
 12 28  1  0
M  END
>  <Ligand ID>  (1) 
LIG0004757

>  <Ligand>  (1) 
CHEMBL180166

>  <SMILES>  (1) 
COc1cc2CCNCCc2cc1Br

>  <CID>  (1) 
22368315.0

>  <ChEMBL ID>  (1) 
nan

>  <InChiKey>  (1) 
GDBBQVJRKVPDDA-UHFFFAOYSA-N

>  <InChi>  (1) 
InChI=1S/C11H14BrNO/c1-14-11-7-9-3-5-13-4-2-8(9)6-10(11)12/h6-7,13H,2-5H2,1H3

>  <IUPAC Name>  (1) 
7-bromo-8-methoxy-2,3,4,5-tetrahydro-1H-3-benzazepine

$$$$
