
     RDKit          3D

 34 35  0  0  0  0  0  0  0  0999 V2000
   -1.6808   -1.3546    1.9982 C   0  0  0  0  0  0  0  0  0  0  0  0
   -1.3384   -0.9310    0.5842 C   0  0  0  0  0  0  0  0  0  0  0  0
   -2.4242   -0.0032    0.1203 C   0  0  0  0  0  0  0  0  0  0  0  0
   -3.4639    0.3830    0.7697 N   0  0  0  0  0  0  0  0  0  0  0  0
   -4.3002    1.2741    0.0280 C   0  0  0  0  0  0  0  0  0  0  0  0
   -3.8363    1.0530   -1.4050 C   0  0  0  0  0  0  0  0  0  0  0  0
   -2.4707    0.6168   -1.1633 N   0  0  0  0  0  0  0  0  0  0  0  0
   -0.0911   -0.3109    0.5842 O   0  0  0  0  0  0  0  0  0  0  0  0
    0.9774   -0.7948   -0.1039 C   0  0  0  0  0  0  0  0  0  0  0  0
    1.0291   -1.9187   -0.8835 C   0  0  0  0  0  0  0  0  0  0  0  0
    2.1945   -2.3196   -1.5480 C   0  0  0  0  0  0  0  0  0  0  0  0
    3.3565   -1.5909   -1.4455 C   0  0  0  0  0  0  0  0  0  0  0  0
    3.3178   -0.4571   -0.6637 C   0  0  0  0  0  0  0  0  0  0  0  0
    2.1720   -0.0632   -0.0104 C   0  0  0  0  0  0  0  0  0  0  0  0
    2.2197    1.3973    0.9637 S   0  0  0  0  0  0  0  0  0  0  0  0
    1.2689    2.4320    0.4101 O   0  0  0  0  0  0  0  0  0  0  0  0
    1.7923    1.1587    2.3755 O   0  0  0  0  0  0  0  0  0  0  0  0
    3.8417    2.1206    0.9083 C   0  0  0  0  0  0  0  0  0  0  0  0
   -2.6738   -1.8744    1.9463 H   0  0  0  0  0  0  0  0  0  0  0  0
   -1.6789   -0.4965    2.6743 H   0  0  0  0  0  0  0  0  0  0  0  0
   -0.9513   -2.1003    2.3476 H   0  0  0  0  0  0  0  0  0  0  0  0
   -1.3339   -1.8274   -0.0253 H   0  0  0  0  0  0  0  0  0  0  0  0
   -5.3757    1.0031    0.0886 H   0  0  0  0  0  0  0  0  0  0  0  0
   -4.1473    2.3466    0.2433 H   0  0  0  0  0  0  0  0  0  0  0  0
   -3.7890    2.0064   -1.9667 H   0  0  0  0  0  0  0  0  0  0  0  0
   -4.4411    0.3042   -1.9463 H   0  0  0  0  0  0  0  0  0  0  0  0
   -1.6898    0.7509   -1.8333 H   0  0  0  0  0  0  0  0  0  0  0  0
    0.1802   -2.5466   -1.0232 H   0  0  0  0  0  0  0  0  0  0  0  0
    2.2047   -3.2157   -2.1591 H   0  0  0  0  0  0  0  0  0  0  0  0
    4.2531   -1.8804   -1.9440 H   0  0  0  0  0  0  0  0  0  0  0  0
    4.2468    0.1057   -0.5952 H   0  0  0  0  0  0  0  0  0  0  0  0
    4.5983    1.3035    1.0174 H   0  0  0  0  0  0  0  0  0  0  0  0
    4.0116    2.6154   -0.0801 H   0  0  0  0  0  0  0  0  0  0  0  0
    4.0217    2.8140    1.7368 H   0  0  0  0  0  0  0  0  0  0  0  0
  1  2  1  0
  2  3  1  0
  3  4  2  0
  4  5  1  0
  5  6  1  0
  6  7  1  0
  2  8  1  0
  8  9  1  0
  9 10  2  0
 10 11  1  0
 11 12  2  0
 12 13  1  0
 13 14  2  0
 14 15  1  0
 15 16  2  0
 15 17  2  0
 15 18  1  0
  7  3  1  0
 14  9  1  0
  1 19  1  0
  1 20  1  0
  1 21  1  0
  2 22  1  0
  5 23  1  0
  5 24  1  0
  6 25  1  0
  6 26  1  0
  7 27  1  0
 10 28  1  0
 11 29  1  0
 12 30  1  0
 13 31  1  0
 18 32  1  0
 18 33  1  0
 18 34  1  0
M  END
>  <Ligand ID>  (1) 
LIG0003521

>  <Ligand>  (1) 
CHEMBL1956200

>  <SMILES>  (1) 
CC(C1=NCCN1)Oc1ccccc1S(=O)(=O)C

>  <CID>  (1) 
57400959.0

>  <ChEMBL ID>  (1) 
nan

>  <InChiKey>  (1) 
BUVSDNNKXQXCRO-UHFFFAOYSA-N

>  <InChi>  (1) 
InChI=1S/C12H16N2O3S/c1-9(12-13-7-8-14-12)17-10-5-3-4-6-11(10)18(2,15)16/h3-6,9H,7-8H2,1-2H3,(H,13,14)

>  <IUPAC Name>  (1) 
2-[1-(2-methylsulfonylphenoxy)ethyl]-4,5-dihydro-1H-imidazole

$$$$
