
     RDKit          3D

 25 25  0  0  0  0  0  0  0  0999 V2000
    4.2436    0.4783    0.1671 C   0  0  0  0  0  0  0  0  0  0  0  0
    3.7093   -0.6436   -0.2525 C   0  0  0  0  0  0  0  0  0  0  0  0
    2.7360   -1.4532    0.5681 C   0  0  0  0  0  0  0  0  0  0  0  0
    1.5414   -1.5229   -0.1807 O   0  0  0  0  0  0  0  0  0  0  0  0
    0.8064   -0.4224   -0.5476 C   0  0  0  0  0  0  0  0  0  0  0  0
    1.2311    0.7165   -0.1890 O   0  0  0  0  0  0  0  0  0  0  0  0
   -0.4448   -0.4404   -1.3314 C   0  0  0  0  0  0  0  0  0  0  0  0
   -1.5947    0.0944   -0.5791 C   0  0  0  0  0  0  0  0  0  0  0  0
   -2.4795   -0.8002    0.0420 C   0  0  0  0  0  0  0  0  0  0  0  0
   -3.5533   -0.2944    0.7670 C   0  0  0  0  0  0  0  0  0  0  0  0
   -3.7758    1.0716    0.8932 C   0  0  0  0  0  0  0  0  0  0  0  0
   -2.8818    1.9473    0.2656 C   0  0  0  0  0  0  0  0  0  0  0  0
   -1.8080    1.4715   -0.4593 C   0  0  0  0  0  0  0  0  0  0  0  0
    4.9438    0.9918   -0.5102 H   0  0  0  0  0  0  0  0  0  0  0  0
    4.0126    0.8848    1.1293 H   0  0  0  0  0  0  0  0  0  0  0  0
    3.9376   -1.0689   -1.2308 H   0  0  0  0  0  0  0  0  0  0  0  0
    2.6338   -0.9741    1.5476 H   0  0  0  0  0  0  0  0  0  0  0  0
    3.1727   -2.4606    0.6984 H   0  0  0  0  0  0  0  0  0  0  0  0
   -0.3586    0.1069   -2.3083 H   0  0  0  0  0  0  0  0  0  0  0  0
   -0.6967   -1.4954   -1.6263 H   0  0  0  0  0  0  0  0  0  0  0  0
   -2.2993   -1.8632   -0.0593 H   0  0  0  0  0  0  0  0  0  0  0  0
   -4.2426   -1.0078    1.2464 H   0  0  0  0  0  0  0  0  0  0  0  0
   -4.6174    1.4752    1.4600 H   0  0  0  0  0  0  0  0  0  0  0  0
   -3.0708    3.0189    0.3777 H   0  0  0  0  0  0  0  0  0  0  0  0
   -1.1450    2.1897   -0.9214 H   0  0  0  0  0  0  0  0  0  0  0  0
  1  2  2  0
  2  3  1  0
  3  4  1  0
  4  5  1  0
  5  6  2  0
  5  7  1  0
  7  8  1  0
  8  9  2  0
  9 10  1  0
 10 11  2  0
 11 12  1  0
 12 13  2  0
 13  8  1  0
  1 14  1  0
  1 15  1  0
  2 16  1  0
  3 17  1  0
  3 18  1  0
  7 19  1  0
  7 20  1  0
  9 21  1  0
 10 22  1  0
 11 23  1  0
 12 24  1  0
 13 25  1  0
M  END
>  <Ligand ID>  (1) 
LIG0000001

>  <Ligand>  (1) 
Allyl Phenyl acetate

>  <SMILES>  (1) 
C=CCOC(=O)Cc1ccccc1

>  <CID>  (1) 
15717.0

>  <ChEMBL ID>  (1) 
nan

>  <InChiKey>  (1) 
ZCDYAMJXVAUTIM-UHFFFAOYSA-N

>  <InChi>  (1) 
InChI=1S/C11H12O2/c1-2-8-13-11(12)9-10-6-4-3-5-7-10/h2-7H,1,8-9H2

>  <IUPAC Name>  (1) 
prop-2-enyl 2-phenylacetate

$$$$
