
     RDKit          3D

 94 98  0  0  0  0  0  0  0  0999 V2000
    1.9460    6.2615    1.9809 N   0  0  0  0  0  0  0  0  0  0  0  0
    2.0559    6.0155    3.3826 C   0  0  0  0  0  0  0  0  0  0  0  0
    2.0856    4.8321    3.8886 N   0  0  0  0  0  0  0  0  0  0  0  0
    2.0062    3.6229    3.0125 C   0  0  0  0  0  0  0  0  0  0  0  0
    0.5879    3.2588    2.8296 C   0  0  0  0  0  0  0  0  0  0  0  0
    0.2508    2.0403    2.0829 C   0  0  0  0  0  0  0  0  0  0  0  0
    0.6449    1.7700    0.7162 C   0  0  1  0  0  0  0  0  0  0  0  0
    2.0441    1.5768    0.4040 C   0  0  0  0  0  0  0  0  0  0  0  0
    3.0792    2.0477    0.8996 O   0  0  0  0  0  0  0  0  0  0  0  0
    2.3207    0.6632   -0.7094 N   0  0  0  0  0  0  0  0  0  0  0  0
    3.6597    0.4055   -1.1219 C   0  0  2  0  0  0  0  0  0  0  0  0
    4.0085    1.2949   -2.3141 C   0  0  0  0  0  0  0  0  0  0  0  0
    3.1296    2.1123   -2.7443 O   0  0  0  0  0  0  0  0  0  0  0  0
    5.2881    1.2020   -2.9213 N   0  0  0  0  0  0  0  0  0  0  0  0
    3.9985   -0.9847   -1.5128 C   0  0  0  0  0  0  0  0  0  0  0  0
    3.8048   -2.0054   -0.4614 C   0  0  0  0  0  0  0  0  0  0  0  0
    2.7675   -2.9396   -0.4178 C   0  0  0  0  0  0  0  0  0  0  0  0
    2.9229   -3.7073    0.6626 N   0  0  0  0  0  0  0  0  0  0  0  0
    4.0217   -3.3374    1.3552 C   0  0  0  0  0  0  0  0  0  0  0  0
    4.5672   -2.2737    0.6487 C   0  0  0  0  0  0  0  0  0  0  0  0
    5.7168   -1.6712    1.1210 C   0  0  0  0  0  0  0  0  0  0  0  0
    6.2710   -2.1634    2.2851 C   0  0  0  0  0  0  0  0  0  0  0  0
    5.7161   -3.2193    2.9730 C   0  0  0  0  0  0  0  0  0  0  0  0
    4.5756   -3.8283    2.5177 C   0  0  0  0  0  0  0  0  0  0  0  0
   -0.2049    0.7649    0.0398 N   0  0  0  0  0  0  0  0  0  0  0  0
   -0.8711    1.0208   -1.1635 C   0  0  0  0  0  0  0  0  0  0  0  0
   -0.7685    2.1444   -1.7433 O   0  0  0  0  0  0  0  0  0  0  0  0
   -1.7396    0.0243   -1.8642 C   0  0  1  0  0  0  0  0  0  0  0  0
   -1.0036   -0.4624   -3.1314 C   0  0  0  0  0  0  0  0  0  0  0  0
   -1.4285   -1.8067   -3.5653 C   0  0  0  0  0  0  0  0  0  0  0  0
   -1.7016   -2.1452   -4.8748 C   0  0  0  0  0  0  0  0  0  0  0  0
   -2.0815   -3.4475   -5.1377 C   0  0  0  0  0  0  0  0  0  0  0  0
   -2.1921   -4.3994   -4.1457 C   0  0  0  0  0  0  0  0  0  0  0  0
   -1.9222   -4.0712   -2.8417 C   0  0  0  0  0  0  0  0  0  0  0  0
   -1.5431   -2.7783   -2.5617 C   0  0  0  0  0  0  0  0  0  0  0  0
   -1.2325   -2.2886   -1.1894 C   0  0  0  0  0  0  0  0  0  0  0  0
   -2.1119   -1.0880   -1.0647 N   0  0  0  0  0  0  0  0  0  0  0  0
   -3.1841   -1.2384   -0.1897 C   0  0  0  0  0  0  0  0  0  0  0  0
   -3.2577   -2.4315    0.3461 O   0  0  0  0  0  0  0  0  0  0  0  0
   -4.2235   -0.3245    0.2359 C   0  0  2  0  0  0  0  0  0  0  0  0
   -5.6121   -0.8323   -0.0809 C   0  0  0  0  0  0  0  0  0  0  0  0
   -5.9764   -2.1045    0.5288 C   0  0  0  0  0  0  0  0  0  0  0  0
   -6.5575   -2.2897    1.7270 N   0  0  0  0  0  0  0  0  0  0  0  0
   -6.7373   -3.6124    1.9225 C   0  0  0  0  0  0  0  0  0  0  0  0
   -6.2764   -4.3024    0.8570 N   0  0  0  0  0  0  0  0  0  0  0  0
   -5.8054   -3.3862   -0.0083 C   0  0  0  0  0  0  0  0  0  0  0  0
   -4.1757    1.0286   -0.2099 N   0  0  0  0  0  0  0  0  0  0  0  0
   -3.8256    2.0315    0.7435 C   0  0  0  0  0  0  0  0  0  0  0  0
   -3.5778    1.7228    1.9259 O   0  0  0  0  0  0  0  0  0  0  0  0
   -3.7504    3.4648    0.3387 C   0  0  0  0  0  0  0  0  0  0  0  0
    2.1321    7.1544    4.2295 N   0  0  0  0  0  0  0  0  0  0  0  0
    1.0008    6.4194    1.5563 H   0  0  0  0  0  0  0  0  0  0  0  0
    2.7731    6.2919    1.3420 H   0  0  0  0  0  0  0  0  0  0  0  0
    2.6861    2.9005    3.4310 H   0  0  0  0  0  0  0  0  0  0  0  0
    2.4619    4.0395    2.0585 H   0  0  0  0  0  0  0  0  0  0  0  0
    0.1683    3.1068    3.8813 H   0  0  0  0  0  0  0  0  0  0  0  0
    0.0513    4.1754    2.4058 H   0  0  0  0  0  0  0  0  0  0  0  0
   -0.8875    1.8093    2.2301 H   0  0  0  0  0  0  0  0  0  0  0  0
    0.6415    1.1815    2.7821 H   0  0  0  0  0  0  0  0  0  0  0  0
    0.3026    2.7239    0.0864 H   0  0  0  0  0  0  0  0  0  0  0  0
    1.5379    0.1934   -1.2100 H   0  0  0  0  0  0  0  0  0  0  0  0
    4.3598    0.7689   -0.3451 H   0  0  0  0  0  0  0  0  0  0  0  0
    6.1554    1.5633   -2.4309 H   0  0  0  0  0  0  0  0  0  0  0  0
    5.3999    0.7847   -3.8478 H   0  0  0  0  0  0  0  0  0  0  0  0
    3.4166   -1.3303   -2.4219 H   0  0  0  0  0  0  0  0  0  0  0  0
    5.0704   -1.0497   -1.8798 H   0  0  0  0  0  0  0  0  0  0  0  0
    1.9757   -3.0161   -1.1506 H   0  0  0  0  0  0  0  0  0  0  0  0
    2.2579   -4.4873    0.9098 H   0  0  0  0  0  0  0  0  0  0  0  0
    6.1473   -0.8384    0.5733 H   0  0  0  0  0  0  0  0  0  0  0  0
    7.1703   -1.6655    2.6286 H   0  0  0  0  0  0  0  0  0  0  0  0
    6.1652   -3.5968    3.8923 H   0  0  0  0  0  0  0  0  0  0  0  0
    4.0855   -4.6527    2.9970 H   0  0  0  0  0  0  0  0  0  0  0  0
   -0.2978   -0.1558    0.4940 H   0  0  0  0  0  0  0  0  0  0  0  0
   -2.6367    0.5189   -2.2759 H   0  0  0  0  0  0  0  0  0  0  0  0
   -1.2294    0.2289   -3.9974 H   0  0  0  0  0  0  0  0  0  0  0  0
    0.0917   -0.4161   -3.0131 H   0  0  0  0  0  0  0  0  0  0  0  0
   -1.6168   -1.4034   -5.6413 H   0  0  0  0  0  0  0  0  0  0  0  0
   -2.3030   -3.7388   -6.1651 H   0  0  0  0  0  0  0  0  0  0  0  0
   -2.4967   -5.4313   -4.3720 H   0  0  0  0  0  0  0  0  0  0  0  0
   -1.9958   -4.7883   -2.0243 H   0  0  0  0  0  0  0  0  0  0  0  0
   -1.4533   -3.0259   -0.4001 H   0  0  0  0  0  0  0  0  0  0  0  0
   -0.1874   -1.9999   -1.0797 H   0  0  0  0  0  0  0  0  0  0  0  0
   -4.1590   -0.3075    1.3741 H   0  0  0  0  0  0  0  0  0  0  0  0
   -6.3065   -0.0036    0.2396 H   0  0  0  0  0  0  0  0  0  0  0  0
   -5.7274   -0.8327   -1.2027 H   0  0  0  0  0  0  0  0  0  0  0  0
   -6.8520   -1.5779    2.4369 H   0  0  0  0  0  0  0  0  0  0  0  0
   -7.1812   -4.0993    2.7957 H   0  0  0  0  0  0  0  0  0  0  0  0
   -5.3628   -3.6016   -0.9774 H   0  0  0  0  0  0  0  0  0  0  0  0
   -4.3940    1.3801   -1.1654 H   0  0  0  0  0  0  0  0  0  0  0  0
   -4.0410    3.5617   -0.7253 H   0  0  0  0  0  0  0  0  0  0  0  0
   -2.6697    3.7516    0.4566 H   0  0  0  0  0  0  0  0  0  0  0  0
   -4.3375    4.1392    0.9778 H   0  0  0  0  0  0  0  0  0  0  0  0
    3.0728    7.4393    4.5894 H   0  0  0  0  0  0  0  0  0  0  0  0
    1.3024    7.7202    4.5077 H   0  0  0  0  0  0  0  0  0  0  0  0
  1  2  1  0
  2  3  2  3
  3  4  1  0
  4  5  1  0
  5  6  1  0
  6  7  1  0
  7  8  1  0
  8  9  2  0
  8 10  1  0
 10 11  1  0
 11 12  1  0
 12 13  2  0
 12 14  1  0
 11 15  1  0
 15 16  1  0
 16 17  2  0
 17 18  1  0
 18 19  1  0
 19 20  2  0
 20 21  1  0
 21 22  2  0
 22 23  1  0
 23 24  2  0
  7 25  1  0
 25 26  1  0
 26 27  2  0
 26 28  1  0
 28 29  1  0
 29 30  1  0
 30 31  2  0
 31 32  1  0
 32 33  2  0
 33 34  1  0
 34 35  2  0
 35 36  1  0
 36 37  1  0
 37 38  1  0
 38 39  2  0
 38 40  1  0
 40 41  1  0
 41 42  1  0
 42 43  1  0
 43 44  1  0
 44 45  2  0
 45 46  1  0
 40 47  1  0
 47 48  1  0
 48 49  2  0
 48 50  1  0
  2 51  1  0
 20 16  1  0
 37 28  1  0
 46 42  2  0
 24 19  1  0
 35 30  1  0
  1 52  1  0
  1 53  1  0
  4 54  1  0
  4 55  1  0
  5 56  1  0
  5 57  1  0
  6 58  1  0
  6 59  1  0
  7 60  1  6
 10 61  1  0
 11 62  1  1
 14 63  1  0
 14 64  1  0
 15 65  1  0
 15 66  1  0
 17 67  1  0
 18 68  1  0
 21 69  1  0
 22 70  1  0
 23 71  1  0
 24 72  1  0
 25 73  1  0
 28 74  1  6
 29 75  1  0
 29 76  1  0
 31 77  1  0
 32 78  1  0
 33 79  1  0
 34 80  1  0
 36 81  1  0
 36 82  1  0
 40 83  1  1
 41 84  1  0
 41 85  1  0
 43 86  1  0
 44 87  1  0
 46 88  1  0
 47 89  1  0
 50 90  1  0
 50 91  1  0
 50 92  1  0
 51 93  1  0
 51 94  1  0
M  END
>  <Ligand ID>  (1) 
LIG0001443

>  <Ligand>  (1) 
CHEMBL607103

>  <SMILES>  (1) 
NC(=NCCC[C@@H](C(=O)N[C@H](C(=O)N)Cc1c[nH]c2c1cccc2)NC(=O)[C@H]1Cc2ccccc2CN1C(=O)[C@H](Cc1[nH]cnc1)NC(=O)C)N

>  <CID>  (1) 
11115165.0

>  <ChEMBL ID>  (1) 
nan

>  <InChiKey>  (1) 
DOONUQVQAZPUIE-GCXHJFECSA-N

>  <InChi>  (1) 
InChI=1S/C35H43N11O5/c1-20(47)43-29(15-24-17-39-19-42-24)34(51)46-18-22-8-3-2-7-21(22)14-30(46)33(50)44-27(11-6-12-40-35(37)38)32(49)45-28(31(36)48)13-23-16-41-26-10-5-4-9-25(23)26/h2-5,7-10,16-17,19,27-30,41H,6,11-15,18H2,1H3,(H2,36,48)(H,39,42)(H,43,47)(H,44,50)(H,45,49)(H4,37,38,40)/t27-,28-,29-,30+/m0/s1

>  <IUPAC Name>  (1) 
(3R)-2-[(2S)-2-acetamido-3-(1H-imidazol-5-yl)propanoyl]-N-[(2S)-1-[[(2S)-1-amino-3-(1H-indol-3-yl)-1-oxopropan-2-yl]amino]-5-(diaminomethylideneamino)-1-oxopentan-2-yl]-3,4-dihydro-1H-isoquinoline-3-carboxamide

$$$$
