
     RDKit          3D

 51 53  0  0  0  0  0  0  0  0999 V2000
   -9.4561    0.3464    1.3575 Cl  0  0  0  0  0  0  0  0  0  0  0  0
   -7.9419    0.7963    0.5962 C   0  0  0  0  0  0  0  0  0  0  0  0
   -7.9029    1.9217   -0.2087 C   0  0  0  0  0  0  0  0  0  0  0  0
   -6.6983    2.2455   -0.7917 C   0  0  0  0  0  0  0  0  0  0  0  0
   -5.5796    1.4716   -0.5755 C   0  0  0  0  0  0  0  0  0  0  0  0
   -5.6569    0.3554    0.2344 C   0  0  0  0  0  0  0  0  0  0  0  0
   -6.8498    0.0126    0.8272 C   0  0  0  0  0  0  0  0  0  0  0  0
   -4.4022   -0.4589    0.4367 C   0  0  2  0  0  0  0  0  0  0  0  0
   -3.6232    0.2486    1.4935 C   0  0  0  0  0  0  0  0  0  0  0  0
   -2.4304   -0.3659    1.9458 N   0  0  0  0  0  0  0  0  0  0  0  0
   -1.3770   -0.4035    1.0040 C   0  0  0  0  0  0  0  0  0  0  0  0
   -0.1050   -1.0573    1.5505 C   0  0  0  0  0  0  0  0  0  0  0  0
    0.8666   -0.9899    0.3998 C   0  0  0  0  0  0  0  0  0  0  0  0
    0.8373   -2.0918   -0.4531 C   0  0  0  0  0  0  0  0  0  0  0  0
    1.6912   -2.1183   -1.5397 C   0  0  0  0  0  0  0  0  0  0  0  0
    2.5488   -1.0594   -1.7554 C   0  0  0  0  0  0  0  0  0  0  0  0
    2.5529    0.0236   -0.8865 C   0  0  0  0  0  0  0  0  0  0  0  0
    1.7071    0.0764    0.2116 C   0  0  0  0  0  0  0  0  0  0  0  0
    3.4180    1.0847   -1.1113 O   0  0  0  0  0  0  0  0  0  0  0  0
    4.6776    1.0196   -0.5324 C   0  0  0  0  0  0  0  0  0  0  0  0
    4.9631    1.5117    0.7229 C   0  0  0  0  0  0  0  0  0  0  0  0
    6.2676    1.3956    1.2128 C   0  0  0  0  0  0  0  0  0  0  0  0
    7.2629    0.7894    0.4391 C   0  0  0  0  0  0  0  0  0  0  0  0
    6.9463    0.3067   -0.8123 C   0  0  0  0  0  0  0  0  0  0  0  0
    5.6671    0.4117   -1.3125 C   0  0  0  0  0  0  0  0  0  0  0  0
    7.9753   -0.3271   -1.6289 C   0  0  0  0  0  0  0  0  0  0  0  0
    9.1580   -0.4422   -1.2102 O   0  0  0  0  0  0  0  0  0  0  0  0
    7.6957   -0.8224   -2.8840 O   0  0  0  0  0  0  0  0  0  0  0  0
    8.5385    0.6704    0.9071 F   0  0  0  0  0  0  0  0  0  0  0  0
   -3.7554   -0.6774   -0.7497 O   0  0  0  0  0  0  0  0  0  0  0  0
   -8.7764    2.5419   -0.3883 H   0  0  0  0  0  0  0  0  0  0  0  0
   -6.6758    3.1248   -1.4182 H   0  0  0  0  0  0  0  0  0  0  0  0
   -4.6592    1.7641   -1.0527 H   0  0  0  0  0  0  0  0  0  0  0  0
   -6.8608   -0.8725    1.4542 H   0  0  0  0  0  0  0  0  0  0  0  0
   -4.7378   -1.4352    0.8765 H   0  0  0  0  0  0  0  0  0  0  0  0
   -3.3778    1.2850    1.1712 H   0  0  0  0  0  0  0  0  0  0  0  0
   -4.3073    0.3246    2.3860 H   0  0  0  0  0  0  0  0  0  0  0  0
   -2.5106   -1.1343    2.6166 H   0  0  0  0  0  0  0  0  0  0  0  0
   -1.0596    0.6661    0.8254 H   0  0  0  0  0  0  0  0  0  0  0  0
   -1.6003   -0.7942    0.0030 H   0  0  0  0  0  0  0  0  0  0  0  0
   -0.2573   -2.0700    1.9181 H   0  0  0  0  0  0  0  0  0  0  0  0
    0.2562   -0.4028    2.3795 H   0  0  0  0  0  0  0  0  0  0  0  0
    0.1637   -2.9233   -0.2859 H   0  0  0  0  0  0  0  0  0  0  0  0
    1.6975   -2.9561   -2.2240 H   0  0  0  0  0  0  0  0  0  0  0  0
    3.2115   -1.0866   -2.6027 H   0  0  0  0  0  0  0  0  0  0  0  0
    1.6877    0.9080    0.9044 H   0  0  0  0  0  0  0  0  0  0  0  0
    4.1722    1.9757    1.2970 H   0  0  0  0  0  0  0  0  0  0  0  0
    6.4982    1.7882    2.2138 H   0  0  0  0  0  0  0  0  0  0  0  0
    5.4276    0.0252   -2.3086 H   0  0  0  0  0  0  0  0  0  0  0  0
    8.3633   -0.8419   -3.6451 H   0  0  0  0  0  0  0  0  0  0  0  0
   -3.6498   -1.6257   -1.0074 H   0  0  0  0  0  0  0  0  0  0  0  0
  1  2  1  0
  2  3  2  0
  3  4  1  0
  4  5  2  0
  5  6  1  0
  6  7  2  0
  6  8  1  0
  8  9  1  0
  9 10  1  0
 10 11  1  0
 11 12  1  0
 12 13  1  0
 13 14  2  0
 14 15  1  0
 15 16  2  0
 16 17  1  0
 17 18  2  0
 17 19  1  0
 19 20  1  0
 20 21  2  0
 21 22  1  0
 22 23  2  0
 23 24  1  0
 24 25  2  0
 24 26  1  0
 26 27  2  0
 26 28  1  0
 23 29  1  0
  8 30  1  0
  7  2  1  0
 18 13  1  0
 25 20  1  0
  3 31  1  0
  4 32  1  0
  5 33  1  0
  7 34  1  0
  8 35  1  1
  9 36  1  0
  9 37  1  0
 10 38  1  0
 11 39  1  0
 11 40  1  0
 12 41  1  0
 12 42  1  0
 14 43  1  0
 15 44  1  0
 16 45  1  0
 18 46  1  0
 21 47  1  0
 22 48  1  0
 25 49  1  0
 28 50  1  0
 30 51  1  0
M  END
>  <Ligand ID>  (1) 
LIG0005867

>  <Ligand>  (1) 
CHEMBL521611

>  <SMILES>  (1) 
Clc1cccc(c1)[C@H](CNCCc1cccc(c1)Oc1ccc(c(c1)C(=O)O)F)O

>  <CID>  (1) 
44579966.0

>  <ChEMBL ID>  (1) 
nan

>  <InChiKey>  (1) 
HJLPBBXICRRIRP-QFIPXVFZSA-N

>  <InChi>  (1) 
InChI=1S/C23H21ClFNO4/c24-17-5-2-4-16(12-17)22(27)14-26-10-9-15-3-1-6-18(11-15)30-19-7-8-21(25)20(13-19)23(28)29/h1-8,11-13,22,26-27H,9-10,14H2,(H,28,29)/t22-/m0/s1

>  <IUPAC Name>  (1) 
5-[3-[2-[[(2R)-2-(3-chlorophenyl)-2-hydroxyethyl]amino]ethyl]phenoxy]-2-fluorobenzoic acid

$$$$
