
     RDKit          3D

125129  0  0  0  0  0  0  0  0999 V2000
   -6.6780   -5.8974   -0.5909 C   0  0  0  0  0  0  0  0  0  0  0  0
   -6.9867   -4.4250   -0.3558 C   0  0  0  0  0  0  0  0  0  0  0  0
   -5.7481   -3.5684   -0.2824 C   0  0  0  0  0  0  0  0  0  0  0  0
   -4.9914   -3.6490   -1.5613 C   0  0  0  0  0  0  0  0  0  0  0  0
   -3.7477   -2.8455   -1.5901 C   0  0  2  0  0  0  0  0  0  0  0  0
   -2.8575   -3.3100   -0.5354 N   0  0  0  0  0  0  0  0  0  0  0  0
   -1.4167   -3.3520   -0.7313 C   0  0  0  0  0  0  0  0  0  0  0  0
   -1.0607   -2.9039   -1.8324 O   0  0  0  0  0  0  0  0  0  0  0  0
   -0.4948   -3.8772    0.3083 C   0  0  0  0  0  0  0  0  0  0  0  0
    0.8968   -3.5348   -0.1177 C   0  0  0  0  0  0  0  0  0  0  0  0
    1.9702   -3.8371    0.9089 C   0  0  2  0  0  0  0  0  0  0  0  0
    3.2200   -3.1293    0.4657 N   0  0  0  0  0  0  0  0  0  0  0  0
    3.2043   -1.7498    0.6973 C   0  0  0  0  0  0  0  0  0  0  0  0
    2.1467   -1.2542    1.1360 O   0  0  0  0  0  0  0  0  0  0  0  0
    4.3209   -0.7757    0.4613 C   0  0  1  0  0  0  0  0  0  0  0  0
    3.6282    0.4995    0.1380 N   0  0  0  0  0  0  0  0  0  0  0  0
    3.4408    0.7962   -1.2311 C   0  0  0  0  0  0  0  0  0  0  0  0
    4.1103    0.0392   -2.0171 O   0  0  0  0  0  0  0  0  0  0  0  0
    2.6226    1.8034   -1.8762 C   0  0  1  0  0  0  0  0  0  0  0  0
    1.8994    2.5278   -0.8102 N   0  0  0  0  0  0  0  0  0  0  0  0
    0.5085    2.4497   -0.7824 C   0  0  0  0  0  0  0  0  0  0  0  0
   -0.0686    1.8301   -1.6918 O   0  0  0  0  0  0  0  0  0  0  0  0
   -0.4157    3.0489    0.2626 C   0  0  2  0  0  0  0  0  0  0  0  0
   -1.7725    2.7483   -0.1057 N   0  0  0  0  0  0  0  0  0  0  0  0
   -2.1391    1.3374    0.0354 C   0  0  0  0  0  0  0  0  0  0  0  0
   -1.2197    0.6206    0.4417 O   0  0  0  0  0  0  0  0  0  0  0  0
   -3.5122    0.8630   -0.3090 C   0  0  1  0  0  0  0  0  0  0  0  0
   -3.4459   -0.6240   -0.3487 N   0  0  0  0  0  0  0  0  0  0  0  0
   -3.9583   -1.3558   -1.4615 C   0  0  0  0  0  0  0  0  0  0  0  0
   -4.5797   -0.6812   -2.2886 O   0  0  0  0  0  0  0  0  0  0  0  0
   -4.4395    1.2942    0.7931 C   0  0  0  0  0  0  0  0  0  0  0  0
   -5.8539    0.8649    0.5335 C   0  0  0  0  0  0  0  0  0  0  0  0
   -6.4263    1.4646   -0.6932 C   0  0  0  0  0  0  0  0  0  0  0  0
   -7.5769    1.0300   -1.0416 O   0  0  0  0  0  0  0  0  0  0  0  0
   -5.8366    2.4220   -1.4594 O   0  0  0  0  0  0  0  0  0  0  0  0
   -0.1016    4.4818    0.4278 C   0  0  0  0  0  0  0  0  0  0  0  0
   -1.0271    5.1124    1.4261 C   0  0  0  0  0  0  0  0  0  0  0  0
   -2.0443    5.9307    0.8368 C   0  0  0  0  0  0  0  0  0  0  0  0
   -2.9022    6.4516    1.7689 C   0  0  0  0  0  0  0  0  0  0  0  0
   -2.8457    6.2511    3.1257 C   0  0  0  0  0  0  0  0  0  0  0  0
   -1.8505    5.4618    3.6234 C   0  0  0  0  0  0  0  0  0  0  0  0
   -0.9459    4.8981    2.7510 C   0  0  0  0  0  0  0  0  0  0  0  0
   -1.8162    5.2700    4.9551 C   0  0  0  0  0  0  0  0  0  0  0  0
   -2.7356    5.8286    5.8692 C   0  0  0  0  0  0  0  0  0  0  0  0
   -3.7071    6.6167    5.2764 C   0  0  0  0  0  0  0  0  0  0  0  0
   -3.7907    6.8507    3.8941 C   0  0  0  0  0  0  0  0  0  0  0  0
    3.3451    2.7458   -2.7904 C   0  0  0  0  0  0  0  0  0  0  0  0
    4.1071    2.0214   -3.8559 C   0  0  0  0  0  0  0  0  0  0  0  0
    4.6001    2.8930   -4.9928 C   0  0  0  0  0  0  0  0  0  0  0  0
    3.4146    3.3421   -5.7671 N   0  0  0  0  0  0  0  0  0  0  0  0
    3.5104    3.5555   -7.0255 C   0  0  0  0  0  0  0  0  0  0  0  0
    4.7681    3.3513   -7.6558 N   0  0  0  0  0  0  0  0  0  0  0  0
    2.3384    3.9549   -7.7276 N   0  0  0  0  0  0  0  0  0  0  0  0
    5.1697   -0.6456    1.6610 C   0  0  0  0  0  0  0  0  0  0  0  0
    5.7951   -1.9028    2.0677 C   0  0  0  0  0  0  0  0  0  0  0  0
    7.0894   -2.2534    1.7108 C   0  0  0  0  0  0  0  0  0  0  0  0
    7.3968   -3.4791    2.2052 N   0  0  0  0  0  0  0  0  0  0  0  0
    6.3148   -3.8750    2.8531 C   0  0  0  0  0  0  0  0  0  0  0  0
    5.2837   -2.9780    2.8231 C   0  0  0  0  0  0  0  0  0  0  0  0
    4.0990   -3.2513    3.4521 C   0  0  0  0  0  0  0  0  0  0  0  0
    3.9834   -4.4267    4.0940 C   0  0  0  0  0  0  0  0  0  0  0  0
    4.9439   -5.4182    4.1968 C   0  0  0  0  0  0  0  0  0  0  0  0
    6.1507   -5.0904    3.5359 C   0  0  0  0  0  0  0  0  0  0  0  0
    2.2146   -5.2451    1.0337 C   0  0  0  0  0  0  0  0  0  0  0  0
    3.3974   -5.6469    0.7100 O   0  0  0  0  0  0  0  0  0  0  0  0
    1.3553   -6.2806    1.4642 N   0  0  0  0  0  0  0  0  0  0  0  0
   -6.2152   -5.9771   -1.5848 H   0  0  0  0  0  0  0  0  0  0  0  0
   -7.6300   -6.4704   -0.6558 H   0  0  0  0  0  0  0  0  0  0  0  0
   -5.9738   -6.2844    0.1581 H   0  0  0  0  0  0  0  0  0  0  0  0
   -7.6262   -4.3738    0.5405 H   0  0  0  0  0  0  0  0  0  0  0  0
   -7.6272   -4.1090   -1.2283 H   0  0  0  0  0  0  0  0  0  0  0  0
   -5.1455   -3.8801    0.6037 H   0  0  0  0  0  0  0  0  0  0  0  0
   -6.1233   -2.5387   -0.0455 H   0  0  0  0  0  0  0  0  0  0  0  0
   -4.6738   -4.7260   -1.6677 H   0  0  0  0  0  0  0  0  0  0  0  0
   -5.6834   -3.4802   -2.3971 H   0  0  0  0  0  0  0  0  0  0  0  0
   -3.2727   -2.9302   -2.6057 H   0  0  0  0  0  0  0  0  0  0  0  0
   -3.1476   -3.6178    0.3861 H   0  0  0  0  0  0  0  0  0  0  0  0
   -0.6419   -4.9715    0.3806 H   0  0  0  0  0  0  0  0  0  0  0  0
   -0.7504   -3.4907    1.3189 H   0  0  0  0  0  0  0  0  0  0  0  0
    1.1821   -4.1379   -1.0076 H   0  0  0  0  0  0  0  0  0  0  0  0
    1.0244   -2.4841   -0.4378 H   0  0  0  0  0  0  0  0  0  0  0  0
    1.6851   -3.3453    1.8560 H   0  0  0  0  0  0  0  0  0  0  0  0
    3.9975   -3.5672    0.0392 H   0  0  0  0  0  0  0  0  0  0  0  0
    4.8634   -1.0999   -0.4115 H   0  0  0  0  0  0  0  0  0  0  0  0
    3.2958    1.1617    0.8140 H   0  0  0  0  0  0  0  0  0  0  0  0
    1.8016    1.2811   -2.5063 H   0  0  0  0  0  0  0  0  0  0  0  0
    2.3616    3.0848   -0.0941 H   0  0  0  0  0  0  0  0  0  0  0  0
   -0.1410    2.5008    1.2276 H   0  0  0  0  0  0  0  0  0  0  0  0
   -2.5060    3.3364   -0.4372 H   0  0  0  0  0  0  0  0  0  0  0  0
   -3.8210    1.2927   -1.2500 H   0  0  0  0  0  0  0  0  0  0  0  0
   -3.0519   -1.1816    0.4012 H   0  0  0  0  0  0  0  0  0  0  0  0
   -4.1274    0.9344    1.7834 H   0  0  0  0  0  0  0  0  0  0  0  0
   -4.4082    2.4033    0.7943 H   0  0  0  0  0  0  0  0  0  0  0  0
   -5.9288   -0.2487    0.5338 H   0  0  0  0  0  0  0  0  0  0  0  0
   -6.4740    1.1937    1.3932 H   0  0  0  0  0  0  0  0  0  0  0  0
   -6.1284    2.7007   -2.3852 H   0  0  0  0  0  0  0  0  0  0  0  0
    0.9474    4.6724    0.7185 H   0  0  0  0  0  0  0  0  0  0  0  0
   -0.2022    4.9945   -0.5780 H   0  0  0  0  0  0  0  0  0  0  0  0
   -2.0723    6.0870   -0.2253 H   0  0  0  0  0  0  0  0  0  0  0  0
   -3.6953    7.1050    1.3506 H   0  0  0  0  0  0  0  0  0  0  0  0
   -0.1564    4.2474    3.1540 H   0  0  0  0  0  0  0  0  0  0  0  0
   -1.0521    4.6467    5.4272 H   0  0  0  0  0  0  0  0  0  0  0  0
   -2.6644    5.6518    6.9124 H   0  0  0  0  0  0  0  0  0  0  0  0
   -4.4329    7.0543    5.9541 H   0  0  0  0  0  0  0  0  0  0  0  0
   -4.5956    7.4825    3.5875 H   0  0  0  0  0  0  0  0  0  0  0  0
    4.1188    3.3475   -2.2200 H   0  0  0  0  0  0  0  0  0  0  0  0
    2.6405    3.4816   -3.2059 H   0  0  0  0  0  0  0  0  0  0  0  0
    5.0418    1.5590   -3.4461 H   0  0  0  0  0  0  0  0  0  0  0  0
    3.4852    1.2380   -4.2849 H   0  0  0  0  0  0  0  0  0  0  0  0
    5.1859    2.2581   -5.6692 H   0  0  0  0  0  0  0  0  0  0  0  0
    5.1620    3.7839   -4.6677 H   0  0  0  0  0  0  0  0  0  0  0  0
    5.3512    4.0932   -8.0576 H   0  0  0  0  0  0  0  0  0  0  0  0
    5.1180    2.3635   -7.7057 H   0  0  0  0  0  0  0  0  0  0  0  0
    1.4212    3.5267   -7.4055 H   0  0  0  0  0  0  0  0  0  0  0  0
    2.2840    4.6053   -8.5071 H   0  0  0  0  0  0  0  0  0  0  0  0
    4.4781   -0.3527    2.5176 H   0  0  0  0  0  0  0  0  0  0  0  0
    5.9511    0.1595    1.5564 H   0  0  0  0  0  0  0  0  0  0  0  0
    7.7644   -1.6667    1.1340 H   0  0  0  0  0  0  0  0  0  0  0  0
    8.3002   -4.0061    2.0959 H   0  0  0  0  0  0  0  0  0  0  0  0
    3.3236   -2.4949    3.4018 H   0  0  0  0  0  0  0  0  0  0  0  0
    3.0386   -4.6564    4.5885 H   0  0  0  0  0  0  0  0  0  0  0  0
    4.8474   -6.3410    4.7034 H   0  0  0  0  0  0  0  0  0  0  0  0
    6.9661   -5.8253    3.5735 H   0  0  0  0  0  0  0  0  0  0  0  0
    1.4084   -6.5934    2.4867 H   0  0  0  0  0  0  0  0  0  0  0  0
    0.6707   -6.7906    0.8797 H   0  0  0  0  0  0  0  0  0  0  0  0
  1  2  1  0
  2  3  1  0
  3  4  1  0
  4  5  1  0
  5  6  1  0
  6  7  1  0
  7  8  2  0
  7  9  1  0
  9 10  1  0
 10 11  1  0
 11 12  1  0
 12 13  1  0
 13 14  2  0
 13 15  1  0
 15 16  1  0
 16 17  1  0
 17 18  2  0
 17 19  1  0
 19 20  1  0
 20 21  1  0
 21 22  2  0
 21 23  1  0
 23 24  1  0
 24 25  1  0
 25 26  2  0
 25 27  1  0
 27 28  1  0
 28 29  1  0
 29 30  2  0
 27 31  1  0
 31 32  1  0
 32 33  1  0
 33 34  2  0
 33 35  1  0
 23 36  1  0
 36 37  1  0
 37 38  2  0
 38 39  1  0
 39 40  2  0
 40 41  1  0
 41 42  2  0
 41 43  1  0
 43 44  2  0
 44 45  1  0
 45 46  2  0
 19 47  1  0
 47 48  1  0
 48 49  1  0
 49 50  1  0
 50 51  2  3
 51 52  1  0
 51 53  1  0
 15 54  1  0
 54 55  1  0
 55 56  2  0
 56 57  1  0
 57 58  1  0
 58 59  2  0
 59 60  1  0
 60 61  2  0
 61 62  1  0
 62 63  2  0
 11 64  1  0
 64 65  2  0
 64 66  1  0
 29  5  1  0
 42 37  1  0
 59 55  1  0
 46 40  1  0
 63 58  1  0
  1 67  1  0
  1 68  1  0
  1 69  1  0
  2 70  1  0
  2 71  1  0
  3 72  1  0
  3 73  1  0
  4 74  1  0
  4 75  1  0
  5 76  1  6
  6 77  1  0
  9 78  1  0
  9 79  1  0
 10 80  1  0
 10 81  1  0
 11 82  1  1
 12 83  1  0
 15 84  1  6
 16 85  1  0
 19 86  1  6
 20 87  1  0
 23 88  1  1
 24 89  1  0
 27 90  1  6
 28 91  1  0
 31 92  1  0
 31 93  1  0
 32 94  1  0
 32 95  1  0
 35 96  1  0
 36 97  1  0
 36 98  1  0
 38 99  1  0
 39100  1  0
 42101  1  0
 43102  1  0
 44103  1  0
 45104  1  0
 46105  1  0
 47106  1  0
 47107  1  0
 48108  1  0
 48109  1  0
 49110  1  0
 49111  1  0
 52112  1  0
 52113  1  0
 53114  1  0
 53115  1  0
 54116  1  0
 54117  1  0
 56118  1  0
 57119  1  0
 60120  1  0
 61121  1  0
 62122  1  0
 63123  1  0
 66124  1  0
 66125  1  0
M  END
>  <Ligand ID>  (1) 
LIG0001845

>  <Ligand>  (1) 
CHEMBL383250

>  <SMILES>  (1) 
CCCC[C@@H]1NC(=O)CC[C@H](NC(=O)[C@@H](NC(=O)[C@@H](NC(=O)[C@H](NC(=O)[C@@H](NC1=O)CCC(=O)O)Cc1ccc2c(c1)cccc2)CCCN=C(N)N)Cc1c[nH]c2c1cccc2)C(=O)N

>  <CID>  (1) 
11520823.0

>  <ChEMBL ID>  (1) 
nan

>  <InChiKey>  (1) 
PAILFUNFWZLMMN-BWBQVKFQSA-N

>  <InChi>  (1) 
InChI=1S/C46H59N11O9/c1-2-3-12-33-41(62)55-35(18-20-39(59)60)43(64)56-36(23-26-15-16-27-9-4-5-10-28(27)22-26)44(65)54-34(14-8-21-50-46(48)49)42(63)57-37(24-29-25-51-31-13-7-6-11-30(29)31)45(66)53-32(40(47)61)17-19-38(58)52-33/h4-7,9-11,13,15-16,22,25,32-37,51H,2-3,8,12,14,17-21,23-24H2,1H3,(H2,47,61)(H,52,58)(H,53,66)(H,54,65)(H,55,62)(H,56,64)(H,57,63)(H,59,60)(H4,48,49,50)/t32-,33-,34-,35-,36+,37-/m0/s1

>  <IUPAC Name>  (1) 
3-[(2S,5S,8R,11S,14S,17S)-2-butyl-17-carbamoyl-11-[3-(diaminomethylideneamino)propyl]-14-(1H-indol-3-ylmethyl)-8-(naphthalen-2-ylmethyl)-3,6,9,12,15,20-hexaoxo-1,4,7,10,13,16-hexazacycloicos-5-yl]propanoic acid

$$$$
