
     RDKit          3D

 70 69  0  0  0  0  0  0  0  0999 V2000
    9.3229   -1.4049   -0.8995 C   0  0  0  0  0  0  0  0  0  0  0  0
   10.0086   -0.0930   -1.0547 C   0  0  0  0  0  0  0  0  0  0  0  0
    9.1845    1.1183   -0.7874 C   0  0  0  0  0  0  0  0  0  0  0  0
    7.9948    1.3510   -1.6320 C   0  0  0  0  0  0  0  0  0  0  0  0
    6.8732    0.3894   -1.5612 C   0  0  0  0  0  0  0  0  0  0  0  0
    6.2319    0.3182   -0.1884 C   0  0  0  0  0  0  0  0  0  0  0  0
    5.1283   -0.6841   -0.2141 C   0  0  0  0  0  0  0  0  0  0  0  0
    4.0297   -0.3794   -1.2032 C   0  0  0  0  0  0  0  0  0  0  0  0
    3.4007    0.9244   -0.8934 C   0  0  0  0  0  0  0  0  0  0  0  0
    2.1397    1.1320   -0.5975 C   0  0  0  0  0  0  0  0  0  0  0  0
    1.0739    0.1112   -0.5093 C   0  0  0  0  0  0  0  0  0  0  0  0
    0.4881    0.1109    0.9107 C   0  0  0  0  0  0  0  0  0  0  0  0
   -0.5780   -0.9435    0.9200 C   0  0  0  0  0  0  0  0  0  0  0  0
   -1.2594   -1.0690    2.2633 C   0  0  0  0  0  0  0  0  0  0  0  0
   -1.9294    0.1733    2.7134 C   0  0  0  0  0  0  0  0  0  0  0  0
   -3.0066    0.6745    1.8002 C   0  0  0  0  0  0  0  0  0  0  0  0
   -4.1329   -0.3120    1.6044 C   0  0  0  0  0  0  0  0  0  0  0  0
   -5.0952    0.3515    0.6795 C   0  0  0  0  0  0  0  0  0  0  0  0
   -4.8174    1.5265    0.2612 O   0  0  0  0  0  0  0  0  0  0  0  0
   -6.2654   -0.2221    0.2470 O   0  0  0  0  0  0  0  0  0  0  0  0
   -7.1958    0.3408   -0.6081 C   0  0  0  0  0  0  0  0  0  0  0  0
   -8.5249    0.5484    0.0879 C   0  0  0  0  0  0  0  0  0  0  0  0
   -9.0675   -0.6312    0.5531 O   0  0  0  0  0  0  0  0  0  0  0  0
  -10.5573   -0.3811    1.3243 P   0  0  0  0  0  0  0  0  0  0  0  0
  -10.4256    0.5397    2.5158 O   0  0  0  0  0  0  0  0  0  0  0  0
  -11.6104    0.2390    0.1496 O   0  0  0  0  0  0  0  0  0  0  0  0
  -11.1624   -1.8630    1.8446 O   0  0  0  0  0  0  0  0  0  0  0  0
   -7.3955   -0.3891   -1.9079 C   0  0  0  0  0  0  0  0  0  0  0  0
   -7.8240   -1.6849   -1.7914 O   0  0  0  0  0  0  0  0  0  0  0  0
   10.0411   -2.1718   -0.4396 H   0  0  0  0  0  0  0  0  0  0  0  0
    8.4732   -1.4151   -0.2169 H   0  0  0  0  0  0  0  0  0  0  0  0
    9.0556   -1.7877   -1.9307 H   0  0  0  0  0  0  0  0  0  0  0  0
   10.4968   -0.0031   -2.0763 H   0  0  0  0  0  0  0  0  0  0  0  0
   10.9148   -0.1261   -0.3729 H   0  0  0  0  0  0  0  0  0  0  0  0
    8.9360    1.1899    0.3208 H   0  0  0  0  0  0  0  0  0  0  0  0
    9.8613    2.0201   -0.9409 H   0  0  0  0  0  0  0  0  0  0  0  0
    7.5598    2.3778   -1.4866 H   0  0  0  0  0  0  0  0  0  0  0  0
    8.3260    1.3752   -2.7219 H   0  0  0  0  0  0  0  0  0  0  0  0
    7.0495   -0.6166   -1.9416 H   0  0  0  0  0  0  0  0  0  0  0  0
    6.0490    0.8325   -2.2146 H   0  0  0  0  0  0  0  0  0  0  0  0
    5.7971    1.3368    0.0370 H   0  0  0  0  0  0  0  0  0  0  0  0
    6.9279    0.1326    0.6337 H   0  0  0  0  0  0  0  0  0  0  0  0
    5.5332   -1.6861   -0.4637 H   0  0  0  0  0  0  0  0  0  0  0  0
    4.6490   -0.7719    0.7858 H   0  0  0  0  0  0  0  0  0  0  0  0
    4.4141   -0.3736   -2.2500 H   0  0  0  0  0  0  0  0  0  0  0  0
    3.3202   -1.2284   -1.1448 H   0  0  0  0  0  0  0  0  0  0  0  0
    4.0717    1.7985   -0.9198 H   0  0  0  0  0  0  0  0  0  0  0  0
    1.8231    2.1718   -0.3895 H   0  0  0  0  0  0  0  0  0  0  0  0
    0.2749    0.4407   -1.2311 H   0  0  0  0  0  0  0  0  0  0  0  0
    1.3841   -0.8841   -0.8076 H   0  0  0  0  0  0  0  0  0  0  0  0
    0.0878    1.1270    1.1042 H   0  0  0  0  0  0  0  0  0  0  0  0
    1.3071   -0.1949    1.5710 H   0  0  0  0  0  0  0  0  0  0  0  0
   -0.1082   -1.9015    0.6168 H   0  0  0  0  0  0  0  0  0  0  0  0
   -1.3661   -0.7397    0.1545 H   0  0  0  0  0  0  0  0  0  0  0  0
   -1.9341   -1.9199    2.3250 H   0  0  0  0  0  0  0  0  0  0  0  0
   -0.4311   -1.2661    2.9949 H   0  0  0  0  0  0  0  0  0  0  0  0
   -1.2414    1.0196    2.9025 H   0  0  0  0  0  0  0  0  0  0  0  0
   -2.4149   -0.0478    3.6873 H   0  0  0  0  0  0  0  0  0  0  0  0
   -2.6104    0.9179    0.7910 H   0  0  0  0  0  0  0  0  0  0  0  0
   -3.4609    1.6083    2.1893 H   0  0  0  0  0  0  0  0  0  0  0  0
   -4.6923   -0.5422    2.5115 H   0  0  0  0  0  0  0  0  0  0  0  0
   -3.7366   -1.1842    1.0584 H   0  0  0  0  0  0  0  0  0  0  0  0
   -6.8291    1.3556   -0.8910 H   0  0  0  0  0  0  0  0  0  0  0  0
   -9.2530    1.0677   -0.5682 H   0  0  0  0  0  0  0  0  0  0  0  0
   -8.3835    1.2030    0.9714 H   0  0  0  0  0  0  0  0  0  0  0  0
  -11.2204    0.2388   -0.7629 H   0  0  0  0  0  0  0  0  0  0  0  0
  -11.4591   -2.4376    1.1019 H   0  0  0  0  0  0  0  0  0  0  0  0
   -8.2014    0.1766   -2.4572 H   0  0  0  0  0  0  0  0  0  0  0  0
   -6.5040   -0.2666   -2.5705 H   0  0  0  0  0  0  0  0  0  0  0  0
   -7.5351   -2.1577   -0.9854 H   0  0  0  0  0  0  0  0  0  0  0  0
  1  2  1  0
  2  3  1  0
  3  4  1  0
  4  5  1  0
  5  6  1  0
  6  7  1  0
  7  8  1  0
  8  9  1  0
  9 10  2  0
 10 11  1  0
 11 12  1  0
 12 13  1  0
 13 14  1  0
 14 15  1  0
 15 16  1  0
 16 17  1  0
 17 18  1  0
 18 19  2  0
 18 20  1  0
 20 21  1  0
 21 22  1  0
 22 23  1  0
 23 24  1  0
 24 25  2  0
 24 26  1  0
 24 27  1  0
 21 28  1  0
 28 29  1  0
  1 30  1  0
  1 31  1  0
  1 32  1  0
  2 33  1  0
  2 34  1  0
  3 35  1  0
  3 36  1  0
  4 37  1  0
  4 38  1  0
  5 39  1  0
  5 40  1  0
  6 41  1  0
  6 42  1  0
  7 43  1  0
  7 44  1  0
  8 45  1  0
  8 46  1  0
  9 47  1  0
 10 48  1  0
 11 49  1  0
 11 50  1  0
 12 51  1  0
 12 52  1  0
 13 53  1  0
 13 54  1  0
 14 55  1  0
 14 56  1  0
 15 57  1  0
 15 58  1  0
 16 59  1  0
 16 60  1  0
 17 61  1  0
 17 62  1  0
 21 63  1  0
 22 64  1  0
 22 65  1  0
 26 66  1  0
 27 67  1  0
 28 68  1  0
 28 69  1  0
 29 70  1  0
M  END
>  <Ligand ID>  (1) 
LIG0001879

>  <Ligand>  (1) 
2-oleoyl-LPA

>  <SMILES>  (1) 
CCCCCCCC/C=C\CCCCCCCC(=O)OC(COP(=O)(O)O)CO

>  <CID>  (1) 
56947016.0

>  <ChEMBL ID>  (1) 
nan

>  <InChiKey>  (1) 
ZOOLJLSXNRZLDH-KTKRTIGZSA-N

>  <InChi>  (1) 
InChI=1S/C21H41O7P/c1-2-3-4-5-6-7-8-9-10-11-12-13-14-15-16-17-21(23)28-20(18-22)19-27-29(24,25)26/h9-10,20,22H,2-8,11-19H2,1H3,(H2,24,25,26)/b10-9-

>  <IUPAC Name>  (1) 
(1-hydroxy-3-phosphonooxypropan-2-yl) (Z)-octadec-9-enoate

$$$$
