
     RDKit          3D

 55 58  0  0  0  0  0  0  0  0999 V2000
   -5.3092    2.2580   -1.1166 C   0  0  0  0  0  0  0  0  0  0  0  0
   -4.0917    1.6645   -0.7709 O   0  0  0  0  0  0  0  0  0  0  0  0
   -4.0315    0.3916   -0.1966 C   0  0  0  0  0  0  0  0  0  0  0  0
   -5.1568   -0.3605    0.0668 C   0  0  0  0  0  0  0  0  0  0  0  0
   -5.0611   -1.6116    0.6338 C   0  0  0  0  0  0  0  0  0  0  0  0
   -3.8051   -2.0959    0.9330 C   0  0  0  0  0  0  0  0  0  0  0  0
   -2.6832   -1.3373    0.6665 C   0  0  0  0  0  0  0  0  0  0  0  0
   -2.7446   -0.0766    0.0975 C   0  0  0  0  0  0  0  0  0  0  0  0
   -1.5578    0.7409   -0.1910 C   0  0  1  0  0  0  0  0  0  0  0  0
   -1.2169    1.6187    1.0122 C   0  0  0  0  0  0  0  0  0  0  0  0
    0.1485    2.2081    0.8496 C   0  0  0  0  0  0  0  0  0  0  0  0
    1.1894    1.2315    0.7516 N   0  0  0  0  0  0  0  0  0  0  0  0
    0.6973   -0.1032    0.5038 C   0  0  0  0  0  0  0  0  0  0  0  0
   -0.3378    0.0150   -0.6207 C   0  0  1  0  0  0  0  0  0  0  0  0
   -0.5557   -1.2872   -1.3177 C   0  0  0  0  0  0  0  0  0  0  0  0
    2.2130    1.6337   -0.1688 C   0  0  0  0  0  0  0  0  0  0  0  0
    3.3182    0.6442   -0.3022 C   0  0  0  0  0  0  0  0  0  0  0  0
    3.4205   -0.3858   -1.1614 N   0  0  0  0  0  0  0  0  0  0  0  0
    4.5702   -1.0247   -0.9479 C   0  0  0  0  0  0  0  0  0  0  0  0
    5.2280   -0.3849    0.0817 C   0  0  0  0  0  0  0  0  0  0  0  0
    4.4352    0.6344    0.4567 N   0  0  0  0  0  0  0  0  0  0  0  0
    4.7428    1.5879    1.5286 C   0  0  0  0  0  0  0  0  0  0  0  0
    6.4565   -0.7898    0.5606 C   0  0  0  0  0  0  0  0  0  0  0  0
    7.0627   -1.8993   -0.0241 C   0  0  0  0  0  0  0  0  0  0  0  0
    6.3855   -2.5335   -1.0619 C   0  0  0  0  0  0  0  0  0  0  0  0
    5.1819   -2.0999   -1.4978 N   0  0  0  0  0  0  0  0  0  0  0  0
   -6.3117   -2.3706    0.8920 C   0  0  0  0  0  0  0  0  0  0  0  0
   -5.9955   -3.6955    1.0499 F   0  0  0  0  0  0  0  0  0  0  0  0
   -7.0529   -1.8440    1.9251 F   0  0  0  0  0  0  0  0  0  0  0  0
   -7.1407   -2.2985   -0.2330 F   0  0  0  0  0  0  0  0  0  0  0  0
   -5.1509    3.3554   -1.2395 H   0  0  0  0  0  0  0  0  0  0  0  0
   -6.1332    2.0844   -0.4136 H   0  0  0  0  0  0  0  0  0  0  0  0
   -5.5859    1.8742   -2.1365 H   0  0  0  0  0  0  0  0  0  0  0  0
   -6.1389    0.0317   -0.1732 H   0  0  0  0  0  0  0  0  0  0  0  0
   -3.7305   -3.0870    1.3820 H   0  0  0  0  0  0  0  0  0  0  0  0
   -1.7357   -1.7622    0.9190 H   0  0  0  0  0  0  0  0  0  0  0  0
   -1.8666    1.4852   -0.9834 H   0  0  0  0  0  0  0  0  0  0  0  0
   -1.9478    2.4554    1.0576 H   0  0  0  0  0  0  0  0  0  0  0  0
   -1.2665    0.9699    1.9111 H   0  0  0  0  0  0  0  0  0  0  0  0
    0.3214    2.8791    1.7377 H   0  0  0  0  0  0  0  0  0  0  0  0
    0.1531    2.8149   -0.0960 H   0  0  0  0  0  0  0  0  0  0  0  0
    1.4956   -0.7729    0.1833 H   0  0  0  0  0  0  0  0  0  0  0  0
    0.2322   -0.4407    1.4465 H   0  0  0  0  0  0  0  0  0  0  0  0
    0.2007    0.6721   -1.3677 H   0  0  0  0  0  0  0  0  0  0  0  0
   -0.0556   -2.1293   -0.7548 H   0  0  0  0  0  0  0  0  0  0  0  0
   -1.6225   -1.5166   -1.5512 H   0  0  0  0  0  0  0  0  0  0  0  0
   -0.0560   -1.3504   -2.3296 H   0  0  0  0  0  0  0  0  0  0  0  0
    2.6571    2.5843    0.2042 H   0  0  0  0  0  0  0  0  0  0  0  0
    1.8433    1.8675   -1.1843 H   0  0  0  0  0  0  0  0  0  0  0  0
    4.2322    1.2860    2.4479 H   0  0  0  0  0  0  0  0  0  0  0  0
    5.8443    1.5739    1.7139 H   0  0  0  0  0  0  0  0  0  0  0  0
    4.4621    2.6132    1.1759 H   0  0  0  0  0  0  0  0  0  0  0  0
    6.9559   -0.2617    1.3804 H   0  0  0  0  0  0  0  0  0  0  0  0
    8.0258   -2.2499    0.3213 H   0  0  0  0  0  0  0  0  0  0  0  0
    6.8690   -3.4062   -1.5172 H   0  0  0  0  0  0  0  0  0  0  0  0
  1  2  1  0
  2  3  1  0
  3  4  2  0
  4  5  1  0
  5  6  2  0
  6  7  1  0
  7  8  2  0
  8  9  1  0
  9 10  1  0
 10 11  1  0
 11 12  1  0
 12 13  1  0
 13 14  1  0
 14 15  1  0
 12 16  1  0
 16 17  1  0
 17 18  2  0
 18 19  1  0
 19 20  2  0
 20 21  1  0
 21 22  1  0
 20 23  1  0
 23 24  2  0
 24 25  1  0
 25 26  2  0
  5 27  1  0
 27 28  1  0
 27 29  1  0
 27 30  1  0
  8  3  1  0
 14  9  1  0
 21 17  1  0
 26 19  1  0
  1 31  1  0
  1 32  1  0
  1 33  1  0
  4 34  1  0
  6 35  1  0
  7 36  1  0
  9 37  1  6
 10 38  1  0
 10 39  1  0
 11 40  1  0
 11 41  1  0
 13 42  1  0
 13 43  1  0
 14 44  1  6
 15 45  1  0
 15 46  1  0
 15 47  1  0
 16 48  1  0
 16 49  1  0
 22 50  1  0
 22 51  1  0
 22 52  1  0
 23 53  1  0
 24 54  1  0
 25 55  1  0
M  END
>  <Ligand ID>  (1) 
LIG0005262

>  <Ligand>  (1) 
CHEMBL1774232

>  <SMILES>  (1) 
COc1cc(ccc1[C@H]1CCN(C[C@H]1C)Cc1nc2c(n1C)cccn2)C(F)(F)F

>  <CID>  (1) 
51354014.0

>  <ChEMBL ID>  (1) 
nan

>  <InChiKey>  (1) 
XTGROMAGIGWBCC-ZBFHGGJFSA-N

>  <InChi>  (1) 
InChI=1S/C22H25F3N4O/c1-14-12-29(13-20-27-21-18(28(20)2)5-4-9-26-21)10-8-16(14)17-7-6-15(22(23,24)25)11-19(17)30-3/h4-7,9,11,14,16H,8,10,12-13H2,1-3H3/t14-,16+/m1/s1

>  <IUPAC Name>  (1) 
2-[[(3S,4S)-4-[2-methoxy-4-(trifluoromethyl)phenyl]-3-methylpiperidin-1-yl]methyl]-1-methylimidazo[4,5-b]pyridine

$$$$
