
     RDKit          3D

 26 25  0  0  0  0  0  0  0  0999 V2000
   -4.9708    0.3710    0.8039 C   0  0  0  0  0  0  0  0  0  0  0  0
   -4.0792    0.0705   -0.3549 C   0  0  0  0  0  0  0  0  0  0  0  0
   -2.7181    0.2238    0.0586 O   0  0  0  0  0  0  0  0  0  0  0  0
   -1.6669    0.0115   -0.8012 C   0  0  0  0  0  0  0  0  0  0  0  0
   -1.8526   -0.3294   -1.9985 O   0  0  0  0  0  0  0  0  0  0  0  0
   -0.2917    0.1907   -0.2967 C   0  0  0  0  0  0  0  0  0  0  0  0
    0.7517   -0.0740   -1.3429 C   0  0  0  0  0  0  0  0  0  0  0  0
    2.1280    0.1034   -0.8449 C   0  0  0  0  0  0  0  0  0  0  0  0
    3.1103   -0.0891   -1.6281 O   0  0  0  0  0  0  0  0  0  0  0  0
    2.3848    0.4791    0.4700 O   0  0  0  0  0  0  0  0  0  0  0  0
    3.6477    0.6670    1.0165 C   0  0  0  0  0  0  0  0  0  0  0  0
    4.5448   -0.5462    0.9872 C   0  0  0  0  0  0  0  0  0  0  0  0
   -4.4038    0.9888    1.5506 H   0  0  0  0  0  0  0  0  0  0  0  0
   -5.8219    0.9813    0.4505 H   0  0  0  0  0  0  0  0  0  0  0  0
   -5.3212   -0.5474    1.3290 H   0  0  0  0  0  0  0  0  0  0  0  0
   -4.2508   -1.0117   -0.6219 H   0  0  0  0  0  0  0  0  0  0  0  0
   -4.3153    0.7117   -1.2045 H   0  0  0  0  0  0  0  0  0  0  0  0
   -0.0939   -0.5119    0.5468 H   0  0  0  0  0  0  0  0  0  0  0  0
   -0.2396    1.2169    0.1106 H   0  0  0  0  0  0  0  0  0  0  0  0
    0.5901    0.6629   -2.1764 H   0  0  0  0  0  0  0  0  0  0  0  0
    0.6146   -1.0718   -1.7581 H   0  0  0  0  0  0  0  0  0  0  0  0
    4.2291    1.4919    0.5622 H   0  0  0  0  0  0  0  0  0  0  0  0
    3.5102    0.9294    2.0888 H   0  0  0  0  0  0  0  0  0  0  0  0
    4.2263   -1.3353    1.6878 H   0  0  0  0  0  0  0  0  0  0  0  0
    5.5363   -0.1716    1.3751 H   0  0  0  0  0  0  0  0  0  0  0  0
    4.7515   -0.9434   -0.0095 H   0  0  0  0  0  0  0  0  0  0  0  0
  1  2  1  0
  2  3  1  0
  3  4  1  0
  4  5  2  0
  4  6  1  0
  6  7  1  0
  7  8  1  0
  8  9  2  0
  8 10  1  0
 10 11  1  0
 11 12  1  0
  1 13  1  0
  1 14  1  0
  1 15  1  0
  2 16  1  0
  2 17  1  0
  6 18  1  0
  6 19  1  0
  7 20  1  0
  7 21  1  0
 11 22  1  0
 11 23  1  0
 12 24  1  0
 12 25  1  0
 12 26  1  0
M  END
>  <Ligand ID>  (1) 
LIG0000304

>  <Ligand>  (1) 
Butanedioic acid, diethyl ester

>  <SMILES>  (1) 
CCOC(=O)CCC(=O)OCC

>  <CID>  (1) 
31249.0

>  <ChEMBL ID>  (1) 
nan

>  <InChiKey>  (1) 
DKMROQRQHGEIOW-UHFFFAOYSA-N

>  <InChi>  (1) 
InChI=1S/C8H14O4/c1-3-11-7(9)5-6-8(10)12-4-2/h3-6H2,1-2H3

>  <IUPAC Name>  (1) 
diethyl butanedioate

$$$$
