
     RDKit          3D

 58 62  0  0  0  0  0  0  0  0999 V2000
   -1.4169   -5.3691   -0.3198 C   0  0  0  0  0  0  0  0  0  0  0  0
   -2.6612   -4.8679   -0.7031 O   0  0  0  0  0  0  0  0  0  0  0  0
   -3.0393   -3.5439   -0.7377 C   0  0  0  0  0  0  0  0  0  0  0  0
   -4.3422   -3.2538   -1.1554 C   0  0  0  0  0  0  0  0  0  0  0  0
   -4.7841   -1.9527   -1.2131 C   0  0  0  0  0  0  0  0  0  0  0  0
   -3.9084   -0.9319   -0.8475 C   0  0  0  0  0  0  0  0  0  0  0  0
   -2.6178   -1.1876   -0.4315 C   0  0  0  0  0  0  0  0  0  0  0  0
   -2.2058   -2.5024   -0.3848 C   0  0  0  0  0  0  0  0  0  0  0  0
   -1.7424   -0.1863   -0.0670 C   0  0  0  0  0  0  0  0  0  0  0  0
   -2.2397    1.0828   -0.1452 N   0  0  0  0  0  0  0  0  0  0  0  0
   -3.4907    1.3336   -0.5481 C   0  0  0  0  0  0  0  0  0  0  0  0
   -4.3309    0.3348   -0.9007 N   0  0  0  0  0  0  0  0  0  0  0  0
   -4.0103    2.7168   -0.6257 C   0  0  0  0  0  0  0  0  0  0  0  0
   -3.0099    3.6925   -1.2027 C   0  0  0  0  0  0  0  0  0  0  0  0
   -3.5192    4.6927   -0.1616 C   0  0  0  0  0  0  0  0  0  0  0  0
   -3.8711    3.4812    0.6941 C   0  0  0  0  0  0  0  0  0  0  0  0
   -0.4085   -0.4312    0.3629 N   0  0  0  0  0  0  0  0  0  0  0  0
    0.5881   -1.0838   -0.4595 C   0  0  0  0  0  0  0  0  0  0  0  0
    1.7782   -0.1342   -0.6596 C   0  0  0  0  0  0  0  0  0  0  0  0
    2.2699    0.1315    0.6867 N   0  0  0  0  0  0  0  0  0  0  0  0
    1.3734    0.6161    1.7201 C   0  0  0  0  0  0  0  0  0  0  0  0
    0.0163   -0.0180    1.6959 C   0  0  0  0  0  0  0  0  0  0  0  0
    3.6601   -0.0894    0.9938 C   0  0  0  0  0  0  0  0  0  0  0  0
    4.0204   -0.9964    1.9782 C   0  0  0  0  0  0  0  0  0  0  0  0
    5.3730   -1.1793    2.2428 C   0  0  0  0  0  0  0  0  0  0  0  0
    6.3433   -0.4830    1.5515 C   0  0  0  0  0  0  0  0  0  0  0  0
    5.9936    0.4288    0.5626 C   0  0  0  0  0  0  0  0  0  0  0  0
    4.6408    0.6150    0.2944 C   0  0  0  0  0  0  0  0  0  0  0  0
    4.2376    1.5043   -0.6734 O   0  0  0  0  0  0  0  0  0  0  0  0
    5.0947    2.2912   -1.4671 C   0  0  0  0  0  0  0  0  0  0  0  0
   -0.7443   -5.4617   -1.2106 H   0  0  0  0  0  0  0  0  0  0  0  0
   -1.5810   -6.3976    0.1031 H   0  0  0  0  0  0  0  0  0  0  0  0
   -0.9004   -4.7171    0.3882 H   0  0  0  0  0  0  0  0  0  0  0  0
   -4.9962   -4.0794   -1.4329 H   0  0  0  0  0  0  0  0  0  0  0  0
   -5.7847   -1.7600   -1.5360 H   0  0  0  0  0  0  0  0  0  0  0  0
   -1.2152   -2.7531   -0.0689 H   0  0  0  0  0  0  0  0  0  0  0  0
   -5.0460    2.8105   -0.9672 H   0  0  0  0  0  0  0  0  0  0  0  0
   -1.9793    3.3245   -0.9833 H   0  0  0  0  0  0  0  0  0  0  0  0
   -3.2147    3.9864   -2.2342 H   0  0  0  0  0  0  0  0  0  0  0  0
   -4.4322    5.1792   -0.5415 H   0  0  0  0  0  0  0  0  0  0  0  0
   -2.7250    5.3380    0.2322 H   0  0  0  0  0  0  0  0  0  0  0  0
   -3.0151    3.1359    1.3033 H   0  0  0  0  0  0  0  0  0  0  0  0
   -4.8120    3.5818    1.2667 H   0  0  0  0  0  0  0  0  0  0  0  0
    0.1671   -1.3549   -1.4414 H   0  0  0  0  0  0  0  0  0  0  0  0
    1.0394   -1.9515    0.0844 H   0  0  0  0  0  0  0  0  0  0  0  0
    1.4300    0.8191   -1.1171 H   0  0  0  0  0  0  0  0  0  0  0  0
    2.5575   -0.6411   -1.2249 H   0  0  0  0  0  0  0  0  0  0  0  0
    1.3238    1.7309    1.6658 H   0  0  0  0  0  0  0  0  0  0  0  0
    1.8453    0.3923    2.7016 H   0  0  0  0  0  0  0  0  0  0  0  0
    0.0152   -0.8943    2.4015 H   0  0  0  0  0  0  0  0  0  0  0  0
   -0.6946    0.7222    2.1525 H   0  0  0  0  0  0  0  0  0  0  0  0
    3.2523   -1.5406    2.5180 H   0  0  0  0  0  0  0  0  0  0  0  0
    5.6844   -1.8813    3.0064 H   0  0  0  0  0  0  0  0  0  0  0  0
    7.3886   -0.6777    1.8129 H   0  0  0  0  0  0  0  0  0  0  0  0
    6.7553    0.9598    0.0365 H   0  0  0  0  0  0  0  0  0  0  0  0
    5.4248    1.6289   -2.3033 H   0  0  0  0  0  0  0  0  0  0  0  0
    4.5050    3.1650   -1.8550 H   0  0  0  0  0  0  0  0  0  0  0  0
    5.9614    2.6257   -0.8667 H   0  0  0  0  0  0  0  0  0  0  0  0
  1  2  1  0
  2  3  1  0
  3  4  2  0
  4  5  1  0
  5  6  2  0
  6  7  1  0
  7  8  2  0
  7  9  1  0
  9 10  2  0
 10 11  1  0
 11 12  2  0
 11 13  1  0
 13 14  1  0
 14 15  1  0
 15 16  1  0
  9 17  1  0
 17 18  1  0
 18 19  1  0
 19 20  1  0
 20 21  1  0
 21 22  1  0
 20 23  1  0
 23 24  2  0
 24 25  1  0
 25 26  2  0
 26 27  1  0
 27 28  2  0
 28 29  1  0
 29 30  1  0
  8  3  1  0
 16 13  1  0
 22 17  1  0
 28 23  1  0
 12  6  1  0
  1 31  1  0
  1 32  1  0
  1 33  1  0
  4 34  1  0
  5 35  1  0
  8 36  1  0
 13 37  1  0
 14 38  1  0
 14 39  1  0
 15 40  1  0
 15 41  1  0
 16 42  1  0
 16 43  1  0
 18 44  1  0
 18 45  1  0
 19 46  1  0
 19 47  1  0
 21 48  1  0
 21 49  1  0
 22 50  1  0
 22 51  1  0
 24 52  1  0
 25 53  1  0
 26 54  1  0
 27 55  1  0
 30 56  1  0
 30 57  1  0
 30 58  1  0
M  END
>  <Ligand ID>  (1) 
LIG0004887

>  <Ligand>  (1) 
CHEMBL2431125

>  <SMILES>  (1) 
COc1ccc2c(c1)c(nc(n2)C1CCC1)N1CCN(CC1)c1ccccc1OC

>  <CID>  (1) 
53245521.0

>  <ChEMBL ID>  (1) 
nan

>  <InChiKey>  (1) 
CIWKHKMZANVYGH-UHFFFAOYSA-N

>  <InChi>  (1) 
InChI=1S/C24H28N4O2/c1-29-18-10-11-20-19(16-18)24(26-23(25-20)17-6-5-7-17)28-14-12-27(13-15-28)21-8-3-4-9-22(21)30-2/h3-4,8-11,16-17H,5-7,12-15H2,1-2H3

>  <IUPAC Name>  (1) 
2-cyclobutyl-6-methoxy-4-[4-(2-methoxyphenyl)piperazin-1-yl]quinazoline

$$$$
