
     RDKit          3D

 30 29  0  0  0  0  0  0  0  0999 V2000
    5.0025    0.2793   -0.3099 C   0  0  0  0  0  0  0  0  0  0  0  0
    3.5778    0.7057   -0.0384 C   0  0  0  0  0  0  0  0  0  0  0  0
    2.6005   -0.4447   -0.3224 C   0  0  0  0  0  0  0  0  0  0  0  0
    1.2184    0.0740   -0.0248 C   0  0  0  0  0  0  0  0  0  0  0  0
    0.1471   -0.9980   -0.2740 C   0  0  0  0  0  0  0  0  0  0  0  0
   -1.1471   -0.2971    0.0747 C   0  0  0  0  0  0  0  0  0  0  0  0
   -2.3590   -1.1222   -0.0810 C   0  0  0  0  0  0  0  0  0  0  0  0
   -3.5622   -0.2950    0.3089 C   0  0  0  0  0  0  0  0  0  0  0  0
   -3.7289    0.9435   -0.5399 C   0  0  0  0  0  0  0  0  0  0  0  0
   -5.2082    1.8317    0.0273 S   0  0  0  0  0  0  0  0  0  0  0  0
    5.2448    0.3413   -1.3942 H   0  0  0  0  0  0  0  0  0  0  0  0
    5.6604    0.9846    0.2312 H   0  0  0  0  0  0  0  0  0  0  0  0
    5.1707   -0.7246    0.1201 H   0  0  0  0  0  0  0  0  0  0  0  0
    3.2803    1.5882   -0.6200 H   0  0  0  0  0  0  0  0  0  0  0  0
    3.4661    0.9636    1.0323 H   0  0  0  0  0  0  0  0  0  0  0  0
    2.6516   -0.6048   -1.4170 H   0  0  0  0  0  0  0  0  0  0  0  0
    2.8606   -1.3403    0.2371 H   0  0  0  0  0  0  0  0  0  0  0  0
    1.1009    0.4006    1.0289 H   0  0  0  0  0  0  0  0  0  0  0  0
    0.9291    0.9145   -0.6807 H   0  0  0  0  0  0  0  0  0  0  0  0
    0.3818   -1.8526    0.3767 H   0  0  0  0  0  0  0  0  0  0  0  0
    0.1956   -1.3275   -1.3105 H   0  0  0  0  0  0  0  0  0  0  0  0
   -1.1951    0.5727   -0.6454 H   0  0  0  0  0  0  0  0  0  0  0  0
   -1.0895    0.0906    1.0951 H   0  0  0  0  0  0  0  0  0  0  0  0
   -2.5340   -1.5250   -1.0870 H   0  0  0  0  0  0  0  0  0  0  0  0
   -2.3258   -1.9672    0.6607 H   0  0  0  0  0  0  0  0  0  0  0  0
   -3.4576    0.0979    1.3642 H   0  0  0  0  0  0  0  0  0  0  0  0
   -4.4893   -0.8993    0.3437 H   0  0  0  0  0  0  0  0  0  0  0  0
   -3.7996    0.6391   -1.5843 H   0  0  0  0  0  0  0  0  0  0  0  0
   -2.8824    1.6409   -0.3774 H   0  0  0  0  0  0  0  0  0  0  0  0
   -5.7096    1.3301    1.2317 H   0  0  0  0  0  0  0  0  0  0  0  0
  1  2  1  0
  2  3  1  0
  3  4  1  0
  4  5  1  0
  5  6  1  0
  6  7  1  0
  7  8  1  0
  8  9  1  0
  9 10  1  0
  1 11  1  0
  1 12  1  0
  1 13  1  0
  2 14  1  0
  2 15  1  0
  3 16  1  0
  3 17  1  0
  4 18  1  0
  4 19  1  0
  5 20  1  0
  5 21  1  0
  6 22  1  0
  6 23  1  0
  7 24  1  0
  7 25  1  0
  8 26  1  0
  8 27  1  0
  9 28  1  0
  9 29  1  0
 10 30  1  0
M  END
>  <Ligand ID>  (1) 
LIG0000115

>  <Ligand>  (1) 
1-Nonanethiol

>  <SMILES>  (1) 
CCCCCCCCCS

>  <CID>  (1) 
15077.0

>  <ChEMBL ID>  (1) 
nan

>  <InChiKey>  (1) 
ZVEZMVFBMOOHAT-UHFFFAOYSA-N

>  <InChi>  (1) 
InChI=1S/C9H20S/c1-2-3-4-5-6-7-8-9-10/h10H,2-9H2,1H3

>  <IUPAC Name>  (1) 
nonane-1-thiol

$$$$
