
     RDKit          3D

 34 36  0  0  0  0  0  0  0  0999 V2000
    1.9895   -2.6959    0.6705 O   0  0  0  0  0  0  0  0  0  0  0  0
    1.2240   -1.7001    0.5626 C   0  0  0  0  0  0  0  0  0  0  0  0
   -0.1350   -1.8704    0.9324 N   0  0  0  0  0  0  0  0  0  0  0  0
   -1.0967   -0.7991    1.0180 C   0  0  0  0  0  0  0  0  0  0  0  0
   -2.4698   -1.2433    0.5996 C   0  0  0  0  0  0  0  0  0  0  0  0
   -2.9181   -0.7339   -0.7315 C   0  0  0  0  0  0  0  0  0  0  0  0
   -3.5364    0.5845   -0.6353 N   0  0  0  0  0  0  0  0  0  0  0  0
   -2.8760    1.3756    0.3852 C   0  0  0  0  0  0  0  0  0  0  0  0
   -1.3949    1.5601    0.0356 C   0  0  0  0  0  0  0  0  0  0  0  0
   -0.6105    0.3828    0.3920 N   0  0  0  0  0  0  0  0  0  0  0  0
    0.7388    0.6157    0.0063 C   0  0  0  0  0  0  0  0  0  0  0  0
    1.6673   -0.4022    0.0821 C   0  0  0  0  0  0  0  0  0  0  0  0
    2.9918   -0.2464   -0.2753 C   0  0  0  0  0  0  0  0  0  0  0  0
    3.9712   -1.3733   -0.1799 C   0  0  0  0  0  0  0  0  0  0  0  0
    3.4038    1.0098   -0.7362 C   0  0  0  0  0  0  0  0  0  0  0  0
    2.5083    2.0554   -0.8279 C   0  0  0  0  0  0  0  0  0  0  0  0
    1.1959    1.8340   -0.4543 C   0  0  0  0  0  0  0  0  0  0  0  0
   -0.4779   -2.8311    1.1613 H   0  0  0  0  0  0  0  0  0  0  0  0
   -1.1716   -0.5672    2.1215 H   0  0  0  0  0  0  0  0  0  0  0  0
   -3.2374   -1.0412    1.3435 H   0  0  0  0  0  0  0  0  0  0  0  0
   -2.4326   -2.3690    0.5115 H   0  0  0  0  0  0  0  0  0  0  0  0
   -3.7454   -1.4142   -1.0873 H   0  0  0  0  0  0  0  0  0  0  0  0
   -2.1503   -0.7786   -1.5186 H   0  0  0  0  0  0  0  0  0  0  0  0
   -3.3762    1.0621   -1.5445 H   0  0  0  0  0  0  0  0  0  0  0  0
   -3.3278    2.3919    0.3115 H   0  0  0  0  0  0  0  0  0  0  0  0
   -2.9431    0.9745    1.3938 H   0  0  0  0  0  0  0  0  0  0  0  0
   -1.0996    2.4572    0.6556 H   0  0  0  0  0  0  0  0  0  0  0  0
   -1.2665    1.8428   -1.0107 H   0  0  0  0  0  0  0  0  0  0  0  0
    3.6869   -2.1939   -0.8562 H   0  0  0  0  0  0  0  0  0  0  0  0
    4.9596   -0.9942   -0.4758 H   0  0  0  0  0  0  0  0  0  0  0  0
    4.0819   -1.6772    0.8890 H   0  0  0  0  0  0  0  0  0  0  0  0
    4.4496    1.1004   -1.0091 H   0  0  0  0  0  0  0  0  0  0  0  0
    2.8706    3.0089   -1.1894 H   0  0  0  0  0  0  0  0  0  0  0  0
    0.5267    2.6755   -0.5401 H   0  0  0  0  0  0  0  0  0  0  0  0
  1  2  2  0
  2  3  1  0
  3  4  1  0
  4  5  1  0
  5  6  1  0
  6  7  1  0
  7  8  1  0
  8  9  1  0
  9 10  1  0
 10 11  1  0
 11 12  2  0
 12 13  1  0
 13 14  1  0
 13 15  2  0
 15 16  1  0
 16 17  2  0
 12  2  1  0
 10  4  1  0
 17 11  1  0
  3 18  1  0
  4 19  1  0
  5 20  1  0
  5 21  1  0
  6 22  1  0
  6 23  1  0
  7 24  1  0
  8 25  1  0
  8 26  1  0
  9 27  1  0
  9 28  1  0
 14 29  1  0
 14 30  1  0
 14 31  1  0
 15 32  1  0
 16 33  1  0
 17 34  1  0
M  END
>  <Ligand ID>  (1) 
LIG0001711

>  <Ligand>  (1) 
CHEMBL590580

>  <SMILES>  (1) 
O=C1NC2CCNCCN2c2c1c(C)ccc2

>  <CID>  (1) 
46230098.0

>  <ChEMBL ID>  (1) 
nan

>  <InChiKey>  (1) 
IDTOIAGIXRXDMI-UHFFFAOYSA-N

>  <InChi>  (1) 
InChI=1S/C13H17N3O/c1-9-3-2-4-10-12(9)13(17)15-11-5-6-14-7-8-16(10)11/h2-4,11,14H,5-8H2,1H3,(H,15,17)

>  <IUPAC Name>  (1) 
8-methyl-2,3,4,5,5a,6-hexahydro-1H-[1,4]diazepino[1,7-a]quinazolin-7-one

$$$$
