
     RDKit          3D

 47 50  0  0  0  0  0  0  0  0999 V2000
    3.2615    1.1623   -0.6136 O   0  0  0  0  0  0  0  0  0  0  0  0
    3.0838    0.1996    0.1872 C   0  0  0  0  0  0  0  0  0  0  0  0
    4.0573   -0.8532    0.2690 C   0  0  0  0  0  0  0  0  0  0  0  0
    5.1918   -0.7316   -0.5420 C   0  0  0  0  0  0  0  0  0  0  0  0
    6.1706   -1.7007   -0.5225 C   0  0  0  0  0  0  0  0  0  0  0  0
    6.0006   -2.7796    0.3092 C   0  0  0  0  0  0  0  0  0  0  0  0
    4.8973   -2.9136    1.1082 C   0  0  0  0  0  0  0  0  0  0  0  0
    3.9248   -1.9385    1.0808 C   0  0  0  0  0  0  0  0  0  0  0  0
    4.6976   -4.3060    2.1671 Cl  0  0  0  0  0  0  0  0  0  0  0  0
    7.2121   -4.0489    0.3835 Cl  0  0  0  0  0  0  0  0  0  0  0  0
    1.9038    0.1987    0.9903 N   0  0  0  0  0  0  0  0  0  0  0  0
    0.9252    1.2364    0.9193 C   0  0  0  0  0  0  0  0  0  0  0  0
    0.9414    2.3622    1.6600 N   0  0  0  0  0  0  0  0  0  0  0  0
   -0.1261    3.0837    1.3270 C   0  0  0  0  0  0  0  0  0  0  0  0
   -0.7955    2.3779    0.3692 C   0  0  0  0  0  0  0  0  0  0  0  0
   -0.1585    1.2319    0.1049 N   0  0  0  0  0  0  0  0  0  0  0  0
   -0.4698    0.1532   -0.8097 C   0  0  0  0  0  0  0  0  0  0  0  0
   -1.2963   -0.9172   -0.1725 C   0  0  0  0  0  0  0  0  0  0  0  0
   -2.5654   -0.5767    0.3153 N   0  0  0  0  0  0  0  0  0  0  0  0
   -3.6024   -0.2671   -0.5860 C   0  0  0  0  0  0  0  0  0  0  0  0
   -4.3749   -1.5431   -0.9095 C   0  0  0  0  0  0  0  0  0  0  0  0
   -4.0759   -2.3965    0.2801 C   0  0  0  0  0  0  0  0  0  0  0  0
   -3.0974   -1.6255    1.1372 C   0  0  0  0  0  0  0  0  0  0  0  0
   -1.9508    2.9165   -0.1495 C   0  0  0  0  0  0  0  0  0  0  0  0
   -2.4334    4.1428    0.2816 C   0  0  0  0  0  0  0  0  0  0  0  0
   -1.7397    4.8435    1.2549 C   0  0  0  0  0  0  0  0  0  0  0  0
   -0.5847    4.3161    1.7799 C   0  0  0  0  0  0  0  0  0  0  0  0
    5.3282    0.1234   -1.2005 H   0  0  0  0  0  0  0  0  0  0  0  0
    7.0650   -1.6575   -1.1257 H   0  0  0  0  0  0  0  0  0  0  0  0
    3.0726   -2.0686    1.7150 H   0  0  0  0  0  0  0  0  0  0  0  0
    1.7004   -0.5674    1.6713 H   0  0  0  0  0  0  0  0  0  0  0  0
   -0.8894    0.5415   -1.7639 H   0  0  0  0  0  0  0  0  0  0  0  0
    0.4933   -0.3078   -1.1135 H   0  0  0  0  0  0  0  0  0  0  0  0
   -0.6877   -1.3240    0.6650 H   0  0  0  0  0  0  0  0  0  0  0  0
   -1.3852   -1.7532   -0.9194 H   0  0  0  0  0  0  0  0  0  0  0  0
   -4.3501    0.3734   -0.0307 H   0  0  0  0  0  0  0  0  0  0  0  0
   -3.3332    0.2787   -1.5085 H   0  0  0  0  0  0  0  0  0  0  0  0
   -4.0212   -1.9680   -1.8651 H   0  0  0  0  0  0  0  0  0  0  0  0
   -5.4708   -1.3492   -0.9512 H   0  0  0  0  0  0  0  0  0  0  0  0
   -4.9998   -2.6927    0.8544 H   0  0  0  0  0  0  0  0  0  0  0  0
   -3.6366   -3.3594   -0.0653 H   0  0  0  0  0  0  0  0  0  0  0  0
   -3.6517   -1.1839    2.0005 H   0  0  0  0  0  0  0  0  0  0  0  0
   -2.3059   -2.3228    1.5100 H   0  0  0  0  0  0  0  0  0  0  0  0
   -2.4991    2.3959   -0.9019 H   0  0  0  0  0  0  0  0  0  0  0  0
   -3.3494    4.5800   -0.1205 H   0  0  0  0  0  0  0  0  0  0  0  0
   -2.0548    5.8031    1.6380 H   0  0  0  0  0  0  0  0  0  0  0  0
   -0.0217    4.8318    2.5358 H   0  0  0  0  0  0  0  0  0  0  0  0
  1  2  2  0
  2  3  1  0
  3  4  2  0
  4  5  1  0
  5  6  2  0
  6  7  1  0
  7  8  2  0
  7  9  1  0
  6 10  1  0
  2 11  1  0
 11 12  1  0
 12 13  2  0
 13 14  1  0
 14 15  2  0
 15 16  1  0
 16 17  1  0
 17 18  1  0
 18 19  1  0
 19 20  1  0
 20 21  1  0
 21 22  1  0
 22 23  1  0
 15 24  1  0
 24 25  2  0
 25 26  1  0
 26 27  2  0
  8  3  1  0
 16 12  1  0
 23 19  1  0
 27 14  1  0
  4 28  1  0
  5 29  1  0
  8 30  1  0
 11 31  1  0
 17 32  1  0
 17 33  1  0
 18 34  1  0
 18 35  1  0
 20 36  1  0
 20 37  1  0
 21 38  1  0
 21 39  1  0
 22 40  1  0
 22 41  1  0
 23 42  1  0
 23 43  1  0
 24 44  1  0
 25 45  1  0
 26 46  1  0
 27 47  1  0
M  END
>  <Ligand ID>  (1) 
LIG0003084

>  <Ligand>  (1) 
CHEMBL3393991

>  <SMILES>  (1) 
O=C(c1ccc(c(c1)Cl)Cl)Nc1nc2c(n1CCN1CCCC1)cccc2

>  <CID>  (1) 
118725841.0

>  <ChEMBL ID>  (1) 
nan

>  <InChiKey>  (1) 
GMCVIBDVLCHMNN-UHFFFAOYSA-N

>  <InChi>  (1) 
InChI=1S/C20H20Cl2N4O/c21-15-8-7-14(13-16(15)22)19(27)24-20-23-17-5-1-2-6-18(17)26(20)12-11-25-9-3-4-10-25/h1-2,5-8,13H,3-4,9-12H2,(H,23,24,27)

>  <IUPAC Name>  (1) 
3,4-dichloro-N-[1-(2-pyrrolidin-1-ylethyl)benzimidazol-2-yl]benzamide

$$$$
