
     RDKit          3D

 50 50  0  0  0  0  0  0  0  0999 V2000
   -0.9022    4.5884   -1.3534 C   0  0  0  0  0  0  0  0  0  0  0  0
   -0.8821    3.3354   -2.2333 C   0  0  0  0  0  0  0  0  0  0  0  0
   -0.1600    2.2679   -1.4638 C   0  0  0  0  0  0  0  0  0  0  0  0
    1.0875    2.3566   -1.4046 O   0  0  0  0  0  0  0  0  0  0  0  0
   -0.9208    1.2779   -0.8844 O   0  0  0  0  0  0  0  0  0  0  0  0
   -0.2328    0.2267   -0.1385 C   0  0  0  0  0  0  0  0  0  0  0  0
    0.6222   -0.4342   -1.1644 C   0  0  0  0  0  0  0  0  0  0  0  0
    1.9221   -0.9710   -0.6727 C   0  0  0  0  0  0  0  0  0  0  0  0
    3.1021   -0.4133   -1.4435 C   0  0  0  0  0  0  0  0  0  0  0  0
    2.0995   -0.8818    0.7393 N   0  0  0  0  0  0  0  0  0  0  0  0
    1.9166    0.4705    1.1765 C   0  0  0  0  0  0  0  0  0  0  0  0
    0.4556    0.8282    1.0331 C   0  0  0  0  0  0  0  0  0  0  0  0
   -0.1883    0.5545    2.3667 C   0  0  0  0  0  0  0  0  0  0  0  0
    3.4182   -1.3037    1.1315 C   0  0  0  0  0  0  0  0  0  0  0  0
   -1.3473   -0.6497    0.2957 C   0  0  0  0  0  0  0  0  0  0  0  0
   -2.6525   -0.4699   -0.1894 C   0  0  0  0  0  0  0  0  0  0  0  0
   -3.7012   -1.2792    0.1668 C   0  0  0  0  0  0  0  0  0  0  0  0
   -3.5302   -2.3286    1.0325 C   0  0  0  0  0  0  0  0  0  0  0  0
   -2.2634   -2.5358    1.5285 C   0  0  0  0  0  0  0  0  0  0  0  0
   -1.1935   -1.7106    1.1652 C   0  0  0  0  0  0  0  0  0  0  0  0
   -2.0385   -3.6740    2.4789 C   0  0  0  0  0  0  0  0  0  0  0  0
    0.6881    0.0000    0.0000 Cl  0  0  0  0  0  0  0  0  0  0  0  0
   -1.0811    4.2549   -0.3217 H   0  0  0  0  0  0  0  0  0  0  0  0
   -1.6596    5.3238   -1.7062 H   0  0  0  0  0  0  0  0  0  0  0  0
    0.1176    5.0199   -1.4191 H   0  0  0  0  0  0  0  0  0  0  0  0
   -1.9202    3.0277   -2.4740 H   0  0  0  0  0  0  0  0  0  0  0  0
   -0.3766    3.5861   -3.1725 H   0  0  0  0  0  0  0  0  0  0  0  0
    0.7950    0.2016   -2.0430 H   0  0  0  0  0  0  0  0  0  0  0  0
   -0.0050   -1.2878   -1.5691 H   0  0  0  0  0  0  0  0  0  0  0  0
    1.9772   -2.0770   -0.9132 H   0  0  0  0  0  0  0  0  0  0  0  0
    4.0232   -1.0057   -1.2217 H   0  0  0  0  0  0  0  0  0  0  0  0
    3.2363    0.6626   -1.3624 H   0  0  0  0  0  0  0  0  0  0  0  0
    2.9094   -0.6399   -2.5340 H   0  0  0  0  0  0  0  0  0  0  0  0
    2.2178    0.6257    2.2338 H   0  0  0  0  0  0  0  0  0  0  0  0
    2.5681    1.0992    0.5357 H   0  0  0  0  0  0  0  0  0  0  0  0
    0.3805    1.9870    0.9617 H   0  0  0  0  0  0  0  0  0  0  0  0
   -1.2749    0.3987    2.3354 H   0  0  0  0  0  0  0  0  0  0  0  0
    0.3667   -0.1983    2.9758 H   0  0  0  0  0  0  0  0  0  0  0  0
   -0.0767    1.4933    3.0059 H   0  0  0  0  0  0  0  0  0  0  0  0
    3.4759   -1.2336    2.2534 H   0  0  0  0  0  0  0  0  0  0  0  0
    4.2218   -0.6124    0.7748 H   0  0  0  0  0  0  0  0  0  0  0  0
    3.6191   -2.3663    0.8734 H   0  0  0  0  0  0  0  0  0  0  0  0
   -2.8777    0.3374   -0.8810 H   0  0  0  0  0  0  0  0  0  0  0  0
   -4.6941   -1.1150   -0.2236 H   0  0  0  0  0  0  0  0  0  0  0  0
   -4.3069   -2.9934    1.3477 H   0  0  0  0  0  0  0  0  0  0  0  0
   -0.2577   -1.9570    1.5921 H   0  0  0  0  0  0  0  0  0  0  0  0
   -1.7343   -4.5726    1.9391 H   0  0  0  0  0  0  0  0  0  0  0  0
   -1.2682   -3.4128    3.2389 H   0  0  0  0  0  0  0  0  0  0  0  0
   -2.9863   -3.8005    3.0418 H   0  0  0  0  0  0  0  0  0  0  0  0
   -0.6881    0.0000    0.0000 H   0  0  0  0  0  0  0  0  0  0  0  0
  1  2  1  0
  2  3  1  0
  3  4  2  0
  3  5  1  0
  5  6  1  0
  6  7  1  0
  7  8  1  0
  8  9  1  0
  8 10  1  0
 10 11  1  0
 11 12  1  0
 12 13  1  0
 10 14  1  0
  6 15  1  0
 15 16  2  0
 16 17  1  0
 17 18  2  0
 18 19  1  0
 19 20  2  0
 19 21  1  0
 12  6  1  0
 20 15  1  0
  1 23  1  0
  1 24  1  0
  1 25  1  0
  2 26  1  0
  2 27  1  0
  7 28  1  0
  7 29  1  0
  8 30  1  0
  9 31  1  0
  9 32  1  0
  9 33  1  0
 11 34  1  0
 11 35  1  0
 12 36  1  0
 13 37  1  0
 13 38  1  0
 13 39  1  0
 14 40  1  0
 14 41  1  0
 14 42  1  0
 16 43  1  0
 17 44  1  0
 18 45  1  0
 20 46  1  0
 21 47  1  0
 21 48  1  0
 21 49  1  0
 22 50  1  0
M  END
>  <Ligand ID>  (1) 
LIG0004045

>  <Ligand>  (1) 
SMR000008816

>  <SMILES>  (1) 
CCC(=O)OC1(CC(C)N(CC1C)C)c1cccc(c1)C.Cl

>  <CID>  (1) 
6602574.0

>  <ChEMBL ID>  (1) 
nan

>  <InChiKey>  (1) 
HAATWFAYFURVEL-UHFFFAOYSA-N

>  <InChi>  (1) 
InChI=1S/C18H27NO2.ClH/c1-6-17(20)21-18(16-9-7-8-13(2)10-16)11-15(4)19(5)12-14(18)3;/h7-10,14-15H,6,11-12H2,1-5H3;1H

>  <IUPAC Name>  (1) 
[1,2,5-trimethyl-4-(3-methylphenyl)piperidin-4-yl] propanoate;hydrochloride

$$$$
