
     RDKit          3D

 58 62  0  0  0  0  0  0  0  0999 V2000
   -1.1144    4.7800   -1.2039 C   0  0  0  0  0  0  0  0  0  0  0  0
   -2.3031    4.1558   -1.6290 O   0  0  0  0  0  0  0  0  0  0  0  0
   -2.4921    2.8103   -1.4836 C   0  0  0  0  0  0  0  0  0  0  0  0
   -1.6164    1.9172   -0.9194 C   0  0  0  0  0  0  0  0  0  0  0  0
   -1.8806    0.5827   -0.8186 C   0  0  0  0  0  0  0  0  0  0  0  0
   -3.1063    0.1097   -1.3110 C   0  0  0  0  0  0  0  0  0  0  0  0
   -3.9817    0.9880   -1.8693 C   0  0  0  0  0  0  0  0  0  0  0  0
   -3.7599    2.3135   -1.9937 C   0  0  0  0  0  0  0  0  0  0  0  0
   -4.5174    3.2506   -2.5202 O   0  0  0  0  0  0  0  0  0  0  0  0
   -5.2488    4.1554   -3.0287 C   0  0  0  0  0  0  0  0  0  0  0  0
   -3.2929   -1.2105   -1.1894 N   0  0  0  0  0  0  0  0  0  0  0  0
   -2.4208   -2.0628   -0.6502 C   0  0  0  0  0  0  0  0  0  0  0  0
   -1.2648   -1.5691   -0.1966 N   0  0  0  0  0  0  0  0  0  0  0  0
   -0.9434   -0.2328   -0.2615 C   0  0  0  0  0  0  0  0  0  0  0  0
    0.3201    0.0946    0.2341 N   0  0  0  0  0  0  0  0  0  0  0  0
    1.4284    0.7243   -0.4252 C   0  0  0  0  0  0  0  0  0  0  0  0
    2.5058    1.0911    0.6124 C   0  0  0  0  0  0  0  0  0  0  0  0
    2.9375   -0.2021    1.1845 N   0  0  0  0  0  0  0  0  0  0  0  0
    1.9078   -1.1433    1.4923 C   0  0  0  0  0  0  0  0  0  0  0  0
    0.5898   -0.3429    1.6328 C   0  0  0  0  0  0  0  0  0  0  0  0
    4.3145   -0.3715    1.3724 C   0  0  0  0  0  0  0  0  0  0  0  0
    5.2351   -0.5915    0.3910 C   0  0  0  0  0  0  0  0  0  0  0  0
    6.5886   -0.7206    0.5631 C   0  0  0  0  0  0  0  0  0  0  0  0
    7.0490   -0.6138    1.8873 C   0  0  0  0  0  0  0  0  0  0  0  0
    6.1335   -0.3926    2.8856 C   0  0  0  0  0  0  0  0  0  0  0  0
    4.7774   -0.2648    2.7005 C   0  0  0  0  0  0  0  0  0  0  0  0
    3.9207   -0.0658    3.7312 F   0  0  0  0  0  0  0  0  0  0  0  0
   -2.6109   -3.5321   -0.5398 C   0  0  0  0  0  0  0  0  0  0  0  0
   -3.2493   -3.9793    0.7832 C   0  0  0  0  0  0  0  0  0  0  0  0
   -1.9129   -4.5070    1.2124 C   0  0  0  0  0  0  0  0  0  0  0  0
   -1.3753   -4.2803   -0.1820 C   0  0  0  0  0  0  0  0  0  0  0  0
   -0.6811    4.3281   -0.3128 H   0  0  0  0  0  0  0  0  0  0  0  0
   -1.2788    5.8898   -1.0674 H   0  0  0  0  0  0  0  0  0  0  0  0
   -0.3813    4.7112   -2.0709 H   0  0  0  0  0  0  0  0  0  0  0  0
   -0.6980    2.3229   -0.5267 H   0  0  0  0  0  0  0  0  0  0  0  0
   -4.9244    0.5896   -2.2313 H   0  0  0  0  0  0  0  0  0  0  0  0
   -6.1725    3.7498   -3.5354 H   0  0  0  0  0  0  0  0  0  0  0  0
   -5.5926    4.9252   -2.2573 H   0  0  0  0  0  0  0  0  0  0  0  0
   -4.7271    4.8246   -3.8032 H   0  0  0  0  0  0  0  0  0  0  0  0
    1.2804    1.5754   -1.0500 H   0  0  0  0  0  0  0  0  0  0  0  0
    1.9580   -0.0922   -1.0313 H   0  0  0  0  0  0  0  0  0  0  0  0
    3.3196    1.5841    0.0610 H   0  0  0  0  0  0  0  0  0  0  0  0
    2.1169    1.7664    1.3919 H   0  0  0  0  0  0  0  0  0  0  0  0
    1.7275   -1.7754    0.5673 H   0  0  0  0  0  0  0  0  0  0  0  0
    2.0870   -1.8040    2.3415 H   0  0  0  0  0  0  0  0  0  0  0  0
   -0.2266   -0.9580    2.0299 H   0  0  0  0  0  0  0  0  0  0  0  0
    0.8172    0.5157    2.2776 H   0  0  0  0  0  0  0  0  0  0  0  0
    4.8700   -0.6778   -0.6384 H   0  0  0  0  0  0  0  0  0  0  0  0
    7.2970   -0.8946   -0.2407 H   0  0  0  0  0  0  0  0  0  0  0  0
    8.0705   -0.6986    2.1582 H   0  0  0  0  0  0  0  0  0  0  0  0
    6.4994   -0.3131    3.9037 H   0  0  0  0  0  0  0  0  0  0  0  0
   -3.1744   -3.9505   -1.4041 H   0  0  0  0  0  0  0  0  0  0  0  0
   -4.0266   -4.7640    0.6207 H   0  0  0  0  0  0  0  0  0  0  0  0
   -3.6927   -3.1769    1.3633 H   0  0  0  0  0  0  0  0  0  0  0  0
   -1.4055   -3.9745    2.0433 H   0  0  0  0  0  0  0  0  0  0  0  0
   -2.0158   -5.6038    1.4749 H   0  0  0  0  0  0  0  0  0  0  0  0
   -1.2347   -5.2752   -0.7034 H   0  0  0  0  0  0  0  0  0  0  0  0
   -0.4288   -3.7144   -0.2268 H   0  0  0  0  0  0  0  0  0  0  0  0
  1  2  1  0
  2  3  1  0
  3  4  2  0
  4  5  1  0
  5  6  2  0
  6  7  1  0
  7  8  2  0
  8  9  1  0
  9 10  1  0
  6 11  1  0
 11 12  2  0
 12 13  1  0
 13 14  2  0
 14 15  1  0
 15 16  1  0
 16 17  1  0
 17 18  1  0
 18 19  1  0
 19 20  1  0
 18 21  1  0
 21 22  2  0
 22 23  1  0
 23 24  2  0
 24 25  1  0
 25 26  2  0
 26 27  1  0
 12 28  1  0
 28 29  1  0
 29 30  1  0
 30 31  1  0
  8  3  1  0
 20 15  1  0
 26 21  1  0
 31 28  1  0
 14  5  1  0
  1 32  1  0
  1 33  1  0
  1 34  1  0
  4 35  1  0
  7 36  1  0
 10 37  1  0
 10 38  1  0
 10 39  1  0
 16 40  1  0
 16 41  1  0
 17 42  1  0
 17 43  1  0
 19 44  1  0
 19 45  1  0
 20 46  1  0
 20 47  1  0
 22 48  1  0
 23 49  1  0
 24 50  1  0
 25 51  1  0
 28 52  1  0
 29 53  1  0
 29 54  1  0
 30 55  1  0
 30 56  1  0
 31 57  1  0
 31 58  1  0
M  END
>  <Ligand ID>  (1) 
LIG0004754

>  <Ligand>  (1) 
CHEMBL2431233

>  <SMILES>  (1) 
COc1cc2c(cc1OC)nc(nc2N1CCN(CC1)c1ccccc1F)C1CCC1

>  <CID>  (1) 
52914822.0

>  <ChEMBL ID>  (1) 
nan

>  <InChiKey>  (1) 
GNFDMFYTUKMSND-UHFFFAOYSA-N

>  <InChi>  (1) 
InChI=1S/C24H27FN4O2/c1-30-21-14-17-19(15-22(21)31-2)26-23(16-6-5-7-16)27-24(17)29-12-10-28(11-13-29)20-9-4-3-8-18(20)25/h3-4,8-9,14-16H,5-7,10-13H2,1-2H3

>  <IUPAC Name>  (1) 
2-cyclobutyl-4-[4-(2-fluorophenyl)piperazin-1-yl]-6,7-dimethoxyquinazoline

$$$$
