
     RDKit          3D

 42 43  0  0  0  0  0  0  0  0999 V2000
    5.5910    1.0768   -2.2486 O   0  0  0  0  0  0  0  0  0  0  0  0
    5.7516    0.9726   -0.8623 C   0  0  0  0  0  0  0  0  0  0  0  0
    6.9355    1.0037   -0.3711 O   0  0  0  0  0  0  0  0  0  0  0  0
    4.5605    0.8235    0.0584 C   0  0  0  0  0  0  0  0  0  0  0  0
    4.7686   -0.3805    0.8975 C   0  0  0  0  0  0  0  0  0  0  0  0
    3.7340   -0.7080    1.9301 C   0  0  0  0  0  0  0  0  0  0  0  0
    2.4770   -0.9192    1.5578 O   0  0  0  0  0  0  0  0  0  0  0  0
    1.3671   -0.4371    1.0215 C   0  0  0  0  0  0  0  0  0  0  0  0
    1.1145    0.8335    0.5660 C   0  0  0  0  0  0  0  0  0  0  0  0
   -0.0776    1.2518    0.0236 C   0  0  0  0  0  0  0  0  0  0  0  0
   -1.0940    0.3386   -0.0725 C   0  0  0  0  0  0  0  0  0  0  0  0
   -0.9219   -0.9511    0.3596 C   0  0  0  0  0  0  0  0  0  0  0  0
    0.2753   -1.3298    0.8927 C   0  0  0  0  0  0  0  0  0  0  0  0
    0.4465   -2.7471    1.3652 C   0  0  0  0  0  0  0  0  0  0  0  0
   -2.4050    0.6758   -0.6269 C   0  0  0  0  0  0  0  0  0  0  0  0
   -3.5543    0.2350    0.0433 C   0  0  0  0  0  0  0  0  0  0  0  0
   -4.7915    0.5586   -0.4845 C   0  0  0  0  0  0  0  0  0  0  0  0
   -4.9252    1.2948   -1.6441 C   0  0  0  0  0  0  0  0  0  0  0  0
   -3.7678    1.7045   -2.2657 C   0  0  0  0  0  0  0  0  0  0  0  0
   -2.5082    1.4155   -1.7885 C   0  0  0  0  0  0  0  0  0  0  0  0
   -1.1260    2.0006   -2.6790 Cl  0  0  0  0  0  0  0  0  0  0  0  0
   -5.9532    0.1477    0.1402 O   0  0  0  0  0  0  0  0  0  0  0  0
   -6.6061   -1.0634   -0.1213 C   0  0  0  0  0  0  0  0  0  0  0  0
   -7.7275   -1.0782    0.7197 F   0  0  0  0  0  0  0  0  0  0  0  0
   -7.0781   -1.1647   -1.4185 F   0  0  0  0  0  0  0  0  0  0  0  0
   -5.8550   -2.1638    0.2235 F   0  0  0  0  0  0  0  0  0  0  0  0
    6.3757    1.0345   -2.8821 H   0  0  0  0  0  0  0  0  0  0  0  0
    4.5189    1.7299    0.6622 H   0  0  0  0  0  0  0  0  0  0  0  0
    3.6856    0.6532   -0.6102 H   0  0  0  0  0  0  0  0  0  0  0  0
    5.7967   -0.3563    1.3975 H   0  0  0  0  0  0  0  0  0  0  0  0
    4.9063   -1.2515    0.1770 H   0  0  0  0  0  0  0  0  0  0  0  0
    4.1982   -1.6226    2.4743 H   0  0  0  0  0  0  0  0  0  0  0  0
    3.8188    0.0549    2.7903 H   0  0  0  0  0  0  0  0  0  0  0  0
    1.8935    1.5826    0.6323 H   0  0  0  0  0  0  0  0  0  0  0  0
   -0.2209    2.2835   -0.3183 H   0  0  0  0  0  0  0  0  0  0  0  0
   -1.7177   -1.6572    0.2826 H   0  0  0  0  0  0  0  0  0  0  0  0
   -0.4169   -3.3480    1.0207 H   0  0  0  0  0  0  0  0  0  0  0  0
    0.4326   -2.7869    2.4726 H   0  0  0  0  0  0  0  0  0  0  0  0
    1.3430   -3.2110    0.9282 H   0  0  0  0  0  0  0  0  0  0  0  0
   -3.4591   -0.3543    0.9681 H   0  0  0  0  0  0  0  0  0  0  0  0
   -5.9046    1.5277   -2.0297 H   0  0  0  0  0  0  0  0  0  0  0  0
   -3.8802    2.2890   -3.1814 H   0  0  0  0  0  0  0  0  0  0  0  0
  1  2  1  0
  2  3  2  0
  2  4  1  0
  4  5  1  0
  5  6  1  0
  6  7  1  0
  7  8  1  0
  8  9  2  0
  9 10  1  0
 10 11  2  0
 11 12  1  0
 12 13  2  0
 13 14  1  0
 11 15  1  0
 15 16  2  0
 16 17  1  0
 17 18  2  0
 18 19  1  0
 19 20  2  0
 20 21  1  0
 17 22  1  0
 22 23  1  0
 23 24  1  0
 23 25  1  0
 23 26  1  0
 13  8  1  0
 20 15  1  0
  1 27  1  0
  4 28  1  0
  4 29  1  0
  5 30  1  0
  5 31  1  0
  6 32  1  0
  6 33  1  0
  9 34  1  0
 10 35  1  0
 12 36  1  0
 14 37  1  0
 14 38  1  0
 14 39  1  0
 16 40  1  0
 18 41  1  0
 19 42  1  0
M  END
>  <Ligand ID>  (1) 
LIG0003623

>  <Ligand>  (1) 
CHEMBL3892019

>  <SMILES>  (1) 
OC(=O)CCCOc1ccc(cc1C)c1cc(ccc1Cl)OC(F)(F)F

>  <CID>  (1) 
134136175.0

>  <ChEMBL ID>  (1) 
nan

>  <InChiKey>  (1) 
OPGFQWLYSBRJTF-UHFFFAOYSA-N

>  <InChi>  (1) 
InChI=1S/C18H16ClF3O4/c1-11-9-12(4-7-16(11)25-8-2-3-17(23)24)14-10-13(5-6-15(14)19)26-18(20,21)22/h4-7,9-10H,2-3,8H2,1H3,(H,23,24)

>  <IUPAC Name>  (1) 
4-[4-[2-chloro-5-(trifluoromethoxy)phenyl]-2-methylphenoxy]butanoic acid

$$$$
