
     RDKit          3D

 44 47  0  0  0  0  0  0  0  0999 V2000
    6.4763   -0.3556   -3.1867 F   0  0  0  0  0  0  0  0  0  0  0  0
    5.3180    0.3918   -3.0954 C   0  0  0  0  0  0  0  0  0  0  0  0
    4.7251    0.1506   -1.7602 C   0  0  0  0  0  0  0  0  0  0  0  0
    4.1751    1.2042   -1.0605 C   0  0  0  0  0  0  0  0  0  0  0  0
    3.6153    1.0041    0.1880 C   0  0  0  0  0  0  0  0  0  0  0  0
    3.5706   -0.2204    0.7963 C   0  0  0  0  0  0  0  0  0  0  0  0
    4.1224   -1.2879    0.0990 C   0  0  0  0  0  0  0  0  0  0  0  0
    4.6866   -1.0920   -1.1564 C   0  0  0  0  0  0  0  0  0  0  0  0
    2.9822   -0.5014    2.1153 C   0  0  0  0  0  0  0  0  0  0  0  0
    1.2659   -1.0348    2.0486 S   0  0  0  0  0  0  0  0  0  0  0  0
    0.2276    0.2893    1.4810 C   0  0  0  0  0  0  0  0  0  0  0  0
    0.5080    1.5425    1.1226 N   0  0  0  0  0  0  0  0  0  0  0  0
   -0.6007    2.1277    0.7794 N   0  0  0  0  0  0  0  0  0  0  0  0
   -1.6384    1.2848    0.9002 C   0  0  0  0  0  0  0  0  0  0  0  0
   -1.1245    0.1349    1.3384 N   0  0  0  0  0  0  0  0  0  0  0  0
   -1.9064   -1.0502    1.6042 C   0  0  0  0  0  0  0  0  0  0  0  0
   -2.0604   -1.9512    0.4609 C   0  0  0  0  0  0  0  0  0  0  0  0
   -3.1110   -1.8500   -0.4519 C   0  0  0  0  0  0  0  0  0  0  0  0
   -2.9045   -2.8736   -1.3788 C   0  0  0  0  0  0  0  0  0  0  0  0
   -1.7528   -3.5335   -0.9831 C   0  0  0  0  0  0  0  0  0  0  0  0
   -1.2944   -2.9551    0.1014 O   0  0  0  0  0  0  0  0  0  0  0  0
   -3.0101    1.6569    0.5874 C   0  0  0  0  0  0  0  0  0  0  0  0
   -3.3465    1.7149   -0.7569 C   0  0  0  0  0  0  0  0  0  0  0  0
   -4.6168    2.0564   -1.1700 C   0  0  0  0  0  0  0  0  0  0  0  0
   -5.5505    2.3416   -0.1714 C   0  0  0  0  0  0  0  0  0  0  0  0
   -5.2101    2.2825    1.1709 C   0  0  0  0  0  0  0  0  0  0  0  0
   -3.9363    1.9384    1.5205 N   0  0  0  0  0  0  0  0  0  0  0  0
    4.3995    0.0722   -4.0975 F   0  0  0  0  0  0  0  0  0  0  0  0
    5.6671    1.7424   -3.1719 F   0  0  0  0  0  0  0  0  0  0  0  0
    4.1801    2.2095   -1.4944 H   0  0  0  0  0  0  0  0  0  0  0  0
    3.2124    1.8547    0.6843 H   0  0  0  0  0  0  0  0  0  0  0  0
    4.1238   -2.2885    0.5181 H   0  0  0  0  0  0  0  0  0  0  0  0
    5.1230   -1.9252   -1.7122 H   0  0  0  0  0  0  0  0  0  0  0  0
    3.1081    0.4028    2.7672 H   0  0  0  0  0  0  0  0  0  0  0  0
    3.6031   -1.3037    2.6135 H   0  0  0  0  0  0  0  0  0  0  0  0
   -2.8769   -0.7103    2.0367 H   0  0  0  0  0  0  0  0  0  0  0  0
   -1.3882   -1.5461    2.4747 H   0  0  0  0  0  0  0  0  0  0  0  0
   -3.9261   -1.1384   -0.4624 H   0  0  0  0  0  0  0  0  0  0  0  0
   -3.5288   -3.1027   -2.2399 H   0  0  0  0  0  0  0  0  0  0  0  0
   -1.3243   -4.3904   -1.5098 H   0  0  0  0  0  0  0  0  0  0  0  0
   -2.5993    1.4872   -1.5324 H   0  0  0  0  0  0  0  0  0  0  0  0
   -4.8636    2.0973   -2.2218 H   0  0  0  0  0  0  0  0  0  0  0  0
   -6.5663    2.6155   -0.4708 H   0  0  0  0  0  0  0  0  0  0  0  0
   -5.9534    2.5087    1.9369 H   0  0  0  0  0  0  0  0  0  0  0  0
  1  2  1  0
  2  3  1  0
  3  4  2  0
  4  5  1  0
  5  6  2  0
  6  7  1  0
  7  8  2  0
  6  9  1  0
  9 10  1  0
 10 11  1  0
 11 12  2  0
 12 13  1  0
 13 14  2  0
 14 15  1  0
 15 16  1  0
 16 17  1  0
 17 18  2  0
 18 19  1  0
 19 20  2  0
 20 21  1  0
 14 22  1  0
 22 23  2  0
 23 24  1  0
 24 25  2  0
 25 26  1  0
 26 27  2  0
  2 28  1  0
  2 29  1  0
  8  3  1  0
 15 11  1  0
 21 17  1  0
 27 22  1  0
  4 30  1  0
  5 31  1  0
  7 32  1  0
  8 33  1  0
  9 34  1  0
  9 35  1  0
 16 36  1  0
 16 37  1  0
 18 38  1  0
 19 39  1  0
 20 40  1  0
 23 41  1  0
 24 42  1  0
 25 43  1  0
 26 44  1  0
M  END
>  <Ligand ID>  (1) 
LIG0002769

>  <Ligand>  (1) 
KUC104178N

>  <SMILES>  (1) 
FC(c1ccc(cc1)CSc1nnc(n1Cc1ccco1)c1ccccn1)(F)F

>  <CID>  (1) 
44620937.0

>  <ChEMBL ID>  (1) 
nan

>  <InChiKey>  (1) 
AODNIJAWBVNEKG-UHFFFAOYSA-N

>  <InChi>  (1) 
InChI=1S/C20H15F3N4OS/c21-20(22,23)15-8-6-14(7-9-15)13-29-19-26-25-18(17-5-1-2-10-24-17)27(19)12-16-4-3-11-28-16/h1-11H,12-13H2

>  <IUPAC Name>  (1) 
2-[4-(furan-2-ylmethyl)-5-[[4-(trifluoromethyl)phenyl]methylsulfanyl]-1,2,4-triazol-3-yl]pyridine

$$$$
