
     RDKit          3D

 33 33  0  0  0  0  0  0  0  0999 V2000
   -4.2336    0.2160    2.3550 C   0  0  0  0  0  0  0  0  0  0  0  0
   -4.9841   -0.1895    1.1573 C   0  0  0  0  0  0  0  0  0  0  0  0
   -4.3323   -0.3105    0.0098 C   0  0  0  0  0  0  0  0  0  0  0  0
   -2.9060   -0.0552   -0.0963 C   0  0  0  0  0  0  0  0  0  0  0  0
   -1.7254    0.1717   -0.1889 C   0  0  0  0  0  0  0  0  0  0  0  0
   -0.3171    0.4595   -0.3183 C   0  0  0  0  0  0  0  0  0  0  0  0
    0.1905    0.5119   -1.5934 C   0  0  0  0  0  0  0  0  0  0  0  0
    1.5345    0.7757   -1.7763 C   0  0  0  0  0  0  0  0  0  0  0  0
    2.3965    0.9909   -0.7134 C   0  0  0  0  0  0  0  0  0  0  0  0
    1.8657    0.9355    0.5530 C   0  0  0  0  0  0  0  0  0  0  0  0
    0.5120    0.6699    0.7518 C   0  0  0  0  0  0  0  0  0  0  0  0
    2.6620    1.1553    1.6261 F   0  0  0  0  0  0  0  0  0  0  0  0
    3.8107    1.2457   -1.0177 C   0  0  0  0  0  0  0  0  0  0  0  0
    4.7226    0.0780   -0.8665 C   0  0  0  0  0  0  0  0  0  0  0  0
    4.7124   -0.4614    0.5105 C   0  0  0  0  0  0  0  0  0  0  0  0
    3.9478   -1.4332    0.8424 O   0  0  0  0  0  0  0  0  0  0  0  0
    5.5596    0.1095    1.4688 O   0  0  0  0  0  0  0  0  0  0  0  0
   -5.0965   -0.7262   -1.2220 C   0  0  0  0  0  0  0  0  0  0  0  0
   -4.6968   -0.2712    3.2547 H   0  0  0  0  0  0  0  0  0  0  0  0
   -3.1711   -0.0722    2.2840 H   0  0  0  0  0  0  0  0  0  0  0  0
   -4.3879    1.3135    2.5039 H   0  0  0  0  0  0  0  0  0  0  0  0
   -6.0439   -0.3763    1.2488 H   0  0  0  0  0  0  0  0  0  0  0  0
   -0.4390    0.3546   -2.4554 H   0  0  0  0  0  0  0  0  0  0  0  0
    1.9204    0.8172   -2.7795 H   0  0  0  0  0  0  0  0  0  0  0  0
    0.0864    0.6239    1.7603 H   0  0  0  0  0  0  0  0  0  0  0  0
    3.9474    1.6346   -2.0682 H   0  0  0  0  0  0  0  0  0  0  0  0
    4.1495    2.0983   -0.3619 H   0  0  0  0  0  0  0  0  0  0  0  0
    5.7928    0.3617   -1.0690 H   0  0  0  0  0  0  0  0  0  0  0  0
    4.5096   -0.7419   -1.5867 H   0  0  0  0  0  0  0  0  0  0  0  0
    5.6965   -0.3956    2.3359 H   0  0  0  0  0  0  0  0  0  0  0  0
   -6.1214   -0.9780   -0.9419 H   0  0  0  0  0  0  0  0  0  0  0  0
   -4.5308   -1.5985   -1.6271 H   0  0  0  0  0  0  0  0  0  0  0  0
   -5.0308    0.0936   -1.9798 H   0  0  0  0  0  0  0  0  0  0  0  0
  1  2  1  0
  2  3  2  0
  3  4  1  0
  4  5  3  0
  5  6  1  0
  6  7  2  0
  7  8  1  0
  8  9  2  0
  9 10  1  0
 10 11  2  0
 10 12  1  0
  9 13  1  0
 13 14  1  0
 14 15  1  0
 15 16  2  0
 15 17  1  0
  3 18  1  0
 11  6  1  0
  1 19  1  0
  1 20  1  0
  1 21  1  0
  2 22  1  0
  7 23  1  0
  8 24  1  0
 11 25  1  0
 13 26  1  0
 13 27  1  0
 14 28  1  0
 14 29  1  0
 17 30  1  0
 18 31  1  0
 18 32  1  0
 18 33  1  0
M  END
>  <Ligand ID>  (1) 
LIG0005581

>  <Ligand>  (1) 
CHEMBL3785637

>  <SMILES>  (1) 
C/C=C(\C#Cc1ccc(c(c1)F)CCC(=O)O)/C

>  <CID>  (1) 
66562288.0

>  <ChEMBL ID>  (1) 
nan

>  <InChiKey>  (1) 
ZHOWKHLSVSSENE-JYOAFUTRSA-N

>  <InChi>  (1) 
InChI=1S/C15H15FO2/c1-3-11(2)4-5-12-6-7-13(14(16)10-12)8-9-15(17)18/h3,6-7,10H,8-9H2,1-2H3,(H,17,18)/b11-3-

>  <IUPAC Name>  (1) 
3-[2-fluoro-4-[(Z)-3-methylpent-3-en-1-ynyl]phenyl]propanoic acid

$$$$
