
     RDKit          3D

 37 39  0  0  0  0  0  0  0  0999 V2000
    4.2529   -0.3018   -1.7315 C   0  0  0  0  0  0  0  0  0  0  0  0
    4.1516    1.1180   -1.1974 C   0  0  0  0  0  0  0  0  0  0  0  0
    3.8779    1.1353    0.5458 S   0  0  0  0  0  0  0  0  0  0  0  0
    5.0599    0.5233    1.2399 O   0  0  0  0  0  0  0  0  0  0  0  0
    3.7491    2.6036    0.9280 O   0  0  0  0  0  0  0  0  0  0  0  0
    2.4271    0.3327    1.0065 N   0  0  0  0  0  0  0  0  0  0  0  0
    1.1367    0.7324    0.5955 C   0  0  0  0  0  0  0  0  0  0  0  0
    0.8870    1.8923   -0.1132 C   0  0  0  0  0  0  0  0  0  0  0  0
   -0.3745    2.2793   -0.5091 C   0  0  0  0  0  0  0  0  0  0  0  0
   -1.4736    1.5028   -0.2060 C   0  0  0  0  0  0  0  0  0  0  0  0
   -1.2595    0.3478    0.4952 C   0  0  0  0  0  0  0  0  0  0  0  0
    0.0043   -0.0379    0.8907 C   0  0  0  0  0  0  0  0  0  0  0  0
   -0.1027   -1.3426    1.6351 C   0  0  0  0  0  0  0  0  0  0  0  0
   -1.3906   -1.9101    1.0217 C   0  0  0  0  0  0  0  0  0  0  0  0
   -2.2210   -0.6719    0.9589 C   0  0  0  0  0  0  0  0  0  0  0  0
   -3.4132   -0.7811    0.0985 C   0  0  0  0  0  0  0  0  0  0  0  0
   -3.5943   -1.5619   -0.9604 N   0  0  0  0  0  0  0  0  0  0  0  0
   -4.8441   -1.3471   -1.4626 C   0  0  0  0  0  0  0  0  0  0  0  0
   -5.4272   -0.3931   -0.6599 C   0  0  0  0  0  0  0  0  0  0  0  0
   -4.5465   -0.0481    0.2969 N   0  0  0  0  0  0  0  0  0  0  0  0
    4.7915   -0.2330   -2.7002 H   0  0  0  0  0  0  0  0  0  0  0  0
    4.7884   -0.9334   -0.9894 H   0  0  0  0  0  0  0  0  0  0  0  0
    3.2562   -0.7329   -1.9361 H   0  0  0  0  0  0  0  0  0  0  0  0
    3.4246    1.6740   -1.7851 H   0  0  0  0  0  0  0  0  0  0  0  0
    5.1444    1.5740   -1.3931 H   0  0  0  0  0  0  0  0  0  0  0  0
    2.4959   -0.5043    1.6298 H   0  0  0  0  0  0  0  0  0  0  0  0
    1.7023    2.5484   -0.3822 H   0  0  0  0  0  0  0  0  0  0  0  0
   -0.5117    3.2029   -1.0652 H   0  0  0  0  0  0  0  0  0  0  0  0
   -2.4304    1.8582   -0.5423 H   0  0  0  0  0  0  0  0  0  0  0  0
    0.7610   -1.9913    1.4893 H   0  0  0  0  0  0  0  0  0  0  0  0
   -0.3403   -1.1058    2.6874 H   0  0  0  0  0  0  0  0  0  0  0  0
   -1.7333   -2.6880    1.7046 H   0  0  0  0  0  0  0  0  0  0  0  0
   -1.0927   -2.2780    0.0150 H   0  0  0  0  0  0  0  0  0  0  0  0
   -2.5062   -0.4197    2.0037 H   0  0  0  0  0  0  0  0  0  0  0  0
   -2.9099   -2.2541   -1.3834 H   0  0  0  0  0  0  0  0  0  0  0  0
   -5.3122   -1.8170   -2.3191 H   0  0  0  0  0  0  0  0  0  0  0  0
   -6.4268    0.0283   -0.7582 H   0  0  0  0  0  0  0  0  0  0  0  0
  1  2  1  0
  2  3  1  0
  3  4  2  0
  3  5  2  0
  3  6  1  0
  6  7  1  0
  7  8  2  0
  8  9  1  0
  9 10  2  0
 10 11  1  0
 11 12  2  0
 12 13  1  0
 13 14  1  0
 14 15  1  0
 15 16  1  0
 16 17  1  0
 17 18  1  0
 18 19  2  0
 19 20  1  0
 12  7  1  0
 20 16  2  0
 15 11  1  0
  1 21  1  0
  1 22  1  0
  1 23  1  0
  2 24  1  0
  2 25  1  0
  6 26  1  0
  8 27  1  0
  9 28  1  0
 10 29  1  0
 13 30  1  0
 13 31  1  0
 14 32  1  0
 14 33  1  0
 15 34  1  0
 17 35  1  0
 18 36  1  0
 19 37  1  0
M  END
>  <Ligand ID>  (1) 
LIG0001959

>  <Ligand>  (1) 
CHEMBL404566

>  <SMILES>  (1) 
CCS(=O)(=O)Nc1cccc2c1CCC2c1[nH]ccn1

>  <CID>  (1) 
44449305.0

>  <ChEMBL ID>  (1) 
nan

>  <InChiKey>  (1) 
VHKRHCDBRNOWND-UHFFFAOYSA-N

>  <InChi>  (1) 
InChI=1S/C14H17N3O2S/c1-2-20(18,19)17-13-5-3-4-10-11(13)6-7-12(10)14-15-8-9-16-14/h3-5,8-9,12,17H,2,6-7H2,1H3,(H,15,16)

>  <IUPAC Name>  (1) 
N-[1-(1H-imidazol-2-yl)-2,3-dihydro-1H-inden-4-yl]ethanesulfonamide

$$$$
