
     RDKit          3D

 74 77  0  0  0  0  0  0  0  0999 V2000
   -4.8205    5.6922   -1.9696 C   0  0  0  0  0  0  0  0  0  0  0  0
   -3.4439    6.0541   -1.4868 C   0  0  0  0  0  0  0  0  0  0  0  0
   -2.9286    5.0813   -0.4476 C   0  0  0  0  0  0  0  0  0  0  0  0
   -2.8405    3.6847   -0.9638 C   0  0  0  0  0  0  0  0  0  0  0  0
   -3.1780    3.5008   -2.1454 O   0  0  0  0  0  0  0  0  0  0  0  0
   -2.3812    2.6806   -0.0712 N   0  0  0  0  0  0  0  0  0  0  0  0
   -1.9603    3.0334    1.2819 C   0  0  0  0  0  0  0  0  0  0  0  0
   -1.2122    1.9136    1.9651 C   0  0  0  0  0  0  0  0  0  0  0  0
   -0.3446    1.1969    0.9555 C   0  0  2  0  0  0  0  0  0  0  0  0
   -1.2844    0.5341    0.0123 C   0  0  0  0  0  0  0  0  0  0  0  0
   -2.3129    1.3126   -0.4846 C   0  0  0  0  0  0  0  0  0  0  0  0
   -3.2657    0.8342   -1.3595 C   0  0  0  0  0  0  0  0  0  0  0  0
   -3.1475   -0.4941   -1.7316 C   0  0  0  0  0  0  0  0  0  0  0  0
   -2.1165   -1.3036   -1.2446 C   0  0  0  0  0  0  0  0  0  0  0  0
   -1.1727   -0.7881   -0.3630 C   0  0  0  0  0  0  0  0  0  0  0  0
   -2.0585   -2.7162   -1.6893 C   0  0  0  0  0  0  0  0  0  0  0  0
   -2.7828   -3.5959   -0.7490 C   0  0  0  0  0  0  0  0  0  0  0  0
   -4.1322   -3.8745   -0.8432 C   0  0  0  0  0  0  0  0  0  0  0  0
   -4.6570   -4.7189    0.1133 C   0  0  0  0  0  0  0  0  0  0  0  0
   -3.9202   -5.2789    1.1254 C   0  0  0  0  0  0  0  0  0  0  0  0
   -2.5775   -4.9953    1.2107 C   0  0  0  0  0  0  0  0  0  0  0  0
   -2.0277   -4.1617    0.2775 C   0  0  0  0  0  0  0  0  0  0  0  0
    0.5129    0.2237    1.5669 N   0  0  0  0  0  0  0  0  0  0  0  0
    1.9399    0.2673    1.5268 C   0  0  0  0  0  0  0  0  0  0  0  0
    2.4210    1.2681    0.8858 O   0  0  0  0  0  0  0  0  0  0  0  0
    2.7960   -0.7447    2.1633 C   0  0  2  0  0  0  0  0  0  0  0  0
    3.4788   -1.7229    1.2886 C   0  0  0  0  0  0  0  0  0  0  0  0
    4.3895   -1.2346    0.2696 C   0  0  0  0  0  0  0  0  0  0  0  0
    4.0404   -0.7798   -0.9826 C   0  0  0  0  0  0  0  0  0  0  0  0
    2.6373   -0.8174   -1.4688 C   0  0  0  0  0  0  0  0  0  0  0  0
    4.9823   -0.2884   -1.8893 C   0  0  0  0  0  0  0  0  0  0  0  0
    6.3109   -0.2382   -1.5686 C   0  0  0  0  0  0  0  0  0  0  0  0
    6.6834   -0.6893   -0.3216 C   0  0  0  0  0  0  0  0  0  0  0  0
    5.7555   -1.1732    0.5729 C   0  0  0  0  0  0  0  0  0  0  0  0
    6.2063   -1.6568    1.9260 C   0  0  0  0  0  0  0  0  0  0  0  0
    7.2832    0.2371   -2.4255 O   0  0  0  0  0  0  0  0  0  0  0  0
    1.8646   -1.5309    3.0142 N   0  0  0  0  0  0  0  0  0  0  0  0
   -5.3046    6.6385   -2.3032 H   0  0  0  0  0  0  0  0  0  0  0  0
   -5.4271    5.2896   -1.1178 H   0  0  0  0  0  0  0  0  0  0  0  0
   -4.8351    5.0143   -2.8262 H   0  0  0  0  0  0  0  0  0  0  0  0
   -3.5075    7.0460   -1.0073 H   0  0  0  0  0  0  0  0  0  0  0  0
   -2.7823    6.0981   -2.3520 H   0  0  0  0  0  0  0  0  0  0  0  0
   -1.8899    5.3779   -0.1964 H   0  0  0  0  0  0  0  0  0  0  0  0
   -3.5241    5.1227    0.4666 H   0  0  0  0  0  0  0  0  0  0  0  0
   -1.2740    3.9163    1.2579 H   0  0  0  0  0  0  0  0  0  0  0  0
   -2.8461    3.2482    1.9146 H   0  0  0  0  0  0  0  0  0  0  0  0
   -0.6169    2.3896    2.7793 H   0  0  0  0  0  0  0  0  0  0  0  0
   -1.9593    1.1803    2.3329 H   0  0  0  0  0  0  0  0  0  0  0  0
    0.2366    1.9813    0.4325 H   0  0  0  0  0  0  0  0  0  0  0  0
   -4.0509    1.4763   -1.7165 H   0  0  0  0  0  0  0  0  0  0  0  0
   -3.8715   -0.9012   -2.4114 H   0  0  0  0  0  0  0  0  0  0  0  0
   -0.3661   -1.3918    0.0289 H   0  0  0  0  0  0  0  0  0  0  0  0
   -1.0159   -3.0687   -1.8554 H   0  0  0  0  0  0  0  0  0  0  0  0
   -2.5573   -2.7764   -2.6941 H   0  0  0  0  0  0  0  0  0  0  0  0
   -4.7127   -3.4334   -1.6406 H   0  0  0  0  0  0  0  0  0  0  0  0
   -5.7286   -4.9533    0.0571 H   0  0  0  0  0  0  0  0  0  0  0  0
   -4.3273   -5.9402    1.8754 H   0  0  0  0  0  0  0  0  0  0  0  0
   -1.9702   -5.4260    2.0042 H   0  0  0  0  0  0  0  0  0  0  0  0
   -0.9631   -3.9494    0.3613 H   0  0  0  0  0  0  0  0  0  0  0  0
    0.0600   -0.5712    2.0765 H   0  0  0  0  0  0  0  0  0  0  0  0
    3.4972   -0.1704    2.8261 H   0  0  0  0  0  0  0  0  0  0  0  0
    4.0645   -2.4596    1.9235 H   0  0  0  0  0  0  0  0  0  0  0  0
    2.6799   -2.3551    0.8171 H   0  0  0  0  0  0  0  0  0  0  0  0
    2.2783    0.2189   -1.6418 H   0  0  0  0  0  0  0  0  0  0  0  0
    1.9679   -1.4137   -0.8198 H   0  0  0  0  0  0  0  0  0  0  0  0
    2.5834   -1.3139   -2.4645 H   0  0  0  0  0  0  0  0  0  0  0  0
    4.6810    0.0676   -2.8753 H   0  0  0  0  0  0  0  0  0  0  0  0
    7.7183   -0.6804    0.0009 H   0  0  0  0  0  0  0  0  0  0  0  0
    7.2718   -1.4210    2.0436 H   0  0  0  0  0  0  0  0  0  0  0  0
    5.6839   -1.1611    2.7549 H   0  0  0  0  0  0  0  0  0  0  0  0
    6.1373   -2.7689    1.9669 H   0  0  0  0  0  0  0  0  0  0  0  0
    8.0902    0.6911   -2.0122 H   0  0  0  0  0  0  0  0  0  0  0  0
    2.3956   -2.0842    3.7184 H   0  0  0  0  0  0  0  0  0  0  0  0
    1.4479   -2.2284    2.3456 H   0  0  0  0  0  0  0  0  0  0  0  0
  1  2  1  0
  2  3  1  0
  3  4  1  0
  4  5  2  0
  4  6  1  0
  6  7  1  0
  7  8  1  0
  8  9  1  0
  9 10  1  0
 10 11  2  0
 11 12  1  0
 12 13  2  0
 13 14  1  0
 14 15  2  0
 14 16  1  0
 16 17  1  0
 17 18  2  0
 18 19  1  0
 19 20  2  0
 20 21  1  0
 21 22  2  0
  9 23  1  0
 23 24  1  0
 24 25  2  0
 24 26  1  0
 26 27  1  0
 27 28  1  0
 28 29  2  0
 29 30  1  0
 29 31  1  0
 31 32  2  0
 32 33  1  0
 33 34  2  0
 34 35  1  0
 32 36  1  0
 26 37  1  0
 11  6  1  0
 22 17  1  0
 34 28  1  0
 15 10  1  0
  1 38  1  0
  1 39  1  0
  1 40  1  0
  2 41  1  0
  2 42  1  0
  3 43  1  0
  3 44  1  0
  7 45  1  0
  7 46  1  0
  8 47  1  0
  8 48  1  0
  9 49  1  6
 12 50  1  0
 13 51  1  0
 15 52  1  0
 16 53  1  0
 16 54  1  0
 18 55  1  0
 19 56  1  0
 20 57  1  0
 21 58  1  0
 22 59  1  0
 23 60  1  0
 26 61  1  1
 27 62  1  0
 27 63  1  0
 30 64  1  0
 30 65  1  0
 30 66  1  0
 31 67  1  0
 33 68  1  0
 35 69  1  0
 35 70  1  0
 35 71  1  0
 36 72  1  0
 37 73  1  0
 37 74  1  0
M  END
>  <Ligand ID>  (1) 
LIG0004141

>  <Ligand>  (1) 
CHEMBL3824052

>  <SMILES>  (1) 
CCCC(=O)N1CC[C@H](c2c1ccc(c2)Cc1ccccc1)NC(=O)[C@H](Cc1c(C)cc(cc1C)O)N

>  <CID>  (1) 
127051732.0

>  <ChEMBL ID>  (1) 
nan

>  <InChiKey>  (1) 
ZCANKGHYCWHDAH-WUFINQPMSA-N

>  <InChi>  (1) 
InChI=1S/C31H37N3O3/c1-4-8-30(36)34-14-13-28(26-18-23(11-12-29(26)34)17-22-9-6-5-7-10-22)33-31(37)27(32)19-25-20(2)15-24(35)16-21(25)3/h5-7,9-12,15-16,18,27-28,35H,4,8,13-14,17,19,32H2,1-3H3,(H,33,37)/t27-,28+/m0/s1

>  <IUPAC Name>  (1) 
(2S)-2-amino-N-[(4R)-6-benzyl-1-butanoyl-3,4-dihydro-2H-quinolin-4-yl]-3-(4-hydroxy-2,6-dimethylphenyl)propanamide

$$$$
