
     RDKit          3D

 36 38  0  0  0  0  0  0  0  0999 V2000
    4.4401   -0.8514    0.5405 C   0  0  0  0  0  0  0  0  0  0  0  0
    3.2856   -0.6400   -0.4532 C   0  0  0  0  0  0  0  0  0  0  0  0
    2.4468    0.2906   -0.0992 O   0  0  0  0  0  0  0  0  0  0  0  0
    1.3886    0.9230    0.2359 C   0  0  0  0  0  0  0  0  0  0  0  0
    1.4573    2.3108    0.5091 C   0  0  0  0  0  0  0  0  0  0  0  0
    0.3811    3.0497    0.8698 C   0  0  0  0  0  0  0  0  0  0  0  0
   -0.8350    2.4317    0.9778 C   0  0  0  0  0  0  0  0  0  0  0  0
   -0.9893    1.0839    0.7299 C   0  0  0  0  0  0  0  0  0  0  0  0
    0.1208    0.3421    0.3613 C   0  0  0  0  0  0  0  0  0  0  0  0
   -0.3893   -1.0134    0.1620 C   0  0  0  0  0  0  0  0  0  0  0  0
    0.2842   -2.0034   -0.1772 O   0  0  0  0  0  0  0  0  0  0  0  0
   -1.7832   -1.0693    0.4078 N   0  0  0  0  0  0  0  0  0  0  0  0
   -2.1939    0.2555    0.8105 C   0  0  0  0  0  0  0  0  0  0  0  0
   -3.2244    0.7362   -0.1646 C   0  0  0  0  0  0  0  0  0  0  0  0
   -4.3042   -0.2168   -0.3370 N   0  0  0  0  0  0  0  0  0  0  0  0
   -3.8942   -1.5569   -0.5909 C   0  0  0  0  0  0  0  0  0  0  0  0
   -2.8246   -2.0832    0.3428 C   0  0  0  0  0  0  0  0  0  0  0  0
    3.9751   -0.3749   -1.8144 C   0  0  0  0  0  0  0  0  0  0  0  0
    3.9786   -1.1131    1.5142 H   0  0  0  0  0  0  0  0  0  0  0  0
    4.9838   -1.7460    0.1872 H   0  0  0  0  0  0  0  0  0  0  0  0
    5.0737    0.0509    0.5947 H   0  0  0  0  0  0  0  0  0  0  0  0
    2.8659   -1.6832   -0.5832 H   0  0  0  0  0  0  0  0  0  0  0  0
    2.4189    2.8040    0.4248 H   0  0  0  0  0  0  0  0  0  0  0  0
    0.4560    4.1062    1.0730 H   0  0  0  0  0  0  0  0  0  0  0  0
   -1.6816    3.0301    1.2651 H   0  0  0  0  0  0  0  0  0  0  0  0
   -2.6243    0.1987    1.8309 H   0  0  0  0  0  0  0  0  0  0  0  0
   -3.6721    1.6641    0.2567 H   0  0  0  0  0  0  0  0  0  0  0  0
   -2.7310    1.0215   -1.1021 H   0  0  0  0  0  0  0  0  0  0  0  0
   -4.8452    0.1126   -1.1632 H   0  0  0  0  0  0  0  0  0  0  0  0
   -3.5576   -1.7415   -1.6249 H   0  0  0  0  0  0  0  0  0  0  0  0
   -4.7776   -2.2085   -0.4306 H   0  0  0  0  0  0  0  0  0  0  0  0
   -2.4373   -3.0187   -0.1242 H   0  0  0  0  0  0  0  0  0  0  0  0
   -3.2352   -2.2099    1.3454 H   0  0  0  0  0  0  0  0  0  0  0  0
    3.2479   -0.4591   -2.6258 H   0  0  0  0  0  0  0  0  0  0  0  0
    4.8181   -1.0751   -1.8921 H   0  0  0  0  0  0  0  0  0  0  0  0
    4.3775    0.6529   -1.7681 H   0  0  0  0  0  0  0  0  0  0  0  0
  1  2  1  0
  2  3  1  0
  3  4  1  0
  4  5  2  0
  5  6  1  0
  6  7  2  0
  7  8  1  0
  8  9  2  0
  9 10  1  0
 10 11  2  0
 10 12  1  0
 12 13  1  0
 13 14  1  0
 14 15  1  0
 15 16  1  0
 16 17  1  0
  2 18  1  0
  9  4  1  0
 17 12  1  0
 13  8  1  0
  1 19  1  0
  1 20  1  0
  1 21  1  0
  2 22  1  0
  5 23  1  0
  6 24  1  0
  7 25  1  0
 13 26  1  0
 14 27  1  0
 14 28  1  0
 15 29  1  0
 16 30  1  0
 16 31  1  0
 17 32  1  0
 17 33  1  0
 18 34  1  0
 18 35  1  0
 18 36  1  0
M  END
>  <Ligand ID>  (1) 
LIG0003502

>  <Ligand>  (1) 
CHEMBL223628

>  <SMILES>  (1) 
CC(Oc1cccc2c1C(=O)N1C2CNCC1)C

>  <CID>  (1) 
11231392.0

>  <ChEMBL ID>  (1) 
nan

>  <InChiKey>  (1) 
OGYGHKGXCTYKEZ-UHFFFAOYSA-N

>  <InChi>  (1) 
InChI=1S/C14H18N2O2/c1-9(2)18-12-5-3-4-10-11-8-15-6-7-16(11)14(17)13(10)12/h3-5,9,11,15H,6-8H2,1-2H3

>  <IUPAC Name>  (1) 
7-propan-2-yloxy-2,3,4,10b-tetrahydro-1H-pyrazino[1,2-b]isoindol-6-one

$$$$
