
     RDKit          3D

 20 20  0  0  0  0  0  0  0  0999 V2000
   -2.1086    1.5937    0.9264 C   0  0  0  0  0  0  0  0  0  0  0  0
   -1.7357    1.1830   -0.3753 O   0  0  0  0  0  0  0  0  0  0  0  0
   -0.5735    0.4057   -0.4466 C   0  0  0  0  0  0  0  0  0  0  0  0
   -0.4520   -0.9031   -0.4983 C   0  0  0  0  0  0  0  0  0  0  0  0
   -1.5164   -1.9555   -0.4967 C   0  0  0  0  0  0  0  0  0  0  0  0
    0.9058   -1.2587   -0.5616 O   0  0  0  0  0  0  0  0  0  0  0  0
    1.7086   -0.1163   -0.6734 C   0  0  0  0  0  0  0  0  0  0  0  0
    0.7577    1.0240   -0.4738 C   0  0  0  0  0  0  0  0  0  0  0  0
    1.0275    2.2300   -0.3562 O   0  0  0  0  0  0  0  0  0  0  0  0
    2.7596   -0.1570    0.3980 C   0  0  0  0  0  0  0  0  0  0  0  0
   -3.0418    2.1959    0.8097 H   0  0  0  0  0  0  0  0  0  0  0  0
   -2.2639    0.6705    1.5169 H   0  0  0  0  0  0  0  0  0  0  0  0
   -1.3682    2.2797    1.3951 H   0  0  0  0  0  0  0  0  0  0  0  0
   -2.4997   -1.4703   -0.5592 H   0  0  0  0  0  0  0  0  0  0  0  0
   -1.3773   -2.5256    0.4526 H   0  0  0  0  0  0  0  0  0  0  0  0
   -1.3234   -2.7005   -1.2976 H   0  0  0  0  0  0  0  0  0  0  0  0
    2.1361    0.0141   -1.6840 H   0  0  0  0  0  0  0  0  0  0  0  0
    2.3455   -0.6821    1.2751 H   0  0  0  0  0  0  0  0  0  0  0  0
    3.0080    0.8876    0.6705 H   0  0  0  0  0  0  0  0  0  0  0  0
    3.6118   -0.7148   -0.0217 H   0  0  0  0  0  0  0  0  0  0  0  0
  1  2  1  0
  2  3  1  0
  3  4  2  0
  4  5  1  0
  4  6  1  0
  6  7  1  0
  7  8  1  0
  8  9  2  0
  7 10  1  0
  8  3  1  0
  1 11  1  0
  1 12  1  0
  1 13  1  0
  5 14  1  0
  5 15  1  0
  5 16  1  0
  7 17  1  0
 10 18  1  0
 10 19  1  0
 10 20  1  0
M  END
>  <Ligand ID>  (1) 
LIG0002084

>  <Ligand>  (1) 
2,5-dimethyl-4-methoxy-3(2H)-furanone

>  <SMILES>  (1) 
COC1=C(C)OC(C1=O)C

>  <CID>  (1) 
61325.0

>  <ChEMBL ID>  (1) 
nan

>  <InChiKey>  (1) 
SIMKGHMLPVDSJE-UHFFFAOYSA-N

>  <InChi>  (1) 
InChI=1S/C7H10O3/c1-4-6(8)7(9-3)5(2)10-4/h4H,1-3H3

>  <IUPAC Name>  (1) 
4-methoxy-2,5-dimethylfuran-3-one

$$$$
