
     RDKit          3D

 65 67  0  0  0  0  0  0  0  0999 V2000
    8.5919    2.5485   -1.7229 O   0  0  0  0  0  0  0  0  0  0  0  0
    9.3613    1.8598   -0.7774 C   0  0  0  0  0  0  0  0  0  0  0  0
    9.4644    2.3437    0.3897 O   0  0  0  0  0  0  0  0  0  0  0  0
   10.0566    0.5754   -1.1094 C   0  0  0  0  0  0  0  0  0  0  0  0
    9.5650   -0.4521   -0.0842 C   0  0  0  0  0  0  0  0  0  0  0  0
    8.1126   -0.5278   -0.2743 N   0  0  0  0  0  0  0  0  0  0  0  0
    7.4910   -1.4571    0.6182 C   0  0  0  0  0  0  0  0  0  0  0  0
    6.0117   -1.4582    0.3374 C   0  0  0  0  0  0  0  0  0  0  0  0
    5.1783   -0.7948    1.2124 C   0  0  0  0  0  0  0  0  0  0  0  0
    3.8237   -0.8072    0.9356 C   0  0  0  0  0  0  0  0  0  0  0  0
    3.2856   -1.4469   -0.1634 C   0  0  0  0  0  0  0  0  0  0  0  0
    4.1227   -2.1139   -1.0431 C   0  0  0  0  0  0  0  0  0  0  0  0
    5.4956   -2.1023   -0.7643 C   0  0  0  0  0  0  0  0  0  0  0  0
    6.3531   -2.7462   -1.5967 F   0  0  0  0  0  0  0  0  0  0  0  0
    1.8231   -1.4023   -0.3800 C   0  0  0  0  0  0  0  0  0  0  0  0
    1.1483   -0.7445    0.5058 N   0  0  0  0  0  0  0  0  0  0  0  0
   -0.2360   -0.6425    0.3933 O   0  0  0  0  0  0  0  0  0  0  0  0
   -0.7215    0.7029    0.4194 C   0  0  0  0  0  0  0  0  0  0  0  0
   -2.2013    0.6574    0.2928 C   0  0  0  0  0  0  0  0  0  0  0  0
   -2.8365    0.6968   -0.9436 C   0  0  0  0  0  0  0  0  0  0  0  0
   -4.2223    0.6479   -0.9598 C   0  0  0  0  0  0  0  0  0  0  0  0
   -4.9554    0.5609    0.2312 C   0  0  0  0  0  0  0  0  0  0  0  0
   -4.3254    0.5209    1.4644 C   0  0  0  0  0  0  0  0  0  0  0  0
   -2.9354    0.5722    1.4541 C   0  0  0  0  0  0  0  0  0  0  0  0
   -5.0667    0.4194    2.7420 C   0  0  0  0  0  0  0  0  0  0  0  0
   -5.9254    1.4437    2.9845 F   0  0  0  0  0  0  0  0  0  0  0  0
   -4.1369    0.4216    3.7814 F   0  0  0  0  0  0  0  0  0  0  0  0
   -5.7258   -0.7923    2.8609 F   0  0  0  0  0  0  0  0  0  0  0  0
   -6.4087    0.5177    0.1166 C   0  0  0  0  0  0  0  0  0  0  0  0
   -7.0680    1.8880    0.0102 C   0  0  0  0  0  0  0  0  0  0  0  0
   -8.5303    1.7538    0.2807 C   0  0  0  0  0  0  0  0  0  0  0  0
   -9.1983    0.7114   -0.5852 C   0  0  0  0  0  0  0  0  0  0  0  0
   -8.3823   -0.5062   -0.8464 C   0  0  0  0  0  0  0  0  0  0  0  0
   -6.9190   -0.2492   -1.0960 C   0  0  0  0  0  0  0  0  0  0  0  0
    1.1811   -2.0621   -1.5249 C   0  0  0  0  0  0  0  0  0  0  0  0
    7.6901    2.9625   -1.4233 H   0  0  0  0  0  0  0  0  0  0  0  0
    9.7304    0.2361   -2.1055 H   0  0  0  0  0  0  0  0  0  0  0  0
   11.1370    0.6409   -0.9843 H   0  0  0  0  0  0  0  0  0  0  0  0
    9.9723   -1.4439   -0.3403 H   0  0  0  0  0  0  0  0  0  0  0  0
    9.7699   -0.1272    0.9481 H   0  0  0  0  0  0  0  0  0  0  0  0
    7.7043    0.4309   -0.1528 H   0  0  0  0  0  0  0  0  0  0  0  0
    7.6851   -1.1666    1.6688 H   0  0  0  0  0  0  0  0  0  0  0  0
    7.9061   -2.4783    0.5135 H   0  0  0  0  0  0  0  0  0  0  0  0
    5.5784   -0.2825    2.0866 H   0  0  0  0  0  0  0  0  0  0  0  0
    3.2010   -0.2697    1.6528 H   0  0  0  0  0  0  0  0  0  0  0  0
    3.7321   -2.6231   -1.9114 H   0  0  0  0  0  0  0  0  0  0  0  0
   -0.3396    1.2811   -0.4321 H   0  0  0  0  0  0  0  0  0  0  0  0
   -0.3966    1.2314    1.3502 H   0  0  0  0  0  0  0  0  0  0  0  0
   -2.2382    0.7658   -1.8422 H   0  0  0  0  0  0  0  0  0  0  0  0
   -4.7436    0.6769   -1.9082 H   0  0  0  0  0  0  0  0  0  0  0  0
   -2.4279    0.5424    2.4053 H   0  0  0  0  0  0  0  0  0  0  0  0
   -6.8795    0.0513    1.0277 H   0  0  0  0  0  0  0  0  0  0  0  0
   -6.6451    2.6326    0.6977 H   0  0  0  0  0  0  0  0  0  0  0  0
   -6.9526    2.2191   -1.0471 H   0  0  0  0  0  0  0  0  0  0  0  0
   -9.0103    2.7316    0.0384 H   0  0  0  0  0  0  0  0  0  0  0  0
   -8.6811    1.5958    1.3665 H   0  0  0  0  0  0  0  0  0  0  0  0
  -10.1244    0.4124   -0.0528 H   0  0  0  0  0  0  0  0  0  0  0  0
   -9.5651    1.1626   -1.5489 H   0  0  0  0  0  0  0  0  0  0  0  0
   -8.4599   -1.2993   -0.0827 H   0  0  0  0  0  0  0  0  0  0  0  0
   -8.7737   -0.9679   -1.7883 H   0  0  0  0  0  0  0  0  0  0  0  0
   -6.8106    0.4540   -1.9723 H   0  0  0  0  0  0  0  0  0  0  0  0
   -6.4253   -1.2147   -1.2339 H   0  0  0  0  0  0  0  0  0  0  0  0
    1.0255   -3.1352   -1.3325 H   0  0  0  0  0  0  0  0  0  0  0  0
    0.2402   -1.5359   -1.7993 H   0  0  0  0  0  0  0  0  0  0  0  0
    1.8304   -2.0198   -2.4331 H   0  0  0  0  0  0  0  0  0  0  0  0
  1  2  1  0
  2  3  2  0
  2  4  1  0
  4  5  1  0
  5  6  1  0
  6  7  1  0
  7  8  1  0
  8  9  2  0
  9 10  1  0
 10 11  2  0
 11 12  1  0
 12 13  2  0
 13 14  1  0
 11 15  1  0
 15 16  2  0
 16 17  1  0
 17 18  1  0
 18 19  1  0
 19 20  2  0
 20 21  1  0
 21 22  2  0
 22 23  1  0
 23 24  2  0
 23 25  1  0
 25 26  1  0
 25 27  1  0
 25 28  1  0
 22 29  1  0
 29 30  1  0
 30 31  1  0
 31 32  1  0
 32 33  1  0
 33 34  1  0
 15 35  1  0
 13  8  1  0
 24 19  1  0
 34 29  1  0
  1 36  1  0
  4 37  1  0
  4 38  1  0
  5 39  1  0
  5 40  1  0
  6 41  1  0
  7 42  1  0
  7 43  1  0
  9 44  1  0
 10 45  1  0
 12 46  1  0
 18 47  1  0
 18 48  1  0
 20 49  1  0
 21 50  1  0
 24 51  1  0
 29 52  1  0
 30 53  1  0
 30 54  1  0
 31 55  1  0
 31 56  1  0
 32 57  1  0
 32 58  1  0
 33 59  1  0
 33 60  1  0
 34 61  1  0
 34 62  1  0
 35 63  1  0
 35 64  1  0
 35 65  1  0
M  END
>  <Ligand ID>  (1) 
LIG0005574

>  <Ligand>  (1) 
CHEMBL2336064

>  <SMILES>  (1) 
OC(=O)CCNCc1ccc(cc1F)/C(=N/OCc1ccc(c(c1)C(F)(F)F)C1CCCCC1)/C

>  <CID>  (1) 
59982944.0

>  <ChEMBL ID>  (1) 
nan

>  <InChiKey>  (1) 
AQEUVBJFUGACMQ-VTNSRFBWSA-N

>  <InChi>  (1) 
InChI=1S/C26H30F4N2O3/c1-17(20-8-9-21(24(27)14-20)15-31-12-11-25(33)34)32-35-16-18-7-10-22(19-5-3-2-4-6-19)23(13-18)26(28,29)30/h7-10,13-14,19,31H,2-6,11-12,15-16H2,1H3,(H,33,34)/b32-17+

>  <IUPAC Name>  (1) 
3-[[4-[(E)-N-[[4-cyclohexyl-3-(trifluoromethyl)phenyl]methoxy]-C-methylcarbonimidoyl]-2-fluorophenyl]methylamino]propanoic acid

$$$$
