
     RDKit          3D

 22 22  0  0  0  0  0  0  0  0999 V2000
   -2.5549    0.5897    1.9432 O   0  0  0  0  0  0  0  0  0  0  0  0
   -2.5385    0.0296    0.6609 C   0  0  0  0  0  0  0  0  0  0  0  0
   -3.2806   -0.9283    0.3438 O   0  0  0  0  0  0  0  0  0  0  0  0
   -1.5718    0.6572   -0.3023 C   0  0  0  0  0  0  0  0  0  0  0  0
   -0.1579    0.5336    0.2130 C   0  0  1  0  0  0  0  0  0  0  0  0
    0.2624   -0.9138    0.4037 C   0  0  0  0  0  0  0  0  0  0  0  0
    0.8742   -0.0359   -0.6556 C   0  0  2  0  0  0  0  0  0  0  0  0
    2.6233    0.2587   -0.4463 P   0  0  0  0  0  0  0  0  0  0  0  0
    3.2466    0.9468   -1.6497 O   0  0  0  0  0  0  0  0  0  0  0  0
    3.4891   -1.2108   -0.2929 O   0  0  0  0  0  0  0  0  0  0  0  0
    2.9820    1.1509    0.9384 O   0  0  0  0  0  0  0  0  0  0  0  0
   -1.7471   -0.0957   -1.5459 N   0  0  0  0  0  0  0  0  0  0  0  0
   -3.3951    0.4935    2.5083 H   0  0  0  0  0  0  0  0  0  0  0  0
   -1.8842    1.6936   -0.5190 H   0  0  0  0  0  0  0  0  0  0  0  0
    0.0779    1.2727    0.9990 H   0  0  0  0  0  0  0  0  0  0  0  0
   -0.3817   -1.7298    0.0358 H   0  0  0  0  0  0  0  0  0  0  0  0
    0.7829   -1.0854    1.3549 H   0  0  0  0  0  0  0  0  0  0  0  0
    0.5765   -0.2367   -1.7107 H   0  0  0  0  0  0  0  0  0  0  0  0
    2.9962   -1.8516    0.2435 H   0  0  0  0  0  0  0  0  0  0  0  0
    3.9745    1.2464    0.9443 H   0  0  0  0  0  0  0  0  0  0  0  0
   -2.4843    0.3307   -2.1101 H   0  0  0  0  0  0  0  0  0  0  0  0
   -1.8892   -1.1155   -1.3564 H   0  0  0  0  0  0  0  0  0  0  0  0
  1  2  1  0
  2  3  2  0
  2  4  1  0
  4  5  1  0
  5  6  1  0
  6  7  1  0
  7  8  1  0
  8  9  2  0
  8 10  1  0
  8 11  1  0
  4 12  1  0
  7  5  1  0
  1 13  1  0
  4 14  1  0
  5 15  1  1
  6 16  1  0
  6 17  1  0
  7 18  1  6
 10 19  1  0
 11 20  1  0
 12 21  1  0
 12 22  1  0
M  END
>  <Ligand ID>  (1) 
LIG0000653

>  <Ligand>  (1) 
CHEMBL442076

>  <SMILES>  (1) 
OC(=O)C([C@H]1C[C@@H]1P(=O)(O)O)N

>  <CID>  (1) 
11708219.0

>  <ChEMBL ID>  (1) 
nan

>  <InChiKey>  (1) 
KZOMBNQLBSHMFV-LPGMDIISSA-N

>  <InChi>  (1) 
InChI=1S/C5H10NO5P/c6-4(5(7)8)2-1-3(2)12(9,10)11/h2-4H,1,6H2,(H,7,8)(H2,9,10,11)/t2-,3-,4?/m0/s1

>  <IUPAC Name>  (1) 
2-amino-2-[(1R,2S)-2-phosphonocyclopropyl]acetic acid

$$$$
