
     RDKit          3D

 50 52  0  0  0  0  0  0  0  0999 V2000
   -0.4422   -1.9425    0.6894 O   0  0  0  0  0  0  0  0  0  0  0  0
   -1.3897   -0.9232    0.5743 C   0  0  2  0  0  0  0  0  0  0  0  0
   -2.4221   -1.4628   -0.3960 C   0  0  2  0  0  0  0  0  0  0  0  0
   -1.7848   -2.3000   -1.3278 O   0  0  0  0  0  0  0  0  0  0  0  0
   -2.8654   -0.2354   -1.1113 C   0  0  2  0  0  0  0  0  0  0  0  0
   -1.8538    0.6731   -1.0561 O   0  0  0  0  0  0  0  0  0  0  0  0
   -0.8904    0.2881   -0.1545 C   0  0  1  0  0  0  0  0  0  0  0  0
   -0.6086    1.4232    0.6932 N   0  0  0  0  0  0  0  0  0  0  0  0
   -1.3159    2.5891    0.6084 C   0  0  0  0  0  0  0  0  0  0  0  0
   -1.0478    3.6671    1.4139 C   0  0  0  0  0  0  0  0  0  0  0  0
   -0.0382    3.6064    2.3509 C   0  0  0  0  0  0  0  0  0  0  0  0
    0.2587    4.5555    3.1184 O   0  0  0  0  0  0  0  0  0  0  0  0
    0.6491    2.4470    2.4198 N   0  0  0  0  0  0  0  0  0  0  0  0
    0.3692    1.4001    1.6188 C   0  0  0  0  0  0  0  0  0  0  0  0
    1.3757   -0.0714    1.8352 S   0  0  0  0  0  0  0  0  0  0  0  0
    2.8161    0.0526    0.7217 C   0  0  0  0  0  0  0  0  0  0  0  0
    3.7158   -1.1575    0.8480 C   0  0  0  0  0  0  0  0  0  0  0  0
    4.8465   -0.9256   -0.1120 C   0  0  0  0  0  0  0  0  0  0  0  0
    5.9961   -0.2599    0.3218 C   0  0  0  0  0  0  0  0  0  0  0  0
    7.0313   -0.0514   -0.5696 C   0  0  0  0  0  0  0  0  0  0  0  0
    6.9163   -0.5004   -1.8671 C   0  0  0  0  0  0  0  0  0  0  0  0
    5.7740   -1.1650   -2.3085 C   0  0  0  0  0  0  0  0  0  0  0  0
    4.7278   -1.3758   -1.4079 C   0  0  0  0  0  0  0  0  0  0  0  0
   -4.1756    0.2121   -0.5077 C   0  0  0  0  0  0  0  0  0  0  0  0
   -5.0585   -0.8656   -0.6742 O   0  0  0  0  0  0  0  0  0  0  0  0
   -6.5839   -0.5075   -0.0403 P   0  0  0  0  0  0  0  0  0  0  0  0
   -6.4917    0.2374    1.2805 O   0  0  0  0  0  0  0  0  0  0  0  0
   -7.5306    0.3957   -1.1226 O   0  0  0  0  0  0  0  0  0  0  0  0
   -7.4378   -1.9355    0.2662 O   0  0  0  0  0  0  0  0  0  0  0  0
   -0.8275   -2.8295    0.5012 H   0  0  0  0  0  0  0  0  0  0  0  0
   -1.8239   -0.6659    1.5587 H   0  0  0  0  0  0  0  0  0  0  0  0
   -3.2381   -1.9950    0.1313 H   0  0  0  0  0  0  0  0  0  0  0  0
   -1.4417   -1.7362   -2.0792 H   0  0  0  0  0  0  0  0  0  0  0  0
   -3.0484   -0.4884   -2.1838 H   0  0  0  0  0  0  0  0  0  0  0  0
    0.0110   -0.0134   -0.7443 H   0  0  0  0  0  0  0  0  0  0  0  0
   -2.1157    2.6606   -0.1219 H   0  0  0  0  0  0  0  0  0  0  0  0
   -1.6289    4.5593    1.3109 H   0  0  0  0  0  0  0  0  0  0  0  0
    2.4478    0.1190   -0.3216 H   0  0  0  0  0  0  0  0  0  0  0  0
    3.3455    0.9912    0.9198 H   0  0  0  0  0  0  0  0  0  0  0  0
    4.0911   -1.2418    1.8927 H   0  0  0  0  0  0  0  0  0  0  0  0
    3.1520   -2.0719    0.6263 H   0  0  0  0  0  0  0  0  0  0  0  0
    6.0414    0.0775    1.3594 H   0  0  0  0  0  0  0  0  0  0  0  0
    7.9184    0.4714   -0.2049 H   0  0  0  0  0  0  0  0  0  0  0  0
    7.7558   -0.3148   -2.5357 H   0  0  0  0  0  0  0  0  0  0  0  0
    5.7267   -1.4981   -3.3286 H   0  0  0  0  0  0  0  0  0  0  0  0
    3.8373   -1.8976   -1.7640 H   0  0  0  0  0  0  0  0  0  0  0  0
   -4.0873    0.3503    0.5893 H   0  0  0  0  0  0  0  0  0  0  0  0
   -4.6297    1.0548   -1.0344 H   0  0  0  0  0  0  0  0  0  0  0  0
   -7.1768    1.3078   -1.1603 H   0  0  0  0  0  0  0  0  0  0  0  0
   -6.8485   -2.7070    0.0723 H   0  0  0  0  0  0  0  0  0  0  0  0
  1  2  1  0
  2  3  1  0
  3  4  1  0
  3  5  1  0
  5  6  1  0
  6  7  1  0
  7  8  1  0
  8  9  1  0
  9 10  2  0
 10 11  1  0
 11 12  2  0
 11 13  1  0
 13 14  2  0
 14 15  1  0
 15 16  1  0
 16 17  1  0
 17 18  1  0
 18 19  2  0
 19 20  1  0
 20 21  2  0
 21 22  1  0
 22 23  2  0
  5 24  1  0
 24 25  1  0
 25 26  1  0
 26 27  2  0
 26 28  1  0
 26 29  1  0
  7  2  1  0
 14  8  1  0
 23 18  1  0
  1 30  1  0
  2 31  1  1
  3 32  1  1
  4 33  1  0
  5 34  1  6
  7 35  1  6
  9 36  1  0
 10 37  1  0
 16 38  1  0
 16 39  1  0
 17 40  1  0
 17 41  1  0
 19 42  1  0
 20 43  1  0
 21 44  1  0
 22 45  1  0
 23 46  1  0
 24 47  1  0
 24 48  1  0
 28 49  1  0
 29 50  1  0
M  END
>  <Ligand ID>  (1) 
LIG0002686

>  <Ligand>  (1) 
CHEMBL1767421

>  <SMILES>  (1) 
O[C@@H]1[C@H](O)[C@H](O[C@H]1n1ccc(=O)nc1SCCc1ccccc1)COP(=O)(O)O

>  <CID>  (1) 
52952494.0

>  <ChEMBL ID>  (1) 
nan

>  <InChiKey>  (1) 
DKLOPLNHUFXHPV-DTZQCDIJSA-N

>  <InChi>  (1) 
InChI=1S/C17H21N2O8PS/c20-13-6-8-19(17(18-13)29-9-7-11-4-2-1-3-5-11)16-15(22)14(21)12(27-16)10-26-28(23,24)25/h1-6,8,12,14-16,21-22H,7,9-10H2,(H2,23,24,25)/t12-,14-,15-,16-/m1/s1

>  <IUPAC Name>  (1) 
[(2R,3S,4R,5R)-3,4-dihydroxy-5-[4-oxo-2-(2-phenylethylsulfanyl)pyrimidin-1-yl]oxolan-2-yl]methyl dihydrogen phosphate

$$$$
