
     RDKit          3D

142144  0  0  0  0  0  0  0  0999 V2000
    6.3768   -4.8608   -0.3273 C   0  0  0  0  0  0  0  0  0  0  0  0
    5.8686   -3.6404    0.0918 O   0  0  0  0  0  0  0  0  0  0  0  0
    5.6073   -2.9191   -1.0842 C   0  0  2  0  0  0  0  0  0  0  0  0
    6.3066   -1.5953   -1.0472 C   0  0  0  0  0  0  0  0  0  0  0  0
    5.3546   -0.7506   -0.1608 C   0  0  2  0  0  0  0  0  0  0  0  0
    4.0922   -1.3386   -0.3145 N   0  0  0  0  0  0  0  0  0  0  0  0
    4.1457   -2.5762   -1.1570 C   0  0  0  0  0  0  0  0  0  0  0  0
    2.7855   -1.0395    0.2669 C   0  0  0  0  0  0  0  0  0  0  0  0
    2.6470   -0.1321    1.1190 O   0  0  0  0  0  0  0  0  0  0  0  0
    1.5705   -1.7878   -0.0981 C   0  0  2  0  0  0  0  0  0  0  0  0
    0.4766   -0.9144   -0.6398 C   0  0  0  0  0  0  0  0  0  0  0  0
    0.7853    0.3559   -1.8069 S   0  0  0  0  0  0  0  0  0  0  0  0
    1.4191    1.9099   -1.1468 C   0  0  0  0  0  0  0  0  0  0  0  0
    0.3884    2.4534   -0.1074 C   0  0  0  0  0  0  0  0  0  0  0  0
   -0.9834    2.3972   -0.7397 C   0  0  0  0  0  0  0  0  0  0  0  0
   -1.9536    2.8949    0.2724 C   0  0  0  0  0  0  0  0  0  0  0  0
   -1.6683    3.4885    1.3163 O   0  0  0  0  0  0  0  0  0  0  0  0
   -3.3929    2.6974    0.0852 N   0  0  0  0  0  0  0  0  0  0  0  0
   -4.3488    3.2412    1.0217 C   0  0  1  0  0  0  0  0  0  0  0  0
   -4.9249    4.5269    0.4184 C   0  0  0  0  0  0  0  0  0  0  0  0
   -5.5673    4.2672   -0.8927 C   0  0  0  0  0  0  0  0  0  0  0  0
   -6.9295    3.9706   -1.0242 C   0  0  0  0  0  0  0  0  0  0  0  0
   -7.4333    3.7423   -2.2830 C   0  0  0  0  0  0  0  0  0  0  0  0
   -6.6607    3.7893   -3.4317 C   0  0  0  0  0  0  0  0  0  0  0  0
   -5.3182    4.0827   -3.2866 C   0  0  0  0  0  0  0  0  0  0  0  0
   -4.7565    4.3216   -2.0355 C   0  0  0  0  0  0  0  0  0  0  0  0
   -7.1930    3.5500   -4.6807 O   0  0  0  0  0  0  0  0  0  0  0  0
   -8.5609    3.2444   -4.7490 C   0  0  0  0  0  0  0  0  0  0  0  0
   -5.3480    2.3827    1.5838 C   0  0  0  0  0  0  0  0  0  0  0  0
   -6.0988    2.8186    2.4890 O   0  0  0  0  0  0  0  0  0  0  0  0
   -5.6356    0.9969    1.2391 N   0  0  0  0  0  0  0  0  0  0  0  0
   -6.6610    0.2956    1.9802 C   0  0  2  0  0  0  0  0  0  0  0  0
   -6.1434   -1.0054    2.5303 C   0  0  0  0  0  0  0  0  0  0  0  0
   -6.6917   -1.6260    3.4434 O   0  0  0  0  0  0  0  0  0  0  0  0
   -4.9690   -1.5966    1.9954 N   0  0  0  0  0  0  0  0  0  0  0  0
   -4.4427   -2.8786    2.5770 C   0  0  2  0  0  0  0  0  0  0  0  0
   -3.0080   -2.7794    2.5759 C   0  0  0  0  0  0  0  0  0  0  0  0
   -2.4882   -1.6373    2.2487 O   0  0  0  0  0  0  0  0  0  0  0  0
   -1.9996   -3.7233    2.8796 N   0  0  0  0  0  0  0  0  0  0  0  0
   -0.5728   -3.4442    2.8234 C   0  0  2  0  0  0  0  0  0  0  0  0
   -0.1967   -2.9298    1.4164 C   0  0  0  0  0  0  0  0  0  0  0  0
   -0.9721   -3.0402    0.4605 O   0  0  0  0  0  0  0  0  0  0  0  0
    1.0398   -2.3175    1.2171 N   0  0  0  0  0  0  0  0  0  0  0  0
    0.2373   -4.6948    3.0755 C   0  0  0  0  0  0  0  0  0  0  0  0
   -0.0006   -5.2831    4.4175 C   0  0  0  0  0  0  0  0  0  0  0  0
   -0.7779   -4.7618    5.2809 O   0  0  0  0  0  0  0  0  0  0  0  0
    0.7137   -6.4998    4.6962 N   0  0  0  0  0  0  0  0  0  0  0  0
   -5.1402   -4.0135    1.9017 C   0  0  0  0  0  0  0  0  0  0  0  0
   -4.7675   -5.3616    2.4174 C   0  0  0  0  0  0  0  0  0  0  0  0
   -5.6252   -6.3974    1.7271 C   0  0  0  0  0  0  0  0  0  0  0  0
   -6.3243   -6.1342    0.7230 O   0  0  0  0  0  0  0  0  0  0  0  0
   -5.6604   -7.7559    2.2171 N   0  0  0  0  0  0  0  0  0  0  0  0
   -7.8640   -0.0041    1.0871 C   0  0  2  0  0  0  0  0  0  0  0  0
   -7.5058   -0.8702   -0.0807 C   0  0  0  0  0  0  0  0  0  0  0  0
   -8.7429   -1.0861   -0.9282 C   0  0  0  0  0  0  0  0  0  0  0  0
   -8.6215    1.2323    0.7063 C   0  0  0  0  0  0  0  0  0  0  0  0
    5.6184    0.6185   -0.6104 C   0  0  0  0  0  0  0  0  0  0  0  0
    4.8303    1.4922   -0.9840 O   0  0  0  0  0  0  0  0  0  0  0  0
    7.0068    0.9834   -0.6225 N   0  0  0  0  0  0  0  0  0  0  0  0
    7.5286    2.2765   -1.0477 C   0  0  2  0  0  0  0  0  0  0  0  0
    8.1927    2.1215   -2.3764 C   0  0  0  0  0  0  0  0  0  0  0  0
    8.3104    0.9338   -2.8344 O   0  0  0  0  0  0  0  0  0  0  0  0
    8.6879    3.1656   -3.1674 N   0  0  0  0  0  0  0  0  0  0  0  0
    9.3107    2.9111   -4.4447 C   0  0  0  0  0  0  0  0  0  0  0  0
   10.4989    2.0243   -4.2669 C   0  0  0  0  0  0  0  0  0  0  0  0
   11.1482    1.6947   -5.3097 O   0  0  0  0  0  0  0  0  0  0  0  0
   10.9527    1.5294   -3.0305 N   0  0  0  0  0  0  0  0  0  0  0  0
    8.5312    2.6721   -0.0065 C   0  0  0  0  0  0  0  0  0  0  0  0
    9.2551    3.9510   -0.1562 C   0  0  0  0  0  0  0  0  0  0  0  0
   10.1943    4.0493    1.0670 C   0  0  0  0  0  0  0  0  0  0  0  0
    8.4021    5.1751   -0.1197 C   0  0  0  0  0  0  0  0  0  0  0  0
    6.6329   -5.5267    0.5064 H   0  0  0  0  0  0  0  0  0  0  0  0
    5.6229   -5.3375   -1.0069 H   0  0  0  0  0  0  0  0  0  0  0  0
    7.2541   -4.6459   -0.9489 H   0  0  0  0  0  0  0  0  0  0  0  0
    5.8775   -3.5586   -1.9142 H   0  0  0  0  0  0  0  0  0  0  0  0
    6.3046   -1.1196   -2.0354 H   0  0  0  0  0  0  0  0  0  0  0  0
    7.2937   -1.6617   -0.5572 H   0  0  0  0  0  0  0  0  0  0  0  0
    5.7223   -0.8758    0.9234 H   0  0  0  0  0  0  0  0  0  0  0  0
    3.7715   -2.3762   -2.1496 H   0  0  0  0  0  0  0  0  0  0  0  0
    3.5473   -3.3665   -0.6460 H   0  0  0  0  0  0  0  0  0  0  0  0
    1.6573   -2.6520   -0.7439 H   0  0  0  0  0  0  0  0  0  0  0  0
   -0.3471   -1.5628   -1.0889 H   0  0  0  0  0  0  0  0  0  0  0  0
   -0.0649   -0.4585    0.2460 H   0  0  0  0  0  0  0  0  0  0  0  0
    1.4883    2.7200   -1.9031 H   0  0  0  0  0  0  0  0  0  0  0  0
    2.3383    1.8702   -0.6118 H   0  0  0  0  0  0  0  0  0  0  0  0
    0.7143    3.4985    0.0830 H   0  0  0  0  0  0  0  0  0  0  0  0
    0.4706    1.8748    0.8079 H   0  0  0  0  0  0  0  0  0  0  0  0
   -1.0281    3.0013   -1.6571 H   0  0  0  0  0  0  0  0  0  0  0  0
   -1.2041    1.3220   -0.9143 H   0  0  0  0  0  0  0  0  0  0  0  0
   -3.6065    2.1496   -0.7479 H   0  0  0  0  0  0  0  0  0  0  0  0
   -3.7431    3.6397    1.8714 H   0  0  0  0  0  0  0  0  0  0  0  0
   -4.1054    5.2507    0.3855 H   0  0  0  0  0  0  0  0  0  0  0  0
   -5.6601    4.8783    1.1623 H   0  0  0  0  0  0  0  0  0  0  0  0
   -7.5018    3.9419   -0.1159 H   0  0  0  0  0  0  0  0  0  0  0  0
   -8.5051    3.5232   -2.3403 H   0  0  0  0  0  0  0  0  0  0  0  0
   -4.6612    4.1431   -4.1437 H   0  0  0  0  0  0  0  0  0  0  0  0
   -3.6916    4.5467   -1.9294 H   0  0  0  0  0  0  0  0  0  0  0  0
   -8.8236    2.4089   -4.0497 H   0  0  0  0  0  0  0  0  0  0  0  0
   -8.8343    2.9710   -5.7877 H   0  0  0  0  0  0  0  0  0  0  0  0
   -9.1598    4.1146   -4.4628 H   0  0  0  0  0  0  0  0  0  0  0  0
   -5.0620    0.6475    0.4795 H   0  0  0  0  0  0  0  0  0  0  0  0
   -7.0436    0.9191    2.7870 H   0  0  0  0  0  0  0  0  0  0  0  0
   -4.5215   -1.1308    1.2190 H   0  0  0  0  0  0  0  0  0  0  0  0
   -4.8413   -2.8737    3.6282 H   0  0  0  0  0  0  0  0  0  0  0  0
   -2.2828   -4.6404    3.1971 H   0  0  0  0  0  0  0  0  0  0  0  0
   -0.3392   -2.6575    3.5306 H   0  0  0  0  0  0  0  0  0  0  0  0
    1.6592   -2.2478    2.0438 H   0  0  0  0  0  0  0  0  0  0  0  0
    1.3182   -4.4810    2.9952 H   0  0  0  0  0  0  0  0  0  0  0  0
   -0.0291   -5.4755    2.3020 H   0  0  0  0  0  0  0  0  0  0  0  0
    0.4550   -7.4121    4.2568 H   0  0  0  0  0  0  0  0  0  0  0  0
    1.5386   -6.5203    5.3550 H   0  0  0  0  0  0  0  0  0  0  0  0
   -5.0851   -3.9504    0.7855 H   0  0  0  0  0  0  0  0  0  0  0  0
   -6.2367   -3.8694    2.1104 H   0  0  0  0  0  0  0  0  0  0  0  0
   -4.9268   -5.4966    3.4967 H   0  0  0  0  0  0  0  0  0  0  0  0
   -3.7163   -5.6517    2.1808 H   0  0  0  0  0  0  0  0  0  0  0  0
   -4.9189   -8.0840    2.8618 H   0  0  0  0  0  0  0  0  0  0  0  0
   -6.4319   -8.4156    1.9460 H   0  0  0  0  0  0  0  0  0  0  0  0
   -8.5517   -0.6112    1.7400 H   0  0  0  0  0  0  0  0  0  0  0  0
   -7.2198   -1.8774    0.3584 H   0  0  0  0  0  0  0  0  0  0  0  0
   -6.6462   -0.5473   -0.6747 H   0  0  0  0  0  0  0  0  0  0  0  0
   -8.6499   -0.4237   -1.8335 H   0  0  0  0  0  0  0  0  0  0  0  0
   -8.9426   -2.1199   -1.1960 H   0  0  0  0  0  0  0  0  0  0  0  0
   -9.6701   -0.7095   -0.4224 H   0  0  0  0  0  0  0  0  0  0  0  0
   -8.5599    1.9756    1.5535 H   0  0  0  0  0  0  0  0  0  0  0  0
   -8.3108    1.6278   -0.2586 H   0  0  0  0  0  0  0  0  0  0  0  0
   -9.7273    0.9731    0.6430 H   0  0  0  0  0  0  0  0  0  0  0  0
    7.7530    0.2896   -0.2985 H   0  0  0  0  0  0  0  0  0  0  0  0
    6.6994    2.9826   -1.1246 H   0  0  0  0  0  0  0  0  0  0  0  0
    8.5936    4.1472   -2.8572 H   0  0  0  0  0  0  0  0  0  0  0  0
    9.6700    3.8844   -4.8919 H   0  0  0  0  0  0  0  0  0  0  0  0
    8.5641    2.4840   -5.1363 H   0  0  0  0  0  0  0  0  0  0  0  0
   10.9040    2.0626   -2.1148 H   0  0  0  0  0  0  0  0  0  0  0  0
   11.3725    0.5511   -3.0090 H   0  0  0  0  0  0  0  0  0  0  0  0
    9.3508    1.8596    0.0164 H   0  0  0  0  0  0  0  0  0  0  0  0
    8.0873    2.6406    1.0255 H   0  0  0  0  0  0  0  0  0  0  0  0
    9.9360    3.9651   -1.0272 H   0  0  0  0  0  0  0  0  0  0  0  0
   10.6567    3.0427    1.1106 H   0  0  0  0  0  0  0  0  0  0  0  0
   10.9605    4.8167    0.9329 H   0  0  0  0  0  0  0  0  0  0  0  0
    9.5876    4.1518    1.9758 H   0  0  0  0  0  0  0  0  0  0  0  0
    8.4387    5.7309   -1.0818 H   0  0  0  0  0  0  0  0  0  0  0  0
    8.7424    5.8944    0.6779 H   0  0  0  0  0  0  0  0  0  0  0  0
    7.3334    4.9742    0.1165 H   0  0  0  0  0  0  0  0  0  0  0  0
  1  2  1  0
  2  3  1  0
  3  4  1  0
  4  5  1  0
  5  6  1  0
  6  7  1  0
  6  8  1  0
  8  9  2  0
  8 10  1  0
 10 11  1  0
 11 12  1  0
 12 13  1  0
 13 14  1  0
 14 15  1  0
 15 16  1  0
 16 17  2  0
 16 18  1  0
 18 19  1  0
 19 20  1  0
 20 21  1  0
 21 22  2  0
 22 23  1  0
 23 24  2  0
 24 25  1  0
 25 26  2  0
 24 27  1  0
 27 28  1  0
 19 29  1  0
 29 30  2  0
 29 31  1  0
 31 32  1  0
 32 33  1  0
 33 34  2  0
 33 35  1  0
 35 36  1  0
 36 37  1  0
 37 38  2  0
 37 39  1  0
 39 40  1  0
 40 41  1  0
 41 42  2  0
 41 43  1  0
 40 44  1  0
 44 45  1  0
 45 46  2  0
 45 47  1  0
 36 48  1  0
 48 49  1  0
 49 50  1  0
 50 51  2  0
 50 52  1  0
 32 53  1  0
 53 54  1  0
 54 55  1  0
 53 56  1  0
  5 57  1  0
 57 58  2  0
 57 59  1  0
 59 60  1  0
 60 61  1  0
 61 62  2  0
 61 63  1  0
 63 64  1  0
 64 65  1  0
 65 66  2  0
 65 67  1  0
 60 68  1  0
 68 69  1  0
 69 70  1  0
 69 71  1  0
  7  3  1  0
 43 10  1  0
 26 21  1  0
  1 72  1  0
  1 73  1  0
  1 74  1  0
  3 75  1  6
  4 76  1  0
  4 77  1  0
  5 78  1  1
  7 79  1  0
  7 80  1  0
 10 81  1  6
 11 82  1  0
 11 83  1  0
 13 84  1  0
 13 85  1  0
 14 86  1  0
 14 87  1  0
 15 88  1  0
 15 89  1  0
 18 90  1  0
 19 91  1  1
 20 92  1  0
 20 93  1  0
 22 94  1  0
 23 95  1  0
 25 96  1  0
 26 97  1  0
 28 98  1  0
 28 99  1  0
 28100  1  0
 31101  1  0
 32102  1  1
 35103  1  0
 36104  1  1
 39105  1  0
 40106  1  1
 43107  1  0
 44108  1  0
 44109  1  0
 47110  1  0
 47111  1  0
 48112  1  0
 48113  1  0
 49114  1  0
 49115  1  0
 52116  1  0
 52117  1  0
 53118  1  1
 54119  1  0
 54120  1  0
 55121  1  0
 55122  1  0
 55123  1  0
 56124  1  0
 56125  1  0
 56126  1  0
 59127  1  0
 60128  1  6
 63129  1  0
 64130  1  0
 64131  1  0
 67132  1  0
 67133  1  0
 68134  1  0
 68135  1  0
 69136  1  0
 70137  1  0
 70138  1  0
 70139  1  0
 71140  1  0
 71141  1  0
 71142  1  0
M  END
>  <Ligand ID>  (1) 
LIG0001575

>  <Ligand>  (1) 
CHEMBL3353933

>  <SMILES>  (1) 
CO[C@@H]1C[C@H](N(C1)C(=O)[C@@H]1CSCCCC(=O)N[C@@H](Cc2ccc(cc2)OC)C(=O)N[C@H](C(=O)N[C@H](C(=O)N[C@H](C(=O)N1)CC(=O)N)CCC(=O)N)[C@H](CC)C)C(=O)N[C@H](C(=O)NCC(=O)N)CC(C)C

>  <CID>  (1) 
118719822.0

>  <ChEMBL ID>  (1) 
nan

>  <InChiKey>  (1) 
HRZSGPFMYGLGMX-AXFZOFTKSA-N

>  <InChi>  (1) 
InChI=1S/C46H71N11O13S/c1-7-25(4)39-45(67)52-29(14-15-35(47)58)41(63)53-32(20-36(48)59)42(64)55-33(23-71-16-8-9-38(61)51-31(43(65)56-39)18-26-10-12-27(69-5)13-11-26)46(68)57-22-28(70-6)19-34(57)44(66)54-30(17-24(2)3)40(62)50-21-37(49)60/h10-13,24-25,28-34,39H,7-9,14-23H2,1-6H3,(H2,47,58)(H2,48,59)(H2,49,60)(H,50,62)(H,51,61)(H,52,67)(H,53,63)(H,54,66)(H,55,64)(H,56,65)/t25-,28+,29-,30-,31-,32-,33-,34-,39-/m0/s1

>  <IUPAC Name>  (1) 
(2S,4R)-N-[(2S)-1-[(2-amino-2-oxoethyl)amino]-4-methyl-1-oxopentan-2-yl]-1-[(3R,6S,9S,12S,15S)-6-(2-amino-2-oxoethyl)-9-(3-amino-3-oxopropyl)-12-[(2S)-butan-2-yl]-15-[(4-methoxyphenyl)methyl]-5,8,11,14,17-pentaoxo-1-thia-4,7,10,13,16-pentazacycloicosane-3-carbonyl]-4-methoxypyrrolidine-2-carboxamide

$$$$
