
     RDKit          3D

 31 30  0  0  0  0  0  0  0  0999 V2000
   -2.5673    2.2764   -0.4904 O   0  0  0  0  0  0  0  0  0  0  0  0
   -2.5416    1.3706   -1.3544 C   0  0  0  0  0  0  0  0  0  0  0  0
   -2.1460    0.0688   -1.1259 O   0  0  0  0  0  0  0  0  0  0  0  0
   -1.7253   -0.3334    0.1578 C   0  0  0  0  0  0  0  0  0  0  0  0
   -0.5334    0.4514    0.5877 C   0  0  0  0  0  0  0  0  0  0  0  0
    0.5718    0.2035   -0.4151 C   0  0  0  0  0  0  0  0  0  0  0  0
    1.8000    0.9570   -0.0516 C   0  0  0  0  0  0  0  0  0  0  0  0
    2.9630    0.3601    0.1997 C   0  0  0  0  0  0  0  0  0  0  0  0
    4.1557    1.1891    0.5597 C   0  0  0  0  0  0  0  0  0  0  0  0
    3.0335   -1.1306    0.1119 C   0  0  0  0  0  0  0  0  0  0  0  0
   -2.9009   -0.1035    1.0734 C   0  0  0  0  0  0  0  0  0  0  0  0
   -4.0837   -0.5061    0.5790 C   0  0  0  0  0  0  0  0  0  0  0  0
   -1.4316   -1.8124    0.2212 C   0  0  0  0  0  0  0  0  0  0  0  0
   -2.8575    1.6445   -2.3558 H   0  0  0  0  0  0  0  0  0  0  0  0
   -0.2273    0.0939    1.5983 H   0  0  0  0  0  0  0  0  0  0  0  0
   -0.7227    1.5180    0.6791 H   0  0  0  0  0  0  0  0  0  0  0  0
    0.2842    0.4989   -1.4345 H   0  0  0  0  0  0  0  0  0  0  0  0
    0.7514   -0.8978   -0.4228 H   0  0  0  0  0  0  0  0  0  0  0  0
    1.7089    2.0374    0.0019 H   0  0  0  0  0  0  0  0  0  0  0  0
    3.7418    2.0612    1.1462 H   0  0  0  0  0  0  0  0  0  0  0  0
    4.5960    1.5273   -0.4051 H   0  0  0  0  0  0  0  0  0  0  0  0
    4.8840    0.6205    1.1537 H   0  0  0  0  0  0  0  0  0  0  0  0
    2.8598   -1.4968   -0.9369 H   0  0  0  0  0  0  0  0  0  0  0  0
    2.2848   -1.6315    0.7445 H   0  0  0  0  0  0  0  0  0  0  0  0
    4.0726   -1.4570    0.3673 H   0  0  0  0  0  0  0  0  0  0  0  0
   -2.7851    0.3465    2.0385 H   0  0  0  0  0  0  0  0  0  0  0  0
   -4.0331   -0.9454   -0.4192 H   0  0  0  0  0  0  0  0  0  0  0  0
   -5.0114   -0.4001    1.1330 H   0  0  0  0  0  0  0  0  0  0  0  0
   -2.3874   -2.3527    0.3833 H   0  0  0  0  0  0  0  0  0  0  0  0
   -1.0082   -2.0826   -0.7771 H   0  0  0  0  0  0  0  0  0  0  0  0
   -0.7450   -2.0755    1.0268 H   0  0  0  0  0  0  0  0  0  0  0  0
  1  2  2  0
  2  3  1  0
  3  4  1  0
  4  5  1  0
  5  6  1  0
  6  7  1  0
  7  8  2  3
  8  9  1  0
  8 10  1  0
  4 11  1  0
 11 12  2  0
  4 13  1  0
  2 14  1  0
  5 15  1  0
  5 16  1  0
  6 17  1  0
  6 18  1  0
  7 19  1  0
  9 20  1  0
  9 21  1  0
  9 22  1  0
 10 23  1  0
 10 24  1  0
 10 25  1  0
 11 26  1  0
 12 27  1  0
 12 28  1  0
 13 29  1  0
 13 30  1  0
 13 31  1  0
M  END
>  <Ligand ID>  (1) 
LIG0000773

>  <Ligand>  (1) 
Linalyl formate

>  <SMILES>  (1) 
O=COC(CCC=C(C)C)(C=C)C

>  <CID>  (1) 
61040.0

>  <ChEMBL ID>  (1) 
nan

>  <InChiKey>  (1) 
JZOCDHMHLGUPFI-UHFFFAOYSA-N

>  <InChi>  (1) 
InChI=1S/C11H18O2/c1-5-11(4,13-9-12)8-6-7-10(2)3/h5,7,9H,1,6,8H2,2-4H3

>  <IUPAC Name>  (1) 
3,7-dimethylocta-1,6-dien-3-yl formate

$$$$
