
     RDKit          3D

 51 53  0  0  0  0  0  0  0  0999 V2000
   -0.4159   -2.2028    0.3708 C   0  0  0  0  0  0  0  0  0  0  0  0
   -1.1705   -0.9529    0.6102 C   0  0  1  0  0  0  0  0  0  0  0  0
   -0.4473    0.0573    1.4531 C   0  0  0  0  0  0  0  0  0  0  0  0
    0.8107    0.4526    0.8298 C   0  0  0  0  0  0  0  0  0  0  0  0
    0.9436    1.5695   -0.0048 C   0  0  0  0  0  0  0  0  0  0  0  0
    2.2002    1.6554   -0.4643 N   0  0  0  0  0  0  0  0  0  0  0  0
    2.9229    0.6221    0.0407 C   0  0  0  0  0  0  0  0  0  0  0  0
    2.0674   -0.1131    0.8341 C   0  0  0  0  0  0  0  0  0  0  0  0
    2.5639   -1.2323    1.4895 C   0  0  0  0  0  0  0  0  0  0  0  0
    3.8850   -1.5932    1.3416 C   0  0  0  0  0  0  0  0  0  0  0  0
    4.7298   -0.8494    0.5429 C   0  0  0  0  0  0  0  0  0  0  0  0
    4.2581    0.2681   -0.1172 C   0  0  0  0  0  0  0  0  0  0  0  0
    5.0355    1.0621   -0.9325 O   0  0  0  0  0  0  0  0  0  0  0  0
    6.4075    0.8253   -1.1751 C   0  0  0  0  0  0  0  0  0  0  0  0
    7.2340    0.8964    0.0607 C   0  0  0  0  0  0  0  0  0  0  0  0
    8.4805    0.6662    0.0169 O   0  0  0  0  0  0  0  0  0  0  0  0
    6.7014    1.2140    1.3105 O   0  0  0  0  0  0  0  0  0  0  0  0
   -1.5545   -0.2620   -0.6022 N   0  0  0  0  0  0  0  0  0  0  0  0
   -2.3985   -1.0254   -1.4740 C   0  0  0  0  0  0  0  0  0  0  0  0
   -3.7661   -1.2809   -0.9301 C   0  0  1  0  0  0  0  0  0  0  0  0
   -4.5467   -0.0458   -0.6623 C   0  0  0  0  0  0  0  0  0  0  0  0
   -4.6508    0.4230    0.6287 C   0  0  0  0  0  0  0  0  0  0  0  0
   -5.3652    1.5691    0.9596 C   0  0  0  0  0  0  0  0  0  0  0  0
   -5.9927    2.2583   -0.0562 C   0  0  0  0  0  0  0  0  0  0  0  0
   -5.9167    1.8271   -1.3656 C   0  0  0  0  0  0  0  0  0  0  0  0
   -5.1886    0.6731   -1.6456 C   0  0  0  0  0  0  0  0  0  0  0  0
   -6.7192    2.7046   -2.6734 Cl  0  0  0  0  0  0  0  0  0  0  0  0
   -4.5469   -2.0353   -1.8268 O   0  0  0  0  0  0  0  0  0  0  0  0
   -1.0129   -2.9747   -0.1834 H   0  0  0  0  0  0  0  0  0  0  0  0
   -0.1072   -2.7056    1.3062 H   0  0  0  0  0  0  0  0  0  0  0  0
    0.4937   -2.0802   -0.2536 H   0  0  0  0  0  0  0  0  0  0  0  0
   -2.0887   -1.2290    1.2164 H   0  0  0  0  0  0  0  0  0  0  0  0
   -0.3239   -0.2882    2.5077 H   0  0  0  0  0  0  0  0  0  0  0  0
   -1.0904    0.9831    1.5590 H   0  0  0  0  0  0  0  0  0  0  0  0
    0.1657    2.2879   -0.2680 H   0  0  0  0  0  0  0  0  0  0  0  0
    2.5887    2.3990   -1.1159 H   0  0  0  0  0  0  0  0  0  0  0  0
    1.9047   -1.8084    2.1213 H   0  0  0  0  0  0  0  0  0  0  0  0
    4.2026   -2.4801    1.8848 H   0  0  0  0  0  0  0  0  0  0  0  0
    5.7443   -1.1637    0.4468 H   0  0  0  0  0  0  0  0  0  0  0  0
    6.5617   -0.1165   -1.7424 H   0  0  0  0  0  0  0  0  0  0  0  0
    6.7974    1.6456   -1.8330 H   0  0  0  0  0  0  0  0  0  0  0  0
    7.2832    1.4210    2.1155 H   0  0  0  0  0  0  0  0  0  0  0  0
   -2.0453    0.5921   -0.3093 H   0  0  0  0  0  0  0  0  0  0  0  0
   -1.9504   -1.9619   -1.8248 H   0  0  0  0  0  0  0  0  0  0  0  0
   -2.5356   -0.3879   -2.3839 H   0  0  0  0  0  0  0  0  0  0  0  0
   -3.7571   -1.8827    0.0037 H   0  0  0  0  0  0  0  0  0  0  0  0
   -4.1774   -0.0804    1.4703 H   0  0  0  0  0  0  0  0  0  0  0  0
   -5.4421    1.9310    1.9849 H   0  0  0  0  0  0  0  0  0  0  0  0
   -6.5501    3.1516    0.2064 H   0  0  0  0  0  0  0  0  0  0  0  0
   -5.1048    0.2993   -2.6563 H   0  0  0  0  0  0  0  0  0  0  0  0
   -5.1168   -2.7022   -1.3683 H   0  0  0  0  0  0  0  0  0  0  0  0
  1  2  1  0
  2  3  1  0
  3  4  1  0
  4  5  2  0
  5  6  1  0
  6  7  1  0
  7  8  2  0
  8  9  1  0
  9 10  2  0
 10 11  1  0
 11 12  2  0
 12 13  1  0
 13 14  1  0
 14 15  1  0
 15 16  2  0
 15 17  1  0
  2 18  1  0
 18 19  1  0
 19 20  1  0
 20 21  1  0
 21 22  2  0
 22 23  1  0
 23 24  2  0
 24 25  1  0
 25 26  2  0
 25 27  1  0
 20 28  1  0
  8  4  1  0
 26 21  1  0
 12  7  1  0
  1 29  1  0
  1 30  1  0
  1 31  1  0
  2 32  1  1
  3 33  1  0
  3 34  1  0
  5 35  1  0
  6 36  1  0
  9 37  1  0
 10 38  1  0
 11 39  1  0
 14 40  1  0
 14 41  1  0
 17 42  1  0
 18 43  1  0
 19 44  1  0
 19 45  1  0
 20 46  1  1
 22 47  1  0
 23 48  1  0
 24 49  1  0
 26 50  1  0
 28 51  1  0
M  END
>  <Ligand ID>  (1) 
LIG0005214

>  <Ligand>  (1) 
CHEMBL24350

>  <SMILES>  (1) 
C[C@@H](Cc1c[nH]c2c1cccc2OCC(=O)O)NC[C@@H](c1cccc(c1)Cl)O

>  <CID>  (1) 
213051.0

>  <ChEMBL ID>  (1) 
nan

>  <InChiKey>  (1) 
FHEYFIGWYQJVDR-UGSOOPFHSA-N

>  <InChi>  (1) 
InChI=1S/C21H23ClN2O4/c1-13(23-11-18(25)14-4-2-5-16(22)9-14)8-15-10-24-21-17(15)6-3-7-19(21)28-12-20(26)27/h2-7,9-10,13,18,23-25H,8,11-12H2,1H3,(H,26,27)/t13-,18-/m0/s1

>  <IUPAC Name>  (1) 
2-[[3-[(2S)-2-[[(2R)-2-(3-chlorophenyl)-2-hydroxyethyl]amino]propyl]-1H-indol-7-yl]oxy]acetic acid

$$$$
