
     RDKit          3D

 27 28  0  0  0  0  0  0  0  0999 V2000
   -1.2536    0.4471   -1.3276 O   0  0  0  0  0  0  0  0  0  0  0  0
   -1.7273   -0.0413   -0.2736 C   0  0  0  0  0  0  0  0  0  0  0  0
   -3.1724   -0.0005   -0.0889 C   0  0  0  0  0  0  0  0  0  0  0  0
   -3.9334    0.5735   -1.0858 C   0  0  0  0  0  0  0  0  0  0  0  0
   -5.3104    0.6521   -0.9885 C   0  0  0  0  0  0  0  0  0  0  0  0
   -5.9156    0.1299    0.1568 C   0  0  0  0  0  0  0  0  0  0  0  0
   -5.1504   -0.4256    1.1162 N   0  0  0  0  0  0  0  0  0  0  0  0
   -3.8090   -0.5017    1.0205 C   0  0  0  0  0  0  0  0  0  0  0  0
   -0.8433   -0.6073    0.6847 N   0  0  0  0  0  0  0  0  0  0  0  0
    0.5454   -0.6514    0.5170 N   0  0  0  0  0  0  0  0  0  0  0  0
    1.2436    0.2698   -0.0105 C   0  0  0  0  0  0  0  0  0  0  0  0
    2.6793    0.0819   -0.1171 C   0  0  0  0  0  0  0  0  0  0  0  0
    3.3993   -1.0201   -0.3529 C   0  0  0  0  0  0  0  0  0  0  0  0
    4.7399   -0.9407   -0.4064 C   0  0  0  0  0  0  0  0  0  0  0  0
    5.3086    0.2916   -0.2123 C   0  0  0  0  0  0  0  0  0  0  0  0
    3.8880    1.4540    0.0699 S   0  0  0  0  0  0  0  0  0  0  0  0
    6.6605    0.7339   -0.2007 N   0  0  0  0  0  0  0  0  0  0  0  0
    7.5278   -0.1337   -0.4015 O   0  0  0  0  0  0  0  0  0  0  0  0
    6.9441    2.0584    0.0245 O   0  0  0  0  0  0  0  0  0  0  0  0
   -3.4902    0.9850   -1.9818 H   0  0  0  0  0  0  0  0  0  0  0  0
   -5.9072    1.1098   -1.7850 H   0  0  0  0  0  0  0  0  0  0  0  0
   -6.9961    0.1662    0.2833 H   0  0  0  0  0  0  0  0  0  0  0  0
   -3.2383   -0.9530    1.8093 H   0  0  0  0  0  0  0  0  0  0  0  0
   -1.2150   -1.0179    1.5660 H   0  0  0  0  0  0  0  0  0  0  0  0
    0.7513    1.1656   -0.3645 H   0  0  0  0  0  0  0  0  0  0  0  0
    2.8806   -2.0085   -0.5055 H   0  0  0  0  0  0  0  0  0  0  0  0
    5.3938   -1.8170   -0.5981 H   0  0  0  0  0  0  0  0  0  0  0  0
  1  2  2  0
  2  3  1  0
  3  4  2  0
  4  5  1  0
  5  6  2  0
  6  7  1  0
  7  8  2  0
  2  9  1  0
  9 10  1  0
 10 11  2  0
 11 12  1  0
 12 13  2  0
 13 14  1  0
 14 15  2  0
 15 16  1  0
 15 17  1  0
 17 18  2  0
 17 19  1  0
  8  3  1  0
 16 12  1  0
  4 20  1  0
  5 21  1  0
  6 22  1  0
  8 23  1  0
  9 24  1  0
 11 25  1  0
 13 26  1  0
 14 27  1  0
M  CHG  2  17   1  19  -1
M  END
>  <Ligand ID>  (1) 
LIG0005973

>  <Ligand>  (1) 
MLS000592149

>  <SMILES>  (1) 
O=C(c1cccnc1)N/N=C/c1ccc(s1)[N+](=O)[O-]

>  <CID>  (1) 
6870357.0

>  <ChEMBL ID>  (1) 
nan

>  <InChiKey>  (1) 
KFQYDHVVCXUQTM-NTUHNPAUSA-N

>  <InChi>  (1) 
InChI=1S/C11H8N4O3S/c16-11(8-2-1-5-12-6-8)14-13-7-9-3-4-10(19-9)15(17)18/h1-7H,(H,14,16)/b13-7+

>  <IUPAC Name>  (1) 
N-[(E)-(5-nitrothiophen-2-yl)methylideneamino]pyridine-3-carboxamide

$$$$
