
     RDKit          3D

 29 29  0  0  0  0  0  0  0  0999 V2000
   -4.5000    0.7271   -0.2927 N   0  0  0  0  0  0  0  0  0  0  0  0
   -3.4748    0.0403   -1.0600 C   0  0  0  0  0  0  0  0  0  0  0  0
   -2.0835    0.4909   -0.6051 C   0  0  1  0  0  0  0  0  0  0  0  0
   -1.8520    0.1844    0.8813 C   0  0  0  0  0  0  0  0  0  0  0  0
   -1.1660   -0.5963   -0.2381 C   0  0  2  0  0  0  0  0  0  0  0  0
    0.3156   -0.3968   -0.2130 C   0  0  0  0  0  0  0  0  0  0  0  0
    1.1532   -1.4886   -0.3821 C   0  0  0  0  0  0  0  0  0  0  0  0
    2.5327   -1.3191   -0.3613 C   0  0  0  0  0  0  0  0  0  0  0  0
    3.0776   -0.0563   -0.1711 C   0  0  0  0  0  0  0  0  0  0  0  0
    2.2346    1.0388   -0.0015 C   0  0  0  0  0  0  0  0  0  0  0  0
    0.8476    0.8774   -0.0211 C   0  0  0  0  0  0  0  0  0  0  0  0
    4.5572    0.0773   -0.1561 C   0  0  0  0  0  0  0  0  0  0  0  0
    4.9829    1.3477   -0.4487 F   0  0  0  0  0  0  0  0  0  0  0  0
    5.0038   -0.3696    1.0669 F   0  0  0  0  0  0  0  0  0  0  0  0
    5.1053   -0.7717   -1.1014 F   0  0  0  0  0  0  0  0  0  0  0  0
    0.6835    0.0000    0.0000 Cl  0  0  0  0  0  0  0  0  0  0  0  0
   -5.1153    0.0476    0.2048 H   0  0  0  0  0  0  0  0  0  0  0  0
   -4.0524    1.3621    0.4113 H   0  0  0  0  0  0  0  0  0  0  0  0
   -3.6044   -1.0524   -0.8995 H   0  0  0  0  0  0  0  0  0  0  0  0
   -3.6289    0.2954   -2.1376 H   0  0  0  0  0  0  0  0  0  0  0  0
   -1.7782    1.4573   -1.0077 H   0  0  0  0  0  0  0  0  0  0  0  0
   -2.5923   -0.3829    1.4443 H   0  0  0  0  0  0  0  0  0  0  0  0
   -1.3062    0.9960    1.3921 H   0  0  0  0  0  0  0  0  0  0  0  0
   -1.4796   -1.6349   -0.3950 H   0  0  0  0  0  0  0  0  0  0  0  0
    0.7641   -2.4878   -0.5327 H   0  0  0  0  0  0  0  0  0  0  0  0
    3.2186   -2.1595   -0.4916 H   0  0  0  0  0  0  0  0  0  0  0  0
    2.6474    2.0262    0.1472 H   0  0  0  0  0  0  0  0  0  0  0  0
    0.1929    1.7474    0.1136 H   0  0  0  0  0  0  0  0  0  0  0  0
   -0.6835    0.0000    0.0000 H   0  0  0  0  0  0  0  0  0  0  0  0
  1  2  1  0
  2  3  1  0
  3  4  1  0
  4  5  1  0
  5  6  1  0
  6  7  2  0
  7  8  1  0
  8  9  2  0
  9 10  1  0
 10 11  2  0
  9 12  1  0
 12 13  1  0
 12 14  1  0
 12 15  1  0
  5  3  1  0
 11  6  1  0
  1 17  1  0
  1 18  1  0
  2 19  1  0
  2 20  1  0
  3 21  1  1
  4 22  1  0
  4 23  1  0
  5 24  1  6
  7 25  1  0
  8 26  1  0
 10 27  1  0
 11 28  1  0
 16 29  1  0
M  END
>  <Ligand ID>  (1) 
LIG0005669

>  <Ligand>  (1) 
CHEMBL493111

>  <SMILES>  (1) 
NC[C@H]1C[C@@H]1c1ccc(cc1)C(F)(F)F.Cl

>  <CID>  (1) 
44573005.0

>  <ChEMBL ID>  (1) 
nan

>  <InChiKey>  (1) 
VHRFQQYFGAYIIO-GHXDPTCOSA-N

>  <InChi>  (1) 
InChI=1S/C11H12F3N.ClH/c12-11(13,14)9-3-1-7(2-4-9)10-5-8(10)6-15;/h1-4,8,10H,5-6,15H2;1H/t8-,10-;/m1./s1

>  <IUPAC Name>  (1) 
[(1S,2S)-2-[4-(trifluoromethyl)phenyl]cyclopropyl]methanamine;hydrochloride

$$$$
