
     RDKit          3D

 38 40  0  0  0  0  0  0  0  0999 V2000
   -1.0574    0.0151    1.7372 C   0  0  0  0  0  0  0  0  0  0  0  0
   -2.0062    0.7962    0.9194 C   0  0  0  0  0  0  0  0  0  0  0  0
   -2.8343    1.6503    1.6765 C   0  0  0  0  0  0  0  0  0  0  0  0
   -3.8958    2.3233    1.1164 C   0  0  0  0  0  0  0  0  0  0  0  0
   -4.1039    2.1150   -0.2250 C   0  0  0  0  0  0  0  0  0  0  0  0
   -3.3104    1.3135   -0.9049 N   0  0  0  0  0  0  0  0  0  0  0  0
   -2.2351    0.6132   -0.4268 C   0  0  0  0  0  0  0  0  0  0  0  0
   -1.6063   -0.2948   -1.3339 C   0  0  0  0  0  0  0  0  0  0  0  0
   -2.4634   -0.7803   -2.3753 C   0  0  0  0  0  0  0  0  0  0  0  0
   -2.1154   -1.8694   -3.1282 C   0  0  0  0  0  0  0  0  0  0  0  0
   -0.9373   -2.5630   -2.9416 C   0  0  0  0  0  0  0  0  0  0  0  0
   -0.0972   -2.1168   -1.9577 C   0  0  0  0  0  0  0  0  0  0  0  0
   -0.4735   -1.0193   -1.2240 C   0  0  0  0  0  0  0  0  0  0  0  0
    0.6081   -0.3878   -0.4920 N   0  0  0  0  0  0  0  0  0  0  0  0
    1.8509   -1.0780   -0.2404 C   0  0  0  0  0  0  0  0  0  0  0  0
    2.8281   -0.2659    0.5215 C   0  0  0  0  0  0  0  0  0  0  0  0
    2.5810    0.9375    0.9156 N   0  0  0  0  0  0  0  0  0  0  0  0
    3.6877    1.4961    1.6281 C   0  0  0  0  0  0  0  0  0  0  0  0
    4.8419    0.5634    1.3261 C   0  0  0  0  0  0  0  0  0  0  0  0
    4.1376   -0.6429    0.9324 N   0  0  0  0  0  0  0  0  0  0  0  0
   -0.9566   -1.0431    1.4126 H   0  0  0  0  0  0  0  0  0  0  0  0
   -0.1172    0.5118    1.9838 H   0  0  0  0  0  0  0  0  0  0  0  0
   -1.5834   -0.1536    2.7637 H   0  0  0  0  0  0  0  0  0  0  0  0
   -2.6632    1.8080    2.7316 H   0  0  0  0  0  0  0  0  0  0  0  0
   -4.5436    2.9797    1.6646 H   0  0  0  0  0  0  0  0  0  0  0  0
   -4.9091    2.6054   -0.7130 H   0  0  0  0  0  0  0  0  0  0  0  0
   -3.3979   -0.2997   -2.5884 H   0  0  0  0  0  0  0  0  0  0  0  0
   -2.8055   -2.2076   -3.9179 H   0  0  0  0  0  0  0  0  0  0  0  0
   -0.7507   -3.3984   -3.5681 H   0  0  0  0  0  0  0  0  0  0  0  0
    0.8419   -2.6286   -1.7725 H   0  0  0  0  0  0  0  0  0  0  0  0
    0.5672    0.6065   -0.1864 H   0  0  0  0  0  0  0  0  0  0  0  0
    2.3119   -1.3151   -1.2208 H   0  0  0  0  0  0  0  0  0  0  0  0
    1.6542   -2.0590    0.2494 H   0  0  0  0  0  0  0  0  0  0  0  0
    3.5103    1.6424    2.7026 H   0  0  0  0  0  0  0  0  0  0  0  0
    3.9858    2.5051    1.2261 H   0  0  0  0  0  0  0  0  0  0  0  0
    5.5159    0.9582    0.5360 H   0  0  0  0  0  0  0  0  0  0  0  0
    5.4329    0.3217    2.2338 H   0  0  0  0  0  0  0  0  0  0  0  0
    4.5079   -1.6391    0.9395 H   0  0  0  0  0  0  0  0  0  0  0  0
  1  2  1  0
  2  3  2  0
  3  4  1  0
  4  5  2  0
  5  6  1  0
  6  7  2  0
  7  8  1  0
  8  9  2  0
  9 10  1  0
 10 11  2  0
 11 12  1  0
 12 13  2  0
 13 14  1  0
 14 15  1  0
 15 16  1  0
 16 17  2  0
 17 18  1  0
 18 19  1  0
 19 20  1  0
  7  2  1  0
 13  8  1  0
 20 16  1  0
  1 21  1  0
  1 22  1  0
  1 23  1  0
  3 24  1  0
  4 25  1  0
  5 26  1  0
  9 27  1  0
 10 28  1  0
 11 29  1  0
 12 30  1  0
 14 31  1  0
 15 32  1  0
 15 33  1  0
 18 34  1  0
 18 35  1  0
 19 36  1  0
 19 37  1  0
 20 38  1  0
M  END
>  <Ligand ID>  (1) 
LIG0003673

>  <Ligand>  (1) 
CHEMBL154170

>  <SMILES>  (1) 
Cc1cccnc1c1ccccc1NCC1=NCCN1

>  <CID>  (1) 
22493356.0

>  <ChEMBL ID>  (1) 
nan

>  <InChiKey>  (1) 
RPXGGOSHABXVKK-UHFFFAOYSA-N

>  <InChi>  (1) 
InChI=1S/C16H18N4/c1-12-5-4-8-19-16(12)13-6-2-3-7-14(13)20-11-15-17-9-10-18-15/h2-8,20H,9-11H2,1H3,(H,17,18)

>  <IUPAC Name>  (1) 
N-(4,5-dihydro-1H-imidazol-2-ylmethyl)-2-(3-methylpyridin-2-yl)aniline

$$$$
