
     RDKit          3D

 50 55  0  0  0  0  0  0  0  0999 V2000
    0.7322    0.7129   -1.1088 O   0  0  0  0  0  0  0  0  0  0  0  0
    0.8458   -0.5181   -0.8770 C   0  0  0  0  0  0  0  0  0  0  0  0
    2.1197   -1.1260   -0.5867 N   0  0  0  0  0  0  0  0  0  0  0  0
    3.3230   -0.3599   -0.5490 C   0  0  0  0  0  0  0  0  0  0  0  0
    3.1853    1.5070   -0.8808 S   0  0  0  0  0  0  0  0  0  0  0  0
    5.0155    1.6657   -0.6589 C   0  0  0  0  0  0  0  0  0  0  0  0
    5.4516    0.3589   -0.3806 C   0  0  0  0  0  0  0  0  0  0  0  0
    4.4662   -0.5054   -0.3693 N   0  0  0  0  0  0  0  0  0  0  0  0
    6.8585    0.0654   -0.1441 C   0  0  0  0  0  0  0  0  0  0  0  0
    7.8278    1.0471   -0.1758 C   0  0  0  0  0  0  0  0  0  0  0  0
    9.1704    0.7631    0.0482 C   0  0  0  0  0  0  0  0  0  0  0  0
    9.5754   -0.5401    0.3139 C   0  0  0  0  0  0  0  0  0  0  0  0
    8.6178   -1.5357    0.3494 C   0  0  0  0  0  0  0  0  0  0  0  0
    7.2954   -1.2192    0.1230 C   0  0  0  0  0  0  0  0  0  0  0  0
   -0.3176   -1.4528   -0.8825 C   0  0  0  0  0  0  0  0  0  0  0  0
   -1.1358   -1.5362    0.7305 S   0  0  0  0  0  0  0  0  0  0  0  0
   -1.9124    0.0029    1.1517 C   0  0  0  0  0  0  0  0  0  0  0  0
   -1.2876    0.9862    1.8258 N   0  0  0  0  0  0  0  0  0  0  0  0
   -2.1168    2.0120    1.9942 N   0  0  0  0  0  0  0  0  0  0  0  0
   -3.2892    1.6880    1.4228 C   0  0  0  0  0  0  0  0  0  0  0  0
   -3.1514    0.4551    0.9102 N   0  0  0  0  0  0  0  0  0  0  0  0
   -4.2002   -0.0890    0.2814 C   0  0  0  0  0  0  0  0  0  0  0  0
   -4.1362   -1.3439   -0.2692 C   0  0  0  0  0  0  0  0  0  0  0  0
   -5.2362   -1.9140   -0.9297 C   0  0  0  0  0  0  0  0  0  0  0  0
   -5.4633   -3.1201   -1.5639 O   0  0  0  0  0  0  0  0  0  0  0  0
   -6.8754   -3.2100   -1.8069 C   0  0  0  0  0  0  0  0  0  0  0  0
   -7.3553   -1.8892   -1.6889 O   0  0  0  0  0  0  0  0  0  0  0  0
   -6.3817   -1.1548   -0.9989 C   0  0  0  0  0  0  0  0  0  0  0  0
   -6.4960    0.1021   -0.4655 C   0  0  0  0  0  0  0  0  0  0  0  0
   -5.3728    0.6111    0.1755 C   0  0  0  0  0  0  0  0  0  0  0  0
   -5.5360    1.8965    0.7033 C   0  0  0  0  0  0  0  0  0  0  0  0
   -4.4438    2.4317    1.3437 C   0  0  0  0  0  0  0  0  0  0  0  0
   -4.5861    3.7952    1.9154 C   0  0  0  0  0  0  0  0  0  0  0  0
    2.2062   -2.1309   -0.3969 H   0  0  0  0  0  0  0  0  0  0  0  0
    5.5512    2.6153   -0.7458 H   0  0  0  0  0  0  0  0  0  0  0  0
    7.5688    2.0723   -0.3770 H   0  0  0  0  0  0  0  0  0  0  0  0
    9.8883    1.5842    0.0095 H   0  0  0  0  0  0  0  0  0  0  0  0
   10.6171   -0.7824    0.4910 H   0  0  0  0  0  0  0  0  0  0  0  0
    8.8965   -2.5692    0.5541 H   0  0  0  0  0  0  0  0  0  0  0  0
    6.5824   -2.0176    0.1585 H   0  0  0  0  0  0  0  0  0  0  0  0
   -1.0232   -1.0890   -1.6717 H   0  0  0  0  0  0  0  0  0  0  0  0
   -0.0098   -2.4620   -1.2283 H   0  0  0  0  0  0  0  0  0  0  0  0
   -3.2643   -1.9710   -0.2392 H   0  0  0  0  0  0  0  0  0  0  0  0
   -7.2829   -3.9032   -1.0729 H   0  0  0  0  0  0  0  0  0  0  0  0
   -7.0800   -3.5340   -2.8667 H   0  0  0  0  0  0  0  0  0  0  0  0
   -7.4222    0.6537   -0.5498 H   0  0  0  0  0  0  0  0  0  0  0  0
   -6.4874    2.4307    0.6022 H   0  0  0  0  0  0  0  0  0  0  0  0
   -4.5586    4.5034    1.0362 H   0  0  0  0  0  0  0  0  0  0  0  0
   -3.7722    4.0799    2.5906 H   0  0  0  0  0  0  0  0  0  0  0  0
   -5.6005    3.9330    2.3662 H   0  0  0  0  0  0  0  0  0  0  0  0
  1  2  2  0
  2  3  1  0
  3  4  1  0
  4  5  1  0
  5  6  1  0
  6  7  2  0
  7  8  1  0
  7  9  1  0
  9 10  2  0
 10 11  1  0
 11 12  2  0
 12 13  1  0
 13 14  2  0
  2 15  1  0
 15 16  1  0
 16 17  1  0
 17 18  2  0
 18 19  1  0
 19 20  2  0
 20 21  1  0
 21 22  1  0
 22 23  2  0
 23 24  1  0
 24 25  1  0
 25 26  1  0
 26 27  1  0
 27 28  1  0
 28 29  1  0
 29 30  2  0
 30 31  1  0
 31 32  2  0
 32 33  1  0
  8  4  2  0
 14  9  1  0
 21 17  1  0
 30 22  1  0
 32 20  1  0
 28 24  2  0
  3 34  1  0
  6 35  1  0
 10 36  1  0
 11 37  1  0
 12 38  1  0
 13 39  1  0
 14 40  1  0
 15 41  1  0
 15 42  1  0
 23 43  1  0
 26 44  1  0
 26 45  1  0
 29 46  1  0
 31 47  1  0
 33 48  1  0
 33 49  1  0
 33 50  1  0
M  END
>  <Ligand ID>  (1) 
LIG0001737

>  <Ligand>  (1) 
ASN 04482680

>  <SMILES>  (1) 
O=C(Nc1scc(n1)c1ccccc1)CSc1nnc2n1c1cc3OCOc3cc1cc2C

>  <CID>  (1) 
1143390.0

>  <ChEMBL ID>  (1) 
nan

>  <InChiKey>  (1) 
VMCNPERZTWTVQD-UHFFFAOYSA-N

>  <InChi>  (1) 
InChI=1S/C23H17N5O3S2/c1-13-7-15-8-18-19(31-12-30-18)9-17(15)28-21(13)26-27-23(28)33-11-20(29)25-22-24-16(10-32-22)14-5-3-2-4-6-14/h2-10H,11-12H2,1H3,(H,24,25,29)

>  <IUPAC Name>  (1) 
2-[(7-methyl-12,14-dioxa-2,4,5-triazatetracyclo[7.7.0.02,6.011,15]hexadeca-1(16),3,5,7,9,11(15)-hexaen-3-yl)sulfanyl]-N-(4-phenyl-1,3-thiazol-2-yl)acetamide

$$$$
