
     RDKit          3D

 33 35  0  0  0  0  0  0  0  0999 V2000
    4.0235   -1.6525   -1.1236 C   0  0  0  0  0  0  0  0  0  0  0  0
    2.6779   -1.3356   -0.7764 O   0  0  0  0  0  0  0  0  0  0  0  0
    2.3010   -0.0565   -0.4083 C   0  0  0  0  0  0  0  0  0  0  0  0
    3.1882    0.9985   -0.3497 C   0  0  0  0  0  0  0  0  0  0  0  0
    2.8272    2.2768    0.0149 C   0  0  0  0  0  0  0  0  0  0  0  0
    1.5053    2.5063    0.3376 C   0  0  0  0  0  0  0  0  0  0  0  0
    0.6198    1.4560    0.2797 C   0  0  0  0  0  0  0  0  0  0  0  0
    0.9669    0.1752   -0.0829 C   0  0  0  0  0  0  0  0  0  0  0  0
    0.0197   -0.9582   -0.1544 C   0  0  0  0  0  0  0  0  0  0  0  0
   -1.1257   -0.7111    0.7908 C   0  0  2  0  0  0  0  0  0  0  0  0
   -2.1766   -1.7949    0.6957 C   0  0  0  0  0  0  0  0  0  0  0  0
   -3.0460   -1.4958   -0.4302 N   0  0  0  0  0  0  0  0  0  0  0  0
   -3.8348   -0.3628   -0.0518 C   0  0  0  0  0  0  0  0  0  0  0  0
   -3.0782    0.8660    0.2995 C   0  0  0  0  0  0  0  0  0  0  0  0
   -1.6828    0.6040    0.5726 N   0  0  0  0  0  0  0  0  0  0  0  0
   -0.7912    1.7162    0.6354 C   0  0  0  0  0  0  0  0  0  0  0  0
   -1.1716    2.8684    0.9747 O   0  0  0  0  0  0  0  0  0  0  0  0
    4.7480   -1.1186   -0.4526 H   0  0  0  0  0  0  0  0  0  0  0  0
    4.2112   -1.3202   -2.1613 H   0  0  0  0  0  0  0  0  0  0  0  0
    4.2071   -2.7376   -1.0817 H   0  0  0  0  0  0  0  0  0  0  0  0
    4.2341    0.8488   -0.5977 H   0  0  0  0  0  0  0  0  0  0  0  0
    3.5099    3.1066    0.0641 H   0  0  0  0  0  0  0  0  0  0  0  0
    1.2083    3.5082    0.6262 H   0  0  0  0  0  0  0  0  0  0  0  0
   -0.3831   -1.0137   -1.1893 H   0  0  0  0  0  0  0  0  0  0  0  0
    0.5134   -1.9264    0.0919 H   0  0  0  0  0  0  0  0  0  0  0  0
   -0.6651   -0.6937    1.8198 H   0  0  0  0  0  0  0  0  0  0  0  0
   -2.7983   -1.7303    1.6115 H   0  0  0  0  0  0  0  0  0  0  0  0
   -1.7182   -2.7855    0.5681 H   0  0  0  0  0  0  0  0  0  0  0  0
   -2.5314   -1.4003   -1.3181 H   0  0  0  0  0  0  0  0  0  0  0  0
   -4.6339   -0.1282   -0.8068 H   0  0  0  0  0  0  0  0  0  0  0  0
   -4.4261   -0.6852    0.8513 H   0  0  0  0  0  0  0  0  0  0  0  0
   -3.2080    1.6436   -0.4926 H   0  0  0  0  0  0  0  0  0  0  0  0
   -3.4906    1.3328    1.2432 H   0  0  0  0  0  0  0  0  0  0  0  0
  1  2  1  0
  2  3  1  0
  3  4  2  0
  4  5  1  0
  5  6  2  0
  6  7  1  0
  7  8  2  0
  8  9  1  0
  9 10  1  0
 10 11  1  0
 11 12  1  0
 12 13  1  0
 13 14  1  0
 14 15  1  0
 15 16  1  0
 16 17  2  0
  8  3  1  0
 15 10  1  0
 16  7  1  0
  1 18  1  0
  1 19  1  0
  1 20  1  0
  4 21  1  0
  5 22  1  0
  6 23  1  0
  9 24  1  0
  9 25  1  0
 10 26  1  1
 11 27  1  0
 11 28  1  0
 12 29  1  0
 13 30  1  0
 13 31  1  0
 14 32  1  0
 14 33  1  0
M  END
>  <Ligand ID>  (1) 
LIG0004880

>  <Ligand>  (1) 
SCHEMBL3554286

>  <SMILES>  (1) 
COc1cccc2c1C[C@@H]1CNCCN1C2=O

>  <CID>  (1) 
24826871.0

>  <ChEMBL ID>  (1) 
nan

>  <InChiKey>  (1) 
YCDSZCGMPUCYDQ-SECBINFHSA-N

>  <InChi>  (1) 
InChI=1S/C13H16N2O2/c1-17-12-4-2-3-10-11(12)7-9-8-14-5-6-15(9)13(10)16/h2-4,9,14H,5-8H2,1H3/t9-/m1/s1

>  <IUPAC Name>  (1) 
(11aR)-10-methoxy-1,2,3,4,11,11a-hexahydropyrazino[1,2-b]isoquinolin-6-one

$$$$
