
     RDKit          3D

 90 93  0  0  0  0  0  0  0  0999 V2000
   -8.3147    4.7943   -1.4271 F   0  0  0  0  0  0  0  0  0  0  0  0
   -7.4404    3.7503   -1.3761 C   0  0  0  0  0  0  0  0  0  0  0  0
   -6.7154    3.4785   -0.2340 C   0  0  0  0  0  0  0  0  0  0  0  0
   -5.8400    2.4131   -0.2211 C   0  0  0  0  0  0  0  0  0  0  0  0
   -5.6365    1.5814   -1.3006 C   0  0  0  0  0  0  0  0  0  0  0  0
   -6.3732    1.8675   -2.4428 C   0  0  0  0  0  0  0  0  0  0  0  0
   -7.2552    2.9267   -2.4819 C   0  0  0  0  0  0  0  0  0  0  0  0
   -6.2462    1.1036   -3.5703 F   0  0  0  0  0  0  0  0  0  0  0  0
   -4.6965    0.4371   -1.2957 C   0  0  2  0  0  0  0  0  0  0  0  0
   -5.3019   -0.8455   -0.8708 C   0  0  0  0  0  0  0  0  0  0  0  0
   -4.5228   -1.3659    0.1983 N   0  0  0  0  0  0  0  0  0  0  0  0
   -3.8128   -0.2528    0.7908 C   0  0  0  0  0  0  0  0  0  0  0  0
   -3.5138    0.6283   -0.3939 C   0  0  1  0  0  0  0  0  0  0  0  0
   -2.3150    0.1654   -1.0945 C   0  0  0  0  0  0  0  0  0  0  0  0
   -2.4934   -0.4209   -2.2175 O   0  0  0  0  0  0  0  0  0  0  0  0
   -0.9819    0.2970   -0.6673 N   0  0  0  0  0  0  0  0  0  0  0  0
    0.0573   -0.2707   -1.5468 C   0  0  0  0  0  0  0  0  0  0  0  0
    1.2514    0.7261   -1.4467 C   0  0  0  0  0  0  0  0  0  0  0  0
    1.7435    0.6137   -0.1649 N   0  0  0  0  0  0  0  0  0  0  0  0
    0.8197    0.2622    0.8716 C   0  0  0  0  0  0  0  0  0  0  0  0
   -0.5154    0.9405    0.5229 C   0  0  0  0  0  0  0  0  0  0  0  0
    3.1032    0.2174    0.1017 C   0  0  0  0  0  0  0  0  0  0  0  0
    3.9902    1.3699   -0.0325 C   0  0  0  0  0  0  0  0  0  0  0  0
    5.4633    1.1657    0.2323 C   0  0  0  0  0  0  0  0  0  0  0  0
    5.9333    2.4826    0.9151 C   0  0  0  0  0  0  0  0  0  0  0  0
    5.7495    3.6146   -0.0781 C   0  0  0  0  0  0  0  0  0  0  0  0
    4.4375    3.6503   -0.7579 C   0  0  0  0  0  0  0  0  0  0  0  0
    3.9038    2.2757   -1.2098 C   0  0  0  0  0  0  0  0  0  0  0  0
    3.3886   -1.0787   -0.5475 C   0  0  0  0  0  0  0  0  0  0  0  0
    4.6513   -1.7111   -0.4460 N   0  0  0  0  0  0  0  0  0  0  0  0
    5.6231   -1.4259   -1.4818 C   0  0  0  0  0  0  0  0  0  0  0  0
    5.3019   -0.6624   -2.4528 O   0  0  0  0  0  0  0  0  0  0  0  0
    6.9838   -1.9847   -1.4649 C   0  0  0  0  0  0  0  0  0  0  0  0
    5.0712   -2.6635    0.5506 C   0  0  0  0  0  0  0  0  0  0  0  0
    4.2701   -3.9788    0.3868 C   0  0  0  0  0  0  0  0  0  0  0  0
    5.0258   -2.2186    1.9717 C   0  0  0  0  0  0  0  0  0  0  0  0
   -5.2747   -2.1198    1.1698 C   0  0  0  0  0  0  0  0  0  0  0  0
   -5.9337   -3.2831    0.4500 C   0  0  0  0  0  0  0  0  0  0  0  0
   -6.2067   -1.3099    1.9996 C   0  0  0  0  0  0  0  0  0  0  0  0
   -4.2600   -2.7588    2.1139 C   0  0  0  0  0  0  0  0  0  0  0  0
   -6.8763    4.1327    0.6127 H   0  0  0  0  0  0  0  0  0  0  0  0
   -5.2949    2.2410    0.6960 H   0  0  0  0  0  0  0  0  0  0  0  0
   -7.8056    3.1090   -3.3944 H   0  0  0  0  0  0  0  0  0  0  0  0
   -4.3169    0.3736   -2.3616 H   0  0  0  0  0  0  0  0  0  0  0  0
   -6.3878   -0.7967   -0.6623 H   0  0  0  0  0  0  0  0  0  0  0  0
   -5.2168   -1.5761   -1.7142 H   0  0  0  0  0  0  0  0  0  0  0  0
   -4.3621    0.2313    1.5965 H   0  0  0  0  0  0  0  0  0  0  0  0
   -2.8446   -0.6720    1.1586 H   0  0  0  0  0  0  0  0  0  0  0  0
   -3.4248    1.6761   -0.0246 H   0  0  0  0  0  0  0  0  0  0  0  0
    0.4104   -1.1860   -1.0347 H   0  0  0  0  0  0  0  0  0  0  0  0
   -0.2724   -0.4054   -2.5721 H   0  0  0  0  0  0  0  0  0  0  0  0
    0.7281    1.7127   -1.6012 H   0  0  0  0  0  0  0  0  0  0  0  0
    1.8517    0.5249   -2.3200 H   0  0  0  0  0  0  0  0  0  0  0  0
    0.7261   -0.8228    0.9477 H   0  0  0  0  0  0  0  0  0  0  0  0
    1.1402    0.7295    1.8365 H   0  0  0  0  0  0  0  0  0  0  0  0
   -1.2030    0.9962    1.3599 H   0  0  0  0  0  0  0  0  0  0  0  0
   -0.1894    1.9779    0.1969 H   0  0  0  0  0  0  0  0  0  0  0  0
    3.0770   -0.0205    1.2245 H   0  0  0  0  0  0  0  0  0  0  0  0
    3.6725    2.0673    0.8493 H   0  0  0  0  0  0  0  0  0  0  0  0
    5.7372    0.3444    0.8587 H   0  0  0  0  0  0  0  0  0  0  0  0
    5.9898    1.2503   -0.7541 H   0  0  0  0  0  0  0  0  0  0  0  0
    5.2999    2.6413    1.7849 H   0  0  0  0  0  0  0  0  0  0  0  0
    7.0170    2.4007    1.1216 H   0  0  0  0  0  0  0  0  0  0  0  0
    5.8489    4.5490    0.5163 H   0  0  0  0  0  0  0  0  0  0  0  0
    6.6124    3.6560   -0.8000 H   0  0  0  0  0  0  0  0  0  0  0  0
    3.6520    4.0287   -0.0670 H   0  0  0  0  0  0  0  0  0  0  0  0
    4.5134    4.3307   -1.6267 H   0  0  0  0  0  0  0  0  0  0  0  0
    4.6140    1.9620   -2.0216 H   0  0  0  0  0  0  0  0  0  0  0  0
    2.9020    2.4618   -1.5687 H   0  0  0  0  0  0  0  0  0  0  0  0
    2.6686   -1.8224   -0.0482 H   0  0  0  0  0  0  0  0  0  0  0  0
    3.0536   -0.9686   -1.6238 H   0  0  0  0  0  0  0  0  0  0  0  0
    7.4746   -1.6526   -0.5246 H   0  0  0  0  0  0  0  0  0  0  0  0
    7.5776   -1.6182   -2.3048 H   0  0  0  0  0  0  0  0  0  0  0  0
    6.9081   -3.0807   -1.5598 H   0  0  0  0  0  0  0  0  0  0  0  0
    6.1282   -3.0207    0.3451 H   0  0  0  0  0  0  0  0  0  0  0  0
    4.5388   -4.5678    1.2883 H   0  0  0  0  0  0  0  0  0  0  0  0
    3.1959   -3.8045    0.4350 H   0  0  0  0  0  0  0  0  0  0  0  0
    4.6371   -4.4745   -0.5143 H   0  0  0  0  0  0  0  0  0  0  0  0
    3.9728   -1.9258    2.2322 H   0  0  0  0  0  0  0  0  0  0  0  0
    5.7894   -1.5102    2.2887 H   0  0  0  0  0  0  0  0  0  0  0  0
    5.1872   -3.1082    2.6743 H   0  0  0  0  0  0  0  0  0  0  0  0
   -5.1699   -3.7210   -0.2256 H   0  0  0  0  0  0  0  0  0  0  0  0
   -6.2285   -4.0897    1.1604 H   0  0  0  0  0  0  0  0  0  0  0  0
   -6.7814   -2.9605   -0.1878 H   0  0  0  0  0  0  0  0  0  0  0  0
   -6.4954   -0.3376    1.5729 H   0  0  0  0  0  0  0  0  0  0  0  0
   -5.8322   -1.0957    3.0215 H   0  0  0  0  0  0  0  0  0  0  0  0
   -7.1462   -1.8851    2.1448 H   0  0  0  0  0  0  0  0  0  0  0  0
   -4.8465   -3.4622    2.7497 H   0  0  0  0  0  0  0  0  0  0  0  0
   -3.4393   -3.2733    1.5758 H   0  0  0  0  0  0  0  0  0  0  0  0
   -3.9090   -1.9486    2.7854 H   0  0  0  0  0  0  0  0  0  0  0  0
  1  2  1  0
  2  3  2  0
  3  4  1  0
  4  5  2  0
  5  6  1  0
  6  7  2  0
  6  8  1  0
  5  9  1  0
  9 10  1  0
 10 11  1  0
 11 12  1  0
 12 13  1  0
 13 14  1  0
 14 15  2  0
 14 16  1  0
 16 17  1  0
 17 18  1  0
 18 19  1  0
 19 20  1  0
 20 21  1  0
 19 22  1  0
 22 23  1  0
 23 24  1  0
 24 25  1  0
 25 26  1  0
 26 27  1  0
 27 28  1  0
 22 29  1  0
 29 30  1  0
 30 31  1  0
 31 32  2  0
 31 33  1  0
 30 34  1  0
 34 35  1  0
 34 36  1  0
 11 37  1  0
 37 38  1  0
 37 39  1  0
 37 40  1  0
  7  2  1  0
 13  9  1  0
 21 16  1  0
 28 23  1  0
  3 41  1  0
  4 42  1  0
  7 43  1  0
  9 44  1  6
 10 45  1  0
 10 46  1  0
 12 47  1  0
 12 48  1  0
 13 49  1  1
 17 50  1  0
 17 51  1  0
 18 52  1  0
 18 53  1  0
 20 54  1  0
 20 55  1  0
 21 56  1  0
 21 57  1  0
 22 58  1  0
 23 59  1  0
 24 60  1  0
 24 61  1  0
 25 62  1  0
 25 63  1  0
 26 64  1  0
 26 65  1  0
 27 66  1  0
 27 67  1  0
 28 68  1  0
 28 69  1  0
 29 70  1  0
 29 71  1  0
 33 72  1  0
 33 73  1  0
 33 74  1  0
 34 75  1  0
 35 76  1  0
 35 77  1  0
 35 78  1  0
 36 79  1  0
 36 80  1  0
 36 81  1  0
 38 82  1  0
 38 83  1  0
 38 84  1  0
 39 85  1  0
 39 86  1  0
 39 87  1  0
 40 88  1  0
 40 89  1  0
 40 90  1  0
M  END
>  <Ligand ID>  (1) 
LIG0001516

>  <Ligand>  (1) 
CHEMBL1209252

>  <SMILES>  (1) 
Fc1ccc(c(c1)F)[C@@H]1CN(C[C@H]1C(=O)N1CCN(CC1)C(C1CCCCC1)CN(C(=O)C)C(C)C)C(C)(C)C

>  <CID>  (1) 
10257242.0

>  <ChEMBL ID>  (1) 
nan

>  <InChiKey>  (1) 
HQPISMGZXLHBTG-VXLAJHQFSA-N

>  <InChi>  (1) 
InChI=1S/C32H50F2N4O2/c1-22(2)38(23(3)39)21-30(24-10-8-7-9-11-24)35-14-16-36(17-15-35)31(40)28-20-37(32(4,5)6)19-27(28)26-13-12-25(33)18-29(26)34/h12-13,18,22,24,27-28,30H,7-11,14-17,19-21H2,1-6H3/t27-,28+,30?/m0/s1

>  <IUPAC Name>  (1) 
N-[2-[4-[(3S,4R)-1-tert-butyl-4-(2,4-difluorophenyl)pyrrolidine-3-carbonyl]piperazin-1-yl]-2-cyclohexylethyl]-N-propan-2-ylacetamide

$$$$
