
     RDKit          3D

 55 56  0  0  0  0  0  0  0  0999 V2000
   -7.9871    0.9961    2.8525 C   0  0  0  0  0  0  0  0  0  0  0  0
   -7.6668   -0.0041    1.8940 O   0  0  0  0  0  0  0  0  0  0  0  0
   -6.3543   -0.0563    1.4448 C   0  0  0  0  0  0  0  0  0  0  0  0
   -5.3873    0.8116    1.8930 C   0  0  0  0  0  0  0  0  0  0  0  0
   -4.0838    0.7232    1.4153 C   0  0  0  0  0  0  0  0  0  0  0  0
   -3.6920   -0.2157    0.4877 C   0  0  0  0  0  0  0  0  0  0  0  0
   -4.6946   -1.0849    0.0494 C   0  0  0  0  0  0  0  0  0  0  0  0
   -5.9897   -1.0036    0.5182 C   0  0  0  0  0  0  0  0  0  0  0  0
   -2.2962   -0.3231   -0.0250 C   0  0  0  0  0  0  0  0  0  0  0  0
   -2.2442   -0.3957   -1.4357 N   0  0  0  0  0  0  0  0  0  0  0  0
   -2.7823    0.6722   -2.1860 C   0  0  0  0  0  0  0  0  0  0  0  0
   -2.4233   -1.6422   -2.0710 C   0  0  0  0  0  0  0  0  0  0  0  0
   -1.4978    0.8364    0.5060 C   0  0  0  0  0  0  0  0  0  0  0  0
   -0.1219    0.8162    0.0443 N   0  0  0  0  0  0  0  0  0  0  0  0
    0.7562   -0.2571    0.3238 C   0  0  0  0  0  0  0  0  0  0  0  0
    0.3544   -1.2529    1.0014 O   0  0  0  0  0  0  0  0  0  0  0  0
    2.1430   -0.3101   -0.1243 C   0  0  0  0  0  0  0  0  0  0  0  0
    2.9025   -1.4118    0.2115 C   0  0  0  0  0  0  0  0  0  0  0  0
    4.2393   -1.5156   -0.1918 C   0  0  0  0  0  0  0  0  0  0  0  0
    4.7987   -0.5003   -0.9342 C   0  0  0  0  0  0  0  0  0  0  0  0
    4.0652    0.6033   -1.2800 C   0  0  0  0  0  0  0  0  0  0  0  0
    2.7391    0.6852   -0.8685 C   0  0  0  0  0  0  0  0  0  0  0  0
    6.4719   -0.5517   -1.4817 S   0  0  0  0  0  0  0  0  0  0  0  0
    6.9191   -1.9802   -1.6762 O   0  0  0  0  0  0  0  0  0  0  0  0
    6.6172    0.1658   -2.7825 O   0  0  0  0  0  0  0  0  0  0  0  0
    7.5309    0.1606   -0.3281 N   0  0  0  0  0  0  0  0  0  0  0  0
    7.2463    1.5444   -0.0934 C   0  0  0  0  0  0  0  0  0  0  0  0
    7.6020   -0.6135    0.8956 C   0  0  0  0  0  0  0  0  0  0  0  0
   -9.0486    1.0127    3.1053 H   0  0  0  0  0  0  0  0  0  0  0  0
   -7.2966    0.9920    3.7008 H   0  0  0  0  0  0  0  0  0  0  0  0
   -7.7904    1.9711    2.3186 H   0  0  0  0  0  0  0  0  0  0  0  0
   -5.6603    1.5571    2.6179 H   0  0  0  0  0  0  0  0  0  0  0  0
   -3.3927    1.4464    1.8191 H   0  0  0  0  0  0  0  0  0  0  0  0
   -4.4969   -1.8599   -0.6756 H   0  0  0  0  0  0  0  0  0  0  0  0
   -6.7670   -1.6894    0.1680 H   0  0  0  0  0  0  0  0  0  0  0  0
   -1.9055   -1.2758    0.4227 H   0  0  0  0  0  0  0  0  0  0  0  0
   -3.7705    0.4056   -2.6326 H   0  0  0  0  0  0  0  0  0  0  0  0
   -2.1416    0.9662   -3.0539 H   0  0  0  0  0  0  0  0  0  0  0  0
   -2.8971    1.6052   -1.5955 H   0  0  0  0  0  0  0  0  0  0  0  0
   -2.3446   -2.5445   -1.4296 H   0  0  0  0  0  0  0  0  0  0  0  0
   -3.3263   -1.7140   -2.7446 H   0  0  0  0  0  0  0  0  0  0  0  0
   -1.5670   -1.7540   -2.8076 H   0  0  0  0  0  0  0  0  0  0  0  0
   -1.5325    0.7603    1.6330 H   0  0  0  0  0  0  0  0  0  0  0  0
   -1.9746    1.7862    0.2184 H   0  0  0  0  0  0  0  0  0  0  0  0
    0.2411    1.6190   -0.5152 H   0  0  0  0  0  0  0  0  0  0  0  0
    2.5264   -2.2453    0.7924 H   0  0  0  0  0  0  0  0  0  0  0  0
    4.8383   -2.3784    0.0697 H   0  0  0  0  0  0  0  0  0  0  0  0
    4.4704    1.4226   -1.8632 H   0  0  0  0  0  0  0  0  0  0  0  0
    2.1725    1.5618   -1.1486 H   0  0  0  0  0  0  0  0  0  0  0  0
    6.6851    1.9557   -0.9648 H   0  0  0  0  0  0  0  0  0  0  0  0
    6.6828    1.7001    0.8551 H   0  0  0  0  0  0  0  0  0  0  0  0
    8.2231    2.1016   -0.0322 H   0  0  0  0  0  0  0  0  0  0  0  0
    7.4462   -1.6816    0.7386 H   0  0  0  0  0  0  0  0  0  0  0  0
    8.6001   -0.4479    1.3284 H   0  0  0  0  0  0  0  0  0  0  0  0
    6.8615   -0.1693    1.6161 H   0  0  0  0  0  0  0  0  0  0  0  0
  1  2  1  0
  2  3  1  0
  3  4  2  0
  4  5  1  0
  5  6  2  0
  6  7  1  0
  7  8  2  0
  6  9  1  0
  9 10  1  0
 10 11  1  0
 10 12  1  0
  9 13  1  0
 13 14  1  0
 14 15  1  0
 15 16  2  0
 15 17  1  0
 17 18  2  0
 18 19  1  0
 19 20  2  0
 20 21  1  0
 21 22  2  0
 20 23  1  0
 23 24  2  0
 23 25  2  0
 23 26  1  0
 26 27  1  0
 26 28  1  0
  8  3  1  0
 22 17  1  0
  1 29  1  0
  1 30  1  0
  1 31  1  0
  4 32  1  0
  5 33  1  0
  7 34  1  0
  8 35  1  0
  9 36  1  0
 11 37  1  0
 11 38  1  0
 11 39  1  0
 12 40  1  0
 12 41  1  0
 12 42  1  0
 13 43  1  0
 13 44  1  0
 14 45  1  0
 18 46  1  0
 19 47  1  0
 21 48  1  0
 22 49  1  0
 27 50  1  0
 27 51  1  0
 27 52  1  0
 28 53  1  0
 28 54  1  0
 28 55  1  0
M  END
>  <Ligand ID>  (1) 
LIG0004516

>  <Ligand>  (1) 
MLS000775512

>  <SMILES>  (1) 
COc1ccc(cc1)C(N(C)C)CNC(=O)c1ccc(cc1)S(=O)(=O)N(C)C

>  <CID>  (1) 
4885516.0

>  <ChEMBL ID>  (1) 
nan

>  <InChiKey>  (1) 
QAODNASOOKMGMA-UHFFFAOYSA-N

>  <InChi>  (1) 
InChI=1S/C20H27N3O4S/c1-22(2)19(15-6-10-17(27-5)11-7-15)14-21-20(24)16-8-12-18(13-9-16)28(25,26)23(3)4/h6-13,19H,14H2,1-5H3,(H,21,24)

>  <IUPAC Name>  (1) 
N-[2-(dimethylamino)-2-(4-methoxyphenyl)ethyl]-4-(dimethylsulfamoyl)benzamide

$$$$
