
     RDKit          3D

 17 16  0  0  0  0  0  0  0  0999 V2000
   -2.1837    0.6144    0.5293 C   0  0  0  0  0  0  0  0  0  0  0  0
   -0.9322    0.3122   -0.2391 C   0  0  0  0  0  0  0  0  0  0  0  0
   -0.1519   -0.8481    0.3354 C   0  0  0  0  0  0  0  0  0  0  0  0
    1.0751   -0.9972   -0.5776 C   0  0  0  0  0  0  0  0  0  0  0  0
    1.8126    0.3060   -0.4946 C   0  0  0  0  0  0  0  0  0  0  0  0
    2.0023    1.0039   -1.5357 O   0  0  0  0  0  0  0  0  0  0  0  0
    2.2673    0.6988    0.7585 O   0  0  0  0  0  0  0  0  0  0  0  0
    2.1738   -2.4628   -0.0045 Br  0  0  0  0  0  0  0  0  0  0  0  0
   -2.8909    1.1000   -0.1916 H   0  0  0  0  0  0  0  0  0  0  0  0
   -1.9897    1.3912    1.3150 H   0  0  0  0  0  0  0  0  0  0  0  0
   -2.5735   -0.3195    0.9500 H   0  0  0  0  0  0  0  0  0  0  0  0
   -0.3308    1.2196   -0.2991 H   0  0  0  0  0  0  0  0  0  0  0  0
   -1.2377    0.0023   -1.2743 H   0  0  0  0  0  0  0  0  0  0  0  0
   -0.7061   -1.7964    0.1706 H   0  0  0  0  0  0  0  0  0  0  0  0
    0.1534   -0.6573    1.3593 H   0  0  0  0  0  0  0  0  0  0  0  0
    0.7694   -1.1630   -1.6147 H   0  0  0  0  0  0  0  0  0  0  0  0
    2.7427    1.5961    0.8130 H   0  0  0  0  0  0  0  0  0  0  0  0
  1  2  1  0
  2  3  1  0
  3  4  1  0
  4  5  1  0
  5  6  2  0
  5  7  1  0
  4  8  1  0
  1  9  1  0
  1 10  1  0
  1 11  1  0
  2 12  1  0
  2 13  1  0
  3 14  1  0
  3 15  1  0
  4 16  1  0
  7 17  1  0
M  END
>  <Ligand ID>  (1) 
LIG0001042

>  <Ligand>  (1) 
2-bromopentanoic acid

>  <SMILES>  (1) 
CCCC(C(=O)O)Br

>  <CID>  (1) 
11446.0

>  <ChEMBL ID>  (1) 
nan

>  <InChiKey>  (1) 
WMFATTFQNRPXBQ-UHFFFAOYSA-N

>  <InChi>  (1) 
InChI=1S/C5H9BrO2/c1-2-3-4(6)5(7)8/h4H,2-3H2,1H3,(H,7,8)

>  <IUPAC Name>  (1) 
2-bromopentanoic acid

$$$$
