
     RDKit          3D

 66 66  0  0  0  0  0  0  0  0999 V2000
   -7.9925   -1.3364    1.4757 C   0  0  0  0  0  0  0  0  0  0  0  0
   -6.9485   -0.8260    2.4184 C   0  0  0  0  0  0  0  0  0  0  0  0
   -5.7594   -0.3663    1.5435 C   0  0  0  0  0  0  0  0  0  0  0  0
   -5.3227   -1.5716    0.8031 C   0  0  0  0  0  0  0  0  0  0  0  0
   -4.1723   -1.3774   -0.1093 C   0  0  0  0  0  0  0  0  0  0  0  0
   -4.3278   -0.4813   -1.2461 C   0  0  0  0  0  0  0  0  0  0  0  0
   -4.6313    0.9231   -1.2520 C   0  0  0  0  0  0  0  0  0  0  0  0
   -3.8212    2.0038   -0.7208 C   0  0  0  0  0  0  0  0  0  0  0  0
   -3.3347    2.1865    0.6220 C   0  0  0  0  0  0  0  0  0  0  0  0
   -2.3698    1.3694    1.3602 C   0  0  0  0  0  0  0  0  0  0  0  0
   -0.9789    1.2162    0.8686 C   0  0  0  0  0  0  0  0  0  0  0  0
   -0.7989    0.5457   -0.4406 C   0  0  0  0  0  0  0  0  0  0  0  0
    0.6914    0.4835   -0.7896 C   0  0  0  0  0  0  0  0  0  0  0  0
    1.4024   -0.6265   -0.3685 C   0  0  0  0  0  0  0  0  0  0  0  0
    2.7481   -0.7178   -0.6645 C   0  0  0  0  0  0  0  0  0  0  0  0
    3.3687    0.2990   -1.3771 C   0  0  0  0  0  0  0  0  0  0  0  0
    2.6292    1.3906   -1.7808 C   0  0  0  0  0  0  0  0  0  0  0  0
    1.2716    1.5180   -1.5014 C   0  0  0  0  0  0  0  0  0  0  0  0
    4.7674    0.2385   -1.7035 N   0  0  0  0  0  0  0  0  0  0  0  0
    5.7396    0.7877   -0.8013 C   0  0  0  0  0  0  0  0  0  0  0  0
    5.2933    1.3017    0.2476 O   0  0  0  0  0  0  0  0  0  0  0  0
    7.1888    0.7314   -1.1274 C   0  0  1  0  0  0  0  0  0  0  0  0
    7.8462   -0.1468   -0.0582 C   0  0  0  0  0  0  0  0  0  0  0  0
    7.2915   -1.4172   -0.0896 O   0  0  0  0  0  0  0  0  0  0  0  0
    8.0770   -2.3222    1.1254 P   0  0  0  0  0  0  0  0  0  0  0  0
    7.4331   -3.6735    1.1715 O   0  0  0  0  0  0  0  0  0  0  0  0
    7.8794   -1.4752    2.5840 O   0  0  0  0  0  0  0  0  0  0  0  0
    9.7302   -2.3791    0.8057 O   0  0  0  0  0  0  0  0  0  0  0  0
    7.4477    0.0829   -2.4050 N   0  0  0  0  0  0  0  0  0  0  0  0
   -7.9258   -2.4283    1.3680 H   0  0  0  0  0  0  0  0  0  0  0  0
   -9.0206   -1.0783    1.8475 H   0  0  0  0  0  0  0  0  0  0  0  0
   -7.9386   -0.8586    0.4702 H   0  0  0  0  0  0  0  0  0  0  0  0
   -6.5134   -1.6022    3.0859 H   0  0  0  0  0  0  0  0  0  0  0  0
   -7.3105    0.0661    2.9497 H   0  0  0  0  0  0  0  0  0  0  0  0
   -6.1039    0.4495    0.9114 H   0  0  0  0  0  0  0  0  0  0  0  0
   -4.9600    0.0312    2.2187 H   0  0  0  0  0  0  0  0  0  0  0  0
   -5.0395   -2.3712    1.5775 H   0  0  0  0  0  0  0  0  0  0  0  0
   -6.2255   -1.9909    0.2443 H   0  0  0  0  0  0  0  0  0  0  0  0
   -3.9915   -2.4601   -0.5685 H   0  0  0  0  0  0  0  0  0  0  0  0
   -3.2107   -1.2135    0.4177 H   0  0  0  0  0  0  0  0  0  0  0  0
   -3.3354   -0.5864   -1.8728 H   0  0  0  0  0  0  0  0  0  0  0  0
   -5.0460   -1.0114   -2.0027 H   0  0  0  0  0  0  0  0  0  0  0  0
   -4.6984    1.1522   -2.4500 H   0  0  0  0  0  0  0  0  0  0  0  0
   -5.7638    1.1445   -1.0909 H   0  0  0  0  0  0  0  0  0  0  0  0
   -3.0629    2.2873   -1.5318 H   0  0  0  0  0  0  0  0  0  0  0  0
   -4.5055    2.9930   -0.8633 H   0  0  0  0  0  0  0  0  0  0  0  0
   -2.9306    3.2877    0.7524 H   0  0  0  0  0  0  0  0  0  0  0  0
   -4.2910    2.3244    1.2847 H   0  0  0  0  0  0  0  0  0  0  0  0
   -2.2467    1.9548    2.3845 H   0  0  0  0  0  0  0  0  0  0  0  0
   -2.7257    0.4008    1.7776 H   0  0  0  0  0  0  0  0  0  0  0  0
   -0.3936    0.6724    1.6878 H   0  0  0  0  0  0  0  0  0  0  0  0
   -0.4328    2.2121    0.8487 H   0  0  0  0  0  0  0  0  0  0  0  0
   -1.1558   -0.5249   -0.3641 H   0  0  0  0  0  0  0  0  0  0  0  0
   -1.3419    0.9643   -1.2831 H   0  0  0  0  0  0  0  0  0  0  0  0
    0.8874   -1.3914    0.1799 H   0  0  0  0  0  0  0  0  0  0  0  0
    3.3195   -1.5837   -0.3403 H   0  0  0  0  0  0  0  0  0  0  0  0
    3.1406    2.1675   -2.3348 H   0  0  0  0  0  0  0  0  0  0  0  0
    0.6923    2.3641   -1.8128 H   0  0  0  0  0  0  0  0  0  0  0  0
    5.0531   -0.2095   -2.6022 H   0  0  0  0  0  0  0  0  0  0  0  0
    7.6633    1.7115   -1.1825 H   0  0  0  0  0  0  0  0  0  0  0  0
    7.6505    0.2721    0.9598 H   0  0  0  0  0  0  0  0  0  0  0  0
    8.9617   -0.1495   -0.1875 H   0  0  0  0  0  0  0  0  0  0  0  0
    8.5611   -0.7578    2.6399 H   0  0  0  0  0  0  0  0  0  0  0  0
    9.8696   -2.4875   -0.1537 H   0  0  0  0  0  0  0  0  0  0  0  0
    6.9842   -0.8514   -2.3560 H   0  0  0  0  0  0  0  0  0  0  0  0
    7.0397    0.5897   -3.1988 H   0  0  0  0  0  0  0  0  0  0  0  0
  1  2  1  0
  2  3  1  0
  3  4  1  0
  4  5  1  0
  5  6  1  0
  6  7  1  0
  7  8  1  0
  8  9  1  0
  9 10  1  0
 10 11  1  0
 11 12  1  0
 12 13  1  0
 13 14  2  0
 14 15  1  0
 15 16  2  0
 16 17  1  0
 17 18  2  0
 16 19  1  0
 19 20  1  0
 20 21  2  0
 20 22  1  0
 22 23  1  0
 23 24  1  0
 24 25  1  0
 25 26  2  0
 25 27  1  0
 25 28  1  0
 22 29  1  0
 18 13  1  0
  1 30  1  0
  1 31  1  0
  1 32  1  0
  2 33  1  0
  2 34  1  0
  3 35  1  0
  3 36  1  0
  4 37  1  0
  4 38  1  0
  5 39  1  0
  5 40  1  0
  6 41  1  0
  6 42  1  0
  7 43  1  0
  7 44  1  0
  8 45  1  0
  8 46  1  0
  9 47  1  0
  9 48  1  0
 10 49  1  0
 10 50  1  0
 11 51  1  0
 11 52  1  0
 12 53  1  0
 12 54  1  0
 14 55  1  0
 15 56  1  0
 17 57  1  0
 18 58  1  0
 19 59  1  0
 22 60  1  6
 23 61  1  0
 23 62  1  0
 27 63  1  0
 28 64  1  0
 29 65  1  0
 29 66  1  0
M  END
>  <Ligand ID>  (1) 
LIG0004259

>  <Ligand>  (1) 
CHEMBL116953

>  <SMILES>  (1) 
CCCCCCCCCCCCc1ccc(cc1)NC(=O)[C@@H](COP(=O)(O)O)N

>  <CID>  (1) 
44342331.0

>  <ChEMBL ID>  (1) 
nan

>  <InChiKey>  (1) 
LEXPXIZYFRSZSD-HXUWFJFHSA-N

>  <InChi>  (1) 
InChI=1S/C21H37N2O5P/c1-2-3-4-5-6-7-8-9-10-11-12-18-13-15-19(16-14-18)23-21(24)20(22)17-28-29(25,26)27/h13-16,20H,2-12,17,22H2,1H3,(H,23,24)(H2,25,26,27)/t20-/m1/s1

>  <IUPAC Name>  (1) 
[(2R)-2-amino-3-(4-dodecylanilino)-3-oxopropyl] dihydrogen phosphate

$$$$
