
     RDKit          3D

 37 36  0  0  0  0  0  0  0  0999 V2000
    3.5216    1.2690    0.4436 C   0  0  0  0  0  0  0  0  0  0  0  0
    4.0599   -0.1046    0.2112 C   0  0  0  0  0  0  0  0  0  0  0  0
    2.9679   -1.1449    0.0705 C   0  0  0  0  0  0  0  0  0  0  0  0
    2.0549   -0.8639   -1.0639 C   0  0  0  0  0  0  0  0  0  0  0  0
    0.9564   -1.8503   -1.2586 C   0  0  0  0  0  0  0  0  0  0  0  0
    0.0142   -2.0234   -0.1361 C   0  0  0  0  0  0  0  0  0  0  0  0
   -0.7322   -0.7613    0.2560 C   0  0  0  0  0  0  0  0  0  0  0  0
   -1.5497   -0.2333   -0.8955 C   0  0  0  0  0  0  0  0  0  0  0  0
   -2.3110    1.0055   -0.6554 C   0  0  0  0  0  0  0  0  0  0  0  0
   -3.3427    1.0533    0.3920 C   0  0  0  0  0  0  0  0  0  0  0  0
   -3.9426    2.4414    0.3709 C   0  0  0  0  0  0  0  0  0  0  0  0
   -3.5278    3.2552   -0.4361 O   0  0  0  0  0  0  0  0  0  0  0  0
   -2.9412    0.7919    1.7933 C   0  0  0  0  0  0  0  0  0  0  0  0
    4.3798    1.9713    0.4303 H   0  0  0  0  0  0  0  0  0  0  0  0
    2.7997    1.6343   -0.2862 H   0  0  0  0  0  0  0  0  0  0  0  0
    3.1471    1.2997    1.5073 H   0  0  0  0  0  0  0  0  0  0  0  0
    4.7346   -0.3574    1.0345 H   0  0  0  0  0  0  0  0  0  0  0  0
    4.6393   -0.1426   -0.7357 H   0  0  0  0  0  0  0  0  0  0  0  0
    2.3637   -1.1134    1.0170 H   0  0  0  0  0  0  0  0  0  0  0  0
    3.3977   -2.1339   -0.0369 H   0  0  0  0  0  0  0  0  0  0  0  0
    1.6133    0.1591   -1.0458 H   0  0  0  0  0  0  0  0  0  0  0  0
    2.6703   -0.8885   -1.9991 H   0  0  0  0  0  0  0  0  0  0  0  0
    1.3992   -2.8446   -1.4721 H   0  0  0  0  0  0  0  0  0  0  0  0
    0.3938   -1.5807   -2.1720 H   0  0  0  0  0  0  0  0  0  0  0  0
    0.4442   -2.4841    0.7704 H   0  0  0  0  0  0  0  0  0  0  0  0
   -0.7842   -2.7153   -0.4809 H   0  0  0  0  0  0  0  0  0  0  0  0
   -0.1017   -0.0143    0.7241 H   0  0  0  0  0  0  0  0  0  0  0  0
   -1.4605   -1.1262    1.0255 H   0  0  0  0  0  0  0  0  0  0  0  0
   -2.1390   -1.0500   -1.3790 H   0  0  0  0  0  0  0  0  0  0  0  0
   -0.7776    0.0160   -1.6890 H   0  0  0  0  0  0  0  0  0  0  0  0
   -1.5794    1.8359   -0.4976 H   0  0  0  0  0  0  0  0  0  0  0  0
   -2.8174    1.2687   -1.6345 H   0  0  0  0  0  0  0  0  0  0  0  0
   -4.2019    0.3725    0.1447 H   0  0  0  0  0  0  0  0  0  0  0  0
   -4.7399    2.6882    1.0830 H   0  0  0  0  0  0  0  0  0  0  0  0
   -1.8762    1.0122    1.9545 H   0  0  0  0  0  0  0  0  0  0  0  0
   -3.4627    1.5508    2.4585 H   0  0  0  0  0  0  0  0  0  0  0  0
   -3.2699   -0.1919    2.1871 H   0  0  0  0  0  0  0  0  0  0  0  0
  1  2  1  0
  2  3  1  0
  3  4  1  0
  4  5  1  0
  5  6  1  0
  6  7  1  0
  7  8  1  0
  8  9  1  0
  9 10  1  0
 10 11  1  0
 11 12  2  0
 10 13  1  0
  1 14  1  0
  1 15  1  0
  1 16  1  0
  2 17  1  0
  2 18  1  0
  3 19  1  0
  3 20  1  0
  4 21  1  0
  4 22  1  0
  5 23  1  0
  5 24  1  0
  6 25  1  0
  6 26  1  0
  7 27  1  0
  7 28  1  0
  8 29  1  0
  8 30  1  0
  9 31  1  0
  9 32  1  0
 10 33  1  0
 11 34  1  0
 13 35  1  0
 13 36  1  0
 13 37  1  0
M  END
>  <Ligand ID>  (1) 
LIG0005031

>  <Ligand>  (1) 
2-methylundecanal

>  <SMILES>  (1) 
CCCCCCCCCC(C=O)C

>  <CID>  (1) 
61031.0

>  <ChEMBL ID>  (1) 
nan

>  <InChiKey>  (1) 
NFAVNWJJYQAGNB-UHFFFAOYSA-N

>  <InChi>  (1) 
InChI=1S/C12H24O/c1-3-4-5-6-7-8-9-10-12(2)11-13/h11-12H,3-10H2,1-2H3

>  <IUPAC Name>  (1) 
2-methylundecanal

$$$$
