
     RDKit          3D

 21 21  0  0  0  0  0  0  0  0999 V2000
    3.6341   -0.0895   -0.6710 N   0  0  0  0  0  0  0  0  0  0  0  0
    2.1946    0.0651   -0.7519 C   0  0  0  0  0  0  0  0  0  0  0  0
    1.4752   -0.4190    0.4845 C   0  0  0  0  0  0  0  0  0  0  0  0
   -0.0104   -0.2366    0.3503 C   0  0  0  0  0  0  0  0  0  0  0  0
   -0.8097   -1.2396   -0.1932 C   0  0  0  0  0  0  0  0  0  0  0  0
   -2.1896   -1.0475   -0.3082 C   0  0  0  0  0  0  0  0  0  0  0  0
   -2.7598    0.1531    0.1242 C   0  0  0  0  0  0  0  0  0  0  0  0
   -1.9670    1.1424    0.6608 C   0  0  0  0  0  0  0  0  0  0  0  0
   -0.6098    0.9544    0.7743 C   0  0  0  0  0  0  0  0  0  0  0  0
   -4.1291    0.3580    0.0162 O   0  0  0  0  0  0  0  0  0  0  0  0
    4.1233    0.8378   -0.5704 H   0  0  0  0  0  0  0  0  0  0  0  0
    3.8946   -0.7438    0.1144 H   0  0  0  0  0  0  0  0  0  0  0  0
    1.8674   -0.5980   -1.6001 H   0  0  0  0  0  0  0  0  0  0  0  0
    1.9564    1.0874   -1.0278 H   0  0  0  0  0  0  0  0  0  0  0  0
    1.7932    0.1888    1.3544 H   0  0  0  0  0  0  0  0  0  0  0  0
    1.6232   -1.4955    0.6637 H   0  0  0  0  0  0  0  0  0  0  0  0
   -0.3551   -2.1842   -0.5325 H   0  0  0  0  0  0  0  0  0  0  0  0
   -2.8058   -1.8339   -0.7328 H   0  0  0  0  0  0  0  0  0  0  0  0
   -2.4204    2.0772    0.9961 H   0  0  0  0  0  0  0  0  0  0  0  0
    0.0068    1.7433    1.2000 H   0  0  0  0  0  0  0  0  0  0  0  0
   -4.5120    1.2798   -0.1803 H   0  0  0  0  0  0  0  0  0  0  0  0
  1  2  1  0
  2  3  1  0
  3  4  1  0
  4  5  2  0
  5  6  1  0
  6  7  2  0
  7  8  1  0
  8  9  2  0
  7 10  1  0
  9  4  1  0
  1 11  1  0
  1 12  1  0
  2 13  1  0
  2 14  1  0
  3 15  1  0
  3 16  1  0
  5 17  1  0
  6 18  1  0
  8 19  1  0
  9 20  1  0
 10 21  1  0
M  END
>  <Ligand ID>  (1) 
LIG0001015

>  <Ligand>  (1) 
tyramine

>  <SMILES>  (1) 
NCCc1ccc(cc1)O

>  <CID>  (1) 
5610.0

>  <ChEMBL ID>  (1) 
nan

>  <InChiKey>  (1) 
DZGWFCGJZKJUFP-UHFFFAOYSA-N

>  <InChi>  (1) 
InChI=1S/C8H11NO/c9-6-5-7-1-3-8(10)4-2-7/h1-4,10H,5-6,9H2

>  <IUPAC Name>  (1) 
4-(2-aminoethyl)phenol

$$$$
