
     RDKit          3D

 28 29  0  0  0  0  0  0  0  0999 V2000
    0.6436    1.7268   -1.6642 C   0  0  0  0  0  0  0  0  0  0  0  0
    0.3582    0.5189   -0.8009 C   0  0  0  0  0  0  0  0  0  0  0  0
    1.6330   -0.1641   -0.3973 C   0  0  0  0  0  0  0  0  0  0  0  0
    1.9926   -1.3769   -0.6483 N   0  0  0  0  0  0  0  0  0  0  0  0
    3.3022   -1.6459   -0.0790 C   0  0  0  0  0  0  0  0  0  0  0  0
    3.8723   -0.2699    0.1062 C   0  0  0  0  0  0  0  0  0  0  0  0
    2.6439    0.4997    0.3539 N   0  0  0  0  0  0  0  0  0  0  0  0
   -0.4347    0.8290    0.3304 O   0  0  0  0  0  0  0  0  0  0  0  0
   -1.7091    0.3381    0.5279 C   0  0  0  0  0  0  0  0  0  0  0  0
   -1.8701   -0.8531    1.2053 C   0  0  0  0  0  0  0  0  0  0  0  0
   -0.4873   -1.7314    1.8063 Cl  0  0  0  0  0  0  0  0  0  0  0  0
   -3.1253   -1.4089    1.4415 C   0  0  0  0  0  0  0  0  0  0  0  0
   -4.2534   -0.7361    0.9765 C   0  0  0  0  0  0  0  0  0  0  0  0
   -4.1073    0.4515    0.3002 C   0  0  0  0  0  0  0  0  0  0  0  0
   -2.8548    0.9701    0.0853 C   0  0  0  0  0  0  0  0  0  0  0  0
   -2.7094    2.4851   -0.7802 Cl  0  0  0  0  0  0  0  0  0  0  0  0
   -0.1888    1.9827   -2.3271 H   0  0  0  0  0  0  0  0  0  0  0  0
    1.6295    1.6488   -2.1773 H   0  0  0  0  0  0  0  0  0  0  0  0
    0.7628    2.5924   -0.9520 H   0  0  0  0  0  0  0  0  0  0  0  0
   -0.2707   -0.1598   -1.4188 H   0  0  0  0  0  0  0  0  0  0  0  0
    3.2680   -2.2271    0.8611 H   0  0  0  0  0  0  0  0  0  0  0  0
    3.8930   -2.1499   -0.8767 H   0  0  0  0  0  0  0  0  0  0  0  0
    4.2658    0.1057   -0.8696 H   0  0  0  0  0  0  0  0  0  0  0  0
    4.5660   -0.1813    0.9429 H   0  0  0  0  0  0  0  0  0  0  0  0
    2.6095    1.3312    0.9571 H   0  0  0  0  0  0  0  0  0  0  0  0
   -3.2284   -2.3519    1.9794 H   0  0  0  0  0  0  0  0  0  0  0  0
   -5.2184   -1.1879    1.1723 H   0  0  0  0  0  0  0  0  0  0  0  0
   -4.9828    0.9638   -0.0551 H   0  0  0  0  0  0  0  0  0  0  0  0
  1  2  1  0
  2  3  1  0
  3  4  2  0
  4  5  1  0
  5  6  1  0
  6  7  1  0
  2  8  1  0
  8  9  1  0
  9 10  2  0
 10 11  1  0
 10 12  1  0
 12 13  2  0
 13 14  1  0
 14 15  2  0
 15 16  1  0
  7  3  1  0
 15  9  1  0
  1 17  1  0
  1 18  1  0
  1 19  1  0
  2 20  1  0
  5 21  1  0
  5 22  1  0
  6 23  1  0
  6 24  1  0
  7 25  1  0
 12 26  1  0
 13 27  1  0
 14 28  1  0
M  END
>  <Ligand ID>  (1) 
LIG0003511

>  <Ligand>  (1) 
lofexidine

>  <SMILES>  (1) 
CC(C1=NCCN1)Oc1c(Cl)cccc1Cl

>  <CID>  (1) 
30668.0

>  <ChEMBL ID>  (1) 
nan

>  <InChiKey>  (1) 
KSMAGQUYOIHWFS-UHFFFAOYSA-N

>  <InChi>  (1) 
InChI=1S/C11H12Cl2N2O/c1-7(11-14-5-6-15-11)16-10-8(12)3-2-4-9(10)13/h2-4,7H,5-6H2,1H3,(H,14,15)

>  <IUPAC Name>  (1) 
2-[1-(2,6-dichlorophenoxy)ethyl]-4,5-dihydro-1H-imidazole

$$$$
