
     RDKit          3D

 80 84  0  0  0  0  0  0  0  0999 V2000
   -5.4761   -4.0820    0.7124 O   0  0  0  0  0  0  0  0  0  0  0  0
   -4.4467   -4.9628    0.9182 C   0  0  0  0  0  0  0  0  0  0  0  0
   -4.6186   -6.2171    0.9077 O   0  0  0  0  0  0  0  0  0  0  0  0
   -3.0274   -4.5180    1.1736 C   0  0  0  0  0  0  0  0  0  0  0  0
   -3.0309   -3.1072    1.1477 N   0  0  0  0  0  0  0  0  0  0  0  0
   -1.7856   -2.4303    1.3680 C   0  0  1  0  0  0  0  0  0  0  0  0
   -0.7263   -2.7672    0.3721 C   0  0  0  0  0  0  0  0  0  0  0  0
   -0.6105   -1.7824   -0.7666 C   0  0  0  0  0  0  0  0  0  0  0  0
   -0.2478   -0.4623   -0.1067 C   0  0  2  0  0  0  0  0  0  0  0  0
   -1.4726   -0.0301    0.6040 C   0  0  2  0  0  0  0  0  0  0  0  0
   -2.0706   -0.9926    1.5687 C   0  0  1  0  0  0  0  0  0  0  0  0
   -3.4641   -0.6972    1.4438 O   0  0  0  0  0  0  0  0  0  0  0  0
   -3.7365   -0.3818    0.1193 C   0  0  0  0  0  0  0  0  0  0  0  0
   -2.5457    0.0191   -0.4202 C   0  0  0  0  0  0  0  0  0  0  0  0
   -2.3731    0.4205   -1.7200 C   0  0  0  0  0  0  0  0  0  0  0  0
   -1.0162    0.8175   -2.1579 C   0  0  0  0  0  0  0  0  0  0  0  0
    0.0266    0.5946   -1.1303 C   0  0  1  0  0  0  0  0  0  0  0  0
    0.3421    1.8326   -0.4907 N   0  0  0  0  0  0  0  0  0  0  0  0
   -0.5440    2.3277    0.4675 C   0  0  0  0  0  0  0  0  0  0  0  0
   -1.4258    1.3619    1.1690 C   0  0  0  0  0  0  0  0  0  0  0  0
    1.1266    2.7261   -1.2478 C   0  0  0  0  0  0  0  0  0  0  0  0
    1.3966    3.9929   -0.4700 C   0  0  0  0  0  0  0  0  0  0  0  0
    2.2301    5.0701   -1.1190 C   0  0  0  0  0  0  0  0  0  0  0  0
    2.7135    4.3096    0.1034 C   0  0  0  0  0  0  0  0  0  0  0  0
   -3.4696    0.4221   -2.5405 C   0  0  0  0  0  0  0  0  0  0  0  0
   -4.7058    0.0170   -2.0195 C   0  0  0  0  0  0  0  0  0  0  0  0
   -4.8413   -0.3818   -0.7026 C   0  0  0  0  0  0  0  0  0  0  0  0
   -6.0627   -0.7871   -0.1702 O   0  0  0  0  0  0  0  0  0  0  0  0
    0.8301   -0.8143    0.6311 O   0  0  0  0  0  0  0  0  0  0  0  0
    1.5432   -0.0186    1.3945 C   0  0  0  0  0  0  0  0  0  0  0  0
    2.6816   -0.6737    2.1441 C   0  0  0  0  0  0  0  0  0  0  0  0
    3.7138   -1.3287    1.3028 C   0  0  0  0  0  0  0  0  0  0  0  0
    4.3812   -0.3834    0.3774 C   0  0  0  0  0  0  0  0  0  0  0  0
    5.5050    0.3488    0.7267 C   0  0  0  0  0  0  0  0  0  0  0  0
    6.0764    1.2075   -0.2007 C   0  0  0  0  0  0  0  0  0  0  0  0
    5.5664    1.3648   -1.4718 C   0  0  0  0  0  0  0  0  0  0  0  0
    4.4521    0.6324   -1.8038 C   0  0  0  0  0  0  0  0  0  0  0  0
    3.8925   -0.2128   -0.8858 C   0  0  0  0  0  0  0  0  0  0  0  0
    0.6907    0.0000    0.0000 Cl  0  0  0  0  0  0  0  0  0  0  0  0
    0.6899    0.0000    0.0000 Cl  0  0  0  0  0  0  0  0  0  0  0  0
   -6.4337   -4.3719    0.8855 H   0  0  0  0  0  0  0  0  0  0  0  0
   -2.4523   -5.0015    0.3585 H   0  0  0  0  0  0  0  0  0  0  0  0
   -2.7783   -4.9162    2.1788 H   0  0  0  0  0  0  0  0  0  0  0  0
   -3.8808   -2.6231    1.4366 H   0  0  0  0  0  0  0  0  0  0  0  0
   -1.4072   -2.8259    2.3392 H   0  0  0  0  0  0  0  0  0  0  0  0
    0.2886   -2.8267    0.8285 H   0  0  0  0  0  0  0  0  0  0  0  0
   -0.8962   -3.7625   -0.0888 H   0  0  0  0  0  0  0  0  0  0  0  0
   -1.4529   -1.7714   -1.4331 H   0  0  0  0  0  0  0  0  0  0  0  0
    0.2650   -2.1517   -1.3732 H   0  0  0  0  0  0  0  0  0  0  0  0
   -1.8105   -0.6229    2.5979 H   0  0  0  0  0  0  0  0  0  0  0  0
   -0.7477    0.3444   -3.1389 H   0  0  0  0  0  0  0  0  0  0  0  0
   -1.0776    1.9007   -2.3879 H   0  0  0  0  0  0  0  0  0  0  0  0
    0.9603    0.2848   -1.6786 H   0  0  0  0  0  0  0  0  0  0  0  0
   -1.1007    3.1741    0.0112 H   0  0  0  0  0  0  0  0  0  0  0  0
    0.0830    2.8067    1.2793 H   0  0  0  0  0  0  0  0  0  0  0  0
   -2.4650    1.8177    1.1623 H   0  0  0  0  0  0  0  0  0  0  0  0
   -1.2475    1.2868    2.2640 H   0  0  0  0  0  0  0  0  0  0  0  0
    0.6039    3.0341   -2.1766 H   0  0  0  0  0  0  0  0  0  0  0  0
    2.1117    2.3200   -1.5613 H   0  0  0  0  0  0  0  0  0  0  0  0
    0.5146    4.3780    0.1064 H   0  0  0  0  0  0  0  0  0  0  0  0
    1.8664    6.1031   -1.0220 H   0  0  0  0  0  0  0  0  0  0  0  0
    2.7153    4.8110   -2.0829 H   0  0  0  0  0  0  0  0  0  0  0  0
    3.6009    3.6864   -0.0448 H   0  0  0  0  0  0  0  0  0  0  0  0
    2.7539    4.9108    1.0442 H   0  0  0  0  0  0  0  0  0  0  0  0
   -3.3611    0.7344   -3.5701 H   0  0  0  0  0  0  0  0  0  0  0  0
   -5.5651    0.0226   -2.6782 H   0  0  0  0  0  0  0  0  0  0  0  0
   -6.1471   -1.4179    0.5925 H   0  0  0  0  0  0  0  0  0  0  0  0
    1.0368    0.5985    2.1545 H   0  0  0  0  0  0  0  0  0  0  0  0
    2.0587    0.7449    0.7373 H   0  0  0  0  0  0  0  0  0  0  0  0
    2.2415   -1.3312    2.9138 H   0  0  0  0  0  0  0  0  0  0  0  0
    3.1758    0.1765    2.7029 H   0  0  0  0  0  0  0  0  0  0  0  0
    3.3571   -2.2322    0.7711 H   0  0  0  0  0  0  0  0  0  0  0  0
    4.5243   -1.6760    1.9990 H   0  0  0  0  0  0  0  0  0  0  0  0
    5.9148    0.2327    1.7243 H   0  0  0  0  0  0  0  0  0  0  0  0
    6.9418    1.7585    0.0970 H   0  0  0  0  0  0  0  0  0  0  0  0
    5.9878    2.0244   -2.2157 H   0  0  0  0  0  0  0  0  0  0  0  0
    4.0173    0.7245   -2.7913 H   0  0  0  0  0  0  0  0  0  0  0  0
    3.0242   -0.7781   -1.1692 H   0  0  0  0  0  0  0  0  0  0  0  0
   -0.6907    0.0000    0.0000 H   0  0  0  0  0  0  0  0  0  0  0  0
   -0.6899    0.0000    0.0000 H   0  0  0  0  0  0  0  0  0  0  0  0
  1  2  1  0
  2  3  2  0
  2  4  1  0
  4  5  1  0
  5  6  1  0
  6  7  1  0
  7  8  1  0
  8  9  1  0
  9 10  1  0
 10 11  1  0
 11 12  1  0
 12 13  1  0
 13 14  2  0
 14 15  1  0
 15 16  1  0
 16 17  1  0
 17 18  1  0
 18 19  1  0
 19 20  1  0
 18 21  1  0
 21 22  1  0
 22 23  1  0
 23 24  1  0
 15 25  2  0
 25 26  1  0
 26 27  2  0
 27 28  1  0
  9 29  1  1
 29 30  1  0
 30 31  1  0
 31 32  1  0
 32 33  1  0
 33 34  2  0
 34 35  1  0
 35 36  2  0
 36 37  1  0
 37 38  2  0
 11  6  1  0
 27 13  1  0
 38 33  1  0
 17  9  1  0
 24 22  1  0
 10 20  1  1
 14 10  1  0
  1 41  1  0
  4 42  1  0
  4 43  1  0
  5 44  1  0
  6 45  1  1
  7 46  1  0
  7 47  1  0
  8 48  1  0
  8 49  1  0
 11 50  1  1
 16 51  1  0
 16 52  1  0
 17 53  1  6
 19 54  1  0
 19 55  1  0
 20 56  1  0
 20 57  1  0
 21 58  1  0
 21 59  1  0
 22 60  1  0
 23 61  1  0
 23 62  1  0
 24 63  1  0
 24 64  1  0
 25 65  1  0
 26 66  1  0
 28 67  1  0
 30 68  1  0
 30 69  1  0
 31 70  1  0
 31 71  1  0
 32 72  1  0
 32 73  1  0
 34 74  1  0
 35 75  1  0
 36 76  1  0
 37 77  1  0
 38 78  1  0
 39 79  1  0
 40 80  1  0
M  END
>  <Ligand ID>  (1) 
LIG0002887

>  <Ligand>  (1) 
CHEMBL3216476

>  <SMILES>  (1) 
OC(=O)CN[C@H]1CC[C@@]2([C@@]34[C@H]1Oc1c4c(C[C@H]2N(CC3)CC2CC2)ccc1O)OCCCc1ccccc1.Cl.Cl

>  <CID>  (1) 
51003218.0

>  <ChEMBL ID>  (1) 
nan

>  <InChiKey>  (1) 
CWOMCLVWSXLYKC-HGKUZVQUSA-N

>  <InChi>  (1) 
InChI=1S/C31H38N2O5.2ClH/c34-24-11-10-22-17-25-31(37-16-4-7-20-5-2-1-3-6-20)13-12-23(32-18-26(35)36)29-30(31,27(22)28(24)38-29)14-15-33(25)19-21-8-9-21;;/h1-3,5-6,10-11,21,23,25,29,32,34H,4,7-9,12-19H2,(H,35,36);2*1H/t23-,25+,29-,30-,31+;;/m0../s1

>  <IUPAC Name>  (1) 
2-[[(4R,4aS,7S,7aR,12bS)-3-(cyclopropylmethyl)-9-hydroxy-4a-(3-phenylpropoxy)-1,2,4,5,6,7,7a,13-octahydro-4,12-methanobenzofuro[3,2-e]isoquinolin-7-yl]amino]acetic acid;dihydrochloride

$$$$
