
     RDKit          3D

 44 47  0  0  0  0  0  0  0  0999 V2000
    5.4800    0.8129   -1.3819 C   0  0  0  0  0  0  0  0  0  0  0  0
    4.8981   -0.1848   -0.4277 C   0  0  0  0  0  0  0  0  0  0  0  0
    5.6033   -1.3419   -0.1497 C   0  0  0  0  0  0  0  0  0  0  0  0
    5.0800   -2.2574    0.7191 C   0  0  0  0  0  0  0  0  0  0  0  0
    3.8596   -2.0106    1.3017 C   0  0  0  0  0  0  0  0  0  0  0  0
    3.1478   -0.8751    1.0408 C   0  0  0  0  0  0  0  0  0  0  0  0
    3.6692    0.0531    0.1654 C   0  0  0  0  0  0  0  0  0  0  0  0
    2.9882    1.3195   -0.1919 C   0  0  0  0  0  0  0  0  0  0  0  0
    1.4002    1.5240    0.6195 S   0  0  0  0  0  0  0  0  0  0  0  0
    0.2580    0.2812    0.0106 C   0  0  0  0  0  0  0  0  0  0  0  0
    0.5644   -0.6614   -0.9218 N   0  0  0  0  0  0  0  0  0  0  0  0
   -0.5424   -1.3983   -1.1111 N   0  0  0  0  0  0  0  0  0  0  0  0
   -1.5044   -0.9041   -0.3009 C   0  0  0  0  0  0  0  0  0  0  0  0
   -1.0351    0.1259    0.3957 N   0  0  0  0  0  0  0  0  0  0  0  0
   -1.6588    0.9776    1.3781 C   0  0  0  0  0  0  0  0  0  0  0  0
   -2.2794    2.1413    0.6985 C   0  0  0  0  0  0  0  0  0  0  0  0
   -3.5580    2.2881    0.1971 C   0  0  0  0  0  0  0  0  0  0  0  0
   -3.8940    3.4271   -0.3744 C   0  0  0  0  0  0  0  0  0  0  0  0
   -2.9392    4.4362   -0.4470 C   0  0  0  0  0  0  0  0  0  0  0  0
   -1.4576    3.7005    0.3600 S   0  0  0  0  0  0  0  0  0  0  0  0
   -2.8626   -1.4250   -0.2036 C   0  0  0  0  0  0  0  0  0  0  0  0
   -3.1089   -2.3925    0.7767 C   0  0  0  0  0  0  0  0  0  0  0  0
   -4.3698   -2.9428    0.9402 C   0  0  0  0  0  0  0  0  0  0  0  0
   -5.3856   -2.5071    0.1024 C   0  0  0  0  0  0  0  0  0  0  0  0
   -5.1248   -1.5385   -0.8741 C   0  0  0  0  0  0  0  0  0  0  0  0
   -3.8683   -1.0223   -1.0014 N   0  0  0  0  0  0  0  0  0  0  0  0
    5.5314    1.8154   -0.9235 H   0  0  0  0  0  0  0  0  0  0  0  0
    4.8187    0.8334   -2.2734 H   0  0  0  0  0  0  0  0  0  0  0  0
    6.5001    0.5271   -1.6392 H   0  0  0  0  0  0  0  0  0  0  0  0
    6.5611   -1.4879   -0.6359 H   0  0  0  0  0  0  0  0  0  0  0  0
    5.6488   -3.1480    0.9176 H   0  0  0  0  0  0  0  0  0  0  0  0
    3.4457   -2.7370    1.9904 H   0  0  0  0  0  0  0  0  0  0  0  0
    2.1740   -0.6606    1.4952 H   0  0  0  0  0  0  0  0  0  0  0  0
    2.8384    1.3025   -1.3079 H   0  0  0  0  0  0  0  0  0  0  0  0
    3.6709    2.1623    0.0851 H   0  0  0  0  0  0  0  0  0  0  0  0
   -0.8817    1.4075    2.0733 H   0  0  0  0  0  0  0  0  0  0  0  0
   -2.3848    0.4628    2.0185 H   0  0  0  0  0  0  0  0  0  0  0  0
   -4.2602    1.4228    0.3003 H   0  0  0  0  0  0  0  0  0  0  0  0
   -4.8988    3.6363   -0.8060 H   0  0  0  0  0  0  0  0  0  0  0  0
   -2.9658    5.4175   -0.8482 H   0  0  0  0  0  0  0  0  0  0  0  0
   -2.3252   -2.7358    1.4309 H   0  0  0  0  0  0  0  0  0  0  0  0
   -4.5409   -3.6986    1.7135 H   0  0  0  0  0  0  0  0  0  0  0  0
   -6.3637   -2.9404    0.2359 H   0  0  0  0  0  0  0  0  0  0  0  0
   -5.9281   -1.2048   -1.5244 H   0  0  0  0  0  0  0  0  0  0  0  0
  1  2  1  0
  2  3  2  0
  3  4  1  0
  4  5  2  0
  5  6  1  0
  6  7  2  0
  7  8  1  0
  8  9  1  0
  9 10  1  0
 10 11  2  0
 11 12  1  0
 12 13  2  0
 13 14  1  0
 14 15  1  0
 15 16  1  0
 16 17  2  0
 17 18  1  0
 18 19  2  0
 19 20  1  0
 13 21  1  0
 21 22  2  0
 22 23  1  0
 23 24  2  0
 24 25  1  0
 25 26  2  0
  7  2  1  0
 14 10  1  0
 20 16  1  0
 26 21  1  0
  1 27  1  0
  1 28  1  0
  1 29  1  0
  3 30  1  0
  4 31  1  0
  5 32  1  0
  6 33  1  0
  8 34  1  0
  8 35  1  0
 15 36  1  0
 15 37  1  0
 17 38  1  0
 18 39  1  0
 19 40  1  0
 22 41  1  0
 23 42  1  0
 24 43  1  0
 25 44  1  0
M  END
>  <Ligand ID>  (1) 
LIG0003868

>  <Ligand>  (1) 
KUC104198N

>  <SMILES>  (1) 
Cc1ccccc1CSc1nnc(n1Cc1cccs1)c1ccccn1

>  <CID>  (1) 
44620912.0

>  <ChEMBL ID>  (1) 
nan

>  <InChiKey>  (1) 
QXEWIDXNTKOIHI-UHFFFAOYSA-N

>  <InChi>  (1) 
InChI=1S/C20H18N4S2/c1-15-7-2-3-8-16(15)14-26-20-23-22-19(18-10-4-5-11-21-18)24(20)13-17-9-6-12-25-17/h2-12H,13-14H2,1H3

>  <IUPAC Name>  (1) 
2-[5-[(2-methylphenyl)methylsulfanyl]-4-(thiophen-2-ylmethyl)-1,2,4-triazol-3-yl]pyridine

$$$$
