
     RDKit          3D

145147  0  0  0  0  0  0  0  0999 V2000
   -9.7223   -3.0283    1.3567 C   0  0  0  0  0  0  0  0  0  0  0  0
   -8.6232   -4.0077    1.5587 C   0  0  0  0  0  0  0  0  0  0  0  0
   -7.3813   -3.7887    0.7440 C   0  0  1  0  0  0  0  0  0  0  0  0
   -6.6882   -2.5364    0.9311 C   0  0  2  0  0  0  0  0  0  0  0  0
   -7.4827   -1.3010    0.5959 N   0  0  0  0  0  0  0  0  0  0  0  0
   -6.8744   -0.1207    1.0869 C   0  0  0  0  0  0  0  0  0  0  0  0
   -5.8931   -0.2962    1.8461 O   0  0  0  0  0  0  0  0  0  0  0  0
   -7.2336    1.2826    0.8203 C   0  0  2  0  0  0  0  0  0  0  0  0
   -7.7908    1.4158   -0.5400 C   0  0  0  0  0  0  0  0  0  0  0  0
   -8.2021    2.7938   -0.9663 C   0  0  0  0  0  0  0  0  0  0  0  0
   -8.7280    2.6713   -2.3902 C   0  0  0  0  0  0  0  0  0  0  0  0
  -10.1248    3.2327   -2.5380 C   0  0  0  0  0  0  0  0  0  0  0  0
  -10.0623    4.6659   -2.0560 C   0  0  0  0  0  0  0  0  0  0  0  0
   -9.8042    4.6428   -0.5630 C   0  0  0  0  0  0  0  0  0  0  0  0
   -9.3813    3.2716   -0.1026 C   0  0  0  0  0  0  0  0  0  0  0  0
   -5.9362    1.9819    1.0592 N   0  0  0  0  0  0  0  0  0  0  0  0
   -5.0065    2.1941    0.0063 C   0  0  0  0  0  0  0  0  0  0  0  0
   -5.4239    1.8536   -1.1271 O   0  0  0  0  0  0  0  0  0  0  0  0
   -3.6541    2.7421    0.0645 C   0  0  1  0  0  0  0  0  0  0  0  0
   -3.1048    2.4997   -1.3062 N   0  0  0  0  0  0  0  0  0  0  0  0
   -3.4063    4.1761    0.3206 C   0  0  0  0  0  0  0  0  0  0  0  0
   -1.5617    4.3833    0.1373 S   0  0  0  0  0  0  0  0  0  0  0  0
   -0.5368    3.3955    1.6854 S   0  0  0  0  0  0  0  0  0  0  0  0
   -0.1495    1.7030    1.3891 C   0  0  0  0  0  0  0  0  0  0  0  0
    0.9426    1.3089    0.4437 C   0  0  2  0  0  0  0  0  0  0  0  0
    0.6594   -0.1005    0.1364 N   0  0  0  0  0  0  0  0  0  0  0  0
    1.2015   -0.8377   -0.9458 C   0  0  0  0  0  0  0  0  0  0  0  0
    2.1651   -0.3590   -1.5254 O   0  0  0  0  0  0  0  0  0  0  0  0
    0.5875   -2.2051   -1.3402 C   0  0  1  0  0  0  0  0  0  0  0  0
   -0.8039   -2.1064   -1.1236 N   0  0  0  0  0  0  0  0  0  0  0  0
   -1.7491   -2.8800   -0.3719 C   0  0  0  0  0  0  0  0  0  0  0  0
   -1.3009   -3.8918    0.1485 O   0  0  0  0  0  0  0  0  0  0  0  0
   -3.0846   -2.3157   -0.3646 C   0  0  1  0  0  0  0  0  0  0  0  0
   -4.1600   -2.9676    0.3571 N   0  0  0  0  0  0  0  0  0  0  0  0
   -5.4069   -2.3203    0.1911 C   0  0  0  0  0  0  0  0  0  0  0  0
   -5.4582   -1.4364   -0.6949 O   0  0  0  0  0  0  0  0  0  0  0  0
   -2.9069   -0.9476    0.4486 C   0  0  0  0  0  0  0  0  0  0  0  0
   -2.5107   -1.2463    1.8089 C   0  0  0  0  0  0  0  0  0  0  0  0
   -2.7223   -0.3575    2.7015 O   0  0  0  0  0  0  0  0  0  0  0  0
   -1.9002   -2.4352    2.2883 N   0  0  0  0  0  0  0  0  0  0  0  0
    0.9099   -2.3632   -2.8155 C   0  0  0  0  0  0  0  0  0  0  0  0
    0.3772   -3.6382   -3.3002 C   0  0  0  0  0  0  0  0  0  0  0  0
   -0.2419   -4.4932   -2.6357 O   0  0  0  0  0  0  0  0  0  0  0  0
    0.5831   -3.9511   -4.6893 N   0  0  0  0  0  0  0  0  0  0  0  0
    2.2739    1.4974    1.1027 C   0  0  0  0  0  0  0  0  0  0  0  0
    2.5887    2.7455    1.2395 O   0  0  0  0  0  0  0  0  0  0  0  0
    3.1516    0.4884    1.5544 N   0  0  0  0  0  0  0  0  0  0  0  0
    3.0266   -0.9529    1.5707 C   0  0  0  0  0  0  0  0  0  0  0  0
    3.8280   -1.3140    2.8182 C   0  0  0  0  0  0  0  0  0  0  0  0
    4.8728   -0.2750    2.9636 C   0  0  0  0  0  0  0  0  0  0  0  0
    4.4795    0.8530    2.0930 C   0  0  1  0  0  0  0  0  0  0  0  0
    5.4441    1.0140    0.9702 C   0  0  0  0  0  0  0  0  0  0  0  0
    4.9475    1.2789   -0.1665 O   0  0  0  0  0  0  0  0  0  0  0  0
    6.8456    0.8857    1.1138 N   0  0  0  0  0  0  0  0  0  0  0  0
    7.7506    1.0718   -0.0425 C   0  0  2  0  0  0  0  0  0  0  0  0
    7.9783   -0.2203   -0.7027 C   0  0  0  0  0  0  0  0  0  0  0  0
    8.7146   -0.4169   -1.6980 O   0  0  0  0  0  0  0  0  0  0  0  0
    7.3104   -1.3885   -0.1940 N   0  0  0  0  0  0  0  0  0  0  0  0
    7.4514   -2.6970   -0.7697 C   0  0  0  0  0  0  0  0  0  0  0  0
    8.8347   -3.2015   -0.7570 C   0  0  0  0  0  0  0  0  0  0  0  0
    9.0191   -4.3604   -1.2578 O   0  0  0  0  0  0  0  0  0  0  0  0
    9.9518   -2.5086   -0.2391 N   0  0  0  0  0  0  0  0  0  0  0  0
    8.9478    1.8626    0.3515 C   0  0  0  0  0  0  0  0  0  0  0  0
    9.9341    2.1137   -0.7614 C   0  0  0  0  0  0  0  0  0  0  0  0
   11.0909    2.9178   -0.2403 C   0  0  0  0  0  0  0  0  0  0  0  0
   11.8935    2.3809    0.7627 N   0  0  0  0  0  0  0  0  0  0  0  0
   12.7826    1.3327    0.5795 C   0  0  0  0  0  0  0  0  0  0  0  0
   12.1381    0.0470    0.1397 C   0  0  0  0  0  0  0  0  0  0  0  0
   13.9923    1.6246   -0.2719 C   0  0  0  0  0  0  0  0  0  0  0  0
   -6.5132   -5.0209    0.9360 C   0  0  0  0  0  0  0  0  0  0  0  0
  -10.6331   -3.4789    1.8678 H   0  0  0  0  0  0  0  0  0  0  0  0
   -9.5488   -2.0939    1.9501 H   0  0  0  0  0  0  0  0  0  0  0  0
  -10.0469   -2.8660    0.3279 H   0  0  0  0  0  0  0  0  0  0  0  0
   -9.0011   -5.0314    1.2672 H   0  0  0  0  0  0  0  0  0  0  0  0
   -8.4089   -4.0718    2.6449 H   0  0  0  0  0  0  0  0  0  0  0  0
   -7.7198   -3.8600   -0.3418 H   0  0  0  0  0  0  0  0  0  0  0  0
   -6.4030   -2.3669    2.0116 H   0  0  0  0  0  0  0  0  0  0  0  0
   -8.3249   -1.2604    0.0963 H   0  0  0  0  0  0  0  0  0  0  0  0
   -7.9217    1.7291    1.5600 H   0  0  0  0  0  0  0  0  0  0  0  0
   -8.8182    0.8727   -0.4474 H   0  0  0  0  0  0  0  0  0  0  0  0
   -7.3104    0.7942   -1.3094 H   0  0  0  0  0  0  0  0  0  0  0  0
   -7.4625    3.5769   -0.9068 H   0  0  0  0  0  0  0  0  0  0  0  0
   -8.0735    3.2508   -3.0999 H   0  0  0  0  0  0  0  0  0  0  0  0
   -8.7203    1.6180   -2.7592 H   0  0  0  0  0  0  0  0  0  0  0  0
  -10.8735    2.6255   -2.0120 H   0  0  0  0  0  0  0  0  0  0  0  0
  -10.3709    3.1776   -3.6155 H   0  0  0  0  0  0  0  0  0  0  0  0
   -9.1679    5.1287   -2.5409 H   0  0  0  0  0  0  0  0  0  0  0  0
  -10.9583    5.2519   -2.3401 H   0  0  0  0  0  0  0  0  0  0  0  0
  -10.7455    4.8851   -0.0420 H   0  0  0  0  0  0  0  0  0  0  0  0
   -9.0363    5.3667   -0.2535 H   0  0  0  0  0  0  0  0  0  0  0  0
  -10.1756    2.5204   -0.0926 H   0  0  0  0  0  0  0  0  0  0  0  0
   -8.9850    3.3789    0.9198 H   0  0  0  0  0  0  0  0  0  0  0  0
   -5.6635    2.3372    1.9698 H   0  0  0  0  0  0  0  0  0  0  0  0
   -3.0010    2.0937    0.7405 H   0  0  0  0  0  0  0  0  0  0  0  0
   -2.1538    2.9085   -1.3941 H   0  0  0  0  0  0  0  0  0  0  0  0
   -3.7187    3.0148   -1.9578 H   0  0  0  0  0  0  0  0  0  0  0  0
   -3.8351    4.7605   -0.5238 H   0  0  0  0  0  0  0  0  0  0  0  0
   -3.6836    4.5335    1.3117 H   0  0  0  0  0  0  0  0  0  0  0  0
    0.2144    1.2827    2.4041 H   0  0  0  0  0  0  0  0  0  0  0  0
   -1.0430    1.0646    1.2129 H   0  0  0  0  0  0  0  0  0  0  0  0
    0.9653    1.8826   -0.4677 H   0  0  0  0  0  0  0  0  0  0  0  0
    0.0255   -0.6441    0.7383 H   0  0  0  0  0  0  0  0  0  0  0  0
    1.1517   -2.9483   -0.7974 H   0  0  0  0  0  0  0  0  0  0  0  0
   -1.2745   -1.2981   -1.6423 H   0  0  0  0  0  0  0  0  0  0  0  0
   -3.4339   -1.9515   -1.3325 H   0  0  0  0  0  0  0  0  0  0  0  0
   -4.1320   -3.7898    0.9296 H   0  0  0  0  0  0  0  0  0  0  0  0
   -3.8305   -0.4209    0.3626 H   0  0  0  0  0  0  0  0  0  0  0  0
   -2.1361   -0.4149   -0.1254 H   0  0  0  0  0  0  0  0  0  0  0  0
   -2.4444   -3.2935    2.5456 H   0  0  0  0  0  0  0  0  0  0  0  0
   -0.8434   -2.3974    2.3757 H   0  0  0  0  0  0  0  0  0  0  0  0
    0.5146   -1.5109   -3.4139 H   0  0  0  0  0  0  0  0  0  0  0  0
    2.0192   -2.3483   -2.9390 H   0  0  0  0  0  0  0  0  0  0  0  0
    1.5531   -4.2950   -4.9162 H   0  0  0  0  0  0  0  0  0  0  0  0
   -0.1708   -3.8440   -5.4043 H   0  0  0  0  0  0  0  0  0  0  0  0
    3.5059   -1.3567    0.6644 H   0  0  0  0  0  0  0  0  0  0  0  0
    2.0072   -1.3350    1.6851 H   0  0  0  0  0  0  0  0  0  0  0  0
    3.2202   -1.3871    3.7181 H   0  0  0  0  0  0  0  0  0  0  0  0
    4.3410   -2.3007    2.6182 H   0  0  0  0  0  0  0  0  0  0  0  0
    5.9028   -0.6556    2.7540 H   0  0  0  0  0  0  0  0  0  0  0  0
    4.9234    0.1201    4.0332 H   0  0  0  0  0  0  0  0  0  0  0  0
    4.3820    1.8204    2.6570 H   0  0  0  0  0  0  0  0  0  0  0  0
    7.2548    0.6619    2.0301 H   0  0  0  0  0  0  0  0  0  0  0  0
    7.1228    1.7086   -0.7441 H   0  0  0  0  0  0  0  0  0  0  0  0
    6.6972   -1.2670    0.6238 H   0  0  0  0  0  0  0  0  0  0  0  0
    6.8197   -3.4355   -0.2179 H   0  0  0  0  0  0  0  0  0  0  0  0
    7.0685   -2.7131   -1.8324 H   0  0  0  0  0  0  0  0  0  0  0  0
    9.9461   -2.2873    0.7778 H   0  0  0  0  0  0  0  0  0  0  0  0
   10.7130   -2.2607   -0.9035 H   0  0  0  0  0  0  0  0  0  0  0  0
    9.5178    1.3772    1.1935 H   0  0  0  0  0  0  0  0  0  0  0  0
    8.5800    2.8443    0.7735 H   0  0  0  0  0  0  0  0  0  0  0  0
    9.3984    2.7904   -1.4825 H   0  0  0  0  0  0  0  0  0  0  0  0
   10.2158    1.1665   -1.2037 H   0  0  0  0  0  0  0  0  0  0  0  0
   11.6713    3.3927   -1.0958 H   0  0  0  0  0  0  0  0  0  0  0  0
   10.6003    3.8423    0.2089 H   0  0  0  0  0  0  0  0  0  0  0  0
   11.4726    2.5096    1.7001 H   0  0  0  0  0  0  0  0  0  0  0  0
   13.2187    1.0896    1.6034 H   0  0  0  0  0  0  0  0  0  0  0  0
   12.7491   -0.8469    0.5066 H   0  0  0  0  0  0  0  0  0  0  0  0
   12.1906   -0.0889   -0.9733 H   0  0  0  0  0  0  0  0  0  0  0  0
   11.1406   -0.1415    0.5631 H   0  0  0  0  0  0  0  0  0  0  0  0
   13.6895    2.3073   -1.0905 H   0  0  0  0  0  0  0  0  0  0  0  0
   14.3171    0.6862   -0.8108 H   0  0  0  0  0  0  0  0  0  0  0  0
   14.8721    1.9773    0.2482 H   0  0  0  0  0  0  0  0  0  0  0  0
   -5.8798   -5.2140    0.0487 H   0  0  0  0  0  0  0  0  0  0  0  0
   -7.2105   -5.8944    0.9726 H   0  0  0  0  0  0  0  0  0  0  0  0
   -5.9654   -5.0193    1.8933 H   0  0  0  0  0  0  0  0  0  0  0  0
  1  2  1  0
  2  3  1  0
  3  4  1  0
  4  5  1  0
  5  6  1  0
  6  7  2  0
  6  8  1  0
  8  9  1  0
  9 10  1  0
 10 11  1  0
 11 12  1  0
 12 13  1  0
 13 14  1  0
 14 15  1  0
  8 16  1  0
 16 17  1  0
 17 18  2  0
 17 19  1  0
 19 20  1  0
 19 21  1  0
 21 22  1  0
 22 23  1  0
 23 24  1  0
 24 25  1  0
 25 26  1  0
 26 27  1  0
 27 28  2  0
 27 29  1  0
 29 30  1  0
 30 31  1  0
 31 32  2  0
 31 33  1  0
 33 34  1  0
 34 35  1  0
 35 36  2  0
 33 37  1  0
 37 38  1  0
 38 39  2  0
 38 40  1  0
 29 41  1  0
 41 42  1  0
 42 43  2  0
 42 44  1  0
 25 45  1  0
 45 46  2  0
 45 47  1  0
 47 48  1  0
 48 49  1  0
 49 50  1  0
 50 51  1  0
 51 52  1  0
 52 53  2  0
 52 54  1  0
 54 55  1  0
 55 56  1  0
 56 57  2  0
 56 58  1  0
 58 59  1  0
 59 60  1  0
 60 61  2  0
 60 62  1  0
 55 63  1  0
 63 64  1  0
 64 65  1  0
 65 66  1  0
 66 67  1  0
 67 68  1  0
 67 69  1  0
  3 70  1  0
 35  4  1  0
 51 47  1  0
 15 10  1  0
  1 71  1  0
  1 72  1  0
  1 73  1  0
  2 74  1  0
  2 75  1  0
  3 76  1  6
  4 77  1  1
  5 78  1  0
  8 79  1  1
  9 80  1  0
  9 81  1  0
 10 82  1  0
 11 83  1  0
 11 84  1  0
 12 85  1  0
 12 86  1  0
 13 87  1  0
 13 88  1  0
 14 89  1  0
 14 90  1  0
 15 91  1  0
 15 92  1  0
 16 93  1  0
 19 94  1  1
 20 95  1  0
 20 96  1  0
 21 97  1  0
 21 98  1  0
 24 99  1  0
 24100  1  0
 25101  1  6
 26102  1  0
 29103  1  1
 30104  1  0
 33105  1  6
 34106  1  0
 37107  1  0
 37108  1  0
 40109  1  0
 40110  1  0
 41111  1  0
 41112  1  0
 44113  1  0
 44114  1  0
 48115  1  0
 48116  1  0
 49117  1  0
 49118  1  0
 50119  1  0
 50120  1  0
 51121  1  1
 54122  1  0
 55123  1  6
 58124  1  0
 59125  1  0
 59126  1  0
 62127  1  0
 62128  1  0
 63129  1  0
 63130  1  0
 64131  1  0
 64132  1  0
 65133  1  0
 65134  1  0
 66135  1  0
 67136  1  0
 68137  1  0
 68138  1  0
 68139  1  0
 69140  1  0
 69141  1  0
 69142  1  0
 70143  1  0
 70144  1  0
 70145  1  0
M  END
>  <Ligand ID>  (1) 
LIG0000931

>  <Ligand>  (1) 
CHEMBL1817770

>  <SMILES>  (1) 
CC[C@@H]([C@@H]1NC(=O)[C@H](CC2CCCCC2)NC(=O)[C@@H](N)CSSC[C@H](NC(=O)[C@@H](NC(=O)[C@@H](NC1=O)CC(=O)N)CC(=O)N)C(=O)N1CCC[C@H]1C(=O)N[C@H](C(=O)NCC(=O)N)CCCNC(C)C)C

>  <CID>  (1) 
53362965.0

>  <ChEMBL ID>  (1) 
nan

>  <InChiKey>  (1) 
NFQFRZAPYXSCKL-PFCVTPPASA-N

>  <InChi>  (1) 
InChI=1S/C44H75N13O11S2/c1-5-24(4)36-43(67)54-30(19-34(47)59)39(63)53-29(18-33(46)58)40(64)55-31(22-70-69-21-26(45)37(61)52-28(41(65)56-36)17-25-11-7-6-8-12-25)44(68)57-16-10-14-32(57)42(66)51-27(13-9-15-49-23(2)3)38(62)50-20-35(48)60/h23-32,36,49H,5-22,45H2,1-4H3,(H2,46,58)(H2,47,59)(H2,48,60)(H,50,62)(H,51,66)(H,52,61)(H,53,63)(H,54,67)(H,55,64)(H,56,65)/t24-,26-,27-,28-,29-,30-,31-,32-,36-/m0/s1

>  <IUPAC Name>  (1) 
(2S)-1-[(4R,7S,10S,13S,16S,19R)-19-amino-7,10-bis(2-amino-2-oxoethyl)-13-[(2S)-butan-2-yl]-16-(cyclohexylmethyl)-6,9,12,15,18-pentaoxo-1,2-dithia-5,8,11,14,17-pentazacycloicosane-4-carbonyl]-N-[(2S)-1-[(2-amino-2-oxoethyl)amino]-1-oxo-5-(propan-2-ylamino)pentan-2-yl]pyrrolidine-2-carboxamide

$$$$
