
     RDKit          3D

 30 30  0  0  0  0  0  0  0  0999 V2000
   -5.2104   -0.5613    0.2166 C   0  0  0  0  0  0  0  0  0  0  0  0
   -5.4251    0.5077    1.2191 C   0  0  0  0  0  0  0  0  0  0  0  0
   -4.4488    1.2925    1.6549 C   0  0  0  0  0  0  0  0  0  0  0  0
   -3.1337    1.0720    1.1120 C   0  0  0  0  0  0  0  0  0  0  0  0
   -2.0384    0.8771    0.6402 C   0  0  0  0  0  0  0  0  0  0  0  0
   -0.7462    0.6306    0.0635 C   0  0  0  0  0  0  0  0  0  0  0  0
   -0.2124   -0.6428    0.1255 C   0  0  0  0  0  0  0  0  0  0  0  0
    1.0270   -0.9235   -0.4163 C   0  0  0  0  0  0  0  0  0  0  0  0
    1.7771    0.0437   -1.0352 C   0  0  0  0  0  0  0  0  0  0  0  0
    1.2545    1.3108   -1.1012 C   0  0  0  0  0  0  0  0  0  0  0  0
    0.0032    1.6086   -0.5581 C   0  0  0  0  0  0  0  0  0  0  0  0
    1.9129    2.3341   -1.6887 F   0  0  0  0  0  0  0  0  0  0  0  0
    3.1075   -0.1946   -1.6420 C   0  0  0  0  0  0  0  0  0  0  0  0
    4.2138    0.3687   -0.8172 C   0  0  0  0  0  0  0  0  0  0  0  0
    4.3179   -0.1775    0.5506 C   0  0  0  0  0  0  0  0  0  0  0  0
    3.5615   -1.0496    1.0370 O   0  0  0  0  0  0  0  0  0  0  0  0
    5.3279    0.3088    1.3624 O   0  0  0  0  0  0  0  0  0  0  0  0
   -5.7606   -0.3267   -0.7319 H   0  0  0  0  0  0  0  0  0  0  0  0
   -5.6995   -1.4854    0.5934 H   0  0  0  0  0  0  0  0  0  0  0  0
   -4.1465   -0.7096   -0.0231 H   0  0  0  0  0  0  0  0  0  0  0  0
   -6.4322    0.6379    1.6006 H   0  0  0  0  0  0  0  0  0  0  0  0
   -4.6354    2.0684    2.3909 H   0  0  0  0  0  0  0  0  0  0  0  0
   -0.8076   -1.4099    0.6169 H   0  0  0  0  0  0  0  0  0  0  0  0
    1.3918   -1.9291   -0.3456 H   0  0  0  0  0  0  0  0  0  0  0  0
   -0.3919    2.6008   -0.6171 H   0  0  0  0  0  0  0  0  0  0  0  0
    3.2918   -1.2969   -1.7907 H   0  0  0  0  0  0  0  0  0  0  0  0
    3.1564    0.2221   -2.6743 H   0  0  0  0  0  0  0  0  0  0  0  0
    4.1179    1.4955   -0.7991 H   0  0  0  0  0  0  0  0  0  0  0  0
    5.2111    0.1910   -1.2904 H   0  0  0  0  0  0  0  0  0  0  0  0
    5.4163    0.0755    2.3472 H   0  0  0  0  0  0  0  0  0  0  0  0
  1  2  1  0
  2  3  2  0
  3  4  1  0
  4  5  3  0
  5  6  1  0
  6  7  2  0
  7  8  1  0
  8  9  2  0
  9 10  1  0
 10 11  2  0
 10 12  1  0
  9 13  1  0
 13 14  1  0
 14 15  1  0
 15 16  2  0
 15 17  1  0
 11  6  1  0
  1 18  1  0
  1 19  1  0
  1 20  1  0
  2 21  1  0
  3 22  1  0
  7 23  1  0
  8 24  1  0
 11 25  1  0
 13 26  1  0
 13 27  1  0
 14 28  1  0
 14 29  1  0
 17 30  1  0
M  END
>  <Ligand ID>  (1) 
LIG0005588

>  <Ligand>  (1) 
CHEMBL3787072

>  <SMILES>  (1) 
C/C=C\C#Cc1ccc(c(c1)F)CCC(=O)O

>  <CID>  (1) 
127031003.0

>  <ChEMBL ID>  (1) 
nan

>  <InChiKey>  (1) 
PGTJSAIUYORJJG-IHWYPQMZSA-N

>  <InChi>  (1) 
InChI=1S/C14H13FO2/c1-2-3-4-5-11-6-7-12(13(15)10-11)8-9-14(16)17/h2-3,6-7,10H,8-9H2,1H3,(H,16,17)/b3-2-

>  <IUPAC Name>  (1) 
3-[2-fluoro-4-[(Z)-pent-3-en-1-ynyl]phenyl]propanoic acid

$$$$
