
     RDKit          3D

 44 43  0  0  0  0  0  0  0  0999 V2000
   -5.6206    2.4109    1.0463 C   0  0  0  0  0  0  0  0  0  0  0  0
   -5.6357    1.0364    0.4045 C   0  0  0  0  0  0  0  0  0  0  0  0
   -4.1793    0.6852    0.0583 C   0  0  0  0  0  0  0  0  0  0  0  0
   -4.0834   -0.6582   -0.5825 C   0  0  0  0  0  0  0  0  0  0  0  0
   -2.6461   -0.9580   -0.9204 C   0  0  0  0  0  0  0  0  0  0  0  0
   -1.8330   -0.9487    0.3381 C   0  0  0  0  0  0  0  0  0  0  0  0
   -0.3935   -1.2825   -0.0105 C   0  0  0  0  0  0  0  0  0  0  0  0
    0.2031   -0.2832   -0.9719 C   0  0  0  0  0  0  0  0  0  0  0  0
    1.6454   -0.6270   -1.2959 C   0  0  0  0  0  0  0  0  0  0  0  0
    2.5252   -0.6375   -0.0573 C   0  0  0  0  0  0  0  0  0  0  0  0
    3.9047   -0.9911   -0.5352 C   0  0  0  0  0  0  0  0  0  0  0  0
    4.9308   -1.0537    0.5473 C   0  0  0  0  0  0  0  0  0  0  0  0
    5.0749    0.2543    1.2590 C   0  0  0  0  0  0  0  0  0  0  0  0
    5.4845    1.3455    0.3457 C   0  0  0  0  0  0  0  0  0  0  0  0
    4.6396    1.9248   -0.4075 O   0  0  0  0  0  0  0  0  0  0  0  0
    6.8409    1.7234    0.3362 O   0  0  0  0  0  0  0  0  0  0  0  0
   -4.6666    2.5804    1.6005 H   0  0  0  0  0  0  0  0  0  0  0  0
   -6.4452    2.5431    1.7625 H   0  0  0  0  0  0  0  0  0  0  0  0
   -5.6581    3.1589    0.2360 H   0  0  0  0  0  0  0  0  0  0  0  0
   -5.9755    0.3112    1.1470 H   0  0  0  0  0  0  0  0  0  0  0  0
   -6.2866    1.0105   -0.4896 H   0  0  0  0  0  0  0  0  0  0  0  0
   -3.6572    0.7170    1.0374 H   0  0  0  0  0  0  0  0  0  0  0  0
   -3.8054    1.5108   -0.5776 H   0  0  0  0  0  0  0  0  0  0  0  0
   -4.6863   -0.7607   -1.4970 H   0  0  0  0  0  0  0  0  0  0  0  0
   -4.4012   -1.4263    0.1709 H   0  0  0  0  0  0  0  0  0  0  0  0
   -2.2872   -0.1599   -1.6160 H   0  0  0  0  0  0  0  0  0  0  0  0
   -2.5699   -1.9384   -1.4449 H   0  0  0  0  0  0  0  0  0  0  0  0
   -1.7894    0.0976    0.7193 H   0  0  0  0  0  0  0  0  0  0  0  0
   -2.2318   -1.5754    1.1332 H   0  0  0  0  0  0  0  0  0  0  0  0
    0.1707   -1.1475    0.9541 H   0  0  0  0  0  0  0  0  0  0  0  0
   -0.2840   -2.3159   -0.3420 H   0  0  0  0  0  0  0  0  0  0  0  0
    0.0410    0.7468   -0.6625 H   0  0  0  0  0  0  0  0  0  0  0  0
   -0.3359   -0.4190   -1.9568 H   0  0  0  0  0  0  0  0  0  0  0  0
    1.6343   -1.6505   -1.7137 H   0  0  0  0  0  0  0  0  0  0  0  0
    2.0060    0.1087   -2.0433 H   0  0  0  0  0  0  0  0  0  0  0  0
    2.4992    0.3181    0.4816 H   0  0  0  0  0  0  0  0  0  0  0  0
    2.1837   -1.4152    0.6483 H   0  0  0  0  0  0  0  0  0  0  0  0
    4.2085   -0.2031   -1.2663 H   0  0  0  0  0  0  0  0  0  0  0  0
    3.8526   -1.9659   -1.0715 H   0  0  0  0  0  0  0  0  0  0  0  0
    5.8938   -1.3407    0.0506 H   0  0  0  0  0  0  0  0  0  0  0  0
    4.7302   -1.8514    1.2784 H   0  0  0  0  0  0  0  0  0  0  0  0
    5.7916    0.1621    2.1034 H   0  0  0  0  0  0  0  0  0  0  0  0
    4.0841    0.4624    1.7588 H   0  0  0  0  0  0  0  0  0  0  0  0
    7.1270    2.5017   -0.2756 H   0  0  0  0  0  0  0  0  0  0  0  0
  1  2  1  0
  2  3  1  0
  3  4  1  0
  4  5  1  0
  5  6  1  0
  6  7  1  0
  7  8  1  0
  8  9  1  0
  9 10  1  0
 10 11  1  0
 11 12  1  0
 12 13  1  0
 13 14  1  0
 14 15  2  0
 14 16  1  0
  1 17  1  0
  1 18  1  0
  1 19  1  0
  2 20  1  0
  2 21  1  0
  3 22  1  0
  3 23  1  0
  4 24  1  0
  4 25  1  0
  5 26  1  0
  5 27  1  0
  6 28  1  0
  6 29  1  0
  7 30  1  0
  7 31  1  0
  8 32  1  0
  8 33  1  0
  9 34  1  0
  9 35  1  0
 10 36  1  0
 10 37  1  0
 11 38  1  0
 11 39  1  0
 12 40  1  0
 12 41  1  0
 13 42  1  0
 13 43  1  0
 16 44  1  0
M  END
>  <Ligand ID>  (1) 
LIG0000359

>  <Ligand>  (1) 
myristic acid

>  <SMILES>  (1) 
CCCCCCCCCCCCCC(=O)O

>  <CID>  (1) 
11005.0

>  <ChEMBL ID>  (1) 
nan

>  <InChiKey>  (1) 
TUNFSRHWOTWDNC-UHFFFAOYSA-N

>  <InChi>  (1) 
InChI=1S/C14H28O2/c1-2-3-4-5-6-7-8-9-10-11-12-13-14(15)16/h2-13H2,1H3,(H,15,16)

>  <IUPAC Name>  (1) 
tetradecanoic acid

$$$$
