
     RDKit          3D

 41 42  0  0  0  0  0  0  0  0999 V2000
   -0.9709   -0.6703    0.6108 O   0  0  0  0  0  0  0  0  0  0  0  0
   -1.4579    0.2768   -0.0378 C   0  0  0  0  0  0  0  0  0  0  0  0
   -0.7298    1.3034   -0.7508 C   0  0  0  0  0  0  0  0  0  0  0  0
   -1.4574    2.2796   -1.4183 C   0  0  0  0  0  0  0  0  0  0  0  0
   -0.8840    3.3046   -2.1292 C   0  0  0  0  0  0  0  0  0  0  0  0
    0.4753    3.3696   -2.1842 C   0  0  0  0  0  0  0  0  0  0  0  0
    1.1966    2.4063   -1.5256 C   0  0  0  0  0  0  0  0  0  0  0  0
    0.6343    1.3710   -0.8077 C   0  0  0  0  0  0  0  0  0  0  0  0
    1.4703    0.4269   -0.1629 N   0  0  0  0  0  0  0  0  0  0  0  0
    2.9023    0.6089   -0.2992 C   0  0  0  0  0  0  0  0  0  0  0  0
    3.6187   -0.4567    0.4301 C   0  0  0  0  0  0  0  0  0  0  0  0
    3.0730   -1.4162    1.0955 N   0  0  0  0  0  0  0  0  0  0  0  0
    4.0574   -2.2909    1.6913 C   0  0  0  0  0  0  0  0  0  0  0  0
    5.2940   -1.9862    0.8724 C   0  0  0  0  0  0  0  0  0  0  0  0
    5.0339   -0.5946    0.5147 N   0  0  0  0  0  0  0  0  0  0  0  0
   -2.8611    0.3218   -0.0576 O   0  0  0  0  0  0  0  0  0  0  0  0
   -3.6298   -0.6578    0.6234 C   0  0  0  0  0  0  0  0  0  0  0  0
   -3.3069   -2.0249    0.0585 C   0  0  0  0  0  0  0  0  0  0  0  0
   -3.2740   -0.5895    2.1022 C   0  0  0  0  0  0  0  0  0  0  0  0
   -5.0835   -0.3091    0.4454 C   0  0  0  0  0  0  0  0  0  0  0  0
   -2.5591    2.2749   -1.4067 H   0  0  0  0  0  0  0  0  0  0  0  0
   -1.4957    4.0485   -2.6374 H   0  0  0  0  0  0  0  0  0  0  0  0
    0.9759    4.1700   -2.7398 H   0  0  0  0  0  0  0  0  0  0  0  0
    2.2895    2.4995   -1.5981 H   0  0  0  0  0  0  0  0  0  0  0  0
    1.1614   -0.3832    0.3980 H   0  0  0  0  0  0  0  0  0  0  0  0
    3.2065    1.6167    0.0494 H   0  0  0  0  0  0  0  0  0  0  0  0
    3.1068    0.5370   -1.4051 H   0  0  0  0  0  0  0  0  0  0  0  0
    3.7295   -3.3342    1.5066 H   0  0  0  0  0  0  0  0  0  0  0  0
    4.2426   -2.0797    2.7599 H   0  0  0  0  0  0  0  0  0  0  0  0
    5.2911   -2.5661   -0.0695 H   0  0  0  0  0  0  0  0  0  0  0  0
    6.2393   -2.0893    1.4440 H   0  0  0  0  0  0  0  0  0  0  0  0
    5.7441    0.1683    0.3488 H   0  0  0  0  0  0  0  0  0  0  0  0
   -2.4273   -2.0549   -0.5832 H   0  0  0  0  0  0  0  0  0  0  0  0
   -3.3051   -2.7952    0.8808 H   0  0  0  0  0  0  0  0  0  0  0  0
   -4.1811   -2.3111   -0.5957 H   0  0  0  0  0  0  0  0  0  0  0  0
   -3.0589    0.4784    2.3349 H   0  0  0  0  0  0  0  0  0  0  0  0
   -4.1594   -0.8933    2.6841 H   0  0  0  0  0  0  0  0  0  0  0  0
   -2.4594   -1.2794    2.3420 H   0  0  0  0  0  0  0  0  0  0  0  0
   -5.7239   -1.1895    0.7228 H   0  0  0  0  0  0  0  0  0  0  0  0
   -5.3433    0.0249   -0.5746 H   0  0  0  0  0  0  0  0  0  0  0  0
   -5.3738    0.4848    1.1727 H   0  0  0  0  0  0  0  0  0  0  0  0
  1  2  2  0
  2  3  1  0
  3  4  2  0
  4  5  1  0
  5  6  2  0
  6  7  1  0
  7  8  2  0
  8  9  1  0
  9 10  1  0
 10 11  1  0
 11 12  2  0
 12 13  1  0
 13 14  1  0
 14 15  1  0
  2 16  1  0
 16 17  1  0
 17 18  1  0
 17 19  1  0
 17 20  1  0
  8  3  1  0
 15 11  1  0
  4 21  1  0
  5 22  1  0
  6 23  1  0
  7 24  1  0
  9 25  1  0
 10 26  1  0
 10 27  1  0
 13 28  1  0
 13 29  1  0
 14 30  1  0
 14 31  1  0
 15 32  1  0
 18 33  1  0
 18 34  1  0
 18 35  1  0
 19 36  1  0
 19 37  1  0
 19 38  1  0
 20 39  1  0
 20 40  1  0
 20 41  1  0
M  END
>  <Ligand ID>  (1) 
LIG0003391

>  <Ligand>  (1) 
CHEMBL98243

>  <SMILES>  (1) 
O=C(c1ccccc1NCC1=NCCN1)OC(C)(C)C

>  <CID>  (1) 
44329703.0

>  <ChEMBL ID>  (1) 
nan

>  <InChiKey>  (1) 
BZZFDOAWNMBVEQ-UHFFFAOYSA-N

>  <InChi>  (1) 
InChI=1S/C15H21N3O2/c1-15(2,3)20-14(19)11-6-4-5-7-12(11)18-10-13-16-8-9-17-13/h4-7,18H,8-10H2,1-3H3,(H,16,17)

>  <IUPAC Name>  (1) 
tert-butyl 2-(4,5-dihydro-1H-imidazol-2-ylmethylamino)benzoate

$$$$
