
     RDKit          3D

 47 49  0  0  0  0  0  0  0  0999 V2000
   -3.3010    1.5970   -2.4833 O   0  0  0  0  0  0  0  0  0  0  0  0
   -2.5525    1.3082   -1.4891 C   0  0  0  0  0  0  0  0  0  0  0  0
   -1.1605    1.8752   -1.4157 C   0  0  0  0  0  0  0  0  0  0  0  0
   -0.4859    1.4248   -0.2129 N   0  0  0  0  0  0  0  0  0  0  0  0
   -0.5468    2.0985    0.9263 N   0  0  0  0  0  0  0  0  0  0  0  0
    0.0857    1.6663    2.0393 C   0  0  0  0  0  0  0  0  0  0  0  0
    0.0320    2.4037    3.3313 C   0  0  0  0  0  0  0  0  0  0  0  0
    0.8069    0.4927    1.9652 C   0  0  0  0  0  0  0  0  0  0  0  0
    0.8818   -0.2282    0.7756 C   0  0  0  0  0  0  0  0  0  0  0  0
    0.2161    0.2622   -0.3243 C   0  0  0  0  0  0  0  0  0  0  0  0
    0.2628   -0.3641   -1.4120 O   0  0  0  0  0  0  0  0  0  0  0  0
    1.6780   -1.4760    0.7817 C   0  0  0  0  0  0  0  0  0  0  0  0
    2.9692   -1.2394    0.1233 C   0  0  0  0  0  0  0  0  0  0  0  0
    3.9876   -0.7046    0.9261 C   0  0  0  0  0  0  0  0  0  0  0  0
    5.2297   -0.4728    0.3264 C   0  0  0  0  0  0  0  0  0  0  0  0
    5.4639   -0.7529   -1.0030 C   0  0  0  0  0  0  0  0  0  0  0  0
    4.4518   -1.2838   -1.7986 C   0  0  0  0  0  0  0  0  0  0  0  0
    3.2289   -1.5108   -1.2027 C   0  0  0  0  0  0  0  0  0  0  0  0
    6.8186   -0.4684   -1.5421 C   0  0  0  0  0  0  0  0  0  0  0  0
    7.7198   -1.3688   -0.9812 F   0  0  0  0  0  0  0  0  0  0  0  0
    6.7755   -0.7037   -2.9049 F   0  0  0  0  0  0  0  0  0  0  0  0
    7.2429    0.8166   -1.2404 F   0  0  0  0  0  0  0  0  0  0  0  0
   -2.9689    0.4744   -0.4426 N   0  0  0  0  0  0  0  0  0  0  0  0
   -4.2431   -0.1460   -0.3479 C   0  0  0  0  0  0  0  0  0  0  0  0
   -5.2596    0.5570    0.3073 C   0  0  0  0  0  0  0  0  0  0  0  0
   -6.5220    0.0672    0.4627 C   0  0  0  0  0  0  0  0  0  0  0  0
   -6.8002   -1.1909   -0.0581 C   0  0  0  0  0  0  0  0  0  0  0  0
   -5.8023   -1.8930   -0.7069 C   0  0  0  0  0  0  0  0  0  0  0  0
   -4.5258   -1.3928   -0.8619 C   0  0  0  0  0  0  0  0  0  0  0  0
   -8.5659   -1.8683    0.1628 Br  0  0  0  0  0  0  0  0  0  0  0  0
   -0.6531    1.6223   -2.3423 H   0  0  0  0  0  0  0  0  0  0  0  0
   -1.3197    2.9838   -1.4081 H   0  0  0  0  0  0  0  0  0  0  0  0
   -0.3526    3.4226    3.2194 H   0  0  0  0  0  0  0  0  0  0  0  0
    1.0281    2.4653    3.8118 H   0  0  0  0  0  0  0  0  0  0  0  0
   -0.6061    1.8540    4.0710 H   0  0  0  0  0  0  0  0  0  0  0  0
    1.3201    0.1429    2.8703 H   0  0  0  0  0  0  0  0  0  0  0  0
    1.7690   -1.8623    1.8149 H   0  0  0  0  0  0  0  0  0  0  0  0
    1.1738   -2.2938    0.1923 H   0  0  0  0  0  0  0  0  0  0  0  0
    3.8267   -0.4788    1.9639 H   0  0  0  0  0  0  0  0  0  0  0  0
    5.9854   -0.0581    0.9883 H   0  0  0  0  0  0  0  0  0  0  0  0
    4.6556   -1.4976   -2.8416 H   0  0  0  0  0  0  0  0  0  0  0  0
    2.4571   -1.9233   -1.8247 H   0  0  0  0  0  0  0  0  0  0  0  0
   -2.3060    0.2676    0.3604 H   0  0  0  0  0  0  0  0  0  0  0  0
   -5.0182    1.5410    0.7086 H   0  0  0  0  0  0  0  0  0  0  0  0
   -7.2886    0.6402    0.9771 H   0  0  0  0  0  0  0  0  0  0  0  0
   -6.0583   -2.8687   -1.0981 H   0  0  0  0  0  0  0  0  0  0  0  0
   -3.7300   -1.9362   -1.3729 H   0  0  0  0  0  0  0  0  0  0  0  0
  1  2  2  0
  2  3  1  0
  3  4  1  0
  4  5  1  0
  5  6  2  0
  6  7  1  0
  6  8  1  0
  8  9  2  0
  9 10  1  0
 10 11  2  0
  9 12  1  0
 12 13  1  0
 13 14  2  0
 14 15  1  0
 15 16  2  0
 16 17  1  0
 17 18  2  0
 16 19  1  0
 19 20  1  0
 19 21  1  0
 19 22  1  0
  2 23  1  0
 23 24  1  0
 24 25  2  0
 25 26  1  0
 26 27  2  0
 27 28  1  0
 28 29  2  0
 27 30  1  0
 10  4  1  0
 18 13  1  0
 29 24  1  0
  3 31  1  0
  3 32  1  0
  7 33  1  0
  7 34  1  0
  7 35  1  0
  8 36  1  0
 12 37  1  0
 12 38  1  0
 14 39  1  0
 15 40  1  0
 17 41  1  0
 18 42  1  0
 23 43  1  0
 25 44  1  0
 26 45  1  0
 28 46  1  0
 29 47  1  0
M  END
>  <Ligand ID>  (1) 
LIG0003945

>  <Ligand>  (1) 
CHEMBL2391284

>  <SMILES>  (1) 
O=C(Cn1nc(C)cc(c1=O)Cc1ccc(cc1)C(F)(F)F)Nc1ccc(cc1)Br

>  <CID>  (1) 
71698971.0

>  <ChEMBL ID>  (1) 
nan

>  <InChiKey>  (1) 
DBOOXURLCXBHOK-UHFFFAOYSA-N

>  <InChi>  (1) 
InChI=1S/C21H17BrF3N3O2/c1-13-10-15(11-14-2-4-16(5-3-14)21(23,24)25)20(30)28(27-13)12-19(29)26-18-8-6-17(22)7-9-18/h2-10H,11-12H2,1H3,(H,26,29)

>  <IUPAC Name>  (1) 
N-(4-bromophenyl)-2-[3-methyl-6-oxo-5-[[4-(trifluoromethyl)phenyl]methyl]pyridazin-1-yl]acetamide

$$$$
