
     RDKit          3D

 22 21  0  0  0  0  0  0  0  0999 V2000
    4.1639   -0.1199    0.2460 C   0  0  0  0  0  0  0  0  0  0  0  0
    3.0605   -0.0051   -0.5214 C   0  0  0  0  0  0  0  0  0  0  0  0
    2.1424   -1.1671   -0.5874 C   0  0  0  0  0  0  0  0  0  0  0  0
    0.8337   -0.8727   -0.1317 O   0  0  0  0  0  0  0  0  0  0  0  0
    0.0202    0.0941   -0.7070 C   0  0  0  0  0  0  0  0  0  0  0  0
    0.4155    0.7874   -1.7013 O   0  0  0  0  0  0  0  0  0  0  0  0
   -1.3274    0.3146   -0.1473 C   0  0  0  0  0  0  0  0  0  0  0  0
   -1.7466   -0.4110    0.8965 C   0  0  0  0  0  0  0  0  0  0  0  0
   -3.1096   -0.1509    1.4219 C   0  0  0  0  0  0  0  0  0  0  0  0
   -2.2210    1.3355   -0.7342 C   0  0  0  0  0  0  0  0  0  0  0  0
    4.2757   -1.0837    0.7573 H   0  0  0  0  0  0  0  0  0  0  0  0
    4.8818    0.6876    0.3437 H   0  0  0  0  0  0  0  0  0  0  0  0
    2.8408    0.8826   -1.0679 H   0  0  0  0  0  0  0  0  0  0  0  0
    2.0833   -1.5947   -1.6163 H   0  0  0  0  0  0  0  0  0  0  0  0
    2.4928   -2.0038    0.0522 H   0  0  0  0  0  0  0  0  0  0  0  0
   -1.0891   -1.1735    1.3406 H   0  0  0  0  0  0  0  0  0  0  0  0
   -3.9124   -0.4866    0.7596 H   0  0  0  0  0  0  0  0  0  0  0  0
   -3.2274   -0.7109    2.3929 H   0  0  0  0  0  0  0  0  0  0  0  0
   -3.2682    0.9161    1.6657 H   0  0  0  0  0  0  0  0  0  0  0  0
   -1.7823    1.7150   -1.6763 H   0  0  0  0  0  0  0  0  0  0  0  0
   -2.3221    2.1561   -0.0105 H   0  0  0  0  0  0  0  0  0  0  0  0
   -3.2046    0.8909   -0.9753 H   0  0  0  0  0  0  0  0  0  0  0  0
  1  2  2  0
  2  3  1  0
  3  4  1  0
  4  5  1  0
  5  6  2  0
  5  7  1  0
  7  8  2  0
  8  9  1  0
  7 10  1  0
  1 11  1  0
  1 12  1  0
  2 13  1  0
  3 14  1  0
  3 15  1  0
  8 16  1  0
  9 17  1  0
  9 18  1  0
  9 19  1  0
 10 20  1  0
 10 21  1  0
 10 22  1  0
M  END
>  <Ligand ID>  (1) 
LIG0004985

>  <Ligand>  (1) 
Allyl tiglate

>  <SMILES>  (1) 
C=CCOC(=O)/C(=C/C)/C

>  <CID>  (1) 
5364729.0

>  <ChEMBL ID>  (1) 
nan

>  <InChiKey>  (1) 
ODOZNBUSHKFCSH-FNORWQNLSA-N

>  <InChi>  (1) 
InChI=1S/C8H12O2/c1-4-6-10-8(9)7(3)5-2/h4-5H,1,6H2,2-3H3/b7-5+

>  <IUPAC Name>  (1) 
prop-2-enyl (E)-2-methylbut-2-enoate

$$$$
