
     RDKit          3D

136142  0  0  0  0  0  0  0  0999 V2000
   -8.2216   -3.2922    1.4190 N   0  0  0  0  0  0  0  0  0  0  0  0
   -6.7833   -3.3327    1.5989 C   0  0  0  0  0  0  0  0  0  0  0  0
   -6.0888   -3.7315    0.6301 N   0  0  0  0  0  0  0  0  0  0  0  0
   -4.7746   -3.9457    0.2965 C   0  0  0  0  0  0  0  0  0  0  0  0
   -3.7266   -3.2705    1.1557 C   0  0  0  0  0  0  0  0  0  0  0  0
   -2.3418   -3.6036    0.6763 C   0  0  0  0  0  0  0  0  0  0  0  0
   -2.0117   -3.2246   -0.7208 C   0  0  2  0  0  0  0  0  0  0  0  0
   -0.6113   -3.6860   -0.9658 N   0  0  0  0  0  0  0  0  0  0  0  0
   -0.3066   -4.5462   -2.0626 C   0  0  0  0  0  0  0  0  0  0  0  0
   -1.2876   -4.8708   -2.7521 O   0  0  0  0  0  0  0  0  0  0  0  0
    1.0955   -5.0177   -2.3560 C   0  0  2  0  0  0  0  0  0  0  0  0
    1.1101   -6.4686   -2.7202 C   0  0  0  0  0  0  0  0  0  0  0  0
    1.2498   -7.1383   -1.3584 C   0  0  0  0  0  0  0  0  0  0  0  0
    1.8335   -6.0846   -0.4346 C   0  0  0  0  0  0  0  0  0  0  0  0
    1.8576   -4.8676   -1.1295 N   0  0  0  0  0  0  0  0  0  0  0  0
    2.5089   -3.6271   -0.7989 C   0  0  0  0  0  0  0  0  0  0  0  0
    2.4029   -2.7855   -1.7265 O   0  0  0  0  0  0  0  0  0  0  0  0
    3.2051   -3.3089    0.4023 C   0  0  1  0  0  0  0  0  0  0  0  0
    3.7388   -4.3415    1.3164 C   0  0  0  0  0  0  0  0  0  0  0  0
    4.0692   -3.4397    2.5206 C   0  0  0  0  0  0  0  0  0  0  0  0
    4.4814   -2.1230    1.8207 C   0  0  0  0  0  0  0  0  0  0  0  0
    4.2851   -2.3620    0.3997 N   0  0  0  0  0  0  0  0  0  0  0  0
    5.0541   -1.8991   -0.6713 C   0  0  0  0  0  0  0  0  0  0  0  0
    4.9498   -2.5436   -1.7308 O   0  0  0  0  0  0  0  0  0  0  0  0
    5.9913   -0.7110   -0.6294 C   0  0  2  0  0  0  0  0  0  0  0  0
    7.3530   -1.2279   -0.3675 C   0  0  0  0  0  0  0  0  0  0  0  0
    8.4370   -0.2366   -0.2848 C   0  0  0  0  0  0  0  0  0  0  0  0
    8.7577    0.3437    0.9290 C   0  0  0  0  0  0  0  0  0  0  0  0
    9.7949    1.2681    0.9264 C   0  0  0  0  0  0  0  0  0  0  0  0
   10.4902    1.6133   -0.2106 C   0  0  0  0  0  0  0  0  0  0  0  0
   10.1425    1.0120   -1.4141 C   0  0  0  0  0  0  0  0  0  0  0  0
    9.1134    0.0866   -1.4432 C   0  0  0  0  0  0  0  0  0  0  0  0
    5.6062    0.1914    0.4387 N   0  0  0  0  0  0  0  0  0  0  0  0
    4.7888    1.3087    0.0542 C   0  0  0  0  0  0  0  0  0  0  0  0
    4.5715    1.4128   -1.1628 O   0  0  0  0  0  0  0  0  0  0  0  0
    4.2053    2.3085    0.9548 C   0  0  1  0  0  0  0  0  0  0  0  0
    3.3518    3.2253    0.2296 N   0  0  0  0  0  0  0  0  0  0  0  0
    2.0831    3.7023    0.6348 C   0  0  0  0  0  0  0  0  0  0  0  0
    1.6156    3.2740    1.6817 O   0  0  0  0  0  0  0  0  0  0  0  0
    1.2830    4.6871   -0.1547 C   0  0  1  0  0  0  0  0  0  0  0  0
   -0.1218    4.6423    0.2659 N   0  0  0  0  0  0  0  0  0  0  0  0
   -1.1164    4.1505   -0.6484 C   0  0  0  0  0  0  0  0  0  0  0  0
   -0.6643    3.8501   -1.7719 O   0  0  0  0  0  0  0  0  0  0  0  0
   -2.5394    3.9877   -0.3710 C   0  0  0  0  0  0  0  0  0  0  0  0
   -2.9025    2.8042    0.2897 N   0  0  0  0  0  0  0  0  0  0  0  0
   -2.9924    1.4672   -0.0979 C   0  0  0  0  0  0  0  0  0  0  0  0
   -3.4671    0.8112    0.9283 O   0  0  0  0  0  0  0  0  0  0  0  0
   -2.7531    0.5844   -1.2041 C   0  0  1  0  0  0  0  0  0  0  0  0
   -2.9684   -0.8255   -0.9482 N   0  0  0  0  0  0  0  0  0  0  0  0
   -1.9120   -1.7677   -0.9776 C   0  0  0  0  0  0  0  0  0  0  0  0
   -0.7902   -1.3060   -1.2523 O   0  0  0  0  0  0  0  0  0  0  0  0
   -3.5864    0.8885   -2.4322 C   0  0  0  0  0  0  0  0  0  0  0  0
   -5.0507    0.7810   -2.1429 C   0  0  0  0  0  0  0  0  0  0  0  0
   -5.6616    1.9330   -1.6666 C   0  0  0  0  0  0  0  0  0  0  0  0
   -7.0239    1.8208   -1.4051 C   0  0  0  0  0  0  0  0  0  0  0  0
   -7.7071    0.6247   -1.6151 C   0  0  0  0  0  0  0  0  0  0  0  0
   -7.0731   -0.5035   -2.0897 C   0  0  0  0  0  0  0  0  0  0  0  0
   -5.7261   -0.3973   -2.3495 C   0  0  0  0  0  0  0  0  0  0  0  0
   -3.2450    3.0464    1.7575 C   0  0  0  0  0  0  0  0  0  0  0  0
   -4.5770    3.7015    1.6492 C   0  0  0  0  0  0  0  0  0  0  0  0
   -5.7401    3.2601    2.1929 C   0  0  0  0  0  0  0  0  0  0  0  0
   -6.8827    4.0130    1.9512 C   0  0  0  0  0  0  0  0  0  0  0  0
   -6.8334    5.1800    1.1779 C   0  0  0  0  0  0  0  0  0  0  0  0
   -5.6431    5.6261    0.6267 C   0  0  0  0  0  0  0  0  0  0  0  0
   -4.5278    4.8804    0.8692 C   0  0  0  0  0  0  0  0  0  0  0  0
   -3.1562    5.1944    0.3769 C   0  0  0  0  0  0  0  0  0  0  0  0
    1.8843    6.0607    0.0271 C   0  0  0  0  0  0  0  0  0  0  0  0
    1.1372    7.1069   -0.7302 C   0  0  0  0  0  0  0  0  0  0  0  0
    0.1226    6.8234   -1.4368 O   0  0  0  0  0  0  0  0  0  0  0  0
    1.6308    8.4406   -0.6117 N   0  0  0  0  0  0  0  0  0  0  0  0
    3.4221    1.6054    2.0819 C   0  0  0  0  0  0  0  0  0  0  0  0
   -6.3287   -2.9228    2.8760 N   0  0  0  0  0  0  0  0  0  0  0  0
   -8.8341   -4.0662    1.7718 H   0  0  0  0  0  0  0  0  0  0  0  0
   -8.6057   -2.4458    0.9230 H   0  0  0  0  0  0  0  0  0  0  0  0
   -4.5762   -5.0745    0.2823 H   0  0  0  0  0  0  0  0  0  0  0  0
   -4.6115   -3.6528   -0.7896 H   0  0  0  0  0  0  0  0  0  0  0  0
   -3.9441   -2.2333    1.3261 H   0  0  0  0  0  0  0  0  0  0  0  0
   -3.8134   -3.7824    2.1617 H   0  0  0  0  0  0  0  0  0  0  0  0
   -2.2445   -4.7137    0.7939 H   0  0  0  0  0  0  0  0  0  0  0  0
   -1.6390   -3.1590    1.4257 H   0  0  0  0  0  0  0  0  0  0  0  0
   -2.6750   -3.7352   -1.4230 H   0  0  0  0  0  0  0  0  0  0  0  0
    0.1563   -3.4197   -0.3696 H   0  0  0  0  0  0  0  0  0  0  0  0
    1.5295   -4.4459   -3.1956 H   0  0  0  0  0  0  0  0  0  0  0  0
    0.1553   -6.7590   -3.2113 H   0  0  0  0  0  0  0  0  0  0  0  0
    1.9654   -6.6580   -3.3859 H   0  0  0  0  0  0  0  0  0  0  0  0
    0.2185   -7.4485   -1.0597 H   0  0  0  0  0  0  0  0  0  0  0  0
    1.9073   -8.0096   -1.5058 H   0  0  0  0  0  0  0  0  0  0  0  0
    1.1998   -6.0935    0.4855 H   0  0  0  0  0  0  0  0  0  0  0  0
    2.8229   -6.4913   -0.1347 H   0  0  0  0  0  0  0  0  0  0  0  0
    2.4244   -2.7454    1.1000 H   0  0  0  0  0  0  0  0  0  0  0  0
    2.9368   -5.0149    1.6845 H   0  0  0  0  0  0  0  0  0  0  0  0
    4.6362   -4.8712    0.9707 H   0  0  0  0  0  0  0  0  0  0  0  0
    4.8565   -3.8411    3.1494 H   0  0  0  0  0  0  0  0  0  0  0  0
    3.1144   -3.2531    3.0442 H   0  0  0  0  0  0  0  0  0  0  0  0
    5.5229   -1.9995    2.1261 H   0  0  0  0  0  0  0  0  0  0  0  0
    3.7828   -1.3224    2.1079 H   0  0  0  0  0  0  0  0  0  0  0  0
    5.8361   -0.2525   -1.6316 H   0  0  0  0  0  0  0  0  0  0  0  0
    7.3317   -1.7410    0.6138 H   0  0  0  0  0  0  0  0  0  0  0  0
    7.6272   -1.9539   -1.1752 H   0  0  0  0  0  0  0  0  0  0  0  0
    8.2275    0.0930    1.8439 H   0  0  0  0  0  0  0  0  0  0  0  0
   10.0689    1.7473    1.8789 H   0  0  0  0  0  0  0  0  0  0  0  0
   11.2977    2.3405   -0.1832 H   0  0  0  0  0  0  0  0  0  0  0  0
   10.6840    1.2758   -2.3172 H   0  0  0  0  0  0  0  0  0  0  0  0
    8.8299   -0.3890   -2.3693 H   0  0  0  0  0  0  0  0  0  0  0  0
    5.8436    0.1533    1.4131 H   0  0  0  0  0  0  0  0  0  0  0  0
    4.9417    2.8931    1.5164 H   0  0  0  0  0  0  0  0  0  0  0  0
    3.6864    3.5819   -0.6749 H   0  0  0  0  0  0  0  0  0  0  0  0
    1.3503    4.4177   -1.2128 H   0  0  0  0  0  0  0  0  0  0  0  0
   -0.4767    4.9334    1.1688 H   0  0  0  0  0  0  0  0  0  0  0  0
   -3.0387    4.1457   -1.3973 H   0  0  0  0  0  0  0  0  0  0  0  0
   -1.6975    0.6238   -1.5024 H   0  0  0  0  0  0  0  0  0  0  0  0
   -3.8930   -1.1946   -0.7492 H   0  0  0  0  0  0  0  0  0  0  0  0
   -3.3805    0.1745   -3.2573 H   0  0  0  0  0  0  0  0  0  0  0  0
   -3.3175    1.8827   -2.8326 H   0  0  0  0  0  0  0  0  0  0  0  0
   -5.1581    2.8543   -1.4984 H   0  0  0  0  0  0  0  0  0  0  0  0
   -7.5850    2.6823   -1.0236 H   0  0  0  0  0  0  0  0  0  0  0  0
   -8.7705    0.5594   -1.4037 H   0  0  0  0  0  0  0  0  0  0  0  0
   -7.5716   -1.4441   -2.2618 H   0  0  0  0  0  0  0  0  0  0  0  0
   -5.2279   -1.2739   -2.7244 H   0  0  0  0  0  0  0  0  0  0  0  0
   -2.4896    3.7195    2.1997 H   0  0  0  0  0  0  0  0  0  0  0  0
   -3.3086    2.1740    2.3500 H   0  0  0  0  0  0  0  0  0  0  0  0
   -5.7297    2.3614    2.7849 H   0  0  0  0  0  0  0  0  0  0  0  0
   -7.8240    3.6680    2.3843 H   0  0  0  0  0  0  0  0  0  0  0  0
   -7.7357    5.7364    1.0091 H   0  0  0  0  0  0  0  0  0  0  0  0
   -5.5577    6.5173    0.0239 H   0  0  0  0  0  0  0  0  0  0  0  0
   -3.2462    6.0374   -0.3081 H   0  0  0  0  0  0  0  0  0  0  0  0
   -2.5787    5.5048    1.2427 H   0  0  0  0  0  0  0  0  0  0  0  0
    2.9178    6.0481   -0.3772 H   0  0  0  0  0  0  0  0  0  0  0  0
    1.8946    6.3635    1.0927 H   0  0  0  0  0  0  0  0  0  0  0  0
    1.5423    8.8852    0.3436 H   0  0  0  0  0  0  0  0  0  0  0  0
    2.0655    8.9606   -1.4213 H   0  0  0  0  0  0  0  0  0  0  0  0
    4.1684    0.8914    2.5175 H   0  0  0  0  0  0  0  0  0  0  0  0
    2.5539    1.0938    1.7156 H   0  0  0  0  0  0  0  0  0  0  0  0
    3.2601    2.3602    2.8639 H   0  0  0  0  0  0  0  0  0  0  0  0
   -6.5851   -1.9896    3.2839 H   0  0  0  0  0  0  0  0  0  0  0  0
   -5.7205   -3.5142    3.4872 H   0  0  0  0  0  0  0  0  0  0  0  0
  1  2  1  0
  2  3  2  3
  3  4  1  0
  4  5  1  0
  5  6  1  0
  6  7  1  0
  7  8  1  0
  8  9  1  0
  9 10  2  0
  9 11  1  0
 11 12  1  0
 12 13  1  0
 13 14  1  0
 14 15  1  0
 15 16  1  0
 16 17  2  0
 16 18  1  0
 18 19  1  0
 19 20  1  0
 20 21  1  0
 21 22  1  0
 22 23  1  0
 23 24  2  0
 23 25  1  0
 25 26  1  0
 26 27  1  0
 27 28  2  0
 28 29  1  0
 29 30  2  0
 30 31  1  0
 31 32  2  0
 25 33  1  0
 33 34  1  0
 34 35  2  0
 34 36  1  0
 36 37  1  0
 37 38  1  0
 38 39  2  0
 38 40  1  0
 40 41  1  0
 41 42  1  0
 42 43  2  0
 42 44  1  0
 44 45  1  0
 45 46  1  0
 46 47  2  0
 46 48  1  0
 48 49  1  0
 49 50  1  0
 50 51  2  0
 48 52  1  0
 52 53  1  0
 53 54  2  0
 54 55  1  0
 55 56  2  0
 56 57  1  0
 57 58  2  0
 45 59  1  0
 59 60  1  0
 60 61  2  0
 61 62  1  0
 62 63  2  0
 63 64  1  0
 64 65  2  0
 65 66  1  0
 40 67  1  0
 67 68  1  0
 68 69  2  0
 68 70  1  0
 36 71  1  0
  2 72  1  0
 50  7  1  0
 58 53  1  0
 65 60  1  0
 15 11  1  0
 22 18  1  0
 32 27  1  0
 66 44  1  0
  1 73  1  0
  1 74  1  0
  4 75  1  0
  4 76  1  0
  5 77  1  0
  5 78  1  0
  6 79  1  0
  6 80  1  0
  7 81  1  6
  8 82  1  0
 11 83  1  6
 12 84  1  0
 12 85  1  0
 13 86  1  0
 13 87  1  0
 14 88  1  0
 14 89  1  0
 18 90  1  1
 19 91  1  0
 19 92  1  0
 20 93  1  0
 20 94  1  0
 21 95  1  0
 21 96  1  0
 25 97  1  6
 26 98  1  0
 26 99  1  0
 28100  1  0
 29101  1  0
 30102  1  0
 31103  1  0
 32104  1  0
 33105  1  0
 36106  1  1
 37107  1  0
 40108  1  6
 41109  1  0
 44110  1  0
 48111  1  6
 49112  1  0
 52113  1  0
 52114  1  0
 54115  1  0
 55116  1  0
 56117  1  0
 57118  1  0
 58119  1  0
 59120  1  0
 59121  1  0
 61122  1  0
 62123  1  0
 63124  1  0
 64125  1  0
 66126  1  0
 66127  1  0
 67128  1  0
 67129  1  0
 70130  1  0
 70131  1  0
 71132  1  0
 71133  1  0
 71134  1  0
 72135  1  0
 72136  1  0
M  END
>  <Ligand ID>  (1) 
LIG0005502

>  <Ligand>  (1) 
CHEMBL3577989

>  <SMILES>  (1) 
NC(=NCCC[C@@H]1NC(=O)[C@@H]2CCCN2C(=O)[C@H]2CCCN2C(=O)[C@H](Cc2ccccc2)NC(=O)[C@@H](NC(=O)[C@@H](NC(=O)C2N(C(=O)[C@@H](NC1=O)Cc1ccccc1)Cc1ccccc1C2)CC(=O)N)C)N

>  <CID>  (1) 
122178160.0

>  <ChEMBL ID>  (1) 
nan

>  <InChiKey>  (1) 
OJLMERSXOXCYCN-HMHDQFTJSA-N

>  <InChi>  (1) 
InChI=1S/C51H64N12O9/c1-30-43(65)59-37(25-31-13-4-2-5-14-31)48(70)62-24-12-21-40(62)50(72)61-23-11-20-39(61)46(68)57-35(19-10-22-55-51(53)54)44(66)60-38(26-32-15-6-3-7-16-32)49(71)63-29-34-18-9-8-17-33(34)27-41(63)47(69)58-36(28-42(52)64)45(67)56-30/h2-9,13-18,30,35-41H,10-12,19-29H2,1H3,(H2,52,64)(H,56,67)(H,57,68)(H,58,69)(H,59,65)(H,60,66)(H4,53,54,55)/t30-,35-,36-,37-,38-,39-,40+,41?/m0/s1

>  <IUPAC Name>  (1) 
2-[(3S,6S,9S,15R,21S,24S,27S)-3,21-dibenzyl-6-[3-(diaminomethylideneamino)propyl]-24-methyl-2,5,8,14,20,23,26,29-octaoxo-1,4,7,13,19,22,25,28-octazapentacyclo[28.8.0.09,13.015,19.032,37]octatriaconta-32,34,36-trien-27-yl]acetamide

$$$$
