
     RDKit          3D

 45 47  0  0  0  0  0  0  0  0999 V2000
    7.8030   -2.1116    0.6941 C   0  0  0  0  0  0  0  0  0  0  0  0
    7.0439   -0.8819    0.7362 N   0  0  0  0  0  0  0  0  0  0  0  0
    5.7334   -0.9018    0.1917 C   0  0  0  0  0  0  0  0  0  0  0  0
    5.3281   -1.9914   -0.2888 O   0  0  0  0  0  0  0  0  0  0  0  0
    4.8843    0.2885    0.1854 C   0  0  0  0  0  0  0  0  0  0  0  0
    5.2884    1.4689    0.6915 N   0  0  0  0  0  0  0  0  0  0  0  0
    4.4685    2.5530    0.6666 C   0  0  0  0  0  0  0  0  0  0  0  0
    3.1888    2.4744    0.1178 C   0  0  0  0  0  0  0  0  0  0  0  0
    2.7444    1.2647   -0.4132 C   0  0  0  0  0  0  0  0  0  0  0  0
    3.6268    0.2053   -0.3556 C   0  0  0  0  0  0  0  0  0  0  0  0
    1.4085    1.0954   -1.0113 C   0  0  0  0  0  0  0  0  0  0  0  0
    0.4066    0.7022   -0.1236 O   0  0  0  0  0  0  0  0  0  0  0  0
   -0.8863    0.5265   -0.6428 C   0  0  0  0  0  0  0  0  0  0  0  0
   -1.1753    0.7214   -1.9340 N   0  0  0  0  0  0  0  0  0  0  0  0
   -2.3836    0.5708   -2.4876 C   0  0  0  0  0  0  0  0  0  0  0  0
   -2.5810    0.8068   -3.8866 N   0  0  0  0  0  0  0  0  0  0  0  0
   -3.4614    0.1814   -1.7011 C   0  0  0  0  0  0  0  0  0  0  0  0
   -3.2042   -0.0337   -0.3428 C   0  0  0  0  0  0  0  0  0  0  0  0
   -1.9300    0.1369    0.1815 C   0  0  0  0  0  0  0  0  0  0  0  0
   -1.7206   -0.0956    1.5755 C   0  0  0  0  0  0  0  0  0  0  0  0
   -1.5481   -0.2991    2.6937 N   0  0  0  0  0  0  0  0  0  0  0  0
   -4.3403   -0.4427    0.4788 C   0  0  0  0  0  0  0  0  0  0  0  0
   -4.6312   -1.7876    0.6396 C   0  0  0  0  0  0  0  0  0  0  0  0
   -5.7305   -2.1195    1.4371 C   0  0  0  0  0  0  0  0  0  0  0  0
   -6.4965   -1.1266    2.0418 C   0  0  0  0  0  0  0  0  0  0  0  0
   -6.2003    0.2159    1.8769 C   0  0  0  0  0  0  0  0  0  0  0  0
   -5.1141    0.5477    1.0890 C   0  0  0  0  0  0  0  0  0  0  0  0
   -7.5617   -1.5161    2.8118 F   0  0  0  0  0  0  0  0  0  0  0  0
   -4.7684    0.0104   -2.2594 C   0  0  0  0  0  0  0  0  0  0  0  0
   -5.8231   -0.1300   -2.7197 N   0  0  0  0  0  0  0  0  0  0  0  0
    8.1415   -2.2732   -0.3546 H   0  0  0  0  0  0  0  0  0  0  0  0
    8.6544   -2.1345    1.3854 H   0  0  0  0  0  0  0  0  0  0  0  0
    7.1421   -2.9625    0.9552 H   0  0  0  0  0  0  0  0  0  0  0  0
    7.4279    0.0066    1.1500 H   0  0  0  0  0  0  0  0  0  0  0  0
    4.7877    3.5047    1.0719 H   0  0  0  0  0  0  0  0  0  0  0  0
    2.5333    3.3146    0.0903 H   0  0  0  0  0  0  0  0  0  0  0  0
    3.3063   -0.7344   -0.7580 H   0  0  0  0  0  0  0  0  0  0  0  0
    1.4985    0.2564   -1.7621 H   0  0  0  0  0  0  0  0  0  0  0  0
    1.1618    2.0339   -1.5415 H   0  0  0  0  0  0  0  0  0  0  0  0
   -3.5385    1.0514   -4.2542 H   0  0  0  0  0  0  0  0  0  0  0  0
   -1.7603    0.7272   -4.4976 H   0  0  0  0  0  0  0  0  0  0  0  0
   -4.0165   -2.5174    0.1571 H   0  0  0  0  0  0  0  0  0  0  0  0
   -5.9889   -3.1597    1.5862 H   0  0  0  0  0  0  0  0  0  0  0  0
   -6.8176    0.9546    2.3617 H   0  0  0  0  0  0  0  0  0  0  0  0
   -4.8998    1.5999    0.9730 H   0  0  0  0  0  0  0  0  0  0  0  0
  1  2  1  0
  2  3  1  0
  3  4  2  0
  3  5  1  0
  5  6  2  0
  6  7  1  0
  7  8  2  0
  8  9  1  0
  9 10  2  0
  9 11  1  0
 11 12  1  0
 12 13  1  0
 13 14  2  0
 14 15  1  0
 15 16  1  0
 15 17  2  0
 17 18  1  0
 18 19  2  0
 19 20  1  0
 20 21  3  0
 18 22  1  0
 22 23  2  0
 23 24  1  0
 24 25  2  0
 25 26  1  0
 26 27  2  0
 25 28  1  0
 17 29  1  0
 29 30  3  0
 10  5  1  0
 19 13  1  0
 27 22  1  0
  1 31  1  0
  1 32  1  0
  1 33  1  0
  2 34  1  0
  7 35  1  0
  8 36  1  0
 10 37  1  0
 11 38  1  0
 11 39  1  0
 16 40  1  0
 16 41  1  0
 23 42  1  0
 24 43  1  0
 26 44  1  0
 27 45  1  0
M  END
>  <Ligand ID>  (1) 
LIG0004654

>  <Ligand>  (1) 
SCHEMBL243305

>  <SMILES>  (1) 
CNC(=O)c1nccc(c1)COc1nc(N)c(c(c1C#N)c1ccc(cc1)F)C#N

>  <CID>  (1) 
66631060.0

>  <ChEMBL ID>  (1) 
nan

>  <InChiKey>  (1) 
IMPZNZTUWCSHTB-UHFFFAOYSA-N

>  <InChi>  (1) 
InChI=1S/C21H15FN6O2/c1-26-20(29)17-8-12(6-7-27-17)11-30-21-16(10-24)18(15(9-23)19(25)28-21)13-2-4-14(22)5-3-13/h2-8H,11H2,1H3,(H2,25,28)(H,26,29)

>  <IUPAC Name>  (1) 
4-[[6-amino-3,5-dicyano-4-(4-fluorophenyl)pyridin-2-yl]oxymethyl]-N-methylpyridine-2-carboxamide

$$$$
