
     RDKit          3D

 64 68  0  0  0  0  0  0  0  0999 V2000
    0.2726   -1.1553   -1.3344 O   0  0  0  0  0  0  0  0  0  0  0  0
    0.4819    0.1324   -0.8674 C   0  0  0  0  0  0  0  0  0  0  0  0
   -0.5214    0.6013    0.1376 C   0  0  0  0  0  0  0  0  0  0  0  0
   -1.8381    0.6022   -0.3874 N   0  0  0  0  0  0  0  0  0  0  0  0
   -2.4417   -0.6555   -0.6606 C   0  0  0  0  0  0  0  0  0  0  0  0
   -3.7468   -0.8329    0.1586 C   0  0  0  0  0  0  0  0  0  0  0  0
   -4.6666    0.2058   -0.2462 N   0  0  0  0  0  0  0  0  0  0  0  0
   -4.0840    1.5408   -0.4616 C   0  0  0  0  0  0  0  0  0  0  0  0
   -2.7462    1.5172    0.2671 C   0  0  0  0  0  0  0  0  0  0  0  0
   -6.0502    0.0471   -0.4517 C   0  0  0  0  0  0  0  0  0  0  0  0
   -6.5129    0.1374   -1.7549 C   0  0  0  0  0  0  0  0  0  0  0  0
   -7.8388   -0.0143   -2.0970 C   0  0  0  0  0  0  0  0  0  0  0  0
   -8.7688   -0.2714   -1.0890 C   0  0  0  0  0  0  0  0  0  0  0  0
   -8.3359   -0.3661    0.2200 C   0  0  0  0  0  0  0  0  0  0  0  0
   -6.9803   -0.2051    0.5229 C   0  0  0  0  0  0  0  0  0  0  0  0
   -6.5862   -0.2989    1.8375 C   0  0  0  0  0  0  0  0  0  0  0  0
   -7.5135   -0.5430    2.7948 C   0  0  0  0  0  0  0  0  0  0  0  0
   -8.8628   -0.7119    2.5627 C   0  0  0  0  0  0  0  0  0  0  0  0
   -9.2659   -0.6177    1.2341 C   0  0  0  0  0  0  0  0  0  0  0  0
    1.9033    0.2015   -0.3364 C   0  0  0  0  0  0  0  0  0  0  0  0
    2.8844   -0.1083   -1.4293 C   0  0  0  0  0  0  0  0  0  0  0  0
    4.2594   -0.0503   -0.9629 N   0  0  0  0  0  0  0  0  0  0  0  0
    5.3774   -0.2942   -1.8009 C   0  0  0  0  0  0  0  0  0  0  0  0
    5.1775   -0.5775   -3.0195 O   0  0  0  0  0  0  0  0  0  0  0  0
    6.7472   -0.2303   -1.3157 C   0  0  0  0  0  0  0  0  0  0  0  0
    7.7742   -0.4431   -2.2098 C   0  0  0  0  0  0  0  0  0  0  0  0
    9.0734   -0.4054   -1.8606 N   0  0  0  0  0  0  0  0  0  0  0  0
    9.3668   -0.1459   -0.5709 C   0  0  0  0  0  0  0  0  0  0  0  0
    8.3942    0.0783    0.3851 C   0  0  0  0  0  0  0  0  0  0  0  0
    7.0731    0.0302   -0.0173 C   0  0  0  0  0  0  0  0  0  0  0  0
    8.6958    0.3454    1.7118 C   0  0  0  0  0  0  0  0  0  0  0  0
   10.0305    0.3891    2.0932 C   0  0  0  0  0  0  0  0  0  0  0  0
   11.0365    0.1678    1.1570 C   0  0  0  0  0  0  0  0  0  0  0  0
   10.6762   -0.0955   -0.1591 C   0  0  0  0  0  0  0  0  0  0  0  0
    0.8012   -1.7737   -0.7385 H   0  0  0  0  0  0  0  0  0  0  0  0
    0.4479    0.8828   -1.7080 H   0  0  0  0  0  0  0  0  0  0  0  0
   -0.3021    1.6212    0.5086 H   0  0  0  0  0  0  0  0  0  0  0  0
   -0.5061   -0.1076    1.0121 H   0  0  0  0  0  0  0  0  0  0  0  0
   -1.8244   -1.5184   -0.3908 H   0  0  0  0  0  0  0  0  0  0  0  0
   -2.7242   -0.7537   -1.7228 H   0  0  0  0  0  0  0  0  0  0  0  0
   -4.1492   -1.8081   -0.2233 H   0  0  0  0  0  0  0  0  0  0  0  0
   -3.5081   -0.8378    1.2229 H   0  0  0  0  0  0  0  0  0  0  0  0
   -4.7161    2.3510   -0.0839 H   0  0  0  0  0  0  0  0  0  0  0  0
   -3.9393    1.7366   -1.5610 H   0  0  0  0  0  0  0  0  0  0  0  0
   -2.3452    2.5476    0.1992 H   0  0  0  0  0  0  0  0  0  0  0  0
   -2.9518    1.2848    1.3173 H   0  0  0  0  0  0  0  0  0  0  0  0
   -5.8301    0.3383   -2.5942 H   0  0  0  0  0  0  0  0  0  0  0  0
   -8.1979    0.0587   -3.1280 H   0  0  0  0  0  0  0  0  0  0  0  0
   -9.8276   -0.3995   -1.3099 H   0  0  0  0  0  0  0  0  0  0  0  0
   -5.5509   -0.1734    2.0959 H   0  0  0  0  0  0  0  0  0  0  0  0
   -7.1738   -0.6140    3.8365 H   0  0  0  0  0  0  0  0  0  0  0  0
   -9.5565   -0.9061    3.3711 H   0  0  0  0  0  0  0  0  0  0  0  0
  -10.3220   -0.7423    1.0012 H   0  0  0  0  0  0  0  0  0  0  0  0
    2.0569   -0.5791    0.4630 H   0  0  0  0  0  0  0  0  0  0  0  0
    2.1365    1.1798    0.1160 H   0  0  0  0  0  0  0  0  0  0  0  0
    2.7995    0.5950   -2.2798 H   0  0  0  0  0  0  0  0  0  0  0  0
    2.7166   -1.1310   -1.8343 H   0  0  0  0  0  0  0  0  0  0  0  0
    4.3982    0.1891    0.0620 H   0  0  0  0  0  0  0  0  0  0  0  0
    7.5537   -0.6561   -3.2634 H   0  0  0  0  0  0  0  0  0  0  0  0
    6.3234    0.2023    0.7161 H   0  0  0  0  0  0  0  0  0  0  0  0
    7.8935    0.5156    2.4307 H   0  0  0  0  0  0  0  0  0  0  0  0
   10.2973    0.5992    3.1407 H   0  0  0  0  0  0  0  0  0  0  0  0
   12.0879    0.1989    1.4392 H   0  0  0  0  0  0  0  0  0  0  0  0
   11.4480   -0.2742   -0.9174 H   0  0  0  0  0  0  0  0  0  0  0  0
  1  2  1  0
  2  3  1  0
  3  4  1  0
  4  5  1  0
  5  6  1  0
  6  7  1  0
  7  8  1  0
  8  9  1  0
  7 10  1  0
 10 11  2  0
 11 12  1  0
 12 13  2  0
 13 14  1  0
 14 15  2  0
 15 16  1  0
 16 17  2  0
 17 18  1  0
 18 19  2  0
  2 20  1  0
 20 21  1  0
 21 22  1  0
 22 23  1  0
 23 24  2  0
 23 25  1  0
 25 26  2  0
 26 27  1  0
 27 28  2  0
 28 29  1  0
 29 30  2  0
 29 31  1  0
 31 32  2  0
 32 33  1  0
 33 34  2  0
  9  4  1  0
 15 10  1  0
 30 25  1  0
 19 14  1  0
 34 28  1  0
  1 35  1  0
  2 36  1  0
  3 37  1  0
  3 38  1  0
  5 39  1  0
  5 40  1  0
  6 41  1  0
  6 42  1  0
  8 43  1  0
  8 44  1  0
  9 45  1  0
  9 46  1  0
 11 47  1  0
 12 48  1  0
 13 49  1  0
 16 50  1  0
 17 51  1  0
 18 52  1  0
 19 53  1  0
 20 54  1  0
 20 55  1  0
 21 56  1  0
 21 57  1  0
 22 58  1  0
 26 59  1  0
 30 60  1  0
 31 61  1  0
 32 62  1  0
 33 63  1  0
 34 64  1  0
M  END
>  <Ligand ID>  (1) 
LIG0003156

>  <Ligand>  (1) 
CHEMBL3597636

>  <SMILES>  (1) 
OC(CN1CCN(CC1)c1cccc2c1cccc2)CCNC(=O)c1cnc2c(c1)cccc2

>  <CID>  (1) 
122183764.0

>  <ChEMBL ID>  (1) 
nan

>  <InChiKey>  (1) 
KRUWNGHFXJBYSG-UHFFFAOYSA-N

>  <InChi>  (1) 
InChI=1S/C28H30N4O2/c33-24(12-13-29-28(34)23-18-22-7-2-4-10-26(22)30-19-23)20-31-14-16-32(17-15-31)27-11-5-8-21-6-1-3-9-25(21)27/h1-11,18-19,24,33H,12-17,20H2,(H,29,34)

>  <IUPAC Name>  (1) 
N-[3-hydroxy-4-(4-naphthalen-1-ylpiperazin-1-yl)butyl]quinoline-3-carboxamide

$$$$
