
     RDKit          3D

 40 42  0  0  0  0  0  0  0  0999 V2000
   -0.8360    0.2679    1.1161 O   0  0  0  0  0  0  0  0  0  0  0  0
   -1.4456   -0.1319    0.0402 C   0  0  0  0  0  0  0  0  0  0  0  0
   -0.7229   -0.9984   -0.8457 C   0  0  0  0  0  0  0  0  0  0  0  0
   -1.3389   -1.8388   -1.7571 C   0  0  0  0  0  0  0  0  0  0  0  0
   -0.6650   -2.7349   -2.5604 C   0  0  0  0  0  0  0  0  0  0  0  0
    0.6988   -2.8412   -2.4914 C   0  0  0  0  0  0  0  0  0  0  0  0
    1.3473   -2.0229   -1.5973 C   0  0  0  0  0  0  0  0  0  0  0  0
    0.6664   -1.1100   -0.7802 C   0  0  0  0  0  0  0  0  0  0  0  0
    1.4887   -0.3109    0.0499 N   0  0  0  0  0  0  0  0  0  0  0  0
    2.9537   -0.5131    0.0599 C   0  0  0  0  0  0  0  0  0  0  0  0
    3.6478    0.3936    0.9743 C   0  0  0  0  0  0  0  0  0  0  0  0
    4.3723    0.0688    1.9743 N   0  0  0  0  0  0  0  0  0  0  0  0
    4.9075    1.2268    2.6631 C   0  0  0  0  0  0  0  0  0  0  0  0
    4.7763    2.3157    1.6175 C   0  0  0  0  0  0  0  0  0  0  0  0
    3.6124    1.8124    0.8755 N   0  0  0  0  0  0  0  0  0  0  0  0
   -2.7483    0.3836   -0.0568 N   0  0  0  0  0  0  0  0  0  0  0  0
   -3.2654    1.2399    1.0514 C   0  0  0  0  0  0  0  0  0  0  0  0
   -4.6985    0.7708    1.1662 C   0  0  0  0  0  0  0  0  0  0  0  0
   -5.0029   -0.0395   -0.0781 C   0  0  0  0  0  0  0  0  0  0  0  0
   -3.8380    0.3871   -0.9704 C   0  0  0  0  0  0  0  0  0  0  0  0
   -2.4189   -1.8592   -1.8765 H   0  0  0  0  0  0  0  0  0  0  0  0
   -1.1854   -3.3787   -3.2661 H   0  0  0  0  0  0  0  0  0  0  0  0
    1.2048   -3.5500   -3.1294 H   0  0  0  0  0  0  0  0  0  0  0  0
    2.4286   -2.1246   -1.5591 H   0  0  0  0  0  0  0  0  0  0  0  0
    1.1832    0.4477    0.6756 H   0  0  0  0  0  0  0  0  0  0  0  0
    3.2706   -0.3600   -1.0019 H   0  0  0  0  0  0  0  0  0  0  0  0
    3.1014   -1.5805    0.2821 H   0  0  0  0  0  0  0  0  0  0  0  0
    5.9814    1.0244    2.8592 H   0  0  0  0  0  0  0  0  0  0  0  0
    4.3498    1.4647    3.5868 H   0  0  0  0  0  0  0  0  0  0  0  0
    4.5714    3.3079    2.0479 H   0  0  0  0  0  0  0  0  0  0  0  0
    5.7003    2.2786    1.0029 H   0  0  0  0  0  0  0  0  0  0  0  0
    2.8908    2.3993    0.3676 H   0  0  0  0  0  0  0  0  0  0  0  0
   -2.7223    1.0642    1.9864 H   0  0  0  0  0  0  0  0  0  0  0  0
   -3.2660    2.2898    0.7714 H   0  0  0  0  0  0  0  0  0  0  0  0
   -5.4054    1.6360    1.2692 H   0  0  0  0  0  0  0  0  0  0  0  0
   -4.8152    0.1519    2.0748 H   0  0  0  0  0  0  0  0  0  0  0  0
   -5.9824    0.2261   -0.5037 H   0  0  0  0  0  0  0  0  0  0  0  0
   -4.9644   -1.0985    0.1710 H   0  0  0  0  0  0  0  0  0  0  0  0
   -4.0852    1.4935   -1.1897 H   0  0  0  0  0  0  0  0  0  0  0  0
   -3.7469   -0.1578   -1.8916 H   0  0  0  0  0  0  0  0  0  0  0  0
  1  2  2  0
  2  3  1  0
  3  4  2  0
  4  5  1  0
  5  6  2  0
  6  7  1  0
  7  8  2  0
  8  9  1  0
  9 10  1  0
 10 11  1  0
 11 12  2  0
 12 13  1  0
 13 14  1  0
 14 15  1  0
  2 16  1  0
 16 17  1  0
 17 18  1  0
 18 19  1  0
 19 20  1  0
  8  3  1  0
 15 11  1  0
 20 16  1  0
  4 21  1  0
  5 22  1  0
  6 23  1  0
  7 24  1  0
  9 25  1  0
 10 26  1  0
 10 27  1  0
 13 28  1  0
 13 29  1  0
 14 30  1  0
 14 31  1  0
 15 32  1  0
 17 33  1  0
 17 34  1  0
 18 35  1  0
 18 36  1  0
 19 37  1  0
 19 38  1  0
 20 39  1  0
 20 40  1  0
M  END
>  <Ligand ID>  (1) 
LIG0003080

>  <Ligand>  (1) 
CHEMBL95245

>  <SMILES>  (1) 
O=C(c1ccccc1NCC1=NCCN1)N1CCCC1

>  <CID>  (1) 
22493257.0

>  <ChEMBL ID>  (1) 
nan

>  <InChiKey>  (1) 
SMQKTFWONSPSLZ-UHFFFAOYSA-N

>  <InChi>  (1) 
InChI=1S/C15H20N4O/c20-15(19-9-3-4-10-19)12-5-1-2-6-13(12)18-11-14-16-7-8-17-14/h1-2,5-6,18H,3-4,7-11H2,(H,16,17)

>  <IUPAC Name>  (1) 
[2-(4,5-dihydro-1H-imidazol-2-ylmethylamino)phenyl]-pyrrolidin-1-ylmethanone

$$$$
