
     RDKit          3D

 73 80  0  0  0  0  0  0  0  0999 V2000
    1.1149    2.6137   -3.6504 O   0  0  0  0  0  0  0  0  0  0  0  0
    1.9473    1.8812   -2.8170 C   0  0  0  0  0  0  0  0  0  0  0  0
    3.1558    1.3385   -3.2689 C   0  0  0  0  0  0  0  0  0  0  0  0
    3.9744    0.6031   -2.4019 C   0  0  0  0  0  0  0  0  0  0  0  0
    3.5761    0.4172   -1.0881 C   0  0  0  0  0  0  0  0  0  0  0  0
    2.3985    0.9642   -0.7036 C   0  0  0  0  0  0  0  0  0  0  0  0
    1.5683    1.6862   -1.5096 C   0  0  0  0  0  0  0  0  0  0  0  0
    0.4876    2.0437   -0.7027 O   0  0  0  0  0  0  0  0  0  0  0  0
    0.3633    1.0442    0.3340 C   0  0  2  0  0  0  0  0  0  0  0  0
    1.8193    0.8753    0.6608 C   0  0  2  0  0  0  0  0  0  0  0  0
    2.3125    1.9975    1.5271 C   0  0  0  0  0  0  0  0  0  0  0  0
    3.7736    1.9366    1.7924 C   0  0  0  0  0  0  0  0  0  0  0  0
    4.2878    0.6289    2.0411 N   0  0  0  0  0  0  0  0  0  0  0  0
    3.7638   -0.4109    1.2402 C   0  0  0  0  0  0  0  0  0  0  0  0
    4.3895   -0.3546   -0.1263 C   0  0  0  0  0  0  0  0  0  0  0  0
    2.2367   -0.4345    1.2110 C   0  0  1  0  0  0  0  0  0  0  0  0
    1.8209   -0.6090    2.5237 O   0  0  0  0  0  0  0  0  0  0  0  0
    1.7826   -1.5706    0.3649 C   0  0  0  0  0  0  0  0  0  0  0  0
    0.4484   -1.3814   -0.2577 C   0  0  0  0  0  0  0  0  0  0  0  0
   -0.2130   -0.1581   -0.2690 C   0  0  0  0  0  0  0  0  0  0  0  0
   -1.3819   -0.3346   -0.9069 N   0  0  0  0  0  0  0  0  0  0  0  0
   -2.4464    0.6040   -1.1927 C   0  0  0  0  0  0  0  0  0  0  0  0
   -3.5141    0.6788   -0.1566 C   0  0  0  0  0  0  0  0  0  0  0  0
   -4.5331    1.7105   -0.6336 C   0  0  0  0  0  0  0  0  0  0  0  0
   -5.2452    2.3430    0.5456 C   0  0  0  0  0  0  0  0  0  0  0  0
   -5.4973    1.2397    1.5534 C   0  0  0  0  0  0  0  0  0  0  0  0
   -4.1722    0.9087    2.2010 C   0  0  0  0  0  0  0  0  0  0  0  0
   -3.0241    0.9708    1.2204 C   0  0  0  0  0  0  0  0  0  0  0  0
   -1.4683   -1.6405   -1.2958 C   0  0  0  0  0  0  0  0  0  0  0  0
   -0.3342   -2.3172   -0.9008 C   0  0  0  0  0  0  0  0  0  0  0  0
   -0.1132   -3.7642   -1.1715 C   0  0  0  0  0  0  0  0  0  0  0  0
   -1.2979   -4.4497   -1.7574 C   0  0  0  0  0  0  0  0  0  0  0  0
   -2.5839   -3.7622   -1.3869 C   0  0  0  0  0  0  0  0  0  0  0  0
   -2.5407   -2.3968   -2.0376 C   0  0  0  0  0  0  0  0  0  0  0  0
    4.6664    0.3225    3.3701 C   0  0  0  0  0  0  0  0  0  0  0  0
    0.7004    3.4509   -3.2606 H   0  0  0  0  0  0  0  0  0  0  0  0
    3.4625    1.4869   -4.2968 H   0  0  0  0  0  0  0  0  0  0  0  0
    4.9028    0.1893   -2.7597 H   0  0  0  0  0  0  0  0  0  0  0  0
   -0.1778    1.4018    1.2049 H   0  0  0  0  0  0  0  0  0  0  0  0
    2.1300    2.9358    0.9379 H   0  0  0  0  0  0  0  0  0  0  0  0
    1.7000    2.1028    2.4360 H   0  0  0  0  0  0  0  0  0  0  0  0
    4.3703    2.3870    0.9460 H   0  0  0  0  0  0  0  0  0  0  0  0
    4.0030    2.5592    2.6904 H   0  0  0  0  0  0  0  0  0  0  0  0
    4.0489   -1.3867    1.7193 H   0  0  0  0  0  0  0  0  0  0  0  0
    5.3525    0.1894   -0.0368 H   0  0  0  0  0  0  0  0  0  0  0  0
    4.6605   -1.3598   -0.5106 H   0  0  0  0  0  0  0  0  0  0  0  0
    2.2267    0.1061    3.0852 H   0  0  0  0  0  0  0  0  0  0  0  0
    2.5079   -1.8631   -0.4211 H   0  0  0  0  0  0  0  0  0  0  0  0
    1.6916   -2.4716    1.0269 H   0  0  0  0  0  0  0  0  0  0  0  0
   -2.9749    0.3111   -2.1485 H   0  0  0  0  0  0  0  0  0  0  0  0
   -2.0596    1.6194   -1.4156 H   0  0  0  0  0  0  0  0  0  0  0  0
   -4.1077   -0.2744   -0.0846 H   0  0  0  0  0  0  0  0  0  0  0  0
   -5.2918    1.2380   -1.2889 H   0  0  0  0  0  0  0  0  0  0  0  0
   -4.0399    2.5054   -1.1944 H   0  0  0  0  0  0  0  0  0  0  0  0
   -6.1924    2.7995    0.2370 H   0  0  0  0  0  0  0  0  0  0  0  0
   -4.5211    3.0565    1.0144 H   0  0  0  0  0  0  0  0  0  0  0  0
   -6.1674    1.6113    2.3650 H   0  0  0  0  0  0  0  0  0  0  0  0
   -5.9514    0.3863    1.0167 H   0  0  0  0  0  0  0  0  0  0  0  0
   -4.2766   -0.0675    2.6987 H   0  0  0  0  0  0  0  0  0  0  0  0
   -4.0044    1.6648    3.0021 H   0  0  0  0  0  0  0  0  0  0  0  0
   -2.3108    0.1686    1.4946 H   0  0  0  0  0  0  0  0  0  0  0  0
   -2.5106    1.9485    1.2837 H   0  0  0  0  0  0  0  0  0  0  0  0
    0.7900   -3.9129   -1.8325 H   0  0  0  0  0  0  0  0  0  0  0  0
    0.2205   -4.2085   -0.1890 H   0  0  0  0  0  0  0  0  0  0  0  0
   -1.2836   -5.5122   -1.3879 H   0  0  0  0  0  0  0  0  0  0  0  0
   -1.2086   -4.5517   -2.8787 H   0  0  0  0  0  0  0  0  0  0  0  0
   -2.5822   -3.6416   -0.2855 H   0  0  0  0  0  0  0  0  0  0  0  0
   -3.4195   -4.3826   -1.7196 H   0  0  0  0  0  0  0  0  0  0  0  0
   -3.5381   -1.9279   -1.9151 H   0  0  0  0  0  0  0  0  0  0  0  0
   -2.2215   -2.4992   -3.0850 H   0  0  0  0  0  0  0  0  0  0  0  0
    4.2844    1.0392    4.1361 H   0  0  0  0  0  0  0  0  0  0  0  0
    4.4761   -0.7399    3.6495 H   0  0  0  0  0  0  0  0  0  0  0  0
    5.7900    0.4178    3.4165 H   0  0  0  0  0  0  0  0  0  0  0  0
  1  2  1  0
  2  3  2  0
  3  4  1  0
  4  5  2  0
  5  6  1  0
  6  7  2  0
  7  8  1  0
  8  9  1  0
  9 10  1  0
 10 11  1  1
 11 12  1  0
 12 13  1  0
 13 14  1  0
 14 15  1  0
 14 16  1  0
 16 17  1  1
 16 18  1  0
 18 19  1  0
 19 20  2  0
 20 21  1  0
 21 22  1  0
 22 23  1  0
 23 24  1  0
 24 25  1  0
 25 26  1  0
 26 27  1  0
 27 28  1  0
 21 29  1  0
 29 30  2  0
 30 31  1  0
 31 32  1  0
 32 33  1  0
 33 34  1  0
 13 35  1  0
  7  2  1  0
 20  9  1  0
 28 23  1  0
 34 29  1  0
 15  5  1  0
 30 19  1  0
 10  6  1  0
 16 10  1  0
  1 36  1  0
  3 37  1  0
  4 38  1  0
  9 39  1  1
 11 40  1  0
 11 41  1  0
 12 42  1  0
 12 43  1  0
 14 44  1  0
 15 45  1  0
 15 46  1  0
 17 47  1  0
 18 48  1  0
 18 49  1  0
 22 50  1  0
 22 51  1  0
 23 52  1  0
 24 53  1  0
 24 54  1  0
 25 55  1  0
 25 56  1  0
 26 57  1  0
 26 58  1  0
 27 59  1  0
 27 60  1  0
 28 61  1  0
 28 62  1  0
 31 63  1  0
 31 64  1  0
 32 65  1  0
 32 66  1  0
 33 67  1  0
 33 68  1  0
 34 69  1  0
 34 70  1  0
 35 71  1  0
 35 72  1  0
 35 73  1  0
M  END
>  <Ligand ID>  (1) 
LIG0004613

>  <Ligand>  (1) 
CHEMBL222579

>  <SMILES>  (1) 
Oc1ccc2c3c1O[C@@H]1[C@@]43CCN(C(C2)[C@]4(O)Cc2c1n(CC1CCCCC1)c1c2CCCC1)C

>  <CID>  (1) 
44421412.0

>  <ChEMBL ID>  (1) 
nan

>  <InChiKey>  (1) 
XZRPKQLMWUXWPM-JYBLDVITSA-N

>  <InChi>  (1) 
InChI=1S/C30H38N2O3/c1-31-14-13-29-25-19-11-12-23(33)27(25)35-28(29)26-21(16-30(29,34)24(31)15-19)20-9-5-6-10-22(20)32(26)17-18-7-3-2-4-8-18/h11-12,18,24,28,33-34H,2-10,13-17H2,1H3/t24?,28-,29-,30+/m0/s1

>  <IUPAC Name>  (1) 
(1S,2S,13R)-11-(cyclohexylmethyl)-22-methyl-14-oxa-11,22-diazaheptacyclo[13.9.1.01,13.02,21.04,12.05,10.019,25]pentacosa-4(12),5(10),15,17,19(25)-pentaene-2,16-diol

$$$$
