
     RDKit          3D

 37 36  0  0  0  0  0  0  0  0999 V2000
   -4.9804    0.1213    1.3581 C   0  0  0  0  0  0  0  0  0  0  0  0
   -4.8831   -0.1829   -0.1029 C   0  0  0  0  0  0  0  0  0  0  0  0
   -3.4983    0.0145   -0.6883 C   0  0  0  0  0  0  0  0  0  0  0  0
   -2.5021   -0.8583   -0.0216 C   0  0  0  0  0  0  0  0  0  0  0  0
   -1.0976   -0.7775   -0.4886 C   0  0  0  0  0  0  0  0  0  0  0  0
   -0.3947    0.5036   -0.3974 C   0  0  0  0  0  0  0  0  0  0  0  0
    1.0462    0.4037   -0.9328 C   0  0  0  0  0  0  0  0  0  0  0  0
    1.8784   -0.5802   -0.1907 C   0  0  0  0  0  0  0  0  0  0  0  0
    3.2673   -0.6237   -0.7790 C   0  0  0  0  0  0  0  0  0  0  0  0
    3.9668    0.7018   -0.7233 C   0  0  0  0  0  0  0  0  0  0  0  0
    4.0783    1.1722    0.6949 C   0  0  0  0  0  0  0  0  0  0  0  0
    4.8666    0.2175    1.4888 C   0  0  0  0  0  0  0  0  0  0  0  0
    5.4142   -0.7842    1.0975 O   0  0  0  0  0  0  0  0  0  0  0  0
   -5.9184    0.7227    1.5188 H   0  0  0  0  0  0  0  0  0  0  0  0
   -5.1851   -0.8178    1.9519 H   0  0  0  0  0  0  0  0  0  0  0  0
   -4.0868    0.6050    1.7423 H   0  0  0  0  0  0  0  0  0  0  0  0
   -5.6350    0.3702   -0.7074 H   0  0  0  0  0  0  0  0  0  0  0  0
   -5.1420   -1.2562   -0.2586 H   0  0  0  0  0  0  0  0  0  0  0  0
   -3.6465   -0.1350   -1.7665 H   0  0  0  0  0  0  0  0  0  0  0  0
   -3.2366    1.0823   -0.5391 H   0  0  0  0  0  0  0  0  0  0  0  0
   -2.8388   -1.9092   -0.1609 H   0  0  0  0  0  0  0  0  0  0  0  0
   -2.5881   -0.6723    1.0723 H   0  0  0  0  0  0  0  0  0  0  0  0
   -1.0217   -1.1552   -1.5316 H   0  0  0  0  0  0  0  0  0  0  0  0
   -0.5216   -1.5272    0.1086 H   0  0  0  0  0  0  0  0  0  0  0  0
   -0.2750    0.8297    0.6718 H   0  0  0  0  0  0  0  0  0  0  0  0
   -0.8017    1.3606   -0.9222 H   0  0  0  0  0  0  0  0  0  0  0  0
    1.4891    1.4037   -0.9952 H   0  0  0  0  0  0  0  0  0  0  0  0
    0.9081    0.0567   -1.9849 H   0  0  0  0  0  0  0  0  0  0  0  0
    1.9138   -0.3210    0.8863 H   0  0  0  0  0  0  0  0  0  0  0  0
    1.4597   -1.6185   -0.2442 H   0  0  0  0  0  0  0  0  0  0  0  0
    3.1028   -0.8857   -1.8854 H   0  0  0  0  0  0  0  0  0  0  0  0
    3.8574   -1.4670   -0.3763 H   0  0  0  0  0  0  0  0  0  0  0  0
    3.4363    1.4828   -1.3293 H   0  0  0  0  0  0  0  0  0  0  0  0
    4.9854    0.6101   -1.1951 H   0  0  0  0  0  0  0  0  0  0  0  0
    4.5716    2.1876    0.6722 H   0  0  0  0  0  0  0  0  0  0  0  0
    3.0342    1.2952    1.1063 H   0  0  0  0  0  0  0  0  0  0  0  0
    4.9773    0.4310    2.5668 H   0  0  0  0  0  0  0  0  0  0  0  0
  1  2  1  0
  2  3  1  0
  3  4  1  0
  4  5  1  0
  5  6  1  0
  6  7  1  0
  7  8  1  0
  8  9  1  0
  9 10  1  0
 10 11  1  0
 11 12  1  0
 12 13  2  0
  1 14  1  0
  1 15  1  0
  1 16  1  0
  2 17  1  0
  2 18  1  0
  3 19  1  0
  3 20  1  0
  4 21  1  0
  4 22  1  0
  5 23  1  0
  5 24  1  0
  6 25  1  0
  6 26  1  0
  7 27  1  0
  7 28  1  0
  8 29  1  0
  8 30  1  0
  9 31  1  0
  9 32  1  0
 10 33  1  0
 10 34  1  0
 11 35  1  0
 11 36  1  0
 12 37  1  0
M  END
>  <Ligand ID>  (1) 
LIG0000379

>  <Ligand>  (1) 
dodecanal

>  <SMILES>  (1) 
CCCCCCCCCCCC=O

>  <CID>  (1) 
8194.0

>  <ChEMBL ID>  (1) 
nan

>  <InChiKey>  (1) 
HFJRKMMYBMWEAD-UHFFFAOYSA-N

>  <InChi>  (1) 
InChI=1S/C12H24O/c1-2-3-4-5-6-7-8-9-10-11-12-13/h12H,2-11H2,1H3

>  <IUPAC Name>  (1) 
dodecanal

$$$$
