
     RDKit          3D

 63 66  0  0  0  0  0  0  0  0999 V2000
   -1.0735   -2.8927    1.0672 C   0  0  0  0  0  0  0  0  0  0  0  0
   -1.0225   -2.0440   -0.2031 C   0  0  2  0  0  0  0  0  0  0  0  0
   -2.2233   -2.3610   -1.0737 C   0  0  0  0  0  0  0  0  0  0  0  0
   -3.4841   -2.0561   -0.3371 C   0  0  0  0  0  0  0  0  0  0  0  0
   -4.3796   -2.8919    0.2805 C   0  0  0  0  0  0  0  0  0  0  0  0
   -5.3375   -2.1246    0.7983 N   0  0  0  0  0  0  0  0  0  0  0  0
   -5.1357   -0.8250    0.5635 C   0  0  0  0  0  0  0  0  0  0  0  0
   -3.9560   -0.7604   -0.1609 C   0  0  0  0  0  0  0  0  0  0  0  0
   -3.4888    0.4813   -0.5529 C   0  0  0  0  0  0  0  0  0  0  0  0
   -4.1516    1.6480   -0.2502 C   0  0  0  0  0  0  0  0  0  0  0  0
   -5.3220    1.5342    0.4728 C   0  0  0  0  0  0  0  0  0  0  0  0
   -5.8411    0.3296    0.8937 C   0  0  0  0  0  0  0  0  0  0  0  0
   -6.9944    0.1772    1.6088 O   0  0  0  0  0  0  0  0  0  0  0  0
   -7.7815    1.2594    2.0079 C   0  0  0  0  0  0  0  0  0  0  0  0
   -7.1118    2.2134    2.9145 C   0  0  0  0  0  0  0  0  0  0  0  0
   -5.9235    2.0398    3.3532 O   0  0  0  0  0  0  0  0  0  0  0  0
   -7.8517    3.3478    3.2842 O   0  0  0  0  0  0  0  0  0  0  0  0
    0.1858   -2.3124   -0.9028 N   0  0  0  0  0  0  0  0  0  0  0  0
    0.4224   -1.5562   -2.0901 C   0  0  0  0  0  0  0  0  0  0  0  0
    0.6672   -0.0903   -1.8165 C   0  0  1  0  0  0  0  0  0  0  0  0
    1.8458    0.1117   -0.9008 C   0  0  0  0  0  0  0  0  0  0  0  0
    1.6905    0.3761    0.4414 C   0  0  0  0  0  0  0  0  0  0  0  0
    2.8231    0.5515    1.2038 C   0  0  0  0  0  0  0  0  0  0  0  0
    4.0696    0.4583    0.6052 C   0  0  0  0  0  0  0  0  0  0  0  0
    4.2681    0.1999   -0.7171 C   0  0  0  0  0  0  0  0  0  0  0  0
    3.0933    0.0228   -1.4800 C   0  0  0  0  0  0  0  0  0  0  0  0
    5.4703    0.0679   -1.4098 N   0  0  0  0  0  0  0  0  0  0  0  0
    6.7998    1.0947   -1.5004 S   0  0  0  0  0  0  0  0  0  0  0  0
    6.3033    2.4420   -2.0648 O   0  0  0  0  0  0  0  0  0  0  0  0
    7.7383    0.6015   -2.6047 O   0  0  0  0  0  0  0  0  0  0  0  0
    7.6748    1.4689   -0.0896 C   0  0  0  0  0  0  0  0  0  0  0  0
    8.9606    1.1486    0.1946 C   0  0  0  0  0  0  0  0  0  0  0  0
    9.5023    1.5193    1.3503 C   0  0  0  0  0  0  0  0  0  0  0  0
    8.6960    2.2339    2.2252 C   0  0  0  0  0  0  0  0  0  0  0  0
    7.1288    2.3762    1.3707 S   0  0  0  0  0  0  0  0  0  0  0  0
    0.8768    0.5958   -3.0086 O   0  0  0  0  0  0  0  0  0  0  0  0
   -2.1305   -3.1532    1.2984 H   0  0  0  0  0  0  0  0  0  0  0  0
   -0.6862   -2.3038    1.9162 H   0  0  0  0  0  0  0  0  0  0  0  0
   -0.4601   -3.8273    0.9629 H   0  0  0  0  0  0  0  0  0  0  0  0
   -1.0319   -0.9897    0.1260 H   0  0  0  0  0  0  0  0  0  0  0  0
   -2.1484   -3.4209   -1.3312 H   0  0  0  0  0  0  0  0  0  0  0  0
   -2.1741   -1.7222   -1.9699 H   0  0  0  0  0  0  0  0  0  0  0  0
   -4.2593   -3.9726    0.2997 H   0  0  0  0  0  0  0  0  0  0  0  0
   -6.1796   -2.4815    1.3422 H   0  0  0  0  0  0  0  0  0  0  0  0
   -2.5795    0.5664   -1.1162 H   0  0  0  0  0  0  0  0  0  0  0  0
   -3.7680    2.6166   -0.5679 H   0  0  0  0  0  0  0  0  0  0  0  0
   -5.8372    2.4560    0.6953 H   0  0  0  0  0  0  0  0  0  0  0  0
   -8.1073    1.8331    1.1048 H   0  0  0  0  0  0  0  0  0  0  0  0
   -8.7044    0.8935    2.5240 H   0  0  0  0  0  0  0  0  0  0  0  0
   -7.3161    4.1041    3.7127 H   0  0  0  0  0  0  0  0  0  0  0  0
    1.0385   -2.3748   -0.3058 H   0  0  0  0  0  0  0  0  0  0  0  0
    1.3813   -1.9283   -2.5458 H   0  0  0  0  0  0  0  0  0  0  0  0
   -0.3680   -1.6806   -2.8223 H   0  0  0  0  0  0  0  0  0  0  0  0
   -0.2144    0.3235   -1.3309 H   0  0  0  0  0  0  0  0  0  0  0  0
    0.7188    0.4456    0.8842 H   0  0  0  0  0  0  0  0  0  0  0  0
    2.7071    0.7598    2.2617 H   0  0  0  0  0  0  0  0  0  0  0  0
    4.9176    0.5834    1.2447 H   0  0  0  0  0  0  0  0  0  0  0  0
    3.1744   -0.1901   -2.5570 H   0  0  0  0  0  0  0  0  0  0  0  0
    5.5407   -0.8583   -1.9769 H   0  0  0  0  0  0  0  0  0  0  0  0
    9.5612    0.5645   -0.5631 H   0  0  0  0  0  0  0  0  0  0  0  0
   10.5450    1.2958    1.6531 H   0  0  0  0  0  0  0  0  0  0  0  0
    8.9269    2.6430    3.2327 H   0  0  0  0  0  0  0  0  0  0  0  0
    0.3154    1.4326   -3.0212 H   0  0  0  0  0  0  0  0  0  0  0  0
  1  2  1  0
  2  3  1  0
  3  4  1  0
  4  5  2  0
  5  6  1  0
  6  7  1  0
  7  8  2  0
  8  9  1  0
  9 10  2  0
 10 11  1  0
 11 12  2  0
 12 13  1  0
 13 14  1  0
 14 15  1  0
 15 16  2  0
 15 17  1  0
  2 18  1  0
 18 19  1  0
 19 20  1  0
 20 21  1  0
 21 22  2  0
 22 23  1  0
 23 24  2  0
 24 25  1  0
 25 26  2  0
 25 27  1  0
 27 28  1  0
 28 29  2  0
 28 30  2  0
 28 31  1  0
 31 32  2  0
 32 33  1  0
 33 34  2  0
 34 35  1  0
 20 36  1  0
  8  4  1  0
 26 21  1  0
 35 31  1  0
 12  7  1  0
  1 37  1  0
  1 38  1  0
  1 39  1  0
  2 40  1  1
  3 41  1  0
  3 42  1  0
  5 43  1  0
  6 44  1  0
  9 45  1  0
 10 46  1  0
 11 47  1  0
 14 48  1  0
 14 49  1  0
 17 50  1  0
 18 51  1  0
 19 52  1  0
 19 53  1  0
 20 54  1  1
 22 55  1  0
 23 56  1  0
 24 57  1  0
 26 58  1  0
 27 59  1  0
 32 60  1  0
 33 61  1  0
 34 62  1  0
 36 63  1  0
M  END
>  <Ligand ID>  (1) 
LIG0002214

>  <Ligand>  (1) 
CHEMBL188196

>  <SMILES>  (1) 
C[C@H](Cc1c[nH]c2c1cccc2OCC(=O)O)NC[C@@H](c1cccc(c1)NS(=O)(=O)c1cccs1)O

>  <CID>  (1) 
44396568.0

>  <ChEMBL ID>  (1) 
nan

>  <InChiKey>  (1) 
WATLMDUSELNTHD-IERDGZPVSA-N

>  <InChi>  (1) 
InChI=1S/C25H27N3O6S2/c1-16(11-18-13-27-25-20(18)7-3-8-22(25)34-15-23(30)31)26-14-21(29)17-5-2-6-19(12-17)28-36(32,33)24-9-4-10-35-24/h2-10,12-13,16,21,26-29H,11,14-15H2,1H3,(H,30,31)/t16-,21+/m1/s1

>  <IUPAC Name>  (1) 
2-[[3-[(2R)-2-[[(2R)-2-hydroxy-2-[3-(thiophen-2-ylsulfonylamino)phenyl]ethyl]amino]propyl]-1H-indol-7-yl]oxy]acetic acid

$$$$
