
     RDKit          3D

 29 28  0  0  0  0  0  0  0  0999 V2000
   -4.1129   -0.0868   -2.0891 O   0  0  0  0  0  0  0  0  0  0  0  0
   -3.9210    0.5286   -1.0330 C   0  0  0  0  0  0  0  0  0  0  0  0
   -2.5362    0.7923   -0.5553 C   0  0  0  0  0  0  0  0  0  0  0  0
   -1.9034   -0.3885    0.1279 C   0  0  0  0  0  0  0  0  0  0  0  0
   -0.5207   -0.0023    0.5654 C   0  0  0  0  0  0  0  0  0  0  0  0
    0.3998    0.4102   -0.5418 C   0  0  0  0  0  0  0  0  0  0  0  0
    1.7029    0.7403    0.1469 C   0  0  0  0  0  0  0  0  0  0  0  0
    2.8255    0.0935   -0.1394 C   0  0  0  0  0  0  0  0  0  0  0  0
    4.1233    0.4221    0.5464 C   0  0  0  0  0  0  0  0  0  0  0  0
    2.8047   -0.9927   -1.1723 C   0  0  0  0  0  0  0  0  0  0  0  0
   -2.6765   -0.8169    1.3517 C   0  0  0  0  0  0  0  0  0  0  0  0
   -4.7720    0.8910   -0.4322 H   0  0  0  0  0  0  0  0  0  0  0  0
   -1.9373    1.0073   -1.4741 H   0  0  0  0  0  0  0  0  0  0  0  0
   -2.4807    1.6743    0.1012 H   0  0  0  0  0  0  0  0  0  0  0  0
   -1.7645   -1.2478   -0.5926 H   0  0  0  0  0  0  0  0  0  0  0  0
   -0.5804    0.8048    1.3490 H   0  0  0  0  0  0  0  0  0  0  0  0
   -0.0021   -0.8523    1.0923 H   0  0  0  0  0  0  0  0  0  0  0  0
    0.5468   -0.4925   -1.1830 H   0  0  0  0  0  0  0  0  0  0  0  0
    0.0533    1.2510   -1.1604 H   0  0  0  0  0  0  0  0  0  0  0  0
    1.7220    1.5244    0.8957 H   0  0  0  0  0  0  0  0  0  0  0  0
    4.8790   -0.3424    0.3772 H   0  0  0  0  0  0  0  0  0  0  0  0
    4.3891    1.4389    0.2236 H   0  0  0  0  0  0  0  0  0  0  0  0
    3.9419    0.4454    1.6594 H   0  0  0  0  0  0  0  0  0  0  0  0
    2.3669   -0.5541   -2.0925 H   0  0  0  0  0  0  0  0  0  0  0  0
    2.1921   -1.8787   -0.8470 H   0  0  0  0  0  0  0  0  0  0  0  0
    3.8218   -1.4048   -1.3391 H   0  0  0  0  0  0  0  0  0  0  0  0
   -3.7165   -0.4284    1.3858 H   0  0  0  0  0  0  0  0  0  0  0  0
   -2.7203   -1.9437    1.3177 H   0  0  0  0  0  0  0  0  0  0  0  0
   -2.1248   -0.5921    2.3106 H   0  0  0  0  0  0  0  0  0  0  0  0
  1  2  2  0
  2  3  1  0
  3  4  1  0
  4  5  1  0
  5  6  1  0
  6  7  1  0
  7  8  2  3
  8  9  1  0
  8 10  1  0
  4 11  1  0
  2 12  1  0
  3 13  1  0
  3 14  1  0
  4 15  1  0
  5 16  1  0
  5 17  1  0
  6 18  1  0
  6 19  1  0
  7 20  1  0
  9 21  1  0
  9 22  1  0
  9 23  1  0
 10 24  1  0
 10 25  1  0
 10 26  1  0
 11 27  1  0
 11 28  1  0
 11 29  1  0
M  END
>  <Ligand ID>  (1) 
LIG0000242

>  <Ligand>  (1) 
Citronellal

>  <SMILES>  (1) 
O=CCC(CCC=C(C)C)C

>  <CID>  (1) 
7794.0

>  <ChEMBL ID>  (1) 
nan

>  <InChiKey>  (1) 
NEHNMFOYXAPHSD-UHFFFAOYSA-N

>  <InChi>  (1) 
InChI=1S/C10H18O/c1-9(2)5-4-6-10(3)7-8-11/h5,8,10H,4,6-7H2,1-3H3

>  <IUPAC Name>  (1) 
3,7-dimethyloct-6-enal

$$$$
