
     RDKit          3D

 28 27  0  0  0  0  0  0  0  0999 V2000
   -3.0537   -1.3899   -0.1749 C   0  0  0  0  0  0  0  0  0  0  0  0
   -3.1452   -0.0806   -0.8703 C   0  0  0  0  0  0  0  0  0  0  0  0
   -2.3825    1.0524   -0.3197 C   0  0  0  0  0  0  0  0  0  0  0  0
   -0.9080    0.9993   -0.2512 C   0  0  0  0  0  0  0  0  0  0  0  0
   -0.3099   -0.1068    0.5725 C   0  0  0  0  0  0  0  0  0  0  0  0
    1.2223   -0.0515    0.6117 C   0  0  0  0  0  0  0  0  0  0  0  0
    1.8149   -0.2061   -0.7218 C   0  0  0  0  0  0  0  0  0  0  0  0
    1.2013   -0.4114   -1.7548 O   0  0  0  0  0  0  0  0  0  0  0  0
    3.2972   -0.1066   -0.8470 C   0  0  0  0  0  0  0  0  0  0  0  0
    3.9343    0.1393    0.4816 C   0  0  0  0  0  0  0  0  0  0  0  0
   -4.1072   -1.8175   -0.0895 H   0  0  0  0  0  0  0  0  0  0  0  0
   -2.4388   -2.1629   -0.6862 H   0  0  0  0  0  0  0  0  0  0  0  0
   -2.7445   -1.2778    0.8821 H   0  0  0  0  0  0  0  0  0  0  0  0
   -2.9818   -0.2114   -1.9795 H   0  0  0  0  0  0  0  0  0  0  0  0
   -4.2369    0.2385   -0.8393 H   0  0  0  0  0  0  0  0  0  0  0  0
   -2.6377    1.9863   -0.9041 H   0  0  0  0  0  0  0  0  0  0  0  0
   -2.8184    1.2810    0.6974 H   0  0  0  0  0  0  0  0  0  0  0  0
   -0.4222    1.0895   -1.2665 H   0  0  0  0  0  0  0  0  0  0  0  0
   -0.5226    1.9485    0.2582 H   0  0  0  0  0  0  0  0  0  0  0  0
   -0.5370   -1.1070    0.1326 H   0  0  0  0  0  0  0  0  0  0  0  0
   -0.6509   -0.0680    1.6052 H   0  0  0  0  0  0  0  0  0  0  0  0
    1.5384    0.9155    1.0656 H   0  0  0  0  0  0  0  0  0  0  0  0
    1.5120   -0.8724    1.3106 H   0  0  0  0  0  0  0  0  0  0  0  0
    3.4833    0.7071   -1.5774 H   0  0  0  0  0  0  0  0  0  0  0  0
    3.6959   -1.0465   -1.2962 H   0  0  0  0  0  0  0  0  0  0  0  0
    3.5304   -0.5945    1.2213 H   0  0  0  0  0  0  0  0  0  0  0  0
    3.6320    1.1270    0.8447 H   0  0  0  0  0  0  0  0  0  0  0  0
    5.0352    0.0263    0.4531 H   0  0  0  0  0  0  0  0  0  0  0  0
  1  2  1  0
  2  3  1  0
  3  4  1  0
  4  5  1  0
  5  6  1  0
  6  7  1  0
  7  8  2  0
  7  9  1  0
  9 10  1  0
  1 11  1  0
  1 12  1  0
  1 13  1  0
  2 14  1  0
  2 15  1  0
  3 16  1  0
  3 17  1  0
  4 18  1  0
  4 19  1  0
  5 20  1  0
  5 21  1  0
  6 22  1  0
  6 23  1  0
  9 24  1  0
  9 25  1  0
 10 26  1  0
 10 27  1  0
 10 28  1  0
M  END
>  <Ligand ID>  (1) 
LIG0000348

>  <Ligand>  (1) 
3-Nonanone

>  <SMILES>  (1) 
CCCCCCC(=O)CC

>  <CID>  (1) 
61235.0

>  <ChEMBL ID>  (1) 
nan

>  <InChiKey>  (1) 
IYTXKIXETAELAV-UHFFFAOYSA-N

>  <InChi>  (1) 
InChI=1S/C9H18O/c1-3-5-6-7-8-9(10)4-2/h3-8H2,1-2H3

>  <IUPAC Name>  (1) 
nonan-3-one

$$$$
