
     RDKit          3D

 55 57  0  0  0  0  0  0  0  0999 V2000
   -4.7835    3.7846    2.5704 C   0  0  0  0  0  0  0  0  0  0  0  0
   -5.4172    2.5944    1.8786 C   0  0  0  0  0  0  0  0  0  0  0  0
   -4.4184    1.6464    1.6402 O   0  0  0  0  0  0  0  0  0  0  0  0
   -4.6913    0.4277    1.0105 C   0  0  0  0  0  0  0  0  0  0  0  0
   -5.8558    0.1279    0.6281 O   0  0  0  0  0  0  0  0  0  0  0  0
   -3.6336   -0.5036    0.7917 N   0  0  0  0  0  0  0  0  0  0  0  0
   -3.9046   -1.7640    0.1433 C   0  0  0  0  0  0  0  0  0  0  0  0
   -2.7167   -2.3435   -0.5566 C   0  0  0  0  0  0  0  0  0  0  0  0
   -1.4387   -2.2785    0.2315 C   0  0  0  0  0  0  0  0  0  0  0  0
   -1.6030   -1.4967    1.4972 C   0  0  0  0  0  0  0  0  0  0  0  0
   -2.2810   -0.1678    1.2285 C   0  0  0  0  0  0  0  0  0  0  0  0
   -0.4366   -1.8613   -0.6433 N   0  0  0  0  0  0  0  0  0  0  0  0
   -0.2009   -2.6869   -1.7567 C   0  0  0  0  0  0  0  0  0  0  0  0
    1.1354   -3.3651   -1.6366 C   0  0  0  0  0  0  0  0  0  0  0  0
    2.1714   -2.2612   -1.6969 C   0  0  0  0  0  0  0  0  0  0  0  0
    1.9672   -1.2685   -0.5967 C   0  0  2  0  0  0  0  0  0  0  0  0
    0.5186   -0.9059   -0.3496 C   0  0  0  0  0  0  0  0  0  0  0  0
    2.7603   -0.0756   -0.8395 N   0  0  0  0  0  0  0  0  0  0  0  0
    3.8105    0.2823    0.0430 C   0  0  0  0  0  0  0  0  0  0  0  0
    4.0448   -0.4481    1.0381 O   0  0  0  0  0  0  0  0  0  0  0  0
    4.6430    1.4632   -0.1417 C   0  0  0  0  0  0  0  0  0  0  0  0
    5.6385    1.6966    0.7884 C   0  0  0  0  0  0  0  0  0  0  0  0
    6.4683    2.8158    0.6621 C   0  0  0  0  0  0  0  0  0  0  0  0
    6.2807    3.6771   -0.3955 C   0  0  0  0  0  0  0  0  0  0  0  0
    5.2885    3.4689   -1.3464 C   0  0  0  0  0  0  0  0  0  0  0  0
    4.4776    2.3424   -1.1911 C   0  0  0  0  0  0  0  0  0  0  0  0
   -4.6301    4.6156    1.8510 H   0  0  0  0  0  0  0  0  0  0  0  0
   -5.4184    4.1167    3.4189 H   0  0  0  0  0  0  0  0  0  0  0  0
   -3.8043    3.4880    3.0064 H   0  0  0  0  0  0  0  0  0  0  0  0
   -6.2645    2.1929    2.4688 H   0  0  0  0  0  0  0  0  0  0  0  0
   -5.7736    2.9378    0.8699 H   0  0  0  0  0  0  0  0  0  0  0  0
   -4.3668   -2.4824    0.8552 H   0  0  0  0  0  0  0  0  0  0  0  0
   -4.6862   -1.5654   -0.6297 H   0  0  0  0  0  0  0  0  0  0  0  0
   -2.6445   -1.8294   -1.5459 H   0  0  0  0  0  0  0  0  0  0  0  0
   -2.9815   -3.3918   -0.8235 H   0  0  0  0  0  0  0  0  0  0  0  0
   -1.2022   -3.3228    0.5594 H   0  0  0  0  0  0  0  0  0  0  0  0
   -2.3441   -2.0676    2.1247 H   0  0  0  0  0  0  0  0  0  0  0  0
   -0.7046   -1.4439    2.0977 H   0  0  0  0  0  0  0  0  0  0  0  0
   -1.7936    0.4048    0.4128 H   0  0  0  0  0  0  0  0  0  0  0  0
   -2.3919    0.4048    2.1545 H   0  0  0  0  0  0  0  0  0  0  0  0
   -0.9947   -3.4778   -1.8425 H   0  0  0  0  0  0  0  0  0  0  0  0
   -0.1791   -2.0650   -2.6724 H   0  0  0  0  0  0  0  0  0  0  0  0
    1.2524   -3.9720   -0.7325 H   0  0  0  0  0  0  0  0  0  0  0  0
    1.3004   -4.0159   -2.5215 H   0  0  0  0  0  0  0  0  0  0  0  0
    2.1195   -1.8423   -2.7079 H   0  0  0  0  0  0  0  0  0  0  0  0
    3.1631   -2.7328   -1.5739 H   0  0  0  0  0  0  0  0  0  0  0  0
    2.3572   -1.7313    0.3379 H   0  0  0  0  0  0  0  0  0  0  0  0
    0.4397   -0.4383    0.6448 H   0  0  0  0  0  0  0  0  0  0  0  0
    0.3429   -0.0395   -1.0574 H   0  0  0  0  0  0  0  0  0  0  0  0
    2.5541    0.5230   -1.6711 H   0  0  0  0  0  0  0  0  0  0  0  0
    5.8155    1.0314    1.6407 H   0  0  0  0  0  0  0  0  0  0  0  0
    7.2346    2.9545    1.4192 H   0  0  0  0  0  0  0  0  0  0  0  0
    6.9330    4.5351   -0.4738 H   0  0  0  0  0  0  0  0  0  0  0  0
    5.1262    4.1336   -2.1826 H   0  0  0  0  0  0  0  0  0  0  0  0
    3.7179    2.1795   -1.9158 H   0  0  0  0  0  0  0  0  0  0  0  0
  1  2  1  0
  2  3  1  0
  3  4  1  0
  4  5  2  0
  4  6  1  0
  6  7  1  0
  7  8  1  0
  8  9  1  0
  9 10  1  0
 10 11  1  0
  9 12  1  0
 12 13  1  0
 13 14  1  0
 14 15  1  0
 15 16  1  0
 16 17  1  0
 16 18  1  0
 18 19  1  0
 19 20  2  0
 19 21  1  0
 21 22  2  0
 22 23  1  0
 23 24  2  0
 24 25  1  0
 25 26  2  0
 11  6  1  0
 17 12  1  0
 26 21  1  0
  1 27  1  0
  1 28  1  0
  1 29  1  0
  2 30  1  0
  2 31  1  0
  7 32  1  0
  7 33  1  0
  8 34  1  0
  8 35  1  0
  9 36  1  0
 10 37  1  0
 10 38  1  0
 11 39  1  0
 11 40  1  0
 13 41  1  0
 13 42  1  0
 14 43  1  0
 14 44  1  0
 15 45  1  0
 15 46  1  0
 16 47  1  1
 17 48  1  0
 17 49  1  0
 18 50  1  0
 22 51  1  0
 23 52  1  0
 24 53  1  0
 25 54  1  0
 26 55  1  0
M  END
>  <Ligand ID>  (1) 
LIG0001945

>  <Ligand>  (1) 
CHEMBL1916226

>  <SMILES>  (1) 
CCOC(=O)N1CCC(CC1)N1CCC[C@H](C1)NC(=O)c1ccccc1

>  <CID>  (1) 
46872059.0

>  <ChEMBL ID>  (1) 
nan

>  <InChiKey>  (1) 
QSCSYOXKKXOUTB-QGZVFWFLSA-N

>  <InChi>  (1) 
InChI=1S/C20H29N3O3/c1-2-26-20(25)22-13-10-18(11-14-22)23-12-6-9-17(15-23)21-19(24)16-7-4-3-5-8-16/h3-5,7-8,17-18H,2,6,9-15H2,1H3,(H,21,24)/t17-/m1/s1

>  <IUPAC Name>  (1) 
ethyl 4-[(3R)-3-benzamidopiperidin-1-yl]piperidine-1-carboxylate

$$$$
