
     RDKit          3D

 48 50  0  0  0  0  0  0  0  0999 V2000
    9.3864    1.3200    0.3024 C   0  0  0  0  0  0  0  0  0  0  0  0
    7.9350    1.0747    0.6310 C   0  0  0  0  0  0  0  0  0  0  0  0
    7.3880    1.8264    1.4522 O   0  0  0  0  0  0  0  0  0  0  0  0
    7.2542    0.0073    0.0002 N   0  0  0  0  0  0  0  0  0  0  0  0
    5.9075   -0.3482    0.1945 C   0  0  0  0  0  0  0  0  0  0  0  0
    5.4393   -1.4368   -0.5472 C   0  0  0  0  0  0  0  0  0  0  0  0
    4.1391   -1.8696   -0.4482 C   0  0  0  0  0  0  0  0  0  0  0  0
    3.2625   -1.2263    0.3978 C   0  0  0  0  0  0  0  0  0  0  0  0
    3.6820   -0.1524    1.1450 C   0  0  0  0  0  0  0  0  0  0  0  0
    5.0090    0.2526    1.0135 C   0  0  0  0  0  0  0  0  0  0  0  0
    1.5594   -1.8344    0.4652 S   0  0  0  0  0  0  0  0  0  0  0  0
    0.6859   -0.9600   -0.8585 C   0  0  0  0  0  0  0  0  0  0  0  0
   -0.7247   -1.2905   -0.9935 C   0  0  0  0  0  0  0  0  0  0  0  0
   -1.0731   -2.3374   -1.5816 O   0  0  0  0  0  0  0  0  0  0  0  0
   -1.7630   -0.4321   -0.4657 C   0  0  0  0  0  0  0  0  0  0  0  0
   -1.5794    0.7679    0.2202 C   0  0  0  0  0  0  0  0  0  0  0  0
   -2.8341    1.2926    0.5474 C   0  0  0  0  0  0  0  0  0  0  0  0
   -3.7637    0.4317    0.0711 N   0  0  0  0  0  0  0  0  0  0  0  0
   -3.1461   -0.5964   -0.5317 C   0  0  0  0  0  0  0  0  0  0  0  0
   -3.7827   -1.7650   -1.1831 C   0  0  0  0  0  0  0  0  0  0  0  0
   -5.1686    0.5615    0.1513 C   0  0  0  0  0  0  0  0  0  0  0  0
   -5.9570    2.2348    0.0634 S   0  0  0  0  0  0  0  0  0  0  0  0
   -7.6480    1.4898    0.2196 C   0  0  0  0  0  0  0  0  0  0  0  0
   -7.3984    0.1231    0.3137 C   0  0  0  0  0  0  0  0  0  0  0  0
   -6.1380   -0.2058    0.2677 N   0  0  0  0  0  0  0  0  0  0  0  0
   -8.5236   -0.8654    0.4488 C   0  0  0  0  0  0  0  0  0  0  0  0
   -3.0335    2.5480    1.2742 C   0  0  0  0  0  0  0  0  0  0  0  0
    9.9462    0.4043    0.6286 H   0  0  0  0  0  0  0  0  0  0  0  0
    9.7814    2.2138    0.7763 H   0  0  0  0  0  0  0  0  0  0  0  0
    9.5005    1.3680   -0.8062 H   0  0  0  0  0  0  0  0  0  0  0  0
    7.8514   -0.5583   -0.6803 H   0  0  0  0  0  0  0  0  0  0  0  0
    6.1023   -1.9778   -1.2371 H   0  0  0  0  0  0  0  0  0  0  0  0
    3.8393   -2.7112   -1.0448 H   0  0  0  0  0  0  0  0  0  0  0  0
    2.9810    0.3286    1.7969 H   0  0  0  0  0  0  0  0  0  0  0  0
    5.3008    1.0834    1.6093 H   0  0  0  0  0  0  0  0  0  0  0  0
    1.2269   -1.2008   -1.8051 H   0  0  0  0  0  0  0  0  0  0  0  0
    0.8792    0.1297   -0.7086 H   0  0  0  0  0  0  0  0  0  0  0  0
   -0.6263    1.2456    0.4762 H   0  0  0  0  0  0  0  0  0  0  0  0
   -3.7502   -2.6782   -0.5653 H   0  0  0  0  0  0  0  0  0  0  0  0
   -3.3188   -1.9883   -2.1779 H   0  0  0  0  0  0  0  0  0  0  0  0
   -4.8630   -1.5972   -1.4036 H   0  0  0  0  0  0  0  0  0  0  0  0
   -8.5701    2.0983    0.2233 H   0  0  0  0  0  0  0  0  0  0  0  0
   -9.4532   -0.4430    0.0631 H   0  0  0  0  0  0  0  0  0  0  0  0
   -8.2720   -1.8042   -0.1218 H   0  0  0  0  0  0  0  0  0  0  0  0
   -8.5367   -1.1630    1.5156 H   0  0  0  0  0  0  0  0  0  0  0  0
   -4.0268    2.6288    1.7187 H   0  0  0  0  0  0  0  0  0  0  0  0
   -2.3018    2.6207    2.1233 H   0  0  0  0  0  0  0  0  0  0  0  0
   -2.8047    3.3906    0.5750 H   0  0  0  0  0  0  0  0  0  0  0  0
  1  2  1  0
  2  3  2  0
  2  4  1  0
  4  5  1  0
  5  6  2  0
  6  7  1  0
  7  8  2  0
  8  9  1  0
  9 10  2  0
  8 11  1  0
 11 12  1  0
 12 13  1  0
 13 14  2  0
 13 15  1  0
 15 16  1  0
 16 17  2  0
 17 18  1  0
 18 19  1  0
 19 20  1  0
 18 21  1  0
 21 22  1  0
 22 23  1  0
 23 24  2  0
 24 25  1  0
 24 26  1  0
 17 27  1  0
 10  5  1  0
 19 15  2  0
 25 21  2  0
  1 28  1  0
  1 29  1  0
  1 30  1  0
  4 31  1  0
  6 32  1  0
  7 33  1  0
  9 34  1  0
 10 35  1  0
 12 36  1  0
 12 37  1  0
 16 38  1  0
 20 39  1  0
 20 40  1  0
 20 41  1  0
 23 42  1  0
 26 43  1  0
 26 44  1  0
 26 45  1  0
 27 46  1  0
 27 47  1  0
 27 48  1  0
M  END
>  <Ligand ID>  (1) 
LIG0003729

>  <Ligand>  (1) 
CHEMBL3561788

>  <SMILES>  (1) 
CC(=O)Nc1ccc(cc1)SCC(=O)c1cc(n(c1C)c1scc(n1)C)C

>  <CID>  (1) 
9535142.0

>  <ChEMBL ID>  (1) 
nan

>  <InChiKey>  (1) 
JTDCETOEMIZIIQ-UHFFFAOYSA-N

>  <InChi>  (1) 
InChI=1S/C20H21N3O2S2/c1-12-10-27-20(21-12)23-13(2)9-18(14(23)3)19(25)11-26-17-7-5-16(6-8-17)22-15(4)24/h5-10H,11H2,1-4H3,(H,22,24)

>  <IUPAC Name>  (1) 
N-[4-[2-[2,5-dimethyl-1-(4-methyl-1,3-thiazol-2-yl)pyrrol-3-yl]-2-oxoethyl]sulfanylphenyl]acetamide

$$$$
