
     RDKit          3D

 29 28  0  0  0  0  0  0  0  0999 V2000
   -2.1899    2.5408    1.9221 O   0  0  0  0  0  0  0  0  0  0  0  0
   -2.1081    1.3694    1.5345 C   0  0  0  0  0  0  0  0  0  0  0  0
   -2.3501    1.1267    0.0909 C   0  0  0  0  0  0  0  0  0  0  0  0
   -2.2329   -0.3121   -0.2967 C   0  0  2  0  0  0  0  0  0  0  0  0
   -0.9108   -0.9271   -0.0394 C   0  0  0  0  0  0  0  0  0  0  0  0
    0.2335   -0.2681   -0.7642 C   0  0  0  0  0  0  0  0  0  0  0  0
    1.5277   -0.9419   -0.4549 C   0  0  0  0  0  0  0  0  0  0  0  0
    2.5429   -0.3069    0.1094 C   0  0  0  0  0  0  0  0  0  0  0  0
    2.3967    1.1348    0.4520 C   0  0  0  0  0  0  0  0  0  0  0  0
    3.7954   -1.0503    0.3836 C   0  0  0  0  0  0  0  0  0  0  0  0
   -2.5367   -0.4099   -1.7823 C   0  0  0  0  0  0  0  0  0  0  0  0
   -1.8685    0.5687    2.2362 H   0  0  0  0  0  0  0  0  0  0  0  0
   -1.7235    1.7832   -0.5158 H   0  0  0  0  0  0  0  0  0  0  0  0
   -3.4056    1.4245   -0.0974 H   0  0  0  0  0  0  0  0  0  0  0  0
   -2.9875   -0.8929    0.2729 H   0  0  0  0  0  0  0  0  0  0  0  0
   -0.9502   -1.9690   -0.4389 H   0  0  0  0  0  0  0  0  0  0  0  0
   -0.7000   -1.0401    1.0427 H   0  0  0  0  0  0  0  0  0  0  0  0
    0.1238   -0.2600   -1.8444 H   0  0  0  0  0  0  0  0  0  0  0  0
    0.3034    0.7609   -0.3559 H   0  0  0  0  0  0  0  0  0  0  0  0
    1.5932   -1.9942   -0.7207 H   0  0  0  0  0  0  0  0  0  0  0  0
    2.1659    1.7366   -0.4506 H   0  0  0  0  0  0  0  0  0  0  0  0
    1.5505    1.2519    1.1824 H   0  0  0  0  0  0  0  0  0  0  0  0
    3.2934    1.5413    0.9279 H   0  0  0  0  0  0  0  0  0  0  0  0
    3.6368   -2.1365    0.4762 H   0  0  0  0  0  0  0  0  0  0  0  0
    4.1561   -0.7027    1.3940 H   0  0  0  0  0  0  0  0  0  0  0  0
    4.5811   -0.8271   -0.3679 H   0  0  0  0  0  0  0  0  0  0  0  0
   -2.2098    0.5400   -2.2524 H   0  0  0  0  0  0  0  0  0  0  0  0
   -2.0723   -1.3061   -2.2402 H   0  0  0  0  0  0  0  0  0  0  0  0
   -3.6544   -0.4339   -1.8478 H   0  0  0  0  0  0  0  0  0  0  0  0
  1  2  2  0
  2  3  1  0
  3  4  1  0
  4  5  1  0
  5  6  1  0
  6  7  1  0
  7  8  2  3
  8  9  1  0
  8 10  1  0
  4 11  1  0
  2 12  1  0
  3 13  1  0
  3 14  1  0
  4 15  1  1
  5 16  1  0
  5 17  1  0
  6 18  1  0
  6 19  1  0
  7 20  1  0
  9 21  1  0
  9 22  1  0
  9 23  1  0
 10 24  1  0
 10 25  1  0
 10 26  1  0
 11 27  1  0
 11 28  1  0
 11 29  1  0
M  END
>  <Ligand ID>  (1) 
LIG0000241

>  <Ligand>  (1) 
(S)-(-)-Citronellal

>  <SMILES>  (1) 
O=CC[C@H](CCC=C(C)C)C

>  <CID>  (1) 
443157.0

>  <ChEMBL ID>  (1) 
nan

>  <InChiKey>  (1) 
NEHNMFOYXAPHSD-JTQLQIEISA-N

>  <InChi>  (1) 
InChI=1S/C10H18O/c1-9(2)5-4-6-10(3)7-8-11/h5,8,10H,4,6-7H2,1-3H3/t10-/m0/s1

>  <IUPAC Name>  (1) 
(3S)-3,7-dimethyloct-6-enal

$$$$
