
     RDKit          3D

 17 16  0  0  0  0  0  0  0  0999 V2000
    2.3382    0.5681   -0.0924 C   0  0  0  0  0  0  0  0  0  0  0  0
    1.3611   -0.4959    0.3674 C   0  0  0  0  0  0  0  0  0  0  0  0
    0.3590   -0.8230   -0.6946 C   0  0  0  0  0  0  0  0  0  0  0  0
   -0.9278   -0.6774   -0.5735 C   0  0  0  0  0  0  0  0  0  0  0  0
   -1.6559   -0.1708    0.6044 C   0  0  0  0  0  0  0  0  0  0  0  0
   -2.3925    1.0579    0.1218 C   0  0  0  0  0  0  0  0  0  0  0  0
   -3.4374    0.8882   -0.4909 O   0  0  0  0  0  0  0  0  0  0  0  0
    2.0657    1.5819    0.2580 H   0  0  0  0  0  0  0  0  0  0  0  0
    2.3296    0.5453   -1.2103 H   0  0  0  0  0  0  0  0  0  0  0  0
    3.3471    0.3260    0.2641 H   0  0  0  0  0  0  0  0  0  0  0  0
    0.9159   -0.3154    1.3439 H   0  0  0  0  0  0  0  0  0  0  0  0
    1.9832   -1.4407    0.4485 H   0  0  0  0  0  0  0  0  0  0  0  0
    0.7765   -1.2148   -1.6365 H   0  0  0  0  0  0  0  0  0  0  0  0
   -1.5479   -0.9574   -1.4433 H   0  0  0  0  0  0  0  0  0  0  0  0
   -1.0784   -0.0058    1.5064 H   0  0  0  0  0  0  0  0  0  0  0  0
   -2.4647   -0.9047    0.8941 H   0  0  0  0  0  0  0  0  0  0  0  0
   -1.9717    2.0385    0.3329 H   0  0  0  0  0  0  0  0  0  0  0  0
  1  2  1  0
  2  3  1  0
  3  4  2  0
  4  5  1  0
  5  6  1  0
  6  7  2  0
  1  8  1  0
  1  9  1  0
  1 10  1  0
  2 11  1  0
  2 12  1  0
  3 13  1  0
  4 14  1  0
  5 15  1  0
  5 16  1  0
  6 17  1  0
M  END
>  <Ligand ID>  (1) 
LIG0000608

>  <Ligand>  (1) 
(Z)-3-Hexenal

>  <SMILES>  (1) 
CC/C=C\CC=O

>  <CID>  (1) 
643941.0

>  <ChEMBL ID>  (1) 
nan

>  <InChiKey>  (1) 
GXANMBISFKBPEX-ARJAWSKDSA-N

>  <InChi>  (1) 
InChI=1S/C6H10O/c1-2-3-4-5-6-7/h3-4,6H,2,5H2,1H3/b4-3-

>  <IUPAC Name>  (1) 
(Z)-hex-3-enal

$$$$
