
     RDKit          3D

 47 50  0  0  0  0  0  0  0  0999 V2000
    7.0364   -0.8217   -1.5566 C   0  0  0  0  0  0  0  0  0  0  0  0
    5.7410   -0.1944   -1.3894 N   0  0  0  0  0  0  0  0  0  0  0  0
    4.7572   -0.7894   -0.5432 C   0  0  0  0  0  0  0  0  0  0  0  0
    5.0400   -1.9422    0.1022 N   0  0  0  0  0  0  0  0  0  0  0  0
    4.1279   -2.5355    0.9147 C   0  0  0  0  0  0  0  0  0  0  0  0
    4.4812   -4.0336    1.7599 Cl  0  0  0  0  0  0  0  0  0  0  0  0
    2.9088   -1.9903    1.1023 N   0  0  0  0  0  0  0  0  0  0  0  0
    2.6145   -0.8383    0.4626 C   0  0  0  0  0  0  0  0  0  0  0  0
    3.5173   -0.2078   -0.3707 C   0  0  0  0  0  0  0  0  0  0  0  0
    2.9371    0.9047   -0.8540 N   0  0  0  0  0  0  0  0  0  0  0  0
    1.6778    0.9790   -0.3320 C   0  0  0  0  0  0  0  0  0  0  0  0
    1.4731   -0.0896    0.4782 N   0  0  0  0  0  0  0  0  0  0  0  0
    0.2884   -0.3822    1.2127 C   0  0  1  0  0  0  0  0  0  0  0  0
   -0.2670    0.7708    1.9917 C   0  0  0  0  0  0  0  0  0  0  0  0
   -1.7060    0.9771    1.5261 C   0  0  2  0  0  0  0  0  0  0  0  0
   -2.0798   -0.2409    0.7403 C   0  0  1  0  0  0  0  0  0  0  0  0
   -0.8474   -0.9429    0.3877 C   0  0  2  0  0  0  0  0  0  0  0  0
   -1.9280   -1.6025    1.2803 C   0  0  0  0  0  0  0  0  0  0  0  0
   -3.1857   -0.0298   -0.2880 C   0  0  0  0  0  0  0  0  0  0  0  0
   -3.3784   -1.2849   -0.9064 O   0  0  0  0  0  0  0  0  0  0  0  0
   -4.5914   -1.1898   -2.0807 P   0  0  0  0  0  0  0  0  0  0  0  0
   -4.1342   -0.5144   -3.3431 O   0  0  0  0  0  0  0  0  0  0  0  0
   -5.8883   -0.3564   -1.3431 O   0  0  0  0  0  0  0  0  0  0  0  0
   -5.1181   -2.7672   -2.3880 O   0  0  0  0  0  0  0  0  0  0  0  0
   -1.6329    2.0214    0.5844 O   0  0  0  0  0  0  0  0  0  0  0  0
   -2.5914    3.3307    0.9554 P   0  0  0  0  0  0  0  0  0  0  0  0
   -3.7266    2.9944    1.8703 O   0  0  0  0  0  0  0  0  0  0  0  0
   -3.2031    3.9335   -0.5160 O   0  0  0  0  0  0  0  0  0  0  0  0
   -1.5841    4.5482    1.5802 O   0  0  0  0  0  0  0  0  0  0  0  0
    7.1589   -1.2049   -2.6000 H   0  0  0  0  0  0  0  0  0  0  0  0
    7.7991   -0.0328   -1.3306 H   0  0  0  0  0  0  0  0  0  0  0  0
    7.1248   -1.6615   -0.8373 H   0  0  0  0  0  0  0  0  0  0  0  0
    5.5064    0.6980   -1.8819 H   0  0  0  0  0  0  0  0  0  0  0  0
    1.0093    1.7913   -0.5738 H   0  0  0  0  0  0  0  0  0  0  0  0
    0.5116   -1.1893    1.9705 H   0  0  0  0  0  0  0  0  0  0  0  0
    0.3724    1.6587    1.7934 H   0  0  0  0  0  0  0  0  0  0  0  0
   -0.2353    0.6203    3.1004 H   0  0  0  0  0  0  0  0  0  0  0  0
   -2.3859    1.1972    2.3552 H   0  0  0  0  0  0  0  0  0  0  0  0
   -0.6560   -1.4331   -0.5789 H   0  0  0  0  0  0  0  0  0  0  0  0
   -2.4945   -2.4092    0.7898 H   0  0  0  0  0  0  0  0  0  0  0  0
   -1.6929   -1.8190    2.3260 H   0  0  0  0  0  0  0  0  0  0  0  0
   -4.1452    0.2336    0.2091 H   0  0  0  0  0  0  0  0  0  0  0  0
   -2.9574    0.7698   -0.9964 H   0  0  0  0  0  0  0  0  0  0  0  0
   -6.6834   -0.9315   -1.2222 H   0  0  0  0  0  0  0  0  0  0  0  0
   -5.6847   -3.0685   -1.6157 H   0  0  0  0  0  0  0  0  0  0  0  0
   -2.6314    4.6411   -0.8951 H   0  0  0  0  0  0  0  0  0  0  0  0
   -0.6543    4.4342    1.2714 H   0  0  0  0  0  0  0  0  0  0  0  0
  1  2  1  0
  2  3  1  0
  3  4  2  0
  4  5  1  0
  5  6  1  0
  5  7  2  0
  7  8  1  0
  8  9  2  0
  9 10  1  0
 10 11  2  0
 11 12  1  0
 12 13  1  0
 13 14  1  0
 14 15  1  0
 15 16  1  0
 16 17  1  0
 17 18  1  0
 16 19  1  6
 19 20  1  0
 20 21  1  0
 21 22  2  0
 21 23  1  0
 21 24  1  0
 15 25  1  0
 25 26  1  0
 26 27  2  0
 26 28  1  0
 26 29  1  0
  9  3  1  0
 17 13  1  0
 12  8  1  0
 18 16  1  0
  1 30  1  0
  1 31  1  0
  1 32  1  0
  2 33  1  0
 11 34  1  0
 13 35  1  1
 14 36  1  0
 14 37  1  0
 15 38  1  1
 17 39  1  6
 18 40  1  0
 18 41  1  0
 19 42  1  0
 19 43  1  0
 23 44  1  0
 24 45  1  0
 28 46  1  0
 29 47  1  0
M  END
>  <Ligand ID>  (1) 
LIG0001988

>  <Ligand>  (1) 
CHEMBL3085531

>  <SMILES>  (1) 
CNc1nc(Cl)nc2c1ncn2[C@H]1C[C@H]([C@]2([C@@H]1C2)COP(=O)(O)O)OP(=O)(O)O

>  <CID>  (1) 
76324375.0

>  <ChEMBL ID>  (1) 
nan

>  <InChiKey>  (1) 
NDCFGYFBDZLTJB-LJYOZPSBSA-N

>  <InChi>  (1) 
InChI=1S/C13H18ClN5O8P2/c1-15-10-9-11(18-12(14)17-10)19(5-16-9)7-2-8(27-29(23,24)25)13(3-6(7)13)4-26-28(20,21)22/h5-8H,2-4H2,1H3,(H,15,17,18)(H2,20,21,22)(H2,23,24,25)/t6-,7+,8-,13+/m1/s1

>  <IUPAC Name>  (1) 
[(1R,2R,4S,5S)-4-[2-chloro-6-(methylamino)purin-9-yl]-2-phosphonooxy-1-bicyclo[3.1.0]hexanyl]methyl dihydrogen phosphate

$$$$
