
     RDKit          3D

 41 43  0  0  0  0  0  0  0  0999 V2000
    3.5008    2.0549   -1.2131 C   0  0  0  0  0  0  0  0  0  0  0  0
    3.3614    0.6317   -1.6700 C   0  0  0  0  0  0  0  0  0  0  0  0
    3.8801   -0.3669   -0.6938 C   0  0  0  0  0  0  0  0  0  0  0  0
    3.1978   -0.3557    0.6475 C   0  0  0  0  0  0  0  0  0  0  0  0
    1.7431   -0.6470    0.4749 C   0  0  0  0  0  0  0  0  0  0  0  0
    0.7975    0.3302    0.2759 C   0  0  0  0  0  0  0  0  0  0  0  0
   -0.5339    0.0044    0.1216 C   0  0  0  0  0  0  0  0  0  0  0  0
   -1.7035    0.8670   -0.1199 C   0  0  2  0  0  0  0  0  0  0  0  0
   -1.9149    1.9299    0.9312 C   0  0  0  0  0  0  0  0  0  0  0  0
   -3.2682    2.4482    0.8994 N   0  0  0  0  0  0  0  0  0  0  0  0
   -4.2920    1.4538    0.8841 C   0  0  0  0  0  0  0  0  0  0  0  0
   -4.1321    0.4937   -0.2837 C   0  0  0  0  0  0  0  0  0  0  0  0
   -2.8017   -0.0850   -0.1363 N   0  0  0  0  0  0  0  0  0  0  0  0
   -2.3221   -1.4137    0.0107 C   0  0  0  0  0  0  0  0  0  0  0  0
   -3.0722   -2.4224   -0.0088 O   0  0  0  0  0  0  0  0  0  0  0  0
   -0.8820   -1.3267    0.1742 C   0  0  0  0  0  0  0  0  0  0  0  0
    0.0262   -2.3462    0.3709 C   0  0  0  0  0  0  0  0  0  0  0  0
    1.3474   -1.9801    0.5205 C   0  0  0  0  0  0  0  0  0  0  0  0
   -0.4231   -3.7638    0.4156 C   0  0  0  0  0  0  0  0  0  0  0  0
    0.6983   -4.5445    0.6232 F   0  0  0  0  0  0  0  0  0  0  0  0
   -1.3720   -3.9911    1.3869 F   0  0  0  0  0  0  0  0  0  0  0  0
   -0.9938   -4.0847   -0.8173 F   0  0  0  0  0  0  0  0  0  0  0  0
    4.5069    2.4143   -1.5146 H   0  0  0  0  0  0  0  0  0  0  0  0
    3.3142    2.1376   -0.1405 H   0  0  0  0  0  0  0  0  0  0  0  0
    2.7250    2.6830   -1.7270 H   0  0  0  0  0  0  0  0  0  0  0  0
    2.2672    0.4851   -1.8855 H   0  0  0  0  0  0  0  0  0  0  0  0
    3.8980    0.5581   -2.6376 H   0  0  0  0  0  0  0  0  0  0  0  0
    3.7234   -1.3894   -1.1307 H   0  0  0  0  0  0  0  0  0  0  0  0
    4.9775   -0.2536   -0.6124 H   0  0  0  0  0  0  0  0  0  0  0  0
    3.3488    0.6107    1.1675 H   0  0  0  0  0  0  0  0  0  0  0  0
    3.6416   -1.1786    1.2880 H   0  0  0  0  0  0  0  0  0  0  0  0
    1.0864    1.3611    0.2390 H   0  0  0  0  0  0  0  0  0  0  0  0
   -1.6106    1.2719   -1.1392 H   0  0  0  0  0  0  0  0  0  0  0  0
   -1.2338    2.7690    0.6791 H   0  0  0  0  0  0  0  0  0  0  0  0
   -1.6422    1.5338    1.9247 H   0  0  0  0  0  0  0  0  0  0  0  0
   -3.3861    3.2344    0.2385 H   0  0  0  0  0  0  0  0  0  0  0  0
   -5.2614    1.9513    0.8781 H   0  0  0  0  0  0  0  0  0  0  0  0
   -4.2011    0.8612    1.8281 H   0  0  0  0  0  0  0  0  0  0  0  0
   -4.9202   -0.2638   -0.2228 H   0  0  0  0  0  0  0  0  0  0  0  0
   -4.1580    1.1125   -1.2031 H   0  0  0  0  0  0  0  0  0  0  0  0
    2.0831   -2.7845    0.6783 H   0  0  0  0  0  0  0  0  0  0  0  0
  1  2  1  0
  2  3  1  0
  3  4  1  0
  4  5  1  0
  5  6  2  0
  6  7  1  0
  7  8  1  0
  8  9  1  0
  9 10  1  0
 10 11  1  0
 11 12  1  0
 12 13  1  0
 13 14  1  0
 14 15  2  0
 14 16  1  0
 16 17  1  0
 17 18  2  0
 17 19  1  0
 19 20  1  0
 19 21  1  0
 19 22  1  0
 18  5  1  0
 16  7  2  0
 13  8  1  0
  1 23  1  0
  1 24  1  0
  1 25  1  0
  2 26  1  0
  2 27  1  0
  3 28  1  0
  3 29  1  0
  4 30  1  0
  4 31  1  0
  6 32  1  0
  8 33  1  6
  9 34  1  0
  9 35  1  0
 10 36  1  0
 11 37  1  0
 11 38  1  0
 12 39  1  0
 12 40  1  0
 18 41  1  0
M  END
>  <Ligand ID>  (1) 
LIG0004200

>  <Ligand>  (1) 
CHEMBL373483

>  <SMILES>  (1) 
CCCCc1cc2[C@@H]3CNCCN3C(=O)c2c(c1)C(F)(F)F

>  <CID>  (1) 
11187156.0

>  <ChEMBL ID>  (1) 
nan

>  <InChiKey>  (1) 
UDGYHMBUODQQEI-ZDUSSCGKSA-N

>  <InChi>  (1) 
InChI=1S/C16H19F3N2O/c1-2-3-4-10-7-11-13-9-20-5-6-21(13)15(22)14(11)12(8-10)16(17,18)19/h7-8,13,20H,2-6,9H2,1H3/t13-/m0/s1

>  <IUPAC Name>  (1) 
(10bR)-9-butyl-7-(trifluoromethyl)-2,3,4,10b-tetrahydro-1H-pyrazino[1,2-b]isoindol-6-one

$$$$
