
     RDKit          3D

 48 50  0  0  0  0  0  0  0  0999 V2000
   -3.9476    0.6976    1.5974 C   0  0  0  0  0  0  0  0  0  0  0  0
   -2.6399    0.8911    0.8609 C   0  0  2  0  0  0  0  0  0  0  0  0
   -2.5895    2.3164    0.3720 C   0  0  0  0  0  0  0  0  0  0  0  0
   -3.7366    2.5728   -0.4717 N   0  0  0  0  0  0  0  0  0  0  0  0
   -3.8248    1.6884   -1.5905 C   0  0  0  0  0  0  0  0  0  0  0  0
   -3.7957    0.2201   -1.2160 C   0  0  0  0  0  0  0  0  0  0  0  0
   -2.6738    0.0354   -0.3259 N   0  0  0  0  0  0  0  0  0  0  0  0
   -1.6327   -0.9063   -0.5331 C   0  0  0  0  0  0  0  0  0  0  0  0
   -1.6070   -1.7630   -1.6057 C   0  0  0  0  0  0  0  0  0  0  0  0
   -0.5450   -2.6369   -1.7076 C   0  0  0  0  0  0  0  0  0  0  0  0
   -0.5129   -3.4339   -2.6979 O   0  0  0  0  0  0  0  0  0  0  0  0
    0.4592   -2.6689   -0.7865 N   0  0  0  0  0  0  0  0  0  0  0  0
    0.4088   -1.8068    0.2692 C   0  0  0  0  0  0  0  0  0  0  0  0
   -0.6295   -0.9699    0.3464 N   0  0  0  0  0  0  0  0  0  0  0  0
    1.5070   -1.8909    1.2436 C   0  0  0  0  0  0  0  0  0  0  0  0
    2.6299   -1.1700    0.9924 O   0  0  0  0  0  0  0  0  0  0  0  0
    2.9294    0.1396    0.8440 C   0  0  0  0  0  0  0  0  0  0  0  0
    2.0727    1.2088    0.9260 C   0  0  0  0  0  0  0  0  0  0  0  0
    2.4690    2.5237    0.7600 C   0  0  0  0  0  0  0  0  0  0  0  0
    3.7978    2.7718    0.4982 C   0  0  0  0  0  0  0  0  0  0  0  0
    4.6889    1.7501    0.4067 C   0  0  0  0  0  0  0  0  0  0  0  0
    4.2699    0.4636    0.5747 C   0  0  0  0  0  0  0  0  0  0  0  0
    5.2739   -0.6421    0.4695 C   0  0  0  0  0  0  0  0  0  0  0  0
    4.9143   -1.4922   -0.5441 F   0  0  0  0  0  0  0  0  0  0  0  0
    5.1845   -1.3277    1.6752 F   0  0  0  0  0  0  0  0  0  0  0  0
    6.5309   -0.1305    0.2924 F   0  0  0  0  0  0  0  0  0  0  0  0
    1.5071   -3.6123   -0.9957 C   0  0  0  0  0  0  0  0  0  0  0  0
   -4.4879   -0.2250    1.3070 H   0  0  0  0  0  0  0  0  0  0  0  0
   -4.6270    1.5538    1.4172 H   0  0  0  0  0  0  0  0  0  0  0  0
   -3.7558    0.7075    2.7020 H   0  0  0  0  0  0  0  0  0  0  0  0
   -1.7673    0.6538    1.5004 H   0  0  0  0  0  0  0  0  0  0  0  0
   -1.6333    2.5796   -0.0950 H   0  0  0  0  0  0  0  0  0  0  0  0
   -2.6912    2.9804    1.2663 H   0  0  0  0  0  0  0  0  0  0  0  0
   -3.5911    3.5350   -0.8630 H   0  0  0  0  0  0  0  0  0  0  0  0
   -4.8311    1.8557   -2.0482 H   0  0  0  0  0  0  0  0  0  0  0  0
   -3.0912    1.8476   -2.3903 H   0  0  0  0  0  0  0  0  0  0  0  0
   -4.7588   -0.0777   -0.7064 H   0  0  0  0  0  0  0  0  0  0  0  0
   -3.7699   -0.3484   -2.1400 H   0  0  0  0  0  0  0  0  0  0  0  0
   -2.3649   -1.7732   -2.3439 H   0  0  0  0  0  0  0  0  0  0  0  0
    1.0686   -1.4977    2.2199 H   0  0  0  0  0  0  0  0  0  0  0  0
    1.7391   -2.9644    1.5154 H   0  0  0  0  0  0  0  0  0  0  0  0
    1.0394    1.0392    1.1350 H   0  0  0  0  0  0  0  0  0  0  0  0
    1.7680    3.3450    0.8308 H   0  0  0  0  0  0  0  0  0  0  0  0
    4.1291    3.7906    0.3649 H   0  0  0  0  0  0  0  0  0  0  0  0
    5.7282    1.9406    0.2022 H   0  0  0  0  0  0  0  0  0  0  0  0
    1.8805   -4.1424   -0.1127 H   0  0  0  0  0  0  0  0  0  0  0  0
    2.3640   -3.1851   -1.5950 H   0  0  0  0  0  0  0  0  0  0  0  0
    1.1440   -4.4431   -1.6719 H   0  0  0  0  0  0  0  0  0  0  0  0
  1  2  1  0
  2  3  1  0
  3  4  1  0
  4  5  1  0
  5  6  1  0
  6  7  1  0
  7  8  1  0
  8  9  2  0
  9 10  1  0
 10 11  2  0
 10 12  1  0
 12 13  1  0
 13 14  2  0
 13 15  1  0
 15 16  1  0
 16 17  1  0
 17 18  2  0
 18 19  1  0
 19 20  2  0
 20 21  1  0
 21 22  2  0
 22 23  1  0
 23 24  1  0
 23 25  1  0
 23 26  1  0
 12 27  1  0
  7  2  1  0
 14  8  1  0
 22 17  1  0
  1 28  1  0
  1 29  1  0
  1 30  1  0
  2 31  1  1
  3 32  1  0
  3 33  1  0
  4 34  1  0
  5 35  1  0
  5 36  1  0
  6 37  1  0
  6 38  1  0
  9 39  1  0
 15 40  1  0
 15 41  1  0
 18 42  1  0
 19 43  1  0
 20 44  1  0
 21 45  1  0
 27 46  1  0
 27 47  1  0
 27 48  1  0
M  END
>  <Ligand ID>  (1) 
LIG0005329

>  <Ligand>  (1) 
CHEMBL568237

>  <SMILES>  (1) 
C[C@@H]1CNCCN1c1cc(=O)n(c(n1)COc1ccccc1C(F)(F)F)C

>  <CID>  (1) 
44555369.0

>  <ChEMBL ID>  (1) 
nan

>  <InChiKey>  (1) 
XIFVRPRCVBESLU-GFCCVEGCSA-N

>  <InChi>  (1) 
InChI=1S/C18H21F3N4O2/c1-12-10-22-7-8-25(12)15-9-17(26)24(2)16(23-15)11-27-14-6-4-3-5-13(14)18(19,20)21/h3-6,9,12,22H,7-8,10-11H2,1-2H3/t12-/m1/s1

>  <IUPAC Name>  (1) 
3-methyl-6-[(2R)-2-methylpiperazin-1-yl]-2-[[2-(trifluoromethyl)phenoxy]methyl]pyrimidin-4-one

$$$$
