
     RDKit          3D

 26 26  0  0  0  0  0  0  0  0999 V2000
   -1.3091    1.4634   -1.3582 O   0  0  0  0  0  0  0  0  0  0  0  0
   -2.2395    0.8909   -0.5243 C   0  0  0  0  0  0  0  0  0  0  0  0
   -3.3932    1.3936   -0.4329 O   0  0  0  0  0  0  0  0  0  0  0  0
   -1.9932   -0.3215    0.3083 C   0  0  1  0  0  0  0  0  0  0  0  0
   -0.9744   -0.0292    1.3596 C   0  0  0  0  0  0  0  0  0  0  0  0
    0.3406    0.4091    0.8834 C   0  0  0  0  0  0  0  0  0  0  0  0
    1.1734   -0.4371    0.0585 C   0  0  0  0  0  0  0  0  0  0  0  0
    2.3075    0.0851   -0.6154 C   0  0  0  0  0  0  0  0  0  0  0  0
    2.7787    1.4942   -0.5911 C   0  0  0  0  0  0  0  0  0  0  0  0
    2.8560   -0.8857   -1.2533 O   0  0  0  0  0  0  0  0  0  0  0  0
    2.2523   -1.9982   -1.1079 N   0  0  0  0  0  0  0  0  0  0  0  0
    1.1842   -1.7563   -0.2851 C   0  0  0  0  0  0  0  0  0  0  0  0
    0.4082   -2.6746    0.0343 O   0  0  0  0  0  0  0  0  0  0  0  0
   -3.2663   -0.6513    1.0121 N   0  0  0  0  0  0  0  0  0  0  0  0
   -1.6247    1.8477   -2.2718 H   0  0  0  0  0  0  0  0  0  0  0  0
   -1.7068   -1.1840   -0.2837 H   0  0  0  0  0  0  0  0  0  0  0  0
   -1.4378    0.7924    2.0045 H   0  0  0  0  0  0  0  0  0  0  0  0
   -0.9319   -0.8825    2.0923 H   0  0  0  0  0  0  0  0  0  0  0  0
    0.2606    1.4196    0.3617 H   0  0  0  0  0  0  0  0  0  0  0  0
    0.9944    0.6827    1.7867 H   0  0  0  0  0  0  0  0  0  0  0  0
    3.7870    1.5501   -1.0596 H   0  0  0  0  0  0  0  0  0  0  0  0
    2.9513    1.7650    0.4895 H   0  0  0  0  0  0  0  0  0  0  0  0
    2.0971    2.1797   -1.0979 H   0  0  0  0  0  0  0  0  0  0  0  0
    2.5313   -2.9198   -1.5396 H   0  0  0  0  0  0  0  0  0  0  0  0
   -3.0498   -1.3724    1.7080 H   0  0  0  0  0  0  0  0  0  0  0  0
   -3.9959   -0.8609    0.3219 H   0  0  0  0  0  0  0  0  0  0  0  0
  1  2  1  0
  2  3  2  0
  2  4  1  0
  4  5  1  0
  5  6  1  0
  6  7  1  0
  7  8  2  0
  8  9  1  0
  8 10  1  0
 10 11  1  0
 11 12  1  0
 12 13  2  0
  4 14  1  0
 12  7  1  0
  1 15  1  0
  4 16  1  6
  5 17  1  0
  5 18  1  0
  6 19  1  0
  6 20  1  0
  9 21  1  0
  9 22  1  0
  9 23  1  0
 11 24  1  0
 14 25  1  0
 14 26  1  0
M  END
>  <Ligand ID>  (1) 
LIG0000510

>  <Ligand>  (1) 
CHEMBL262416

>  <SMILES>  (1) 
OC(=O)[C@@H](CCc1c(C)o[nH]c1=O)N

>  <CID>  (1) 
10774389.0

>  <ChEMBL ID>  (1) 
nan

>  <InChiKey>  (1) 
NZDIZJGEDFARSV-ZCFIWIBFSA-N

>  <InChi>  (1) 
InChI=1S/C8H12N2O4/c1-4-5(7(11)10-14-4)2-3-6(9)8(12)13/h6H,2-3,9H2,1H3,(H,10,11)(H,12,13)/t6-/m1/s1

>  <IUPAC Name>  (1) 
(2R)-2-amino-4-(5-methyl-3-oxo-1,2-oxazol-4-yl)butanoic acid

$$$$
