
     RDKit          3D

 97100  0  0  0  0  0  0  0  0999 V2000
    1.8473   -4.8206   -0.7093 N   0  0  0  0  0  0  0  0  0  0  0  0
    0.6106   -4.8712    0.0609 C   0  0  0  0  0  0  0  0  0  0  0  0
    0.8524   -4.9312    1.5250 C   0  0  0  0  0  0  0  0  0  0  0  0
    1.6111   -3.8236    2.1508 C   0  0  0  0  0  0  0  0  0  0  0  0
    1.1023   -2.4576    2.1869 C   0  0  0  0  0  0  0  0  0  0  0  0
    0.7724   -1.6970    1.0519 N   0  0  0  0  0  0  0  0  0  0  0  0
   -0.5612   -1.5476    0.4985 C   0  0  0  0  0  0  0  0  0  0  0  0
   -1.4633   -2.1514    1.1205 O   0  0  0  0  0  0  0  0  0  0  0  0
   -0.7032   -0.7257   -0.6837 C   0  0  0  0  0  0  0  0  0  0  0  0
   -2.0610   -0.4979   -1.1690 N   0  0  0  0  0  0  0  0  0  0  0  0
   -2.6669    0.6604   -0.5680 C   0  0  0  0  0  0  0  0  0  0  0  0
   -1.9055    1.2773    0.2495 O   0  0  0  0  0  0  0  0  0  0  0  0
   -3.9964    1.1814   -0.7865 C   0  0  0  0  0  0  0  0  0  0  0  0
   -4.2373    2.4162   -0.0366 N   0  0  0  0  0  0  0  0  0  0  0  0
   -3.9291    3.6770   -0.6643 C   0  0  0  0  0  0  0  0  0  0  0  0
   -4.1272    4.7772   -0.0499 O   0  0  0  0  0  0  0  0  0  0  0  0
   -3.3755    3.7078   -2.0360 C   0  0  0  0  0  0  0  0  0  0  0  0
   -4.7592    2.4479    1.2999 C   0  0  0  0  0  0  0  0  0  0  0  0
   -6.2486    2.5202    1.4044 C   0  0  0  0  0  0  0  0  0  0  0  0
   -6.7085    2.5617    2.8240 C   0  0  0  0  0  0  0  0  0  0  0  0
   -6.9139    3.6992    3.5662 C   0  0  0  0  0  0  0  0  0  0  0  0
   -7.3306    3.3826    4.8026 N   0  0  0  0  0  0  0  0  0  0  0  0
   -7.3852    2.0373    4.8311 C   0  0  0  0  0  0  0  0  0  0  0  0
   -7.0116    1.5204    3.6403 N   0  0  0  0  0  0  0  0  0  0  0  0
   -2.6938   -1.2863   -2.1891 C   0  0  0  0  0  0  0  0  0  0  0  0
   -3.5438   -2.3450   -1.6554 C   0  0  0  0  0  0  0  0  0  0  0  0
   -4.9056   -2.2322   -1.4221 C   0  0  0  0  0  0  0  0  0  0  0  0
   -5.6721   -3.2583   -0.9201 C   0  0  0  0  0  0  0  0  0  0  0  0
   -5.1125   -4.4744   -0.6189 C   0  0  0  0  0  0  0  0  0  0  0  0
   -3.7581   -4.6249   -0.8392 C   0  0  0  0  0  0  0  0  0  0  0  0
   -3.0016   -3.5961   -1.3399 C   0  0  0  0  0  0  0  0  0  0  0  0
    1.8505   -0.9671    0.3744 C   0  0  0  0  0  0  0  0  0  0  0  0
    1.9886    0.3910    0.9707 C   0  0  0  0  0  0  0  0  0  0  0  0
    1.2170    0.6683    1.9245 O   0  0  0  0  0  0  0  0  0  0  0  0
    2.9215    1.3614    0.5257 N   0  0  0  0  0  0  0  0  0  0  0  0
    2.9086    2.6381    1.2368 C   0  0  0  0  0  0  0  0  0  0  0  0
    3.7813    2.6616    2.4065 C   0  0  0  0  0  0  0  0  0  0  0  0
    3.8310    3.7423    3.0765 O   0  0  0  0  0  0  0  0  0  0  0  0
    4.5821    1.5972    2.8748 N   0  0  0  0  0  0  0  0  0  0  0  0
    3.8216    1.1624   -0.5763 C   0  0  0  0  0  0  0  0  0  0  0  0
    5.1524    0.5850   -0.2547 C   0  0  0  0  0  0  0  0  0  0  0  0
    5.9724    0.4347   -1.5188 C   0  0  0  0  0  0  0  0  0  0  0  0
    6.2294   -0.7166   -2.2256 C   0  0  0  0  0  0  0  0  0  0  0  0
    7.0004   -0.3345   -3.2736 N   0  0  0  0  0  0  0  0  0  0  0  0
    7.2194    0.9954   -3.2298 C   0  0  0  0  0  0  0  0  0  0  0  0
    6.5719    1.5258   -2.1116 C   0  0  0  0  0  0  0  0  0  0  0  0
    6.6106    2.8603   -1.7927 C   0  0  0  0  0  0  0  0  0  0  0  0
    7.3117    3.7453   -2.5916 C   0  0  0  0  0  0  0  0  0  0  0  0
    7.9637    3.2532   -3.7062 C   0  0  0  0  0  0  0  0  0  0  0  0
    7.9176    1.8908   -4.0218 C   0  0  0  0  0  0  0  0  0  0  0  0
    2.6652   -4.9009   -0.0993 H   0  0  0  0  0  0  0  0  0  0  0  0
    1.8419   -4.0432   -1.3774 H   0  0  0  0  0  0  0  0  0  0  0  0
    0.1653   -5.8728   -0.2171 H   0  0  0  0  0  0  0  0  0  0  0  0
   -0.1284   -4.1435   -0.1951 H   0  0  0  0  0  0  0  0  0  0  0  0
   -0.1551   -4.9716    2.0188 H   0  0  0  0  0  0  0  0  0  0  0  0
    1.3010   -5.9361    1.8262 H   0  0  0  0  0  0  0  0  0  0  0  0
    1.7146   -4.1421    3.2558 H   0  0  0  0  0  0  0  0  0  0  0  0
    2.7117   -3.8694    1.8426 H   0  0  0  0  0  0  0  0  0  0  0  0
    1.7981   -1.7750    2.8104 H   0  0  0  0  0  0  0  0  0  0  0  0
    0.2074   -2.4892    2.9283 H   0  0  0  0  0  0  0  0  0  0  0  0
   -0.1597    0.2236   -0.5564 H   0  0  0  0  0  0  0  0  0  0  0  0
   -0.2009   -1.2659   -1.5410 H   0  0  0  0  0  0  0  0  0  0  0  0
   -4.2699    1.3668   -1.8202 H   0  0  0  0  0  0  0  0  0  0  0  0
   -4.7237    0.4417   -0.3567 H   0  0  0  0  0  0  0  0  0  0  0  0
   -4.1039    3.2042   -2.7098 H   0  0  0  0  0  0  0  0  0  0  0  0
   -2.4216    3.1654   -2.1174 H   0  0  0  0  0  0  0  0  0  0  0  0
   -3.1679    4.7519   -2.3245 H   0  0  0  0  0  0  0  0  0  0  0  0
   -4.4198    1.5153    1.8036 H   0  0  0  0  0  0  0  0  0  0  0  0
   -4.3154    3.2832    1.9030 H   0  0  0  0  0  0  0  0  0  0  0  0
   -6.6168    3.4716    0.9223 H   0  0  0  0  0  0  0  0  0  0  0  0
   -6.7532    1.7053    0.8571 H   0  0  0  0  0  0  0  0  0  0  0  0
   -6.7468    4.6924    3.1520 H   0  0  0  0  0  0  0  0  0  0  0  0
   -7.6957    1.4780    5.7243 H   0  0  0  0  0  0  0  0  0  0  0  0
   -6.9619    0.5207    3.3894 H   0  0  0  0  0  0  0  0  0  0  0  0
   -3.2135   -0.6499   -2.9468 H   0  0  0  0  0  0  0  0  0  0  0  0
   -1.8329   -1.7606   -2.7639 H   0  0  0  0  0  0  0  0  0  0  0  0
   -5.4180   -1.3128   -1.6536 H   0  0  0  0  0  0  0  0  0  0  0  0
   -6.7362   -3.1179   -0.7547 H   0  0  0  0  0  0  0  0  0  0  0  0
   -5.7507   -5.2493   -0.2276 H   0  0  0  0  0  0  0  0  0  0  0  0
   -3.2973   -5.5892   -0.6041 H   0  0  0  0  0  0  0  0  0  0  0  0
   -1.9506   -3.7005   -1.5283 H   0  0  0  0  0  0  0  0  0  0  0  0
    2.8087   -1.5232    0.3769 H   0  0  0  0  0  0  0  0  0  0  0  0
    1.5840   -0.8320   -0.6787 H   0  0  0  0  0  0  0  0  0  0  0  0
    3.2183    3.4692    0.5660 H   0  0  0  0  0  0  0  0  0  0  0  0
    1.8627    2.8391    1.5542 H   0  0  0  0  0  0  0  0  0  0  0  0
    5.5997    1.7066    3.0791 H   0  0  0  0  0  0  0  0  0  0  0  0
    4.1471    0.6552    3.0265 H   0  0  0  0  0  0  0  0  0  0  0  0
    3.9754    2.1838   -1.0291 H   0  0  0  0  0  0  0  0  0  0  0  0
    3.3606    0.5708   -1.3982 H   0  0  0  0  0  0  0  0  0  0  0  0
    5.7333    1.3023    0.4011 H   0  0  0  0  0  0  0  0  0  0  0  0
    5.1166   -0.3578    0.3155 H   0  0  0  0  0  0  0  0  0  0  0  0
    5.8728   -1.7046   -1.9680 H   0  0  0  0  0  0  0  0  0  0  0  0
    7.3846   -0.9521   -4.0206 H   0  0  0  0  0  0  0  0  0  0  0  0
    6.1123    3.2750   -0.9302 H   0  0  0  0  0  0  0  0  0  0  0  0
    7.3302    4.7955   -2.3221 H   0  0  0  0  0  0  0  0  0  0  0  0
    8.5083    3.9636   -4.3214 H   0  0  0  0  0  0  0  0  0  0  0  0
    8.4434    1.5580   -4.9027 H   0  0  0  0  0  0  0  0  0  0  0  0
  1  2  1  0
  2  3  1  0
  3  4  1  0
  4  5  1  0
  5  6  1  0
  6  7  1  0
  7  8  2  0
  7  9  1  0
  9 10  1  0
 10 11  1  0
 11 12  2  0
 11 13  1  0
 13 14  1  0
 14 15  1  0
 15 16  2  0
 15 17  1  0
 14 18  1  0
 18 19  1  0
 19 20  1  0
 20 21  2  0
 21 22  1  0
 22 23  2  0
 23 24  1  0
 10 25  1  0
 25 26  1  0
 26 27  2  0
 27 28  1  0
 28 29  2  0
 29 30  1  0
 30 31  2  0
  6 32  1  0
 32 33  1  0
 33 34  2  0
 33 35  1  0
 35 36  1  0
 36 37  1  0
 37 38  2  0
 37 39  1  0
 35 40  1  0
 40 41  1  0
 41 42  1  0
 42 43  2  0
 43 44  1  0
 44 45  1  0
 45 46  2  0
 46 47  1  0
 47 48  2  0
 48 49  1  0
 49 50  2  0
 24 20  1  0
 31 26  1  0
 46 42  1  0
 50 45  1  0
  1 51  1  0
  1 52  1  0
  2 53  1  0
  2 54  1  0
  3 55  1  0
  3 56  1  0
  4 57  1  0
  4 58  1  0
  5 59  1  0
  5 60  1  0
  9 61  1  0
  9 62  1  0
 13 63  1  0
 13 64  1  0
 17 65  1  0
 17 66  1  0
 17 67  1  0
 18 68  1  0
 18 69  1  0
 19 70  1  0
 19 71  1  0
 21 72  1  0
 23 73  1  0
 24 74  1  0
 25 75  1  0
 25 76  1  0
 27 77  1  0
 28 78  1  0
 29 79  1  0
 30 80  1  0
 31 81  1  0
 32 82  1  0
 32 83  1  0
 36 84  1  0
 36 85  1  0
 39 86  1  0
 39 87  1  0
 40 88  1  0
 40 89  1  0
 41 90  1  0
 41 91  1  0
 43 92  1  0
 44 93  1  0
 47 94  1  0
 48 95  1  0
 49 96  1  0
 50 97  1  0
M  END
>  <Ligand ID>  (1) 
LIG0003280

>  <Ligand>  (1) 
CHEMBL140324

>  <SMILES>  (1) 
NCCCCN(C(=O)CN(C(=O)CN(C(=O)C)CCc1cnc[nH]1)Cc1ccccc1)CC(=O)N(CC(=O)N)CCc1c[nH]c2c1cccc2

>  <CID>  (1) 
44359589.0

>  <ChEMBL ID>  (1) 
nan

>  <InChiKey>  (1) 
YYBOUVZNKIGKBH-UHFFFAOYSA-N

>  <InChi>  (1) 
InChI=1S/C36H47N9O5/c1-27(46)42(18-14-30-20-39-26-41-30)23-36(50)45(21-28-9-3-2-4-10-28)25-35(49)43(16-8-7-15-37)24-34(48)44(22-33(38)47)17-13-29-19-40-32-12-6-5-11-31(29)32/h2-6,9-12,19-20,26,40H,7-8,13-18,21-25,37H2,1H3,(H2,38,47)(H,39,41)

>  <IUPAC Name>  (1) 
2-[[2-[[2-[[2-[acetyl-[2-(1H-imidazol-5-yl)ethyl]amino]acetyl]-benzylamino]acetyl]-(4-aminobutyl)amino]acetyl]-[2-(1H-indol-3-yl)ethyl]amino]acetamide

$$$$
