
     RDKit          3D

 71 75  0  0  0  0  0  0  0  0999 V2000
    2.4015   -1.5268    3.9179 N   0  0  0  0  0  0  0  0  0  0  0  0
    1.7762   -1.0420    3.0690 C   0  0  0  0  0  0  0  0  0  0  0  0
    0.9883   -0.4173    2.0229 C   0  0  0  0  0  0  0  0  0  0  0  0
   -0.2111   -0.8667    1.7627 C   0  0  0  0  0  0  0  0  0  0  0  0
   -0.7046   -1.9668    2.5263 N   0  0  0  0  0  0  0  0  0  0  0  0
   -0.9761   -0.2446    0.7325 N   0  0  0  0  0  0  0  0  0  0  0  0
   -0.4538    0.8509   -0.0100 C   0  0  0  0  0  0  0  0  0  0  0  0
    0.7638    1.2899    0.2705 C   0  0  0  0  0  0  0  0  0  0  0  0
    1.6341    0.7180    1.3130 C   0  0  0  0  0  0  0  0  0  0  0  0
    2.9040    0.1700    0.7246 C   0  0  0  0  0  0  0  0  0  0  0  0
    4.1473    0.5492    1.1838 C   0  0  0  0  0  0  0  0  0  0  0  0
    5.2732    0.0060    0.5958 C   0  0  0  0  0  0  0  0  0  0  0  0
    6.5635    0.3290    0.9929 O   0  0  0  0  0  0  0  0  0  0  0  0
    6.7114    1.2581    2.0493 C   0  0  0  0  0  0  0  0  0  0  0  0
    5.1528   -0.9041   -0.4374 C   0  0  0  0  0  0  0  0  0  0  0  0
    3.9065   -1.2959   -0.9107 C   0  0  0  0  0  0  0  0  0  0  0  0
    2.7898   -0.7377   -0.3056 C   0  0  0  0  0  0  0  0  0  0  0  0
    3.8089   -2.2117   -1.9499 O   0  0  0  0  0  0  0  0  0  0  0  0
    2.5046   -2.5627   -2.3784 C   0  0  0  0  0  0  0  0  0  0  0  0
    6.2618   -1.4785   -1.0611 O   0  0  0  0  0  0  0  0  0  0  0  0
    6.9070   -0.9403   -2.1771 C   0  0  0  0  0  0  0  0  0  0  0  0
    1.2536    2.4134   -0.5135 C   0  0  0  0  0  0  0  0  0  0  0  0
    2.4925    2.5442   -0.7674 O   0  0  0  0  0  0  0  0  0  0  0  0
    0.3069    3.4432   -1.0401 C   0  0  0  0  0  0  0  0  0  0  0  0
   -1.0732    2.9345   -1.2538 C   0  0  0  0  0  0  0  0  0  0  0  0
   -1.2645    1.4618   -1.0602 C   0  0  0  0  0  0  0  0  0  0  0  0
   -1.5494    3.3745   -2.6424 C   0  0  0  0  0  0  0  0  0  0  0  0
   -1.9922    3.6642   -0.2644 C   0  0  0  0  0  0  0  0  0  0  0  0
   -2.2708   -0.7671    0.4907 C   0  0  0  0  0  0  0  0  0  0  0  0
   -2.6399   -2.1097   -0.6909 S   0  0  0  0  0  0  0  0  0  0  0  0
   -4.4443   -2.0809   -0.3205 C   0  0  0  0  0  0  0  0  0  0  0  0
   -4.5746   -1.1167    0.6036 C   0  0  0  0  0  0  0  0  0  0  0  0
   -3.5000   -0.4357    1.0338 C   0  0  0  0  0  0  0  0  0  0  0  0
   -3.5372    0.6408    2.0444 C   0  0  0  0  0  0  0  0  0  0  0  0
   -3.5477    1.5039    2.8449 N   0  0  0  0  0  0  0  0  0  0  0  0
   -6.0246   -0.9067    1.0777 C   0  0  0  0  0  0  0  0  0  0  0  0
   -6.5765   -2.3168    1.1240 C   0  0  0  0  0  0  0  0  0  0  0  0
   -6.7430   -2.8075   -0.2923 C   0  0  0  0  0  0  0  0  0  0  0  0
   -5.4118   -2.9384   -0.9377 C   0  0  0  0  0  0  0  0  0  0  0  0
   -0.8930   -1.8810    3.5570 H   0  0  0  0  0  0  0  0  0  0  0  0
   -0.8709   -2.8661    2.0097 H   0  0  0  0  0  0  0  0  0  0  0  0
    1.8977    1.4500    2.1275 H   0  0  0  0  0  0  0  0  0  0  0  0
    4.2409    1.2530    1.9829 H   0  0  0  0  0  0  0  0  0  0  0  0
    6.1132    2.1869    1.8521 H   0  0  0  0  0  0  0  0  0  0  0  0
    6.2841    0.7722    2.9444 H   0  0  0  0  0  0  0  0  0  0  0  0
    7.7609    1.5821    2.1801 H   0  0  0  0  0  0  0  0  0  0  0  0
    1.8251   -1.0467   -0.6784 H   0  0  0  0  0  0  0  0  0  0  0  0
    1.9327   -1.6710   -2.7033 H   0  0  0  0  0  0  0  0  0  0  0  0
    2.5178   -3.3756   -3.1295 H   0  0  0  0  0  0  0  0  0  0  0  0
    1.9908   -2.9547   -1.4601 H   0  0  0  0  0  0  0  0  0  0  0  0
    6.7099   -1.5099   -3.1179 H   0  0  0  0  0  0  0  0  0  0  0  0
    6.6472    0.1110   -2.4078 H   0  0  0  0  0  0  0  0  0  0  0  0
    7.9927   -0.9592   -1.9898 H   0  0  0  0  0  0  0  0  0  0  0  0
    0.7122    3.8297   -2.0189 H   0  0  0  0  0  0  0  0  0  0  0  0
    0.3271    4.2587   -0.2806 H   0  0  0  0  0  0  0  0  0  0  0  0
   -1.0320    0.9794   -2.0444 H   0  0  0  0  0  0  0  0  0  0  0  0
   -2.3599    1.2768   -0.8952 H   0  0  0  0  0  0  0  0  0  0  0  0
   -0.8790    2.9203   -3.4248 H   0  0  0  0  0  0  0  0  0  0  0  0
   -1.4636    4.4755   -2.6701 H   0  0  0  0  0  0  0  0  0  0  0  0
   -2.5950    3.1023   -2.8216 H   0  0  0  0  0  0  0  0  0  0  0  0
   -1.9059    3.2183    0.7445 H   0  0  0  0  0  0  0  0  0  0  0  0
   -1.7040    4.7401   -0.1660 H   0  0  0  0  0  0  0  0  0  0  0  0
   -3.0563    3.5675   -0.5887 H   0  0  0  0  0  0  0  0  0  0  0  0
   -6.5910   -0.3347    0.3354 H   0  0  0  0  0  0  0  0  0  0  0  0
   -6.0608   -0.4829    2.0759 H   0  0  0  0  0  0  0  0  0  0  0  0
   -5.8490   -3.0061    1.6211 H   0  0  0  0  0  0  0  0  0  0  0  0
   -7.5640   -2.3665    1.5999 H   0  0  0  0  0  0  0  0  0  0  0  0
   -7.3893   -2.1345   -0.8937 H   0  0  0  0  0  0  0  0  0  0  0  0
   -7.2234   -3.8236   -0.2142 H   0  0  0  0  0  0  0  0  0  0  0  0
   -5.4956   -2.7765   -2.0456 H   0  0  0  0  0  0  0  0  0  0  0  0
   -5.0719   -4.0118   -0.8473 H   0  0  0  0  0  0  0  0  0  0  0  0
  1  2  3  0
  2  3  1  0
  3  4  2  0
  4  5  1  0
  4  6  1  0
  6  7  1  0
  7  8  2  0
  8  9  1  0
  9 10  1  0
 10 11  2  0
 11 12  1  0
 12 13  1  0
 13 14  1  0
 12 15  2  0
 15 16  1  0
 16 17  2  0
 16 18  1  0
 18 19  1  0
 15 20  1  0
 20 21  1  0
  8 22  1  0
 22 23  2  0
 22 24  1  0
 24 25  1  0
 25 26  1  0
 25 27  1  0
 25 28  1  0
  6 29  1  0
 29 30  1  0
 30 31  1  0
 31 32  2  0
 32 33  1  0
 33 34  1  0
 34 35  3  0
 32 36  1  0
 36 37  1  0
 37 38  1  0
 38 39  1  0
  9  3  1  0
 17 10  1  0
 33 29  2  0
 26  7  1  0
 39 31  1  0
  5 40  1  0
  5 41  1  0
  9 42  1  0
 11 43  1  0
 14 44  1  0
 14 45  1  0
 14 46  1  0
 17 47  1  0
 19 48  1  0
 19 49  1  0
 19 50  1  0
 21 51  1  0
 21 52  1  0
 21 53  1  0
 24 54  1  0
 24 55  1  0
 26 56  1  0
 26 57  1  0
 27 58  1  0
 27 59  1  0
 27 60  1  0
 28 61  1  0
 28 62  1  0
 28 63  1  0
 36 64  1  0
 36 65  1  0
 37 66  1  0
 37 67  1  0
 38 68  1  0
 38 69  1  0
 39 70  1  0
 39 71  1  0
M  END
>  <Ligand ID>  (1) 
LIG0003561

>  <Ligand>  (1) 
2-amino-1-(3-cyano-4,5,6,7-tetrahydro-1-benzothien-2-yl)-7,7-dimethyl-5-oxo-4-(3,4,5-trimethoxyphenyl)-1,4,5,6,7,8-hexahydro-3-quinolinecarbonitrile

>  <SMILES>  (1) 
N#CC1=C(N)N(C2=C(C1c1cc(OC)c(c(c1)OC)OC)C(=O)CC(C2)(C)C)c1sc2c(c1C#N)CCCC2

>  <CID>  (1) 
3827697.0

>  <ChEMBL ID>  (1) 
nan

>  <InChiKey>  (1) 
RZXBPKUMYOOQJP-UHFFFAOYSA-N

>  <InChi>  (1) 
InChI=1S/C30H32N4O4S/c1-30(2)12-20-26(21(35)13-30)25(16-10-22(36-3)27(38-5)23(11-16)37-4)19(15-32)28(33)34(20)29-18(14-31)17-8-6-7-9-24(17)39-29/h10-11,25H,6-9,12-13,33H2,1-5H3

>  <IUPAC Name>  (1) 
2-amino-1-(3-cyano-4,5,6,7-tetrahydro-1-benzothiophen-2-yl)-7,7-dimethyl-5-oxo-4-(3,4,5-trimethoxyphenyl)-6,8-dihydro-4H-quinoline-3-carbonitrile

$$$$
