
     RDKit          3D

 52 55  0  0  0  0  0  0  0  0999 V2000
   -6.8122    3.4604    0.5552 O   0  0  0  0  0  0  0  0  0  0  0  0
   -7.2702    2.2100    0.1143 C   0  0  0  0  0  0  0  0  0  0  0  0
   -8.4941    1.9538    0.1022 O   0  0  0  0  0  0  0  0  0  0  0  0
   -6.2521    1.1808   -0.3449 C   0  0  0  0  0  0  0  0  0  0  0  0
   -6.9482   -0.0662   -0.7721 C   0  0  0  0  0  0  0  0  0  0  0  0
   -6.1663   -1.1254   -1.2208 N   0  0  0  0  0  0  0  0  0  0  0  0
   -5.3793   -1.9470   -0.4392 C   0  0  0  0  0  0  0  0  0  0  0  0
   -4.2151   -1.4344    0.3074 C   0  0  0  0  0  0  0  0  0  0  0  0
   -4.3836   -1.0199    1.6202 C   0  0  0  0  0  0  0  0  0  0  0  0
   -3.2590   -0.5796    2.2791 C   0  0  0  0  0  0  0  0  0  0  0  0
   -2.0858   -0.5747    1.6355 C   0  0  0  0  0  0  0  0  0  0  0  0
   -1.8289   -0.9718    0.3287 C   0  0  0  0  0  0  0  0  0  0  0  0
   -2.9977   -1.4199   -0.3337 C   0  0  0  0  0  0  0  0  0  0  0  0
   -0.5880   -0.8971   -0.1371 C   0  0  0  0  0  0  0  0  0  0  0  0
    0.4299   -0.4337    0.6597 C   0  0  0  0  0  0  0  0  0  0  0  0
   -0.3955   -0.0481    2.2447 S   0  0  0  0  0  0  0  0  0  0  0  0
    1.8314   -0.2252    0.4711 C   0  0  0  0  0  0  0  0  0  0  0  0
    2.5523    0.3674    1.4932 C   0  0  0  0  0  0  0  0  0  0  0  0
    3.9059    0.5621    1.3396 C   0  0  0  0  0  0  0  0  0  0  0  0
    4.5697    0.1700    0.1633 C   0  0  0  0  0  0  0  0  0  0  0  0
    3.8561   -0.4198   -0.8572 C   0  0  0  0  0  0  0  0  0  0  0  0
    2.4842   -0.6050   -0.6735 C   0  0  0  0  0  0  0  0  0  0  0  0
    4.4993   -0.8432   -2.1248 C   0  0  0  0  0  0  0  0  0  0  0  0
    3.5111   -1.3698   -2.9746 F   0  0  0  0  0  0  0  0  0  0  0  0
    5.3827   -1.9012   -1.9603 F   0  0  0  0  0  0  0  0  0  0  0  0
    5.0592    0.2024   -2.8059 F   0  0  0  0  0  0  0  0  0  0  0  0
    5.9930    0.4095    0.1431 C   0  0  0  0  0  0  0  0  0  0  0  0
    6.4140    1.7314    0.1032 C   0  0  0  0  0  0  0  0  0  0  0  0
    7.7441    2.0896    0.1158 C   0  0  0  0  0  0  0  0  0  0  0  0
    8.7135    1.1001    0.1710 C   0  0  0  0  0  0  0  0  0  0  0  0
    8.3232   -0.2158    0.2124 C   0  0  0  0  0  0  0  0  0  0  0  0
    6.9724   -0.5475    0.1984 C   0  0  0  0  0  0  0  0  0  0  0  0
   -7.4592    4.1599    0.9120 H   0  0  0  0  0  0  0  0  0  0  0  0
   -5.5410    1.1100    0.4608 H   0  0  0  0  0  0  0  0  0  0  0  0
   -5.6909    1.6277   -1.2165 H   0  0  0  0  0  0  0  0  0  0  0  0
   -7.6309   -0.4014    0.0886 H   0  0  0  0  0  0  0  0  0  0  0  0
   -7.7233    0.2073   -1.5620 H   0  0  0  0  0  0  0  0  0  0  0  0
   -5.8754   -1.0980   -2.2185 H   0  0  0  0  0  0  0  0  0  0  0  0
   -4.9778   -2.7811   -1.1018 H   0  0  0  0  0  0  0  0  0  0  0  0
   -6.0459   -2.5324    0.2973 H   0  0  0  0  0  0  0  0  0  0  0  0
   -5.3271   -1.0249    2.1336 H   0  0  0  0  0  0  0  0  0  0  0  0
   -3.3130   -0.2361    3.3086 H   0  0  0  0  0  0  0  0  0  0  0  0
   -2.9654   -1.7590   -1.3557 H   0  0  0  0  0  0  0  0  0  0  0  0
   -0.3126   -1.2045   -1.1838 H   0  0  0  0  0  0  0  0  0  0  0  0
    2.1117    0.6894    2.4175 H   0  0  0  0  0  0  0  0  0  0  0  0
    4.4625    1.0292    2.1493 H   0  0  0  0  0  0  0  0  0  0  0  0
    1.8818   -1.0696   -1.4502 H   0  0  0  0  0  0  0  0  0  0  0  0
    5.6534    2.5347    0.0561 H   0  0  0  0  0  0  0  0  0  0  0  0
    8.0111    3.1254    0.0824 H   0  0  0  0  0  0  0  0  0  0  0  0
    9.7640    1.3933    0.1800 H   0  0  0  0  0  0  0  0  0  0  0  0
    9.0784   -0.9816    0.2568 H   0  0  0  0  0  0  0  0  0  0  0  0
    6.7336   -1.5805    0.2478 H   0  0  0  0  0  0  0  0  0  0  0  0
  1  2  1  0
  2  3  2  0
  2  4  1  0
  4  5  1  0
  5  6  1  0
  6  7  1  0
  7  8  1  0
  8  9  2  0
  9 10  1  0
 10 11  2  0
 11 12  1  0
 12 13  2  0
 12 14  1  0
 14 15  2  0
 15 16  1  0
 15 17  1  0
 17 18  2  0
 18 19  1  0
 19 20  2  0
 20 21  1  0
 21 22  2  0
 21 23  1  0
 23 24  1  0
 23 25  1  0
 23 26  1  0
 20 27  1  0
 27 28  2  0
 28 29  1  0
 29 30  2  0
 30 31  1  0
 31 32  2  0
 13  8  1  0
 22 17  1  0
 32 27  1  0
 16 11  1  0
  1 33  1  0
  4 34  1  0
  4 35  1  0
  5 36  1  0
  5 37  1  0
  6 38  1  0
  7 39  1  0
  7 40  1  0
  9 41  1  0
 10 42  1  0
 13 43  1  0
 14 44  1  0
 18 45  1  0
 19 46  1  0
 22 47  1  0
 28 48  1  0
 29 49  1  0
 30 50  1  0
 31 51  1  0
 32 52  1  0
M  END
>  <Ligand ID>  (1) 
LIG0000659

>  <Ligand>  (1) 
AUY954

>  <SMILES>  (1) 
OC(=O)CCNCc1ccc2c(c1)cc(s2)c1ccc(c(c1)C(F)(F)F)c1ccccc1

>  <CID>  (1) 
11259583.0

>  <ChEMBL ID>  (1) 
nan

>  <InChiKey>  (1) 
SKYYWSWIUKISCX-UHFFFAOYSA-N

>  <InChi>  (1) 
InChI=1S/C25H20F3NO2S/c26-25(27,28)21-13-18(7-8-20(21)17-4-2-1-3-5-17)23-14-19-12-16(6-9-22(19)32-23)15-29-11-10-24(30)31/h1-9,12-14,29H,10-11,15H2,(H,30,31)

>  <IUPAC Name>  (1) 
3-[[2-[4-phenyl-3-(trifluoromethyl)phenyl]-1-benzothiophen-5-yl]methylamino]propanoic acid

$$$$
