
     RDKit          3D

 99102  0  0  0  0  0  0  0  0999 V2000
    0.2711   -4.9535    1.1271 O   0  0  0  0  0  0  0  0  0  0  0  0
   -0.0954   -4.7084   -0.0326 C   0  0  0  0  0  0  0  0  0  0  0  0
    0.9606   -4.4927   -0.9660 N   0  0  0  0  0  0  0  0  0  0  0  0
    2.3648   -4.5444   -0.6765 C   0  0  0  0  0  0  0  0  0  0  0  0
    2.7837   -3.5689    0.3908 C   0  0  0  0  0  0  0  0  0  0  0  0
    2.3054   -2.1611    0.0279 C   0  0  0  0  0  0  0  0  0  0  0  0
    2.7958   -1.2301    1.0969 C   0  0  0  0  0  0  0  0  0  0  0  0
    2.2684    0.1844    0.8940 C   0  0  1  0  0  0  0  0  0  0  0  0
    2.5931    0.7557   -0.3761 N   0  0  0  0  0  0  0  0  0  0  0  0
    3.3852    1.9376   -0.3691 C   0  0  0  0  0  0  0  0  0  0  0  0
    3.7744    2.4514    0.7323 O   0  0  0  0  0  0  0  0  0  0  0  0
    3.8124    2.6436   -1.6277 C   0  0  2  0  0  0  0  0  0  0  0  0
    4.6682    1.6933   -2.4711 C   0  0  0  0  0  0  0  0  0  0  0  0
    5.8748    1.2499   -1.7128 C   0  0  0  0  0  0  0  0  0  0  0  0
    5.8885    0.1121   -0.9320 C   0  0  0  0  0  0  0  0  0  0  0  0
    7.0338   -0.2754   -0.2385 C   0  0  0  0  0  0  0  0  0  0  0  0
    8.2060    0.4789   -0.3149 C   0  0  0  0  0  0  0  0  0  0  0  0
    8.1888    1.6130   -1.0918 C   0  0  0  0  0  0  0  0  0  0  0  0
    7.0640    1.9913   -1.7695 C   0  0  0  0  0  0  0  0  0  0  0  0
    9.3429    0.0643    0.3947 O   0  0  0  0  0  0  0  0  0  0  0  0
    4.7096    3.7123   -1.2173 N   0  0  0  0  0  0  0  0  0  0  0  0
    0.8350    0.2070    1.2457 C   0  0  0  0  0  0  0  0  0  0  0  0
    0.4828   -0.2253    2.3491 O   0  0  0  0  0  0  0  0  0  0  0  0
   -0.2044    0.6974    0.3934 N   0  0  0  0  0  0  0  0  0  0  0  0
   -1.5590    0.6669    0.8981 C   0  0  2  0  0  0  0  0  0  0  0  0
   -2.4779   -0.1885    0.1516 C   0  0  0  0  0  0  0  0  0  0  0  0
   -2.1468   -0.7554   -0.9088 O   0  0  0  0  0  0  0  0  0  0  0  0
   -3.8166   -0.4455    0.5739 N   0  0  0  0  0  0  0  0  0  0  0  0
   -4.7354   -1.3023   -0.1338 C   0  0  2  0  0  0  0  0  0  0  0  0
   -4.2249   -2.7285   -0.1238 C   0  0  0  0  0  0  0  0  0  0  0  0
   -4.8276   -3.6452   -0.7260 O   0  0  0  0  0  0  0  0  0  0  0  0
   -3.0420   -3.1449    0.5552 N   0  0  0  0  0  0  0  0  0  0  0  0
   -2.6040   -4.5811    0.4229 C   0  0  1  0  0  0  0  0  0  0  0  0
   -1.4755   -4.6150   -0.5429 C   0  0  0  0  0  0  0  0  0  0  0  0
   -2.2330   -5.0610    1.7575 C   0  0  0  0  0  0  0  0  0  0  0  0
   -1.8104   -6.1839    2.0750 O   0  0  0  0  0  0  0  0  0  0  0  0
   -2.3706   -4.1220    2.8606 N   0  0  0  0  0  0  0  0  0  0  0  0
   -4.9490   -0.9471   -1.5765 C   0  0  0  0  0  0  0  0  0  0  0  0
   -5.4494    0.4021   -1.8393 C   0  0  0  0  0  0  0  0  0  0  0  0
   -4.6158    1.5042   -2.0366 C   0  0  0  0  0  0  0  0  0  0  0  0
   -5.1304    2.7565   -2.2753 C   0  0  0  0  0  0  0  0  0  0  0  0
   -6.4770    2.9783   -2.3325 C   0  0  0  0  0  0  0  0  0  0  0  0
   -7.3436    1.9101   -2.1435 C   0  0  0  0  0  0  0  0  0  0  0  0
   -6.8207    0.6404   -1.8994 C   0  0  0  0  0  0  0  0  0  0  0  0
   -7.0879    4.3231   -2.5814 C   0  0  0  0  0  0  0  0  0  0  0  0
   -8.3163    4.4290   -1.9821 F   0  0  0  0  0  0  0  0  0  0  0  0
   -6.2567    5.2955   -1.9900 F   0  0  0  0  0  0  0  0  0  0  0  0
   -7.1357    4.5155   -3.9518 F   0  0  0  0  0  0  0  0  0  0  0  0
   -2.0535    2.0929    1.1279 C   0  0  0  0  0  0  0  0  0  0  0  0
   -1.1714    2.7549    2.1331 C   0  0  0  0  0  0  0  0  0  0  0  0
   -1.5197    2.6449    3.4881 C   0  0  0  0  0  0  0  0  0  0  0  0
   -0.7719    3.1802    4.4899 C   0  0  0  0  0  0  0  0  0  0  0  0
    0.3797    3.8584    4.1465 C   0  0  0  0  0  0  0  0  0  0  0  0
    0.7286    3.9704    2.8109 C   0  0  0  0  0  0  0  0  0  0  0  0
   -0.0302    3.4313    1.8149 C   0  0  0  0  0  0  0  0  0  0  0  0
    0.6646   -4.2860   -1.9275 H   0  0  0  0  0  0  0  0  0  0  0  0
    2.9631   -4.3581   -1.6112 H   0  0  0  0  0  0  0  0  0  0  0  0
    2.6038   -5.5714   -0.2947 H   0  0  0  0  0  0  0  0  0  0  0  0
    2.3541   -3.9060    1.3546 H   0  0  0  0  0  0  0  0  0  0  0  0
    3.8751   -3.5821    0.4640 H   0  0  0  0  0  0  0  0  0  0  0  0
    1.2022   -2.1476    0.0336 H   0  0  0  0  0  0  0  0  0  0  0  0
    2.6103   -1.8899   -0.9830 H   0  0  0  0  0  0  0  0  0  0  0  0
    2.4006   -1.5805    2.0716 H   0  0  0  0  0  0  0  0  0  0  0  0
    3.9135   -1.2551    1.1848 H   0  0  0  0  0  0  0  0  0  0  0  0
    2.7719    0.7763    1.7179 H   0  0  0  0  0  0  0  0  0  0  0  0
    2.2940    0.3733   -1.3093 H   0  0  0  0  0  0  0  0  0  0  0  0
    2.9736    3.0517   -2.1913 H   0  0  0  0  0  0  0  0  0  0  0  0
    4.0235    0.8048   -2.6603 H   0  0  0  0  0  0  0  0  0  0  0  0
    4.9665    2.2303   -3.3809 H   0  0  0  0  0  0  0  0  0  0  0  0
    4.9790   -0.5021   -0.8701 H   0  0  0  0  0  0  0  0  0  0  0  0
    6.9482   -1.1788    0.3465 H   0  0  0  0  0  0  0  0  0  0  0  0
    9.1199    2.1703   -1.1234 H   0  0  0  0  0  0  0  0  0  0  0  0
    7.0667    2.8719   -2.3746 H   0  0  0  0  0  0  0  0  0  0  0  0
    9.5717    0.5238    1.2683 H   0  0  0  0  0  0  0  0  0  0  0  0
    4.2260    4.6103   -1.0141 H   0  0  0  0  0  0  0  0  0  0  0  0
    5.1979    3.3910   -0.3235 H   0  0  0  0  0  0  0  0  0  0  0  0
    0.0983    1.0166   -0.5244 H   0  0  0  0  0  0  0  0  0  0  0  0
   -1.5631    0.2396    1.9621 H   0  0  0  0  0  0  0  0  0  0  0  0
   -4.0933    0.0342    1.4343 H   0  0  0  0  0  0  0  0  0  0  0  0
   -5.6639   -1.3611    0.4676 H   0  0  0  0  0  0  0  0  0  0  0  0
   -2.5542   -2.4605    1.1012 H   0  0  0  0  0  0  0  0  0  0  0  0
   -3.4560   -5.1868    0.0357 H   0  0  0  0  0  0  0  0  0  0  0  0
   -1.5434   -3.5888   -1.0673 H   0  0  0  0  0  0  0  0  0  0  0  0
   -1.6214   -5.3166   -1.4074 H   0  0  0  0  0  0  0  0  0  0  0  0
   -1.5689   -3.9467    3.5276 H   0  0  0  0  0  0  0  0  0  0  0  0
   -3.2921   -3.6066    2.9796 H   0  0  0  0  0  0  0  0  0  0  0  0
   -5.7182   -1.6449   -1.9781 H   0  0  0  0  0  0  0  0  0  0  0  0
   -4.0484   -1.1318   -2.1637 H   0  0  0  0  0  0  0  0  0  0  0  0
   -3.5180    1.3750   -2.0014 H   0  0  0  0  0  0  0  0  0  0  0  0
   -4.4431    3.5766   -2.4222 H   0  0  0  0  0  0  0  0  0  0  0  0
   -8.4168    2.0561   -2.1844 H   0  0  0  0  0  0  0  0  0  0  0  0
   -7.5399   -0.1527   -1.7564 H   0  0  0  0  0  0  0  0  0  0  0  0
   -2.0891    2.6828    0.1925 H   0  0  0  0  0  0  0  0  0  0  0  0
   -3.0722    2.0628    1.5429 H   0  0  0  0  0  0  0  0  0  0  0  0
   -2.4385    2.1106    3.6951 H   0  0  0  0  0  0  0  0  0  0  0  0
   -1.0246    3.1002    5.5374 H   0  0  0  0  0  0  0  0  0  0  0  0
    0.9710    4.2755    4.9508 H   0  0  0  0  0  0  0  0  0  0  0  0
    1.6343    4.5094    2.6067 H   0  0  0  0  0  0  0  0  0  0  0  0
    0.2701    3.5447    0.7656 H   0  0  0  0  0  0  0  0  0  0  0  0
  1  2  2  0
  2  3  1  0
  3  4  1  0
  4  5  1  0
  5  6  1  0
  6  7  1  0
  7  8  1  0
  8  9  1  0
  9 10  1  0
 10 11  2  0
 10 12  1  0
 12 13  1  0
 13 14  1  0
 14 15  2  0
 15 16  1  0
 16 17  2  0
 17 18  1  0
 18 19  2  0
 17 20  1  0
 12 21  1  0
  8 22  1  0
 22 23  2  0
 22 24  1  0
 24 25  1  0
 25 26  1  0
 26 27  2  0
 26 28  1  0
 28 29  1  0
 29 30  1  0
 30 31  2  0
 30 32  1  0
 32 33  1  0
 33 34  1  0
 33 35  1  0
 35 36  2  0
 35 37  1  0
 29 38  1  0
 38 39  1  0
 39 40  2  0
 40 41  1  0
 41 42  2  0
 42 43  1  0
 43 44  2  0
 42 45  1  0
 45 46  1  0
 45 47  1  0
 45 48  1  0
 25 49  1  0
 49 50  1  0
 50 51  2  0
 51 52  1  0
 52 53  2  0
 53 54  1  0
 54 55  2  0
 34  2  1  0
 44 39  1  0
 55 50  1  0
 19 14  1  0
  3 56  1  0
  4 57  1  0
  4 58  1  0
  5 59  1  0
  5 60  1  0
  6 61  1  0
  6 62  1  0
  7 63  1  0
  7 64  1  0
  8 65  1  1
  9 66  1  0
 12 67  1  6
 13 68  1  0
 13 69  1  0
 15 70  1  0
 16 71  1  0
 18 72  1  0
 19 73  1  0
 20 74  1  0
 21 75  1  0
 21 76  1  0
 24 77  1  0
 25 78  1  1
 28 79  1  0
 29 80  1  1
 32 81  1  0
 33 82  1  6
 34 83  1  0
 34 84  1  0
 37 85  1  0
 37 86  1  0
 38 87  1  0
 38 88  1  0
 40 89  1  0
 41 90  1  0
 43 91  1  0
 44 92  1  0
 49 93  1  0
 49 94  1  0
 51 95  1  0
 52 96  1  0
 53 97  1  0
 54 98  1  0
 55 99  1  0
M  END
>  <Ligand ID>  (1) 
LIG0003105

>  <Ligand>  (1) 
CHEMBL3580744

>  <SMILES>  (1) 
O=C1NCCCC[C@@H](NC(=O)[C@H](Cc2ccc(cc2)O)N)C(=O)N[C@H](C(=O)N[C@H](C(=O)N[C@@H](C1)C(=O)N)Cc1ccc(cc1)C(F)(F)F)Cc1ccccc1

>  <CID>  (1) 
122178421.0

>  <ChEMBL ID>  (1) 
nan

>  <InChiKey>  (1) 
RJZXRAGFTZLOMH-JZVHMONDSA-N

>  <InChi>  (1) 
InChI=1S/C38H44F3N7O7/c39-38(40,41)25-13-9-24(10-14-25)20-31-36(54)46-29(33(43)51)21-32(50)44-17-5-4-8-28(45-34(52)27(42)18-23-11-15-26(49)16-12-23)35(53)47-30(37(55)48-31)19-22-6-2-1-3-7-22/h1-3,6-7,9-16,27-31,49H,4-5,8,17-21,42H2,(H2,43,51)(H,44,50)(H,45,52)(H,46,54)(H,47,53)(H,48,55)/t27-,28+,29-,30-,31-/m0/s1

>  <IUPAC Name>  (1) 
(2S,5S,8S,16R)-16-[[(2S)-2-amino-3-(4-hydroxyphenyl)propanoyl]amino]-2-benzyl-3,6,10,17-tetraoxo-5-[[4-(trifluoromethyl)phenyl]methyl]-1,4,7,11-tetrazacycloheptadecane-8-carboxamide

$$$$
