
     RDKit          3D

 57 61  0  0  0  0  0  0  0  0999 V2000
   -7.4174    0.5455    3.7938 Cl  0  0  0  0  0  0  0  0  0  0  0  0
   -6.0658    0.5373    2.6617 C   0  0  0  0  0  0  0  0  0  0  0  0
   -5.1094    1.5182    2.6426 C   0  0  0  0  0  0  0  0  0  0  0  0
   -4.0744    1.4386    1.7176 C   0  0  0  0  0  0  0  0  0  0  0  0
   -3.9651    0.4082    0.8101 C   0  0  0  0  0  0  0  0  0  0  0  0
   -4.9386   -0.5659    0.8488 C   0  0  0  0  0  0  0  0  0  0  0  0
   -5.9880   -0.5058    1.7703 C   0  0  0  0  0  0  0  0  0  0  0  0
   -2.8291    0.3730   -0.1659 C   0  0  0  0  0  0  0  0  0  0  0  0
   -1.7280   -0.3238    0.5100 C   0  0  0  0  0  0  0  0  0  0  0  0
   -1.8519   -1.5830    1.0548 C   0  0  0  0  0  0  0  0  0  0  0  0
   -0.8029   -2.2232    1.6787 C   0  0  0  0  0  0  0  0  0  0  0  0
    0.3898   -1.5753    1.7508 C   0  0  0  0  0  0  0  0  0  0  0  0
    0.5921   -0.3145    1.2300 C   0  0  0  0  0  0  0  0  0  0  0  0
   -0.4755    0.2905    0.6165 C   0  0  0  0  0  0  0  0  0  0  0  0
    1.8360    0.3074    1.3302 C   0  0  0  0  0  0  0  0  0  0  0  0
    2.7917   -0.3895    1.9513 N   0  0  0  0  0  0  0  0  0  0  0  0
    2.6308   -1.6156    2.4690 C   0  0  0  0  0  0  0  0  0  0  0  0
    1.4134   -2.2156    2.3669 N   0  0  0  0  0  0  0  0  0  0  0  0
    2.0620    1.6004    0.8066 N   0  0  0  0  0  0  0  0  0  0  0  0
    3.3274    2.3058    0.8724 C   0  0  0  0  0  0  0  0  0  0  0  0
    4.3949    1.6084    0.1524 C   0  0  0  0  0  0  0  0  0  0  0  0
    4.4952    1.8095   -1.2249 C   0  0  0  0  0  0  0  0  0  0  0  0
    5.4784    1.2108   -1.9849 C   0  0  0  0  0  0  0  0  0  0  0  0
    6.3978    0.3842   -1.3734 C   0  0  0  0  0  0  0  0  0  0  0  0
    6.3347    0.1591   -0.0164 C   0  0  0  0  0  0  0  0  0  0  0  0
    5.3342    0.7779    0.7113 C   0  0  0  0  0  0  0  0  0  0  0  0
    7.4396   -0.2522   -2.1708 C   0  0  0  0  0  0  0  0  0  0  0  0
    7.5037   -0.0514   -3.4108 O   0  0  0  0  0  0  0  0  0  0  0  0
    8.3741   -1.0861   -1.5803 O   0  0  0  0  0  0  0  0  0  0  0  0
   -3.2057   -0.2696   -1.4280 C   0  0  0  0  0  0  0  0  0  0  0  0
   -4.0288    0.4682   -2.2894 C   0  0  0  0  0  0  0  0  0  0  0  0
   -4.4317   -0.0443   -3.5051 C   0  0  0  0  0  0  0  0  0  0  0  0
   -4.0518   -1.2970   -3.9369 C   0  0  0  0  0  0  0  0  0  0  0  0
   -3.2398   -2.0307   -3.0930 C   0  0  0  0  0  0  0  0  0  0  0  0
   -2.8342   -1.5072   -1.8625 C   0  0  0  0  0  0  0  0  0  0  0  0
   -4.5899   -1.8883   -5.4755 Cl  0  0  0  0  0  0  0  0  0  0  0  0
   -5.1776    2.3368    3.3480 H   0  0  0  0  0  0  0  0  0  0  0  0
   -3.3428    2.2392    1.7428 H   0  0  0  0  0  0  0  0  0  0  0  0
   -4.9059   -1.3975    0.1612 H   0  0  0  0  0  0  0  0  0  0  0  0
   -6.7248   -1.3179    1.7403 H   0  0  0  0  0  0  0  0  0  0  0  0
   -2.5292    1.4511   -0.3349 H   0  0  0  0  0  0  0  0  0  0  0  0
   -2.7895   -2.1207    1.0186 H   0  0  0  0  0  0  0  0  0  0  0  0
   -0.9243   -3.2209    2.1029 H   0  0  0  0  0  0  0  0  0  0  0  0
   -0.4023    1.2630    0.1888 H   0  0  0  0  0  0  0  0  0  0  0  0
    3.4637   -2.0767    2.9425 H   0  0  0  0  0  0  0  0  0  0  0  0
    1.2896    2.1444    0.3189 H   0  0  0  0  0  0  0  0  0  0  0  0
    3.6148    2.3255    1.9662 H   0  0  0  0  0  0  0  0  0  0  0  0
    3.2286    3.3729    0.5815 H   0  0  0  0  0  0  0  0  0  0  0  0
    3.7743    2.4596   -1.7140 H   0  0  0  0  0  0  0  0  0  0  0  0
    5.5646    1.3603   -3.0529 H   0  0  0  0  0  0  0  0  0  0  0  0
    7.0542   -0.4891    0.4692 H   0  0  0  0  0  0  0  0  0  0  0  0
    5.3294    0.5851    1.7727 H   0  0  0  0  0  0  0  0  0  0  0  0
    8.8661   -1.8149   -2.0861 H   0  0  0  0  0  0  0  0  0  0  0  0
   -4.3633    1.4667   -2.0042 H   0  0  0  0  0  0  0  0  0  0  0  0
   -5.0742    0.5848   -4.1289 H   0  0  0  0  0  0  0  0  0  0  0  0
   -2.9161   -3.0198   -3.3897 H   0  0  0  0  0  0  0  0  0  0  0  0
   -2.2029   -2.1363   -1.2743 H   0  0  0  0  0  0  0  0  0  0  0  0
  1  2  1  0
  2  3  2  0
  3  4  1  0
  4  5  2  0
  5  6  1  0
  6  7  2  0
  5  8  1  0
  8  9  1  0
  9 10  2  0
 10 11  1  0
 11 12  2  0
 12 13  1  0
 13 14  2  0
 13 15  1  0
 15 16  2  0
 16 17  1  0
 17 18  2  0
 15 19  1  0
 19 20  1  0
 20 21  1  0
 21 22  2  0
 22 23  1  0
 23 24  2  0
 24 25  1  0
 25 26  2  0
 24 27  1  0
 27 28  2  0
 27 29  1  0
  8 30  1  0
 30 31  2  0
 31 32  1  0
 32 33  2  0
 33 34  1  0
 34 35  2  0
 33 36  1  0
  7  2  1  0
 14  9  1  0
 26 21  1  0
 35 30  1  0
 18 12  1  0
  3 37  1  0
  4 38  1  0
  6 39  1  0
  7 40  1  0
  8 41  1  0
 10 42  1  0
 11 43  1  0
 14 44  1  0
 17 45  1  0
 19 46  1  0
 20 47  1  0
 20 48  1  0
 22 49  1  0
 23 50  1  0
 25 51  1  0
 26 52  1  0
 29 53  1  0
 31 54  1  0
 32 55  1  0
 34 56  1  0
 35 57  1  0
M  END
>  <Ligand ID>  (1) 
LIG0005953

>  <Ligand>  (1) 
SCHEMBL17557682

>  <SMILES>  (1) 
Clc1ccc(cc1)C(c1ccc2c(c1)c(ncn2)NCc1ccc(cc1)C(=O)O)c1ccc(cc1)Cl

>  <CID>  (1) 
118916161.0

>  <ChEMBL ID>  (1) 
nan

>  <InChiKey>  (1) 
HDBLJKNAWUHBNB-UHFFFAOYSA-N

>  <InChi>  (1) 
InChI=1S/C29H21Cl2N3O2/c30-23-10-5-19(6-11-23)27(20-7-12-24(31)13-8-20)22-9-14-26-25(15-22)28(34-17-33-26)32-16-18-1-3-21(4-2-18)29(35)36/h1-15,17,27H,16H2,(H,35,36)(H,32,33,34)

>  <IUPAC Name>  (1) 
4-[[[6-[bis(4-chlorophenyl)methyl]quinazolin-4-yl]amino]methyl]benzoic acid

$$$$
