
     RDKit          3D

111114  0  0  0  0  0  0  0  0999 V2000
    9.7216   -2.4545   -1.6935 C   0  0  0  0  0  0  0  0  0  0  0  0
   10.5015   -1.0322   -0.9407 S   0  0  0  0  0  0  0  0  0  0  0  0
    9.9732   -0.6225    0.7094 C   0  0  0  0  0  0  0  0  0  0  0  0
    8.5728   -0.1580    0.8686 C   0  0  0  0  0  0  0  0  0  0  0  0
    7.4788   -1.0994    0.5531 C   0  0  1  0  0  0  0  0  0  0  0  0
    7.3964   -2.3227    1.3618 C   0  0  0  0  0  0  0  0  0  0  0  0
    6.2406   -2.6677    1.8139 O   0  0  0  0  0  0  0  0  0  0  0  0
    8.4529   -3.1842    1.7139 N   0  0  0  0  0  0  0  0  0  0  0  0
    6.2207   -0.3829    0.4929 N   0  0  0  0  0  0  0  0  0  0  0  0
    5.4595   -0.0207    1.6460 C   0  0  0  0  0  0  0  0  0  0  0  0
    5.9115   -0.3261    2.8042 O   0  0  0  0  0  0  0  0  0  0  0  0
    4.1861    0.6774    1.5337 C   0  0  2  0  0  0  0  0  0  0  0  0
    3.0287   -0.2340    1.5952 N   0  0  0  0  0  0  0  0  0  0  0  0
    2.0217   -0.3325    2.6272 C   0  0  0  0  0  0  0  0  0  0  0  0
    1.1599   -1.4762    2.2157 C   0  0  2  0  0  0  0  0  0  0  0  0
    1.4471   -1.7020    0.7765 C   0  0  2  0  0  0  0  0  0  0  0  0
    2.7835   -1.1714    0.5574 C   0  0  0  0  0  0  0  0  0  0  0  0
    3.5380   -1.5257   -0.3996 O   0  0  0  0  0  0  0  0  0  0  0  0
    0.3610   -1.0281    0.0344 N   0  0  0  0  0  0  0  0  0  0  0  0
   -0.7863   -1.3388    0.8655 C   0  0  0  0  0  0  0  0  0  0  0  0
   -0.2962   -1.1414    2.2913 C   0  0  0  0  0  0  0  0  0  0  0  0
    0.5200   -0.3098   -1.1558 C   0  0  0  0  0  0  0  0  0  0  0  0
    1.7336   -0.2222   -1.5909 O   0  0  0  0  0  0  0  0  0  0  0  0
   -0.4750    0.3583   -1.9944 C   0  0  2  0  0  0  0  0  0  0  0  0
   -0.1487    1.8128   -2.2411 C   0  0  0  0  0  0  0  0  0  0  0  0
   -1.1935    2.4099   -3.1038 C   0  0  0  0  0  0  0  0  0  0  0  0
   -2.3292    3.0307   -2.6136 C   0  0  0  0  0  0  0  0  0  0  0  0
   -3.2829    3.5777   -3.4650 C   0  0  0  0  0  0  0  0  0  0  0  0
   -3.1229    3.5171   -4.8292 C   0  0  0  0  0  0  0  0  0  0  0  0
   -2.0041    2.9065   -5.3287 C   0  0  0  0  0  0  0  0  0  0  0  0
   -1.0376    2.3522   -4.4916 C   0  0  0  0  0  0  0  0  0  0  0  0
   -1.8022    0.2701   -1.4620 N   0  0  0  0  0  0  0  0  0  0  0  0
   -2.6958   -0.7100   -1.9407 C   0  0  0  0  0  0  0  0  0  0  0  0
   -2.2502   -1.5005   -2.8459 O   0  0  0  0  0  0  0  0  0  0  0  0
   -4.0778   -0.9186   -1.5111 C   0  0  2  0  0  0  0  0  0  0  0  0
   -5.0047   -1.1680   -2.6975 C   0  0  0  0  0  0  0  0  0  0  0  0
   -6.3805   -1.3725   -2.1692 C   0  0  0  0  0  0  0  0  0  0  0  0
   -6.8058   -2.6461   -1.8149 C   0  0  0  0  0  0  0  0  0  0  0  0
   -8.0952   -2.8302   -1.3261 C   0  0  0  0  0  0  0  0  0  0  0  0
   -8.9213   -1.7405   -1.2046 C   0  0  0  0  0  0  0  0  0  0  0  0
   -8.5148   -0.4507   -1.5543 C   0  0  0  0  0  0  0  0  0  0  0  0
   -7.2166   -0.2747   -2.0454 C   0  0  0  0  0  0  0  0  0  0  0  0
   -4.6097    0.0399   -0.5945 N   0  0  0  0  0  0  0  0  0  0  0  0
   -5.2224   -0.2904    0.6586 C   0  0  0  0  0  0  0  0  0  0  0  0
   -5.3249   -1.4924    1.0334 O   0  0  0  0  0  0  0  0  0  0  0  0
   -5.7154    0.8592    1.4548 C   0  0  0  0  0  0  0  0  0  0  0  0
   -6.5866    0.4777    2.6215 C   0  0  0  0  0  0  0  0  0  0  0  0
   -7.8100   -0.2353    2.1318 C   0  0  0  0  0  0  0  0  0  0  0  0
   -8.7340   -0.6095    3.2865 C   0  0  0  0  0  0  0  0  0  0  0  0
   -8.0949   -1.4817    4.2368 N   0  0  0  0  0  0  0  0  0  0  0  0
    4.0304    1.7344    0.5156 C   0  0  0  0  0  0  0  0  0  0  0  0
    4.8871    2.9354    0.6126 C   0  0  0  0  0  0  0  0  0  0  0  0
    4.7053    3.6918    1.9186 C   0  0  0  0  0  0  0  0  0  0  0  0
    6.3532    2.7016    0.4423 C   0  0  0  0  0  0  0  0  0  0  0  0
   10.4559   -3.1094   -2.2304 H   0  0  0  0  0  0  0  0  0  0  0  0
    8.9248   -2.1126   -2.3925 H   0  0  0  0  0  0  0  0  0  0  0  0
    9.2620   -3.1002   -0.9342 H   0  0  0  0  0  0  0  0  0  0  0  0
   10.2383   -1.4802    1.3675 H   0  0  0  0  0  0  0  0  0  0  0  0
   10.6234    0.2195    1.1057 H   0  0  0  0  0  0  0  0  0  0  0  0
    8.4482    0.7196    0.1525 H   0  0  0  0  0  0  0  0  0  0  0  0
    8.4030    0.3443    1.8687 H   0  0  0  0  0  0  0  0  0  0  0  0
    7.6496   -1.4017   -0.5472 H   0  0  0  0  0  0  0  0  0  0  0  0
    8.9345   -2.9823    2.6410 H   0  0  0  0  0  0  0  0  0  0  0  0
    8.8095   -3.9847    1.1916 H   0  0  0  0  0  0  0  0  0  0  0  0
    5.7939   -0.0783   -0.4273 H   0  0  0  0  0  0  0  0  0  0  0  0
    4.0859    1.2510    2.5356 H   0  0  0  0  0  0  0  0  0  0  0  0
    1.4233    0.6003    2.5642 H   0  0  0  0  0  0  0  0  0  0  0  0
    2.4466   -0.4725    3.6491 H   0  0  0  0  0  0  0  0  0  0  0  0
    1.4030   -2.3975    2.8181 H   0  0  0  0  0  0  0  0  0  0  0  0
    1.3734   -2.7983    0.5088 H   0  0  0  0  0  0  0  0  0  0  0  0
   -1.6752   -0.7609    0.7239 H   0  0  0  0  0  0  0  0  0  0  0  0
   -1.0665   -2.4113    0.7965 H   0  0  0  0  0  0  0  0  0  0  0  0
   -0.4816   -0.0817    2.5766 H   0  0  0  0  0  0  0  0  0  0  0  0
   -0.7902   -1.8334    2.9829 H   0  0  0  0  0  0  0  0  0  0  0  0
   -0.5260   -0.1482   -3.0112 H   0  0  0  0  0  0  0  0  0  0  0  0
   -0.2075    2.3489   -1.2466 H   0  0  0  0  0  0  0  0  0  0  0  0
    0.8159    1.9886   -2.7254 H   0  0  0  0  0  0  0  0  0  0  0  0
   -2.5025    3.1108   -1.5523 H   0  0  0  0  0  0  0  0  0  0  0  0
   -4.1569    4.0558   -3.0637 H   0  0  0  0  0  0  0  0  0  0  0  0
   -3.8754    3.9474   -5.4755 H   0  0  0  0  0  0  0  0  0  0  0  0
   -1.8515    2.8436   -6.4092 H   0  0  0  0  0  0  0  0  0  0  0  0
   -0.1511    1.8688   -4.9285 H   0  0  0  0  0  0  0  0  0  0  0  0
   -2.1366    0.9281   -0.7310 H   0  0  0  0  0  0  0  0  0  0  0  0
   -4.1154   -1.9087   -0.9554 H   0  0  0  0  0  0  0  0  0  0  0  0
   -4.9269   -0.4173   -3.4842 H   0  0  0  0  0  0  0  0  0  0  0  0
   -4.6806   -2.1446   -3.1257 H   0  0  0  0  0  0  0  0  0  0  0  0
   -6.1500   -3.5225   -1.9083 H   0  0  0  0  0  0  0  0  0  0  0  0
   -8.4702   -3.8042   -1.0392 H   0  0  0  0  0  0  0  0  0  0  0  0
   -9.9341   -1.8265   -0.8279 H   0  0  0  0  0  0  0  0  0  0  0  0
   -9.1883    0.4051   -1.4490 H   0  0  0  0  0  0  0  0  0  0  0  0
   -6.9113    0.7362   -2.3148 H   0  0  0  0  0  0  0  0  0  0  0  0
   -4.5332    1.0616   -0.8898 H   0  0  0  0  0  0  0  0  0  0  0  0
   -4.8129    1.4327    1.8317 H   0  0  0  0  0  0  0  0  0  0  0  0
   -6.2495    1.5936    0.8143 H   0  0  0  0  0  0  0  0  0  0  0  0
   -6.8563    1.3860    3.2099 H   0  0  0  0  0  0  0  0  0  0  0  0
   -6.0553   -0.1873    3.3327 H   0  0  0  0  0  0  0  0  0  0  0  0
   -8.3539    0.4257    1.4248 H   0  0  0  0  0  0  0  0  0  0  0  0
   -7.5084   -1.1715    1.6280 H   0  0  0  0  0  0  0  0  0  0  0  0
   -9.1018    0.3072    3.8032 H   0  0  0  0  0  0  0  0  0  0  0  0
   -9.6288   -1.1234    2.8657 H   0  0  0  0  0  0  0  0  0  0  0  0
   -7.4577   -2.1707    3.8043 H   0  0  0  0  0  0  0  0  0  0  0  0
   -8.7773   -2.0102    4.8211 H   0  0  0  0  0  0  0  0  0  0  0  0
    4.0194    1.3288   -0.5429 H   0  0  0  0  0  0  0  0  0  0  0  0
    2.9629    2.1097    0.6200 H   0  0  0  0  0  0  0  0  0  0  0  0
    4.6146    3.7111   -0.1762 H   0  0  0  0  0  0  0  0  0  0  0  0
    5.4041    4.5597    1.8761 H   0  0  0  0  0  0  0  0  0  0  0  0
    3.6914    4.1318    2.0222 H   0  0  0  0  0  0  0  0  0  0  0  0
    5.0195    3.0979    2.8023 H   0  0  0  0  0  0  0  0  0  0  0  0
    6.8255    3.7254    0.4122 H   0  0  0  0  0  0  0  0  0  0  0  0
    6.5352    2.1686   -0.4962 H   0  0  0  0  0  0  0  0  0  0  0  0
    6.8235    2.1536    1.3022 H   0  0  0  0  0  0  0  0  0  0  0  0
  1  2  1  0
  2  3  1  0
  3  4  1  0
  4  5  1  0
  5  6  1  0
  6  7  2  0
  6  8  1  0
  5  9  1  0
  9 10  1  0
 10 11  2  0
 10 12  1  0
 12 13  1  0
 13 14  1  0
 14 15  1  0
 15 16  1  0
 16 17  1  0
 17 18  2  0
 16 19  1  0
 19 20  1  0
 20 21  1  0
 19 22  1  0
 22 23  2  0
 22 24  1  0
 24 25  1  0
 25 26  1  0
 26 27  2  0
 27 28  1  0
 28 29  2  0
 29 30  1  0
 30 31  2  0
 24 32  1  0
 32 33  1  0
 33 34  2  0
 33 35  1  0
 35 36  1  0
 36 37  1  0
 37 38  2  0
 38 39  1  0
 39 40  2  0
 40 41  1  0
 41 42  2  0
 35 43  1  0
 43 44  1  0
 44 45  2  0
 44 46  1  0
 46 47  1  0
 47 48  1  0
 48 49  1  0
 49 50  1  0
 12 51  1  0
 51 52  1  0
 52 53  1  0
 52 54  1  0
 17 13  1  0
 31 26  1  0
 42 37  1  0
 21 15  1  0
  1 55  1  0
  1 56  1  0
  1 57  1  0
  3 58  1  0
  3 59  1  0
  4 60  1  0
  4 61  1  0
  5 62  1  6
  8 63  1  0
  8 64  1  0
  9 65  1  0
 12 66  1  1
 14 67  1  0
 14 68  1  0
 15 69  1  1
 16 70  1  1
 20 71  1  0
 20 72  1  0
 21 73  1  0
 21 74  1  0
 24 75  1  6
 25 76  1  0
 25 77  1  0
 27 78  1  0
 28 79  1  0
 29 80  1  0
 30 81  1  0
 31 82  1  0
 32 83  1  0
 35 84  1  1
 36 85  1  0
 36 86  1  0
 38 87  1  0
 39 88  1  0
 40 89  1  0
 41 90  1  0
 42 91  1  0
 43 92  1  0
 46 93  1  0
 46 94  1  0
 47 95  1  0
 47 96  1  0
 48 97  1  0
 48 98  1  0
 49 99  1  0
 49100  1  0
 50101  1  0
 50102  1  0
 51103  1  0
 51104  1  0
 52105  1  0
 53106  1  0
 53107  1  0
 53108  1  0
 54109  1  0
 54110  1  0
 54111  1  0
M  END
>  <Ligand ID>  (1) 
LIG0003451

>  <Ligand>  (1) 
CHEMBL337037

>  <SMILES>  (1) 
CSCC[C@@H](C(=O)N)NC(=O)[C@H](N1C[C@@H]2[C@H](C1=O)N(CC2)C(=O)[C@H](Cc1ccccc1)NC(=O)[C@H](Cc1ccccc1)NC(=O)CCCCN)CC(C)C

>  <CID>  (1) 
10395375.0

>  <ChEMBL ID>  (1) 
nan

>  <InChiKey>  (1) 
URIRKOHAMZPMCD-VYFUELDASA-N

>  <InChi>  (1) 
InChI=1S/C40H57N7O6S/c1-26(2)22-33(38(51)44-30(36(42)49)18-21-54-3)47-25-29-17-20-46(35(29)40(47)53)39(52)32(24-28-14-8-5-9-15-28)45-37(50)31(23-27-12-6-4-7-13-27)43-34(48)16-10-11-19-41/h4-9,12-15,26,29-33,35H,10-11,16-25,41H2,1-3H3,(H2,42,49)(H,43,48)(H,44,51)(H,45,50)/t29-,30+,31+,32+,33-,35-/m1/s1

>  <IUPAC Name>  (1) 
(2R)-2-[(3aR,6aR)-1-[(2S)-2-[[(2S)-2-(5-aminopentanoylamino)-3-phenylpropanoyl]amino]-3-phenylpropanoyl]-6-oxo-3,3a,4,6a-tetrahydro-2H-pyrrolo[2,3-c]pyrrol-5-yl]-N-[(2S)-1-amino-4-methylsulfanyl-1-oxobutan-2-yl]-4-methylpentanamide

$$$$
