
     RDKit          3D

 60 62  0  0  0  0  0  0  0  0999 V2000
    6.5572    0.9184    2.4660 C   0  0  0  0  0  0  0  0  0  0  0  0
    7.4770    0.6247    1.5755 C   0  0  0  0  0  0  0  0  0  0  0  0
    7.6717   -0.6534    0.8902 C   0  0  0  0  0  0  0  0  0  0  0  0
    6.5074   -1.5744    1.1364 C   0  0  0  0  0  0  0  0  0  0  0  0
    5.2913   -0.9442    0.5133 C   0  0  0  0  0  0  0  0  0  0  0  0
    4.6866   -1.6579   -0.4247 C   0  0  0  0  0  0  0  0  0  0  0  0
    3.4673   -1.2178   -1.1670 C   0  0  2  0  0  0  0  0  0  0  0  0
    3.0747    0.1953   -0.9291 C   0  0  0  0  0  0  0  0  0  0  0  0
    2.0774    0.3815    0.2066 C   0  0  0  0  0  0  0  0  0  0  0  0
    0.8272   -0.3770   -0.1099 C   0  0  0  0  0  0  0  0  0  0  0  0
    1.0406   -1.6358   -0.6665 C   0  0  0  0  0  0  0  0  0  0  0  0
    2.3846   -2.2011   -0.9085 C   0  0  0  0  0  0  0  0  0  0  0  0
   -0.1062   -2.3498   -0.9777 C   0  0  0  0  0  0  0  0  0  0  0  0
   -1.3752   -1.8566   -0.7549 C   0  0  0  0  0  0  0  0  0  0  0  0
   -1.5498   -0.6087   -0.2028 C   0  0  0  0  0  0  0  0  0  0  0  0
   -0.4317    0.1307    0.1195 C   0  0  0  0  0  0  0  0  0  0  0  0
   -2.9195   -0.1254    0.0165 C   0  0  1  0  0  0  0  0  0  0  0  0
   -3.1110    0.2143    1.4573 C   0  0  0  0  0  0  0  0  0  0  0  0
   -3.6150    1.6321    1.4950 C   0  0  0  0  0  0  0  0  0  0  0  0
   -4.2554    1.7927    0.1465 C   0  0  2  0  0  0  0  0  0  0  0  0
   -3.2155    1.1518   -0.7683 C   0  0  0  0  0  0  0  0  0  0  0  0
   -4.4591    3.1863   -0.1888 N   0  0  0  0  0  0  0  0  0  0  0  0
   -5.5320    1.0287   -0.0314 C   0  0  0  0  0  0  0  0  0  0  0  0
   -5.8975    1.1621   -1.3773 O   0  0  0  0  0  0  0  0  0  0  0  0
   -7.3236    0.3468   -1.7233 P   0  0  0  0  0  0  0  0  0  0  0  0
   -6.9343   -0.8291   -2.6237 O   0  0  0  0  0  0  0  0  0  0  0  0
   -8.4185    1.2615   -2.6101 O   0  0  0  0  0  0  0  0  0  0  0  0
   -8.0306   -0.3218   -0.3442 O   0  0  0  0  0  0  0  0  0  0  0  0
    5.7912    0.2333    2.8307 H   0  0  0  0  0  0  0  0  0  0  0  0
    6.5086    1.9169    2.9114 H   0  0  0  0  0  0  0  0  0  0  0  0
    8.1783    1.4325    1.3182 H   0  0  0  0  0  0  0  0  0  0  0  0
    7.7699   -0.4757   -0.2138 H   0  0  0  0  0  0  0  0  0  0  0  0
    8.6395   -1.1408    1.1685 H   0  0  0  0  0  0  0  0  0  0  0  0
    6.3526   -1.6401    2.2400 H   0  0  0  0  0  0  0  0  0  0  0  0
    6.6756   -2.5789    0.7420 H   0  0  0  0  0  0  0  0  0  0  0  0
    4.8966    0.0038    0.7561 H   0  0  0  0  0  0  0  0  0  0  0  0
    5.0708   -2.6483   -0.7118 H   0  0  0  0  0  0  0  0  0  0  0  0
    3.6789   -1.2889   -2.2868 H   0  0  0  0  0  0  0  0  0  0  0  0
    2.5665    0.5745   -1.8667 H   0  0  0  0  0  0  0  0  0  0  0  0
    3.9168    0.8663   -0.7601 H   0  0  0  0  0  0  0  0  0  0  0  0
    2.5410    0.0391    1.1427 H   0  0  0  0  0  0  0  0  0  0  0  0
    1.8531    1.4621    0.2649 H   0  0  0  0  0  0  0  0  0  0  0  0
    2.2454   -2.9114   -1.7783 H   0  0  0  0  0  0  0  0  0  0  0  0
    2.6689   -2.8348   -0.0118 H   0  0  0  0  0  0  0  0  0  0  0  0
    0.0471   -3.3433   -1.4174 H   0  0  0  0  0  0  0  0  0  0  0  0
   -2.2127   -2.4858   -1.0298 H   0  0  0  0  0  0  0  0  0  0  0  0
   -0.5336    1.1094    0.5524 H   0  0  0  0  0  0  0  0  0  0  0  0
   -3.6341   -0.9015   -0.3210 H   0  0  0  0  0  0  0  0  0  0  0  0
   -2.2063    0.1717    2.0809 H   0  0  0  0  0  0  0  0  0  0  0  0
   -3.8501   -0.4678    1.9638 H   0  0  0  0  0  0  0  0  0  0  0  0
   -4.3047    1.8233    2.3353 H   0  0  0  0  0  0  0  0  0  0  0  0
   -2.7211    2.3002    1.4909 H   0  0  0  0  0  0  0  0  0  0  0  0
   -3.6368    0.9270   -1.7564 H   0  0  0  0  0  0  0  0  0  0  0  0
   -2.3485    1.8139   -0.7878 H   0  0  0  0  0  0  0  0  0  0  0  0
   -3.7380    3.7767    0.2585 H   0  0  0  0  0  0  0  0  0  0  0  0
   -5.3735    3.4595    0.2791 H   0  0  0  0  0  0  0  0  0  0  0  0
   -5.4135   -0.0385    0.1781 H   0  0  0  0  0  0  0  0  0  0  0  0
   -6.3493    1.3884    0.6255 H   0  0  0  0  0  0  0  0  0  0  0  0
   -7.9481    2.0558   -2.9512 H   0  0  0  0  0  0  0  0  0  0  0  0
   -9.0183   -0.2727   -0.3579 H   0  0  0  0  0  0  0  0  0  0  0  0
  1  2  2  0
  2  3  1  0
  3  4  1  0
  4  5  1  0
  5  6  2  0
  6  7  1  0
  7  8  1  0
  8  9  1  0
  9 10  1  0
 10 11  2  0
 11 12  1  0
 11 13  1  0
 13 14  2  0
 14 15  1  0
 15 16  2  0
 15 17  1  0
 17 18  1  0
 18 19  1  0
 19 20  1  0
 20 21  1  0
 20 22  1  6
 20 23  1  0
 23 24  1  0
 24 25  1  0
 25 26  2  0
 25 27  1  0
 25 28  1  0
 12  7  1  0
 21 17  1  0
 16 10  1  0
  1 29  1  0
  1 30  1  0
  2 31  1  0
  3 32  1  0
  3 33  1  0
  4 34  1  0
  4 35  1  0
  5 36  1  0
  6 37  1  0
  7 38  1  6
  8 39  1  0
  8 40  1  0
  9 41  1  0
  9 42  1  0
 12 43  1  0
 12 44  1  0
 13 45  1  0
 14 46  1  0
 16 47  1  0
 17 48  1  6
 18 49  1  0
 18 50  1  0
 19 51  1  0
 19 52  1  0
 21 53  1  0
 21 54  1  0
 22 55  1  0
 22 56  1  0
 23 57  1  0
 23 58  1  0
 27 59  1  0
 28 60  1  0
M  END
>  <Ligand ID>  (1) 
LIG0005614

>  <Ligand>  (1) 
BDBM65326

>  <SMILES>  (1) 
C=CCC/C=C/[C@@H]1CCc2c(C1)ccc(c2)[C@H]1CC[C@](C1)(N)COP(=O)(O)O

>  <CID>  (1) 
131953764.0

>  <ChEMBL ID>  (1) 
nan

>  <InChiKey>  (1) 
XBPWSCOKZCXAOD-MKBVPBAWSA-N

>  <InChi>  (1) 
InChI=1S/C22H32NO4P/c1-2-3-4-5-6-17-7-8-19-14-20(10-9-18(19)13-17)21-11-12-22(23,15-21)16-27-28(24,25)26/h2,5-6,9-10,14,17,21H,1,3-4,7-8,11-13,15-16,23H2,(H2,24,25,26)/b6-5+/t17-,21+,22-/m1/s1

>  <IUPAC Name>  (1) 
[(1R,3S)-1-amino-3-[(6R)-6-[(1E)-hexa-1,5-dienyl]-5,6,7,8-tetrahydronaphthalen-2-yl]cyclopentyl]methyl dihydrogen phosphate

$$$$
