
     RDKit          3D

 68 70  0  0  0  0  0  0  0  0999 V2000
   -2.9423   -1.5214   -2.9626 C   0  0  0  0  0  0  0  0  0  0  0  0
   -4.0932   -0.5854   -2.7987 C   0  0  0  0  0  0  0  0  0  0  0  0
   -4.6791   -0.5992   -1.4572 N   0  0  0  0  0  0  0  0  0  0  0  0
   -3.9500   -0.1470   -0.3415 C   0  0  0  0  0  0  0  0  0  0  0  0
   -2.6592    0.3400   -0.5737 C   0  0  0  0  0  0  0  0  0  0  0  0
   -1.8474    0.8152    0.4093 C   0  0  0  0  0  0  0  0  0  0  0  0
   -2.3157    0.8199    1.6989 C   0  0  0  0  0  0  0  0  0  0  0  0
   -3.6050    0.3374    1.9516 C   0  0  0  0  0  0  0  0  0  0  0  0
   -4.4239   -0.1431    0.9550 C   0  0  0  0  0  0  0  0  0  0  0  0
   -5.7515   -0.6274    1.2819 C   0  0  0  0  0  0  0  0  0  0  0  0
   -6.5854   -1.0916    0.4725 O   0  0  0  0  0  0  0  0  0  0  0  0
   -6.2011   -0.5936    2.6430 N   0  0  0  0  0  0  0  0  0  0  0  0
   -7.8204   -1.2037    2.8984 S   0  0  0  0  0  0  0  0  0  0  0  0
   -8.1458   -2.2857    1.9103 O   0  0  0  0  0  0  0  0  0  0  0  0
   -7.8522   -1.7529    4.2955 O   0  0  0  0  0  0  0  0  0  0  0  0
   -9.0243    0.0912    2.7690 C   0  0  0  0  0  0  0  0  0  0  0  0
   -0.4995    1.3294    0.1774 C   0  0  0  0  0  0  0  0  0  0  0  0
    0.4499    1.1694    1.1753 C   0  0  0  0  0  0  0  0  0  0  0  0
    1.7527    1.6354    1.0352 C   0  0  0  0  0  0  0  0  0  0  0  0
    2.1108    2.2759   -0.1314 C   0  0  0  0  0  0  0  0  0  0  0  0
    1.1663    2.4472   -1.1511 C   0  0  0  0  0  0  0  0  0  0  0  0
   -0.1390    1.9710   -0.9903 C   0  0  0  0  0  0  0  0  0  0  0  0
    3.4616    2.8163   -0.3972 C   0  0  0  0  0  0  0  0  0  0  0  0
    4.4038    1.8834   -1.0657 C   0  0  0  0  0  0  0  0  0  0  0  0
    4.7021    0.6702   -0.3785 N   0  0  0  0  0  0  0  0  0  0  0  0
    5.4673    0.9085    0.8212 C   0  0  0  0  0  0  0  0  0  0  0  0
    5.7676   -0.4250    1.4770 C   0  0  1  0  0  0  0  0  0  0  0  0
    6.4628   -1.3264    0.5164 C   0  0  0  0  0  0  0  0  0  0  0  0
    7.8197   -1.0623    0.3149 C   0  0  0  0  0  0  0  0  0  0  0  0
    8.5803   -1.8235   -0.5474 C   0  0  0  0  0  0  0  0  0  0  0  0
    7.9504   -2.8669   -1.2127 C   0  0  0  0  0  0  0  0  0  0  0  0
    6.5923   -3.1385   -1.0168 C   0  0  0  0  0  0  0  0  0  0  0  0
    5.8302   -2.3605   -0.1403 C   0  0  0  0  0  0  0  0  0  0  0  0
    6.5018   -0.2601    2.6452 O   0  0  0  0  0  0  0  0  0  0  0  0
   -5.1401   -0.9237   -3.8306 C   0  0  0  0  0  0  0  0  0  0  0  0
   -2.5337   -1.9429   -2.0260 H   0  0  0  0  0  0  0  0  0  0  0  0
   -3.2295   -2.3779   -3.6486 H   0  0  0  0  0  0  0  0  0  0  0  0
   -2.1453   -0.9973   -3.5277 H   0  0  0  0  0  0  0  0  0  0  0  0
   -3.7512    0.4686   -2.9547 H   0  0  0  0  0  0  0  0  0  0  0  0
   -5.6584   -0.9681   -1.4311 H   0  0  0  0  0  0  0  0  0  0  0  0
   -2.2427    0.3680   -1.5924 H   0  0  0  0  0  0  0  0  0  0  0  0
   -1.6904    1.1948    2.5139 H   0  0  0  0  0  0  0  0  0  0  0  0
   -3.8864    0.3818    3.0016 H   0  0  0  0  0  0  0  0  0  0  0  0
   -5.6691   -0.2532    3.4404 H   0  0  0  0  0  0  0  0  0  0  0  0
   -9.3348    0.1942    1.7211 H   0  0  0  0  0  0  0  0  0  0  0  0
   -8.6363    1.0291    3.2161 H   0  0  0  0  0  0  0  0  0  0  0  0
   -9.8938   -0.2105    3.4090 H   0  0  0  0  0  0  0  0  0  0  0  0
    0.2374    0.6745    2.1181 H   0  0  0  0  0  0  0  0  0  0  0  0
    2.4806    1.5052    1.8193 H   0  0  0  0  0  0  0  0  0  0  0  0
    1.4286    2.9486   -2.0774 H   0  0  0  0  0  0  0  0  0  0  0  0
   -0.8886    2.0965   -1.7765 H   0  0  0  0  0  0  0  0  0  0  0  0
    3.9524    3.1910    0.5325 H   0  0  0  0  0  0  0  0  0  0  0  0
    3.3760    3.7164   -1.0432 H   0  0  0  0  0  0  0  0  0  0  0  0
    5.3430    2.4660   -1.2660 H   0  0  0  0  0  0  0  0  0  0  0  0
    3.9568    1.6164   -2.0634 H   0  0  0  0  0  0  0  0  0  0  0  0
    3.8504    0.1058   -0.1859 H   0  0  0  0  0  0  0  0  0  0  0  0
    4.8492    1.4956    1.5155 H   0  0  0  0  0  0  0  0  0  0  0  0
    6.3758    1.4988    0.6397 H   0  0  0  0  0  0  0  0  0  0  0  0
    4.8075   -0.8966    1.7394 H   0  0  0  0  0  0  0  0  0  0  0  0
    8.3066   -0.2473    0.8358 H   0  0  0  0  0  0  0  0  0  0  0  0
    9.6247   -1.5903   -0.6780 H   0  0  0  0  0  0  0  0  0  0  0  0
    8.5386   -3.4799   -1.9001 H   0  0  0  0  0  0  0  0  0  0  0  0
    6.1033   -3.9677   -1.5489 H   0  0  0  0  0  0  0  0  0  0  0  0
    4.7791   -2.5465    0.0317 H   0  0  0  0  0  0  0  0  0  0  0  0
    6.5984    0.6838    2.9230 H   0  0  0  0  0  0  0  0  0  0  0  0
   -4.8980   -0.5564   -4.8340 H   0  0  0  0  0  0  0  0  0  0  0  0
   -5.3947   -2.0083   -3.8207 H   0  0  0  0  0  0  0  0  0  0  0  0
   -6.1002   -0.4155   -3.5347 H   0  0  0  0  0  0  0  0  0  0  0  0
  1  2  1  0
  2  3  1  0
  3  4  1  0
  4  5  2  0
  5  6  1  0
  6  7  2  0
  7  8  1  0
  8  9  2  0
  9 10  1  0
 10 11  2  0
 10 12  1  0
 12 13  1  0
 13 14  2  0
 13 15  2  0
 13 16  1  0
  6 17  1  0
 17 18  2  0
 18 19  1  0
 19 20  2  0
 20 21  1  0
 21 22  2  0
 20 23  1  0
 23 24  1  0
 24 25  1  0
 25 26  1  0
 26 27  1  0
 27 28  1  0
 28 29  2  0
 29 30  1  0
 30 31  2  0
 31 32  1  0
 32 33  2  0
 27 34  1  0
  2 35  1  0
  9  4  1  0
 22 17  1  0
 33 28  1  0
  1 36  1  0
  1 37  1  0
  1 38  1  0
  2 39  1  0
  3 40  1  0
  5 41  1  0
  7 42  1  0
  8 43  1  0
 12 44  1  0
 16 45  1  0
 16 46  1  0
 16 47  1  0
 18 48  1  0
 19 49  1  0
 21 50  1  0
 22 51  1  0
 23 52  1  0
 23 53  1  0
 24 54  1  0
 24 55  1  0
 25 56  1  0
 26 57  1  0
 26 58  1  0
 27 59  1  1
 29 60  1  0
 30 61  1  0
 31 62  1  0
 32 63  1  0
 33 64  1  0
 34 65  1  0
 35 66  1  0
 35 67  1  0
 35 68  1  0
M  END
>  <Ligand ID>  (1) 
LIG0001522

>  <Ligand>  (1) 
CHEMBL471060

>  <SMILES>  (1) 
CC(Nc1cc(ccc1C(=O)NS(=O)(=O)C)c1ccc(cc1)CCNC[C@@H](c1ccccc1)O)C

>  <CID>  (1) 
11420551.0

>  <ChEMBL ID>  (1) 
nan

>  <InChiKey>  (1) 
FEQQLEGJQNYEQY-SANMLTNESA-N

>  <InChi>  (1) 
InChI=1S/C27H33N3O4S/c1-19(2)29-25-17-23(13-14-24(25)27(32)30-35(3,33)34)21-11-9-20(10-12-21)15-16-28-18-26(31)22-7-5-4-6-8-22/h4-14,17,19,26,28-29,31H,15-16,18H2,1-3H3,(H,30,32)/t26-/m0/s1

>  <IUPAC Name>  (1) 
4-[4-[2-[[(2R)-2-hydroxy-2-phenylethyl]amino]ethyl]phenyl]-N-methylsulfonyl-2-(propan-2-ylamino)benzamide

$$$$
