
     RDKit          3D

 35 34  0  0  0  0  0  0  0  0999 V2000
   -5.5450   -0.9562   -0.6234 O   0  0  0  0  0  0  0  0  0  0  0  0
   -4.6723    0.1194   -0.4201 C   0  0  0  0  0  0  0  0  0  0  0  0
   -5.0911    1.3166   -0.3242 O   0  0  0  0  0  0  0  0  0  0  0  0
   -3.1670   -0.1245   -0.3057 C   0  0  0  0  0  0  0  0  0  0  0  0
   -2.7735    0.4868    0.9854 C   0  0  0  0  0  0  0  0  0  0  0  0
   -1.3801    0.4226    1.4545 C   0  0  0  0  0  0  0  0  0  0  0  0
   -0.2636    1.0864    0.7587 C   0  0  0  0  0  0  0  0  0  0  0  0
    0.0668    0.7545   -0.6104 C   0  0  0  0  0  0  0  0  0  0  0  0
    0.3616   -0.5893   -1.0421 C   0  0  0  0  0  0  0  0  0  0  0  0
    1.3504   -1.5023   -0.5509 C   0  0  0  0  0  0  0  0  0  0  0  0
    2.7955   -1.1630   -0.6001 C   0  0  0  0  0  0  0  0  0  0  0  0
    3.2432    0.0130    0.2032 C   0  0  0  0  0  0  0  0  0  0  0  0
    4.7364    0.1992    0.1017 C   0  0  0  0  0  0  0  0  0  0  0  0
    5.4635   -0.5601   -0.5656 O   0  0  0  0  0  0  0  0  0  0  0  0
    5.2389    1.3014    0.8217 O   0  0  0  0  0  0  0  0  0  0  0  0
   -6.5321   -0.8500   -0.4665 H   0  0  0  0  0  0  0  0  0  0  0  0
   -3.0221   -1.2462   -0.3206 H   0  0  0  0  0  0  0  0  0  0  0  0
   -2.7580    0.2895   -1.2231 H   0  0  0  0  0  0  0  0  0  0  0  0
   -3.4795    0.0610    1.7612 H   0  0  0  0  0  0  0  0  0  0  0  0
   -3.1309    1.5795    0.9208 H   0  0  0  0  0  0  0  0  0  0  0  0
   -1.4259    0.7797    2.5582 H   0  0  0  0  0  0  0  0  0  0  0  0
   -1.1339   -0.6972    1.5291 H   0  0  0  0  0  0  0  0  0  0  0  0
   -0.5220    2.2128    0.7928 H   0  0  0  0  0  0  0  0  0  0  0  0
    0.6028    1.1012    1.4803 H   0  0  0  0  0  0  0  0  0  0  0  0
   -0.7793    1.1497   -1.2704 H   0  0  0  0  0  0  0  0  0  0  0  0
    0.8640    1.5050   -0.9500 H   0  0  0  0  0  0  0  0  0  0  0  0
    0.5243   -0.5295   -2.1907 H   0  0  0  0  0  0  0  0  0  0  0  0
   -0.6203   -1.2006   -1.0862 H   0  0  0  0  0  0  0  0  0  0  0  0
    1.2680   -2.5073   -1.1188 H   0  0  0  0  0  0  0  0  0  0  0  0
    1.1974   -1.8783    0.5051 H   0  0  0  0  0  0  0  0  0  0  0  0
    3.1510   -1.0576   -1.6736 H   0  0  0  0  0  0  0  0  0  0  0  0
    3.4386   -2.0271   -0.2328 H   0  0  0  0  0  0  0  0  0  0  0  0
    2.9774   -0.0392    1.2571 H   0  0  0  0  0  0  0  0  0  0  0  0
    2.8499    0.9368   -0.2586 H   0  0  0  0  0  0  0  0  0  0  0  0
    6.1669    1.6132    0.6755 H   0  0  0  0  0  0  0  0  0  0  0  0
  1  2  1  0
  2  3  2  0
  2  4  1  0
  4  5  1  0
  5  6  1  0
  6  7  1  0
  7  8  1  0
  8  9  1  0
  9 10  1  0
 10 11  1  0
 11 12  1  0
 12 13  1  0
 13 14  2  0
 13 15  1  0
  1 16  1  0
  4 17  1  0
  4 18  1  0
  5 19  1  0
  5 20  1  0
  6 21  1  0
  6 22  1  0
  7 23  1  0
  7 24  1  0
  8 25  1  0
  8 26  1  0
  9 27  1  0
  9 28  1  0
 10 29  1  0
 10 30  1  0
 11 31  1  0
 11 32  1  0
 12 33  1  0
 12 34  1  0
 15 35  1  0
M  END
>  <Ligand ID>  (1) 
LIG0001070

>  <Ligand>  (1) 
Undecanedioic acid

>  <SMILES>  (1) 
OC(=O)CCCCCCCCCC(=O)O

>  <CID>  (1) 
15816.0

>  <ChEMBL ID>  (1) 
nan

>  <InChiKey>  (1) 
LWBHHRRTOZQPDM-UHFFFAOYSA-N

>  <InChi>  (1) 
InChI=1S/C11H20O4/c12-10(13)8-6-4-2-1-3-5-7-9-11(14)15/h1-9H2,(H,12,13)(H,14,15)

>  <IUPAC Name>  (1) 
undecanedioic acid

$$$$
