
     RDKit          3D

 17 16  0  0  0  0  0  0  0  0999 V2000
    2.1725    0.5092   -0.5596 S   0  0  0  0  0  0  0  0  0  0  0  0
    2.2130   -0.8564    0.6108 C   0  0  0  0  0  0  0  0  0  0  0  0
    0.8718   -1.4955    0.8257 C   0  0  0  0  0  0  0  0  0  0  0  0
   -0.4591   -0.3051    1.0088 S   0  0  0  0  0  0  0  0  0  0  0  0
   -0.7577    0.6921   -0.4532 C   0  0  0  0  0  0  0  0  0  0  0  0
   -2.1960    1.1956   -0.4648 C   0  0  0  0  0  0  0  0  0  0  0  0
   -3.3355   -0.0345    0.2068 S   0  0  0  0  0  0  0  0  0  0  0  0
    3.4171    1.1597   -0.5275 H   0  0  0  0  0  0  0  0  0  0  0  0
    2.6497   -0.4765    1.5575 H   0  0  0  0  0  0  0  0  0  0  0  0
    2.8939   -1.6668    0.2509 H   0  0  0  0  0  0  0  0  0  0  0  0
    0.9216   -2.0631    1.7897 H   0  0  0  0  0  0  0  0  0  0  0  0
    0.7055   -2.2525    0.0494 H   0  0  0  0  0  0  0  0  0  0  0  0
   -0.5928    0.1499   -1.4018 H   0  0  0  0  0  0  0  0  0  0  0  0
   -0.1238    1.6157   -0.4429 H   0  0  0  0  0  0  0  0  0  0  0  0
   -2.2576    2.1688    0.0854 H   0  0  0  0  0  0  0  0  0  0  0  0
   -2.5366    1.4439   -1.5003 H   0  0  0  0  0  0  0  0  0  0  0  0
   -3.5859    0.2154    1.5612 H   0  0  0  0  0  0  0  0  0  0  0  0
  1  2  1  0
  2  3  1  0
  3  4  1  0
  4  5  1  0
  5  6  1  0
  6  7  1  0
  1  8  1  0
  2  9  1  0
  2 10  1  0
  3 11  1  0
  3 12  1  0
  5 13  1  0
  5 14  1  0
  6 15  1  0
  6 16  1  0
  7 17  1  0
M  END
>  <Ligand ID>  (1) 
LIG0002107

>  <Ligand>  (1) 
Bis(2-mercaptoethyl) sulfide

>  <SMILES>  (1) 
SCCSCCS

>  <CID>  (1) 
77117.0

>  <ChEMBL ID>  (1) 
nan

>  <InChiKey>  (1) 
KSJBMDCFYZKAFH-UHFFFAOYSA-N

>  <InChi>  (1) 
InChI=1S/C4H10S3/c5-1-3-7-4-2-6/h5-6H,1-4H2

>  <IUPAC Name>  (1) 
2-(2-sulfanylethylsulfanyl)ethanethiol

$$$$
