
     RDKit          3D

 50 52  0  0  0  0  0  0  0  0999 V2000
    7.2191    0.9126   -3.4141 Cl  0  0  0  0  0  0  0  0  0  0  0  0
    7.0600    0.0291   -1.9060 C   0  0  0  0  0  0  0  0  0  0  0  0
    7.8953   -1.0474   -1.6834 C   0  0  0  0  0  0  0  0  0  0  0  0
    7.7395   -1.7122   -0.4881 C   0  0  0  0  0  0  0  0  0  0  0  0
    6.8037   -1.3283    0.4404 C   0  0  0  0  0  0  0  0  0  0  0  0
    5.9483   -0.2390    0.2368 C   0  0  0  0  0  0  0  0  0  0  0  0
    6.1237    0.4217   -0.9865 C   0  0  0  0  0  0  0  0  0  0  0  0
    4.9684    0.2010    1.2420 C   0  0  2  0  0  0  0  0  0  0  0  0
    3.6002   -0.3462    0.9197 C   0  0  0  0  0  0  0  0  0  0  0  0
    3.0801    0.1522   -0.3070 N   0  0  0  0  0  0  0  0  0  0  0  0
    1.6819   -0.1853   -0.4991 C   0  0  0  0  0  0  0  0  0  0  0  0
    0.8418    0.5995    0.4443 C   0  0  0  0  0  0  0  0  0  0  0  0
   -0.6208    0.3689    0.3604 C   0  0  0  0  0  0  0  0  0  0  0  0
   -1.3406    1.1399   -0.5443 C   0  0  0  0  0  0  0  0  0  0  0  0
   -2.7083    1.0107   -0.6459 C   0  0  0  0  0  0  0  0  0  0  0  0
   -3.4012    0.0990    0.1607 C   0  0  0  0  0  0  0  0  0  0  0  0
   -2.6965   -0.6545    1.0430 C   0  0  0  0  0  0  0  0  0  0  0  0
   -1.3037   -0.5283    1.1517 C   0  0  0  0  0  0  0  0  0  0  0  0
   -4.8457    0.0632   -0.0188 C   0  0  0  0  0  0  0  0  0  0  0  0
   -5.6365    0.1616    1.1329 C   0  0  0  0  0  0  0  0  0  0  0  0
   -7.0300    0.1637    1.0232 C   0  0  0  0  0  0  0  0  0  0  0  0
   -7.6250    0.0680   -0.2178 C   0  0  0  0  0  0  0  0  0  0  0  0
   -6.8295   -0.0301   -1.3539 C   0  0  0  0  0  0  0  0  0  0  0  0
   -5.4382   -0.0329   -1.2608 C   0  0  0  0  0  0  0  0  0  0  0  0
   -4.4469   -0.1576   -2.6974 Cl  0  0  0  0  0  0  0  0  0  0  0  0
   -9.0852    0.0881   -0.3194 C   0  0  0  0  0  0  0  0  0  0  0  0
   -9.7508    0.2040    0.7604 O   0  0  0  0  0  0  0  0  0  0  0  0
   -9.7668   -0.0111   -1.5198 O   0  0  0  0  0  0  0  0  0  0  0  0
    4.9394    1.5957    1.3713 O   0  0  0  0  0  0  0  0  0  0  0  0
    8.6346   -1.3569   -2.4037 H   0  0  0  0  0  0  0  0  0  0  0  0
    8.4071   -2.5743   -0.3083 H   0  0  0  0  0  0  0  0  0  0  0  0
    6.6806   -1.8630    1.3923 H   0  0  0  0  0  0  0  0  0  0  0  0
    5.4881    1.2702   -1.1982 H   0  0  0  0  0  0  0  0  0  0  0  0
    5.2429   -0.1852    2.2422 H   0  0  0  0  0  0  0  0  0  0  0  0
    3.7737   -1.4555    0.7551 H   0  0  0  0  0  0  0  0  0  0  0  0
    2.9790   -0.2613    1.8097 H   0  0  0  0  0  0  0  0  0  0  0  0
    3.1575    1.1860   -0.4344 H   0  0  0  0  0  0  0  0  0  0  0  0
    1.6039   -1.2835   -0.3300 H   0  0  0  0  0  0  0  0  0  0  0  0
    1.4199   -0.0269   -1.5629 H   0  0  0  0  0  0  0  0  0  0  0  0
    1.0075    1.6777    0.2066 H   0  0  0  0  0  0  0  0  0  0  0  0
    1.1412    0.3717    1.4862 H   0  0  0  0  0  0  0  0  0  0  0  0
   -0.8132    1.8504   -1.1666 H   0  0  0  0  0  0  0  0  0  0  0  0
   -3.2193    1.6374   -1.3664 H   0  0  0  0  0  0  0  0  0  0  0  0
   -3.2364   -1.3756    1.6765 H   0  0  0  0  0  0  0  0  0  0  0  0
   -0.7258   -1.1223    1.8383 H   0  0  0  0  0  0  0  0  0  0  0  0
   -5.1871    0.2341    2.1084 H   0  0  0  0  0  0  0  0  0  0  0  0
   -7.6590    0.2374    1.9054 H   0  0  0  0  0  0  0  0  0  0  0  0
   -7.3212   -0.1028   -2.2933 H   0  0  0  0  0  0  0  0  0  0  0  0
  -10.7585    0.1950   -1.6096 H   0  0  0  0  0  0  0  0  0  0  0  0
    4.0086    1.9413    1.3327 H   0  0  0  0  0  0  0  0  0  0  0  0
  1  2  1  0
  2  3  2  0
  3  4  1  0
  4  5  2  0
  5  6  1  0
  6  7  2  0
  6  8  1  0
  8  9  1  0
  9 10  1  0
 10 11  1  0
 11 12  1  0
 12 13  1  0
 13 14  2  0
 14 15  1  0
 15 16  2  0
 16 17  1  0
 17 18  2  0
 16 19  1  0
 19 20  2  0
 20 21  1  0
 21 22  2  0
 22 23  1  0
 23 24  2  0
 24 25  1  0
 22 26  1  0
 26 27  2  0
 26 28  1  0
  8 29  1  0
  7  2  1  0
 18 13  1  0
 24 19  1  0
  3 30  1  0
  4 31  1  0
  5 32  1  0
  7 33  1  0
  8 34  1  1
  9 35  1  0
  9 36  1  0
 10 37  1  0
 11 38  1  0
 11 39  1  0
 12 40  1  0
 12 41  1  0
 14 42  1  0
 15 43  1  0
 17 44  1  0
 18 45  1  0
 20 46  1  0
 21 47  1  0
 23 48  1  0
 28 49  1  0
 29 50  1  0
M  END
>  <Ligand ID>  (1) 
LIG0005819

>  <Ligand>  (1) 
CHEMBL257297

>  <SMILES>  (1) 
Clc1cccc(c1)[C@H](CNCCc1ccc(cc1)c1ccc(cc1Cl)C(=O)O)O

>  <CID>  (1) 
24822645.0

>  <ChEMBL ID>  (1) 
nan

>  <InChiKey>  (1) 
IARRSRXBOVXHAU-QFIPXVFZSA-N

>  <InChi>  (1) 
InChI=1S/C23H21Cl2NO3/c24-19-3-1-2-17(12-19)22(27)14-26-11-10-15-4-6-16(7-5-15)20-9-8-18(23(28)29)13-21(20)25/h1-9,12-13,22,26-27H,10-11,14H2,(H,28,29)/t22-/m0/s1

>  <IUPAC Name>  (1) 
3-chloro-4-[4-[2-[[(2R)-2-(3-chlorophenyl)-2-hydroxyethyl]amino]ethyl]phenyl]benzoic acid

$$$$
