
     RDKit          3D

 33 33  0  0  0  0  0  0  0  0999 V2000
    4.0701    1.4453    0.6299 C   0  0  0  0  0  0  0  0  0  0  0  0
    3.5732    0.1918    1.3301 C   0  0  0  0  0  0  0  0  0  0  0  0
    2.6428   -0.6180    0.3923 C   0  0  0  0  0  0  0  0  0  0  0  0
    1.4733    0.2047    0.0041 C   0  0  0  0  0  0  0  0  0  0  0  0
    0.4646   -0.3523   -0.9082 C   0  0  0  0  0  0  0  0  0  0  0  0
   -0.2588   -1.5616   -0.5530 C   0  0  0  0  0  0  0  0  0  0  0  0
   -1.5486   -1.6216   -0.2231 C   0  0  0  0  0  0  0  0  0  0  0  0
   -2.4568   -0.5053   -0.1565 C   0  0  0  0  0  0  0  0  0  0  0  0
   -2.2288    0.7039    0.4348 C   0  0  0  0  0  0  0  0  0  0  0  0
   -3.1795    1.7019    0.4089 C   0  0  0  0  0  0  0  0  0  0  0  0
   -4.4123    1.5355   -0.2128 C   0  0  0  0  0  0  0  0  0  0  0  0
   -4.6460    0.3277   -0.8047 C   0  0  0  0  0  0  0  0  0  0  0  0
   -3.6982   -0.6685   -0.7805 C   0  0  0  0  0  0  0  0  0  0  0  0
    0.4279   -2.8736   -0.5890 C   0  0  0  0  0  0  0  0  0  0  0  0
    1.6160   -3.0237   -0.8940 O   0  0  0  0  0  0  0  0  0  0  0  0
    4.0072    1.3377   -0.4649 H   0  0  0  0  0  0  0  0  0  0  0  0
    5.1402    1.6143    0.8729 H   0  0  0  0  0  0  0  0  0  0  0  0
    3.4785    2.3037    1.0071 H   0  0  0  0  0  0  0  0  0  0  0  0
    3.1252    0.3824    2.2995 H   0  0  0  0  0  0  0  0  0  0  0  0
    4.4610   -0.4624    1.4663 H   0  0  0  0  0  0  0  0  0  0  0  0
    3.2949   -0.9570   -0.4026 H   0  0  0  0  0  0  0  0  0  0  0  0
    2.2721   -1.4205    1.0915 H   0  0  0  0  0  0  0  0  0  0  0  0
    1.0187    0.6404    0.9264 H   0  0  0  0  0  0  0  0  0  0  0  0
    1.8991    1.1199   -0.5287 H   0  0  0  0  0  0  0  0  0  0  0  0
    0.9159   -0.4970   -1.9389 H   0  0  0  0  0  0  0  0  0  0  0  0
   -0.2943    0.4628   -1.1101 H   0  0  0  0  0  0  0  0  0  0  0  0
   -2.0065   -2.6036    0.0342 H   0  0  0  0  0  0  0  0  0  0  0  0
   -1.3051    0.9024    0.9479 H   0  0  0  0  0  0  0  0  0  0  0  0
   -3.0201    2.6786    0.8735 H   0  0  0  0  0  0  0  0  0  0  0  0
   -5.1585    2.3177   -0.2324 H   0  0  0  0  0  0  0  0  0  0  0  0
   -5.6027    0.1457   -1.3090 H   0  0  0  0  0  0  0  0  0  0  0  0
   -3.9515   -1.6140   -1.2751 H   0  0  0  0  0  0  0  0  0  0  0  0
   -0.1132   -3.8024   -0.3359 H   0  0  0  0  0  0  0  0  0  0  0  0
  1  2  1  0
  2  3  1  0
  3  4  1  0
  4  5  1  0
  5  6  1  0
  6  7  2  0
  7  8  1  0
  8  9  2  0
  9 10  1  0
 10 11  2  0
 11 12  1  0
 12 13  2  0
  6 14  1  0
 14 15  2  0
 13  8  1  0
  1 16  1  0
  1 17  1  0
  1 18  1  0
  2 19  1  0
  2 20  1  0
  3 21  1  0
  3 22  1  0
  4 23  1  0
  4 24  1  0
  5 25  1  0
  5 26  1  0
  7 27  1  0
  9 28  1  0
 10 29  1  0
 11 30  1  0
 12 31  1  0
 13 32  1  0
 14 33  1  0
M  END
>  <Ligand ID>  (1) 
LIG0000188

>  <Ligand>  (1) 
a-Amylcinnamaldehyde

>  <SMILES>  (1) 
CCCCC/C(=C\c1ccccc1)/C=O

>  <CID>  (1) 
1623625.0

>  <ChEMBL ID>  (1) 
nan

>  <InChiKey>  (1) 
HMKKIXGYKWDQSV-SDNWHVSQSA-N

>  <InChi>  (1) 
InChI=1S/C14H18O/c1-2-3-5-10-14(12-15)11-13-8-6-4-7-9-13/h4,6-9,11-12H,2-3,5,10H2,1H3/b14-11+

>  <IUPAC Name>  (1) 
(2E)-2-benzylideneheptanal

$$$$
