
     RDKit          3D

 29 30  0  0  0  0  0  0  0  0999 V2000
   -0.9371    1.1184    1.6049 O   0  0  0  0  0  0  0  0  0  0  0  0
   -2.1364    0.6546    1.0775 C   0  0  0  0  0  0  0  0  0  0  0  0
   -1.9371   -0.2536   -0.0942 C   0  0  0  0  0  0  0  0  0  0  0  0
   -3.2162   -0.7772   -0.6937 C   0  0  0  0  0  0  0  0  0  0  0  0
   -1.0891    0.4288   -1.1129 C   0  0  0  0  0  0  0  0  0  0  0  0
    0.2839    0.1695   -0.6053 C   0  0  0  0  0  0  0  0  0  0  0  0
    0.3051   -0.9448    0.2071 C   0  0  0  0  0  0  0  0  0  0  0  0
   -1.0888   -1.4697    0.2649 C   0  0  0  0  0  0  0  0  0  0  0  0
    1.4791   -1.3961    0.8067 C   0  0  0  0  0  0  0  0  0  0  0  0
    2.6380   -0.6842    0.5599 C   0  0  0  0  0  0  0  0  0  0  0  0
    2.6513    0.4438   -0.2544 C   0  0  0  0  0  0  0  0  0  0  0  0
    1.4649    0.8660   -0.8357 C   0  0  0  0  0  0  0  0  0  0  0  0
    3.9162    1.1792   -0.4935 C   0  0  0  0  0  0  0  0  0  0  0  0
   -0.6468    1.9493    1.1935 H   0  0  0  0  0  0  0  0  0  0  0  0
   -2.7146    0.1523    1.8803 H   0  0  0  0  0  0  0  0  0  0  0  0
   -2.7026    1.5330    0.7194 H   0  0  0  0  0  0  0  0  0  0  0  0
   -3.8498   -1.1538    0.1252 H   0  0  0  0  0  0  0  0  0  0  0  0
   -3.7586   -0.0419   -1.3029 H   0  0  0  0  0  0  0  0  0  0  0  0
   -2.9234   -1.6774   -1.3085 H   0  0  0  0  0  0  0  0  0  0  0  0
   -1.2054   -0.0970   -2.0825 H   0  0  0  0  0  0  0  0  0  0  0  0
   -1.2689    1.5150   -1.1982 H   0  0  0  0  0  0  0  0  0  0  0  0
   -1.3527   -1.7608    1.3125 H   0  0  0  0  0  0  0  0  0  0  0  0
   -1.2641   -2.3243   -0.4043 H   0  0  0  0  0  0  0  0  0  0  0  0
    1.5001   -2.2705    1.4452 H   0  0  0  0  0  0  0  0  0  0  0  0
    3.5970   -0.9676    0.9879 H   0  0  0  0  0  0  0  0  0  0  0  0
    1.4435    1.7439   -1.4768 H   0  0  0  0  0  0  0  0  0  0  0  0
    4.0569    2.0255    0.2116 H   0  0  0  0  0  0  0  0  0  0  0  0
    4.7868    0.4852   -0.4027 H   0  0  0  0  0  0  0  0  0  0  0  0
    3.9689    1.5543   -1.5572 H   0  0  0  0  0  0  0  0  0  0  0  0
  1  2  1  0
  2  3  1  0
  3  4  1  0
  3  5  1  0
  5  6  1  0
  6  7  2  0
  7  8  1  0
  7  9  1  0
  9 10  2  0
 10 11  1  0
 11 12  2  0
 11 13  1  0
  8  3  1  0
 12  6  1  0
  1 14  1  0
  2 15  1  0
  2 16  1  0
  4 17  1  0
  4 18  1  0
  4 19  1  0
  5 20  1  0
  5 21  1  0
  8 22  1  0
  8 23  1  0
  9 24  1  0
 10 25  1  0
 12 26  1  0
 13 27  1  0
 13 28  1  0
 13 29  1  0
M  END
>  <Ligand ID>  (1) 
LIG0000340

>  <Ligand>  (1) 
(2,5-dimethyl-1,3-dihydroinden-2-yl)methanol

>  <SMILES>  (1) 
OCC1(C)Cc2c(C1)ccc(c2)C

>  <CID>  (1) 
11367306.0

>  <ChEMBL ID>  (1) 
nan

>  <InChiKey>  (1) 
UWSPWQQZFOSTHS-UHFFFAOYSA-N

>  <InChi>  (1) 
InChI=1S/C12H16O/c1-9-3-4-10-6-12(2,8-13)7-11(10)5-9/h3-5,13H,6-8H2,1-2H3

>  <IUPAC Name>  (1) 
(2,5-dimethyl-1,3-dihydroinden-2-yl)methanol

$$$$
