
     RDKit          3D

212220  0  0  0  0  0  0  0  0999 V2000
    0.3806   -3.9554   -1.0142 N   0  0  0  0  0  0  0  0  0  0  0  0
    1.1442   -2.7740   -1.2174 C   0  0  0  0  0  0  0  0  0  0  0  0
    1.5549   -2.5607   -2.3844 O   0  0  0  0  0  0  0  0  0  0  0  0
    1.4427   -1.8364   -0.1073 C   0  0  0  0  0  0  0  0  0  0  0  0
    2.8965   -2.1071    0.3637 C   0  0  2  0  0  0  0  0  0  0  0  0
    3.6824   -1.8523   -0.8349 N   0  0  0  0  0  0  0  0  0  0  0  0
    4.3778   -0.5730   -1.0235 C   0  0  0  0  0  0  0  0  0  0  0  0
    4.1837    0.2276   -0.1097 O   0  0  0  0  0  0  0  0  0  0  0  0
    5.1515   -0.4738   -2.2435 C   0  0  2  0  0  0  0  0  0  0  0  0
    6.0799   -1.4922   -2.6948 C   0  0  0  0  0  0  0  0  0  0  0  0
    7.2969   -1.9622   -2.1151 C   0  0  0  0  0  0  0  0  0  0  0  0
    8.5665   -1.6789   -2.7317 C   0  0  0  0  0  0  0  0  0  0  0  0
    9.5293   -2.2457   -2.0372 N   0  0  0  0  0  0  0  0  0  0  0  0
    9.0342   -2.8992   -0.9905 C   0  0  0  0  0  0  0  0  0  0  0  0
    7.6714   -2.7235   -1.0412 C   0  0  0  0  0  0  0  0  0  0  0  0
    6.9236   -3.3055   -0.0526 C   0  0  0  0  0  0  0  0  0  0  0  0
    7.5445   -4.0322    0.9363 C   0  0  0  0  0  0  0  0  0  0  0  0
    8.9207   -4.2099    0.9875 C   0  0  0  0  0  0  0  0  0  0  0  0
    9.6855   -3.6204   -0.0133 C   0  0  0  0  0  0  0  0  0  0  0  0
    5.7407    0.9290   -2.4062 N   0  0  0  0  0  0  0  0  0  0  0  0
    6.9590    1.1069   -1.6958 C   0  0  0  0  0  0  0  0  0  0  0  0
    7.0371    1.9938   -0.4944 C   0  0  2  0  0  0  0  0  0  0  0  0
    6.8679    1.5282    0.8680 C   0  0  0  0  0  0  0  0  0  0  0  0
    7.8503    0.4699    1.3367 C   0  0  0  0  0  0  0  0  0  0  0  0
    9.2878    0.9418    1.2959 C   0  0  0  0  0  0  0  0  0  0  0  0
    9.5018    2.1514    2.1736 C   0  0  0  0  0  0  0  0  0  0  0  0
    9.1658    1.9063    3.5425 N   0  0  0  0  0  0  0  0  0  0  0  0
    9.2485    2.9378    4.5393 C   0  0  0  0  0  0  0  0  0  0  0  0
    9.9694    3.9856    4.3534 N   0  0  0  0  0  0  0  0  0  0  0  0
    8.4893    2.7113    5.7217 N   0  0  0  0  0  0  0  0  0  0  0  0
    5.9827    3.0437   -0.6869 N   0  0  0  0  0  0  0  0  0  0  0  0
    6.4789    4.3328   -0.9866 C   0  0  0  0  0  0  0  0  0  0  0  0
    7.6793    4.6726   -0.9832 O   0  0  0  0  0  0  0  0  0  0  0  0
    5.4403    5.3412   -1.3366 C   0  0  1  0  0  0  0  0  0  0  0  0
    5.6905    5.7906   -2.7667 C   0  0  0  0  0  0  0  0  0  0  0  0
    6.1326    4.4499   -3.8207 S   0  0  0  0  0  0  0  0  0  0  0  0
    5.1605    3.0441   -4.0607 C   0  0  0  0  0  0  0  0  0  0  0  0
    5.1632    1.7934   -3.3505 C   0  0  0  0  0  0  0  0  0  0  0  0
    4.1109    1.0859   -3.7889 O   0  0  0  0  0  0  0  0  0  0  0  0
    4.0828    4.8910   -1.1656 N   0  0  0  0  0  0  0  0  0  0  0  0
    3.3099    5.5118   -0.1563 C   0  0  0  0  0  0  0  0  0  0  0  0
    3.9178    6.3639    0.6049 O   0  0  0  0  0  0  0  0  0  0  0  0
    1.8977    5.3130    0.1489 C   0  0  1  0  0  0  0  0  0  0  0  0
    1.2021    6.6364    0.2538 C   0  0  0  0  0  0  0  0  0  0  0  0
    1.1751    7.5255   -0.8846 C   0  0  0  0  0  0  0  0  0  0  0  0
    2.1751    8.4304   -1.2356 C   0  0  0  0  0  0  0  0  0  0  0  0
    2.0399    9.2826   -2.3180 C   0  0  0  0  0  0  0  0  0  0  0  0
    0.9150    9.2867   -3.1080 C   0  0  0  0  0  0  0  0  0  0  0  0
   -0.0833    8.3950   -2.7718 C   0  0  0  0  0  0  0  0  0  0  0  0
    0.0427    7.5429   -1.6968 C   0  0  0  0  0  0  0  0  0  0  0  0
    1.2541    4.3446   -0.7188 N   0  0  0  0  0  0  0  0  0  0  0  0
    0.1231    3.6818   -0.2415 C   0  0  0  0  0  0  0  0  0  0  0  0
   -0.3325    4.1125    0.8982 O   0  0  0  0  0  0  0  0  0  0  0  0
   -0.6573    2.5769   -0.8131 C   0  0  2  0  0  0  0  0  0  0  0  0
   -0.8518    2.6000   -2.2602 C   0  0  0  0  0  0  0  0  0  0  0  0
   -1.5600    3.7342   -2.8371 C   0  0  0  0  0  0  0  0  0  0  0  0
   -1.1677    4.9152   -3.3281 N   0  0  0  0  0  0  0  0  0  0  0  0
   -2.2269    5.6369   -3.7546 C   0  0  0  0  0  0  0  0  0  0  0  0
   -3.3528    4.8961   -3.5315 N   0  0  0  0  0  0  0  0  0  0  0  0
   -2.9578    3.7531   -2.9819 C   0  0  0  0  0  0  0  0  0  0  0  0
   -1.9144    2.5565   -0.0352 N   0  0  0  0  0  0  0  0  0  0  0  0
   -2.3148    1.4976    0.8009 C   0  0  0  0  0  0  0  0  0  0  0  0
   -1.5353    0.4860    0.8219 O   0  0  0  0  0  0  0  0  0  0  0  0
   -3.5438    1.6178    1.5624 C   0  0  2  0  0  0  0  0  0  0  0  0
   -4.5077    0.5039    1.4173 C   0  0  0  0  0  0  0  0  0  0  0  0
   -3.8171   -1.0788    1.8605 S   0  0  0  0  0  0  0  0  0  0  0  0
   -2.7127   -1.9286    0.2191 S   0  0  0  0  0  0  0  0  0  0  0  0
   -3.9849   -2.9404   -0.6660 C   0  0  0  0  0  0  0  0  0  0  0  0
   -4.4387   -4.0809    0.2874 C   0  0  2  0  0  0  0  0  0  0  0  0
   -3.4454   -5.0840    0.4652 N   0  0  0  0  0  0  0  0  0  0  0  0
   -2.3143   -5.0232    1.2902 C   0  0  0  0  0  0  0  0  0  0  0  0
   -2.1061   -3.9136    1.9118 O   0  0  0  0  0  0  0  0  0  0  0  0
   -1.3220   -6.0587    1.5351 C   0  0  1  0  0  0  0  0  0  0  0  0
   -0.0493   -5.3708    1.8921 N   0  0  0  0  0  0  0  0  0  0  0  0
    1.1170   -6.1420    1.7879 C   0  0  0  0  0  0  0  0  0  0  0  0
    1.0771   -7.3753    1.5215 O   0  0  0  0  0  0  0  0  0  0  0  0
    2.5016   -5.5789    1.9919 C   0  0  1  0  0  0  0  0  0  0  0  0
    2.3207   -4.1058    1.8888 N   0  0  0  0  0  0  0  0  0  0  0  0
    2.9051   -3.5321    0.7252 C   0  0  0  0  0  0  0  0  0  0  0  0
    3.4912   -4.3100   -0.0853 O   0  0  0  0  0  0  0  0  0  0  0  0
    2.8960   -5.8107    3.4358 C   0  0  0  0  0  0  0  0  0  0  0  0
   -1.7765   -6.7936    2.8132 C   0  0  0  0  0  0  0  0  0  0  0  0
   -3.0760   -7.4278    2.7216 C   0  0  0  0  0  0  0  0  0  0  0  0
   -3.1188   -8.7613    2.2994 C   0  0  0  0  0  0  0  0  0  0  0  0
   -4.2984   -9.4590    2.2045 C   0  0  0  0  0  0  0  0  0  0  0  0
   -5.4901   -8.8935    2.5134 C   0  0  0  0  0  0  0  0  0  0  0  0
   -5.4882   -7.5709    2.9340 C   0  0  0  0  0  0  0  0  0  0  0  0
   -4.2923   -6.8597    3.0335 C   0  0  0  0  0  0  0  0  0  0  0  0
   -5.7679   -4.4496   -0.1266 C   0  0  0  0  0  0  0  0  0  0  0  0
   -6.6416   -3.4932   -0.1538 O   0  0  0  0  0  0  0  0  0  0  0  0
   -6.2671   -5.7112   -0.5161 N   0  0  0  0  0  0  0  0  0  0  0  0
   -7.6671   -5.7829   -0.8925 C   0  0  2  0  0  0  0  0  0  0  0  0
   -8.2967   -7.0212   -0.4695 C   0  0  0  0  0  0  0  0  0  0  0  0
   -9.5222   -7.2035   -0.7328 O   0  0  0  0  0  0  0  0  0  0  0  0
   -7.6530   -8.0901    0.2341 N   0  0  0  0  0  0  0  0  0  0  0  0
   -7.7886   -5.5380   -2.4032 C   0  0  0  0  0  0  0  0  0  0  0  0
   -9.2007   -5.6032   -2.8512 C   0  0  0  0  0  0  0  0  0  0  0  0
   -9.7740   -6.7394   -3.3988 C   0  0  0  0  0  0  0  0  0  0  0  0
  -11.0912   -6.7203   -3.7396 C   0  0  0  0  0  0  0  0  0  0  0  0
  -11.8531   -5.5802   -3.5427 C   0  0  0  0  0  0  0  0  0  0  0  0
  -11.3082   -4.4262   -2.9968 C   0  0  0  0  0  0  0  0  0  0  0  0
   -9.9650   -4.4454   -2.6494 C   0  0  0  0  0  0  0  0  0  0  0  0
  -13.2137   -5.5267   -3.8809 O   0  0  0  0  0  0  0  0  0  0  0  0
   -4.2280    2.9071    1.3453 N   0  0  0  0  0  0  0  0  0  0  0  0
   -4.7400    3.6015    2.4690 C   0  0  0  0  0  0  0  0  0  0  0  0
   -4.6076    3.1183    3.6151 O   0  0  0  0  0  0  0  0  0  0  0  0
   -5.4529    4.9073    2.3715 C   0  0  2  0  0  0  0  0  0  0  0  0
   -6.9717    4.6443    2.4250 C   0  0  0  0  0  0  0  0  0  0  0  0
   -7.6448    5.9512    2.3274 C   0  0  0  0  0  0  0  0  0  0  0  0
   -8.0029    6.7084    3.4168 C   0  0  0  0  0  0  0  0  0  0  0  0
   -8.6269    7.9142    3.2598 C   0  0  0  0  0  0  0  0  0  0  0  0
   -8.9147    8.4050    2.0068 C   0  0  0  0  0  0  0  0  0  0  0  0
   -8.5714    7.6759    0.8893 C   0  0  0  0  0  0  0  0  0  0  0  0
   -7.9371    6.4510    1.0568 C   0  0  0  0  0  0  0  0  0  0  0  0
   -9.5595    9.6533    1.9165 O   0  0  0  0  0  0  0  0  0  0  0  0
   -5.2022    5.6176    1.1551 N   0  0  0  0  0  0  0  0  0  0  0  0
    0.9391   -4.8533   -0.9354 H   0  0  0  0  0  0  0  0  0  0  0  0
   -0.6589   -3.9732   -0.9447 H   0  0  0  0  0  0  0  0  0  0  0  0
    1.3264   -0.7701   -0.3980 H   0  0  0  0  0  0  0  0  0  0  0  0
    0.7623   -2.0949    0.7481 H   0  0  0  0  0  0  0  0  0  0  0  0
    3.0917   -1.4407    1.1922 H   0  0  0  0  0  0  0  0  0  0  0  0
    3.7220   -2.5987   -1.5312 H   0  0  0  0  0  0  0  0  0  0  0  0
    4.2897   -0.5779   -3.0252 H   0  0  0  0  0  0  0  0  0  0  0  0
    5.4036   -2.4421   -2.8063 H   0  0  0  0  0  0  0  0  0  0  0  0
    6.2189   -1.2914   -3.8289 H   0  0  0  0  0  0  0  0  0  0  0  0
    8.7063   -1.0913   -3.6204 H   0  0  0  0  0  0  0  0  0  0  0  0
   10.5531   -2.1813   -2.2856 H   0  0  0  0  0  0  0  0  0  0  0  0
    5.8709   -3.1735   -0.0823 H   0  0  0  0  0  0  0  0  0  0  0  0
    6.9588   -4.4909    1.7131 H   0  0  0  0  0  0  0  0  0  0  0  0
    9.4009   -4.7903    1.7791 H   0  0  0  0  0  0  0  0  0  0  0  0
   10.7745   -3.7241   -0.0211 H   0  0  0  0  0  0  0  0  0  0  0  0
    7.2214    0.1088   -1.1643 H   0  0  0  0  0  0  0  0  0  0  0  0
    7.8784    1.2473   -2.3009 H   0  0  0  0  0  0  0  0  0  0  0  0
    8.0010    2.5933   -0.5396 H   0  0  0  0  0  0  0  0  0  0  0  0
    7.1037    2.4489    1.5291 H   0  0  0  0  0  0  0  0  0  0  0  0
    5.8670    1.2747    1.1797 H   0  0  0  0  0  0  0  0  0  0  0  0
    7.7241   -0.4356    0.7525 H   0  0  0  0  0  0  0  0  0  0  0  0
    7.5956    0.2429    2.3798 H   0  0  0  0  0  0  0  0  0  0  0  0
    9.8944    0.1163    1.7255 H   0  0  0  0  0  0  0  0  0  0  0  0
    9.6673    1.1611    0.2971 H   0  0  0  0  0  0  0  0  0  0  0  0
   10.6142    2.3492    2.1296 H   0  0  0  0  0  0  0  0  0  0  0  0
    8.9825    3.0513    1.8094 H   0  0  0  0  0  0  0  0  0  0  0  0
    8.8525    0.9498    3.8101 H   0  0  0  0  0  0  0  0  0  0  0  0
   10.4848    4.0299    3.4307 H   0  0  0  0  0  0  0  0  0  0  0  0
    8.5214    1.7740    6.1632 H   0  0  0  0  0  0  0  0  0  0  0  0
    7.9294    3.5160    6.0826 H   0  0  0  0  0  0  0  0  0  0  0  0
    4.9862    2.7983   -0.6005 H   0  0  0  0  0  0  0  0  0  0  0  0
    5.6320    6.2076   -0.6816 H   0  0  0  0  0  0  0  0  0  0  0  0
    6.4211    6.6325   -2.7932 H   0  0  0  0  0  0  0  0  0  0  0  0
    4.6832    6.1776   -3.1097 H   0  0  0  0  0  0  0  0  0  0  0  0
    5.2786    2.7414   -5.1939 H   0  0  0  0  0  0  0  0  0  0  0  0
    4.0583    3.4292   -4.1551 H   0  0  0  0  0  0  0  0  0  0  0  0
    3.7030    4.1461   -1.7671 H   0  0  0  0  0  0  0  0  0  0  0  0
    1.7404    4.8878    1.2159 H   0  0  0  0  0  0  0  0  0  0  0  0
    1.7675    7.1893    1.0745 H   0  0  0  0  0  0  0  0  0  0  0  0
    0.1422    6.5000    0.6202 H   0  0  0  0  0  0  0  0  0  0  0  0
    3.0775    8.5062   -0.6764 H   0  0  0  0  0  0  0  0  0  0  0  0
    2.8477    9.9741   -2.5527 H   0  0  0  0  0  0  0  0  0  0  0  0
    0.7864    9.9408   -3.9488 H   0  0  0  0  0  0  0  0  0  0  0  0
   -0.9635    8.4048   -3.4003 H   0  0  0  0  0  0  0  0  0  0  0  0
   -0.7558    6.8650   -1.4519 H   0  0  0  0  0  0  0  0  0  0  0  0
    1.6528    4.1774   -1.6693 H   0  0  0  0  0  0  0  0  0  0  0  0
   -0.1540    1.5854   -0.5445 H   0  0  0  0  0  0  0  0  0  0  0  0
    0.1885    2.5353   -2.7355 H   0  0  0  0  0  0  0  0  0  0  0  0
   -1.3034    1.6098   -2.6028 H   0  0  0  0  0  0  0  0  0  0  0  0
   -0.1784    5.2140   -3.3668 H   0  0  0  0  0  0  0  0  0  0  0  0
   -2.2869    6.6123   -4.1972 H   0  0  0  0  0  0  0  0  0  0  0  0
   -3.6440    2.9571   -2.6943 H   0  0  0  0  0  0  0  0  0  0  0  0
   -2.4880    3.4253   -0.1644 H   0  0  0  0  0  0  0  0  0  0  0  0
   -3.2866    1.6451    2.6731 H   0  0  0  0  0  0  0  0  0  0  0  0
   -4.9406    0.4596    0.3614 H   0  0  0  0  0  0  0  0  0  0  0  0
   -5.4036    0.6618    2.0977 H   0  0  0  0  0  0  0  0  0  0  0  0
   -3.5294   -3.4131   -1.5409 H   0  0  0  0  0  0  0  0  0  0  0  0
   -4.8325   -2.2644   -0.8605 H   0  0  0  0  0  0  0  0  0  0  0  0
   -4.5245   -3.4872    1.2729 H   0  0  0  0  0  0  0  0  0  0  0  0
   -3.5707   -5.9821   -0.0929 H   0  0  0  0  0  0  0  0  0  0  0  0
   -1.2320   -6.8091    0.7911 H   0  0  0  0  0  0  0  0  0  0  0  0
   -0.0577   -4.3770    2.1968 H   0  0  0  0  0  0  0  0  0  0  0  0
    3.1951   -5.9679    1.2527 H   0  0  0  0  0  0  0  0  0  0  0  0
    1.8115   -3.5952    2.6149 H   0  0  0  0  0  0  0  0  0  0  0  0
    1.9938   -5.6193    4.0694 H   0  0  0  0  0  0  0  0  0  0  0  0
    3.2438   -6.8299    3.6202 H   0  0  0  0  0  0  0  0  0  0  0  0
    3.6322   -5.0389    3.7808 H   0  0  0  0  0  0  0  0  0  0  0  0
   -1.0082   -7.5607    3.0728 H   0  0  0  0  0  0  0  0  0  0  0  0
   -1.7683   -6.0679    3.6646 H   0  0  0  0  0  0  0  0  0  0  0  0
   -2.2077   -9.2808    2.0297 H   0  0  0  0  0  0  0  0  0  0  0  0
   -4.3167  -10.5072    1.8747 H   0  0  0  0  0  0  0  0  0  0  0  0
   -6.4197   -9.4471    2.4389 H   0  0  0  0  0  0  0  0  0  0  0  0
   -6.4249   -7.0799    3.1857 H   0  0  0  0  0  0  0  0  0  0  0  0
   -4.2789   -5.8126    3.3637 H   0  0  0  0  0  0  0  0  0  0  0  0
   -5.6123   -6.5081   -0.5152 H   0  0  0  0  0  0  0  0  0  0  0  0
   -8.2294   -4.9170   -0.4463 H   0  0  0  0  0  0  0  0  0  0  0  0
   -8.1516   -8.4518    1.0607 H   0  0  0  0  0  0  0  0  0  0  0  0
   -6.7505   -8.4111   -0.1436 H   0  0  0  0  0  0  0  0  0  0  0  0
   -7.2092   -6.3298   -2.9152 H   0  0  0  0  0  0  0  0  0  0  0  0
   -7.3737   -4.5592   -2.6753 H   0  0  0  0  0  0  0  0  0  0  0  0
   -9.1171   -7.5880   -3.5226 H   0  0  0  0  0  0  0  0  0  0  0  0
  -11.5529   -7.5910   -4.1687 H   0  0  0  0  0  0  0  0  0  0  0  0
  -11.9177   -3.5437   -2.8471 H   0  0  0  0  0  0  0  0  0  0  0  0
   -9.5395   -3.5463   -2.2249 H   0  0  0  0  0  0  0  0  0  0  0  0
  -13.8620   -6.0533   -3.2914 H   0  0  0  0  0  0  0  0  0  0  0  0
   -4.3559    3.3055    0.4014 H   0  0  0  0  0  0  0  0  0  0  0  0
   -5.2139    5.5239    3.2410 H   0  0  0  0  0  0  0  0  0  0  0  0
   -7.2732    4.0290    1.5363 H   0  0  0  0  0  0  0  0  0  0  0  0
   -7.2040    4.1517    3.3688 H   0  0  0  0  0  0  0  0  0  0  0  0
   -7.7761    6.3314    4.4216 H   0  0  0  0  0  0  0  0  0  0  0  0
   -8.8817    8.4600    4.1652 H   0  0  0  0  0  0  0  0  0  0  0  0
   -8.8060    8.0868   -0.0792 H   0  0  0  0  0  0  0  0  0  0  0  0
   -7.6588    5.8754    0.1644 H   0  0  0  0  0  0  0  0  0  0  0  0
  -10.0474   10.0179    2.7428 H   0  0  0  0  0  0  0  0  0  0  0  0
   -5.3259    5.0730    0.3000 H   0  0  0  0  0  0  0  0  0  0  0  0
   -4.3645    6.2091    1.2034 H   0  0  0  0  0  0  0  0  0  0  0  0
  1  2  1  0
  2  3  2  0
  2  4  1  0
  4  5  1  0
  5  6  1  0
  6  7  1  0
  7  8  2  0
  7  9  1  0
  9 10  1  0
 10 11  1  0
 11 12  2  0
 12 13  1  0
 13 14  1  0
 14 15  2  0
 15 16  1  0
 16 17  2  0
 17 18  1  0
 18 19  2  0
  9 20  1  0
 20 21  1  0
 21 22  1  0
 22 23  1  0
 23 24  1  0
 24 25  1  0
 25 26  1  0
 26 27  1  0
 27 28  1  0
 28 29  2  3
 28 30  1  0
 22 31  1  0
 31 32  1  0
 32 33  2  0
 32 34  1  0
 34 35  1  0
 35 36  1  0
 36 37  1  0
 37 38  1  0
 38 39  2  0
 34 40  1  0
 40 41  1  0
 41 42  2  0
 41 43  1  0
 43 44  1  0
 44 45  1  0
 45 46  2  0
 46 47  1  0
 47 48  2  0
 48 49  1  0
 49 50  2  0
 43 51  1  0
 51 52  1  0
 52 53  2  0
 52 54  1  0
 54 55  1  0
 55 56  1  0
 56 57  1  0
 57 58  1  0
 58 59  2  0
 59 60  1  0
 54 61  1  0
 61 62  1  0
 62 63  2  0
 62 64  1  0
 64 65  1  0
 65 66  1  0
 66 67  1  0
 67 68  1  0
 68 69  1  0
 69 70  1  0
 70 71  1  0
 71 72  2  0
 71 73  1  0
 73 74  1  0
 74 75  1  0
 75 76  2  0
 75 77  1  0
 77 78  1  0
 78 79  1  0
 79 80  2  0
 77 81  1  0
 73 82  1  0
 82 83  1  0
 83 84  2  0
 84 85  1  0
 85 86  2  0
 86 87  1  0
 87 88  2  0
 69 89  1  0
 89 90  2  0
 89 91  1  0
 91 92  1  0
 92 93  1  0
 93 94  2  0
 93 95  1  0
 92 96  1  0
 96 97  1  0
 97 98  2  0
 98 99  1  0
 99100  2  0
100101  1  0
101102  2  0
100103  1  0
 64104  1  0
104105  1  0
105106  2  0
105107  1  0
107108  1  0
108109  1  0
109110  2  0
110111  1  0
111112  2  0
112113  1  0
113114  2  0
112115  1  0
107116  1  0
 79  5  1  0
 88 83  1  0
102 97  1  0
114109  1  0
 15 11  1  0
 38 20  1  0
 50 45  1  0
 60 56  2  0
 19 14  1  0
  1117  1  0
  1118  1  0
  4119  1  0
  4120  1  0
  5121  1  1
  6122  1  0
  9123  1  6
 10124  1  0
 10125  1  0
 12126  1  0
 13127  1  0
 16128  1  0
 17129  1  0
 18130  1  0
 19131  1  0
 21132  1  0
 21133  1  0
 22134  1  1
 23135  1  0
 23136  1  0
 24137  1  0
 24138  1  0
 25139  1  0
 25140  1  0
 26141  1  0
 26142  1  0
 27143  1  0
 29144  1  0
 30145  1  0
 30146  1  0
 31147  1  0
 34148  1  1
 35149  1  0
 35150  1  0
 37151  1  0
 37152  1  0
 40153  1  0
 43154  1  1
 44155  1  0
 44156  1  0
 46157  1  0
 47158  1  0
 48159  1  0
 49160  1  0
 50161  1  0
 51162  1  0
 54163  1  6
 55164  1  0
 55165  1  0
 57166  1  0
 58167  1  0
 60168  1  0
 61169  1  0
 64170  1  1
 65171  1  0
 65172  1  0
 68173  1  0
 68174  1  0
 69175  1  1
 70176  1  0
 73177  1  6
 74178  1  0
 77179  1  6
 78180  1  0
 81181  1  0
 81182  1  0
 81183  1  0
 82184  1  0
 82185  1  0
 84186  1  0
 85187  1  0
 86188  1  0
 87189  1  0
 88190  1  0
 91191  1  0
 92192  1  1
 95193  1  0
 95194  1  0
 96195  1  0
 96196  1  0
 98197  1  0
 99198  1  0
101199  1  0
102200  1  0
103201  1  0
104202  1  0
107203  1  1
108204  1  0
108205  1  0
110206  1  0
111207  1  0
113208  1  0
114209  1  0
115210  1  0
116211  1  0
116212  1  0
M  END
>  <Ligand ID>  (1) 
LIG0001138

>  <Ligand>  (1) 
CID 71718066

>  <SMILES>  (1) 
NC(=O)C[C@@H]1NC(=O)[C@H](Cc2c[nH]c3c2cccc3)N2C[C@H](CCCCNC(=N)N)NC(=O)[C@@H](CSCC2=O)NC(=O)[C@@H](Cc2ccccc2)NC(=O)[C@H](Cc2[nH]cnc2)NC(=O)[C@H](CSSC[C@H](NC(=O)[C@@H](NC(=O)[C@@H](NC1=O)C)Cc1ccccc1)C(=O)N[C@H](C(=O)N)Cc1ccc(cc1)O)NC(=O)[C@H](Cc1ccc(cc1)O)N

>  <CID>  (1) 
71718066.0

>  <ChEMBL ID>  (1) 
nan

>  <InChiKey>  (1) 
OPOVMSXOYHIUDD-UQNATJPTSA-N

>  <InChi>  (1) 
InChI=1S/C78H96N20O15S3/c1-43-68(104)91-57(30-44-12-4-2-5-13-44)71(107)97-63(75(111)90-56(67(81)103)29-47-21-25-52(100)26-22-47)40-116-115-39-62(95-69(105)54(79)28-46-19-23-51(99)24-20-46)76(112)93-59(33-50-36-84-42-87-50)73(109)92-58(31-45-14-6-3-7-15-45)72(108)96-61-38-114-41-66(102)98(37-49(89-74(61)110)16-10-11-27-85-78(82)83)64(32-48-35-86-55-18-9-8-17-53(48)55)77(113)94-60(34-65(80)101)70(106)88-43/h2-9,12-15,17-26,35-36,42-43,49,54,56-64,86,99-100H,10-11,16,27-34,37-41,79H2,1H3,(H2,80,101)(H2,81,103)(H,84,87)(H,88,106)(H,89,110)(H,90,111)(H,91,104)(H,92,109)(H,93,112)(H,94,113)(H,95,105)(H,96,108)(H,97,107)(H4,82,83,85)/t43-,49-,54-,56-,57-,58+,59-,60-,61+,62-,63-,64-/m0/s1

>  <IUPAC Name>  (1) 
(2S,5S,8S,11S,14R,19R,22S,25R,28S,34S)-N-[(2S)-1-amino-3-(4-hydroxyphenyl)-1-oxopropan-2-yl]-19-[[(2S)-2-amino-3-(4-hydroxyphenyl)propanoyl]amino]-5-(2-amino-2-oxoethyl)-11,25-dibenzyl-34-(4-carbamimidamidobutyl)-22-(1H-imidazol-5-ylmethyl)-2-(1H-indol-3-ylmethyl)-8-methyl-3,6,9,12,20,23,26,32,36-nonaoxo-16,17,30-trithia-1,4,7,10,13,21,24,27,35-nonazabicyclo[26.4.4]hexatriacontane-14-carboxamide

$$$$
