
     RDKit          3D

148154  0  0  0  0  0  0  0  0999 V2000
   -6.8552   -3.9747    4.3848 N   0  0  0  0  0  0  0  0  0  0  0  0
   -6.7310   -3.7968    2.9719 C   0  0  0  0  0  0  0  0  0  0  0  0
   -7.4364   -2.8535    2.4476 N   0  0  0  0  0  0  0  0  0  0  0  0
   -7.3549   -2.6220    1.0184 C   0  0  0  0  0  0  0  0  0  0  0  0
   -6.0285   -2.0253    0.6220 C   0  0  0  0  0  0  0  0  0  0  0  0
   -6.0106   -1.8112   -0.8738 C   0  0  0  0  0  0  0  0  0  0  0  0
   -4.7148   -1.2407   -1.3621 C   0  0  2  0  0  0  0  0  0  0  0  0
   -3.5854   -2.0458   -1.0907 N   0  0  0  0  0  0  0  0  0  0  0  0
   -2.4813   -2.3975   -1.9106 C   0  0  0  0  0  0  0  0  0  0  0  0
   -2.3740   -1.8831   -2.9817 O   0  0  0  0  0  0  0  0  0  0  0  0
   -1.5474   -3.4158   -1.2758 C   0  0  2  0  0  0  0  0  0  0  0  0
   -0.2823   -3.5197   -1.9612 N   0  0  0  0  0  0  0  0  0  0  0  0
    0.8503   -2.9557   -1.3808 C   0  0  0  0  0  0  0  0  0  0  0  0
    0.5474   -2.3006   -0.2792 O   0  0  0  0  0  0  0  0  0  0  0  0
    2.2693   -2.8867   -1.6697 C   0  0  2  0  0  0  0  0  0  0  0  0
    3.0296   -4.1188   -1.2834 C   0  0  0  0  0  0  0  0  0  0  0  0
    2.6465   -5.3294   -2.0011 C   0  0  0  0  0  0  0  0  0  0  0  0
    1.7742   -5.6157   -2.9455 N   0  0  0  0  0  0  0  0  0  0  0  0
    1.8276   -6.8891   -3.2769 C   0  0  0  0  0  0  0  0  0  0  0  0
    2.7948   -7.4827   -2.5047 C   0  0  0  0  0  0  0  0  0  0  0  0
    3.2832   -6.5238   -1.7341 N   0  0  0  0  0  0  0  0  0  0  0  0
    2.8656   -1.8139   -0.7913 N   0  0  0  0  0  0  0  0  0  0  0  0
    4.0852   -1.1740   -1.1136 C   0  0  0  0  0  0  0  0  0  0  0  0
    4.7002   -1.6259   -2.0807 O   0  0  0  0  0  0  0  0  0  0  0  0
    4.5768   -0.0040   -0.2782 C   0  0  2  0  0  0  0  0  0  0  0  0
    3.9524    1.2642   -0.8040 C   0  0  0  0  0  0  0  0  0  0  0  0
    2.2173    1.3915   -0.8718 S   0  0  0  0  0  0  0  0  0  0  0  0
    1.1397    1.6363    0.9025 S   0  0  0  0  0  0  0  0  0  0  0  0
    0.9207    3.4209    1.2896 C   0  0  0  0  0  0  0  0  0  0  0  0
    0.1416    4.0890    0.1835 C   0  0  1  0  0  0  0  0  0  0  0  0
   -1.2400    3.7318    0.0602 N   0  0  0  0  0  0  0  0  0  0  0  0
   -1.7803    2.5854   -0.5685 C   0  0  0  0  0  0  0  0  0  0  0  0
   -0.9784    1.7333   -0.9557 O   0  0  0  0  0  0  0  0  0  0  0  0
   -3.2247    2.3354   -0.7848 C   0  0  2  0  0  0  0  0  0  0  0  0
   -3.3293    0.9181   -1.1390 N   0  0  0  0  0  0  0  0  0  0  0  0
   -4.5649    0.2033   -1.0970 C   0  0  0  0  0  0  0  0  0  0  0  0
   -5.5572    0.8626   -0.8300 O   0  0  0  0  0  0  0  0  0  0  0  0
   -3.4950    3.1805   -2.0625 C   0  0  0  0  0  0  0  0  0  0  0  0
   -4.8792    3.1312   -2.5225 C   0  0  0  0  0  0  0  0  0  0  0  0
   -5.2964    2.4154   -3.6461 C   0  0  0  0  0  0  0  0  0  0  0  0
   -6.6122    2.6020   -3.7914 N   0  0  0  0  0  0  0  0  0  0  0  0
   -7.0747    3.4158   -2.8019 C   0  0  0  0  0  0  0  0  0  0  0  0
   -5.9924    3.7621   -1.9870 C   0  0  0  0  0  0  0  0  0  0  0  0
   -6.1839    4.5804   -0.9046 C   0  0  0  0  0  0  0  0  0  0  0  0
   -7.4370    5.0772   -0.5979 C   0  0  0  0  0  0  0  0  0  0  0  0
   -8.5026    4.7335   -1.4057 C   0  0  0  0  0  0  0  0  0  0  0  0
   -8.3210    3.9075   -2.5010 C   0  0  0  0  0  0  0  0  0  0  0  0
    0.3090    5.5414    0.2366 C   0  0  0  0  0  0  0  0  0  0  0  0
   -0.6965    6.2766    0.0212 O   0  0  0  0  0  0  0  0  0  0  0  0
    1.5241    6.2188    0.5184 N   0  0  0  0  0  0  0  0  0  0  0  0
    1.5887    7.6460    0.5379 C   0  0  2  0  0  0  0  0  0  0  0  0
    2.8146    8.2496    0.0116 C   0  0  0  0  0  0  0  0  0  0  0  0
    2.8723    9.5302    0.0404 O   0  0  0  0  0  0  0  0  0  0  0  0
    3.9196    7.5360   -0.5170 N   0  0  0  0  0  0  0  0  0  0  0  0
    1.2285    8.2436    1.8904 C   0  0  2  0  0  0  0  0  0  0  0  0
    1.3076    9.6349    1.8926 O   0  0  0  0  0  0  0  0  0  0  0  0
    2.0915    7.7208    3.0111 C   0  0  0  0  0  0  0  0  0  0  0  0
    5.9964    0.1359   -0.6799 N   0  0  0  0  0  0  0  0  0  0  0  0
    7.0131   -0.0984    0.2864 C   0  0  0  0  0  0  0  0  0  0  0  0
    6.7610   -0.4269    1.4797 O   0  0  0  0  0  0  0  0  0  0  0  0
    8.4441    0.0369   -0.0796 C   0  0  1  0  0  0  0  0  0  0  0  0
    8.7187    1.5401   -0.1758 C   0  0  0  0  0  0  0  0  0  0  0  0
    8.4248    2.0789    1.1813 C   0  0  0  0  0  0  0  0  0  0  0  0
    7.1873    2.5759    1.5434 C   0  0  0  0  0  0  0  0  0  0  0  0
    6.9270    3.0624    2.8020 C   0  0  0  0  0  0  0  0  0  0  0  0
    7.8997    3.0721    3.7567 C   0  0  0  0  0  0  0  0  0  0  0  0
    9.1550    2.5848    3.4448 C   0  0  0  0  0  0  0  0  0  0  0  0
    9.4009    2.0932    2.1572 C   0  0  0  0  0  0  0  0  0  0  0  0
    9.3117   -0.4461    0.9855 N   0  0  0  0  0  0  0  0  0  0  0  0
   -2.3071   -4.7086   -1.1744 C   0  0  0  0  0  0  0  0  0  0  0  0
   -1.5914   -5.8403   -0.5866 C   0  0  0  0  0  0  0  0  0  0  0  0
   -1.0253   -6.8106   -1.4019 C   0  0  0  0  0  0  0  0  0  0  0  0
   -0.3512   -7.9070   -0.9114 C   0  0  0  0  0  0  0  0  0  0  0  0
   -0.2057   -8.0912    0.4521 C   0  0  0  0  0  0  0  0  0  0  0  0
   -0.7600   -7.1404    1.2816 C   0  0  0  0  0  0  0  0  0  0  0  0
   -1.4361   -6.0424    0.7834 C   0  0  0  0  0  0  0  0  0  0  0  0
   -1.9788   -5.1485    1.6786 C   0  0  0  0  0  0  0  0  0  0  0  0
   -1.8617   -5.3223    3.0244 C   0  0  0  0  0  0  0  0  0  0  0  0
   -1.1886   -6.4117    3.5597 C   0  0  0  0  0  0  0  0  0  0  0  0
   -0.6373   -7.3230    2.6592 C   0  0  0  0  0  0  0  0  0  0  0  0
   -5.8672   -4.6443    2.2238 N   0  0  0  0  0  0  0  0  0  0  0  0
   -7.7756   -4.1546    4.8609 H   0  0  0  0  0  0  0  0  0  0  0  0
   -5.9483   -3.9200    4.9432 H   0  0  0  0  0  0  0  0  0  0  0  0
   -7.4174   -3.6091    0.4940 H   0  0  0  0  0  0  0  0  0  0  0  0
   -8.2350   -2.0439    0.6356 H   0  0  0  0  0  0  0  0  0  0  0  0
   -5.7995   -1.1120    1.1947 H   0  0  0  0  0  0  0  0  0  0  0  0
   -5.2598   -2.7690    0.9157 H   0  0  0  0  0  0  0  0  0  0  0  0
   -6.8808   -1.2241   -1.2107 H   0  0  0  0  0  0  0  0  0  0  0  0
   -6.1064   -2.8178   -1.3313 H   0  0  0  0  0  0  0  0  0  0  0  0
   -4.7863   -1.2495   -2.5082 H   0  0  0  0  0  0  0  0  0  0  0  0
   -3.5242   -2.4444   -0.1149 H   0  0  0  0  0  0  0  0  0  0  0  0
   -1.3956   -3.0175   -0.2623 H   0  0  0  0  0  0  0  0  0  0  0  0
   -0.2385   -3.9689   -2.8553 H   0  0  0  0  0  0  0  0  0  0  0  0
    2.4866   -2.6336   -2.7410 H   0  0  0  0  0  0  0  0  0  0  0  0
    2.8458   -4.3240   -0.1893 H   0  0  0  0  0  0  0  0  0  0  0  0
    4.1358   -3.9551   -1.3335 H   0  0  0  0  0  0  0  0  0  0  0  0
    1.2570   -7.4576   -4.0134 H   0  0  0  0  0  0  0  0  0  0  0  0
    3.1198   -8.5234   -2.5025 H   0  0  0  0  0  0  0  0  0  0  0  0
    4.0466   -6.6813   -1.0331 H   0  0  0  0  0  0  0  0  0  0  0  0
    2.4024   -1.5219    0.0623 H   0  0  0  0  0  0  0  0  0  0  0  0
    4.5011   -0.1976    0.7818 H   0  0  0  0  0  0  0  0  0  0  0  0
    4.4065    1.4858   -1.8093 H   0  0  0  0  0  0  0  0  0  0  0  0
    4.3494    2.0906   -0.1402 H   0  0  0  0  0  0  0  0  0  0  0  0
    0.4870    3.4921    2.2801 H   0  0  0  0  0  0  0  0  0  0  0  0
    1.9396    3.8325    1.3003 H   0  0  0  0  0  0  0  0  0  0  0  0
    0.6996    3.7139   -0.7626 H   0  0  0  0  0  0  0  0  0  0  0  0
   -1.9432    4.3647    0.4719 H   0  0  0  0  0  0  0  0  0  0  0  0
   -3.8975    2.6464   -0.0060 H   0  0  0  0  0  0  0  0  0  0  0  0
   -2.5262    0.3530   -1.4402 H   0  0  0  0  0  0  0  0  0  0  0  0
   -2.8008    2.7407   -2.8128 H   0  0  0  0  0  0  0  0  0  0  0  0
   -3.1033    4.2079   -1.8944 H   0  0  0  0  0  0  0  0  0  0  0  0
   -4.6582    1.8248   -4.2751 H   0  0  0  0  0  0  0  0  0  0  0  0
   -7.2674    2.2171   -4.5322 H   0  0  0  0  0  0  0  0  0  0  0  0
   -5.3378    4.8414   -0.2784 H   0  0  0  0  0  0  0  0  0  0  0  0
   -7.5346    5.7250    0.2757 H   0  0  0  0  0  0  0  0  0  0  0  0
   -9.5046    5.1214   -1.1712 H   0  0  0  0  0  0  0  0  0  0  0  0
   -9.1587    3.6244   -3.1568 H   0  0  0  0  0  0  0  0  0  0  0  0
    2.3864    5.6740    0.7083 H   0  0  0  0  0  0  0  0  0  0  0  0
    0.7244    7.9967   -0.1223 H   0  0  0  0  0  0  0  0  0  0  0  0
    3.9790    7.1662   -1.4845 H   0  0  0  0  0  0  0  0  0  0  0  0
    4.7502    7.3602    0.1016 H   0  0  0  0  0  0  0  0  0  0  0  0
    0.1639    8.0057    2.1176 H   0  0  0  0  0  0  0  0  0  0  0  0
    0.4736   10.0903    1.6418 H   0  0  0  0  0  0  0  0  0  0  0  0
    2.5296    6.7183    2.7996 H   0  0  0  0  0  0  0  0  0  0  0  0
    1.4539    7.6779    3.9404 H   0  0  0  0  0  0  0  0  0  0  0  0
    2.8968    8.4539    3.2508 H   0  0  0  0  0  0  0  0  0  0  0  0
    6.2436    0.4014   -1.6552 H   0  0  0  0  0  0  0  0  0  0  0  0
    8.7154   -0.4817   -1.0082 H   0  0  0  0  0  0  0  0  0  0  0  0
    8.0663    1.9669   -0.9506 H   0  0  0  0  0  0  0  0  0  0  0  0
    9.7965    1.6982   -0.3411 H   0  0  0  0  0  0  0  0  0  0  0  0
    6.4202    2.5760    0.7962 H   0  0  0  0  0  0  0  0  0  0  0  0
    5.9298    3.4321    3.0040 H   0  0  0  0  0  0  0  0  0  0  0  0
    7.6356    3.4669    4.7283 H   0  0  0  0  0  0  0  0  0  0  0  0
    9.9427    2.5856    4.1976 H   0  0  0  0  0  0  0  0  0  0  0  0
   10.3713    1.7069    1.8712 H   0  0  0  0  0  0  0  0  0  0  0  0
   10.1738   -0.8937    0.6106 H   0  0  0  0  0  0  0  0  0  0  0  0
    8.8201   -0.9981    1.7061 H   0  0  0  0  0  0  0  0  0  0  0  0
   -2.5562   -4.9854   -2.2483 H   0  0  0  0  0  0  0  0  0  0  0  0
   -3.2722   -4.5650   -0.6239 H   0  0  0  0  0  0  0  0  0  0  0  0
   -1.1466   -6.6551   -2.4871 H   0  0  0  0  0  0  0  0  0  0  0  0
    0.0798   -8.6549   -1.5556 H   0  0  0  0  0  0  0  0  0  0  0  0
    0.3237   -8.9560    0.8244 H   0  0  0  0  0  0  0  0  0  0  0  0
   -2.5336   -4.2755    1.3191 H   0  0  0  0  0  0  0  0  0  0  0  0
   -2.2863   -4.6180    3.7172 H   0  0  0  0  0  0  0  0  0  0  0  0
   -1.0977   -6.5415    4.6128 H   0  0  0  0  0  0  0  0  0  0  0  0
   -0.1183   -8.1679    3.0845 H   0  0  0  0  0  0  0  0  0  0  0  0
   -6.3489   -5.2157    1.4696 H   0  0  0  0  0  0  0  0  0  0  0  0
   -4.8346   -4.7126    2.3866 H   0  0  0  0  0  0  0  0  0  0  0  0
  1  2  1  0
  2  3  2  3
  3  4  1  0
  4  5  1  0
  5  6  1  0
  6  7  1  0
  7  8  1  0
  8  9  1  0
  9 10  2  0
  9 11  1  0
 11 12  1  0
 12 13  1  0
 13 14  2  0
 13 15  1  0
 15 16  1  0
 16 17  1  0
 17 18  2  0
 18 19  1  0
 19 20  2  0
 20 21  1  0
 15 22  1  0
 22 23  1  0
 23 24  2  0
 23 25  1  0
 25 26  1  0
 26 27  1  0
 27 28  1  0
 28 29  1  0
 29 30  1  0
 30 31  1  0
 31 32  1  0
 32 33  2  0
 32 34  1  0
 34 35  1  0
 35 36  1  0
 36 37  2  0
 34 38  1  0
 38 39  1  0
 39 40  2  0
 40 41  1  0
 41 42  1  0
 42 43  2  0
 43 44  1  0
 44 45  2  0
 45 46  1  0
 46 47  2  0
 30 48  1  0
 48 49  2  0
 48 50  1  0
 50 51  1  0
 51 52  1  0
 52 53  2  0
 52 54  1  0
 51 55  1  0
 55 56  1  0
 55 57  1  0
 25 58  1  0
 58 59  1  0
 59 60  2  0
 59 61  1  0
 61 62  1  0
 62 63  1  0
 63 64  2  0
 64 65  1  0
 65 66  2  0
 66 67  1  0
 67 68  2  0
 61 69  1  0
 11 70  1  0
 70 71  1  0
 71 72  2  0
 72 73  1  0
 73 74  2  0
 74 75  1  0
 75 76  2  0
 76 77  1  0
 77 78  2  0
 78 79  1  0
 79 80  2  0
  2 81  1  0
 36  7  1  0
 43 39  1  0
 68 63  1  0
 76 71  1  0
 21 17  1  0
 47 42  1  0
 80 75  1  0
  1 82  1  0
  1 83  1  0
  4 84  1  0
  4 85  1  0
  5 86  1  0
  5 87  1  0
  6 88  1  0
  6 89  1  0
  7 90  1  6
  8 91  1  0
 11 92  1  1
 12 93  1  0
 15 94  1  6
 16 95  1  0
 16 96  1  0
 19 97  1  0
 20 98  1  0
 21 99  1  0
 22100  1  0
 25101  1  1
 26102  1  0
 26103  1  0
 29104  1  0
 29105  1  0
 30106  1  6
 31107  1  0
 34108  1  1
 35109  1  0
 38110  1  0
 38111  1  0
 40112  1  0
 41113  1  0
 44114  1  0
 45115  1  0
 46116  1  0
 47117  1  0
 50118  1  0
 51119  1  6
 54120  1  0
 54121  1  0
 55122  1  1
 56123  1  0
 57124  1  0
 57125  1  0
 57126  1  0
 58127  1  0
 61128  1  6
 62129  1  0
 62130  1  0
 64131  1  0
 65132  1  0
 66133  1  0
 67134  1  0
 68135  1  0
 69136  1  0
 69137  1  0
 70138  1  0
 70139  1  0
 72140  1  0
 73141  1  0
 74142  1  0
 77143  1  0
 78144  1  0
 79145  1  0
 80146  1  0
 81147  1  0
 81148  1  0
M  END
>  <Ligand ID>  (1) 
LIG0001102

>  <Ligand>  (1) 
CHEMBL405791

>  <SMILES>  (1) 
NC(=NCCC[C@@H]1NC(=O)[C@H](NC(=O)[C@H](Cc2ncc[nH]2)NC(=O)[C@H](CSSC[C@@H](NC(=O)[C@H](NC1=O)Cc1c[nH]c2c1cccc2)C(=O)N[C@H](C(=O)N)[C@H](O)C)NC(=O)[C@@H](Cc1ccccc1)N)Cc1cccc2c1cccc2)N

>  <CID>  (1) 
44285416.0

>  <ChEMBL ID>  (1) 
nan

>  <InChiKey>  (1) 
ZZPIZTRTJLPEKP-FKSJIRLYSA-N

>  <InChi>  (1) 
InChI=1S/C55H67N15O9S2/c1-30(71)46(47(57)72)70-54(79)44-29-81-80-28-43(68-48(73)37(56)23-31-11-3-2-4-12-31)53(78)67-42(26-45-60-21-22-61-45)52(77)66-40(24-33-15-9-14-32-13-5-6-16-35(32)33)50(75)64-39(19-10-20-62-55(58)59)49(74)65-41(51(76)69-44)25-34-27-63-38-18-8-7-17-36(34)38/h2-9,11-18,21-22,27,30,37,39-44,46,63,71H,10,19-20,23-26,28-29,56H2,1H3,(H2,57,72)(H,60,61)(H,64,75)(H,65,74)(H,66,77)(H,67,78)(H,68,73)(H,69,76)(H,70,79)(H4,58,59,62)/t30-,37-,39+,40-,41-,42+,43+,44-,46+/m1/s1

>  <IUPAC Name>  (1) 
(4S,7R,10S,13R,16S,19R)-N-[(2S,3R)-1-amino-3-hydroxy-1-oxobutan-2-yl]-19-[[(2R)-2-amino-3-phenylpropanoyl]amino]-10-[3-(diaminomethylideneamino)propyl]-16-(1H-imidazol-2-ylmethyl)-7-(1H-indol-3-ylmethyl)-13-(naphthalen-1-ylmethyl)-6,9,12,15,18-pentaoxo-1,2-dithia-5,8,11,14,17-pentazacycloicosane-4-carboxamide

$$$$
