
     RDKit          3D

 19 20  0  0  0  0  0  0  0  0999 V2000
   -3.0885   -1.5221   -0.6131 O   0  0  0  0  0  0  0  0  0  0  0  0
   -2.0362   -0.6669   -0.3100 C   0  0  0  0  0  0  0  0  0  0  0  0
   -2.3584    0.6518    0.0051 C   0  0  0  0  0  0  0  0  0  0  0  0
   -1.3851    1.5543    0.3141 C   0  0  0  0  0  0  0  0  0  0  0  0
   -1.6206    2.8790    0.6376 O   0  0  0  0  0  0  0  0  0  0  0  0
   -0.0700    1.1294    0.3075 C   0  0  0  0  0  0  0  0  0  0  0  0
    0.2593   -0.1779   -0.0041 C   0  0  0  0  0  0  0  0  0  0  0  0
   -0.7126   -1.0841   -0.3140 C   0  0  0  0  0  0  0  0  0  0  0  0
    1.6599   -0.5709    0.0041 C   0  0  0  0  0  0  0  0  0  0  0  0
    2.7268    0.1074   -0.4825 N   0  0  0  0  0  0  0  0  0  0  0  0
    3.8311   -0.6140   -0.2685 N   0  0  0  0  0  0  0  0  0  0  0  0
    3.4684   -1.7441    0.3505 N   0  0  0  0  0  0  0  0  0  0  0  0
    2.1380   -1.7146    0.5160 N   0  0  0  0  0  0  0  0  0  0  0  0
   -3.4643   -2.1067    0.1476 H   0  0  0  0  0  0  0  0  0  0  0  0
   -3.3948    0.9628    0.0042 H   0  0  0  0  0  0  0  0  0  0  0  0
   -0.9915    3.5707    0.2504 H   0  0  0  0  0  0  0  0  0  0  0  0
    0.7376    1.8099    0.5463 H   0  0  0  0  0  0  0  0  0  0  0  0
   -0.5245   -2.1005   -0.5616 H   0  0  0  0  0  0  0  0  0  0  0  0
    4.8251   -0.3633   -0.5296 H   0  0  0  0  0  0  0  0  0  0  0  0
  1  2  1  0
  2  3  2  0
  3  4  1  0
  4  5  1  0
  4  6  2  0
  6  7  1  0
  7  8  2  0
  7  9  1  0
  9 10  2  0
 10 11  1  0
 11 12  1  0
 12 13  2  0
  8  2  1  0
 13  9  1  0
  1 14  1  0
  3 15  1  0
  5 16  1  0
  6 17  1  0
  8 18  1  0
 11 19  1  0
M  END
>  <Ligand ID>  (1) 
LIG0005751

>  <Ligand>  (1) 
CHEMBL2146993

>  <SMILES>  (1) 
Oc1cc(O)cc(c1)c1n[nH]nn1

>  <CID>  (1) 
66560367.0

>  <ChEMBL ID>  (1) 
nan

>  <InChiKey>  (1) 
STZIPIVZRWVCLX-UHFFFAOYSA-N

>  <InChi>  (1) 
InChI=1S/C7H6N4O2/c12-5-1-4(2-6(13)3-5)7-8-10-11-9-7/h1-3,12-13H,(H,8,9,10,11)

>  <IUPAC Name>  (1) 
5-(2H-tetrazol-5-yl)benzene-1,3-diol

$$$$
