
     RDKit          3D

 26 28  0  0  0  0  0  0  0  0999 V2000
    3.1276    2.7196   -1.2029 Cl  0  0  0  0  0  0  0  0  0  0  0  0
    2.7292    1.1809   -0.4817 C   0  0  0  0  0  0  0  0  0  0  0  0
    3.6978    0.2279   -0.1774 C   0  0  0  0  0  0  0  0  0  0  0  0
    3.3273   -0.9768    0.3941 C   0  0  0  0  0  0  0  0  0  0  0  0
    1.9910   -1.2510    0.6708 C   0  0  0  0  0  0  0  0  0  0  0  0
    1.0435   -0.2982    0.3641 C   0  0  0  0  0  0  0  0  0  0  0  0
    1.3926    0.9194   -0.2105 C   0  0  0  0  0  0  0  0  0  0  0  0
    0.1794    1.7071   -0.4137 C   0  0  0  0  0  0  0  0  0  0  0  0
    0.0865    2.8659   -0.9108 O   0  0  0  0  0  0  0  0  0  0  0  0
   -0.9122    0.9213    0.0586 N   0  0  0  0  0  0  0  0  0  0  0  0
   -0.4297   -0.3575    0.5626 C   0  0  0  0  0  0  0  0  0  0  0  0
   -1.0662   -1.3759   -0.3641 C   0  0  0  0  0  0  0  0  0  0  0  0
   -2.4720   -1.3439   -0.1653 N   0  0  0  0  0  0  0  0  0  0  0  0
   -3.1234   -0.0986   -0.2673 C   0  0  0  0  0  0  0  0  0  0  0  0
   -2.3607    1.1262    0.1386 C   0  0  0  0  0  0  0  0  0  0  0  0
    4.7433    0.4375   -0.3917 H   0  0  0  0  0  0  0  0  0  0  0  0
    4.0817   -1.7353    0.6382 H   0  0  0  0  0  0  0  0  0  0  0  0
    1.7190   -2.2108    1.1234 H   0  0  0  0  0  0  0  0  0  0  0  0
   -0.7070   -0.5014    1.6146 H   0  0  0  0  0  0  0  0  0  0  0  0
   -0.7901   -1.0488   -1.3900 H   0  0  0  0  0  0  0  0  0  0  0  0
   -0.6984   -2.3887   -0.1256 H   0  0  0  0  0  0  0  0  0  0  0  0
   -2.7379   -1.8618    0.6856 H   0  0  0  0  0  0  0  0  0  0  0  0
   -3.5315    0.0627   -1.2803 H   0  0  0  0  0  0  0  0  0  0  0  0
   -4.0306   -0.1189    0.4043 H   0  0  0  0  0  0  0  0  0  0  0  0
   -2.6885    1.9919   -0.4706 H   0  0  0  0  0  0  0  0  0  0  0  0
   -2.5707    1.4075    1.1969 H   0  0  0  0  0  0  0  0  0  0  0  0
  1  2  1  0
  2  3  2  0
  3  4  1  0
  4  5  2  0
  5  6  1  0
  6  7  2  0
  7  8  1  0
  8  9  2  0
  8 10  1  0
 10 11  1  0
 11 12  1  0
 12 13  1  0
 13 14  1  0
 14 15  1  0
  7  2  1  0
 15 10  1  0
 11  6  1  0
  3 16  1  0
  4 17  1  0
  5 18  1  0
 11 19  1  0
 12 20  1  0
 12 21  1  0
 13 22  1  0
 14 23  1  0
 14 24  1  0
 15 25  1  0
 15 26  1  0
M  END
>  <Ligand ID>  (1) 
LIG0003222

>  <Ligand>  (1) 
CHEMBL223896

>  <SMILES>  (1) 
Clc1cccc2c1C(=O)N1C2CNCC1

>  <CID>  (1) 
11737032.0

>  <ChEMBL ID>  (1) 
nan

>  <InChiKey>  (1) 
QFNLHHFCTDZQJU-UHFFFAOYSA-N

>  <InChi>  (1) 
InChI=1S/C11H11ClN2O/c12-8-3-1-2-7-9-6-13-4-5-14(9)11(15)10(7)8/h1-3,9,13H,4-6H2

>  <IUPAC Name>  (1) 
7-chloro-2,3,4,10b-tetrahydro-1H-pyrazino[1,2-b]isoindol-6-one

$$$$
