
     RDKit          3D

 84 86  0  0  0  0  0  0  0  0999 V2000
   -7.9972    5.4979   -1.0648 C   0  0  0  0  0  0  0  0  0  0  0  0
   -7.6474    4.5356   -0.1029 O   0  0  0  0  0  0  0  0  0  0  0  0
   -7.0935    3.3381   -0.5039 C   0  0  0  0  0  0  0  0  0  0  0  0
   -6.7556    2.4045    0.4483 C   0  0  0  0  0  0  0  0  0  0  0  0
   -6.1903    1.1785    0.0685 C   0  0  0  0  0  0  0  0  0  0  0  0
   -5.9367    0.8250   -1.2079 C   0  0  0  0  0  0  0  0  0  0  0  0
   -6.2955    1.8030   -2.1751 C   0  0  0  0  0  0  0  0  0  0  0  0
   -6.8484    3.0007   -1.8150 C   0  0  0  0  0  0  0  0  0  0  0  0
   -5.2450   -0.3012   -1.7508 C   0  0  0  0  0  0  0  0  0  0  0  0
   -4.2679   -0.9970   -1.2523 C   0  0  0  0  0  0  0  0  0  0  0  0
   -3.5981   -0.8004    0.0023 C   0  0  0  0  0  0  0  0  0  0  0  0
   -3.7737    0.0865    0.8550 O   0  0  0  0  0  0  0  0  0  0  0  0
   -2.5747   -1.7524    0.3419 N   0  0  0  0  0  0  0  0  0  0  0  0
   -1.8946   -1.5719    1.5930 C   0  0  2  0  0  0  0  0  0  0  0  0
   -0.4445   -1.3209    1.3178 C   0  0  0  0  0  0  0  0  0  0  0  0
    0.2937   -1.1252    2.3168 O   0  0  0  0  0  0  0  0  0  0  0  0
    0.0810   -1.3014   -0.0122 N   0  0  0  0  0  0  0  0  0  0  0  0
    1.4689   -1.0526   -0.3143 C   0  0  1  0  0  0  0  0  0  0  0  0
    1.7946    0.3198    0.1567 C   0  0  0  0  0  0  0  0  0  0  0  0
    0.9209    1.0671    0.7058 O   0  0  0  0  0  0  0  0  0  0  0  0
    3.1294    0.7778   -0.0270 N   0  0  0  0  0  0  0  0  0  0  0  0
    3.5428    2.1285    0.4101 C   0  0  1  0  0  0  0  0  0  0  0  0
    4.5622    1.9932    1.4490 C   0  0  0  0  0  0  0  0  0  0  0  0
    5.1718    2.9539    2.0001 O   0  0  0  0  0  0  0  0  0  0  0  0
    4.9487    0.6845    1.9341 N   0  0  0  0  0  0  0  0  0  0  0  0
    3.8990    2.8975   -0.8172 C   0  0  0  0  0  0  0  0  0  0  0  0
    4.9852    2.3508   -1.6614 C   0  0  0  0  0  0  0  0  0  0  0  0
    6.3000    2.2987   -0.9826 C   0  0  0  0  0  0  0  0  0  0  0  0
    6.6637    3.6694   -0.6140 N   0  0  0  0  0  0  0  0  0  0  0  0
    7.7630    3.9720   -0.0149 C   0  0  0  0  0  0  0  0  0  0  0  0
    7.9689    5.3681    0.2770 N   0  0  0  0  0  0  0  0  0  0  0  0
    8.7320    2.9888    0.3450 N   0  0  0  0  0  0  0  0  0  0  0  0
    2.3460   -2.0951    0.2632 C   0  0  0  0  0  0  0  0  0  0  0  0
    2.0878   -3.4731   -0.2085 C   0  0  0  0  0  0  0  0  0  0  0  0
    1.2288   -4.3501    0.4184 C   0  0  0  0  0  0  0  0  0  0  0  0
    1.0319   -5.6150   -0.0680 C   0  0  0  0  0  0  0  0  0  0  0  0
    1.6909   -6.0210   -1.1876 C   0  0  0  0  0  0  0  0  0  0  0  0
    2.5672   -5.1700   -1.8527 C   0  0  0  0  0  0  0  0  0  0  0  0
    2.7594   -3.8934   -1.3533 C   0  0  0  0  0  0  0  0  0  0  0  0
   -1.9867   -2.8466    2.4131 C   0  0  0  0  0  0  0  0  0  0  0  0
   -3.4044   -3.2008    2.6957 C   0  0  0  0  0  0  0  0  0  0  0  0
   -4.2191   -3.9749    1.9475 N   0  0  0  0  0  0  0  0  0  0  0  0
   -5.4217   -4.0287    2.5789 C   0  0  0  0  0  0  0  0  0  0  0  0
   -5.3580   -3.2919    3.7153 N   0  0  0  0  0  0  0  0  0  0  0  0
   -4.1202   -2.7770    3.7977 C   0  0  0  0  0  0  0  0  0  0  0  0
   -8.8858    5.1478   -1.6172 H   0  0  0  0  0  0  0  0  0  0  0  0
   -7.1408    5.6140   -1.7652 H   0  0  0  0  0  0  0  0  0  0  0  0
   -8.2318    6.4731   -0.5708 H   0  0  0  0  0  0  0  0  0  0  0  0
   -6.9333    2.6357    1.4789 H   0  0  0  0  0  0  0  0  0  0  0  0
   -6.0372    0.4969    0.8680 H   0  0  0  0  0  0  0  0  0  0  0  0
   -6.1386    1.6235   -3.2260 H   0  0  0  0  0  0  0  0  0  0  0  0
   -7.1106    3.7231   -2.5708 H   0  0  0  0  0  0  0  0  0  0  0  0
   -5.6010   -0.6468   -2.7554 H   0  0  0  0  0  0  0  0  0  0  0  0
   -3.9210   -1.8429   -1.8887 H   0  0  0  0  0  0  0  0  0  0  0  0
   -2.3094   -2.5445   -0.2546 H   0  0  0  0  0  0  0  0  0  0  0  0
   -2.2613   -0.7038    2.1805 H   0  0  0  0  0  0  0  0  0  0  0  0
   -0.6463   -1.4871   -0.7675 H   0  0  0  0  0  0  0  0  0  0  0  0
    1.5542   -1.0586   -1.4228 H   0  0  0  0  0  0  0  0  0  0  0  0
    3.8735    0.1925   -0.4717 H   0  0  0  0  0  0  0  0  0  0  0  0
    2.6094    2.6304    0.8471 H   0  0  0  0  0  0  0  0  0  0  0  0
    4.2522   -0.0838    1.8324 H   0  0  0  0  0  0  0  0  0  0  0  0
    5.8660    0.4988    2.3647 H   0  0  0  0  0  0  0  0  0  0  0  0
    2.9634    2.9149   -1.4735 H   0  0  0  0  0  0  0  0  0  0  0  0
    4.0365    3.9932   -0.5981 H   0  0  0  0  0  0  0  0  0  0  0  0
    5.0764    2.9965   -2.5778 H   0  0  0  0  0  0  0  0  0  0  0  0
    4.6620    1.3534   -2.0683 H   0  0  0  0  0  0  0  0  0  0  0  0
    7.0497    1.9260   -1.7568 H   0  0  0  0  0  0  0  0  0  0  0  0
    6.3880    1.6179   -0.1471 H   0  0  0  0  0  0  0  0  0  0  0  0
    8.3733    6.0226   -0.4300 H   0  0  0  0  0  0  0  0  0  0  0  0
    7.6947    5.7019    1.2331 H   0  0  0  0  0  0  0  0  0  0  0  0
    8.5714    2.2687    1.0860 H   0  0  0  0  0  0  0  0  0  0  0  0
    9.6368    3.0244   -0.1830 H   0  0  0  0  0  0  0  0  0  0  0  0
    3.4296   -1.9088    0.1266 H   0  0  0  0  0  0  0  0  0  0  0  0
    2.1980   -2.1138    1.3824 H   0  0  0  0  0  0  0  0  0  0  0  0
    0.7326   -3.9842    1.3034 H   0  0  0  0  0  0  0  0  0  0  0  0
    0.3410   -6.2645    0.4688 H   0  0  0  0  0  0  0  0  0  0  0  0
    1.5165   -7.0339   -1.5552 H   0  0  0  0  0  0  0  0  0  0  0  0
    3.0597   -5.5439   -2.7306 H   0  0  0  0  0  0  0  0  0  0  0  0
    3.4400   -3.2131   -1.8593 H   0  0  0  0  0  0  0  0  0  0  0  0
   -1.5758   -3.6561    1.7470 H   0  0  0  0  0  0  0  0  0  0  0  0
   -1.3475   -2.7769    3.2914 H   0  0  0  0  0  0  0  0  0  0  0  0
   -3.9792   -4.4516    1.0445 H   0  0  0  0  0  0  0  0  0  0  0  0
   -6.2925   -4.5823    2.2160 H   0  0  0  0  0  0  0  0  0  0  0  0
   -3.7774   -2.1381    4.6117 H   0  0  0  0  0  0  0  0  0  0  0  0
  1  2  1  0
  2  3  1  0
  3  4  2  0
  4  5  1  0
  5  6  2  0
  6  7  1  0
  7  8  2  0
  6  9  1  0
  9 10  2  0
 10 11  1  0
 11 12  2  0
 11 13  1  0
 13 14  1  0
 14 15  1  0
 15 16  2  0
 15 17  1  0
 17 18  1  0
 18 19  1  0
 19 20  2  0
 19 21  1  0
 21 22  1  0
 22 23  1  0
 23 24  2  0
 23 25  1  0
 22 26  1  0
 26 27  1  0
 27 28  1  0
 28 29  1  0
 29 30  2  3
 30 31  1  0
 30 32  1  0
 18 33  1  0
 33 34  1  0
 34 35  2  0
 35 36  1  0
 36 37  2  0
 37 38  1  0
 38 39  2  0
 14 40  1  0
 40 41  1  0
 41 42  1  0
 42 43  1  0
 43 44  2  0
 44 45  1  0
  8  3  1  0
 39 34  1  0
 45 41  2  0
  1 46  1  0
  1 47  1  0
  1 48  1  0
  4 49  1  0
  5 50  1  0
  7 51  1  0
  8 52  1  0
  9 53  1  0
 10 54  1  0
 13 55  1  0
 14 56  1  1
 17 57  1  0
 18 58  1  6
 21 59  1  0
 22 60  1  1
 25 61  1  0
 25 62  1  0
 26 63  1  0
 26 64  1  0
 27 65  1  0
 27 66  1  0
 28 67  1  0
 28 68  1  0
 31 69  1  0
 31 70  1  0
 32 71  1  0
 32 72  1  0
 33 73  1  0
 33 74  1  0
 35 75  1  0
 36 76  1  0
 37 77  1  0
 38 78  1  0
 39 79  1  0
 40 80  1  0
 40 81  1  0
 42 82  1  0
 43 83  1  0
 45 84  1  0
M  END
>  <Ligand ID>  (1) 
LIG0004797

>  <Ligand>  (1) 
CHEMBL565927

>  <SMILES>  (1) 
COc1ccc(cc1)/C=C\C(=O)N[C@H](C(=O)N[C@@H](C(=O)N[C@@H](C(=O)N)CCCN=C(N)N)Cc1ccccc1)Cc1[nH]cnc1

>  <CID>  (1) 
45487408.0

>  <ChEMBL ID>  (1) 
nan

>  <InChiKey>  (1) 
JYNLYZMGADFMLF-KYZCJBLDSA-N

>  <InChi>  (1) 
InChI=1S/C31H39N9O5/c1-45-23-12-9-20(10-13-23)11-14-27(41)38-26(17-22-18-35-19-37-22)30(44)40-25(16-21-6-3-2-4-7-21)29(43)39-24(28(32)42)8-5-15-36-31(33)34/h2-4,6-7,9-14,18-19,24-26H,5,8,15-17H2,1H3,(H2,32,42)(H,35,37)(H,38,41)(H,39,43)(H,40,44)(H4,33,34,36)/b14-11-/t24-,25-,26+/m1/s1

>  <IUPAC Name>  (1) 
(2R)-5-(diaminomethylideneamino)-2-[[(2R)-2-[[(2S)-3-(1H-imidazol-5-yl)-2-[[(Z)-3-(4-methoxyphenyl)prop-2-enoyl]amino]propanoyl]amino]-3-phenylpropanoyl]amino]pentanamide

$$$$
