
     RDKit          3D

 52 53  0  0  0  0  0  0  0  0999 V2000
    6.0483   -2.3203    1.6086 C   0  0  0  0  0  0  0  0  0  0  0  0
    5.4288   -1.0502    1.2415 N   0  0  0  0  0  0  0  0  0  0  0  0
    4.1651   -1.0101    0.6193 C   0  0  0  0  0  0  0  0  0  0  0  0
    3.6086   -2.1435    0.4072 O   0  0  0  0  0  0  0  0  0  0  0  0
    3.4310    0.1782    0.1972 C   0  0  0  0  0  0  0  0  0  0  0  0
    4.1367    0.9697   -0.9055 C   0  0  0  0  0  0  0  0  0  0  0  0
    4.2572    0.1575   -2.0174 O   0  0  0  0  0  0  0  0  0  0  0  0
    3.1920    2.0936   -1.3199 C   0  0  0  0  0  0  0  0  0  0  0  0
    5.3905    1.6140   -0.4379 C   0  0  0  0  0  0  0  0  0  0  0  0
    2.1034   -0.1815   -0.3245 N   0  0  0  0  0  0  0  0  0  0  0  0
    0.9400    0.3818    0.2706 C   0  0  0  0  0  0  0  0  0  0  0  0
    1.0275    1.1949    1.2505 O   0  0  0  0  0  0  0  0  0  0  0  0
   -0.3783    0.0239   -0.2484 C   0  0  0  0  0  0  0  0  0  0  0  0
   -0.4978   -0.8259   -1.2744 N   0  0  0  0  0  0  0  0  0  0  0  0
   -1.7021   -1.1561   -1.7521 C   0  0  0  0  0  0  0  0  0  0  0  0
   -2.8946   -0.6438   -1.2199 C   0  0  0  0  0  0  0  0  0  0  0  0
   -2.7686    0.2207   -0.1763 C   0  0  0  0  0  0  0  0  0  0  0  0
   -1.5166    0.5563    0.3114 C   0  0  0  0  0  0  0  0  0  0  0  0
   -3.8701    0.7638    0.3967 O   0  0  0  0  0  0  0  0  0  0  0  0
   -3.9839    1.6532    1.4518 C   0  0  2  0  0  0  0  0  0  0  0  0
   -4.8758    1.0463    2.5417 C   0  0  0  0  0  0  0  0  0  0  0  0
   -4.3834   -0.1230    3.0368 F   0  0  0  0  0  0  0  0  0  0  0  0
   -6.1492    0.8550    2.0835 F   0  0  0  0  0  0  0  0  0  0  0  0
   -4.9229    2.0025    3.5480 F   0  0  0  0  0  0  0  0  0  0  0  0
   -4.7875    2.8517    0.9316 C   0  0  0  0  0  0  0  0  0  0  0  0
   -4.1358   -1.1030   -1.8397 C   0  0  0  0  0  0  0  0  0  0  0  0
   -4.7531   -2.4063   -1.4841 C   0  0  0  0  0  0  0  0  0  0  0  0
   -5.4161   -1.1346   -1.1157 C   0  0  0  0  0  0  0  0  0  0  0  0
    6.5338   -2.7378    0.7130 H   0  0  0  0  0  0  0  0  0  0  0  0
    6.8141   -2.1468    2.3754 H   0  0  0  0  0  0  0  0  0  0  0  0
    5.2514   -3.0195    1.9459 H   0  0  0  0  0  0  0  0  0  0  0  0
    5.9245   -0.1827    1.4498 H   0  0  0  0  0  0  0  0  0  0  0  0
    3.2608    0.8818    1.0283 H   0  0  0  0  0  0  0  0  0  0  0  0
    4.1326   -0.8018   -1.8526 H   0  0  0  0  0  0  0  0  0  0  0  0
    2.9444    2.7767   -0.5094 H   0  0  0  0  0  0  0  0  0  0  0  0
    2.2266    1.6555   -1.6877 H   0  0  0  0  0  0  0  0  0  0  0  0
    3.6019    2.6691   -2.1721 H   0  0  0  0  0  0  0  0  0  0  0  0
    6.2885    0.9766   -0.5710 H   0  0  0  0  0  0  0  0  0  0  0  0
    5.5425    2.5488   -1.0412 H   0  0  0  0  0  0  0  0  0  0  0  0
    5.2809    1.9316    0.6180 H   0  0  0  0  0  0  0  0  0  0  0  0
    2.0021   -0.8460   -1.1274 H   0  0  0  0  0  0  0  0  0  0  0  0
   -1.7365   -1.8576   -2.5947 H   0  0  0  0  0  0  0  0  0  0  0  0
   -1.3669    1.2403    1.1410 H   0  0  0  0  0  0  0  0  0  0  0  0
   -3.0723    1.9985    1.9277 H   0  0  0  0  0  0  0  0  0  0  0  0
   -5.7232    2.4514    0.4936 H   0  0  0  0  0  0  0  0  0  0  0  0
   -4.2137    3.2723    0.0894 H   0  0  0  0  0  0  0  0  0  0  0  0
   -4.9492    3.5404    1.7735 H   0  0  0  0  0  0  0  0  0  0  0  0
   -4.1926   -0.8852   -2.9500 H   0  0  0  0  0  0  0  0  0  0  0  0
   -5.2537   -3.0158   -2.2630 H   0  0  0  0  0  0  0  0  0  0  0  0
   -4.1894   -3.0145   -0.7721 H   0  0  0  0  0  0  0  0  0  0  0  0
   -5.4642   -0.7721   -0.0956 H   0  0  0  0  0  0  0  0  0  0  0  0
   -6.3356   -0.8554   -1.6997 H   0  0  0  0  0  0  0  0  0  0  0  0
  1  2  1  0
  2  3  1  0
  3  4  2  0
  3  5  1  0
  5  6  1  0
  6  7  1  0
  6  8  1  0
  6  9  1  0
  5 10  1  0
 10 11  1  0
 11 12  2  0
 11 13  1  0
 13 14  2  0
 14 15  1  0
 15 16  2  0
 16 17  1  0
 17 18  2  0
 17 19  1  0
 19 20  1  0
 20 21  1  0
 21 22  1  0
 21 23  1  0
 21 24  1  0
 20 25  1  0
 16 26  1  0
 26 27  1  0
 27 28  1  0
 18 13  1  0
 28 26  1  0
  1 29  1  0
  1 30  1  0
  1 31  1  0
  2 32  1  0
  5 33  1  0
  7 34  1  0
  8 35  1  0
  8 36  1  0
  8 37  1  0
  9 38  1  0
  9 39  1  0
  9 40  1  0
 10 41  1  0
 15 42  1  0
 18 43  1  0
 20 44  1  1
 25 45  1  0
 25 46  1  0
 25 47  1  0
 26 48  1  0
 27 49  1  0
 27 50  1  0
 28 51  1  0
 28 52  1  0
M  END
>  <Ligand ID>  (1) 
LIG0005186

>  <Ligand>  (1) 
CHEMBL3906084

>  <SMILES>  (1) 
CNC(=O)C(C(O)(C)C)NC(=O)c1ncc(c(c1)O[C@H](C(F)(F)F)C)C1CC1

>  <CID>  (1) 
90204456.0

>  <ChEMBL ID>  (1) 
nan

>  <InChiKey>  (1) 
HLXOQCNUBSBMPR-CUVJYRNJSA-N

>  <InChi>  (1) 
InChI=1S/C18H24F3N3O4/c1-9(18(19,20)21)28-13-7-12(23-8-11(13)10-5-6-10)15(25)24-14(16(26)22-4)17(2,3)27/h7-10,14,27H,5-6H2,1-4H3,(H,22,26)(H,24,25)/t9-,14?/m0/s1

>  <IUPAC Name>  (1) 
5-cyclopropyl-N-[3-hydroxy-3-methyl-1-(methylamino)-1-oxobutan-2-yl]-4-[(2S)-1,1,1-trifluoropropan-2-yl]oxypyridine-2-carboxamide

$$$$
