
     RDKit          3D

 63 66  0  0  0  0  0  0  0  0999 V2000
   10.8406   -1.7894   -2.0190 C   0  0  0  0  0  0  0  0  0  0  0  0
   10.0514   -1.9246   -0.8298 O   0  0  0  0  0  0  0  0  0  0  0  0
    9.0401   -0.9973   -0.6000 C   0  0  0  0  0  0  0  0  0  0  0  0
    8.7523    0.0366   -1.4586 C   0  0  0  0  0  0  0  0  0  0  0  0
    7.7206    0.9290   -1.1368 C   0  0  0  0  0  0  0  0  0  0  0  0
    6.9820    0.7943    0.0265 C   0  0  0  0  0  0  0  0  0  0  0  0
    7.2778   -0.2451    0.8751 C   0  0  0  0  0  0  0  0  0  0  0  0
    8.3109   -1.1392    0.5519 C   0  0  0  0  0  0  0  0  0  0  0  0
    5.7313    1.9240    0.4470 S   0  0  0  0  0  0  0  0  0  0  0  0
    6.0776    2.6186    1.7734 O   0  0  0  0  0  0  0  0  0  0  0  0
    5.7723    3.1198   -0.5434 O   0  0  0  0  0  0  0  0  0  0  0  0
    4.1643    1.4232    0.5392 N   0  0  0  0  0  0  0  0  0  0  0  0
    3.4484    0.8924   -0.5532 C   0  0  0  0  0  0  0  0  0  0  0  0
    2.0641    0.6118   -0.0199 C   0  0  0  0  0  0  0  0  0  0  0  0
    1.6344   -0.5825    0.4664 C   0  0  0  0  0  0  0  0  0  0  0  0
    0.3373   -0.6756    1.0051 C   0  0  0  0  0  0  0  0  0  0  0  0
   -0.5127    0.3936    1.0601 C   0  0  0  0  0  0  0  0  0  0  0  0
   -0.0341    1.6037    0.5474 C   0  0  0  0  0  0  0  0  0  0  0  0
    1.2284    1.7190    0.0168 C   0  0  0  0  0  0  0  0  0  0  0  0
   -1.8219    0.4317    1.6437 C   0  0  0  0  0  0  0  0  0  0  0  0
   -1.8913    1.1532    2.7197 O   0  0  0  0  0  0  0  0  0  0  0  0
   -3.0204   -0.1579    1.2668 N   0  0  0  0  0  0  0  0  0  0  0  0
   -4.1846    0.1450    2.1459 C   0  0  0  0  0  0  0  0  0  0  0  0
   -5.1197   -1.0285    2.0000 C   0  0  0  0  0  0  0  0  0  0  0  0
   -5.7217   -0.9784    0.6559 N   0  0  0  0  0  0  0  0  0  0  0  0
   -4.7266   -0.5845   -0.3283 C   0  0  0  0  0  0  0  0  0  0  0  0
   -3.3240   -1.0214    0.1647 C   0  0  0  0  0  0  0  0  0  0  0  0
   -6.8230   -0.0481    0.7347 C   0  0  0  0  0  0  0  0  0  0  0  0
   -7.5568   -0.0429   -0.5370 C   0  0  0  0  0  0  0  0  0  0  0  0
   -7.2745    0.7956   -1.6010 C   0  0  0  0  0  0  0  0  0  0  0  0
   -8.0505    0.7015   -2.7402 C   0  0  0  0  0  0  0  0  0  0  0  0
   -9.0882   -0.1837   -2.8705 C   0  0  0  0  0  0  0  0  0  0  0  0
   -9.3753   -1.0230   -1.8130 C   0  0  0  0  0  0  0  0  0  0  0  0
   -8.6022   -0.9245   -0.6852 C   0  0  0  0  0  0  0  0  0  0  0  0
   11.6600   -2.5080   -2.0555 H   0  0  0  0  0  0  0  0  0  0  0  0
   11.2546   -0.7373   -2.0669 H   0  0  0  0  0  0  0  0  0  0  0  0
   10.1911   -1.8851   -2.9229 H   0  0  0  0  0  0  0  0  0  0  0  0
    9.3302    0.1407   -2.3576 H   0  0  0  0  0  0  0  0  0  0  0  0
    7.4562    1.7558   -1.7858 H   0  0  0  0  0  0  0  0  0  0  0  0
    6.7481   -0.4197    1.8014 H   0  0  0  0  0  0  0  0  0  0  0  0
    8.5086   -1.9470    1.2297 H   0  0  0  0  0  0  0  0  0  0  0  0
    3.7292    1.2782    1.4448 H   0  0  0  0  0  0  0  0  0  0  0  0
    3.3477    1.4997   -1.4538 H   0  0  0  0  0  0  0  0  0  0  0  0
    3.8503   -0.1320   -0.7989 H   0  0  0  0  0  0  0  0  0  0  0  0
    2.3037   -1.4332    0.4249 H   0  0  0  0  0  0  0  0  0  0  0  0
   -0.0017   -1.6252    1.3909 H   0  0  0  0  0  0  0  0  0  0  0  0
   -0.6736    2.4964    0.5650 H   0  0  0  0  0  0  0  0  0  0  0  0
    1.5198    2.6913   -0.3570 H   0  0  0  0  0  0  0  0  0  0  0  0
   -3.8200    0.2828    3.1844 H   0  0  0  0  0  0  0  0  0  0  0  0
   -4.6164    1.0866    1.7834 H   0  0  0  0  0  0  0  0  0  0  0  0
   -5.9688   -0.8961    2.7063 H   0  0  0  0  0  0  0  0  0  0  0  0
   -4.5918   -1.9843    2.1557 H   0  0  0  0  0  0  0  0  0  0  0  0
   -4.9550   -1.0434   -1.2834 H   0  0  0  0  0  0  0  0  0  0  0  0
   -4.6775    0.5177   -0.3213 H   0  0  0  0  0  0  0  0  0  0  0  0
   -2.6186   -0.9991   -0.6658 H   0  0  0  0  0  0  0  0  0  0  0  0
   -3.3828   -2.0740    0.5209 H   0  0  0  0  0  0  0  0  0  0  0  0
   -6.4324    0.9800    0.9207 H   0  0  0  0  0  0  0  0  0  0  0  0
   -7.4716   -0.3010    1.5986 H   0  0  0  0  0  0  0  0  0  0  0  0
   -6.4761    1.5000   -1.5338 H   0  0  0  0  0  0  0  0  0  0  0  0
   -7.8356    1.3579   -3.5795 H   0  0  0  0  0  0  0  0  0  0  0  0
   -9.6630   -0.2188   -3.7814 H   0  0  0  0  0  0  0  0  0  0  0  0
  -10.1770   -1.7425   -1.8488 H   0  0  0  0  0  0  0  0  0  0  0  0
   -8.8444   -1.5867    0.1325 H   0  0  0  0  0  0  0  0  0  0  0  0
  1  2  1  0
  2  3  1  0
  3  4  2  0
  4  5  1  0
  5  6  2  0
  6  7  1  0
  7  8  2  0
  6  9  1  0
  9 10  2  0
  9 11  2  0
  9 12  1  0
 12 13  1  0
 13 14  1  0
 14 15  2  0
 15 16  1  0
 16 17  2  0
 17 18  1  0
 18 19  2  0
 17 20  1  0
 20 21  2  0
 20 22  1  0
 22 23  1  0
 23 24  1  0
 24 25  1  0
 25 26  1  0
 26 27  1  0
 25 28  1  0
 28 29  1  0
 29 30  2  0
 30 31  1  0
 31 32  2  0
 32 33  1  0
 33 34  2  0
  8  3  1  0
 19 14  1  0
 27 22  1  0
 34 29  1  0
  1 35  1  0
  1 36  1  0
  1 37  1  0
  4 38  1  0
  5 39  1  0
  7 40  1  0
  8 41  1  0
 12 42  1  0
 13 43  1  0
 13 44  1  0
 15 45  1  0
 16 46  1  0
 18 47  1  0
 19 48  1  0
 23 49  1  0
 23 50  1  0
 24 51  1  0
 24 52  1  0
 26 53  1  0
 26 54  1  0
 27 55  1  0
 27 56  1  0
 28 57  1  0
 28 58  1  0
 30 59  1  0
 31 60  1  0
 32 61  1  0
 33 62  1  0
 34 63  1  0
M  END
>  <Ligand ID>  (1) 
LIG0004829

>  <Ligand>  (1) 
MLS002699336

>  <SMILES>  (1) 
COc1ccc(cc1)S(=O)(=O)NCc1ccc(cc1)C(=O)N1CCN(CC1)Cc1ccccc1

>  <CID>  (1) 
20854208.0

>  <ChEMBL ID>  (1) 
nan

>  <InChiKey>  (1) 
LFLAMOGMIYXBDS-UHFFFAOYSA-N

>  <InChi>  (1) 
InChI=1S/C26H29N3O4S/c1-33-24-11-13-25(14-12-24)34(31,32)27-19-21-7-9-23(10-8-21)26(30)29-17-15-28(16-18-29)20-22-5-3-2-4-6-22/h2-14,27H,15-20H2,1H3

>  <IUPAC Name>  (1) 
N-[[4-(4-benzylpiperazine-1-carbonyl)phenyl]methyl]-4-methoxybenzenesulfonamide

$$$$
