
     RDKit          3D

 54 58  0  0  0  0  0  0  0  0999 V2000
   -5.9426    4.0305    0.4697 C   0  0  0  0  0  0  0  0  0  0  0  0
   -5.0385    2.8556    0.3599 C   0  0  0  0  0  0  0  0  0  0  0  0
   -5.5328    1.5751    0.4904 C   0  0  0  0  0  0  0  0  0  0  0  0
   -4.6245    0.5256    0.3763 C   0  0  0  0  0  0  0  0  0  0  0  0
   -3.2841    0.7389    0.1430 C   0  0  0  0  0  0  0  0  0  0  0  0
   -2.8397    2.0033    0.0215 N   0  0  0  0  0  0  0  0  0  0  0  0
   -3.6973    3.0456    0.1274 C   0  0  0  0  0  0  0  0  0  0  0  0
   -1.5333    2.2370   -0.2055 C   0  0  0  0  0  0  0  0  0  0  0  0
   -1.1285    3.4072   -0.3167 O   0  0  0  0  0  0  0  0  0  0  0  0
   -0.6579    1.1956   -0.3132 C   0  0  0  0  0  0  0  0  0  0  0  0
   -1.0980   -0.1218   -0.1907 C   0  0  0  0  0  0  0  0  0  0  0  0
   -2.4153   -0.2726    0.0351 N   0  0  0  0  0  0  0  0  0  0  0  0
   -0.2454   -1.1688   -0.2899 N   0  0  0  0  0  0  0  0  0  0  0  0
   -0.6989   -2.4950   -0.1647 C   0  0  0  0  0  0  0  0  0  0  0  0
   -2.1395   -2.7842   -0.4757 C   0  0  0  0  0  0  0  0  0  0  0  0
   -2.0439   -4.3233   -0.3795 C   0  0  0  0  0  0  0  0  0  0  0  0
   -1.2769   -4.4872    0.9413 C   0  0  0  0  0  0  0  0  0  0  0  0
   -0.5898   -3.1361    1.1810 C   0  0  0  0  0  0  0  0  0  0  0  0
    1.0651   -0.9103   -0.5138 C   0  0  0  0  0  0  0  0  0  0  0  0
    1.9630   -1.8261   -0.6199 N   0  0  0  0  0  0  0  0  0  0  0  0
    1.5264    0.3993   -0.6397 C   0  0  0  0  0  0  0  0  0  0  0  0
    0.6664    1.4869   -0.5411 C   0  0  0  0  0  0  0  0  0  0  0  0
    2.9308    0.7135   -0.8776 C   0  0  0  0  0  0  0  0  0  0  0  0
    3.6366    0.0304   -1.6967 O   0  0  0  0  0  0  0  0  0  0  0  0
    3.5213    1.7992   -0.1848 N   0  0  0  0  0  0  0  0  0  0  0  0
    4.8909    2.2041   -0.3348 C   0  0  0  0  0  0  0  0  0  0  0  0
    5.8824    1.1708    0.0203 C   0  0  0  0  0  0  0  0  0  0  0  0
    6.4644    0.9305    1.2481 C   0  0  0  0  0  0  0  0  0  0  0  0
    7.3309   -0.1367    1.1011 C   0  0  0  0  0  0  0  0  0  0  0  0
    7.2363   -0.5024   -0.2244 C   0  0  0  0  0  0  0  0  0  0  0  0
    6.3803    0.2821   -0.8315 O   0  0  0  0  0  0  0  0  0  0  0  0
   -6.1807    4.1758    1.5494 H   0  0  0  0  0  0  0  0  0  0  0  0
   -5.4001    4.9498    0.1561 H   0  0  0  0  0  0  0  0  0  0  0  0
   -6.8624    3.9042   -0.1345 H   0  0  0  0  0  0  0  0  0  0  0  0
   -6.5944    1.3679    0.6788 H   0  0  0  0  0  0  0  0  0  0  0  0
   -4.9301   -0.5173    0.4672 H   0  0  0  0  0  0  0  0  0  0  0  0
   -3.3096    4.0320    0.0254 H   0  0  0  0  0  0  0  0  0  0  0  0
   -0.1114   -3.1559   -0.8710 H   0  0  0  0  0  0  0  0  0  0  0  0
   -2.8373   -2.5585    0.3734 H   0  0  0  0  0  0  0  0  0  0  0  0
   -2.4907   -2.4794   -1.4573 H   0  0  0  0  0  0  0  0  0  0  0  0
   -3.0439   -4.7689   -0.3010 H   0  0  0  0  0  0  0  0  0  0  0  0
   -1.4973   -4.7269   -1.2323 H   0  0  0  0  0  0  0  0  0  0  0  0
   -1.9660   -4.7544    1.7638 H   0  0  0  0  0  0  0  0  0  0  0  0
   -0.5637   -5.3085    0.8106 H   0  0  0  0  0  0  0  0  0  0  0  0
   -1.2859   -2.6108    1.8949 H   0  0  0  0  0  0  0  0  0  0  0  0
    0.4126   -3.2490    1.5832 H   0  0  0  0  0  0  0  0  0  0  0  0
    1.8468   -2.8401   -0.5574 H   0  0  0  0  0  0  0  0  0  0  0  0
    1.0274    2.4999   -0.6404 H   0  0  0  0  0  0  0  0  0  0  0  0
    2.8868    2.3332    0.4836 H   0  0  0  0  0  0  0  0  0  0  0  0
    5.1190    2.5214   -1.3947 H   0  0  0  0  0  0  0  0  0  0  0  0
    5.0613    3.1341    0.2519 H   0  0  0  0  0  0  0  0  0  0  0  0
    6.2573    1.5016    2.1566 H   0  0  0  0  0  0  0  0  0  0  0  0
    7.9470   -0.5882    1.8547 H   0  0  0  0  0  0  0  0  0  0  0  0
    7.8075   -1.3289   -0.6631 H   0  0  0  0  0  0  0  0  0  0  0  0
  1  2  1  0
  2  3  1  0
  3  4  2  0
  4  5  1  0
  5  6  1  0
  6  7  1  0
  6  8  1  0
  8  9  2  0
  8 10  1  0
 10 11  2  0
 11 12  1  0
 11 13  1  0
 13 14  1  0
 14 15  1  0
 15 16  1  0
 16 17  1  0
 17 18  1  0
 13 19  1  0
 19 20  2  3
 19 21  1  0
 21 22  2  0
 21 23  1  0
 23 24  2  0
 23 25  1  0
 25 26  1  0
 26 27  1  0
 27 28  2  0
 28 29  1  0
 29 30  2  0
 30 31  1  0
  7  2  2  0
 22 10  1  0
 31 27  1  0
 12  5  2  0
 18 14  1  0
  1 32  1  0
  1 33  1  0
  1 34  1  0
  3 35  1  0
  4 36  1  0
  7 37  1  0
 14 38  1  0
 15 39  1  0
 15 40  1  0
 16 41  1  0
 16 42  1  0
 17 43  1  0
 17 44  1  0
 18 45  1  0
 18 46  1  0
 20 47  1  0
 22 48  1  0
 25 49  1  0
 26 50  1  0
 26 51  1  0
 28 52  1  0
 29 53  1  0
 30 54  1  0
M  END
>  <Ligand ID>  (1) 
LIG0003911

>  <Ligand>  (1) 
MLS001217744

>  <SMILES>  (1) 
Cc1ccc2n(c1)c(=O)c1c(n2)n(C2CCCC2)c(=N)c(c1)C(=O)NCc1ccco1

>  <CID>  (1) 
1077538.0

>  <ChEMBL ID>  (1) 
nan

>  <InChiKey>  (1) 
OIZQVTBUZIXHPS-UHFFFAOYSA-N

>  <InChi>  (1) 
InChI=1S/C23H23N5O3/c1-14-8-9-19-26-21-18(23(30)27(19)13-14)11-17(20(24)28(21)15-5-2-3-6-15)22(29)25-12-16-7-4-10-31-16/h4,7-11,13,15,24H,2-3,5-6,12H2,1H3,(H,25,29)

>  <IUPAC Name>  (1) 
7-cyclopentyl-N-(furan-2-ylmethyl)-6-imino-13-methyl-2-oxo-1,7,9-triazatricyclo[8.4.0.03,8]tetradeca-3(8),4,9,11,13-pentaene-5-carboxamide

$$$$
