
     RDKit          3D

 45 46  0  0  0  0  0  0  0  0999 V2000
   -1.9861   -1.0581    2.4470 O   0  0  0  0  0  0  0  0  0  0  0  0
   -1.5475   -1.2027    1.1360 C   0  0  2  0  0  0  0  0  0  0  0  0
   -0.9923    0.0862    0.5707 C   0  0  1  0  0  0  0  0  0  0  0  0
    0.4621   -0.0472    0.1934 C   0  0  0  0  0  0  0  0  0  0  0  0
    1.2609   -0.3990    1.2692 O   0  0  0  0  0  0  0  0  0  0  0  0
    2.8824   -0.5559    0.8872 P   0  0  0  0  0  0  0  0  0  0  0  0
    3.1458   -0.7919   -0.5666 O   0  0  0  0  0  0  0  0  0  0  0  0
    3.6865    0.8020    1.4789 O   0  0  0  0  0  0  0  0  0  0  0  0
    5.3601    0.6093    1.4597 P   0  0  0  0  0  0  0  0  0  0  0  0
    5.9048    1.3737    2.6463 O   0  0  0  0  0  0  0  0  0  0  0  0
    5.9943    1.3311    0.0659 O   0  0  0  0  0  0  0  0  0  0  0  0
    7.1417    0.3443   -0.6762 P   0  0  0  0  0  0  0  0  0  0  0  0
    8.2376    1.2599   -1.1976 O   0  0  0  0  0  0  0  0  0  0  0  0
    6.4898   -0.4730   -1.9947 O   0  0  0  0  0  0  0  0  0  0  0  0
    7.8499   -0.7563    0.3660 O   0  0  0  0  0  0  0  0  0  0  0  0
    5.8153   -1.0008    1.6065 O   0  0  0  0  0  0  0  0  0  0  0  0
    3.4673   -1.9001    1.7697 O   0  0  0  0  0  0  0  0  0  0  0  0
   -1.7889    0.4406   -0.5183 O   0  0  0  0  0  0  0  0  0  0  0  0
   -3.0475    0.1079   -0.0500 C   0  0  2  0  0  0  0  0  0  0  0  0
   -2.8267   -1.3499    0.3001 C   0  0  2  0  0  0  0  0  0  0  0  0
   -3.9406   -1.8053    1.0737 N   0  0  0  0  0  0  0  0  0  0  0  0
   -4.1207    0.2834   -0.9781 N   0  0  0  0  0  0  0  0  0  0  0  0
   -4.7619   -0.7162   -1.6111 C   0  0  0  0  0  0  0  0  0  0  0  0
   -5.7922   -0.4928   -2.4983 C   0  0  0  0  0  0  0  0  0  0  0  0
   -6.1710    0.8196   -2.7371 C   0  0  0  0  0  0  0  0  0  0  0  0
   -7.1183    1.0611   -3.5502 O   0  0  0  0  0  0  0  0  0  0  0  0
   -5.5313    1.8170   -2.1056 N   0  0  0  0  0  0  0  0  0  0  0  0
   -4.5290    1.5370   -1.2471 C   0  0  0  0  0  0  0  0  0  0  0  0
   -3.8102    2.8204   -0.5259 S   0  0  0  0  0  0  0  0  0  0  0  0
   -2.0578   -0.0630    2.5938 H   0  0  0  0  0  0  0  0  0  0  0  0
   -0.8641   -2.0451    1.0072 H   0  0  0  0  0  0  0  0  0  0  0  0
   -1.0627    0.9293    1.2789 H   0  0  0  0  0  0  0  0  0  0  0  0
    0.5522   -0.7283   -0.6698 H   0  0  0  0  0  0  0  0  0  0  0  0
    0.8082    0.9487   -0.1467 H   0  0  0  0  0  0  0  0  0  0  0  0
    6.0103    0.1489   -2.6053 H   0  0  0  0  0  0  0  0  0  0  0  0
    8.0859   -0.4018    1.2481 H   0  0  0  0  0  0  0  0  0  0  0  0
    5.6450   -1.4434    0.7308 H   0  0  0  0  0  0  0  0  0  0  0  0
    3.2155   -1.8487    2.7056 H   0  0  0  0  0  0  0  0  0  0  0  0
   -3.2011    0.6570    0.9044 H   0  0  0  0  0  0  0  0  0  0  0  0
   -2.6140   -1.9572   -0.6044 H   0  0  0  0  0  0  0  0  0  0  0  0
   -3.8227   -2.8312    1.2208 H   0  0  0  0  0  0  0  0  0  0  0  0
   -3.8544   -1.3679    2.0270 H   0  0  0  0  0  0  0  0  0  0  0  0
   -4.4669   -1.7185   -1.4237 H   0  0  0  0  0  0  0  0  0  0  0  0
   -6.2850   -1.3324   -2.9898 H   0  0  0  0  0  0  0  0  0  0  0  0
   -5.8228    2.8114   -2.2905 H   0  0  0  0  0  0  0  0  0  0  0  0
  1  2  1  0
  2  3  1  0
  3  4  1  0
  4  5  1  0
  5  6  1  0
  6  7  2  0
  6  8  1  0
  8  9  1  0
  9 10  2  0
  9 11  1  0
 11 12  1  0
 12 13  2  0
 12 14  1  0
 12 15  1  0
  9 16  1  0
  6 17  1  0
  3 18  1  0
 18 19  1  0
 19 20  1  0
 20 21  1  0
 19 22  1  0
 22 23  1  0
 23 24  2  0
 24 25  1  0
 25 26  2  0
 25 27  1  0
 27 28  1  0
 28 29  2  0
 20  2  1  0
 28 22  1  0
  1 30  1  0
  2 31  1  1
  3 32  1  1
  4 33  1  0
  4 34  1  0
 14 35  1  0
 15 36  1  0
 16 37  1  0
 17 38  1  0
 19 39  1  1
 20 40  1  6
 21 41  1  0
 21 42  1  0
 23 43  1  0
 24 44  1  0
 27 45  1  0
M  END
>  <Ligand ID>  (1) 
LIG0002842

>  <Ligand>  (1) 
MRS2698

>  <SMILES>  (1) 
O[C@@H]1[C@@H](COP(=O)(OP(=O)(OP(=O)(O)O)O)O)O[C@H]([C@@H]1N)n1ccc(=O)[nH]c1=S

>  <CID>  (1) 
16116566.0

>  <ChEMBL ID>  (1) 
nan

>  <InChiKey>  (1) 
UWTUUIWWVPWHAA-XVFCMESISA-N

>  <InChi>  (1) 
InChI=1S/C9H16N3O13P3S/c10-6-7(14)4(23-8(6)12-2-1-5(13)11-9(12)29)3-22-27(18,19)25-28(20,21)24-26(15,16)17/h1-2,4,6-8,14H,3,10H2,(H,18,19)(H,20,21)(H,11,13,29)(H2,15,16,17)/t4-,6-,7-,8-/m1/s1

>  <IUPAC Name>  (1) 
[[(2R,3S,4R,5R)-4-amino-3-hydroxy-5-(4-oxo-2-sulfanylidenepyrimidin-1-yl)oxolan-2-yl]methoxy-hydroxyphosphoryl] phosphono hydrogen phosphate

$$$$
