
     RDKit          3D

 53 55  0  0  0  0  0  0  0  0999 V2000
    1.4017    0.4155   -1.1168 C   0  0  0  0  0  0  0  0  0  0  0  0
    1.5699   -0.0503    0.2984 C   0  0  1  0  0  0  0  0  0  0  0  0
    0.6731   -1.2257    0.6096 C   0  0  0  0  0  0  0  0  0  0  0  0
   -0.7594   -0.8654    0.4226 C   0  0  0  0  0  0  0  0  0  0  0  0
   -1.4757   -0.3440    1.4980 C   0  0  0  0  0  0  0  0  0  0  0  0
   -2.8062    0.0055    1.3763 C   0  0  0  0  0  0  0  0  0  0  0  0
   -3.4690   -0.1544    0.1722 C   0  0  0  0  0  0  0  0  0  0  0  0
   -2.7554   -0.6771   -0.9105 C   0  0  0  0  0  0  0  0  0  0  0  0
   -1.4174   -1.0257   -0.7783 C   0  0  0  0  0  0  0  0  0  0  0  0
   -4.8801    0.2052    0.0024 C   0  0  0  0  0  0  0  0  0  0  0  0
   -5.7797    0.0969    1.0476 C   0  0  0  0  0  0  0  0  0  0  0  0
   -7.1049    0.4462    0.8477 C   0  0  0  0  0  0  0  0  0  0  0  0
   -7.5085    0.9017   -0.4066 C   0  0  0  0  0  0  0  0  0  0  0  0
   -6.5734    0.9970   -1.4343 C   0  0  0  0  0  0  0  0  0  0  0  0
   -5.2472    0.6535   -1.2553 C   0  0  0  0  0  0  0  0  0  0  0  0
   -8.8870    1.2863   -0.6871 C   0  0  0  0  0  0  0  0  0  0  0  0
   -9.2415    1.6949   -1.8195 O   0  0  0  0  0  0  0  0  0  0  0  0
   -9.8384    1.1980    0.3311 O   0  0  0  0  0  0  0  0  0  0  0  0
    2.9114   -0.3159    0.6986 N   0  0  0  0  0  0  0  0  0  0  0  0
    3.5467   -1.3337   -0.0896 C   0  0  0  0  0  0  0  0  0  0  0  0
    4.9664   -1.6070    0.3476 C   0  0  1  0  0  0  0  0  0  0  0  0
    5.8443   -0.4327    0.1680 C   0  0  0  0  0  0  0  0  0  0  0  0
    7.1093   -0.4951    0.7175 C   0  0  0  0  0  0  0  0  0  0  0  0
    8.0010    0.5662    0.5965 C   0  0  0  0  0  0  0  0  0  0  0  0
    7.6141    1.7165   -0.0919 C   0  0  0  0  0  0  0  0  0  0  0  0
    6.3408    1.7597   -0.6360 C   0  0  0  0  0  0  0  0  0  0  0  0
    5.4717    0.6963   -0.5046 C   0  0  0  0  0  0  0  0  0  0  0  0
    5.8337    3.2060   -1.5099 Cl  0  0  0  0  0  0  0  0  0  0  0  0
    5.0455   -2.0329    1.6584 O   0  0  0  0  0  0  0  0  0  0  0  0
    2.1177    1.2160   -1.3365 H   0  0  0  0  0  0  0  0  0  0  0  0
    0.3886    0.9124   -1.1508 H   0  0  0  0  0  0  0  0  0  0  0  0
    1.3640   -0.3937   -1.8602 H   0  0  0  0  0  0  0  0  0  0  0  0
    1.1942    0.7885    0.9564 H   0  0  0  0  0  0  0  0  0  0  0  0
    0.9624   -2.0976    0.0084 H   0  0  0  0  0  0  0  0  0  0  0  0
    0.8361   -1.4903    1.6722 H   0  0  0  0  0  0  0  0  0  0  0  0
   -1.0130   -0.1975    2.4587 H   0  0  0  0  0  0  0  0  0  0  0  0
   -3.3302    0.4069    2.2333 H   0  0  0  0  0  0  0  0  0  0  0  0
   -3.2035   -0.8299   -1.8764 H   0  0  0  0  0  0  0  0  0  0  0  0
   -0.8347   -1.4341   -1.5983 H   0  0  0  0  0  0  0  0  0  0  0  0
   -5.4622   -0.2607    2.0335 H   0  0  0  0  0  0  0  0  0  0  0  0
   -7.8575    0.3837    1.6265 H   0  0  0  0  0  0  0  0  0  0  0  0
   -6.8738    1.3473   -2.4046 H   0  0  0  0  0  0  0  0  0  0  0  0
   -4.5471    0.7351   -2.0591 H   0  0  0  0  0  0  0  0  0  0  0  0
  -10.6150    1.8661    0.3720 H   0  0  0  0  0  0  0  0  0  0  0  0
    2.9393   -0.4670    1.7114 H   0  0  0  0  0  0  0  0  0  0  0  0
    2.9918   -2.2940   -0.0512 H   0  0  0  0  0  0  0  0  0  0  0  0
    3.5744   -1.0322   -1.1380 H   0  0  0  0  0  0  0  0  0  0  0  0
    5.3558   -2.4205   -0.2975 H   0  0  0  0  0  0  0  0  0  0  0  0
    7.4236   -1.3898    1.2589 H   0  0  0  0  0  0  0  0  0  0  0  0
    8.9987    0.4914    1.0418 H   0  0  0  0  0  0  0  0  0  0  0  0
    8.2803    2.5596   -0.2058 H   0  0  0  0  0  0  0  0  0  0  0  0
    4.5039    0.7734   -0.9384 H   0  0  0  0  0  0  0  0  0  0  0  0
    4.2204   -2.4585    1.9979 H   0  0  0  0  0  0  0  0  0  0  0  0
  1  2  1  0
  2  3  1  0
  3  4  1  0
  4  5  2  0
  5  6  1  0
  6  7  2  0
  7  8  1  0
  8  9  2  0
  7 10  1  0
 10 11  2  0
 11 12  1  0
 12 13  2  0
 13 14  1  0
 14 15  2  0
 13 16  1  0
 16 17  2  0
 16 18  1  0
  2 19  1  0
 19 20  1  0
 20 21  1  0
 21 22  1  0
 22 23  2  0
 23 24  1  0
 24 25  2  0
 25 26  1  0
 26 27  2  0
 26 28  1  0
 21 29  1  0
  9  4  1  0
 15 10  1  0
 27 22  1  0
  1 30  1  0
  1 31  1  0
  1 32  1  0
  2 33  1  1
  3 34  1  0
  3 35  1  0
  5 36  1  0
  6 37  1  0
  8 38  1  0
  9 39  1  0
 11 40  1  0
 12 41  1  0
 14 42  1  0
 15 43  1  0
 18 44  1  0
 19 45  1  0
 20 46  1  0
 20 47  1  0
 21 48  1  6
 23 49  1  0
 24 50  1  0
 25 51  1  0
 27 52  1  0
 29 53  1  0
M  END
>  <Ligand ID>  (1) 
LIG0005206

>  <Ligand>  (1) 
CHEMBL488431

>  <SMILES>  (1) 
C[C@@H](Cc1ccc(cc1)c1ccc(cc1)C(=O)O)NC[C@@H](c1cccc(c1)Cl)O

>  <CID>  (1) 
24895787.0

>  <ChEMBL ID>  (1) 
nan

>  <InChiKey>  (1) 
UDSXXZFTNZSJDL-HJPURHCSSA-N

>  <InChi>  (1) 
InChI=1S/C24H24ClNO3/c1-16(26-15-23(27)21-3-2-4-22(25)14-21)13-17-5-7-18(8-6-17)19-9-11-20(12-10-19)24(28)29/h2-12,14,16,23,26-27H,13,15H2,1H3,(H,28,29)/t16-,23-/m0/s1

>  <IUPAC Name>  (1) 
4-[4-[(2S)-2-[[(2R)-2-(3-chlorophenyl)-2-hydroxyethyl]amino]propyl]phenyl]benzoic acid

$$$$
