
     RDKit          3D

 75 77  0  0  0  0  0  0  0  0999 V2000
  -12.0128   -1.8335    2.8157 O   0  0  0  0  0  0  0  0  0  0  0  0
  -11.1457   -0.8393    3.1829 N   0  0  0  0  0  0  0  0  0  0  0  0
  -11.3392   -0.2501    4.2801 O   0  0  0  0  0  0  0  0  0  0  0  0
  -10.0451   -0.4584    2.3685 C   0  0  0  0  0  0  0  0  0  0  0  0
   -8.9481    0.0789    2.9759 C   0  0  0  0  0  0  0  0  0  0  0  0
   -7.8468    0.4674    2.2282 C   0  0  0  0  0  0  0  0  0  0  0  0
   -7.7866    0.3402    0.8573 C   0  0  0  0  0  0  0  0  0  0  0  0
   -8.9287   -0.2147    0.2616 C   0  0  0  0  0  0  0  0  0  0  0  0
  -10.0226   -0.6006    1.0020 C   0  0  0  0  0  0  0  0  0  0  0  0
  -10.9434   -1.0892    0.1512 N   0  0  0  0  0  0  0  0  0  0  0  0
  -10.4537   -1.0129   -1.0470 O   0  0  0  0  0  0  0  0  0  0  0  0
   -9.2496   -0.4952   -1.0255 N   0  0  0  0  0  0  0  0  0  0  0  0
   -6.6885    0.7463    0.0664 N   0  0  0  0  0  0  0  0  0  0  0  0
   -5.4603    1.3024    0.5356 C   0  0  0  0  0  0  0  0  0  0  0  0
   -4.6483    0.2118    1.1985 C   0  0  0  0  0  0  0  0  0  0  0  0
   -4.3291   -0.9086    0.2506 C   0  0  0  0  0  0  0  0  0  0  0  0
   -3.5394   -0.3754   -0.9167 C   0  0  0  0  0  0  0  0  0  0  0  0
   -2.2437    0.2512   -0.5238 C   0  0  0  0  0  0  0  0  0  0  0  0
   -1.4343    0.7909   -1.6835 C   0  0  0  0  0  0  0  0  0  0  0  0
   -1.1086   -0.3421   -2.6368 C   0  0  0  0  0  0  0  0  0  0  0  0
   -0.2985    0.2681   -3.7559 C   0  0  0  0  0  0  0  0  0  0  0  0
    0.8440    0.8359   -3.2875 O   0  0  0  0  0  0  0  0  0  0  0  0
    1.9624    0.4461   -2.6618 C   0  0  0  0  0  0  0  0  0  0  0  0
    2.8985    1.4504   -2.3482 C   0  0  0  0  0  0  0  0  0  0  0  0
    4.0808    1.1790   -1.7108 C   0  0  0  0  0  0  0  0  0  0  0  0
    4.4014   -0.1082   -1.3476 C   0  0  0  0  0  0  0  0  0  0  0  0
    3.5148   -1.1188   -1.6357 C   0  0  0  0  0  0  0  0  0  0  0  0
    2.3226   -0.8253   -2.2819 C   0  0  0  0  0  0  0  0  0  0  0  0
    5.6885   -0.4463   -0.6448 C   0  0  0  0  0  0  0  0  0  0  0  0
    5.5398   -0.3794    0.8366 C   0  0  0  0  0  0  0  0  0  0  0  0
    6.8477   -0.7368    1.4919 C   0  0  2  0  0  0  0  0  0  0  0  0
    7.9036    0.2341    1.0511 C   0  0  0  0  0  0  0  0  0  0  0  0
    9.0865   -0.0303    1.7551 O   0  0  0  0  0  0  0  0  0  0  0  0
   10.3190    1.0284    1.3160 P   0  0  0  0  0  0  0  0  0  0  0  0
   11.5850    0.5937    1.9972 O   0  0  0  0  0  0  0  0  0  0  0  0
    9.9537    2.6237    1.7396 O   0  0  0  0  0  0  0  0  0  0  0  0
   10.5037    0.9741   -0.3635 O   0  0  0  0  0  0  0  0  0  0  0  0
    7.2618   -2.0825    1.2140 N   0  0  0  0  0  0  0  0  0  0  0  0
    6.6111   -0.6543    2.9911 C   0  0  0  0  0  0  0  0  0  0  0  0
   -8.9409    0.2025    4.0602 H   0  0  0  0  0  0  0  0  0  0  0  0
   -7.0283    0.8953    2.7842 H   0  0  0  0  0  0  0  0  0  0  0  0
   -6.7904    0.6247   -0.9755 H   0  0  0  0  0  0  0  0  0  0  0  0
   -5.6441    2.0910    1.3243 H   0  0  0  0  0  0  0  0  0  0  0  0
   -4.8557    1.7834   -0.2326 H   0  0  0  0  0  0  0  0  0  0  0  0
   -3.7689    0.7155    1.6355 H   0  0  0  0  0  0  0  0  0  0  0  0
   -5.1630   -0.2645    2.0630 H   0  0  0  0  0  0  0  0  0  0  0  0
   -3.7868   -1.7386    0.7690 H   0  0  0  0  0  0  0  0  0  0  0  0
   -5.3119   -1.2813   -0.1376 H   0  0  0  0  0  0  0  0  0  0  0  0
   -3.3747   -1.2800   -1.5814 H   0  0  0  0  0  0  0  0  0  0  0  0
   -4.2142    0.3329   -1.4727 H   0  0  0  0  0  0  0  0  0  0  0  0
   -1.6113   -0.5755   -0.0937 H   0  0  0  0  0  0  0  0  0  0  0  0
   -2.3240    0.9878    0.2914 H   0  0  0  0  0  0  0  0  0  0  0  0
   -1.9491    1.5660   -2.2546 H   0  0  0  0  0  0  0  0  0  0  0  0
   -0.5199    1.2374   -1.2504 H   0  0  0  0  0  0  0  0  0  0  0  0
   -2.0639   -0.7876   -3.0418 H   0  0  0  0  0  0  0  0  0  0  0  0
   -0.5214   -1.1347   -2.1601 H   0  0  0  0  0  0  0  0  0  0  0  0
   -0.9401    1.0998   -4.1901 H   0  0  0  0  0  0  0  0  0  0  0  0
   -0.1447   -0.4876   -4.5714 H   0  0  0  0  0  0  0  0  0  0  0  0
    2.6966    2.4887   -2.6127 H   0  0  0  0  0  0  0  0  0  0  0  0
    4.7858    1.9676   -1.4795 H   0  0  0  0  0  0  0  0  0  0  0  0
    3.7410   -2.1486   -1.3605 H   0  0  0  0  0  0  0  0  0  0  0  0
    1.6823   -1.6503   -2.4907 H   0  0  0  0  0  0  0  0  0  0  0  0
    6.0315   -1.4117   -1.0449 H   0  0  0  0  0  0  0  0  0  0  0  0
    6.4338    0.3266   -0.9914 H   0  0  0  0  0  0  0  0  0  0  0  0
    5.2445    0.6692    1.0903 H   0  0  0  0  0  0  0  0  0  0  0  0
    4.7070   -1.0035    1.2230 H   0  0  0  0  0  0  0  0  0  0  0  0
    7.5402    1.2638    1.1695 H   0  0  0  0  0  0  0  0  0  0  0  0
    8.1740    0.0634   -0.0298 H   0  0  0  0  0  0  0  0  0  0  0  0
    9.2298    2.9912    1.1854 H   0  0  0  0  0  0  0  0  0  0  0  0
   10.5710    0.0306   -0.6678 H   0  0  0  0  0  0  0  0  0  0  0  0
    7.7768   -2.1594    0.2976 H   0  0  0  0  0  0  0  0  0  0  0  0
    7.9582   -2.3831    1.9322 H   0  0  0  0  0  0  0  0  0  0  0  0
    7.5505   -0.5866    3.5543 H   0  0  0  0  0  0  0  0  0  0  0  0
    5.8878    0.1460    3.2348 H   0  0  0  0  0  0  0  0  0  0  0  0
    6.0906   -1.6115    3.2509 H   0  0  0  0  0  0  0  0  0  0  0  0
  1  2  1  0
  2  3  2  0
  2  4  1  0
  4  5  2  0
  5  6  1  0
  6  7  2  0
  7  8  1  0
  8  9  1  0
  9 10  2  0
 10 11  1  0
 11 12  1  0
  7 13  1  0
 13 14  1  0
 14 15  1  0
 15 16  1  0
 16 17  1  0
 17 18  1  0
 18 19  1  0
 19 20  1  0
 20 21  1  0
 21 22  1  0
 22 23  1  0
 23 24  2  0
 24 25  1  0
 25 26  2  0
 26 27  1  0
 27 28  2  0
 26 29  1  0
 29 30  1  0
 30 31  1  0
 31 32  1  0
 32 33  1  0
 33 34  1  0
 34 35  2  0
 34 36  1  0
 34 37  1  0
 31 38  1  1
 31 39  1  0
  9  4  1  0
 28 23  1  0
 12  8  2  0
  5 40  1  0
  6 41  1  0
 13 42  1  0
 14 43  1  0
 14 44  1  0
 15 45  1  0
 15 46  1  0
 16 47  1  0
 16 48  1  0
 17 49  1  0
 17 50  1  0
 18 51  1  0
 18 52  1  0
 19 53  1  0
 19 54  1  0
 20 55  1  0
 20 56  1  0
 21 57  1  0
 21 58  1  0
 24 59  1  0
 25 60  1  0
 27 61  1  0
 28 62  1  0
 29 63  1  0
 29 64  1  0
 30 65  1  0
 30 66  1  0
 32 67  1  0
 32 68  1  0
 36 69  1  0
 37 70  1  0
 38 71  1  0
 38 72  1  0
 39 73  1  0
 39 74  1  0
 39 75  1  0
M  CHG  2   1  -1   2   1
M  END
>  <Ligand ID>  (1) 
LIG0002126

>  <Ligand>  (1) 
CHEMBL203475

>  <SMILES>  (1) 
[O-][N+](=O)c1ccc(c2c1non2)NCCCCCCCCOc1ccc(cc1)CC[C@](COP(=O)(O)O)(N)C

>  <CID>  (1) 
44406749.0

>  <ChEMBL ID>  (1) 
nan

>  <InChiKey>  (1) 
GQKMKQZYHICVOC-RUZDIDTESA-N

>  <InChi>  (1) 
InChI=1S/C25H36N5O8P/c1-25(26,18-37-39(33,34)35)15-14-19-8-10-20(11-9-19)36-17-7-5-3-2-4-6-16-27-21-12-13-22(30(31)32)24-23(21)28-38-29-24/h8-13,27H,2-7,14-18,26H2,1H3,(H2,33,34,35)/t25-/m1/s1

>  <IUPAC Name>  (1) 
[(2R)-2-amino-2-methyl-4-[4-[8-[(4-nitro-2,1,3-benzoxadiazol-7-yl)amino]octoxy]phenyl]butyl] dihydrogen phosphate

$$$$
