
     RDKit          3D

 32 31  0  0  0  0  0  0  0  0999 V2000
    3.5217    1.5696    0.3986 C   0  0  0  0  0  0  0  0  0  0  0  0
    2.5133    0.5132    0.8594 C   0  0  0  0  0  0  0  0  0  0  0  0
    2.6406   -0.7270    0.0400 C   0  0  0  0  0  0  0  0  0  0  0  0
    1.7121   -1.8361    0.3887 C   0  0  0  0  0  0  0  0  0  0  0  0
    0.2449   -1.5053    0.2680 C   0  0  0  0  0  0  0  0  0  0  0  0
   -0.0724   -1.1156   -1.1447 C   0  0  0  0  0  0  0  0  0  0  0  0
   -1.5272   -0.7798   -1.3344 C   0  0  0  0  0  0  0  0  0  0  0  0
   -1.8860    0.3848   -0.4487 C   0  0  0  0  0  0  0  0  0  0  0  0
   -3.3709    0.6672   -0.7115 C   0  0  0  0  0  0  0  0  0  0  0  0
   -3.7959    1.8435    0.1619 C   0  0  0  0  0  0  0  0  0  0  0  0
    3.2626    1.9959   -0.5863 H   0  0  0  0  0  0  0  0  0  0  0  0
    4.4899    1.0630    0.3097 H   0  0  0  0  0  0  0  0  0  0  0  0
    3.6216    2.3773    1.1302 H   0  0  0  0  0  0  0  0  0  0  0  0
    1.5186    0.9829    0.6936 H   0  0  0  0  0  0  0  0  0  0  0  0
    2.6570    0.3862    1.9256 H   0  0  0  0  0  0  0  0  0  0  0  0
    3.6661   -1.1307    0.1786 H   0  0  0  0  0  0  0  0  0  0  0  0
    2.5483   -0.4666   -1.0348 H   0  0  0  0  0  0  0  0  0  0  0  0
    1.9142   -2.6613   -0.3259 H   0  0  0  0  0  0  0  0  0  0  0  0
    1.8846   -2.2375    1.4066 H   0  0  0  0  0  0  0  0  0  0  0  0
   -0.2698   -2.4740    0.5003 H   0  0  0  0  0  0  0  0  0  0  0  0
   -0.1067   -0.8222    1.0408 H   0  0  0  0  0  0  0  0  0  0  0  0
    0.5189   -0.2308   -1.4572 H   0  0  0  0  0  0  0  0  0  0  0  0
    0.2096   -1.9211   -1.8534 H   0  0  0  0  0  0  0  0  0  0  0  0
   -1.8024   -0.6166   -2.3836 H   0  0  0  0  0  0  0  0  0  0  0  0
   -2.0746   -1.6700   -0.8984 H   0  0  0  0  0  0  0  0  0  0  0  0
   -1.7368    0.2314    0.6163 H   0  0  0  0  0  0  0  0  0  0  0  0
   -1.3206    1.3001   -0.7569 H   0  0  0  0  0  0  0  0  0  0  0  0
   -3.4610    0.8964   -1.7937 H   0  0  0  0  0  0  0  0  0  0  0  0
   -3.8997   -0.2568   -0.4440 H   0  0  0  0  0  0  0  0  0  0  0  0
   -4.6560    2.3552   -0.2974 H   0  0  0  0  0  0  0  0  0  0  0  0
   -2.8971    2.4817    0.2772 H   0  0  0  0  0  0  0  0  0  0  0  0
   -4.0467    1.4031    1.1597 H   0  0  0  0  0  0  0  0  0  0  0  0
  1  2  1  0
  2  3  1  0
  3  4  1  0
  4  5  1  0
  5  6  1  0
  6  7  1  0
  7  8  1  0
  8  9  1  0
  9 10  1  0
  1 11  1  0
  1 12  1  0
  1 13  1  0
  2 14  1  0
  2 15  1  0
  3 16  1  0
  3 17  1  0
  4 18  1  0
  4 19  1  0
  5 20  1  0
  5 21  1  0
  6 22  1  0
  6 23  1  0
  7 24  1  0
  7 25  1  0
  8 26  1  0
  8 27  1  0
  9 28  1  0
  9 29  1  0
 10 30  1  0
 10 31  1  0
 10 32  1  0
M  END
>  <Ligand ID>  (1) 
LIG0005029

>  <Ligand>  (1) 
decane

>  <SMILES>  (1) 
CCCCCCCCCC

>  <CID>  (1) 
15600.0

>  <ChEMBL ID>  (1) 
nan

>  <InChiKey>  (1) 
DIOQZVSQGTUSAI-UHFFFAOYSA-N

>  <InChi>  (1) 
InChI=1S/C10H22/c1-3-5-7-9-10-8-6-4-2/h3-10H2,1-2H3

>  <IUPAC Name>  (1) 
decane

$$$$
