
     RDKit          3D

 54 58  0  0  0  0  0  0  0  0999 V2000
   -4.7508    2.7237   -1.0870 C   0  0  0  0  0  0  0  0  0  0  0  0
   -3.8720    2.9321    0.1578 C   0  0  0  0  0  0  0  0  0  0  0  0
   -2.4608    2.6185   -0.1453 C   0  0  0  0  0  0  0  0  0  0  0  0
   -1.8246    1.5189    0.6996 C   0  0  0  0  0  0  0  0  0  0  0  0
   -2.7093    0.2912    0.7624 C   0  0  0  0  0  0  0  0  0  0  0  0
   -4.0618    0.6447    1.0059 C   0  0  0  0  0  0  0  0  0  0  0  0
   -4.4723    2.0513    1.2234 C   0  0  0  0  0  0  0  0  0  0  0  0
   -4.9553   -0.9002    0.9885 S   0  0  0  0  0  0  0  0  0  0  0  0
   -3.5308   -1.8803    0.6734 C   0  0  0  0  0  0  0  0  0  0  0  0
   -2.4724   -1.0121    0.5990 C   0  0  0  0  0  0  0  0  0  0  0  0
   -1.2441   -1.6615    0.3535 C   0  0  0  0  0  0  0  0  0  0  0  0
   -1.2082   -3.0154    0.2127 N   0  0  0  0  0  0  0  0  0  0  0  0
   -2.2775   -3.8137    0.2921 C   0  0  0  0  0  0  0  0  0  0  0  0
   -3.4613   -3.2102    0.5299 N   0  0  0  0  0  0  0  0  0  0  0  0
   -2.2160   -5.2727    0.1370 C   0  0  0  0  0  0  0  0  0  0  0  0
    0.0059   -1.0171    0.3083 N   0  0  0  0  0  0  0  0  0  0  0  0
    0.6047   -0.5123    1.5606 C   0  0  0  0  0  0  0  0  0  0  0  0
    2.0081   -1.1304    1.5637 C   0  0  0  0  0  0  0  0  0  0  0  0
    2.7479   -0.4587    0.4858 N   0  0  0  0  0  0  0  0  0  0  0  0
    1.9974    0.0489   -0.6221 C   0  0  0  0  0  0  0  0  0  0  0  0
    0.7811   -0.8185   -0.9136 C   0  0  0  0  0  0  0  0  0  0  0  0
    4.1497   -0.3803    0.6425 C   0  0  0  0  0  0  0  0  0  0  0  0
    4.6387   -0.9008    1.6954 O   0  0  0  0  0  0  0  0  0  0  0  0
    5.0613    0.2397   -0.2918 C   0  0  0  0  0  0  0  0  0  0  0  0
    5.2467   -0.1619   -1.5975 C   0  0  0  0  0  0  0  0  0  0  0  0
    6.1521    0.4974   -2.4365 C   0  0  0  0  0  0  0  0  0  0  0  0
    6.8756    1.5587   -1.9778 N   0  0  0  0  0  0  0  0  0  0  0  0
    6.7083    1.9720   -0.6912 C   0  0  0  0  0  0  0  0  0  0  0  0
    5.8146    1.3281    0.1514 C   0  0  0  0  0  0  0  0  0  0  0  0
   -5.8205    2.8223   -0.7765 H   0  0  0  0  0  0  0  0  0  0  0  0
   -4.5010    3.5492   -1.7798 H   0  0  0  0  0  0  0  0  0  0  0  0
   -4.5217    1.7299   -1.4869 H   0  0  0  0  0  0  0  0  0  0  0  0
   -4.0277    3.9937    0.4512 H   0  0  0  0  0  0  0  0  0  0  0  0
   -2.3671    2.3826   -1.2356 H   0  0  0  0  0  0  0  0  0  0  0  0
   -1.8643    3.5528    0.0277 H   0  0  0  0  0  0  0  0  0  0  0  0
   -1.5416    1.8279    1.6957 H   0  0  0  0  0  0  0  0  0  0  0  0
   -0.9610    1.2028    0.0395 H   0  0  0  0  0  0  0  0  0  0  0  0
   -4.1543    2.3593    2.2450 H   0  0  0  0  0  0  0  0  0  0  0  0
   -5.5661    2.1071    1.1351 H   0  0  0  0  0  0  0  0  0  0  0  0
   -1.8800   -5.6293   -0.8516 H   0  0  0  0  0  0  0  0  0  0  0  0
   -3.2189   -5.7166    0.2953 H   0  0  0  0  0  0  0  0  0  0  0  0
   -1.5735   -5.7130    0.9371 H   0  0  0  0  0  0  0  0  0  0  0  0
    0.7484    0.5627    1.5678 H   0  0  0  0  0  0  0  0  0  0  0  0
    0.0164   -0.8112    2.4384 H   0  0  0  0  0  0  0  0  0  0  0  0
    1.9641   -2.2276    1.3911 H   0  0  0  0  0  0  0  0  0  0  0  0
    2.5178   -0.9590    2.5136 H   0  0  0  0  0  0  0  0  0  0  0  0
    2.6120    0.1130   -1.5082 H   0  0  0  0  0  0  0  0  0  0  0  0
    1.5809    1.0590   -0.3497 H   0  0  0  0  0  0  0  0  0  0  0  0
    0.2129   -0.3021   -1.7061 H   0  0  0  0  0  0  0  0  0  0  0  0
    1.1731   -1.8032   -1.2441 H   0  0  0  0  0  0  0  0  0  0  0  0
    4.6640   -1.0133   -1.9491 H   0  0  0  0  0  0  0  0  0  0  0  0
    6.2639    0.1423   -3.4698 H   0  0  0  0  0  0  0  0  0  0  0  0
    7.2753    2.8152   -0.3037 H   0  0  0  0  0  0  0  0  0  0  0  0
    5.6938    1.6765    1.1899 H   0  0  0  0  0  0  0  0  0  0  0  0
  1  2  1  0
  2  3  1  0
  3  4  1  0
  4  5  1  0
  5  6  2  0
  6  7  1  0
  6  8  1  0
  8  9  1  0
  9 10  2  0
 10 11  1  0
 11 12  2  0
 12 13  1  0
 13 14  2  0
 13 15  1  0
 11 16  1  0
 16 17  1  0
 17 18  1  0
 18 19  1  0
 19 20  1  0
 20 21  1  0
 19 22  1  0
 22 23  2  0
 22 24  1  0
 24 25  2  0
 25 26  1  0
 26 27  2  0
 27 28  1  0
 28 29  2  0
  7  2  1  0
 14  9  1  0
 21 16  1  0
 29 24  1  0
 10  5  1  0
  1 30  1  0
  1 31  1  0
  1 32  1  0
  2 33  1  0
  3 34  1  0
  3 35  1  0
  4 36  1  0
  4 37  1  0
  7 38  1  0
  7 39  1  0
 15 40  1  0
 15 41  1  0
 15 42  1  0
 17 43  1  0
 17 44  1  0
 18 45  1  0
 18 46  1  0
 20 47  1  0
 20 48  1  0
 21 49  1  0
 21 50  1  0
 25 51  1  0
 26 52  1  0
 28 53  1  0
 29 54  1  0
M  END
>  <Ligand ID>  (1) 
LIG0004006

>  <Ligand>  (1) 
MLS-0437140.0001

>  <SMILES>  (1) 
CC1CCc2c(C1)sc1c2c(nc(n1)C)N1CCN(CC1)C(=O)c1ccncc1

>  <CID>  (1) 
46864267.0

>  <ChEMBL ID>  (1) 
nan

>  <InChiKey>  (1) 
NSERVXSNVYYJSH-UHFFFAOYSA-N

>  <InChi>  (1) 
InChI=1S/C22H25N5OS/c1-14-3-4-17-18(13-14)29-21-19(17)20(24-15(2)25-21)26-9-11-27(12-10-26)22(28)16-5-7-23-8-6-16/h5-8,14H,3-4,9-13H2,1-2H3

>  <IUPAC Name>  (1) 
[4-(2,7-dimethyl-5,6,7,8-tetrahydro-[1]benzothiolo[2,3-d]pyrimidin-4-yl)piperazin-1-yl]-pyridin-4-ylmethanone

$$$$
