
     RDKit          3D

 58 61  0  0  0  0  0  0  0  0999 V2000
    6.3238    2.6784    2.1902 C   0  0  0  0  0  0  0  0  0  0  0  0
    6.6228    1.4042    1.6010 O   0  0  0  0  0  0  0  0  0  0  0  0
    5.6593    0.8348    0.7860 C   0  0  0  0  0  0  0  0  0  0  0  0
    4.4400    1.4092    0.5151 C   0  0  0  0  0  0  0  0  0  0  0  0
    3.5204    0.7776   -0.3146 C   0  0  0  0  0  0  0  0  0  0  0  0
    2.2210    1.5036   -0.5251 C   0  0  0  0  0  0  0  0  0  0  0  0
    1.2151    1.0883    0.5343 C   0  0  0  0  0  0  0  0  0  0  0  0
    0.9294   -0.3031    0.4983 N   0  0  0  0  0  0  0  0  0  0  0  0
    0.2123   -0.8002   -0.6157 C   0  0  0  0  0  0  0  0  0  0  0  0
   -1.2180   -0.4045   -0.7402 C   0  0  0  0  0  0  0  0  0  0  0  0
   -2.0935   -1.1159    0.2987 C   0  0  0  0  0  0  0  0  0  0  0  0
   -3.4738   -0.7114    0.1532 N   0  0  0  0  0  0  0  0  0  0  0  0
   -4.3664   -1.3291   -0.6395 C   0  0  0  0  0  0  0  0  0  0  0  0
   -4.2569   -2.4155   -1.4697 C   0  0  0  0  0  0  0  0  0  0  0  0
   -5.3130   -2.8955   -2.2083 C   0  0  0  0  0  0  0  0  0  0  0  0
   -6.5195   -2.2293   -2.0828 C   0  0  0  0  0  0  0  0  0  0  0  0
   -6.6878   -1.1327   -1.2642 C   0  0  0  0  0  0  0  0  0  0  0  0
   -5.6009   -0.6816   -0.5383 C   0  0  0  0  0  0  0  0  0  0  0  0
   -5.3909    0.3387    0.3457 C   0  0  0  0  0  0  0  0  0  0  0  0
   -4.0658    0.3376    0.7907 C   0  0  0  0  0  0  0  0  0  0  0  0
   -3.6455    1.2863    1.6888 C   0  0  0  0  0  0  0  0  0  0  0  0
   -4.5030    2.2560    2.1738 C   0  0  0  0  0  0  0  0  0  0  0  0
   -5.8150    2.2379    1.7181 C   0  0  0  0  0  0  0  0  0  0  0  0
   -6.2674    1.2964    0.8149 C   0  0  0  0  0  0  0  0  0  0  0  0
   -1.4690    0.9350   -0.8430 O   0  0  0  0  0  0  0  0  0  0  0  0
    3.7856   -0.4408   -0.8985 C   0  0  0  0  0  0  0  0  0  0  0  0
    5.0266   -1.0198   -0.6194 C   0  0  0  0  0  0  0  0  0  0  0  0
    5.9452   -0.3944    0.2066 C   0  0  0  0  0  0  0  0  0  0  0  0
    7.1729   -0.9788    0.4761 O   0  0  0  0  0  0  0  0  0  0  0  0
    7.5099   -2.2212   -0.0856 C   0  0  0  0  0  0  0  0  0  0  0  0
    7.0304    2.9207    3.0097 H   0  0  0  0  0  0  0  0  0  0  0  0
    6.3978    3.4597    1.4070 H   0  0  0  0  0  0  0  0  0  0  0  0
    5.3210    2.6644    2.6599 H   0  0  0  0  0  0  0  0  0  0  0  0
    4.2084    2.3849    0.9731 H   0  0  0  0  0  0  0  0  0  0  0  0
    2.3609    2.5980   -0.4221 H   0  0  0  0  0  0  0  0  0  0  0  0
    1.7909    1.3194   -1.5281 H   0  0  0  0  0  0  0  0  0  0  0  0
    0.2963    1.6888    0.4192 H   0  0  0  0  0  0  0  0  0  0  0  0
    1.5958    1.3787    1.5591 H   0  0  0  0  0  0  0  0  0  0  0  0
    0.8148   -0.7887    1.3924 H   0  0  0  0  0  0  0  0  0  0  0  0
    0.2589   -1.9080   -0.6088 H   0  0  0  0  0  0  0  0  0  0  0  0
    0.7355   -0.4597   -1.5448 H   0  0  0  0  0  0  0  0  0  0  0  0
   -1.5716   -0.8546   -1.7170 H   0  0  0  0  0  0  0  0  0  0  0  0
   -2.0223   -2.1902    0.1229 H   0  0  0  0  0  0  0  0  0  0  0  0
   -1.7809   -0.8284    1.3258 H   0  0  0  0  0  0  0  0  0  0  0  0
   -3.3028   -2.9119   -1.5449 H   0  0  0  0  0  0  0  0  0  0  0  0
   -5.2529   -3.7496   -2.8699 H   0  0  0  0  0  0  0  0  0  0  0  0
   -7.4021   -2.5498   -2.6359 H   0  0  0  0  0  0  0  0  0  0  0  0
   -7.6103   -0.5981   -1.1480 H   0  0  0  0  0  0  0  0  0  0  0  0
   -2.6027    1.2319    1.9960 H   0  0  0  0  0  0  0  0  0  0  0  0
   -4.1314    2.9812    2.8769 H   0  0  0  0  0  0  0  0  0  0  0  0
   -6.5054    2.9891    2.0859 H   0  0  0  0  0  0  0  0  0  0  0  0
   -7.2893    1.3497    0.5137 H   0  0  0  0  0  0  0  0  0  0  0  0
   -2.3976    1.1866   -0.9353 H   0  0  0  0  0  0  0  0  0  0  0  0
    3.0667   -0.9224   -1.5421 H   0  0  0  0  0  0  0  0  0  0  0  0
    5.2226   -1.9815   -1.0866 H   0  0  0  0  0  0  0  0  0  0  0  0
    7.2310   -2.2918   -1.1760 H   0  0  0  0  0  0  0  0  0  0  0  0
    8.6284   -2.3747   -0.0351 H   0  0  0  0  0  0  0  0  0  0  0  0
    7.0117   -3.0540    0.4198 H   0  0  0  0  0  0  0  0  0  0  0  0
  1  2  1  0
  2  3  1  0
  3  4  2  0
  4  5  1  0
  5  6  1  0
  6  7  1  0
  7  8  1  0
  8  9  1  0
  9 10  1  0
 10 11  1  0
 11 12  1  0
 12 13  1  0
 13 14  2  0
 14 15  1  0
 15 16  2  0
 16 17  1  0
 17 18  2  0
 18 19  1  0
 19 20  2  0
 20 21  1  0
 21 22  2  0
 22 23  1  0
 23 24  2  0
 10 25  1  0
  5 26  2  0
 26 27  1  0
 27 28  2  0
 28 29  1  0
 29 30  1  0
 28  3  1  0
 20 12  1  0
 18 13  1  0
 24 19  1  0
  1 31  1  0
  1 32  1  0
  1 33  1  0
  4 34  1  0
  6 35  1  0
  6 36  1  0
  7 37  1  0
  7 38  1  0
  8 39  1  0
  9 40  1  0
  9 41  1  0
 10 42  1  0
 11 43  1  0
 11 44  1  0
 14 45  1  0
 15 46  1  0
 16 47  1  0
 17 48  1  0
 21 49  1  0
 22 50  1  0
 23 51  1  0
 24 52  1  0
 25 53  1  0
 26 54  1  0
 27 55  1  0
 30 56  1  0
 30 57  1  0
 30 58  1  0
M  END
>  <Ligand ID>  (1) 
LIG0004734

>  <Ligand>  (1) 
MLS000712603

>  <SMILES>  (1) 
COc1cc(CCNCC(Cn2c3ccccc3c3c2cccc3)O)ccc1OC

>  <CID>  (1) 
2919564.0

>  <ChEMBL ID>  (1) 
nan

>  <InChiKey>  (1) 
JDEYWFJUEBINPN-UHFFFAOYSA-N

>  <InChi>  (1) 
InChI=1S/C25H28N2O3/c1-29-24-12-11-18(15-25(24)30-2)13-14-26-16-19(28)17-27-22-9-5-3-7-20(22)21-8-4-6-10-23(21)27/h3-12,15,19,26,28H,13-14,16-17H2,1-2H3

>  <IUPAC Name>  (1) 
1-carbazol-9-yl-3-[2-(3,4-dimethoxyphenyl)ethylamino]propan-2-ol

$$$$
