
     RDKit          3D

 62 64  0  0  0  0  0  0  0  0999 V2000
   -5.7369   -1.3509   -1.6014 N   0  0  0  0  0  0  0  0  0  0  0  0
   -5.7822   -2.1057   -0.3604 C   0  0  0  0  0  0  0  0  0  0  0  0
   -5.5458   -1.1796    0.8177 C   0  0  0  0  0  0  0  0  0  0  0  0
   -4.1995   -0.5028    0.7101 C   0  0  0  0  0  0  0  0  0  0  0  0
   -3.0893   -1.5167    0.6860 C   0  0  0  0  0  0  0  0  0  0  0  0
   -1.8147   -0.8622    0.5816 N   0  0  0  0  0  0  0  0  0  0  0  0
   -1.2967    0.0603    1.5271 C   0  0  0  0  0  0  0  0  0  0  0  0
   -2.0290    0.3049    2.5278 O   0  0  0  0  0  0  0  0  0  0  0  0
    0.0129    0.6822    1.3338 C   0  0  2  0  0  0  0  0  0  0  0  0
    0.0433    2.1727    1.2782 C   0  0  0  0  0  0  0  0  0  0  0  0
   -0.7273    2.8129    0.2232 C   0  0  0  0  0  0  0  0  0  0  0  0
   -0.1645    3.1511   -1.0217 C   0  0  0  0  0  0  0  0  0  0  0  0
   -1.1220    3.6746   -1.8053 N   0  0  0  0  0  0  0  0  0  0  0  0
   -2.3043    3.7077   -1.1503 C   0  0  0  0  0  0  0  0  0  0  0  0
   -2.0446    3.1742    0.0983 C   0  0  0  0  0  0  0  0  0  0  0  0
   -3.1050    3.1109    0.9726 C   0  0  0  0  0  0  0  0  0  0  0  0
   -4.3684    3.5325    0.6835 C   0  0  0  0  0  0  0  0  0  0  0  0
   -4.6381    4.0699   -0.5747 C   0  0  0  0  0  0  0  0  0  0  0  0
   -3.5798    4.1459   -1.4776 C   0  0  0  0  0  0  0  0  0  0  0  0
    0.6408    0.0964    0.1507 N   0  0  0  0  0  0  0  0  0  0  0  0
    1.8631   -0.6590    0.2635 C   0  0  0  0  0  0  0  0  0  0  0  0
    2.3348   -0.7717    1.4388 O   0  0  0  0  0  0  0  0  0  0  0  0
    2.4956   -1.2332   -0.8451 N   0  0  0  0  0  0  0  0  0  0  0  0
    3.7345   -1.9919   -0.7959 C   0  0  0  0  0  0  0  0  0  0  0  0
    4.8088   -1.0760   -0.2562 C   0  0  0  0  0  0  0  0  0  0  0  0
    6.1380   -1.6979   -0.1473 C   0  0  0  0  0  0  0  0  0  0  0  0
    7.0229   -1.6045   -1.2317 C   0  0  0  0  0  0  0  0  0  0  0  0
    8.2861   -2.1907   -1.1351 C   0  0  0  0  0  0  0  0  0  0  0  0
    8.6370   -2.8523    0.0319 C   0  0  0  0  0  0  0  0  0  0  0  0
    7.7601   -2.9447    1.1063 C   0  0  0  0  0  0  0  0  0  0  0  0
    6.5182   -2.3688    1.0116 C   0  0  0  0  0  0  0  0  0  0  0  0
   -4.7902   -1.4825   -2.0400 H   0  0  0  0  0  0  0  0  0  0  0  0
   -6.4141   -1.8165   -2.2579 H   0  0  0  0  0  0  0  0  0  0  0  0
   -5.0985   -2.9765   -0.3551 H   0  0  0  0  0  0  0  0  0  0  0  0
   -6.8207   -2.5064   -0.2426 H   0  0  0  0  0  0  0  0  0  0  0  0
   -6.3478   -0.4251    0.8276 H   0  0  0  0  0  0  0  0  0  0  0  0
   -5.5173   -1.8072    1.7280 H   0  0  0  0  0  0  0  0  0  0  0  0
   -4.0995    0.2627    1.4799 H   0  0  0  0  0  0  0  0  0  0  0  0
   -4.1548    0.0495   -0.2756 H   0  0  0  0  0  0  0  0  0  0  0  0
   -3.2149   -2.2474   -0.1173 H   0  0  0  0  0  0  0  0  0  0  0  0
   -3.1226   -2.0740    1.6635 H   0  0  0  0  0  0  0  0  0  0  0  0
   -1.2141   -1.0708   -0.2447 H   0  0  0  0  0  0  0  0  0  0  0  0
    0.6461    0.3947    2.2207 H   0  0  0  0  0  0  0  0  0  0  0  0
   -0.4048    2.5287    2.2559 H   0  0  0  0  0  0  0  0  0  0  0  0
    1.0819    2.5821    1.3095 H   0  0  0  0  0  0  0  0  0  0  0  0
    0.8817    3.0160   -1.3182 H   0  0  0  0  0  0  0  0  0  0  0  0
   -1.0378    4.0293   -2.7973 H   0  0  0  0  0  0  0  0  0  0  0  0
   -2.9160    2.7170    1.9537 H   0  0  0  0  0  0  0  0  0  0  0  0
   -5.1737    3.4627    1.4016 H   0  0  0  0  0  0  0  0  0  0  0  0
   -5.6374    4.4059   -0.8170 H   0  0  0  0  0  0  0  0  0  0  0  0
   -3.7396    4.5571   -2.4717 H   0  0  0  0  0  0  0  0  0  0  0  0
    0.2614    0.1879   -0.8052 H   0  0  0  0  0  0  0  0  0  0  0  0
    2.0191   -1.0951   -1.7869 H   0  0  0  0  0  0  0  0  0  0  0  0
    3.9731   -2.3759   -1.7917 H   0  0  0  0  0  0  0  0  0  0  0  0
    3.5300   -2.8601   -0.1339 H   0  0  0  0  0  0  0  0  0  0  0  0
    4.8822   -0.2443   -1.0189 H   0  0  0  0  0  0  0  0  0  0  0  0
    4.4952   -0.5651    0.6692 H   0  0  0  0  0  0  0  0  0  0  0  0
    6.7265   -1.0797   -2.1403 H   0  0  0  0  0  0  0  0  0  0  0  0
    8.9689   -2.1238   -1.9603 H   0  0  0  0  0  0  0  0  0  0  0  0
    9.6179   -3.3281    0.1553 H   0  0  0  0  0  0  0  0  0  0  0  0
    8.0225   -3.4612    2.0280 H   0  0  0  0  0  0  0  0  0  0  0  0
    5.8492   -2.4416    1.8415 H   0  0  0  0  0  0  0  0  0  0  0  0
  1  2  1  0
  2  3  1  0
  3  4  1  0
  4  5  1  0
  5  6  1  0
  6  7  1  0
  7  8  2  0
  7  9  1  0
  9 10  1  0
 10 11  1  0
 11 12  2  0
 12 13  1  0
 13 14  1  0
 14 15  2  0
 15 16  1  0
 16 17  2  0
 17 18  1  0
 18 19  2  0
  9 20  1  0
 20 21  1  0
 21 22  2  0
 21 23  1  0
 23 24  1  0
 24 25  1  0
 25 26  1  0
 26 27  2  0
 27 28  1  0
 28 29  2  0
 29 30  1  0
 30 31  2  0
 15 11  1  0
 31 26  1  0
 19 14  1  0
  1 32  1  0
  1 33  1  0
  2 34  1  0
  2 35  1  0
  3 36  1  0
  3 37  1  0
  4 38  1  0
  4 39  1  0
  5 40  1  0
  5 41  1  0
  6 42  1  0
  9 43  1  1
 10 44  1  0
 10 45  1  0
 12 46  1  0
 13 47  1  0
 16 48  1  0
 17 49  1  0
 18 50  1  0
 19 51  1  0
 20 52  1  0
 23 53  1  0
 24 54  1  0
 24 55  1  0
 25 56  1  0
 25 57  1  0
 27 58  1  0
 28 59  1  0
 29 60  1  0
 30 61  1  0
 31 62  1  0
M  END
>  <Ligand ID>  (1) 
LIG0001262

>  <Ligand>  (1) 
CHEMBL431523

>  <SMILES>  (1) 
NCCCCNC(=O)[C@H](Cc1c[nH]c2c1cccc2)NC(=O)NCCc1ccccc1

>  <CID>  (1) 
44305753.0

>  <ChEMBL ID>  (1) 
nan

>  <InChiKey>  (1) 
ALCIJSWNWVGYMD-QFIPXVFZSA-N

>  <InChi>  (1) 
InChI=1S/C24H31N5O2/c25-13-6-7-14-26-23(30)22(16-19-17-28-21-11-5-4-10-20(19)21)29-24(31)27-15-12-18-8-2-1-3-9-18/h1-5,8-11,17,22,28H,6-7,12-16,25H2,(H,26,30)(H2,27,29,31)/t22-/m0/s1

>  <IUPAC Name>  (1) 
(2S)-N-(4-aminobutyl)-3-(1H-indol-3-yl)-2-(2-phenylethylcarbamoylamino)propanamide

$$$$
