
     RDKit          3D

 55 57  0  0  0  0  0  0  0  0999 V2000
   -5.3060    0.0224   -1.9226 O   0  0  0  0  0  0  0  0  0  0  0  0
   -4.8251   -1.1540   -1.4014 C   0  0  2  0  0  0  0  0  0  0  0  0
   -5.6460   -1.6880   -0.2519 C   0  0  0  0  0  0  0  0  0  0  0  0
   -5.7341   -0.9021    0.8288 O   0  0  0  0  0  0  0  0  0  0  0  0
   -6.1756    0.2636    1.2816 C   0  0  0  0  0  0  0  0  0  0  0  0
   -5.9154    0.5570    2.6343 C   0  0  0  0  0  0  0  0  0  0  0  0
   -6.3107    1.7158    3.2366 C   0  0  0  0  0  0  0  0  0  0  0  0
   -6.9944    2.6479    2.5030 C   0  0  0  0  0  0  0  0  0  0  0  0
   -7.2828    2.4302    1.1837 C   0  0  0  0  0  0  0  0  0  0  0  0
   -6.8678    1.2447    0.6043 C   0  0  0  0  0  0  0  0  0  0  0  0
   -3.3618   -1.0017   -0.9652 C   0  0  0  0  0  0  0  0  0  0  0  0
   -2.5823   -0.6407   -2.1066 N   0  0  0  0  0  0  0  0  0  0  0  0
   -1.1952   -0.4397   -1.9175 C   0  0  0  0  0  0  0  0  0  0  0  0
   -0.3816   -1.6566   -1.5786 C   0  0  0  0  0  0  0  0  0  0  0  0
    1.0605   -1.3363   -1.4033 C   0  0  0  0  0  0  0  0  0  0  0  0
    1.6090   -0.9766   -0.1875 C   0  0  0  0  0  0  0  0  0  0  0  0
    2.9728   -0.6890   -0.0884 C   0  0  0  0  0  0  0  0  0  0  0  0
    3.8253   -0.7444   -1.1598 C   0  0  0  0  0  0  0  0  0  0  0  0
    3.2742   -1.1044   -2.3748 C   0  0  0  0  0  0  0  0  0  0  0  0
    1.9298   -1.3886   -2.4758 C   0  0  0  0  0  0  0  0  0  0  0  0
    5.2055   -0.4666   -1.1288 N   0  0  0  0  0  0  0  0  0  0  0  0
    5.9574   -0.0759    0.0009 C   0  0  0  0  0  0  0  0  0  0  0  0
    5.4618    0.0722    1.1400 O   0  0  0  0  0  0  0  0  0  0  0  0
    7.4172    0.1817   -0.1321 C   0  0  0  0  0  0  0  0  0  0  0  0
    7.9294    0.5741    1.2059 C   0  0  0  0  0  0  0  0  0  0  0  0
    8.4074   -0.2067    2.1902 N   0  0  0  0  0  0  0  0  0  0  0  0
    8.7398    0.6465    3.1940 C   0  0  0  0  0  0  0  0  0  0  0  0
    8.4657    1.9416    2.8235 C   0  0  0  0  0  0  0  0  0  0  0  0
    7.9660    1.8813    1.5942 N   0  0  0  0  0  0  0  0  0  0  0  0
   -5.1898    0.1372   -2.8913 H   0  0  0  0  0  0  0  0  0  0  0  0
   -4.9122   -1.9138   -2.2083 H   0  0  0  0  0  0  0  0  0  0  0  0
   -6.6426   -2.0018   -0.6876 H   0  0  0  0  0  0  0  0  0  0  0  0
   -5.1924   -2.7101    0.0038 H   0  0  0  0  0  0  0  0  0  0  0  0
   -5.3743   -0.1575    3.2525 H   0  0  0  0  0  0  0  0  0  0  0  0
   -6.0886    1.9057    4.2886 H   0  0  0  0  0  0  0  0  0  0  0  0
   -7.2985    3.5554    2.9889 H   0  0  0  0  0  0  0  0  0  0  0  0
   -7.8245    3.1656    0.5991 H   0  0  0  0  0  0  0  0  0  0  0  0
   -7.1309    1.1081   -0.4253 H   0  0  0  0  0  0  0  0  0  0  0  0
   -3.3634   -0.1377   -0.2604 H   0  0  0  0  0  0  0  0  0  0  0  0
   -3.0071   -1.8689   -0.4178 H   0  0  0  0  0  0  0  0  0  0  0  0
   -2.9699    0.1867   -2.6089 H   0  0  0  0  0  0  0  0  0  0  0  0
   -1.0020    0.3819   -1.1981 H   0  0  0  0  0  0  0  0  0  0  0  0
   -0.7797   -0.0595   -2.8867 H   0  0  0  0  0  0  0  0  0  0  0  0
   -0.8081   -2.0704   -0.6335 H   0  0  0  0  0  0  0  0  0  0  0  0
   -0.4484   -2.4537   -2.3154 H   0  0  0  0  0  0  0  0  0  0  0  0
    0.9646   -0.9211    0.6879 H   0  0  0  0  0  0  0  0  0  0  0  0
    3.3169   -0.4197    0.8883 H   0  0  0  0  0  0  0  0  0  0  0  0
    3.8789   -1.1732   -3.2754 H   0  0  0  0  0  0  0  0  0  0  0  0
    1.5425   -1.6657   -3.4449 H   0  0  0  0  0  0  0  0  0  0  0  0
    5.7600   -0.5522   -2.0330 H   0  0  0  0  0  0  0  0  0  0  0  0
    7.6255    0.8992   -0.9281 H   0  0  0  0  0  0  0  0  0  0  0  0
    7.8611   -0.8090   -0.4310 H   0  0  0  0  0  0  0  0  0  0  0  0
    9.1638    0.3999    4.1678 H   0  0  0  0  0  0  0  0  0  0  0  0
    8.6139    2.8613    3.3948 H   0  0  0  0  0  0  0  0  0  0  0  0
    7.6623    2.7203    1.0474 H   0  0  0  0  0  0  0  0  0  0  0  0
  1  2  1  0
  2  3  1  0
  3  4  1  0
  4  5  1  0
  5  6  2  0
  6  7  1  0
  7  8  2  0
  8  9  1  0
  9 10  2  0
  2 11  1  0
 11 12  1  0
 12 13  1  0
 13 14  1  0
 14 15  1  0
 15 16  2  0
 16 17  1  0
 17 18  2  0
 18 19  1  0
 19 20  2  0
 18 21  1  0
 21 22  1  0
 22 23  2  0
 22 24  1  0
 24 25  1  0
 25 26  2  0
 26 27  1  0
 27 28  2  0
 28 29  1  0
 10  5  1  0
 20 15  1  0
 29 25  1  0
  1 30  1  0
  2 31  1  6
  3 32  1  0
  3 33  1  0
  6 34  1  0
  7 35  1  0
  8 36  1  0
  9 37  1  0
 10 38  1  0
 11 39  1  0
 11 40  1  0
 12 41  1  0
 13 42  1  0
 13 43  1  0
 14 44  1  0
 14 45  1  0
 16 46  1  0
 17 47  1  0
 19 48  1  0
 20 49  1  0
 21 50  1  0
 24 51  1  0
 24 52  1  0
 27 53  1  0
 28 54  1  0
 29 55  1  0
M  END
>  <Ligand ID>  (1) 
LIG0002725

>  <Ligand>  (1) 
CHEMBL466879

>  <SMILES>  (1) 
O[C@H](COc1ccccc1)CNCCc1ccc(cc1)NC(=O)Cc1ncc[nH]1

>  <CID>  (1) 
44574758.0

>  <ChEMBL ID>  (1) 
nan

>  <InChiKey>  (1) 
IJJIVWLLOMQWOM-IBGZPJMESA-N

>  <InChi>  (1) 
InChI=1S/C22H26N4O3/c27-19(16-29-20-4-2-1-3-5-20)15-23-11-10-17-6-8-18(9-7-17)26-22(28)14-21-24-12-13-25-21/h1-9,12-13,19,23,27H,10-11,14-16H2,(H,24,25)(H,26,28)/t19-/m0/s1

>  <IUPAC Name>  (1) 
N-[4-[2-[[(2S)-2-hydroxy-3-phenoxypropyl]amino]ethyl]phenyl]-2-(1H-imidazol-2-yl)acetamide

$$$$
