
     RDKit          3D

 50 52  0  0  0  0  0  0  0  0999 V2000
    8.2193    1.8256   -1.1280 Cl  0  0  0  0  0  0  0  0  0  0  0  0
    7.3148    0.7177   -0.0935 C   0  0  0  0  0  0  0  0  0  0  0  0
    7.8823    0.3453    1.1119 C   0  0  0  0  0  0  0  0  0  0  0  0
    7.1568   -0.5313    1.9125 C   0  0  0  0  0  0  0  0  0  0  0  0
    5.9238   -1.0147    1.5297 C   0  0  0  0  0  0  0  0  0  0  0  0
    5.3593   -0.6433    0.3282 C   0  0  0  0  0  0  0  0  0  0  0  0
    6.0792    0.2238   -0.4598 C   0  0  0  0  0  0  0  0  0  0  0  0
    4.0350   -1.1986   -0.0415 C   0  0  2  0  0  0  0  0  0  0  0  0
    3.4914   -0.6357   -1.3369 C   0  0  0  0  0  0  0  0  0  0  0  0
    3.0254    0.6871   -1.3011 N   0  0  0  0  0  0  0  0  0  0  0  0
    1.8362    0.9253   -0.5725 C   0  0  0  0  0  0  0  0  0  0  0  0
    0.6651    0.2923   -1.2855 C   0  0  0  0  0  0  0  0  0  0  0  0
   -0.5634    0.5889   -0.4900 C   0  0  0  0  0  0  0  0  0  0  0  0
   -0.9500   -0.3249    0.4719 C   0  0  0  0  0  0  0  0  0  0  0  0
   -2.0863   -0.1434    1.2431 C   0  0  0  0  0  0  0  0  0  0  0  0
   -2.8381    0.9916    1.0259 C   0  0  0  0  0  0  0  0  0  0  0  0
   -2.4639    1.9291    0.0587 C   0  0  0  0  0  0  0  0  0  0  0  0
   -1.3289    1.7205   -0.6921 C   0  0  0  0  0  0  0  0  0  0  0  0
   -4.0019    1.1949    1.7985 O   0  0  0  0  0  0  0  0  0  0  0  0
   -5.1741    0.6467    1.2530 C   0  0  0  0  0  0  0  0  0  0  0  0
   -5.1512   -0.0427    0.0378 C   0  0  0  0  0  0  0  0  0  0  0  0
   -6.2833   -0.5909   -0.5215 C   0  0  0  0  0  0  0  0  0  0  0  0
   -7.4954   -0.4567    0.1421 C   0  0  0  0  0  0  0  0  0  0  0  0
   -7.5161    0.2280    1.3487 C   0  0  0  0  0  0  0  0  0  0  0  0
   -6.3680    0.7440    1.8464 N   0  0  0  0  0  0  0  0  0  0  0  0
   -8.6874   -1.0286   -0.4416 C   0  0  0  0  0  0  0  0  0  0  0  0
   -9.8357   -0.9556    0.1042 O   0  0  0  0  0  0  0  0  0  0  0  0
   -8.6190   -1.7007   -1.6633 O   0  0  0  0  0  0  0  0  0  0  0  0
    3.1162   -1.2050    0.9897 O   0  0  0  0  0  0  0  0  0  0  0  0
    8.8613    0.7285    1.4133 H   0  0  0  0  0  0  0  0  0  0  0  0
    7.6295   -0.8041    2.8480 H   0  0  0  0  0  0  0  0  0  0  0  0
    5.3775   -1.6973    2.1670 H   0  0  0  0  0  0  0  0  0  0  0  0
    5.6738    0.5443   -1.4110 H   0  0  0  0  0  0  0  0  0  0  0  0
    4.2453   -2.2975   -0.2475 H   0  0  0  0  0  0  0  0  0  0  0  0
    4.2764   -0.7216   -2.1509 H   0  0  0  0  0  0  0  0  0  0  0  0
    2.6907   -1.3174   -1.6972 H   0  0  0  0  0  0  0  0  0  0  0  0
    3.2117    1.3230   -2.0688 H   0  0  0  0  0  0  0  0  0  0  0  0
    1.6405    2.0465   -0.5545 H   0  0  0  0  0  0  0  0  0  0  0  0
    1.8555    0.6483    0.5067 H   0  0  0  0  0  0  0  0  0  0  0  0
    0.6005    0.7231   -2.3031 H   0  0  0  0  0  0  0  0  0  0  0  0
    0.8381   -0.8168   -1.3041 H   0  0  0  0  0  0  0  0  0  0  0  0
   -0.3846   -1.2233    0.6672 H   0  0  0  0  0  0  0  0  0  0  0  0
   -2.3918   -0.8657    2.0028 H   0  0  0  0  0  0  0  0  0  0  0  0
   -3.1054    2.8027   -0.0587 H   0  0  0  0  0  0  0  0  0  0  0  0
   -1.0327    2.4483   -1.4463 H   0  0  0  0  0  0  0  0  0  0  0  0
   -4.1999   -0.1516   -0.4903 H   0  0  0  0  0  0  0  0  0  0  0  0
   -6.1966   -1.1134   -1.4676 H   0  0  0  0  0  0  0  0  0  0  0  0
   -8.4710    0.3294    1.8612 H   0  0  0  0  0  0  0  0  0  0  0  0
   -9.2436   -2.4601   -1.9104 H   0  0  0  0  0  0  0  0  0  0  0  0
    3.3829   -0.7141    1.7892 H   0  0  0  0  0  0  0  0  0  0  0  0
  1  2  1  0
  2  3  2  0
  3  4  1  0
  4  5  2  0
  5  6  1  0
  6  7  2  0
  6  8  1  0
  8  9  1  0
  9 10  1  0
 10 11  1  0
 11 12  1  0
 12 13  1  0
 13 14  2  0
 14 15  1  0
 15 16  2  0
 16 17  1  0
 17 18  2  0
 16 19  1  0
 19 20  1  0
 20 21  2  0
 21 22  1  0
 22 23  2  0
 23 24  1  0
 24 25  2  0
 23 26  1  0
 26 27  2  0
 26 28  1  0
  8 29  1  0
  7  2  1  0
 18 13  1  0
 25 20  1  0
  3 30  1  0
  4 31  1  0
  5 32  1  0
  7 33  1  0
  8 34  1  6
  9 35  1  0
  9 36  1  0
 10 37  1  0
 11 38  1  0
 11 39  1  0
 12 40  1  0
 12 41  1  0
 14 42  1  0
 15 43  1  0
 17 44  1  0
 18 45  1  0
 21 46  1  0
 22 47  1  0
 24 48  1  0
 28 49  1  0
 29 50  1  0
M  END
>  <Ligand ID>  (1) 
LIG0005834

>  <Ligand>  (1) 
CHEMBL272234

>  <SMILES>  (1) 
Clc1cccc(c1)[C@H](CNCCc1ccc(cc1)Oc1ccc(cn1)C(=O)O)O

>  <CID>  (1) 
24822304.0

>  <ChEMBL ID>  (1) 
nan

>  <InChiKey>  (1) 
NJVIQYGVTISQPV-FQEVSTJZSA-N

>  <InChi>  (1) 
InChI=1S/C22H21ClN2O4/c23-18-3-1-2-16(12-18)20(26)14-24-11-10-15-4-7-19(8-5-15)29-21-9-6-17(13-25-21)22(27)28/h1-9,12-13,20,24,26H,10-11,14H2,(H,27,28)/t20-/m0/s1

>  <IUPAC Name>  (1) 
6-[4-[2-[[(2R)-2-(3-chlorophenyl)-2-hydroxyethyl]amino]ethyl]phenoxy]pyridine-3-carboxylic acid

$$$$
