
     RDKit          3D

 58 62  0  0  0  0  0  0  0  0999 V2000
   -5.8350    3.9061    2.7945 Cl  0  0  0  0  0  0  0  0  0  0  0  0
   -5.1006    2.7501    1.7177 C   0  0  0  0  0  0  0  0  0  0  0  0
   -4.6054    1.5337    2.1479 C   0  0  0  0  0  0  0  0  0  0  0  0
   -4.0229    0.6484    1.2438 C   0  0  0  0  0  0  0  0  0  0  0  0
   -3.9162    0.9427   -0.0964 C   0  0  0  0  0  0  0  0  0  0  0  0
   -4.4192    2.1758   -0.5298 C   0  0  0  0  0  0  0  0  0  0  0  0
   -5.0001    3.0662    0.3548 C   0  0  0  0  0  0  0  0  0  0  0  0
   -3.2835   -0.0090   -1.0748 C   0  0  0  0  0  0  0  0  0  0  0  0
   -1.9319    0.3992   -1.4893 C   0  0  0  0  0  0  0  0  0  0  0  0
   -1.6468    0.5791   -2.8534 C   0  0  0  0  0  0  0  0  0  0  0  0
   -0.4199    0.9776   -3.3086 C   0  0  0  0  0  0  0  0  0  0  0  0
    0.6041    1.2238   -2.4439 C   0  0  0  0  0  0  0  0  0  0  0  0
    0.3588    1.0552   -1.0846 C   0  0  0  0  0  0  0  0  0  0  0  0
   -0.8845    0.6517   -0.6314 C   0  0  0  0  0  0  0  0  0  0  0  0
    1.4208    1.3097   -0.2412 C   0  0  0  0  0  0  0  0  0  0  0  0
    2.5689    1.6900   -0.7814 N   0  0  0  0  0  0  0  0  0  0  0  0
    2.7939    1.8490   -2.0900 C   0  0  0  0  0  0  0  0  0  0  0  0
    1.7812    1.6095   -2.9376 N   0  0  0  0  0  0  0  0  0  0  0  0
    1.3041    1.1599    1.1568 N   0  0  0  0  0  0  0  0  0  0  0  0
    2.3961    1.4136    2.0910 C   0  0  0  0  0  0  0  0  0  0  0  0
    3.5937    0.5883    1.8292 C   0  0  0  0  0  0  0  0  0  0  0  0
    3.5754   -0.7210    2.3246 C   0  0  0  0  0  0  0  0  0  0  0  0
    4.6713   -1.5462    2.1268 C   0  0  0  0  0  0  0  0  0  0  0  0
    5.7796   -1.0626    1.4349 C   0  0  0  0  0  0  0  0  0  0  0  0
    5.8096    0.2187    0.9446 C   0  0  0  0  0  0  0  0  0  0  0  0
    4.7080    1.0230    1.1534 C   0  0  0  0  0  0  0  0  0  0  0  0
    6.9328   -1.9571    1.2206 C   0  0  0  0  0  0  0  0  0  0  0  0
    6.8530   -3.1266    1.6722 O   0  0  0  0  0  0  0  0  0  0  0  0
    8.0688   -1.4651    0.5211 N   0  0  0  0  0  0  0  0  0  0  0  0
   -3.4567   -1.4122   -0.7067 C   0  0  0  0  0  0  0  0  0  0  0  0
   -4.4759   -2.1710   -1.3103 C   0  0  0  0  0  0  0  0  0  0  0  0
   -4.6955   -3.4762   -1.0049 C   0  0  0  0  0  0  0  0  0  0  0  0
   -3.9316   -4.1458   -0.0790 C   0  0  0  0  0  0  0  0  0  0  0  0
   -2.9196   -3.4280    0.5365 C   0  0  0  0  0  0  0  0  0  0  0  0
   -2.7047   -2.1002    0.2157 C   0  0  0  0  0  0  0  0  0  0  0  0
   -4.2192   -5.8232    0.2954 Cl  0  0  0  0  0  0  0  0  0  0  0  0
   -4.6805    1.2700    3.2142 H   0  0  0  0  0  0  0  0  0  0  0  0
   -3.6617   -0.2801    1.6399 H   0  0  0  0  0  0  0  0  0  0  0  0
   -4.3326    2.4125   -1.6036 H   0  0  0  0  0  0  0  0  0  0  0  0
   -5.3755    4.0125   -0.0282 H   0  0  0  0  0  0  0  0  0  0  0  0
   -3.9315    0.1783   -2.0082 H   0  0  0  0  0  0  0  0  0  0  0  0
   -2.4195    0.3995   -3.6047 H   0  0  0  0  0  0  0  0  0  0  0  0
   -0.2627    1.0987   -4.3759 H   0  0  0  0  0  0  0  0  0  0  0  0
   -1.0490    0.5406    0.4062 H   0  0  0  0  0  0  0  0  0  0  0  0
    3.7448    2.1608   -2.5036 H   0  0  0  0  0  0  0  0  0  0  0  0
    0.4037    0.8525    1.6353 H   0  0  0  0  0  0  0  0  0  0  0  0
    2.6867    2.4853    1.8810 H   0  0  0  0  0  0  0  0  0  0  0  0
    2.0977    1.3498    3.1452 H   0  0  0  0  0  0  0  0  0  0  0  0
    2.7189   -1.0908    2.8582 H   0  0  0  0  0  0  0  0  0  0  0  0
    4.6613   -2.5649    2.5128 H   0  0  0  0  0  0  0  0  0  0  0  0
    6.6629    0.6211    0.3986 H   0  0  0  0  0  0  0  0  0  0  0  0
    4.7674    2.0289    0.7678 H   0  0  0  0  0  0  0  0  0  0  0  0
    8.0095   -0.8872   -0.3388 H   0  0  0  0  0  0  0  0  0  0  0  0
    9.0269   -1.7014    0.8996 H   0  0  0  0  0  0  0  0  0  0  0  0
   -5.1269   -1.6925   -2.0601 H   0  0  0  0  0  0  0  0  0  0  0  0
   -5.5153   -4.0059   -1.5198 H   0  0  0  0  0  0  0  0  0  0  0  0
   -2.2746   -3.9083    1.2799 H   0  0  0  0  0  0  0  0  0  0  0  0
   -1.9007   -1.6063    0.7299 H   0  0  0  0  0  0  0  0  0  0  0  0
  1  2  1  0
  2  3  2  0
  3  4  1  0
  4  5  2  0
  5  6  1  0
  6  7  2  0
  5  8  1  0
  8  9  1  0
  9 10  2  0
 10 11  1  0
 11 12  2  0
 12 13  1  0
 13 14  2  0
 13 15  1  0
 15 16  2  0
 16 17  1  0
 17 18  2  0
 15 19  1  0
 19 20  1  0
 20 21  1  0
 21 22  2  0
 22 23  1  0
 23 24  2  0
 24 25  1  0
 25 26  2  0
 24 27  1  0
 27 28  2  0
 27 29  1  0
  8 30  1  0
 30 31  2  0
 31 32  1  0
 32 33  2  0
 33 34  1  0
 34 35  2  0
 33 36  1  0
  7  2  1  0
 14  9  1  0
 26 21  1  0
 35 30  1  0
 18 12  1  0
  3 37  1  0
  4 38  1  0
  6 39  1  0
  7 40  1  0
  8 41  1  0
 10 42  1  0
 11 43  1  0
 14 44  1  0
 17 45  1  0
 19 46  1  0
 20 47  1  0
 20 48  1  0
 22 49  1  0
 23 50  1  0
 25 51  1  0
 26 52  1  0
 29 53  1  0
 29 54  1  0
 31 55  1  0
 32 56  1  0
 34 57  1  0
 35 58  1  0
M  END
>  <Ligand ID>  (1) 
LIG0005952

>  <Ligand>  (1) 
SCHEMBL17557567

>  <SMILES>  (1) 
Clc1ccc(cc1)C(c1ccc2c(c1)c(ncn2)NCc1ccc(cc1)C(=O)N)c1ccc(cc1)Cl

>  <CID>  (1) 
118916053.0

>  <ChEMBL ID>  (1) 
nan

>  <InChiKey>  (1) 
HRXKDHYLBXTKDE-UHFFFAOYSA-N

>  <InChi>  (1) 
InChI=1S/C29H22Cl2N4O/c30-23-10-5-19(6-11-23)27(20-7-12-24(31)13-8-20)22-9-14-26-25(15-22)29(35-17-34-26)33-16-18-1-3-21(4-2-18)28(32)36/h1-15,17,27H,16H2,(H2,32,36)(H,33,34,35)

>  <IUPAC Name>  (1) 
4-[[[6-[bis(4-chlorophenyl)methyl]quinazolin-4-yl]amino]methyl]benzamide

$$$$
