
     RDKit          3D

 58 60  0  0  0  0  0  0  0  0999 V2000
   -1.9107   -1.0847    2.6947 C   0  0  0  0  0  0  0  0  0  0  0  0
   -2.1162   -1.9219    1.4685 C   0  0  2  0  0  0  0  0  0  0  0  0
   -1.0560   -2.9676    1.3207 C   0  0  0  0  0  0  0  0  0  0  0  0
    0.2528   -2.3857    1.2452 N   0  0  0  0  0  0  0  0  0  0  0  0
    0.9058   -1.8572    0.1248 C   0  0  0  0  0  0  0  0  0  0  0  0
    0.4385   -1.8603   -1.1654 C   0  0  0  0  0  0  0  0  0  0  0  0
    1.1175   -1.3108   -2.2341 C   0  0  0  0  0  0  0  0  0  0  0  0
    2.3422   -0.7144   -2.0356 C   0  0  0  0  0  0  0  0  0  0  0  0
    2.8526   -0.6883   -0.7502 C   0  0  0  0  0  0  0  0  0  0  0  0
    2.1566   -1.2427    0.2996 C   0  0  0  0  0  0  0  0  0  0  0  0
    4.1390   -0.0781   -0.4471 C   0  0  0  0  0  0  0  0  0  0  0  0
    5.0750   -0.9396    0.1511 C   0  0  0  0  0  0  0  0  0  0  0  0
    6.3505   -0.5113    0.4474 C   0  0  0  0  0  0  0  0  0  0  0  0
    6.6832    0.7877    0.1404 C   0  0  0  0  0  0  0  0  0  0  0  0
    5.7625    1.6358   -0.4472 C   0  0  0  0  0  0  0  0  0  0  0  0
    4.4660    1.2218   -0.7542 C   0  0  0  0  0  0  0  0  0  0  0  0
    3.5293    2.1567   -1.3092 C   0  0  0  0  0  0  0  0  0  0  0  0
    3.9543    3.3281   -1.5969 O   0  0  0  0  0  0  0  0  0  0  0  0
    2.1942    1.9396   -1.5734 O   0  0  0  0  0  0  0  0  0  0  0  0
    8.0384    1.2314    0.4542 C   0  0  0  0  0  0  0  0  0  0  0  0
    8.8291    0.4138    0.9830 O   0  0  0  0  0  0  0  0  0  0  0  0
    8.4932    2.5111    0.1958 O   0  0  0  0  0  0  0  0  0  0  0  0
   -2.3295   -1.1092    0.3158 N   0  0  0  0  0  0  0  0  0  0  0  0
   -3.4593   -0.1954    0.4622 C   0  0  0  0  0  0  0  0  0  0  0  0
   -3.6930    0.5381   -0.8570 C   0  0  1  0  0  0  0  0  0  0  0  0
   -4.8994    1.3794   -0.6429 C   0  0  0  0  0  0  0  0  0  0  0  0
   -6.1333    0.8953   -1.0886 C   0  0  0  0  0  0  0  0  0  0  0  0
   -7.2767    1.6806   -0.8929 C   0  0  0  0  0  0  0  0  0  0  0  0
   -7.1903    2.9186   -0.2677 C   0  0  0  0  0  0  0  0  0  0  0  0
   -5.9505    3.3368    0.1460 C   0  0  0  0  0  0  0  0  0  0  0  0
   -4.7922    2.6138   -0.0165 C   0  0  0  0  0  0  0  0  0  0  0  0
   -5.8481    4.9041    0.9354 Cl  0  0  0  0  0  0  0  0  0  0  0  0
   -2.5869    1.2570   -1.2161 O   0  0  0  0  0  0  0  0  0  0  0  0
   -2.0951   -1.7799    3.5669 H   0  0  0  0  0  0  0  0  0  0  0  0
   -0.8440   -0.7201    2.7461 H   0  0  0  0  0  0  0  0  0  0  0  0
   -2.5823   -0.2492    2.8384 H   0  0  0  0  0  0  0  0  0  0  0  0
   -3.0801   -2.5279    1.6425 H   0  0  0  0  0  0  0  0  0  0  0  0
   -1.2216   -3.5993    0.4176 H   0  0  0  0  0  0  0  0  0  0  0  0
   -1.1610   -3.6690    2.1816 H   0  0  0  0  0  0  0  0  0  0  0  0
    0.7804   -2.3581    2.1725 H   0  0  0  0  0  0  0  0  0  0  0  0
   -0.5007   -2.3293   -1.3827 H   0  0  0  0  0  0  0  0  0  0  0  0
    0.7025   -1.3407   -3.2291 H   0  0  0  0  0  0  0  0  0  0  0  0
    2.8495   -0.3058   -2.8900 H   0  0  0  0  0  0  0  0  0  0  0  0
    2.6002   -1.1993    1.3084 H   0  0  0  0  0  0  0  0  0  0  0  0
    4.8307   -1.9539    0.3970 H   0  0  0  0  0  0  0  0  0  0  0  0
    7.0581   -1.1786    0.9046 H   0  0  0  0  0  0  0  0  0  0  0  0
    6.1111    2.6414   -0.6537 H   0  0  0  0  0  0  0  0  0  0  0  0
    1.5193    2.6987   -1.6258 H   0  0  0  0  0  0  0  0  0  0  0  0
    9.2142    2.9683    0.7492 H   0  0  0  0  0  0  0  0  0  0  0  0
   -2.5306   -1.7036   -0.5409 H   0  0  0  0  0  0  0  0  0  0  0  0
   -3.2730    0.5784    1.2222 H   0  0  0  0  0  0  0  0  0  0  0  0
   -4.3432   -0.7804    0.7620 H   0  0  0  0  0  0  0  0  0  0  0  0
   -3.9254   -0.2579   -1.6277 H   0  0  0  0  0  0  0  0  0  0  0  0
   -6.2082   -0.0516   -1.5676 H   0  0  0  0  0  0  0  0  0  0  0  0
   -8.2574    1.3535   -1.2187 H   0  0  0  0  0  0  0  0  0  0  0  0
   -8.1014    3.5027   -0.1311 H   0  0  0  0  0  0  0  0  0  0  0  0
   -3.8467    3.0107    0.3368 H   0  0  0  0  0  0  0  0  0  0  0  0
   -2.0340    1.5837   -0.4684 H   0  0  0  0  0  0  0  0  0  0  0  0
  1  2  1  0
  2  3  1  0
  3  4  1  0
  4  5  1  0
  5  6  2  0
  6  7  1  0
  7  8  2  0
  8  9  1  0
  9 10  2  0
  9 11  1  0
 11 12  2  0
 12 13  1  0
 13 14  2  0
 14 15  1  0
 15 16  2  0
 16 17  1  0
 17 18  2  0
 17 19  1  0
 14 20  1  0
 20 21  2  0
 20 22  1  0
  2 23  1  0
 23 24  1  0
 24 25  1  0
 25 26  1  0
 26 27  2  0
 27 28  1  0
 28 29  2  0
 29 30  1  0
 30 31  2  0
 30 32  1  0
 25 33  1  0
 10  5  1  0
 16 11  1  0
 31 26  1  0
  1 34  1  0
  1 35  1  0
  1 36  1  0
  2 37  1  1
  3 38  1  0
  3 39  1  0
  4 40  1  0
  6 41  1  0
  7 42  1  0
  8 43  1  0
 10 44  1  0
 12 45  1  0
 13 46  1  0
 15 47  1  0
 19 48  1  0
 22 49  1  0
 23 50  1  0
 24 51  1  0
 24 52  1  0
 25 53  1  6
 27 54  1  0
 28 55  1  0
 29 56  1  0
 31 57  1  0
 33 58  1  0
M  END
>  <Ligand ID>  (1) 
LIG0002250

>  <Ligand>  (1) 
CHEMBL206002

>  <SMILES>  (1) 
C[C@H](CNc1cccc(c1)c1ccc(cc1C(=O)O)C(=O)O)NC[C@@H](c1cccc(c1)Cl)O

>  <CID>  (1) 
11669967.0

>  <ChEMBL ID>  (1) 
nan

>  <InChiKey>  (1) 
DNYHEVPHQAGYME-CMJOXMDJSA-N

>  <InChi>  (1) 
InChI=1S/C25H25ClN2O5/c1-15(27-14-23(29)17-5-2-6-19(26)10-17)13-28-20-7-3-4-16(11-20)21-9-8-18(24(30)31)12-22(21)25(32)33/h2-12,15,23,27-29H,13-14H2,1H3,(H,30,31)(H,32,33)/t15-,23+/m1/s1

>  <IUPAC Name>  (1) 
4-[3-[[(2R)-2-[[(2R)-2-(3-chlorophenyl)-2-hydroxyethyl]amino]propyl]amino]phenyl]benzene-1,3-dicarboxylic acid

$$$$
