
     RDKit          3D

 62 61  0  0  0  0  0  0  0  0999 V2000
   -8.8442    1.0632    0.9601 C   0  0  0  0  0  0  0  0  0  0  0  0
   -7.5199    1.6947    0.6528 C   0  0  0  0  0  0  0  0  0  0  0  0
   -6.4009    0.7247    1.0573 C   0  0  0  0  0  0  0  0  0  0  0  0
   -6.6112   -0.5169    0.2508 C   0  0  0  0  0  0  0  0  0  0  0  0
   -5.5903   -1.5617    0.5633 C   0  0  0  0  0  0  0  0  0  0  0  0
   -4.2062   -1.0416    0.2459 C   0  0  0  0  0  0  0  0  0  0  0  0
   -3.1516   -2.0963    0.5394 C   0  0  0  0  0  0  0  0  0  0  0  0
   -1.7447   -1.5220    0.2197 C   0  0  0  0  0  0  0  0  0  0  0  0
   -1.6175   -1.1285   -1.1979 C   0  0  0  0  0  0  0  0  0  0  0  0
   -0.3189   -0.6775   -1.7465 C   0  0  0  0  0  0  0  0  0  0  0  0
    0.3668    0.4852   -1.1344 C   0  0  0  0  0  0  0  0  0  0  0  0
    0.9001    0.3242    0.2549 C   0  0  0  0  0  0  0  0  0  0  0  0
    1.5633    1.6084    0.7816 C   0  0  0  0  0  0  0  0  0  0  0  0
    2.7064    1.9578   -0.1233 C   0  0  0  0  0  0  0  0  0  0  0  0
    3.7282    0.9406   -0.1921 N   0  0  0  0  0  0  0  0  0  0  0  0
    4.8426    1.2113   -1.0480 C   0  0  0  0  0  0  0  0  0  0  0  0
    4.8936    2.3080   -1.7007 O   0  0  0  0  0  0  0  0  0  0  0  0
    5.9557    0.2723   -1.2187 C   0  0  2  0  0  0  0  0  0  0  0  0
    6.5775    0.0093    0.1349 C   0  0  0  0  0  0  0  0  0  0  0  0
    7.6419   -0.8590    0.0786 O   0  0  0  0  0  0  0  0  0  0  0  0
    8.3729   -1.1903    1.5407 P   0  0  0  0  0  0  0  0  0  0  0  0
    7.3571   -1.7794    2.5066 O   0  0  0  0  0  0  0  0  0  0  0  0
    9.0624    0.1569    2.2830 O   0  0  0  0  0  0  0  0  0  0  0  0
    9.5612   -2.3804    1.2492 O   0  0  0  0  0  0  0  0  0  0  0  0
    6.9050    0.8522   -2.1459 N   0  0  0  0  0  0  0  0  0  0  0  0
   -9.2477    0.4856    0.1188 H   0  0  0  0  0  0  0  0  0  0  0  0
   -8.7377    0.4625    1.8957 H   0  0  0  0  0  0  0  0  0  0  0  0
   -9.5672    1.8894    1.1867 H   0  0  0  0  0  0  0  0  0  0  0  0
   -7.4250    2.6536    1.2337 H   0  0  0  0  0  0  0  0  0  0  0  0
   -7.4158    1.9218   -0.4179 H   0  0  0  0  0  0  0  0  0  0  0  0
   -5.4441    1.2352    0.9047 H   0  0  0  0  0  0  0  0  0  0  0  0
   -6.5429    0.5072    2.1340 H   0  0  0  0  0  0  0  0  0  0  0  0
   -6.4848   -0.2878   -0.8493 H   0  0  0  0  0  0  0  0  0  0  0  0
   -7.6310   -0.9359    0.4141 H   0  0  0  0  0  0  0  0  0  0  0  0
   -5.6508   -1.8714    1.6340 H   0  0  0  0  0  0  0  0  0  0  0  0
   -5.7946   -2.4770   -0.0444 H   0  0  0  0  0  0  0  0  0  0  0  0
   -4.0332   -0.1311    0.8199 H   0  0  0  0  0  0  0  0  0  0  0  0
   -4.1573   -0.8397   -0.8594 H   0  0  0  0  0  0  0  0  0  0  0  0
   -3.1806   -2.3305    1.6206 H   0  0  0  0  0  0  0  0  0  0  0  0
   -3.3163   -3.0081   -0.0528 H   0  0  0  0  0  0  0  0  0  0  0  0
   -1.8205   -0.5379    0.8184 H   0  0  0  0  0  0  0  0  0  0  0  0
   -1.0257   -2.2076    0.6306 H   0  0  0  0  0  0  0  0  0  0  0  0
   -1.9713   -2.0044   -1.8185 H   0  0  0  0  0  0  0  0  0  0  0  0
   -2.3382   -0.2599   -1.4067 H   0  0  0  0  0  0  0  0  0  0  0  0
    0.4116   -1.5523   -1.8294 H   0  0  0  0  0  0  0  0  0  0  0  0
   -0.4801   -0.3699   -2.8431 H   0  0  0  0  0  0  0  0  0  0  0  0
    1.2072    0.7857   -1.8271 H   0  0  0  0  0  0  0  0  0  0  0  0
   -0.3335    1.3689   -1.1746 H   0  0  0  0  0  0  0  0  0  0  0  0
    1.8071   -0.3728    0.1278 H   0  0  0  0  0  0  0  0  0  0  0  0
    0.2346   -0.0890    0.9921 H   0  0  0  0  0  0  0  0  0  0  0  0
    0.8103    2.4013    0.8469 H   0  0  0  0  0  0  0  0  0  0  0  0
    1.9406    1.3382    1.7845 H   0  0  0  0  0  0  0  0  0  0  0  0
    2.3906    2.2297   -1.1591 H   0  0  0  0  0  0  0  0  0  0  0  0
    3.1580    2.9182    0.2618 H   0  0  0  0  0  0  0  0  0  0  0  0
    3.7401    0.0504    0.3110 H   0  0  0  0  0  0  0  0  0  0  0  0
    5.6177   -0.6882   -1.6294 H   0  0  0  0  0  0  0  0  0  0  0  0
    5.7816   -0.4810    0.7480 H   0  0  0  0  0  0  0  0  0  0  0  0
    6.8073    0.9505    0.6791 H   0  0  0  0  0  0  0  0  0  0  0  0
    9.5312    0.7010    1.5747 H   0  0  0  0  0  0  0  0  0  0  0  0
    9.9080   -2.3023    0.3043 H   0  0  0  0  0  0  0  0  0  0  0  0
    7.6010    0.1952   -2.5140 H   0  0  0  0  0  0  0  0  0  0  0  0
    7.2221    1.7972   -1.9114 H   0  0  0  0  0  0  0  0  0  0  0  0
  1  2  1  0
  2  3  1  0
  3  4  1  0
  4  5  1  0
  5  6  1  0
  6  7  1  0
  7  8  1  0
  8  9  1  0
  9 10  1  0
 10 11  1  0
 11 12  1  0
 12 13  1  0
 13 14  1  0
 14 15  1  0
 15 16  1  0
 16 17  2  0
 16 18  1  0
 18 19  1  0
 19 20  1  0
 20 21  1  0
 21 22  2  0
 21 23  1  0
 21 24  1  0
 18 25  1  0
  1 26  1  0
  1 27  1  0
  1 28  1  0
  2 29  1  0
  2 30  1  0
  3 31  1  0
  3 32  1  0
  4 33  1  0
  4 34  1  0
  5 35  1  0
  5 36  1  0
  6 37  1  0
  6 38  1  0
  7 39  1  0
  7 40  1  0
  8 41  1  0
  8 42  1  0
  9 43  1  0
  9 44  1  0
 10 45  1  0
 10 46  1  0
 11 47  1  0
 11 48  1  0
 12 49  1  0
 12 50  1  0
 13 51  1  0
 13 52  1  0
 14 53  1  0
 14 54  1  0
 15 55  1  0
 18 56  1  6
 19 57  1  0
 19 58  1  0
 23 59  1  0
 24 60  1  0
 25 61  1  0
 25 62  1  0
M  END
>  <Ligand ID>  (1) 
LIG0004274

>  <Ligand>  (1) 
CHEMBL423691

>  <SMILES>  (1) 
CCCCCCCCCCCCCCNC(=O)[C@H](COP(=O)(O)O)N

>  <CID>  (1) 
44342244.0

>  <ChEMBL ID>  (1) 
nan

>  <InChiKey>  (1) 
MBCYDVXEMDWKEJ-INIZCTEOSA-N

>  <InChi>  (1) 
InChI=1S/C17H37N2O5P/c1-2-3-4-5-6-7-8-9-10-11-12-13-14-19-17(20)16(18)15-24-25(21,22)23/h16H,2-15,18H2,1H3,(H,19,20)(H2,21,22,23)/t16-/m0/s1

>  <IUPAC Name>  (1) 
[(2S)-2-amino-3-oxo-3-(tetradecylamino)propyl] dihydrogen phosphate

$$$$
