
     RDKit          3D

209217  0  0  0  0  0  0  0  0999 V2000
  -10.9089    0.6740   -0.6737 N   0  0  0  0  0  0  0  0  0  0  0  0
  -10.1357    1.0932   -1.7773 C   0  0  0  0  0  0  0  0  0  0  0  0
  -10.1300    2.3653   -2.0791 N   0  0  0  0  0  0  0  0  0  0  0  0
   -9.3543    0.1754   -2.5739 N   0  0  0  0  0  0  0  0  0  0  0  0
   -8.1595    0.6599   -3.2781 C   0  0  0  0  0  0  0  0  0  0  0  0
   -7.1832    1.0056   -2.1258 C   0  0  0  0  0  0  0  0  0  0  0  0
   -6.8850   -0.2369   -1.3198 C   0  0  0  0  0  0  0  0  0  0  0  0
   -6.0020   -0.1055   -0.1936 C   0  0  1  0  0  0  0  0  0  0  0  0
   -5.7839   -1.3821    0.5547 C   0  0  0  0  0  0  0  0  0  0  0  0
   -5.3690   -1.3256    1.7504 O   0  0  0  0  0  0  0  0  0  0  0  0
   -6.0002   -2.6622    0.0253 N   0  0  0  0  0  0  0  0  0  0  0  0
   -5.9902   -3.9185    0.6933 C   0  0  1  0  0  0  0  0  0  0  0  0
   -6.7865   -4.9082   -0.1626 C   0  0  0  0  0  0  0  0  0  0  0  0
   -8.1548   -4.4600   -0.3790 C   0  0  0  0  0  0  0  0  0  0  0  0
   -8.5592   -3.8796   -1.5947 C   0  0  0  0  0  0  0  0  0  0  0  0
   -9.8555   -3.5691   -1.5535 N   0  0  0  0  0  0  0  0  0  0  0  0
  -10.3284   -3.9235   -0.3449 C   0  0  0  0  0  0  0  0  0  0  0  0
   -9.2909   -4.4715    0.3860 C   0  0  0  0  0  0  0  0  0  0  0  0
   -9.4838   -4.9237    1.6638 C   0  0  0  0  0  0  0  0  0  0  0  0
  -10.7579   -4.8234    2.2159 C   0  0  0  0  0  0  0  0  0  0  0  0
  -11.7926   -4.2661    1.4554 C   0  0  0  0  0  0  0  0  0  0  0  0
  -11.6000   -3.8125    0.1818 C   0  0  0  0  0  0  0  0  0  0  0  0
   -4.6925   -4.5371    1.0386 C   0  0  0  0  0  0  0  0  0  0  0  0
   -4.8138   -5.6770    1.6341 O   0  0  0  0  0  0  0  0  0  0  0  0
   -3.3931   -4.0862    0.8224 N   0  0  0  0  0  0  0  0  0  0  0  0
   -2.2985   -4.9218    1.2449 C   0  0  1  0  0  0  0  0  0  0  0  0
   -1.4042   -5.3487    0.0980 C   0  0  0  0  0  0  0  0  0  0  0  0
   -2.2320   -6.1163   -0.8513 C   0  0  0  0  0  0  0  0  0  0  0  0
   -2.9294   -5.4169   -1.6653 O   0  0  0  0  0  0  0  0  0  0  0  0
   -2.2737   -7.5427   -0.8840 N   0  0  0  0  0  0  0  0  0  0  0  0
   -1.4771   -4.4580    2.3682 C   0  0  0  0  0  0  0  0  0  0  0  0
   -0.6557   -5.3392    2.8346 O   0  0  0  0  0  0  0  0  0  0  0  0
   -1.4721   -3.2086    2.9768 N   0  0  0  0  0  0  0  0  0  0  0  0
   -0.5855   -2.9977    4.1270 C   0  0  1  0  0  0  0  0  0  0  0  0
   -0.9281   -4.0491    5.2051 C   0  0  0  0  0  0  0  0  0  0  0  0
    0.8333   -3.1791    3.8322 C   0  0  0  0  0  0  0  0  0  0  0  0
    1.6393   -3.0576    4.8227 O   0  0  0  0  0  0  0  0  0  0  0  0
    1.4195   -3.4667    2.5954 N   0  0  0  0  0  0  0  0  0  0  0  0
    2.9058   -3.6749    2.4605 C   0  0  1  0  0  0  0  0  0  0  0  0
    3.0307   -5.1512    2.2414 C   0  0  0  0  0  0  0  0  0  0  0  0
    4.3870   -5.6658    2.0943 C   0  0  0  0  0  0  0  0  0  0  0  0
    5.0916   -5.9629    3.2604 C   0  0  0  0  0  0  0  0  0  0  0  0
    6.3509   -6.4807    3.2690 C   0  0  0  0  0  0  0  0  0  0  0  0
    6.9989   -6.7390    2.0856 C   0  0  0  0  0  0  0  0  0  0  0  0
    6.3144   -6.4509    0.9249 C   0  0  0  0  0  0  0  0  0  0  0  0
    5.0333   -5.9245    0.9161 C   0  0  0  0  0  0  0  0  0  0  0  0
    3.3737   -2.8069    1.3718 C   0  0  0  0  0  0  0  0  0  0  0  0
    2.4160   -2.1728    0.7728 O   0  0  0  0  0  0  0  0  0  0  0  0
    4.6877   -2.5905    0.9236 N   0  0  0  0  0  0  0  0  0  0  0  0
    4.8247   -1.6118   -0.1675 C   0  0  1  0  0  0  0  0  0  0  0  0
    5.3586   -0.3321    0.5045 C   0  0  0  0  0  0  0  0  0  0  0  0
    4.3945   -0.0268    1.9922 S   0  0  0  0  0  0  0  0  0  0  0  0
    4.9127    1.8595    2.8476 S   0  0  0  0  0  0  0  0  0  0  0  0
    3.7568    3.0884    2.2587 C   0  0  0  0  0  0  0  0  0  0  0  0
    3.7549    3.0964    0.7237 C   0  0  1  0  0  0  0  0  0  0  0  0
    2.5920    3.8756    0.2718 C   0  0  0  0  0  0  0  0  0  0  0  0
    1.4990    3.5695    0.9148 O   0  0  0  0  0  0  0  0  0  0  0  0
    2.5057    4.8648   -0.7303 N   0  0  0  0  0  0  0  0  0  0  0  0
    1.1930    5.5349   -0.7834 C   0  0  2  0  0  0  0  0  0  0  0  0
    0.2512    4.7837   -1.7132 C   0  0  0  0  0  0  0  0  0  0  0  0
    0.6631    4.1505   -2.6931 O   0  0  0  0  0  0  0  0  0  0  0  0
   -1.0992    4.8526   -1.3621 N   0  0  0  0  0  0  0  0  0  0  0  0
   -2.2549    4.3322   -2.1111 C   0  0  2  0  0  0  0  0  0  0  0  0
   -3.2059    3.8943   -1.0790 C   0  0  0  0  0  0  0  0  0  0  0  0
   -2.6850    3.8931    0.1144 O   0  0  0  0  0  0  0  0  0  0  0  0
   -4.5244    3.5002   -1.1754 N   0  0  0  0  0  0  0  0  0  0  0  0
   -5.2435    3.0857   -0.0236 C   0  0  1  0  0  0  0  0  0  0  0  0
   -4.6815    1.8024    0.5673 C   0  0  0  0  0  0  0  0  0  0  0  0
   -4.7433    0.7143   -0.3306 N   0  0  0  0  0  0  0  0  0  0  0  0
   -3.8617    0.2605   -1.2921 C   0  0  0  0  0  0  0  0  0  0  0  0
   -4.5085   -0.8636   -1.7123 O   0  0  0  0  0  0  0  0  0  0  0  0
   -2.6745    0.3645   -2.0305 C   0  0  0  0  0  0  0  0  0  0  0  0
   -1.4741    1.6151   -2.1708 S   0  0  0  0  0  0  0  0  0  0  0  0
   -1.8340    3.1379   -2.9453 C   0  0  0  0  0  0  0  0  0  0  0  0
   -5.1236    4.0459    1.1163 C   0  0  0  0  0  0  0  0  0  0  0  0
   -5.6055    5.3963    0.8842 C   0  0  0  0  0  0  0  0  0  0  0  0
   -4.8405    6.4664    0.4497 C   0  0  0  0  0  0  0  0  0  0  0  0
   -5.3755    7.7307    0.2672 C   0  0  0  0  0  0  0  0  0  0  0  0
   -6.7000    8.0056    0.5071 C   0  0  0  0  0  0  0  0  0  0  0  0
   -7.4898    6.9381    0.9444 C   0  0  0  0  0  0  0  0  0  0  0  0
   -6.9456    5.6931    1.1191 C   0  0  0  0  0  0  0  0  0  0  0  0
    1.4854    6.8868   -1.3770 C   0  0  0  0  0  0  0  0  0  0  0  0
    0.3070    7.7470   -1.5390 C   0  0  0  0  0  0  0  0  0  0  0  0
   -0.5063    7.7600   -2.6739 C   0  0  0  0  0  0  0  0  0  0  0  0
   -1.5032    8.6468   -2.5160 N   0  0  0  0  0  0  0  0  0  0  0  0
   -1.3306    9.1946   -1.2969 C   0  0  0  0  0  0  0  0  0  0  0  0
   -0.2359    8.6577   -0.6935 N   0  0  0  0  0  0  0  0  0  0  0  0
    4.9865    3.5767    0.1955 N   0  0  0  0  0  0  0  0  0  0  0  0
    6.2322    3.8072    0.7372 C   0  0  0  0  0  0  0  0  0  0  0  0
    6.5917    3.6579    1.9498 O   0  0  0  0  0  0  0  0  0  0  0  0
    7.3684    4.2976   -0.1407 C   0  0  2  0  0  0  0  0  0  0  0  0
    7.3208    5.7750   -0.3413 C   0  0  0  0  0  0  0  0  0  0  0  0
    7.3947    6.6158    0.8506 C   0  0  0  0  0  0  0  0  0  0  0  0
    8.5175    7.1407    1.4276 C   0  0  0  0  0  0  0  0  0  0  0  0
    8.4663    7.9627    2.5520 C   0  0  0  0  0  0  0  0  0  0  0  0
    7.2572    8.2900    3.1433 C   0  0  0  0  0  0  0  0  0  0  0  0
    6.1242    7.7578    2.5585 C   0  0  0  0  0  0  0  0  0  0  0  0
    6.1744    6.9457    1.4491 C   0  0  0  0  0  0  0  0  0  0  0  0
    7.1293    9.0918    4.2506 O   0  0  0  0  0  0  0  0  0  0  0  0
    7.0571    3.7388   -1.4759 N   0  0  0  0  0  0  0  0  0  0  0  0
    5.8186   -2.0780   -1.1465 C   0  0  0  0  0  0  0  0  0  0  0  0
    5.9569   -1.3729   -2.1964 O   0  0  0  0  0  0  0  0  0  0  0  0
    6.6281   -3.2190   -1.0287 N   0  0  0  0  0  0  0  0  0  0  0  0
    7.6295   -3.6442   -2.0148 C   0  0  2  0  0  0  0  0  0  0  0  0
    7.1189   -4.9018   -2.6532 C   0  0  0  0  0  0  0  0  0  0  0  0
    5.9982   -5.3671   -2.2905 O   0  0  0  0  0  0  0  0  0  0  0  0
    7.8835   -5.5796   -3.6644 N   0  0  0  0  0  0  0  0  0  0  0  0
    8.8658   -3.8963   -1.1918 C   0  0  0  0  0  0  0  0  0  0  0  0
   10.0486   -4.3332   -1.9038 C   0  0  0  0  0  0  0  0  0  0  0  0
   10.9296   -3.3860   -2.4073 C   0  0  0  0  0  0  0  0  0  0  0  0
   12.0870   -3.7032   -3.0860 C   0  0  0  0  0  0  0  0  0  0  0  0
   12.4220   -5.0385   -3.2963 C   0  0  0  0  0  0  0  0  0  0  0  0
   11.5450   -5.9878   -2.7945 C   0  0  0  0  0  0  0  0  0  0  0  0
   10.3981   -5.6493   -2.1222 C   0  0  0  0  0  0  0  0  0  0  0  0
   13.5668   -5.3937   -3.9701 O   0  0  0  0  0  0  0  0  0  0  0  0
  -11.4386   -0.2228   -0.6125 H   0  0  0  0  0  0  0  0  0  0  0  0
  -10.9682    1.2912    0.1783 H   0  0  0  0  0  0  0  0  0  0  0  0
  -10.7070    3.0054   -1.4756 H   0  0  0  0  0  0  0  0  0  0  0  0
   -9.6707   -0.8072   -2.6084 H   0  0  0  0  0  0  0  0  0  0  0  0
   -7.7368   -0.2152   -3.7989 H   0  0  0  0  0  0  0  0  0  0  0  0
   -8.3480    1.5220   -3.9142 H   0  0  0  0  0  0  0  0  0  0  0  0
   -6.3058    1.4709   -2.5734 H   0  0  0  0  0  0  0  0  0  0  0  0
   -7.7080    1.6943   -1.4236 H   0  0  0  0  0  0  0  0  0  0  0  0
   -7.9169   -0.5226   -0.9085 H   0  0  0  0  0  0  0  0  0  0  0  0
   -6.7416   -1.0336   -2.0768 H   0  0  0  0  0  0  0  0  0  0  0  0
   -6.6141    0.4457    0.6100 H   0  0  0  0  0  0  0  0  0  0  0  0
   -6.2175   -2.6977   -1.0266 H   0  0  0  0  0  0  0  0  0  0  0  0
   -6.5545   -3.8244    1.6742 H   0  0  0  0  0  0  0  0  0  0  0  0
   -6.7365   -5.8717    0.4261 H   0  0  0  0  0  0  0  0  0  0  0  0
   -6.2241   -5.0457   -1.1184 H   0  0  0  0  0  0  0  0  0  0  0  0
   -7.9258   -3.6891   -2.4630 H   0  0  0  0  0  0  0  0  0  0  0  0
  -10.3722   -3.1243   -2.3583 H   0  0  0  0  0  0  0  0  0  0  0  0
   -8.6672   -5.3479    2.2155 H   0  0  0  0  0  0  0  0  0  0  0  0
  -10.9739   -5.1627    3.2312 H   0  0  0  0  0  0  0  0  0  0  0  0
  -12.7946   -4.1907    1.8822 H   0  0  0  0  0  0  0  0  0  0  0  0
  -12.3823   -3.3728   -0.4353 H   0  0  0  0  0  0  0  0  0  0  0  0
   -3.2244   -3.1489    0.3632 H   0  0  0  0  0  0  0  0  0  0  0  0
   -2.7540   -5.9015    1.5901 H   0  0  0  0  0  0  0  0  0  0  0  0
   -0.6283   -6.0176    0.5110 H   0  0  0  0  0  0  0  0  0  0  0  0
   -0.8631   -4.5149   -0.3817 H   0  0  0  0  0  0  0  0  0  0  0  0
   -1.4035   -8.0596   -1.1269 H   0  0  0  0  0  0  0  0  0  0  0  0
   -3.1872   -7.9927   -0.6634 H   0  0  0  0  0  0  0  0  0  0  0  0
   -2.0938   -2.4221    2.6240 H   0  0  0  0  0  0  0  0  0  0  0  0
   -0.8209   -2.0199    4.5630 H   0  0  0  0  0  0  0  0  0  0  0  0
   -0.2819   -4.9223    5.0816 H   0  0  0  0  0  0  0  0  0  0  0  0
   -1.9604   -4.3758    4.9823 H   0  0  0  0  0  0  0  0  0  0  0  0
   -0.8797   -3.5966    6.2077 H   0  0  0  0  0  0  0  0  0  0  0  0
    0.9336   -3.5453    1.6760 H   0  0  0  0  0  0  0  0  0  0  0  0
    3.3094   -3.3913    3.4464 H   0  0  0  0  0  0  0  0  0  0  0  0
    2.4481   -5.3871    1.3048 H   0  0  0  0  0  0  0  0  0  0  0  0
    2.5419   -5.7297    3.0823 H   0  0  0  0  0  0  0  0  0  0  0  0
    4.6167   -5.7686    4.2170 H   0  0  0  0  0  0  0  0  0  0  0  0
    6.8591   -6.6949    4.2166 H   0  0  0  0  0  0  0  0  0  0  0  0
    8.0040   -7.1499    2.0368 H   0  0  0  0  0  0  0  0  0  0  0  0
    6.8229   -6.6516   -0.0216 H   0  0  0  0  0  0  0  0  0  0  0  0
    4.5278   -5.7130    0.0005 H   0  0  0  0  0  0  0  0  0  0  0  0
    5.4913   -3.0881    1.3437 H   0  0  0  0  0  0  0  0  0  0  0  0
    3.8586   -1.4177   -0.5988 H   0  0  0  0  0  0  0  0  0  0  0  0
    6.4476   -0.4628    0.7199 H   0  0  0  0  0  0  0  0  0  0  0  0
    5.2604    0.4536   -0.2346 H   0  0  0  0  0  0  0  0  0  0  0  0
    4.1144    4.0923    2.6199 H   0  0  0  0  0  0  0  0  0  0  0  0
    2.7608    2.8604    2.6364 H   0  0  0  0  0  0  0  0  0  0  0  0
    3.6567    2.0076    0.4262 H   0  0  0  0  0  0  0  0  0  0  0  0
    3.2809    5.0970   -1.3700 H   0  0  0  0  0  0  0  0  0  0  0  0
    0.7281    5.4994    0.1911 H   0  0  0  0  0  0  0  0  0  0  0  0
   -1.3770    5.3404   -0.4514 H   0  0  0  0  0  0  0  0  0  0  0  0
   -2.5690    5.0700   -2.8509 H   0  0  0  0  0  0  0  0  0  0  0  0
   -5.0102    3.4986   -2.1183 H   0  0  0  0  0  0  0  0  0  0  0  0
   -6.3196    3.0474   -0.2408 H   0  0  0  0  0  0  0  0  0  0  0  0
   -5.3867    1.6382    1.4607 H   0  0  0  0  0  0  0  0  0  0  0  0
   -3.7560    2.0403    1.0898 H   0  0  0  0  0  0  0  0  0  0  0  0
   -2.0370   -0.6342   -1.9321 H   0  0  0  0  0  0  0  0  0  0  0  0
   -2.9801    0.1501   -3.1629 H   0  0  0  0  0  0  0  0  0  0  0  0
   -1.1108    3.4799   -3.7169 H   0  0  0  0  0  0  0  0  0  0  0  0
   -2.7679    2.9610   -3.5940 H   0  0  0  0  0  0  0  0  0  0  0  0
   -4.1718    4.0023    1.6893 H   0  0  0  0  0  0  0  0  0  0  0  0
   -5.8453    3.6013    1.9146 H   0  0  0  0  0  0  0  0  0  0  0  0
   -3.7914    6.3586    0.2375 H   0  0  0  0  0  0  0  0  0  0  0  0
   -4.7167    8.5339   -0.0846 H   0  0  0  0  0  0  0  0  0  0  0  0
   -7.0644    8.9967    0.3586 H   0  0  0  0  0  0  0  0  0  0  0  0
   -8.5463    7.1569    1.1311 H   0  0  0  0  0  0  0  0  0  0  0  0
   -7.6223    4.9130    1.4606 H   0  0  0  0  0  0  0  0  0  0  0  0
    2.2668    7.3628   -0.7408 H   0  0  0  0  0  0  0  0  0  0  0  0
    2.0099    6.6839   -2.3472 H   0  0  0  0  0  0  0  0  0  0  0  0
   -0.3675    7.1475   -3.5665 H   0  0  0  0  0  0  0  0  0  0  0  0
   -2.2833    8.9179   -3.1455 H   0  0  0  0  0  0  0  0  0  0  0  0
   -1.9269    9.9451   -0.8100 H   0  0  0  0  0  0  0  0  0  0  0  0
    4.9108    3.8097   -0.8822 H   0  0  0  0  0  0  0  0  0  0  0  0
    8.3110    3.9122    0.2151 H   0  0  0  0  0  0  0  0  0  0  0  0
    8.2023    6.0479   -1.0012 H   0  0  0  0  0  0  0  0  0  0  0  0
    6.4059    6.0281   -0.9649 H   0  0  0  0  0  0  0  0  0  0  0  0
    9.4766    6.8813    0.9560 H   0  0  0  0  0  0  0  0  0  0  0  0
    9.3617    8.3704    2.9986 H   0  0  0  0  0  0  0  0  0  0  0  0
    5.1680    8.0022    3.0072 H   0  0  0  0  0  0  0  0  0  0  0  0
    5.2444    6.5576    1.0419 H   0  0  0  0  0  0  0  0  0  0  0  0
    7.7168    9.0364    5.0546 H   0  0  0  0  0  0  0  0  0  0  0  0
    7.5411    2.7928   -1.5327 H   0  0  0  0  0  0  0  0  0  0  0  0
    7.3982    4.3619   -2.2155 H   0  0  0  0  0  0  0  0  0  0  0  0
    6.5499   -3.8285   -0.1943 H   0  0  0  0  0  0  0  0  0  0  0  0
    7.7384   -2.9211   -2.8232 H   0  0  0  0  0  0  0  0  0  0  0  0
    7.8088   -6.6349   -3.6364 H   0  0  0  0  0  0  0  0  0  0  0  0
    8.4630   -5.0762   -4.3668 H   0  0  0  0  0  0  0  0  0  0  0  0
    9.1111   -3.0437   -0.5273 H   0  0  0  0  0  0  0  0  0  0  0  0
    8.5774   -4.7414   -0.4855 H   0  0  0  0  0  0  0  0  0  0  0  0
   10.7136   -2.3496   -2.2667 H   0  0  0  0  0  0  0  0  0  0  0  0
   12.7674   -2.9752   -3.4714 H   0  0  0  0  0  0  0  0  0  0  0  0
   11.7620   -7.0564   -2.9362 H   0  0  0  0  0  0  0  0  0  0  0  0
    9.7294   -6.4328   -1.7419 H   0  0  0  0  0  0  0  0  0  0  0  0
   14.4713   -5.2924   -3.5214 H   0  0  0  0  0  0  0  0  0  0  0  0
  1  2  1  0
  2  3  2  3
  2  4  1  0
  4  5  1  0
  5  6  1  0
  6  7  1  0
  7  8  1  0
  8  9  1  0
  9 10  2  0
  9 11  1  0
 11 12  1  0
 12 13  1  0
 13 14  1  0
 14 15  2  0
 15 16  1  0
 16 17  1  0
 17 18  2  0
 18 19  1  0
 19 20  2  0
 20 21  1  0
 21 22  2  0
 12 23  1  0
 23 24  2  0
 23 25  1  0
 25 26  1  0
 26 27  1  0
 27 28  1  0
 28 29  2  0
 28 30  1  0
 26 31  1  0
 31 32  2  0
 31 33  1  0
 33 34  1  0
 34 35  1  0
 34 36  1  0
 36 37  2  0
 36 38  1  0
 38 39  1  0
 39 40  1  0
 40 41  1  0
 41 42  2  0
 42 43  1  0
 43 44  2  0
 44 45  1  0
 45 46  2  0
 39 47  1  0
 47 48  2  0
 47 49  1  0
 49 50  1  0
 50 51  1  0
 51 52  1  0
 52 53  1  0
 53 54  1  0
 54 55  1  0
 55 56  1  0
 56 57  2  0
 56 58  1  0
 58 59  1  0
 59 60  1  0
 60 61  2  0
 60 62  1  0
 62 63  1  0
 63 64  1  0
 64 65  2  0
 64 66  1  0
 66 67  1  0
 67 68  1  0
 68 69  1  0
 69 70  1  0
 70 71  2  0
 70 72  1  0
 72 73  1  0
 73 74  1  0
 67 75  1  0
 75 76  1  0
 76 77  2  0
 77 78  1  0
 78 79  2  0
 79 80  1  0
 80 81  2  0
 59 82  1  0
 82 83  1  0
 83 84  2  0
 84 85  1  0
 85 86  1  0
 86 87  2  0
 55 88  1  0
 88 89  1  0
 89 90  2  0
 89 91  1  0
 91 92  1  0
 92 93  1  0
 93 94  2  0
 94 95  1  0
 95 96  2  0
 96 97  1  0
 97 98  2  0
 96 99  1  0
 91100  1  0
 50101  1  0
101102  2  0
101103  1  0
103104  1  0
104105  1  0
105106  2  0
105107  1  0
104108  1  0
108109  1  0
109110  2  0
110111  1  0
111112  2  0
112113  1  0
113114  2  0
112115  1  0
 69  8  1  0
 81 76  1  0
 87 83  1  0
 98 93  1  0
114109  1  0
 18 14  1  0
 46 41  1  0
 74 63  1  0
 22 17  1  0
  1116  1  0
  1117  1  0
  3118  1  0
  4119  1  0
  5120  1  0
  5121  1  0
  6122  1  0
  6123  1  0
  7124  1  0
  7125  1  0
  8126  1  1
 11127  1  0
 12128  1  1
 13129  1  0
 13130  1  0
 15131  1  0
 16132  1  0
 19133  1  0
 20134  1  0
 21135  1  0
 22136  1  0
 25137  1  0
 26138  1  1
 27139  1  0
 27140  1  0
 30141  1  0
 30142  1  0
 33143  1  0
 34144  1  1
 35145  1  0
 35146  1  0
 35147  1  0
 38148  1  0
 39149  1  1
 40150  1  0
 40151  1  0
 42152  1  0
 43153  1  0
 44154  1  0
 45155  1  0
 46156  1  0
 49157  1  0
 50158  1  6
 51159  1  0
 51160  1  0
 54161  1  0
 54162  1  0
 55163  1  6
 58164  1  0
 59165  1  1
 62166  1  0
 63167  1  6
 66168  1  0
 67169  1  6
 68170  1  0
 68171  1  0
 72172  1  0
 72173  1  0
 74174  1  0
 74175  1  0
 75176  1  0
 75177  1  0
 77178  1  0
 78179  1  0
 79180  1  0
 80181  1  0
 81182  1  0
 82183  1  0
 82184  1  0
 84185  1  0
 85186  1  0
 86187  1  0
 88188  1  0
 91189  1  1
 92190  1  0
 92191  1  0
 94192  1  0
 95193  1  0
 97194  1  0
 98195  1  0
 99196  1  0
100197  1  0
100198  1  0
103199  1  0
104200  1  6
107201  1  0
107202  1  0
108203  1  0
108204  1  0
110205  1  0
111206  1  0
113207  1  0
114208  1  0
115209  1  0
M  END
>  <Ligand ID>  (1) 
LIG0001150

>  <Ligand>  (1) 
CID 51350911

>  <SMILES>  (1) 
NC(=N)NCCC[C@H]1C(=O)N[C@@H](Cc2c[nH]c3c2cccc3)C(=O)N[C@@H](CC(=O)N)C(=O)N[C@@H](C)C(=O)N[C@@H](Cc2ccccc2)C(=O)N[C@@H](CSSC[C@@H](C(=O)N[C@H](C(=O)N[C@@H]2C(=O)N[C@@H](CN1C(=O)CSC2)Cc1ccccc1)Cc1c[nH]cn1)NC(=O)[C@H](Cc1ccc(cc1)O)N)C(=O)N[C@H](C(=O)N)Cc1ccc(cc1)O

>  <CID>  (1) 
51350911.0

>  <ChEMBL ID>  (1) 
nan

>  <InChiKey>  (1) 
LDYAQMAQKPCOKX-KAILQHMVSA-N

>  <InChi>  (1) 
InChI=1S/C77H94N20O15S3/c1-42-67(103)90-56(30-44-13-6-3-7-14-44)70(106)96-62(74(110)89-55(66(80)102)29-46-20-24-51(99)25-21-46)39-115-114-38-61(94-68(104)53(78)28-45-18-22-50(98)23-19-45)75(111)91-58(32-48-35-83-41-86-48)72(108)95-60-37-113-40-65(101)97(36-49(88-73(60)109)27-43-11-4-2-5-12-43)63(17-10-26-84-77(81)82)76(112)93-57(31-47-34-85-54-16-9-8-15-52(47)54)71(107)92-59(33-64(79)100)69(105)87-42/h2-9,11-16,18-25,34-35,41-42,49,53,55-63,85,98-99H,10,17,26-33,36-40,78H2,1H3,(H2,79,100)(H2,80,102)(H,83,86)(H,87,105)(H,88,109)(H,89,110)(H,90,103)(H,91,111)(H,92,107)(H,93,112)(H,94,104)(H,95,108)(H,96,106)(H4,81,82,84)/t42-,49+,53-,55-,56-,57-,58-,59-,60-,61-,62-,63-/m0/s1

>  <IUPAC Name>  (1) 
(2S,5S,8S,11S,14S,17R,22R,25S,28R,34R)-N-[(2S)-1-amino-3-(4-hydroxyphenyl)-1-oxopropan-2-yl]-22-[[(2S)-2-amino-3-(4-hydroxyphenyl)propanoyl]amino]-8-(2-amino-2-oxoethyl)-14,34-dibenzyl-2-(3-carbamimidamidopropyl)-25-(1H-imidazol-4-ylmethyl)-5-(1H-indol-3-ylmethyl)-11-methyl-3,6,9,12,15,23,26,32,36-nonaoxo-19,20,30-trithia-1,4,7,10,13,16,24,27,35-nonazabicyclo[26.4.4]hexatriacontane-17-carboxamide

$$$$
