
     RDKit          3D

 83 85  0  0  0  0  0  0  0  0999 V2000
   -3.7041   -2.7252    0.0182 O   0  0  0  0  0  0  0  0  0  0  0  0
   -4.1486   -1.5306    0.1451 C   0  0  0  0  0  0  0  0  0  0  0  0
   -3.3464   -0.5245   -0.4476 N   0  0  0  0  0  0  0  0  0  0  0  0
   -2.1196   -0.7545   -1.1523 C   0  0  2  0  0  0  0  0  0  0  0  0
   -0.9756   -0.0068   -0.5285 C   0  0  0  0  0  0  0  0  0  0  0  0
   -1.1714    0.6621    0.5185 O   0  0  0  0  0  0  0  0  0  0  0  0
    0.3085   -0.0700   -1.1366 N   0  0  0  0  0  0  0  0  0  0  0  0
    1.4578    0.6378   -0.5733 C   0  0  1  0  0  0  0  0  0  0  0  0
    2.5656   -0.2546   -0.3092 C   0  0  0  0  0  0  0  0  0  0  0  0
    2.4377   -1.4811   -0.6569 O   0  0  0  0  0  0  0  0  0  0  0  0
    3.7954    0.0797    0.3039 N   0  0  0  0  0  0  0  0  0  0  0  0
    4.8265   -0.9291    0.5144 C   0  0  1  0  0  0  0  0  0  0  0  0
    6.0419   -0.5357   -0.2106 C   0  0  0  0  0  0  0  0  0  0  0  0
    7.0560   -1.2835   -0.0904 O   0  0  0  0  0  0  0  0  0  0  0  0
    6.1810    0.6021   -1.0320 N   0  0  0  0  0  0  0  0  0  0  0  0
    5.0308   -1.3130    1.9354 C   0  0  0  0  0  0  0  0  0  0  0  0
    5.4205   -0.2721    2.9069 C   0  0  0  0  0  0  0  0  0  0  0  0
    6.7207    0.3764    2.5763 C   0  0  0  0  0  0  0  0  0  0  0  0
    7.0953    1.3783    3.5696 N   0  0  0  0  0  0  0  0  0  0  0  0
    8.2194    1.3402    4.1861 C   0  0  0  0  0  0  0  0  0  0  0  0
    8.5988    2.3149    5.1611 N   0  0  0  0  0  0  0  0  0  0  0  0
    9.1270    0.2783    3.8824 N   0  0  0  0  0  0  0  0  0  0  0  0
    1.7614    1.8811   -1.3692 C   0  0  0  0  0  0  0  0  0  0  0  0
    2.0609    1.6653   -2.7786 C   0  0  0  0  0  0  0  0  0  0  0  0
    3.2997    1.4654   -3.3310 C   0  0  0  0  0  0  0  0  0  0  0  0
    3.5019    1.2641   -4.6918 C   0  0  0  0  0  0  0  0  0  0  0  0
    2.4261    1.2613   -5.5429 C   0  0  0  0  0  0  0  0  0  0  0  0
    1.1579    1.4596   -5.0258 C   0  0  0  0  0  0  0  0  0  0  0  0
    0.9838    1.6571   -3.6705 C   0  0  0  0  0  0  0  0  0  0  0  0
   -2.1774   -0.3248   -2.5978 C   0  0  0  0  0  0  0  0  0  0  0  0
   -3.2335   -1.0537   -3.3469 C   0  0  0  0  0  0  0  0  0  0  0  0
   -4.5203   -0.6218   -3.4617 N   0  0  0  0  0  0  0  0  0  0  0  0
   -5.2261   -1.5004   -4.1963 C   0  0  0  0  0  0  0  0  0  0  0  0
   -4.3751   -2.4817   -4.5388 N   0  0  0  0  0  0  0  0  0  0  0  0
   -3.1502   -2.2456   -4.0400 C   0  0  0  0  0  0  0  0  0  0  0  0
   -5.3933   -1.2690    0.8560 C   0  0  0  0  0  0  0  0  0  0  0  0
   -5.9146   -0.0703    1.0245 C   0  0  0  0  0  0  0  0  0  0  0  0
   -7.1450    0.2118    1.7245 C   0  0  0  0  0  0  0  0  0  0  0  0
   -7.6060    1.5003    1.8428 C   0  0  0  0  0  0  0  0  0  0  0  0
   -8.7582    1.8697    2.4868 C   0  0  0  0  0  0  0  0  0  0  0  0
   -9.5283    0.8714    3.0693 C   0  0  0  0  0  0  0  0  0  0  0  0
   -9.0887   -0.4434    2.9670 C   0  0  0  0  0  0  0  0  0  0  0  0
   -7.9250   -0.7869    2.3128 C   0  0  0  0  0  0  0  0  0  0  0  0
   -9.9743   -1.4623    3.6193 C   0  0  0  0  0  0  0  0  0  0  0  0
  -11.2273   -1.4564    3.0556 F   0  0  0  0  0  0  0  0  0  0  0  0
   -9.3231   -2.6771    3.5097 F   0  0  0  0  0  0  0  0  0  0  0  0
  -10.0140   -1.1332    4.9657 F   0  0  0  0  0  0  0  0  0  0  0  0
   -3.6531    0.4951   -0.3804 H   0  0  0  0  0  0  0  0  0  0  0  0
   -1.9289   -1.8469   -1.1448 H   0  0  0  0  0  0  0  0  0  0  0  0
    0.5061   -0.6157   -2.0082 H   0  0  0  0  0  0  0  0  0  0  0  0
    1.0603    1.0307    0.4131 H   0  0  0  0  0  0  0  0  0  0  0  0
    3.9417    1.0677    0.5985 H   0  0  0  0  0  0  0  0  0  0  0  0
    4.4996   -1.8955    0.0071 H   0  0  0  0  0  0  0  0  0  0  0  0
    6.5048    0.4384   -2.0269 H   0  0  0  0  0  0  0  0  0  0  0  0
    5.9890    1.5790   -0.7273 H   0  0  0  0  0  0  0  0  0  0  0  0
    4.1355   -1.8803    2.3349 H   0  0  0  0  0  0  0  0  0  0  0  0
    5.8383   -2.1146    1.9380 H   0  0  0  0  0  0  0  0  0  0  0  0
    4.6128    0.4595    3.1288 H   0  0  0  0  0  0  0  0  0  0  0  0
    5.5833   -0.7907    3.9041 H   0  0  0  0  0  0  0  0  0  0  0  0
    7.5446   -0.3443    2.5001 H   0  0  0  0  0  0  0  0  0  0  0  0
    6.5585    0.9723    1.6417 H   0  0  0  0  0  0  0  0  0  0  0  0
    7.9512    2.5628    5.9516 H   0  0  0  0  0  0  0  0  0  0  0  0
    9.5237    2.8034    5.1100 H   0  0  0  0  0  0  0  0  0  0  0  0
    8.8686   -0.6924    4.1718 H   0  0  0  0  0  0  0  0  0  0  0  0
   10.0044    0.5250    3.3862 H   0  0  0  0  0  0  0  0  0  0  0  0
    2.5431    2.4202   -0.7914 H   0  0  0  0  0  0  0  0  0  0  0  0
    0.8581    2.5327   -1.2816 H   0  0  0  0  0  0  0  0  0  0  0  0
    4.1440    1.4686   -2.6753 H   0  0  0  0  0  0  0  0  0  0  0  0
    4.4743    1.1091   -5.1065 H   0  0  0  0  0  0  0  0  0  0  0  0
    2.5671    1.1064   -6.6146 H   0  0  0  0  0  0  0  0  0  0  0  0
    0.3405    1.4464   -5.7380 H   0  0  0  0  0  0  0  0  0  0  0  0
   -0.0398    1.8098   -3.3142 H   0  0  0  0  0  0  0  0  0  0  0  0
   -1.2067   -0.4316   -3.1080 H   0  0  0  0  0  0  0  0  0  0  0  0
   -2.4255    0.7440   -2.6139 H   0  0  0  0  0  0  0  0  0  0  0  0
   -4.8792    0.2598   -3.0359 H   0  0  0  0  0  0  0  0  0  0  0  0
   -6.2744   -1.4373   -4.4624 H   0  0  0  0  0  0  0  0  0  0  0  0
   -2.2386   -2.8233   -4.1225 H   0  0  0  0  0  0  0  0  0  0  0  0
   -5.9148   -2.1032    1.2649 H   0  0  0  0  0  0  0  0  0  0  0  0
   -5.3745    0.7596    0.6034 H   0  0  0  0  0  0  0  0  0  0  0  0
   -7.0108    2.3017    1.3900 H   0  0  0  0  0  0  0  0  0  0  0  0
   -9.0374    2.9182    2.5244 H   0  0  0  0  0  0  0  0  0  0  0  0
  -10.4527    1.1345    3.5909 H   0  0  0  0  0  0  0  0  0  0  0  0
   -7.6417   -1.8121    2.2693 H   0  0  0  0  0  0  0  0  0  0  0  0
  1  2  2  0
  2  3  1  0
  3  4  1  0
  4  5  1  0
  5  6  2  0
  5  7  1  0
  7  8  1  0
  8  9  1  0
  9 10  2  0
  9 11  1  0
 11 12  1  0
 12 13  1  0
 13 14  2  0
 13 15  1  0
 12 16  1  0
 16 17  1  0
 17 18  1  0
 18 19  1  0
 19 20  2  3
 20 21  1  0
 20 22  1  0
  8 23  1  0
 23 24  1  0
 24 25  2  0
 25 26  1  0
 26 27  2  0
 27 28  1  0
 28 29  2  0
  4 30  1  0
 30 31  1  0
 31 32  1  0
 32 33  1  0
 33 34  2  0
 34 35  1  0
  2 36  1  0
 36 37  2  0
 37 38  1  0
 38 39  2  0
 39 40  1  0
 40 41  2  0
 41 42  1  0
 42 43  2  0
 42 44  1  0
 44 45  1  0
 44 46  1  0
 44 47  1  0
 29 24  1  0
 35 31  2  0
 43 38  1  0
  3 48  1  0
  4 49  1  6
  7 50  1  0
  8 51  1  1
 11 52  1  0
 12 53  1  6
 15 54  1  0
 15 55  1  0
 16 56  1  0
 16 57  1  0
 17 58  1  0
 17 59  1  0
 18 60  1  0
 18 61  1  0
 21 62  1  0
 21 63  1  0
 22 64  1  0
 22 65  1  0
 23 66  1  0
 23 67  1  0
 25 68  1  0
 26 69  1  0
 27 70  1  0
 28 71  1  0
 29 72  1  0
 30 73  1  0
 30 74  1  0
 32 75  1  0
 33 76  1  0
 35 77  1  0
 36 78  1  0
 37 79  1  0
 39 80  1  0
 40 81  1  0
 41 82  1  0
 43 83  1  0
M  END
>  <Ligand ID>  (1) 
LIG0001251

>  <Ligand>  (1) 
CHEMBL569696

>  <SMILES>  (1) 
O=C(N[C@H](C(=O)N[C@@H](C(=O)N[C@@H](C(=O)N)CCCN=C(N)N)Cc1ccccc1)Cc1[nH]cnc1)/C=C/c1cccc(c1)C(F)(F)F

>  <CID>  (1) 
45487410.0

>  <ChEMBL ID>  (1) 
nan

>  <InChiKey>  (1) 
AVSRZZMIFZBOQS-ZUQJSNLJSA-N

>  <InChi>  (1) 
InChI=1S/C31H36F3N9O4/c32-31(33,34)21-9-4-8-20(14-21)11-12-26(44)41-25(16-22-17-38-18-40-22)29(47)43-24(15-19-6-2-1-3-7-19)28(46)42-23(27(35)45)10-5-13-39-30(36)37/h1-4,6-9,11-12,14,17-18,23-25H,5,10,13,15-16H2,(H2,35,45)(H,38,40)(H,41,44)(H,42,46)(H,43,47)(H4,36,37,39)/b12-11+/t23-,24-,25+/m1/s1

>  <IUPAC Name>  (1) 
(2R)-5-(diaminomethylideneamino)-2-[[(2R)-2-[[(2S)-3-(1H-imidazol-5-yl)-2-[[(E)-3-[3-(trifluoromethyl)phenyl]prop-2-enoyl]amino]propanoyl]amino]-3-phenylpropanoyl]amino]pentanamide

$$$$
