
     RDKit          3D

 80 83  0  0  0  0  0  0  0  0999 V2000
   -1.4183   -2.0070   -3.4624 C   0  0  0  0  0  0  0  0  0  0  0  0
   -1.1746   -1.4668   -2.1244 N   0  0  0  0  0  0  0  0  0  0  0  0
   -2.2317   -1.1578   -1.2297 C   0  0  0  0  0  0  0  0  0  0  0  0
   -3.4082   -1.3898   -1.6773 O   0  0  0  0  0  0  0  0  0  0  0  0
   -2.0728   -0.6138    0.1217 C   0  0  1  0  0  0  0  0  0  0  0  0
   -0.7326   -0.2802    0.5037 N   0  0  0  0  0  0  0  0  0  0  0  0
   -0.0130   -0.9483    1.5981 C   0  0  0  0  0  0  0  0  0  0  0  0
    1.3291   -1.3471    0.9700 C   0  0  0  0  0  0  0  0  0  0  0  0
    2.0802   -0.1844    0.5175 N   0  0  0  0  0  0  0  0  0  0  0  0
    1.3369    1.0686    0.4623 C   0  0  2  0  0  0  0  0  0  0  0  0
    0.0435    0.7456   -0.1625 C   0  0  0  0  0  0  0  0  0  0  0  0
   -0.4363    1.2540   -1.1795 O   0  0  0  0  0  0  0  0  0  0  0  0
    2.0701    2.2279   -0.0727 C   0  0  0  0  0  0  0  0  0  0  0  0
    1.1576    3.4593   -0.0509 C   0  0  0  0  0  0  0  0  0  0  0  0
    1.9039    4.6674   -0.5921 C   0  0  0  0  0  0  0  0  0  0  0  0
    0.9882    5.8081   -0.5432 N   0  0  0  0  0  0  0  0  0  0  0  0
    1.3558    6.9348   -0.0211 C   0  0  0  0  0  0  0  0  0  0  0  0
    2.6667    7.0784    0.5165 N   0  0  0  0  0  0  0  0  0  0  0  0
    0.4558    8.0322    0.0176 N   0  0  0  0  0  0  0  0  0  0  0  0
    3.4340   -0.3079    0.1810 C   0  0  0  0  0  0  0  0  0  0  0  0
    4.0674    0.7326   -0.2187 O   0  0  0  0  0  0  0  0  0  0  0  0
    4.2437   -1.5405    0.2387 C   0  0  1  0  0  0  0  0  0  0  0  0
    3.9267   -2.5344   -0.8584 C   0  0  0  0  0  0  0  0  0  0  0  0
    4.8599   -3.7000   -0.6195 C   0  0  0  0  0  0  0  0  0  0  0  0
    6.1121   -3.7324   -1.2090 C   0  0  0  0  0  0  0  0  0  0  0  0
    6.9205   -4.8316   -0.9490 C   0  0  0  0  0  0  0  0  0  0  0  0
    6.5144   -5.8544   -0.1438 C   0  0  0  0  0  0  0  0  0  0  0  0
    5.2662   -5.8402    0.4547 C   0  0  0  0  0  0  0  0  0  0  0  0
    4.4505   -4.7507    0.2039 C   0  0  0  0  0  0  0  0  0  0  0  0
    7.3545   -6.8975    0.0689 F   0  0  0  0  0  0  0  0  0  0  0  0
    5.6487   -1.0954    0.0564 N   0  0  0  0  0  0  0  0  0  0  0  0
   -2.9365    0.5791    0.4310 C   0  0  0  0  0  0  0  0  0  0  0  0
   -4.3754    0.3639    0.3257 C   0  0  0  0  0  0  0  0  0  0  0  0
   -5.1392    0.6103   -0.7976 C   0  0  0  0  0  0  0  0  0  0  0  0
   -6.5040    0.3737   -0.8322 C   0  0  0  0  0  0  0  0  0  0  0  0
   -7.1369   -0.1256    0.2872 C   0  0  0  0  0  0  0  0  0  0  0  0
   -6.3971   -0.3880    1.4443 C   0  0  0  0  0  0  0  0  0  0  0  0
   -5.0419   -0.1408    1.4429 C   0  0  0  0  0  0  0  0  0  0  0  0
   -7.0382   -0.8880    2.5604 C   0  0  0  0  0  0  0  0  0  0  0  0
   -8.4039   -1.1444    2.5821 C   0  0  0  0  0  0  0  0  0  0  0  0
   -9.1404   -0.8825    1.4295 C   0  0  0  0  0  0  0  0  0  0  0  0
   -8.4934   -0.3799    0.3083 C   0  0  0  0  0  0  0  0  0  0  0  0
   -1.8141   -1.2674   -4.1572 H   0  0  0  0  0  0  0  0  0  0  0  0
   -2.1916   -2.8010   -3.3063 H   0  0  0  0  0  0  0  0  0  0  0  0
   -0.5251   -2.5485   -3.8228 H   0  0  0  0  0  0  0  0  0  0  0  0
   -0.1902   -1.3265   -1.8571 H   0  0  0  0  0  0  0  0  0  0  0  0
   -2.3882   -1.4230    0.8677 H   0  0  0  0  0  0  0  0  0  0  0  0
   -0.5079   -1.8944    1.8808 H   0  0  0  0  0  0  0  0  0  0  0  0
    0.1142   -0.2293    2.3960 H   0  0  0  0  0  0  0  0  0  0  0  0
    1.0186   -1.9746    0.0839 H   0  0  0  0  0  0  0  0  0  0  0  0
    1.8648   -1.9647    1.6901 H   0  0  0  0  0  0  0  0  0  0  0  0
    1.0917    1.2972    1.5455 H   0  0  0  0  0  0  0  0  0  0  0  0
    2.8940    2.4579    0.6754 H   0  0  0  0  0  0  0  0  0  0  0  0
    2.4494    2.1461   -1.0885 H   0  0  0  0  0  0  0  0  0  0  0  0
    0.8355    3.7148    0.9720 H   0  0  0  0  0  0  0  0  0  0  0  0
    0.2656    3.3450   -0.6729 H   0  0  0  0  0  0  0  0  0  0  0  0
    2.1043    4.4978   -1.6736 H   0  0  0  0  0  0  0  0  0  0  0  0
    2.8176    4.8459    0.0012 H   0  0  0  0  0  0  0  0  0  0  0  0
    3.4076    7.6517    0.0163 H   0  0  0  0  0  0  0  0  0  0  0  0
    2.9500    6.6261    1.4229 H   0  0  0  0  0  0  0  0  0  0  0  0
    0.8797    8.9818   -0.1042 H   0  0  0  0  0  0  0  0  0  0  0  0
   -0.5827    7.9255    0.1596 H   0  0  0  0  0  0  0  0  0  0  0  0
    4.2166   -2.0662    1.1969 H   0  0  0  0  0  0  0  0  0  0  0  0
    4.0949   -2.1412   -1.8602 H   0  0  0  0  0  0  0  0  0  0  0  0
    2.9201   -2.9620   -0.7967 H   0  0  0  0  0  0  0  0  0  0  0  0
    6.4350   -2.9217   -1.8470 H   0  0  0  0  0  0  0  0  0  0  0  0
    7.9110   -4.8880   -1.3969 H   0  0  0  0  0  0  0  0  0  0  0  0
    4.9284   -6.6374    1.0928 H   0  0  0  0  0  0  0  0  0  0  0  0
    3.4673   -4.6816    0.6402 H   0  0  0  0  0  0  0  0  0  0  0  0
    5.6841   -0.4399   -0.7523 H   0  0  0  0  0  0  0  0  0  0  0  0
    5.9679   -0.5525    0.8863 H   0  0  0  0  0  0  0  0  0  0  0  0
   -2.5974    1.3844   -0.2770 H   0  0  0  0  0  0  0  0  0  0  0  0
   -2.7156    0.9788    1.4355 H   0  0  0  0  0  0  0  0  0  0  0  0
   -4.6639    1.0092   -1.6842 H   0  0  0  0  0  0  0  0  0  0  0  0
   -7.0939    0.5654   -1.7016 H   0  0  0  0  0  0  0  0  0  0  0  0
   -4.4848   -0.3503    2.3499 H   0  0  0  0  0  0  0  0  0  0  0  0
   -6.4267   -1.0810    3.4488 H   0  0  0  0  0  0  0  0  0  0  0  0
   -8.9071   -1.5304    3.4401 H   0  0  0  0  0  0  0  0  0  0  0  0
  -10.2119   -1.0632    1.3880 H   0  0  0  0  0  0  0  0  0  0  0  0
   -9.1095   -0.1894   -0.5703 H   0  0  0  0  0  0  0  0  0  0  0  0
  1  2  1  0
  2  3  1  0
  3  4  2  0
  3  5  1  0
  5  6  1  0
  6  7  1  0
  7  8  1  0
  8  9  1  0
  9 10  1  0
 10 11  1  0
 11 12  2  0
 10 13  1  0
 13 14  1  0
 14 15  1  0
 15 16  1  0
 16 17  2  3
 17 18  1  0
 17 19  1  0
  9 20  1  0
 20 21  2  0
 20 22  1  0
 22 23  1  0
 23 24  1  0
 24 25  2  0
 25 26  1  0
 26 27  2  0
 27 28  1  0
 28 29  2  0
 27 30  1  0
 22 31  1  0
  5 32  1  0
 32 33  1  0
 33 34  2  0
 34 35  1  0
 35 36  2  0
 36 37  1  0
 37 38  2  0
 37 39  1  0
 39 40  2  0
 40 41  1  0
 41 42  2  0
 11  6  1  0
 29 24  1  0
 38 33  1  0
 42 36  1  0
  1 43  1  0
  1 44  1  0
  1 45  1  0
  2 46  1  0
  5 47  1  1
  7 48  1  0
  7 49  1  0
  8 50  1  0
  8 51  1  0
 10 52  1  1
 13 53  1  0
 13 54  1  0
 14 55  1  0
 14 56  1  0
 15 57  1  0
 15 58  1  0
 18 59  1  0
 18 60  1  0
 19 61  1  0
 19 62  1  0
 22 63  1  1
 23 64  1  0
 23 65  1  0
 25 66  1  0
 26 67  1  0
 28 68  1  0
 29 69  1  0
 31 70  1  0
 31 71  1  0
 32 72  1  0
 32 73  1  0
 34 74  1  0
 35 75  1  0
 38 76  1  0
 39 77  1  0
 40 78  1  0
 41 79  1  0
 42 80  1  0
M  END
>  <Ligand ID>  (1) 
LIG0004642

>  <Ligand>  (1) 
CHEMBL378837

>  <SMILES>  (1) 
CNC(=O)[C@@H](N1CCN([C@H](C1=O)CCCN=C(N)N)C(=O)[C@@H](Cc1ccc(cc1)F)N)Cc1ccc2c(c1)cccc2

>  <CID>  (1) 
44415912.0

>  <ChEMBL ID>  (1) 
nan

>  <InChiKey>  (1) 
BACKPKKWDGBCRT-PVHODMMVSA-N

>  <InChi>  (1) 
InChI=1S/C31H38FN7O3/c1-36-28(40)27(19-21-8-11-22-5-2-3-6-23(22)17-21)39-16-15-38(26(30(39)42)7-4-14-37-31(34)35)29(41)25(33)18-20-9-12-24(32)13-10-20/h2-3,5-6,8-13,17,25-27H,4,7,14-16,18-19,33H2,1H3,(H,36,40)(H4,34,35,37)/t25-,26+,27+/m1/s1

>  <IUPAC Name>  (1) 
(2S)-2-[(3S)-4-[(2R)-2-amino-3-(4-fluorophenyl)propanoyl]-3-[3-(diaminomethylideneamino)propyl]-2-oxopiperazin-1-yl]-N-methyl-3-naphthalen-2-ylpropanamide

$$$$
