
     RDKit          3D

 53 56  0  0  0  0  0  0  0  0999 V2000
   -1.8077   -3.6788    0.7995 N   0  0  0  0  0  0  0  0  0  0  0  0
   -2.6922   -2.5111    0.7555 C   0  0  0  0  0  0  0  0  0  0  0  0
   -2.0703   -1.5213   -0.2380 C   0  0  2  0  0  0  0  0  0  0  0  0
   -0.8143   -1.2134    0.2639 O   0  0  0  0  0  0  0  0  0  0  0  0
   -0.2439   -0.1684   -0.4148 C   0  0  1  0  0  0  0  0  0  0  0  0
   -0.9125    1.1258   -0.0309 C   0  0  0  0  0  0  0  0  0  0  0  0
   -2.3907    0.9240   -0.2140 C   0  0  0  0  0  0  0  0  0  0  0  0
   -2.9515   -0.3315   -0.3138 C   0  0  0  0  0  0  0  0  0  0  0  0
   -4.3054   -0.4824   -0.4808 C   0  0  0  0  0  0  0  0  0  0  0  0
   -5.1195    0.6515   -0.5499 C   0  0  0  0  0  0  0  0  0  0  0  0
   -4.5672    1.9057   -0.4512 C   0  0  0  0  0  0  0  0  0  0  0  0
   -3.2061    2.0254   -0.2841 C   0  0  0  0  0  0  0  0  0  0  0  0
   -2.6604    3.3197   -0.1852 O   0  0  0  0  0  0  0  0  0  0  0  0
   -5.3464    3.0551   -0.5157 O   0  0  0  0  0  0  0  0  0  0  0  0
    1.2359   -0.0452   -0.1996 C   0  0  0  0  0  0  0  0  0  0  0  0
    1.9812   -1.2913   -0.6508 C   0  0  0  0  0  0  0  0  0  0  0  0
    3.4426   -1.1384   -0.4036 C   0  0  0  0  0  0  0  0  0  0  0  0
    3.7932   -0.8120    1.0162 C   0  0  0  0  0  0  0  0  0  0  0  0
    3.0432    0.4317    1.4210 C   0  0  0  0  0  0  0  0  0  0  0  0
    1.5687    0.1214    1.2511 C   0  0  0  0  0  0  0  0  0  0  0  0
    3.5216    1.5514    0.5344 C   0  0  0  0  0  0  0  0  0  0  0  0
    3.2673    1.2206   -0.9334 C   0  0  0  0  0  0  0  0  0  0  0  0
    1.7589    1.0866   -1.0521 C   0  0  0  0  0  0  0  0  0  0  0  0
    3.9884   -0.0418   -1.2875 C   0  0  0  0  0  0  0  0  0  0  0  0
    0.6890    0.0000    0.0000 Cl  0  0  0  0  0  0  0  0  0  0  0  0
   -1.1887   -3.5952    1.6324 H   0  0  0  0  0  0  0  0  0  0  0  0
   -2.3896   -4.5352    0.8019 H   0  0  0  0  0  0  0  0  0  0  0  0
   -2.7662   -2.0434    1.7583 H   0  0  0  0  0  0  0  0  0  0  0  0
   -3.7166   -2.8123    0.4627 H   0  0  0  0  0  0  0  0  0  0  0  0
   -2.0423   -1.9833   -1.2385 H   0  0  0  0  0  0  0  0  0  0  0  0
   -0.4595   -0.3214   -1.4919 H   0  0  0  0  0  0  0  0  0  0  0  0
   -0.6739    1.9536   -0.7571 H   0  0  0  0  0  0  0  0  0  0  0  0
   -0.7839    1.4204    1.0099 H   0  0  0  0  0  0  0  0  0  0  0  0
   -4.7956   -1.4194   -0.5640 H   0  0  0  0  0  0  0  0  0  0  0  0
   -6.1911    0.5561   -0.6815 H   0  0  0  0  0  0  0  0  0  0  0  0
   -1.9626    3.4841    0.5452 H   0  0  0  0  0  0  0  0  0  0  0  0
   -5.8888    3.2556    0.3331 H   0  0  0  0  0  0  0  0  0  0  0  0
    1.5381   -2.1657   -0.1668 H   0  0  0  0  0  0  0  0  0  0  0  0
    1.8675   -1.4122   -1.7652 H   0  0  0  0  0  0  0  0  0  0  0  0
    3.9516   -2.0906   -0.6475 H   0  0  0  0  0  0  0  0  0  0  0  0
    4.8789   -0.5381    1.0403 H   0  0  0  0  0  0  0  0  0  0  0  0
    3.5299   -1.6403    1.6979 H   0  0  0  0  0  0  0  0  0  0  0  0
    3.2170    0.7247    2.4681 H   0  0  0  0  0  0  0  0  0  0  0  0
    1.0218    0.8867    1.7918 H   0  0  0  0  0  0  0  0  0  0  0  0
    1.4297   -0.8913    1.7211 H   0  0  0  0  0  0  0  0  0  0  0  0
    4.6024    1.6355    0.6768 H   0  0  0  0  0  0  0  0  0  0  0  0
    3.0283    2.5036    0.7775 H   0  0  0  0  0  0  0  0  0  0  0  0
    3.5582    2.0812   -1.5463 H   0  0  0  0  0  0  0  0  0  0  0  0
    1.3583    2.0571   -0.6447 H   0  0  0  0  0  0  0  0  0  0  0  0
    1.4369    0.9147   -2.0836 H   0  0  0  0  0  0  0  0  0  0  0  0
    5.0521    0.0879   -1.0016 H   0  0  0  0  0  0  0  0  0  0  0  0
    3.8751   -0.2961   -2.3447 H   0  0  0  0  0  0  0  0  0  0  0  0
   -0.6890    0.0000    0.0000 H   0  0  0  0  0  0  0  0  0  0  0  0
  1  2  1  0
  2  3  1  0
  3  4  1  0
  4  5  1  0
  5  6  1  0
  6  7  1  0
  7  8  2  0
  8  9  1  0
  9 10  2  0
 10 11  1  0
 11 12  2  0
 12 13  1  0
 11 14  1  0
  5 15  1  0
 15 16  1  0
 16 17  1  0
 17 18  1  0
 18 19  1  0
 19 20  1  0
 19 21  1  0
 21 22  1  0
 22 23  1  0
 22 24  1  0
  8  3  1  0
 23 15  1  0
 12  7  1  0
 20 15  1  0
 24 17  1  0
  1 26  1  0
  1 27  1  0
  2 28  1  0
  2 29  1  0
  3 30  1  6
  5 31  1  6
  6 32  1  0
  6 33  1  0
  9 34  1  0
 10 35  1  0
 13 36  1  0
 14 37  1  0
 16 38  1  0
 16 39  1  0
 17 40  1  0
 18 41  1  0
 18 42  1  0
 19 43  1  0
 20 44  1  0
 20 45  1  0
 21 46  1  0
 21 47  1  0
 22 48  1  0
 23 49  1  0
 23 50  1  0
 24 51  1  0
 24 52  1  0
 25 53  1  0
M  END
>  <Ligand ID>  (1) 
LIG0005729

>  <Ligand>  (1) 
A 77636 hydrochloride

>  <SMILES>  (1) 
NC[C@@H]1O[C@@H](Cc2c1ccc(c2O)O)C12CC3CC(C2)CC(C1)C3.Cl

>  <CID>  (1) 
9951033.0

>  <ChEMBL ID>  (1) 
nan

>  <InChiKey>  (1) 
BWHPNJVKFAPVOG-QYFJGNGUSA-N

>  <InChi>  (1) 
InChI=1S/C20H27NO3.ClH/c21-10-17-14-1-2-16(22)19(23)15(14)6-18(24-17)20-7-11-3-12(8-20)5-13(4-11)9-20;/h1-2,11-13,17-18,22-23H,3-10,21H2;1H/t11?,12?,13?,17-,18-,20?;/m0./s1

>  <IUPAC Name>  (1) 
(1R,3S)-3-(1-adamantyl)-1-(aminomethyl)-3,4-dihydro-1H-isochromene-5,6-diol;hydrochloride

$$$$
