
     RDKit          3D

 62 65  0  0  0  0  0  0  0  0999 V2000
    8.1629    0.4855   -0.2691 C   0  0  0  0  0  0  0  0  0  0  0  0
    7.0340    1.3673   -0.7004 C   0  0  0  0  0  0  0  0  0  0  0  0
    5.8513    0.6898   -0.9947 O   0  0  0  0  0  0  0  0  0  0  0  0
    5.2283   -0.0633   -0.0274 C   0  0  0  0  0  0  0  0  0  0  0  0
    5.7305   -0.1352    1.1129 O   0  0  0  0  0  0  0  0  0  0  0  0
    4.0293   -0.7502   -0.3174 N   0  0  0  0  0  0  0  0  0  0  0  0
    3.2568   -0.8190   -1.5457 C   0  0  0  0  0  0  0  0  0  0  0  0
    2.8934   -2.2789   -1.5918 C   0  0  0  0  0  0  0  0  0  0  0  0
    3.1092   -2.8455   -0.2026 C   0  0  0  0  0  0  0  0  0  0  0  0
    3.2695   -1.5872    0.6261 C   0  0  0  0  0  0  0  0  0  0  0  0
    1.9584   -0.9337    0.9778 C   0  0  0  0  0  0  0  0  0  0  0  0
    1.1775   -0.4817   -0.2149 C   0  0  0  0  0  0  0  0  0  0  0  0
    2.0465    0.0682   -1.3108 C   0  0  0  0  0  0  0  0  0  0  0  0
    0.1595    0.4191    0.2000 N   0  0  0  0  0  0  0  0  0  0  0  0
    0.5444    1.6207    0.8054 C   0  0  0  0  0  0  0  0  0  0  0  0
   -0.6671    2.5548    0.9574 C   0  0  0  0  0  0  0  0  0  0  0  0
   -1.5750    1.8774    1.9528 C   0  0  0  0  0  0  0  0  0  0  0  0
   -2.0043    0.5656    1.4022 C   0  0  2  0  0  0  0  0  0  0  0  0
   -0.9935   -0.2426    0.6998 C   0  0  0  0  0  0  0  0  0  0  0  0
   -3.2278    0.7643    0.6160 N   0  0  0  0  0  0  0  0  0  0  0  0
   -4.4604    0.2131    1.0931 C   0  0  0  0  0  0  0  0  0  0  0  0
   -4.5315   -0.4361    2.1636 O   0  0  0  0  0  0  0  0  0  0  0  0
   -5.7185    0.3902    0.3330 C   0  0  0  0  0  0  0  0  0  0  0  0
   -6.2648    1.6453    0.1416 C   0  0  0  0  0  0  0  0  0  0  0  0
   -7.4425    1.7072   -0.5846 C   0  0  0  0  0  0  0  0  0  0  0  0
   -8.0370    0.5789   -1.0896 C   0  0  0  0  0  0  0  0  0  0  0  0
   -7.4717   -0.6819   -0.8872 C   0  0  0  0  0  0  0  0  0  0  0  0
   -6.2915   -0.7603   -0.1604 C   0  0  0  0  0  0  0  0  0  0  0  0
   -5.6665   -2.0899    0.0733 C   0  0  0  0  0  0  0  0  0  0  0  0
    8.3956   -0.2860   -1.0525 H   0  0  0  0  0  0  0  0  0  0  0  0
    9.1049    1.0946   -0.1911 H   0  0  0  0  0  0  0  0  0  0  0  0
    8.0233    0.0150    0.7202 H   0  0  0  0  0  0  0  0  0  0  0  0
    7.3846    1.9708   -1.5678 H   0  0  0  0  0  0  0  0  0  0  0  0
    6.8091    2.0664    0.1335 H   0  0  0  0  0  0  0  0  0  0  0  0
    3.8213   -0.4751   -2.4174 H   0  0  0  0  0  0  0  0  0  0  0  0
    1.9136   -2.5138   -1.9933 H   0  0  0  0  0  0  0  0  0  0  0  0
    3.6279   -2.7551   -2.3066 H   0  0  0  0  0  0  0  0  0  0  0  0
    2.2546   -3.4517    0.1550 H   0  0  0  0  0  0  0  0  0  0  0  0
    4.0892   -3.3860   -0.1392 H   0  0  0  0  0  0  0  0  0  0  0  0
    3.8099   -1.7520    1.5640 H   0  0  0  0  0  0  0  0  0  0  0  0
    1.3583   -1.7000    1.5380 H   0  0  0  0  0  0  0  0  0  0  0  0
    2.1743   -0.1207    1.6667 H   0  0  0  0  0  0  0  0  0  0  0  0
    0.6559   -1.3686   -0.6333 H   0  0  0  0  0  0  0  0  0  0  0  0
    2.4804    1.0268   -0.9456 H   0  0  0  0  0  0  0  0  0  0  0  0
    1.4433    0.2016   -2.2269 H   0  0  0  0  0  0  0  0  0  0  0  0
    1.2338    2.1938    0.1594 H   0  0  0  0  0  0  0  0  0  0  0  0
    0.9768    1.5070    1.8117 H   0  0  0  0  0  0  0  0  0  0  0  0
   -1.1336    2.6558   -0.0403 H   0  0  0  0  0  0  0  0  0  0  0  0
   -0.3038    3.5083    1.3631 H   0  0  0  0  0  0  0  0  0  0  0  0
   -0.9878    1.7056    2.8752 H   0  0  0  0  0  0  0  0  0  0  0  0
   -2.4694    2.5182    2.1030 H   0  0  0  0  0  0  0  0  0  0  0  0
   -2.3606   -0.0438    2.2881 H   0  0  0  0  0  0  0  0  0  0  0  0
   -1.4842   -0.7645   -0.1583 H   0  0  0  0  0  0  0  0  0  0  0  0
   -0.6166   -1.0956    1.3396 H   0  0  0  0  0  0  0  0  0  0  0  0
   -3.1946    1.3027   -0.2833 H   0  0  0  0  0  0  0  0  0  0  0  0
   -5.7800    2.5353    0.5501 H   0  0  0  0  0  0  0  0  0  0  0  0
   -7.9055    2.6663   -0.7573 H   0  0  0  0  0  0  0  0  0  0  0  0
   -8.9539    0.6684   -1.6500 H   0  0  0  0  0  0  0  0  0  0  0  0
   -7.9280   -1.5658   -1.2768 H   0  0  0  0  0  0  0  0  0  0  0  0
   -4.5767   -2.0072   -0.1152 H   0  0  0  0  0  0  0  0  0  0  0  0
   -6.1148   -2.8428   -0.5876 H   0  0  0  0  0  0  0  0  0  0  0  0
   -5.8468   -2.3498    1.1503 H   0  0  0  0  0  0  0  0  0  0  0  0
  1  2  1  0
  2  3  1  0
  3  4  1  0
  4  5  2  0
  4  6  1  0
  6  7  1  0
  7  8  1  0
  8  9  1  0
  9 10  1  0
 10 11  1  0
 11 12  1  0
 12 13  1  0
 12 14  1  0
 14 15  1  0
 15 16  1  0
 16 17  1  0
 17 18  1  0
 18 19  1  0
 18 20  1  0
 20 21  1  0
 21 22  2  0
 21 23  1  0
 23 24  2  0
 24 25  1  0
 25 26  2  0
 26 27  1  0
 27 28  2  0
 28 29  1  0
 10  6  1  0
 19 14  1  0
 28 23  1  0
 13  7  1  0
  1 30  1  0
  1 31  1  0
  1 32  1  0
  2 33  1  0
  2 34  1  0
  7 35  1  0
  8 36  1  0
  8 37  1  0
  9 38  1  0
  9 39  1  0
 10 40  1  0
 11 41  1  0
 11 42  1  0
 12 43  1  0
 13 44  1  0
 13 45  1  0
 15 46  1  0
 15 47  1  0
 16 48  1  0
 16 49  1  0
 17 50  1  0
 17 51  1  0
 18 52  1  1
 19 53  1  0
 19 54  1  0
 20 55  1  0
 24 56  1  0
 25 57  1  0
 26 58  1  0
 27 59  1  0
 29 60  1  0
 29 61  1  0
 29 62  1  0
M  END
>  <Ligand ID>  (1) 
LIG0000985

>  <Ligand>  (1) 
CHEMBL2024331

>  <SMILES>  (1) 
CCOC(=O)N1C2CCC1CC(C2)N1CCC[C@H](C1)NC(=O)c1ccccc1C

>  <CID>  (1) 
53385782.0

>  <ChEMBL ID>  (1) 
nan

>  <InChiKey>  (1) 
AJSHPFXXSLQSKN-NEYBNPPJSA-N

>  <InChi>  (1) 
InChI=1S/C23H33N3O3/c1-3-29-23(28)26-18-10-11-19(26)14-20(13-18)25-12-6-8-17(15-25)24-22(27)21-9-5-4-7-16(21)2/h4-5,7,9,17-20H,3,6,8,10-15H2,1-2H3,(H,24,27)/t17-,18?,19?,20?/m1/s1

>  <IUPAC Name>  (1) 
ethyl 3-[(3R)-3-[(2-methylbenzoyl)amino]piperidin-1-yl]-8-azabicyclo[3.2.1]octane-8-carboxylate

$$$$
