
     RDKit          3D

 44 46  0  0  0  0  0  0  0  0999 V2000
   -6.9621   -2.5396   -1.0839 N   0  0  0  0  0  0  0  0  0  0  0  0
   -5.9962   -2.0114   -0.7586 C   0  0  0  0  0  0  0  0  0  0  0  0
   -4.8072   -1.3334   -0.3482 C   0  0  0  0  0  0  0  0  0  0  0  0
   -3.7047   -2.1001   -0.0381 C   0  0  0  0  0  0  0  0  0  0  0  0
   -2.5219   -1.4892    0.3669 C   0  0  0  0  0  0  0  0  0  0  0  0
   -2.5388   -0.1236    0.4305 C   0  0  0  0  0  0  0  0  0  0  0  0
   -3.6399    0.6136    0.1193 N   0  0  0  0  0  0  0  0  0  0  0  0
   -4.7857    0.0453   -0.2718 C   0  0  0  0  0  0  0  0  0  0  0  0
   -5.9330    0.7552   -0.5990 O   0  0  0  0  0  0  0  0  0  0  0  0
   -5.9890    2.1522   -0.5463 C   0  0  0  0  0  0  0  0  0  0  0  0
   -7.3873    2.6195   -0.9651 C   0  0  0  0  0  0  0  0  0  0  0  0
   -7.6660    2.2069   -2.2435 F   0  0  0  0  0  0  0  0  0  0  0  0
   -8.3401    2.1545   -0.1033 F   0  0  0  0  0  0  0  0  0  0  0  0
   -7.4220    4.0128   -0.8674 F   0  0  0  0  0  0  0  0  0  0  0  0
   -1.4309   -2.3238    0.6698 N   0  0  0  0  0  0  0  0  0  0  0  0
   -0.1505   -1.9036    1.0963 C   0  0  0  0  0  0  0  0  0  0  0  0
    0.1608   -0.7029    1.2559 O   0  0  0  0  0  0  0  0  0  0  0  0
    0.9164   -2.9105    1.3827 C   0  0  0  0  0  0  0  0  0  0  0  0
    2.1923   -2.2785    1.8186 C   0  0  0  0  0  0  0  0  0  0  0  0
    2.7366   -1.3592    0.7765 C   0  0  0  0  0  0  0  0  0  0  0  0
    2.2640   -1.0563   -0.3994 O   0  0  0  0  0  0  0  0  0  0  0  0
    3.0517   -0.2023   -1.0071 N   0  0  0  0  0  0  0  0  0  0  0  0
    4.0931    0.0731   -0.1972 C   0  0  0  0  0  0  0  0  0  0  0  0
    3.8776   -0.6597    0.9124 N   0  0  0  0  0  0  0  0  0  0  0  0
    5.2281    0.9605   -0.4243 C   0  0  0  0  0  0  0  0  0  0  0  0
    6.2074    1.1073    0.5487 C   0  0  0  0  0  0  0  0  0  0  0  0
    7.2982    1.9186    0.4091 C   0  0  0  0  0  0  0  0  0  0  0  0
    7.4369    2.6338   -0.7648 C   0  0  0  0  0  0  0  0  0  0  0  0
    6.4629    2.4989   -1.7532 C   0  0  0  0  0  0  0  0  0  0  0  0
    5.3659    1.6665   -1.5815 C   0  0  0  0  0  0  0  0  0  0  0  0
    4.1700    1.5201   -2.8317 Cl  0  0  0  0  0  0  0  0  0  0  0  0
    8.5115    3.4423   -0.9197 F   0  0  0  0  0  0  0  0  0  0  0  0
   -3.7763   -3.1779   -0.1151 H   0  0  0  0  0  0  0  0  0  0  0  0
   -1.6799    0.4214    0.7297 H   0  0  0  0  0  0  0  0  0  0  0  0
   -5.2313    2.6755   -1.1597 H   0  0  0  0  0  0  0  0  0  0  0  0
   -5.8167    2.4494    0.5019 H   0  0  0  0  0  0  0  0  0  0  0  0
   -1.5513   -3.3766    0.5782 H   0  0  0  0  0  0  0  0  0  0  0  0
    1.0907   -3.6046    0.5335 H   0  0  0  0  0  0  0  0  0  0  0  0
    0.5531   -3.5406    2.2224 H   0  0  0  0  0  0  0  0  0  0  0  0
    2.9428   -3.0883    1.9157 H   0  0  0  0  0  0  0  0  0  0  0  0
    2.0512   -1.7629    2.7942 H   0  0  0  0  0  0  0  0  0  0  0  0
    6.0624    0.5253    1.4626 H   0  0  0  0  0  0  0  0  0  0  0  0
    8.0501    2.0198    1.1775 H   0  0  0  0  0  0  0  0  0  0  0  0
    6.6068    3.0728   -2.6533 H   0  0  0  0  0  0  0  0  0  0  0  0
  1  2  3  0
  2  3  1  0
  3  4  2  0
  4  5  1  0
  5  6  2  0
  6  7  1  0
  7  8  2  0
  8  9  1  0
  9 10  1  0
 10 11  1  0
 11 12  1  0
 11 13  1  0
 11 14  1  0
  5 15  1  0
 15 16  1  0
 16 17  2  0
 16 18  1  0
 18 19  1  0
 19 20  1  0
 20 21  1  0
 21 22  1  0
 22 23  2  0
 23 24  1  0
 23 25  1  0
 25 26  2  0
 26 27  1  0
 27 28  2  0
 28 29  1  0
 29 30  2  0
 30 31  1  0
 28 32  1  0
  8  3  1  0
 24 20  2  0
 30 25  1  0
  4 33  1  0
  6 34  1  0
 10 35  1  0
 10 36  1  0
 15 37  1  0
 18 38  1  0
 18 39  1  0
 19 40  1  0
 19 41  1  0
 26 42  1  0
 27 43  1  0
 29 44  1  0
M  END
>  <Ligand ID>  (1) 
LIG0001220

>  <Ligand>  (1) 
CHEMBL500927

>  <SMILES>  (1) 
N#Cc1cc(cnc1OCC(F)(F)F)NC(=O)CCc1onc(n1)c1ccc(cc1Cl)F

>  <CID>  (1) 
25034004.0

>  <ChEMBL ID>  (1) 
nan

>  <InChiKey>  (1) 
AZLFGSQKXKYODE-UHFFFAOYSA-N

>  <InChi>  (1) 
InChI=1S/C19H12ClF4N5O3/c20-14-6-11(21)1-2-13(14)17-28-16(32-29-17)4-3-15(30)27-12-5-10(7-25)18(26-8-12)31-9-19(22,23)24/h1-2,5-6,8H,3-4,9H2,(H,27,30)

>  <IUPAC Name>  (1) 
3-[3-(2-chloro-4-fluorophenyl)-1,2,4-oxadiazol-5-yl]-N-[5-cyano-6-(2,2,2-trifluoroethoxy)pyridin-3-yl]propanamide

$$$$
