
     RDKit          3D

 21 20  0  0  0  0  0  0  0  0999 V2000
   -3.0121    0.5552    0.1983 C   0  0  0  0  0  0  0  0  0  0  0  0
   -2.0292   -0.6010   -0.0191 C   0  0  0  0  0  0  0  0  0  0  0  0
   -0.6342   -0.0867    0.2596 C   0  0  0  0  0  0  0  0  0  0  0  0
    0.4115   -1.1510    0.0737 C   0  0  0  0  0  0  0  0  0  0  0  0
    1.7884   -0.5961    0.3646 C   0  0  0  0  0  0  0  0  0  0  0  0
    2.1771    0.5463   -0.5179 C   0  0  0  0  0  0  0  0  0  0  0  0
    3.8636    1.0581   -0.0025 S   0  0  0  0  0  0  0  0  0  0  0  0
   -3.4125    0.9533   -0.7491 H   0  0  0  0  0  0  0  0  0  0  0  0
   -2.4987    1.3926    0.7154 H   0  0  0  0  0  0  0  0  0  0  0  0
   -3.8820    0.2323    0.8150 H   0  0  0  0  0  0  0  0  0  0  0  0
   -2.1674   -0.9100   -1.0533 H   0  0  0  0  0  0  0  0  0  0  0  0
   -2.2513   -1.3977    0.7181 H   0  0  0  0  0  0  0  0  0  0  0  0
   -0.5536    0.3255    1.2821 H   0  0  0  0  0  0  0  0  0  0  0  0
   -0.4073    0.7251   -0.4785 H   0  0  0  0  0  0  0  0  0  0  0  0
    0.2119   -1.9392    0.8573 H   0  0  0  0  0  0  0  0  0  0  0  0
    0.3616   -1.6528   -0.8957 H   0  0  0  0  0  0  0  0  0  0  0  0
    1.7802   -0.1961    1.4221 H   0  0  0  0  0  0  0  0  0  0  0  0
    2.5468   -1.3929    0.3321 H   0  0  0  0  0  0  0  0  0  0  0  0
    1.5017    1.4167   -0.4175 H   0  0  0  0  0  0  0  0  0  0  0  0
    2.2837    0.2719   -1.5800 H   0  0  0  0  0  0  0  0  0  0  0  0
    3.9218    2.4467    0.1785 H   0  0  0  0  0  0  0  0  0  0  0  0
  1  2  1  0
  2  3  1  0
  3  4  1  0
  4  5  1  0
  5  6  1  0
  6  7  1  0
  1  8  1  0
  1  9  1  0
  1 10  1  0
  2 11  1  0
  2 12  1  0
  3 13  1  0
  3 14  1  0
  4 15  1  0
  4 16  1  0
  5 17  1  0
  5 18  1  0
  6 19  1  0
  6 20  1  0
  7 21  1  0
M  END
>  <Ligand ID>  (1) 
LIG0000413

>  <Ligand>  (1) 
hexane-1-thiol

>  <SMILES>  (1) 
CCCCCCS

>  <CID>  (1) 
8106.0

>  <ChEMBL ID>  (1) 
nan

>  <InChiKey>  (1) 
PMBXCGGQNSVESQ-UHFFFAOYSA-N

>  <InChi>  (1) 
InChI=1S/C6H14S/c1-2-3-4-5-6-7/h7H,2-6H2,1H3

>  <IUPAC Name>  (1) 
hexane-1-thiol

$$$$
