
     RDKit          3D

 21 20  0  0  0  0  0  0  0  0999 V2000
   -2.9746    0.5925    0.8527 C   0  0  0  0  0  0  0  0  0  0  0  0
   -1.7663    0.5597   -0.0653 C   0  0  0  0  0  0  0  0  0  0  0  0
   -1.1498   -0.8124   -0.1280 C   0  0  0  0  0  0  0  0  0  0  0  0
    0.0128   -0.7950   -1.0544 C   0  0  0  0  0  0  0  0  0  0  0  0
    1.0547    0.1349   -0.6341 C   0  0  0  0  0  0  0  0  0  0  0  0
    0.9896    1.3691   -0.7025 O   0  0  0  0  0  0  0  0  0  0  0  0
    2.3041   -0.4255   -0.0756 C   0  0  0  0  0  0  0  0  0  0  0  0
    2.4322   -1.6815    0.0364 O   0  0  0  0  0  0  0  0  0  0  0  0
    3.4288    0.4123    0.3634 C   0  0  0  0  0  0  0  0  0  0  0  0
   -2.6969    0.7356    1.8996 H   0  0  0  0  0  0  0  0  0  0  0  0
   -3.6167    1.4272    0.4748 H   0  0  0  0  0  0  0  0  0  0  0  0
   -3.5282   -0.3824    0.7960 H   0  0  0  0  0  0  0  0  0  0  0  0
   -1.0375    1.2859    0.3540 H   0  0  0  0  0  0  0  0  0  0  0  0
   -2.0653    0.8514   -1.0781 H   0  0  0  0  0  0  0  0  0  0  0  0
   -0.8608   -1.1550    0.9068 H   0  0  0  0  0  0  0  0  0  0  0  0
   -1.9383   -1.5529   -0.4313 H   0  0  0  0  0  0  0  0  0  0  0  0
    0.3978   -1.8461   -1.1727 H   0  0  0  0  0  0  0  0  0  0  0  0
   -0.2775   -0.5059   -2.1006 H   0  0  0  0  0  0  0  0  0  0  0  0
    3.1785    1.4307    0.6770 H   0  0  0  0  0  0  0  0  0  0  0  0
    4.1695    0.4947   -0.4664 H   0  0  0  0  0  0  0  0  0  0  0  0
    3.9439   -0.1372    1.1996 H   0  0  0  0  0  0  0  0  0  0  0  0
  1  2  1  0
  2  3  1  0
  3  4  1  0
  4  5  1  0
  5  6  2  0
  5  7  1  0
  7  8  2  0
  7  9  1  0
  1 10  1  0
  1 11  1  0
  1 12  1  0
  2 13  1  0
  2 14  1  0
  3 15  1  0
  3 16  1  0
  4 17  1  0
  4 18  1  0
  9 19  1  0
  9 20  1  0
  9 21  1  0
M  END
>  <Ligand ID>  (1) 
LIG0000375

>  <Ligand>  (1) 
2,3-Heptanedione

>  <SMILES>  (1) 
CCCCC(=O)C(=O)C

>  <CID>  (1) 
60983.0

>  <ChEMBL ID>  (1) 
nan

>  <InChiKey>  (1) 
FJPGAMCQJNLTJC-UHFFFAOYSA-N

>  <InChi>  (1) 
InChI=1S/C7H12O2/c1-3-4-5-7(9)6(2)8/h3-5H2,1-2H3

>  <IUPAC Name>  (1) 
heptane-2,3-dione

$$$$
