
     RDKit          3D

 26 25  0  0  0  0  0  0  0  0999 V2000
    0.7898   -2.5321   -2.2266 C   0  0  0  0  0  0  0  0  0  0  0  0
    0.4591   -3.0557   -1.0641 C   0  0  0  0  0  0  0  0  0  0  0  0
    0.4265   -2.3501    0.1986 C   0  0  0  0  0  0  0  0  0  0  0  0
    0.0772   -3.0409    1.3033 C   0  0  0  0  0  0  0  0  0  0  0  0
    0.7561   -0.9238    0.3878 C   0  0  0  0  0  0  0  0  0  0  0  0
   -0.1884    0.0447   -0.2326 C   0  0  0  0  0  0  0  0  0  0  0  0
    0.3302    1.4201    0.0682 C   0  0  0  0  0  0  0  0  0  0  0  0
   -0.3350    2.3257    0.7370 C   0  0  0  0  0  0  0  0  0  0  0  0
    0.2379    3.6849    1.0060 C   0  0  0  0  0  0  0  0  0  0  0  0
   -1.6909    1.9909    1.2388 C   0  0  0  0  0  0  0  0  0  0  0  0
    1.0793   -1.5267   -2.4090 H   0  0  0  0  0  0  0  0  0  0  0  0
    0.7744   -3.1791   -3.1239 H   0  0  0  0  0  0  0  0  0  0  0  0
    0.1848   -4.1239   -1.0610 H   0  0  0  0  0  0  0  0  0  0  0  0
   -0.1712   -4.0952    1.2407 H   0  0  0  0  0  0  0  0  0  0  0  0
    0.0317   -2.5792    2.2777 H   0  0  0  0  0  0  0  0  0  0  0  0
    1.7515   -0.7792   -0.1266 H   0  0  0  0  0  0  0  0  0  0  0  0
    0.8624   -0.7016    1.4799 H   0  0  0  0  0  0  0  0  0  0  0  0
   -0.3945   -0.1409   -1.2779 H   0  0  0  0  0  0  0  0  0  0  0  0
   -1.1771   -0.0113    0.3207 H   0  0  0  0  0  0  0  0  0  0  0  0
    1.3364    1.6599   -0.3075 H   0  0  0  0  0  0  0  0  0  0  0  0
    1.3305    3.6835    1.1142 H   0  0  0  0  0  0  0  0  0  0  0  0
   -0.0118    4.3107    0.1027 H   0  0  0  0  0  0  0  0  0  0  0  0
   -0.2846    4.1061    1.8622 H   0  0  0  0  0  0  0  0  0  0  0  0
   -2.1435    2.8674    1.7871 H   0  0  0  0  0  0  0  0  0  0  0  0
   -1.6455    1.1667    1.9922 H   0  0  0  0  0  0  0  0  0  0  0  0
   -2.3850    1.7793    0.4072 H   0  0  0  0  0  0  0  0  0  0  0  0
  1  2  2  0
  2  3  1  0
  3  4  2  0
  3  5  1  0
  5  6  1  0
  6  7  1  0
  7  8  2  3
  8  9  1  0
  8 10  1  0
  1 11  1  0
  1 12  1  0
  2 13  1  0
  4 14  1  0
  4 15  1  0
  5 16  1  0
  5 17  1  0
  6 18  1  0
  6 19  1  0
  7 20  1  0
  9 21  1  0
  9 22  1  0
  9 23  1  0
 10 24  1  0
 10 25  1  0
 10 26  1  0
M  END
>  <Ligand ID>  (1) 
LIG0000162

>  <Ligand>  (1) 
Myrcene

>  <SMILES>  (1) 
C=CC(=C)CCC=C(C)C

>  <CID>  (1) 
31253.0

>  <ChEMBL ID>  (1) 
nan

>  <InChiKey>  (1) 
UAHWPYUMFXYFJY-UHFFFAOYSA-N

>  <InChi>  (1) 
InChI=1S/C10H16/c1-5-10(4)8-6-7-9(2)3/h5,7H,1,4,6,8H2,2-3H3

>  <IUPAC Name>  (1) 
7-methyl-3-methylideneocta-1,6-diene

$$$$
