
     RDKit          3D

 71 76  0  0  0  0  0  0  0  0999 V2000
   -8.3438   -2.0624   -2.7524 C   0  0  0  0  0  0  0  0  0  0  0  0
   -7.6597   -1.2275   -1.8864 O   0  0  0  0  0  0  0  0  0  0  0  0
   -6.3585   -1.2896   -1.4698 C   0  0  0  0  0  0  0  0  0  0  0  0
   -5.9673   -0.2756   -0.5735 C   0  0  0  0  0  0  0  0  0  0  0  0
   -4.6553   -0.2636   -0.0972 C   0  0  0  0  0  0  0  0  0  0  0  0
   -3.7183   -1.1910   -0.4595 C   0  0  0  0  0  0  0  0  0  0  0  0
   -4.1084   -2.2054   -1.3557 C   0  0  0  0  0  0  0  0  0  0  0  0
   -5.4259   -2.2173   -1.8323 C   0  0  0  0  0  0  0  0  0  0  0  0
   -2.3339   -1.1944   -0.0159 C   0  0  0  0  0  0  0  0  0  0  0  0
   -1.5538   -0.1069   -0.0346 C   0  0  0  0  0  0  0  0  0  0  0  0
   -2.0231    1.2094   -0.5144 C   0  0  0  0  0  0  0  0  0  0  0  0
   -0.8466    2.0753   -0.6859 N   0  0  0  0  0  0  0  0  0  0  0  0
    0.4429    1.5269   -1.0541 C   0  0  0  0  0  0  0  0  0  0  0  0
    0.8423    0.5352   -0.0083 C   0  0  0  0  0  0  0  0  0  0  0  0
   -0.1949   -0.2809    0.4635 C   0  0  0  0  0  0  0  0  0  0  0  0
    0.4099   -1.0814    1.3574 N   0  0  0  0  0  0  0  0  0  0  0  0
    1.6960   -0.8171    1.4571 N   0  0  0  0  0  0  0  0  0  0  0  0
    2.0203    0.2000    0.6166 C   0  0  0  0  0  0  0  0  0  0  0  0
    3.2992    0.8849    0.4485 C   0  0  0  0  0  0  0  0  0  0  0  0
    3.2518    2.0425   -0.0376 O   0  0  0  0  0  0  0  0  0  0  0  0
    4.5096    0.2866    0.8084 N   0  0  0  0  0  0  0  0  0  0  0  0
    5.8204    0.8811    0.7270 C   0  0  1  0  0  0  0  0  0  0  0  0
    6.7695    0.2086   -0.1453 C   0  0  0  0  0  0  0  0  0  0  0  0
    8.0312   -0.1938    0.2286 C   0  0  0  0  0  0  0  0  0  0  0  0
    8.8085   -0.7900   -0.7359 C   0  0  0  0  0  0  0  0  0  0  0  0
    8.3907   -0.9986   -2.0413 C   0  0  0  0  0  0  0  0  0  0  0  0
    7.1366   -0.5946   -2.4106 C   0  0  0  0  0  0  0  0  0  0  0  0
    6.3439   -0.0033   -1.4760 C   0  0  0  0  0  0  0  0  0  0  0  0
    5.6852    2.3666    0.2775 C   0  0  0  0  0  0  0  0  0  0  0  0
   -0.2372   -2.0817    2.1335 C   0  0  0  0  0  0  0  0  0  0  0  0
   -1.2020   -1.6038    3.0352 C   0  0  0  0  0  0  0  0  0  0  0  0
   -1.8967   -2.4676    3.8527 C   0  0  0  0  0  0  0  0  0  0  0  0
   -1.6229   -3.8295    3.7678 C   0  0  0  0  0  0  0  0  0  0  0  0
   -0.6655   -4.3000    2.8717 C   0  0  0  0  0  0  0  0  0  0  0  0
    0.0381   -3.4214    2.0440 C   0  0  0  0  0  0  0  0  0  0  0  0
    1.2517   -3.9490    0.9167 Cl  0  0  0  0  0  0  0  0  0  0  0  0
   -2.5042   -4.9260    4.8169 Cl  0  0  0  0  0  0  0  0  0  0  0  0
   -1.0151    3.4662   -0.4679 C   0  0  0  0  0  0  0  0  0  0  0  0
   -0.0019    4.1947   -0.6235 O   0  0  0  0  0  0  0  0  0  0  0  0
   -2.2472    4.1157   -0.0827 C   0  0  0  0  0  0  0  0  0  0  0  0
   -2.7305    5.1935   -0.7570 N   0  0  0  0  0  0  0  0  0  0  0  0
   -3.8469    5.5332   -0.1666 N   0  0  0  0  0  0  0  0  0  0  0  0
   -4.1082    4.7300    0.8530 C   0  0  0  0  0  0  0  0  0  0  0  0
   -3.1099    3.8257    0.9271 N   0  0  0  0  0  0  0  0  0  0  0  0
   -9.4484   -1.8422   -2.6306 H   0  0  0  0  0  0  0  0  0  0  0  0
   -8.0824   -1.9656   -3.8054 H   0  0  0  0  0  0  0  0  0  0  0  0
   -8.2518   -3.1400   -2.4735 H   0  0  0  0  0  0  0  0  0  0  0  0
   -6.6844    0.4921   -0.2617 H   0  0  0  0  0  0  0  0  0  0  0  0
   -4.4405    0.5213    0.6031 H   0  0  0  0  0  0  0  0  0  0  0  0
   -3.4167   -2.9624   -1.6745 H   0  0  0  0  0  0  0  0  0  0  0  0
   -5.7324   -2.9906   -2.5219 H   0  0  0  0  0  0  0  0  0  0  0  0
   -1.9579   -2.1648    0.3388 H   0  0  0  0  0  0  0  0  0  0  0  0
   -2.6049    1.6711    0.3030 H   0  0  0  0  0  0  0  0  0  0  0  0
   -2.5709    1.1439   -1.4827 H   0  0  0  0  0  0  0  0  0  0  0  0
    1.1521    2.3679   -1.1296 H   0  0  0  0  0  0  0  0  0  0  0  0
    0.3163    0.9869   -2.0219 H   0  0  0  0  0  0  0  0  0  0  0  0
    4.4831   -0.7042    1.1856 H   0  0  0  0  0  0  0  0  0  0  0  0
    6.1891    1.0273    1.7590 H   0  0  0  0  0  0  0  0  0  0  0  0
    8.3251   -0.0157    1.2437 H   0  0  0  0  0  0  0  0  0  0  0  0
    9.8082   -1.1035   -0.4084 H   0  0  0  0  0  0  0  0  0  0  0  0
    9.0019   -1.4660   -2.7969 H   0  0  0  0  0  0  0  0  0  0  0  0
    6.7237   -0.7170   -3.4103 H   0  0  0  0  0  0  0  0  0  0  0  0
    5.3535    0.3154   -1.7766 H   0  0  0  0  0  0  0  0  0  0  0  0
    5.4393    2.4789   -0.7620 H   0  0  0  0  0  0  0  0  0  0  0  0
    6.7420    2.7512    0.4281 H   0  0  0  0  0  0  0  0  0  0  0  0
    5.0804    2.8487    1.0419 H   0  0  0  0  0  0  0  0  0  0  0  0
   -1.4245   -0.5389    3.1070 H   0  0  0  0  0  0  0  0  0  0  0  0
   -2.6266   -2.0526    4.5246 H   0  0  0  0  0  0  0  0  0  0  0  0
   -0.4517   -5.3380    2.8003 H   0  0  0  0  0  0  0  0  0  0  0  0
   -2.3095    5.6703   -1.5823 H   0  0  0  0  0  0  0  0  0  0  0  0
   -4.9818    4.8227    1.4846 H   0  0  0  0  0  0  0  0  0  0  0  0
  1  2  1  0
  2  3  1  0
  3  4  2  0
  4  5  1  0
  5  6  2  0
  6  7  1  0
  7  8  2  0
  6  9  1  0
  9 10  2  0
 10 11  1  0
 11 12  1  0
 12 13  1  0
 13 14  1  0
 14 15  2  0
 15 16  1  0
 16 17  1  0
 17 18  2  0
 18 19  1  0
 19 20  2  0
 19 21  1  0
 21 22  1  0
 22 23  1  0
 23 24  2  0
 24 25  1  0
 25 26  2  0
 26 27  1  0
 27 28  2  0
 22 29  1  0
 16 30  1  0
 30 31  2  0
 31 32  1  0
 32 33  2  0
 33 34  1  0
 34 35  2  0
 35 36  1  0
 33 37  1  0
 12 38  1  0
 38 39  2  0
 38 40  1  0
 40 41  1  0
 41 42  1  0
 42 43  2  0
 43 44  1  0
  8  3  1  0
 15 10  1  0
 28 23  1  0
 35 30  1  0
 44 40  2  0
 18 14  1  0
  1 45  1  0
  1 46  1  0
  1 47  1  0
  4 48  1  0
  5 49  1  0
  7 50  1  0
  8 51  1  0
  9 52  1  0
 11 53  1  0
 11 54  1  0
 13 55  1  0
 13 56  1  0
 21 57  1  0
 22 58  1  1
 24 59  1  0
 25 60  1  0
 26 61  1  0
 27 62  1  0
 28 63  1  0
 29 64  1  0
 29 65  1  0
 29 66  1  0
 31 67  1  0
 32 68  1  0
 34 69  1  0
 41 70  1  0
 43 71  1  0
M  END
>  <Ligand ID>  (1) 
LIG0005411

>  <Ligand>  (1) 
CHEMBL3932505

>  <SMILES>  (1) 
COc1ccc(cc1)/C=C/1\CN(Cc2c1n(nc2C(=O)N[C@@H](c1ccccc1)C)c1ccc(cc1Cl)Cl)C(=O)c1[nH]ncn1

>  <CID>  (1) 
134138389.0

>  <ChEMBL ID>  (1) 
nan

>  <InChiKey>  (1) 
KFIUYTPTIHLJGV-VZMFNRANSA-N

>  <InChi>  (1) 
InChI=1S/C32H27Cl2N7O3/c1-19(21-6-4-3-5-7-21)37-31(42)28-25-17-40(32(43)30-35-18-36-38-30)16-22(14-20-8-11-24(44-2)12-9-20)29(25)41(39-28)27-13-10-23(33)15-26(27)34/h3-15,18-19H,16-17H2,1-2H3,(H,37,42)(H,35,36,38)/b22-14+/t19-/m1/s1

>  <IUPAC Name>  (1) 
(7E)-1-(2,4-dichlorophenyl)-7-[(4-methoxyphenyl)methylidene]-N-[(1R)-1-phenylethyl]-5-(1H-1,2,4-triazole-5-carbonyl)-4,6-dihydropyrazolo[4,3-c]pyridine-3-carboxamide

$$$$
