
     RDKit          3D

 36 37  0  0  0  0  0  0  0  0999 V2000
   -4.2533    3.3529   -1.1538 C   0  0  0  0  0  0  0  0  0  0  0  0
   -2.9006    2.9686   -0.9378 O   0  0  0  0  0  0  0  0  0  0  0  0
   -2.5930    1.6406   -0.6791 C   0  0  0  0  0  0  0  0  0  0  0  0
   -3.5888    0.6885   -0.6296 C   0  0  0  0  0  0  0  0  0  0  0  0
   -3.2117   -0.6110   -0.3679 C   0  0  0  0  0  0  0  0  0  0  0  0
   -1.8845   -0.9767   -0.1578 C   0  0  0  0  0  0  0  0  0  0  0  0
   -0.8927   -0.0180   -0.2090 C   0  0  0  0  0  0  0  0  0  0  0  0
   -1.2837    1.2723   -0.4707 C   0  0  0  0  0  0  0  0  0  0  0  0
    0.4644   -0.3117   -0.0119 N   0  0  0  0  0  0  0  0  0  0  0  0
    1.4735    0.7440   -0.0763 C   0  0  0  0  0  0  0  0  0  0  0  0
    2.8489    0.2340    0.1588 C   0  0  0  0  0  0  0  0  0  0  0  0
    3.2002   -0.9799    0.3985 N   0  0  0  0  0  0  0  0  0  0  0  0
    4.6373   -1.0997    0.5757 C   0  0  0  0  0  0  0  0  0  0  0  0
    5.1530    0.1926    0.0299 C   0  0  0  0  0  0  0  0  0  0  0  0
    3.9954    1.0755    0.1449 N   0  0  0  0  0  0  0  0  0  0  0  0
   -1.4806   -2.6435    0.1741 S   0  0  0  0  0  0  0  0  0  0  0  0
   -2.7280   -3.4790    0.1145 O   0  0  0  0  0  0  0  0  0  0  0  0
   -0.5613   -3.2072   -0.8769 O   0  0  0  0  0  0  0  0  0  0  0  0
   -0.7128   -2.8415    1.7415 C   0  0  0  0  0  0  0  0  0  0  0  0
   -4.3855    4.4341   -1.1170 H   0  0  0  0  0  0  0  0  0  0  0  0
   -4.8154    2.9222   -0.2877 H   0  0  0  0  0  0  0  0  0  0  0  0
   -4.5976    2.8636   -2.0862 H   0  0  0  0  0  0  0  0  0  0  0  0
   -4.6354    0.9300   -0.7874 H   0  0  0  0  0  0  0  0  0  0  0  0
   -3.9376   -1.3920   -0.3171 H   0  0  0  0  0  0  0  0  0  0  0  0
   -0.5107    2.0490   -0.5155 H   0  0  0  0  0  0  0  0  0  0  0  0
    0.8316   -1.2687    0.1855 H   0  0  0  0  0  0  0  0  0  0  0  0
    1.4399    1.2015   -1.0839 H   0  0  0  0  0  0  0  0  0  0  0  0
    1.2599    1.5607    0.6362 H   0  0  0  0  0  0  0  0  0  0  0  0
    4.9616   -1.9465   -0.0765 H   0  0  0  0  0  0  0  0  0  0  0  0
    4.8869   -1.2733    1.6388 H   0  0  0  0  0  0  0  0  0  0  0  0
    6.0149    0.5209    0.6279 H   0  0  0  0  0  0  0  0  0  0  0  0
    5.4252    0.0392   -1.0435 H   0  0  0  0  0  0  0  0  0  0  0  0
    4.0821    2.1048    0.2000 H   0  0  0  0  0  0  0  0  0  0  0  0
   -1.4479   -3.3252    2.4394 H   0  0  0  0  0  0  0  0  0  0  0  0
    0.1156   -3.5553    1.6545 H   0  0  0  0  0  0  0  0  0  0  0  0
   -0.3693   -1.8659    2.1656 H   0  0  0  0  0  0  0  0  0  0  0  0
  1  2  1  0
  2  3  1  0
  3  4  2  0
  4  5  1  0
  5  6  2  0
  6  7  1  0
  7  8  2  0
  7  9  1  0
  9 10  1  0
 10 11  1  0
 11 12  2  0
 12 13  1  0
 13 14  1  0
 14 15  1  0
  6 16  1  0
 16 17  2  0
 16 18  2  0
 16 19  1  0
  8  3  1  0
 15 11  1  0
  1 20  1  0
  1 21  1  0
  1 22  1  0
  4 23  1  0
  5 24  1  0
  8 25  1  0
  9 26  1  0
 10 27  1  0
 10 28  1  0
 13 29  1  0
 13 30  1  0
 14 31  1  0
 14 32  1  0
 15 33  1  0
 19 34  1  0
 19 35  1  0
 19 36  1  0
M  END
>  <Ligand ID>  (1) 
LIG0002005

>  <Ligand>  (1) 
CHEMBL71001

>  <SMILES>  (1) 
COc1ccc(c(c1)NCC1=NCCN1)S(=O)(=O)C

>  <CID>  (1) 
9817256.0

>  <ChEMBL ID>  (1) 
nan

>  <InChiKey>  (1) 
WURKOHONKFWQNR-UHFFFAOYSA-N

>  <InChi>  (1) 
InChI=1S/C12H17N3O3S/c1-18-9-3-4-11(19(2,16)17)10(7-9)15-8-12-13-5-6-14-12/h3-4,7,15H,5-6,8H2,1-2H3,(H,13,14)

>  <IUPAC Name>  (1) 
N-(4,5-dihydro-1H-imidazol-2-ylmethyl)-5-methoxy-2-methylsulfonylaniline

$$$$
