
     RDKit          3D

158163  0  0  0  0  0  0  0  0999 V2000
   -9.9194   -2.1360    1.4792 C   0  0  0  0  0  0  0  0  0  0  0  0
   -9.9017   -0.6745    1.1528 C   0  0  0  0  0  0  0  0  0  0  0  0
   -8.6270    0.0363    1.3870 C   0  0  0  0  0  0  0  0  0  0  0  0
   -7.4064   -0.1957    0.6286 C   0  0  0  0  0  0  0  0  0  0  0  0
   -6.8028   -1.5369    0.5376 C   0  0  2  0  0  0  0  0  0  0  0  0
   -5.4855   -1.4829   -0.2262 C   0  0  0  0  0  0  0  0  0  0  0  0
   -5.4247   -2.2191   -1.2240 O   0  0  0  0  0  0  0  0  0  0  0  0
   -4.4231   -0.6209    0.2251 N   0  0  0  0  0  0  0  0  0  0  0  0
   -3.1577   -0.5126   -0.4022 C   0  0  1  0  0  0  0  0  0  0  0  0
   -2.7814   -1.5968   -1.3899 C   0  0  0  0  0  0  0  0  0  0  0  0
   -2.6525   -2.9464   -0.8046 C   0  0  0  0  0  0  0  0  0  0  0  0
   -3.1569   -3.3804    0.2312 O   0  0  0  0  0  0  0  0  0  0  0  0
   -1.8338   -3.9044   -1.5073 N   0  0  0  0  0  0  0  0  0  0  0  0
   -1.6153   -5.2555   -1.1262 C   0  0  0  0  0  0  0  0  0  0  0  0
   -1.1383   -5.5778    0.2225 C   0  0  0  0  0  0  0  0  0  0  0  0
    0.0112   -4.8872    0.8253 C   0  0  0  0  0  0  0  0  0  0  0  0
    1.2741   -4.7842    0.0225 C   0  0  0  0  0  0  0  0  0  0  0  0
    2.3722   -4.2731    0.8816 C   0  0  1  0  0  0  0  0  0  0  0  0
    2.9401   -5.4322    1.6574 C   0  0  0  0  0  0  0  0  0  0  0  0
    4.1381   -5.7449    1.4971 O   0  0  0  0  0  0  0  0  0  0  0  0
    2.1906   -6.2041    2.5768 N   0  0  0  0  0  0  0  0  0  0  0  0
    3.4789   -3.6339    0.1919 N   0  0  0  0  0  0  0  0  0  0  0  0
    3.9333   -4.2070   -1.0183 C   0  0  0  0  0  0  0  0  0  0  0  0
    4.0606   -2.4329    0.6423 C   0  0  0  0  0  0  0  0  0  0  0  0
    3.4511   -2.0884    1.7349 O   0  0  0  0  0  0  0  0  0  0  0  0
    5.0888   -1.5481    0.2193 C   0  0  1  0  0  0  0  0  0  0  0  0
    4.9013   -0.3974    1.2051 N   0  0  0  0  0  0  0  0  0  0  0  0
    4.0980    0.7120    0.9005 C   0  0  0  0  0  0  0  0  0  0  0  0
    3.5473    0.6837   -0.2196 O   0  0  0  0  0  0  0  0  0  0  0  0
    3.8479    1.8864    1.7544 C   0  0  1  0  0  0  0  0  0  0  0  0
    3.1864    2.9508    0.9582 N   0  0  0  0  0  0  0  0  0  0  0  0
    1.8744    2.7799    0.4392 C   0  0  0  0  0  0  0  0  0  0  0  0
    1.3509    1.7278    0.7616 O   0  0  0  0  0  0  0  0  0  0  0  0
    1.1493    3.7392   -0.4129 C   0  0  2  0  0  0  0  0  0  0  0  0
   -0.1613    3.1900   -0.6942 N   0  0  0  0  0  0  0  0  0  0  0  0
   -1.3447    3.9636   -0.8622 C   0  0  0  0  0  0  0  0  0  0  0  0
   -1.1816    5.1905   -0.7542 O   0  0  0  0  0  0  0  0  0  0  0  0
   -2.6459    3.3025   -1.1528 C   0  0  1  0  0  0  0  0  0  0  0  0
   -2.9070    2.0811   -0.4370 N   0  0  0  0  0  0  0  0  0  0  0  0
   -2.7379    0.7662   -0.9561 C   0  0  0  0  0  0  0  0  0  0  0  0
   -2.1166    0.7759   -2.0349 O   0  0  0  0  0  0  0  0  0  0  0  0
   -3.2848    2.1206    0.9459 C   0  0  0  0  0  0  0  0  0  0  0  0
   -3.7709    4.1766   -1.4749 C   0  0  0  0  0  0  0  0  0  0  0  0
   -4.2206    5.1899   -0.5302 C   0  0  0  0  0  0  0  0  0  0  0  0
   -5.2979    6.0012   -0.8277 N   0  0  0  0  0  0  0  0  0  0  0  0
   -5.4885    6.8363    0.1777 C   0  0  0  0  0  0  0  0  0  0  0  0
   -4.5957    6.6338    1.1419 N   0  0  0  0  0  0  0  0  0  0  0  0
   -3.8155    5.6145    0.6968 C   0  0  0  0  0  0  0  0  0  0  0  0
    1.8253    3.8329   -1.7928 C   0  0  0  0  0  0  0  0  0  0  0  0
    1.1306    4.7868   -2.6868 C   0  0  0  0  0  0  0  0  0  0  0  0
    1.5207    6.1159   -2.5968 C   0  0  0  0  0  0  0  0  0  0  0  0
    0.9676    7.1106   -3.3776 C   0  0  0  0  0  0  0  0  0  0  0  0
   -0.0041    6.7466   -4.2717 C   0  0  0  0  0  0  0  0  0  0  0  0
   -0.3868    5.4384   -4.3595 C   0  0  0  0  0  0  0  0  0  0  0  0
    0.1514    4.4214   -3.5874 C   0  0  0  0  0  0  0  0  0  0  0  0
   -1.3746    5.1302   -5.2884 C   0  0  0  0  0  0  0  0  0  0  0  0
   -1.9441    6.1188   -6.0904 C   0  0  0  0  0  0  0  0  0  0  0  0
   -1.5319    7.4353   -5.9741 C   0  0  0  0  0  0  0  0  0  0  0  0
   -0.5568    7.7522   -5.0605 C   0  0  0  0  0  0  0  0  0  0  0  0
    3.7964    4.2086    0.6798 C   0  0  0  0  0  0  0  0  0  0  0  0
    3.1379    1.6925    3.0337 C   0  0  0  0  0  0  0  0  0  0  0  0
    3.7814    0.7925    4.0389 C   0  0  0  0  0  0  0  0  0  0  0  0
    5.1551    1.2370    4.4425 C   0  0  0  0  0  0  0  0  0  0  0  0
    5.6622    0.2793    5.4215 N   0  0  0  0  0  0  0  0  0  0  0  0
    6.4440    0.6789    6.3850 C   0  0  0  0  0  0  0  0  0  0  0  0
    6.7461    2.0730    6.3964 N   0  0  0  0  0  0  0  0  0  0  0  0
    6.9482   -0.2309    7.3484 N   0  0  0  0  0  0  0  0  0  0  0  0
    6.5087   -1.7856    0.1016 C   0  0  0  0  0  0  0  0  0  0  0  0
    6.9782   -2.8257   -0.7867 C   0  0  0  0  0  0  0  0  0  0  0  0
    7.3127   -2.6285   -2.1332 C   0  0  0  0  0  0  0  0  0  0  0  0
    7.6844   -3.7940   -2.6885 N   0  0  0  0  0  0  0  0  0  0  0  0
    7.6165   -4.7746   -1.7740 C   0  0  0  0  0  0  0  0  0  0  0  0
    7.1850   -4.1873   -0.6079 C   0  0  0  0  0  0  0  0  0  0  0  0
    7.0427   -4.9831    0.4950 C   0  0  0  0  0  0  0  0  0  0  0  0
    7.3199   -6.3362    0.4516 C   0  0  0  0  0  0  0  0  0  0  0  0
    7.7512   -6.9273   -0.7136 C   0  0  0  0  0  0  0  0  0  0  0  0
    7.9012   -6.1425   -1.8354 C   0  0  0  0  0  0  0  0  0  0  0  0
   -7.6345   -2.4989   -0.2136 N   0  0  0  0  0  0  0  0  0  0  0  0
   -8.2898   -2.1703   -1.4208 C   0  0  0  0  0  0  0  0  0  0  0  0
   -8.2590   -1.0752   -1.9979 O   0  0  0  0  0  0  0  0  0  0  0  0
   -9.1004   -3.2515   -2.0642 C   0  0  0  0  0  0  0  0  0  0  0  0
  -10.1831   -2.8038    0.6348 H   0  0  0  0  0  0  0  0  0  0  0  0
   -9.0430   -2.4705    2.0665 H   0  0  0  0  0  0  0  0  0  0  0  0
  -10.7835   -2.3488    2.2181 H   0  0  0  0  0  0  0  0  0  0  0  0
  -10.2229   -0.5795    0.0695 H   0  0  0  0  0  0  0  0  0  0  0  0
  -10.7313   -0.1930    1.7571 H   0  0  0  0  0  0  0  0  0  0  0  0
   -8.8993    1.1667    1.3861 H   0  0  0  0  0  0  0  0  0  0  0  0
   -8.4072   -0.1154    2.5209 H   0  0  0  0  0  0  0  0  0  0  0  0
   -6.6019    0.4609    1.1433 H   0  0  0  0  0  0  0  0  0  0  0  0
   -7.5062    0.3097   -0.3798 H   0  0  0  0  0  0  0  0  0  0  0  0
   -6.6483   -1.9383    1.5323 H   0  0  0  0  0  0  0  0  0  0  0  0
   -4.6688   -0.0783    1.0844 H   0  0  0  0  0  0  0  0  0  0  0  0
   -2.4121   -0.7709    0.4644 H   0  0  0  0  0  0  0  0  0  0  0  0
   -1.7725   -1.3224   -1.7650 H   0  0  0  0  0  0  0  0  0  0  0  0
   -3.4376   -1.5943   -2.2801 H   0  0  0  0  0  0  0  0  0  0  0  0
   -1.3897   -3.5292   -2.3518 H   0  0  0  0  0  0  0  0  0  0  0  0
   -2.5380   -5.8902   -1.3059 H   0  0  0  0  0  0  0  0  0  0  0  0
   -0.8421   -5.6702   -1.8672 H   0  0  0  0  0  0  0  0  0  0  0  0
   -0.9545   -6.6936    0.2358 H   0  0  0  0  0  0  0  0  0  0  0  0
   -1.9918   -5.4727    0.9572 H   0  0  0  0  0  0  0  0  0  0  0  0
    0.2429   -5.4417    1.7839 H   0  0  0  0  0  0  0  0  0  0  0  0
   -0.3023   -3.8563    1.1830 H   0  0  0  0  0  0  0  0  0  0  0  0
    1.1242   -4.2068   -0.9125 H   0  0  0  0  0  0  0  0  0  0  0  0
    1.4702   -5.8345   -0.3523 H   0  0  0  0  0  0  0  0  0  0  0  0
    1.9996   -3.6346    1.7373 H   0  0  0  0  0  0  0  0  0  0  0  0
    1.9652   -5.7198    3.4972 H   0  0  0  0  0  0  0  0  0  0  0  0
    1.8662   -7.1846    2.3965 H   0  0  0  0  0  0  0  0  0  0  0  0
    3.0463   -4.5731   -1.6454 H   0  0  0  0  0  0  0  0  0  0  0  0
    4.4022   -3.4973   -1.7351 H   0  0  0  0  0  0  0  0  0  0  0  0
    4.5039   -5.1426   -0.8575 H   0  0  0  0  0  0  0  0  0  0  0  0
    4.7194   -1.0567   -0.7391 H   0  0  0  0  0  0  0  0  0  0  0  0
    5.3804   -0.4265    2.0879 H   0  0  0  0  0  0  0  0  0  0  0  0
    4.8503    2.3447    2.0093 H   0  0  0  0  0  0  0  0  0  0  0  0
    1.0435    4.7216    0.0271 H   0  0  0  0  0  0  0  0  0  0  0  0
   -0.2544    2.1861   -0.7743 H   0  0  0  0  0  0  0  0  0  0  0  0
   -2.3409    2.8629   -2.2299 H   0  0  0  0  0  0  0  0  0  0  0  0
   -4.3380    2.2427    1.1174 H   0  0  0  0  0  0  0  0  0  0  0  0
   -2.8781    1.2367    1.5169 H   0  0  0  0  0  0  0  0  0  0  0  0
   -2.7222    2.9700    1.4405 H   0  0  0  0  0  0  0  0  0  0  0  0
   -3.5334    4.7582   -2.4327 H   0  0  0  0  0  0  0  0  0  0  0  0
   -4.6528    3.5500   -1.8398 H   0  0  0  0  0  0  0  0  0  0  0  0
   -5.8774    5.9753   -1.6973 H   0  0  0  0  0  0  0  0  0  0  0  0
   -6.2693    7.5841    0.2061 H   0  0  0  0  0  0  0  0  0  0  0  0
   -3.0055    5.2372    1.2608 H   0  0  0  0  0  0  0  0  0  0  0  0
    1.7646    2.8454   -2.3068 H   0  0  0  0  0  0  0  0  0  0  0  0
    2.8950    4.0643   -1.7308 H   0  0  0  0  0  0  0  0  0  0  0  0
    2.2854    6.4262   -1.8984 H   0  0  0  0  0  0  0  0  0  0  0  0
    1.2782    8.1419   -3.2997 H   0  0  0  0  0  0  0  0  0  0  0  0
   -0.1532    3.3890   -3.6588 H   0  0  0  0  0  0  0  0  0  0  0  0
   -1.7201    4.1197   -5.4071 H   0  0  0  0  0  0  0  0  0  0  0  0
   -2.7065    5.9093   -6.8136 H   0  0  0  0  0  0  0  0  0  0  0  0
   -1.9478    8.2376   -6.5765 H   0  0  0  0  0  0  0  0  0  0  0  0
   -0.2349    8.7843   -4.9704 H   0  0  0  0  0  0  0  0  0  0  0  0
    3.0208    5.0032    0.4541 H   0  0  0  0  0  0  0  0  0  0  0  0
    4.5866    4.1520   -0.0687 H   0  0  0  0  0  0  0  0  0  0  0  0
    4.2717    4.6238    1.6229 H   0  0  0  0  0  0  0  0  0  0  0  0
    2.0895    1.3170    2.9161 H   0  0  0  0  0  0  0  0  0  0  0  0
    2.9896    2.7010    3.5396 H   0  0  0  0  0  0  0  0  0  0  0  0
    3.1696    0.8718    4.9988 H   0  0  0  0  0  0  0  0  0  0  0  0
    3.8084   -0.2507    3.7071 H   0  0  0  0  0  0  0  0  0  0  0  0
    5.8906    1.3122    3.6433 H   0  0  0  0  0  0  0  0  0  0  0  0
    5.0864    2.2471    4.9006 H   0  0  0  0  0  0  0  0  0  0  0  0
    7.4406    2.5061    5.7454 H   0  0  0  0  0  0  0  0  0  0  0  0
    6.2781    2.7460    7.0710 H   0  0  0  0  0  0  0  0  0  0  0  0
    7.0997    0.1329    8.3187 H   0  0  0  0  0  0  0  0  0  0  0  0
    7.1682   -1.2337    7.1225 H   0  0  0  0  0  0  0  0  0  0  0  0
    7.0226   -1.9387    1.1149 H   0  0  0  0  0  0  0  0  0  0  0  0
    6.9627   -0.8204   -0.3297 H   0  0  0  0  0  0  0  0  0  0  0  0
    7.2881   -1.6879   -2.6799 H   0  0  0  0  0  0  0  0  0  0  0  0
    7.9930   -3.9676   -3.6852 H   0  0  0  0  0  0  0  0  0  0  0  0
    6.6990   -4.5240    1.4326 H   0  0  0  0  0  0  0  0  0  0  0  0
    7.2136   -6.9813    1.3139 H   0  0  0  0  0  0  0  0  0  0  0  0
    7.9769   -7.9979   -0.7707 H   0  0  0  0  0  0  0  0  0  0  0  0
    8.2406   -6.5594   -2.7903 H   0  0  0  0  0  0  0  0  0  0  0  0
   -7.7369   -3.4846    0.1766 H   0  0  0  0  0  0  0  0  0  0  0  0
   -8.5522   -3.7405   -2.9054 H   0  0  0  0  0  0  0  0  0  0  0  0
  -10.0044   -2.7762   -2.5156 H   0  0  0  0  0  0  0  0  0  0  0  0
   -9.3547   -4.0538   -1.3507 H   0  0  0  0  0  0  0  0  0  0  0  0
  1  2  1  0
  2  3  1  0
  3  4  1  0
  4  5  1  0
  5  6  1  0
  6  7  2  0
  6  8  1  0
  8  9  1  0
  9 10  1  0
 10 11  1  0
 11 12  2  0
 11 13  1  0
 13 14  1  0
 14 15  1  0
 15 16  1  0
 16 17  1  0
 17 18  1  0
 18 19  1  0
 19 20  2  0
 19 21  1  0
 18 22  1  0
 22 23  1  0
 22 24  1  0
 24 25  2  0
 24 26  1  0
 26 27  1  0
 27 28  1  0
 28 29  2  0
 28 30  1  0
 30 31  1  0
 31 32  1  0
 32 33  2  0
 32 34  1  0
 34 35  1  0
 35 36  1  0
 36 37  2  0
 36 38  1  0
 38 39  1  0
 39 40  1  0
 40 41  2  0
 39 42  1  0
 38 43  1  0
 43 44  1  0
 44 45  1  0
 45 46  1  0
 46 47  2  0
 47 48  1  0
 34 49  1  0
 49 50  1  0
 50 51  2  0
 51 52  1  0
 52 53  2  0
 53 54  1  0
 54 55  2  0
 54 56  1  0
 56 57  2  0
 57 58  1  0
 58 59  2  0
 31 60  1  0
 30 61  1  0
 61 62  1  0
 62 63  1  0
 63 64  1  0
 64 65  2  3
 65 66  1  0
 65 67  1  0
 26 68  1  0
 68 69  1  0
 69 70  2  0
 70 71  1  0
 71 72  1  0
 72 73  2  0
 73 74  1  0
 74 75  2  0
 75 76  1  0
 76 77  2  0
  5 78  1  0
 78 79  1  0
 79 80  2  0
 79 81  1  0
 40  9  1  0
 48 44  2  0
 55 50  1  0
 73 69  1  0
 59 53  1  0
 77 72  1  0
  1 82  1  0
  1 83  1  0
  1 84  1  0
  2 85  1  0
  2 86  1  0
  3 87  1  0
  3 88  1  0
  4 89  1  0
  4 90  1  0
  5 91  1  1
  8 92  1  0
  9 93  1  1
 10 94  1  0
 10 95  1  0
 13 96  1  0
 14 97  1  0
 14 98  1  0
 15 99  1  0
 15100  1  0
 16101  1  0
 16102  1  0
 17103  1  0
 17104  1  0
 18105  1  1
 21106  1  0
 21107  1  0
 23108  1  0
 23109  1  0
 23110  1  0
 26111  1  6
 27112  1  0
 30113  1  1
 34114  1  1
 35115  1  0
 38116  1  6
 42117  1  0
 42118  1  0
 42119  1  0
 43120  1  0
 43121  1  0
 45122  1  0
 46123  1  0
 48124  1  0
 49125  1  0
 49126  1  0
 51127  1  0
 52128  1  0
 55129  1  0
 56130  1  0
 57131  1  0
 58132  1  0
 59133  1  0
 60134  1  0
 60135  1  0
 60136  1  0
 61137  1  0
 61138  1  0
 62139  1  0
 62140  1  0
 63141  1  0
 63142  1  0
 66143  1  0
 66144  1  0
 67145  1  0
 67146  1  0
 68147  1  0
 68148  1  0
 70149  1  0
 71150  1  0
 74151  1  0
 75152  1  0
 76153  1  0
 77154  1  0
 78155  1  0
 81156  1  0
 81157  1  0
 81158  1  0
M  END
>  <Ligand ID>  (1) 
LIG0001810

>  <Ligand>  (1) 
CHEMBL3600918

>  <SMILES>  (1) 
CCCC[C@H](C(=O)N[C@H]1CC(=O)NCCCC[C@@H](C(=O)N)N(C)C(=O)[C@@H](NC(=O)[C@@H](N(C(=O)[C@H](NC(=O)[C@@H](N(C1=O)C)Cc1[nH]cnc1)Cc1ccc2c(c1)cccc2)C)CCCN=C(N)N)Cc1c[nH]c2c1cccc2)NC(=O)C

>  <CID>  (1) 
122184637.0

>  <ChEMBL ID>  (1) 
nan

>  <InChiKey>  (1) 
XMQSVPKHHVWBGS-SXZWXXKZSA-N

>  <InChi>  (1) 
InChI=1S/C57H77N15O9/c1-6-7-18-42(66-34(2)73)51(76)67-45-30-49(74)62-24-13-12-20-46(50(58)75)70(3)55(80)44(28-38-31-64-41-19-11-10-17-40(38)41)69-52(77)47(21-14-25-63-57(59)60)71(4)54(79)43(27-35-22-23-36-15-8-9-16-37(36)26-35)68-53(78)48(72(5)56(45)81)29-39-32-61-33-65-39/h8-11,15-17,19,22-23,26,31-33,42-48,64H,6-7,12-14,18,20-21,24-25,27-30H2,1-5H3,(H2,58,75)(H,61,65)(H,62,74)(H,66,73)(H,67,76)(H,68,78)(H,69,77)(H4,59,60,63)/t42-,43-,44+,45+,46+,47+,48+/m1/s1

>  <IUPAC Name>  (1) 
(3S,6S,9R,12S,15S,23S)-15-[[(2R)-2-acetamidohexanoyl]amino]-6-[3-(diaminomethylideneamino)propyl]-12-(1H-imidazol-5-ylmethyl)-3-(1H-indol-3-ylmethyl)-1,7,13-trimethyl-9-(naphthalen-2-ylmethyl)-2,5,8,11,14,17-hexaoxo-1,4,7,10,13,18-hexazacyclotricosane-23-carboxamide

$$$$
