
     RDKit          3D

 84 85  0  0  0  0  0  0  0  0999 V2000
   -0.9564   -0.1576   -0.0135 C   0  0  0  0  0  0  0  0  0  0  0  0
    0.4419    0.2665    0.0197 C   0  0  0  0  0  0  0  0  0  0  0  0
    0.7049    1.4825   -0.1661 O   0  0  0  0  0  0  0  0  0  0  0  0
    1.4791   -0.5937    0.2428 O   0  0  0  0  0  0  0  0  0  0  0  0
  -11.6354   -0.7319   -0.2676 O   0  0  0  0  0  0  0  0  0  0  0  0
  -10.4112   -1.4102   -0.3304 C   0  0  0  0  0  0  0  0  0  0  0  0
   -9.3044   -0.5338    0.1762 C   0  0  0  0  0  0  0  0  0  0  0  0
   -8.4080    0.0775   -0.6703 C   0  0  0  0  0  0  0  0  0  0  0  0
   -7.3724    0.8952   -0.2024 C   0  0  0  0  0  0  0  0  0  0  0  0
   -7.3129    1.0461    1.1643 C   0  0  0  0  0  0  0  0  0  0  0  0
   -8.1912    0.4507    2.0418 C   0  0  0  0  0  0  0  0  0  0  0  0
   -9.1990   -0.3482    1.5495 C   0  0  0  0  0  0  0  0  0  0  0  0
  -10.1248   -0.9808    2.3921 O   0  0  0  0  0  0  0  0  0  0  0  0
   -6.4805    1.5359   -1.1759 C   0  0  2  0  0  0  0  0  0  0  0  0
   -5.4847    0.6935   -1.8729 C   0  0  0  0  0  0  0  0  0  0  0  0
   -4.2242    0.4352   -1.2207 N   0  0  0  0  0  0  0  0  0  0  0  0
   -4.3295   -0.3978   -0.0709 C   0  0  0  0  0  0  0  0  0  0  0  0
   -3.0972   -1.0576    0.4382 C   0  0  0  0  0  0  0  0  0  0  0  0
   -1.9263   -0.2518    0.8147 C   0  0  0  0  0  0  0  0  0  0  0  0
   -1.2666    0.4170   -0.3405 C   0  0  0  0  0  0  0  0  0  0  0  0
   -0.0921    1.2623    0.0924 C   0  0  0  0  0  0  0  0  0  0  0  0
    0.9452    0.4442    0.7587 C   0  0  0  0  0  0  0  0  0  0  0  0
    1.4614   -0.5919   -0.0158 O   0  0  0  0  0  0  0  0  0  0  0  0
    2.0284   -0.1762   -1.1906 C   0  0  0  0  0  0  0  0  0  0  0  0
    3.1567    0.7836   -1.0802 C   0  0  0  0  0  0  0  0  0  0  0  0
    4.3503    0.3237   -0.3250 C   0  0  0  0  0  0  0  0  0  0  0  0
    5.0316   -0.8905   -0.8626 C   0  0  0  0  0  0  0  0  0  0  0  0
    6.2004   -1.1597    0.0468 C   0  0  0  0  0  0  0  0  0  0  0  0
    6.1022   -1.9879    1.1451 C   0  0  0  0  0  0  0  0  0  0  0  0
    7.2627   -2.1491    1.9072 C   0  0  0  0  0  0  0  0  0  0  0  0
    8.4438   -1.5026    1.5614 C   0  0  0  0  0  0  0  0  0  0  0  0
    8.5210   -0.6845    0.4666 C   0  0  0  0  0  0  0  0  0  0  0  0
    7.3778   -0.5102   -0.3040 C   0  0  0  0  0  0  0  0  0  0  0  0
    9.6795    0.0101    0.0498 N   0  0  0  0  0  0  0  0  0  0  0  0
   10.6566   -0.4896   -0.8542 C   0  0  0  0  0  0  0  0  0  0  0  0
   10.5065   -1.4862   -1.6060 O   0  0  0  0  0  0  0  0  0  0  0  0
   11.8732    0.3896   -0.7365 C   0  0  0  0  0  0  0  0  0  0  0  0
   11.3011    1.6212   -0.2219 N   0  0  0  0  0  0  0  0  0  0  0  0
   10.0952    1.3291    0.4363 C   0  0  0  0  0  0  0  0  0  0  0  0
    9.4953    2.1051    1.2257 O   0  0  0  0  0  0  0  0  0  0  0  0
   -6.0446    2.8160   -0.8191 O   0  0  0  0  0  0  0  0  0  0  0  0
   -1.4900    0.4296   -0.8166 H   0  0  0  0  0  0  0  0  0  0  0  0
   -1.4873    0.1569    0.9318 H   0  0  0  0  0  0  0  0  0  0  0  0
   -1.1147   -1.2383   -0.1333 H   0  0  0  0  0  0  0  0  0  0  0  0
    2.4223   -0.3459   -0.0648 H   0  0  0  0  0  0  0  0  0  0  0  0
  -11.7234   -0.3305    0.6324 H   0  0  0  0  0  0  0  0  0  0  0  0
  -10.2013   -1.5593   -1.4151 H   0  0  0  0  0  0  0  0  0  0  0  0
  -10.4696   -2.3712    0.2150 H   0  0  0  0  0  0  0  0  0  0  0  0
   -8.5102   -0.0835   -1.7433 H   0  0  0  0  0  0  0  0  0  0  0  0
   -6.5310    1.6634    1.5699 H   0  0  0  0  0  0  0  0  0  0  0  0
   -8.1050    0.5972    3.1146 H   0  0  0  0  0  0  0  0  0  0  0  0
  -10.4697   -1.9208    2.2011 H   0  0  0  0  0  0  0  0  0  0  0  0
   -7.2349    1.8194   -2.0493 H   0  0  0  0  0  0  0  0  0  0  0  0
   -5.2183    1.2036   -2.8537 H   0  0  0  0  0  0  0  0  0  0  0  0
   -5.9679   -0.2584   -2.2214 H   0  0  0  0  0  0  0  0  0  0  0  0
   -4.0110    1.4279   -0.7909 H   0  0  0  0  0  0  0  0  0  0  0  0
   -4.6953    0.2164    0.8187 H   0  0  0  0  0  0  0  0  0  0  0  0
   -5.1615   -1.1641   -0.1928 H   0  0  0  0  0  0  0  0  0  0  0  0
   -3.3427   -1.6954    1.3614 H   0  0  0  0  0  0  0  0  0  0  0  0
   -2.8085   -1.8898   -0.3010 H   0  0  0  0  0  0  0  0  0  0  0  0
   -2.1681    0.5102    1.6101 H   0  0  0  0  0  0  0  0  0  0  0  0
   -1.1386   -0.8903    1.3361 H   0  0  0  0  0  0  0  0  0  0  0  0
   -1.9509    0.9388   -0.9825 H   0  0  0  0  0  0  0  0  0  0  0  0
   -0.8515   -0.4469   -0.9861 H   0  0  0  0  0  0  0  0  0  0  0  0
    0.2805    1.8986   -0.7254 H   0  0  0  0  0  0  0  0  0  0  0  0
   -0.4850    1.9867    0.8566 H   0  0  0  0  0  0  0  0  0  0  0  0
    0.5571    0.0098    1.6929 H   0  0  0  0  0  0  0  0  0  0  0  0
    1.8109    1.0836    1.1013 H   0  0  0  0  0  0  0  0  0  0  0  0
    1.2791    0.2536   -1.9001 H   0  0  0  0  0  0  0  0  0  0  0  0
    2.3923   -1.1033   -1.7162 H   0  0  0  0  0  0  0  0  0  0  0  0
    3.4572    1.0492   -2.1312 H   0  0  0  0  0  0  0  0  0  0  0  0
    2.8010    1.7286   -0.5914 H   0  0  0  0  0  0  0  0  0  0  0  0
    4.1212    0.2286    0.7563 H   0  0  0  0  0  0  0  0  0  0  0  0
    5.1138    1.1574   -0.3780 H   0  0  0  0  0  0  0  0  0  0  0  0
    4.3827   -1.8064   -0.7477 H   0  0  0  0  0  0  0  0  0  0  0  0
    5.3608   -0.7252   -1.8949 H   0  0  0  0  0  0  0  0  0  0  0  0
    5.1731   -2.4743    1.3793 H   0  0  0  0  0  0  0  0  0  0  0  0
    7.2415   -2.7955    2.7894 H   0  0  0  0  0  0  0  0  0  0  0  0
    9.3270   -1.6461    2.1678 H   0  0  0  0  0  0  0  0  0  0  0  0
    7.4145    0.1424   -1.1868 H   0  0  0  0  0  0  0  0  0  0  0  0
   12.5572   -0.1019    0.0085 H   0  0  0  0  0  0  0  0  0  0  0  0
   12.3609    0.5133   -1.7300 H   0  0  0  0  0  0  0  0  0  0  0  0
   11.6904    2.6064   -0.3014 H   0  0  0  0  0  0  0  0  0  0  0  0
   -5.8608    2.9324    0.1325 H   0  0  0  0  0  0  0  0  0  0  0  0
  1  2  1  0
  2  3  2  0
  2  4  1  0
  5  6  1  0
  6  7  1  0
  7  8  2  0
  8  9  1  0
  9 10  2  0
 10 11  1  0
 11 12  2  0
 12 13  1  0
  9 14  1  0
 14 15  1  0
 15 16  1  0
 16 17  1  0
 17 18  1  0
 18 19  1  0
 19 20  1  0
 20 21  1  0
 21 22  1  0
 22 23  1  0
 23 24  1  0
 24 25  1  0
 25 26  1  0
 26 27  1  0
 27 28  1  0
 28 29  2  0
 29 30  1  0
 30 31  2  0
 31 32  1  0
 32 33  2  0
 32 34  1  0
 34 35  1  0
 35 36  2  0
 35 37  1  0
 37 38  1  0
 38 39  1  0
 39 40  2  0
 14 41  1  0
 12  7  1  0
 33 28  1  0
 39 34  1  0
  1 42  1  0
  1 43  1  0
  1 44  1  0
  4 45  1  0
  5 46  1  0
  6 47  1  0
  6 48  1  0
  8 49  1  0
 10 50  1  0
 11 51  1  0
 13 52  1  0
 14 53  1  6
 15 54  1  0
 15 55  1  0
 16 56  1  0
 17 57  1  0
 17 58  1  0
 18 59  1  0
 18 60  1  0
 19 61  1  0
 19 62  1  0
 20 63  1  0
 20 64  1  0
 21 65  1  0
 21 66  1  0
 22 67  1  0
 22 68  1  0
 24 69  1  0
 24 70  1  0
 25 71  1  0
 25 72  1  0
 26 73  1  0
 26 74  1  0
 27 75  1  0
 27 76  1  0
 29 77  1  0
 30 78  1  0
 31 79  1  0
 33 80  1  0
 37 81  1  0
 37 82  1  0
 38 83  1  0
 41 84  1  0
M  END
>  <Ligand ID>  (1) 
LIG0001466

>  <Ligand>  (1) 
3-[3-(4-{[6-([(2R)-2-Hydroxy-2-[4-hydroxy-3-(hydroxymethyl)phenyl]ethyl}amino)hexyl]oxy}butyl)phenyl]imidazolidine-2,4-dione acetate

>  <SMILES>  (1) 
CC(=O)O.OCc1cc(ccc1O)[C@H](CNCCCCCCOCCCCc1cccc(c1)N1C(=O)CNC1=O)O

>  <CID>  (1) 
56682168.0

>  <ChEMBL ID>  (1) 
nan

>  <InChiKey>  (1) 
FWSOSXZYQJPGKV-SNYZSRNZSA-N

>  <InChi>  (1) 
InChI=1S/C28H39N3O6.C2H4O2/c32-20-23-17-22(11-12-25(23)33)26(34)18-29-13-4-1-2-5-14-37-15-6-3-8-21-9-7-10-24(16-21)31-27(35)19-30-28(31)36;1-2(3)4/h7,9-12,16-17,26,29,32-34H,1-6,8,13-15,18-20H2,(H,30,36);1H3,(H,3,4)/t26-;/m0./s1

>  <IUPAC Name>  (1) 
acetic acid;3-[3-[4-[6-[[(2R)-2-hydroxy-2-[4-hydroxy-3-(hydroxymethyl)phenyl]ethyl]amino]hexoxy]butyl]phenyl]imidazolidine-2,4-dione

$$$$
