
     RDKit          3D

 27 28  0  0  0  0  0  0  0  0999 V2000
   -1.8936    1.3342    0.7155 C   0  0  0  0  0  0  0  0  0  0  0  0
   -2.4730    0.0386    0.2281 C   0  0  1  0  0  0  0  0  0  0  0  0
   -1.5403   -1.1147    0.1814 C   0  0  0  0  0  0  0  0  0  0  0  0
   -0.3851   -0.9392   -0.6731 N   0  0  0  0  0  0  0  0  0  0  0  0
   -0.3947   -1.2286   -1.9597 N   0  0  0  0  0  0  0  0  0  0  0  0
    0.7909   -0.9667   -2.5422 C   0  0  0  0  0  0  0  0  0  0  0  0
    1.6005   -0.4797   -1.5530 C   0  0  0  0  0  0  0  0  0  0  0  0
    0.8410   -0.4729   -0.3937 C   0  0  0  0  0  0  0  0  0  0  0  0
    1.4066   -0.0340    0.7606 C   0  0  0  0  0  0  0  0  0  0  0  0
    0.7116   -0.0198    1.8983 F   0  0  0  0  0  0  0  0  0  0  0  0
    2.7285    0.4036    0.7811 C   0  0  0  0  0  0  0  0  0  0  0  0
    3.2579    0.8460    2.0039 O   0  0  0  0  0  0  0  0  0  0  0  0
    3.5009    0.4063   -0.3574 C   0  0  0  0  0  0  0  0  0  0  0  0
    2.9105   -0.0432   -1.5203 C   0  0  0  0  0  0  0  0  0  0  0  0
   -3.4947   -0.3300    1.2248 N   0  0  0  0  0  0  0  0  0  0  0  0
   -2.5724    2.1670    0.4374 H   0  0  0  0  0  0  0  0  0  0  0  0
   -0.9346    1.5740    0.1815 H   0  0  0  0  0  0  0  0  0  0  0  0
   -1.7716    1.3230    1.8149 H   0  0  0  0  0  0  0  0  0  0  0  0
   -3.0563    0.1816   -0.7074 H   0  0  0  0  0  0  0  0  0  0  0  0
   -2.1422   -2.0072   -0.1194 H   0  0  0  0  0  0  0  0  0  0  0  0
   -1.2337   -1.3272    1.2310 H   0  0  0  0  0  0  0  0  0  0  0  0
    1.0842   -1.1000   -3.5775 H   0  0  0  0  0  0  0  0  0  0  0  0
    3.1637    1.8244    2.2949 H   0  0  0  0  0  0  0  0  0  0  0  0
    4.5324    0.7536   -0.3156 H   0  0  0  0  0  0  0  0  0  0  0  0
    3.4906   -0.0522   -2.4244 H   0  0  0  0  0  0  0  0  0  0  0  0
   -4.1379    0.4613    1.4386 H   0  0  0  0  0  0  0  0  0  0  0  0
   -3.9893   -1.1983    0.9516 H   0  0  0  0  0  0  0  0  0  0  0  0
  1  2  1  0
  2  3  1  0
  3  4  1  0
  4  5  1  0
  5  6  2  0
  6  7  1  0
  7  8  2  0
  8  9  1  0
  9 10  1  0
  9 11  2  0
 11 12  1  0
 11 13  1  0
 13 14  2  0
  2 15  1  0
  8  4  1  0
 14  7  1  0
  1 16  1  0
  1 17  1  0
  1 18  1  0
  2 19  1  6
  3 20  1  0
  3 21  1  0
  6 22  1  0
 12 23  1  0
 13 24  1  0
 14 25  1  0
 15 26  1  0
 15 27  1  0
M  END
>  <Ligand ID>  (1) 
LIG0002155

>  <Ligand>  (1) 
CHEMBL197653

>  <SMILES>  (1) 
C[C@@H](Cn1ncc2c1c(F)c(O)cc2)N

>  <CID>  (1) 
135399866.0

>  <ChEMBL ID>  (1) 
nan

>  <InChiKey>  (1) 
TZBBLWXEAUOTGZ-LURJTMIESA-N

>  <InChi>  (1) 
InChI=1S/C10H12FN3O/c1-6(12)5-14-10-7(4-13-14)2-3-8(15)9(10)11/h2-4,6,15H,5,12H2,1H3/t6-/m0/s1

>  <IUPAC Name>  (1) 
1-[(2S)-2-aminopropyl]-7-fluoroindazol-6-ol

$$$$
