
     RDKit          3D

 27 29  0  0  0  0  0  0  0  0999 V2000
    3.3199    1.0304    2.9036 O   0  0  0  0  0  0  0  0  0  0  0  0
    3.1133    0.7137    1.7035 C   0  0  0  0  0  0  0  0  0  0  0  0
    4.3018    0.5642    0.8604 C   0  0  0  0  0  0  0  0  0  0  0  0
    4.1311    0.2337   -0.4014 C   0  0  0  0  0  0  0  0  0  0  0  0
    2.7754    0.0323   -0.9009 C   0  0  0  0  0  0  0  0  0  0  0  0
    2.3019   -0.2841   -2.0422 N   0  0  0  0  0  0  0  0  0  0  0  0
    0.8833   -0.3554   -2.0169 C   0  0  0  0  0  0  0  0  0  0  0  0
    0.4382   -0.0669   -0.7876 C   0  0  0  0  0  0  0  0  0  0  0  0
    1.6297    0.1980   -0.0032 C   0  0  0  0  0  0  0  0  0  0  0  0
    1.7926    0.5167    1.2142 N   0  0  0  0  0  0  0  0  0  0  0  0
   -0.9584   -0.0326   -0.3521 C   0  0  0  0  0  0  0  0  0  0  0  0
   -1.3158    0.2633    0.8874 C   0  0  0  0  0  0  0  0  0  0  0  0
   -2.7181    0.3053    1.3544 C   0  0  0  0  0  0  0  0  0  0  0  0
   -3.6556   -0.2717    0.4508 N   0  0  0  0  0  0  0  0  0  0  0  0
   -3.0828   -1.1225   -0.5692 C   0  0  0  0  0  0  0  0  0  0  0  0
   -2.0253   -0.3427   -1.3403 C   0  0  0  0  0  0  0  0  0  0  0  0
    5.2989    0.7162    1.2429 H   0  0  0  0  0  0  0  0  0  0  0  0
    4.9487    0.1059   -1.0797 H   0  0  0  0  0  0  0  0  0  0  0  0
    0.2328   -0.6066   -2.8637 H   0  0  0  0  0  0  0  0  0  0  0  0
   -0.5507    0.4935    1.6273 H   0  0  0  0  0  0  0  0  0  0  0  0
   -2.7400   -0.1212    2.3952 H   0  0  0  0  0  0  0  0  0  0  0  0
   -3.0658    1.3676    1.5185 H   0  0  0  0  0  0  0  0  0  0  0  0
   -4.3832    0.3765    0.0769 H   0  0  0  0  0  0  0  0  0  0  0  0
   -3.9176   -1.4343   -1.2272 H   0  0  0  0  0  0  0  0  0  0  0  0
   -2.6071   -1.9871   -0.0614 H   0  0  0  0  0  0  0  0  0  0  0  0
   -1.6920   -0.9243   -2.2044 H   0  0  0  0  0  0  0  0  0  0  0  0
   -2.4552    0.6320   -1.6246 H   0  0  0  0  0  0  0  0  0  0  0  0
  1  2  2  0
  2  3  1  0
  3  4  2  0
  4  5  1  0
  5  6  2  0
  6  7  1  0
  7  8  2  0
  8  9  1  0
  9 10  2  0
  8 11  1  0
 11 12  2  0
 12 13  1  0
 13 14  1  0
 14 15  1  0
 15 16  1  0
 10  2  1  0
 16 11  1  0
  9  5  1  0
  3 17  1  0
  4 18  1  0
  7 19  1  0
 12 20  1  0
 13 21  1  0
 13 22  1  0
 14 23  1  0
 15 24  1  0
 15 25  1  0
 16 26  1  0
 16 27  1  0
M  END
>  <Ligand ID>  (1) 
LIG0003233

>  <Ligand>  (1) 
3-[(1,2,5,6-Tetrahydropyridin)-4-yl]-5H-pyrrolo[3,2-b]pyridin-5-one

>  <SMILES>  (1) 
O=C1C=CC2=NC=C(C2=N1)C1=CCNCC1

>  <CID>  (1) 
22388578.0

>  <ChEMBL ID>  (1) 
nan

>  <InChiKey>  (1) 
KXFDXSLJWQLUPK-UHFFFAOYSA-N

>  <InChi>  (1) 
InChI=1S/C12H11N3O/c16-11-2-1-10-12(15-11)9(7-14-10)8-3-5-13-6-4-8/h1-3,7,13H,4-6H2

>  <IUPAC Name>  (1) 
3-(1,2,3,6-tetrahydropyridin-4-yl)pyrrolo[3,2-b]pyridin-5-one

$$$$
