
     RDKit          3D

 34 36  0  0  0  0  0  0  0  0999 V2000
    5.8910    0.7433    0.4327 N   0  0  0  0  0  0  0  0  0  0  0  0
    4.9626   -0.3385    0.2104 C   0  0  0  0  0  0  0  0  0  0  0  0
    3.5146    0.1431    0.3449 C   0  0  1  0  0  0  0  0  0  0  0  0
    3.1998    1.2296   -0.6561 C   0  0  0  0  0  0  0  0  0  0  0  0
    2.5896   -0.2080   -0.7286 C   0  0  2  0  0  0  0  0  0  0  0  0
    1.1149   -0.2476   -0.5575 C   0  0  0  0  0  0  0  0  0  0  0  0
    0.5077    0.5332    0.4197 C   0  0  0  0  0  0  0  0  0  0  0  0
   -0.8647    0.5167    0.6002 C   0  0  0  0  0  0  0  0  0  0  0  0
   -1.6806   -0.2797   -0.1880 C   0  0  0  0  0  0  0  0  0  0  0  0
   -1.0709   -1.0622   -1.1672 C   0  0  0  0  0  0  0  0  0  0  0  0
    0.3120   -1.0446   -1.3480 C   0  0  0  0  0  0  0  0  0  0  0  0
   -3.1193   -0.2769    0.0234 C   0  0  0  0  0  0  0  0  0  0  0  0
   -3.6918    0.9001    0.4596 C   0  0  0  0  0  0  0  0  0  0  0  0
   -5.0631    0.9774    0.6836 C   0  0  0  0  0  0  0  0  0  0  0  0
   -5.8617   -0.1409    0.4659 C   0  0  0  0  0  0  0  0  0  0  0  0
   -5.2565   -1.3204    0.0242 C   0  0  0  0  0  0  0  0  0  0  0  0
   -3.9045   -1.4128   -0.2016 C   0  0  0  0  0  0  0  0  0  0  0  0
   -7.1921   -0.0514    0.6873 F   0  0  0  0  0  0  0  0  0  0  0  0
    6.5351    0.5442    1.2058 H   0  0  0  0  0  0  0  0  0  0  0  0
    5.4701    1.6831    0.4182 H   0  0  0  0  0  0  0  0  0  0  0  0
    5.1575   -0.7215   -0.8177 H   0  0  0  0  0  0  0  0  0  0  0  0
    5.1353   -1.1261    0.9528 H   0  0  0  0  0  0  0  0  0  0  0  0
    3.1145    0.1929    1.3630 H   0  0  0  0  0  0  0  0  0  0  0  0
    3.8902    1.4597   -1.4615 H   0  0  0  0  0  0  0  0  0  0  0  0
    2.4857    2.0318   -0.3393 H   0  0  0  0  0  0  0  0  0  0  0  0
    2.9789   -0.8720   -1.5214 H   0  0  0  0  0  0  0  0  0  0  0  0
    1.1197    1.1639    1.0484 H   0  0  0  0  0  0  0  0  0  0  0  0
   -1.3469    1.1342    1.3735 H   0  0  0  0  0  0  0  0  0  0  0  0
   -1.6722   -1.6971   -1.8033 H   0  0  0  0  0  0  0  0  0  0  0  0
    0.8093   -1.6394   -2.0976 H   0  0  0  0  0  0  0  0  0  0  0  0
   -3.1388    1.8070    0.6498 H   0  0  0  0  0  0  0  0  0  0  0  0
   -5.5529    1.8759    1.0242 H   0  0  0  0  0  0  0  0  0  0  0  0
   -5.9248   -2.1661   -0.1311 H   0  0  0  0  0  0  0  0  0  0  0  0
   -3.4476   -2.3308   -0.5433 H   0  0  0  0  0  0  0  0  0  0  0  0
  1  2  1  0
  2  3  1  0
  3  4  1  0
  4  5  1  0
  5  6  1  0
  6  7  2  0
  7  8  1  0
  8  9  2  0
  9 10  1  0
 10 11  2  0
  9 12  1  0
 12 13  2  0
 13 14  1  0
 14 15  2  0
 15 16  1  0
 16 17  2  0
 15 18  1  0
  5  3  1  0
 11  6  1  0
 17 12  1  0
  1 19  1  0
  1 20  1  0
  2 21  1  0
  2 22  1  0
  3 23  1  1
  4 24  1  0
  4 25  1  0
  5 26  1  6
  7 27  1  0
  8 28  1  0
 10 29  1  0
 11 30  1  0
 13 31  1  0
 14 32  1  0
 16 33  1  0
 17 34  1  0
M  END
>  <Ligand ID>  (1) 
LIG0005670

>  <Ligand>  (1) 
CHEMBL474205

>  <SMILES>  (1) 
NC[C@H]1C[C@@H]1c1ccc(cc1)c1ccc(cc1)F

>  <CID>  (1) 
44572304.0

>  <ChEMBL ID>  (1) 
nan

>  <InChiKey>  (1) 
BZFIBHPMGCECTH-GDBMZVCRSA-N

>  <InChi>  (1) 
InChI=1S/C16H16FN/c17-15-7-5-12(6-8-15)11-1-3-13(4-2-11)16-9-14(16)10-18/h1-8,14,16H,9-10,18H2/t14-,16-/m1/s1

>  <IUPAC Name>  (1) 
[(1S,2S)-2-[4-(4-fluorophenyl)phenyl]cyclopropyl]methanamine

$$$$
