
     RDKit          3D

 29 31  0  0  0  0  0  0  0  0999 V2000
   -1.4099    3.2681   -0.7410 C   0  0  0  0  0  0  0  0  0  0  0  0
   -2.6757    2.8806   -0.3573 C   0  0  0  0  0  0  0  0  0  0  0  0
   -2.9175    1.5900    0.0645 C   0  0  0  0  0  0  0  0  0  0  0  0
   -1.9208    0.6220    0.1271 C   0  0  0  0  0  0  0  0  0  0  0  0
   -0.6641    1.0077   -0.2541 C   0  0  0  0  0  0  0  0  0  0  0  0
   -0.4200    2.3112   -0.6802 C   0  0  0  0  0  0  0  0  0  0  0  0
    0.3687    0.0947   -0.2151 O   0  0  0  0  0  0  0  0  0  0  0  0
    1.6683    0.4839   -0.6066 C   0  0  0  0  0  0  0  0  0  0  0  0
    2.6595   -0.6199   -0.5039 C   0  0  0  0  0  0  0  0  0  0  0  0
    2.9777   -1.5226   -1.4894 C   0  0  0  0  0  0  0  0  0  0  0  0
    3.9273   -2.3528   -0.9689 N   0  0  0  0  0  0  0  0  0  0  0  0
    4.1954   -1.9792    0.3074 C   0  0  0  0  0  0  0  0  0  0  0  0
    3.4168   -0.9170    0.5890 N   0  0  0  0  0  0  0  0  0  0  0  0
   -2.2656   -0.6969    0.5793 C   0  0  0  0  0  0  0  0  0  0  0  0
   -1.5155   -1.8216    0.7399 C   0  0  0  0  0  0  0  0  0  0  0  0
   -2.3376   -2.8410    1.2091 C   0  0  0  0  0  0  0  0  0  0  0  0
   -3.5543   -2.2710    1.3079 N   0  0  0  0  0  0  0  0  0  0  0  0
   -3.4941   -1.0399    0.9422 O   0  0  0  0  0  0  0  0  0  0  0  0
   -1.2028    4.2752   -1.0742 H   0  0  0  0  0  0  0  0  0  0  0  0
   -3.4750    3.6086   -0.3936 H   0  0  0  0  0  0  0  0  0  0  0  0
   -3.9508    1.3741    0.3490 H   0  0  0  0  0  0  0  0  0  0  0  0
    0.5862    2.5701   -0.9711 H   0  0  0  0  0  0  0  0  0  0  0  0
    1.6894    0.9521   -1.6071 H   0  0  0  0  0  0  0  0  0  0  0  0
    1.9673    1.2945    0.1096 H   0  0  0  0  0  0  0  0  0  0  0  0
    2.5832   -1.5972   -2.4849 H   0  0  0  0  0  0  0  0  0  0  0  0
    4.9160   -2.4557    0.9874 H   0  0  0  0  0  0  0  0  0  0  0  0
    3.4253   -0.4275    1.5169 H   0  0  0  0  0  0  0  0  0  0  0  0
   -0.4793   -1.9309    0.5480 H   0  0  0  0  0  0  0  0  0  0  0  0
   -2.0982   -3.8596    1.4494 H   0  0  0  0  0  0  0  0  0  0  0  0
  1  2  2  0
  2  3  1  0
  3  4  2  0
  4  5  1  0
  5  6  2  0
  5  7  1  0
  7  8  1  0
  8  9  1  0
  9 10  2  0
 10 11  1  0
 11 12  2  0
 12 13  1  0
  4 14  1  0
 14 15  2  0
 15 16  1  0
 16 17  2  0
 17 18  1  0
  6  1  1  0
 13  9  1  0
 18 14  1  0
  1 19  1  0
  2 20  1  0
  3 21  1  0
  6 22  1  0
  8 23  1  0
  8 24  1  0
 10 25  1  0
 12 26  1  0
 13 27  1  0
 15 28  1  0
 16 29  1  0
M  END
>  <Ligand ID>  (1) 
LIG0002575

>  <Ligand>  (1) 
CHEMBL115977

>  <SMILES>  (1) 
c1ccc(c(c1)OCc1cnc[nH]1)c1ccno1

>  <CID>  (1) 
44343235.0

>  <ChEMBL ID>  (1) 
nan

>  <InChiKey>  (1) 
SZASDYKMOXPMCV-UHFFFAOYSA-N

>  <InChi>  (1) 
InChI=1S/C13H11N3O2/c1-2-4-12(17-8-10-7-14-9-15-10)11(3-1)13-5-6-16-18-13/h1-7,9H,8H2,(H,14,15)

>  <IUPAC Name>  (1) 
5-[2-(1H-imidazol-5-ylmethoxy)phenyl]-1,2-oxazole

$$$$
