
     RDKit          3D

 35 35  0  0  0  0  0  0  0  0999 V2000
   -1.1508    2.7427    1.3000 O   0  0  0  0  0  0  0  0  0  0  0  0
   -0.7216    2.3969    0.2185 C   0  0  0  0  0  0  0  0  0  0  0  0
    0.8044    2.4119   -0.0390 C   0  0  0  0  0  0  0  0  0  0  0  0
    1.2235    0.9686    0.3003 C   0  0  0  0  0  0  0  0  0  0  0  0
    2.6222    0.5911   -0.0101 C   0  0  0  0  0  0  0  0  0  0  0  0
    2.7722   -0.9537    0.2341 C   0  0  0  0  0  0  0  0  0  0  0  0
    1.6076   -1.6139   -0.5021 C   0  0  0  0  0  0  0  0  0  0  0  0
    0.5045   -1.9552    0.4121 C   0  0  0  0  0  0  0  0  0  0  0  0
   -0.8231   -2.3308   -0.1994 C   0  0  0  0  0  0  0  0  0  0  0  0
   -1.5922   -1.1836   -0.8070 C   0  0  0  0  0  0  0  0  0  0  0  0
   -2.1252   -0.2226    0.2645 C   0  0  0  0  0  0  0  0  0  0  0  0
   -2.7026    1.0436   -0.3006 C   0  0  0  0  0  0  0  0  0  0  0  0
   -1.5974    1.9351   -0.9079 C   0  0  0  0  0  0  0  0  0  0  0  0
    1.2750    3.1196    0.6333 H   0  0  0  0  0  0  0  0  0  0  0  0
    0.9255    2.6382   -1.0984 H   0  0  0  0  0  0  0  0  0  0  0  0
    0.5242    0.3591   -0.2668 H   0  0  0  0  0  0  0  0  0  0  0  0
    1.0062    0.8157    1.3991 H   0  0  0  0  0  0  0  0  0  0  0  0
    3.3982    1.1307    0.5501 H   0  0  0  0  0  0  0  0  0  0  0  0
    2.7699    0.6635   -1.1162 H   0  0  0  0  0  0  0  0  0  0  0  0
    3.7422   -1.1939   -0.2393 H   0  0  0  0  0  0  0  0  0  0  0  0
    2.8236   -1.1829    1.2910 H   0  0  0  0  0  0  0  0  0  0  0  0
    1.3619   -1.0194   -1.3996 H   0  0  0  0  0  0  0  0  0  0  0  0
    2.0188   -2.5837   -0.9368 H   0  0  0  0  0  0  0  0  0  0  0  0
    0.8353   -2.9659    0.8843 H   0  0  0  0  0  0  0  0  0  0  0  0
    0.3851   -1.3412    1.3130 H   0  0  0  0  0  0  0  0  0  0  0  0
   -0.7267   -3.1229   -0.9625 H   0  0  0  0  0  0  0  0  0  0  0  0
   -1.4458   -2.7409    0.6216 H   0  0  0  0  0  0  0  0  0  0  0  0
   -2.5191   -1.6542   -1.2247 H   0  0  0  0  0  0  0  0  0  0  0  0
   -1.1155   -0.6906   -1.6447 H   0  0  0  0  0  0  0  0  0  0  0  0
   -2.9900   -0.7385    0.7789 H   0  0  0  0  0  0  0  0  0  0  0  0
   -1.4146    0.0065    1.0486 H   0  0  0  0  0  0  0  0  0  0  0  0
   -3.0902    1.6183    0.5647 H   0  0  0  0  0  0  0  0  0  0  0  0
   -3.5222    0.8775   -1.0144 H   0  0  0  0  0  0  0  0  0  0  0  0
   -1.0075    1.3765   -1.6347 H   0  0  0  0  0  0  0  0  0  0  0  0
   -2.0560    2.7986   -1.3864 H   0  0  0  0  0  0  0  0  0  0  0  0
  1  2  2  0
  2  3  1  0
  3  4  1  0
  4  5  1  0
  5  6  1  0
  6  7  1  0
  7  8  1  0
  8  9  1  0
  9 10  1  0
 10 11  1  0
 11 12  1  0
 12 13  1  0
 13  2  1  0
  3 14  1  0
  3 15  1  0
  4 16  1  0
  4 17  1  0
  5 18  1  0
  5 19  1  0
  6 20  1  0
  6 21  1  0
  7 22  1  0
  7 23  1  0
  8 24  1  0
  8 25  1  0
  9 26  1  0
  9 27  1  0
 10 28  1  0
 10 29  1  0
 11 30  1  0
 11 31  1  0
 12 32  1  0
 12 33  1  0
 13 34  1  0
 13 35  1  0
M  END
>  <Ligand ID>  (1) 
LIG0005049

>  <Ligand>  (1) 
cyclododecanone

>  <SMILES>  (1) 
O=C1CCCCCCCCCCC1

>  <CID>  (1) 
13246.0

>  <ChEMBL ID>  (1) 
nan

>  <InChiKey>  (1) 
SXVPOSFURRDKBO-UHFFFAOYSA-N

>  <InChi>  (1) 
InChI=1S/C12H22O/c13-12-10-8-6-4-2-1-3-5-7-9-11-12/h1-11H2

>  <IUPAC Name>  (1) 
cyclododecanone

$$$$
