
     RDKit          3D

 39 41  0  0  0  0  0  0  0  0999 V2000
    4.0417    2.2795    1.3752 N   0  0  0  0  0  0  0  0  0  0  0  0
    3.6643    1.6523    0.1330 C   0  0  0  0  0  0  0  0  0  0  0  0
    2.9242    0.3708    0.4553 C   0  0  1  0  0  0  0  0  0  0  0  0
    1.6865    0.4344    1.2447 C   0  0  0  0  0  0  0  0  0  0  0  0
    1.5586    0.1362   -0.2007 C   0  0  2  0  0  0  0  0  0  0  0  0
    1.2187   -1.2540   -0.5580 C   0  0  0  0  0  0  0  0  0  0  0  0
    2.1955   -2.2196   -0.7835 C   0  0  0  0  0  0  0  0  0  0  0  0
    1.8829   -3.5221   -1.1181 C   0  0  0  0  0  0  0  0  0  0  0  0
    0.5686   -3.8981   -1.2375 C   0  0  0  0  0  0  0  0  0  0  0  0
   -0.3901   -2.9393   -1.0133 C   0  0  0  0  0  0  0  0  0  0  0  0
   -0.0861   -1.6393   -0.6795 C   0  0  0  0  0  0  0  0  0  0  0  0
   -1.1648   -0.6824   -0.4581 C   0  0  0  0  0  0  0  0  0  0  0  0
   -2.5219   -0.9398   -0.5483 C   0  0  0  0  0  0  0  0  0  0  0  0
   -3.1886    0.2170   -0.2688 C   0  0  0  0  0  0  0  0  0  0  0  0
   -2.2184    1.1642   -0.0116 C   0  0  0  0  0  0  0  0  0  0  0  0
   -1.0339    0.5812   -0.1367 O   0  0  0  0  0  0  0  0  0  0  0  0
   -2.6407    2.4433    0.3033 C   0  0  0  0  0  0  0  0  0  0  0  0
   -4.0052    2.7106    0.3454 C   0  0  0  0  0  0  0  0  0  0  0  0
   -4.9575    1.7475    0.0846 C   0  0  0  0  0  0  0  0  0  0  0  0
   -4.5375    0.4846   -0.2264 C   0  0  0  0  0  0  0  0  0  0  0  0
    0.6925    0.0000    0.0000 Cl  0  0  0  0  0  0  0  0  0  0  0  0
    4.2937    3.2732    1.3065 H   0  0  0  0  0  0  0  0  0  0  0  0
    3.4794    2.0017    2.1899 H   0  0  0  0  0  0  0  0  0  0  0  0
    2.9537    2.3143   -0.3938 H   0  0  0  0  0  0  0  0  0  0  0  0
    4.5560    1.4588   -0.4974 H   0  0  0  0  0  0  0  0  0  0  0  0
    3.5772   -0.4952    0.6563 H   0  0  0  0  0  0  0  0  0  0  0  0
    1.4543   -0.3848    1.9654 H   0  0  0  0  0  0  0  0  0  0  0  0
    1.2852    1.4150    1.5801 H   0  0  0  0  0  0  0  0  0  0  0  0
    1.1710    0.9361   -0.8591 H   0  0  0  0  0  0  0  0  0  0  0  0
    3.2381   -1.9776   -0.7031 H   0  0  0  0  0  0  0  0  0  0  0  0
    2.6434   -4.2712   -1.2931 H   0  0  0  0  0  0  0  0  0  0  0  0
    0.3373   -4.9212   -1.5000 H   0  0  0  0  0  0  0  0  0  0  0  0
   -1.4470   -3.2199   -1.1037 H   0  0  0  0  0  0  0  0  0  0  0  0
   -2.9947   -1.9017   -0.7999 H   0  0  0  0  0  0  0  0  0  0  0  0
   -1.9106    3.2195    0.5129 H   0  0  0  0  0  0  0  0  0  0  0  0
   -4.3361    3.7104    0.5916 H   0  0  0  0  0  0  0  0  0  0  0  0
   -6.0081    2.0078    0.1307 H   0  0  0  0  0  0  0  0  0  0  0  0
   -5.2890   -0.2920   -0.4364 H   0  0  0  0  0  0  0  0  0  0  0  0
   -0.6925    0.0000    0.0000 H   0  0  0  0  0  0  0  0  0  0  0  0
  1  2  1  0
  2  3  1  0
  3  4  1  0
  4  5  1  0
  5  6  1  0
  6  7  2  0
  7  8  1  0
  8  9  2  0
  9 10  1  0
 10 11  2  0
 11 12  1  0
 12 13  2  0
 13 14  1  0
 14 15  2  0
 15 16  1  0
 15 17  1  0
 17 18  2  0
 18 19  1  0
 19 20  2  0
  5  3  1  0
 11  6  1  0
 16 12  1  0
 20 14  1  0
  1 22  1  0
  1 23  1  0
  2 24  1  0
  2 25  1  0
  3 26  1  1
  4 27  1  0
  4 28  1  0
  5 29  1  6
  7 30  1  0
  8 31  1  0
  9 32  1  0
 10 33  1  0
 13 34  1  0
 17 35  1  0
 18 36  1  0
 19 37  1  0
 20 38  1  0
 21 39  1  0
M  END
>  <Ligand ID>  (1) 
LIG0005681

>  <Ligand>  (1) 
CHEMBL475021

>  <SMILES>  (1) 
NC[C@H]1C[C@@H]1c1ccccc1c1cc2c(o1)cccc2.Cl

>  <CID>  (1) 
44572253.0

>  <ChEMBL ID>  (1) 
nan

>  <InChiKey>  (1) 
JNWUOOOAQMAKFB-CACIRBSMSA-N

>  <InChi>  (1) 
InChI=1S/C18H17NO.ClH/c19-11-13-9-16(13)14-6-2-3-7-15(14)18-10-12-5-1-4-8-17(12)20-18;/h1-8,10,13,16H,9,11,19H2;1H/t13-,16+;/m1./s1

>  <IUPAC Name>  (1) 
[(1S,2S)-2-[2-(1-benzofuran-2-yl)phenyl]cyclopropyl]methanamine;hydrochloride

$$$$
