
     RDKit          3D

 65 68  0  0  0  0  0  0  0  0999 V2000
    5.1091   -1.1808   -2.5091 O   0  0  0  0  0  0  0  0  0  0  0  0
    5.0794    0.0961   -2.0298 C   0  0  2  0  0  0  0  0  0  0  0  0
    6.1062    0.3100   -0.9509 C   0  0  0  0  0  0  0  0  0  0  0  0
    5.9382   -0.5287    0.1701 O   0  0  0  0  0  0  0  0  0  0  0  0
    6.8554   -0.4039    1.2337 C   0  0  0  0  0  0  0  0  0  0  0  0
    7.8603    0.5467    1.0840 C   0  0  0  0  0  0  0  0  0  0  0  0
    8.7827    0.6894    2.1254 C   0  0  0  0  0  0  0  0  0  0  0  0
    8.6833   -0.0952    3.2560 C   0  0  0  0  0  0  0  0  0  0  0  0
    7.6830   -1.0449    3.4107 C   0  0  0  0  0  0  0  0  0  0  0  0
    6.7629   -1.1831    2.3649 C   0  0  0  0  0  0  0  0  0  0  0  0
    9.6209    0.0764    4.2718 O   0  0  0  0  0  0  0  0  0  0  0  0
    3.7420    0.5584   -1.5000 C   0  0  0  0  0  0  0  0  0  0  0  0
    2.7054    0.5446   -2.4693 N   0  0  0  0  0  0  0  0  0  0  0  0
    2.2527   -0.7102   -2.9444 C   0  0  0  0  0  0  0  0  0  0  0  0
    1.5046   -1.5174   -1.9151 C   0  0  0  0  0  0  0  0  0  0  0  0
    0.3008   -0.7110   -1.4993 C   0  0  0  0  0  0  0  0  0  0  0  0
    0.3378    0.1529   -0.4262 C   0  0  0  0  0  0  0  0  0  0  0  0
   -0.8233    0.8696   -0.1173 C   0  0  0  0  0  0  0  0  0  0  0  0
   -1.9741    0.7127   -0.8705 C   0  0  0  0  0  0  0  0  0  0  0  0
   -2.0197   -0.1597   -1.9582 C   0  0  0  0  0  0  0  0  0  0  0  0
   -0.8579   -0.8552   -2.2405 C   0  0  0  0  0  0  0  0  0  0  0  0
   -3.1765    1.4232   -0.5837 N   0  0  0  0  0  0  0  0  0  0  0  0
   -4.1988    0.9284    0.2540 C   0  0  0  0  0  0  0  0  0  0  0  0
   -4.0855   -0.2051    0.7998 O   0  0  0  0  0  0  0  0  0  0  0  0
   -5.3937    1.7864    0.4612 C   0  0  0  0  0  0  0  0  0  0  0  0
   -6.4102    1.1775    1.3301 C   0  0  0  0  0  0  0  0  0  0  0  0
   -6.5951    1.5552    2.6613 C   0  0  0  0  0  0  0  0  0  0  0  0
   -7.5669    0.9553    3.4542 C   0  0  0  0  0  0  0  0  0  0  0  0
   -8.3589   -0.0371    2.8912 C   0  0  0  0  0  0  0  0  0  0  0  0
   -8.1875   -0.4286    1.5579 C   0  0  0  0  0  0  0  0  0  0  0  0
   -7.2074    0.1816    0.7708 C   0  0  0  0  0  0  0  0  0  0  0  0
   -7.0407   -0.2098   -0.5554 C   0  0  0  0  0  0  0  0  0  0  0  0
   -7.8406   -1.1991   -1.0959 C   0  0  0  0  0  0  0  0  0  0  0  0
   -8.8140   -1.8033   -0.3099 C   0  0  0  0  0  0  0  0  0  0  0  0
   -8.9837   -1.4164    1.0124 C   0  0  0  0  0  0  0  0  0  0  0  0
    5.5171   -1.3170   -3.3880 H   0  0  0  0  0  0  0  0  0  0  0  0
    5.3353    0.7782   -2.8707 H   0  0  0  0  0  0  0  0  0  0  0  0
    7.1218    0.0983   -1.3833 H   0  0  0  0  0  0  0  0  0  0  0  0
    6.1402    1.3925   -0.6499 H   0  0  0  0  0  0  0  0  0  0  0  0
    7.9625    1.1708    0.2155 H   0  0  0  0  0  0  0  0  0  0  0  0
    9.5626    1.4401    1.9888 H   0  0  0  0  0  0  0  0  0  0  0  0
    7.6181   -1.6547    4.3057 H   0  0  0  0  0  0  0  0  0  0  0  0
    5.9775   -1.9186    2.4711 H   0  0  0  0  0  0  0  0  0  0  0  0
   10.6054   -0.1146    4.0339 H   0  0  0  0  0  0  0  0  0  0  0  0
    3.4726   -0.0081   -0.5707 H   0  0  0  0  0  0  0  0  0  0  0  0
    3.8785    1.6082   -1.1656 H   0  0  0  0  0  0  0  0  0  0  0  0
    2.8490    1.2372   -3.2082 H   0  0  0  0  0  0  0  0  0  0  0  0
    1.4788   -0.4815   -3.7374 H   0  0  0  0  0  0  0  0  0  0  0  0
    3.0060   -1.3170   -3.5048 H   0  0  0  0  0  0  0  0  0  0  0  0
    2.1045   -1.8459   -1.0604 H   0  0  0  0  0  0  0  0  0  0  0  0
    1.1311   -2.4434   -2.4007 H   0  0  0  0  0  0  0  0  0  0  0  0
    1.2261    0.2800    0.1642 H   0  0  0  0  0  0  0  0  0  0  0  0
   -0.8202    1.5632    0.7313 H   0  0  0  0  0  0  0  0  0  0  0  0
   -2.9151   -0.2876   -2.5509 H   0  0  0  0  0  0  0  0  0  0  0  0
   -0.9141   -1.5359   -3.0986 H   0  0  0  0  0  0  0  0  0  0  0  0
   -3.2654    2.3684   -1.0448 H   0  0  0  0  0  0  0  0  0  0  0  0
   -5.0311    2.7257    0.9729 H   0  0  0  0  0  0  0  0  0  0  0  0
   -5.7734    2.1351   -0.5173 H   0  0  0  0  0  0  0  0  0  0  0  0
   -5.9731    2.3293    3.0908 H   0  0  0  0  0  0  0  0  0  0  0  0
   -7.7158    1.2452    4.4925 H   0  0  0  0  0  0  0  0  0  0  0  0
   -9.1375   -0.5482    3.4513 H   0  0  0  0  0  0  0  0  0  0  0  0
   -6.2710    0.2712   -1.1688 H   0  0  0  0  0  0  0  0  0  0  0  0
   -7.7442   -1.5368   -2.1288 H   0  0  0  0  0  0  0  0  0  0  0  0
   -9.4637   -2.5909   -0.7122 H   0  0  0  0  0  0  0  0  0  0  0  0
   -9.7528   -1.9180    1.5723 H   0  0  0  0  0  0  0  0  0  0  0  0
  1  2  1  0
  2  3  1  0
  3  4  1  0
  4  5  1  0
  5  6  2  0
  6  7  1  0
  7  8  2  0
  8  9  1  0
  9 10  2  0
  8 11  1  0
  2 12  1  0
 12 13  1  0
 13 14  1  0
 14 15  1  0
 15 16  1  0
 16 17  2  0
 17 18  1  0
 18 19  2  0
 19 20  1  0
 20 21  2  0
 19 22  1  0
 22 23  1  0
 23 24  2  0
 23 25  1  0
 25 26  1  0
 26 27  2  0
 27 28  1  0
 28 29  2  0
 29 30  1  0
 30 31  2  0
 31 32  1  0
 32 33  2  0
 33 34  1  0
 34 35  2  0
 10  5  1  0
 21 16  1  0
 31 26  1  0
 35 30  1  0
  1 36  1  0
  2 37  1  6
  3 38  1  0
  3 39  1  0
  6 40  1  0
  7 41  1  0
  9 42  1  0
 10 43  1  0
 11 44  1  0
 12 45  1  0
 12 46  1  0
 13 47  1  0
 14 48  1  0
 14 49  1  0
 15 50  1  0
 15 51  1  0
 17 52  1  0
 18 53  1  0
 20 54  1  0
 21 55  1  0
 22 56  1  0
 25 57  1  0
 25 58  1  0
 27 59  1  0
 28 60  1  0
 29 61  1  0
 32 62  1  0
 33 63  1  0
 34 64  1  0
 35 65  1  0
M  END
>  <Ligand ID>  (1) 
LIG0002746

>  <Ligand>  (1) 
CHEMBL564556

>  <SMILES>  (1) 
O[C@H](COc1ccc(cc1)O)CNCCc1ccc(cc1)NC(=O)Cc1cccc2c1cccc2

>  <CID>  (1) 
44127782.0

>  <ChEMBL ID>  (1) 
nan

>  <InChiKey>  (1) 
IPYPCQMHTBQKKH-SANMLTNESA-N

>  <InChi>  (1) 
InChI=1S/C29H30N2O4/c32-25-12-14-27(15-13-25)35-20-26(33)19-30-17-16-21-8-10-24(11-9-21)31-29(34)18-23-6-3-5-22-4-1-2-7-28(22)23/h1-15,26,30,32-33H,16-20H2,(H,31,34)/t26-/m0/s1

>  <IUPAC Name>  (1) 
N-[4-[2-[[(2S)-2-hydroxy-3-(4-hydroxyphenoxy)propyl]amino]ethyl]phenyl]-2-naphthalen-1-ylacetamide

$$$$
