
     RDKit          3D

 42 43  0  0  0  0  0  0  0  0999 V2000
    1.6379   -0.9856   -0.1014 O   0  0  0  0  0  0  0  0  0  0  0  0
    1.3750    0.2253   -0.0819 C   0  0  0  0  0  0  0  0  0  0  0  0
    0.6080    0.8323   -1.1413 N   0  0  0  0  0  0  0  0  0  0  0  0
    0.1134    0.0719   -2.2625 C   0  0  0  0  0  0  0  0  0  0  0  0
    0.7377    0.5535   -3.5723 C   0  0  0  0  0  0  0  0  0  0  0  0
    2.4936    0.3934   -3.5597 Cl  0  0  0  0  0  0  0  0  0  0  0  0
    0.1383   -0.5476   -4.8584 Cl  0  0  0  0  0  0  0  0  0  0  0  0
    0.1825    2.1840   -3.9969 Cl  0  0  0  0  0  0  0  0  0  0  0  0
   -1.3157    0.2956   -2.3543 N   0  0  0  0  0  0  0  0  0  0  0  0
   -2.2272   -0.0343   -1.3124 C   0  0  0  0  0  0  0  0  0  0  0  0
   -1.6889   -0.7046    0.0865 S   0  0  0  0  0  0  0  0  0  0  0  0
   -3.6307    0.1874   -1.4070 N   0  0  0  0  0  0  0  0  0  0  0  0
   -4.5466   -0.1382   -0.3739 C   0  0  0  0  0  0  0  0  0  0  0  0
   -4.8616    0.7831    0.6038 C   0  0  0  0  0  0  0  0  0  0  0  0
   -5.7655    0.4396    1.6101 C   0  0  0  0  0  0  0  0  0  0  0  0
   -6.3530   -0.8197    1.6403 C   0  0  0  0  0  0  0  0  0  0  0  0
   -6.0132   -1.7148    0.6453 C   0  0  0  0  0  0  0  0  0  0  0  0
   -5.1225   -1.3964   -0.3585 C   0  0  0  0  0  0  0  0  0  0  0  0
   -4.7305   -2.5835   -1.5995 Cl  0  0  0  0  0  0  0  0  0  0  0  0
   -7.4893   -1.2756    2.8910 Cl  0  0  0  0  0  0  0  0  0  0  0  0
    1.7925    1.0323    0.9287 O   0  0  0  0  0  0  0  0  0  0  0  0
    2.5485    0.6731    2.0631 C   0  0  0  0  0  0  0  0  0  0  0  0
    3.8676    0.1098    1.7843 C   0  0  0  0  0  0  0  0  0  0  0  0
    4.9336    0.9791    1.6389 C   0  0  0  0  0  0  0  0  0  0  0  0
    6.2232    0.5336    1.3799 C   0  0  0  0  0  0  0  0  0  0  0  0
    6.4639   -0.8370    1.2601 C   0  0  0  0  0  0  0  0  0  0  0  0
    5.4162   -1.7207    1.4015 C   0  0  0  0  0  0  0  0  0  0  0  0
    4.1499   -1.2338    1.6587 C   0  0  0  0  0  0  0  0  0  0  0  0
    0.3860    1.8518   -1.1269 H   0  0  0  0  0  0  0  0  0  0  0  0
    0.3775   -1.0102   -2.1798 H   0  0  0  0  0  0  0  0  0  0  0  0
   -1.7550    0.7253   -3.2227 H   0  0  0  0  0  0  0  0  0  0  0  0
   -3.9813    0.6091   -2.2836 H   0  0  0  0  0  0  0  0  0  0  0  0
   -4.4280    1.7765    0.6201 H   0  0  0  0  0  0  0  0  0  0  0  0
   -6.0313    1.1425    2.3902 H   0  0  0  0  0  0  0  0  0  0  0  0
   -6.4847   -2.6909    0.6903 H   0  0  0  0  0  0  0  0  0  0  0  0
    2.6891    1.5871    2.6702 H   0  0  0  0  0  0  0  0  0  0  0  0
    1.9717   -0.0289    2.7113 H   0  0  0  0  0  0  0  0  0  0  0  0
    4.7768    2.0522    1.7270 H   0  0  0  0  0  0  0  0  0  0  0  0
    7.0585    1.2114    1.2658 H   0  0  0  0  0  0  0  0  0  0  0  0
    7.4782   -1.1775    1.0568 H   0  0  0  0  0  0  0  0  0  0  0  0
    5.6424   -2.7755    1.3019 H   0  0  0  0  0  0  0  0  0  0  0  0
    3.3631   -1.9517    1.7671 H   0  0  0  0  0  0  0  0  0  0  0  0
  1  2  2  0
  2  3  1  0
  3  4  1  0
  4  5  1  0
  5  6  1  0
  5  7  1  0
  5  8  1  0
  4  9  1  0
  9 10  1  0
 10 11  2  0
 10 12  1  0
 12 13  1  0
 13 14  2  0
 14 15  1  0
 15 16  2  0
 16 17  1  0
 17 18  2  0
 18 19  1  0
 16 20  1  0
  2 21  1  0
 21 22  1  0
 22 23  1  0
 23 24  2  0
 24 25  1  0
 25 26  2  0
 26 27  1  0
 27 28  2  0
 18 13  1  0
 28 23  1  0
  3 29  1  0
  4 30  1  0
  9 31  1  0
 12 32  1  0
 14 33  1  0
 15 34  1  0
 17 35  1  0
 22 36  1  0
 22 37  1  0
 24 38  1  0
 25 39  1  0
 26 40  1  0
 27 41  1  0
 28 42  1  0
M  END
>  <Ligand ID>  (1) 
LIG0002694

>  <Ligand>  (1) 
MLS-0425695.0001

>  <SMILES>  (1) 
O=C(NC(C(Cl)(Cl)Cl)NC(=S)Nc1ccc(cc1Cl)Cl)OCc1ccccc1

>  <CID>  (1) 
3093316.0

>  <ChEMBL ID>  (1) 
nan

>  <InChiKey>  (1) 
FHZZAIRIVDIBAH-UHFFFAOYSA-N

>  <InChi>  (1) 
InChI=1S/C17H14Cl5N3O2S/c18-11-6-7-13(12(19)8-11)23-15(28)24-14(17(20,21)22)25-16(26)27-9-10-4-2-1-3-5-10/h1-8,14H,9H2,(H,25,26)(H2,23,24,28)

>  <IUPAC Name>  (1) 
benzyl N-[2,2,2-trichloro-1-[(2,4-dichlorophenyl)carbamothioylamino]ethyl]carbamate

$$$$
