
     RDKit          3D

143147  0  0  0  0  0  0  0  0999 V2000
   12.1351    0.0289   -0.1909 C   0  0  0  0  0  0  0  0  0  0  0  0
   11.5695    0.0976    1.1902 C   0  0  0  0  0  0  0  0  0  0  0  0
   10.5601   -0.8834    1.6052 C   0  0  0  0  0  0  0  0  0  0  0  0
    9.2226   -0.9893    1.0197 C   0  0  0  0  0  0  0  0  0  0  0  0
    8.9942   -1.3138   -0.3932 C   0  0  1  0  0  0  0  0  0  0  0  0
    7.4492   -1.3377   -0.5443 C   0  0  0  0  0  0  0  0  0  0  0  0
    6.9848   -0.6670   -1.5202 O   0  0  0  0  0  0  0  0  0  0  0  0
    6.6494   -2.0576    0.3530 N   0  0  0  0  0  0  0  0  0  0  0  0
    5.1886   -1.9980    0.1021 C   0  0  1  0  0  0  0  0  0  0  0  0
    4.6565   -3.3768    0.3078 C   0  0  0  0  0  0  0  0  0  0  0  0
    3.2129   -3.4839    0.5874 C   0  0  0  0  0  0  0  0  0  0  0  0
    2.4187   -2.5377    0.6461 O   0  0  0  0  0  0  0  0  0  0  0  0
    2.5773   -4.7745    0.8416 N   0  0  0  0  0  0  0  0  0  0  0  0
    1.1801   -4.8287    1.1631 C   0  0  0  0  0  0  0  0  0  0  0  0
    0.2399   -4.3130    0.1366 C   0  0  0  0  0  0  0  0  0  0  0  0
   -1.1775   -4.2093    0.7079 C   0  0  0  0  0  0  0  0  0  0  0  0
   -2.1635   -3.6155   -0.1912 C   0  0  0  0  0  0  0  0  0  0  0  0
   -3.3162   -4.5057   -0.6947 C   0  0  1  0  0  0  0  0  0  0  0  0
   -4.1030   -3.6435   -1.6143 N   0  0  0  0  0  0  0  0  0  0  0  0
   -4.9089   -2.6089   -1.0468 C   0  0  0  0  0  0  0  0  0  0  0  0
   -4.9440   -2.5693    0.1815 O   0  0  0  0  0  0  0  0  0  0  0  0
   -5.6426   -1.6362   -1.9455 C   0  0  2  0  0  0  0  0  0  0  0  0
   -5.7646   -0.3797   -1.1403 N   0  0  0  0  0  0  0  0  0  0  0  0
   -4.6557    0.4636   -1.2014 C   0  0  0  0  0  0  0  0  0  0  0  0
   -3.7045    0.1475   -1.9287 O   0  0  0  0  0  0  0  0  0  0  0  0
   -4.4647    1.7817   -0.4482 C   0  0  1  0  0  0  0  0  0  0  0  0
   -3.1168    2.0747   -0.9861 N   0  0  0  0  0  0  0  0  0  0  0  0
   -1.9355    1.9421   -0.1590 C   0  0  0  0  0  0  0  0  0  0  0  0
   -2.1835    1.6994    1.0198 O   0  0  0  0  0  0  0  0  0  0  0  0
   -0.6081    2.0904   -0.6939 C   0  0  2  0  0  0  0  0  0  0  0  0
    0.4885    2.0487    0.3129 N   0  0  0  0  0  0  0  0  0  0  0  0
    1.5537    1.1558    0.2502 C   0  0  0  0  0  0  0  0  0  0  0  0
    1.3898    0.3289   -0.7644 O   0  0  0  0  0  0  0  0  0  0  0  0
    2.7615    0.9017    0.9830 C   0  0  1  0  0  0  0  0  0  0  0  0
    3.5351   -0.1649    0.3046 N   0  0  0  0  0  0  0  0  0  0  0  0
    4.5389   -0.9467    0.9317 C   0  0  0  0  0  0  0  0  0  0  0  0
    4.7993   -0.6779    2.1036 O   0  0  0  0  0  0  0  0  0  0  0  0
    3.6429    2.0542    1.2918 C   0  0  0  0  0  0  0  0  0  0  0  0
    3.1506    3.0649    2.2010 C   0  0  0  0  0  0  0  0  0  0  0  0
    3.8688    4.2098    2.4579 N   0  0  0  0  0  0  0  0  0  0  0  0
    3.2614    4.9456    3.3855 C   0  0  0  0  0  0  0  0  0  0  0  0
    2.1228    4.3037    3.7684 N   0  0  0  0  0  0  0  0  0  0  0  0
    2.0687    3.1624    3.0418 C   0  0  0  0  0  0  0  0  0  0  0  0
   -0.4579    3.2913   -1.5605 C   0  0  0  0  0  0  0  0  0  0  0  0
   -0.6987    4.5964   -0.9655 C   0  0  0  0  0  0  0  0  0  0  0  0
    0.3412    5.2244   -0.2726 C   0  0  0  0  0  0  0  0  0  0  0  0
    0.1950    6.4637    0.3002 C   0  0  0  0  0  0  0  0  0  0  0  0
   -1.0356    7.1226    0.1883 C   0  0  0  0  0  0  0  0  0  0  0  0
   -2.0762    6.5124   -0.4964 C   0  0  0  0  0  0  0  0  0  0  0  0
   -1.8921    5.2742   -1.0553 C   0  0  0  0  0  0  0  0  0  0  0  0
   -1.1795    8.3619    0.7622 F   0  0  0  0  0  0  0  0  0  0  0  0
   -5.5440    2.6657   -0.8916 C   0  0  0  0  0  0  0  0  0  0  0  0
   -5.5160    4.0023   -0.2223 C   0  0  0  0  0  0  0  0  0  0  0  0
   -5.6794    3.8338    1.2807 C   0  0  0  0  0  0  0  0  0  0  0  0
   -5.6453    5.1279    1.9341 N   0  0  0  0  0  0  0  0  0  0  0  0
   -6.6343    5.9235    1.7881 C   0  0  0  0  0  0  0  0  0  0  0  0
   -6.5579    7.1847    2.4472 N   0  0  0  0  0  0  0  0  0  0  0  0
   -7.7919    5.6619    1.0335 N   0  0  0  0  0  0  0  0  0  0  0  0
   -6.9149   -2.0821   -2.4892 C   0  0  0  0  0  0  0  0  0  0  0  0
   -8.0063   -2.3995   -1.5629 C   0  0  0  0  0  0  0  0  0  0  0  0
   -9.0730   -1.5292   -1.3455 C   0  0  0  0  0  0  0  0  0  0  0  0
   -9.9369   -2.0415   -0.4567 N   0  0  0  0  0  0  0  0  0  0  0  0
   -9.4389   -3.2531   -0.0849 C   0  0  0  0  0  0  0  0  0  0  0  0
   -8.2563   -3.4785   -0.7580 C   0  0  0  0  0  0  0  0  0  0  0  0
   -7.5721   -4.6379   -0.5501 C   0  0  0  0  0  0  0  0  0  0  0  0
   -8.0962   -5.5640    0.3448 C   0  0  0  0  0  0  0  0  0  0  0  0
   -9.2838   -5.3424    1.0231 C   0  0  0  0  0  0  0  0  0  0  0  0
   -9.9787   -4.1729    0.8160 C   0  0  0  0  0  0  0  0  0  0  0  0
   -2.8708   -5.7421   -1.3077 C   0  0  0  0  0  0  0  0  0  0  0  0
   -3.0912   -6.0284   -2.5333 O   0  0  0  0  0  0  0  0  0  0  0  0
   -2.1592   -6.7118   -0.5673 N   0  0  0  0  0  0  0  0  0  0  0  0
    9.4702   -0.3998   -1.3861 N   0  0  0  0  0  0  0  0  0  0  0  0
   10.0034   -0.7940   -2.6581 C   0  0  0  0  0  0  0  0  0  0  0  0
   10.1093   -1.9749   -3.0340 O   0  0  0  0  0  0  0  0  0  0  0  0
   10.4634    0.2888   -3.5994 C   0  0  0  0  0  0  0  0  0  0  0  0
   11.8029    0.8236   -0.8756 H   0  0  0  0  0  0  0  0  0  0  0  0
   12.0351   -0.9723   -0.6658 H   0  0  0  0  0  0  0  0  0  0  0  0
   13.2751    0.1907   -0.1523 H   0  0  0  0  0  0  0  0  0  0  0  0
   12.4497   -0.0160    1.9125 H   0  0  0  0  0  0  0  0  0  0  0  0
   11.2197    1.1685    1.3915 H   0  0  0  0  0  0  0  0  0  0  0  0
   10.4019   -0.8127    2.7461 H   0  0  0  0  0  0  0  0  0  0  0  0
   11.0521   -1.9217    1.4950 H   0  0  0  0  0  0  0  0  0  0  0  0
    8.6020   -0.0486    1.2748 H   0  0  0  0  0  0  0  0  0  0  0  0
    8.6734   -1.7549    1.6932 H   0  0  0  0  0  0  0  0  0  0  0  0
    9.3348   -2.3531   -0.6565 H   0  0  0  0  0  0  0  0  0  0  0  0
    6.9930   -2.6194    1.1606 H   0  0  0  0  0  0  0  0  0  0  0  0
    5.1314   -1.7316   -0.9752 H   0  0  0  0  0  0  0  0  0  0  0  0
    4.8483   -3.9349   -0.6655 H   0  0  0  0  0  0  0  0  0  0  0  0
    5.2047   -3.9432    1.0963 H   0  0  0  0  0  0  0  0  0  0  0  0
    3.2263   -5.5566    0.7594 H   0  0  0  0  0  0  0  0  0  0  0  0
    0.9358   -5.8897    1.4324 H   0  0  0  0  0  0  0  0  0  0  0  0
    1.0313   -4.2886    2.1632 H   0  0  0  0  0  0  0  0  0  0  0  0
    0.5811   -3.3968   -0.3019 H   0  0  0  0  0  0  0  0  0  0  0  0
    0.1607   -5.1175   -0.6580 H   0  0  0  0  0  0  0  0  0  0  0  0
   -1.5072   -5.1957    1.0866 H   0  0  0  0  0  0  0  0  0  0  0  0
   -1.0562   -3.5158    1.6058 H   0  0  0  0  0  0  0  0  0  0  0  0
   -2.6959   -2.7500    0.3273 H   0  0  0  0  0  0  0  0  0  0  0  0
   -1.6365   -3.1074   -1.0329 H   0  0  0  0  0  0  0  0  0  0  0  0
   -3.9906   -4.6058    0.2024 H   0  0  0  0  0  0  0  0  0  0  0  0
   -4.1150   -3.7332   -2.6158 H   0  0  0  0  0  0  0  0  0  0  0  0
   -4.9057   -1.4149   -2.7271 H   0  0  0  0  0  0  0  0  0  0  0  0
   -6.5647   -0.1289   -0.5925 H   0  0  0  0  0  0  0  0  0  0  0  0
   -4.4757    1.5771    0.6121 H   0  0  0  0  0  0  0  0  0  0  0  0
   -2.9413    2.3807   -1.9357 H   0  0  0  0  0  0  0  0  0  0  0  0
   -0.4485    1.2126   -1.4115 H   0  0  0  0  0  0  0  0  0  0  0  0
    0.3980    2.7173    1.0427 H   0  0  0  0  0  0  0  0  0  0  0  0
    2.5255    0.4101    1.9869 H   0  0  0  0  0  0  0  0  0  0  0  0
    3.3457   -0.3486   -0.6728 H   0  0  0  0  0  0  0  0  0  0  0  0
    3.9998    2.5042    0.3277 H   0  0  0  0  0  0  0  0  0  0  0  0
    4.6031    1.5947    1.7080 H   0  0  0  0  0  0  0  0  0  0  0  0
    4.7800    4.4858    1.9893 H   0  0  0  0  0  0  0  0  0  0  0  0
    3.6113    5.8742    3.7582 H   0  0  0  0  0  0  0  0  0  0  0  0
    1.2865    2.4253    3.1278 H   0  0  0  0  0  0  0  0  0  0  0  0
   -1.1270    3.2138   -2.4738 H   0  0  0  0  0  0  0  0  0  0  0  0
    0.5692    3.3339   -2.0377 H   0  0  0  0  0  0  0  0  0  0  0  0
    1.2850    4.6763   -0.2127 H   0  0  0  0  0  0  0  0  0  0  0  0
    0.9980    6.9566    0.8388 H   0  0  0  0  0  0  0  0  0  0  0  0
   -3.0321    7.0479   -0.5762 H   0  0  0  0  0  0  0  0  0  0  0  0
   -2.6762    4.7685   -1.6095 H   0  0  0  0  0  0  0  0  0  0  0  0
   -5.6798    2.7366   -1.9922 H   0  0  0  0  0  0  0  0  0  0  0  0
   -6.5177    2.1877   -0.5560 H   0  0  0  0  0  0  0  0  0  0  0  0
   -4.5957    4.5819   -0.3521 H   0  0  0  0  0  0  0  0  0  0  0  0
   -6.4111    4.5926   -0.5498 H   0  0  0  0  0  0  0  0  0  0  0  0
   -6.6850    3.3663    1.5031 H   0  0  0  0  0  0  0  0  0  0  0  0
   -4.9304    3.1786    1.7356 H   0  0  0  0  0  0  0  0  0  0  0  0
   -6.3273    8.0247    1.8557 H   0  0  0  0  0  0  0  0  0  0  0  0
   -6.7126    7.3348    3.4455 H   0  0  0  0  0  0  0  0  0  0  0  0
   -8.3201    4.7769    1.1224 H   0  0  0  0  0  0  0  0  0  0  0  0
   -8.1074    6.4154    0.3651 H   0  0  0  0  0  0  0  0  0  0  0  0
   -7.2562   -1.3218   -3.2540 H   0  0  0  0  0  0  0  0  0  0  0  0
   -6.6916   -2.9800   -3.1486 H   0  0  0  0  0  0  0  0  0  0  0  0
   -9.2084   -0.5603   -1.8221 H   0  0  0  0  0  0  0  0  0  0  0  0
  -10.8280   -1.5974   -0.1092 H   0  0  0  0  0  0  0  0  0  0  0  0
   -6.6618   -4.8273   -1.0715 H   0  0  0  0  0  0  0  0  0  0  0  0
   -7.5911   -6.5073    0.5563 H   0  0  0  0  0  0  0  0  0  0  0  0
   -9.6971   -6.0695    1.7272 H   0  0  0  0  0  0  0  0  0  0  0  0
  -10.9114   -3.9254    1.3063 H   0  0  0  0  0  0  0  0  0  0  0  0
   -2.6638   -7.1151    0.2678 H   0  0  0  0  0  0  0  0  0  0  0  0
   -1.2034   -7.0579   -0.7727 H   0  0  0  0  0  0  0  0  0  0  0  0
    9.4302    0.6311   -1.1842 H   0  0  0  0  0  0  0  0  0  0  0  0
    9.8394    0.1785   -4.5130 H   0  0  0  0  0  0  0  0  0  0  0  0
   10.2951    1.2876   -3.1535 H   0  0  0  0  0  0  0  0  0  0  0  0
   11.5191    0.0994   -3.8484 H   0  0  0  0  0  0  0  0  0  0  0  0
  1  2  1  0
  2  3  1  0
  3  4  1  0
  4  5  1  0
  5  6  1  0
  6  7  2  0
  6  8  1  0
  8  9  1  0
  9 10  1  0
 10 11  1  0
 11 12  2  0
 11 13  1  0
 13 14  1  0
 14 15  1  0
 15 16  1  0
 16 17  1  0
 17 18  1  0
 18 19  1  0
 19 20  1  0
 20 21  2  0
 20 22  1  0
 22 23  1  0
 23 24  1  0
 24 25  2  0
 24 26  1  0
 26 27  1  0
 27 28  1  0
 28 29  2  0
 28 30  1  0
 30 31  1  0
 31 32  1  0
 32 33  2  0
 32 34  1  0
 34 35  1  0
 35 36  1  0
 36 37  2  0
 34 38  1  0
 38 39  1  0
 39 40  1  0
 40 41  1  0
 41 42  2  0
 42 43  1  0
 30 44  1  0
 44 45  1  0
 45 46  2  0
 46 47  1  0
 47 48  2  0
 48 49  1  0
 49 50  2  0
 48 51  1  0
 26 52  1  0
 52 53  1  0
 53 54  1  0
 54 55  1  0
 55 56  2  3
 56 57  1  0
 56 58  1  0
 22 59  1  0
 59 60  1  0
 60 61  2  0
 61 62  1  0
 62 63  1  0
 63 64  2  0
 64 65  1  0
 65 66  2  0
 66 67  1  0
 67 68  2  0
 18 69  1  0
 69 70  2  0
 69 71  1  0
  5 72  1  0
 72 73  1  0
 73 74  2  0
 73 75  1  0
 36  9  1  0
 43 39  2  0
 50 45  1  0
 64 60  1  0
 68 63  1  0
  1 76  1  0
  1 77  1  0
  1 78  1  0
  2 79  1  0
  2 80  1  0
  3 81  1  0
  3 82  1  0
  4 83  1  0
  4 84  1  0
  5 85  1  6
  8 86  1  0
  9 87  1  6
 10 88  1  0
 10 89  1  0
 13 90  1  0
 14 91  1  0
 14 92  1  0
 15 93  1  0
 15 94  1  0
 16 95  1  0
 16 96  1  0
 17 97  1  0
 17 98  1  0
 18 99  1  1
 19100  1  0
 22101  1  6
 23102  1  0
 26103  1  1
 27104  1  0
 30105  1  6
 31106  1  0
 34107  1  1
 35108  1  0
 38109  1  0
 38110  1  0
 40111  1  0
 41112  1  0
 43113  1  0
 44114  1  0
 44115  1  0
 46116  1  0
 47117  1  0
 49118  1  0
 50119  1  0
 52120  1  0
 52121  1  0
 53122  1  0
 53123  1  0
 54124  1  0
 54125  1  0
 57126  1  0
 57127  1  0
 58128  1  0
 58129  1  0
 59130  1  0
 59131  1  0
 61132  1  0
 62133  1  0
 65134  1  0
 66135  1  0
 67136  1  0
 68137  1  0
 71138  1  0
 71139  1  0
 72140  1  0
 75141  1  0
 75142  1  0
 75143  1  0
M  END
>  <Ligand ID>  (1) 
LIG0000970

>  <Ligand>  (1) 
CHEMBL428615

>  <SMILES>  (1) 
CCCC[C@@H](C(=O)N[C@H]1CC(=O)NCCCC[C@@H](NC(=O)[C@H](NC(=O)[C@@H](NC(=O)[C@H](NC(=O)[C@@H](NC1=O)Cc1[nH]cnc1)Cc1ccc(cc1)F)CCCN=C(N)N)Cc1c[nH]c2c1cccc2)C(=O)N)NC(=O)C

>  <CID>  (1) 
44343337.0

>  <ChEMBL ID>  (1) 
nan

>  <InChiKey>  (1) 
UMJZICCVSZNIFJ-MYGWSCCLSA-N

>  <InChi>  (1) 
InChI=1S/C50H68FN15O9/c1-3-4-11-36(60-28(2)67)44(70)66-41-24-42(68)56-19-8-7-13-35(43(52)69)61-47(73)39(22-30-25-58-34-12-6-5-10-33(30)34)64-45(71)37(14-9-20-57-50(53)54)62-46(72)38(21-29-15-17-31(51)18-16-29)63-48(74)40(65-49(41)75)23-32-26-55-27-59-32/h5-6,10,12,15-18,25-27,35-41,58H,3-4,7-9,11,13-14,19-24H2,1-2H3,(H2,52,69)(H,55,59)(H,56,68)(H,60,67)(H,61,73)(H,62,72)(H,63,74)(H,64,71)(H,65,75)(H,66,70)(H4,53,54,57)/t35-,36+,37+,38-,39-,40+,41+/m1/s1

>  <IUPAC Name>  (1) 
(3R,6S,9R,12S,15S,23R)-15-[[(2S)-2-acetamidohexanoyl]amino]-6-[3-(diaminomethylideneamino)propyl]-9-[(4-fluorophenyl)methyl]-12-(1H-imidazol-5-ylmethyl)-3-(1H-indol-3-ylmethyl)-2,5,8,11,14,17-hexaoxo-1,4,7,10,13,18-hexazacyclotricosane-23-carboxamide

$$$$
