
     RDKit          3D

 36 36  0  0  0  0  0  0  0  0999 V2000
   -3.8675    3.5902   -0.0773 F   0  0  0  0  0  0  0  0  0  0  0  0
   -3.6003    2.3565    0.4948 C   0  0  0  0  0  0  0  0  0  0  0  0
   -2.2311    1.8487    0.0788 C   0  0  0  0  0  0  0  0  0  0  0  0
   -2.0247    0.4865    0.7563 C   0  0  0  0  0  0  0  0  0  0  0  0
   -0.7734    0.0051    0.3858 O   0  0  0  0  0  0  0  0  0  0  0  0
   -0.1582   -1.1502    0.7326 C   0  0  0  0  0  0  0  0  0  0  0  0
   -0.8443   -2.0192    1.5895 C   0  0  0  0  0  0  0  0  0  0  0  0
   -0.2737   -3.2123    1.9831 C   0  0  0  0  0  0  0  0  0  0  0  0
    0.9679   -3.5115    1.5131 C   0  0  0  0  0  0  0  0  0  0  0  0
    1.6335   -2.6653    0.6797 C   0  0  0  0  0  0  0  0  0  0  0  0
    1.0948   -1.4399    0.2507 C   0  0  0  0  0  0  0  0  0  0  0  0
    1.8998   -0.6337   -0.6442 C   0  0  1  0  0  0  0  0  0  0  0  0
    2.0036   -0.8427   -2.0963 C   0  0  0  0  0  0  0  0  0  0  0  0
    1.3099    0.3710   -1.5599 C   0  0  2  0  0  0  0  0  0  0  0  0
    2.0183    1.7157   -1.7553 C   0  0  0  0  0  0  0  0  0  0  0  0
    2.1508    2.4582   -0.5431 N   0  0  0  0  0  0  0  0  0  0  0  0
    1.7299   -5.0251    1.9929 Cl  0  0  0  0  0  0  0  0  0  0  0  0
    0.6859    0.0000    0.0000 Cl  0  0  0  0  0  0  0  0  0  0  0  0
   -3.6500    2.4671    1.5842 H   0  0  0  0  0  0  0  0  0  0  0  0
   -4.3241    1.5835    0.1744 H   0  0  0  0  0  0  0  0  0  0  0  0
   -1.5027    2.5859    0.4538 H   0  0  0  0  0  0  0  0  0  0  0  0
   -2.1480    1.7782   -1.0096 H   0  0  0  0  0  0  0  0  0  0  0  0
   -2.1179    0.6979    1.8428 H   0  0  0  0  0  0  0  0  0  0  0  0
   -2.8481   -0.1954    0.5041 H   0  0  0  0  0  0  0  0  0  0  0  0
   -1.8263   -1.7523    1.9438 H   0  0  0  0  0  0  0  0  0  0  0  0
   -0.7553   -3.9197    2.6408 H   0  0  0  0  0  0  0  0  0  0  0  0
    2.6320   -2.9613    0.3337 H   0  0  0  0  0  0  0  0  0  0  0  0
    2.8621   -0.2649   -0.1671 H   0  0  0  0  0  0  0  0  0  0  0  0
    1.4021   -1.5539   -2.6743 H   0  0  0  0  0  0  0  0  0  0  0  0
    2.9694   -0.6459   -2.6051 H   0  0  0  0  0  0  0  0  0  0  0  0
    0.2249    0.4583   -1.5975 H   0  0  0  0  0  0  0  0  0  0  0  0
    1.4055    2.2890   -2.4685 H   0  0  0  0  0  0  0  0  0  0  0  0
    2.9927    1.5195   -2.2521 H   0  0  0  0  0  0  0  0  0  0  0  0
    1.5846    2.1182    0.2530 H   0  0  0  0  0  0  0  0  0  0  0  0
    2.0638    3.4641   -0.7378 H   0  0  0  0  0  0  0  0  0  0  0  0
   -0.6859    0.0000    0.0000 H   0  0  0  0  0  0  0  0  0  0  0  0
  1  2  1  0
  2  3  1  0
  3  4  1  0
  4  5  1  0
  5  6  1  0
  6  7  2  0
  7  8  1  0
  8  9  2  0
  9 10  1  0
 10 11  2  0
 11 12  1  0
 12 13  1  0
 13 14  1  0
 14 15  1  0
 15 16  1  0
  9 17  1  0
 11  6  1  0
 14 12  1  0
  2 19  1  0
  2 20  1  0
  3 21  1  0
  3 22  1  0
  4 23  1  0
  4 24  1  0
  7 25  1  0
  8 26  1  0
 10 27  1  0
 12 28  1  1
 13 29  1  0
 13 30  1  0
 14 31  1  1
 15 32  1  0
 15 33  1  0
 16 34  1  0
 16 35  1  0
 18 36  1  0
M  END
>  <Ligand ID>  (1) 
LIG0005666

>  <Ligand>  (1) 
CHEMBL3416059

>  <SMILES>  (1) 
FCCCOc1ccc(cc1[C@H]1C[C@@H]1CN)Cl.Cl

>  <CID>  (1) 
118733813.0

>  <ChEMBL ID>  (1) 
nan

>  <InChiKey>  (1) 
YORIIIZOEWGFIW-XQKZEKTMSA-N

>  <InChi>  (1) 
InChI=1S/C13H17ClFNO.ClH/c14-10-2-3-13(17-5-1-4-15)12(7-10)11-6-9(11)8-16;/h2-3,7,9,11H,1,4-6,8,16H2;1H/t9-,11+;/m1./s1

>  <IUPAC Name>  (1) 
[(1S,2S)-2-[5-chloro-2-(3-fluoropropoxy)phenyl]cyclopropyl]methanamine;hydrochloride

$$$$
