
     RDKit          3D

 32 34  0  0  0  0  0  0  0  0999 V2000
   -2.5280    0.7382   -1.8078 C   0  0  0  0  0  0  0  0  0  0  0  0
   -2.1253    0.0973   -0.5147 C   0  0  2  0  0  0  0  0  0  0  0  0
   -2.9518    0.6556    0.6450 C   0  0  0  0  0  0  0  0  0  0  0  0
   -2.7834   -0.2547    1.7530 N   0  0  0  0  0  0  0  0  0  0  0  0
   -1.4923   -0.8816    1.7804 C   0  0  0  0  0  0  0  0  0  0  0  0
   -0.3890    0.0313    1.2431 C   0  0  2  0  0  0  0  0  0  0  0  0
   -0.7545    0.2705   -0.1575 N   0  0  0  0  0  0  0  0  0  0  0  0
    0.2504    0.6541   -1.0691 C   0  0  0  0  0  0  0  0  0  0  0  0
   -0.0794    1.2827   -2.0904 O   0  0  0  0  0  0  0  0  0  0  0  0
    1.6553    0.3142   -0.8101 C   0  0  0  0  0  0  0  0  0  0  0  0
    1.9090   -0.3844    0.3522 C   0  0  0  0  0  0  0  0  0  0  0  0
    0.8780   -0.7939    1.3153 C   0  0  0  0  0  0  0  0  0  0  0  0
    3.2303   -0.7220    0.6273 C   0  0  0  0  0  0  0  0  0  0  0  0
    4.2408   -0.3692   -0.2319 C   0  0  0  0  0  0  0  0  0  0  0  0
    3.9702    0.3294   -1.3900 C   0  0  0  0  0  0  0  0  0  0  0  0
    2.6639    0.6761   -1.6846 C   0  0  0  0  0  0  0  0  0  0  0  0
   -2.1552    0.1405   -2.6605 H   0  0  0  0  0  0  0  0  0  0  0  0
   -3.6514    0.6317   -1.8594 H   0  0  0  0  0  0  0  0  0  0  0  0
   -2.3446    1.8102   -1.8568 H   0  0  0  0  0  0  0  0  0  0  0  0
   -2.3306   -0.9815   -0.5659 H   0  0  0  0  0  0  0  0  0  0  0  0
   -4.0068    0.7979    0.3703 H   0  0  0  0  0  0  0  0  0  0  0  0
   -2.5325    1.6417    0.9443 H   0  0  0  0  0  0  0  0  0  0  0  0
   -3.4900   -1.0131    1.6389 H   0  0  0  0  0  0  0  0  0  0  0  0
   -1.4242   -1.7979    1.1314 H   0  0  0  0  0  0  0  0  0  0  0  0
   -1.2027   -1.1640    2.8122 H   0  0  0  0  0  0  0  0  0  0  0  0
   -0.3380    0.9646    1.8328 H   0  0  0  0  0  0  0  0  0  0  0  0
    0.5997   -1.8484    1.0412 H   0  0  0  0  0  0  0  0  0  0  0  0
    1.2313   -0.7566    2.3610 H   0  0  0  0  0  0  0  0  0  0  0  0
    3.4922   -1.2646    1.5145 H   0  0  0  0  0  0  0  0  0  0  0  0
    5.2866   -0.6334   -0.0194 H   0  0  0  0  0  0  0  0  0  0  0  0
    4.7753    0.6127   -2.0783 H   0  0  0  0  0  0  0  0  0  0  0  0
    2.3967    1.2165   -2.5665 H   0  0  0  0  0  0  0  0  0  0  0  0
  1  2  1  0
  2  3  1  0
  3  4  1  0
  4  5  1  0
  5  6  1  0
  6  7  1  0
  7  8  1  0
  8  9  2  0
  8 10  1  0
 10 11  2  0
 11 12  1  0
 11 13  1  0
 13 14  2  0
 14 15  1  0
 15 16  2  0
  7  2  1  0
 16 10  1  0
 12  6  1  0
  1 17  1  0
  1 18  1  0
  1 19  1  0
  2 20  1  6
  3 21  1  0
  3 22  1  0
  4 23  1  0
  5 24  1  0
  5 25  1  0
  6 26  1  1
 12 27  1  0
 12 28  1  0
 13 29  1  0
 14 30  1  0
 15 31  1  0
 16 32  1  0
M  END
>  <Ligand ID>  (1) 
LIG0002178

>  <Ligand>  (1) 
SCHEMBL3550524

>  <SMILES>  (1) 
C[C@@H]1CNC[C@@H]2N1C(=O)c1c(C2)cccc1

>  <CID>  (1) 
11206703.0

>  <ChEMBL ID>  (1) 
nan

>  <InChiKey>  (1) 
WDTWEKIOAKMJSH-MWLCHTKSSA-N

>  <InChi>  (1) 
InChI=1S/C13H16N2O/c1-9-7-14-8-11-6-10-4-2-3-5-12(10)13(16)15(9)11/h2-5,9,11,14H,6-8H2,1H3/t9-,11-/m1/s1

>  <IUPAC Name>  (1) 
(4R,11aR)-4-methyl-1,2,3,4,11,11a-hexahydropyrazino[1,2-b]isoquinolin-6-one

$$$$
