
     RDKit          3D

 71 73  0  0  0  0  0  0  0  0999 V2000
   -7.9848    2.3925    0.0895 C   0  0  0  0  0  0  0  0  0  0  0  0
   -7.0841    1.1571   -0.0681 C   0  0  0  0  0  0  0  0  0  0  0  0
   -5.7294    1.5711    0.3895 C   0  0  0  0  0  0  0  0  0  0  0  0
   -4.6807    0.4776    0.3180 C   0  0  0  0  0  0  0  0  0  0  0  0
   -4.5185   -0.0103   -1.0963 C   0  0  0  0  0  0  0  0  0  0  0  0
   -5.3010   -1.2595   -0.7531 C   0  0  0  0  0  0  0  0  0  0  0  0
   -5.1148   -0.8880    0.7025 C   0  0  0  0  0  0  0  0  0  0  0  0
   -3.4262    0.9916    0.9667 C   0  0  0  0  0  0  0  0  0  0  0  0
   -2.2982    0.0571    0.9940 C   0  0  0  0  0  0  0  0  0  0  0  0
   -2.1269   -0.8777    1.9963 C   0  0  0  0  0  0  0  0  0  0  0  0
   -1.0596   -1.7642    2.0184 C   0  0  0  0  0  0  0  0  0  0  0  0
   -0.1083   -1.7459    1.0202 C   0  0  0  0  0  0  0  0  0  0  0  0
   -0.2585   -0.8203    0.0088 C   0  0  0  0  0  0  0  0  0  0  0  0
   -1.3291    0.0611   -0.0037 C   0  0  0  0  0  0  0  0  0  0  0  0
    0.7648   -0.7769   -1.0939 C   0  0  1  0  0  0  0  0  0  0  0  0
    0.0959   -1.0223   -2.4237 C   0  0  2  0  0  0  0  0  0  0  0  0
    0.7518   -2.0453   -3.1126 O   0  0  0  0  0  0  0  0  0  0  0  0
    0.1229    0.2638   -3.1852 C   0  0  0  0  0  0  0  0  0  0  0  0
    1.2972    1.0257   -2.6075 C   0  0  2  0  0  0  0  0  0  0  0  0
    1.4294    0.5565   -1.1891 C   0  0  2  0  0  0  0  0  0  0  0  0
    2.8461    0.5522   -0.6863 C   0  0  0  0  0  0  0  0  0  0  0  0
    3.7445   -0.3521   -1.3894 C   0  0  0  0  0  0  0  0  0  0  0  0
    4.4255   -1.3638   -0.8812 C   0  0  0  0  0  0  0  0  0  0  0  0
    4.4209   -1.7978    0.5229 C   0  0  0  0  0  0  0  0  0  0  0  0
    5.8667   -1.6901    1.0300 C   0  0  0  0  0  0  0  0  0  0  0  0
    6.2356   -0.2352    0.8738 C   0  0  0  0  0  0  0  0  0  0  0  0
    7.6204    0.0488    1.3234 C   0  0  0  0  0  0  0  0  0  0  0  0
    8.3826   -0.8627    1.7842 O   0  0  0  0  0  0  0  0  0  0  0  0
    8.0725    1.3457    1.2295 O   0  0  0  0  0  0  0  0  0  0  0  0
    9.3397    1.7883    1.6043 C   0  0  0  0  0  0  0  0  0  0  0  0
    0.9899    2.7935   -2.6224 Cl  0  0  0  0  0  0  0  0  0  0  0  0
   -3.6759    1.4950    2.2521 O   0  0  0  0  0  0  0  0  0  0  0  0
   -7.5884    3.2130   -0.5590 H   0  0  0  0  0  0  0  0  0  0  0  0
   -9.0408    2.1680   -0.0912 H   0  0  0  0  0  0  0  0  0  0  0  0
   -7.8947    2.7806    1.1286 H   0  0  0  0  0  0  0  0  0  0  0  0
   -7.5588    0.3492    0.4854 H   0  0  0  0  0  0  0  0  0  0  0  0
   -7.1127    0.9084   -1.1561 H   0  0  0  0  0  0  0  0  0  0  0  0
   -5.3735    2.3746   -0.2876 H   0  0  0  0  0  0  0  0  0  0  0  0
   -5.8118    1.9316    1.4339 H   0  0  0  0  0  0  0  0  0  0  0  0
   -5.1050    0.5584   -1.8560 H   0  0  0  0  0  0  0  0  0  0  0  0
   -3.4799   -0.1709   -1.3726 H   0  0  0  0  0  0  0  0  0  0  0  0
   -4.6983   -2.1503   -1.0971 H   0  0  0  0  0  0  0  0  0  0  0  0
   -6.3190   -1.3396   -1.1284 H   0  0  0  0  0  0  0  0  0  0  0  0
   -4.3355   -1.5453    1.1275 H   0  0  0  0  0  0  0  0  0  0  0  0
   -6.0309   -0.9671    1.3215 H   0  0  0  0  0  0  0  0  0  0  0  0
   -3.1471    1.9126    0.3757 H   0  0  0  0  0  0  0  0  0  0  0  0
   -2.8182   -0.9620    2.8282 H   0  0  0  0  0  0  0  0  0  0  0  0
   -0.9608   -2.4827    2.8219 H   0  0  0  0  0  0  0  0  0  0  0  0
    0.7025   -2.4532    1.0795 H   0  0  0  0  0  0  0  0  0  0  0  0
   -1.3561    0.7517   -0.8374 H   0  0  0  0  0  0  0  0  0  0  0  0
    1.5015   -1.5716   -0.8468 H   0  0  0  0  0  0  0  0  0  0  0  0
   -0.9658   -1.3504   -2.2301 H   0  0  0  0  0  0  0  0  0  0  0  0
    1.4064   -2.4659   -2.4938 H   0  0  0  0  0  0  0  0  0  0  0  0
   -0.8255    0.8361   -3.1761 H   0  0  0  0  0  0  0  0  0  0  0  0
    0.3068    0.0641   -4.2817 H   0  0  0  0  0  0  0  0  0  0  0  0
    2.1680    0.8193   -3.2341 H   0  0  0  0  0  0  0  0  0  0  0  0
    0.8704    1.2714   -0.5488 H   0  0  0  0  0  0  0  0  0  0  0  0
    3.2322    1.6052   -0.7143 H   0  0  0  0  0  0  0  0  0  0  0  0
    2.7873    0.2676    0.3794 H   0  0  0  0  0  0  0  0  0  0  0  0
    3.8787   -0.1792   -2.4777 H   0  0  0  0  0  0  0  0  0  0  0  0
    5.0681   -1.9539   -1.5655 H   0  0  0  0  0  0  0  0  0  0  0  0
    3.8315   -1.2158    1.2200 H   0  0  0  0  0  0  0  0  0  0  0  0
    4.1540   -2.8764    0.6300 H   0  0  0  0  0  0  0  0  0  0  0  0
    6.4831   -2.2806    0.3295 H   0  0  0  0  0  0  0  0  0  0  0  0
    5.9651   -2.0762    2.0462 H   0  0  0  0  0  0  0  0  0  0  0  0
    6.1751    0.0097   -0.2024 H   0  0  0  0  0  0  0  0  0  0  0  0
    5.5229    0.3534    1.4960 H   0  0  0  0  0  0  0  0  0  0  0  0
   10.1666    1.2501    1.1340 H   0  0  0  0  0  0  0  0  0  0  0  0
    9.3796    1.7301    2.7294 H   0  0  0  0  0  0  0  0  0  0  0  0
    9.3824    2.8791    1.3636 H   0  0  0  0  0  0  0  0  0  0  0  0
   -4.2696    0.9413    2.7874 H   0  0  0  0  0  0  0  0  0  0  0  0
  1  2  1  0
  2  3  1  0
  3  4  1  0
  4  5  1  0
  5  6  1  0
  6  7  1  0
  4  8  1  0
  8  9  1  0
  9 10  2  0
 10 11  1  0
 11 12  2  0
 12 13  1  0
 13 14  2  0
 13 15  1  0
 15 16  1  0
 16 17  1  0
 16 18  1  0
 18 19  1  0
 19 20  1  0
 20 21  1  0
 21 22  1  0
 22 23  2  0
 23 24  1  0
 24 25  1  0
 25 26  1  0
 26 27  1  0
 27 28  2  0
 27 29  1  0
 29 30  1  0
 19 31  1  0
  8 32  1  0
  7  4  1  0
 14  9  1  0
 20 15  1  0
  1 33  1  0
  1 34  1  0
  1 35  1  0
  2 36  1  0
  2 37  1  0
  3 38  1  0
  3 39  1  0
  5 40  1  0
  5 41  1  0
  6 42  1  0
  6 43  1  0
  7 44  1  0
  7 45  1  0
  8 46  1  0
 10 47  1  0
 11 48  1  0
 12 49  1  0
 14 50  1  0
 15 51  1  1
 16 52  1  1
 17 53  1  0
 18 54  1  0
 18 55  1  0
 19 56  1  6
 20 57  1  1
 21 58  1  0
 21 59  1  0
 22 60  1  0
 23 61  1  0
 24 62  1  0
 24 63  1  0
 25 64  1  0
 25 65  1  0
 26 66  1  0
 26 67  1  0
 30 68  1  0
 30 69  1  0
 30 70  1  0
 32 71  1  0
M  END
>  <Ligand ID>  (1) 
LIG0004172

>  <Ligand>  (1) 
SCHEMBL5205658

>  <SMILES>  (1) 
CCCC1(CCC1)C(c1cccc(c1)[C@H]1[C@H](O)C[C@H]([C@@H]1C/C=C\CCCC(=O)OC)Cl)O

>  <CID>  (1) 
11955213.0

>  <ChEMBL ID>  (1) 
nan

>  <InChiKey>  (1) 
AMSYNEAWRKZFHZ-UPBVYHFLSA-N

>  <InChi>  (1) 
InChI=1S/C27H39ClO4/c1-3-14-27(15-9-16-27)26(31)20-11-8-10-19(17-20)25-21(22(28)18-23(25)29)12-6-4-5-7-13-24(30)32-2/h4,6,8,10-11,17,21-23,25-26,29,31H,3,5,7,9,12-16,18H2,1-2H3/b6-4-/t21-,22+,23+,25+,26?/m0/s1

>  <IUPAC Name>  (1) 
methyl (Z)-7-[(1R,2S,3R,5R)-5-chloro-3-hydroxy-2-[3-[hydroxy-(1-propylcyclobutyl)methyl]phenyl]cyclopentyl]hept-5-enoate

$$$$
