
     RDKit          3D

 35 38  0  0  0  0  0  0  0  0999 V2000
   -4.0920    1.1344    0.6157 C   0  0  0  0  0  0  0  0  0  0  0  0
   -3.9320    0.0402   -0.3788 C   0  0  0  0  0  0  0  0  0  0  0  0
   -4.8148   -0.3507   -1.2658 O   0  0  0  0  0  0  0  0  0  0  0  0
   -4.3498   -1.3392   -1.9831 N   0  0  0  0  0  0  0  0  0  0  0  0
   -3.1041   -1.6154   -1.5522 C   0  0  0  0  0  0  0  0  0  0  0  0
   -2.8008   -0.7471   -0.5196 C   0  0  0  0  0  0  0  0  0  0  0  0
   -1.5553   -0.6952    0.2365 C   0  0  0  0  0  0  0  0  0  0  0  0
   -1.3935   -1.4491    1.3902 C   0  0  0  0  0  0  0  0  0  0  0  0
   -0.2140   -1.4088    2.1185 C   0  0  0  0  0  0  0  0  0  0  0  0
    0.8269   -0.6062    1.6968 C   0  0  0  0  0  0  0  0  0  0  0  0
    0.6450    0.1354    0.5467 C   0  0  0  0  0  0  0  0  0  0  0  0
   -0.5134    0.1134   -0.1930 C   0  0  0  0  0  0  0  0  0  0  0  0
   -0.3705    1.0244   -1.3621 C   0  0  0  0  0  0  0  0  0  0  0  0
    1.1402    1.0329   -1.5530 C   0  0  0  0  0  0  0  0  0  0  0  0
    1.6184    1.0759   -0.1112 C   0  0  0  0  0  0  0  0  0  0  0  0
    3.0058    0.5678    0.0219 C   0  0  0  0  0  0  0  0  0  0  0  0
    3.7911    0.9009    1.0845 N   0  0  0  0  0  0  0  0  0  0  0  0
    5.0005    0.2895    0.9326 C   0  0  0  0  0  0  0  0  0  0  0  0
    4.9489   -0.4346   -0.2541 C   0  0  0  0  0  0  0  0  0  0  0  0
    3.7089   -0.2406   -0.7868 N   0  0  0  0  0  0  0  0  0  0  0  0
   -3.4116    0.9093    1.4811 H   0  0  0  0  0  0  0  0  0  0  0  0
   -3.8703    2.1362    0.2075 H   0  0  0  0  0  0  0  0  0  0  0  0
   -5.1277    1.1370    1.0402 H   0  0  0  0  0  0  0  0  0  0  0  0
   -2.4340   -2.3881   -1.9394 H   0  0  0  0  0  0  0  0  0  0  0  0
   -2.2309   -2.0676    1.6917 H   0  0  0  0  0  0  0  0  0  0  0  0
   -0.0961   -2.0018    3.0199 H   0  0  0  0  0  0  0  0  0  0  0  0
    1.7693   -0.5483    2.2431 H   0  0  0  0  0  0  0  0  0  0  0  0
   -0.8997    0.6692   -2.2495 H   0  0  0  0  0  0  0  0  0  0  0  0
   -0.6747    2.0436   -1.0701 H   0  0  0  0  0  0  0  0  0  0  0  0
    1.4993    1.8700   -2.1627 H   0  0  0  0  0  0  0  0  0  0  0  0
    1.4715    0.0507   -1.9622 H   0  0  0  0  0  0  0  0  0  0  0  0
    1.5139    2.1111    0.2410 H   0  0  0  0  0  0  0  0  0  0  0  0
    5.8540    0.3470    1.6031 H   0  0  0  0  0  0  0  0  0  0  0  0
    5.7223   -1.0474   -0.7042 H   0  0  0  0  0  0  0  0  0  0  0  0
    3.3694   -0.6488   -1.6664 H   0  0  0  0  0  0  0  0  0  0  0  0
  1  2  1  0
  2  3  1  0
  3  4  1  0
  4  5  2  0
  5  6  1  0
  6  7  1  0
  7  8  2  0
  8  9  1  0
  9 10  2  0
 10 11  1  0
 11 12  2  0
 12 13  1  0
 13 14  1  0
 14 15  1  0
 15 16  1  0
 16 17  2  0
 17 18  1  0
 18 19  2  0
 19 20  1  0
  6  2  2  0
 12  7  1  0
 20 16  1  0
 15 11  1  0
  1 21  1  0
  1 22  1  0
  1 23  1  0
  5 24  1  0
  8 25  1  0
  9 26  1  0
 10 27  1  0
 13 28  1  0
 13 29  1  0
 14 30  1  0
 14 31  1  0
 15 32  1  0
 18 33  1  0
 19 34  1  0
 20 35  1  0
M  END
>  <Ligand ID>  (1) 
LIG0001705

>  <Ligand>  (1) 
CHEMBL260009

>  <SMILES>  (1) 
Cc1oncc1c1cccc2c1CCC2c1ncc[nH]1

>  <CID>  (1) 
44449657.0

>  <ChEMBL ID>  (1) 
nan

>  <InChiKey>  (1) 
XSJUZZWXFYDPDG-UHFFFAOYSA-N

>  <InChi>  (1) 
InChI=1S/C16H15N3O/c1-10-15(9-19-20-10)12-4-2-3-11-13(12)5-6-14(11)16-17-7-8-18-16/h2-4,7-9,14H,5-6H2,1H3,(H,17,18)

>  <IUPAC Name>  (1) 
4-[1-(1H-imidazol-2-yl)-2,3-dihydro-1H-inden-4-yl]-5-methyl-1,2-oxazole

$$$$
