
     RDKit          3D

 37 39  0  0  0  0  0  0  0  0999 V2000
   -5.8472    1.0333   -1.5486 C   0  0  0  0  0  0  0  0  0  0  0  0
   -5.3509    0.2050   -0.5371 O   0  0  0  0  0  0  0  0  0  0  0  0
   -4.1207    0.3119    0.0774 C   0  0  0  0  0  0  0  0  0  0  0  0
   -3.8269   -0.6178    1.0612 C   0  0  0  0  0  0  0  0  0  0  0  0
   -2.6108   -0.5503    1.7022 C   0  0  0  0  0  0  0  0  0  0  0  0
   -1.6601    0.4159    1.4028 C   0  0  0  0  0  0  0  0  0  0  0  0
   -1.9548    1.3267    0.4351 C   0  0  0  0  0  0  0  0  0  0  0  0
   -3.1775    1.2522   -0.2036 C   0  0  0  0  0  0  0  0  0  0  0  0
   -0.3914    0.3947    2.1518 C   0  0  0  0  0  0  0  0  0  0  0  0
    0.5991   -0.4304    1.4865 N   0  0  0  0  0  0  0  0  0  0  0  0
    1.5654   -0.0753    0.5072 C   0  0  0  0  0  0  0  0  0  0  0  0
    1.8512    1.1339   -0.0967 C   0  0  0  0  0  0  0  0  0  0  0  0
    2.8645    1.2199   -1.0420 C   0  0  0  0  0  0  0  0  0  0  0  0
    3.6150    0.1055   -1.4069 C   0  0  0  0  0  0  0  0  0  0  0  0
    3.3216   -1.0955   -0.7983 C   0  0  0  0  0  0  0  0  0  0  0  0
    2.3105   -1.1779    0.1440 C   0  0  0  0  0  0  0  0  0  0  0  0
    1.8373   -2.3320    0.9026 C   0  0  0  0  0  0  0  0  0  0  0  0
    2.2919   -3.4900    0.8191 O   0  0  0  0  0  0  0  0  0  0  0  0
    0.7487   -1.8213    1.7465 C   0  0  0  0  0  0  0  0  0  0  0  0
    0.1009   -2.5396    2.5396 O   0  0  0  0  0  0  0  0  0  0  0  0
    4.6088    0.2260   -2.3444 O   0  0  0  0  0  0  0  0  0  0  0  0
    5.9414    0.5417   -1.9618 C   0  0  0  0  0  0  0  0  0  0  0  0
    6.3585   -0.4766   -1.1102 F   0  0  0  0  0  0  0  0  0  0  0  0
    6.0297    1.7321   -1.3056 F   0  0  0  0  0  0  0  0  0  0  0  0
    6.7913    0.5237   -3.0421 F   0  0  0  0  0  0  0  0  0  0  0  0
   -5.3454    2.0359   -1.5735 H   0  0  0  0  0  0  0  0  0  0  0  0
   -6.9396    1.1777   -1.3374 H   0  0  0  0  0  0  0  0  0  0  0  0
   -5.7656    0.6098   -2.5692 H   0  0  0  0  0  0  0  0  0  0  0  0
   -4.5524   -1.3896    1.3198 H   0  0  0  0  0  0  0  0  0  0  0  0
   -2.4094   -1.2875    2.4642 H   0  0  0  0  0  0  0  0  0  0  0  0
   -1.2119    2.0986    0.1863 H   0  0  0  0  0  0  0  0  0  0  0  0
   -3.3933    1.9909   -0.9750 H   0  0  0  0  0  0  0  0  0  0  0  0
   -0.0154    1.4578    2.1496 H   0  0  0  0  0  0  0  0  0  0  0  0
   -0.5533    0.0978    3.2037 H   0  0  0  0  0  0  0  0  0  0  0  0
    1.2790    2.0361    0.1666 H   0  0  0  0  0  0  0  0  0  0  0  0
    3.1127    2.1535   -1.5334 H   0  0  0  0  0  0  0  0  0  0  0  0
    3.8990   -1.9478   -1.0805 H   0  0  0  0  0  0  0  0  0  0  0  0
  1  2  1  0
  2  3  1  0
  3  4  2  0
  4  5  1  0
  5  6  2  0
  6  7  1  0
  7  8  2  0
  6  9  1  0
  9 10  1  0
 10 11  1  0
 11 12  2  0
 12 13  1  0
 13 14  2  0
 14 15  1  0
 15 16  2  0
 16 17  1  0
 17 18  2  0
 17 19  1  0
 19 20  2  0
 14 21  1  0
 21 22  1  0
 22 23  1  0
 22 24  1  0
 22 25  1  0
  8  3  1  0
 19 10  1  0
 16 11  1  0
  1 26  1  0
  1 27  1  0
  1 28  1  0
  4 29  1  0
  5 30  1  0
  7 31  1  0
  8 32  1  0
  9 33  1  0
  9 34  1  0
 12 35  1  0
 13 36  1  0
 15 37  1  0
M  END
>  <Ligand ID>  (1) 
LIG0000521

>  <Ligand>  (1) 
VU 0238429

>  <SMILES>  (1) 
COc1ccc(cc1)CN1c2ccc(cc2C(=O)C1=O)OC(F)(F)F

>  <CID>  (1) 
42633508.0

>  <ChEMBL ID>  (1) 
nan

>  <InChiKey>  (1) 
CKLGZXFOLMHCMC-UHFFFAOYSA-N

>  <InChi>  (1) 
InChI=1S/C17H12F3NO4/c1-24-11-4-2-10(3-5-11)9-21-14-7-6-12(25-17(18,19)20)8-13(14)15(22)16(21)23/h2-8H,9H2,1H3

>  <IUPAC Name>  (1) 
1-[(4-methoxyphenyl)methyl]-5-(trifluoromethoxy)indole-2,3-dione

$$$$
