
     RDKit          3D

 27 26  0  0  0  0  0  0  0  0999 V2000
   -2.1885    1.2940    0.3194 C   0  0  0  0  0  0  0  0  0  0  0  0
   -2.8444   -0.0223    0.2424 C   0  0  0  0  0  0  0  0  0  0  0  0
   -2.0145   -1.2430    0.1199 C   0  0  0  0  0  0  0  0  0  0  0  0
   -1.1242   -1.3724   -1.0506 C   0  0  0  0  0  0  0  0  0  0  0  0
   -0.0392   -0.3812   -1.2349 C   0  0  0  0  0  0  0  0  0  0  0  0
    0.9688   -0.3847   -0.0901 C   0  0  0  0  0  0  0  0  0  0  0  0
    1.9281    0.6069   -0.3908 O   0  0  0  0  0  0  0  0  0  0  0  0
    2.9915    0.8615    0.4561 C   0  0  0  0  0  0  0  0  0  0  0  0
    3.0826    0.1755    1.5176 O   0  0  0  0  0  0  0  0  0  0  0  0
    4.0083    1.9097    0.1413 C   0  0  0  0  0  0  0  0  0  0  0  0
   -0.2957   -3.0145   -0.9869 S   0  0  0  0  0  0  0  0  0  0  0  0
   -2.2454    1.7552   -0.7147 H   0  0  0  0  0  0  0  0  0  0  0  0
   -2.7599    2.0400    0.9404 H   0  0  0  0  0  0  0  0  0  0  0  0
   -1.1705    1.3578    0.6759 H   0  0  0  0  0  0  0  0  0  0  0  0
   -3.4570   -0.1347    1.1917 H   0  0  0  0  0  0  0  0  0  0  0  0
   -3.6332   -0.0751   -0.5654 H   0  0  0  0  0  0  0  0  0  0  0  0
   -2.7455   -2.1102    0.1169 H   0  0  0  0  0  0  0  0  0  0  0  0
   -1.4966   -1.3671    1.0982 H   0  0  0  0  0  0  0  0  0  0  0  0
   -1.7367   -1.3332   -1.9939 H   0  0  0  0  0  0  0  0  0  0  0  0
   -0.3219    0.6267   -1.5391 H   0  0  0  0  0  0  0  0  0  0  0  0
    0.5679   -0.7651   -2.1136 H   0  0  0  0  0  0  0  0  0  0  0  0
    1.4315   -1.4165   -0.1383 H   0  0  0  0  0  0  0  0  0  0  0  0
    0.5637   -0.1904    0.8902 H   0  0  0  0  0  0  0  0  0  0  0  0
    4.8075    1.5124   -0.4891 H   0  0  0  0  0  0  0  0  0  0  0  0
    3.5081    2.7222   -0.4306 H   0  0  0  0  0  0  0  0  0  0  0  0
    4.4464    2.3240    1.0767 H   0  0  0  0  0  0  0  0  0  0  0  0
   -0.2311   -3.3755    0.3772 H   0  0  0  0  0  0  0  0  0  0  0  0
  1  2  1  0
  2  3  1  0
  3  4  1  0
  4  5  1  0
  5  6  1  0
  6  7  1  0
  7  8  1  0
  8  9  2  0
  8 10  1  0
  4 11  1  0
  1 12  1  0
  1 13  1  0
  1 14  1  0
  2 15  1  0
  2 16  1  0
  3 17  1  0
  3 18  1  0
  4 19  1  0
  5 20  1  0
  5 21  1  0
  6 22  1  0
  6 23  1  0
 10 24  1  0
 10 25  1  0
 10 26  1  0
 11 27  1  0
M  END
>  <Ligand ID>  (1) 
LIG0000283

>  <Ligand>  (1) 
3-sulfanylhexyl acetate

>  <SMILES>  (1) 
CCCC(CCOC(=O)C)S

>  <CID>  (1) 
518810.0

>  <ChEMBL ID>  (1) 
nan

>  <InChiKey>  (1) 
JUCARGIKESIVLB-UHFFFAOYSA-N

>  <InChi>  (1) 
InChI=1S/C8H16O2S/c1-3-4-8(11)5-6-10-7(2)9/h8,11H,3-6H2,1-2H3

>  <IUPAC Name>  (1) 
3-sulfanylhexyl acetate

$$$$
