
     RDKit          3D

 59 62  0  0  0  0  0  0  0  0999 V2000
    3.6714   -1.0385    0.2310 N   0  0  0  0  0  0  0  0  0  0  0  0
    4.8157   -1.0281   -0.6302 C   0  0  0  0  0  0  0  0  0  0  0  0
    6.0593   -1.2833    0.1727 C   0  0  0  0  0  0  0  0  0  0  0  0
    6.2129   -0.2227    1.2022 C   0  0  0  0  0  0  0  0  0  0  0  0
    6.9030    0.9449    0.9719 C   0  0  0  0  0  0  0  0  0  0  0  0
    6.8593    1.6949    2.0999 N   0  0  0  0  0  0  0  0  0  0  0  0
    6.1434    0.9859    3.0178 C   0  0  0  0  0  0  0  0  0  0  0  0
    5.7654   -0.1607    2.4585 N   0  0  0  0  0  0  0  0  0  0  0  0
    2.4337   -0.7948   -0.4896 C   0  0  0  0  0  0  0  0  0  0  0  0
    2.3336    0.6148   -1.0288 C   0  0  0  0  0  0  0  0  0  0  0  0
    1.0481    0.7915   -1.7516 C   0  0  0  0  0  0  0  0  0  0  0  0
    0.7545    0.5840   -3.0847 C   0  0  0  0  0  0  0  0  0  0  0  0
   -0.5313    0.8724   -3.2818 N   0  0  0  0  0  0  0  0  0  0  0  0
   -1.0889    1.2666   -2.0995 C   0  0  0  0  0  0  0  0  0  0  0  0
   -0.1153    1.2069   -1.2027 N   0  0  0  0  0  0  0  0  0  0  0  0
   -2.5125    1.6601   -1.9774 C   0  0  0  0  0  0  0  0  0  0  0  0
   -3.3988    0.4754   -1.6533 C   0  0  0  0  0  0  0  0  0  0  0  0
   -2.9504   -0.1041   -0.3545 C   0  0  0  0  0  0  0  0  0  0  0  0
   -3.0396    0.8764    0.7696 C   0  0  0  0  0  0  0  0  0  0  0  0
   -4.0305    1.8392    0.7715 C   0  0  0  0  0  0  0  0  0  0  0  0
   -4.1299    2.7485    1.8028 C   0  0  0  0  0  0  0  0  0  0  0  0
   -3.2349    2.7179    2.8657 C   0  0  0  0  0  0  0  0  0  0  0  0
   -2.2360    1.7629    2.8837 C   0  0  0  0  0  0  0  0  0  0  0  0
   -2.1627    0.8657    1.8355 C   0  0  0  0  0  0  0  0  0  0  0  0
   -3.6805   -1.3289    0.0341 C   0  0  0  0  0  0  0  0  0  0  0  0
   -2.9821   -2.3467    0.6842 C   0  0  0  0  0  0  0  0  0  0  0  0
   -3.5864   -3.5164    1.0797 C   0  0  0  0  0  0  0  0  0  0  0  0
   -4.9124   -3.6789    0.8242 C   0  0  0  0  0  0  0  0  0  0  0  0
   -5.6575   -2.6947    0.1780 C   0  0  0  0  0  0  0  0  0  0  0  0
   -5.0339   -1.5162   -0.2168 C   0  0  0  0  0  0  0  0  0  0  0  0
    3.7622   -0.4257    1.0673 H   0  0  0  0  0  0  0  0  0  0  0  0
    4.9430   -0.0903   -1.2169 H   0  0  0  0  0  0  0  0  0  0  0  0
    4.7019   -1.8854   -1.3410 H   0  0  0  0  0  0  0  0  0  0  0  0
    6.9525   -1.3664   -0.4529 H   0  0  0  0  0  0  0  0  0  0  0  0
    5.9244   -2.2734    0.6844 H   0  0  0  0  0  0  0  0  0  0  0  0
    7.4198    1.2839    0.0766 H   0  0  0  0  0  0  0  0  0  0  0  0
    5.9035    1.2769    4.0395 H   0  0  0  0  0  0  0  0  0  0  0  0
    5.2053   -0.8968    2.9299 H   0  0  0  0  0  0  0  0  0  0  0  0
    2.3659   -1.5005   -1.3150 H   0  0  0  0  0  0  0  0  0  0  0  0
    1.6143   -0.9829    0.2131 H   0  0  0  0  0  0  0  0  0  0  0  0
    3.1960    0.9068   -1.6291 H   0  0  0  0  0  0  0  0  0  0  0  0
    2.3096    1.3243   -0.1541 H   0  0  0  0  0  0  0  0  0  0  0  0
    1.4972    0.2431   -3.7939 H   0  0  0  0  0  0  0  0  0  0  0  0
   -0.2033    1.4422   -0.2066 H   0  0  0  0  0  0  0  0  0  0  0  0
   -2.5589    2.4301   -1.1630 H   0  0  0  0  0  0  0  0  0  0  0  0
   -2.8172    2.1417   -2.9246 H   0  0  0  0  0  0  0  0  0  0  0  0
   -3.1923   -0.2628   -2.4539 H   0  0  0  0  0  0  0  0  0  0  0  0
   -4.4608    0.7097   -1.7124 H   0  0  0  0  0  0  0  0  0  0  0  0
   -1.8785   -0.3610   -0.4673 H   0  0  0  0  0  0  0  0  0  0  0  0
   -4.7510    1.9159   -0.0184 H   0  0  0  0  0  0  0  0  0  0  0  0
   -4.8936    3.5190    1.8402 H   0  0  0  0  0  0  0  0  0  0  0  0
   -3.2998    3.4293    3.6884 H   0  0  0  0  0  0  0  0  0  0  0  0
   -1.5185    1.7237    3.7174 H   0  0  0  0  0  0  0  0  0  0  0  0
   -1.3746    0.1125    1.8510 H   0  0  0  0  0  0  0  0  0  0  0  0
   -1.9141   -2.1896    0.8778 H   0  0  0  0  0  0  0  0  0  0  0  0
   -2.9539   -4.2426    1.5774 H   0  0  0  0  0  0  0  0  0  0  0  0
   -5.3980   -4.6136    1.1393 H   0  0  0  0  0  0  0  0  0  0  0  0
   -6.7220   -2.8442   -0.0189 H   0  0  0  0  0  0  0  0  0  0  0  0
   -5.5756   -0.7178   -0.7245 H   0  0  0  0  0  0  0  0  0  0  0  0
  1  2  1  0
  2  3  1  0
  3  4  1  0
  4  5  2  0
  5  6  1  0
  6  7  2  0
  7  8  1  0
  1  9  1  0
  9 10  1  0
 10 11  1  0
 11 12  2  0
 12 13  1  0
 13 14  2  0
 14 15  1  0
 14 16  1  0
 16 17  1  0
 17 18  1  0
 18 19  1  0
 19 20  2  0
 20 21  1  0
 21 22  2  0
 22 23  1  0
 23 24  2  0
 18 25  1  0
 25 26  2  0
 26 27  1  0
 27 28  2  0
 28 29  1  0
 29 30  2  0
  8  4  1  0
 15 11  1  0
 24 19  1  0
 30 25  1  0
  1 31  1  0
  2 32  1  0
  2 33  1  0
  3 34  1  0
  3 35  1  0
  5 36  1  0
  7 37  1  0
  8 38  1  0
  9 39  1  0
  9 40  1  0
 10 41  1  0
 10 42  1  0
 12 43  1  0
 15 44  1  0
 16 45  1  0
 16 46  1  0
 17 47  1  0
 17 48  1  0
 18 49  1  0
 20 50  1  0
 21 51  1  0
 22 52  1  0
 23 53  1  0
 24 54  1  0
 26 55  1  0
 27 56  1  0
 28 57  1  0
 29 58  1  0
 30 59  1  0
M  END
>  <Ligand ID>  (1) 
LIG0002610

>  <Ligand>  (1) 
CHEMBL264491

>  <SMILES>  (1) 
N(CCc1cnc[nH]1)CCc1cnc([nH]1)CCC(c1ccccc1)c1ccccc1

>  <CID>  (1) 
11741669.0

>  <ChEMBL ID>  (1) 
nan

>  <InChiKey>  (1) 
IECPJVGHHUNYNJ-UHFFFAOYSA-N

>  <InChi>  (1) 
InChI=1S/C25H29N5/c1-3-7-20(8-4-1)24(21-9-5-2-6-10-21)11-12-25-28-18-23(30-25)14-16-26-15-13-22-17-27-19-29-22/h1-10,17-19,24,26H,11-16H2,(H,27,29)(H,28,30)

>  <IUPAC Name>  (1) 
N-[2-[2-(3,3-diphenylpropyl)-1H-imidazol-5-yl]ethyl]-2-(1H-imidazol-5-yl)ethanamine

$$$$
