
     RDKit          3D

 45 46  0  0  0  0  0  0  0  0999 V2000
    5.4697    2.1906   -0.2392 C   0  0  0  0  0  0  0  0  0  0  0  0
    5.2053    0.7211   -0.3450 C   0  0  0  0  0  0  0  0  0  0  0  0
    3.7721    0.4261    0.1204 C   0  0  0  0  0  0  0  0  0  0  0  0
    3.5882   -1.0575   -0.0158 C   0  0  0  0  0  0  0  0  0  0  0  0
    2.2140   -1.5259    0.4105 C   0  0  0  0  0  0  0  0  0  0  0  0
    1.1902   -0.8583   -0.4399 C   0  0  0  0  0  0  0  0  0  0  0  0
   -0.2367   -1.2934   -0.0630 C   0  0  0  0  0  0  0  0  0  0  0  0
   -0.4319   -0.9545    1.2186 O   0  0  0  0  0  0  0  0  0  0  0  0
   -1.5800   -0.4116    1.6537 C   0  0  1  0  0  0  0  0  0  0  0  0
   -1.2892    1.0389    2.0595 C   0  0  0  0  0  0  0  0  0  0  0  0
   -2.4849    1.6897    2.5404 N   0  0  0  0  0  0  0  0  0  0  0  0
   -2.7240   -0.4130    0.7353 C   0  0  0  0  0  0  0  0  0  0  0  0
   -2.5347   -0.5503   -0.6446 C   0  0  0  0  0  0  0  0  0  0  0  0
   -1.1299   -0.6901   -1.0937 C   0  0  0  0  0  0  0  0  0  0  0  0
   -3.5717   -0.5563   -1.5307 C   0  0  0  0  0  0  0  0  0  0  0  0
   -3.2858   -0.6982   -2.8856 O   0  0  0  0  0  0  0  0  0  0  0  0
   -4.8850   -0.4219   -1.0690 C   0  0  0  0  0  0  0  0  0  0  0  0
   -5.0973   -0.2833    0.3068 C   0  0  0  0  0  0  0  0  0  0  0  0
   -4.0113   -0.2810    1.1896 C   0  0  0  0  0  0  0  0  0  0  0  0
   -5.9363   -0.4288   -1.9760 O   0  0  0  0  0  0  0  0  0  0  0  0
    6.3588    2.3177    0.4273 H   0  0  0  0  0  0  0  0  0  0  0  0
    5.6677    2.5949   -1.2554 H   0  0  0  0  0  0  0  0  0  0  0  0
    4.6015    2.6976    0.2114 H   0  0  0  0  0  0  0  0  0  0  0  0
    5.8670    0.0839    0.2738 H   0  0  0  0  0  0  0  0  0  0  0  0
    5.2120    0.3746   -1.4164 H   0  0  0  0  0  0  0  0  0  0  0  0
    3.5990    0.8102    1.1349 H   0  0  0  0  0  0  0  0  0  0  0  0
    3.1333    1.0021   -0.5677 H   0  0  0  0  0  0  0  0  0  0  0  0
    4.3785   -1.6294    0.5103 H   0  0  0  0  0  0  0  0  0  0  0  0
    3.7684   -1.2850   -1.1053 H   0  0  0  0  0  0  0  0  0  0  0  0
    2.1928   -2.6337    0.3098 H   0  0  0  0  0  0  0  0  0  0  0  0
    2.0796   -1.3152    1.4931 H   0  0  0  0  0  0  0  0  0  0  0  0
    1.2778    0.2521   -0.2524 H   0  0  0  0  0  0  0  0  0  0  0  0
    1.4179   -1.0434   -1.4992 H   0  0  0  0  0  0  0  0  0  0  0  0
   -0.2531   -2.4036   -0.1532 H   0  0  0  0  0  0  0  0  0  0  0  0
   -1.9129   -0.8954    2.6152 H   0  0  0  0  0  0  0  0  0  0  0  0
   -0.5438    1.0539    2.8872 H   0  0  0  0  0  0  0  0  0  0  0  0
   -0.8544    1.5599    1.1660 H   0  0  0  0  0  0  0  0  0  0  0  0
   -3.1361    1.9545    1.7589 H   0  0  0  0  0  0  0  0  0  0  0  0
   -2.1938    2.5415    3.0793 H   0  0  0  0  0  0  0  0  0  0  0  0
   -0.7720    0.3055   -1.4463 H   0  0  0  0  0  0  0  0  0  0  0  0
   -1.1412   -1.3480   -1.9877 H   0  0  0  0  0  0  0  0  0  0  0  0
   -3.8279   -0.3044   -3.6334 H   0  0  0  0  0  0  0  0  0  0  0  0
   -6.1144   -0.1808    0.6461 H   0  0  0  0  0  0  0  0  0  0  0  0
   -4.2393   -0.1721    2.2234 H   0  0  0  0  0  0  0  0  0  0  0  0
   -6.8064    0.0202   -1.7283 H   0  0  0  0  0  0  0  0  0  0  0  0
  1  2  1  0
  2  3  1  0
  3  4  1  0
  4  5  1  0
  5  6  1  0
  6  7  1  0
  7  8  1  0
  8  9  1  0
  9 10  1  0
 10 11  1  0
  9 12  1  0
 12 13  2  0
 13 14  1  0
 13 15  1  0
 15 16  1  0
 15 17  2  0
 17 18  1  0
 18 19  2  0
 17 20  1  0
 14  7  1  0
 19 12  1  0
  1 21  1  0
  1 22  1  0
  1 23  1  0
  2 24  1  0
  2 25  1  0
  3 26  1  0
  3 27  1  0
  4 28  1  0
  4 29  1  0
  5 30  1  0
  5 31  1  0
  6 32  1  0
  6 33  1  0
  7 34  1  0
  9 35  1  1
 10 36  1  0
 10 37  1  0
 11 38  1  0
 11 39  1  0
 14 40  1  0
 14 41  1  0
 16 42  1  0
 18 43  1  0
 19 44  1  0
 20 45  1  0
M  END
>  <Ligand ID>  (1) 
LIG0004212

>  <Ligand>  (1) 
CHEMBL420972

>  <SMILES>  (1) 
CCCCCCC1O[C@@H](CN)c2c(C1)c(O)c(cc2)O

>  <CID>  (1) 
44320116.0

>  <ChEMBL ID>  (1) 
nan

>  <InChiKey>  (1) 
HMYHFTUKXYGDQG-MHTVFEQDSA-N

>  <InChi>  (1) 
InChI=1S/C16H25NO3/c1-2-3-4-5-6-11-9-13-12(15(10-17)20-11)7-8-14(18)16(13)19/h7-8,11,15,18-19H,2-6,9-10,17H2,1H3/t11?,15-/m0/s1

>  <IUPAC Name>  (1) 
(1R)-1-(aminomethyl)-3-hexyl-3,4-dihydro-1H-isochromene-5,6-diol

$$$$
