
     RDKit          3D

110113  0  0  0  0  0  0  0  0999 V2000
    2.1480    7.2185   -3.1807 N   0  0  0  0  0  0  0  0  0  0  0  0
    0.9714    7.3429   -2.3724 C   0  0  0  0  0  0  0  0  0  0  0  0
    0.2788    6.3025   -2.1539 N   0  0  0  0  0  0  0  0  0  0  0  0
   -0.9216    6.2141   -1.3785 C   0  0  0  0  0  0  0  0  0  0  0  0
   -1.0184    4.8523   -0.6709 C   0  0  0  0  0  0  0  0  0  0  0  0
   -1.0151    3.7885   -1.7297 C   0  0  0  0  0  0  0  0  0  0  0  0
   -1.1097    2.4034   -1.2442 C   0  0  2  0  0  0  0  0  0  0  0  0
   -2.3427    2.1161   -0.4733 N   0  0  0  0  0  0  0  0  0  0  0  0
   -3.0449    0.8738   -0.6654 C   0  0  0  0  0  0  0  0  0  0  0  0
   -2.5748    0.1360   -1.5287 O   0  0  0  0  0  0  0  0  0  0  0  0
   -4.2689    0.5327    0.1609 C   0  0  1  0  0  0  0  0  0  0  0  0
   -5.3957    1.4663   -0.0164 C   0  0  0  0  0  0  0  0  0  0  0  0
   -6.5350    1.0289    0.8411 C   0  0  0  0  0  0  0  0  0  0  0  0
   -7.5092    0.1616    0.3992 C   0  0  0  0  0  0  0  0  0  0  0  0
   -8.5614   -0.2317    1.2180 C   0  0  0  0  0  0  0  0  0  0  0  0
   -8.6312    0.2647    2.5190 C   0  0  0  0  0  0  0  0  0  0  0  0
   -7.6569    1.1388    2.9770 C   0  0  0  0  0  0  0  0  0  0  0  0
   -6.6328    1.5023    2.1332 C   0  0  0  0  0  0  0  0  0  0  0  0
   -4.5751   -0.8666   -0.1694 N   0  0  0  0  0  0  0  0  0  0  0  0
   -3.8488   -1.8484    0.5315 C   0  0  0  0  0  0  0  0  0  0  0  0
   -2.9976   -1.4475    1.3399 O   0  0  0  0  0  0  0  0  0  0  0  0
   -3.9909   -3.3362    0.3972 C   0  0  2  0  0  0  0  0  0  0  0  0
   -5.3010   -3.7655    0.9441 C   0  0  0  0  0  0  0  0  0  0  0  0
   -2.8380   -3.9262    1.1298 N   0  0  0  0  0  0  0  0  0  0  0  0
   -1.8039   -4.5612    0.3792 C   0  0  0  0  0  0  0  0  0  0  0  0
   -2.0432   -4.7044   -0.8291 O   0  0  0  0  0  0  0  0  0  0  0  0
   -0.5176   -5.0293    0.9760 C   0  0  0  0  0  0  0  0  0  0  0  0
    0.3216   -5.5644   -0.1780 C   0  0  0  0  0  0  0  0  0  0  0  0
    1.7691   -5.4220    0.1305 C   0  0  0  0  0  0  0  0  0  0  0  0
    2.2430   -5.1140    1.2281 O   0  0  0  0  0  0  0  0  0  0  0  0
    2.7626   -5.6248   -0.9054 N   0  0  0  0  0  0  0  0  0  0  0  0
    4.1705   -5.4088   -0.7073 C   0  0  0  0  0  0  0  0  0  0  0  0
    4.5744   -4.0400   -0.3129 C   0  0  0  0  0  0  0  0  0  0  0  0
    4.2335   -2.9174   -1.2594 C   0  0  0  0  0  0  0  0  0  0  0  0
    2.7938   -2.8202   -1.4835 C   0  0  0  0  0  0  0  0  0  0  0  0
    2.2156   -1.6390   -2.2399 C   0  0  1  0  0  0  0  0  0  0  0  0
    2.3627   -0.3528   -1.6364 N   0  0  0  0  0  0  0  0  0  0  0  0
    2.4509   -0.0355   -0.2664 C   0  0  0  0  0  0  0  0  0  0  0  0
    2.6466   -0.9321    0.5356 O   0  0  0  0  0  0  0  0  0  0  0  0
    2.3314    1.3895    0.2518 C   0  0  2  0  0  0  0  0  0  0  0  0
    1.4077    1.9797   -0.7459 N   0  0  0  0  0  0  0  0  0  0  0  0
    0.0442    1.9487   -0.3906 C   0  0  0  0  0  0  0  0  0  0  0  0
   -0.2497    1.5073    0.7260 O   0  0  0  0  0  0  0  0  0  0  0  0
    3.6190    2.0992    0.3319 C   0  0  0  0  0  0  0  0  0  0  0  0
    4.5644    1.3924    1.2259 C   0  0  0  0  0  0  0  0  0  0  0  0
    5.6479    0.6666    0.7191 C   0  0  0  0  0  0  0  0  0  0  0  0
    6.3044    0.1612    1.7873 N   0  0  0  0  0  0  0  0  0  0  0  0
    5.6929    0.5287    2.9318 C   0  0  0  0  0  0  0  0  0  0  0  0
    4.5980    1.3028    2.5980 C   0  0  0  0  0  0  0  0  0  0  0  0
    3.7678    1.8243    3.5690 C   0  0  0  0  0  0  0  0  0  0  0  0
    4.0897    1.5315    4.8797 C   0  0  0  0  0  0  0  0  0  0  0  0
    5.1863    0.7552    5.2275 C   0  0  0  0  0  0  0  0  0  0  0  0
    6.0012    0.2453    4.2446 C   0  0  0  0  0  0  0  0  0  0  0  0
    2.4326   -1.6675   -3.6757 C   0  0  0  0  0  0  0  0  0  0  0  0
    2.7299   -0.5646   -4.2542 O   0  0  0  0  0  0  0  0  0  0  0  0
    2.3236   -2.8647   -4.4251 N   0  0  0  0  0  0  0  0  0  0  0  0
    0.6440    8.6335   -1.8582 N   0  0  0  0  0  0  0  0  0  0  0  0
    3.0752    7.4914   -2.7876 H   0  0  0  0  0  0  0  0  0  0  0  0
    2.0849    6.8505   -4.1757 H   0  0  0  0  0  0  0  0  0  0  0  0
   -1.0365    7.0445   -0.6245 H   0  0  0  0  0  0  0  0  0  0  0  0
   -1.7900    6.2833   -2.0676 H   0  0  0  0  0  0  0  0  0  0  0  0
   -0.0590    4.7638   -0.1040 H   0  0  0  0  0  0  0  0  0  0  0  0
   -1.8751    4.8099   -0.0006 H   0  0  0  0  0  0  0  0  0  0  0  0
   -0.1336    3.8702   -2.3864 H   0  0  0  0  0  0  0  0  0  0  0  0
   -1.8905    3.9667   -2.4093 H   0  0  0  0  0  0  0  0  0  0  0  0
   -1.1754    1.7038   -2.1304 H   0  0  0  0  0  0  0  0  0  0  0  0
   -2.7523    2.7432    0.2057 H   0  0  0  0  0  0  0  0  0  0  0  0
   -3.8836    0.5317    1.2308 H   0  0  0  0  0  0  0  0  0  0  0  0
   -5.6542    1.4950   -1.0954 H   0  0  0  0  0  0  0  0  0  0  0  0
   -5.0730    2.4725    0.3463 H   0  0  0  0  0  0  0  0  0  0  0  0
   -7.4389   -0.2142   -0.6147 H   0  0  0  0  0  0  0  0  0  0  0  0
   -9.3375   -0.9221    0.8630 H   0  0  0  0  0  0  0  0  0  0  0  0
   -9.4420   -0.0178    3.1967 H   0  0  0  0  0  0  0  0  0  0  0  0
   -7.6990    1.5304    3.9839 H   0  0  0  0  0  0  0  0  0  0  0  0
   -5.8583    2.1814    2.4581 H   0  0  0  0  0  0  0  0  0  0  0  0
   -5.2526   -1.1805   -0.8482 H   0  0  0  0  0  0  0  0  0  0  0  0
   -3.9301   -3.5416   -0.6686 H   0  0  0  0  0  0  0  0  0  0  0  0
   -6.0791   -3.3851    0.2336 H   0  0  0  0  0  0  0  0  0  0  0  0
   -5.4161   -4.8591    0.9369 H   0  0  0  0  0  0  0  0  0  0  0  0
   -5.5586   -3.3050    1.9269 H   0  0  0  0  0  0  0  0  0  0  0  0
   -2.7309   -3.9176    2.1298 H   0  0  0  0  0  0  0  0  0  0  0  0
   -0.7611   -5.7693    1.7333 H   0  0  0  0  0  0  0  0  0  0  0  0
   -0.0058   -4.1286    1.3721 H   0  0  0  0  0  0  0  0  0  0  0  0
    0.0394   -6.6336   -0.3060 H   0  0  0  0  0  0  0  0  0  0  0  0
    0.0646   -4.9494   -1.0677 H   0  0  0  0  0  0  0  0  0  0  0  0
    2.3629   -5.9701   -1.7839 H   0  0  0  0  0  0  0  0  0  0  0  0
    4.6648   -5.6488   -1.6976 H   0  0  0  0  0  0  0  0  0  0  0  0
    4.5350   -6.1850    0.0079 H   0  0  0  0  0  0  0  0  0  0  0  0
    4.1139   -3.8479    0.7056 H   0  0  0  0  0  0  0  0  0  0  0  0
    5.6946   -4.0442   -0.1066 H   0  0  0  0  0  0  0  0  0  0  0  0
    4.7976   -3.1488   -2.2221 H   0  0  0  0  0  0  0  0  0  0  0  0
    4.7182   -1.9819   -0.8905 H   0  0  0  0  0  0  0  0  0  0  0  0
    2.2705   -2.8381   -0.5106 H   0  0  0  0  0  0  0  0  0  0  0  0
    2.4753   -3.7397   -2.0619 H   0  0  0  0  0  0  0  0  0  0  0  0
    1.0736   -1.8584   -2.0610 H   0  0  0  0  0  0  0  0  0  0  0  0
    2.4227    0.4707   -2.2667 H   0  0  0  0  0  0  0  0  0  0  0  0
    1.8066    1.3511    1.1921 H   0  0  0  0  0  0  0  0  0  0  0  0
    1.6669    2.3859   -1.6233 H   0  0  0  0  0  0  0  0  0  0  0  0
    3.4786    3.1450    0.7295 H   0  0  0  0  0  0  0  0  0  0  0  0
    4.0724    2.2716   -0.6785 H   0  0  0  0  0  0  0  0  0  0  0  0
    5.9025    0.5395   -0.3459 H   0  0  0  0  0  0  0  0  0  0  0  0
    7.1594   -0.4251    1.6719 H   0  0  0  0  0  0  0  0  0  0  0  0
    2.9328    2.4171    3.2682 H   0  0  0  0  0  0  0  0  0  0  0  0
    3.4513    1.9274    5.6580 H   0  0  0  0  0  0  0  0  0  0  0  0
    5.4464    0.5203    6.2469 H   0  0  0  0  0  0  0  0  0  0  0  0
    6.8724   -0.3698    4.5022 H   0  0  0  0  0  0  0  0  0  0  0  0
    1.6078   -3.0331   -5.1678 H   0  0  0  0  0  0  0  0  0  0  0  0
    3.0218   -3.6248   -4.2030 H   0  0  0  0  0  0  0  0  0  0  0  0
    0.7630    8.7411   -0.8071 H   0  0  0  0  0  0  0  0  0  0  0  0
    0.3145    9.4072   -2.4680 H   0  0  0  0  0  0  0  0  0  0  0  0
  1  2  1  0
  2  3  2  3
  3  4  1  0
  4  5  1  0
  5  6  1  0
  6  7  1  0
  7  8  1  0
  8  9  1  0
  9 10  2  0
  9 11  1  0
 11 12  1  0
 12 13  1  0
 13 14  2  0
 14 15  1  0
 15 16  2  0
 16 17  1  0
 17 18  2  0
 11 19  1  0
 19 20  1  0
 20 21  2  0
 20 22  1  0
 22 23  1  0
 22 24  1  0
 24 25  1  0
 25 26  2  0
 25 27  1  0
 27 28  1  0
 28 29  1  0
 29 30  2  0
 29 31  1  0
 31 32  1  0
 32 33  1  0
 33 34  1  0
 34 35  1  0
 35 36  1  0
 36 37  1  0
 37 38  1  0
 38 39  2  0
 38 40  1  0
 40 41  1  0
 41 42  1  0
 42 43  2  0
 40 44  1  0
 44 45  1  0
 45 46  2  0
 46 47  1  0
 47 48  1  0
 48 49  2  0
 49 50  1  0
 50 51  2  0
 51 52  1  0
 52 53  2  0
 36 54  1  0
 54 55  2  0
 54 56  1  0
  2 57  1  0
 42  7  1  0
 49 45  1  0
 18 13  1  0
 53 48  1  0
  1 58  1  0
  1 59  1  0
  4 60  1  0
  4 61  1  0
  5 62  1  0
  5 63  1  0
  6 64  1  0
  6 65  1  0
  7 66  1  6
  8 67  1  0
 11 68  1  1
 12 69  1  0
 12 70  1  0
 14 71  1  0
 15 72  1  0
 16 73  1  0
 17 74  1  0
 18 75  1  0
 19 76  1  0
 22 77  1  6
 23 78  1  0
 23 79  1  0
 23 80  1  0
 24 81  1  0
 27 82  1  0
 27 83  1  0
 28 84  1  0
 28 85  1  0
 31 86  1  0
 32 87  1  0
 32 88  1  0
 33 89  1  0
 33 90  1  0
 34 91  1  0
 34 92  1  0
 35 93  1  0
 35 94  1  0
 36 95  1  6
 37 96  1  0
 40 97  1  1
 41 98  1  0
 44 99  1  0
 44100  1  0
 46101  1  0
 47102  1  0
 50103  1  0
 51104  1  0
 52105  1  0
 53106  1  0
 56107  1  0
 56108  1  0
 57109  1  0
 57110  1  0
M  END
>  <Ligand ID>  (1) 
LIG0002276

>  <Ligand>  (1) 
CHEMBL436903

>  <SMILES>  (1) 
NC(=NCCC[C@@H]1NC(=O)[C@@H](Cc2ccccc2)NC(=O)[C@H](C)NC(=O)CCC(=O)NCCCC[C@@H](NC(=O)[C@H](NC1=O)Cc1c[nH]c2c1cccc2)C(=O)N)N

>  <CID>  (1) 
44323212.0

>  <ChEMBL ID>  (1) 
nan

>  <InChiKey>  (1) 
XUTYIKZHTPPGMX-NPIMDBKXSA-N

>  <InChi>  (1) 
InChI=1S/C39H53N11O7/c1-23-35(54)49-30(20-24-10-3-2-4-11-24)37(56)48-29(15-9-19-44-39(41)42)36(55)50-31(21-25-22-45-27-13-6-5-12-26(25)27)38(57)47-28(34(40)53)14-7-8-18-43-32(51)16-17-33(52)46-23/h2-6,10-13,22-23,28-31,45H,7-9,14-21H2,1H3,(H2,40,53)(H,43,51)(H,46,52)(H,47,57)(H,48,56)(H,49,54)(H,50,55)(H4,41,42,44)/t23-,28+,29-,30+,31+/m0/s1

>  <IUPAC Name>  (1) 
(3R,6S,9R,12S,23R)-9-benzyl-6-[3-(diaminomethylideneamino)propyl]-3-(1H-indol-3-ylmethyl)-12-methyl-2,5,8,11,14,17-hexaoxo-1,4,7,10,13,18-hexazacyclotricosane-23-carboxamide

$$$$
