
     RDKit          3D

 82 86  0  0  0  0  0  0  0  0999 V2000
    3.5727    2.7043    1.4424 O   0  0  0  0  0  0  0  0  0  0  0  0
    2.9544    2.1858    0.2738 C   0  0  2  0  0  0  0  0  0  0  0  0
    1.4909    2.2903    0.2513 C   0  0  0  0  0  0  0  0  0  0  0  0
    0.7230    1.0273    0.6083 C   0  0  2  0  0  0  0  0  0  0  0  0
    1.1891    0.7240    2.0454 C   0  0  0  0  0  0  0  0  0  0  0  0
    1.3629   -0.0026   -0.2598 C   0  0  0  0  0  0  0  0  0  0  0  0
    0.7967   -0.5772   -1.2967 C   0  0  0  0  0  0  0  0  0  0  0  0
   -0.5823   -0.1929   -1.6620 C   0  0  0  0  0  0  0  0  0  0  0  0
   -1.3482    0.1561   -0.4369 C   0  0  0  0  0  0  0  0  0  0  0  0
   -0.7539    1.1145    0.5149 C   0  0  2  0  0  0  0  0  0  0  0  0
   -1.1278    2.5629    0.3049 C   0  0  0  0  0  0  0  0  0  0  0  0
   -1.4232    0.8004    1.8749 C   0  0  0  0  0  0  0  0  0  0  0  0
   -2.6345   -0.0521    1.7708 C   0  0  0  0  0  0  0  0  0  0  0  0
   -3.5319    0.1930    0.6153 C   0  0  0  0  0  0  0  0  0  0  0  0
   -2.8329    0.3023   -0.7011 C   0  0  1  0  0  0  0  0  0  0  0  0
   -3.2464    1.4927   -1.4924 C   0  0  0  0  0  0  0  0  0  0  0  0
   -3.2452   -0.8949   -1.5726 C   0  0  0  0  0  0  0  0  0  0  0  0
   -4.7311   -0.9827   -1.7356 C   0  0  0  0  0  0  0  0  0  0  0  0
   -5.5382   -0.6717   -0.5404 C   0  0  1  0  0  0  0  0  0  0  0  0
   -4.6703   -0.7660    0.6904 C   0  0  0  0  0  0  0  0  0  0  0  0
   -4.3755   -2.1845    0.9534 C   0  0  0  0  0  0  0  0  0  0  0  0
   -5.5818   -0.2786    1.8312 C   0  0  0  0  0  0  0  0  0  0  0  0
   -6.3110    0.4714   -0.5996 O   0  0  0  0  0  0  0  0  0  0  0  0
    2.7892   -0.3328    0.0874 C   0  0  0  0  0  0  0  0  0  0  0  0
    3.6209    0.9080   -0.1496 C   0  0  2  0  0  0  0  0  0  0  0  0
    4.8740    0.6835    0.6517 C   0  0  0  0  0  0  0  0  0  0  0  0
    5.5517   -0.5649    0.2365 C   0  0  0  0  0  0  0  0  0  0  0  0
    4.7231   -1.7380   -0.1194 C   0  0  0  0  0  0  0  0  0  0  0  0
    3.3840   -1.4070   -0.7643 C   0  0  0  0  0  0  0  0  0  0  0  0
    4.5313   -2.6458    1.0804 C   0  0  0  0  0  0  0  0  0  0  0  0
    5.4614   -2.5703   -1.1521 C   0  0  0  0  0  0  0  0  0  0  0  0
    4.0567    1.0034   -1.5708 C   0  0  0  0  0  0  0  0  0  0  0  0
    5.2432    0.9348   -1.9580 O   0  0  0  0  0  0  0  0  0  0  0  0
    3.0203    1.1837   -2.5081 O   0  0  0  0  0  0  0  0  0  0  0  0
    3.3248    3.6463    1.5457 H   0  0  0  0  0  0  0  0  0  0  0  0
    3.3487    2.9659   -0.4617 H   0  0  0  0  0  0  0  0  0  0  0  0
    1.2402    3.1584    0.8866 H   0  0  0  0  0  0  0  0  0  0  0  0
    1.1984    2.5830   -0.7954 H   0  0  0  0  0  0  0  0  0  0  0  0
    0.7924    1.4477    2.7776 H   0  0  0  0  0  0  0  0  0  0  0  0
    2.2978    0.9401    2.0970 H   0  0  0  0  0  0  0  0  0  0  0  0
    1.1373   -0.3324    2.3024 H   0  0  0  0  0  0  0  0  0  0  0  0
    1.3821   -1.3278   -1.8532 H   0  0  0  0  0  0  0  0  0  0  0  0
   -1.0215   -1.1193   -2.1012 H   0  0  0  0  0  0  0  0  0  0  0  0
   -0.6420    0.5481   -2.4730 H   0  0  0  0  0  0  0  0  0  0  0  0
   -1.3376   -0.8380    0.1198 H   0  0  0  0  0  0  0  0  0  0  0  0
   -0.7403    3.0875    1.2332 H   0  0  0  0  0  0  0  0  0  0  0  0
   -2.2308    2.7540    0.4474 H   0  0  0  0  0  0  0  0  0  0  0  0
   -0.7100    3.0695   -0.5425 H   0  0  0  0  0  0  0  0  0  0  0  0
   -0.7521    0.2491    2.5578 H   0  0  0  0  0  0  0  0  0  0  0  0
   -1.6864    1.7184    2.4388 H   0  0  0  0  0  0  0  0  0  0  0  0
   -2.3479   -1.1125    1.9151 H   0  0  0  0  0  0  0  0  0  0  0  0
   -3.2672    0.1561    2.6861 H   0  0  0  0  0  0  0  0  0  0  0  0
   -4.0038    1.2077    0.7878 H   0  0  0  0  0  0  0  0  0  0  0  0
   -2.4630    2.1478   -1.8617 H   0  0  0  0  0  0  0  0  0  0  0  0
   -3.8328    1.2492   -2.4334 H   0  0  0  0  0  0  0  0  0  0  0  0
   -4.0545    2.0110   -0.8935 H   0  0  0  0  0  0  0  0  0  0  0  0
   -2.7537   -1.8220   -1.3184 H   0  0  0  0  0  0  0  0  0  0  0  0
   -2.9100   -0.6184   -2.6179 H   0  0  0  0  0  0  0  0  0  0  0  0
   -5.1307   -0.3478   -2.5702 H   0  0  0  0  0  0  0  0  0  0  0  0
   -4.9155   -2.0307   -2.1182 H   0  0  0  0  0  0  0  0  0  0  0  0
   -6.2875   -1.5090   -0.4095 H   0  0  0  0  0  0  0  0  0  0  0  0
   -4.7197   -2.5263    1.9761 H   0  0  0  0  0  0  0  0  0  0  0  0
   -4.9644   -2.8715    0.2733 H   0  0  0  0  0  0  0  0  0  0  0  0
   -3.3523   -2.5362    0.8787 H   0  0  0  0  0  0  0  0  0  0  0  0
   -6.5779   -0.7493    1.6500 H   0  0  0  0  0  0  0  0  0  0  0  0
   -5.1636   -0.6454    2.7938 H   0  0  0  0  0  0  0  0  0  0  0  0
   -5.6593    0.8059    1.7604 H   0  0  0  0  0  0  0  0  0  0  0  0
   -6.2255    0.9664   -1.4435 H   0  0  0  0  0  0  0  0  0  0  0  0
    2.8313   -0.7052    1.1186 H   0  0  0  0  0  0  0  0  0  0  0  0
    5.5897    1.5275    0.4973 H   0  0  0  0  0  0  0  0  0  0  0  0
    4.6197    0.5843    1.7398 H   0  0  0  0  0  0  0  0  0  0  0  0
    6.3515   -0.4380   -0.5325 H   0  0  0  0  0  0  0  0  0  0  0  0
    6.1670   -0.8921    1.1470 H   0  0  0  0  0  0  0  0  0  0  0  0
    3.5700   -1.1309   -1.8124 H   0  0  0  0  0  0  0  0  0  0  0  0
    2.7523   -2.3208   -0.6411 H   0  0  0  0  0  0  0  0  0  0  0  0
    3.8529   -3.4919    0.8409 H   0  0  0  0  0  0  0  0  0  0  0  0
    5.5246   -3.1140    1.2522 H   0  0  0  0  0  0  0  0  0  0  0  0
    4.2778   -2.1069    1.9948 H   0  0  0  0  0  0  0  0  0  0  0  0
    6.3575   -3.0518   -0.7511 H   0  0  0  0  0  0  0  0  0  0  0  0
    5.6879   -1.8614   -1.9970 H   0  0  0  0  0  0  0  0  0  0  0  0
    4.7318   -3.2945   -1.6147 H   0  0  0  0  0  0  0  0  0  0  0  0
    3.3032    1.0938   -3.4758 H   0  0  0  0  0  0  0  0  0  0  0  0
  1  2  1  0
  2  3  1  0
  3  4  1  0
  4  5  1  1
  4  6  1  0
  6  7  2  0
  7  8  1  0
  8  9  1  0
  9 10  1  0
 10 11  1  6
 10 12  1  0
 12 13  1  0
 13 14  1  0
 14 15  1  0
 15 16  1  6
 15 17  1  0
 17 18  1  0
 18 19  1  0
 19 20  1  0
 20 21  1  0
 20 22  1  0
 19 23  1  0
  6 24  1  0
 24 25  1  0
 25 26  1  0
 26 27  1  0
 27 28  1  0
 28 29  1  0
 28 30  1  0
 28 31  1  0
 25 32  1  6
 32 33  2  0
 32 34  1  0
 25  2  1  0
 10  4  1  0
 20 14  1  0
 29 24  1  0
 15  9  1  0
  1 35  1  0
  2 36  1  6
  3 37  1  0
  3 38  1  0
  5 39  1  0
  5 40  1  0
  5 41  1  0
  7 42  1  0
  8 43  1  0
  8 44  1  0
  9 45  1  0
 11 46  1  0
 11 47  1  0
 11 48  1  0
 12 49  1  0
 12 50  1  0
 13 51  1  0
 13 52  1  0
 14 53  1  0
 16 54  1  0
 16 55  1  0
 16 56  1  0
 17 57  1  0
 17 58  1  0
 18 59  1  0
 18 60  1  0
 19 61  1  1
 21 62  1  0
 21 63  1  0
 21 64  1  0
 22 65  1  0
 22 66  1  0
 22 67  1  0
 23 68  1  0
 24 69  1  0
 26 70  1  0
 26 71  1  0
 27 72  1  0
 27 73  1  0
 29 74  1  0
 29 75  1  0
 30 76  1  0
 30 77  1  0
 30 78  1  0
 31 79  1  0
 31 80  1  0
 31 81  1  0
 34 82  1  0
M  END
>  <Ligand ID>  (1) 
LIG0005122

>  <Ligand>  (1) 
echinocystic aicd

>  <SMILES>  (1) 
O[C@@H]1C[C@]2(C)C(=CCC3[C@@]2(C)CCC2[C@]3(C)CC[C@@H](C2(C)C)O)C2[C@@]1(CCC(C2)(C)C)C(=O)O

>  <CID>  (1) 
23983726.0

>  <ChEMBL ID>  (1) 
nan

>  <InChiKey>  (1) 
YKOPWPOFWMYZJZ-QIKFJBJGSA-N

>  <InChi>  (1) 
InChI=1S/C30H48O4/c1-25(2)14-15-30(24(33)34)19(16-25)18-8-9-21-27(5)12-11-22(31)26(3,4)20(27)10-13-28(21,6)29(18,7)17-23(30)32/h8,19-23,31-32H,9-17H2,1-7H3,(H,33,34)/t19?,20?,21?,22-,23+,27-,28+,29+,30+/m0/s1

>  <IUPAC Name>  (1) 
(4aR,5R,6aS,6bR,10S,12aR)-5,10-dihydroxy-2,2,6a,6b,9,9,12a-heptamethyl-1,3,4,5,6,6a,7,8,8a,10,11,12,13,14b-tetradecahydropicene-4a-carboxylic acid

$$$$
