
     RDKit          3D

 47 47  0  0  0  0  0  0  0  0999 V2000
   -2.2089   -3.6342    0.2704 C   0  0  0  0  0  0  0  0  0  0  0  0
   -2.7715   -2.4923   -0.2911 O   0  0  0  0  0  0  0  0  0  0  0  0
   -2.2856   -1.2048   -0.1064 C   0  0  0  0  0  0  0  0  0  0  0  0
   -1.1725   -1.0220    0.6825 C   0  0  0  0  0  0  0  0  0  0  0  0
   -0.6456    0.2247    0.9026 C   0  0  0  0  0  0  0  0  0  0  0  0
   -1.2696    1.2983    0.3039 C   0  0  0  0  0  0  0  0  0  0  0  0
   -2.3952    1.1073   -0.4939 C   0  0  0  0  0  0  0  0  0  0  0  0
   -2.9418   -0.1311   -0.7278 C   0  0  0  0  0  0  0  0  0  0  0  0
   -4.0234   -0.4217   -1.4823 O   0  0  0  0  0  0  0  0  0  0  0  0
   -5.3508   -0.6159   -1.2203 C   0  0  0  0  0  0  0  0  0  0  0  0
   -6.1521    0.4274   -0.5982 C   0  0  0  0  0  0  0  0  0  0  0  0
   -7.3981    0.1571   -0.4145 O   0  0  0  0  0  0  0  0  0  0  0  0
   -5.7584    1.6723   -0.1754 O   0  0  0  0  0  0  0  0  0  0  0  0
   -2.9376    2.2742   -1.0926 N   0  0  0  0  0  0  0  0  0  0  0  0
   -3.5033    2.1973   -2.2241 O   0  0  0  0  0  0  0  0  0  0  0  0
   -2.8416    3.4875   -0.4348 O   0  0  0  0  0  0  0  0  0  0  0  0
    0.5565    0.3851    1.7613 C   0  0  0  0  0  0  0  0  0  0  0  0
    2.0784   -0.0606    0.9066 P   0  0  0  0  0  0  0  0  0  0  0  0
    2.6039   -1.3416    1.5369 O   0  0  0  0  0  0  0  0  0  0  0  0
    3.3245    1.2361    1.1267 C   0  0  0  0  0  0  0  0  0  0  0  0
    4.7130    0.6778    1.0607 C   0  0  0  0  0  0  0  0  0  0  0  0
    5.0643    0.0051   -0.2287 C   0  0  2  0  0  0  0  0  0  0  0  0
    4.9623    0.9311   -1.3912 C   0  0  0  0  0  0  0  0  0  0  0  0
    4.3182    0.6231   -2.4270 O   0  0  0  0  0  0  0  0  0  0  0  0
    5.6122    2.1527   -1.2796 O   0  0  0  0  0  0  0  0  0  0  0  0
    4.3518   -1.2146   -0.4807 N   0  0  0  0  0  0  0  0  0  0  0  0
    1.8440   -0.3219   -0.7329 O   0  0  0  0  0  0  0  0  0  0  0  0
    0.3870   -0.3954    2.9243 O   0  0  0  0  0  0  0  0  0  0  0  0
   -1.9685   -3.4346    1.3362 H   0  0  0  0  0  0  0  0  0  0  0  0
   -1.3324   -4.0385   -0.2736 H   0  0  0  0  0  0  0  0  0  0  0  0
   -3.0324   -4.4054    0.3175 H   0  0  0  0  0  0  0  0  0  0  0  0
   -0.6740   -1.8586    1.1573 H   0  0  0  0  0  0  0  0  0  0  0  0
   -0.8723    2.2747    0.4649 H   0  0  0  0  0  0  0  0  0  0  0  0
   -5.8621   -0.8273   -2.2255 H   0  0  0  0  0  0  0  0  0  0  0  0
   -5.5149   -1.5678   -0.6350 H   0  0  0  0  0  0  0  0  0  0  0  0
   -6.4396    2.4186   -0.1361 H   0  0  0  0  0  0  0  0  0  0  0  0
    0.6342    1.4306    2.0907 H   0  0  0  0  0  0  0  0  0  0  0  0
    3.2229    1.7013    2.1350 H   0  0  0  0  0  0  0  0  0  0  0  0
    3.1646    2.0431    0.3747 H   0  0  0  0  0  0  0  0  0  0  0  0
    4.7519   -0.1255    1.8550 H   0  0  0  0  0  0  0  0  0  0  0  0
    5.4831    1.4000    1.3610 H   0  0  0  0  0  0  0  0  0  0  0  0
    6.1461   -0.2606   -0.1608 H   0  0  0  0  0  0  0  0  0  0  0  0
    5.7779    2.6792   -2.1409 H   0  0  0  0  0  0  0  0  0  0  0  0
    4.8380   -1.9818    0.0318 H   0  0  0  0  0  0  0  0  0  0  0  0
    4.2432   -1.4242   -1.4960 H   0  0  0  0  0  0  0  0  0  0  0  0
    1.8477    0.5799   -1.1762 H   0  0  0  0  0  0  0  0  0  0  0  0
   -0.5736   -0.6042    3.0128 H   0  0  0  0  0  0  0  0  0  0  0  0
  1  2  1  0
  2  3  1  0
  3  4  2  0
  4  5  1  0
  5  6  2  0
  6  7  1  0
  7  8  2  0
  8  9  1  0
  9 10  1  0
 10 11  1  0
 11 12  2  0
 11 13  1  0
  7 14  1  0
 14 15  2  0
 14 16  1  0
  5 17  1  0
 17 18  1  0
 18 19  2  0
 18 20  1  0
 20 21  1  0
 21 22  1  0
 22 23  1  0
 23 24  2  0
 23 25  1  0
 22 26  1  0
 18 27  1  0
 17 28  1  0
  8  3  1  0
  1 29  1  0
  1 30  1  0
  1 31  1  0
  4 32  1  0
  6 33  1  0
 10 34  1  0
 10 35  1  0
 13 36  1  0
 17 37  1  0
 20 38  1  0
 20 39  1  0
 21 40  1  0
 21 41  1  0
 22 42  1  1
 25 43  1  0
 26 44  1  0
 26 45  1  0
 27 46  1  0
 28 47  1  0
M  CHG  2  14   1  16  -1
M  END
>  <Ligand ID>  (1) 
LIG0002010

>  <Ligand>  (1) 
US9212196, Derivative 5

>  <SMILES>  (1) 
COc1cc(cc(c1OCC(=O)O)[N+](=O)[O-])C(P(=O)(CC[C@H](C(=O)O)N)O)O

>  <CID>  (1) 
122197937.0

>  <ChEMBL ID>  (1) 
nan

>  <InChiKey>  (1) 
OCWGTIQPGGIBEM-ZSYIFEHUSA-N

>  <InChi>  (1) 
InChI=1S/C14H19N2O11P/c1-26-10-5-7(4-9(16(22)23)12(10)27-6-11(17)18)14(21)28(24,25)3-2-8(15)13(19)20/h4-5,8,14,21H,2-3,6,15H2,1H3,(H,17,18)(H,19,20)(H,24,25)/t8-,14?/m1/s1

>  <IUPAC Name>  (1) 
(2R)-2-amino-4-[[[4-(carboxymethoxy)-3-methoxy-5-nitrophenyl]-hydroxymethyl]-hydroxyphosphoryl]butanoic acid

$$$$
