
     RDKit          3D

 28 27  0  0  0  0  0  0  0  0999 V2000
    3.5169   -1.2025   -0.3166 C   0  0  0  0  0  0  0  0  0  0  0  0
    2.1951   -0.4641   -0.5551 C   0  0  0  0  0  0  0  0  0  0  0  0
    1.5253   -0.2220    0.7770 C   0  0  0  0  0  0  0  0  0  0  0  0
    0.1920    0.5145    0.6273 C   0  0  1  0  0  0  0  0  0  0  0  0
    0.3570    1.8199   -0.0042 C   0  0  0  0  0  0  0  0  0  0  0  0
   -0.1425    2.1935   -1.0903 O   0  0  0  0  0  0  0  0  0  0  0  0
    1.1538    2.7653    0.6602 O   0  0  0  0  0  0  0  0  0  0  0  0
   -0.8451   -0.3795    0.0459 C   0  0  0  0  0  0  0  0  0  0  0  0
   -2.1927    0.2751   -0.1223 C   0  0  1  0  0  0  0  0  0  0  0  0
   -3.1103   -0.7410   -0.7063 C   0  0  0  0  0  0  0  0  0  0  0  0
   -4.1259   -1.1271   -0.0793 O   0  0  0  0  0  0  0  0  0  0  0  0
   -2.8024   -1.2375   -1.9540 O   0  0  0  0  0  0  0  0  0  0  0  0
   -2.6328    0.7062    1.1805 N   0  0  0  0  0  0  0  0  0  0  0  0
    4.3683   -0.4855   -0.2562 H   0  0  0  0  0  0  0  0  0  0  0  0
    3.4435   -1.7895    0.6247 H   0  0  0  0  0  0  0  0  0  0  0  0
    3.7383   -1.9189   -1.1137 H   0  0  0  0  0  0  0  0  0  0  0  0
    2.4208    0.5126   -1.0333 H   0  0  0  0  0  0  0  0  0  0  0  0
    1.5855   -1.1094   -1.1901 H   0  0  0  0  0  0  0  0  0  0  0  0
    2.1833    0.3535    1.4576 H   0  0  0  0  0  0  0  0  0  0  0  0
    1.2607   -1.2268    1.1864 H   0  0  0  0  0  0  0  0  0  0  0  0
   -0.1144    0.7110    1.6968 H   0  0  0  0  0  0  0  0  0  0  0  0
    1.1765    3.7441    0.3465 H   0  0  0  0  0  0  0  0  0  0  0  0
   -0.5331   -0.8602   -0.9088 H   0  0  0  0  0  0  0  0  0  0  0  0
   -1.0040   -1.2129    0.7712 H   0  0  0  0  0  0  0  0  0  0  0  0
   -2.1680    1.1593   -0.7696 H   0  0  0  0  0  0  0  0  0  0  0  0
   -3.4267   -1.9315   -2.3860 H   0  0  0  0  0  0  0  0  0  0  0  0
   -3.5909    1.1090    1.1768 H   0  0  0  0  0  0  0  0  0  0  0  0
   -2.4284    0.0444    1.9350 H   0  0  0  0  0  0  0  0  0  0  0  0
  1  2  1  0
  2  3  1  0
  3  4  1  0
  4  5  1  0
  5  6  2  0
  5  7  1  0
  4  8  1  0
  8  9  1  0
  9 10  1  0
 10 11  2  0
 10 12  1  0
  9 13  1  0
  1 14  1  0
  1 15  1  0
  1 16  1  0
  2 17  1  0
  2 18  1  0
  3 19  1  0
  3 20  1  0
  4 21  1  1
  7 22  1  0
  8 23  1  0
  8 24  1  0
  9 25  1  6
 12 26  1  0
 13 27  1  0
 13 28  1  0
M  END
>  <Ligand ID>  (1) 
LIG0001748

>  <Ligand>  (1) 
CHEMBL61997

>  <SMILES>  (1) 
CCC[C@@H](C(=O)O)C[C@@H](C(=O)O)N

>  <CID>  (1) 
11745400.0

>  <ChEMBL ID>  (1) 
nan

>  <InChiKey>  (1) 
KXVTWKUIWACPEZ-RITPCOANSA-N

>  <InChi>  (1) 
InChI=1S/C8H15NO4/c1-2-3-5(7(10)11)4-6(9)8(12)13/h5-6H,2-4,9H2,1H3,(H,10,11)(H,12,13)/t5-,6+/m1/s1

>  <IUPAC Name>  (1) 
(2S,4R)-2-amino-4-propylpentanedioic acid

$$$$
