
     RDKit          3D

 44 46  0  0  0  0  0  0  0  0999 V2000
    0.6775    0.2524    2.0162 C   0  0  0  0  0  0  0  0  0  0  0  0
    0.7235    0.7940    0.6052 C   0  0  1  0  0  0  0  0  0  0  0  0
    1.1401   -0.2744   -0.3786 C   0  0  0  0  0  0  0  0  0  0  0  0
    2.4785   -0.8210   -0.0807 C   0  0  0  0  0  0  0  0  0  0  0  0
    2.7690   -2.0587    0.5092 C   0  0  0  0  0  0  0  0  0  0  0  0
    4.0843   -2.2209    0.6254 N   0  0  0  0  0  0  0  0  0  0  0  0
    4.6836   -1.1462    0.1389 C   0  0  0  0  0  0  0  0  0  0  0  0
    3.7258   -0.2587   -0.3070 C   0  0  0  0  0  0  0  0  0  0  0  0
    4.0935    0.9600   -0.8683 C   0  0  0  0  0  0  0  0  0  0  0  0
    5.4466    1.2292   -0.9542 C   0  0  0  0  0  0  0  0  0  0  0  0
    6.4198    0.3565   -0.5151 C   0  0  0  0  0  0  0  0  0  0  0  0
    6.0303   -0.8484    0.0392 C   0  0  0  0  0  0  0  0  0  0  0  0
   -0.5011    1.4410    0.2248 N   0  0  0  0  0  0  0  0  0  0  0  0
   -1.6487    0.5717    0.2839 C   0  0  0  0  0  0  0  0  0  0  0  0
   -2.8582    1.3752   -0.1473 C   0  0  2  0  0  0  0  0  0  0  0  0
   -4.0429    0.4960   -0.0525 C   0  0  0  0  0  0  0  0  0  0  0  0
   -4.9727    0.6862    0.9728 C   0  0  0  0  0  0  0  0  0  0  0  0
   -6.0937   -0.1416    1.0644 C   0  0  0  0  0  0  0  0  0  0  0  0
   -6.3111   -1.1621    0.1512 C   0  0  0  0  0  0  0  0  0  0  0  0
   -5.3792   -1.3481   -0.8712 C   0  0  0  0  0  0  0  0  0  0  0  0
   -4.2592   -0.5164   -0.9575 C   0  0  0  0  0  0  0  0  0  0  0  0
   -5.5875   -2.6024   -2.0445 Cl  0  0  0  0  0  0  0  0  0  0  0  0
   -2.6215    1.8136   -1.4532 O   0  0  0  0  0  0  0  0  0  0  0  0
    0.2528   -0.7895    2.0338 H   0  0  0  0  0  0  0  0  0  0  0  0
    1.6907    0.2394    2.5018 H   0  0  0  0  0  0  0  0  0  0  0  0
    0.0642    0.9534    2.6266 H   0  0  0  0  0  0  0  0  0  0  0  0
    1.5119    1.5769    0.5810 H   0  0  0  0  0  0  0  0  0  0  0  0
    1.0389    0.0894   -1.4204 H   0  0  0  0  0  0  0  0  0  0  0  0
    0.4050   -1.0998   -0.2843 H   0  0  0  0  0  0  0  0  0  0  0  0
    1.9780   -2.7398    0.8058 H   0  0  0  0  0  0  0  0  0  0  0  0
    4.5565   -3.0780    1.0422 H   0  0  0  0  0  0  0  0  0  0  0  0
    3.3339    1.6627   -1.2202 H   0  0  0  0  0  0  0  0  0  0  0  0
    5.7967    2.1723   -1.3862 H   0  0  0  0  0  0  0  0  0  0  0  0
    7.4897    0.5780   -0.5868 H   0  0  0  0  0  0  0  0  0  0  0  0
    6.7991   -1.5533    0.3927 H   0  0  0  0  0  0  0  0  0  0  0  0
   -0.6718    2.2674    0.8030 H   0  0  0  0  0  0  0  0  0  0  0  0
   -1.5708   -0.2541   -0.4794 H   0  0  0  0  0  0  0  0  0  0  0  0
   -1.8239    0.1643    1.2879 H   0  0  0  0  0  0  0  0  0  0  0  0
   -2.9714    2.2967    0.4675 H   0  0  0  0  0  0  0  0  0  0  0  0
   -4.8689    1.4586    1.7165 H   0  0  0  0  0  0  0  0  0  0  0  0
   -6.8203   -0.0053    1.8529 H   0  0  0  0  0  0  0  0  0  0  0  0
   -7.1953   -1.7979    0.2404 H   0  0  0  0  0  0  0  0  0  0  0  0
   -3.5271   -0.6553   -1.7538 H   0  0  0  0  0  0  0  0  0  0  0  0
   -3.4646    1.9369   -1.9612 H   0  0  0  0  0  0  0  0  0  0  0  0
  1  2  1  0
  2  3  1  0
  3  4  1  0
  4  5  2  0
  5  6  1  0
  6  7  1  0
  7  8  2  0
  8  9  1  0
  9 10  2  0
 10 11  1  0
 11 12  2  0
  2 13  1  0
 13 14  1  0
 14 15  1  0
 15 16  1  0
 16 17  2  0
 17 18  1  0
 18 19  2  0
 19 20  1  0
 20 21  2  0
 20 22  1  0
 15 23  1  0
  8  4  1  0
 21 16  1  0
 12  7  1  0
  1 24  1  0
  1 25  1  0
  1 26  1  0
  2 27  1  1
  3 28  1  0
  3 29  1  0
  5 30  1  0
  6 31  1  0
  9 32  1  0
 10 33  1  0
 11 34  1  0
 12 35  1  0
 13 36  1  0
 14 37  1  0
 14 38  1  0
 15 39  1  1
 17 40  1  0
 18 41  1  0
 19 42  1  0
 21 43  1  0
 23 44  1  0
M  END
>  <Ligand ID>  (1) 
LIG0005216

>  <Ligand>  (1) 
CHEMBL282039

>  <SMILES>  (1) 
C[C@@H](Cc1c[nH]c2c1cccc2)NC[C@H](c1cccc(c1)Cl)O

>  <CID>  (1) 
11381882.0

>  <ChEMBL ID>  (1) 
nan

>  <InChiKey>  (1) 
AGWBMRMDTWHPJM-ORAYPTAESA-N

>  <InChi>  (1) 
InChI=1S/C19H21ClN2O/c1-13(9-15-11-22-18-8-3-2-7-17(15)18)21-12-19(23)14-5-4-6-16(20)10-14/h2-8,10-11,13,19,21-23H,9,12H2,1H3/t13-,19+/m0/s1

>  <IUPAC Name>  (1) 
(1S)-1-(3-chlorophenyl)-2-[[(2S)-1-(1H-indol-3-yl)propan-2-yl]amino]ethanol

$$$$
