
     RDKit          3D

152157  0  0  0  0  0  0  0  0999 V2000
   13.0213   -3.3716    0.5053 C   0  0  0  0  0  0  0  0  0  0  0  0
   11.6912   -3.4262   -0.2112 C   0  0  0  0  0  0  0  0  0  0  0  0
   10.6838   -2.5801    0.5400 C   0  0  0  0  0  0  0  0  0  0  0  0
    9.3673   -2.6679   -0.2229 C   0  0  0  0  0  0  0  0  0  0  0  0
    8.2824   -1.9310    0.4153 C   0  0  2  0  0  0  0  0  0  0  0  0
    6.9767   -1.9951   -0.3481 C   0  0  0  0  0  0  0  0  0  0  0  0
    6.8421   -2.6518   -1.3987 O   0  0  0  0  0  0  0  0  0  0  0  0
    5.9120   -1.2396    0.2615 N   0  0  0  0  0  0  0  0  0  0  0  0
    4.5867   -1.1350   -0.2099 C   0  0  1  0  0  0  0  0  0  0  0  0
    3.5585   -2.1090    0.3472 C   0  0  0  0  0  0  0  0  0  0  0  0
    3.7790   -3.5125    0.0144 C   0  0  0  0  0  0  0  0  0  0  0  0
    4.8289   -4.1734    0.2093 O   0  0  0  0  0  0  0  0  0  0  0  0
    2.7422   -4.2778   -0.6289 N   0  0  0  0  0  0  0  0  0  0  0  0
    2.8365   -5.6469   -1.0288 C   0  0  0  0  0  0  0  0  0  0  0  0
    1.7093   -6.2111   -1.7821 C   0  0  0  0  0  0  0  0  0  0  0  0
    0.3782   -6.4016   -1.1907 C   0  0  0  0  0  0  0  0  0  0  0  0
   -0.2232   -5.1591   -0.6383 C   0  0  0  0  0  0  0  0  0  0  0  0
   -1.7080   -5.3647   -0.3271 C   0  0  2  0  0  0  0  0  0  0  0  0
   -2.2197   -4.2396    0.3667 N   0  0  0  0  0  0  0  0  0  0  0  0
   -2.5988   -2.9724   -0.1938 C   0  0  0  0  0  0  0  0  0  0  0  0
   -2.2444   -2.8000   -1.3677 O   0  0  0  0  0  0  0  0  0  0  0  0
   -3.3360   -2.0426    0.6655 C   0  0  1  0  0  0  0  0  0  0  0  0
   -3.3412   -0.6522    0.3236 N   0  0  0  0  0  0  0  0  0  0  0  0
   -3.1253    0.3117    1.3329 C   0  0  0  0  0  0  0  0  0  0  0  0
   -3.1258   -0.3804    2.4809 O   0  0  0  0  0  0  0  0  0  0  0  0
   -2.9310    1.6827    1.5644 C   0  0  1  0  0  0  0  0  0  0  0  0
   -2.3040    2.2515    0.2861 N   0  0  0  0  0  0  0  0  0  0  0  0
   -0.9472    2.5586    0.3299 C   0  0  0  0  0  0  0  0  0  0  0  0
   -0.3048    2.3194    1.3488 O   0  0  0  0  0  0  0  0  0  0  0  0
   -0.1245    3.1801   -0.8027 C   0  0  2  0  0  0  0  0  0  0  0  0
    1.2494    3.1900   -0.2148 N   0  0  0  0  0  0  0  0  0  0  0  0
    2.3743    2.5440   -0.6758 C   0  0  0  0  0  0  0  0  0  0  0  0
    2.3054    1.9465   -1.7691 O   0  0  0  0  0  0  0  0  0  0  0  0
    3.6139    2.5829    0.1669 C   0  0  1  0  0  0  0  0  0  0  0  0
    4.5332    1.4864   -0.1749 N   0  0  0  0  0  0  0  0  0  0  0  0
    4.0273    0.1940   -0.1095 C   0  0  0  0  0  0  0  0  0  0  0  0
    2.7233    0.2100    0.0696 O   0  0  0  0  0  0  0  0  0  0  0  0
    4.2944    3.8784    0.1767 C   0  0  0  0  0  0  0  0  0  0  0  0
    3.5556    5.0493    0.6490 C   0  0  0  0  0  0  0  0  0  0  0  0
    3.4679    5.4814    1.9126 N   0  0  0  0  0  0  0  0  0  0  0  0
    2.7143    6.5965    1.8808 C   0  0  0  0  0  0  0  0  0  0  0  0
    2.3491    6.8430    0.6187 N   0  0  0  0  0  0  0  0  0  0  0  0
    2.8456    5.9058   -0.2037 C   0  0  0  0  0  0  0  0  0  0  0  0
   -0.5091    4.6251   -1.0207 C   0  0  0  0  0  0  0  0  0  0  0  0
   -1.9140    4.8696   -1.3421 C   0  0  0  0  0  0  0  0  0  0  0  0
   -2.5161    4.8143   -2.5484 C   0  0  0  0  0  0  0  0  0  0  0  0
   -3.8767    5.0769   -2.7857 C   0  0  0  0  0  0  0  0  0  0  0  0
   -4.6234    5.4222   -1.6389 C   0  0  0  0  0  0  0  0  0  0  0  0
   -4.0518    5.4940   -0.3853 C   0  0  0  0  0  0  0  0  0  0  0  0
   -2.7392    5.2232   -0.2597 C   0  0  0  0  0  0  0  0  0  0  0  0
   -4.8255    5.8177    0.6665 C   0  0  0  0  0  0  0  0  0  0  0  0
   -6.1701    6.0752    0.5237 C   0  0  0  0  0  0  0  0  0  0  0  0
   -6.6957    5.9966   -0.7088 C   0  0  0  0  0  0  0  0  0  0  0  0
   -5.9908    5.6705   -1.8844 C   0  0  0  0  0  0  0  0  0  0  0  0
   -3.9461    2.7032    1.8383 C   0  0  0  0  0  0  0  0  0  0  0  0
   -4.9339    2.5423    2.9496 C   0  0  0  0  0  0  0  0  0  0  0  0
   -5.9699    1.4671    2.5318 C   0  0  0  0  0  0  0  0  0  0  0  0
   -6.4672    2.1360    1.2696 N   0  0  0  0  0  0  0  0  0  0  0  0
   -7.7066    2.3348    1.1471 C   0  0  0  0  0  0  0  0  0  0  0  0
   -8.3718    2.9449    0.0521 N   0  0  0  0  0  0  0  0  0  0  0  0
   -8.5998    1.8906    2.2079 N   0  0  0  0  0  0  0  0  0  0  0  0
   -3.5147   -0.1765   -0.9970 C   0  0  0  0  0  0  0  0  0  0  0  0
   -4.7654   -2.6294    0.8892 C   0  0  0  0  0  0  0  0  0  0  0  0
   -5.5438   -2.8869   -0.2987 C   0  0  0  0  0  0  0  0  0  0  0  0
   -5.5796   -4.1659   -0.9007 C   0  0  0  0  0  0  0  0  0  0  0  0
   -6.3476   -4.1499   -1.9816 N   0  0  0  0  0  0  0  0  0  0  0  0
   -6.8395   -2.9107   -2.1442 C   0  0  0  0  0  0  0  0  0  0  0  0
   -6.3456   -2.1294   -1.1086 C   0  0  0  0  0  0  0  0  0  0  0  0
   -6.7449   -0.7968   -1.0700 C   0  0  0  0  0  0  0  0  0  0  0  0
   -7.5737   -0.3520   -2.0293 C   0  0  0  0  0  0  0  0  0  0  0  0
   -8.1001   -1.0601   -3.0827 C   0  0  0  0  0  0  0  0  0  0  0  0
   -7.6900   -2.4163   -3.1137 C   0  0  0  0  0  0  0  0  0  0  0  0
   -2.0295   -6.6554    0.2678 C   0  0  0  0  0  0  0  0  0  0  0  0
   -1.6664   -7.7567   -0.2152 O   0  0  0  0  0  0  0  0  0  0  0  0
   -2.8019   -6.7107    1.4685 N   0  0  0  0  0  0  0  0  0  0  0  0
    8.5258   -0.7303    1.1146 N   0  0  0  0  0  0  0  0  0  0  0  0
    8.2145    0.5105    0.4529 C   0  0  0  0  0  0  0  0  0  0  0  0
    7.7581    0.4178   -0.6983 O   0  0  0  0  0  0  0  0  0  0  0  0
    8.4584    1.7779    1.1763 C   0  0  0  0  0  0  0  0  0  0  0  0
   13.7045   -2.7435   -0.1191 H   0  0  0  0  0  0  0  0  0  0  0  0
   13.3958   -4.4078    0.5867 H   0  0  0  0  0  0  0  0  0  0  0  0
   12.8732   -2.8898    1.4733 H   0  0  0  0  0  0  0  0  0  0  0  0
   11.7861   -3.0649   -1.2352 H   0  0  0  0  0  0  0  0  0  0  0  0
   11.2931   -4.4679   -0.1721 H   0  0  0  0  0  0  0  0  0  0  0  0
   11.0816   -1.5275    0.4526 H   0  0  0  0  0  0  0  0  0  0  0  0
   10.6102   -2.8786    1.5955 H   0  0  0  0  0  0  0  0  0  0  0  0
    9.1484   -3.7833   -0.2728 H   0  0  0  0  0  0  0  0  0  0  0  0
    9.5918   -2.3287   -1.2512 H   0  0  0  0  0  0  0  0  0  0  0  0
    7.9495   -2.6497    1.3228 H   0  0  0  0  0  0  0  0  0  0  0  0
    6.1287   -0.7018    1.1658 H   0  0  0  0  0  0  0  0  0  0  0  0
    4.5998   -1.4102   -1.3646 H   0  0  0  0  0  0  0  0  0  0  0  0
    3.7002   -2.0428    1.4671 H   0  0  0  0  0  0  0  0  0  0  0  0
    2.5350   -1.8225    0.0631 H   0  0  0  0  0  0  0  0  0  0  0  0
    1.8876   -3.7454   -0.7925 H   0  0  0  0  0  0  0  0  0  0  0  0
    3.0718   -6.3145   -0.1503 H   0  0  0  0  0  0  0  0  0  0  0  0
    3.7438   -5.7331   -1.6966 H   0  0  0  0  0  0  0  0  0  0  0  0
    1.9862   -7.2278   -2.2436 H   0  0  0  0  0  0  0  0  0  0  0  0
    1.5365   -5.6054   -2.7518 H   0  0  0  0  0  0  0  0  0  0  0  0
    0.5384   -7.1595   -0.3356 H   0  0  0  0  0  0  0  0  0  0  0  0
   -0.3051   -6.9402   -1.8955 H   0  0  0  0  0  0  0  0  0  0  0  0
   -0.2106   -4.3898   -1.4287 H   0  0  0  0  0  0  0  0  0  0  0  0
    0.2253   -4.9038    0.3193 H   0  0  0  0  0  0  0  0  0  0  0  0
   -2.1767   -5.3329   -1.3773 H   0  0  0  0  0  0  0  0  0  0  0  0
   -2.3286   -4.2947    1.3901 H   0  0  0  0  0  0  0  0  0  0  0  0
   -2.9554   -2.2129    1.7337 H   0  0  0  0  0  0  0  0  0  0  0  0
   -2.0576    1.7979    2.2937 H   0  0  0  0  0  0  0  0  0  0  0  0
   -2.8369    2.4122   -0.5403 H   0  0  0  0  0  0  0  0  0  0  0  0
   -0.1095    2.6357   -1.7018 H   0  0  0  0  0  0  0  0  0  0  0  0
    1.3108    3.7507    0.6399 H   0  0  0  0  0  0  0  0  0  0  0  0
    3.2664    2.2967    1.2079 H   0  0  0  0  0  0  0  0  0  0  0  0
    5.4648    1.6978   -0.4409 H   0  0  0  0  0  0  0  0  0  0  0  0
    4.7338    4.0579   -0.8604 H   0  0  0  0  0  0  0  0  0  0  0  0
    5.2506    3.8115    0.8013 H   0  0  0  0  0  0  0  0  0  0  0  0
    3.9285    4.9926    2.7105 H   0  0  0  0  0  0  0  0  0  0  0  0
    2.4551    7.1811    2.7286 H   0  0  0  0  0  0  0  0  0  0  0  0
    2.7375    5.8109   -1.2930 H   0  0  0  0  0  0  0  0  0  0  0  0
    0.1145    4.9900   -1.8577 H   0  0  0  0  0  0  0  0  0  0  0  0
   -0.1687    5.2556   -0.1494 H   0  0  0  0  0  0  0  0  0  0  0  0
   -1.9216    4.5559   -3.4081 H   0  0  0  0  0  0  0  0  0  0  0  0
   -4.3200    5.0261   -3.7583 H   0  0  0  0  0  0  0  0  0  0  0  0
   -2.2929    5.2895    0.7367 H   0  0  0  0  0  0  0  0  0  0  0  0
   -4.3400    5.8669    1.6553 H   0  0  0  0  0  0  0  0  0  0  0  0
   -6.7147    6.3198    1.4190 H   0  0  0  0  0  0  0  0  0  0  0  0
   -7.7563    6.1906   -0.8566 H   0  0  0  0  0  0  0  0  0  0  0  0
   -6.4239    5.6175   -2.8470 H   0  0  0  0  0  0  0  0  0  0  0  0
   -3.4036    3.6777    2.1196 H   0  0  0  0  0  0  0  0  0  0  0  0
   -4.5368    3.0140    0.9431 H   0  0  0  0  0  0  0  0  0  0  0  0
   -5.5278    3.4519    3.0657 H   0  0  0  0  0  0  0  0  0  0  0  0
   -4.4882    2.2034    3.9035 H   0  0  0  0  0  0  0  0  0  0  0  0
   -5.5262    0.5710    2.1846 H   0  0  0  0  0  0  0  0  0  0  0  0
   -6.8334    1.4344    3.1918 H   0  0  0  0  0  0  0  0  0  0  0  0
   -9.2639    3.5179    0.1645 H   0  0  0  0  0  0  0  0  0  0  0  0
   -7.9354    2.8192   -0.8897 H   0  0  0  0  0  0  0  0  0  0  0  0
   -9.1170    1.0003    1.9729 H   0  0  0  0  0  0  0  0  0  0  0  0
   -8.6995    2.4062    3.0881 H   0  0  0  0  0  0  0  0  0  0  0  0
   -3.6897   -1.0301   -1.6870 H   0  0  0  0  0  0  0  0  0  0  0  0
   -2.5711    0.2878   -1.4198 H   0  0  0  0  0  0  0  0  0  0  0  0
   -4.2633    0.6363   -1.1109 H   0  0  0  0  0  0  0  0  0  0  0  0
   -5.2295   -1.9182    1.6049 H   0  0  0  0  0  0  0  0  0  0  0  0
   -4.6008   -3.5723    1.4639 H   0  0  0  0  0  0  0  0  0  0  0  0
   -5.0616   -5.0535   -0.5543 H   0  0  0  0  0  0  0  0  0  0  0  0
   -6.5553   -4.9596   -2.6330 H   0  0  0  0  0  0  0  0  0  0  0  0
   -6.3362   -0.2273   -0.2404 H   0  0  0  0  0  0  0  0  0  0  0  0
   -7.8759    0.6983   -1.9848 H   0  0  0  0  0  0  0  0  0  0  0  0
   -8.7643   -0.6663   -3.8250 H   0  0  0  0  0  0  0  0  0  0  0  0
   -8.0525   -3.0532   -3.9087 H   0  0  0  0  0  0  0  0  0  0  0  0
   -3.6901   -7.2383    1.5263 H   0  0  0  0  0  0  0  0  0  0  0  0
   -2.4323   -6.1948    2.2850 H   0  0  0  0  0  0  0  0  0  0  0  0
    8.9176   -0.6870    2.0911 H   0  0  0  0  0  0  0  0  0  0  0  0
    8.1323    1.7386    2.2215 H   0  0  0  0  0  0  0  0  0  0  0  0
    7.8829    2.6157    0.7089 H   0  0  0  0  0  0  0  0  0  0  0  0
    9.5681    1.9959    1.2034 H   0  0  0  0  0  0  0  0  0  0  0  0
  1  2  1  0
  2  3  1  0
  3  4  1  0
  4  5  1  0
  5  6  1  0
  6  7  2  0
  6  8  1  0
  8  9  1  0
  9 10  1  0
 10 11  1  0
 11 12  2  0
 11 13  1  0
 13 14  1  0
 14 15  1  0
 15 16  1  0
 16 17  1  0
 17 18  1  0
 18 19  1  0
 19 20  1  0
 20 21  2  0
 20 22  1  0
 22 23  1  0
 23 24  1  0
 24 25  2  0
 24 26  1  0
 26 27  1  0
 27 28  1  0
 28 29  2  0
 28 30  1  0
 30 31  1  0
 31 32  1  0
 32 33  2  0
 32 34  1  0
 34 35  1  0
 35 36  1  0
 36 37  2  0
 34 38  1  0
 38 39  1  0
 39 40  1  0
 40 41  1  0
 41 42  2  0
 42 43  1  0
 30 44  1  0
 44 45  1  0
 45 46  2  0
 46 47  1  0
 47 48  2  0
 48 49  1  0
 49 50  2  0
 49 51  1  0
 51 52  2  0
 52 53  1  0
 53 54  2  0
 26 55  1  0
 55 56  1  0
 56 57  1  0
 57 58  1  0
 58 59  2  3
 59 60  1  0
 59 61  1  0
 23 62  1  0
 22 63  1  0
 63 64  1  0
 64 65  2  0
 65 66  1  0
 66 67  1  0
 67 68  2  0
 68 69  1  0
 69 70  2  0
 70 71  1  0
 71 72  2  0
 18 73  1  0
 73 74  2  0
 73 75  1  0
  5 76  1  0
 76 77  1  0
 77 78  2  0
 77 79  1  0
 36  9  1  0
 43 39  2  0
 50 45  1  0
 68 64  1  0
 54 48  1  0
 72 67  1  0
  1 80  1  0
  1 81  1  0
  1 82  1  0
  2 83  1  0
  2 84  1  0
  3 85  1  0
  3 86  1  0
  4 87  1  0
  4 88  1  0
  5 89  1  1
  8 90  1  0
  9 91  1  6
 10 92  1  0
 10 93  1  0
 13 94  1  0
 14 95  1  0
 14 96  1  0
 15 97  1  0
 15 98  1  0
 16 99  1  0
 16100  1  0
 17101  1  0
 17102  1  0
 18103  1  6
 19104  1  0
 22105  1  1
 26106  1  1
 27107  1  0
 30108  1  6
 31109  1  0
 34110  1  1
 35111  1  0
 38112  1  0
 38113  1  0
 40114  1  0
 41115  1  0
 43116  1  0
 44117  1  0
 44118  1  0
 46119  1  0
 47120  1  0
 50121  1  0
 51122  1  0
 52123  1  0
 53124  1  0
 54125  1  0
 55126  1  0
 55127  1  0
 56128  1  0
 56129  1  0
 57130  1  0
 57131  1  0
 60132  1  0
 60133  1  0
 61134  1  0
 61135  1  0
 62136  1  0
 62137  1  0
 62138  1  0
 63139  1  0
 63140  1  0
 65141  1  0
 66142  1  0
 69143  1  0
 70144  1  0
 71145  1  0
 72146  1  0
 75147  1  0
 75148  1  0
 76149  1  0
 79150  1  0
 79151  1  0
 79152  1  0
M  END
>  <Ligand ID>  (1) 
LIG0001823

>  <Ligand>  (1) 
CHEMBL3600832

>  <SMILES>  (1) 
CCCC[C@H](C(=O)N[C@H]1CC(=O)NCCCC[C@H](NC(=O)[C@@H](N(C(=O)[C@@H](NC(=O)[C@H](NC(=O)[C@@H](NC1=O)Cc1[nH]cnc1)Cc1ccc2c(c1)cccc2)CCCN=C(N)N)C)Cc1c[nH]c2c1cccc2)C(=O)N)NC(=O)C

>  <CID>  (1) 
122184571.0

>  <ChEMBL ID>  (1) 
nan

>  <InChiKey>  (1) 
QTGLDSNZORTQEK-PIHYJXJMSA-N

>  <InChi>  (1) 
InChI=1S/C55H73N15O9/c1-4-5-16-41(64-32(2)71)49(74)69-45-28-47(72)60-22-11-10-18-40(48(56)73)65-53(78)46(26-36-29-62-39-17-9-8-15-38(36)39)70(3)54(79)42(19-12-23-61-55(57)58)66-50(75)43(25-33-20-21-34-13-6-7-14-35(34)24-33)67-51(76)44(68-52(45)77)27-37-30-59-31-63-37/h6-9,13-15,17,20-21,24,29-31,40-46,62H,4-5,10-12,16,18-19,22-23,25-28H2,1-3H3,(H2,56,73)(H,59,63)(H,60,72)(H,64,71)(H,65,78)(H,66,75)(H,67,76)(H,68,77)(H,69,74)(H4,57,58,61)/t40-,41+,42-,43+,44-,45-,46-/m0/s1

>  <IUPAC Name>  (1) 
(3S,6S,9R,12S,15S,23S)-15-[[(2R)-2-acetamidohexanoyl]amino]-6-[3-(diaminomethylideneamino)propyl]-12-(1H-imidazol-5-ylmethyl)-3-(1H-indol-3-ylmethyl)-4-methyl-9-(naphthalen-2-ylmethyl)-2,5,8,11,14,17-hexaoxo-1,4,7,10,13,18-hexazacyclotricosane-23-carboxamide

$$$$
