
     RDKit          3D

 59 61  0  0  0  0  0  0  0  0999 V2000
    4.1287   -2.6090   -2.1184 N   0  0  0  0  0  0  0  0  0  0  0  0
    4.7742   -1.4153   -1.6037 C   0  0  0  0  0  0  0  0  0  0  0  0
    4.1380   -1.0892   -0.2816 C   0  0  0  0  0  0  0  0  0  0  0  0
    2.6321   -0.8322   -0.4342 C   0  0  0  0  0  0  0  0  0  0  0  0
    2.1422   -0.5254    0.9436 C   0  0  0  0  0  0  0  0  0  0  0  0
    0.7502   -0.2460    1.0715 N   0  0  0  0  0  0  0  0  0  0  0  0
    0.1948    0.8571    0.3584 C   0  0  0  0  0  0  0  0  0  0  0  0
    0.9991    1.5185   -0.3496 O   0  0  0  0  0  0  0  0  0  0  0  0
   -1.2162    1.2557    0.3989 C   0  0  2  0  0  0  0  0  0  0  0  0
   -1.4078    2.5355    1.1237 C   0  0  0  0  0  0  0  0  0  0  0  0
   -0.7121    3.7153    0.6201 C   0  0  0  0  0  0  0  0  0  0  0  0
   -1.2838    4.6078   -0.2972 C   0  0  0  0  0  0  0  0  0  0  0  0
   -0.3960    5.5714   -0.6014 N   0  0  0  0  0  0  0  0  0  0  0  0
    0.7479    5.3665    0.0720 C   0  0  0  0  0  0  0  0  0  0  0  0
    0.5520    4.2151    0.8302 C   0  0  0  0  0  0  0  0  0  0  0  0
    1.5964    3.8058    1.6333 C   0  0  0  0  0  0  0  0  0  0  0  0
    2.7932    4.4566    1.7233 C   0  0  0  0  0  0  0  0  0  0  0  0
    2.9630    5.5958    0.9596 C   0  0  0  0  0  0  0  0  0  0  0  0
    1.9526    6.0524    0.1385 C   0  0  0  0  0  0  0  0  0  0  0  0
   -1.8793    0.1556    1.1557 N   0  0  0  0  0  0  0  0  0  0  0  0
   -2.8379   -0.6801    0.5225 C   0  0  0  0  0  0  0  0  0  0  0  0
   -3.0948   -0.4536   -0.6772 O   0  0  0  0  0  0  0  0  0  0  0  0
   -3.4678   -1.7266    1.2431 N   0  0  0  0  0  0  0  0  0  0  0  0
   -4.4513   -2.6218    0.6741 C   0  0  0  0  0  0  0  0  0  0  0  0
   -3.8950   -3.6616   -0.1948 C   0  0  0  0  0  0  0  0  0  0  0  0
   -3.4983   -4.8706    0.3500 C   0  0  0  0  0  0  0  0  0  0  0  0
   -2.9692   -5.8918   -0.4154 C   0  0  0  0  0  0  0  0  0  0  0  0
   -2.8187   -5.7291   -1.7768 C   0  0  0  0  0  0  0  0  0  0  0  0
   -3.2022   -4.5432   -2.3473 C   0  0  0  0  0  0  0  0  0  0  0  0
   -3.7291   -3.5336   -1.5667 C   0  0  0  0  0  0  0  0  0  0  0  0
    4.6478   -2.9055   -2.9710 H   0  0  0  0  0  0  0  0  0  0  0  0
    4.2743   -3.3795   -1.4113 H   0  0  0  0  0  0  0  0  0  0  0  0
    5.8391   -1.6247   -1.3953 H   0  0  0  0  0  0  0  0  0  0  0  0
    4.6780   -0.6016   -2.3349 H   0  0  0  0  0  0  0  0  0  0  0  0
    4.6113   -0.1765    0.1694 H   0  0  0  0  0  0  0  0  0  0  0  0
    4.3298   -1.9271    0.4139 H   0  0  0  0  0  0  0  0  0  0  0  0
    2.2274   -1.8130   -0.7842 H   0  0  0  0  0  0  0  0  0  0  0  0
    2.5416   -0.0298   -1.1695 H   0  0  0  0  0  0  0  0  0  0  0  0
    2.7949    0.2797    1.3484 H   0  0  0  0  0  0  0  0  0  0  0  0
    2.3836   -1.4173    1.5637 H   0  0  0  0  0  0  0  0  0  0  0  0
    0.1270   -0.8279    1.6718 H   0  0  0  0  0  0  0  0  0  0  0  0
   -1.6732    1.2303   -0.6013 H   0  0  0  0  0  0  0  0  0  0  0  0
   -1.0824    2.4465    2.2146 H   0  0  0  0  0  0  0  0  0  0  0  0
   -2.4866    2.8162    1.2359 H   0  0  0  0  0  0  0  0  0  0  0  0
   -2.2718    4.5731   -0.7224 H   0  0  0  0  0  0  0  0  0  0  0  0
   -0.5660    6.3640   -1.2631 H   0  0  0  0  0  0  0  0  0  0  0  0
    1.4221    2.9079    2.2162 H   0  0  0  0  0  0  0  0  0  0  0  0
    3.5901    4.1088    2.3625 H   0  0  0  0  0  0  0  0  0  0  0  0
    3.9114    6.1533    0.9984 H   0  0  0  0  0  0  0  0  0  0  0  0
    2.0354    6.9399   -0.4806 H   0  0  0  0  0  0  0  0  0  0  0  0
   -1.6480   -0.0079    2.1599 H   0  0  0  0  0  0  0  0  0  0  0  0
   -3.1805   -1.8314    2.2477 H   0  0  0  0  0  0  0  0  0  0  0  0
   -5.2523   -2.0478    0.1512 H   0  0  0  0  0  0  0  0  0  0  0  0
   -4.9657   -3.1492    1.5224 H   0  0  0  0  0  0  0  0  0  0  0  0
   -3.6082   -5.0223    1.4237 H   0  0  0  0  0  0  0  0  0  0  0  0
   -2.6594   -6.8357    0.0068 H   0  0  0  0  0  0  0  0  0  0  0  0
   -2.4130   -6.4846   -2.4327 H   0  0  0  0  0  0  0  0  0  0  0  0
   -3.0968   -4.3847   -3.4116 H   0  0  0  0  0  0  0  0  0  0  0  0
   -4.0148   -2.6330   -2.0506 H   0  0  0  0  0  0  0  0  0  0  0  0
  1  2  1  0
  2  3  1  0
  3  4  1  0
  4  5  1  0
  5  6  1  0
  6  7  1  0
  7  8  2  0
  7  9  1  0
  9 10  1  0
 10 11  1  0
 11 12  2  0
 12 13  1  0
 13 14  1  0
 14 15  2  0
 15 16  1  0
 16 17  2  0
 17 18  1  0
 18 19  2  0
  9 20  1  0
 20 21  1  0
 21 22  2  0
 21 23  1  0
 23 24  1  0
 24 25  1  0
 25 26  2  0
 26 27  1  0
 27 28  2  0
 28 29  1  0
 29 30  2  0
 15 11  1  0
 30 25  1  0
 19 14  1  0
  1 31  1  0
  1 32  1  0
  2 33  1  0
  2 34  1  0
  3 35  1  0
  3 36  1  0
  4 37  1  0
  4 38  1  0
  5 39  1  0
  5 40  1  0
  6 41  1  0
  9 42  1  6
 10 43  1  0
 10 44  1  0
 12 45  1  0
 13 46  1  0
 16 47  1  0
 17 48  1  0
 18 49  1  0
 19 50  1  0
 20 51  1  0
 23 52  1  0
 24 53  1  0
 24 54  1  0
 26 55  1  0
 27 56  1  0
 28 57  1  0
 29 58  1  0
 30 59  1  0
M  END
>  <Ligand ID>  (1) 
LIG0001269

>  <Ligand>  (1) 
CHEMBL305559

>  <SMILES>  (1) 
NCCCCNC(=O)[C@H](Cc1c[nH]c2c1cccc2)NC(=O)NCc1ccccc1

>  <CID>  (1) 
44305790.0

>  <ChEMBL ID>  (1) 
nan

>  <InChiKey>  (1) 
CKUHVWJCONRCIC-NRFANRHFSA-N

>  <InChi>  (1) 
InChI=1S/C23H29N5O2/c24-12-6-7-13-25-22(29)21(14-18-16-26-20-11-5-4-10-19(18)20)28-23(30)27-15-17-8-2-1-3-9-17/h1-5,8-11,16,21,26H,6-7,12-15,24H2,(H,25,29)(H2,27,28,30)/t21-/m0/s1

>  <IUPAC Name>  (1) 
(2S)-N-(4-aminobutyl)-2-(benzylcarbamoylamino)-3-(1H-indol-3-yl)propanamide

$$$$
