
     RDKit          3D

 78 84  0  0  0  0  0  0  0  0999 V2000
   -1.6562   -2.4899   -3.4942 C   0  0  0  0  0  0  0  0  0  0  0  0
   -1.8122   -1.3884   -2.7385 O   0  0  0  0  0  0  0  0  0  0  0  0
   -1.0409   -1.1739   -1.6365 C   0  0  2  0  0  0  0  0  0  0  0  0
   -1.1812   -2.2439   -0.6204 C   0  0  0  0  0  0  0  0  0  0  0  0
   -0.4780   -1.9486    0.6744 C   0  0  0  0  0  0  0  0  0  0  0  0
    0.3589   -0.7126    0.4410 C   0  0  2  0  0  0  0  0  0  0  0  0
   -0.6699    0.3790    0.2257 C   0  0  0  0  0  0  0  0  0  0  0  0
   -1.3574    0.2449   -1.1115 C   0  0  2  0  0  0  0  0  0  0  0  0
   -2.7654    0.6213   -1.2295 C   0  0  1  0  0  0  0  0  0  0  0  0
   -3.3089    1.9311   -0.8576 C   0  0  0  0  0  0  0  0  0  0  0  0
   -3.3390    2.6167    0.4096 C   0  0  0  0  0  0  0  0  0  0  0  0
   -2.2021    3.0494    1.2063 C   0  0  0  0  0  0  0  0  0  0  0  0
   -4.1494    3.9244    0.1073 C   0  0  0  0  0  0  0  0  0  0  0  0
   -4.3067    1.8967    1.3986 C   0  0  0  0  0  0  0  0  0  0  0  0
   -3.0226    0.5839   -2.6546 O   0  0  0  0  0  0  0  0  0  0  0  0
   -3.7430   -0.5011   -0.8536 C   0  0  0  0  0  0  0  0  0  0  0  0
    1.2085   -0.9371   -0.7746 C   0  0  2  0  0  0  0  0  0  0  0  0
    0.4050   -1.1624   -2.0514 C   0  0  1  0  0  0  0  0  0  0  0  0
    0.9655   -2.3331   -2.5398 O   0  0  0  0  0  0  0  0  0  0  0  0
    1.6705   -3.0623   -1.5919 C   0  0  0  0  0  0  0  0  0  0  0  0
    1.7921   -2.2724   -0.5094 C   0  0  0  0  0  0  0  0  0  0  0  0
    2.3905   -2.5482    0.6805 C   0  0  0  0  0  0  0  0  0  0  0  0
    2.3230   -1.5389    1.7612 C   0  0  0  0  0  0  0  0  0  0  0  0
    1.3140   -0.4473    1.5659 C   0  0  1  0  0  0  0  0  0  0  0  0
    2.0627    0.7508    1.2360 N   0  0  0  0  0  0  0  0  0  0  0  0
    2.9790    0.5619    0.1637 C   0  0  0  0  0  0  0  0  0  0  0  0
    2.3049    0.0165   -1.0308 C   0  0  0  0  0  0  0  0  0  0  0  0
    2.7295    1.3613    2.3407 C   0  0  0  0  0  0  0  0  0  0  0  0
    3.4981    2.6030    1.9611 C   0  0  0  0  0  0  0  0  0  0  0  0
    4.2507    3.3685    2.9735 C   0  0  0  0  0  0  0  0  0  0  0  0
    4.9411    2.6631    1.7938 C   0  0  0  0  0  0  0  0  0  0  0  0
    2.9570   -3.8014    0.7966 C   0  0  0  0  0  0  0  0  0  0  0  0
    2.8767   -4.6828   -0.2908 C   0  0  0  0  0  0  0  0  0  0  0  0
    2.2388   -4.3288   -1.4860 C   0  0  0  0  0  0  0  0  0  0  0  0
    2.1483   -5.1791   -2.5634 O   0  0  0  0  0  0  0  0  0  0  0  0
   -2.4337   -2.4034   -4.3208 H   0  0  0  0  0  0  0  0  0  0  0  0
   -0.7111   -2.5561   -4.0996 H   0  0  0  0  0  0  0  0  0  0  0  0
   -1.9160   -3.4658   -3.0297 H   0  0  0  0  0  0  0  0  0  0  0  0
   -0.6772   -3.1548   -1.0584 H   0  0  0  0  0  0  0  0  0  0  0  0
   -2.1869   -2.5905   -0.3716 H   0  0  0  0  0  0  0  0  0  0  0  0
    0.0187   -2.7878    1.1407 H   0  0  0  0  0  0  0  0  0  0  0  0
   -1.2559   -1.6208    1.4307 H   0  0  0  0  0  0  0  0  0  0  0  0
   -1.3412    0.2885    1.0769 H   0  0  0  0  0  0  0  0  0  0  0  0
   -0.1421    1.3778    0.3200 H   0  0  0  0  0  0  0  0  0  0  0  0
   -0.7248    0.8928   -1.7781 H   0  0  0  0  0  0  0  0  0  0  0  0
   -4.4306    1.9910   -1.1826 H   0  0  0  0  0  0  0  0  0  0  0  0
   -2.9281    2.6585   -1.6899 H   0  0  0  0  0  0  0  0  0  0  0  0
   -1.3415    3.3616    0.5534 H   0  0  0  0  0  0  0  0  0  0  0  0
   -2.4395    4.0623    1.6964 H   0  0  0  0  0  0  0  0  0  0  0  0
   -1.7789    2.3755    1.9579 H   0  0  0  0  0  0  0  0  0  0  0  0
   -4.3907    4.3020    1.1234 H   0  0  0  0  0  0  0  0  0  0  0  0
   -3.5482    4.5900   -0.5120 H   0  0  0  0  0  0  0  0  0  0  0  0
   -5.0993    3.5811   -0.3353 H   0  0  0  0  0  0  0  0  0  0  0  0
   -3.8620    0.9384    1.7404 H   0  0  0  0  0  0  0  0  0  0  0  0
   -5.3151    1.8043    0.9604 H   0  0  0  0  0  0  0  0  0  0  0  0
   -4.4207    2.5135    2.3202 H   0  0  0  0  0  0  0  0  0  0  0  0
   -2.7362    1.4397   -3.0287 H   0  0  0  0  0  0  0  0  0  0  0  0
   -3.7076   -0.8548    0.1478 H   0  0  0  0  0  0  0  0  0  0  0  0
   -3.7891   -1.3271   -1.5695 H   0  0  0  0  0  0  0  0  0  0  0  0
   -4.7519   -0.0005   -0.9730 H   0  0  0  0  0  0  0  0  0  0  0  0
    0.6046   -0.2734   -2.6960 H   0  0  0  0  0  0  0  0  0  0  0  0
    3.3418   -1.1284    1.9100 H   0  0  0  0  0  0  0  0  0  0  0  0
    2.0885   -2.0251    2.7472 H   0  0  0  0  0  0  0  0  0  0  0  0
    0.7989   -0.2330    2.5111 H   0  0  0  0  0  0  0  0  0  0  0  0
    3.9317    0.0494    0.4267 H   0  0  0  0  0  0  0  0  0  0  0  0
    3.3367    1.6099   -0.1001 H   0  0  0  0  0  0  0  0  0  0  0  0
    2.0254    0.8601   -1.7065 H   0  0  0  0  0  0  0  0  0  0  0  0
    3.0879   -0.5368   -1.6255 H   0  0  0  0  0  0  0  0  0  0  0  0
    3.3526    0.6395    2.9046 H   0  0  0  0  0  0  0  0  0  0  0  0
    1.9212    1.6972    3.0557 H   0  0  0  0  0  0  0  0  0  0  0  0
    2.8913    3.2485    1.2713 H   0  0  0  0  0  0  0  0  0  0  0  0
    4.3914    2.9505    3.9913 H   0  0  0  0  0  0  0  0  0  0  0  0
    4.3517    4.4655    2.9373 H   0  0  0  0  0  0  0  0  0  0  0  0
    5.3630    3.3150    0.9780 H   0  0  0  0  0  0  0  0  0  0  0  0
    5.6595    1.9150    2.1189 H   0  0  0  0  0  0  0  0  0  0  0  0
    3.4414   -4.0605    1.7180 H   0  0  0  0  0  0  0  0  0  0  0  0
    3.3288   -5.6839   -0.2026 H   0  0  0  0  0  0  0  0  0  0  0  0
    1.6115   -6.0453   -2.4602 H   0  0  0  0  0  0  0  0  0  0  0  0
  1  2  1  0
  3  2  1  6
  3  4  1  0
  4  5  1  0
  6  5  1  1
  6  7  1  0
  7  8  1  0
  8  9  1  0
  9 10  1  0
 10 11  1  0
 11 12  1  0
 11 13  1  0
 11 14  1  0
  9 15  1  6
  9 16  1  0
  6 17  1  0
 17 18  1  0
 18 19  1  0
 19 20  1  0
 20 21  2  0
 21 22  1  0
 22 23  1  0
 23 24  1  0
 24 25  1  0
 25 26  1  0
 26 27  1  0
 25 28  1  0
 28 29  1  0
 29 30  1  0
 30 31  1  0
 22 32  2  0
 32 33  1  0
 33 34  2  0
 34 35  1  0
  8  3  1  0
 17 27  1  6
 31 29  1  0
 18  3  1  0
 34 20  1  0
 24  6  1  0
 21 17  1  0
  1 36  1  0
  1 37  1  0
  1 38  1  0
  4 39  1  0
  4 40  1  0
  5 41  1  0
  5 42  1  0
  7 43  1  0
  7 44  1  0
  8 45  1  6
 10 46  1  0
 10 47  1  0
 12 48  1  0
 12 49  1  0
 12 50  1  0
 13 51  1  0
 13 52  1  0
 13 53  1  0
 14 54  1  0
 14 55  1  0
 14 56  1  0
 15 57  1  0
 16 58  1  0
 16 59  1  0
 16 60  1  0
 18 61  1  6
 23 62  1  0
 23 63  1  0
 24 64  1  1
 26 65  1  0
 26 66  1  0
 27 67  1  0
 27 68  1  0
 28 69  1  0
 28 70  1  0
 29 71  1  0
 30 72  1  0
 30 73  1  0
 31 74  1  0
 31 75  1  0
 32 76  1  0
 33 77  1  0
 35 78  1  0
M  END
>  <Ligand ID>  (1) 
LIG0005125

>  <Ligand>  (1) 
CHEMBL1834410

>  <SMILES>  (1) 
CO[C@]12CC[C@]3(C[C@@H]1[C@@](CC(C)(C)C)(O)C)[C@@]14[C@H]2Oc2c4c(C[C@H]3N(CC1)CC1CC1)ccc2O

>  <CID>  (1) 
54756989.0

>  <ChEMBL ID>  (1) 
nan

>  <InChiKey>  (1) 
RIMTXZIUOVDSSA-JLXZXSBASA-N

>  <InChi>  (1) 
InChI=1S/C30H43NO4/c1-26(2,3)17-27(4,33)21-15-28-10-11-30(21,34-5)25-29(28)12-13-31(16-18-6-7-18)22(28)14-19-8-9-20(32)24(35-25)23(19)29/h8-9,18,21-22,25,32-33H,6-7,10-17H2,1-5H3/t21-,22-,25-,27-,28-,29+,30-/m1/s1

>  <IUPAC Name>  (1) 
(1S,2S,6R,14R,15R,16R)-5-(cyclopropylmethyl)-16-[(2R)-2-hydroxy-4,4-dimethylpentan-2-yl]-15-methoxy-13-oxa-5-azahexacyclo[13.2.2.12,8.01,6.02,14.012,20]icosa-8(20),9,11-trien-11-ol

$$$$
