
     RDKit          3D

 26 25  0  0  0  0  0  0  0  0999 V2000
   -3.9144    1.4444    0.2227 O   0  0  0  0  0  0  0  0  0  0  0  0
   -2.5857    1.1566   -0.1242 C   0  0  0  0  0  0  0  0  0  0  0  0
   -2.1612    1.7782   -1.1547 O   0  0  0  0  0  0  0  0  0  0  0  0
   -1.7527    0.2177    0.6356 C   0  0  2  0  0  0  0  0  0  0  0  0
   -1.2507   -0.9576   -0.1272 C   0  0  0  0  0  0  0  0  0  0  0  0
   -0.3962   -0.6399   -1.3092 C   0  0  0  0  0  0  0  0  0  0  0  0
    0.8468    0.1186   -1.0002 C   0  0  0  0  0  0  0  0  0  0  0  0
    1.7052   -0.6232   -0.0827 N   0  0  0  0  0  0  0  0  0  0  0  0
    2.8743   -0.2319    0.2325 C   0  0  0  0  0  0  0  0  0  0  0  0
    3.3699    0.9679   -0.3231 N   0  0  0  0  0  0  0  0  0  0  0  0
    3.6187   -1.0444    1.1411 N   0  0  0  0  0  0  0  0  0  0  0  0
   -2.5601   -0.2939    1.7309 N   0  0  0  0  0  0  0  0  0  0  0  0
   -4.3550    2.3238   -0.0098 H   0  0  0  0  0  0  0  0  0  0  0  0
   -0.9492    0.8134    1.1159 H   0  0  0  0  0  0  0  0  0  0  0  0
   -2.1248   -1.5440   -0.4696 H   0  0  0  0  0  0  0  0  0  0  0  0
   -0.6952   -1.5910    0.5858 H   0  0  0  0  0  0  0  0  0  0  0  0
   -0.9764   -0.0973   -2.0710 H   0  0  0  0  0  0  0  0  0  0  0  0
   -0.0781   -1.6180   -1.7398 H   0  0  0  0  0  0  0  0  0  0  0  0
    0.6649    1.1577   -0.6537 H   0  0  0  0  0  0  0  0  0  0  0  0
    1.4258    0.1943   -1.9529 H   0  0  0  0  0  0  0  0  0  0  0  0
    3.3389    1.2082   -1.3397 H   0  0  0  0  0  0  0  0  0  0  0  0
    3.8154    1.7136    0.2872 H   0  0  0  0  0  0  0  0  0  0  0  0
    3.5641   -0.9120    2.1888 H   0  0  0  0  0  0  0  0  0  0  0  0
    4.2385   -1.7927    0.8013 H   0  0  0  0  0  0  0  0  0  0  0  0
   -2.1694   -1.2090    2.0839 H   0  0  0  0  0  0  0  0  0  0  0  0
   -3.4933   -0.5397    1.3320 H   0  0  0  0  0  0  0  0  0  0  0  0
  1  2  1  0
  2  3  2  0
  2  4  1  0
  4  5  1  0
  5  6  1  0
  6  7  1  0
  7  8  1  0
  8  9  2  3
  9 10  1  0
  9 11  1  0
  4 12  1  0
  1 13  1  0
  4 14  1  1
  5 15  1  0
  5 16  1  0
  6 17  1  0
  6 18  1  0
  7 19  1  0
  7 20  1  0
 10 21  1  0
 10 22  1  0
 11 23  1  0
 11 24  1  0
 12 25  1  0
 12 26  1  0
M  END
>  <Ligand ID>  (1) 
LIG0005076

>  <Ligand>  (1) 
L-arginine

>  <SMILES>  (1) 
OC(=O)[C@H](CCCN=C(N)N)N

>  <CID>  (1) 
6322.0

>  <ChEMBL ID>  (1) 
nan

>  <InChiKey>  (1) 
ODKSFYDXXFIFQN-BYPYZUCNSA-N

>  <InChi>  (1) 
InChI=1S/C6H14N4O2/c7-4(5(11)12)2-1-3-10-6(8)9/h4H,1-3,7H2,(H,11,12)(H4,8,9,10)/t4-/m0/s1

>  <IUPAC Name>  (1) 
(2S)-2-amino-5-(diaminomethylideneamino)pentanoic acid

$$$$
