
     RDKit          3D

 59 61  0  0  0  0  0  0  0  0999 V2000
   -3.6503    3.0418    1.7928 O   0  0  0  0  0  0  0  0  0  0  0  0
   -3.5564    1.6826    1.4988 C   0  0  2  0  0  0  0  0  0  0  0  0
   -3.5119    1.5616   -0.0087 C   0  0  1  0  0  0  0  0  0  0  0  0
   -3.0190    0.1510   -0.3395 C   0  0  0  0  0  0  0  0  0  0  0  0
   -1.6949    0.0489    0.0836 O   0  0  0  0  0  0  0  0  0  0  0  0
   -1.0344   -1.4594   -0.2239 P   0  0  0  0  0  0  0  0  0  0  0  0
   -0.6397   -2.0589    1.1099 O   0  0  0  0  0  0  0  0  0  0  0  0
    0.3424   -1.2953   -1.1922 O   0  0  0  0  0  0  0  0  0  0  0  0
    0.8776    0.3032   -1.0608 P   0  0  0  0  0  0  0  0  0  0  0  0
    0.8292    0.8177    0.3421 O   0  0  0  0  0  0  0  0  0  0  0  0
    2.4588    0.4567   -1.6265 O   0  0  0  0  0  0  0  0  0  0  0  0
    3.6164   -0.0872   -0.5391 P   0  0  0  0  0  0  0  0  0  0  0  0
    4.2414    1.1549    0.1037 O   0  0  0  0  0  0  0  0  0  0  0  0
    4.7880   -0.9019   -1.4440 O   0  0  0  0  0  0  0  0  0  0  0  0
    5.8376   -1.8163   -0.5173 P   0  0  0  0  0  0  0  0  0  0  0  0
    5.5944   -3.2983   -0.7864 O   0  0  0  0  0  0  0  0  0  0  0  0
    7.4451   -1.4459   -1.0303 O   0  0  0  0  0  0  0  0  0  0  0  0
    8.1137   -0.4201   -0.3577 C   0  0  0  0  0  0  0  0  0  0  0  0
    7.8704    0.9095   -0.6638 C   0  0  0  0  0  0  0  0  0  0  0  0
    8.5644    1.8722    0.0381 C   0  0  0  0  0  0  0  0  0  0  0  0
    9.4877    1.5375    1.0301 C   0  0  0  0  0  0  0  0  0  0  0  0
    9.7205    0.2000    1.3254 C   0  0  0  0  0  0  0  0  0  0  0  0
    9.0322   -0.7809    0.6302 C   0  0  0  0  0  0  0  0  0  0  0  0
   10.8882   -0.2090    2.5794 Cl  0  0  0  0  0  0  0  0  0  0  0  0
    5.6918   -1.5132    1.1273 O   0  0  0  0  0  0  0  0  0  0  0  0
    2.9851   -1.0110    0.7097 O   0  0  0  0  0  0  0  0  0  0  0  0
   -0.0865    1.2817   -2.0802 O   0  0  0  0  0  0  0  0  0  0  0  0
   -2.2010   -2.4512   -0.8933 O   0  0  0  0  0  0  0  0  0  0  0  0
   -4.8120    1.7828   -0.3808 O   0  0  0  0  0  0  0  0  0  0  0  0
   -5.6480    1.2568    0.5667 C   0  0  2  0  0  0  0  0  0  0  0  0
   -4.8520    0.9547    1.7925 C   0  0  2  0  0  0  0  0  0  0  0  0
   -5.4529    1.4465    2.9508 O   0  0  0  0  0  0  0  0  0  0  0  0
   -6.3517    0.1361    0.0026 N   0  0  0  0  0  0  0  0  0  0  0  0
   -6.4606   -0.0423   -1.3431 C   0  0  0  0  0  0  0  0  0  0  0  0
   -7.1351   -1.1165   -1.8879 C   0  0  0  0  0  0  0  0  0  0  0  0
   -7.7230   -2.0476   -1.0685 C   0  0  0  0  0  0  0  0  0  0  0  0
   -8.3558   -3.0551   -1.5032 O   0  0  0  0  0  0  0  0  0  0  0  0
   -7.6051   -1.8549    0.2642 N   0  0  0  0  0  0  0  0  0  0  0  0
   -6.9384   -0.7932    0.7765 C   0  0  0  0  0  0  0  0  0  0  0  0
   -6.8961   -0.7210    2.0301 O   0  0  0  0  0  0  0  0  0  0  0  0
   -3.2487    3.5766    1.0500 H   0  0  0  0  0  0  0  0  0  0  0  0
   -2.6891    1.2022    1.9911 H   0  0  0  0  0  0  0  0  0  0  0  0
   -2.8548    2.3246   -0.4690 H   0  0  0  0  0  0  0  0  0  0  0  0
   -3.6020   -0.6092    0.1816 H   0  0  0  0  0  0  0  0  0  0  0  0
   -3.0020    0.0146   -1.4466 H   0  0  0  0  0  0  0  0  0  0  0  0
    7.1458    1.1793   -1.4426 H   0  0  0  0  0  0  0  0  0  0  0  0
    8.4119    2.9232   -0.1615 H   0  0  0  0  0  0  0  0  0  0  0  0
   10.0305    2.3198    1.5781 H   0  0  0  0  0  0  0  0  0  0  0  0
    9.2163   -1.8228    0.8631 H   0  0  0  0  0  0  0  0  0  0  0  0
    5.9223   -0.5598    1.2846 H   0  0  0  0  0  0  0  0  0  0  0  0
    2.6528   -1.8892    0.4271 H   0  0  0  0  0  0  0  0  0  0  0  0
    0.3657    2.1546   -2.2538 H   0  0  0  0  0  0  0  0  0  0  0  0
   -1.9310   -2.9192   -1.7197 H   0  0  0  0  0  0  0  0  0  0  0  0
   -6.3693    2.0718    0.8589 H   0  0  0  0  0  0  0  0  0  0  0  0
   -4.6265   -0.1311    1.8748 H   0  0  0  0  0  0  0  0  0  0  0  0
   -4.8894    1.1124    3.7119 H   0  0  0  0  0  0  0  0  0  0  0  0
   -6.0026    0.6829   -2.0323 H   0  0  0  0  0  0  0  0  0  0  0  0
   -7.2326   -1.2758   -2.9578 H   0  0  0  0  0  0  0  0  0  0  0  0
   -8.0577   -2.5718    0.8751 H   0  0  0  0  0  0  0  0  0  0  0  0
  1  2  1  0
  2  3  1  0
  3  4  1  0
  4  5  1  0
  5  6  1  0
  6  7  2  0
  6  8  1  0
  8  9  1  0
  9 10  2  0
  9 11  1  0
 11 12  1  0
 12 13  2  0
 12 14  1  0
 14 15  1  0
 15 16  2  0
 15 17  1  0
 17 18  1  0
 18 19  2  0
 19 20  1  0
 20 21  2  0
 21 22  1  0
 22 23  2  0
 22 24  1  0
 15 25  1  0
 12 26  1  0
  9 27  1  0
  6 28  1  0
  3 29  1  0
 29 30  1  0
 30 31  1  0
 31 32  1  0
 30 33  1  0
 33 34  1  0
 34 35  2  0
 35 36  1  0
 36 37  2  0
 36 38  1  0
 38 39  1  0
 39 40  2  0
 31  2  1  0
 39 33  1  0
 23 18  1  0
  1 41  1  0
  2 42  1  1
  3 43  1  6
  4 44  1  0
  4 45  1  0
 19 46  1  0
 20 47  1  0
 21 48  1  0
 23 49  1  0
 25 50  1  0
 26 51  1  0
 27 52  1  0
 28 53  1  0
 30 54  1  1
 31 55  1  1
 32 56  1  0
 34 57  1  0
 35 58  1  0
 38 59  1  0
M  END
>  <Ligand ID>  (1) 
LIG0005851

>  <Ligand>  (1) 
CHEMBL1784896

>  <SMILES>  (1) 
O[C@@H]1[C@@H](COP(=O)(OP(=O)(OP(=O)(OP(=O)(Oc2cccc(c2)Cl)O)O)O)O)O[C@H]([C@@H]1O)n1ccc(=O)[nH]c1=O

>  <CID>  (1) 
53309102.0

>  <ChEMBL ID>  (1) 
nan

>  <InChiKey>  (1) 
LPAWZUURDSLIOX-FMKGYKFTSA-N

>  <InChi>  (1) 
InChI=1S/C15H19ClN2O18P4/c16-8-2-1-3-9(6-8)33-38(25,26)35-40(29,30)36-39(27,28)34-37(23,24)31-7-10-12(20)13(21)14(32-10)18-5-4-11(19)17-15(18)22/h1-6,10,12-14,20-21H,7H2,(H,23,24)(H,25,26)(H,27,28)(H,29,30)(H,17,19,22)/t10-,12-,13-,14-/m1/s1

>  <IUPAC Name>  (1) 
[(3-chlorophenoxy)-hydroxyphosphoryl] [[[(2R,3S,4R,5R)-5-(2,4-dioxopyrimidin-1-yl)-3,4-dihydroxyoxolan-2-yl]methoxy-hydroxyphosphoryl]oxy-hydroxyphosphoryl] hydrogen phosphate

$$$$
