
     RDKit          3D

 59 63  0  0  0  0  0  0  0  0999 V2000
   -9.1800   -0.4556   -0.3383 F   0  0  0  0  0  0  0  0  0  0  0  0
   -7.9651   -0.8795    0.0611 C   0  0  0  0  0  0  0  0  0  0  0  0
   -7.8233   -2.0470    0.8082 C   0  0  0  0  0  0  0  0  0  0  0  0
   -6.5999   -2.5099    1.2330 C   0  0  0  0  0  0  0  0  0  0  0  0
   -5.4932   -1.7601    0.8851 C   0  0  0  0  0  0  0  0  0  0  0  0
   -5.6294   -0.5976    0.1418 C   0  0  0  0  0  0  0  0  0  0  0  0
   -6.8552   -0.1291   -0.2867 C   0  0  0  0  0  0  0  0  0  0  0  0
   -6.6297    1.0033   -0.9714 N   0  0  0  0  0  0  0  0  0  0  0  0
   -5.2950    1.2754   -0.9948 C   0  0  0  0  0  0  0  0  0  0  0  0
   -4.7678    2.2732   -1.5619 O   0  0  0  0  0  0  0  0  0  0  0  0
   -4.6933    0.2866   -0.3091 N   0  0  0  0  0  0  0  0  0  0  0  0
   -3.2836    0.1395   -0.0616 C   0  0  0  0  0  0  0  0  0  0  0  0
   -2.7701    1.0001    1.0713 C   0  0  0  0  0  0  0  0  0  0  0  0
   -1.3036    1.3216    0.9059 C   0  0  0  0  0  0  0  0  0  0  0  0
   -0.5679    0.2965    0.2390 N   0  0  0  0  0  0  0  0  0  0  0  0
   -1.0555   -0.1573   -1.0050 C   0  0  0  0  0  0  0  0  0  0  0  0
   -2.4209    0.4425   -1.2638 C   0  0  0  0  0  0  0  0  0  0  0  0
    0.8212    0.2267    0.4843 C   0  0  0  0  0  0  0  0  0  0  0  0
    1.5433   -0.8802   -0.2523 C   0  0  0  0  0  0  0  0  0  0  0  0
    2.9490   -0.9199    0.2847 C   0  0  0  0  0  0  0  0  0  0  0  0
    3.2695    0.2644    1.0092 N   0  0  0  0  0  0  0  0  0  0  0  0
    2.9505    1.5026    0.3802 C   0  0  0  0  0  0  0  0  0  0  0  0
    1.4658    1.5254    0.0451 C   0  0  0  0  0  0  0  0  0  0  0  0
    4.7670    0.1871    1.7946 S   0  0  0  0  0  0  0  0  0  0  0  0
    4.7087   -0.9889    2.7580 O   0  0  0  0  0  0  0  0  0  0  0  0
    4.9978    1.4275    2.6083 O   0  0  0  0  0  0  0  0  0  0  0  0
    6.1170   -0.0221    0.6932 C   0  0  0  0  0  0  0  0  0  0  0  0
    6.4662   -1.3473    0.4104 C   0  0  0  0  0  0  0  0  0  0  0  0
    7.5141   -1.6185   -0.4445 C   0  0  0  0  0  0  0  0  0  0  0  0
    8.2067   -0.5668   -1.0115 C   0  0  0  0  0  0  0  0  0  0  0  0
    7.8574    0.7528   -0.7287 C   0  0  0  0  0  0  0  0  0  0  0  0
    6.7962    1.0393    0.1370 C   0  0  0  0  0  0  0  0  0  0  0  0
   -8.6986   -2.6511    1.0903 H   0  0  0  0  0  0  0  0  0  0  0  0
   -6.4469   -3.4030    1.8094 H   0  0  0  0  0  0  0  0  0  0  0  0
   -4.5156   -2.0895    1.1992 H   0  0  0  0  0  0  0  0  0  0  0  0
   -7.3986    1.5807   -1.4179 H   0  0  0  0  0  0  0  0  0  0  0  0
   -3.0335   -0.9052    0.2298 H   0  0  0  0  0  0  0  0  0  0  0  0
   -3.3106    1.9681    1.1236 H   0  0  0  0  0  0  0  0  0  0  0  0
   -2.8950    0.5189    2.0681 H   0  0  0  0  0  0  0  0  0  0  0  0
   -1.2381    2.2324    0.2763 H   0  0  0  0  0  0  0  0  0  0  0  0
   -0.8502    1.5318    1.8721 H   0  0  0  0  0  0  0  0  0  0  0  0
   -0.3438    0.1971   -1.7981 H   0  0  0  0  0  0  0  0  0  0  0  0
   -1.1049   -1.2577   -1.1173 H   0  0  0  0  0  0  0  0  0  0  0  0
   -2.2948    1.5515   -1.3968 H   0  0  0  0  0  0  0  0  0  0  0  0
   -2.8896    0.0285   -2.1808 H   0  0  0  0  0  0  0  0  0  0  0  0
    1.0615    0.0514    1.5707 H   0  0  0  0  0  0  0  0  0  0  0  0
    1.0264   -1.8389   -0.2481 H   0  0  0  0  0  0  0  0  0  0  0  0
    1.6313   -0.5928   -1.3413 H   0  0  0  0  0  0  0  0  0  0  0  0
    2.9752   -1.7665    1.0061 H   0  0  0  0  0  0  0  0  0  0  0  0
    3.7029   -1.1531   -0.5050 H   0  0  0  0  0  0  0  0  0  0  0  0
    3.0835    2.2943    1.1699 H   0  0  0  0  0  0  0  0  0  0  0  0
    3.5441    1.7467   -0.5015 H   0  0  0  0  0  0  0  0  0  0  0  0
    0.9194    2.3507    0.5137 H   0  0  0  0  0  0  0  0  0  0  0  0
    1.3114    1.5998   -1.0609 H   0  0  0  0  0  0  0  0  0  0  0  0
    5.9431   -2.1820    0.8388 H   0  0  0  0  0  0  0  0  0  0  0  0
    7.7750   -2.6601   -0.6556 H   0  0  0  0  0  0  0  0  0  0  0  0
    9.0171   -0.8254   -1.6725 H   0  0  0  0  0  0  0  0  0  0  0  0
    8.4243    1.5516   -1.1927 H   0  0  0  0  0  0  0  0  0  0  0  0
    6.5080    2.0367    0.3705 H   0  0  0  0  0  0  0  0  0  0  0  0
  1  2  1  0
  2  3  2  0
  3  4  1  0
  4  5  2  0
  5  6  1  0
  6  7  2  0
  7  8  1  0
  8  9  1  0
  9 10  2  0
  9 11  1  0
 11 12  1  0
 12 13  1  0
 13 14  1  0
 14 15  1  0
 15 16  1  0
 16 17  1  0
 15 18  1  0
 18 19  1  0
 19 20  1  0
 20 21  1  0
 21 22  1  0
 22 23  1  0
 21 24  1  0
 24 25  2  0
 24 26  2  0
 24 27  1  0
 27 28  2  0
 28 29  1  0
 29 30  2  0
 30 31  1  0
 31 32  2  0
  7  2  1  0
 17 12  1  0
 23 18  1  0
 32 27  1  0
 11  6  1  0
  3 33  1  0
  4 34  1  0
  5 35  1  0
  8 36  1  0
 12 37  1  0
 13 38  1  0
 13 39  1  0
 14 40  1  0
 14 41  1  0
 16 42  1  0
 16 43  1  0
 17 44  1  0
 17 45  1  0
 18 46  1  0
 19 47  1  0
 19 48  1  0
 20 49  1  0
 20 50  1  0
 22 51  1  0
 22 52  1  0
 23 53  1  0
 23 54  1  0
 28 55  1  0
 29 56  1  0
 30 57  1  0
 31 58  1  0
 32 59  1  0
M  END
>  <Ligand ID>  (1) 
LIG0000854

>  <Ligand>  (1) 
CHEMBL486758

>  <SMILES>  (1) 
Fc1cccc2c1[nH]c(=O)n2C1CCN(CC1)C1CCN(CC1)S(=O)(=O)c1ccccc1

>  <CID>  (1) 
44589593.0

>  <ChEMBL ID>  (1) 
nan

>  <InChiKey>  (1) 
SZMMDBAEOIFVNU-UHFFFAOYSA-N

>  <InChi>  (1) 
InChI=1S/C23H27FN4O3S/c24-20-7-4-8-21-22(20)25-23(29)28(21)18-9-13-26(14-10-18)17-11-15-27(16-12-17)32(30,31)19-5-2-1-3-6-19/h1-8,17-18H,9-16H2,(H,25,29)

>  <IUPAC Name>  (1) 
3-[1-[1-(benzenesulfonyl)piperidin-4-yl]piperidin-4-yl]-7-fluoro-1H-benzimidazol-2-one

$$$$
