
     RDKit          3D

 40 41  0  0  0  0  0  0  0  0999 V2000
   -4.6260   -1.2929    0.9209 C   0  0  0  0  0  0  0  0  0  0  0  0
   -4.5130   -0.3512   -0.1354 N   0  0  0  0  0  0  0  0  0  0  0  0
   -3.4357   -0.5040   -1.0416 C   0  0  0  0  0  0  0  0  0  0  0  0
   -2.0754   -0.2290   -0.4235 C   0  0  0  0  0  0  0  0  0  0  0  0
   -1.0131   -0.5282   -1.4213 C   0  0  0  0  0  0  0  0  0  0  0  0
    0.2457   -0.4090   -0.8602 O   0  0  0  0  0  0  0  0  0  0  0  0
    0.9465    0.6141   -0.3361 C   0  0  0  0  0  0  0  0  0  0  0  0
    0.5592    1.9311   -0.2359 C   0  0  0  0  0  0  0  0  0  0  0  0
    1.3649    2.9094    0.3227 C   0  0  0  0  0  0  0  0  0  0  0  0
    2.6069    2.6042    0.8082 C   0  0  0  0  0  0  0  0  0  0  0  0
    3.0236    1.2939    0.7213 C   0  0  0  0  0  0  0  0  0  0  0  0
    2.2279    0.3156    0.1679 C   0  0  0  0  0  0  0  0  0  0  0  0
    2.7126   -1.0565    0.0966 C   0  0  0  0  0  0  0  0  0  0  0  0
    3.8892   -1.4541    0.5317 C   0  0  0  0  0  0  0  0  0  0  0  0
    4.8669   -0.4220    1.1766 B   0  0  0  0  0  0  0  0  0  0  0  0
    4.3330    1.0190    1.2410 N   0  0  0  0  0  0  0  0  0  0  0  0
    6.4512   -0.6626    1.0595 C   0  0  0  0  0  0  0  0  0  0  0  0
   -1.9386   -1.1602    0.6270 O   0  0  0  0  0  0  0  0  0  0  0  0
   -5.7222    0.2013   -0.6384 C   0  0  0  0  0  0  0  0  0  0  0  0
   -4.2036   -0.9912    1.8941 H   0  0  0  0  0  0  0  0  0  0  0  0
   -5.7314   -1.4262    1.1143 H   0  0  0  0  0  0  0  0  0  0  0  0
   -4.2945   -2.2968    0.5813 H   0  0  0  0  0  0  0  0  0  0  0  0
   -3.6072    0.1741   -1.9069 H   0  0  0  0  0  0  0  0  0  0  0  0
   -3.4437   -1.5302   -1.4469 H   0  0  0  0  0  0  0  0  0  0  0  0
   -2.0195    0.7923   -0.0777 H   0  0  0  0  0  0  0  0  0  0  0  0
   -1.0655    0.1646   -2.3149 H   0  0  0  0  0  0  0  0  0  0  0  0
   -1.1252   -1.5379   -1.8870 H   0  0  0  0  0  0  0  0  0  0  0  0
   -0.3888    2.2586   -0.6084 H   0  0  0  0  0  0  0  0  0  0  0  0
    1.0194    3.9449    0.3848 H   0  0  0  0  0  0  0  0  0  0  0  0
    3.1944    3.4016    1.2328 H   0  0  0  0  0  0  0  0  0  0  0  0
    2.0824   -1.8450   -0.3443 H   0  0  0  0  0  0  0  0  0  0  0  0
    4.1933   -2.4741    0.4545 H   0  0  0  0  0  0  0  0  0  0  0  0
    4.9136    1.7677    1.6524 H   0  0  0  0  0  0  0  0  0  0  0  0
    6.9952    0.1386    1.5689 H   0  0  0  0  0  0  0  0  0  0  0  0
    6.7177   -1.6707    1.4769 H   0  0  0  0  0  0  0  0  0  0  0  0
    6.6902   -0.7264   -0.0267 H   0  0  0  0  0  0  0  0  0  0  0  0
   -1.5566   -1.9848    0.2348 H   0  0  0  0  0  0  0  0  0  0  0  0
   -6.0835    1.0984   -0.0651 H   0  0  0  0  0  0  0  0  0  0  0  0
   -5.6671    0.5055   -1.7070 H   0  0  0  0  0  0  0  0  0  0  0  0
   -6.5230   -0.5819   -0.5537 H   0  0  0  0  0  0  0  0  0  0  0  0
  1  2  1  0
  2  3  1  0
  3  4  1  0
  4  5  1  0
  5  6  1  0
  6  7  1  0
  7  8  2  0
  8  9  1  0
  9 10  2  0
 10 11  1  0
 11 12  2  0
 12 13  1  0
 13 14  2  0
 14 15  1  0
 15 16  1  0
 15 17  1  0
  4 18  1  0
  2 19  1  0
 12  7  1  0
 16 11  1  0
  1 20  1  0
  1 21  1  0
  1 22  1  0
  3 23  1  0
  3 24  1  0
  4 25  1  0
  5 26  1  0
  5 27  1  0
  8 28  1  0
  9 29  1  0
 10 30  1  0
 13 31  1  0
 14 32  1  0
 16 33  1  0
 17 34  1  0
 17 35  1  0
 17 36  1  0
 18 37  1  0
 19 38  1  0
 19 39  1  0
 19 40  1  0
M  END
>  <Ligand ID>  (1) 
LIG0000247

>  <Ligand>  (1) 
CHEMBL3736156

>  <SMILES>  (1) 
CN(CC(COc1cccc2c1C=CB(N2)C)O)C

>  <CID>  (1) 
127034967.0

>  <ChEMBL ID>  (1) 
nan

>  <InChiKey>  (1) 
KVVLFJLSBAOKPZ-UHFFFAOYSA-N

>  <InChi>  (1) 
InChI=1S/C14H21BN2O2/c1-15-8-7-12-13(16-15)5-4-6-14(12)19-10-11(18)9-17(2)3/h4-8,11,16,18H,9-10H2,1-3H3

>  <IUPAC Name>  (1) 
1-(dimethylamino)-3-[(2-methyl-1H-1,2-benzazaborinin-5-yl)oxy]propan-2-ol

$$$$
