
     RDKit          3D

173175  0  0  0  0  0  0  0  0999 V2000
  -15.1477    0.8589   -2.4364 N   0  0  0  0  0  0  0  0  0  0  0  0
  -14.5990    2.1740   -2.2942 C   0  0  0  0  0  0  0  0  0  0  0  0
  -13.2949    2.1825   -1.5013 C   0  0  0  0  0  0  0  0  0  0  0  0
  -12.2155    1.3541   -2.1515 C   0  0  0  0  0  0  0  0  0  0  0  0
  -10.8954    1.3673   -1.4349 C   0  0  0  0  0  0  0  0  0  0  0  0
  -11.1203    0.8348    0.0041 C   0  0  1  0  0  0  0  0  0  0  0  0
  -11.6337   -0.5077   -0.1652 C   0  0  0  0  0  0  0  0  0  0  0  0
  -12.8701   -0.7799   -0.3914 O   0  0  0  0  0  0  0  0  0  0  0  0
  -10.8073   -1.7010   -0.1135 N   0  0  0  0  0  0  0  0  0  0  0  0
  -11.3921   -3.0211   -0.3003 C   0  0  2  0  0  0  0  0  0  0  0  0
  -10.7761   -3.9249    0.6962 C   0  0  0  0  0  0  0  0  0  0  0  0
  -11.2128   -5.1212    0.7044 O   0  0  0  0  0  0  0  0  0  0  0  0
   -9.8016   -3.6014    1.5917 O   0  0  0  0  0  0  0  0  0  0  0  0
  -11.0766   -3.5006   -1.7207 C   0  0  2  0  0  0  0  0  0  0  0  0
  -11.6103   -2.6097   -2.6405 O   0  0  0  0  0  0  0  0  0  0  0  0
  -11.7775   -4.8171   -1.8838 C   0  0  0  0  0  0  0  0  0  0  0  0
   -9.8525    0.8682    0.7084 N   0  0  0  0  0  0  0  0  0  0  0  0
   -9.1238    2.0651    0.9943 C   0  0  0  0  0  0  0  0  0  0  0  0
   -9.5399    3.1661    0.5889 O   0  0  0  0  0  0  0  0  0  0  0  0
   -7.8829    1.9102    1.7762 C   0  0  1  0  0  0  0  0  0  0  0  0
   -6.8741    2.9281    1.4530 N   0  0  0  0  0  0  0  0  0  0  0  0
   -5.5532    2.5202    1.5777 C   0  0  0  0  0  0  0  0  0  0  0  0
   -5.3635    1.2947    1.9626 O   0  0  0  0  0  0  0  0  0  0  0  0
   -4.2937    3.2459    1.3527 C   0  0  1  0  0  0  0  0  0  0  0  0
   -3.2941    2.2986    1.7546 N   0  0  0  0  0  0  0  0  0  0  0  0
   -2.1736    1.7262    1.2128 C   0  0  0  0  0  0  0  0  0  0  0  0
   -1.7139    1.9515    0.0608 O   0  0  0  0  0  0  0  0  0  0  0  0
   -1.4538    0.7184    2.1153 C   0  0  1  0  0  0  0  0  0  0  0  0
   -0.6305   -0.1517    1.2966 N   0  0  0  0  0  0  0  0  0  0  0  0
   -1.3214   -1.0769    0.4326 C   0  0  0  0  0  0  0  0  0  0  0  0
   -2.5716   -1.1227    0.3488 O   0  0  0  0  0  0  0  0  0  0  0  0
   -0.4345   -2.0020   -0.3804 C   0  0  1  0  0  0  0  0  0  0  0  0
    0.8578   -2.0910    0.2399 N   0  0  0  0  0  0  0  0  0  0  0  0
    2.0065   -1.3523   -0.0687 C   0  0  0  0  0  0  0  0  0  0  0  0
    1.9274   -0.5048   -0.9963 O   0  0  0  0  0  0  0  0  0  0  0  0
    3.2600   -1.5950    0.7036 C   0  0  1  0  0  0  0  0  0  0  0  0
    4.2973   -0.6880    0.3210 N   0  0  0  0  0  0  0  0  0  0  0  0
    5.5501   -1.0168   -0.2439 C   0  0  0  0  0  0  0  0  0  0  0  0
    5.9067   -2.2230   -0.4859 O   0  0  0  0  0  0  0  0  0  0  0  0
    6.4515    0.1080   -0.5542 C   0  0  2  0  0  0  0  0  0  0  0  0
    5.7422    0.9503   -1.6446 C   0  0  0  0  0  0  0  0  0  0  0  0
    5.9808    0.0586   -2.8604 C   0  0  0  0  0  0  0  0  0  0  0  0
    7.2470   -0.7497   -2.5401 C   0  0  0  0  0  0  0  0  0  0  0  0
    7.6596   -0.2057   -1.2632 N   0  0  0  0  0  0  0  0  0  0  0  0
    8.9501    0.0839   -0.7498 C   0  0  0  0  0  0  0  0  0  0  0  0
    9.1398    0.5405    0.4286 O   0  0  0  0  0  0  0  0  0  0  0  0
   10.1331   -0.1494   -1.6529 C   0  0  1  0  0  0  0  0  0  0  0  0
   11.3052    0.4531   -0.9776 N   0  0  0  0  0  0  0  0  0  0  0  0
   11.5446    1.8281   -1.3104 C   0  0  0  0  0  0  0  0  0  0  0  0
   10.7853    2.4271   -2.1033 O   0  0  0  0  0  0  0  0  0  0  0  0
   12.6792    2.6011   -0.7468 C   0  0  2  0  0  0  0  0  0  0  0  0
   13.3853    3.3272   -1.8663 C   0  0  0  0  0  0  0  0  0  0  0  0
   13.9871    2.1361   -2.6132 C   0  0  0  0  0  0  0  0  0  0  0  0
   14.2865    1.1315   -1.5205 C   0  0  0  0  0  0  0  0  0  0  0  0
   13.7085    1.6791   -0.2848 N   0  0  0  0  0  0  0  0  0  0  0  0
   14.0979    1.3751    1.0522 C   0  0  0  0  0  0  0  0  0  0  0  0
   13.4714    1.9498    1.9854 O   0  0  0  0  0  0  0  0  0  0  0  0
   15.1991    0.4184    1.2397 C   0  0  2  0  0  0  0  0  0  0  0  0
   14.7686   -0.9878    0.8299 C   0  0  0  0  0  0  0  0  0  0  0  0
   15.6132   -1.9051    1.6714 C   0  0  0  0  0  0  0  0  0  0  0  0
   16.1843   -1.0241    2.7575 C   0  0  0  0  0  0  0  0  0  0  0  0
   17.0340   -1.3659    3.6158 O   0  0  0  0  0  0  0  0  0  0  0  0
   15.5900    0.2567    2.6345 N   0  0  0  0  0  0  0  0  0  0  0  0
   10.4291   -1.5660   -1.9510 C   0  0  0  0  0  0  0  0  0  0  0  0
   10.7665   -2.4545   -0.8090 C   0  0  0  0  0  0  0  0  0  0  0  0
   11.0365   -3.8377   -1.3805 C   0  0  0  0  0  0  0  0  0  0  0  0
    9.6747   -2.6219    0.2155 C   0  0  0  0  0  0  0  0  0  0  0  0
    2.9603   -1.4999    2.1940 C   0  0  0  0  0  0  0  0  0  0  0  0
    4.1713   -1.7324    3.0202 C   0  0  0  0  0  0  0  0  0  0  0  0
    4.0879   -1.5012    4.2498 O   0  0  0  0  0  0  0  0  0  0  0  0
    5.3798   -2.1839    2.5394 O   0  0  0  0  0  0  0  0  0  0  0  0
   -1.1546   -3.2950   -0.5313 C   0  0  0  0  0  0  0  0  0  0  0  0
   -0.1825   -4.5103   -1.4819 S   0  0  0  0  0  0  0  0  0  0  0  0
   -0.5718    1.4263    3.0658 C   0  0  0  0  0  0  0  0  0  0  0  0
   -1.4264    2.6210    4.1235 S   0  0  0  0  0  0  0  0  0  0  0  0
   -4.1045    4.0671    0.1871 C   0  0  0  0  0  0  0  0  0  0  0  0
   -4.1307    3.6663   -1.2182 C   0  0  0  0  0  0  0  0  0  0  0  0
   -5.3850    3.0067   -1.6871 C   0  0  0  0  0  0  0  0  0  0  0  0
   -5.6774    1.7388   -1.0980 N   0  0  0  0  0  0  0  0  0  0  0  0
   -6.8366    1.2363   -1.3749 C   0  0  0  0  0  0  0  0  0  0  0  0
   -7.1607   -0.0464   -0.7953 N   0  0  0  0  0  0  0  0  0  0  0  0
   -7.7640    1.8994   -2.2234 N   0  0  0  0  0  0  0  0  0  0  0  0
   -8.3410    2.1897    3.2175 C   0  0  0  0  0  0  0  0  0  0  0  0
   -9.3706    1.2270    3.6477 C   0  0  0  0  0  0  0  0  0  0  0  0
   -8.8322   -0.1435    3.7345 C   0  0  0  0  0  0  0  0  0  0  0  0
   -7.6674   -0.5078    3.4967 O   0  0  0  0  0  0  0  0  0  0  0  0
   -9.7573   -1.1646    4.1407 N   0  0  0  0  0  0  0  0  0  0  0  0
  -14.8052    0.3377   -3.2791 H   0  0  0  0  0  0  0  0  0  0  0  0
  -15.1011    0.3235   -1.5515 H   0  0  0  0  0  0  0  0  0  0  0  0
  -14.5050    2.6602   -3.2702 H   0  0  0  0  0  0  0  0  0  0  0  0
  -15.3213    2.7495   -1.6386 H   0  0  0  0  0  0  0  0  0  0  0  0
  -13.5536    1.8861   -0.4745 H   0  0  0  0  0  0  0  0  0  0  0  0
  -12.9547    3.2306   -1.4707 H   0  0  0  0  0  0  0  0  0  0  0  0
  -12.5081    0.3007   -2.3278 H   0  0  0  0  0  0  0  0  0  0  0  0
  -12.0383    1.7726   -3.1818 H   0  0  0  0  0  0  0  0  0  0  0  0
  -10.4032    2.3385   -1.4171 H   0  0  0  0  0  0  0  0  0  0  0  0
  -10.2291    0.6296   -1.9117 H   0  0  0  0  0  0  0  0  0  0  0  0
  -11.8506    1.5404    0.4006 H   0  0  0  0  0  0  0  0  0  0  0  0
   -9.7949   -1.6759    0.0572 H   0  0  0  0  0  0  0  0  0  0  0  0
  -12.4684   -3.0405   -0.2259 H   0  0  0  0  0  0  0  0  0  0  0  0
   -9.5003   -4.1343    2.3879 H   0  0  0  0  0  0  0  0  0  0  0  0
   -9.9920   -3.5651   -1.8910 H   0  0  0  0  0  0  0  0  0  0  0  0
  -12.6018   -2.6186   -2.4566 H   0  0  0  0  0  0  0  0  0  0  0  0
  -11.0709   -5.6601   -1.7220 H   0  0  0  0  0  0  0  0  0  0  0  0
  -12.6025   -4.9149   -1.1505 H   0  0  0  0  0  0  0  0  0  0  0  0
  -12.2640   -4.8947   -2.8957 H   0  0  0  0  0  0  0  0  0  0  0  0
   -9.4491   -0.0414    1.0029 H   0  0  0  0  0  0  0  0  0  0  0  0
   -7.4427    0.9186    1.8055 H   0  0  0  0  0  0  0  0  0  0  0  0
   -7.0639    3.8857    1.1451 H   0  0  0  0  0  0  0  0  0  0  0  0
   -4.2378    4.0279    2.2317 H   0  0  0  0  0  0  0  0  0  0  0  0
   -3.5097    1.9399    2.7956 H   0  0  0  0  0  0  0  0  0  0  0  0
   -2.2460    0.1550    2.5589 H   0  0  0  0  0  0  0  0  0  0  0  0
    0.4053   -0.1197    1.3255 H   0  0  0  0  0  0  0  0  0  0  0  0
   -0.2814   -1.4296   -1.3298 H   0  0  0  0  0  0  0  0  0  0  0  0
    0.9324   -2.8110    1.0210 H   0  0  0  0  0  0  0  0  0  0  0  0
    3.5982   -2.6309    0.5214 H   0  0  0  0  0  0  0  0  0  0  0  0
    4.0743    0.3481    0.4811 H   0  0  0  0  0  0  0  0  0  0  0  0
    6.6282    0.7524    0.3503 H   0  0  0  0  0  0  0  0  0  0  0  0
    4.6658    1.0674   -1.4240 H   0  0  0  0  0  0  0  0  0  0  0  0
    6.3088    1.8731   -1.7394 H   0  0  0  0  0  0  0  0  0  0  0  0
    6.0987    0.6994   -3.7452 H   0  0  0  0  0  0  0  0  0  0  0  0
    5.1715   -0.6903   -2.9766 H   0  0  0  0  0  0  0  0  0  0  0  0
    7.9551   -0.5000   -3.3624 H   0  0  0  0  0  0  0  0  0  0  0  0
    7.0471   -1.8111   -2.4363 H   0  0  0  0  0  0  0  0  0  0  0  0
    9.9977    0.4319   -2.5869 H   0  0  0  0  0  0  0  0  0  0  0  0
   11.8974   -0.0669   -0.3227 H   0  0  0  0  0  0  0  0  0  0  0  0
   12.3732    3.3020    0.0622 H   0  0  0  0  0  0  0  0  0  0  0  0
   12.7134    3.8832   -2.5277 H   0  0  0  0  0  0  0  0  0  0  0  0
   14.2010    3.9253   -1.4450 H   0  0  0  0  0  0  0  0  0  0  0  0
   13.1630    1.7560   -3.2862 H   0  0  0  0  0  0  0  0  0  0  0  0
   14.8722    2.3954   -3.2003 H   0  0  0  0  0  0  0  0  0  0  0  0
   13.8307    0.1696   -1.8004 H   0  0  0  0  0  0  0  0  0  0  0  0
   15.3721    1.0043   -1.4333 H   0  0  0  0  0  0  0  0  0  0  0  0
   16.1285    0.7098    0.6845 H   0  0  0  0  0  0  0  0  0  0  0  0
   13.6965   -1.0441    1.0206 H   0  0  0  0  0  0  0  0  0  0  0  0
   15.0659   -1.1061   -0.2078 H   0  0  0  0  0  0  0  0  0  0  0  0
   15.0392   -2.7248    2.1134 H   0  0  0  0  0  0  0  0  0  0  0  0
   16.4377   -2.3538    1.0650 H   0  0  0  0  0  0  0  0  0  0  0  0
   15.4722    0.9332    3.4053 H   0  0  0  0  0  0  0  0  0  0  0  0
    9.5625   -2.0615   -2.4925 H   0  0  0  0  0  0  0  0  0  0  0  0
   11.2424   -1.5740   -2.7349 H   0  0  0  0  0  0  0  0  0  0  0  0
   11.7281   -2.1627   -0.3048 H   0  0  0  0  0  0  0  0  0  0  0  0
   10.4896   -4.6061   -0.7820 H   0  0  0  0  0  0  0  0  0  0  0  0
   10.6563   -3.9028   -2.4195 H   0  0  0  0  0  0  0  0  0  0  0  0
   12.1425   -4.0778   -1.3939 H   0  0  0  0  0  0  0  0  0  0  0  0
    9.8374   -1.9806    1.1034 H   0  0  0  0  0  0  0  0  0  0  0  0
    9.7035   -3.6867    0.6297 H   0  0  0  0  0  0  0  0  0  0  0  0
    8.6600   -2.5423   -0.1972 H   0  0  0  0  0  0  0  0  0  0  0  0
    2.2743   -2.3488    2.4307 H   0  0  0  0  0  0  0  0  0  0  0  0
    2.4591   -0.5808    2.4731 H   0  0  0  0  0  0  0  0  0  0  0  0
    6.1973   -2.4109    3.0559 H   0  0  0  0  0  0  0  0  0  0  0  0
   -2.1081   -3.0838   -1.0592 H   0  0  0  0  0  0  0  0  0  0  0  0
   -1.4282   -3.6814    0.4785 H   0  0  0  0  0  0  0  0  0  0  0  0
    0.8183   -5.0099   -0.5984 H   0  0  0  0  0  0  0  0  0  0  0  0
    0.3440    1.8474    2.6031 H   0  0  0  0  0  0  0  0  0  0  0  0
   -0.1780    0.6411    3.7795 H   0  0  0  0  0  0  0  0  0  0  0  0
   -0.5773    3.7483    4.3304 H   0  0  0  0  0  0  0  0  0  0  0  0
   -3.0525    4.5516    0.3211 H   0  0  0  0  0  0  0  0  0  0  0  0
   -4.7230    5.0367    0.3233 H   0  0  0  0  0  0  0  0  0  0  0  0
   -3.2189    3.1760   -1.6324 H   0  0  0  0  0  0  0  0  0  0  0  0
   -4.1181    4.6488   -1.8709 H   0  0  0  0  0  0  0  0  0  0  0  0
   -6.2646    3.7208   -1.5511 H   0  0  0  0  0  0  0  0  0  0  0  0
   -5.3897    2.8459   -2.7968 H   0  0  0  0  0  0  0  0  0  0  0  0
   -8.0208   -0.5559   -1.1032 H   0  0  0  0  0  0  0  0  0  0  0  0
   -6.5523   -0.4707   -0.0669 H   0  0  0  0  0  0  0  0  0  0  0  0
   -8.1200    2.8182   -1.8875 H   0  0  0  0  0  0  0  0  0  0  0  0
   -8.0454    1.4619   -3.1428 H   0  0  0  0  0  0  0  0  0  0  0  0
   -8.7192    3.2430    3.1810 H   0  0  0  0  0  0  0  0  0  0  0  0
   -7.4785    2.1079    3.9187 H   0  0  0  0  0  0  0  0  0  0  0  0
  -10.2959    1.2563    3.0104 H   0  0  0  0  0  0  0  0  0  0  0  0
   -9.6543    1.4872    4.7152 H   0  0  0  0  0  0  0  0  0  0  0  0
   -9.7927   -1.3784    5.1388 H   0  0  0  0  0  0  0  0  0  0  0  0
  -10.3141   -1.5965    3.3769 H   0  0  0  0  0  0  0  0  0  0  0  0
  1  2  1  0
  2  3  1  0
  3  4  1  0
  4  5  1  0
  5  6  1  0
  6  7  1  0
  7  8  2  0
  7  9  1  0
  9 10  1  0
 10 11  1  0
 11 12  2  0
 11 13  1  0
 10 14  1  0
 14 15  1  0
 14 16  1  0
  6 17  1  0
 17 18  1  0
 18 19  2  0
 18 20  1  0
 20 21  1  0
 21 22  1  0
 22 23  2  0
 22 24  1  0
 24 25  1  0
 25 26  1  0
 26 27  2  0
 26 28  1  0
 28 29  1  0
 29 30  1  0
 30 31  2  0
 30 32  1  0
 32 33  1  0
 33 34  1  0
 34 35  2  0
 34 36  1  0
 36 37  1  0
 37 38  1  0
 38 39  2  0
 38 40  1  0
 40 41  1  0
 41 42  1  0
 42 43  1  0
 43 44  1  0
 44 45  1  0
 45 46  2  0
 45 47  1  0
 47 48  1  0
 48 49  1  0
 49 50  2  0
 49 51  1  0
 51 52  1  0
 52 53  1  0
 53 54  1  0
 54 55  1  0
 55 56  1  0
 56 57  2  0
 56 58  1  0
 58 59  1  0
 59 60  1  0
 60 61  1  0
 61 62  2  0
 61 63  1  0
 47 64  1  0
 64 65  1  0
 65 66  1  0
 65 67  1  0
 36 68  1  0
 68 69  1  0
 69 70  2  0
 69 71  1  0
 32 72  1  0
 72 73  1  0
 28 74  1  0
 74 75  1  0
 24 76  1  0
 76 77  1  0
 77 78  1  0
 78 79  1  0
 79 80  2  3
 80 81  1  0
 80 82  1  0
 20 83  1  0
 83 84  1  0
 84 85  1  0
 85 86  2  0
 85 87  1  0
 44 40  1  0
 55 51  1  0
 63 58  1  0
  1 88  1  0
  1 89  1  0
  2 90  1  0
  2 91  1  0
  3 92  1  0
  3 93  1  0
  4 94  1  0
  4 95  1  0
  5 96  1  0
  5 97  1  0
  6 98  1  1
  9 99  1  0
 10100  1  1
 13101  1  0
 14102  1  1
 15103  1  0
 16104  1  0
 16105  1  0
 16106  1  0
 17107  1  0
 20108  1  1
 21109  1  0
 24110  1  1
 25111  1  0
 28112  1  1
 29113  1  0
 32114  1  6
 33115  1  0
 36116  1  1
 37117  1  0
 40118  1  1
 41119  1  0
 41120  1  0
 42121  1  0
 42122  1  0
 43123  1  0
 43124  1  0
 47125  1  6
 48126  1  0
 51127  1  1
 52128  1  0
 52129  1  0
 53130  1  0
 53131  1  0
 54132  1  0
 54133  1  0
 58134  1  6
 59135  1  0
 59136  1  0
 60137  1  0
 60138  1  0
 63139  1  0
 64140  1  0
 64141  1  0
 65142  1  0
 66143  1  0
 66144  1  0
 66145  1  0
 67146  1  0
 67147  1  0
 67148  1  0
 68149  1  0
 68150  1  0
 71151  1  0
 72152  1  0
 72153  1  0
 73154  1  0
 74155  1  0
 74156  1  0
 75157  1  0
 76158  1  0
 76159  1  0
 77160  1  0
 77161  1  0
 78162  1  0
 78163  1  0
 81164  1  0
 81165  1  0
 82166  1  0
 82167  1  0
 83168  1  0
 83169  1  0
 84170  1  0
 84171  1  0
 87172  1  0
 87173  1  0
M  END
>  <Ligand ID>  (1) 
LIG0005361

>  <Ligand>  (1) 
CHEMBL2370351

>  <SMILES>  (1) 
NCCCC[C@@H](C(=O)N[C@H](C(=O)O)[C@H](O)C)NC(=O)[C@@H](NC(=O)[C@@H](NC(=O)[C@@H](NC(=O)[C@@H](NC(=O)[C@@H](NC(=O)[C@@H]1CCCN1C(=O)[C@@H](NC(=O)[C@@H]1CCCN1C(=O)[C@@H]1CCC(=O)N1)CC(C)C)CC(=O)O)CS)CS)CCCN=C(N)N)CCC(=O)N

>  <CID>  (1) 
73356120.0

>  <ChEMBL ID>  (1) 
nan

>  <InChiKey>  (1) 
IAHPZKSWTMNFTC-YEVFLCJTSA-N

>  <InChi>  (1) 
InChI=1S/C52H86N16O17S2/c1-25(2)21-32(63-48(81)36-12-7-19-67(36)49(82)30-14-16-38(71)58-30)50(83)68-20-8-11-35(68)47(80)62-31(22-39(72)73)44(77)64-34(24-87)46(79)65-33(23-86)45(78)60-28(10-6-18-57-52(55)56)41(74)61-29(13-15-37(54)70)42(75)59-27(9-4-5-17-53)43(76)66-40(26(3)69)51(84)85/h25-36,40,69,86-87H,4-24,53H2,1-3H3,(H2,54,70)(H,58,71)(H,59,75)(H,60,78)(H,61,74)(H,62,80)(H,63,81)(H,64,77)(H,65,79)(H,66,76)(H,72,73)(H,84,85)(H4,55,56,57)/t26-,27+,28+,29+,30+,31+,32+,33+,34+,35+,36+,40+/m1/s1

>  <IUPAC Name>  (1) 
(3S)-4-[[(2R)-1-[[(2R)-1-[[(2S)-1-[[(2S)-5-amino-1-[[(2S)-6-amino-1-[[(1S,2R)-1-carboxy-2-hydroxypropyl]amino]-1-oxohexan-2-yl]amino]-1,5-dioxopentan-2-yl]amino]-5-(diaminomethylideneamino)-1-oxopentan-2-yl]amino]-1-oxo-3-sulfanylpropan-2-yl]amino]-1-oxo-3-sulfanylpropan-2-yl]amino]-3-[[(2S)-1-[(2S)-4-methyl-2-[[(2S)-1-[(2S)-5-oxopyrrolidine-2-carbonyl]pyrrolidine-2-carbonyl]amino]pentanoyl]pyrrolidine-2-carbonyl]amino]-4-oxobutanoic acid

$$$$
