
     RDKit          3D

 47 49  0  0  0  0  0  0  0  0999 V2000
   -3.5895   -3.6770    0.8910 C   0  0  0  0  0  0  0  0  0  0  0  0
   -3.5028   -2.4064    0.6194 O   0  0  0  0  0  0  0  0  0  0  0  0
   -3.4867   -1.1448    0.3624 C   0  0  0  0  0  0  0  0  0  0  0  0
   -4.6721   -0.3881    0.4303 C   0  0  0  0  0  0  0  0  0  0  0  0
   -4.6920    0.9616    0.1622 C   0  0  0  0  0  0  0  0  0  0  0  0
   -5.9029    1.6124    0.2525 O   0  0  0  0  0  0  0  0  0  0  0  0
   -5.9915    3.0088   -0.0191 C   0  0  0  0  0  0  0  0  0  0  0  0
   -3.5023    1.5534   -0.1765 C   0  0  0  0  0  0  0  0  0  0  0  0
   -2.3152    0.8627   -0.2581 C   0  0  0  0  0  0  0  0  0  0  0  0
   -2.2822   -0.4887    0.0067 C   0  0  0  0  0  0  0  0  0  0  0  0
   -1.0988   -1.3461   -0.0928 C   0  0  0  0  0  0  0  0  0  0  0  0
    0.1071   -0.6046   -0.1346 N   0  0  0  0  0  0  0  0  0  0  0  0
    0.5568    0.0354    1.0385 C   0  0  0  0  0  0  0  0  0  0  0  0
    1.7948    0.8427    0.7763 C   0  0  0  0  0  0  0  0  0  0  0  0
    2.8050    0.0364    0.1291 N   0  0  0  0  0  0  0  0  0  0  0  0
    2.4406   -1.2716   -0.4048 C   0  0  0  0  0  0  0  0  0  0  0  0
    1.0873   -1.1079   -1.0353 C   0  0  0  0  0  0  0  0  0  0  0  0
    4.1592    0.4494   -0.0145 C   0  0  0  0  0  0  0  0  0  0  0  0
    4.6429    0.7061   -1.2952 C   0  0  0  0  0  0  0  0  0  0  0  0
    5.9548    1.1159   -1.4186 C   0  0  0  0  0  0  0  0  0  0  0  0
    6.7809    1.2726   -0.3162 C   0  0  0  0  0  0  0  0  0  0  0  0
    6.2682    1.0095    0.9412 C   0  0  0  0  0  0  0  0  0  0  0  0
    4.9451    0.5929    1.1068 C   0  0  0  0  0  0  0  0  0  0  0  0
    4.4577    0.3375    2.3365 F   0  0  0  0  0  0  0  0  0  0  0  0
   -3.3913   -4.0206    1.9446 H   0  0  0  0  0  0  0  0  0  0  0  0
   -3.0284   -4.3785    0.1837 H   0  0  0  0  0  0  0  0  0  0  0  0
   -4.6582   -4.0509    0.7267 H   0  0  0  0  0  0  0  0  0  0  0  0
   -5.5794   -0.9112    0.7042 H   0  0  0  0  0  0  0  0  0  0  0  0
   -5.7636    3.1053   -1.1080 H   0  0  0  0  0  0  0  0  0  0  0  0
   -5.2433    3.5479    0.6053 H   0  0  0  0  0  0  0  0  0  0  0  0
   -7.0060    3.4031    0.2004 H   0  0  0  0  0  0  0  0  0  0  0  0
   -3.4898    2.5926   -0.3856 H   0  0  0  0  0  0  0  0  0  0  0  0
   -1.4186    1.3894   -0.5355 H   0  0  0  0  0  0  0  0  0  0  0  0
   -1.0391   -2.0601    0.7875 H   0  0  0  0  0  0  0  0  0  0  0  0
   -1.1120   -1.9790   -1.0141 H   0  0  0  0  0  0  0  0  0  0  0  0
    0.8033   -0.6879    1.8697 H   0  0  0  0  0  0  0  0  0  0  0  0
   -0.2250    0.7519    1.3961 H   0  0  0  0  0  0  0  0  0  0  0  0
    2.1870    1.2363    1.7351 H   0  0  0  0  0  0  0  0  0  0  0  0
    1.5693    1.6864    0.0903 H   0  0  0  0  0  0  0  0  0  0  0  0
    3.1422   -1.6472   -1.1483 H   0  0  0  0  0  0  0  0  0  0  0  0
    2.3075   -1.9910    0.4414 H   0  0  0  0  0  0  0  0  0  0  0  0
    1.1055   -0.4627   -1.9413 H   0  0  0  0  0  0  0  0  0  0  0  0
    0.7836   -2.1289   -1.4070 H   0  0  0  0  0  0  0  0  0  0  0  0
    4.0214    0.5912   -2.1835 H   0  0  0  0  0  0  0  0  0  0  0  0
    6.3491    1.3218   -2.4180 H   0  0  0  0  0  0  0  0  0  0  0  0
    7.8237    1.6015   -0.4223 H   0  0  0  0  0  0  0  0  0  0  0  0
    6.8978    1.1284    1.8116 H   0  0  0  0  0  0  0  0  0  0  0  0
  1  2  1  0
  2  3  1  0
  3  4  2  0
  4  5  1  0
  5  6  1  0
  6  7  1  0
  5  8  2  0
  8  9  1  0
  9 10  2  0
 10 11  1  0
 11 12  1  0
 12 13  1  0
 13 14  1  0
 14 15  1  0
 15 16  1  0
 16 17  1  0
 15 18  1  0
 18 19  2  0
 19 20  1  0
 20 21  2  0
 21 22  1  0
 22 23  2  0
 23 24  1  0
 10  3  1  0
 17 12  1  0
 23 18  1  0
  1 25  1  0
  1 26  1  0
  1 27  1  0
  4 28  1  0
  7 29  1  0
  7 30  1  0
  7 31  1  0
  8 32  1  0
  9 33  1  0
 11 34  1  0
 11 35  1  0
 13 36  1  0
 13 37  1  0
 14 38  1  0
 14 39  1  0
 16 40  1  0
 16 41  1  0
 17 42  1  0
 17 43  1  0
 19 44  1  0
 20 45  1  0
 21 46  1  0
 22 47  1  0
M  END
>  <Ligand ID>  (1) 
LIG0004785

>  <Ligand>  (1) 
SMR000102159

>  <SMILES>  (1) 
COc1cc(OC)ccc1CN1CCN(CC1)c1ccccc1F

>  <CID>  (1) 
2173523.0

>  <ChEMBL ID>  (1) 
nan

>  <InChiKey>  (1) 
FTXHIWXQEQZCKC-UHFFFAOYSA-N

>  <InChi>  (1) 
InChI=1S/C19H23FN2O2/c1-23-16-8-7-15(19(13-16)24-2)14-21-9-11-22(12-10-21)18-6-4-3-5-17(18)20/h3-8,13H,9-12,14H2,1-2H3

>  <IUPAC Name>  (1) 
1-[(2,4-dimethoxyphenyl)methyl]-4-(2-fluorophenyl)piperazine

$$$$
