
     RDKit          3D

 89 91  0  0  0  0  0  0  0  0999 V2000
    3.8549    7.4868    0.4521 N   0  0  0  0  0  0  0  0  0  0  0  0
    4.1883    6.2790    1.1231 C   0  0  0  0  0  0  0  0  0  0  0  0
    4.0317    5.1595    0.4713 N   0  0  0  0  0  0  0  0  0  0  0  0
    3.5341    5.2109   -0.8792 C   0  0  0  0  0  0  0  0  0  0  0  0
    3.1753    3.7922   -1.3525 C   0  0  0  0  0  0  0  0  0  0  0  0
    2.1127    3.2040   -0.4537 C   0  0  0  0  0  0  0  0  0  0  0  0
    1.6770    1.8229   -0.8313 C   0  0  1  0  0  0  0  0  0  0  0  0
    2.7756    0.8138   -0.8138 C   0  0  0  0  0  0  0  0  0  0  0  0
    3.8417    0.9326   -1.4607 O   0  0  0  0  0  0  0  0  0  0  0  0
    2.5861   -0.3454   -0.0143 N   0  0  0  0  0  0  0  0  0  0  0  0
    3.5877   -1.4096    0.0783 C   0  0  2  0  0  0  0  0  0  0  0  0
    3.0298   -2.6330   -0.5381 C   0  0  0  0  0  0  0  0  0  0  0  0
    1.8366   -2.6091   -0.9842 O   0  0  0  0  0  0  0  0  0  0  0  0
    3.7200   -3.8561   -0.6821 N   0  0  0  0  0  0  0  0  0  0  0  0
    3.9099   -1.6621    1.5072 C   0  0  0  0  0  0  0  0  0  0  0  0
    4.8952   -2.7153    1.7282 C   0  0  0  0  0  0  0  0  0  0  0  0
    4.5271   -4.0364    1.9715 C   0  0  0  0  0  0  0  0  0  0  0  0
    5.4506   -5.0383    2.1646 C   0  0  0  0  0  0  0  0  0  0  0  0
    6.7980   -4.7758    2.1258 C   0  0  0  0  0  0  0  0  0  0  0  0
    7.1801   -3.4675    1.8850 C   0  0  0  0  0  0  0  0  0  0  0  0
    6.2544   -2.4564    1.6904 C   0  0  0  0  0  0  0  0  0  0  0  0
    8.1726   -6.3272    2.4218 I   0  0  0  0  0  0  0  0  0  0  0  0
    0.5907    1.4235    0.0287 N   0  0  0  0  0  0  0  0  0  0  0  0
   -0.6283    0.8548   -0.4350 C   0  0  0  0  0  0  0  0  0  0  0  0
   -0.7378    0.7016   -1.6780 O   0  0  0  0  0  0  0  0  0  0  0  0
   -1.6912    0.4692    0.5119 C   0  0  2  0  0  0  0  0  0  0  0  0
   -2.7421   -0.2194   -0.2323 N   0  0  0  0  0  0  0  0  0  0  0  0
   -3.0365   -1.5432    0.1752 C   0  0  0  0  0  0  0  0  0  0  0  0
   -2.4229   -2.1051    1.1385 O   0  0  0  0  0  0  0  0  0  0  0  0
   -4.0832   -2.3847   -0.4848 C   0  0  2  0  0  0  0  0  0  0  0  0
   -5.3746   -1.5998   -0.4294 C   0  0  0  0  0  0  0  0  0  0  0  0
   -6.4975   -2.3415   -1.0598 C   0  0  0  0  0  0  0  0  0  0  0  0
   -6.8843   -2.2977   -2.3674 N   0  0  0  0  0  0  0  0  0  0  0  0
   -7.9424   -3.1197   -2.5062 C   0  0  0  0  0  0  0  0  0  0  0  0
   -8.2305   -3.6835   -1.3000 N   0  0  0  0  0  0  0  0  0  0  0  0
   -7.3472   -3.2189   -0.3774 C   0  0  0  0  0  0  0  0  0  0  0  0
   -4.1675   -3.6757    0.1374 N   0  0  0  0  0  0  0  0  0  0  0  0
   -3.9754   -4.9109   -0.5239 C   0  0  0  0  0  0  0  0  0  0  0  0
   -3.7028   -5.0043   -1.7561 O   0  0  0  0  0  0  0  0  0  0  0  0
   -4.1000   -6.1575    0.2759 C   0  0  0  0  0  0  0  0  0  0  0  0
   -2.2476    1.7210    1.1625 C   0  0  0  0  0  0  0  0  0  0  0  0
   -2.8349    2.6416    0.1563 C   0  0  0  0  0  0  0  0  0  0  0  0
   -4.1731    2.4786   -0.1616 C   0  0  0  0  0  0  0  0  0  0  0  0
   -4.8101    3.2930   -1.0997 C   0  0  0  0  0  0  0  0  0  0  0  0
   -4.0880    4.3015   -1.7398 C   0  0  0  0  0  0  0  0  0  0  0  0
   -2.7559    4.4609   -1.4204 C   0  0  0  0  0  0  0  0  0  0  0  0
   -2.1332    3.6388   -0.4802 C   0  0  0  0  0  0  0  0  0  0  0  0
   -4.8548    5.3494   -2.9329 Cl  0  0  0  0  0  0  0  0  0  0  0  0
    4.6789    6.2809    2.4702 N   0  0  0  0  0  0  0  0  0  0  0  0
    2.8700    7.8651    0.5061 H   0  0  0  0  0  0  0  0  0  0  0  0
    4.5631    8.0336   -0.1079 H   0  0  0  0  0  0  0  0  0  0  0  0
    2.5753    5.8069   -0.8603 H   0  0  0  0  0  0  0  0  0  0  0  0
    4.2591    5.6446   -1.5860 H   0  0  0  0  0  0  0  0  0  0  0  0
    2.8499    3.8839   -2.3893 H   0  0  0  0  0  0  0  0  0  0  0  0
    4.1044    3.2164   -1.2186 H   0  0  0  0  0  0  0  0  0  0  0  0
    2.4043    3.2699    0.6148 H   0  0  0  0  0  0  0  0  0  0  0  0
    1.2365    3.8758   -0.5573 H   0  0  0  0  0  0  0  0  0  0  0  0
    1.3541    1.8503   -1.9132 H   0  0  0  0  0  0  0  0  0  0  0  0
    1.7185   -0.5079    0.5557 H   0  0  0  0  0  0  0  0  0  0  0  0
    4.4326   -1.0564   -0.5460 H   0  0  0  0  0  0  0  0  0  0  0  0
    4.7459   -3.8009   -0.9343 H   0  0  0  0  0  0  0  0  0  0  0  0
    3.2361   -4.7885   -0.5447 H   0  0  0  0  0  0  0  0  0  0  0  0
    4.1391   -0.7209    2.0755 H   0  0  0  0  0  0  0  0  0  0  0  0
    2.9516   -2.0227    1.9865 H   0  0  0  0  0  0  0  0  0  0  0  0
    3.4732   -4.3348    2.0270 H   0  0  0  0  0  0  0  0  0  0  0  0
    5.1419   -6.0685    2.3555 H   0  0  0  0  0  0  0  0  0  0  0  0
    8.2497   -3.2487    1.8535 H   0  0  0  0  0  0  0  0  0  0  0  0
    6.6309   -1.4786    1.5122 H   0  0  0  0  0  0  0  0  0  0  0  0
    0.7242    1.5677    1.0549 H   0  0  0  0  0  0  0  0  0  0  0  0
   -1.3005   -0.1971    1.2769 H   0  0  0  0  0  0  0  0  0  0  0  0
   -3.2570    0.2207   -1.0244 H   0  0  0  0  0  0  0  0  0  0  0  0
   -3.8564   -2.5108   -1.5690 H   0  0  0  0  0  0  0  0  0  0  0  0
   -5.6274   -1.2531    0.5967 H   0  0  0  0  0  0  0  0  0  0  0  0
   -5.1705   -0.6613   -1.0226 H   0  0  0  0  0  0  0  0  0  0  0  0
   -6.4223   -1.7172   -3.1182 H   0  0  0  0  0  0  0  0  0  0  0  0
   -8.4514   -3.2745   -3.4555 H   0  0  0  0  0  0  0  0  0  0  0  0
   -7.2850   -3.4578    0.6776 H   0  0  0  0  0  0  0  0  0  0  0  0
   -4.3930   -3.6804    1.1765 H   0  0  0  0  0  0  0  0  0  0  0  0
   -5.0782   -6.2409    0.7919 H   0  0  0  0  0  0  0  0  0  0  0  0
   -3.3313   -6.0739    1.0936 H   0  0  0  0  0  0  0  0  0  0  0  0
   -3.8518   -7.0371   -0.3339 H   0  0  0  0  0  0  0  0  0  0  0  0
   -3.0398    1.4879    1.8987 H   0  0  0  0  0  0  0  0  0  0  0  0
   -1.4102    2.2444    1.6594 H   0  0  0  0  0  0  0  0  0  0  0  0
   -4.7313    1.6999    0.3342 H   0  0  0  0  0  0  0  0  0  0  0  0
   -5.8433    3.1881   -1.3605 H   0  0  0  0  0  0  0  0  0  0  0  0
   -2.1630    5.2337   -1.8985 H   0  0  0  0  0  0  0  0  0  0  0  0
   -1.0935    3.7502   -0.2153 H   0  0  0  0  0  0  0  0  0  0  0  0
    5.6290    5.9493    2.6856 H   0  0  0  0  0  0  0  0  0  0  0  0
    4.0695    6.6210    3.2417 H   0  0  0  0  0  0  0  0  0  0  0  0
  1  2  1  0
  2  3  2  3
  3  4  1  0
  4  5  1  0
  5  6  1  0
  6  7  1  0
  7  8  1  0
  8  9  2  0
  8 10  1  0
 10 11  1  0
 11 12  1  0
 12 13  2  0
 12 14  1  0
 11 15  1  0
 15 16  1  0
 16 17  2  0
 17 18  1  0
 18 19  2  0
 19 20  1  0
 20 21  2  0
 19 22  1  0
  7 23  1  0
 23 24  1  0
 24 25  2  0
 24 26  1  0
 26 27  1  0
 27 28  1  0
 28 29  2  0
 28 30  1  0
 30 31  1  0
 31 32  1  0
 32 33  1  0
 33 34  1  0
 34 35  2  0
 35 36  1  0
 30 37  1  0
 37 38  1  0
 38 39  2  0
 38 40  1  0
 26 41  1  0
 41 42  1  0
 42 43  2  0
 43 44  1  0
 44 45  2  0
 45 46  1  0
 46 47  2  0
 45 48  1  0
  2 49  1  0
 21 16  1  0
 36 32  2  0
 47 42  1  0
  1 50  1  0
  1 51  1  0
  4 52  1  0
  4 53  1  0
  5 54  1  0
  5 55  1  0
  6 56  1  0
  6 57  1  0
  7 58  1  6
 10 59  1  0
 11 60  1  6
 14 61  1  0
 14 62  1  0
 15 63  1  0
 15 64  1  0
 17 65  1  0
 18 66  1  0
 20 67  1  0
 21 68  1  0
 23 69  1  0
 26 70  1  1
 27 71  1  0
 30 72  1  6
 31 73  1  0
 31 74  1  0
 33 75  1  0
 34 76  1  0
 36 77  1  0
 37 78  1  0
 40 79  1  0
 40 80  1  0
 40 81  1  0
 41 82  1  0
 41 83  1  0
 43 84  1  0
 44 85  1  0
 46 86  1  0
 47 87  1  0
 49 88  1  0
 49 89  1  0
M  END
>  <Ligand ID>  (1) 
LIG0000883

>  <Ligand>  (1) 
CHEMBL3287327

>  <SMILES>  (1) 
NC(=NCCC[C@@H](C(=O)N[C@H](C(=O)N)Cc1ccc(cc1)I)NC(=O)[C@H](NC(=O)[C@H](Cc1[nH]cnc1)NC(=O)C)Cc1ccc(cc1)Cl)N

>  <CID>  (1) 
90643807.0

>  <ChEMBL ID>  (1) 
nan

>  <InChiKey>  (1) 
QZGVEZCPDSNBNU-NFGXINMFSA-N

>  <InChi>  (1) 
InChI=1S/C32H40ClIN10O5/c1-18(45)41-27(15-23-16-38-17-40-23)31(49)44-26(14-19-4-8-21(33)9-5-19)30(48)42-24(3-2-12-39-32(36)37)29(47)43-25(28(35)46)13-20-6-10-22(34)11-7-20/h4-11,16-17,24-27H,2-3,12-15H2,1H3,(H2,35,46)(H,38,40)(H,41,45)(H,42,48)(H,43,47)(H,44,49)(H4,36,37,39)/t24-,25-,26+,27-/m0/s1

>  <IUPAC Name>  (1) 
(2S)-2-[[(2R)-2-[[(2S)-2-acetamido-3-(1H-imidazol-5-yl)propanoyl]amino]-3-(4-chlorophenyl)propanoyl]amino]-N-[(2S)-1-amino-3-(4-iodophenyl)-1-oxopropan-2-yl]-5-(diaminomethylideneamino)pentanamide

$$$$
