
     RDKit          3D

202210  0  0  0  0  0  0  0  0999 V2000
   10.9561   -1.0861   -2.5198 N   0  0  0  0  0  0  0  0  0  0  0  0
    9.7646   -1.5458   -1.8551 C   0  0  0  0  0  0  0  0  0  0  0  0
    9.9111   -2.4546   -0.9587 N   0  0  0  0  0  0  0  0  0  0  0  0
    8.4764   -1.0030   -2.2053 N   0  0  0  0  0  0  0  0  0  0  0  0
    7.3339   -1.7595   -1.7223 C   0  0  0  0  0  0  0  0  0  0  0  0
    6.0834   -1.0925   -2.2319 C   0  0  0  0  0  0  0  0  0  0  0  0
    4.8399   -1.7831   -1.7969 C   0  0  0  0  0  0  0  0  0  0  0  0
    4.6806   -1.8584   -0.2652 C   0  0  2  0  0  0  0  0  0  0  0  0
    3.4056   -2.6087   -0.0813 N   0  0  0  0  0  0  0  0  0  0  0  0
    3.3742   -4.0177   -0.2307 C   0  0  0  0  0  0  0  0  0  0  0  0
    4.4808   -4.5027   -0.6082 O   0  0  0  0  0  0  0  0  0  0  0  0
    2.2682   -4.9307   -0.0184 C   0  0  1  0  0  0  0  0  0  0  0  0
    2.7764   -6.0570    0.8952 C   0  0  0  0  0  0  0  0  0  0  0  0
    3.2469   -5.5443    2.1993 C   0  0  0  0  0  0  0  0  0  0  0  0
    4.5446   -5.1923    2.4756 C   0  0  0  0  0  0  0  0  0  0  0  0
    4.8890   -4.6940    3.7339 C   0  0  0  0  0  0  0  0  0  0  0  0
    3.9394   -4.5545    4.6983 C   0  0  0  0  0  0  0  0  0  0  0  0
    2.6032   -4.9081    4.4469 C   0  0  0  0  0  0  0  0  0  0  0  0
    2.3261   -5.3881    3.2020 C   0  0  0  0  0  0  0  0  0  0  0  0
    1.0409   -4.3920    0.5294 N   0  0  0  0  0  0  0  0  0  0  0  0
   -0.2166   -4.4607   -0.1485 C   0  0  0  0  0  0  0  0  0  0  0  0
   -0.1301   -4.8744   -1.3257 O   0  0  0  0  0  0  0  0  0  0  0  0
   -1.5319   -4.0973    0.4116 C   0  0  0  0  0  0  0  0  0  0  0  0
   -2.4438   -5.2543    0.0107 C   0  0  0  0  0  0  0  0  0  0  0  0
   -1.7816   -6.5695    0.3672 C   0  0  0  0  0  0  0  0  0  0  0  0
   -1.6569   -6.6397    1.8414 C   0  0  0  0  0  0  0  0  0  0  0  0
   -1.5417   -5.4626    2.5324 C   0  0  0  0  0  0  0  0  0  0  0  0
   -1.5172   -4.1196    1.9574 C   0  0  0  0  0  0  0  0  0  0  0  0
   -1.4294   -5.5452    3.9272 C   0  0  0  0  0  0  0  0  0  0  0  0
   -1.4411   -6.7938    4.5311 C   0  0  0  0  0  0  0  0  0  0  0  0
   -1.5572   -7.9674    3.8208 C   0  0  0  0  0  0  0  0  0  0  0  0
   -1.6681   -7.8820    2.4382 C   0  0  0  0  0  0  0  0  0  0  0  0
   -2.0875   -2.8396   -0.0020 N   0  0  0  0  0  0  0  0  0  0  0  0
   -3.2787   -2.5914   -0.7202 C   0  0  0  0  0  0  0  0  0  0  0  0
   -3.9452   -3.5627   -1.0740 O   0  0  0  0  0  0  0  0  0  0  0  0
   -3.7359   -1.2320   -1.0446 C   0  0  1  0  0  0  0  0  0  0  0  0
   -4.8771   -1.1931   -1.9227 N   0  0  0  0  0  0  0  0  0  0  0  0
   -6.0957   -1.8756   -1.7477 C   0  0  0  0  0  0  0  0  0  0  0  0
   -6.3228   -2.6523   -0.7585 O   0  0  0  0  0  0  0  0  0  0  0  0
   -7.2432   -1.7528   -2.6985 C   0  0  2  0  0  0  0  0  0  0  0  0
   -7.6897   -3.0576   -3.2741 C   0  0  0  0  0  0  0  0  0  0  0  0
   -6.6766   -3.7771   -4.0773 C   0  0  0  0  0  0  0  0  0  0  0  0
   -6.6623   -3.4684   -5.4455 C   0  0  0  0  0  0  0  0  0  0  0  0
   -5.7816   -4.0715   -6.3204 C   0  0  0  0  0  0  0  0  0  0  0  0
   -4.8984   -5.0046   -5.8120 C   0  0  0  0  0  0  0  0  0  0  0  0
   -4.9280   -5.2949   -4.4610 C   0  0  0  0  0  0  0  0  0  0  0  0
   -5.7983   -4.7038   -3.5705 C   0  0  0  0  0  0  0  0  0  0  0  0
   -3.9847   -5.6516   -6.6474 O   0  0  0  0  0  0  0  0  0  0  0  0
   -6.9788   -0.8068   -3.7640 N   0  0  0  0  0  0  0  0  0  0  0  0
   -4.3055   -0.5649    0.2662 C   0  0  0  0  0  0  0  0  0  0  0  0
   -4.6157    0.7997   -0.1792 C   0  0  0  0  0  0  0  0  0  0  0  0
   -4.3869    1.1477   -1.2964 O   0  0  0  0  0  0  0  0  0  0  0  0
   -5.2235    1.8440    0.6310 N   0  0  0  0  0  0  0  0  0  0  0  0
   -5.6711    1.3209    1.8758 C   0  0  2  0  0  0  0  0  0  0  0  0
   -7.1033    0.9949    1.8928 C   0  0  0  0  0  0  0  0  0  0  0  0
   -7.8752    0.8548    2.8304 O   0  0  0  0  0  0  0  0  0  0  0  0
   -7.6997    0.7939    0.5661 N   0  0  0  0  0  0  0  0  0  0  0  0
   -5.0266    1.8044    3.0793 C   0  0  0  0  0  0  0  0  0  0  0  0
   -5.6380    1.1467    4.2441 C   0  0  0  0  0  0  0  0  0  0  0  0
   -6.6719    1.8479    4.8802 C   0  0  0  0  0  0  0  0  0  0  0  0
   -7.2859    1.2837    5.9698 C   0  0  0  0  0  0  0  0  0  0  0  0
   -6.9074    0.0686    6.4309 C   0  0  0  0  0  0  0  0  0  0  0  0
   -5.8870   -0.6736    5.8402 C   0  0  0  0  0  0  0  0  0  0  0  0
   -5.2869   -0.0747    4.7417 C   0  0  0  0  0  0  0  0  0  0  0  0
   -7.5265   -0.5174    7.5427 O   0  0  0  0  0  0  0  0  0  0  0  0
   -5.2290    3.2337    0.2406 C   0  0  0  0  0  0  0  0  0  0  0  0
   -5.7230    3.5005   -1.1662 C   0  0  0  0  0  0  0  0  0  0  0  0
   -4.0221    3.9389    0.5979 N   0  0  0  0  0  0  0  0  0  0  0  0
   -2.7764    3.9594   -0.0707 C   0  0  0  0  0  0  0  0  0  0  0  0
   -2.6582    3.3171   -1.0978 O   0  0  0  0  0  0  0  0  0  0  0  0
   -1.5927    4.7327    0.4224 C   0  0  1  0  0  0  0  0  0  0  0  0
   -0.4801    4.6881   -0.4841 N   0  0  0  0  0  0  0  0  0  0  0  0
   -0.5213    4.8286   -1.8972 C   0  0  0  0  0  0  0  0  0  0  0  0
   -1.6179    5.0571   -2.4137 O   0  0  0  0  0  0  0  0  0  0  0  0
    0.6554    4.7250   -2.7868 C   0  0  1  0  0  0  0  0  0  0  0  0
    1.8975    4.4395   -2.1069 N   0  0  0  0  0  0  0  0  0  0  0  0
    3.0992    5.2187   -2.3416 C   0  0  0  0  0  0  0  0  0  0  0  0
    2.9089    6.1641   -3.1296 O   0  0  0  0  0  0  0  0  0  0  0  0
    4.3878    4.9198   -1.7235 C   0  0  1  0  0  0  0  0  0  0  0  0
    4.2807    3.8945   -0.7125 N   0  0  0  0  0  0  0  0  0  0  0  0
    5.1255    2.8003   -0.4787 C   0  0  0  0  0  0  0  0  0  0  0  0
    6.0474    2.5803   -1.2438 O   0  0  0  0  0  0  0  0  0  0  0  0
    4.9172    1.8524    0.7009 C   0  0  1  0  0  0  0  0  0  0  0  0
    5.4392    0.5487    0.3348 N   0  0  0  0  0  0  0  0  0  0  0  0
    4.4823   -0.4934    0.2099 C   0  0  0  0  0  0  0  0  0  0  0  0
    3.3175   -0.1847    0.5636 O   0  0  0  0  0  0  0  0  0  0  0  0
    5.5750    2.3775    1.9178 C   0  0  0  0  0  0  0  0  0  0  0  0
    7.0170    2.6051    1.8757 C   0  0  0  0  0  0  0  0  0  0  0  0
    7.5577    3.8715    1.6174 C   0  0  0  0  0  0  0  0  0  0  0  0
    8.9070    3.7936    1.6075 N   0  0  0  0  0  0  0  0  0  0  0  0
    9.2569    2.5159    1.8518 C   0  0  0  0  0  0  0  0  0  0  0  0
    8.1080    1.7891    2.0155 C   0  0  0  0  0  0  0  0  0  0  0  0
    8.2166    0.4497    2.2907 C   0  0  0  0  0  0  0  0  0  0  0  0
    9.4847   -0.0999    2.3924 C   0  0  0  0  0  0  0  0  0  0  0  0
   10.6322    0.6213    2.2298 C   0  0  0  0  0  0  0  0  0  0  0  0
   10.5155    1.9766    1.9480 C   0  0  0  0  0  0  0  0  0  0  0  0
    5.3507    4.4220   -2.8449 C   0  0  0  0  0  0  0  0  0  0  0  0
    5.4743    5.4810   -3.8970 C   0  0  0  0  0  0  0  0  0  0  0  0
    4.6980    5.5041   -4.8897 O   0  0  0  0  0  0  0  0  0  0  0  0
    6.4846    6.4899   -3.7868 N   0  0  0  0  0  0  0  0  0  0  0  0
    0.3543    3.5988   -3.8051 C   0  0  0  0  0  0  0  0  0  0  0  0
   -1.9431    6.0881    0.8891 C   0  0  0  0  0  0  0  0  0  0  0  0
   -2.5273    7.0049   -0.0853 C   0  0  0  0  0  0  0  0  0  0  0  0
   -3.8587    7.1684   -0.3631 C   0  0  0  0  0  0  0  0  0  0  0  0
   -4.3255    8.0576   -1.3101 C   0  0  0  0  0  0  0  0  0  0  0  0
   -3.4638    8.8363   -2.0335 C   0  0  0  0  0  0  0  0  0  0  0  0
   -2.1105    8.6928   -1.7718 C   0  0  0  0  0  0  0  0  0  0  0  0
   -1.6478    7.8047   -0.8250 C   0  0  0  0  0  0  0  0  0  0  0  0
   -6.3090    3.9826    1.0581 C   0  0  0  0  0  0  0  0  0  0  0  0
   -7.5119    3.6904    0.9705 O   0  0  0  0  0  0  0  0  0  0  0  0
   -5.9625    5.0133    1.9156 O   0  0  0  0  0  0  0  0  0  0  0  0
   11.9044   -1.2934   -2.1298 H   0  0  0  0  0  0  0  0  0  0  0  0
   10.8879   -0.5399   -3.4059 H   0  0  0  0  0  0  0  0  0  0  0  0
   10.8610   -2.8069   -0.7609 H   0  0  0  0  0  0  0  0  0  0  0  0
    8.3938   -0.1300   -2.7622 H   0  0  0  0  0  0  0  0  0  0  0  0
    7.4005   -2.7894   -2.1407 H   0  0  0  0  0  0  0  0  0  0  0  0
    7.3363   -1.7527   -0.6187 H   0  0  0  0  0  0  0  0  0  0  0  0
    6.1287   -1.2410   -3.3608 H   0  0  0  0  0  0  0  0  0  0  0  0
    6.1023   -0.0038   -2.1163 H   0  0  0  0  0  0  0  0  0  0  0  0
    3.9703   -1.1790   -2.1580 H   0  0  0  0  0  0  0  0  0  0  0  0
    4.7375   -2.7899   -2.2271 H   0  0  0  0  0  0  0  0  0  0  0  0
    5.5386   -2.4268    0.0668 H   0  0  0  0  0  0  0  0  0  0  0  0
    2.5270   -2.1581    0.1508 H   0  0  0  0  0  0  0  0  0  0  0  0
    2.0700   -5.4238   -1.0146 H   0  0  0  0  0  0  0  0  0  0  0  0
    1.9424   -6.7695    1.1062 H   0  0  0  0  0  0  0  0  0  0  0  0
    3.5534   -6.5914    0.3312 H   0  0  0  0  0  0  0  0  0  0  0  0
    5.3376   -5.2860    1.7767 H   0  0  0  0  0  0  0  0  0  0  0  0
    5.9128   -4.4044    3.9770 H   0  0  0  0  0  0  0  0  0  0  0  0
    4.1346   -4.1706    5.6871 H   0  0  0  0  0  0  0  0  0  0  0  0
    1.8459   -4.7954    5.2144 H   0  0  0  0  0  0  0  0  0  0  0  0
    1.2937   -5.6736    3.0018 H   0  0  0  0  0  0  0  0  0  0  0  0
    1.0122   -3.9145    1.4295 H   0  0  0  0  0  0  0  0  0  0  0  0
   -2.5990   -5.2932   -1.0906 H   0  0  0  0  0  0  0  0  0  0  0  0
   -3.3801   -5.1648    0.5379 H   0  0  0  0  0  0  0  0  0  0  0  0
   -2.4229   -7.3725   -0.0589 H   0  0  0  0  0  0  0  0  0  0  0  0
   -0.7907   -6.7032   -0.1275 H   0  0  0  0  0  0  0  0  0  0  0  0
   -0.7028   -3.4988    2.3663 H   0  0  0  0  0  0  0  0  0  0  0  0
   -2.4773   -3.5940    2.2505 H   0  0  0  0  0  0  0  0  0  0  0  0
   -1.3318   -4.6473    4.5200 H   0  0  0  0  0  0  0  0  0  0  0  0
   -1.3559   -6.8890    5.6276 H   0  0  0  0  0  0  0  0  0  0  0  0
   -1.5634   -8.9381    4.3250 H   0  0  0  0  0  0  0  0  0  0  0  0
   -1.7576   -8.7786    1.8365 H   0  0  0  0  0  0  0  0  0  0  0  0
   -1.5581   -1.9866    0.2496 H   0  0  0  0  0  0  0  0  0  0  0  0
   -2.9853   -0.5229   -1.3652 H   0  0  0  0  0  0  0  0  0  0  0  0
   -4.8052   -0.5865   -2.7839 H   0  0  0  0  0  0  0  0  0  0  0  0
   -8.1036   -1.3208   -2.1059 H   0  0  0  0  0  0  0  0  0  0  0  0
   -8.0888   -3.7455   -2.4576 H   0  0  0  0  0  0  0  0  0  0  0  0
   -8.6109   -2.8866   -3.9009 H   0  0  0  0  0  0  0  0  0  0  0  0
   -7.3408   -2.7455   -5.8696 H   0  0  0  0  0  0  0  0  0  0  0  0
   -5.7936   -3.8007   -7.3771 H   0  0  0  0  0  0  0  0  0  0  0  0
   -4.2124   -6.0342   -4.1116 H   0  0  0  0  0  0  0  0  0  0  0  0
   -5.8287   -4.9220   -2.5150 H   0  0  0  0  0  0  0  0  0  0  0  0
   -4.3977   -6.2688   -7.3554 H   0  0  0  0  0  0  0  0  0  0  0  0
   -7.1096    0.1516   -3.4013 H   0  0  0  0  0  0  0  0  0  0  0  0
   -6.1167   -0.9703   -4.2879 H   0  0  0  0  0  0  0  0  0  0  0  0
   -3.5734   -0.6587    1.0666 H   0  0  0  0  0  0  0  0  0  0  0  0
   -5.2197   -1.1185    0.4772 H   0  0  0  0  0  0  0  0  0  0  0  0
   -5.2487    0.2064    1.8001 H   0  0  0  0  0  0  0  0  0  0  0  0
   -8.7204    0.9198    0.4276 H   0  0  0  0  0  0  0  0  0  0  0  0
   -7.1244    0.5296   -0.2452 H   0  0  0  0  0  0  0  0  0  0  0  0
   -3.9384    1.4768    3.1344 H   0  0  0  0  0  0  0  0  0  0  0  0
   -5.0588    2.9109    3.2845 H   0  0  0  0  0  0  0  0  0  0  0  0
   -6.9813    2.8379    4.5042 H   0  0  0  0  0  0  0  0  0  0  0  0
   -8.0830    1.8769    6.4296 H   0  0  0  0  0  0  0  0  0  0  0  0
   -5.5852   -1.6368    6.2147 H   0  0  0  0  0  0  0  0  0  0  0  0
   -4.4818   -0.6202    4.2547 H   0  0  0  0  0  0  0  0  0  0  0  0
   -6.9540   -0.9906    8.2428 H   0  0  0  0  0  0  0  0  0  0  0  0
   -6.1306    4.5178   -1.2431 H   0  0  0  0  0  0  0  0  0  0  0  0
   -4.9131    3.3163   -1.9167 H   0  0  0  0  0  0  0  0  0  0  0  0
   -6.5126    2.7539   -1.3861 H   0  0  0  0  0  0  0  0  0  0  0  0
   -4.0221    4.5247    1.4600 H   0  0  0  0  0  0  0  0  0  0  0  0
   -1.2595    4.1028    1.3198 H   0  0  0  0  0  0  0  0  0  0  0  0
    0.4728    4.5393   -0.1142 H   0  0  0  0  0  0  0  0  0  0  0  0
    0.7311    5.6235   -3.4349 H   0  0  0  0  0  0  0  0  0  0  0  0
    2.0184    3.6874   -1.4327 H   0  0  0  0  0  0  0  0  0  0  0  0
    4.9193    5.7795   -1.3315 H   0  0  0  0  0  0  0  0  0  0  0  0
    3.4700    3.9635   -0.0644 H   0  0  0  0  0  0  0  0  0  0  0  0
    3.8273    1.8775    0.8538 H   0  0  0  0  0  0  0  0  0  0  0  0
    6.3997    0.3037    0.1633 H   0  0  0  0  0  0  0  0  0  0  0  0
    5.0352    3.3022    2.3022 H   0  0  0  0  0  0  0  0  0  0  0  0
    5.3587    1.6282    2.7405 H   0  0  0  0  0  0  0  0  0  0  0  0
    7.0141    4.7942    1.4452 H   0  0  0  0  0  0  0  0  0  0  0  0
    9.5323    4.6143    1.4403 H   0  0  0  0  0  0  0  0  0  0  0  0
    7.3064   -0.1062    2.4144 H   0  0  0  0  0  0  0  0  0  0  0  0
    9.5401   -1.1771    2.6188 H   0  0  0  0  0  0  0  0  0  0  0  0
   11.6127    0.1607    2.3084 H   0  0  0  0  0  0  0  0  0  0  0  0
   11.4059    2.5765    1.8137 H   0  0  0  0  0  0  0  0  0  0  0  0
    6.3486    4.3795   -2.3807 H   0  0  0  0  0  0  0  0  0  0  0  0
    5.0202    3.4652   -3.1918 H   0  0  0  0  0  0  0  0  0  0  0  0
    6.5329    7.2693   -4.4721 H   0  0  0  0  0  0  0  0  0  0  0  0
    7.1764    6.4346   -3.0088 H   0  0  0  0  0  0  0  0  0  0  0  0
    1.1725    3.5873   -4.5528 H   0  0  0  0  0  0  0  0  0  0  0  0
   -0.5519    3.9837   -4.3489 H   0  0  0  0  0  0  0  0  0  0  0  0
    0.1837    2.6495   -3.3037 H   0  0  0  0  0  0  0  0  0  0  0  0
   -2.6458    5.9758    1.7670 H   0  0  0  0  0  0  0  0  0  0  0  0
   -1.0324    6.5639    1.3780 H   0  0  0  0  0  0  0  0  0  0  0  0
   -4.5864    6.5899    0.1752 H   0  0  0  0  0  0  0  0  0  0  0  0
   -5.3923    8.1436   -1.4814 H   0  0  0  0  0  0  0  0  0  0  0  0
   -3.8048    9.5365   -2.7815 H   0  0  0  0  0  0  0  0  0  0  0  0
   -1.3544    9.2727   -2.2999 H   0  0  0  0  0  0  0  0  0  0  0  0
   -0.5824    7.7201   -0.6525 H   0  0  0  0  0  0  0  0  0  0  0  0
   -6.7193    5.6132    2.2444 H   0  0  0  0  0  0  0  0  0  0  0  0
  1  2  1  0
  2  3  2  3
  2  4  1  0
  4  5  1  0
  5  6  1  0
  6  7  1  0
  7  8  1  0
  8  9  1  0
  9 10  1  0
 10 11  2  0
 10 12  1  0
 12 13  1  0
 13 14  1  0
 14 15  2  0
 15 16  1  0
 16 17  2  0
 17 18  1  0
 18 19  2  0
 12 20  1  0
 20 21  1  0
 21 22  2  0
 21 23  1  0
 23 24  1  0
 24 25  1  0
 25 26  1  0
 26 27  2  0
 27 28  1  0
 27 29  1  0
 29 30  2  0
 30 31  1  0
 31 32  2  0
 23 33  1  0
 33 34  1  0
 34 35  2  0
 34 36  1  0
 36 37  1  0
 37 38  1  0
 38 39  2  0
 38 40  1  0
 40 41  1  0
 41 42  1  0
 42 43  2  0
 43 44  1  0
 44 45  2  0
 45 46  1  0
 46 47  2  0
 45 48  1  0
 40 49  1  0
 36 50  1  0
 50 51  1  0
 51 52  2  0
 51 53  1  0
 53 54  1  0
 54 55  1  0
 55 56  2  0
 55 57  1  0
 54 58  1  0
 58 59  1  0
 59 60  2  0
 60 61  1  0
 61 62  2  0
 62 63  1  0
 63 64  2  0
 62 65  1  0
 53 66  1  0
 66 67  1  0
 66 68  1  0
 68 69  1  0
 69 70  2  0
 69 71  1  0
 71 72  1  0
 72 73  1  0
 73 74  2  0
 73 75  1  0
 75 76  1  0
 76 77  1  0
 77 78  2  0
 77 79  1  0
 79 80  1  0
 80 81  1  0
 81 82  2  0
 81 83  1  0
 83 84  1  0
 84 85  1  0
 85 86  2  0
 83 87  1  0
 87 88  1  0
 88 89  2  0
 89 90  1  0
 90 91  1  0
 91 92  2  0
 92 93  1  0
 93 94  2  0
 94 95  1  0
 95 96  2  0
 79 97  1  0
 97 98  1  0
 98 99  2  0
 98100  1  0
 75101  1  0
 71102  1  0
102103  1  0
103104  2  0
104105  1  0
105106  2  0
106107  1  0
107108  2  0
 66109  1  0
109110  2  0
109111  1  0
 85  8  1  0
 92 88  1  0
108103  1  0
 19 14  1  0
 28 23  1  0
 47 42  1  0
 64 59  1  0
 96 91  1  0
 32 26  1  0
  1112  1  0
  1113  1  0
  3114  1  0
  4115  1  0
  5116  1  0
  5117  1  0
  6118  1  0
  6119  1  0
  7120  1  0
  7121  1  0
  8122  1  1
  9123  1  0
 12124  1  6
 13125  1  0
 13126  1  0
 15127  1  0
 16128  1  0
 17129  1  0
 18130  1  0
 19131  1  0
 20132  1  0
 24133  1  0
 24134  1  0
 25135  1  0
 25136  1  0
 28137  1  0
 28138  1  0
 29139  1  0
 30140  1  0
 31141  1  0
 32142  1  0
 33143  1  0
 36144  1  6
 37145  1  0
 40146  1  1
 41147  1  0
 41148  1  0
 43149  1  0
 44150  1  0
 46151  1  0
 47152  1  0
 48153  1  0
 49154  1  0
 49155  1  0
 50156  1  0
 50157  1  0
 54158  1  6
 57159  1  0
 57160  1  0
 58161  1  0
 58162  1  0
 60163  1  0
 61164  1  0
 63165  1  0
 64166  1  0
 65167  1  0
 67168  1  0
 67169  1  0
 67170  1  0
 68171  1  0
 71172  1  1
 72173  1  0
 75174  1  6
 76175  1  0
 79176  1  1
 80177  1  0
 83178  1  1
 84179  1  0
 87180  1  0
 87181  1  0
 89182  1  0
 90183  1  0
 93184  1  0
 94185  1  0
 95186  1  0
 96187  1  0
 97188  1  0
 97189  1  0
100190  1  0
100191  1  0
101192  1  0
101193  1  0
101194  1  0
102195  1  0
102196  1  0
104197  1  0
105198  1  0
106199  1  0
107200  1  0
108201  1  0
111202  1  0
M  END
>  <Ligand ID>  (1) 
LIG0002290

>  <Ligand>  (1) 
CHEMBL2096715

>  <SMILES>  (1) 
NC(=N)NCCC[C@@H]1NC(=O)[C@@H](Cc2ccccc2)NC(=O)C2(CCc3c(C2)cccc3)NC(=O)[C@@H](NC(=O)[C@H](Cc2ccc(cc2)O)N)CC(=O)N([C@H](C(=O)N)Cc2ccc(cc2)O)C(C)(NC(=O)[C@@H](NC(=O)[C@@H](NC(=O)[C@@H](NC(=O)[C@@H](NC1=O)Cc1c[nH]c2c1cccc2)CC(=O)N)C)Cc1ccccc1)C(=O)O

>  <CID>  (1) 
91900708.0

>  <ChEMBL ID>  (1) 
nan

>  <InChiKey>  (1) 
VDJFVHLGBIRCKY-RXMXWGMASA-N

>  <InChi>  (1) 
InChI=1S/C78H91N17O16/c1-43-66(101)88-58(36-45-16-7-4-8-17-45)72(107)93-77(2,75(110)111)95(62(65(81)100)37-47-25-29-52(97)30-26-47)64(99)40-61(89-67(102)54(79)34-46-23-27-51(96)28-24-46)73(108)94-78(32-31-48-18-9-10-19-49(48)41-78)74(109)92-57(35-44-14-5-3-6-15-44)70(105)87-56(22-13-33-84-76(82)83)68(103)90-59(38-50-42-85-55-21-12-11-20-53(50)55)71(106)91-60(39-63(80)98)69(104)86-43/h3-12,14-21,23-30,42-43,54,56-62,85,96-97H,13,22,31-41,79H2,1-2H3,(H2,80,98)(H2,81,100)(H,86,104)(H,87,105)(H,88,101)(H,89,102)(H,90,103)(H,91,106)(H,92,109)(H,93,107)(H,94,108)(H,110,111)(H4,82,83,84)/t43-,54-,56-,57+,58-,59-,60-,61-,62-,77?,78?/m0/s1

>  <IUPAC Name>  (1) 
(5S,8S,11S,14S,17S,20R,26S)-1-[(2S)-1-amino-3-(4-hydroxyphenyl)-1-oxopropan-2-yl]-26-[[(2S)-2-amino-3-(4-hydroxyphenyl)propanoyl]amino]-11-(2-amino-2-oxoethyl)-5,20-dibenzyl-17-(3-carbamimidamidopropyl)-14-(1H-indol-3-ylmethyl)-2,8-dimethyl-4,7,10,13,16,19,22,25,28-nonaoxospiro[1,3,6,9,12,15,18,21,24-nonazacyclooctacosane-23,3'-2,4-dihydro-1H-naphthalene]-2-carboxylic acid

$$$$
