
     RDKit          3D

 28 29  0  0  0  0  0  0  0  0999 V2000
    0.3431    3.2998   -0.9515 O   0  0  0  0  0  0  0  0  0  0  0  0
    0.0909    2.1026   -0.7068 C   0  0  0  0  0  0  0  0  0  0  0  0
   -1.2624    1.5859   -0.6720 N   0  0  0  0  0  0  0  0  0  0  0  0
   -1.4955    0.5481    0.2996 C   0  0  1  0  0  0  0  0  0  0  0  0
   -2.8167   -0.1233    0.2584 C   0  0  0  0  0  0  0  0  0  0  0  0
   -2.5497   -1.4232    0.8567 N   0  0  0  0  0  0  0  0  0  0  0  0
   -1.1060   -1.6619    0.7547 C   0  0  0  0  0  0  0  0  0  0  0  0
   -0.6471   -0.6333   -0.2062 C   0  0  2  0  0  0  0  0  0  0  0  0
    0.7408   -0.2160   -0.1723 C   0  0  0  0  0  0  0  0  0  0  0  0
    1.1467    1.1021   -0.4309 C   0  0  0  0  0  0  0  0  0  0  0  0
    2.4659    1.4789   -0.4153 C   0  0  0  0  0  0  0  0  0  0  0  0
    3.4195    0.5221   -0.1340 C   0  0  0  0  0  0  0  0  0  0  0  0
    3.0413   -0.7728    0.1223 C   0  0  0  0  0  0  0  0  0  0  0  0
    1.7125   -1.1758    0.1114 C   0  0  0  0  0  0  0  0  0  0  0  0
    0.6834    0.0000    0.0000 Cl  0  0  0  0  0  0  0  0  0  0  0  0
   -1.9513    1.9817   -1.3211 H   0  0  0  0  0  0  0  0  0  0  0  0
   -1.1903    0.8194    1.3350 H   0  0  0  0  0  0  0  0  0  0  0  0
   -3.0445   -0.3466   -0.8211 H   0  0  0  0  0  0  0  0  0  0  0  0
   -3.6387    0.4181    0.7609 H   0  0  0  0  0  0  0  0  0  0  0  0
   -3.0798   -2.1860    0.3705 H   0  0  0  0  0  0  0  0  0  0  0  0
   -0.8900   -2.7106    0.4914 H   0  0  0  0  0  0  0  0  0  0  0  0
   -0.7186   -1.4066    1.7815 H   0  0  0  0  0  0  0  0  0  0  0  0
   -1.0367   -0.8472   -1.2214 H   0  0  0  0  0  0  0  0  0  0  0  0
    2.7417    2.5149   -0.6224 H   0  0  0  0  0  0  0  0  0  0  0  0
    4.4631    0.8113   -0.1198 H   0  0  0  0  0  0  0  0  0  0  0  0
    3.8382   -1.4793    0.3372 H   0  0  0  0  0  0  0  0  0  0  0  0
    1.4235   -2.2023    0.3154 H   0  0  0  0  0  0  0  0  0  0  0  0
   -0.6834    0.0000    0.0000 H   0  0  0  0  0  0  0  0  0  0  0  0
  1  2  2  0
  2  3  1  0
  3  4  1  0
  4  5  1  0
  5  6  1  0
  6  7  1  0
  7  8  1  0
  8  9  1  0
  9 10  2  0
 10 11  1  0
 11 12  2  0
 12 13  1  0
 13 14  2  0
 10  2  1  0
  8  4  1  0
 14  9  1  0
  3 16  1  0
  4 17  1  1
  5 18  1  0
  5 19  1  0
  6 20  1  0
  7 21  1  0
  7 22  1  0
  8 23  1  6
 11 24  1  0
 12 25  1  0
 13 26  1  0
 14 27  1  0
 15 28  1  0
M  END
>  <Ligand ID>  (1) 
LIG0002446

>  <Ligand>  (1) 
CHEMBL2337495

>  <SMILES>  (1) 
O=C1N[C@H]2CNC[C@@H]2c2c1cccc2.Cl

>  <CID>  (1) 
11492299.0

>  <ChEMBL ID>  (1) 
nan

>  <InChiKey>  (1) 
QEYATYWUPMRWQP-UXQCFNEQSA-N

>  <InChi>  (1) 
InChI=1S/C11H12N2O.ClH/c14-11-8-4-2-1-3-7(8)9-5-12-6-10(9)13-11;/h1-4,9-10,12H,5-6H2,(H,13,14);1H/t9-,10+;/m1./s1

>  <IUPAC Name>  (1) 
(3aR,9bS)-1,2,3,3a,4,9b-hexahydropyrrolo[3,4-c]isoquinolin-5-one;hydrochloride

$$$$
