
     RDKit          3D

 46 48  0  0  0  0  0  0  0  0999 V2000
    7.8768    0.4651    0.9530 O   0  0  0  0  0  0  0  0  0  0  0  0
    6.5829    0.6293    1.4544 C   0  0  0  0  0  0  0  0  0  0  0  0
    6.4085    1.5328    2.2972 O   0  0  0  0  0  0  0  0  0  0  0  0
    5.4589   -0.2578    0.9840 C   0  0  0  0  0  0  0  0  0  0  0  0
    5.8986   -1.2457   -0.0061 C   0  0  0  0  0  0  0  0  0  0  0  0
    4.8736   -2.2097   -0.4827 C   0  0  0  0  0  0  0  0  0  0  0  0
    3.7788   -1.7505   -1.0684 O   0  0  0  0  0  0  0  0  0  0  0  0
    2.6612   -1.0693   -0.9174 C   0  0  0  0  0  0  0  0  0  0  0  0
    2.1238   -0.4856    0.2055 C   0  0  0  0  0  0  0  0  0  0  0  0
    0.9429    0.2094    0.2486 C   0  0  0  0  0  0  0  0  0  0  0  0
    0.2269    0.3431   -0.9088 C   0  0  0  0  0  0  0  0  0  0  0  0
    0.6910   -0.2095   -2.0751 C   0  0  0  0  0  0  0  0  0  0  0  0
    1.8705   -0.8958   -2.0873 C   0  0  0  0  0  0  0  0  0  0  0  0
   -1.0257    1.0828   -0.8487 C   0  0  0  0  0  0  0  0  0  0  0  0
   -1.9284    0.8409    0.1907 C   0  0  0  0  0  0  0  0  0  0  0  0
   -3.1256    1.5123    0.2929 C   0  0  0  0  0  0  0  0  0  0  0  0
   -3.4630    2.4666   -0.6626 C   0  0  0  0  0  0  0  0  0  0  0  0
   -2.5813    2.7149   -1.6934 C   0  0  0  0  0  0  0  0  0  0  0  0
   -1.3934    2.0344   -1.7763 C   0  0  0  0  0  0  0  0  0  0  0  0
   -0.3268    2.3980   -3.1031 Cl  0  0  0  0  0  0  0  0  0  0  0  0
   -4.0456    1.3041    1.3031 O   0  0  0  0  0  0  0  0  0  0  0  0
   -5.0464    0.3558    1.1694 C   0  0  0  0  0  0  0  0  0  0  0  0
   -4.9084   -0.9486    1.5575 C   0  0  0  0  0  0  0  0  0  0  0  0
   -5.9734   -1.8189    1.3795 C   0  0  0  0  0  0  0  0  0  0  0  0
   -7.1715   -1.4278    0.8263 C   0  0  0  0  0  0  0  0  0  0  0  0
   -7.2955   -0.1113    0.4405 C   0  0  0  0  0  0  0  0  0  0  0  0
   -6.2424    0.7761    0.6095 C   0  0  0  0  0  0  0  0  0  0  0  0
   -8.4537    0.3306   -0.1107 F   0  0  0  0  0  0  0  0  0  0  0  0
    8.4735    1.2625    0.7592 H   0  0  0  0  0  0  0  0  0  0  0  0
    4.7021    0.4191    0.4677 H   0  0  0  0  0  0  0  0  0  0  0  0
    4.9634   -0.6754    1.8695 H   0  0  0  0  0  0  0  0  0  0  0  0
    6.7728   -1.8140    0.4254 H   0  0  0  0  0  0  0  0  0  0  0  0
    6.2510   -0.6874   -0.9232 H   0  0  0  0  0  0  0  0  0  0  0  0
    5.4472   -2.9754   -1.1494 H   0  0  0  0  0  0  0  0  0  0  0  0
    4.6133   -2.9152    0.4140 H   0  0  0  0  0  0  0  0  0  0  0  0
    2.6609   -0.5896    1.1347 H   0  0  0  0  0  0  0  0  0  0  0  0
    0.5932    0.6422    1.1950 H   0  0  0  0  0  0  0  0  0  0  0  0
    0.1216   -0.1081   -3.0123 H   0  0  0  0  0  0  0  0  0  0  0  0
    2.1954   -1.3133   -3.0301 H   0  0  0  0  0  0  0  0  0  0  0  0
   -1.6841    0.0999    0.9470 H   0  0  0  0  0  0  0  0  0  0  0  0
   -4.3989    3.0179   -0.6169 H   0  0  0  0  0  0  0  0  0  0  0  0
   -2.8683    3.4686   -2.4316 H   0  0  0  0  0  0  0  0  0  0  0  0
   -3.9849   -1.2758    1.9904 H   0  0  0  0  0  0  0  0  0  0  0  0
   -5.8867   -2.8540    1.6788 H   0  0  0  0  0  0  0  0  0  0  0  0
   -8.0088   -2.0833    0.6790 H   0  0  0  0  0  0  0  0  0  0  0  0
   -6.3758    1.8156    0.2915 H   0  0  0  0  0  0  0  0  0  0  0  0
  1  2  1  0
  2  3  2  0
  2  4  1  0
  4  5  1  0
  5  6  1  0
  6  7  1  0
  7  8  1  0
  8  9  2  0
  9 10  1  0
 10 11  2  0
 11 12  1  0
 12 13  2  0
 11 14  1  0
 14 15  2  0
 15 16  1  0
 16 17  2  0
 17 18  1  0
 18 19  2  0
 19 20  1  0
 16 21  1  0
 21 22  1  0
 22 23  2  0
 23 24  1  0
 24 25  2  0
 25 26  1  0
 26 27  2  0
 26 28  1  0
 13  8  1  0
 19 14  1  0
 27 22  1  0
  1 29  1  0
  4 30  1  0
  4 31  1  0
  5 32  1  0
  5 33  1  0
  6 34  1  0
  6 35  1  0
  9 36  1  0
 10 37  1  0
 12 38  1  0
 13 39  1  0
 15 40  1  0
 17 41  1  0
 18 42  1  0
 23 43  1  0
 24 44  1  0
 25 45  1  0
 27 46  1  0
M  END
>  <Ligand ID>  (1) 
LIG0002508

>  <Ligand>  (1) 
CHEMBL3961950

>  <SMILES>  (1) 
OC(=O)CCCOc1ccc(cc1)c1cc(ccc1Cl)Oc1cccc(c1)F

>  <CID>  (1) 
134156096.0

>  <ChEMBL ID>  (1) 
nan

>  <InChiKey>  (1) 
LBCCCTCTGHMKOO-UHFFFAOYSA-N

>  <InChi>  (1) 
InChI=1S/C22H18ClFO4/c23-21-11-10-19(28-18-4-1-3-16(24)13-18)14-20(21)15-6-8-17(9-7-15)27-12-2-5-22(25)26/h1,3-4,6-11,13-14H,2,5,12H2,(H,25,26)

>  <IUPAC Name>  (1) 
4-[4-[2-chloro-5-(3-fluorophenoxy)phenyl]phenoxy]butanoic acid

$$$$
