
     RDKit          3D

 54 57  0  0  0  0  0  0  0  0999 V2000
    1.4435    0.7502   -2.7349 O   0  0  0  0  0  0  0  0  0  0  0  0
    0.8990    0.4207   -1.6336 C   0  0  0  0  0  0  0  0  0  0  0  0
   -0.3319   -0.3371   -1.5993 C   0  0  0  0  0  0  0  0  0  0  0  0
   -0.8838   -0.7003   -2.8287 C   0  0  0  0  0  0  0  0  0  0  0  0
   -2.0349   -1.4158   -2.8656 N   0  0  0  0  0  0  0  0  0  0  0  0
   -2.6312   -1.7667   -1.7039 C   0  0  0  0  0  0  0  0  0  0  0  0
   -2.0902   -1.4100   -0.4671 C   0  0  0  0  0  0  0  0  0  0  0  0
   -0.9494   -0.7009   -0.4364 N   0  0  0  0  0  0  0  0  0  0  0  0
   -2.7906   -1.8274    0.6413 O   0  0  0  0  0  0  0  0  0  0  0  0
   -2.3610   -1.5354    1.9383 C   0  0  0  0  0  0  0  0  0  0  0  0
   -2.3031   -0.0520    2.1480 C   0  0  0  0  0  0  0  0  0  0  0  0
   -1.8449    0.3569    3.5583 C   0  0  0  0  0  0  0  0  0  0  0  0
   -0.9202    0.5724    2.4176 C   0  0  0  0  0  0  0  0  0  0  0  0
   -3.8357   -2.5156   -1.7783 N   0  0  0  0  0  0  0  0  0  0  0  0
   -4.1461   -3.8520   -1.2499 C   0  0  0  0  0  0  0  0  0  0  0  0
   -5.5115   -3.7975   -1.8507 C   0  0  0  0  0  0  0  0  0  0  0  0
   -5.1675   -2.4073   -2.3088 C   0  0  0  0  0  0  0  0  0  0  0  0
   -5.6493   -4.7161   -2.8868 F   0  0  0  0  0  0  0  0  0  0  0  0
   -6.4934   -3.8741   -0.8868 F   0  0  0  0  0  0  0  0  0  0  0  0
    1.5885    0.8514   -0.4505 N   0  0  0  0  0  0  0  0  0  0  0  0
    2.8103    1.5989   -0.6607 C   0  0  1  0  0  0  0  0  0  0  0  0
    3.4137    2.1018    0.5896 C   0  0  0  0  0  0  0  0  0  0  0  0
    4.7199    2.5402    0.6461 C   0  0  0  0  0  0  0  0  0  0  0  0
    5.3007    3.0174    1.8168 C   0  0  0  0  0  0  0  0  0  0  0  0
    4.5910    3.0752    2.9863 C   0  0  0  0  0  0  0  0  0  0  0  0
    3.2834    2.6435    2.9567 C   0  0  0  0  0  0  0  0  0  0  0  0
    2.7064    2.1695    1.7942 C   0  0  0  0  0  0  0  0  0  0  0  0
    3.7227    0.6578   -1.3670 C   0  0  0  0  0  0  0  0  0  0  0  0
    4.8685    0.9748   -1.7763 O   0  0  0  0  0  0  0  0  0  0  0  0
    3.3476   -0.7125   -1.6350 N   0  0  0  0  0  0  0  0  0  0  0  0
    2.4306    2.7573   -1.5860 C   0  0  0  0  0  0  0  0  0  0  0  0
   -0.4076   -0.4202   -3.7634 H   0  0  0  0  0  0  0  0  0  0  0  0
   -1.3599   -2.0153    2.1222 H   0  0  0  0  0  0  0  0  0  0  0  0
   -3.0535   -2.0366    2.6679 H   0  0  0  0  0  0  0  0  0  0  0  0
   -2.9921    0.6177    1.6320 H   0  0  0  0  0  0  0  0  0  0  0  0
   -2.3820    1.2121    4.0220 H   0  0  0  0  0  0  0  0  0  0  0  0
   -1.6010   -0.4666    4.2819 H   0  0  0  0  0  0  0  0  0  0  0  0
   -0.7534    1.5996    2.0849 H   0  0  0  0  0  0  0  0  0  0  0  0
   -0.0504   -0.1373    2.3685 H   0  0  0  0  0  0  0  0  0  0  0  0
   -4.0923   -3.9348   -0.1535 H   0  0  0  0  0  0  0  0  0  0  0  0
   -3.4628   -4.5931   -1.7213 H   0  0  0  0  0  0  0  0  0  0  0  0
   -5.8142   -1.6458   -1.8278 H   0  0  0  0  0  0  0  0  0  0  0  0
   -5.1354   -2.3226   -3.4137 H   0  0  0  0  0  0  0  0  0  0  0  0
    1.1720    0.5957    0.4421 H   0  0  0  0  0  0  0  0  0  0  0  0
    5.3777    2.5469   -0.2193 H   0  0  0  0  0  0  0  0  0  0  0  0
    6.3483    3.3587    1.8193 H   0  0  0  0  0  0  0  0  0  0  0  0
    5.0885    3.4531    3.8639 H   0  0  0  0  0  0  0  0  0  0  0  0
    2.7134    2.6855    3.8781 H   0  0  0  0  0  0  0  0  0  0  0  0
    1.6755    1.8590    1.8709 H   0  0  0  0  0  0  0  0  0  0  0  0
    2.7991   -1.2126   -0.9030 H   0  0  0  0  0  0  0  0  0  0  0  0
    3.6164   -1.1865   -2.5312 H   0  0  0  0  0  0  0  0  0  0  0  0
    2.8835    2.5844   -2.5613 H   0  0  0  0  0  0  0  0  0  0  0  0
    1.3342    2.9118   -1.5903 H   0  0  0  0  0  0  0  0  0  0  0  0
    2.9151    3.6793   -1.1560 H   0  0  0  0  0  0  0  0  0  0  0  0
  1  2  2  0
  2  3  1  0
  3  4  2  0
  4  5  1  0
  5  6  2  0
  6  7  1  0
  7  8  2  0
  7  9  1  0
  9 10  1  0
 10 11  1  0
 11 12  1  0
 12 13  1  0
  6 14  1  0
 14 15  1  0
 15 16  1  0
 16 17  1  0
 16 18  1  0
 16 19  1  0
  2 20  1  0
 21 20  1  1
 21 22  1  0
 22 23  2  0
 23 24  1  0
 24 25  2  0
 25 26  1  0
 26 27  2  0
 21 28  1  0
 28 29  2  0
 28 30  1  0
 21 31  1  0
  8  3  1  0
 13 11  1  0
 17 14  1  0
 27 22  1  0
  4 32  1  0
 10 33  1  0
 10 34  1  0
 11 35  1  0
 12 36  1  0
 12 37  1  0
 13 38  1  0
 13 39  1  0
 15 40  1  0
 15 41  1  0
 17 42  1  0
 17 43  1  0
 20 44  1  0
 23 45  1  0
 24 46  1  0
 25 47  1  0
 26 48  1  0
 27 49  1  0
 30 50  1  0
 30 51  1  0
 31 52  1  0
 31 53  1  0
 31 54  1  0
M  END
>  <Ligand ID>  (1) 
LIG0005087

>  <Ligand>  (1) 
CHEMBL3946983

>  <SMILES>  (1) 
O=C(c1cnc(c(n1)OCC1CC1)N1CC(C1)(F)F)N[C@@](c1ccccc1)(C(=O)N)C

>  <CID>  (1) 
71526130.0

>  <ChEMBL ID>  (1) 
nan

>  <InChiKey>  (1) 
NYZBPJULWFAINQ-FQEVSTJZSA-N

>  <InChi>  (1) 
InChI=1S/C21H23F2N5O3/c1-20(19(24)30,14-5-3-2-4-6-14)27-17(29)15-9-25-16(28-11-21(22,23)12-28)18(26-15)31-10-13-7-8-13/h2-6,9,13H,7-8,10-12H2,1H3,(H2,24,30)(H,27,29)/t20-/m0/s1

>  <IUPAC Name>  (1) 
N-[(2S)-1-amino-1-oxo-2-phenylpropan-2-yl]-6-(cyclopropylmethoxy)-5-(3,3-difluoroazetidin-1-yl)pyrazine-2-carboxamide

$$$$
