
     RDKit          3D

189196  0  0  0  0  0  0  0  0999 V2000
    6.5700   -6.3361   -6.1317 N   0  0  0  0  0  0  0  0  0  0  0  0
    6.7823   -5.0768   -5.4820 C   0  0  0  0  0  0  0  0  0  0  0  0
    6.7194   -3.9492   -6.1051 N   0  0  0  0  0  0  0  0  0  0  0  0
    7.0717   -5.0958   -4.1060 N   0  0  0  0  0  0  0  0  0  0  0  0
    7.2468   -3.8568   -3.3138 C   0  0  0  0  0  0  0  0  0  0  0  0
    5.8615   -3.2001   -3.2558 C   0  0  0  0  0  0  0  0  0  0  0  0
    5.8798   -1.9131   -2.5298 C   0  0  0  0  0  0  0  0  0  0  0  0
    6.2046   -2.0416   -1.0777 C   0  0  2  0  0  0  0  0  0  0  0  0
    5.3048   -2.7383   -0.2451 N   0  0  0  0  0  0  0  0  0  0  0  0
    3.9532   -3.1924   -0.4958 C   0  0  0  0  0  0  0  0  0  0  0  0
    3.4571   -2.7492   -1.5315 O   0  0  0  0  0  0  0  0  0  0  0  0
    3.3865   -4.0827    0.4904 C   0  0  2  0  0  0  0  0  0  0  0  0
    3.9573   -5.5164    0.2556 C   0  0  0  0  0  0  0  0  0  0  0  0
    3.4731   -6.0864    1.5997 C   0  0  0  0  0  0  0  0  0  0  0  0
    2.0472   -5.5209    1.6519 C   0  0  0  0  0  0  0  0  0  0  0  0
    2.0481   -4.3562    0.7368 N   0  0  0  0  0  0  0  0  0  0  0  0
    0.8451   -3.7961    0.2508 C   0  0  0  0  0  0  0  0  0  0  0  0
    1.1298   -2.9260   -0.6762 O   0  0  0  0  0  0  0  0  0  0  0  0
   -0.5369   -3.9663    0.5258 C   0  0  2  0  0  0  0  0  0  0  0  0
   -1.3417   -5.1045    0.9286 C   0  0  0  0  0  0  0  0  0  0  0  0
   -1.2350   -5.8162    2.1948 C   0  0  0  0  0  0  0  0  0  0  0  0
   -1.8894   -5.3427    3.3111 N   0  0  0  0  0  0  0  0  0  0  0  0
   -1.7588   -6.1762    4.3425 C   0  0  0  0  0  0  0  0  0  0  0  0
   -1.0169   -7.2024    3.9037 N   0  0  0  0  0  0  0  0  0  0  0  0
   -0.6970   -7.0000    2.6234 C   0  0  0  0  0  0  0  0  0  0  0  0
   -1.3754   -3.2556   -0.5023 N   0  0  0  0  0  0  0  0  0  0  0  0
   -2.5605   -2.6447   -0.0451 C   0  0  0  0  0  0  0  0  0  0  0  0
   -2.8034   -2.6678    1.1579 O   0  0  0  0  0  0  0  0  0  0  0  0
   -3.5827   -1.9540   -0.9210 C   0  0  1  0  0  0  0  0  0  0  0  0
   -4.7612   -1.9698   -0.0008 N   0  0  0  0  0  0  0  0  0  0  0  0
   -5.6258   -3.0774   -0.1937 C   0  0  0  0  0  0  0  0  0  0  0  0
   -5.3399   -3.9247   -1.1077 O   0  0  0  0  0  0  0  0  0  0  0  0
   -6.8433   -3.3523    0.5836 C   0  0  2  0  0  0  0  0  0  0  0  0
   -7.9301   -3.8326   -0.3455 C   0  0  0  0  0  0  0  0  0  0  0  0
   -9.1892   -4.1108    0.4057 C   0  0  0  0  0  0  0  0  0  0  0  0
  -10.1837   -3.1749    0.5865 C   0  0  0  0  0  0  0  0  0  0  0  0
  -11.3031   -3.5487    1.3175 C   0  0  0  0  0  0  0  0  0  0  0  0
  -11.4346   -4.8222    1.8548 C   0  0  0  0  0  0  0  0  0  0  0  0
  -10.4278   -5.7703    1.6715 C   0  0  0  0  0  0  0  0  0  0  0  0
   -9.3128   -5.3956    0.9441 C   0  0  0  0  0  0  0  0  0  0  0  0
  -12.5533   -5.1953    2.5838 O   0  0  0  0  0  0  0  0  0  0  0  0
   -7.2308   -2.3169    1.4855 N   0  0  0  0  0  0  0  0  0  0  0  0
   -3.2436   -0.5170   -1.1762 C   0  0  0  0  0  0  0  0  0  0  0  0
   -3.2403    0.2753    0.0624 C   0  0  0  0  0  0  0  0  0  0  0  0
   -2.3885    0.0741    0.8737 O   0  0  0  0  0  0  0  0  0  0  0  0
   -4.2016    1.3271    0.4624 N   0  0  0  0  0  0  0  0  0  0  0  0
   -5.2376    1.3581   -0.4994 C   0  0  2  0  0  0  0  0  0  0  0  0
   -5.2084    2.6039   -1.3652 C   0  0  0  0  0  0  0  0  0  0  0  0
   -5.6561    2.5903   -2.5352 O   0  0  0  0  0  0  0  0  0  0  0  0
   -4.6818    3.8286   -0.8882 N   0  0  0  0  0  0  0  0  0  0  0  0
   -6.6236    1.1472    0.0330 C   0  0  0  0  0  0  0  0  0  0  0  0
   -7.5715    1.1556   -1.1714 C   0  0  0  0  0  0  0  0  0  0  0  0
   -7.8259   -0.0073   -1.8597 C   0  0  0  0  0  0  0  0  0  0  0  0
   -8.6981   -0.0139   -2.9400 C   0  0  0  0  0  0  0  0  0  0  0  0
   -9.2982    1.1533   -3.3076 C   0  0  0  0  0  0  0  0  0  0  0  0
   -9.0320    2.3111   -2.6081 C   0  0  0  0  0  0  0  0  0  0  0  0
   -8.1706    2.3401   -1.5336 C   0  0  0  0  0  0  0  0  0  0  0  0
  -10.1925    1.2028   -4.3913 O   0  0  0  0  0  0  0  0  0  0  0  0
   -3.9563    2.1384    1.6230 C   0  0  0  0  0  0  0  0  0  0  0  0
   -3.2907    1.2353    2.7048 C   0  0  0  0  0  0  0  0  0  0  0  0
   -3.2367    3.3669    1.4792 N   0  0  0  0  0  0  0  0  0  0  0  0
   -1.9935    3.6365    0.9181 C   0  0  0  0  0  0  0  0  0  0  0  0
   -1.4160    2.6375    0.3769 O   0  0  0  0  0  0  0  0  0  0  0  0
   -1.2142    4.8777    0.8401 C   0  0  1  0  0  0  0  0  0  0  0  0
   -0.2074    4.7777   -0.2359 N   0  0  0  0  0  0  0  0  0  0  0  0
    1.1378    4.4064    0.0039 C   0  0  0  0  0  0  0  0  0  0  0  0
    1.4568    4.1655    1.1663 O   0  0  0  0  0  0  0  0  0  0  0  0
    2.0555    4.3366   -1.1786 C   0  0  1  0  0  0  0  0  0  0  0  0
    3.3881    3.8988   -0.8299 N   0  0  0  0  0  0  0  0  0  0  0  0
    4.5049    4.8417   -0.8384 C   0  0  0  0  0  0  0  0  0  0  0  0
    4.1375    5.9937   -1.1093 O   0  0  0  0  0  0  0  0  0  0  0  0
    5.8840    4.4139   -0.5497 C   0  0  1  0  0  0  0  0  0  0  0  0
    6.0272    2.9851   -0.3300 N   0  0  0  0  0  0  0  0  0  0  0  0
    6.8334    2.4837    0.7685 C   0  0  0  0  0  0  0  0  0  0  0  0
    7.2983    3.3988    1.4756 O   0  0  0  0  0  0  0  0  0  0  0  0
    7.1055    1.1115    1.0613 C   0  0  1  0  0  0  0  0  0  0  0  0
    6.4134    0.0366    0.4356 N   0  0  0  0  0  0  0  0  0  0  0  0
    6.8451   -0.8292   -0.5923 C   0  0  0  0  0  0  0  0  0  0  0  0
    7.9135   -0.4822   -1.1531 O   0  0  0  0  0  0  0  0  0  0  0  0
    8.6549    0.9754    0.7372 C   0  0  0  0  0  0  0  0  0  0  0  0
    9.3845    1.9022    1.6391 C   0  0  0  0  0  0  0  0  0  0  0  0
    9.9733    3.1268    1.3370 C   0  0  0  0  0  0  0  0  0  0  0  0
   10.5283    3.6494    2.4384 N   0  0  0  0  0  0  0  0  0  0  0  0
   10.3343    2.8183    3.4723 C   0  0  0  0  0  0  0  0  0  0  0  0
    9.6176    1.7166    2.9847 C   0  0  0  0  0  0  0  0  0  0  0  0
    9.3128    0.7337    3.9118 C   0  0  0  0  0  0  0  0  0  0  0  0
    9.6771    0.8055    5.2386 C   0  0  0  0  0  0  0  0  0  0  0  0
   10.3703    1.8957    5.6646 C   0  0  0  0  0  0  0  0  0  0  0  0
   10.7049    2.9042    4.7987 C   0  0  0  0  0  0  0  0  0  0  0  0
    6.8598    4.8838   -1.6237 C   0  0  0  0  0  0  0  0  0  0  0  0
    6.8459    6.3520   -1.6557 C   0  0  0  0  0  0  0  0  0  0  0  0
    7.2886    6.9086   -2.7216 O   0  0  0  0  0  0  0  0  0  0  0  0
    6.3931    7.2066   -0.6258 N   0  0  0  0  0  0  0  0  0  0  0  0
    1.5235    3.3984   -2.2331 C   0  0  0  0  0  0  0  0  0  0  0  0
   -1.7558    6.2209    0.9090 C   0  0  0  0  0  0  0  0  0  0  0  0
   -2.7428    6.7121   -0.0511 C   0  0  0  0  0  0  0  0  0  0  0  0
   -4.0816    6.7709    0.2577 C   0  0  0  0  0  0  0  0  0  0  0  0
   -5.0537    7.2231   -0.5948 C   0  0  0  0  0  0  0  0  0  0  0  0
   -4.6658    7.6540   -1.8606 C   0  0  0  0  0  0  0  0  0  0  0  0
   -3.3316    7.6163   -2.2225 C   0  0  0  0  0  0  0  0  0  0  0  0
   -2.3807    7.1451   -1.3120 C   0  0  0  0  0  0  0  0  0  0  0  0
   -5.2931    2.4046    2.3113 C   0  0  0  0  0  0  0  0  0  0  0  0
   -5.7458    3.5631    2.4340 O   0  0  0  0  0  0  0  0  0  0  0  0
   -5.9690    1.2663    2.8033 O   0  0  0  0  0  0  0  0  0  0  0  0
    5.6339   -6.5677   -6.5454 H   0  0  0  0  0  0  0  0  0  0  0  0
    7.3661   -6.9999   -6.1749 H   0  0  0  0  0  0  0  0  0  0  0  0
    6.5094   -3.8864   -7.1310 H   0  0  0  0  0  0  0  0  0  0  0  0
    7.1718   -6.0139   -3.6118 H   0  0  0  0  0  0  0  0  0  0  0  0
    7.6711   -4.1041   -2.3480 H   0  0  0  0  0  0  0  0  0  0  0  0
    7.9690   -3.2067   -3.8677 H   0  0  0  0  0  0  0  0  0  0  0  0
    5.4568   -3.1209   -4.2962 H   0  0  0  0  0  0  0  0  0  0  0  0
    5.2212   -3.9958   -2.7896 H   0  0  0  0  0  0  0  0  0  0  0  0
    4.9765   -1.2837   -2.7152 H   0  0  0  0  0  0  0  0  0  0  0  0
    6.7168   -1.2696   -2.9504 H   0  0  0  0  0  0  0  0  0  0  0  0
    7.0764   -2.8398   -1.1602 H   0  0  0  0  0  0  0  0  0  0  0  0
    5.6272   -2.9736    0.7167 H   0  0  0  0  0  0  0  0  0  0  0  0
    3.8555   -3.8273    1.4892 H   0  0  0  0  0  0  0  0  0  0  0  0
    5.0338   -5.5386    0.2616 H   0  0  0  0  0  0  0  0  0  0  0  0
    3.4781   -5.9996   -0.6027 H   0  0  0  0  0  0  0  0  0  0  0  0
    4.0374   -5.6134    2.4024 H   0  0  0  0  0  0  0  0  0  0  0  0
    3.4750   -7.1806    1.5612 H   0  0  0  0  0  0  0  0  0  0  0  0
    1.4601   -6.3353    1.1525 H   0  0  0  0  0  0  0  0  0  0  0  0
    1.6632   -5.3141    2.6200 H   0  0  0  0  0  0  0  0  0  0  0  0
   -0.7532   -3.2313    1.4743 H   0  0  0  0  0  0  0  0  0  0  0  0
   -2.4447   -4.8274    0.8369 H   0  0  0  0  0  0  0  0  0  0  0  0
   -1.3287   -5.9112    0.0708 H   0  0  0  0  0  0  0  0  0  0  0  0
   -2.4293   -4.4485    3.3741 H   0  0  0  0  0  0  0  0  0  0  0  0
   -2.1957   -6.0138    5.3405 H   0  0  0  0  0  0  0  0  0  0  0  0
   -0.1197   -7.6905    2.0393 H   0  0  0  0  0  0  0  0  0  0  0  0
   -1.1445   -3.1942   -1.4727 H   0  0  0  0  0  0  0  0  0  0  0  0
   -3.8164   -2.5023   -1.7919 H   0  0  0  0  0  0  0  0  0  0  0  0
   -4.9193   -1.2550    0.6978 H   0  0  0  0  0  0  0  0  0  0  0  0
   -6.6655   -4.2639    1.2652 H   0  0  0  0  0  0  0  0  0  0  0  0
   -7.5801   -4.7762   -0.8122 H   0  0  0  0  0  0  0  0  0  0  0  0
   -8.0795   -3.1042   -1.1530 H   0  0  0  0  0  0  0  0  0  0  0  0
  -10.0704   -2.1771    0.1560 H   0  0  0  0  0  0  0  0  0  0  0  0
  -12.0924   -2.8052    1.4620 H   0  0  0  0  0  0  0  0  0  0  0  0
  -10.5268   -6.7602    2.0894 H   0  0  0  0  0  0  0  0  0  0  0  0
   -8.5237   -6.1431    0.8047 H   0  0  0  0  0  0  0  0  0  0  0  0
  -12.4904   -5.7265    3.4488 H   0  0  0  0  0  0  0  0  0  0  0  0
   -6.3685   -1.9259    1.9240 H   0  0  0  0  0  0  0  0  0  0  0  0
   -7.7977   -2.7348    2.2597 H   0  0  0  0  0  0  0  0  0  0  0  0
   -3.7577   -0.1235   -2.0117 H   0  0  0  0  0  0  0  0  0  0  0  0
   -2.1421   -0.5791   -1.5384 H   0  0  0  0  0  0  0  0  0  0  0  0
   -5.1290    0.5534   -1.2835 H   0  0  0  0  0  0  0  0  0  0  0  0
   -3.8005    4.2677   -1.2228 H   0  0  0  0  0  0  0  0  0  0  0  0
   -5.2867    4.2853   -0.1319 H   0  0  0  0  0  0  0  0  0  0  0  0
   -6.8034    0.1735    0.4871 H   0  0  0  0  0  0  0  0  0  0  0  0
   -7.0086    2.0005    0.6305 H   0  0  0  0  0  0  0  0  0  0  0  0
   -7.3425   -0.9237   -1.5776 H   0  0  0  0  0  0  0  0  0  0  0  0
   -8.8980   -0.9106   -3.4723 H   0  0  0  0  0  0  0  0  0  0  0  0
   -9.5077    3.2429   -2.8899 H   0  0  0  0  0  0  0  0  0  0  0  0
   -7.9474    3.2493   -0.9702 H   0  0  0  0  0  0  0  0  0  0  0  0
  -10.9818    0.5535   -4.4467 H   0  0  0  0  0  0  0  0  0  0  0  0
   -3.7230    0.2474    2.5830 H   0  0  0  0  0  0  0  0  0  0  0  0
   -3.6565    1.5679    3.7302 H   0  0  0  0  0  0  0  0  0  0  0  0
   -2.2188    1.2360    2.6579 H   0  0  0  0  0  0  0  0  0  0  0  0
   -3.7135    4.2309    1.8594 H   0  0  0  0  0  0  0  0  0  0  0  0
   -0.5069    4.8470    1.8117 H   0  0  0  0  0  0  0  0  0  0  0  0
   -0.4734    4.9783   -1.1924 H   0  0  0  0  0  0  0  0  0  0  0  0
    2.1097    5.3681   -1.6197 H   0  0  0  0  0  0  0  0  0  0  0  0
    3.6646    2.9589   -0.5590 H   0  0  0  0  0  0  0  0  0  0  0  0
    6.2282    4.9640    0.3725 H   0  0  0  0  0  0  0  0  0  0  0  0
    5.6006    2.2454   -0.8875 H   0  0  0  0  0  0  0  0  0  0  0  0
    7.1775    0.8543    2.1713 H   0  0  0  0  0  0  0  0  0  0  0  0
    5.4420   -0.1649    0.7628 H   0  0  0  0  0  0  0  0  0  0  0  0
    8.8370    1.3033   -0.3005 H   0  0  0  0  0  0  0  0  0  0  0  0
    8.9232   -0.0364    0.9088 H   0  0  0  0  0  0  0  0  0  0  0  0
    9.9638    3.5525    0.3528 H   0  0  0  0  0  0  0  0  0  0  0  0
   11.0269    4.5757    2.4292 H   0  0  0  0  0  0  0  0  0  0  0  0
    8.7555   -0.1574    3.5989 H   0  0  0  0  0  0  0  0  0  0  0  0
    9.4307    0.0202    5.9661 H   0  0  0  0  0  0  0  0  0  0  0  0
   10.6770    2.0144    6.7016 H   0  0  0  0  0  0  0  0  0  0  0  0
   11.2528    3.7808    5.1142 H   0  0  0  0  0  0  0  0  0  0  0  0
    6.5832    4.5180   -2.6304 H   0  0  0  0  0  0  0  0  0  0  0  0
    7.8643    4.5824   -1.2871 H   0  0  0  0  0  0  0  0  0  0  0  0
    5.8885    8.1094   -0.8397 H   0  0  0  0  0  0  0  0  0  0  0  0
    6.5266    7.0043    0.3929 H   0  0  0  0  0  0  0  0  0  0  0  0
    0.4146    3.4185   -2.2976 H   0  0  0  0  0  0  0  0  0  0  0  0
    1.8517    2.3444   -2.0565 H   0  0  0  0  0  0  0  0  0  0  0  0
    1.8933    3.6973   -3.2309 H   0  0  0  0  0  0  0  0  0  0  0  0
   -2.0668    6.5150    1.9724 H   0  0  0  0  0  0  0  0  0  0  0  0
   -0.8662    6.9545    0.7756 H   0  0  0  0  0  0  0  0  0  0  0  0
   -4.4199    6.4418    1.2453 H   0  0  0  0  0  0  0  0  0  0  0  0
   -6.0755    7.2451   -0.2974 H   0  0  0  0  0  0  0  0  0  0  0  0
   -5.3775    8.0222   -2.5794 H   0  0  0  0  0  0  0  0  0  0  0  0
   -3.0291    7.9562   -3.2191 H   0  0  0  0  0  0  0  0  0  0  0  0
   -1.3535    7.1404   -1.6589 H   0  0  0  0  0  0  0  0  0  0  0  0
   -6.9485    1.3793    3.0855 H   0  0  0  0  0  0  0  0  0  0  0  0
  1  2  1  0
  2  3  2  3
  2  4  1  0
  4  5  1  0
  5  6  1  0
  6  7  1  0
  7  8  1  0
  8  9  1  0
  9 10  1  0
 10 11  2  0
 10 12  1  0
 12 13  1  0
 13 14  1  0
 14 15  1  0
 15 16  1  0
 16 17  1  0
 17 18  2  0
 17 19  1  0
 19 20  1  0
 20 21  1  0
 21 22  1  0
 22 23  1  0
 23 24  2  0
 24 25  1  0
 19 26  1  0
 26 27  1  0
 27 28  2  0
 27 29  1  0
 29 30  1  0
 30 31  1  0
 31 32  2  0
 31 33  1  0
 33 34  1  0
 34 35  1  0
 35 36  2  0
 36 37  1  0
 37 38  2  0
 38 39  1  0
 39 40  2  0
 38 41  1  0
 33 42  1  0
 29 43  1  0
 43 44  1  0
 44 45  2  0
 44 46  1  0
 46 47  1  0
 47 48  1  0
 48 49  2  0
 48 50  1  0
 47 51  1  0
 51 52  1  0
 52 53  2  0
 53 54  1  0
 54 55  2  0
 55 56  1  0
 56 57  2  0
 55 58  1  0
 46 59  1  0
 59 60  1  0
 59 61  1  0
 61 62  1  0
 62 63  2  0
 62 64  1  0
 64 65  1  0
 65 66  1  0
 66 67  2  0
 66 68  1  0
 68 69  1  0
 69 70  1  0
 70 71  2  0
 70 72  1  0
 72 73  1  0
 73 74  1  0
 74 75  2  0
 74 76  1  0
 76 77  1  0
 77 78  1  0
 78 79  2  0
 76 80  1  0
 80 81  1  0
 81 82  2  0
 82 83  1  0
 83 84  1  0
 84 85  2  0
 85 86  1  0
 86 87  2  0
 87 88  1  0
 88 89  2  0
 72 90  1  0
 90 91  1  0
 91 92  2  0
 91 93  1  0
 68 94  1  0
 64 95  1  0
 95 96  1  0
 96 97  2  0
 97 98  1  0
 98 99  2  0
 99100  1  0
100101  2  0
 59102  1  0
102103  2  0
102104  1  0
 78  8  1  0
 85 81  1  0
101 96  1  0
 16 12  1  0
 25 21  2  0
 40 35  1  0
 57 52  1  0
 89 84  1  0
  1105  1  0
  1106  1  0
  3107  1  0
  4108  1  0
  5109  1  0
  5110  1  0
  6111  1  0
  6112  1  0
  7113  1  0
  7114  1  0
  8115  1  6
  9116  1  0
 12117  1  1
 13118  1  0
 13119  1  0
 14120  1  0
 14121  1  0
 15122  1  0
 15123  1  0
 19124  1  1
 20125  1  0
 20126  1  0
 22127  1  0
 23128  1  0
 25129  1  0
 26130  1  0
 29131  1  6
 30132  1  0
 33133  1  1
 34134  1  0
 34135  1  0
 36136  1  0
 37137  1  0
 39138  1  0
 40139  1  0
 41140  1  0
 42141  1  0
 42142  1  0
 43143  1  0
 43144  1  0
 47145  1  6
 50146  1  0
 50147  1  0
 51148  1  0
 51149  1  0
 53150  1  0
 54151  1  0
 56152  1  0
 57153  1  0
 58154  1  0
 60155  1  0
 60156  1  0
 60157  1  0
 61158  1  0
 64159  1  1
 65160  1  0
 68161  1  6
 69162  1  0
 72163  1  1
 73164  1  0
 76165  1  1
 77166  1  0
 80167  1  0
 80168  1  0
 82169  1  0
 83170  1  0
 86171  1  0
 87172  1  0
 88173  1  0
 89174  1  0
 90175  1  0
 90176  1  0
 93177  1  0
 93178  1  0
 94179  1  0
 94180  1  0
 94181  1  0
 95182  1  0
 95183  1  0
 97184  1  0
 98185  1  0
 99186  1  0
100187  1  0
101188  1  0
104189  1  0
M  END
>  <Ligand ID>  (1) 
LIG0001170

>  <Ligand>  (1) 
CHEMBL2096726

>  <SMILES>  (1) 
NC(=N)NCCC[C@@H]1NC(=O)[C@@H]2CCCN2C(=O)[C@H](Cc2[nH]cnc2)NC(=O)[C@@H](NC(=O)[C@H](Cc2ccc(cc2)O)N)CC(=O)N([C@H](C(=O)N)Cc2ccc(cc2)O)C(C)(NC(=O)[C@@H](NC(=O)[C@@H](NC(=O)[C@@H](NC(=O)[C@@H](NC1=O)Cc1c[nH]c2c1cccc2)CC(=O)N)C)Cc1ccccc1)C(=O)O

>  <CID>  (1) 
91900706.0

>  <ChEMBL ID>  (1) 
nan

>  <InChiKey>  (1) 
ICLWVIZOQVRIQF-APEMNGOPSA-N

>  <InChi>  (1) 
InChI=1S/C69H85N19O16/c1-36-58(94)81-48(27-37-10-4-3-5-11-37)64(100)86-69(2,67(103)104)88(54(57(72)93)28-39-18-22-43(90)23-19-39)56(92)32-51(82-59(95)45(70)26-38-16-20-42(89)21-17-38)63(99)85-52(30-41-34-75-35-78-41)66(102)87-25-9-15-53(87)65(101)80-47(14-8-24-76-68(73)74)60(96)83-49(29-40-33-77-46-13-7-6-12-44(40)46)62(98)84-50(31-55(71)91)61(97)79-36/h3-7,10-13,16-23,33-36,45,47-54,77,89-90H,8-9,14-15,24-32,70H2,1-2H3,(H2,71,91)(H2,72,93)(H,75,78)(H,79,97)(H,80,101)(H,81,94)(H,82,95)(H,83,96)(H,84,98)(H,85,99)(H,86,100)(H,103,104)(H4,73,74,76)/t36-,45-,47-,48-,49-,50-,51-,52-,53-,54-,69?/m0/s1

>  <IUPAC Name>  (1) 
(3S,6S,13S,16S,19S,22S,25S,28S)-9-[(2S)-1-amino-3-(4-hydroxyphenyl)-1-oxopropan-2-yl]-6-[[(2S)-2-amino-3-(4-hydroxyphenyl)propanoyl]amino]-19-(2-amino-2-oxoethyl)-13-benzyl-25-(3-carbamimidamidopropyl)-3-(1H-imidazol-5-ylmethyl)-22-(1H-indol-3-ylmethyl)-10,16-dimethyl-2,5,8,12,15,18,21,24,27-nonaoxo-1,4,9,11,14,17,20,23,26-nonazabicyclo[26.3.0]hentriacontane-10-carboxylic acid

$$$$
