
     RDKit          3D

 15 15  0  0  0  0  0  0  0  0999 V2000
    2.4799    0.5974   -0.0578 O   0  0  0  0  0  0  0  0  0  0  0  0
    1.4633   -0.3606    0.0259 C   0  0  0  0  0  0  0  0  0  0  0  0
    1.6526   -1.3523    0.8047 O   0  0  0  0  0  0  0  0  0  0  0  0
    0.2119   -0.2471   -0.7485 C   0  0  0  0  0  0  0  0  0  0  0  0
   -0.5898    1.0137   -0.4441 C   0  0  0  0  0  0  0  0  0  0  0  0
   -1.2345    0.2368    0.6810 C   0  0  0  0  0  0  0  0  0  0  0  0
   -0.8893   -1.0269   -0.0717 C   0  0  0  0  0  0  0  0  0  0  0  0
    2.9731    0.8657    0.7896 H   0  0  0  0  0  0  0  0  0  0  0  0
    0.3012   -0.3912   -1.8427 H   0  0  0  0  0  0  0  0  0  0  0  0
    0.0922    1.8204   -0.0825 H   0  0  0  0  0  0  0  0  0  0  0  0
   -1.2639    1.3357   -1.2432 H   0  0  0  0  0  0  0  0  0  0  0  0
   -2.3158    0.4062    0.7612 H   0  0  0  0  0  0  0  0  0  0  0  0
   -0.6376    0.3408    1.6047 H   0  0  0  0  0  0  0  0  0  0  0  0
   -0.5511   -1.8554    0.5701 H   0  0  0  0  0  0  0  0  0  0  0  0
   -1.6920   -1.3831   -0.7465 H   0  0  0  0  0  0  0  0  0  0  0  0
  1  2  1  0
  2  3  2  0
  2  4  1  0
  4  5  1  0
  5  6  1  0
  6  7  1  0
  7  4  1  0
  1  8  1  0
  4  9  1  0
  5 10  1  0
  5 11  1  0
  6 12  1  0
  6 13  1  0
  7 14  1  0
  7 15  1  0
M  END
>  <Ligand ID>  (1) 
LIG0000218

>  <Ligand>  (1) 
Cyclobutanecarboxylic acid

>  <SMILES>  (1) 
OC(=O)C1CCC1

>  <CID>  (1) 
19494.0

>  <ChEMBL ID>  (1) 
nan

>  <InChiKey>  (1) 
TXWOGHSRPAYOML-UHFFFAOYSA-N

>  <InChi>  (1) 
InChI=1S/C5H8O2/c6-5(7)4-2-1-3-4/h4H,1-3H2,(H,6,7)

>  <IUPAC Name>  (1) 
cyclobutanecarboxylic acid

$$$$
