
     RDKit          3D

 41 43  0  0  0  0  0  0  0  0999 V2000
    1.2082   -0.2802    0.3984 O   0  0  0  0  0  0  0  0  0  0  0  0
    1.6794   -0.2268   -0.7830 C   0  0  0  0  0  0  0  0  0  0  0  0
    0.8624   -0.5582   -1.9725 C   0  0  0  0  0  0  0  0  0  0  0  0
   -0.4784   -0.9340   -1.6574 N   0  0  0  0  0  0  0  0  0  0  0  0
   -0.7465   -2.2020   -1.4361 N   0  0  0  0  0  0  0  0  0  0  0  0
   -1.9757   -2.6576   -1.1327 C   0  0  0  0  0  0  0  0  0  0  0  0
   -2.1878   -4.1267   -0.8958 C   0  0  0  0  0  0  0  0  0  0  0  0
   -3.0296   -1.7710   -1.0420 C   0  0  0  0  0  0  0  0  0  0  0  0
   -2.7910   -0.4281   -1.2674 C   0  0  0  0  0  0  0  0  0  0  0  0
   -1.5097   -0.0597   -1.5696 C   0  0  0  0  0  0  0  0  0  0  0  0
   -1.2572    1.1612   -1.7815 O   0  0  0  0  0  0  0  0  0  0  0  0
   -3.9269    0.5314   -1.1700 C   0  0  0  0  0  0  0  0  0  0  0  0
   -3.8244    1.2692    0.1042 C   0  0  0  0  0  0  0  0  0  0  0  0
   -4.4041    0.8551    1.2799 C   0  0  0  0  0  0  0  0  0  0  0  0
   -4.1526    1.6994    2.2529 O   0  0  0  0  0  0  0  0  0  0  0  0
   -3.4110    2.6815    1.7575 C   0  0  0  0  0  0  0  0  0  0  0  0
   -3.1804    2.4505    0.4067 C   0  0  0  0  0  0  0  0  0  0  0  0
    3.0360    0.1602   -1.0223 N   0  0  0  0  0  0  0  0  0  0  0  0
    3.9272    0.5035    0.0274 C   0  0  0  0  0  0  0  0  0  0  0  0
    4.0047    1.8344    0.4437 C   0  0  0  0  0  0  0  0  0  0  0  0
    4.8484    2.2364    1.4563 C   0  0  0  0  0  0  0  0  0  0  0  0
    5.6366    1.2884    2.0717 C   0  0  0  0  0  0  0  0  0  0  0  0
    5.5878   -0.0409    1.6871 C   0  0  0  0  0  0  0  0  0  0  0  0
    4.7341   -0.4151    0.6704 C   0  0  0  0  0  0  0  0  0  0  0  0
    6.8157    1.8481    3.4863 Br  0  0  0  0  0  0  0  0  0  0  0  0
    0.8094    0.3535   -2.6041 H   0  0  0  0  0  0  0  0  0  0  0  0
    1.3135   -1.3599   -2.5984 H   0  0  0  0  0  0  0  0  0  0  0  0
   -2.8739   -4.4978   -1.6817 H   0  0  0  0  0  0  0  0  0  0  0  0
   -2.6928   -4.2939    0.0968 H   0  0  0  0  0  0  0  0  0  0  0  0
   -1.2230   -4.6352   -0.8944 H   0  0  0  0  0  0  0  0  0  0  0  0
   -4.0268   -2.1060   -0.8005 H   0  0  0  0  0  0  0  0  0  0  0  0
   -3.7416    1.2852   -1.9861 H   0  0  0  0  0  0  0  0  0  0  0  0
   -4.8911    0.0488   -1.3335 H   0  0  0  0  0  0  0  0  0  0  0  0
   -5.0058   -0.0428    1.4568 H   0  0  0  0  0  0  0  0  0  0  0  0
   -3.0480    3.5317    2.3390 H   0  0  0  0  0  0  0  0  0  0  0  0
   -2.6246    3.0423   -0.2864 H   0  0  0  0  0  0  0  0  0  0  0  0
    3.4166    0.2006   -2.0146 H   0  0  0  0  0  0  0  0  0  0  0  0
    3.3793    2.5777   -0.0468 H   0  0  0  0  0  0  0  0  0  0  0  0
    4.8744    3.2961    1.7491 H   0  0  0  0  0  0  0  0  0  0  0  0
    6.2140   -0.7802    2.1795 H   0  0  0  0  0  0  0  0  0  0  0  0
    4.6557   -1.4391    0.3299 H   0  0  0  0  0  0  0  0  0  0  0  0
  1  2  2  0
  2  3  1  0
  3  4  1  0
  4  5  1  0
  5  6  2  0
  6  7  1  0
  6  8  1  0
  8  9  2  0
  9 10  1  0
 10 11  2  0
  9 12  1  0
 12 13  1  0
 13 14  2  0
 14 15  1  0
 15 16  1  0
 16 17  2  0
  2 18  1  0
 18 19  1  0
 19 20  2  0
 20 21  1  0
 21 22  2  0
 22 23  1  0
 23 24  2  0
 22 25  1  0
 10  4  1  0
 17 13  1  0
 24 19  1  0
  3 26  1  0
  3 27  1  0
  7 28  1  0
  7 29  1  0
  7 30  1  0
  8 31  1  0
 12 32  1  0
 12 33  1  0
 14 34  1  0
 16 35  1  0
 17 36  1  0
 18 37  1  0
 20 38  1  0
 21 39  1  0
 23 40  1  0
 24 41  1  0
M  END
>  <Ligand ID>  (1) 
LIG0003953

>  <Ligand>  (1) 
CHEMBL2391285

>  <SMILES>  (1) 
O=C(Cn1nc(C)cc(c1=O)Cc1cocc1)Nc1ccc(cc1)Br

>  <CID>  (1) 
71698972.0

>  <ChEMBL ID>  (1) 
nan

>  <InChiKey>  (1) 
YKRRGFVBYOIVQT-UHFFFAOYSA-N

>  <InChi>  (1) 
InChI=1S/C18H16BrN3O3/c1-12-8-14(9-13-6-7-25-11-13)18(24)22(21-12)10-17(23)20-16-4-2-15(19)3-5-16/h2-8,11H,9-10H2,1H3,(H,20,23)

>  <IUPAC Name>  (1) 
N-(4-bromophenyl)-2-[5-(furan-3-ylmethyl)-3-methyl-6-oxopyridazin-1-yl]acetamide

$$$$
