
     RDKit          3D

127130  0  0  0  0  0  0  0  0999 V2000
    4.1431   -2.8206   -2.2217 C   0  0  0  0  0  0  0  0  0  0  0  0
    3.5520   -1.7316   -3.0438 C   0  0  0  0  0  0  0  0  0  0  0  0
    2.4050   -0.9923   -2.4283 C   0  0  0  0  0  0  0  0  0  0  0  0
    2.6527   -0.2775   -1.1529 C   0  0  0  0  0  0  0  0  0  0  0  0
    2.9586   -1.0765    0.0428 C   0  0  1  0  0  0  0  0  0  0  0  0
    3.2571   -0.1126    1.2183 C   0  0  0  0  0  0  0  0  0  0  0  0
    2.4787   -0.0787    2.1961 O   0  0  0  0  0  0  0  0  0  0  0  0
    4.4265    0.6870    1.1029 N   0  0  0  0  0  0  0  0  0  0  0  0
    4.8446    1.6461    2.1021 C   0  0  2  0  0  0  0  0  0  0  0  0
    5.4989    2.8423    1.5894 C   0  0  0  0  0  0  0  0  0  0  0  0
    5.9097    3.6933    2.4553 O   0  0  0  0  0  0  0  0  0  0  0  0
    5.7268    3.1630    0.2297 N   0  0  0  0  0  0  0  0  0  0  0  0
    6.3949    4.4043   -0.0916 C   0  0  2  0  0  0  0  0  0  0  0  0
    5.3550    5.4073   -0.5703 C   0  0  0  0  0  0  0  0  0  0  0  0
    5.7451    6.5689   -0.9182 O   0  0  0  0  0  0  0  0  0  0  0  0
    3.9804    5.0658   -0.6302 N   0  0  0  0  0  0  0  0  0  0  0  0
    7.4753    4.2895   -1.1307 C   0  0  0  0  0  0  0  0  0  0  0  0
    8.5759    3.3806   -0.7879 C   0  0  0  0  0  0  0  0  0  0  0  0
    9.6766    3.7639   -0.0594 C   0  0  0  0  0  0  0  0  0  0  0  0
   10.7070    2.9174    0.2436 C   0  0  0  0  0  0  0  0  0  0  0  0
   10.7050    1.6034   -0.1713 C   0  0  0  0  0  0  0  0  0  0  0  0
    9.6118    1.1863   -0.9065 C   0  0  0  0  0  0  0  0  0  0  0  0
    8.5621    2.0506   -1.2141 C   0  0  0  0  0  0  0  0  0  0  0  0
    5.7946    0.9846    3.1218 C   0  0  0  0  0  0  0  0  0  0  0  0
    6.9666    0.4657    2.4089 C   0  0  0  0  0  0  0  0  0  0  0  0
    7.1568    0.4966    1.1771 O   0  0  0  0  0  0  0  0  0  0  0  0
    7.9792   -0.1251    3.1817 O   0  0  0  0  0  0  0  0  0  0  0  0
    1.8806   -1.8543    0.5988 N   0  0  0  0  0  0  0  0  0  0  0  0
    0.4945   -1.7064    0.3989 C   0  0  0  0  0  0  0  0  0  0  0  0
    0.0091   -0.8263   -0.3736 O   0  0  0  0  0  0  0  0  0  0  0  0
   -0.4215   -2.5704    1.1134 C   0  0  2  0  0  0  0  0  0  0  0  0
   -0.7093   -3.8892    0.4981 C   0  0  0  0  0  0  0  0  0  0  0  0
    0.3335   -4.8456    0.2121 C   0  0  0  0  0  0  0  0  0  0  0  0
    0.8496   -5.7374    1.1571 C   0  0  0  0  0  0  0  0  0  0  0  0
    1.8352   -6.4682    0.6126 N   0  0  0  0  0  0  0  0  0  0  0  0
    2.0006   -6.0943   -0.6816 C   0  0  0  0  0  0  0  0  0  0  0  0
    1.0799   -5.1007   -0.9240 C   0  0  0  0  0  0  0  0  0  0  0  0
    0.9795   -4.5438   -2.1749 C   0  0  0  0  0  0  0  0  0  0  0  0
    1.7890   -4.9449   -3.2441 C   0  0  0  0  0  0  0  0  0  0  0  0
    2.7163   -5.9519   -2.9752 C   0  0  0  0  0  0  0  0  0  0  0  0
    2.8270   -6.5238   -1.7137 C   0  0  0  0  0  0  0  0  0  0  0  0
   -1.8031   -1.9499    1.1245 N   0  0  0  0  0  0  0  0  0  0  0  0
   -2.4777   -1.7579    2.3391 C   0  0  0  0  0  0  0  0  0  0  0  0
   -1.8508   -2.1150    3.4015 O   0  0  0  0  0  0  0  0  0  0  0  0
   -3.8104   -1.2023    2.5365 C   0  0  0  0  0  0  0  0  0  0  0  0
   -4.5526   -0.8234    1.3873 N   0  0  0  0  0  0  0  0  0  0  0  0
   -4.9137   -1.7591    0.3504 C   0  0  0  0  0  0  0  0  0  0  0  0
   -4.5694   -2.9806    0.4173 O   0  0  0  0  0  0  0  0  0  0  0  0
   -5.6994   -1.2038   -0.7759 C   0  0  2  0  0  0  0  0  0  0  0  0
   -6.0683    0.1641   -0.5466 N   0  0  0  0  0  0  0  0  0  0  0  0
   -5.6369    1.2909   -1.2866 C   0  0  0  0  0  0  0  0  0  0  0  0
   -4.8498    1.2137   -2.2773 O   0  0  0  0  0  0  0  0  0  0  0  0
   -6.1806    2.6140   -0.8164 C   0  0  2  0  0  0  0  0  0  0  0  0
   -7.6890    2.6117   -0.8449 C   0  0  0  0  0  0  0  0  0  0  0  0
   -8.2428    3.8872   -0.3638 C   0  0  0  0  0  0  0  0  0  0  0  0
   -8.5145    4.9871   -1.1327 C   0  0  0  0  0  0  0  0  0  0  0  0
   -9.0388    6.1658   -0.6517 C   0  0  0  0  0  0  0  0  0  0  0  0
   -9.3146    6.2468    0.7253 C   0  0  0  0  0  0  0  0  0  0  0  0
   -9.0447    5.1469    1.5068 C   0  0  0  0  0  0  0  0  0  0  0  0
   -8.5211    3.9871    0.9906 C   0  0  0  0  0  0  0  0  0  0  0  0
   -9.8444    7.4137    1.2613 O   0  0  0  0  0  0  0  0  0  0  0  0
   -5.6204    3.6306   -1.6714 N   0  0  0  0  0  0  0  0  0  0  0  0
   -6.8352   -2.0833   -1.1332 C   0  0  0  0  0  0  0  0  0  0  0  0
   -7.8758   -2.3465   -0.1167 C   0  0  0  0  0  0  0  0  0  0  0  0
   -7.4782   -3.0028    1.1507 C   0  0  0  0  0  0  0  0  0  0  0  0
   -8.6979   -3.2090    2.0658 C   0  0  0  0  0  0  0  0  0  0  0  0
    5.1226   -2.5590   -1.7528 H   0  0  0  0  0  0  0  0  0  0  0  0
    4.4524   -3.6444   -2.9562 H   0  0  0  0  0  0  0  0  0  0  0  0
    3.4733   -3.3442   -1.5342 H   0  0  0  0  0  0  0  0  0  0  0  0
    3.1763   -2.1850   -4.0098 H   0  0  0  0  0  0  0  0  0  0  0  0
    4.3789   -1.0171   -3.3140 H   0  0  0  0  0  0  0  0  0  0  0  0
    1.5875   -1.7759   -2.3338 H   0  0  0  0  0  0  0  0  0  0  0  0
    2.0699   -0.2248   -3.1841 H   0  0  0  0  0  0  0  0  0  0  0  0
    3.6006    0.3394   -1.3466 H   0  0  0  0  0  0  0  0  0  0  0  0
    1.9130    0.5472   -0.9693 H   0  0  0  0  0  0  0  0  0  0  0  0
    3.8431   -1.6708   -0.0752 H   0  0  0  0  0  0  0  0  0  0  0  0
    5.0238    0.5746    0.2342 H   0  0  0  0  0  0  0  0  0  0  0  0
    3.9608    1.9581    2.7327 H   0  0  0  0  0  0  0  0  0  0  0  0
    5.4062    2.4951   -0.4828 H   0  0  0  0  0  0  0  0  0  0  0  0
    6.7956    4.8714    0.8422 H   0  0  0  0  0  0  0  0  0  0  0  0
    3.6298    4.6642   -1.5160 H   0  0  0  0  0  0  0  0  0  0  0  0
    3.4158    5.2407    0.2229 H   0  0  0  0  0  0  0  0  0  0  0  0
    7.8874    5.3148   -1.3157 H   0  0  0  0  0  0  0  0  0  0  0  0
    6.9771    3.9328   -2.0693 H   0  0  0  0  0  0  0  0  0  0  0  0
    9.7570    4.7890    0.3065 H   0  0  0  0  0  0  0  0  0  0  0  0
   11.5590    3.2406    0.8161 H   0  0  0  0  0  0  0  0  0  0  0  0
   11.5075    0.9321    0.0593 H   0  0  0  0  0  0  0  0  0  0  0  0
    9.6225    0.1504   -1.2272 H   0  0  0  0  0  0  0  0  0  0  0  0
    7.7548    1.6326   -1.7920 H   0  0  0  0  0  0  0  0  0  0  0  0
    6.1462    1.7321    3.8502 H   0  0  0  0  0  0  0  0  0  0  0  0
    5.2850    0.1119    3.5874 H   0  0  0  0  0  0  0  0  0  0  0  0
    8.6445   -0.7649    2.7670 H   0  0  0  0  0  0  0  0  0  0  0  0
    2.1883   -2.6475    1.2471 H   0  0  0  0  0  0  0  0  0  0  0  0
   -0.1747   -2.6843    2.1981 H   0  0  0  0  0  0  0  0  0  0  0  0
   -1.2952   -3.6474   -0.4679 H   0  0  0  0  0  0  0  0  0  0  0  0
   -1.5564   -4.3949    1.0989 H   0  0  0  0  0  0  0  0  0  0  0  0
    0.5292   -5.8468    2.1718 H   0  0  0  0  0  0  0  0  0  0  0  0
    2.4285   -7.2164    1.0322 H   0  0  0  0  0  0  0  0  0  0  0  0
    0.2426   -3.7573   -2.3464 H   0  0  0  0  0  0  0  0  0  0  0  0
    1.7148   -4.5159   -4.2231 H   0  0  0  0  0  0  0  0  0  0  0  0
    3.3910   -6.3215   -3.7631 H   0  0  0  0  0  0  0  0  0  0  0  0
    3.5670   -7.3123   -1.5351 H   0  0  0  0  0  0  0  0  0  0  0  0
   -2.2345   -1.6635    0.2303 H   0  0  0  0  0  0  0  0  0  0  0  0
   -3.7137   -0.3769    3.2837 H   0  0  0  0  0  0  0  0  0  0  0  0
   -4.4008   -1.9860    3.1047 H   0  0  0  0  0  0  0  0  0  0  0  0
   -4.8460    0.1962    1.3079 H   0  0  0  0  0  0  0  0  0  0  0  0
   -4.9933   -1.2190   -1.6556 H   0  0  0  0  0  0  0  0  0  0  0  0
   -6.7385    0.3147    0.2764 H   0  0  0  0  0  0  0  0  0  0  0  0
   -5.8208    2.7807    0.2128 H   0  0  0  0  0  0  0  0  0  0  0  0
   -8.0525    1.7870   -0.2006 H   0  0  0  0  0  0  0  0  0  0  0  0
   -8.0820    2.4335   -1.8692 H   0  0  0  0  0  0  0  0  0  0  0  0
   -8.3034    4.9291   -2.1918 H   0  0  0  0  0  0  0  0  0  0  0  0
   -9.2495    7.0264   -1.2680 H   0  0  0  0  0  0  0  0  0  0  0  0
   -9.2496    5.1860    2.5772 H   0  0  0  0  0  0  0  0  0  0  0  0
   -8.3296    3.1487    1.6672 H   0  0  0  0  0  0  0  0  0  0  0  0
  -10.8307    7.4403    1.5700 H   0  0  0  0  0  0  0  0  0  0  0  0
   -4.6248    3.3545   -1.9009 H   0  0  0  0  0  0  0  0  0  0  0  0
   -6.1288    3.7066   -2.5830 H   0  0  0  0  0  0  0  0  0  0  0  0
   -6.3812   -3.0774   -1.4414 H   0  0  0  0  0  0  0  0  0  0  0  0
   -7.2669   -1.7152   -2.1095 H   0  0  0  0  0  0  0  0  0  0  0  0
   -8.6412   -3.0233   -0.6024 H   0  0  0  0  0  0  0  0  0  0  0  0
   -8.4613   -1.4316    0.1553 H   0  0  0  0  0  0  0  0  0  0  0  0
   -6.8414   -2.2838    1.7438 H   0  0  0  0  0  0  0  0  0  0  0  0
   -7.0114   -3.9872    1.0794 H   0  0  0  0  0  0  0  0  0  0  0  0
   -8.3461   -3.7477    2.9635 H   0  0  0  0  0  0  0  0  0  0  0  0
   -9.0766   -2.2348    2.4142 H   0  0  0  0  0  0  0  0  0  0  0  0
   -9.4749   -3.8245    1.5870 H   0  0  0  0  0  0  0  0  0  0  0  0
  1  2  1  0
  2  3  1  0
  3  4  1  0
  4  5  1  0
  5  6  1  0
  6  7  2  0
  6  8  1  0
  8  9  1  0
  9 10  1  0
 10 11  2  0
 10 12  1  0
 12 13  1  0
 13 14  1  0
 14 15  2  0
 14 16  1  0
 13 17  1  0
 17 18  1  0
 18 19  2  0
 19 20  1  0
 20 21  2  0
 21 22  1  0
 22 23  2  0
  9 24  1  0
 24 25  1  0
 25 26  2  0
 25 27  1  0
  5 28  1  0
 28 29  1  0
 29 30  2  0
 29 31  1  0
 31 32  1  0
 32 33  1  0
 33 34  2  0
 34 35  1  0
 35 36  1  0
 36 37  2  0
 37 38  1  0
 38 39  2  0
 39 40  1  0
 40 41  2  0
 31 42  1  0
 42 43  1  0
 43 44  2  0
 43 45  1  0
 45 46  1  0
 46 47  1  0
 47 48  2  0
 47 49  1  0
 49 50  1  0
 50 51  1  0
 51 52  2  0
 51 53  1  0
 53 54  1  0
 54 55  1  0
 55 56  2  0
 56 57  1  0
 57 58  2  0
 58 59  1  0
 59 60  2  0
 58 61  1  0
 53 62  1  0
 49 63  1  0
 63 64  1  0
 64 65  1  0
 65 66  1  0
 23 18  1  0
 37 33  1  0
 60 55  1  0
 41 36  1  0
  1 67  1  0
  1 68  1  0
  1 69  1  0
  2 70  1  0
  2 71  1  0
  3 72  1  0
  3 73  1  0
  4 74  1  0
  4 75  1  0
  5 76  1  6
  8 77  1  0
  9 78  1  1
 12 79  1  0
 13 80  1  1
 16 81  1  0
 16 82  1  0
 17 83  1  0
 17 84  1  0
 19 85  1  0
 20 86  1  0
 21 87  1  0
 22 88  1  0
 23 89  1  0
 24 90  1  0
 24 91  1  0
 27 92  1  0
 28 93  1  0
 31 94  1  1
 32 95  1  0
 32 96  1  0
 34 97  1  0
 35 98  1  0
 38 99  1  0
 39100  1  0
 40101  1  0
 41102  1  0
 42103  1  0
 45104  1  0
 45105  1  0
 46106  1  0
 49107  1  6
 50108  1  0
 53109  1  1
 54110  1  0
 54111  1  0
 56112  1  0
 57113  1  0
 59114  1  0
 60115  1  0
 61116  1  0
 62117  1  0
 62118  1  0
 63119  1  0
 63120  1  0
 64121  1  0
 64122  1  0
 65123  1  0
 65124  1  0
 66125  1  0
 66126  1  0
 66127  1  0
M  END
>  <Ligand ID>  (1) 
LIG0001832

>  <Ligand>  (1) 
Tyr-D-Nle-Gly-Trp-Nle-Asp-Phe-NH2

>  <SMILES>  (1) 
CCCC[C@@H](C(=O)N[C@H](C(=O)N[C@H](C(=O)N)Cc1ccccc1)CC(=O)O)NC(=O)[C@H](Cc1c[nH]c2c1cccc2)NC(=O)CNC(=O)[C@H](NC(=O)[C@H](Cc1ccc(cc1)O)N)CCCC

>  <CID>  (1) 
11564210.0

>  <ChEMBL ID>  (1) 
nan

>  <InChiKey>  (1) 
YVOYRMXNVINXII-ULSNPNCNSA-N

>  <InChi>  (1) 
InChI=1S/C47H61N9O10/c1-3-5-15-35(53-43(62)33(48)22-29-18-20-31(57)21-19-29)44(63)51-27-40(58)52-38(24-30-26-50-34-17-11-10-14-32(30)34)46(65)54-36(16-6-4-2)45(64)56-39(25-41(59)60)47(66)55-37(42(49)61)23-28-12-8-7-9-13-28/h7-14,17-21,26,33,35-39,50,57H,3-6,15-16,22-25,27,48H2,1-2H3,(H2,49,61)(H,51,63)(H,52,58)(H,53,62)(H,54,65)(H,55,66)(H,56,64)(H,59,60)/t33-,35+,36-,37-,38-,39-/m0/s1

>  <IUPAC Name>  (1) 
(3S)-3-[[(2S)-2-[[(2S)-2-[[2-[[(2R)-2-[[(2S)-2-amino-3-(4-hydroxyphenyl)propanoyl]amino]hexanoyl]amino]acetyl]amino]-3-(1H-indol-3-yl)propanoyl]amino]hexanoyl]amino]-4-[[(2S)-1-amino-1-oxo-3-phenylpropan-2-yl]amino]-4-oxobutanoic acid

$$$$
