
     RDKit          3D

 73 74  0  0  0  0  0  0  0  0999 V2000
   10.1411   -0.2670    0.9219 C   0  0  0  0  0  0  0  0  0  0  0  0
    9.3069    0.6581    0.0644 C   0  0  0  0  0  0  0  0  0  0  0  0
    7.8211    0.6283    0.4941 C   0  0  0  0  0  0  0  0  0  0  0  0
    7.2649   -0.7363    0.3613 C   0  0  0  0  0  0  0  0  0  0  0  0
    5.8941   -1.0216    0.7696 C   0  0  0  0  0  0  0  0  0  0  0  0
    4.7056   -0.3953    0.1808 C   0  0  0  0  0  0  0  0  0  0  0  0
    4.4727    1.0529    0.2801 C   0  0  0  0  0  0  0  0  0  0  0  0
    3.1564    1.4266   -0.4008 C   0  0  0  0  0  0  0  0  0  0  0  0
    1.9505    0.7624    0.1955 C   0  0  0  0  0  0  0  0  0  0  0  0
    0.6720    1.1785   -0.5211 C   0  0  0  0  0  0  0  0  0  0  0  0
   -0.4710    0.5800    0.0037 O   0  0  0  0  0  0  0  0  0  0  0  0
   -0.6900   -0.7898    0.0697 C   0  0  0  0  0  0  0  0  0  0  0  0
    0.1596   -1.6030   -0.3531 O   0  0  0  0  0  0  0  0  0  0  0  0
   -1.9785   -1.2929    0.6640 C   0  0  0  0  0  0  0  0  0  0  0  0
   -2.9493   -1.5596   -0.3797 N   0  0  0  0  0  0  0  0  0  0  0  0
   -3.8682   -0.7488   -0.9267 C   0  0  0  0  0  0  0  0  0  0  0  0
   -4.1304    0.6683   -0.5920 C   0  0  0  0  0  0  0  0  0  0  0  0
   -5.0850    0.8408    0.4231 O   0  0  0  0  0  0  0  0  0  0  0  0
   -5.4113    2.1460    0.8063 C   0  0  0  0  0  0  0  0  0  0  0  0
   -4.8321    3.2513    0.2243 C   0  0  0  0  0  0  0  0  0  0  0  0
   -5.1634    4.5472    0.6109 C   0  0  0  0  0  0  0  0  0  0  0  0
   -6.1011    4.7171    1.6082 C   0  0  0  0  0  0  0  0  0  0  0  0
   -6.6910    3.6245    2.2023 C   0  0  0  0  0  0  0  0  0  0  0  0
   -6.3608    2.3372    1.8170 C   0  0  0  0  0  0  0  0  0  0  0  0
   -6.9980    1.1439    2.4633 C   0  0  0  0  0  0  0  0  0  0  0  0
   -4.5546   -1.4337   -1.8699 N   0  0  0  0  0  0  0  0  0  0  0  0
   -4.0727   -2.7057   -1.9339 C   0  0  0  0  0  0  0  0  0  0  0  0
   -3.0541   -2.7790   -0.9856 C   0  0  0  0  0  0  0  0  0  0  0  0
   -2.3795   -3.9714   -0.8302 C   0  0  0  0  0  0  0  0  0  0  0  0
   -2.6866   -5.1020   -1.5925 C   0  0  0  0  0  0  0  0  0  0  0  0
   -3.7102   -4.9983   -2.5327 C   0  0  0  0  0  0  0  0  0  0  0  0
   -4.3899   -3.8113   -2.6953 C   0  0  0  0  0  0  0  0  0  0  0  0
   -5.6357   -0.9544   -2.7111 C   0  0  0  0  0  0  0  0  0  0  0  0
    0.0000    0.0000    0.0000 Cl  0  0  0  0  0  0  0  0  0  0  0  0
   10.1278   -1.3127    0.5303 H   0  0  0  0  0  0  0  0  0  0  0  0
   11.1884    0.1288    0.8784 H   0  0  0  0  0  0  0  0  0  0  0  0
    9.7892   -0.2545    1.9747 H   0  0  0  0  0  0  0  0  0  0  0  0
    9.7032    1.6840    0.1941 H   0  0  0  0  0  0  0  0  0  0  0  0
    9.3714    0.3838   -0.9878 H   0  0  0  0  0  0  0  0  0  0  0  0
    7.7552    1.0231    1.5060 H   0  0  0  0  0  0  0  0  0  0  0  0
    7.3706    1.3792   -0.2160 H   0  0  0  0  0  0  0  0  0  0  0  0
    7.9441   -1.3989    1.0082 H   0  0  0  0  0  0  0  0  0  0  0  0
    7.5087   -1.1467   -0.6701 H   0  0  0  0  0  0  0  0  0  0  0  0
    5.8748   -0.9650    1.9161 H   0  0  0  0  0  0  0  0  0  0  0  0
    5.7441   -2.1632    0.6468 H   0  0  0  0  0  0  0  0  0  0  0  0
    4.5651   -0.7576   -0.8904 H   0  0  0  0  0  0  0  0  0  0  0  0
    3.8192   -0.8901    0.7196 H   0  0  0  0  0  0  0  0  0  0  0  0
    5.2275    1.6603   -0.2159 H   0  0  0  0  0  0  0  0  0  0  0  0
    4.4241    1.3229    1.3724 H   0  0  0  0  0  0  0  0  0  0  0  0
    3.2730    1.2830   -1.4810 H   0  0  0  0  0  0  0  0  0  0  0  0
    3.0074    2.5330   -0.2271 H   0  0  0  0  0  0  0  0  0  0  0  0
    1.8711    1.1507    1.2451 H   0  0  0  0  0  0  0  0  0  0  0  0
    2.0028   -0.3255    0.2625 H   0  0  0  0  0  0  0  0  0  0  0  0
    0.8430    0.9973   -1.6061 H   0  0  0  0  0  0  0  0  0  0  0  0
    0.5275    2.2846   -0.4194 H   0  0  0  0  0  0  0  0  0  0  0  0
   -1.7392   -2.2328    1.2233 H   0  0  0  0  0  0  0  0  0  0  0  0
   -2.3580   -0.5510    1.3690 H   0  0  0  0  0  0  0  0  0  0  0  0
   -3.1829    1.1395   -0.2061 H   0  0  0  0  0  0  0  0  0  0  0  0
   -4.3932    1.2519   -1.4973 H   0  0  0  0  0  0  0  0  0  0  0  0
   -4.0889    3.0745   -0.5659 H   0  0  0  0  0  0  0  0  0  0  0  0
   -4.6850    5.3853    0.1259 H   0  0  0  0  0  0  0  0  0  0  0  0
   -6.3530    5.7382    1.9032 H   0  0  0  0  0  0  0  0  0  0  0  0
   -7.4314    3.7568    2.9897 H   0  0  0  0  0  0  0  0  0  0  0  0
   -8.0756    1.3455    2.5459 H   0  0  0  0  0  0  0  0  0  0  0  0
   -6.5315    1.0010    3.4793 H   0  0  0  0  0  0  0  0  0  0  0  0
   -6.8385    0.2542    1.8489 H   0  0  0  0  0  0  0  0  0  0  0  0
   -1.5833   -4.0345   -0.0904 H   0  0  0  0  0  0  0  0  0  0  0  0
   -2.1380   -6.0412   -1.4531 H   0  0  0  0  0  0  0  0  0  0  0  0
   -3.9495   -5.8724   -3.1240 H   0  0  0  0  0  0  0  0  0  0  0  0
   -5.1821   -3.7312   -3.4229 H   0  0  0  0  0  0  0  0  0  0  0  0
   -5.5823    0.1430   -2.7775 H   0  0  0  0  0  0  0  0  0  0  0  0
   -6.6259   -1.2982   -2.3107 H   0  0  0  0  0  0  0  0  0  0  0  0
   -5.5312   -1.3381   -3.7535 H   0  0  0  0  0  0  0  0  0  0  0  0
  1  2  1  0
  2  3  1  0
  3  4  1  0
  4  5  1  0
  5  6  1  0
  6  7  1  0
  7  8  1  0
  8  9  1  0
  9 10  1  0
 10 11  1  0
 11 12  1  0
 12 13  2  0
 12 14  1  0
 14 15  1  0
 15 16  1  0
 16 17  1  0
 17 18  1  0
 18 19  1  0
 19 20  2  0
 20 21  1  0
 21 22  2  0
 22 23  1  0
 23 24  2  0
 24 25  1  0
 16 26  2  0
 26 27  1  0
 27 28  2  0
 28 29  1  0
 29 30  2  0
 30 31  1  0
 31 32  2  0
 26 33  1  0
 28 15  1  0
 24 19  1  0
 32 27  1  0
  1 35  1  0
  1 36  1  0
  1 37  1  0
  2 38  1  0
  2 39  1  0
  3 40  1  0
  3 41  1  0
  4 42  1  0
  4 43  1  0
  5 44  1  0
  5 45  1  0
  6 46  1  0
  6 47  1  0
  7 48  1  0
  7 49  1  0
  8 50  1  0
  8 51  1  0
  9 52  1  0
  9 53  1  0
 10 54  1  0
 10 55  1  0
 14 56  1  0
 14 57  1  0
 17 58  1  0
 17 59  1  0
 20 60  1  0
 21 61  1  0
 22 62  1  0
 23 63  1  0
 25 64  1  0
 25 65  1  0
 25 66  1  0
 29 67  1  0
 30 68  1  0
 31 69  1  0
 32 70  1  0
 33 71  1  0
 33 72  1  0
 33 73  1  0
M  CHG  2  26   1  34  -1
M  END
>  <Ligand ID>  (1) 
LIG0004287

>  <Ligand>  (1) 
MLS001209891

>  <SMILES>  (1) 
CCCCCCCCCCOC(=O)Cn1c(COc2ccccc2C)[n+](c2c1cccc2)C.[Cl-]

>  <CID>  (1) 
23724261.0

>  <ChEMBL ID>  (1) 
nan

>  <InChiKey>  (1) 
HBGGXKCNMVJMIB-UHFFFAOYSA-M

>  <InChi>  (1) 
InChI=1S/C28H39N2O3.ClH/c1-4-5-6-7-8-9-10-15-20-32-28(31)21-30-25-18-13-12-17-24(25)29(3)27(30)22-33-26-19-14-11-16-23(26)2;/h11-14,16-19H,4-10,15,20-22H2,1-3H3;1H/q+1;/p-1

>  <IUPAC Name>  (1) 
decyl 2-[3-methyl-2-[(2-methylphenoxy)methyl]benzimidazol-3-ium-1-yl]acetate;chloride

$$$$
