
     RDKit          3D

 30 31  0  0  0  0  0  0  0  0999 V2000
    4.5444   -1.7182   -0.0179 C   0  0  0  0  0  0  0  0  0  0  0  0
    3.1821   -1.5720    0.2418 O   0  0  0  0  0  0  0  0  0  0  0  0
    2.4566   -0.4104    0.1525 C   0  0  0  0  0  0  0  0  0  0  0  0
    2.9521    0.8112   -0.2098 C   0  0  0  0  0  0  0  0  0  0  0  0
    2.1583    1.9390   -0.2774 C   0  0  0  0  0  0  0  0  0  0  0  0
    0.8026    1.8753    0.0250 C   0  0  0  0  0  0  0  0  0  0  0  0
    0.2896    0.6458    0.3926 C   0  0  0  0  0  0  0  0  0  0  0  0
    1.1024   -0.4755    0.4549 C   0  0  0  0  0  0  0  0  0  0  0  0
   -1.0300    0.8358    0.6341 N   0  0  0  0  0  0  0  0  0  0  0  0
   -1.3249    2.1271    0.4257 N   0  0  0  0  0  0  0  0  0  0  0  0
   -0.2218    2.7775    0.0539 C   0  0  0  0  0  0  0  0  0  0  0  0
   -1.9566   -0.1997    1.0492 C   0  0  0  0  0  0  0  0  0  0  0  0
   -2.5981   -0.8783   -0.1536 C   0  0  1  0  0  0  0  0  0  0  0  0
   -3.4962   -1.8864    0.4269 N   0  0  0  0  0  0  0  0  0  0  0  0
   -3.4795    0.1033   -0.8993 C   0  0  0  0  0  0  0  0  0  0  0  0
    4.7162   -2.5493   -0.7459 H   0  0  0  0  0  0  0  0  0  0  0  0
    5.0521   -0.8387   -0.4334 H   0  0  0  0  0  0  0  0  0  0  0  0
    5.0740   -2.0626    0.9169 H   0  0  0  0  0  0  0  0  0  0  0  0
    3.9831    0.8987   -0.4480 H   0  0  0  0  0  0  0  0  0  0  0  0
    2.5970    2.8876   -0.5703 H   0  0  0  0  0  0  0  0  0  0  0  0
    0.6215   -1.4001    0.7516 H   0  0  0  0  0  0  0  0  0  0  0  0
   -0.1240    3.8273   -0.1875 H   0  0  0  0  0  0  0  0  0  0  0  0
   -1.3613   -1.0091    1.5598 H   0  0  0  0  0  0  0  0  0  0  0  0
   -2.7338    0.1888    1.7160 H   0  0  0  0  0  0  0  0  0  0  0  0
   -1.8391   -1.3370   -0.8005 H   0  0  0  0  0  0  0  0  0  0  0  0
   -4.2359   -2.1722   -0.2392 H   0  0  0  0  0  0  0  0  0  0  0  0
   -3.9843   -1.3717    1.2194 H   0  0  0  0  0  0  0  0  0  0  0  0
   -2.9252    0.4689   -1.7647 H   0  0  0  0  0  0  0  0  0  0  0  0
   -3.8225    0.9078   -0.2147 H   0  0  0  0  0  0  0  0  0  0  0  0
   -4.3988   -0.4131   -1.2621 H   0  0  0  0  0  0  0  0  0  0  0  0
  1  2  1  0
  2  3  1  0
  3  4  2  0
  4  5  1  0
  5  6  2  0
  6  7  1  0
  7  8  2  0
  7  9  1  0
  9 10  1  0
 10 11  2  0
  9 12  1  0
 12 13  1  0
 13 14  1  0
 13 15  1  0
  8  3  1  0
 11  6  1  0
  1 16  1  0
  1 17  1  0
  1 18  1  0
  4 19  1  0
  5 20  1  0
  8 21  1  0
 11 22  1  0
 12 23  1  0
 12 24  1  0
 13 25  1  6
 14 26  1  0
 14 27  1  0
 15 28  1  0
 15 29  1  0
 15 30  1  0
M  END
>  <Ligand ID>  (1) 
LIG0002153

>  <Ligand>  (1) 
CHEMBL199775

>  <SMILES>  (1) 
COc1ccc2c(c1)n(nc2)C[C@@H](N)C

>  <CID>  (1) 
11708275.0

>  <ChEMBL ID>  (1) 
nan

>  <InChiKey>  (1) 
WSEWULCWBQDNEH-QMMMGPOBSA-N

>  <InChi>  (1) 
InChI=1S/C11H15N3O/c1-8(12)7-14-11-5-10(15-2)4-3-9(11)6-13-14/h3-6,8H,7,12H2,1-2H3/t8-/m0/s1

>  <IUPAC Name>  (1) 
(2S)-1-(6-methoxyindazol-1-yl)propan-2-amine

$$$$
