
     RDKit          3D

 56 59  0  0  0  0  0  0  0  0999 V2000
   -9.5614    1.1147    0.2058 O   0  0  0  0  0  0  0  0  0  0  0  0
   -8.7805    0.1983    0.9144 C   0  0  0  0  0  0  0  0  0  0  0  0
   -9.3309   -0.7483    1.5243 O   0  0  0  0  0  0  0  0  0  0  0  0
   -7.3036    0.2892    0.9841 C   0  0  0  0  0  0  0  0  0  0  0  0
   -6.7312   -0.7357    0.0444 C   0  0  0  0  0  0  0  0  0  0  0  0
   -7.1738   -0.5014   -1.3847 C   0  0  0  0  0  0  0  0  0  0  0  0
   -6.2325    0.6275   -1.7974 C   0  0  0  0  0  0  0  0  0  0  0  0
   -5.0101    0.2584   -1.1159 N   0  0  0  0  0  0  0  0  0  0  0  0
   -5.2743   -0.5257   -0.0538 C   0  0  0  0  0  0  0  0  0  0  0  0
   -4.0916   -0.8681    0.5851 C   0  0  0  0  0  0  0  0  0  0  0  0
   -3.0840   -0.2580   -0.1334 C   0  0  0  0  0  0  0  0  0  0  0  0
   -3.6621    0.4340   -1.1802 C   0  0  0  0  0  0  0  0  0  0  0  0
   -2.8314    1.1310   -2.0440 C   0  0  0  0  0  0  0  0  0  0  0  0
   -1.4619    1.1411   -1.8735 C   0  0  0  0  0  0  0  0  0  0  0  0
   -0.9050    0.4392   -0.8158 C   0  0  0  0  0  0  0  0  0  0  0  0
   -1.7146   -0.2718    0.0704 C   0  0  0  0  0  0  0  0  0  0  0  0
    0.4735    0.4210   -0.6047 O   0  0  0  0  0  0  0  0  0  0  0  0
    1.0708   -0.2809    0.4581 C   0  0  0  0  0  0  0  0  0  0  0  0
    2.5289   -0.1367    0.4528 C   0  0  0  0  0  0  0  0  0  0  0  0
    3.1324    0.8842    1.1320 C   0  0  0  0  0  0  0  0  0  0  0  0
    4.4848    1.0017    1.1154 C   0  0  0  0  0  0  0  0  0  0  0  0
    5.3387    0.1099    0.4200 C   0  0  0  0  0  0  0  0  0  0  0  0
    4.7199   -0.9062   -0.2544 C   0  0  0  0  0  0  0  0  0  0  0  0
    3.3261   -1.0182   -0.2309 C   0  0  0  0  0  0  0  0  0  0  0  0
    5.4451   -1.9299   -1.0252 C   0  0  0  0  0  0  0  0  0  0  0  0
    6.3220   -2.6804   -0.2689 F   0  0  0  0  0  0  0  0  0  0  0  0
    6.1265   -1.3806   -2.0773 F   0  0  0  0  0  0  0  0  0  0  0  0
    4.5283   -2.8300   -1.6023 F   0  0  0  0  0  0  0  0  0  0  0  0
    6.6269    0.3447    0.4908 O   0  0  0  0  0  0  0  0  0  0  0  0
    7.8679    0.0425    0.1798 C   0  0  0  0  0  0  0  0  0  0  0  0
    8.6535   -0.2204    1.4978 C   0  0  0  0  0  0  0  0  0  0  0  0
    8.5988    1.2913   -0.3976 C   0  0  0  0  0  0  0  0  0  0  0  0
  -10.4792    0.8453   -0.1652 H   0  0  0  0  0  0  0  0  0  0  0  0
   -6.9888    0.0130    2.0074 H   0  0  0  0  0  0  0  0  0  0  0  0
   -6.9101    1.3033    0.7725 H   0  0  0  0  0  0  0  0  0  0  0  0
   -6.9989   -1.7484    0.4032 H   0  0  0  0  0  0  0  0  0  0  0  0
   -6.8999   -1.4048   -1.9637 H   0  0  0  0  0  0  0  0  0  0  0  0
   -8.2374   -0.2232   -1.4793 H   0  0  0  0  0  0  0  0  0  0  0  0
   -6.5583    1.5999   -1.4211 H   0  0  0  0  0  0  0  0  0  0  0  0
   -6.1028    0.6562   -2.8996 H   0  0  0  0  0  0  0  0  0  0  0  0
   -3.9952   -1.4860    1.4630 H   0  0  0  0  0  0  0  0  0  0  0  0
   -3.3204    1.6609   -2.8517 H   0  0  0  0  0  0  0  0  0  0  0  0
   -0.8475    1.6953   -2.5667 H   0  0  0  0  0  0  0  0  0  0  0  0
   -1.2408   -0.8071    0.8838 H   0  0  0  0  0  0  0  0  0  0  0  0
    0.8242   -1.3630    0.3018 H   0  0  0  0  0  0  0  0  0  0  0  0
    0.6143   -0.0281    1.4477 H   0  0  0  0  0  0  0  0  0  0  0  0
    2.5243    1.5968    1.6822 H   0  0  0  0  0  0  0  0  0  0  0  0
    4.9183    1.8350    1.6741 H   0  0  0  0  0  0  0  0  0  0  0  0
    2.8105   -1.8207   -0.7619 H   0  0  0  0  0  0  0  0  0  0  0  0
    8.1222   -0.8149   -0.4830 H   0  0  0  0  0  0  0  0  0  0  0  0
    9.6455   -0.5973    1.2531 H   0  0  0  0  0  0  0  0  0  0  0  0
    8.0541   -0.8400    2.1859 H   0  0  0  0  0  0  0  0  0  0  0  0
    8.7660    0.7803    1.9619 H   0  0  0  0  0  0  0  0  0  0  0  0
    8.2776    2.1841    0.1796 H   0  0  0  0  0  0  0  0  0  0  0  0
    8.2348    1.4147   -1.4243 H   0  0  0  0  0  0  0  0  0  0  0  0
    9.6923    1.1121   -0.3344 H   0  0  0  0  0  0  0  0  0  0  0  0
  1  2  1  0
  2  3  2  0
  2  4  1  0
  4  5  1  0
  5  6  1  0
  6  7  1  0
  7  8  1  0
  8  9  1  0
  9 10  2  0
 10 11  1  0
 11 12  2  0
 12 13  1  0
 13 14  2  0
 14 15  1  0
 15 16  2  0
 15 17  1  0
 17 18  1  0
 18 19  1  0
 19 20  2  0
 20 21  1  0
 21 22  2  0
 22 23  1  0
 23 24  2  0
 23 25  1  0
 25 26  1  0
 25 27  1  0
 25 28  1  0
 22 29  1  0
 29 30  1  0
 30 31  1  0
 30 32  1  0
  9  5  1  0
 16 11  1  0
 24 19  1  0
 12  8  1  0
  1 33  1  0
  4 34  1  0
  4 35  1  0
  5 36  1  0
  6 37  1  0
  6 38  1  0
  7 39  1  0
  7 40  1  0
 10 41  1  0
 13 42  1  0
 14 43  1  0
 16 44  1  0
 18 45  1  0
 18 46  1  0
 20 47  1  0
 21 48  1  0
 24 49  1  0
 30 50  1  0
 31 51  1  0
 31 52  1  0
 31 53  1  0
 32 54  1  0
 32 55  1  0
 32 56  1  0
M  END
>  <Ligand ID>  (1) 
LIG0001535

>  <Ligand>  (1) 
CHEMBL3359519

>  <SMILES>  (1) 
OC(=O)CC1CCn2c1cc1c2ccc(c1)OCc1ccc(c(c1)C(F)(F)F)OC(C)C

>  <CID>  (1) 
58329611.0

>  <ChEMBL ID>  (1) 
nan

>  <InChiKey>  (1) 
BCGUKCVQRODEEB-UHFFFAOYSA-N

>  <InChi>  (1) 
InChI=1S/C24H24F3NO4/c1-14(2)32-22-6-3-15(9-19(22)24(25,26)27)13-31-18-4-5-20-17(10-18)11-21-16(12-23(29)30)7-8-28(20)21/h3-6,9-11,14,16H,7-8,12-13H2,1-2H3,(H,29,30)

>  <IUPAC Name>  (1) 
2-[6-[[4-propan-2-yloxy-3-(trifluoromethyl)phenyl]methoxy]-2,3-dihydro-1H-pyrrolo[1,2-a]indol-3-yl]acetic acid

$$$$
