
     RDKit          3D

 82 83  0  0  0  0  0  0  0  0999 V2000
   10.3598   -2.4869    0.9016 O   0  0  0  0  0  0  0  0  0  0  0  0
    9.4343   -1.5639    1.3622 C   0  0  0  0  0  0  0  0  0  0  0  0
    8.8702   -0.7199    0.2519 C   0  0  0  0  0  0  0  0  0  0  0  0
    7.5792   -0.9827   -0.2078 C   0  0  0  0  0  0  0  0  0  0  0  0
    7.0230   -0.2296   -1.2182 C   0  0  0  0  0  0  0  0  0  0  0  0
    7.7594    0.7928   -1.7726 C   0  0  0  0  0  0  0  0  0  0  0  0
    9.0463    1.0661   -1.3245 C   0  0  0  0  0  0  0  0  0  0  0  0
    9.6045    0.3040   -0.3058 C   0  0  0  0  0  0  0  0  0  0  0  0
   10.8765    0.5123    0.1943 O   0  0  0  0  0  0  0  0  0  0  0  0
    5.6450   -0.5810   -1.6664 C   0  0  2  0  0  0  0  0  0  0  0  0
    4.7518   -0.1942   -0.4515 C   0  0  0  0  0  0  0  0  0  0  0  0
    4.8913    1.1955   -0.2962 N   0  0  0  0  0  0  0  0  0  0  0  0
    4.3080    1.8973    0.7486 C   0  0  0  0  0  0  0  0  0  0  0  0
    2.8553    2.1361    0.8222 C   0  0  0  0  0  0  0  0  0  0  0  0
    1.9794    0.9464    0.8582 C   0  0  0  0  0  0  0  0  0  0  0  0
    0.5068    1.3990    1.0506 C   0  0  0  0  0  0  0  0  0  0  0  0
   -0.4009    0.1845    1.1138 C   0  0  0  0  0  0  0  0  0  0  0  0
   -0.3792   -0.6478   -0.1526 C   0  0  0  0  0  0  0  0  0  0  0  0
   -0.8004   -0.0307   -1.2543 O   0  0  0  0  0  0  0  0  0  0  0  0
   -2.0601    0.3664   -1.4886 C   0  0  0  0  0  0  0  0  0  0  0  0
   -3.1250   -0.6244   -1.7179 C   0  0  0  0  0  0  0  0  0  0  0  0
   -3.5211   -1.6204   -0.7276 C   0  0  0  0  0  0  0  0  0  0  0  0
   -4.0851   -1.1801    0.5712 C   0  0  0  0  0  0  0  0  0  0  0  0
   -5.3720   -0.4324    0.4586 C   0  0  0  0  0  0  0  0  0  0  0  0
   -5.4585    0.9239    0.2543 C   0  0  0  0  0  0  0  0  0  0  0  0
   -6.7112    1.5494    0.1770 C   0  0  0  0  0  0  0  0  0  0  0  0
   -7.8695    0.8201    0.3046 C   0  0  0  0  0  0  0  0  0  0  0  0
   -7.8029   -0.5380    0.5096 C   0  0  0  0  0  0  0  0  0  0  0  0
   -6.5660   -1.1337    0.5819 C   0  0  0  0  0  0  0  0  0  0  0  0
   -9.2320   -1.5229    0.7038 S   0  0  0  0  0  0  0  0  0  0  0  0
   -9.4803   -1.7928    2.1634 O   0  0  0  0  0  0  0  0  0  0  0  0
   -9.0537   -2.8247   -0.0506 O   0  0  0  0  0  0  0  0  0  0  0  0
  -10.6049   -0.6473    0.0062 C   0  0  0  0  0  0  0  0  0  0  0  0
  -10.0769    0.5694   -0.7162 C   0  0  0  0  0  0  0  0  0  0  0  0
   -9.2352    1.4108    0.2285 C   0  0  0  0  0  0  0  0  0  0  0  0
    5.5523   -1.9312   -1.8999 O   0  0  0  0  0  0  0  0  0  0  0  0
    0.8135   -0.4419   -0.3068 O   0  0  0  0  0  0  0  0  0  0  0  0
   -0.4824   -0.0464   -0.0166 C   0  0  0  0  0  0  0  0  0  0  0  0
   -0.6426    1.1809    0.2728 O   0  0  0  0  0  0  0  0  0  0  0  0
    9.9456   -3.0519    0.2053 H   0  0  0  0  0  0  0  0  0  0  0  0
    9.9518   -0.8853    2.0704 H   0  0  0  0  0  0  0  0  0  0  0  0
    8.6042   -2.0670    1.9063 H   0  0  0  0  0  0  0  0  0  0  0  0
    7.0704   -1.7954    0.2858 H   0  0  0  0  0  0  0  0  0  0  0  0
    7.3179    1.3816   -2.5639 H   0  0  0  0  0  0  0  0  0  0  0  0
    9.6391    1.8742   -1.7529 H   0  0  0  0  0  0  0  0  0  0  0  0
   11.1113    1.4330    0.5350 H   0  0  0  0  0  0  0  0  0  0  0  0
    5.3104   -0.0190   -2.5342 H   0  0  0  0  0  0  0  0  0  0  0  0
    3.7572   -0.5996   -0.6138 H   0  0  0  0  0  0  0  0  0  0  0  0
    5.1983   -0.7264    0.4345 H   0  0  0  0  0  0  0  0  0  0  0  0
    4.8111    1.7107   -1.1953 H   0  0  0  0  0  0  0  0  0  0  0  0
    4.7852    2.9475    0.8316 H   0  0  0  0  0  0  0  0  0  0  0  0
    4.6272    1.4521    1.7725 H   0  0  0  0  0  0  0  0  0  0  0  0
    2.5686    2.7803    1.7011 H   0  0  0  0  0  0  0  0  0  0  0  0
    2.5775    2.7147   -0.1158 H   0  0  0  0  0  0  0  0  0  0  0  0
    2.2495    0.1306    1.5221 H   0  0  0  0  0  0  0  0  0  0  0  0
    1.9339    0.5629   -0.2165 H   0  0  0  0  0  0  0  0  0  0  0  0
    0.4995    1.8692    2.0471 H   0  0  0  0  0  0  0  0  0  0  0  0
    0.2518    2.1284    0.2860 H   0  0  0  0  0  0  0  0  0  0  0  0
   -1.4123    0.4500    1.4200 H   0  0  0  0  0  0  0  0  0  0  0  0
    0.0228   -0.4699    1.9213 H   0  0  0  0  0  0  0  0  0  0  0  0
    0.6958   -0.9651   -0.3287 H   0  0  0  0  0  0  0  0  0  0  0  0
   -0.8591   -1.6089    0.1416 H   0  0  0  0  0  0  0  0  0  0  0  0
   -2.0268    0.9981   -2.4352 H   0  0  0  0  0  0  0  0  0  0  0  0
   -2.3211    1.1359   -0.7161 H   0  0  0  0  0  0  0  0  0  0  0  0
   -2.7866   -1.2218   -2.6362 H   0  0  0  0  0  0  0  0  0  0  0  0
   -4.0705   -0.1465   -2.1275 H   0  0  0  0  0  0  0  0  0  0  0  0
   -2.8381   -2.4993   -0.5799 H   0  0  0  0  0  0  0  0  0  0  0  0
   -4.4203   -2.1741   -1.2240 H   0  0  0  0  0  0  0  0  0  0  0  0
   -3.4059   -0.6662    1.2655 H   0  0  0  0  0  0  0  0  0  0  0  0
   -4.3436   -2.1384    1.1242 H   0  0  0  0  0  0  0  0  0  0  0  0
   -4.5526    1.4866    0.1513 H   0  0  0  0  0  0  0  0  0  0  0  0
   -6.7968    2.5954    0.0186 H   0  0  0  0  0  0  0  0  0  0  0  0
   -6.5400   -2.2199    0.7445 H   0  0  0  0  0  0  0  0  0  0  0  0
  -11.1819   -1.3038   -0.6791 H   0  0  0  0  0  0  0  0  0  0  0  0
  -11.2447   -0.2674    0.8305 H   0  0  0  0  0  0  0  0  0  0  0  0
  -10.9157    1.1827   -1.1182 H   0  0  0  0  0  0  0  0  0  0  0  0
   -9.4541    0.2338   -1.5828 H   0  0  0  0  0  0  0  0  0  0  0  0
   -9.7175    1.4379    1.2243 H   0  0  0  0  0  0  0  0  0  0  0  0
   -9.2408    2.4431   -0.1773 H   0  0  0  0  0  0  0  0  0  0  0  0
    5.9908   -2.5121   -1.2525 H   0  0  0  0  0  0  0  0  0  0  0  0
    1.5913    0.0552    0.0920 H   0  0  0  0  0  0  0  0  0  0  0  0
   -1.2798   -0.7478   -0.0414 H   0  0  0  0  0  0  0  0  0  0  0  0
  1  2  1  0
  2  3  1  0
  3  4  2  0
  4  5  1  0
  5  6  2  0
  6  7  1  0
  7  8  2  0
  8  9  1  0
  5 10  1  0
 10 11  1  0
 11 12  1  0
 12 13  1  0
 13 14  1  0
 14 15  1  0
 15 16  1  0
 16 17  1  0
 17 18  1  0
 18 19  1  0
 19 20  1  0
 20 21  1  0
 21 22  1  0
 22 23  1  0
 23 24  1  0
 24 25  2  0
 25 26  1  0
 26 27  2  0
 27 28  1  0
 28 29  2  0
 28 30  1  0
 30 31  2  0
 30 32  2  0
 30 33  1  0
 33 34  1  0
 34 35  1  0
 10 36  1  0
 37 38  1  0
 38 39  2  0
  8  3  1  0
 29 24  1  0
 35 27  1  0
  1 40  1  0
  2 41  1  0
  2 42  1  0
  4 43  1  0
  6 44  1  0
  7 45  1  0
  9 46  1  0
 10 47  1  6
 11 48  1  0
 11 49  1  0
 12 50  1  0
 13 51  1  0
 13 52  1  0
 14 53  1  0
 14 54  1  0
 15 55  1  0
 15 56  1  0
 16 57  1  0
 16 58  1  0
 17 59  1  0
 17 60  1  0
 18 61  1  0
 18 62  1  0
 20 63  1  0
 20 64  1  0
 21 65  1  0
 21 66  1  0
 22 67  1  0
 22 68  1  0
 23 69  1  0
 23 70  1  0
 25 71  1  0
 26 72  1  0
 29 73  1  0
 33 74  1  0
 33 75  1  0
 34 76  1  0
 34 77  1  0
 35 78  1  0
 35 79  1  0
 36 80  1  0
 37 81  1  0
 38 82  1  0
M  END
>  <Ligand ID>  (1) 
LIG0002997

>  <Ligand>  (1) 
SCHEMBL5452171

>  <SMILES>  (1) 
OCc1cc(ccc1O)[C@H](CNCCCCCCOCCCCc1ccc2c(c1)S(=O)(=O)CCC2)O.OC=O

>  <CID>  (1) 
69447283.0

>  <ChEMBL ID>  (1) 
nan

>  <InChiKey>  (1) 
UCSRCNDVOKNFMP-YCBFMBTMSA-N

>  <InChi>  (1) 
InChI=1S/C28H41NO6S.CH2O2/c30-21-25-19-24(12-13-26(25)31)27(32)20-29-14-4-1-2-5-15-35-16-6-3-8-22-10-11-23-9-7-17-36(33,34)28(23)18-22;2-1-3/h10-13,18-19,27,29-32H,1-9,14-17,20-21H2;1H,(H,2,3)/t27-;/m0./s1

>  <IUPAC Name>  (1) 
4-[(1R)-2-[6-[4-(1,1-dioxo-3,4-dihydro-2H-thiochromen-7-yl)butoxy]hexylamino]-1-hydroxyethyl]-2-(hydroxymethyl)phenol;formic acid

$$$$
