
     RDKit          3D

145150  0  0  0  0  0  0  0  0999 V2000
   11.6531    3.7022   -0.1313 C   0  0  0  0  0  0  0  0  0  0  0  0
   10.2023    3.1913   -0.0256 C   0  0  0  0  0  0  0  0  0  0  0  0
   10.2335    1.7762    0.4246 C   0  0  0  0  0  0  0  0  0  0  0  0
    8.8961    1.1560    0.6036 C   0  0  0  0  0  0  0  0  0  0  0  0
    8.0486    1.0233   -0.5869 C   0  0  1  0  0  0  0  0  0  0  0  0
    6.7248    0.3484   -0.2418 C   0  0  0  0  0  0  0  0  0  0  0  0
    6.8053   -0.5694    0.6153 O   0  0  0  0  0  0  0  0  0  0  0  0
    5.5003    0.7396   -0.8595 N   0  0  0  0  0  0  0  0  0  0  0  0
    4.3222    0.0685   -0.4857 C   0  0  1  0  0  0  0  0  0  0  0  0
    3.1254    0.9577   -0.5472 C   0  0  0  0  0  0  0  0  0  0  0  0
    2.8518    1.9950    0.4263 C   0  0  0  0  0  0  0  0  0  0  0  0
    3.8281    3.0698    0.7296 C   0  0  0  0  0  0  0  0  0  0  0  0
    3.2174    4.0680    1.6748 C   0  0  0  0  0  0  0  0  0  0  0  0
    3.5384    5.2065    2.2817 N   0  0  0  0  0  0  0  0  0  0  0  0
    2.4702    5.6566    2.9751 N   0  0  0  0  0  0  0  0  0  0  0  0
    1.4790    4.8512    2.8365 N   0  0  0  0  0  0  0  0  0  0  0  0
    1.8836    3.8484    2.0462 C   0  0  0  0  0  0  0  0  0  0  0  0
    0.0469    4.7688    3.2436 C   0  0  0  0  0  0  0  0  0  0  0  0
   -0.7719    4.5668    2.0083 C   0  0  0  0  0  0  0  0  0  0  0  0
   -2.2587    4.4355    2.3295 C   0  0  2  0  0  0  0  0  0  0  0  0
   -2.9137    4.1609    1.0176 N   0  0  0  0  0  0  0  0  0  0  0  0
   -3.4295    2.8435    0.7298 C   0  0  0  0  0  0  0  0  0  0  0  0
   -3.4097    2.0643    1.6836 O   0  0  0  0  0  0  0  0  0  0  0  0
   -3.9388    2.4967   -0.6465 C   0  0  1  0  0  0  0  0  0  0  0  0
   -4.3525    1.1153   -0.7227 N   0  0  0  0  0  0  0  0  0  0  0  0
   -3.4452    0.0357   -1.0495 C   0  0  0  0  0  0  0  0  0  0  0  0
   -2.2582    0.4079   -1.1197 O   0  0  0  0  0  0  0  0  0  0  0  0
   -3.8616   -1.3558   -1.2645 C   0  0  1  0  0  0  0  0  0  0  0  0
   -2.6699   -2.2359   -1.2314 N   0  0  0  0  0  0  0  0  0  0  0  0
   -2.3772   -3.1210   -0.1683 C   0  0  0  0  0  0  0  0  0  0  0  0
   -3.1516   -3.0919    0.8059 O   0  0  0  0  0  0  0  0  0  0  0  0
   -1.2508   -4.0682   -0.0882 C   0  0  2  0  0  0  0  0  0  0  0  0
   -0.2232   -3.9612   -1.0971 N   0  0  0  0  0  0  0  0  0  0  0  0
    0.9161   -3.1965   -0.7535 C   0  0  0  0  0  0  0  0  0  0  0  0
    0.8324   -2.6158    0.3682 O   0  0  0  0  0  0  0  0  0  0  0  0
    2.1619   -2.9700   -1.4958 C   0  0  1  0  0  0  0  0  0  0  0  0
    2.8880   -1.8858   -0.8470 N   0  0  0  0  0  0  0  0  0  0  0  0
    3.9032   -1.0836   -1.4025 C   0  0  0  0  0  0  0  0  0  0  0  0
    4.3455   -1.3485   -2.4860 O   0  0  0  0  0  0  0  0  0  0  0  0
    3.0589   -4.2326   -1.4286 C   0  0  0  0  0  0  0  0  0  0  0  0
    3.4148   -4.5708   -0.0469 C   0  0  0  0  0  0  0  0  0  0  0  0
    2.8205   -5.3528    0.8619 N   0  0  0  0  0  0  0  0  0  0  0  0
    3.4818   -5.3741    2.0217 C   0  0  0  0  0  0  0  0  0  0  0  0
    4.5475   -4.5751    1.8606 N   0  0  0  0  0  0  0  0  0  0  0  0
    4.5363   -4.0621    0.5942 C   0  0  0  0  0  0  0  0  0  0  0  0
   -1.8405   -5.4449   -0.1543 C   0  0  0  0  0  0  0  0  0  0  0  0
   -0.8979   -6.5564   -0.0808 C   0  0  0  0  0  0  0  0  0  0  0  0
   -0.5982   -7.0812    1.1686 C   0  0  0  0  0  0  0  0  0  0  0  0
    0.2802   -8.1365    1.3434 C   0  0  0  0  0  0  0  0  0  0  0  0
    0.9104   -8.7208    0.2364 C   0  0  0  0  0  0  0  0  0  0  0  0
    0.6150   -8.2009   -1.0144 C   0  0  0  0  0  0  0  0  0  0  0  0
   -0.2723   -7.1395   -1.1711 C   0  0  0  0  0  0  0  0  0  0  0  0
   -4.9440   -1.7493   -0.3250 C   0  0  0  0  0  0  0  0  0  0  0  0
   -5.5326   -3.1061   -0.4957 C   0  0  0  0  0  0  0  0  0  0  0  0
   -6.5772   -3.3593    0.6001 C   0  0  0  0  0  0  0  0  0  0  0  0
   -7.6433   -2.4095    0.5531 N   0  0  0  0  0  0  0  0  0  0  0  0
   -8.8856   -2.6908    0.5734 C   0  0  0  0  0  0  0  0  0  0  0  0
   -9.9333   -1.7412    0.5262 N   0  0  0  0  0  0  0  0  0  0  0  0
   -9.2251   -4.0888    0.6544 N   0  0  0  0  0  0  0  0  0  0  0  0
   -4.9038    3.4979   -1.1251 C   0  0  0  0  0  0  0  0  0  0  0  0
   -6.1384    3.7004   -0.3802 C   0  0  0  0  0  0  0  0  0  0  0  0
   -6.3280    4.7161    0.5618 C   0  0  0  0  0  0  0  0  0  0  0  0
   -7.5541    4.6368    1.0939 N   0  0  0  0  0  0  0  0  0  0  0  0
   -8.1738    3.6111    0.5361 C   0  0  0  0  0  0  0  0  0  0  0  0
   -7.3315    3.0100   -0.3786 C   0  0  0  0  0  0  0  0  0  0  0  0
   -7.8044    1.9387   -1.0647 C   0  0  0  0  0  0  0  0  0  0  0  0
   -9.0609    1.4316   -0.8930 C   0  0  0  0  0  0  0  0  0  0  0  0
   -9.9288    2.0103    0.0168 C   0  0  0  0  0  0  0  0  0  0  0  0
   -9.4620    3.1115    0.7296 C   0  0  0  0  0  0  0  0  0  0  0  0
   -2.7496    5.7134    2.8158 C   0  0  0  0  0  0  0  0  0  0  0  0
   -2.4021    6.0626    3.9978 O   0  0  0  0  0  0  0  0  0  0  0  0
   -3.5723    6.6332    2.1351 N   0  0  0  0  0  0  0  0  0  0  0  0
    7.8126    2.1531   -1.4210 N   0  0  0  0  0  0  0  0  0  0  0  0
    8.0688    2.0742   -2.8384 C   0  0  0  0  0  0  0  0  0  0  0  0
    8.5063    0.9974   -3.3586 O   0  0  0  0  0  0  0  0  0  0  0  0
    7.8040    3.2923   -3.6607 C   0  0  0  0  0  0  0  0  0  0  0  0
   12.2793    2.9974    0.4429 H   0  0  0  0  0  0  0  0  0  0  0  0
   11.9704    3.6465   -1.1817 H   0  0  0  0  0  0  0  0  0  0  0  0
   11.6850    4.7437    0.2816 H   0  0  0  0  0  0  0  0  0  0  0  0
    9.7542    3.4020   -0.9980 H   0  0  0  0  0  0  0  0  0  0  0  0
    9.6970    3.8099    0.7538 H   0  0  0  0  0  0  0  0  0  0  0  0
   10.8066    1.1524   -0.3378 H   0  0  0  0  0  0  0  0  0  0  0  0
   10.8149    1.6657    1.3956 H   0  0  0  0  0  0  0  0  0  0  0  0
    9.0930    0.0941    0.9739 H   0  0  0  0  0  0  0  0  0  0  0  0
    8.3349    1.6940    1.4408 H   0  0  0  0  0  0  0  0  0  0  0  0
    8.5645    0.2551   -1.2685 H   0  0  0  0  0  0  0  0  0  0  0  0
    5.5689    1.5241   -1.5714 H   0  0  0  0  0  0  0  0  0  0  0  0
    4.4775   -0.3807    0.5384 H   0  0  0  0  0  0  0  0  0  0  0  0
    3.0885    1.4659   -1.5915 H   0  0  0  0  0  0  0  0  0  0  0  0
    2.1713    0.3303   -0.6259 H   0  0  0  0  0  0  0  0  0  0  0  0
    2.4925    1.4926    1.3762 H   0  0  0  0  0  0  0  0  0  0  0  0
    1.8915    2.5714    0.0935 H   0  0  0  0  0  0  0  0  0  0  0  0
    3.9987    3.6514   -0.2197 H   0  0  0  0  0  0  0  0  0  0  0  0
    4.7958    2.7262    1.0929 H   0  0  0  0  0  0  0  0  0  0  0  0
    1.2773    3.0160    1.7820 H   0  0  0  0  0  0  0  0  0  0  0  0
   -0.1677    5.7290    3.7169 H   0  0  0  0  0  0  0  0  0  0  0  0
   -0.0753    3.9141    3.9184 H   0  0  0  0  0  0  0  0  0  0  0  0
   -0.4531    3.6936    1.4190 H   0  0  0  0  0  0  0  0  0  0  0  0
   -0.6796    5.4683    1.3550 H   0  0  0  0  0  0  0  0  0  0  0  0
   -2.3629    3.5762    3.0034 H   0  0  0  0  0  0  0  0  0  0  0  0
   -3.0347    4.8440    0.2895 H   0  0  0  0  0  0  0  0  0  0  0  0
   -2.9893    2.6421   -1.2638 H   0  0  0  0  0  0  0  0  0  0  0  0
   -5.2959    0.8172   -0.5357 H   0  0  0  0  0  0  0  0  0  0  0  0
   -4.3016   -1.5406   -2.2918 H   0  0  0  0  0  0  0  0  0  0  0  0
   -1.9915   -2.2367   -1.9993 H   0  0  0  0  0  0  0  0  0  0  0  0
   -0.8316   -3.9133    0.9371 H   0  0  0  0  0  0  0  0  0  0  0  0
   -0.2275   -4.3705   -2.0264 H   0  0  0  0  0  0  0  0  0  0  0  0
    1.9889   -2.8554   -2.5559 H   0  0  0  0  0  0  0  0  0  0  0  0
    2.6332   -1.6920    0.1306 H   0  0  0  0  0  0  0  0  0  0  0  0
    2.4780   -4.9989   -1.9730 H   0  0  0  0  0  0  0  0  0  0  0  0
    3.9262   -3.9950   -2.0672 H   0  0  0  0  0  0  0  0  0  0  0  0
    1.9511   -5.8785    0.6847 H   0  0  0  0  0  0  0  0  0  0  0  0
    3.2826   -5.8922    2.9507 H   0  0  0  0  0  0  0  0  0  0  0  0
    5.2898   -3.3807    0.1958 H   0  0  0  0  0  0  0  0  0  0  0  0
   -2.6846   -5.5829    0.5591 H   0  0  0  0  0  0  0  0  0  0  0  0
   -2.3506   -5.5073   -1.1667 H   0  0  0  0  0  0  0  0  0  0  0  0
   -1.0516   -6.6682    2.0403 H   0  0  0  0  0  0  0  0  0  0  0  0
    0.4741   -8.5041    2.3364 H   0  0  0  0  0  0  0  0  0  0  0  0
    1.5994   -9.5368    0.3482 H   0  0  0  0  0  0  0  0  0  0  0  0
    1.0980   -8.6458   -1.8966 H   0  0  0  0  0  0  0  0  0  0  0  0
   -0.4832   -6.7596   -2.1656 H   0  0  0  0  0  0  0  0  0  0  0  0
   -4.7824   -1.5222    0.7348 H   0  0  0  0  0  0  0  0  0  0  0  0
   -5.8110   -1.0428   -0.5990 H   0  0  0  0  0  0  0  0  0  0  0  0
   -4.8944   -3.9285   -0.6943 H   0  0  0  0  0  0  0  0  0  0  0  0
   -6.2151   -3.0711   -1.4397 H   0  0  0  0  0  0  0  0  0  0  0  0
   -7.0162   -4.3505    0.3980 H   0  0  0  0  0  0  0  0  0  0  0  0
   -6.0972   -3.2894    1.6164 H   0  0  0  0  0  0  0  0  0  0  0  0
  -10.0935   -1.0117    1.2777 H   0  0  0  0  0  0  0  0  0  0  0  0
  -10.6333   -1.6903   -0.2654 H   0  0  0  0  0  0  0  0  0  0  0  0
   -9.5938   -4.5257    1.5263 H   0  0  0  0  0  0  0  0  0  0  0  0
   -9.1079   -4.7081   -0.1679 H   0  0  0  0  0  0  0  0  0  0  0  0
   -5.2201    3.2074   -2.1765 H   0  0  0  0  0  0  0  0  0  0  0  0
   -4.3496    4.4608   -1.2976 H   0  0  0  0  0  0  0  0  0  0  0  0
   -5.5960    5.4404    0.8072 H   0  0  0  0  0  0  0  0  0  0  0  0
   -7.9070    5.3092    1.8275 H   0  0  0  0  0  0  0  0  0  0  0  0
   -7.1503    1.4734   -1.7877 H   0  0  0  0  0  0  0  0  0  0  0  0
   -9.4309    0.5829   -1.4401 H   0  0  0  0  0  0  0  0  0  0  0  0
  -10.9375    1.6444    0.1878 H   0  0  0  0  0  0  0  0  0  0  0  0
  -10.1319    3.5643    1.4338 H   0  0  0  0  0  0  0  0  0  0  0  0
   -3.4614    6.8027    1.1232 H   0  0  0  0  0  0  0  0  0  0  0  0
   -4.3254    7.1680    2.6605 H   0  0  0  0  0  0  0  0  0  0  0  0
    7.4357    3.0501   -0.9895 H   0  0  0  0  0  0  0  0  0  0  0  0
    8.5082    4.1102   -3.4113 H   0  0  0  0  0  0  0  0  0  0  0  0
    6.7511    3.6688   -3.5255 H   0  0  0  0  0  0  0  0  0  0  0  0
    7.8986    3.0248   -4.7290 H   0  0  0  0  0  0  0  0  0  0  0  0
  1  2  1  0
  2  3  1  0
  3  4  1  0
  4  5  1  0
  5  6  1  0
  6  7  2  0
  6  8  1  0
  8  9  1  0
  9 10  1  0
 10 11  1  0
 11 12  1  0
 12 13  1  0
 13 14  1  0
 14 15  2  0
 15 16  1  0
 16 17  1  0
 16 18  1  0
 18 19  1  0
 19 20  1  0
 20 21  1  0
 21 22  1  0
 22 23  2  0
 22 24  1  0
 24 25  1  0
 25 26  1  0
 26 27  2  0
 26 28  1  0
 28 29  1  0
 29 30  1  0
 30 31  2  0
 30 32  1  0
 32 33  1  0
 33 34  1  0
 34 35  2  0
 34 36  1  0
 36 37  1  0
 37 38  1  0
 38 39  2  0
 36 40  1  0
 40 41  1  0
 41 42  1  0
 42 43  1  0
 43 44  2  0
 44 45  1  0
 32 46  1  0
 46 47  1  0
 47 48  2  0
 48 49  1  0
 49 50  2  0
 50 51  1  0
 51 52  2  0
 28 53  1  0
 53 54  1  0
 54 55  1  0
 55 56  1  0
 56 57  2  3
 57 58  1  0
 57 59  1  0
 24 60  1  0
 60 61  1  0
 61 62  2  0
 62 63  1  0
 63 64  1  0
 64 65  2  0
 65 66  1  0
 66 67  2  0
 67 68  1  0
 68 69  2  0
 20 70  1  0
 70 71  2  0
 70 72  1  0
  5 73  1  0
 73 74  1  0
 74 75  2  0
 74 76  1  0
 38  9  1  0
 45 41  2  0
 52 47  1  0
 65 61  1  0
 17 13  2  0
 69 64  1  0
  1 77  1  0
  1 78  1  0
  1 79  1  0
  2 80  1  0
  2 81  1  0
  3 82  1  0
  3 83  1  0
  4 84  1  0
  4 85  1  0
  5 86  1  6
  8 87  1  0
  9 88  1  1
 10 89  1  0
 10 90  1  0
 11 91  1  0
 11 92  1  0
 12 93  1  0
 12 94  1  0
 17 95  1  0
 18 96  1  0
 18 97  1  0
 19 98  1  0
 19 99  1  0
 20100  1  1
 21101  1  0
 24102  1  6
 25103  1  0
 28104  1  6
 29105  1  0
 32106  1  1
 33107  1  0
 36108  1  6
 37109  1  0
 40110  1  0
 40111  1  0
 42112  1  0
 43113  1  0
 45114  1  0
 46115  1  0
 46116  1  0
 48117  1  0
 49118  1  0
 50119  1  0
 51120  1  0
 52121  1  0
 53122  1  0
 53123  1  0
 54124  1  0
 54125  1  0
 55126  1  0
 55127  1  0
 58128  1  0
 58129  1  0
 59130  1  0
 59131  1  0
 60132  1  0
 60133  1  0
 62134  1  0
 63135  1  0
 66136  1  0
 67137  1  0
 68138  1  0
 69139  1  0
 72140  1  0
 72141  1  0
 73142  1  0
 76143  1  0
 76144  1  0
 76145  1  0
M  END
>  <Ligand ID>  (1) 
LIG0001791

>  <Ligand>  (1) 
CHEMBL3358545

>  <SMILES>  (1) 
CCCC[C@@H](C(=O)N[C@H]1CCCc2nnn(c2)CC[C@H](NC(=O)[C@@H](NC(=O)[C@@H](NC(=O)[C@H](NC(=O)[C@@H](NC1=O)Cc1[nH]cnc1)Cc1ccccc1)CCCN=C(N)N)Cc1c[nH]c2c1cccc2)C(=O)N)NC(=O)C

>  <CID>  (1) 
118722937.0

>  <ChEMBL ID>  (1) 
nan

>  <InChiKey>  (1) 
OGFCDQWHBMDEHB-PMHRFVFWSA-N

>  <InChi>  (1) 
InChI=1S/C51H69N17O8/c1-3-4-16-38(59-30(2)69)45(71)61-39-18-10-14-33-28-68(67-66-33)22-20-37(44(52)70)60-49(75)42(24-32-26-57-36-17-9-8-15-35(32)36)64-47(73)40(19-11-21-56-51(53)54)62-48(74)41(23-31-12-6-5-7-13-31)63-50(76)43(65-46(39)72)25-34-27-55-29-58-34/h5-9,12-13,15,17,26-29,37-43,57H,3-4,10-11,14,16,18-25H2,1-2H3,(H2,52,70)(H,55,58)(H,59,69)(H,60,75)(H,61,71)(H,62,74)(H,63,76)(H,64,73)(H,65,72)(H4,53,54,56)/t37-,38-,39-,40-,41+,42-,43-/m0/s1

>  <IUPAC Name>  (1) 
(4S,7S,10S,13R,16S,19S)-19-[[(2S)-2-acetamidohexanoyl]amino]-13-benzyl-10-[3-(diaminomethylideneamino)propyl]-16-(1H-imidazol-5-ylmethyl)-7-(1H-indol-3-ylmethyl)-6,9,12,15,18-pentaoxo-1,5,8,11,14,17,24,25-octazabicyclo[21.2.1]hexacosa-23(26),24-diene-4-carboxamide

$$$$
