
     RDKit          3D

134139  0  0  0  0  0  0  0  0999 V2000
  -10.4364   -4.5829    0.5020 C   0  0  0  0  0  0  0  0  0  0  0  0
   -9.1867   -3.7823    0.7026 C   0  0  0  0  0  0  0  0  0  0  0  0
   -7.9733   -4.6323    0.3867 C   0  0  0  0  0  0  0  0  0  0  0  0
   -6.7136   -3.8468    0.5778 C   0  0  0  0  0  0  0  0  0  0  0  0
   -6.5940   -2.6363   -0.2885 C   0  0  1  0  0  0  0  0  0  0  0  0
   -5.3298   -1.8674   -0.0679 C   0  0  0  0  0  0  0  0  0  0  0  0
   -5.0210   -1.6494    1.1336 O   0  0  0  0  0  0  0  0  0  0  0  0
   -4.5190   -1.4046   -1.1645 N   0  0  0  0  0  0  0  0  0  0  0  0
   -3.3316   -0.6736   -0.7946 C   0  0  1  0  0  0  0  0  0  0  0  0
   -2.1179   -1.2979   -1.4749 C   0  0  0  0  0  0  0  0  0  0  0  0
   -1.7680   -2.6104   -0.8798 C   0  0  0  0  0  0  0  0  0  0  0  0
   -2.0322   -2.7987    0.3053 O   0  0  0  0  0  0  0  0  0  0  0  0
   -1.1488   -3.6724   -1.5867 N   0  0  0  0  0  0  0  0  0  0  0  0
   -0.7453   -4.9369   -1.0672 C   0  0  0  0  0  0  0  0  0  0  0  0
    0.4666   -4.9219   -0.2436 C   0  0  0  0  0  0  0  0  0  0  0  0
    0.5786   -3.9033    0.8460 C   0  0  0  0  0  0  0  0  0  0  0  0
    1.8947   -4.1642    1.6015 C   0  0  0  0  0  0  0  0  0  0  0  0
    2.3190   -3.1189    2.5521 C   0  0  2  0  0  0  0  0  0  0  0  0
    2.8087   -1.8753    1.9806 N   0  0  0  0  0  0  0  0  0  0  0  0
    3.9857   -1.8713    1.1171 C   0  0  0  0  0  0  0  0  0  0  0  0
    4.3885   -3.0299    0.8840 O   0  0  0  0  0  0  0  0  0  0  0  0
    4.6531   -0.7369    0.5570 C   0  0  1  0  0  0  0  0  0  0  0  0
    4.5192    0.5872    1.0887 N   0  0  0  0  0  0  0  0  0  0  0  0
    4.2716    1.7301    0.2122 C   0  0  0  0  0  0  0  0  0  0  0  0
    4.0863    1.4200   -0.9562 O   0  0  0  0  0  0  0  0  0  0  0  0
    4.2429    3.1069    0.6630 C   0  0  1  0  0  0  0  0  0  0  0  0
    3.0600    3.5949    1.3179 N   0  0  0  0  0  0  0  0  0  0  0  0
    1.9176    4.0163    0.5878 C   0  0  0  0  0  0  0  0  0  0  0  0
    1.9961    3.8237   -0.6369 O   0  0  0  0  0  0  0  0  0  0  0  0
    0.7070    4.6270    1.1742 C   0  0  2  0  0  0  0  0  0  0  0  0
   -0.3622    4.5848    0.1950 N   0  0  0  0  0  0  0  0  0  0  0  0
   -1.1410    3.3985    0.1827 C   0  0  0  0  0  0  0  0  0  0  0  0
   -0.7221    2.5032    0.9827 O   0  0  0  0  0  0  0  0  0  0  0  0
   -2.3196    3.0559   -0.6008 C   0  0  1  0  0  0  0  0  0  0  0  0
   -2.4765    1.5972   -0.3658 N   0  0  0  0  0  0  0  0  0  0  0  0
   -3.3596    0.7742   -1.1164 C   0  0  0  0  0  0  0  0  0  0  0  0
   -4.0652    1.3365   -1.9456 O   0  0  0  0  0  0  0  0  0  0  0  0
   -3.5630    3.7159    0.0521 C   0  0  0  0  0  0  0  0  0  0  0  0
   -3.4361    5.1531    0.1030 C   0  0  0  0  0  0  0  0  0  0  0  0
   -2.9263    5.9014    1.1430 C   0  0  0  0  0  0  0  0  0  0  0  0
   -3.0040    7.1932    0.8352 N   0  0  0  0  0  0  0  0  0  0  0  0
   -3.5569    7.2776   -0.3893 C   0  0  0  0  0  0  0  0  0  0  0  0
   -3.8265    6.0209   -0.8478 N   0  0  0  0  0  0  0  0  0  0  0  0
    0.9053    6.0103    1.6637 C   0  0  0  0  0  0  0  0  0  0  0  0
    1.3838    6.9405    0.6155 C   0  0  0  0  0  0  0  0  0  0  0  0
    2.7662    7.0391    0.4656 C   0  0  0  0  0  0  0  0  0  0  0  0
    3.3327    7.8700   -0.4773 C   0  0  0  0  0  0  0  0  0  0  0  0
    2.5496    8.6367   -1.3097 C   0  0  0  0  0  0  0  0  0  0  0  0
    1.1679    8.5423   -1.1649 C   0  0  0  0  0  0  0  0  0  0  0  0
    0.5982    7.6979   -0.2066 C   0  0  0  0  0  0  0  0  0  0  0  0
    3.2734    9.6799   -2.4959 Cl  0  0  0  0  0  0  0  0  0  0  0  0
    3.2488    3.5230    2.7255 C   0  0  0  0  0  0  0  0  0  0  0  0
    4.7047    4.0046    2.8139 C   0  0  0  0  0  0  0  0  0  0  0  0
    5.3628    3.4852    1.5641 C   0  0  0  0  0  0  0  0  0  0  0  0
    6.1464   -0.9796    0.4330 C   0  0  0  0  0  0  0  0  0  0  0  0
    6.5460   -2.0266   -0.4934 C   0  0  0  0  0  0  0  0  0  0  0  0
    5.8418   -2.7737   -1.4171 C   0  0  0  0  0  0  0  0  0  0  0  0
    6.7145   -3.5899   -2.1175 C   0  0  0  0  0  0  0  0  0  0  0  0
    7.9498   -3.3243   -1.6054 C   0  0  0  0  0  0  0  0  0  0  0  0
    7.8591   -2.3994   -0.6431 N   0  0  0  0  0  0  0  0  0  0  0  0
    9.0635   -3.9714   -2.0879 C   0  0  0  0  0  0  0  0  0  0  0  0
    8.9608   -4.9126   -3.1092 C   0  0  0  0  0  0  0  0  0  0  0  0
    7.7115   -5.1790   -3.6249 C   0  0  0  0  0  0  0  0  0  0  0  0
    6.6143   -4.5187   -3.1253 C   0  0  0  0  0  0  0  0  0  0  0  0
    3.4548   -3.7096    3.3748 C   0  0  0  0  0  0  0  0  0  0  0  0
    4.5558   -3.1118    3.4819 O   0  0  0  0  0  0  0  0  0  0  0  0
    3.2713   -4.9582    4.0345 N   0  0  0  0  0  0  0  0  0  0  0  0
   -6.7953   -2.8890   -1.6851 N   0  0  0  0  0  0  0  0  0  0  0  0
   -7.7590   -2.2465   -2.5025 C   0  0  0  0  0  0  0  0  0  0  0  0
   -8.5581   -1.3668   -2.0951 O   0  0  0  0  0  0  0  0  0  0  0  0
   -7.8457   -2.6261   -3.9407 C   0  0  0  0  0  0  0  0  0  0  0  0
  -11.1669   -4.0716   -0.1720 H   0  0  0  0  0  0  0  0  0  0  0  0
  -10.9989   -4.7040    1.4717 H   0  0  0  0  0  0  0  0  0  0  0  0
  -10.2640   -5.5840    0.0874 H   0  0  0  0  0  0  0  0  0  0  0  0
   -9.1865   -2.8639    0.1034 H   0  0  0  0  0  0  0  0  0  0  0  0
   -9.1433   -3.4722    1.7877 H   0  0  0  0  0  0  0  0  0  0  0  0
   -7.9291   -5.4834    1.1220 H   0  0  0  0  0  0  0  0  0  0  0  0
   -8.0711   -5.1043   -0.6012 H   0  0  0  0  0  0  0  0  0  0  0  0
   -5.8502   -4.5340    0.4645 H   0  0  0  0  0  0  0  0  0  0  0  0
   -6.7116   -3.5198    1.6590 H   0  0  0  0  0  0  0  0  0  0  0  0
   -7.4038   -1.8994    0.0021 H   0  0  0  0  0  0  0  0  0  0  0  0
   -4.8084   -1.6082   -2.1462 H   0  0  0  0  0  0  0  0  0  0  0  0
   -3.1797   -0.7651    0.2965 H   0  0  0  0  0  0  0  0  0  0  0  0
   -1.2856   -0.5930   -1.5287 H   0  0  0  0  0  0  0  0  0  0  0  0
   -2.4680   -1.4620   -2.5390 H   0  0  0  0  0  0  0  0  0  0  0  0
   -0.9888   -3.4741   -2.5881 H   0  0  0  0  0  0  0  0  0  0  0  0
   -0.5798   -5.6846   -1.9017 H   0  0  0  0  0  0  0  0  0  0  0  0
   -1.5674   -5.3880   -0.4195 H   0  0  0  0  0  0  0  0  0  0  0  0
    0.6715   -5.9584    0.2088 H   0  0  0  0  0  0  0  0  0  0  0  0
    1.3711   -4.7956   -0.9360 H   0  0  0  0  0  0  0  0  0  0  0  0
    0.6555   -2.8841    0.4799 H   0  0  0  0  0  0  0  0  0  0  0  0
   -0.2008   -4.0347    1.6227 H   0  0  0  0  0  0  0  0  0  0  0  0
    2.6770   -4.4461    0.8844 H   0  0  0  0  0  0  0  0  0  0  0  0
    1.6704   -5.1493    2.1356 H   0  0  0  0  0  0  0  0  0  0  0  0
    1.5408   -2.9081    3.3307 H   0  0  0  0  0  0  0  0  0  0  0  0
    2.4105   -0.9501    2.1098 H   0  0  0  0  0  0  0  0  0  0  0  0
    4.2535   -0.7135   -0.5504 H   0  0  0  0  0  0  0  0  0  0  0  0
    4.5749    0.8534    2.0727 H   0  0  0  0  0  0  0  0  0  0  0  0
    4.3921    3.7362   -0.2932 H   0  0  0  0  0  0  0  0  0  0  0  0
    0.4705    3.9605    2.0581 H   0  0  0  0  0  0  0  0  0  0  0  0
   -0.6105    5.2939   -0.4792 H   0  0  0  0  0  0  0  0  0  0  0  0
   -2.3250    3.3366   -1.6339 H   0  0  0  0  0  0  0  0  0  0  0  0
   -1.9452    1.1198    0.3693 H   0  0  0  0  0  0  0  0  0  0  0  0
   -3.6046    3.2547    1.0825 H   0  0  0  0  0  0  0  0  0  0  0  0
   -4.4386    3.3501   -0.5224 H   0  0  0  0  0  0  0  0  0  0  0  0
   -2.5363    5.4718    2.0463 H   0  0  0  0  0  0  0  0  0  0  0  0
   -3.7396    8.2131   -0.8897 H   0  0  0  0  0  0  0  0  0  0  0  0
   -4.2627    5.8345   -1.7851 H   0  0  0  0  0  0  0  0  0  0  0  0
    1.4237    6.1378    2.6204 H   0  0  0  0  0  0  0  0  0  0  0  0
   -0.1463    6.3915    1.8974 H   0  0  0  0  0  0  0  0  0  0  0  0
    3.4217    6.4631    1.0881 H   0  0  0  0  0  0  0  0  0  0  0  0
    4.4196    7.9504   -0.6006 H   0  0  0  0  0  0  0  0  0  0  0  0
    0.5530    9.1391   -1.8149 H   0  0  0  0  0  0  0  0  0  0  0  0
   -0.4682    7.6364   -0.1013 H   0  0  0  0  0  0  0  0  0  0  0  0
    3.1604    2.4950    3.1376 H   0  0  0  0  0  0  0  0  0  0  0  0
    2.6574    4.2577    3.2790 H   0  0  0  0  0  0  0  0  0  0  0  0
    5.1000    3.5592    3.7242 H   0  0  0  0  0  0  0  0  0  0  0  0
    4.7033    5.1180    2.8702 H   0  0  0  0  0  0  0  0  0  0  0  0
    6.0066    2.5930    1.7846 H   0  0  0  0  0  0  0  0  0  0  0  0
    5.9573    4.3093    1.1259 H   0  0  0  0  0  0  0  0  0  0  0  0
    6.6919   -0.0382    0.1401 H   0  0  0  0  0  0  0  0  0  0  0  0
    6.5532   -1.2395    1.4401 H   0  0  0  0  0  0  0  0  0  0  0  0
    4.7843   -2.7712   -1.6455 H   0  0  0  0  0  0  0  0  0  0  0  0
    8.6787   -2.0198   -0.0872 H   0  0  0  0  0  0  0  0  0  0  0  0
   10.0537   -3.7656   -1.6850 H   0  0  0  0  0  0  0  0  0  0  0  0
    9.8619   -5.4160   -3.4802 H   0  0  0  0  0  0  0  0  0  0  0  0
    7.6277   -5.8990   -4.4093 H   0  0  0  0  0  0  0  0  0  0  0  0
    5.6253   -4.7262   -3.5315 H   0  0  0  0  0  0  0  0  0  0  0  0
    3.8566   -5.8085    3.8117 H   0  0  0  0  0  0  0  0  0  0  0  0
    2.5400   -5.0875    4.7761 H   0  0  0  0  0  0  0  0  0  0  0  0
   -6.1733   -3.6139   -2.1316 H   0  0  0  0  0  0  0  0  0  0  0  0
   -7.4029   -1.8561   -4.5901 H   0  0  0  0  0  0  0  0  0  0  0  0
   -7.2640   -3.5661   -4.1288 H   0  0  0  0  0  0  0  0  0  0  0  0
   -8.8869   -2.8669   -4.2266 H   0  0  0  0  0  0  0  0  0  0  0  0
  1  2  1  0
  2  3  1  0
  3  4  1  0
  4  5  1  0
  5  6  1  0
  6  7  2  0
  6  8  1  0
  8  9  1  0
  9 10  1  0
 10 11  1  0
 11 12  2  0
 11 13  1  0
 13 14  1  0
 14 15  1  0
 15 16  1  0
 16 17  1  0
 17 18  1  0
 18 19  1  0
 19 20  1  0
 20 21  2  0
 20 22  1  0
 22 23  1  0
 23 24  1  0
 24 25  2  0
 24 26  1  0
 26 27  1  0
 27 28  1  0
 28 29  2  0
 28 30  1  0
 30 31  1  0
 31 32  1  0
 32 33  2  0
 32 34  1  0
 34 35  1  0
 35 36  1  0
 36 37  2  0
 34 38  1  0
 38 39  1  0
 39 40  2  0
 40 41  1  0
 41 42  2  0
 42 43  1  0
 30 44  1  0
 44 45  1  0
 45 46  2  0
 46 47  1  0
 47 48  2  0
 48 49  1  0
 49 50  2  0
 48 51  1  0
 27 52  1  0
 52 53  1  0
 53 54  1  0
 22 55  1  0
 55 56  1  0
 56 57  2  0
 57 58  1  0
 58 59  2  0
 59 60  1  0
 59 61  1  0
 61 62  2  0
 62 63  1  0
 63 64  2  0
 18 65  1  0
 65 66  2  0
 65 67  1  0
  5 68  1  0
 68 69  1  0
 69 70  2  0
 69 71  1  0
 36  9  1  0
 43 39  1  0
 50 45  1  0
 60 56  1  0
 54 26  1  0
 64 58  1  0
  1 72  1  0
  1 73  1  0
  1 74  1  0
  2 75  1  0
  2 76  1  0
  3 77  1  0
  3 78  1  0
  4 79  1  0
  4 80  1  0
  5 81  1  1
  8 82  1  0
  9 83  1  1
 10 84  1  0
 10 85  1  0
 13 86  1  0
 14 87  1  0
 14 88  1  0
 15 89  1  0
 15 90  1  0
 16 91  1  0
 16 92  1  0
 17 93  1  0
 17 94  1  0
 18 95  1  1
 19 96  1  0
 22 97  1  6
 23 98  1  0
 26 99  1  6
 30100  1  1
 31101  1  0
 34102  1  6
 35103  1  0
 38104  1  0
 38105  1  0
 40106  1  0
 42107  1  0
 43108  1  0
 44109  1  0
 44110  1  0
 46111  1  0
 47112  1  0
 49113  1  0
 50114  1  0
 52115  1  0
 52116  1  0
 53117  1  0
 53118  1  0
 54119  1  0
 54120  1  0
 55121  1  0
 55122  1  0
 57123  1  0
 60124  1  0
 61125  1  0
 62126  1  0
 63127  1  0
 64128  1  0
 67129  1  0
 67130  1  0
 68131  1  0
 71132  1  0
 71133  1  0
 71134  1  0
M  END
>  <Ligand ID>  (1) 
LIG0004159

>  <Ligand>  (1) 
CHEMBL376339

>  <SMILES>  (1) 
CCCC[C@@H](C(=O)N[C@H]1CC(=O)NCCCC[C@H](NC(=O)[C@@H](NC(=O)[C@H]2N(C(=O)[C@H](NC(=O)[C@@H](NC1=O)Cc1cnc[nH]1)Cc1ccc(cc1)Cl)CCC2)Cc1cc2c([nH]1)cccc2)C(=O)N)NC(=O)C

>  <CID>  (1) 
44422997.0

>  <ChEMBL ID>  (1) 
nan

>  <InChiKey>  (1) 
HROUSAHWAGUIEV-CQPWUTEUSA-N

>  <InChi>  (1) 
InChI=1S/C49H63ClN12O9/c1-3-4-11-36(55-28(2)63)44(66)59-39-25-42(64)53-19-8-7-13-35(43(51)65)57-45(67)37(23-32-22-30-10-5-6-12-34(30)56-32)60-48(70)41-14-9-20-62(41)49(71)40(21-29-15-17-31(50)18-16-29)61-46(68)38(58-47(39)69)24-33-26-52-27-54-33/h5-6,10,12,15-18,22,26-27,35-41,56H,3-4,7-9,11,13-14,19-21,23-25H2,1-2H3,(H2,51,65)(H,52,54)(H,53,64)(H,55,63)(H,57,67)(H,58,69)(H,59,66)(H,60,70)(H,61,68)/t35-,36-,37-,38-,39-,40+,41-/m0/s1

>  <IUPAC Name>  (1) 
(3R,6S,9S,17S,20S,23S)-9-[[(2S)-2-acetamidohexanoyl]amino]-3-[(4-chlorophenyl)methyl]-6-(1H-imidazol-5-ylmethyl)-20-(1H-indol-2-ylmethyl)-2,5,8,11,19,22-hexaoxo-1,4,7,12,18,21-hexazabicyclo[21.3.0]hexacosane-17-carboxamide

$$$$
