
     RDKit          3D

 11 11  0  0  0  0  0  0  0  0999 V2000
    2.6118   -1.5820    0.0899 S   0  0  0  0  0  0  0  0  0  0  0  0
    1.1301   -0.8521    0.0345 C   0  0  0  0  0  0  0  0  0  0  0  0
   -0.0067   -1.5694   -0.0417 N   0  0  0  0  0  0  0  0  0  0  0  0
   -1.2078   -0.9215   -0.0852 C   0  0  0  0  0  0  0  0  0  0  0  0
   -1.2533    0.4639   -0.0509 C   0  0  0  0  0  0  0  0  0  0  0  0
   -0.0626    1.1513    0.0272 C   0  0  0  0  0  0  0  0  0  0  0  0
    1.1336    0.5047    0.0705 N   0  0  0  0  0  0  0  0  0  0  0  0
   -2.1150   -1.5033   -0.1463 H   0  0  0  0  0  0  0  0  0  0  0  0
   -2.1676    1.0007   -0.0829 H   0  0  0  0  0  0  0  0  0  0  0  0
   -0.0597    2.2343    0.0559 H   0  0  0  0  0  0  0  0  0  0  0  0
    1.9973    1.0734    0.1290 H   0  0  0  0  0  0  0  0  0  0  0  0
  1  2  2  0
  2  3  1  0
  3  4  2  0
  4  5  1  0
  5  6  2  0
  6  7  1  0
  7  2  1  0
  4  8  1  0
  5  9  1  0
  6 10  1  0
  7 11  1  0
M  END
>  <Ligand ID>  (1) 
LIG0005063

>  <Ligand>  (1) 
Pyrimidine-2-thiol

>  <SMILES>  (1) 
S=c1nccc[nH]1

>  <CID>  (1) 
1550489.0

>  <ChEMBL ID>  (1) 
nan

>  <InChiKey>  (1) 
HBCQSNAFLVXVAY-UHFFFAOYSA-N

>  <InChi>  (1) 
InChI=1S/C4H4N2S/c7-4-5-2-1-3-6-4/h1-3H,(H,5,6,7)

>  <IUPAC Name>  (1) 
1H-pyrimidine-2-thione

$$$$
