
     RDKit          3D

 32 35  0  0  0  0  0  0  0  0999 V2000
    5.5272   -0.0597    2.0423 C   0  0  0  0  0  0  0  0  0  0  0  0
    4.7081   -1.0259    2.5398 C   0  0  0  0  0  0  0  0  0  0  0  0
    3.7184   -1.4812    1.7248 N   0  0  0  0  0  0  0  0  0  0  0  0
    3.5337   -1.0169    0.4808 C   0  0  0  0  0  0  0  0  0  0  0  0
    4.3577   -0.0590    0.0083 N   0  0  0  0  0  0  0  0  0  0  0  0
    5.3649    0.4378    0.7710 C   0  0  0  0  0  0  0  0  0  0  0  0
    2.5054   -1.4800   -0.3855 N   0  0  0  0  0  0  0  0  0  0  0  0
    1.2125   -0.9161   -0.4558 C   0  0  0  0  0  0  0  0  0  0  0  0
    0.8860    0.5667    0.7182 S   0  0  0  0  0  0  0  0  0  0  0  0
   -0.7757    0.7453    0.1425 C   0  0  0  0  0  0  0  0  0  0  0  0
   -0.9222   -0.2988   -0.8505 C   0  0  0  0  0  0  0  0  0  0  0  0
    0.1806   -0.9757   -0.9648 N   0  0  0  0  0  0  0  0  0  0  0  0
   -2.1506   -0.5513   -1.6188 C   0  0  0  0  0  0  0  0  0  0  0  0
   -2.2759   -1.4583   -2.6560 C   0  0  0  0  0  0  0  0  0  0  0  0
   -3.5399   -1.4108   -3.1128 N   0  0  0  0  0  0  0  0  0  0  0  0
   -4.2426   -0.5234   -2.4302 N   0  0  0  0  0  0  0  0  0  0  0  0
   -3.4035    0.0223   -1.4989 C   0  0  0  0  0  0  0  0  0  0  0  0
   -3.9038    1.0519   -0.5811 C   0  0  0  0  0  0  0  0  0  0  0  0
   -3.1593    1.2750    0.6659 C   0  0  0  0  0  0  0  0  0  0  0  0
   -1.7624    1.7361    0.5914 C   0  0  0  0  0  0  0  0  0  0  0  0
    6.3466    0.3600    2.6321 H   0  0  0  0  0  0  0  0  0  0  0  0
    4.8419   -1.4140    3.5439 H   0  0  0  0  0  0  0  0  0  0  0  0
    6.0173    1.2063    0.3769 H   0  0  0  0  0  0  0  0  0  0  0  0
    2.7113   -2.2801   -1.0057 H   0  0  0  0  0  0  0  0  0  0  0  0
   -1.4505   -2.0908   -3.0120 H   0  0  0  0  0  0  0  0  0  0  0  0
   -5.2569   -0.2926   -2.5872 H   0  0  0  0  0  0  0  0  0  0  0  0
   -4.0212    2.0512   -1.0968 H   0  0  0  0  0  0  0  0  0  0  0  0
   -4.9489    0.7695   -0.2999 H   0  0  0  0  0  0  0  0  0  0  0  0
   -3.1836    0.3265    1.2465 H   0  0  0  0  0  0  0  0  0  0  0  0
   -3.7464    2.0041    1.2641 H   0  0  0  0  0  0  0  0  0  0  0  0
   -1.4871    2.1666    1.6001 H   0  0  0  0  0  0  0  0  0  0  0  0
   -1.6811    2.6151   -0.0838 H   0  0  0  0  0  0  0  0  0  0  0  0
  1  2  2  0
  2  3  1  0
  3  4  2  0
  4  5  1  0
  5  6  2  0
  4  7  1  0
  7  8  1  0
  8  9  1  0
  9 10  1  0
 10 11  2  0
 11 12  1  0
 11 13  1  0
 13 14  1  0
 14 15  2  0
 15 16  1  0
 16 17  1  0
 17 18  1  0
 18 19  1  0
 19 20  1  0
  6  1  1  0
 12  8  2  0
 17 13  2  0
 20 10  1  0
  1 21  1  0
  2 22  1  0
  6 23  1  0
  7 24  1  0
 14 25  1  0
 16 26  1  0
 18 27  1  0
 18 28  1  0
 19 29  1  0
 19 30  1  0
 20 31  1  0
 20 32  1  0
M  END
>  <Ligand ID>  (1) 
LIG0000667

>  <Ligand>  (1) 
CHEMBL1830711

>  <SMILES>  (1) 
c1cnc(nc1)Nc1sc2c(n1)c1cn[nH]c1CCC2

>  <CID>  (1) 
46836713.0

>  <ChEMBL ID>  (1) 
nan

>  <InChiKey>  (1) 
HYJWPTWQMAYKAM-UHFFFAOYSA-N

>  <InChi>  (1) 
InChI=1S/C13H12N6S/c1-3-9-8(7-16-19-9)11-10(4-1)20-13(17-11)18-12-14-5-2-6-15-12/h2,5-7H,1,3-4H2,(H,16,19)(H,14,15,17,18)

>  <IUPAC Name>  (1) 
N-pyrimidin-2-yl-5-thia-3,11,12-triazatricyclo[8.3.0.02,6]trideca-1(10),2(6),3,12-tetraen-4-amine

$$$$
