
     RDKit          3D

 47 48  0  0  0  0  0  0  0  0999 V2000
   -7.7728   -1.9163   -0.5560 C   0  0  0  0  0  0  0  0  0  0  0  0
   -6.1147   -2.5496   -0.1959 S   0  0  0  0  0  0  0  0  0  0  0  0
   -4.8888   -1.2836   -0.3508 C   0  0  0  0  0  0  0  0  0  0  0  0
   -3.5308   -1.5029   -0.1286 C   0  0  0  0  0  0  0  0  0  0  0  0
   -2.6021   -0.4733   -0.2631 C   0  0  0  0  0  0  0  0  0  0  0  0
   -3.0621    0.7414   -0.6153 N   0  0  0  0  0  0  0  0  0  0  0  0
   -4.3901    0.9574   -0.8330 C   0  0  0  0  0  0  0  0  0  0  0  0
   -4.9651    2.4253   -1.2610 S   0  0  0  0  0  0  0  0  0  0  0  0
   -5.2996   -0.0336   -0.7055 N   0  0  0  0  0  0  0  0  0  0  0  0
   -2.2028    1.8977   -0.7892 C   0  0  2  0  0  0  0  0  0  0  0  0
   -0.9005    1.4560   -0.9112 O   0  0  0  0  0  0  0  0  0  0  0  0
   -0.1946    1.8877    0.1935 C   0  0  1  0  0  0  0  0  0  0  0  0
   -1.2270    2.0183    1.3058 C   0  0  2  0  0  0  0  0  0  0  0  0
   -2.3134    2.6958    0.4942 C   0  0  1  0  0  0  0  0  0  0  0  0
   -1.9411    4.0151    0.3073 O   0  0  0  0  0  0  0  0  0  0  0  0
   -0.7670    2.8254    2.3368 O   0  0  0  0  0  0  0  0  0  0  0  0
    0.9329    1.0017    0.6072 C   0  0  0  0  0  0  0  0  0  0  0  0
    1.8492    0.8874   -0.4109 O   0  0  0  0  0  0  0  0  0  0  0  0
    3.1603   -0.0927   -0.0406 P   0  0  0  0  0  0  0  0  0  0  0  0
    4.3400    0.4401   -0.8560 O   0  0  0  0  0  0  0  0  0  0  0  0
    2.9182   -1.7023   -0.4301 O   0  0  0  0  0  0  0  0  0  0  0  0
    4.4535   -2.4250   -0.6331 P   0  0  0  0  0  0  0  0  0  0  0  0
    4.2571   -3.5599   -1.6299 O   0  0  0  0  0  0  0  0  0  0  0  0
    5.5258   -1.3273   -1.3370 O   0  0  0  0  0  0  0  0  0  0  0  0
    7.1082   -1.7158   -0.9269 P   0  0  0  0  0  0  0  0  0  0  0  0
    7.5256   -2.9327   -1.7175 O   0  0  0  0  0  0  0  0  0  0  0  0
    7.1704   -2.0192    0.7351 O   0  0  0  0  0  0  0  0  0  0  0  0
    8.1298   -0.4110   -1.3254 O   0  0  0  0  0  0  0  0  0  0  0  0
    5.0209   -3.0564    0.8084 O   0  0  0  0  0  0  0  0  0  0  0  0
    3.6111    0.0410    1.5831 O   0  0  0  0  0  0  0  0  0  0  0  0
   -7.9174   -1.9464   -1.6430 H   0  0  0  0  0  0  0  0  0  0  0  0
   -7.8718   -0.8820   -0.1590 H   0  0  0  0  0  0  0  0  0  0  0  0
   -8.5651   -2.5391   -0.1007 H   0  0  0  0  0  0  0  0  0  0  0  0
   -3.2174   -2.4846    0.1488 H   0  0  0  0  0  0  0  0  0  0  0  0
   -1.5434   -0.6169   -0.0965 H   0  0  0  0  0  0  0  0  0  0  0  0
   -2.5278    2.5121   -1.6607 H   0  0  0  0  0  0  0  0  0  0  0  0
    0.1899    2.8926   -0.0477 H   0  0  0  0  0  0  0  0  0  0  0  0
   -1.5607    1.0307    1.6488 H   0  0  0  0  0  0  0  0  0  0  0  0
   -3.3075    2.5915    0.9672 H   0  0  0  0  0  0  0  0  0  0  0  0
   -1.6007    4.1471   -0.6205 H   0  0  0  0  0  0  0  0  0  0  0  0
   -0.6070    2.2002    3.1061 H   0  0  0  0  0  0  0  0  0  0  0  0
    1.4198    1.4883    1.4774 H   0  0  0  0  0  0  0  0  0  0  0  0
    0.5600    0.0144    0.9430 H   0  0  0  0  0  0  0  0  0  0  0  0
    6.8490   -1.2414    1.2192 H   0  0  0  0  0  0  0  0  0  0  0  0
    7.6344    0.4300   -1.2563 H   0  0  0  0  0  0  0  0  0  0  0  0
    5.4335   -3.9478    0.6779 H   0  0  0  0  0  0  0  0  0  0  0  0
    2.8016    0.0629    2.1672 H   0  0  0  0  0  0  0  0  0  0  0  0
  1  2  1  0
  2  3  1  0
  3  4  1  0
  4  5  2  0
  5  6  1  0
  6  7  1  0
  7  8  2  0
  7  9  1  0
  6 10  1  0
 10 11  1  0
 11 12  1  0
 12 13  1  0
 13 14  1  0
 14 15  1  0
 13 16  1  0
 12 17  1  0
 17 18  1  0
 18 19  1  0
 19 20  2  0
 19 21  1  0
 21 22  1  0
 22 23  2  0
 22 24  1  0
 24 25  1  0
 25 26  2  0
 25 27  1  0
 25 28  1  0
 22 29  1  0
 19 30  1  0
  9  3  2  0
 14 10  1  0
  1 31  1  0
  1 32  1  0
  1 33  1  0
  4 34  1  0
  5 35  1  0
 10 36  1  6
 12 37  1  6
 13 38  1  1
 14 39  1  1
 15 40  1  0
 16 41  1  0
 17 42  1  0
 17 43  1  0
 27 44  1  0
 28 45  1  0
 29 46  1  0
 30 47  1  0
M  END
>  <Ligand ID>  (1) 
LIG0004965

>  <Ligand>  (1) 
CHEMBL482472

>  <SMILES>  (1) 
CSc1ccn(c(=S)n1)[C@@H]1O[C@@H]([C@H]([C@H]1O)O)COP(=O)(OP(=O)(OP(=O)(O)O)O)O

>  <CID>  (1) 
44585988.0

>  <ChEMBL ID>  (1) 
nan

>  <InChiKey>  (1) 
CQECTHWDXPJZNI-ZOQUXTDFSA-N

>  <InChi>  (1) 
InChI=1S/C10H17N2O13P3S2/c1-30-6-2-3-12(10(29)11-6)9-8(14)7(13)5(23-9)4-22-27(18,19)25-28(20,21)24-26(15,16)17/h2-3,5,7-9,13-14H,4H2,1H3,(H,18,19)(H,20,21)(H2,15,16,17)/t5-,7-,8-,9-/m1/s1

>  <IUPAC Name>  (1) 
[[(2R,3S,4R,5R)-3,4-dihydroxy-5-(4-methylsulfanyl-2-sulfanylidenepyrimidin-1-yl)oxolan-2-yl]methoxy-hydroxyphosphoryl] phosphono hydrogen phosphate

$$$$
