
     RDKit          3D

 72 80  0  0  0  0  0  0  0  0999 V2000
    1.3952    1.6292    2.8948 O   0  0  0  0  0  0  0  0  0  0  0  0
    1.0944    0.8216    1.9784 C   0  0  0  0  0  0  0  0  0  0  0  0
   -0.2440    0.2509    1.7114 C   0  0  1  0  0  0  0  0  0  0  0  0
   -1.0328    0.9728    0.8457 O   0  0  0  0  0  0  0  0  0  0  0  0
   -1.5209    0.1408   -0.1489 C   0  0  1  0  0  0  0  0  0  0  0  0
   -1.2417   -1.2624    0.3871 C   0  0  2  0  0  0  0  0  0  0  0  0
    0.1062   -1.0382    0.9247 C   0  0  1  0  0  0  0  0  0  0  0  0
    1.1430   -0.5161    0.0247 C   0  0  1  0  0  0  0  0  0  0  0  0
    1.9525    0.2657    0.9884 N   0  0  0  0  0  0  0  0  0  0  0  0
    3.3920    0.4639    0.9614 C   0  0  0  0  0  0  0  0  0  0  0  0
    3.7488    1.6916    0.1458 C   0  0  0  0  0  0  0  0  0  0  0  0
    5.2053    1.9499    0.0831 C   0  0  0  0  0  0  0  0  0  0  0  0
    5.8808    2.7432    0.9870 C   0  0  0  0  0  0  0  0  0  0  0  0
    7.2604    2.9492    0.8691 C   0  0  0  0  0  0  0  0  0  0  0  0
    7.9739    2.3508   -0.1708 C   0  0  0  0  0  0  0  0  0  0  0  0
    7.2875    1.5592   -1.0687 C   0  0  0  0  0  0  0  0  0  0  0  0
    5.9255    1.3584   -0.9490 C   0  0  0  0  0  0  0  0  0  0  0  0
    1.9059   -1.4221   -0.6485 O   0  0  0  0  0  0  0  0  0  0  0  0
    1.8872   -2.7246   -0.2830 C   0  0  0  0  0  0  0  0  0  0  0  0
    0.8899   -3.4573   -1.0018 O   0  0  0  0  0  0  0  0  0  0  0  0
   -0.4116   -3.0479   -1.3610 C   0  0  0  0  0  0  0  0  0  0  0  0
   -1.3369   -2.1355   -0.8277 C   0  0  0  0  0  0  0  0  0  0  0  0
   -2.5721   -1.9993   -1.5024 C   0  0  0  0  0  0  0  0  0  0  0  0
   -3.5367   -1.0451   -0.9851 C   0  0  0  0  0  0  0  0  0  0  0  0
   -3.0012    0.1927   -0.3125 C   0  0  1  0  0  0  0  0  0  0  0  0
   -3.5405    0.3301    1.0272 N   0  0  0  0  0  0  0  0  0  0  0  0
   -3.3593   -0.8744    1.7475 C   0  0  0  0  0  0  0  0  0  0  0  0
   -2.1968   -1.7274    1.4167 C   0  0  0  0  0  0  0  0  0  0  0  0
   -4.8849    0.7432    0.9884 C   0  0  0  0  0  0  0  0  0  0  0  0
   -5.2100    2.1517    0.6555 C   0  0  0  0  0  0  0  0  0  0  0  0
   -4.8035    3.3238    1.4650 C   0  0  0  0  0  0  0  0  0  0  0  0
   -4.0552    3.0211    0.2185 C   0  0  0  0  0  0  0  0  0  0  0  0
   -2.8481   -2.7377   -2.6338 C   0  0  0  0  0  0  0  0  0  0  0  0
   -1.9379   -3.6310   -3.1496 C   0  0  0  0  0  0  0  0  0  0  0  0
   -0.7277   -3.7811   -2.5128 C   0  0  0  0  0  0  0  0  0  0  0  0
    0.2260   -4.6793   -3.0054 O   0  0  0  0  0  0  0  0  0  0  0  0
    0.6996    0.5514   -0.9478 C   0  0  0  0  0  0  0  0  0  0  0  0
   -0.7303    0.2534   -1.4139 C   0  0  0  0  0  0  0  0  0  0  0  0
   -0.8010   -0.0100    2.6269 H   0  0  0  0  0  0  0  0  0  0  0  0
    0.4950   -1.7797    1.6102 H   0  0  0  0  0  0  0  0  0  0  0  0
    3.7358    0.5886    2.0161 H   0  0  0  0  0  0  0  0  0  0  0  0
    3.9145   -0.3853    0.4554 H   0  0  0  0  0  0  0  0  0  0  0  0
    3.3845    1.5356   -0.8711 H   0  0  0  0  0  0  0  0  0  0  0  0
    3.2297    2.5527    0.6457 H   0  0  0  0  0  0  0  0  0  0  0  0
    5.3264    3.2060    1.7911 H   0  0  0  0  0  0  0  0  0  0  0  0
    7.7987    3.5641    1.5642 H   0  0  0  0  0  0  0  0  0  0  0  0
    9.0488    2.5028   -0.2749 H   0  0  0  0  0  0  0  0  0  0  0  0
    7.8010    1.0866   -1.8733 H   0  0  0  0  0  0  0  0  0  0  0  0
    5.4111    0.7363   -1.6608 H   0  0  0  0  0  0  0  0  0  0  0  0
    2.8553   -3.1758   -0.6701 H   0  0  0  0  0  0  0  0  0  0  0  0
    1.8894   -2.9681    0.7793 H   0  0  0  0  0  0  0  0  0  0  0  0
   -4.2177   -0.7627   -1.8428 H   0  0  0  0  0  0  0  0  0  0  0  0
   -4.2097   -1.5967   -0.2906 H   0  0  0  0  0  0  0  0  0  0  0  0
   -3.2764    1.0299   -0.9568 H   0  0  0  0  0  0  0  0  0  0  0  0
   -3.2764   -0.5758    2.8402 H   0  0  0  0  0  0  0  0  0  0  0  0
   -4.3022   -1.4786    1.7213 H   0  0  0  0  0  0  0  0  0  0  0  0
   -2.6060   -2.7302    1.0633 H   0  0  0  0  0  0  0  0  0  0  0  0
   -1.6918   -2.0194    2.3791 H   0  0  0  0  0  0  0  0  0  0  0  0
   -5.4092    0.5452    1.9873 H   0  0  0  0  0  0  0  0  0  0  0  0
   -5.5144    0.0836    0.2974 H   0  0  0  0  0  0  0  0  0  0  0  0
   -6.1722    2.2804    0.0739 H   0  0  0  0  0  0  0  0  0  0  0  0
   -4.3229    3.2033    2.4576 H   0  0  0  0  0  0  0  0  0  0  0  0
   -5.4714    4.2061    1.4315 H   0  0  0  0  0  0  0  0  0  0  0  0
   -4.2420    3.6071   -0.7091 H   0  0  0  0  0  0  0  0  0  0  0  0
   -3.0084    2.7846    0.3961 H   0  0  0  0  0  0  0  0  0  0  0  0
   -3.8117   -2.6097   -3.1328 H   0  0  0  0  0  0  0  0  0  0  0  0
   -2.2067   -4.1853   -4.0396 H   0  0  0  0  0  0  0  0  0  0  0  0
    0.5671   -5.4128   -2.4023 H   0  0  0  0  0  0  0  0  0  0  0  0
    0.6238    1.5519   -0.4711 H   0  0  0  0  0  0  0  0  0  0  0  0
    1.3901    0.5883   -1.8202 H   0  0  0  0  0  0  0  0  0  0  0  0
   -1.0842    1.0695   -2.0763 H   0  0  0  0  0  0  0  0  0  0  0  0
   -0.6288   -0.6680   -2.0074 H   0  0  0  0  0  0  0  0  0  0  0  0
  1  2  2  0
  2  3  1  0
  3  4  1  0
  5  4  1  1
  5  6  1  0
  6  7  1  0
  7  8  1  0
  8  9  1  0
  9 10  1  0
 10 11  1  0
 11 12  1  0
 12 13  2  0
 13 14  1  0
 14 15  2  0
 15 16  1  0
 16 17  2  0
  8 18  1  6
 18 19  1  0
 19 20  1  0
 20 21  1  0
 21 22  2  0
 22 23  1  0
 23 24  1  0
 24 25  1  0
 25 26  1  0
 26 27  1  0
 27 28  1  0
 26 29  1  0
 29 30  1  0
 30 31  1  0
 31 32  1  0
 23 33  2  0
 33 34  1  0
 34 35  2  0
 35 36  1  0
  8 37  1  0
 37 38  1  0
  9  2  1  0
 17 12  1  0
 35 21  1  0
  7  3  1  0
 32 30  1  0
 38  5  1  0
 25  5  1  0
  6 28  1  1
 22  6  1  0
  3 39  1  1
  7 40  1  1
 10 41  1  0
 10 42  1  0
 11 43  1  0
 11 44  1  0
 13 45  1  0
 14 46  1  0
 15 47  1  0
 16 48  1  0
 17 49  1  0
 19 50  1  0
 19 51  1  0
 24 52  1  0
 24 53  1  0
 25 54  1  6
 27 55  1  0
 27 56  1  0
 28 57  1  0
 28 58  1  0
 29 59  1  0
 29 60  1  0
 30 61  1  0
 31 62  1  0
 31 63  1  0
 32 64  1  0
 32 65  1  0
 33 66  1  0
 34 67  1  0
 36 68  1  0
 37 69  1  0
 37 70  1  0
 38 71  1  0
 38 72  1  0
M  END
>  <Ligand ID>  (1) 
LIG0002954

>  <Ligand>  (1) 
CHEMBL3264748

>  <SMILES>  (1) 
O=C1[C@H]2O[C@]34[C@@]56[C@H]2[C@@](N1CCc1ccccc1)(OCOc1c6c(C[C@H]4N(CC5)CC2CC2)ccc1O)CC3

>  <CID>  (1) 
90655829.0

>  <ChEMBL ID>  (1) 
nan

>  <InChiKey>  (1) 
ASWPFFLMSHOYIM-NLIGWKNISA-N

>  <InChi>  (1) 
InChI=1S/C31H34N2O5/c34-22-9-8-21-16-23-30-11-12-31-27(26(38-30)28(35)33(31)14-10-19-4-2-1-3-5-19)29(30,24(21)25(22)36-18-37-31)13-15-32(23)17-20-6-7-20/h1-5,8-9,20,23,26-27,34H,6-7,10-18H2/t23-,26+,27+,29+,30-,31+/m1/s1

>  <IUPAC Name>  (1) 
(1S,11R,15R,16R,17S,19S)-12-(cyclopropylmethyl)-6-hydroxy-22-(2-phenylethyl)-2,4,18-trioxa-12,22-diazaheptacyclo[15.4.2.15,9.01,16.011,19.015,19.015,24]tetracosa-5,7,9(24)-trien-23-one

$$$$
