
     RDKit          3D

 31 32  0  0  0  0  0  0  0  0999 V2000
    4.4415    0.0331    1.0044 C   0  0  0  0  0  0  0  0  0  0  0  0
    3.7443   -0.1430   -0.1978 O   0  0  0  0  0  0  0  0  0  0  0  0
    2.3653   -0.1353   -0.3177 C   0  0  0  0  0  0  0  0  0  0  0  0
    1.5107    0.0499    0.7516 C   0  0  0  0  0  0  0  0  0  0  0  0
    0.1235    0.0525    0.5982 C   0  0  0  0  0  0  0  0  0  0  0  0
   -0.5243    0.2683    1.8866 C   0  0  0  0  0  0  0  0  0  0  0  0
   -1.8730   -0.2594    2.1073 C   0  0  0  0  0  0  0  0  0  0  0  0
   -2.7229   -0.4743    0.9974 N   0  0  0  0  0  0  0  0  0  0  0  0
   -2.6375    0.4840   -0.0666 C   0  0  0  0  0  0  0  0  0  0  0  0
   -1.7792   -0.1823   -1.1238 C   0  0  0  0  0  0  0  0  0  0  0  0
   -0.3905   -0.1376   -0.6700 C   0  0  0  0  0  0  0  0  0  0  0  0
    0.4757   -0.3209   -1.7257 C   0  0  0  0  0  0  0  0  0  0  0  0
    1.8499   -0.3258   -1.5889 C   0  0  0  0  0  0  0  0  0  0  0  0
    3.1160   -0.6088   -3.2273 I   0  0  0  0  0  0  0  0  0  0  0  0
   -2.0166    0.3895   -2.4856 C   0  0  0  0  0  0  0  0  0  0  0  0
    5.4466    0.4781    0.8347 H   0  0  0  0  0  0  0  0  0  0  0  0
    4.6309   -0.9758    1.4342 H   0  0  0  0  0  0  0  0  0  0  0  0
    3.9154    0.6719    1.7315 H   0  0  0  0  0  0  0  0  0  0  0  0
    1.9308    0.2001    1.7554 H   0  0  0  0  0  0  0  0  0  0  0  0
   -0.4843    1.3765    2.1029 H   0  0  0  0  0  0  0  0  0  0  0  0
    0.1509   -0.1625    2.6838 H   0  0  0  0  0  0  0  0  0  0  0  0
   -1.8600   -1.2311    2.6824 H   0  0  0  0  0  0  0  0  0  0  0  0
   -2.4248    0.4306    2.8106 H   0  0  0  0  0  0  0  0  0  0  0  0
   -2.8558   -1.4482    0.6842 H   0  0  0  0  0  0  0  0  0  0  0  0
   -3.6158    0.7190   -0.5436 H   0  0  0  0  0  0  0  0  0  0  0  0
   -2.0984    1.3906    0.2466 H   0  0  0  0  0  0  0  0  0  0  0  0
   -2.0789   -1.2692   -1.1697 H   0  0  0  0  0  0  0  0  0  0  0  0
    0.1042   -0.4745   -2.7451 H   0  0  0  0  0  0  0  0  0  0  0  0
   -1.8897   -0.3936   -3.2386 H   0  0  0  0  0  0  0  0  0  0  0  0
   -3.0920    0.6746   -2.5194 H   0  0  0  0  0  0  0  0  0  0  0  0
   -1.4619    1.3234   -2.6922 H   0  0  0  0  0  0  0  0  0  0  0  0
  1  2  1  0
  2  3  1  0
  3  4  2  0
  4  5  1  0
  5  6  1  0
  6  7  1  0
  7  8  1  0
  8  9  1  0
  9 10  1  0
 10 11  1  0
 11 12  1  0
 12 13  2  0
 13 14  1  0
 10 15  1  0
 13  3  1  0
 11  5  2  0
  1 16  1  0
  1 17  1  0
  1 18  1  0
  4 19  1  0
  6 20  1  0
  6 21  1  0
  7 22  1  0
  7 23  1  0
  8 24  1  0
  9 25  1  0
  9 26  1  0
 10 27  1  0
 12 28  1  0
 15 29  1  0
 15 30  1  0
 15 31  1  0
M  END
>  <Ligand ID>  (1) 
LIG0004031

>  <Ligand>  (1) 
CHEMBL179378

>  <SMILES>  (1) 
COc1cc2CCNCC(c2cc1I)C

>  <CID>  (1) 
10064386.0

>  <ChEMBL ID>  (1) 
nan

>  <InChiKey>  (1) 
IIXFGYNBVWNWNL-UHFFFAOYSA-N

>  <InChi>  (1) 
InChI=1S/C12H16INO/c1-8-7-14-4-3-9-5-12(15-2)11(13)6-10(8)9/h5-6,8,14H,3-4,7H2,1-2H3

>  <IUPAC Name>  (1) 
7-iodo-8-methoxy-5-methyl-2,3,4,5-tetrahydro-1H-3-benzazepine

$$$$
