
     RDKit          3D

 47 47  0  0  0  0  0  0  0  0999 V2000
    4.6361   -0.2206    0.7556 C   0  0  0  0  0  0  0  0  0  0  0  0
    3.0753   -0.2608    0.5695 C   0  0  1  0  0  0  0  0  0  0  0  0
    2.6076    1.1735    0.5611 C   0  0  0  0  0  0  0  0  0  0  0  0
    1.1293    1.2396    0.7211 C   0  0  0  0  0  0  0  0  0  0  0  0
    0.5461    2.6486    0.6212 C   0  0  0  0  0  0  0  0  0  0  0  0
   -0.9701    2.5592    0.7141 C   0  0  0  0  0  0  0  0  0  0  0  0
   -1.5545    1.7785   -0.4270 C   0  0  0  0  0  0  0  0  0  0  0  0
   -2.9995    1.5180   -0.0742 C   0  0  0  0  0  0  0  0  0  0  0  0
   -3.7182    0.5527   -0.9148 C   0  0  0  0  0  0  0  0  0  0  0  0
   -3.5581   -0.8923   -0.7313 C   0  0  0  0  0  0  0  0  0  0  0  0
   -2.2993   -1.6411   -0.7432 C   0  0  0  0  0  0  0  0  0  0  0  0
   -1.4016   -1.5409    0.4276 C   0  0  0  0  0  0  0  0  0  0  0  0
   -0.1966   -2.4181    0.4128 C   0  0  0  0  0  0  0  0  0  0  0  0
    0.7141   -2.4470   -0.7218 C   0  0  0  0  0  0  0  0  0  0  0  0
    1.4710   -1.2932   -1.1814 C   0  0  0  0  0  0  0  0  0  0  0  0
    0.9080   -0.5678   -2.0374 O   0  0  0  0  0  0  0  0  0  0  0  0
    2.8114   -1.0005   -0.6824 C   0  0  0  0  0  0  0  0  0  0  0  0
    4.9972   -1.2455    0.7802 H   0  0  0  0  0  0  0  0  0  0  0  0
    5.0312    0.3982   -0.0575 H   0  0  0  0  0  0  0  0  0  0  0  0
    4.8108    0.2681    1.7305 H   0  0  0  0  0  0  0  0  0  0  0  0
    2.6948   -0.7574    1.4532 H   0  0  0  0  0  0  0  0  0  0  0  0
    3.0841    1.6407    1.4643 H   0  0  0  0  0  0  0  0  0  0  0  0
    2.9597    1.7060   -0.3594 H   0  0  0  0  0  0  0  0  0  0  0  0
    0.8210    0.8709    1.7532 H   0  0  0  0  0  0  0  0  0  0  0  0
    0.6016    0.6443   -0.0019 H   0  0  0  0  0  0  0  0  0  0  0  0
    0.8924    3.1982    1.5118 H   0  0  0  0  0  0  0  0  0  0  0  0
    0.8818    3.1929   -0.2739 H   0  0  0  0  0  0  0  0  0  0  0  0
   -1.3413    3.6005    0.6392 H   0  0  0  0  0  0  0  0  0  0  0  0
   -1.2628    2.1595    1.6855 H   0  0  0  0  0  0  0  0  0  0  0  0
   -1.0709    0.9262   -0.8182 H   0  0  0  0  0  0  0  0  0  0  0  0
   -1.6186    2.4980   -1.3519 H   0  0  0  0  0  0  0  0  0  0  0  0
   -3.0241    1.1242    0.9942 H   0  0  0  0  0  0  0  0  0  0  0  0
   -3.5103    2.5084    0.0162 H   0  0  0  0  0  0  0  0  0  0  0  0
   -4.8379    0.7612   -0.7201 H   0  0  0  0  0  0  0  0  0  0  0  0
   -3.6361    0.8494   -2.0168 H   0  0  0  0  0  0  0  0  0  0  0  0
   -4.3152   -1.4347   -1.4311 H   0  0  0  0  0  0  0  0  0  0  0  0
   -4.0809   -1.1205    0.2920 H   0  0  0  0  0  0  0  0  0  0  0  0
   -1.6776   -1.3704   -1.6658 H   0  0  0  0  0  0  0  0  0  0  0  0
   -2.5452   -2.7410   -0.8522 H   0  0  0  0  0  0  0  0  0  0  0  0
   -1.2190   -0.5645    0.8806 H   0  0  0  0  0  0  0  0  0  0  0  0
   -2.0551   -2.0254    1.2883 H   0  0  0  0  0  0  0  0  0  0  0  0
    0.3793   -2.1515    1.3687 H   0  0  0  0  0  0  0  0  0  0  0  0
   -0.5588   -3.4761    0.6611 H   0  0  0  0  0  0  0  0  0  0  0  0
    0.1111   -2.9029   -1.5986 H   0  0  0  0  0  0  0  0  0  0  0  0
    1.4342   -3.3288   -0.5334 H   0  0  0  0  0  0  0  0  0  0  0  0
    3.4308   -1.9700   -0.6208 H   0  0  0  0  0  0  0  0  0  0  0  0
    3.4228   -0.4458   -1.4874 H   0  0  0  0  0  0  0  0  0  0  0  0
  1  2  1  0
  2  3  1  0
  3  4  1  0
  4  5  1  0
  5  6  1  0
  6  7  1  0
  7  8  1  0
  8  9  1  0
  9 10  1  0
 10 11  1  0
 11 12  1  0
 12 13  1  0
 13 14  1  0
 14 15  1  0
 15 16  2  0
 15 17  1  0
 17  2  1  0
  1 18  1  0
  1 19  1  0
  1 20  1  0
  2 21  1  1
  3 22  1  0
  3 23  1  0
  4 24  1  0
  4 25  1  0
  5 26  1  0
  5 27  1  0
  6 28  1  0
  6 29  1  0
  7 30  1  0
  7 31  1  0
  8 32  1  0
  8 33  1  0
  9 34  1  0
  9 35  1  0
 10 36  1  0
 10 37  1  0
 11 38  1  0
 11 39  1  0
 12 40  1  0
 12 41  1  0
 13 42  1  0
 13 43  1  0
 14 44  1  0
 14 45  1  0
 17 46  1  0
 17 47  1  0
M  END
>  <Ligand ID>  (1) 
LIG0004980

>  <Ligand>  (1) 
D-Muscone

>  <SMILES>  (1) 
C[C@H]1CCCCCCCCCCCCC(=O)C1

>  <CID>  (1) 
7160827.0

>  <ChEMBL ID>  (1) 
nan

>  <InChiKey>  (1) 
ALHUZKCOMYUFRB-HNNXBMFYSA-N

>  <InChi>  (1) 
InChI=1S/C16H30O/c1-15-12-10-8-6-4-2-3-5-7-9-11-13-16(17)14-15/h15H,2-14H2,1H3/t15-/m0/s1

>  <IUPAC Name>  (1) 
(3S)-3-methylcyclopentadecan-1-one

$$$$
