
     RDKit          3D

 70 74  0  0  0  0  0  0  0  0999 V2000
    6.8003    2.1097    1.8850 O   0  0  0  0  0  0  0  0  0  0  0  0
    7.0762    0.7551    1.6479 C   0  0  2  0  0  0  0  0  0  0  0  0
    8.5505    0.6044    1.5684 C   0  0  0  0  0  0  0  0  0  0  0  0
    9.2585    1.5240    0.8135 C   0  0  0  0  0  0  0  0  0  0  0  0
   10.6440    1.4088    0.7206 C   0  0  0  0  0  0  0  0  0  0  0  0
   11.3193    0.3804    1.3783 C   0  0  0  0  0  0  0  0  0  0  0  0
   10.5895   -0.4748    2.0896 N   0  0  0  0  0  0  0  0  0  0  0  0
    9.2481   -0.3998    2.2058 C   0  0  0  0  0  0  0  0  0  0  0  0
    6.4418    0.3024    0.3399 C   0  0  0  0  0  0  0  0  0  0  0  0
    5.0067    0.4622    0.3500 N   0  0  0  0  0  0  0  0  0  0  0  0
    4.3488   -0.4312    1.2594 C   0  0  0  0  0  0  0  0  0  0  0  0
    2.8276   -0.2326    1.2488 C   0  0  0  0  0  0  0  0  0  0  0  0
    2.2798   -0.4779   -0.1076 C   0  0  0  0  0  0  0  0  0  0  0  0
    2.1840    0.5818   -0.9808 C   0  0  0  0  0  0  0  0  0  0  0  0
    1.6866    0.4369   -2.2575 C   0  0  0  0  0  0  0  0  0  0  0  0
    1.2643   -0.8214   -2.6870 C   0  0  0  0  0  0  0  0  0  0  0  0
    1.3525   -1.8909   -1.8287 C   0  0  0  0  0  0  0  0  0  0  0  0
    1.8578   -1.7156   -0.5476 C   0  0  0  0  0  0  0  0  0  0  0  0
    0.7653   -0.9009   -4.0115 N   0  0  0  0  0  0  0  0  0  0  0  0
   -0.6457   -1.7428   -4.4686 S   0  0  0  0  0  0  0  0  0  0  0  0
   -0.5693   -3.2100   -4.1675 O   0  0  0  0  0  0  0  0  0  0  0  0
   -0.8646   -1.6275   -5.9506 O   0  0  0  0  0  0  0  0  0  0  0  0
   -2.0581   -1.0836   -3.6758 C   0  0  0  0  0  0  0  0  0  0  0  0
   -2.7821   -0.0492   -4.2749 C   0  0  0  0  0  0  0  0  0  0  0  0
   -3.9108    0.4747   -3.6395 C   0  0  0  0  0  0  0  0  0  0  0  0
   -4.2767   -0.0505   -2.4320 C   0  0  0  0  0  0  0  0  0  0  0  0
   -3.5999   -1.0657   -1.8026 C   0  0  0  0  0  0  0  0  0  0  0  0
   -2.4729   -1.5884   -2.4374 C   0  0  0  0  0  0  0  0  0  0  0  0
   -5.4649    0.4638   -1.7108 C   0  0  0  0  0  0  0  0  0  0  0  0
   -6.4512    1.8341   -2.4786 S   0  0  0  0  0  0  0  0  0  0  0  0
   -7.6009    1.8518   -1.0854 C   0  0  0  0  0  0  0  0  0  0  0  0
   -7.1364    0.8806   -0.2514 C   0  0  0  0  0  0  0  0  0  0  0  0
   -6.0607    0.2632   -0.6847 N   0  0  0  0  0  0  0  0  0  0  0  0
   -7.7920    0.5542    1.0326 C   0  0  0  0  0  0  0  0  0  0  0  0
   -7.3177   -0.4279    1.8731 C   0  0  0  0  0  0  0  0  0  0  0  0
   -7.9056   -0.7571    3.0748 C   0  0  0  0  0  0  0  0  0  0  0  0
   -9.0355   -0.0683    3.4675 C   0  0  0  0  0  0  0  0  0  0  0  0
   -9.5405    0.9269    2.6460 C   0  0  0  0  0  0  0  0  0  0  0  0
   -8.9173    1.2328    1.4347 C   0  0  0  0  0  0  0  0  0  0  0  0
   -9.6976   -0.3914    4.7511 C   0  0  0  0  0  0  0  0  0  0  0  0
   -8.8379   -0.9977    5.6441 F   0  0  0  0  0  0  0  0  0  0  0  0
  -10.2328    0.7768    5.2717 F   0  0  0  0  0  0  0  0  0  0  0  0
  -10.7361   -1.2490    4.5095 F   0  0  0  0  0  0  0  0  0  0  0  0
    6.4542    2.2271    2.8146 H   0  0  0  0  0  0  0  0  0  0  0  0
    6.7269    0.1572    2.5077 H   0  0  0  0  0  0  0  0  0  0  0  0
    8.7432    2.3241    0.2999 H   0  0  0  0  0  0  0  0  0  0  0  0
   11.2408    2.1060    0.1403 H   0  0  0  0  0  0  0  0  0  0  0  0
   12.4016    0.2815    1.3125 H   0  0  0  0  0  0  0  0  0  0  0  0
    8.6804   -1.1284    2.8046 H   0  0  0  0  0  0  0  0  0  0  0  0
    6.7285   -0.7420    0.1447 H   0  0  0  0  0  0  0  0  0  0  0  0
    6.9069    0.9084   -0.4595 H   0  0  0  0  0  0  0  0  0  0  0  0
    4.7439    1.4488    0.4488 H   0  0  0  0  0  0  0  0  0  0  0  0
    4.7533   -0.2669    2.2735 H   0  0  0  0  0  0  0  0  0  0  0  0
    4.6005   -1.4717    0.9812 H   0  0  0  0  0  0  0  0  0  0  0  0
    2.5667    0.7833    1.5996 H   0  0  0  0  0  0  0  0  0  0  0  0
    2.4231   -0.9942    1.9557 H   0  0  0  0  0  0  0  0  0  0  0  0
    2.5039    1.5896   -0.6880 H   0  0  0  0  0  0  0  0  0  0  0  0
    1.6279    1.3096   -2.9203 H   0  0  0  0  0  0  0  0  0  0  0  0
    1.0226   -2.8571   -2.1744 H   0  0  0  0  0  0  0  0  0  0  0  0
    1.9239   -2.5613    0.1208 H   0  0  0  0  0  0  0  0  0  0  0  0
    1.3277   -0.3931   -4.7444 H   0  0  0  0  0  0  0  0  0  0  0  0
   -2.4907    0.3681   -5.2359 H   0  0  0  0  0  0  0  0  0  0  0  0
   -4.4633    1.2764   -4.1134 H   0  0  0  0  0  0  0  0  0  0  0  0
   -3.9233   -1.4514   -0.8499 H   0  0  0  0  0  0  0  0  0  0  0  0
   -1.9206   -2.3888   -1.9636 H   0  0  0  0  0  0  0  0  0  0  0  0
   -8.4940    2.5615   -1.0109 H   0  0  0  0  0  0  0  0  0  0  0  0
   -6.4302   -0.9764    1.5751 H   0  0  0  0  0  0  0  0  0  0  0  0
   -7.5135   -1.5382    3.7235 H   0  0  0  0  0  0  0  0  0  0  0  0
  -10.4234    1.4766    2.9347 H   0  0  0  0  0  0  0  0  0  0  0  0
   -9.3112    2.0103    0.7912 H   0  0  0  0  0  0  0  0  0  0  0  0
  1  2  1  0
  2  3  1  0
  3  4  2  0
  4  5  1  0
  5  6  2  0
  6  7  1  0
  7  8  2  0
  2  9  1  0
  9 10  1  0
 10 11  1  0
 11 12  1  0
 12 13  1  0
 13 14  2  0
 14 15  1  0
 15 16  2  0
 16 17  1  0
 17 18  2  0
 16 19  1  0
 19 20  1  0
 20 21  2  0
 20 22  2  0
 20 23  1  0
 23 24  2  0
 24 25  1  0
 25 26  2  0
 26 27  1  0
 27 28  2  0
 26 29  1  0
 29 30  1  0
 30 31  1  0
 31 32  2  0
 32 33  1  0
 32 34  1  0
 34 35  2  0
 35 36  1  0
 36 37  2  0
 37 38  1  0
 38 39  2  0
 37 40  1  0
 40 41  1  0
 40 42  1  0
 40 43  1  0
  8  3  1  0
 18 13  1  0
 28 23  1  0
 33 29  2  0
 39 34  1  0
  1 44  1  0
  2 45  1  1
  4 46  1  0
  5 47  1  0
  6 48  1  0
  8 49  1  0
  9 50  1  0
  9 51  1  0
 10 52  1  0
 11 53  1  0
 11 54  1  0
 12 55  1  0
 12 56  1  0
 14 57  1  0
 15 58  1  0
 17 59  1  0
 18 60  1  0
 19 61  1  0
 24 62  1  0
 25 63  1  0
 27 64  1  0
 28 65  1  0
 31 66  1  0
 35 67  1  0
 36 68  1  0
 38 69  1  0
 39 70  1  0
M  END
>  <Ligand ID>  (1) 
LIG0000657

>  <Ligand>  (1) 
UNII-P50A5YTO0O

>  <SMILES>  (1) 
O[C@H](c1cccnc1)CNCCc1ccc(cc1)NS(=O)(=O)c1ccc(cc1)c1scc(n1)c1ccc(cc1)C(F)(F)F

>  <CID>  (1) 
3038500.0

>  <ChEMBL ID>  (1) 
nan

>  <InChiKey>  (1) 
MSOUIIHPMJCUNI-LJAQVGFWSA-N

>  <InChi>  (1) 
InChI=1S/C31H27F3N4O3S2/c32-31(33,34)25-9-5-22(6-10-25)28-20-42-30(37-28)23-7-13-27(14-8-23)43(40,41)38-26-11-3-21(4-12-26)15-17-36-19-29(39)24-2-1-16-35-18-24/h1-14,16,18,20,29,36,38-39H,15,17,19H2/t29-/m0/s1

>  <IUPAC Name>  (1) 
N-[4-[2-[[(2R)-2-hydroxy-2-pyridin-3-ylethyl]amino]ethyl]phenyl]-4-[4-[4-(trifluoromethyl)phenyl]-1,3-thiazol-2-yl]benzenesulfonamide

$$$$
