
     RDKit          3D

 32 33  0  0  0  0  0  0  0  0999 V2000
    4.6718    0.3526    0.4853 F   0  0  0  0  0  0  0  0  0  0  0  0
    3.5610   -0.4457    0.4900 C   0  0  0  0  0  0  0  0  0  0  0  0
    3.7746   -1.7991    0.6435 C   0  0  0  0  0  0  0  0  0  0  0  0
    2.6954   -2.6574    0.6565 C   0  0  0  0  0  0  0  0  0  0  0  0
    1.4482   -2.0919    0.5118 C   0  0  0  0  0  0  0  0  0  0  0  0
    1.2343   -0.7397    0.3582 C   0  0  0  0  0  0  0  0  0  0  0  0
    2.3125    0.1191    0.3455 C   0  0  0  0  0  0  0  0  0  0  0  0
    2.1506    1.8247    0.1572 S   0  0  0  0  0  0  0  0  0  0  0  0
    3.3832    2.4692    0.7952 O   0  0  0  0  0  0  0  0  0  0  0  0
    0.9912    2.4026    0.8689 O   0  0  0  0  0  0  0  0  0  0  0  0
    2.1537    2.2589   -1.5889 C   0  0  0  0  0  0  0  0  0  0  0  0
   -0.0962   -0.2672    0.2063 N   0  0  0  0  0  0  0  0  0  0  0  0
   -1.2173   -1.2070    0.2275 C   0  0  0  0  0  0  0  0  0  0  0  0
   -2.5246   -0.5476    0.0566 C   0  0  0  0  0  0  0  0  0  0  0  0
   -3.3795   -0.7707   -0.9012 N   0  0  0  0  0  0  0  0  0  0  0  0
   -4.5459    0.0685   -0.7291 C   0  0  0  0  0  0  0  0  0  0  0  0
   -4.0725    1.1600    0.2170 C   0  0  0  0  0  0  0  0  0  0  0  0
   -3.0272    0.4424    0.9434 N   0  0  0  0  0  0  0  0  0  0  0  0
    4.7772   -2.2170    0.7559 H   0  0  0  0  0  0  0  0  0  0  0  0
    2.8103   -3.7269    0.7742 H   0  0  0  0  0  0  0  0  0  0  0  0
    0.6067   -2.7804    0.5239 H   0  0  0  0  0  0  0  0  0  0  0  0
    2.6605    1.4922   -2.1928 H   0  0  0  0  0  0  0  0  0  0  0  0
    1.0814    2.3704   -1.9168 H   0  0  0  0  0  0  0  0  0  0  0  0
    2.6150    3.2657   -1.6642 H   0  0  0  0  0  0  0  0  0  0  0  0
   -0.3574    0.7312    0.0722 H   0  0  0  0  0  0  0  0  0  0  0  0
   -1.2489   -1.7895    1.1701 H   0  0  0  0  0  0  0  0  0  0  0  0
   -0.9928   -1.9237   -0.5884 H   0  0  0  0  0  0  0  0  0  0  0  0
   -4.9093    0.4896   -1.6844 H   0  0  0  0  0  0  0  0  0  0  0  0
   -5.3512   -0.5258   -0.2406 H   0  0  0  0  0  0  0  0  0  0  0  0
   -4.8955    1.4461    0.8696 H   0  0  0  0  0  0  0  0  0  0  0  0
   -3.6138    1.9957   -0.3547 H   0  0  0  0  0  0  0  0  0  0  0  0
   -2.6957    0.6009    1.9137 H   0  0  0  0  0  0  0  0  0  0  0  0
  1  2  1  0
  2  3  2  0
  3  4  1  0
  4  5  2  0
  5  6  1  0
  6  7  2  0
  7  8  1  0
  8  9  2  0
  8 10  2  0
  8 11  1  0
  6 12  1  0
 12 13  1  0
 13 14  1  0
 14 15  2  0
 15 16  1  0
 16 17  1  0
 17 18  1  0
  7  2  1  0
 18 14  1  0
  3 19  1  0
  4 20  1  0
  5 21  1  0
 11 22  1  0
 11 23  1  0
 11 24  1  0
 12 25  1  0
 13 26  1  0
 13 27  1  0
 16 28  1  0
 16 29  1  0
 17 30  1  0
 17 31  1  0
 18 32  1  0
M  END
>  <Ligand ID>  (1) 
LIG0001003

>  <Ligand>  (1) 
CHEMBL419448

>  <SMILES>  (1) 
Fc1cccc(c1S(=O)(=O)C)NCC1=NCCN1

>  <CID>  (1) 
11090351.0

>  <ChEMBL ID>  (1) 
nan

>  <InChiKey>  (1) 
FFVMPJRYEFKURT-UHFFFAOYSA-N

>  <InChi>  (1) 
InChI=1S/C11H14FN3O2S/c1-18(16,17)11-8(12)3-2-4-9(11)15-7-10-13-5-6-14-10/h2-4,15H,5-7H2,1H3,(H,13,14)

>  <IUPAC Name>  (1) 
N-(4,5-dihydro-1H-imidazol-2-ylmethyl)-3-fluoro-2-methylsulfonylaniline

$$$$
