
     RDKit          3D

 54 56  0  0  0  0  0  0  0  0999 V2000
   -4.7700   -4.0662   -0.1795 O   0  0  0  0  0  0  0  0  0  0  0  0
   -3.5093   -3.5357   -0.3302 C   0  0  0  0  0  0  0  0  0  0  0  0
   -2.8509   -3.2608    1.0222 C   0  0  1  0  0  0  0  0  0  0  0  0
   -3.6724   -2.3067    1.8319 C   0  0  0  0  0  0  0  0  0  0  0  0
   -3.8259   -1.0277    1.1962 N   0  0  0  0  0  0  0  0  0  0  0  0
   -2.7281   -0.1862    0.8704 C   0  0  0  0  0  0  0  0  0  0  0  0
   -1.4536   -0.5319    1.1386 N   0  0  0  0  0  0  0  0  0  0  0  0
   -0.3981    0.2473    0.8407 C   0  0  0  0  0  0  0  0  0  0  0  0
    1.2871   -0.2180    1.1997 S   0  0  0  0  0  0  0  0  0  0  0  0
    2.0726   -1.1342   -0.1289 C   0  0  0  0  0  0  0  0  0  0  0  0
    3.4711   -1.4421    0.3345 C   0  0  0  0  0  0  0  0  0  0  0  0
    3.7704   -2.5958    1.0294 C   0  0  0  0  0  0  0  0  0  0  0  0
    5.0899   -2.7878    1.4126 C   0  0  0  0  0  0  0  0  0  0  0  0
    6.0898   -1.8807    1.1265 C   0  0  0  0  0  0  0  0  0  0  0  0
    5.7793   -0.7354    0.4337 C   0  0  0  0  0  0  0  0  0  0  0  0
    4.4705   -0.5354    0.0485 C   0  0  0  0  0  0  0  0  0  0  0  0
    6.7584    0.2864    0.0803 C   0  0  0  0  0  0  0  0  0  0  0  0
    6.4281    1.3385   -0.5647 O   0  0  0  0  0  0  0  0  0  0  0  0
    8.1319    0.1776    0.4283 N   0  0  0  0  0  0  0  0  0  0  0  0
   -0.5744    1.4889    0.2210 C   0  0  0  0  0  0  0  0  0  0  0  0
   -1.8607    1.8776   -0.0692 C   0  0  0  0  0  0  0  0  0  0  0  0
   -2.8958    1.0531    0.2524 C   0  0  0  0  0  0  0  0  0  0  0  0
   -4.2445    1.4389   -0.0411 C   0  0  0  0  0  0  0  0  0  0  0  0
   -5.3248    1.7598   -0.2820 N   0  0  0  0  0  0  0  0  0  0  0  0
   -2.0664    3.1682   -0.7152 C   0  0  0  0  0  0  0  0  0  0  0  0
   -2.2418    4.2712    0.1071 C   0  0  0  0  0  0  0  0  0  0  0  0
   -2.4390    5.5090   -0.4608 C   0  0  0  0  0  0  0  0  0  0  0  0
   -2.4545    5.6055   -1.8387 C   0  0  0  0  0  0  0  0  0  0  0  0
   -2.2804    4.5111   -2.6660 C   0  0  0  0  0  0  0  0  0  0  0  0
   -2.0812    3.2599   -2.0949 C   0  0  0  0  0  0  0  0  0  0  0  0
    0.5420    2.3311   -0.1029 C   0  0  0  0  0  0  0  0  0  0  0  0
    1.4470    3.0184   -0.3606 N   0  0  0  0  0  0  0  0  0  0  0  0
   -2.7576   -4.4745    1.7199 O   0  0  0  0  0  0  0  0  0  0  0  0
   -5.4038   -3.6163   -0.7889 H   0  0  0  0  0  0  0  0  0  0  0  0
   -3.5598   -2.6326   -0.9377 H   0  0  0  0  0  0  0  0  0  0  0  0
   -2.8518   -4.2537   -0.8676 H   0  0  0  0  0  0  0  0  0  0  0  0
   -1.8299   -2.8632    0.8808 H   0  0  0  0  0  0  0  0  0  0  0  0
   -4.6797   -2.7447    2.0011 H   0  0  0  0  0  0  0  0  0  0  0  0
   -3.1911   -2.2063    2.8280 H   0  0  0  0  0  0  0  0  0  0  0  0
   -4.7834   -0.6605    0.9433 H   0  0  0  0  0  0  0  0  0  0  0  0
    2.1680   -0.5357   -1.0559 H   0  0  0  0  0  0  0  0  0  0  0  0
    1.5332   -2.0579   -0.4290 H   0  0  0  0  0  0  0  0  0  0  0  0
    2.9908   -3.3110    1.2569 H   0  0  0  0  0  0  0  0  0  0  0  0
    5.3723   -3.6807    1.9612 H   0  0  0  0  0  0  0  0  0  0  0  0
    7.1171   -2.0460    1.4335 H   0  0  0  0  0  0  0  0  0  0  0  0
    4.2139    0.3564   -0.4941 H   0  0  0  0  0  0  0  0  0  0  0  0
    8.6914    1.0371    0.6375 H   0  0  0  0  0  0  0  0  0  0  0  0
    8.6360   -0.7285    0.4913 H   0  0  0  0  0  0  0  0  0  0  0  0
   -2.2282    4.1867    1.1794 H   0  0  0  0  0  0  0  0  0  0  0  0
   -2.5805    6.3989    0.1364 H   0  0  0  0  0  0  0  0  0  0  0  0
   -2.6091    6.5760   -2.2828 H   0  0  0  0  0  0  0  0  0  0  0  0
   -2.2945    4.5987   -3.7435 H   0  0  0  0  0  0  0  0  0  0  0  0
   -1.9440    2.3977   -2.7242 H   0  0  0  0  0  0  0  0  0  0  0  0
   -3.6755   -4.8380    1.7637 H   0  0  0  0  0  0  0  0  0  0  0  0
  1  2  1  0
  2  3  1  0
  3  4  1  0
  4  5  1  0
  5  6  1  0
  6  7  2  0
  7  8  1  0
  8  9  1  0
  9 10  1  0
 10 11  1  0
 11 12  2  0
 12 13  1  0
 13 14  2  0
 14 15  1  0
 15 16  2  0
 15 17  1  0
 17 18  2  0
 17 19  1  0
  8 20  2  0
 20 21  1  0
 21 22  2  0
 22 23  1  0
 23 24  3  0
 21 25  1  0
 25 26  2  0
 26 27  1  0
 27 28  2  0
 28 29  1  0
 29 30  2  0
 20 31  1  0
 31 32  3  0
  3 33  1  0
 22  6  1  0
 30 25  1  0
 16 11  1  0
  1 34  1  0
  2 35  1  0
  2 36  1  0
  3 37  1  6
  4 38  1  0
  4 39  1  0
  5 40  1  0
 10 41  1  0
 10 42  1  0
 12 43  1  0
 13 44  1  0
 14 45  1  0
 16 46  1  0
 19 47  1  0
 19 48  1  0
 26 49  1  0
 27 50  1  0
 28 51  1  0
 29 52  1  0
 30 53  1  0
 33 54  1  0
M  END
>  <Ligand ID>  (1) 
LIG0002658

>  <Ligand>  (1) 
SCHEMBL245880

>  <SMILES>  (1) 
OC[C@@H](CNc1nc(SCc2cccc(c2)C(=O)N)c(c(c1C#N)c1ccccc1)C#N)O

>  <CID>  (1) 
66631775.0

>  <ChEMBL ID>  (1) 
nan

>  <InChiKey>  (1) 
NXTIBIHGJTZXGE-GOSISDBHSA-N

>  <InChi>  (1) 
InChI=1S/C24H21N5O3S/c25-10-19-21(16-6-2-1-3-7-16)20(11-26)24(29-23(19)28-12-18(31)13-30)33-14-15-5-4-8-17(9-15)22(27)32/h1-9,18,30-31H,12-14H2,(H2,27,32)(H,28,29)/t18-/m1/s1

>  <IUPAC Name>  (1) 
3-[[3,5-dicyano-6-[[(2R)-2,3-dihydroxypropyl]amino]-4-phenylpyridin-2-yl]sulfanylmethyl]benzamide

$$$$
