
     RDKit          3D

 61 64  0  0  0  0  0  0  0  0999 V2000
   -3.4200   -2.6367    1.0231 C   0  0  0  0  0  0  0  0  0  0  0  0
   -2.6961   -1.3264    0.8861 C   0  0  2  0  0  0  0  0  0  0  0  0
   -3.6123   -0.1616    0.5846 C   0  0  0  0  0  0  0  0  0  0  0  0
   -4.3117   -0.4351   -0.6314 N   0  0  0  0  0  0  0  0  0  0  0  0
   -3.7979   -1.2078   -1.7364 C   0  0  0  0  0  0  0  0  0  0  0  0
   -2.4638   -1.8138   -1.5239 C   0  0  0  0  0  0  0  0  0  0  0  0
   -1.8230   -1.4262   -0.2898 N   0  0  0  0  0  0  0  0  0  0  0  0
   -0.4195   -1.1489   -0.1920 C   0  0  0  0  0  0  0  0  0  0  0  0
    0.1709   -0.8204    0.9606 N   0  0  0  0  0  0  0  0  0  0  0  0
    1.4890   -0.5659    1.0191 C   0  0  0  0  0  0  0  0  0  0  0  0
    2.2257   -0.6511   -0.1416 C   0  0  0  0  0  0  0  0  0  0  0  0
    1.5969   -0.9945   -1.3354 C   0  0  0  0  0  0  0  0  0  0  0  0
    0.2758   -1.2417   -1.3521 N   0  0  0  0  0  0  0  0  0  0  0  0
    3.5863   -0.4145   -0.2153 O   0  0  0  0  0  0  0  0  0  0  0  0
    4.3089   -0.0614    0.9464 C   0  0  0  0  0  0  0  0  0  0  0  0
    5.7603    0.1387    0.5927 C   0  0  0  0  0  0  0  0  0  0  0  0
    6.7125   -0.8203    0.8998 C   0  0  0  0  0  0  0  0  0  0  0  0
    8.0277   -0.5648    0.5378 C   0  0  0  0  0  0  0  0  0  0  0  0
    8.3903    0.6119   -0.1123 C   0  0  0  0  0  0  0  0  0  0  0  0
    7.4374    1.5614   -0.4144 C   0  0  0  0  0  0  0  0  0  0  0  0
    6.1182    1.3222   -0.0598 C   0  0  0  0  0  0  0  0  0  0  0  0
    5.1548    2.2559   -0.3513 F   0  0  0  0  0  0  0  0  0  0  0  0
   10.0836    0.7980   -0.5089 S   0  0  0  0  0  0  0  0  0  0  0  0
   10.6975   -0.5542   -0.7146 O   0  0  0  0  0  0  0  0  0  0  0  0
   10.1931    1.6626   -1.7329 O   0  0  0  0  0  0  0  0  0  0  0  0
   10.8953    1.5845    0.8435 C   0  0  0  0  0  0  0  0  0  0  0  0
   -5.6358    0.0953   -0.7847 C   0  0  0  0  0  0  0  0  0  0  0  0
   -6.3323   -0.0843   -1.8061 O   0  0  0  0  0  0  0  0  0  0  0  0
   -6.2314    0.8642    0.2337 O   0  0  0  0  0  0  0  0  0  0  0  0
   -7.5281    1.3913    0.0982 C   0  0  0  0  0  0  0  0  0  0  0  0
   -8.6255    0.3855   -0.1042 C   0  0  0  0  0  0  0  0  0  0  0  0
   -9.3817    0.9537    0.9274 O   0  0  0  0  0  0  0  0  0  0  0  0
   -8.2021    1.4462    1.4526 C   0  0  0  0  0  0  0  0  0  0  0  0
   -7.6501    2.6874   -0.6323 C   0  0  0  0  0  0  0  0  0  0  0  0
   -6.9368    3.6713   -0.0115 F   0  0  0  0  0  0  0  0  0  0  0  0
   -7.3351    2.5728   -1.9779 F   0  0  0  0  0  0  0  0  0  0  0  0
   -8.9842    3.0586   -0.5973 F   0  0  0  0  0  0  0  0  0  0  0  0
   -3.8462   -3.0101    0.0869 H   0  0  0  0  0  0  0  0  0  0  0  0
   -4.1568   -2.5878    1.8643 H   0  0  0  0  0  0  0  0  0  0  0  0
   -2.6588   -3.3778    1.3505 H   0  0  0  0  0  0  0  0  0  0  0  0
   -2.1051   -1.1778    1.8071 H   0  0  0  0  0  0  0  0  0  0  0  0
   -4.2936   -0.0088    1.4441 H   0  0  0  0  0  0  0  0  0  0  0  0
   -2.9431    0.7069    0.4030 H   0  0  0  0  0  0  0  0  0  0  0  0
   -4.5195   -2.0278   -1.9985 H   0  0  0  0  0  0  0  0  0  0  0  0
   -3.8482   -0.5239   -2.6257 H   0  0  0  0  0  0  0  0  0  0  0  0
   -1.8040   -1.5596   -2.3832 H   0  0  0  0  0  0  0  0  0  0  0  0
   -2.4877   -2.9432   -1.4946 H   0  0  0  0  0  0  0  0  0  0  0  0
    2.0082   -0.2954    1.9362 H   0  0  0  0  0  0  0  0  0  0  0  0
    2.1435   -1.0724   -2.2740 H   0  0  0  0  0  0  0  0  0  0  0  0
    4.2096   -0.8161    1.7554 H   0  0  0  0  0  0  0  0  0  0  0  0
    3.9352    0.9417    1.2739 H   0  0  0  0  0  0  0  0  0  0  0  0
    6.4090   -1.7116    1.3976 H   0  0  0  0  0  0  0  0  0  0  0  0
    8.7567   -1.3331    0.7897 H   0  0  0  0  0  0  0  0  0  0  0  0
    7.7495    2.4745   -0.9243 H   0  0  0  0  0  0  0  0  0  0  0  0
   11.9757    1.7036    0.6472 H   0  0  0  0  0  0  0  0  0  0  0  0
   10.4015    2.5538    1.0344 H   0  0  0  0  0  0  0  0  0  0  0  0
   10.7409    0.9761    1.7708 H   0  0  0  0  0  0  0  0  0  0  0  0
   -9.1198    0.3814   -1.0833 H   0  0  0  0  0  0  0  0  0  0  0  0
   -8.2781   -0.6281    0.2304 H   0  0  0  0  0  0  0  0  0  0  0  0
   -8.2653    2.4558    1.9056 H   0  0  0  0  0  0  0  0  0  0  0  0
   -7.7403    0.7482    2.2067 H   0  0  0  0  0  0  0  0  0  0  0  0
  1  2  1  0
  2  3  1  0
  3  4  1  0
  4  5  1  0
  5  6  1  0
  6  7  1  0
  7  8  1  0
  8  9  2  0
  9 10  1  0
 10 11  2  0
 11 12  1  0
 12 13  2  0
 11 14  1  0
 14 15  1  0
 15 16  1  0
 16 17  2  0
 17 18  1  0
 18 19  2  0
 19 20  1  0
 20 21  2  0
 21 22  1  0
 19 23  1  0
 23 24  2  0
 23 25  2  0
 23 26  1  0
  4 27  1  0
 27 28  2  0
 27 29  1  0
 29 30  1  0
 30 31  1  0
 31 32  1  0
 32 33  1  0
 30 34  1  0
 34 35  1  0
 34 36  1  0
 34 37  1  0
  7  2  1  0
 13  8  1  0
 21 16  1  0
 33 30  1  0
  1 38  1  0
  1 39  1  0
  1 40  1  0
  2 41  1  1
  3 42  1  0
  3 43  1  0
  5 44  1  0
  5 45  1  0
  6 46  1  0
  6 47  1  0
 10 48  1  0
 12 49  1  0
 15 50  1  0
 15 51  1  0
 17 52  1  0
 18 53  1  0
 20 54  1  0
 26 55  1  0
 26 56  1  0
 26 57  1  0
 31 58  1  0
 31 59  1  0
 33 60  1  0
 33 61  1  0
M  END
>  <Ligand ID>  (1) 
LIG0005284

>  <Ligand>  (1) 
CHEMBL3358012

>  <SMILES>  (1) 
C[C@@H]1CN(CCN1c1ncc(cn1)OCc1ccc(cc1F)S(=O)(=O)C)C(=O)OC1(COC1)C(F)(F)F

>  <CID>  (1) 
58190324.0

>  <ChEMBL ID>  (1) 
nan

>  <InChiKey>  (1) 
GHPSDAPCCXIXEV-CQSZACIVSA-N

>  <InChi>  (1) 
InChI=1S/C22H24F4N4O6S/c1-14-10-29(20(31)36-21(12-34-13-21)22(24,25)26)5-6-30(14)19-27-8-16(9-28-19)35-11-15-3-4-17(7-18(15)23)37(2,32)33/h3-4,7-9,14H,5-6,10-13H2,1-2H3/t14-/m1/s1

>  <IUPAC Name>  (1) 
[3-(trifluoromethyl)oxetan-3-yl] (3R)-4-[5-[(2-fluoro-4-methylsulfonylphenyl)methoxy]pyrimidin-2-yl]-3-methylpiperazine-1-carboxylate

$$$$
