
     RDKit          3D

 22 23  0  0  0  0  0  0  0  0999 V2000
    3.7816    0.4437   -0.2441 C   0  0  0  0  0  0  0  0  0  0  0  0
    2.9040   -0.6111   -0.5213 O   0  0  0  0  0  0  0  0  0  0  0  0
    1.5363   -0.5981   -0.3700 C   0  0  0  0  0  0  0  0  0  0  0  0
    0.8338   -1.7599   -0.7036 C   0  0  0  0  0  0  0  0  0  0  0  0
   -0.5400   -1.8212   -0.5779 C   0  0  0  0  0  0  0  0  0  0  0  0
   -1.2512   -0.7238   -0.1154 C   0  0  0  0  0  0  0  0  0  0  0  0
   -0.5699    0.4495    0.2245 C   0  0  0  0  0  0  0  0  0  0  0  0
    0.8128    0.4811    0.0874 C   0  0  0  0  0  0  0  0  0  0  0  0
   -1.2531    1.5569    0.6876 C   0  0  0  0  0  0  0  0  0  0  0  0
   -2.6260    1.4639    0.8020 C   0  0  0  0  0  0  0  0  0  0  0  0
   -3.3271    0.3112    0.4715 C   0  0  0  0  0  0  0  0  0  0  0  0
   -2.6427   -0.7951    0.0087 C   0  0  0  0  0  0  0  0  0  0  0  0
    3.2819    1.4338   -0.2217 H   0  0  0  0  0  0  0  0  0  0  0  0
    4.5017    0.4928   -1.0994 H   0  0  0  0  0  0  0  0  0  0  0  0
    4.3456    0.2761    0.6969 H   0  0  0  0  0  0  0  0  0  0  0  0
    1.3997   -2.6200   -1.0671 H   0  0  0  0  0  0  0  0  0  0  0  0
   -1.0476   -2.7433   -0.8481 H   0  0  0  0  0  0  0  0  0  0  0  0
    1.3242    1.3810    0.3493 H   0  0  0  0  0  0  0  0  0  0  0  0
   -0.7031    2.4589    0.9461 H   0  0  0  0  0  0  0  0  0  0  0  0
   -3.1515    2.3370    1.1657 H   0  0  0  0  0  0  0  0  0  0  0  0
   -4.4217    0.2934    0.5826 H   0  0  0  0  0  0  0  0  0  0  0  0
   -3.1878   -1.7067   -0.2537 H   0  0  0  0  0  0  0  0  0  0  0  0
  1  2  1  0
  2  3  1  0
  3  4  2  0
  4  5  1  0
  5  6  2  0
  6  7  1  0
  7  8  2  0
  7  9  1  0
  9 10  2  0
 10 11  1  0
 11 12  2  0
  8  3  1  0
 12  6  1  0
  1 13  1  0
  1 14  1  0
  1 15  1  0
  4 16  1  0
  5 17  1  0
  8 18  1  0
  9 19  1  0
 10 20  1  0
 11 21  1  0
 12 22  1  0
M  END
>  <Ligand ID>  (1) 
LIG0000335

>  <Ligand>  (1) 
2-methoxynaphthalene

>  <SMILES>  (1) 
COc1ccc2c(c1)cccc2

>  <CID>  (1) 
7119.0

>  <ChEMBL ID>  (1) 
nan

>  <InChiKey>  (1) 
LUZDYPLAQQGJEA-UHFFFAOYSA-N

>  <InChi>  (1) 
InChI=1S/C11H10O/c1-12-11-7-6-9-4-2-3-5-10(9)8-11/h2-8H,1H3

>  <IUPAC Name>  (1) 
2-methoxynaphthalene

$$$$
