
     RDKit          3D

 65 67  0  0  0  0  0  0  0  0999 V2000
   11.8047    1.9594    0.6620 O   0  0  0  0  0  0  0  0  0  0  0  0
   11.2088    0.6864    0.6781 C   0  0  0  0  0  0  0  0  0  0  0  0
   11.8827   -0.3699    0.7511 O   0  0  0  0  0  0  0  0  0  0  0  0
    9.7121    0.6865    0.6018 C   0  0  0  0  0  0  0  0  0  0  0  0
    9.1509   -0.6905    0.6202 C   0  0  0  0  0  0  0  0  0  0  0  0
    7.7207   -0.6644    0.5666 N   0  0  0  0  0  0  0  0  0  0  0  0
    7.2664   -0.2178   -0.7217 C   0  0  0  0  0  0  0  0  0  0  0  0
    5.7540   -0.2747   -0.7363 C   0  0  0  0  0  0  0  0  0  0  0  0
    5.0947    0.9260   -0.6087 C   0  0  0  0  0  0  0  0  0  0  0  0
    3.7215    0.9085   -0.6128 C   0  0  0  0  0  0  0  0  0  0  0  0
    2.9870   -0.2764   -0.7406 C   0  0  0  0  0  0  0  0  0  0  0  0
    3.7010   -1.4446   -0.8650 C   0  0  0  0  0  0  0  0  0  0  0  0
    5.0917   -1.4870   -0.8675 C   0  0  0  0  0  0  0  0  0  0  0  0
    5.9788   -2.9821   -1.0256 Cl  0  0  0  0  0  0  0  0  0  0  0  0
    1.5337   -0.2153   -0.7318 C   0  0  0  0  0  0  0  0  0  0  0  0
    0.7864   -1.2911   -0.8520 N   0  0  0  0  0  0  0  0  0  0  0  0
   -0.5612   -1.0398   -0.8229 O   0  0  0  0  0  0  0  0  0  0  0  0
   -1.3725   -1.7867    0.0616 C   0  0  0  0  0  0  0  0  0  0  0  0
   -2.8036   -1.3474   -0.0538 C   0  0  0  0  0  0  0  0  0  0  0  0
   -3.2094   -0.3383    0.7675 C   0  0  0  0  0  0  0  0  0  0  0  0
   -4.5127    0.1174    0.6926 C   0  0  0  0  0  0  0  0  0  0  0  0
   -5.4519   -0.3852   -0.1714 C   0  0  0  0  0  0  0  0  0  0  0  0
   -5.0121   -1.4270   -1.0089 C   0  0  0  0  0  0  0  0  0  0  0  0
   -3.6934   -1.8846   -0.9295 C   0  0  0  0  0  0  0  0  0  0  0  0
   -5.8927   -2.0791   -1.9895 C   0  0  0  0  0  0  0  0  0  0  0  0
   -5.1952   -3.0727   -2.6991 F   0  0  0  0  0  0  0  0  0  0  0  0
   -6.9629   -2.7556   -1.4523 F   0  0  0  0  0  0  0  0  0  0  0  0
   -6.2438   -1.1692   -2.9698 F   0  0  0  0  0  0  0  0  0  0  0  0
   -6.8529    0.0790   -0.2576 C   0  0  0  0  0  0  0  0  0  0  0  0
   -7.6656   -0.2532    0.9656 C   0  0  0  0  0  0  0  0  0  0  0  0
   -8.3554    0.9521    1.5525 C   0  0  0  0  0  0  0  0  0  0  0  0
   -7.4486    2.1564    1.6008 C   0  0  0  0  0  0  0  0  0  0  0  0
   -6.8341    2.5036    0.2918 C   0  0  0  0  0  0  0  0  0  0  0  0
   -7.0978    1.4544   -0.7099 C   0  0  0  0  0  0  0  0  0  0  0  0
    0.8815    1.1336   -0.5759 C   0  0  0  0  0  0  0  0  0  0  0  0
   12.7694    2.0076    0.3460 H   0  0  0  0  0  0  0  0  0  0  0  0
    9.4002    1.2283   -0.2976 H   0  0  0  0  0  0  0  0  0  0  0  0
    9.3467    1.2591    1.4790 H   0  0  0  0  0  0  0  0  0  0  0  0
    9.4968   -1.2201   -0.3118 H   0  0  0  0  0  0  0  0  0  0  0  0
    9.4970   -1.2796    1.5204 H   0  0  0  0  0  0  0  0  0  0  0  0
    7.3345   -1.5913    0.8014 H   0  0  0  0  0  0  0  0  0  0  0  0
    7.6070    0.7942   -0.9445 H   0  0  0  0  0  0  0  0  0  0  0  0
    7.6800   -0.8990   -1.4935 H   0  0  0  0  0  0  0  0  0  0  0  0
    5.6131    1.8622   -0.5089 H   0  0  0  0  0  0  0  0  0  0  0  0
    3.2131    1.8590   -0.5123 H   0  0  0  0  0  0  0  0  0  0  0  0
    3.1900   -2.3810   -0.9643 H   0  0  0  0  0  0  0  0  0  0  0  0
   -1.0496   -1.6473    1.0928 H   0  0  0  0  0  0  0  0  0  0  0  0
   -1.3156   -2.8944   -0.1499 H   0  0  0  0  0  0  0  0  0  0  0  0
   -2.5138    0.1132    1.4820 H   0  0  0  0  0  0  0  0  0  0  0  0
   -4.7785    0.9048    1.3775 H   0  0  0  0  0  0  0  0  0  0  0  0
   -3.3557   -2.6835   -1.5721 H   0  0  0  0  0  0  0  0  0  0  0  0
   -7.3806   -0.5649   -1.0780 H   0  0  0  0  0  0  0  0  0  0  0  0
   -8.4630   -1.0023    0.8145 H   0  0  0  0  0  0  0  0  0  0  0  0
   -7.0145   -0.7155    1.7718 H   0  0  0  0  0  0  0  0  0  0  0  0
   -9.3039    1.2069    1.0415 H   0  0  0  0  0  0  0  0  0  0  0  0
   -8.6213    0.7010    2.5981 H   0  0  0  0  0  0  0  0  0  0  0  0
   -8.0946    2.9934    1.9904 H   0  0  0  0  0  0  0  0  0  0  0  0
   -6.6494    2.0224    2.3576 H   0  0  0  0  0  0  0  0  0  0  0  0
   -7.2834    3.4970   -0.0698 H   0  0  0  0  0  0  0  0  0  0  0  0
   -5.7328    2.7144    0.3252 H   0  0  0  0  0  0  0  0  0  0  0  0
   -6.6559    1.6861   -1.7168 H   0  0  0  0  0  0  0  0  0  0  0  0
   -8.2137    1.5150   -0.9439 H   0  0  0  0  0  0  0  0  0  0  0  0
    1.0443    1.5262    0.4593 H   0  0  0  0  0  0  0  0  0  0  0  0
    1.3261    1.8184   -1.3195 H   0  0  0  0  0  0  0  0  0  0  0  0
   -0.2025    1.0591   -0.7862 H   0  0  0  0  0  0  0  0  0  0  0  0
  1  2  1  0
  2  3  2  0
  2  4  1  0
  4  5  1  0
  5  6  1  0
  6  7  1  0
  7  8  1  0
  8  9  2  0
  9 10  1  0
 10 11  2  0
 11 12  1  0
 12 13  2  0
 13 14  1  0
 11 15  1  0
 15 16  2  0
 16 17  1  0
 17 18  1  0
 18 19  1  0
 19 20  2  0
 20 21  1  0
 21 22  2  0
 22 23  1  0
 23 24  2  0
 23 25  1  0
 25 26  1  0
 25 27  1  0
 25 28  1  0
 22 29  1  0
 29 30  1  0
 30 31  1  0
 31 32  1  0
 32 33  1  0
 33 34  1  0
 15 35  1  0
 13  8  1  0
 24 19  1  0
 34 29  1  0
  1 36  1  0
  4 37  1  0
  4 38  1  0
  5 39  1  0
  5 40  1  0
  6 41  1  0
  7 42  1  0
  7 43  1  0
  9 44  1  0
 10 45  1  0
 12 46  1  0
 18 47  1  0
 18 48  1  0
 20 49  1  0
 21 50  1  0
 24 51  1  0
 29 52  1  0
 30 53  1  0
 30 54  1  0
 31 55  1  0
 31 56  1  0
 32 57  1  0
 32 58  1  0
 33 59  1  0
 33 60  1  0
 34 61  1  0
 34 62  1  0
 35 63  1  0
 35 64  1  0
 35 65  1  0
M  END
>  <Ligand ID>  (1) 
LIG0005573

>  <Ligand>  (1) 
CHEMBL2336065

>  <SMILES>  (1) 
OC(=O)CCNCc1ccc(cc1Cl)/C(=N/OCc1ccc(c(c1)C(F)(F)F)C1CCCCC1)/C

>  <CID>  (1) 
57570463.0

>  <ChEMBL ID>  (1) 
nan

>  <InChiKey>  (1) 
LFRFHNNDPXJMKU-VTNSRFBWSA-N

>  <InChi>  (1) 
InChI=1S/C26H30ClF3N2O3/c1-17(20-8-9-21(24(27)14-20)15-31-12-11-25(33)34)32-35-16-18-7-10-22(19-5-3-2-4-6-19)23(13-18)26(28,29)30/h7-10,13-14,19,31H,2-6,11-12,15-16H2,1H3,(H,33,34)/b32-17+

>  <IUPAC Name>  (1) 
3-[[2-chloro-4-[(E)-N-[[4-cyclohexyl-3-(trifluoromethyl)phenyl]methoxy]-C-methylcarbonimidoyl]phenyl]methylamino]propanoic acid

$$$$
