
     RDKit          3D

 35 38  0  0  0  0  0  0  0  0999 V2000
   -4.7127    1.3192    1.2171 O   0  0  0  0  0  0  0  0  0  0  0  0
   -3.5033    1.1636    0.9323 C   0  0  0  0  0  0  0  0  0  0  0  0
   -2.4661    2.1230    1.3178 C   0  0  0  0  0  0  0  0  0  0  0  0
   -2.8024    3.1418    1.9556 O   0  0  0  0  0  0  0  0  0  0  0  0
   -1.1010    1.8818    0.9625 C   0  0  0  0  0  0  0  0  0  0  0  0
   -0.6691    0.8030    0.2763 C   0  0  0  0  0  0  0  0  0  0  0  0
   -1.6719   -0.1476   -0.1161 C   0  0  0  0  0  0  0  0  0  0  0  0
   -3.0325   -0.0065    0.1819 C   0  0  0  0  0  0  0  0  0  0  0  0
   -3.9833   -0.8898   -0.2492 C   0  0  0  0  0  0  0  0  0  0  0  0
   -3.6460   -1.9827   -1.0189 C   0  0  0  0  0  0  0  0  0  0  0  0
   -2.3221   -2.1464   -1.3341 C   0  0  0  0  0  0  0  0  0  0  0  0
   -1.3735   -1.2571   -0.8963 C   0  0  0  0  0  0  0  0  0  0  0  0
    0.7257    0.7881   -0.0580 C   0  0  0  0  0  0  0  0  0  0  0  0
    1.2423    1.9515   -0.6493 C   0  0  0  0  0  0  0  0  0  0  0  0
    0.3986    3.0088   -0.9566 O   0  0  0  0  0  0  0  0  0  0  0  0
    2.5729    2.0998   -0.9464 C   0  0  0  0  0  0  0  0  0  0  0  0
    3.4846    1.1023   -0.6756 C   0  0  0  0  0  0  0  0  0  0  0  0
    2.9954   -0.0454   -0.0908 C   0  0  0  0  0  0  0  0  0  0  0  0
    1.6373   -0.1931    0.2117 C   0  0  0  0  0  0  0  0  0  0  0  0
    1.3010   -1.3524    0.8598 C   0  0  0  0  0  0  0  0  0  0  0  0
    2.2015   -2.3259    1.1973 C   0  0  0  0  0  0  0  0  0  0  0  0
    3.5290   -2.1745    0.8905 C   0  0  0  0  0  0  0  0  0  0  0  0
    3.9176   -1.0169    0.2397 C   0  0  0  0  0  0  0  0  0  0  0  0
   -0.3654    2.6417    1.2807 H   0  0  0  0  0  0  0  0  0  0  0  0
   -5.0170   -0.7607   -0.0033 H   0  0  0  0  0  0  0  0  0  0  0  0
   -4.3521   -2.7094   -1.3846 H   0  0  0  0  0  0  0  0  0  0  0  0
   -2.0156   -2.9870   -1.9361 H   0  0  0  0  0  0  0  0  0  0  0  0
   -0.3704   -1.4026   -1.1958 H   0  0  0  0  0  0  0  0  0  0  0  0
    0.5887    3.6609   -1.6987 H   0  0  0  0  0  0  0  0  0  0  0  0
    2.9356    3.0160   -1.4054 H   0  0  0  0  0  0  0  0  0  0  0  0
    4.5297    1.2304   -0.9168 H   0  0  0  0  0  0  0  0  0  0  0  0
    0.2807   -1.4899    1.1542 H   0  0  0  0  0  0  0  0  0  0  0  0
    1.8479   -3.2289    1.7163 H   0  0  0  0  0  0  0  0  0  0  0  0
    4.2381   -2.9359    1.1511 H   0  0  0  0  0  0  0  0  0  0  0  0
    4.9774   -0.8794   -0.0126 H   0  0  0  0  0  0  0  0  0  0  0  0
  1  2  2  0
  2  3  1  0
  3  4  2  0
  3  5  1  0
  5  6  2  0
  6  7  1  0
  7  8  2  0
  8  9  1  0
  9 10  2  0
 10 11  1  0
 11 12  2  0
  6 13  1  0
 13 14  2  0
 14 15  1  0
 14 16  1  0
 16 17  2  0
 17 18  1  0
 18 19  2  0
 19 20  1  0
 20 21  2  0
 21 22  1  0
 22 23  2  0
  8  2  1  0
 19 13  1  0
 12  7  1  0
 23 18  1  0
  5 24  1  0
  9 25  1  0
 10 26  1  0
 11 27  1  0
 12 28  1  0
 15 29  1  0
 16 30  1  0
 17 31  1  0
 20 32  1  0
 21 33  1  0
 22 34  1  0
 23 35  1  0
M  END
>  <Ligand ID>  (1) 
LIG0002743

>  <Ligand>  (1) 
MLS002701634

>  <SMILES>  (1) 
O=C1C(=O)C=C(c2c1cccc2)c1c(O)ccc2c1cccc2

>  <CID>  (1) 
265898.0

>  <ChEMBL ID>  (1) 
nan

>  <InChiKey>  (1) 
CEFYNLRCBQRIBG-UHFFFAOYSA-N

>  <InChi>  (1) 
InChI=1S/C20H12O3/c21-17-10-9-12-5-1-2-6-13(12)19(17)16-11-18(22)20(23)15-8-4-3-7-14(15)16/h1-11,21H

>  <IUPAC Name>  (1) 
4-(2-hydroxynaphthalen-1-yl)naphthalene-1,2-dione

$$$$
