
     RDKit          3D

 38 39  0  0  0  0  0  0  0  0999 V2000
   -2.0933   -2.9084    0.0376 O   0  0  0  0  0  0  0  0  0  0  0  0
   -1.6211   -1.6153   -0.1082 C   0  0  2  0  0  0  0  0  0  0  0  0
   -0.1331   -1.4834    0.1075 C   0  0  0  0  0  0  0  0  0  0  0  0
   -0.0492   -0.6203    1.3355 C   0  0  2  0  0  0  0  0  0  0  0  0
   -1.2084    0.1515    1.3548 O   0  0  0  0  0  0  0  0  0  0  0  0
   -2.2341   -0.6713    0.9027 C   0  0  1  0  0  0  0  0  0  0  0  0
   -3.3274    0.0573    0.2874 N   0  0  0  0  0  0  0  0  0  0  0  0
   -3.1044    0.9349   -0.7085 C   0  0  0  0  0  0  0  0  0  0  0  0
   -4.1857    1.6190   -1.2771 C   0  0  0  0  0  0  0  0  0  0  0  0
   -5.4509    1.3604   -0.7850 C   0  0  0  0  0  0  0  0  0  0  0  0
   -6.4883    1.9357   -1.2420 O   0  0  0  0  0  0  0  0  0  0  0  0
   -5.6580    0.4797    0.2115 N   0  0  0  0  0  0  0  0  0  0  0  0
   -4.5957   -0.1593    0.7340 C   0  0  0  0  0  0  0  0  0  0  0  0
   -4.7843   -0.9820    1.6642 O   0  0  0  0  0  0  0  0  0  0  0  0
    1.1250    0.3286    1.2118 C   0  0  0  0  0  0  0  0  0  0  0  0
    2.3386   -0.3566    1.1843 O   0  0  0  0  0  0  0  0  0  0  0  0
    3.5694    0.7929    1.0453 P   0  0  0  0  0  0  0  0  0  0  0  0
    3.2163    1.9550    1.9666 O   0  0  0  0  0  0  0  0  0  0  0  0
    5.0697    0.1477    1.4770 O   0  0  0  0  0  0  0  0  0  0  0  0
    6.1099   -0.0326    0.1773 P   0  0  0  0  0  0  0  0  0  0  0  0
    5.8952   -1.4113   -0.4218 O   0  0  0  0  0  0  0  0  0  0  0  0
    5.8787    1.1086   -1.0284 O   0  0  0  0  0  0  0  0  0  0  0  0
    7.7340    0.0711    0.6572 O   0  0  0  0  0  0  0  0  0  0  0  0
    3.6140    1.3398   -0.5559 O   0  0  0  0  0  0  0  0  0  0  0  0
   -2.4247   -2.9613    0.9850 H   0  0  0  0  0  0  0  0  0  0  0  0
   -1.8665   -1.2636   -1.1307 H   0  0  0  0  0  0  0  0  0  0  0  0
    0.3616   -0.9870   -0.7582 H   0  0  0  0  0  0  0  0  0  0  0  0
    0.2812   -2.4950    0.2299 H   0  0  0  0  0  0  0  0  0  0  0  0
    0.0505   -1.2822    2.2138 H   0  0  0  0  0  0  0  0  0  0  0  0
   -2.5991   -1.2730    1.7350 H   0  0  0  0  0  0  0  0  0  0  0  0
   -2.0955    1.1311   -1.0898 H   0  0  0  0  0  0  0  0  0  0  0  0
   -4.0513    2.3335   -2.0800 H   0  0  0  0  0  0  0  0  0  0  0  0
   -6.6077    0.2650    0.6034 H   0  0  0  0  0  0  0  0  0  0  0  0
    1.1670    1.0375    2.0571 H   0  0  0  0  0  0  0  0  0  0  0  0
    1.0200    0.9037    0.2865 H   0  0  0  0  0  0  0  0  0  0  0  0
    6.0134    2.0291   -0.7158 H   0  0  0  0  0  0  0  0  0  0  0  0
    7.7892   -0.0928    1.6427 H   0  0  0  0  0  0  0  0  0  0  0  0
    3.3452    0.6133   -1.1960 H   0  0  0  0  0  0  0  0  0  0  0  0
  1  2  1  0
  2  3  1  0
  3  4  1  0
  4  5  1  0
  5  6  1  0
  6  7  1  0
  7  8  1  0
  8  9  2  0
  9 10  1  0
 10 11  2  0
 10 12  1  0
 12 13  1  0
 13 14  2  0
  4 15  1  0
 15 16  1  0
 16 17  1  0
 17 18  2  0
 17 19  1  0
 19 20  1  0
 20 21  2  0
 20 22  1  0
 20 23  1  0
 17 24  1  0
  6  2  1  0
 13  7  1  0
  1 25  1  0
  2 26  1  6
  3 27  1  0
  3 28  1  0
  4 29  1  1
  6 30  1  1
  8 31  1  0
  9 32  1  0
 12 33  1  0
 15 34  1  0
 15 35  1  0
 22 36  1  0
 23 37  1  0
 24 38  1  0
M  END
>  <Ligand ID>  (1) 
LIG0002434

>  <Ligand>  (1) 
SCHEMBL6445420

>  <SMILES>  (1) 
O[C@@H]1C[C@H](O[C@H]1n1ccc(=O)[nH]c1=O)COP(=O)(OP(=O)(O)O)O

>  <CID>  (1) 
15485121.0

>  <ChEMBL ID>  (1) 
nan

>  <InChiKey>  (1) 
LVHDDSZQFIKYOE-SHYZEUOFSA-N

>  <InChi>  (1) 
InChI=1S/C9H14N2O11P2/c12-6-3-5(4-20-24(18,19)22-23(15,16)17)21-8(6)11-2-1-7(13)10-9(11)14/h1-2,5-6,8,12H,3-4H2,(H,18,19)(H,10,13,14)(H2,15,16,17)/t5-,6+,8+/m0/s1

>  <IUPAC Name>  (1) 
[(2S,4R,5R)-5-(2,4-dioxopyrimidin-1-yl)-4-hydroxyoxolan-2-yl]methyl phosphono hydrogen phosphate

$$$$
