
     RDKit          3D

113118  0  0  0  0  0  0  0  0999 V2000
   -1.9401    4.4209   -5.2308 N   0  0  0  0  0  0  0  0  0  0  0  0
   -1.2560    3.3661   -4.5681 C   0  0  0  0  0  0  0  0  0  0  0  0
   -1.7031    2.9441   -3.4584 N   0  0  0  0  0  0  0  0  0  0  0  0
   -2.9000    3.4917   -2.8180 C   0  0  0  0  0  0  0  0  0  0  0  0
   -2.5303    4.6095   -1.9397 C   0  0  0  0  0  0  0  0  0  0  0  0
   -1.5887    4.4348   -0.8227 C   0  0  0  0  0  0  0  0  0  0  0  0
   -1.9173    3.6424    0.3384 C   0  0  2  0  0  0  0  0  0  0  0  0
   -0.6972    3.6575    1.2751 N   0  0  0  0  0  0  0  0  0  0  0  0
    0.4612    2.9511    0.8718 C   0  0  0  0  0  0  0  0  0  0  0  0
    0.4382    2.4397   -0.2505 O   0  0  0  0  0  0  0  0  0  0  0  0
    1.6863    2.7873    1.6931 C   0  0  2  0  0  0  0  0  0  0  0  0
    2.2016    4.0075    2.3447 C   0  0  0  0  0  0  0  0  0  0  0  0
    3.4357    3.8048    3.1613 C   0  0  0  0  0  0  0  0  0  0  0  0
    4.6642    3.9706    2.5519 C   0  0  0  0  0  0  0  0  0  0  0  0
    5.8277    3.7864    3.2703 C   0  0  0  0  0  0  0  0  0  0  0  0
    5.8049    3.4357    4.6022 C   0  0  0  0  0  0  0  0  0  0  0  0
    4.5874    3.2702    5.2116 C   0  0  0  0  0  0  0  0  0  0  0  0
    3.4031    3.4544    4.4930 C   0  0  0  0  0  0  0  0  0  0  0  0
    7.0539    3.2678    5.2494 N   0  0  0  0  0  0  0  0  0  0  0  0
    2.7189    2.0706    0.9691 N   0  0  0  0  0  0  0  0  0  0  0  0
    2.6685    0.6333    0.9039 C   0  0  0  0  0  0  0  0  0  0  0  0
    1.6859    0.1268    1.4600 O   0  0  0  0  0  0  0  0  0  0  0  0
    3.7259   -0.1717    0.2083 C   0  0  2  0  0  0  0  0  0  0  0  0
    3.9114    0.3582   -1.2121 C   0  0  0  0  0  0  0  0  0  0  0  0
    5.0802   -0.2639   -1.8309 C   0  0  0  0  0  0  0  0  0  0  0  0
    5.4455   -0.0564   -3.1135 N   0  0  0  0  0  0  0  0  0  0  0  0
    6.6077   -0.6653   -3.3920 C   0  0  0  0  0  0  0  0  0  0  0  0
    7.0211   -1.2930   -2.2585 N   0  0  0  0  0  0  0  0  0  0  0  0
    6.1000   -1.0536   -1.3097 C   0  0  0  0  0  0  0  0  0  0  0  0
    3.1308   -1.5185    0.2119 N   0  0  0  0  0  0  0  0  0  0  0  0
    3.1450   -2.5782   -0.6610 C   0  0  0  0  0  0  0  0  0  0  0  0
    3.7150   -2.5810   -1.7315 O   0  0  0  0  0  0  0  0  0  0  0  0
    2.4383   -3.8742   -0.3675 C   0  0  0  0  0  0  0  0  0  0  0  0
    1.1133   -4.0390   -0.4200 C   0  0  0  0  0  0  0  0  0  0  0  0
   -0.1010   -2.8134   -0.8748 S   0  0  0  0  0  0  0  0  0  0  0  0
   -1.4509   -3.5704   -1.8350 C   0  0  0  0  0  0  0  0  0  0  0  0
   -2.5027   -2.5943   -2.2665 C   0  0  2  0  0  0  0  0  0  0  0  0
   -3.1231   -1.9300   -1.1313 N   0  0  0  0  0  0  0  0  0  0  0  0
   -3.1988   -0.4862   -1.0533 C   0  0  0  0  0  0  0  0  0  0  0  0
   -2.7253    0.0852   -2.0488 O   0  0  0  0  0  0  0  0  0  0  0  0
   -3.7817    0.2227    0.1061 C   0  0  1  0  0  0  0  0  0  0  0  0
   -3.5946    1.6872   -0.0784 N   0  0  0  0  0  0  0  0  0  0  0  0
   -2.4017    2.2865    0.3687 C   0  0  0  0  0  0  0  0  0  0  0  0
   -1.6094    1.4234    0.9181 O   0  0  0  0  0  0  0  0  0  0  0  0
   -5.1987    0.0126    0.4068 C   0  0  0  0  0  0  0  0  0  0  0  0
   -5.6314   -1.3649    0.7024 C   0  0  0  0  0  0  0  0  0  0  0  0
   -6.3756   -2.2459   -0.0862 C   0  0  0  0  0  0  0  0  0  0  0  0
   -6.5457   -3.4006    0.5988 N   0  0  0  0  0  0  0  0  0  0  0  0
   -5.9237   -3.2689    1.8072 C   0  0  0  0  0  0  0  0  0  0  0  0
   -5.3497   -2.0187    1.8979 C   0  0  0  0  0  0  0  0  0  0  0  0
   -4.6584   -1.6537    3.0375 C   0  0  0  0  0  0  0  0  0  0  0  0
   -4.5448   -2.5321    4.0718 C   0  0  0  0  0  0  0  0  0  0  0  0
   -5.1150   -3.7926    3.9986 C   0  0  0  0  0  0  0  0  0  0  0  0
   -5.8089   -4.1587    2.8550 C   0  0  0  0  0  0  0  0  0  0  0  0
   -3.4944   -3.3633   -3.0757 C   0  0  0  0  0  0  0  0  0  0  0  0
   -3.0062   -3.9749   -4.0863 O   0  0  0  0  0  0  0  0  0  0  0  0
   -4.8749   -3.4204   -2.7603 N   0  0  0  0  0  0  0  0  0  0  0  0
    0.6074   -5.3121   -0.1148 C   0  0  0  0  0  0  0  0  0  0  0  0
    1.4780   -6.3525    0.2280 C   0  0  0  0  0  0  0  0  0  0  0  0
    2.8528   -6.1545    0.2743 C   0  0  0  0  0  0  0  0  0  0  0  0
    3.3065   -4.8946   -0.0313 C   0  0  0  0  0  0  0  0  0  0  0  0
    3.7670   -7.1836    0.6179 N   0  0  0  0  0  0  0  0  0  0  0  0
    3.3525   -8.3045    0.8860 O   0  0  0  0  0  0  0  0  0  0  0  0
    5.1019   -6.8640    0.6329 O   0  0  0  0  0  0  0  0  0  0  0  0
   -0.0840    2.7642   -5.1043 N   0  0  0  0  0  0  0  0  0  0  0  0
   -2.6760    4.1512   -5.9178 H   0  0  0  0  0  0  0  0  0  0  0  0
   -1.7415    5.4283   -5.0625 H   0  0  0  0  0  0  0  0  0  0  0  0
   -3.4780    3.9619   -3.6958 H   0  0  0  0  0  0  0  0  0  0  0  0
   -3.4972    2.6752   -2.5214 H   0  0  0  0  0  0  0  0  0  0  0  0
   -3.4959    5.1149   -1.5623 H   0  0  0  0  0  0  0  0  0  0  0  0
   -2.1638    5.4419   -2.6527 H   0  0  0  0  0  0  0  0  0  0  0  0
   -1.4586    5.5251   -0.4127 H   0  0  0  0  0  0  0  0  0  0  0  0
   -0.5432    4.1967   -1.2482 H   0  0  0  0  0  0  0  0  0  0  0  0
   -2.6439    4.2737    0.9721 H   0  0  0  0  0  0  0  0  0  0  0  0
   -0.6921    4.1414    2.1404 H   0  0  0  0  0  0  0  0  0  0  0  0
    1.3686    2.0479    2.5029 H   0  0  0  0  0  0  0  0  0  0  0  0
    1.4414    4.4453    3.0317 H   0  0  0  0  0  0  0  0  0  0  0  0
    2.4645    4.8215    1.6231 H   0  0  0  0  0  0  0  0  0  0  0  0
    4.7532    4.2468    1.5137 H   0  0  0  0  0  0  0  0  0  0  0  0
    6.7789    3.9255    2.7591 H   0  0  0  0  0  0  0  0  0  0  0  0
    4.5860    2.9943    6.2571 H   0  0  0  0  0  0  0  0  0  0  0  0
    2.4630    3.3217    4.9828 H   0  0  0  0  0  0  0  0  0  0  0  0
    7.7280    2.6115    4.8158 H   0  0  0  0  0  0  0  0  0  0  0  0
    7.3383    3.7551    6.1237 H   0  0  0  0  0  0  0  0  0  0  0  0
    3.5083    2.4876    0.4816 H   0  0  0  0  0  0  0  0  0  0  0  0
    4.6928   -0.2126    0.6276 H   0  0  0  0  0  0  0  0  0  0  0  0
    2.9814    0.2975   -1.8151 H   0  0  0  0  0  0  0  0  0  0  0  0
    4.1270    1.4347   -1.1122 H   0  0  0  0  0  0  0  0  0  0  0  0
    4.9214    0.4962   -3.8238 H   0  0  0  0  0  0  0  0  0  0  0  0
    7.1810   -0.7063   -4.3101 H   0  0  0  0  0  0  0  0  0  0  0  0
    6.0888   -1.3946   -0.2677 H   0  0  0  0  0  0  0  0  0  0  0  0
    2.5735   -1.7138    1.1064 H   0  0  0  0  0  0  0  0  0  0  0  0
   -1.8586   -4.4336   -1.2785 H   0  0  0  0  0  0  0  0  0  0  0  0
   -0.9613   -3.9609   -2.7612 H   0  0  0  0  0  0  0  0  0  0  0  0
   -2.0322   -1.8593   -2.9568 H   0  0  0  0  0  0  0  0  0  0  0  0
   -3.5307   -2.4089   -0.3333 H   0  0  0  0  0  0  0  0  0  0  0  0
   -3.1461   -0.1059    0.9786 H   0  0  0  0  0  0  0  0  0  0  0  0
   -4.2987    2.2881   -0.4868 H   0  0  0  0  0  0  0  0  0  0  0  0
   -5.8167    0.4504   -0.4398 H   0  0  0  0  0  0  0  0  0  0  0  0
   -5.4602    0.7133    1.2603 H   0  0  0  0  0  0  0  0  0  0  0  0
   -6.7443   -2.0187   -1.0802 H   0  0  0  0  0  0  0  0  0  0  0  0
   -7.0732   -4.2528    0.2473 H   0  0  0  0  0  0  0  0  0  0  0  0
   -4.2167   -0.6789    3.0966 H   0  0  0  0  0  0  0  0  0  0  0  0
   -4.0090   -2.2713    4.9750 H   0  0  0  0  0  0  0  0  0  0  0  0
   -5.0156   -4.4729    4.8241 H   0  0  0  0  0  0  0  0  0  0  0  0
   -6.2490   -5.1639    2.8281 H   0  0  0  0  0  0  0  0  0  0  0  0
   -5.2203   -4.1001   -2.0482 H   0  0  0  0  0  0  0  0  0  0  0  0
   -5.5495   -2.7740   -3.2465 H   0  0  0  0  0  0  0  0  0  0  0  0
   -0.4594   -5.5018   -0.1422 H   0  0  0  0  0  0  0  0  0  0  0  0
    1.1029   -7.3430    0.4667 H   0  0  0  0  0  0  0  0  0  0  0  0
    4.3699   -4.6219   -0.0445 H   0  0  0  0  0  0  0  0  0  0  0  0
    0.7559    2.5178   -4.5477 H   0  0  0  0  0  0  0  0  0  0  0  0
   -0.0976    2.5665   -6.1387 H   0  0  0  0  0  0  0  0  0  0  0  0
  1  2  1  0
  2  3  2  3
  3  4  1  0
  4  5  1  0
  5  6  1  0
  6  7  1  0
  7  8  1  0
  8  9  1  0
  9 10  2  0
  9 11  1  0
 11 12  1  0
 12 13  1  0
 13 14  2  0
 14 15  1  0
 15 16  2  0
 16 17  1  0
 17 18  2  0
 16 19  1  0
 11 20  1  0
 20 21  1  0
 21 22  2  0
 21 23  1  0
 23 24  1  0
 24 25  1  0
 25 26  1  0
 26 27  1  0
 27 28  2  0
 28 29  1  0
 23 30  1  0
 30 31  1  0
 31 32  2  0
 31 33  1  0
 33 34  2  0
 34 35  1  0
 35 36  1  0
 36 37  1  0
 37 38  1  0
 38 39  1  0
 39 40  2  0
 39 41  1  0
 41 42  1  0
 42 43  1  0
 43 44  2  0
 41 45  1  0
 45 46  1  0
 46 47  2  0
 47 48  1  0
 48 49  1  0
 49 50  2  0
 50 51  1  0
 51 52  2  0
 52 53  1  0
 53 54  2  0
 37 55  1  0
 55 56  2  0
 55 57  1  0
 34 58  1  0
 58 59  2  0
 59 60  1  0
 60 61  2  0
 60 62  1  0
 62 63  2  0
 62 64  1  0
  2 65  1  0
 43  7  1  0
 50 46  1  0
 18 13  1  0
 29 25  2  0
 61 33  1  0
 54 49  1  0
  1 66  1  0
  1 67  1  0
  4 68  1  0
  4 69  1  0
  5 70  1  0
  5 71  1  0
  6 72  1  0
  6 73  1  0
  7 74  1  1
  8 75  1  0
 11 76  1  1
 12 77  1  0
 12 78  1  0
 14 79  1  0
 15 80  1  0
 17 81  1  0
 18 82  1  0
 19 83  1  0
 19 84  1  0
 20 85  1  0
 23 86  1  1
 24 87  1  0
 24 88  1  0
 26 89  1  0
 27 90  1  0
 29 91  1  0
 30 92  1  0
 36 93  1  0
 36 94  1  0
 37 95  1  6
 38 96  1  0
 41 97  1  1
 42 98  1  0
 45 99  1  0
 45100  1  0
 47101  1  0
 48102  1  0
 51103  1  0
 52104  1  0
 53105  1  0
 54106  1  0
 57107  1  0
 57108  1  0
 58109  1  0
 59110  1  0
 61111  1  0
 65112  1  0
 65113  1  0
M  CHG  2  62   1  64  -1
M  END
>  <Ligand ID>  (1) 
LIG0005726

>  <Ligand>  (1) 
CHEMBL451535

>  <SMILES>  (1) 
NC(=NCCC[C@@H]1NC(=O)[C@H](Cc2ccc(cc2)N)NC(=O)[C@H](Cc2[nH]cnc2)NC(=O)c2c(SC[C@H](NC(=O)[C@@H](NC1=O)Cc1c[nH]c3c1cccc3)C(=O)N)ccc(c2)[N+](=O)[O-])N

>  <CID>  (1) 
44577516.0

>  <ChEMBL ID>  (1) 
nan

>  <InChiKey>  (1) 
IWAUFRDGFUVRHZ-LJADHVKFSA-N

>  <InChi>  (1) 
InChI=1S/C42H48N14O8S/c43-24-9-7-22(8-10-24)14-31-39(60)51-30(6-3-13-48-42(45)46)38(59)54-32(15-23-18-49-29-5-2-1-4-27(23)29)40(61)55-34(36(44)57)20-65-35-12-11-26(56(63)64)17-28(35)37(58)52-33(41(62)53-31)16-25-19-47-21-50-25/h1-2,4-5,7-12,17-19,21,30-34,49H,3,6,13-16,20,43H2,(H2,44,57)(H,47,50)(H,51,60)(H,52,58)(H,53,62)(H,54,59)(H,55,61)(H4,45,46,48)/t30-,31-,32-,33-,34-/m0/s1

>  <IUPAC Name>  (1) 
(4R,7S,10S,13S,16S)-13-[(4-aminophenyl)methyl]-10-[3-(diaminomethylideneamino)propyl]-16-(1H-imidazol-5-ylmethyl)-7-(1H-indol-3-ylmethyl)-21-nitro-6,9,12,15,18-pentaoxo-2-thia-5,8,11,14,17-pentazabicyclo[17.4.0]tricosa-1(19),20,22-triene-4-carboxamide

$$$$
