
     RDKit          3D

 33 34  0  0  0  0  0  0  0  0999 V2000
   -4.2638   -0.3885    2.2301 Cl  0  0  0  0  0  0  0  0  0  0  0  0
   -3.0883   -0.8106    1.0067 C   0  0  0  0  0  0  0  0  0  0  0  0
   -3.2156   -2.0371    0.3966 C   0  0  0  0  0  0  0  0  0  0  0  0
   -2.2839   -2.3551   -0.5638 C   0  0  0  0  0  0  0  0  0  0  0  0
   -1.2646   -1.4905   -0.9076 C   0  0  0  0  0  0  0  0  0  0  0  0
   -1.1160   -0.2372   -0.2993 C   0  0  0  0  0  0  0  0  0  0  0  0
   -2.0546    0.0645    0.6584 C   0  0  0  0  0  0  0  0  0  0  0  0
   -0.0228    0.5783   -0.6494 N   0  0  0  0  0  0  0  0  0  0  0  0
    0.1732    1.9654   -0.2722 C   0  0  0  0  0  0  0  0  0  0  0  0
    1.0272    2.1464    0.9446 C   0  0  0  0  0  0  0  0  0  0  0  0
   -1.0451    2.8177   -0.2430 C   0  0  0  0  0  0  0  0  0  0  0  0
    1.1169   -0.0260   -1.3721 C   0  0  0  0  0  0  0  0  0  0  0  0
    1.9122   -0.9380   -0.5329 C   0  0  0  0  0  0  0  0  0  0  0  0
    1.8563   -2.2814   -0.2943 C   0  0  0  0  0  0  0  0  0  0  0  0
    2.8376   -2.6184    0.5733 N   0  0  0  0  0  0  0  0  0  0  0  0
    3.5140   -1.5197    0.8897 C   0  0  0  0  0  0  0  0  0  0  0  0
    2.9596   -0.4953    0.2231 N   0  0  0  0  0  0  0  0  0  0  0  0
   -4.0106   -2.7179    0.6604 H   0  0  0  0  0  0  0  0  0  0  0  0
   -2.3800   -3.3238   -1.0488 H   0  0  0  0  0  0  0  0  0  0  0  0
   -0.6009   -1.8349   -1.6865 H   0  0  0  0  0  0  0  0  0  0  0  0
   -2.0316    0.9796    1.2075 H   0  0  0  0  0  0  0  0  0  0  0  0
    0.8138    2.4525   -1.1185 H   0  0  0  0  0  0  0  0  0  0  0  0
    2.0415    2.4571    0.6450 H   0  0  0  0  0  0  0  0  0  0  0  0
    1.1529    1.1938    1.5197 H   0  0  0  0  0  0  0  0  0  0  0  0
    0.6177    2.9296    1.6268 H   0  0  0  0  0  0  0  0  0  0  0  0
   -1.9212    2.3074   -0.6684 H   0  0  0  0  0  0  0  0  0  0  0  0
   -0.8686    3.7841   -0.8287 H   0  0  0  0  0  0  0  0  0  0  0  0
   -1.2612    3.1060    0.8214 H   0  0  0  0  0  0  0  0  0  0  0  0
    0.7483   -0.5050   -2.3219 H   0  0  0  0  0  0  0  0  0  0  0  0
    1.7973    0.7871   -1.7721 H   0  0  0  0  0  0  0  0  0  0  0  0
    1.1750   -3.0025   -0.7001 H   0  0  0  0  0  0  0  0  0  0  0  0
    4.3601   -1.4681    1.5654 H   0  0  0  0  0  0  0  0  0  0  0  0
    3.3253    0.4806    0.3110 H   0  0  0  0  0  0  0  0  0  0  0  0
  1  2  1  0
  2  3  2  0
  3  4  1  0
  4  5  2  0
  5  6  1  0
  6  7  2  0
  6  8  1  0
  8  9  1  0
  9 10  1  0
  9 11  1  0
  8 12  1  0
 12 13  1  0
 13 14  2  0
 14 15  1  0
 15 16  2  0
 16 17  1  0
  7  2  1  0
 17 13  1  0
  3 18  1  0
  4 19  1  0
  5 20  1  0
  7 21  1  0
  9 22  1  0
 10 23  1  0
 10 24  1  0
 10 25  1  0
 11 26  1  0
 11 27  1  0
 11 28  1  0
 12 29  1  0
 12 30  1  0
 14 31  1  0
 16 32  1  0
 17 33  1  0
M  END
>  <Ligand ID>  (1) 
LIG0003473

>  <Ligand>  (1) 
CHEMBL2206890

>  <SMILES>  (1) 
Clc1cccc(c1)N(C(C)C)Cc1cnc[nH]1

>  <CID>  (1) 
24946964.0

>  <ChEMBL ID>  (1) 
nan

>  <InChiKey>  (1) 
UQYBANUOFYJXRZ-UHFFFAOYSA-N

>  <InChi>  (1) 
InChI=1S/C13H16ClN3/c1-10(2)17(8-12-7-15-9-16-12)13-5-3-4-11(14)6-13/h3-7,9-10H,8H2,1-2H3,(H,15,16)

>  <IUPAC Name>  (1) 
3-chloro-N-(1H-imidazol-5-ylmethyl)-N-propan-2-ylaniline

$$$$
