
     RDKit          3D

 49 51  0  0  0  0  0  0  0  0999 V2000
    7.7758    1.3169   -0.2598 C   0  0  0  0  0  0  0  0  0  0  0  0
    7.6833   -0.1647   -0.1063 C   0  0  0  0  0  0  0  0  0  0  0  0
    6.5010   -0.7194   -0.6132 O   0  0  0  0  0  0  0  0  0  0  0  0
    5.2290   -0.3933   -0.1704 C   0  0  0  0  0  0  0  0  0  0  0  0
    4.9674    0.5154    0.8234 C   0  0  0  0  0  0  0  0  0  0  0  0
    3.6797    0.8245    1.2493 C   0  0  0  0  0  0  0  0  0  0  0  0
    2.6459    0.1648    0.6177 C   0  0  0  0  0  0  0  0  0  0  0  0
    2.9035   -0.7448   -0.3767 C   0  0  0  0  0  0  0  0  0  0  0  0
    4.1767   -1.0566   -0.8046 C   0  0  0  0  0  0  0  0  0  0  0  0
    4.4261   -2.0464   -1.8846 C   0  0  0  0  0  0  0  0  0  0  0  0
    5.2076   -3.0593   -1.3352 F   0  0  0  0  0  0  0  0  0  0  0  0
    3.2126   -2.6228   -2.2060 F   0  0  0  0  0  0  0  0  0  0  0  0
    5.0405   -1.4928   -2.9880 F   0  0  0  0  0  0  0  0  0  0  0  0
    1.2710    0.4416    1.0155 C   0  0  0  0  0  0  0  0  0  0  0  0
    0.8572    1.2746    1.9388 O   0  0  0  0  0  0  0  0  0  0  0  0
   -0.4510    1.2451    2.0034 N   0  0  0  0  0  0  0  0  0  0  0  0
   -0.9253    0.3693    1.0996 C   0  0  0  0  0  0  0  0  0  0  0  0
    0.1629   -0.1280    0.4865 N   0  0  0  0  0  0  0  0  0  0  0  0
   -2.2985   -0.0095    0.7951 C   0  0  0  0  0  0  0  0  0  0  0  0
   -2.5715   -0.9551   -0.1992 C   0  0  0  0  0  0  0  0  0  0  0  0
   -3.8674   -1.3145   -0.4887 C   0  0  0  0  0  0  0  0  0  0  0  0
   -4.9608   -0.7612    0.1859 C   0  0  0  0  0  0  0  0  0  0  0  0
   -4.6813    0.1569    1.1511 C   0  0  0  0  0  0  0  0  0  0  0  0
   -3.3754    0.5355    1.4600 C   0  0  0  0  0  0  0  0  0  0  0  0
   -3.1219    1.5558    2.5360 C   0  0  0  0  0  0  0  0  0  0  0  0
   -6.2912   -1.2445   -0.2033 C   0  0  0  0  0  0  0  0  0  0  0  0
   -6.9231   -0.5883   -1.3740 C   0  0  0  0  0  0  0  0  0  0  0  0
   -7.1697    0.8579   -1.2723 C   0  0  0  0  0  0  0  0  0  0  0  0
   -6.9133    1.5894   -0.2971 O   0  0  0  0  0  0  0  0  0  0  0  0
   -7.7518    1.4800   -2.3821 O   0  0  0  0  0  0  0  0  0  0  0  0
    6.8303    1.7126   -0.7339 H   0  0  0  0  0  0  0  0  0  0  0  0
    7.9828    1.7745    0.7188 H   0  0  0  0  0  0  0  0  0  0  0  0
    8.6020    1.6325   -0.9315 H   0  0  0  0  0  0  0  0  0  0  0  0
    7.8577   -0.4446    0.9467 H   0  0  0  0  0  0  0  0  0  0  0  0
    8.5315   -0.6049   -0.6901 H   0  0  0  0  0  0  0  0  0  0  0  0
    5.7845    1.0234    1.3094 H   0  0  0  0  0  0  0  0  0  0  0  0
    3.4905    1.5413    2.0319 H   0  0  0  0  0  0  0  0  0  0  0  0
    2.0745   -1.2467   -0.8543 H   0  0  0  0  0  0  0  0  0  0  0  0
   -1.7507   -1.4163   -0.7548 H   0  0  0  0  0  0  0  0  0  0  0  0
   -4.0076   -2.0554   -1.2732 H   0  0  0  0  0  0  0  0  0  0  0  0
   -5.4547    0.6092    1.7133 H   0  0  0  0  0  0  0  0  0  0  0  0
   -4.0638    1.8987    2.9888 H   0  0  0  0  0  0  0  0  0  0  0  0
   -2.4543    1.0621    3.2728 H   0  0  0  0  0  0  0  0  0  0  0  0
   -2.5352    2.3895    2.0891 H   0  0  0  0  0  0  0  0  0  0  0  0
   -6.2896   -2.3543   -0.4047 H   0  0  0  0  0  0  0  0  0  0  0  0
   -7.0199   -1.1270    0.6546 H   0  0  0  0  0  0  0  0  0  0  0  0
   -7.9502   -1.0551   -1.4740 H   0  0  0  0  0  0  0  0  0  0  0  0
   -6.4363   -0.8525   -2.3446 H   0  0  0  0  0  0  0  0  0  0  0  0
   -7.6293    2.4863   -2.4804 H   0  0  0  0  0  0  0  0  0  0  0  0
  1  2  1  0
  2  3  1  0
  3  4  1  0
  4  5  2  0
  5  6  1  0
  6  7  2  0
  7  8  1  0
  8  9  2  0
  9 10  1  0
 10 11  1  0
 10 12  1  0
 10 13  1  0
  7 14  1  0
 14 15  1  0
 15 16  1  0
 16 17  2  0
 17 18  1  0
 17 19  1  0
 19 20  2  0
 20 21  1  0
 21 22  2  0
 22 23  1  0
 23 24  2  0
 24 25  1  0
 22 26  1  0
 26 27  1  0
 27 28  1  0
 28 29  2  0
 28 30  1  0
  9  4  1  0
 18 14  2  0
 24 19  1  0
  1 31  1  0
  1 32  1  0
  1 33  1  0
  2 34  1  0
  2 35  1  0
  5 36  1  0
  6 37  1  0
  8 38  1  0
 20 39  1  0
 21 40  1  0
 23 41  1  0
 25 42  1  0
 25 43  1  0
 25 44  1  0
 26 45  1  0
 26 46  1  0
 27 47  1  0
 27 48  1  0
 30 49  1  0
M  END
>  <Ligand ID>  (1) 
LIG0001953

>  <Ligand>  (1) 
CHEMBL211689

>  <SMILES>  (1) 
CCOc1ccc(cc1C(F)(F)F)c1onc(n1)c1ccc(cc1C)CCC(=O)O

>  <CID>  (1) 
44412867.0

>  <ChEMBL ID>  (1) 
nan

>  <InChiKey>  (1) 
BBJJPZVEFXGVBW-UHFFFAOYSA-N

>  <InChi>  (1) 
InChI=1S/C21H19F3N2O4/c1-3-29-17-8-6-14(11-16(17)21(22,23)24)20-25-19(26-30-20)15-7-4-13(10-12(15)2)5-9-18(27)28/h4,6-8,10-11H,3,5,9H2,1-2H3,(H,27,28)

>  <IUPAC Name>  (1) 
3-[4-[5-[4-ethoxy-3-(trifluoromethyl)phenyl]-1,2,4-oxadiazol-3-yl]-3-methylphenyl]propanoic acid

$$$$
