
     RDKit          3D

 54 56  0  0  0  0  0  0  0  0999 V2000
    9.8240   -0.5212    0.0990 O   0  0  0  0  0  0  0  0  0  0  0  0
    8.8848    0.0414   -0.7369 C   0  0  0  0  0  0  0  0  0  0  0  0
    7.5057    0.0865   -0.0707 C   0  0  1  0  0  0  0  0  0  0  0  0
    6.5883    0.8602   -0.9534 C   0  0  0  0  0  0  0  0  0  0  0  0
    5.2561    1.0424   -0.4730 N   0  0  0  0  0  0  0  0  0  0  0  0
    4.3180    0.0421   -0.1904 C   0  0  0  0  0  0  0  0  0  0  0  0
    4.6272   -1.1642   -0.3655 O   0  0  0  0  0  0  0  0  0  0  0  0
    2.9588    0.3061    0.3107 C   0  0  0  0  0  0  0  0  0  0  0  0
    2.5121    1.5804    0.5929 C   0  0  0  0  0  0  0  0  0  0  0  0
    1.2234    1.8275    1.0679 C   0  0  0  0  0  0  0  0  0  0  0  0
    0.3762    0.7563    1.2580 C   0  0  0  0  0  0  0  0  0  0  0  0
    0.7810   -0.5331    0.9887 C   0  0  0  0  0  0  0  0  0  0  0  0
    2.0655   -0.7227    0.5209 C   0  0  0  0  0  0  0  0  0  0  0  0
   -0.0952   -1.6905    1.1832 C   0  0  0  0  0  0  0  0  0  0  0  0
   -1.1197   -2.1408   -0.2046 S   0  0  0  0  0  0  0  0  0  0  0  0
   -2.3643   -0.9472   -0.6075 C   0  0  0  0  0  0  0  0  0  0  0  0
   -2.1745    0.0788   -1.4634 N   0  0  0  0  0  0  0  0  0  0  0  0
   -3.1699    0.9654   -1.7326 C   0  0  0  0  0  0  0  0  0  0  0  0
   -2.9588    2.0442   -2.6354 N   0  0  0  0  0  0  0  0  0  0  0  0
   -4.4128    0.8093   -1.1099 C   0  0  0  0  0  0  0  0  0  0  0  0
   -4.6510   -0.2159   -0.2351 C   0  0  0  0  0  0  0  0  0  0  0  0
   -3.6092   -1.0957    0.0102 C   0  0  0  0  0  0  0  0  0  0  0  0
   -3.8333   -2.1840    0.9275 C   0  0  0  0  0  0  0  0  0  0  0  0
   -4.0223   -3.0407    1.6644 N   0  0  0  0  0  0  0  0  0  0  0  0
   -5.9363   -0.4184    0.4396 C   0  0  0  0  0  0  0  0  0  0  0  0
   -6.9422   -1.2053   -0.1324 C   0  0  0  0  0  0  0  0  0  0  0  0
   -8.1438   -1.3742    0.5351 C   0  0  0  0  0  0  0  0  0  0  0  0
   -8.3684   -0.7715    1.7710 C   0  0  0  0  0  0  0  0  0  0  0  0
   -7.3576    0.0019    2.3152 C   0  0  0  0  0  0  0  0  0  0  0  0
   -6.1416    0.1774    1.6477 C   0  0  0  0  0  0  0  0  0  0  0  0
   -9.5562   -0.9361    2.4351 F   0  0  0  0  0  0  0  0  0  0  0  0
   -5.4980    1.7309   -1.3681 C   0  0  0  0  0  0  0  0  0  0  0  0
   -6.3832    2.4701   -1.5949 N   0  0  0  0  0  0  0  0  0  0  0  0
    7.1459   -1.1984    0.2195 O   0  0  0  0  0  0  0  0  0  0  0  0
    9.4539   -0.9921    0.8913 H   0  0  0  0  0  0  0  0  0  0  0  0
    8.7696   -0.5654   -1.6476 H   0  0  0  0  0  0  0  0  0  0  0  0
    9.1443    1.0622   -1.0785 H   0  0  0  0  0  0  0  0  0  0  0  0
    7.6166    0.6249    0.9165 H   0  0  0  0  0  0  0  0  0  0  0  0
    7.0788    1.8414   -1.1688 H   0  0  0  0  0  0  0  0  0  0  0  0
    6.6038    0.3453   -1.9632 H   0  0  0  0  0  0  0  0  0  0  0  0
    4.9414    2.0441   -0.3130 H   0  0  0  0  0  0  0  0  0  0  0  0
    3.1325    2.4452    0.4620 H   0  0  0  0  0  0  0  0  0  0  0  0
    0.9068    2.8473    1.2797 H   0  0  0  0  0  0  0  0  0  0  0  0
   -0.6317    0.9338    1.6284 H   0  0  0  0  0  0  0  0  0  0  0  0
    2.4121   -1.7436    0.2985 H   0  0  0  0  0  0  0  0  0  0  0  0
   -0.6593   -1.5072    2.1266 H   0  0  0  0  0  0  0  0  0  0  0  0
    0.5507   -2.5651    1.4116 H   0  0  0  0  0  0  0  0  0  0  0  0
   -2.8734    1.8193   -3.6498 H   0  0  0  0  0  0  0  0  0  0  0  0
   -2.8974    3.0239   -2.2486 H   0  0  0  0  0  0  0  0  0  0  0  0
   -6.7782   -1.6780   -1.0912 H   0  0  0  0  0  0  0  0  0  0  0  0
   -8.9486   -1.9848    0.1097 H   0  0  0  0  0  0  0  0  0  0  0  0
   -7.5232    0.4819    3.2875 H   0  0  0  0  0  0  0  0  0  0  0  0
   -5.3498    0.7870    2.0806 H   0  0  0  0  0  0  0  0  0  0  0  0
    7.7224   -1.8814   -0.2135 H   0  0  0  0  0  0  0  0  0  0  0  0
  1  2  1  0
  2  3  1  0
  3  4  1  0
  4  5  1  0
  5  6  1  0
  6  7  2  0
  6  8  1  0
  8  9  2  0
  9 10  1  0
 10 11  2  0
 11 12  1  0
 12 13  2  0
 12 14  1  0
 14 15  1  0
 15 16  1  0
 16 17  2  0
 17 18  1  0
 18 19  1  0
 18 20  2  0
 20 21  1  0
 21 22  2  0
 22 23  1  0
 23 24  3  0
 21 25  1  0
 25 26  2  0
 26 27  1  0
 27 28  2  0
 28 29  1  0
 29 30  2  0
 28 31  1  0
 20 32  1  0
 32 33  3  0
  3 34  1  0
 13  8  1  0
 22 16  1  0
 30 25  1  0
  1 35  1  0
  2 36  1  0
  2 37  1  0
  3 38  1  1
  4 39  1  0
  4 40  1  0
  5 41  1  0
  9 42  1  0
 10 43  1  0
 11 44  1  0
 13 45  1  0
 14 46  1  0
 14 47  1  0
 19 48  1  0
 19 49  1  0
 26 50  1  0
 27 51  1  0
 29 52  1  0
 30 53  1  0
 34 54  1  0
M  END
>  <Ligand ID>  (1) 
LIG0002505

>  <Ligand>  (1) 
SCHEMBL3336544

>  <SMILES>  (1) 
OC[C@@H](CNC(=O)c1cccc(c1)CSc1nc(N)c(c(c1C#N)c1ccc(cc1)F)C#N)O

>  <CID>  (1) 
68602346.0

>  <ChEMBL ID>  (1) 
nan

>  <InChiKey>  (1) 
JPFRNQVVUWGFLY-GOSISDBHSA-N

>  <InChi>  (1) 
InChI=1S/C24H20FN5O3S/c25-17-6-4-15(5-7-17)21-19(9-26)22(28)30-24(20(21)10-27)34-13-14-2-1-3-16(8-14)23(33)29-11-18(32)12-31/h1-8,18,31-32H,11-13H2,(H2,28,30)(H,29,33)/t18-/m1/s1

>  <IUPAC Name>  (1) 
3-[[6-amino-3,5-dicyano-4-(4-fluorophenyl)pyridin-2-yl]sulfanylmethyl]-N-[(2R)-2,3-dihydroxypropyl]benzamide

$$$$
