
     RDKit          3D

 31 31  0  0  0  0  0  0  0  0999 V2000
   -3.3868    0.3802   -0.5207 C   0  0  0  0  0  0  0  0  0  0  0  0
   -2.2507   -0.2125    0.3095 C   0  0  0  0  0  0  0  0  0  0  0  0
   -1.6285    0.8820    1.1230 C   0  0  0  0  0  0  0  0  0  0  0  0
   -0.2898    1.2447    0.5138 C   0  0  0  0  0  0  0  0  0  0  0  0
    0.5928    0.0252    0.7117 C   0  0  0  0  0  0  0  0  0  0  0  0
    0.0870   -1.0687   -0.1473 C   0  0  0  0  0  0  0  0  0  0  0  0
   -1.3254   -0.8820   -0.6354 C   0  0  0  0  0  0  0  0  0  0  0  0
    0.8528   -1.3445   -1.2682 O   0  0  0  0  0  0  0  0  0  0  0  0
    2.0425    0.3542    0.6116 C   0  0  0  0  0  0  0  0  0  0  0  0
    2.4708    0.9343   -0.7020 C   0  0  0  0  0  0  0  0  0  0  0  0
    2.8509   -0.8556    1.0129 C   0  0  0  0  0  0  0  0  0  0  0  0
   -4.3849    0.0597   -0.1318 H   0  0  0  0  0  0  0  0  0  0  0  0
   -3.3548    0.0426   -1.5760 H   0  0  0  0  0  0  0  0  0  0  0  0
   -3.3362    1.4815   -0.5514 H   0  0  0  0  0  0  0  0  0  0  0  0
   -2.7174   -0.9888    0.9715 H   0  0  0  0  0  0  0  0  0  0  0  0
   -2.2621    1.7865    1.2008 H   0  0  0  0  0  0  0  0  0  0  0  0
   -1.4557    0.4805    2.1467 H   0  0  0  0  0  0  0  0  0  0  0  0
    0.1374    2.1599    0.9673 H   0  0  0  0  0  0  0  0  0  0  0  0
   -0.4578    1.3216   -0.5715 H   0  0  0  0  0  0  0  0  0  0  0  0
    0.4286   -0.2712    1.7889 H   0  0  0  0  0  0  0  0  0  0  0  0
    0.0694   -2.0370    0.4339 H   0  0  0  0  0  0  0  0  0  0  0  0
   -1.7662   -1.8884   -0.8664 H   0  0  0  0  0  0  0  0  0  0  0  0
   -1.3426   -0.3571   -1.6251 H   0  0  0  0  0  0  0  0  0  0  0  0
    1.1681   -2.2786   -1.3367 H   0  0  0  0  0  0  0  0  0  0  0  0
    2.2367    1.1369    1.3821 H   0  0  0  0  0  0  0  0  0  0  0  0
    1.7998    1.7824   -0.9198 H   0  0  0  0  0  0  0  0  0  0  0  0
    3.5023    1.3578   -0.5472 H   0  0  0  0  0  0  0  0  0  0  0  0
    2.5536    0.2370   -1.5325 H   0  0  0  0  0  0  0  0  0  0  0  0
    3.2579   -1.3295    0.0978 H   0  0  0  0  0  0  0  0  0  0  0  0
    2.2085   -1.5595    1.5688 H   0  0  0  0  0  0  0  0  0  0  0  0
    3.6999   -0.5937    1.6775 H   0  0  0  0  0  0  0  0  0  0  0  0
  1  2  1  0
  2  3  1  0
  3  4  1  0
  4  5  1  0
  5  6  1  0
  6  7  1  0
  6  8  1  0
  5  9  1  0
  9 10  1  0
  9 11  1  0
  7  2  1  0
  1 12  1  0
  1 13  1  0
  1 14  1  0
  2 15  1  0
  3 16  1  0
  3 17  1  0
  4 18  1  0
  4 19  1  0
  5 20  1  0
  6 21  1  0
  7 22  1  0
  7 23  1  0
  8 24  1  0
  9 25  1  0
 10 26  1  0
 10 27  1  0
 10 28  1  0
 11 29  1  0
 11 30  1  0
 11 31  1  0
M  END
>  <Ligand ID>  (1) 
LIG0005006

>  <Ligand>  (1) 
Menthol

>  <SMILES>  (1) 
CC1CCC(C(C1)O)C(C)C

>  <CID>  (1) 
1254.0

>  <ChEMBL ID>  (1) 
nan

>  <InChiKey>  (1) 
NOOLISFMXDJSKH-UHFFFAOYSA-N

>  <InChi>  (1) 
InChI=1S/C10H20O/c1-7(2)9-5-4-8(3)6-10(9)11/h7-11H,4-6H2,1-3H3

>  <IUPAC Name>  (1) 
5-methyl-2-propan-2-ylcyclohexan-1-ol

$$$$
