
     RDKit          3D

 26 25  0  0  0  0  0  0  0  0999 V2000
   -4.8123   -0.8924    0.3297 O   0  0  0  0  0  0  0  0  0  0  0  0
   -3.8591    0.0574    0.6932 C   0  0  0  0  0  0  0  0  0  0  0  0
   -4.2766    1.1686    1.1301 O   0  0  0  0  0  0  0  0  0  0  0  0
   -2.3966   -0.1846    0.5878 C   0  0  0  0  0  0  0  0  0  0  0  0
   -1.8353    0.4923   -0.6447 C   0  0  0  0  0  0  0  0  0  0  0  0
   -0.3425    0.2768   -0.8002 C   0  0  0  0  0  0  0  0  0  0  0  0
    0.4363    0.8075    0.3569 C   0  0  0  0  0  0  0  0  0  0  0  0
    1.9297    0.5904    0.1978 C   0  0  0  0  0  0  0  0  0  0  0  0
    2.2756   -0.8767    0.0785 C   0  0  0  0  0  0  0  0  0  0  0  0
    3.7614   -1.0423   -0.0755 C   0  0  0  0  0  0  0  0  0  0  0  0
    4.2893   -2.1786   -0.1958 O   0  0  0  0  0  0  0  0  0  0  0  0
    4.5734    0.0921   -0.0851 O   0  0  0  0  0  0  0  0  0  0  0  0
   -5.7141   -0.6003   -0.0801 H   0  0  0  0  0  0  0  0  0  0  0  0
   -2.2742   -1.2986    0.4724 H   0  0  0  0  0  0  0  0  0  0  0  0
   -1.8474    0.0859    1.5008 H   0  0  0  0  0  0  0  0  0  0  0  0
   -1.9813    1.5883   -0.5552 H   0  0  0  0  0  0  0  0  0  0  0  0
   -2.3143    0.0767   -1.5496 H   0  0  0  0  0  0  0  0  0  0  0  0
   -0.0932   -0.7579   -1.0470 H   0  0  0  0  0  0  0  0  0  0  0  0
   -0.0471    0.8885   -1.6847 H   0  0  0  0  0  0  0  0  0  0  0  0
    0.1717    0.3373    1.3308 H   0  0  0  0  0  0  0  0  0  0  0  0
    0.2892    1.9033    0.4325 H   0  0  0  0  0  0  0  0  0  0  0  0
    2.4754    0.9666    1.0857 H   0  0  0  0  0  0  0  0  0  0  0  0
    2.3041    1.1441   -0.7011 H   0  0  0  0  0  0  0  0  0  0  0  0
    1.9092   -1.3679    0.9920 H   0  0  0  0  0  0  0  0  0  0  0  0
    1.8499   -1.3268   -0.8441 H   0  0  0  0  0  0  0  0  0  0  0  0
    5.5291    0.0502    0.2676 H   0  0  0  0  0  0  0  0  0  0  0  0
  1  2  1  0
  2  3  2  0
  2  4  1  0
  4  5  1  0
  5  6  1  0
  6  7  1  0
  7  8  1  0
  8  9  1  0
  9 10  1  0
 10 11  2  0
 10 12  1  0
  1 13  1  0
  4 14  1  0
  4 15  1  0
  5 16  1  0
  5 17  1  0
  6 18  1  0
  6 19  1  0
  7 20  1  0
  7 21  1  0
  8 22  1  0
  8 23  1  0
  9 24  1  0
  9 25  1  0
 12 26  1  0
M  END
>  <Ligand ID>  (1) 
LIG0000153

>  <Ligand>  (1) 
Suberic acid

>  <SMILES>  (1) 
OC(=O)CCCCCCC(=O)O

>  <CID>  (1) 
10457.0

>  <ChEMBL ID>  (1) 
nan

>  <InChiKey>  (1) 
TYFQFVWCELRYAO-UHFFFAOYSA-N

>  <InChi>  (1) 
InChI=1S/C8H14O4/c9-7(10)5-3-1-2-4-6-8(11)12/h1-6H2,(H,9,10)(H,11,12)

>  <IUPAC Name>  (1) 
octanedioic acid

$$$$
