
     RDKit          3D

 59 63  0  0  0  0  0  0  0  0999 V2000
    6.1108   -1.0016   -2.2569 O   0  0  0  0  0  0  0  0  0  0  0  0
    5.8465   -0.5504   -1.0871 C   0  0  0  0  0  0  0  0  0  0  0  0
    4.4886   -0.2708   -0.8281 N   0  0  0  0  0  0  0  0  0  0  0  0
    3.9975    0.2615    0.4552 C   0  0  0  0  0  0  0  0  0  0  0  0
    2.6161   -0.3618    0.6057 C   0  0  2  0  0  0  0  0  0  0  0  0
    2.6840   -1.8299    0.1451 C   0  0  0  0  0  0  0  0  0  0  0  0
    2.7880   -1.8231   -1.3704 C   0  0  0  0  0  0  0  0  0  0  0  0
    3.4461   -0.5053   -1.8159 C   0  0  1  0  0  0  0  0  0  0  0  0
    2.3400    0.5592   -1.6569 C   0  0  0  0  0  0  0  0  0  0  0  0
    1.6984    0.2335   -0.3703 N   0  0  0  0  0  0  0  0  0  0  0  0
    0.3319    0.4620   -0.1200 C   0  0  0  0  0  0  0  0  0  0  0  0
   -0.4854    0.8045   -1.1766 C   0  0  0  0  0  0  0  0  0  0  0  0
   -1.8234    1.0133   -0.9215 C   0  0  0  0  0  0  0  0  0  0  0  0
   -2.3830    0.8991    0.3256 C   0  0  0  0  0  0  0  0  0  0  0  0
   -1.5387    0.5593    1.3584 C   0  0  0  0  0  0  0  0  0  0  0  0
   -0.2106    0.3503    1.1084 N   0  0  0  0  0  0  0  0  0  0  0  0
   -2.3062    0.5226    2.4567 N   0  0  0  0  0  0  0  0  0  0  0  0
   -1.8465    0.2058    3.8009 C   0  0  0  0  0  0  0  0  0  0  0  0
   -3.5854    0.8315    2.1028 C   0  0  0  0  0  0  0  0  0  0  0  0
   -4.5629    0.8918    2.8682 O   0  0  0  0  0  0  0  0  0  0  0  0
   -3.6539    1.0684    0.7798 N   0  0  0  0  0  0  0  0  0  0  0  0
   -4.7462    1.4503   -0.0566 C   0  0  0  0  0  0  0  0  0  0  0  0
   -5.6108    0.3645   -0.5787 C   0  0  0  0  0  0  0  0  0  0  0  0
   -6.6769    1.0392   -1.4613 C   0  0  0  0  0  0  0  0  0  0  0  0
   -4.9882   -0.7225   -1.3595 C   0  0  0  0  0  0  0  0  0  0  0  0
   -6.4416   -0.2638    0.5675 C   0  0  0  0  0  0  0  0  0  0  0  0
    6.9225   -0.3602   -0.1298 C   0  0  0  0  0  0  0  0  0  0  0  0
    6.9468    0.2043    1.0738 N   0  0  0  0  0  0  0  0  0  0  0  0
    8.1434    0.1276    1.5629 O   0  0  0  0  0  0  0  0  0  0  0  0
    8.9639   -0.4762    0.7368 C   0  0  0  0  0  0  0  0  0  0  0  0
    8.2278   -0.8055   -0.3567 C   0  0  0  0  0  0  0  0  0  0  0  0
    4.5878   -0.0557    1.3069 H   0  0  0  0  0  0  0  0  0  0  0  0
    3.8666    1.3405    0.4027 H   0  0  0  0  0  0  0  0  0  0  0  0
    2.2209   -0.2891    1.6105 H   0  0  0  0  0  0  0  0  0  0  0  0
    1.6857   -2.2434    0.3930 H   0  0  0  0  0  0  0  0  0  0  0  0
    3.4896   -2.3886    0.6159 H   0  0  0  0  0  0  0  0  0  0  0  0
    1.7807   -1.8004   -1.8548 H   0  0  0  0  0  0  0  0  0  0  0  0
    3.3623   -2.7013   -1.6701 H   0  0  0  0  0  0  0  0  0  0  0  0
    3.8285   -0.5660   -2.8193 H   0  0  0  0  0  0  0  0  0  0  0  0
    2.8382    1.5295   -1.6433 H   0  0  0  0  0  0  0  0  0  0  0  0
    1.6704    0.3714   -2.5158 H   0  0  0  0  0  0  0  0  0  0  0  0
   -0.1673    0.9260   -2.1897 H   0  0  0  0  0  0  0  0  0  0  0  0
   -2.4840    1.2843   -1.7386 H   0  0  0  0  0  0  0  0  0  0  0  0
   -1.6956   -0.8946    3.9567 H   0  0  0  0  0  0  0  0  0  0  0  0
   -2.5073    0.6548    4.5791 H   0  0  0  0  0  0  0  0  0  0  0  0
   -0.8519    0.6715    3.9183 H   0  0  0  0  0  0  0  0  0  0  0  0
   -4.3372    2.0381   -0.9252 H   0  0  0  0  0  0  0  0  0  0  0  0
   -5.4135    2.2175    0.4553 H   0  0  0  0  0  0  0  0  0  0  0  0
   -6.1538    1.2055   -2.4388 H   0  0  0  0  0  0  0  0  0  0  0  0
   -6.8646    2.0339   -1.0317 H   0  0  0  0  0  0  0  0  0  0  0  0
   -7.5623    0.4020   -1.5806 H   0  0  0  0  0  0  0  0  0  0  0  0
   -3.9205   -0.7080   -1.5214 H   0  0  0  0  0  0  0  0  0  0  0  0
   -5.2418   -1.7262   -0.8861 H   0  0  0  0  0  0  0  0  0  0  0  0
   -5.4438   -0.8425   -2.3925 H   0  0  0  0  0  0  0  0  0  0  0  0
   -6.7703    0.4845    1.2931 H   0  0  0  0  0  0  0  0  0  0  0  0
   -5.8551   -1.0725    1.0371 H   0  0  0  0  0  0  0  0  0  0  0  0
   -7.3660   -0.7363    0.1405 H   0  0  0  0  0  0  0  0  0  0  0  0
   10.0279   -0.6906    0.8659 H   0  0  0  0  0  0  0  0  0  0  0  0
    8.5838   -1.3226   -1.2450 H   0  0  0  0  0  0  0  0  0  0  0  0
  1  2  2  0
  2  3  1  0
  3  4  1  0
  4  5  1  0
  5  6  1  0
  6  7  1  0
  7  8  1  0
  8  9  1  0
  9 10  1  0
 10 11  1  0
 11 12  1  0
 12 13  2  0
 13 14  1  0
 14 15  2  0
 15 16  1  0
 15 17  1  0
 17 18  1  0
 17 19  1  0
 19 20  2  0
 19 21  1  0
 21 22  1  0
 22 23  1  0
 23 24  1  0
 23 25  1  0
 23 26  1  0
  2 27  1  0
 27 28  2  0
 28 29  1  0
 29 30  1  0
 30 31  2  0
  8  3  1  0
 16 11  2  0
 31 27  1  0
 10  5  1  0
 21 14  1  0
  4 32  1  0
  4 33  1  0
  5 34  1  1
  6 35  1  0
  6 36  1  0
  7 37  1  0
  7 38  1  0
  8 39  1  6
  9 40  1  0
  9 41  1  0
 12 42  1  0
 13 43  1  0
 18 44  1  0
 18 45  1  0
 18 46  1  0
 22 47  1  0
 22 48  1  0
 24 49  1  0
 24 50  1  0
 24 51  1  0
 25 52  1  0
 25 53  1  0
 25 54  1  0
 26 55  1  0
 26 56  1  0
 26 57  1  0
 30 58  1  0
 31 59  1  0
M  END
>  <Ligand ID>  (1) 
LIG0000685

>  <Ligand>  (1) 
CHEMBL3806137

>  <SMILES>  (1) 
O=C(N1C[C@@H]2CC[C@H]1CN2c1ccc2c(n1)n(C)c(=O)n2CC(C)(C)C)c1nocc1

>  <CID>  (1) 
127052897.0

>  <ChEMBL ID>  (1) 
nan

>  <InChiKey>  (1) 
SJAWBUCODUVBSE-GJZGRUSLSA-N

>  <InChi>  (1) 
InChI=1S/C22H28N6O3/c1-22(2,3)13-28-17-7-8-18(23-19(17)25(4)21(28)30)26-11-15-6-5-14(26)12-27(15)20(29)16-9-10-31-24-16/h7-10,14-15H,5-6,11-13H2,1-4H3/t14-,15-/m0/s1

>  <IUPAC Name>  (1) 
1-(2,2-dimethylpropyl)-3-methyl-5-[(1S,4S)-5-(1,2-oxazole-3-carbonyl)-2,5-diazabicyclo[2.2.2]octan-2-yl]imidazo[4,5-b]pyridin-2-one

$$$$
