
     RDKit          3D

 16 15  0  0  0  0  0  0  0  0999 V2000
   -0.4276   -1.7862    1.2362 O   0  0  0  0  0  0  0  0  0  0  0  0
   -1.2418   -1.0262    0.3897 C   0  0  0  0  0  0  0  0  0  0  0  0
   -2.4868   -1.2155    0.3653 O   0  0  0  0  0  0  0  0  0  0  0  0
   -0.6491    0.0144   -0.4917 C   0  0  0  0  0  0  0  0  0  0  0  0
    0.7979   -0.2840   -0.7160 C   0  0  0  0  0  0  0  0  0  0  0  0
    1.6473   -0.3247    0.5105 C   0  0  0  0  0  0  0  0  0  0  0  0
   -0.9691    1.3752   -0.0086 C   0  0  0  0  0  0  0  0  0  0  0  0
   -1.1358   -0.1265   -1.4995 H   0  0  0  0  0  0  0  0  0  0  0  0
    1.2119    0.3877   -1.4911 H   0  0  0  0  0  0  0  0  0  0  0  0
    0.8368   -1.3100   -1.1723 H   0  0  0  0  0  0  0  0  0  0  0  0
    1.1342    0.0322    1.4213 H   0  0  0  0  0  0  0  0  0  0  0  0
    2.0391   -1.3400    0.7582 H   0  0  0  0  0  0  0  0  0  0  0  0
    2.5728    0.2825    0.3191 H   0  0  0  0  0  0  0  0  0  0  0  0
   -0.1098    2.0134    0.2242 H   0  0  0  0  0  0  0  0  0  0  0  0
   -1.5772    1.9826   -0.7431 H   0  0  0  0  0  0  0  0  0  0  0  0
   -1.6426    1.3251    0.8978 H   0  0  0  0  0  0  0  0  0  0  0  0
  1  2  1  0
  2  3  2  0
  2  4  1  0
  4  5  1  0
  5  6  1  0
  4  7  1  0
  4  8  1  0
  5  9  1  0
  5 10  1  0
  6 11  1  0
  6 12  1  0
  6 13  1  0
  7 14  1  0
  7 15  1  0
  7 16  1  0
M  CHG  1   1  -1
M  END
>  <Ligand ID>  (1) 
LIG0000719

>  <Ligand>  (1) 
2-Methylbutyrate

>  <SMILES>  (1) 
[O-]C(=O)C(CC)C

>  <CID>  (1) 
22253297.0

>  <ChEMBL ID>  (1) 
nan

>  <InChiKey>  (1) 
WLAMNBDJUVNPJU-UHFFFAOYSA-M

>  <InChi>  (1) 
InChI=1S/C5H10O2/c1-3-4(2)5(6)7/h4H,3H2,1-2H3,(H,6,7)/p-1

>  <IUPAC Name>  (1) 
2-methylbutanoate

$$$$
