
     RDKit          3D

 49 50  0  0  0  0  0  0  0  0999 V2000
   -2.3684    3.3989   -0.9890 O   0  0  0  0  0  0  0  0  0  0  0  0
   -2.2171    2.5060    0.0683 C   0  0  2  0  0  0  0  0  0  0  0  0
   -1.3613    3.0935    1.1731 C   0  0  0  0  0  0  0  0  0  0  0  0
   -0.0332    2.3810    0.9152 C   0  0  0  0  0  0  0  0  0  0  0  0
    0.9851    3.0237    0.9529 O   0  0  0  0  0  0  0  0  0  0  0  0
   -0.4362    1.0043    0.6758 C   0  0  1  0  0  0  0  0  0  0  0  0
   -1.5594    1.2090   -0.3592 C   0  0  1  0  0  0  0  0  0  0  0  0
   -2.5599    0.1486   -0.3401 C   0  0  0  0  0  0  0  0  0  0  0  0
   -3.2511   -0.2287    0.8080 C   0  0  0  0  0  0  0  0  0  0  0  0
   -4.2007   -1.2506    0.7771 C   0  0  0  0  0  0  0  0  0  0  0  0
   -4.4861   -1.9214   -0.3941 C   0  0  0  0  0  0  0  0  0  0  0  0
   -3.8123   -1.5588   -1.5299 C   0  0  0  0  0  0  0  0  0  0  0  0
   -2.8802   -0.5529   -1.4901 C   0  0  0  0  0  0  0  0  0  0  0  0
   -5.4866   -3.0159   -0.4839 C   0  0  0  0  0  0  0  0  0  0  0  0
    0.4577   -0.0352    0.1679 C   0  0  0  0  0  0  0  0  0  0  0  0
    1.6414   -0.5194    0.8691 C   0  0  0  0  0  0  0  0  0  0  0  0
    2.7436    0.4417    1.1275 C   0  0  0  0  0  0  0  0  0  0  0  0
    3.3319    1.0605   -0.1031 C   0  0  0  0  0  0  0  0  0  0  0  0
    3.9420    0.0677   -1.0482 C   0  0  0  0  0  0  0  0  0  0  0  0
    5.0530   -0.7546   -0.5199 C   0  0  0  0  0  0  0  0  0  0  0  0
    5.5157   -1.6718   -1.6116 C   0  0  0  0  0  0  0  0  0  0  0  0
    5.0218   -1.7003   -2.7458 O   0  0  0  0  0  0  0  0  0  0  0  0
    6.5757   -2.5339   -1.2850 O   0  0  0  0  0  0  0  0  0  0  0  0
   -2.3931    2.8983   -1.8517 H   0  0  0  0  0  0  0  0  0  0  0  0
   -3.2308    2.3261    0.5051 H   0  0  0  0  0  0  0  0  0  0  0  0
   -1.6764    2.8428    2.1797 H   0  0  0  0  0  0  0  0  0  0  0  0
   -1.2124    4.1550    0.9493 H   0  0  0  0  0  0  0  0  0  0  0  0
   -0.9569    0.6585    1.6459 H   0  0  0  0  0  0  0  0  0  0  0  0
   -1.1533    1.3256   -1.3690 H   0  0  0  0  0  0  0  0  0  0  0  0
   -3.0455    0.2855    1.7506 H   0  0  0  0  0  0  0  0  0  0  0  0
   -4.7398   -1.5501    1.6557 H   0  0  0  0  0  0  0  0  0  0  0  0
   -4.0129   -2.0691   -2.4767 H   0  0  0  0  0  0  0  0  0  0  0  0
   -2.3564   -0.2847   -2.4167 H   0  0  0  0  0  0  0  0  0  0  0  0
   -6.4498   -2.5394   -0.8246 H   0  0  0  0  0  0  0  0  0  0  0  0
   -5.2296   -3.7343   -1.2876 H   0  0  0  0  0  0  0  0  0  0  0  0
   -5.6236   -3.4852    0.4903 H   0  0  0  0  0  0  0  0  0  0  0  0
   -0.1297   -0.9689   -0.1412 H   0  0  0  0  0  0  0  0  0  0  0  0
    0.7710    0.3367   -0.8886 H   0  0  0  0  0  0  0  0  0  0  0  0
    2.0691   -1.4442    0.3373 H   0  0  0  0  0  0  0  0  0  0  0  0
    1.3457   -0.9081    1.9093 H   0  0  0  0  0  0  0  0  0  0  0  0
    3.5787   -0.0938    1.7146 H   0  0  0  0  0  0  0  0  0  0  0  0
    2.4382    1.2084    1.8310 H   0  0  0  0  0  0  0  0  0  0  0  0
    2.5126    1.5539   -0.6663 H   0  0  0  0  0  0  0  0  0  0  0  0
    4.0451    1.8471    0.2010 H   0  0  0  0  0  0  0  0  0  0  0  0
    3.1623   -0.5991   -1.4663 H   0  0  0  0  0  0  0  0  0  0  0  0
    4.3101    0.6574   -1.9217 H   0  0  0  0  0  0  0  0  0  0  0  0
    5.9440   -0.2080   -0.2088 H   0  0  0  0  0  0  0  0  0  0  0  0
    4.6577   -1.4329    0.2870 H   0  0  0  0  0  0  0  0  0  0  0  0
    6.7607   -3.3689   -1.8221 H   0  0  0  0  0  0  0  0  0  0  0  0
  1  2  1  0
  2  3  1  0
  3  4  1  0
  4  5  2  0
  4  6  1  0
  6  7  1  0
  7  8  1  0
  8  9  2  0
  9 10  1  0
 10 11  2  0
 11 12  1  0
 12 13  2  0
 11 14  1  0
  6 15  1  0
 15 16  1  0
 16 17  1  0
 17 18  1  0
 18 19  1  0
 19 20  1  0
 20 21  1  0
 21 22  2  0
 21 23  1  0
  7  2  1  0
 13  8  1  0
  1 24  1  0
  2 25  1  1
  3 26  1  0
  3 27  1  0
  6 28  1  1
  7 29  1  6
  9 30  1  0
 10 31  1  0
 12 32  1  0
 13 33  1  0
 14 34  1  0
 14 35  1  0
 14 36  1  0
 15 37  1  0
 15 38  1  0
 16 39  1  0
 16 40  1  0
 17 41  1  0
 17 42  1  0
 18 43  1  0
 18 44  1  0
 19 45  1  0
 19 46  1  0
 20 47  1  0
 20 48  1  0
 23 49  1  0
M  END
>  <Ligand ID>  (1) 
LIG0003793

>  <Ligand>  (1) 
SCHEMBL5237543

>  <SMILES>  (1) 
O[C@@H]1CC(=O)[C@@H]([C@H]1c1ccc(cc1)C)CCCCCCC(=O)O

>  <CID>  (1) 
58681361.0

>  <ChEMBL ID>  (1) 
nan

>  <InChiKey>  (1) 
IGUNXCGYTAJBBB-KVSKMBFKSA-N

>  <InChi>  (1) 
InChI=1S/C19H26O4/c1-13-8-10-14(11-9-13)19-15(16(20)12-17(19)21)6-4-2-3-5-7-18(22)23/h8-11,15,17,19,21H,2-7,12H2,1H3,(H,22,23)/t15-,17+,19+/m0/s1

>  <IUPAC Name>  (1) 
7-[(1R,2S,3R)-3-hydroxy-2-(4-methylphenyl)-5-oxocyclopentyl]heptanoic acid

$$$$
