
     RDKit          3D

120124  0  0  0  0  0  0  0  0999 V2000
   -2.0795    8.7938   -2.0016 N   0  0  0  0  0  0  0  0  0  0  0  0
   -2.5577    7.5286   -1.5023 C   0  0  0  0  0  0  0  0  0  0  0  0
   -2.3314    6.5130   -2.2651 N   0  0  0  0  0  0  0  0  0  0  0  0
   -2.7466    5.1700   -1.9111 C   0  0  0  0  0  0  0  0  0  0  0  0
   -1.6803    4.4364   -1.1273 C   0  0  0  0  0  0  0  0  0  0  0  0
   -2.1429    3.0249   -0.7687 C   0  0  0  0  0  0  0  0  0  0  0  0
   -1.1029    2.3191   -0.0087 C   0  0  2  0  0  0  0  0  0  0  0  0
    0.1539    2.1779   -0.7078 N   0  0  0  0  0  0  0  0  0  0  0  0
    1.3834    1.7422   -0.1601 C   0  0  0  0  0  0  0  0  0  0  0  0
    1.3369    1.3242    1.0043 O   0  0  0  0  0  0  0  0  0  0  0  0
    2.6580    1.7854   -0.9727 C   0  0  0  0  0  0  0  0  0  0  0  0
    3.7378    1.1535   -0.1372 N   0  0  0  0  0  0  0  0  0  0  0  0
    4.2507    1.9888    0.8615 C   0  0  0  0  0  0  0  0  0  0  0  0
    5.4110    2.8305    0.6488 C   0  0  0  0  0  0  0  0  0  0  0  0
    5.3198    4.0249   -0.0786 C   0  0  0  0  0  0  0  0  0  0  0  0
    6.4159    4.8693   -0.2297 C   0  0  0  0  0  0  0  0  0  0  0  0
    7.6365    4.5860    0.3188 C   0  0  0  0  0  0  0  0  0  0  0  0
    7.7504    3.4214    1.0372 C   0  0  0  0  0  0  0  0  0  0  0  0
    6.6759    2.5947    1.1849 C   0  0  0  0  0  0  0  0  0  0  0  0
    3.9864   -0.1879   -0.4181 C   0  0  0  0  0  0  0  0  0  0  0  0
    3.2498   -0.6379   -1.3236 O   0  0  0  0  0  0  0  0  0  0  0  0
    4.9441   -1.1685    0.1542 C   0  0  1  0  0  0  0  0  0  0  0  0
    4.5968   -2.5076   -0.4191 N   0  0  0  0  0  0  0  0  0  0  0  0
    3.3944   -3.1856   -0.0036 C   0  0  0  0  0  0  0  0  0  0  0  0
    2.6900   -2.4920    0.7478 O   0  0  0  0  0  0  0  0  0  0  0  0
    3.0875   -4.5564   -0.4702 C   0  0  0  0  0  0  0  0  0  0  0  0
    1.6253   -4.8993   -0.5148 C   0  0  0  0  0  0  0  0  0  0  0  0
    0.8391   -4.6393    0.7010 C   0  0  0  0  0  0  0  0  0  0  0  0
   -0.6328   -5.0051    0.6310 C   0  0  0  0  0  0  0  0  0  0  0  0
   -1.2788   -4.5495   -0.6191 C   0  0  0  0  0  0  0  0  0  0  0  0
   -1.9323   -5.2840   -1.3828 O   0  0  0  0  0  0  0  0  0  0  0  0
   -1.2044   -3.1787   -1.0909 N   0  0  0  0  0  0  0  0  0  0  0  0
   -1.9094   -2.8027   -2.3128 C   0  0  0  0  0  0  0  0  0  0  0  0
   -3.4446   -2.8089   -2.0127 C   0  0  0  0  0  0  0  0  0  0  0  0
   -3.5871   -1.6089   -1.1224 N   0  0  0  0  0  0  0  0  0  0  0  0
   -3.4588   -1.6949    0.2656 C   0  0  0  0  0  0  0  0  0  0  0  0
   -3.5423   -2.8927    0.6533 O   0  0  0  0  0  0  0  0  0  0  0  0
   -3.2678   -0.6873    1.2953 C   0  0  1  0  0  0  0  0  0  0  0  0
   -2.9107    0.6604    0.8129 N   0  0  0  0  0  0  0  0  0  0  0  0
   -1.5597    0.9434    0.3834 C   0  0  0  0  0  0  0  0  0  0  0  0
   -0.8190   -0.0442    0.3597 O   0  0  0  0  0  0  0  0  0  0  0  0
   -4.2118   -0.6266    2.4305 C   0  0  0  0  0  0  0  0  0  0  0  0
   -5.6225   -0.3723    2.1373 C   0  0  0  0  0  0  0  0  0  0  0  0
   -6.1618    0.9289    2.1680 C   0  0  0  0  0  0  0  0  0  0  0  0
   -7.4540    0.8850    1.8222 N   0  0  0  0  0  0  0  0  0  0  0  0
   -7.8141   -0.3859    1.5597 C   0  0  0  0  0  0  0  0  0  0  0  0
   -6.6727   -1.1589    1.7581 C   0  0  0  0  0  0  0  0  0  0  0  0
   -6.7804   -2.4937    1.5673 C   0  0  0  0  0  0  0  0  0  0  0  0
   -7.9747   -3.0481    1.1906 C   0  0  0  0  0  0  0  0  0  0  0  0
   -9.1202   -2.3071    0.9853 C   0  0  0  0  0  0  0  0  0  0  0  0
   -9.0179   -0.9432    1.1798 C   0  0  0  0  0  0  0  0  0  0  0  0
   -3.9676   -0.4136   -1.7524 C   0  0  0  0  0  0  0  0  0  0  0  0
   -5.4825   -0.3445   -1.9282 C   0  0  0  0  0  0  0  0  0  0  0  0
   -5.8996    0.7023   -2.4715 O   0  0  0  0  0  0  0  0  0  0  0  0
   -6.3121   -1.4104   -1.4945 N   0  0  0  0  0  0  0  0  0  0  0  0
    6.3792   -0.9113   -0.0911 C   0  0  0  0  0  0  0  0  0  0  0  0
    7.2710   -1.9516    0.5410 C   0  0  0  0  0  0  0  0  0  0  0  0
    7.7175   -3.0541   -0.1448 C   0  0  0  0  0  0  0  0  0  0  0  0
    8.5230   -3.9938    0.4723 C   0  0  0  0  0  0  0  0  0  0  0  0
    8.9061   -3.8598    1.7904 C   0  0  0  0  0  0  0  0  0  0  0  0
    8.4644   -2.7581    2.4860 C   0  0  0  0  0  0  0  0  0  0  0  0
    7.6589   -1.8181    1.8706 C   0  0  0  0  0  0  0  0  0  0  0  0
   -3.2308    7.4312   -0.2510 N   0  0  0  0  0  0  0  0  0  0  0  0
   -2.8137    9.5373   -2.1604 H   0  0  0  0  0  0  0  0  0  0  0  0
   -1.0695    8.9671   -2.1953 H   0  0  0  0  0  0  0  0  0  0  0  0
   -3.0470    4.5689   -2.8000 H   0  0  0  0  0  0  0  0  0  0  0  0
   -3.6495    5.2324   -1.2587 H   0  0  0  0  0  0  0  0  0  0  0  0
   -1.4746    4.9753   -0.1962 H   0  0  0  0  0  0  0  0  0  0  0  0
   -0.7820    4.3843   -1.7745 H   0  0  0  0  0  0  0  0  0  0  0  0
   -3.0921    3.0812   -0.2156 H   0  0  0  0  0  0  0  0  0  0  0  0
   -2.3528    2.5455   -1.7618 H   0  0  0  0  0  0  0  0  0  0  0  0
   -0.9244    2.8578    0.9775 H   0  0  0  0  0  0  0  0  0  0  0  0
    0.1726    2.4091   -1.7069 H   0  0  0  0  0  0  0  0  0  0  0  0
    2.4970    1.2243   -1.9009 H   0  0  0  0  0  0  0  0  0  0  0  0
    2.9350    2.7955   -1.2322 H   0  0  0  0  0  0  0  0  0  0  0  0
    3.4298    2.6403    1.3015 H   0  0  0  0  0  0  0  0  0  0  0  0
    4.4440    1.2928    1.7656 H   0  0  0  0  0  0  0  0  0  0  0  0
    4.4160    4.3626   -0.5448 H   0  0  0  0  0  0  0  0  0  0  0  0
    6.3318    5.7907   -0.7950 H   0  0  0  0  0  0  0  0  0  0  0  0
    8.4871    5.2232    0.2118 H   0  0  0  0  0  0  0  0  0  0  0  0
    8.7120    3.1932    1.4721 H   0  0  0  0  0  0  0  0  0  0  0  0
    6.8386    1.6977    1.7939 H   0  0  0  0  0  0  0  0  0  0  0  0
    4.6827   -1.2346    1.2120 H   0  0  0  0  0  0  0  0  0  0  0  0
    5.1527   -2.9862   -1.1044 H   0  0  0  0  0  0  0  0  0  0  0  0
    3.5952   -5.3303    0.1491 H   0  0  0  0  0  0  0  0  0  0  0  0
    3.5333   -4.6572   -1.4895 H   0  0  0  0  0  0  0  0  0  0  0  0
    1.1855   -4.3284   -1.3927 H   0  0  0  0  0  0  0  0  0  0  0  0
    1.5765   -5.9987   -0.7457 H   0  0  0  0  0  0  0  0  0  0  0  0
    0.8166   -3.5602    1.0412 H   0  0  0  0  0  0  0  0  0  0  0  0
    1.2431   -5.2772    1.5391 H   0  0  0  0  0  0  0  0  0  0  0  0
   -1.1103   -4.5798    1.5501 H   0  0  0  0  0  0  0  0  0  0  0  0
   -0.7837   -6.1006    0.7310 H   0  0  0  0  0  0  0  0  0  0  0  0
   -0.6397   -2.5758   -0.5097 H   0  0  0  0  0  0  0  0  0  0  0  0
   -1.6910   -1.7834   -2.6259 H   0  0  0  0  0  0  0  0  0  0  0  0
   -1.7669   -3.5290   -3.1227 H   0  0  0  0  0  0  0  0  0  0  0  0
   -3.9354   -2.6903   -2.9560 H   0  0  0  0  0  0  0  0  0  0  0  0
   -3.6769   -3.7313   -1.5244 H   0  0  0  0  0  0  0  0  0  0  0  0
   -2.2383   -1.0090    1.7528 H   0  0  0  0  0  0  0  0  0  0  0  0
   -3.5494    1.4404    0.7596 H   0  0  0  0  0  0  0  0  0  0  0  0
   -3.8356    0.1298    3.1879 H   0  0  0  0  0  0  0  0  0  0  0  0
   -4.0760   -1.6006    3.0049 H   0  0  0  0  0  0  0  0  0  0  0  0
   -5.6248    1.8447    2.4311 H   0  0  0  0  0  0  0  0  0  0  0  0
   -8.0924    1.7214    1.7650 H   0  0  0  0  0  0  0  0  0  0  0  0
   -5.9346   -3.1193    1.7241 H   0  0  0  0  0  0  0  0  0  0  0  0
   -8.0635   -4.1233    1.0360 H   0  0  0  0  0  0  0  0  0  0  0  0
  -10.0600   -2.7518    0.6872 H   0  0  0  0  0  0  0  0  0  0  0  0
   -9.8724   -0.2671    1.0421 H   0  0  0  0  0  0  0  0  0  0  0  0
   -3.5641   -0.4991   -2.8166 H   0  0  0  0  0  0  0  0  0  0  0  0
   -3.5947    0.5374   -1.4103 H   0  0  0  0  0  0  0  0  0  0  0  0
   -5.8711   -2.3270   -1.2630 H   0  0  0  0  0  0  0  0  0  0  0  0
   -7.3337   -1.2110   -1.4310 H   0  0  0  0  0  0  0  0  0  0  0  0
    6.6431   -0.9772   -1.1875 H   0  0  0  0  0  0  0  0  0  0  0  0
    6.7312    0.0588    0.2218 H   0  0  0  0  0  0  0  0  0  0  0  0
    7.4746   -3.2299   -1.1738 H   0  0  0  0  0  0  0  0  0  0  0  0
    8.8706   -4.8634   -0.0796 H   0  0  0  0  0  0  0  0  0  0  0  0
    9.5354   -4.5831    2.2913 H   0  0  0  0  0  0  0  0  0  0  0  0
    8.7178   -2.5780    3.5170 H   0  0  0  0  0  0  0  0  0  0  0  0
    7.3027   -0.9398    2.4146 H   0  0  0  0  0  0  0  0  0  0  0  0
   -2.7240    7.0748    0.5827 H   0  0  0  0  0  0  0  0  0  0  0  0
   -4.2324    7.7031   -0.1123 H   0  0  0  0  0  0  0  0  0  0  0  0
  1  2  1  0
  2  3  2  3
  3  4  1  0
  4  5  1  0
  5  6  1  0
  6  7  1  0
  7  8  1  0
  8  9  1  0
  9 10  2  0
  9 11  1  0
 11 12  1  0
 12 13  1  0
 13 14  1  0
 14 15  2  0
 15 16  1  0
 16 17  2  0
 17 18  1  0
 18 19  2  0
 12 20  1  0
 20 21  2  0
 20 22  1  0
 22 23  1  0
 23 24  1  0
 24 25  2  0
 24 26  1  0
 26 27  1  0
 27 28  1  0
 28 29  1  0
 29 30  1  0
 30 31  2  0
 30 32  1  0
 32 33  1  0
 33 34  1  0
 34 35  1  0
 35 36  1  0
 36 37  2  0
 36 38  1  0
 38 39  1  0
 39 40  1  0
 40 41  2  0
 38 42  1  0
 42 43  1  0
 43 44  2  0
 44 45  1  0
 45 46  1  0
 46 47  2  0
 47 48  1  0
 48 49  2  0
 49 50  1  0
 50 51  2  0
 35 52  1  0
 52 53  1  0
 53 54  2  0
 53 55  1  0
 22 56  1  0
 56 57  1  0
 57 58  2  0
 58 59  1  0
 59 60  2  0
 60 61  1  0
 61 62  2  0
  2 63  1  0
 40  7  1  0
 47 43  1  0
 62 57  1  0
 19 14  1  0
 51 46  1  0
  1 64  1  0
  1 65  1  0
  4 66  1  0
  4 67  1  0
  5 68  1  0
  5 69  1  0
  6 70  1  0
  6 71  1  0
  7 72  1  1
  8 73  1  0
 11 74  1  0
 11 75  1  0
 13 76  1  0
 13 77  1  0
 15 78  1  0
 16 79  1  0
 17 80  1  0
 18 81  1  0
 19 82  1  0
 22 83  1  1
 23 84  1  0
 26 85  1  0
 26 86  1  0
 27 87  1  0
 27 88  1  0
 28 89  1  0
 28 90  1  0
 29 91  1  0
 29 92  1  0
 32 93  1  0
 33 94  1  0
 33 95  1  0
 34 96  1  0
 34 97  1  0
 38 98  1  1
 39 99  1  0
 42100  1  0
 42101  1  0
 44102  1  0
 45103  1  0
 48104  1  0
 49105  1  0
 50106  1  0
 51107  1  0
 52108  1  0
 52109  1  0
 55110  1  0
 55111  1  0
 56112  1  0
 56113  1  0
 58114  1  0
 59115  1  0
 60116  1  0
 61117  1  0
 62118  1  0
 63119  1  0
 63120  1  0
M  END
>  <Ligand ID>  (1) 
LIG0001350

>  <Ligand>  (1) 
CHEMBL589517

>  <SMILES>  (1) 
NC(=NCCC[C@@H]1NC(=O)CN(Cc2ccccc2)C(=O)[C@@H](NC(=O)CCCCC(=O)NCCN(C(=O)[C@@H](NC1=O)Cc1c[nH]c2c1cccc2)CC(=O)N)Cc1ccccc1)N

>  <CID>  (1) 
46232227.0

>  <ChEMBL ID>  (1) 
nan

>  <InChiKey>  (1) 
UFTHOJUCAJELPF-FSEITFBQSA-N

>  <InChi>  (1) 
InChI=1S/C45H57N11O7/c46-38(57)28-55-23-22-49-39(58)19-9-10-20-40(59)53-36(24-30-12-3-1-4-13-30)44(63)56(27-31-14-5-2-6-15-31)29-41(60)52-35(18-11-21-50-45(47)48)42(61)54-37(43(55)62)25-32-26-51-34-17-8-7-16-33(32)34/h1-8,12-17,26,35-37,51H,9-11,18-25,27-29H2,(H2,46,57)(H,49,58)(H,52,60)(H,53,59)(H,54,61)(H4,47,48,50)/t35-,36-,37-/m0/s1

>  <IUPAC Name>  (1) 
2-[(6S,9S,15S)-13,15-dibenzyl-9-[3-(diaminomethylideneamino)propyl]-6-(1H-indol-3-ylmethyl)-5,8,11,14,17,22-hexaoxo-1,4,7,10,13,16-hexazacyclodocos-4-yl]acetamide

$$$$
