
     RDKit          3D

 43 44  0  0  0  0  0  0  0  0999 V2000
    1.8780    1.1346    0.8742 O   0  0  0  0  0  0  0  0  0  0  0  0
    1.4161    0.1599    0.2041 C   0  0  0  0  0  0  0  0  0  0  0  0
    2.3554   -0.7373   -0.5062 C   0  0  0  0  0  0  0  0  0  0  0  0
    3.7491   -0.3037   -0.2896 C   0  0  0  0  0  0  0  0  0  0  0  0
    4.4299   -0.8317    0.8034 C   0  0  0  0  0  0  0  0  0  0  0  0
    5.7353   -0.4925    1.0955 C   0  0  0  0  0  0  0  0  0  0  0  0
    6.3695    0.4027    0.2628 C   0  0  0  0  0  0  0  0  0  0  0  0
    5.7009    0.9180   -0.8064 C   0  0  0  0  0  0  0  0  0  0  0  0
    4.3943    0.5996   -1.1269 C   0  0  0  0  0  0  0  0  0  0  0  0
    8.1741    0.8597    0.6826 Br  0  0  0  0  0  0  0  0  0  0  0  0
    0.0109   -0.0758    0.1308 N   0  0  0  0  0  0  0  0  0  0  0  0
   -0.8489    0.8316    0.8430 C   0  0  0  0  0  0  0  0  0  0  0  0
   -2.3054    0.5502    0.7525 C   0  0  0  0  0  0  0  0  0  0  0  0
   -2.8064    0.5737   -0.6391 C   0  0  0  0  0  0  0  0  0  0  0  0
   -2.0439    0.9210   -1.7296 C   0  0  0  0  0  0  0  0  0  0  0  0
   -2.5665    0.9243   -3.0164 C   0  0  0  0  0  0  0  0  0  0  0  0
   -3.8797    0.5769   -3.2512 C   0  0  0  0  0  0  0  0  0  0  0  0
   -4.6666    0.2217   -2.1518 C   0  0  0  0  0  0  0  0  0  0  0  0
   -4.1282    0.2227   -0.8633 C   0  0  0  0  0  0  0  0  0  0  0  0
   -2.6553   -0.5526    1.5436 N   0  0  0  0  0  0  0  0  0  0  0  0
   -2.1001   -1.8187    1.3043 C   0  0  0  0  0  0  0  0  0  0  0  0
   -3.1860   -0.3178    2.8373 C   0  0  0  0  0  0  0  0  0  0  0  0
    2.0937   -0.7112   -1.5944 H   0  0  0  0  0  0  0  0  0  0  0  0
    2.2111   -1.7648   -0.1567 H   0  0  0  0  0  0  0  0  0  0  0  0
    3.9493   -1.5419    1.4768 H   0  0  0  0  0  0  0  0  0  0  0  0
    6.2256   -0.9363    1.9675 H   0  0  0  0  0  0  0  0  0  0  0  0
    6.2246    1.6206   -1.4451 H   0  0  0  0  0  0  0  0  0  0  0  0
    3.8716    1.0150   -1.9795 H   0  0  0  0  0  0  0  0  0  0  0  0
   -0.2927   -0.8857   -0.4380 H   0  0  0  0  0  0  0  0  0  0  0  0
   -0.5687    1.8720    0.5892 H   0  0  0  0  0  0  0  0  0  0  0  0
   -0.5646    0.7383    1.9324 H   0  0  0  0  0  0  0  0  0  0  0  0
   -2.8107    1.4558    1.2340 H   0  0  0  0  0  0  0  0  0  0  0  0
   -1.0099    1.2005   -1.5861 H   0  0  0  0  0  0  0  0  0  0  0  0
   -1.9232    1.2079   -3.8576 H   0  0  0  0  0  0  0  0  0  0  0  0
   -4.2697    0.5847   -4.2562 H   0  0  0  0  0  0  0  0  0  0  0  0
   -5.6844   -0.0448   -2.3567 H   0  0  0  0  0  0  0  0  0  0  0  0
   -4.8003   -0.0656   -0.0519 H   0  0  0  0  0  0  0  0  0  0  0  0
   -2.5849   -2.5546    2.0172 H   0  0  0  0  0  0  0  0  0  0  0  0
   -1.0345   -1.8349    1.6125 H   0  0  0  0  0  0  0  0  0  0  0  0
   -2.1532   -2.1874    0.2660 H   0  0  0  0  0  0  0  0  0  0  0  0
   -2.5225    0.3692    3.4179 H   0  0  0  0  0  0  0  0  0  0  0  0
   -4.2436   -0.0115    2.8565 H   0  0  0  0  0  0  0  0  0  0  0  0
   -3.1398   -1.2914    3.3988 H   0  0  0  0  0  0  0  0  0  0  0  0
  1  2  2  0
  2  3  1  0
  3  4  1  0
  4  5  2  0
  5  6  1  0
  6  7  2  0
  7  8  1  0
  8  9  2  0
  7 10  1  0
  2 11  1  0
 11 12  1  0
 12 13  1  0
 13 14  1  0
 14 15  2  0
 15 16  1  0
 16 17  2  0
 17 18  1  0
 18 19  2  0
 13 20  1  0
 20 21  1  0
 20 22  1  0
  9  4  1  0
 19 14  1  0
  3 23  1  0
  3 24  1  0
  5 25  1  0
  6 26  1  0
  8 27  1  0
  9 28  1  0
 11 29  1  0
 12 30  1  0
 12 31  1  0
 13 32  1  0
 15 33  1  0
 16 34  1  0
 17 35  1  0
 18 36  1  0
 19 37  1  0
 21 38  1  0
 21 39  1  0
 21 40  1  0
 22 41  1  0
 22 42  1  0
 22 43  1  0
M  END
>  <Ligand ID>  (1) 
LIG0004523

>  <Ligand>  (1) 
MLS001175335

>  <SMILES>  (1) 
O=C(Cc1ccc(cc1)Br)NCC(c1ccccc1)N(C)C

>  <CID>  (1) 
4587627.0

>  <ChEMBL ID>  (1) 
nan

>  <InChiKey>  (1) 
FHCPLXLTFFPFFI-UHFFFAOYSA-N

>  <InChi>  (1) 
InChI=1S/C18H21BrN2O/c1-21(2)17(15-6-4-3-5-7-15)13-20-18(22)12-14-8-10-16(19)11-9-14/h3-11,17H,12-13H2,1-2H3,(H,20,22)

>  <IUPAC Name>  (1) 
2-(4-bromophenyl)-N-[2-(dimethylamino)-2-phenylethyl]acetamide

$$$$
