
     RDKit          3D

 32 33  0  0  0  0  0  0  0  0999 V2000
   -4.5295    0.9853   -0.7654 N   0  0  0  0  0  0  0  0  0  0  0  0
   -4.3780    0.8915    0.6826 C   0  0  0  0  0  0  0  0  0  0  0  0
   -3.6938   -0.4009    0.9994 C   0  0  0  0  0  0  0  0  0  0  0  0
   -2.3531   -0.5411    0.3976 C   0  0  0  0  0  0  0  0  0  0  0  0
   -1.2773   -0.0843    1.1528 C   0  0  0  0  0  0  0  0  0  0  0  0
   -0.0118   -0.2054    0.6092 C   0  0  0  0  0  0  0  0  0  0  0  0
    0.1795   -0.7536   -0.6252 C   0  0  0  0  0  0  0  0  0  0  0  0
   -0.8856   -1.2068   -1.3748 C   0  0  0  0  0  0  0  0  0  0  0  0
   -2.1764   -1.0990   -0.8546 C   0  0  0  0  0  0  0  0  0  0  0  0
   -0.5788   -2.0467   -3.2689 I   0  0  0  0  0  0  0  0  0  0  0  0
    1.4480   -0.8751   -1.1703 O   0  0  0  0  0  0  0  0  0  0  0  0
    2.5929   -0.4524   -0.5048 C   0  0  0  0  0  0  0  0  0  0  0  0
    3.2973   -1.3003    0.3325 C   0  0  0  0  0  0  0  0  0  0  0  0
    4.4422   -0.8186    0.9751 C   0  0  0  0  0  0  0  0  0  0  0  0
    4.8522    0.5002    0.7626 C   0  0  0  0  0  0  0  0  0  0  0  0
    4.1297    1.3417   -0.0854 C   0  0  0  0  0  0  0  0  0  0  0  0
    2.9888    0.8615   -0.7257 C   0  0  0  0  0  0  0  0  0  0  0  0
    5.9931    0.9493    1.4149 O   0  0  0  0  0  0  0  0  0  0  0  0
   -4.4246    1.9467   -1.1289 H   0  0  0  0  0  0  0  0  0  0  0  0
   -5.4225    0.5093   -1.0339 H   0  0  0  0  0  0  0  0  0  0  0  0
   -3.9274    1.7838    1.1154 H   0  0  0  0  0  0  0  0  0  0  0  0
   -5.3981    0.8194    1.1156 H   0  0  0  0  0  0  0  0  0  0  0  0
   -4.3181   -1.2093    0.5596 H   0  0  0  0  0  0  0  0  0  0  0  0
   -3.7037   -0.5627    2.1118 H   0  0  0  0  0  0  0  0  0  0  0  0
   -1.3997    0.3551    2.1352 H   0  0  0  0  0  0  0  0  0  0  0  0
    0.8630    0.1315    1.1480 H   0  0  0  0  0  0  0  0  0  0  0  0
   -3.0461   -1.4364   -1.3956 H   0  0  0  0  0  0  0  0  0  0  0  0
    2.9566   -2.3231    0.4808 H   0  0  0  0  0  0  0  0  0  0  0  0
    5.0046   -1.4820    1.6384 H   0  0  0  0  0  0  0  0  0  0  0  0
    4.4346    2.3565   -0.2566 H   0  0  0  0  0  0  0  0  0  0  0  0
    2.4141    1.5042   -1.3898 H   0  0  0  0  0  0  0  0  0  0  0  0
    5.9278    1.8618    1.8749 H   0  0  0  0  0  0  0  0  0  0  0  0
  1  2  1  0
  2  3  1  0
  3  4  1  0
  4  5  2  0
  5  6  1  0
  6  7  2  0
  7  8  1  0
  8  9  2  0
  8 10  1  0
  7 11  1  0
 11 12  1  0
 12 13  2  0
 13 14  1  0
 14 15  2  0
 15 16  1  0
 16 17  2  0
 15 18  1  0
  9  4  1  0
 17 12  1  0
  1 19  1  0
  1 20  1  0
  2 21  1  0
  2 22  1  0
  3 23  1  0
  3 24  1  0
  5 25  1  0
  6 26  1  0
  9 27  1  0
 13 28  1  0
 14 29  1  0
 16 30  1  0
 17 31  1  0
 18 32  1  0
M  END
>  <Ligand ID>  (1) 
LIG0001238

>  <Ligand>  (1) 
3-iodothyronamine

>  <SMILES>  (1) 
NCCc1ccc(c(c1)I)Oc1ccc(cc1)O

>  <CID>  (1) 
9950514.0

>  <ChEMBL ID>  (1) 
nan

>  <InChiKey>  (1) 
XIINYOJWNGOUPF-UHFFFAOYSA-N

>  <InChi>  (1) 
InChI=1S/C14H14INO2/c15-13-9-10(7-8-16)1-6-14(13)18-12-4-2-11(17)3-5-12/h1-6,9,17H,7-8,16H2

>  <IUPAC Name>  (1) 
4-[4-(2-aminoethyl)-2-iodophenoxy]phenol

$$$$
