
     RDKit          3D

 52 56  0  0  0  0  0  0  0  0999 V2000
   -4.8280    3.6365   -1.5676 C   0  0  0  0  0  0  0  0  0  0  0  0
   -3.7276    3.1562   -0.6261 C   0  0  0  0  0  0  0  0  0  0  0  0
   -2.6507    2.4816   -1.4030 C   0  0  0  0  0  0  0  0  0  0  0  0
   -1.7179    1.6050   -0.6192 C   0  0  0  0  0  0  0  0  0  0  0  0
   -2.4800    0.5690    0.1717 C   0  0  0  0  0  0  0  0  0  0  0  0
   -3.7312    1.0008    0.6033 C   0  0  0  0  0  0  0  0  0  0  0  0
   -4.3114    2.3123    0.4555 C   0  0  0  0  0  0  0  0  0  0  0  0
   -4.4723   -0.3844    1.4439 S   0  0  0  0  0  0  0  0  0  0  0  0
   -3.0106   -1.4801    1.1537 C   0  0  0  0  0  0  0  0  0  0  0  0
   -2.1096   -0.6908    0.4528 C   0  0  0  0  0  0  0  0  0  0  0  0
   -0.9081   -1.3706    0.1734 C   0  0  0  0  0  0  0  0  0  0  0  0
   -0.7360   -2.6484    0.5756 N   0  0  0  0  0  0  0  0  0  0  0  0
   -1.6292   -3.3631    1.2422 C   0  0  0  0  0  0  0  0  0  0  0  0
   -2.8067   -2.7596    1.5425 N   0  0  0  0  0  0  0  0  0  0  0  0
   -1.3536   -4.7525    1.6387 C   0  0  0  0  0  0  0  0  0  0  0  0
    0.1888   -0.7784   -0.4778 N   0  0  0  0  0  0  0  0  0  0  0  0
    0.6462   -1.1140   -1.8248 C   0  0  0  0  0  0  0  0  0  0  0  0
    1.9347   -1.9151   -1.5468 C   0  0  0  0  0  0  0  0  0  0  0  0
    2.8506   -1.1236   -0.7581 N   0  0  0  0  0  0  0  0  0  0  0  0
    2.4346   -0.2851    0.3552 C   0  0  0  0  0  0  0  0  0  0  0  0
    1.0264    0.2453    0.1938 C   0  0  0  0  0  0  0  0  0  0  0  0
    4.2487   -1.1302   -1.0473 C   0  0  0  0  0  0  0  0  0  0  0  0
    4.5854   -1.8701   -2.0400 O   0  0  0  0  0  0  0  0  0  0  0  0
    5.2280   -0.3739   -0.2957 C   0  0  0  0  0  0  0  0  0  0  0  0
    5.4599   -0.3731    1.0709 C   0  0  0  0  0  0  0  0  0  0  0  0
    6.5047    0.5140    1.2962 C   0  0  0  0  0  0  0  0  0  0  0  0
    6.8526    1.0063    0.0557 C   0  0  0  0  0  0  0  0  0  0  0  0
    6.0832    0.4675   -0.8729 O   0  0  0  0  0  0  0  0  0  0  0  0
   -5.8118    3.2675   -1.1616 H   0  0  0  0  0  0  0  0  0  0  0  0
   -4.6748    3.2455   -2.5984 H   0  0  0  0  0  0  0  0  0  0  0  0
   -4.9025    4.7333   -1.6380 H   0  0  0  0  0  0  0  0  0  0  0  0
   -3.3455    4.1042   -0.1509 H   0  0  0  0  0  0  0  0  0  0  0  0
   -3.0289    1.9719   -2.3311 H   0  0  0  0  0  0  0  0  0  0  0  0
   -1.9924    3.3113   -1.8168 H   0  0  0  0  0  0  0  0  0  0  0  0
   -1.1550    2.2176    0.0900 H   0  0  0  0  0  0  0  0  0  0  0  0
   -1.0902    1.0844   -1.3882 H   0  0  0  0  0  0  0  0  0  0  0  0
   -4.1386    2.8439    1.4519 H   0  0  0  0  0  0  0  0  0  0  0  0
   -5.4107    2.2151    0.2858 H   0  0  0  0  0  0  0  0  0  0  0  0
   -1.6156   -5.4151    0.7741 H   0  0  0  0  0  0  0  0  0  0  0  0
   -1.8967   -5.0181    2.5639 H   0  0  0  0  0  0  0  0  0  0  0  0
   -0.2510   -4.8718    1.8394 H   0  0  0  0  0  0  0  0  0  0  0  0
   -0.0273   -1.7786   -2.3647 H   0  0  0  0  0  0  0  0  0  0  0  0
    0.9471   -0.2039   -2.3777 H   0  0  0  0  0  0  0  0  0  0  0  0
    2.3617   -2.2477   -2.4943 H   0  0  0  0  0  0  0  0  0  0  0  0
    1.6498   -2.8365   -0.9627 H   0  0  0  0  0  0  0  0  0  0  0  0
    3.1583    0.5529    0.4538 H   0  0  0  0  0  0  0  0  0  0  0  0
    2.5050   -0.9225    1.2609 H   0  0  0  0  0  0  0  0  0  0  0  0
    0.5298    0.4928    1.1232 H   0  0  0  0  0  0  0  0  0  0  0  0
    1.1206    1.1425   -0.4590 H   0  0  0  0  0  0  0  0  0  0  0  0
    4.9193   -0.9579    1.8273 H   0  0  0  0  0  0  0  0  0  0  0  0
    6.9499    0.7649    2.2694 H   0  0  0  0  0  0  0  0  0  0  0  0
    7.6282    1.7228   -0.1844 H   0  0  0  0  0  0  0  0  0  0  0  0
  1  2  1  0
  2  3  1  0
  3  4  1  0
  4  5  1  0
  5  6  2  0
  6  7  1  0
  6  8  1  0
  8  9  1  0
  9 10  2  0
 10 11  1  0
 11 12  2  0
 12 13  1  0
 13 14  2  0
 13 15  1  0
 11 16  1  0
 16 17  1  0
 17 18  1  0
 18 19  1  0
 19 20  1  0
 20 21  1  0
 19 22  1  0
 22 23  2  0
 22 24  1  0
 24 25  2  0
 25 26  1  0
 26 27  2  0
 27 28  1  0
  7  2  1  0
 14  9  1  0
 21 16  1  0
 28 24  1  0
 10  5  1  0
  1 29  1  0
  1 30  1  0
  1 31  1  0
  2 32  1  0
  3 33  1  0
  3 34  1  0
  4 35  1  0
  4 36  1  0
  7 37  1  0
  7 38  1  0
 15 39  1  0
 15 40  1  0
 15 41  1  0
 17 42  1  0
 17 43  1  0
 18 44  1  0
 18 45  1  0
 20 46  1  0
 20 47  1  0
 21 48  1  0
 21 49  1  0
 25 50  1  0
 26 51  1  0
 27 52  1  0
M  END
>  <Ligand ID>  (1) 
LIG0004005

>  <Ligand>  (1) 
MLS000717682

>  <SMILES>  (1) 
CC1CCc2c(C1)sc1c2c(nc(n1)C)N1CCN(CC1)C(=O)c1ccco1

>  <CID>  (1) 
3193014.0

>  <ChEMBL ID>  (1) 
nan

>  <InChiKey>  (1) 
HXELDYRZCKHWSK-UHFFFAOYSA-N

>  <InChi>  (1) 
InChI=1S/C21H24N4O2S/c1-13-5-6-15-17(12-13)28-20-18(15)19(22-14(2)23-20)24-7-9-25(10-8-24)21(26)16-4-3-11-27-16/h3-4,11,13H,5-10,12H2,1-2H3

>  <IUPAC Name>  (1) 
[4-(2,7-dimethyl-5,6,7,8-tetrahydro-[1]benzothiolo[2,3-d]pyrimidin-4-yl)piperazin-1-yl]-(furan-2-yl)methanone

$$$$
