
     RDKit          3D

 63 66  0  0  0  0  0  0  0  0999 V2000
   -9.5996   -1.3848    0.6351 O   0  0  0  0  0  0  0  0  0  0  0  0
   -9.3908    0.2718    0.4336 P   0  0  0  0  0  0  0  0  0  0  0  0
  -10.6093    0.9209   -0.1952 O   0  0  0  0  0  0  0  0  0  0  0  0
   -8.0945    0.6168   -0.6009 O   0  0  0  0  0  0  0  0  0  0  0  0
   -6.8979    0.8018    0.0637 C   0  0  0  0  0  0  0  0  0  0  0  0
   -5.8373    1.1079   -0.9728 C   0  0  1  0  0  0  0  0  0  0  0  0
   -4.5155    1.2614   -0.3104 C   0  0  0  0  0  0  0  0  0  0  0  0
   -4.0623    2.4466    0.1514 N   0  0  0  0  0  0  0  0  0  0  0  0
   -2.8387    2.3052    0.7051 C   0  0  0  0  0  0  0  0  0  0  0  0
   -2.5390    0.9572    0.5683 C   0  0  0  0  0  0  0  0  0  0  0  0
   -3.5749    0.3681   -0.0475 N   0  0  0  0  0  0  0  0  0  0  0  0
   -1.3164    0.3001    1.0136 C   0  0  0  0  0  0  0  0  0  0  0  0
   -1.1523   -1.0506    0.8077 C   0  0  0  0  0  0  0  0  0  0  0  0
    0.0036   -1.6935    1.2241 C   0  0  0  0  0  0  0  0  0  0  0  0
    1.0309   -1.0464    1.8493 C   0  0  0  0  0  0  0  0  0  0  0  0
    0.8346    0.3381    2.0477 C   0  0  0  0  0  0  0  0  0  0  0  0
   -0.3078    0.9775    1.6376 C   0  0  0  0  0  0  0  0  0  0  0  0
    2.2002   -1.5454    2.2965 O   0  0  0  0  0  0  0  0  0  0  0  0
    2.6669   -2.8342    2.2004 C   0  0  0  0  0  0  0  0  0  0  0  0
    2.9251   -3.2264    0.7703 C   0  0  0  0  0  0  0  0  0  0  0  0
    3.9675   -2.2749    0.2502 C   0  0  0  0  0  0  0  0  0  0  0  0
    5.2988   -2.6086    0.4236 C   0  0  0  0  0  0  0  0  0  0  0  0
    6.2660   -1.7289   -0.0647 C   0  0  0  0  0  0  0  0  0  0  0  0
    5.9212   -0.5507   -0.7073 C   0  0  0  0  0  0  0  0  0  0  0  0
    4.5890   -0.2203   -0.8789 C   0  0  0  0  0  0  0  0  0  0  0  0
    3.6395   -1.1012   -0.3902 C   0  0  0  0  0  0  0  0  0  0  0  0
    6.9825    0.3086   -1.1848 C   0  0  0  0  0  0  0  0  0  0  0  0
    8.1716   -0.2400   -1.6102 C   0  0  0  0  0  0  0  0  0  0  0  0
    9.1445    0.6123   -2.0530 C   0  0  0  0  0  0  0  0  0  0  0  0
    8.9884    1.9726   -2.0908 C   0  0  0  0  0  0  0  0  0  0  0  0
    7.7876    2.5227   -1.6609 C   0  0  0  0  0  0  0  0  0  0  0  0
    6.7787    1.6797   -1.2048 C   0  0  0  0  0  0  0  0  0  0  0  0
   -5.8085   -0.0680   -1.8564 N   0  0  0  0  0  0  0  0  0  0  0  0
   -6.1973    2.2776   -1.8277 C   0  0  0  0  0  0  0  0  0  0  0  0
   -9.1888    0.9771    1.9617 O   0  0  0  0  0  0  0  0  0  0  0  0
   -9.5266   -1.6579    1.5851 H   0  0  0  0  0  0  0  0  0  0  0  0
   -6.6392   -0.1251    0.6103 H   0  0  0  0  0  0  0  0  0  0  0  0
   -6.9239    1.6419    0.7808 H   0  0  0  0  0  0  0  0  0  0  0  0
   -2.2005    3.0402    1.1615 H   0  0  0  0  0  0  0  0  0  0  0  0
   -3.6534   -0.6473   -0.2956 H   0  0  0  0  0  0  0  0  0  0  0  0
   -1.9472   -1.5952    0.3138 H   0  0  0  0  0  0  0  0  0  0  0  0
    0.0365   -2.7511    1.0476 H   0  0  0  0  0  0  0  0  0  0  0  0
    1.5867    0.9422    2.5338 H   0  0  0  0  0  0  0  0  0  0  0  0
   -0.4203    2.0387    1.8074 H   0  0  0  0  0  0  0  0  0  0  0  0
    1.9159   -3.5826    2.5779 H   0  0  0  0  0  0  0  0  0  0  0  0
    3.5739   -3.0209    2.8401 H   0  0  0  0  0  0  0  0  0  0  0  0
    2.0258   -3.2095    0.1882 H   0  0  0  0  0  0  0  0  0  0  0  0
    3.3500   -4.2609    0.7832 H   0  0  0  0  0  0  0  0  0  0  0  0
    5.5930   -3.5219    0.9218 H   0  0  0  0  0  0  0  0  0  0  0  0
    7.2949   -2.0168    0.0860 H   0  0  0  0  0  0  0  0  0  0  0  0
    4.2893    0.6970   -1.3789 H   0  0  0  0  0  0  0  0  0  0  0  0
    2.6085   -0.8181   -0.5421 H   0  0  0  0  0  0  0  0  0  0  0  0
    8.2623   -1.3118   -1.5677 H   0  0  0  0  0  0  0  0  0  0  0  0
   10.0788    0.1685   -2.3862 H   0  0  0  0  0  0  0  0  0  0  0  0
    9.7800    2.6307   -2.4486 H   0  0  0  0  0  0  0  0  0  0  0  0
    7.6129    3.6057   -1.6714 H   0  0  0  0  0  0  0  0  0  0  0  0
    5.8389    2.1199   -0.8689 H   0  0  0  0  0  0  0  0  0  0  0  0
   -5.7554   -0.8849   -1.1802 H   0  0  0  0  0  0  0  0  0  0  0  0
   -4.8501   -0.0400   -2.2996 H   0  0  0  0  0  0  0  0  0  0  0  0
   -5.3070    2.8309   -2.1917 H   0  0  0  0  0  0  0  0  0  0  0  0
   -6.9021    2.9258   -1.2713 H   0  0  0  0  0  0  0  0  0  0  0  0
   -6.7384    1.9717   -2.7648 H   0  0  0  0  0  0  0  0  0  0  0  0
   -8.2493    1.0154    2.2462 H   0  0  0  0  0  0  0  0  0  0  0  0
  1  2  1  0
  2  3  2  0
  2  4  1  0
  4  5  1  0
  5  6  1  0
  6  7  1  0
  7  8  2  0
  8  9  1  0
  9 10  2  0
 10 11  1  0
 10 12  1  0
 12 13  2  0
 13 14  1  0
 14 15  2  0
 15 16  1  0
 16 17  2  0
 15 18  1  0
 18 19  1  0
 19 20  1  0
 20 21  1  0
 21 22  2  0
 22 23  1  0
 23 24  2  0
 24 25  1  0
 25 26  2  0
 24 27  1  0
 27 28  2  0
 28 29  1  0
 29 30  2  0
 30 31  1  0
 31 32  2  0
  6 33  1  6
  6 34  1  0
  2 35  1  0
 11  7  1  0
 17 12  1  0
 26 21  1  0
 32 27  1  0
  1 36  1  0
  5 37  1  0
  5 38  1  0
  9 39  1  0
 11 40  1  0
 13 41  1  0
 14 42  1  0
 16 43  1  0
 17 44  1  0
 19 45  1  0
 19 46  1  0
 20 47  1  0
 20 48  1  0
 22 49  1  0
 23 50  1  0
 25 51  1  0
 26 52  1  0
 28 53  1  0
 29 54  1  0
 30 55  1  0
 31 56  1  0
 32 57  1  0
 33 58  1  0
 33 59  1  0
 34 60  1  0
 34 61  1  0
 34 62  1  0
 35 63  1  0
M  END
>  <Ligand ID>  (1) 
LIG0005104

>  <Ligand>  (1) 
CHEMBL474418

>  <SMILES>  (1) 
OP(=O)(OC[C@@](c1ncc([nH]1)c1ccc(cc1)OCCc1ccc(cc1)c1ccccc1)(N)C)O

>  <CID>  (1) 
44565716.0

>  <ChEMBL ID>  (1) 
nan

>  <InChiKey>  (1) 
YWXALJUJDPVVHS-SANMLTNESA-N

>  <InChi>  (1) 
InChI=1S/C26H28N3O5P/c1-26(27,18-34-35(30,31)32)25-28-17-24(29-25)22-11-13-23(14-12-22)33-16-15-19-7-9-21(10-8-19)20-5-3-2-4-6-20/h2-14,17H,15-16,18,27H2,1H3,(H,28,29)(H2,30,31,32)/t26-/m0/s1

>  <IUPAC Name>  (1) 
[(2R)-2-amino-2-[5-[4-[2-(4-phenylphenyl)ethoxy]phenyl]-1H-imidazol-2-yl]propyl] dihydrogen phosphate

$$$$
