
     RDKit          3D

 55 57  0  0  0  0  0  0  0  0999 V2000
    1.0925   -1.4828   -2.3303 C   0  0  0  0  0  0  0  0  0  0  0  0
    2.0670   -1.1152   -1.2151 C   0  0  2  0  0  0  0  0  0  0  0  0
    1.3974   -0.8293    0.0990 C   0  0  0  0  0  0  0  0  0  0  0  0
    0.4663    0.2487    0.0962 N   0  0  0  0  0  0  0  0  0  0  0  0
   -0.8869    0.2248   -0.2800 C   0  0  0  0  0  0  0  0  0  0  0  0
   -1.5974   -0.8952   -0.6408 C   0  0  0  0  0  0  0  0  0  0  0  0
   -2.9314   -0.8526   -1.0275 C   0  0  0  0  0  0  0  0  0  0  0  0
   -3.6100    0.3412   -1.0642 C   0  0  0  0  0  0  0  0  0  0  0  0
   -2.9277    1.4737   -0.7091 C   0  0  0  0  0  0  0  0  0  0  0  0
   -1.6090    1.4272   -0.3280 C   0  0  0  0  0  0  0  0  0  0  0  0
   -5.0359    0.3897   -1.4785 C   0  0  0  0  0  0  0  0  0  0  0  0
   -5.9258    0.2118   -0.2785 C   0  0  0  0  0  0  0  0  0  0  0  0
   -5.4099    0.0477    0.8778 O   0  0  0  0  0  0  0  0  0  0  0  0
   -7.3201    0.2284   -0.4453 N   0  0  0  0  0  0  0  0  0  0  0  0
   -8.1437    0.0559    0.7087 C   0  0  0  0  0  0  0  0  0  0  0  0
   -8.6958    0.7323    1.6009 N   0  0  0  0  0  0  0  0  0  0  0  0
   -9.4194    0.3013    2.5692 C   0  0  0  0  0  0  0  0  0  0  0  0
   -9.6328   -1.0615    2.6664 C   0  0  0  0  0  0  0  0  0  0  0  0
   -8.6797   -1.6878    1.2088 S   0  0  0  0  0  0  0  0  0  0  0  0
    2.8739   -0.0357   -1.6824 N   0  0  0  0  0  0  0  0  0  0  0  0
    3.8764    0.4768   -0.8129 C   0  0  0  0  0  0  0  0  0  0  0  0
    5.0207   -0.4423   -0.5467 C   0  0  1  0  0  0  0  0  0  0  0  0
    6.0028    0.1894    0.3846 C   0  0  0  0  0  0  0  0  0  0  0  0
    7.0085   -0.5912    0.9104 C   0  0  0  0  0  0  0  0  0  0  0  0
    7.9585   -0.0781    1.7844 C   0  0  0  0  0  0  0  0  0  0  0  0
    7.8474    1.2711    2.1073 C   0  0  0  0  0  0  0  0  0  0  0  0
    6.8505    2.0751    1.5952 C   0  0  0  0  0  0  0  0  0  0  0  0
    5.9307    1.5239    0.7324 C   0  0  0  0  0  0  0  0  0  0  0  0
    6.7884    3.7797    2.0629 Cl  0  0  0  0  0  0  0  0  0  0  0  0
    4.6267   -1.6303    0.0469 O   0  0  0  0  0  0  0  0  0  0  0  0
    0.4403   -0.6639   -2.6352 H   0  0  0  0  0  0  0  0  0  0  0  0
    1.7767   -1.6986   -3.2126 H   0  0  0  0  0  0  0  0  0  0  0  0
    0.6027   -2.4395   -2.1024 H   0  0  0  0  0  0  0  0  0  0  0  0
    2.6547   -2.0591   -1.0521 H   0  0  0  0  0  0  0  0  0  0  0  0
    0.9021   -1.7902    0.4441 H   0  0  0  0  0  0  0  0  0  0  0  0
    2.1989   -0.6500    0.8543 H   0  0  0  0  0  0  0  0  0  0  0  0
    0.8427    1.1908    0.4197 H   0  0  0  0  0  0  0  0  0  0  0  0
   -1.1373   -1.8559   -0.6176 H   0  0  0  0  0  0  0  0  0  0  0  0
   -3.4638   -1.7608   -1.3085 H   0  0  0  0  0  0  0  0  0  0  0  0
   -3.4388    2.4354   -0.7279 H   0  0  0  0  0  0  0  0  0  0  0  0
   -1.1352    2.3625   -0.0612 H   0  0  0  0  0  0  0  0  0  0  0  0
   -5.2932   -0.3960   -2.2232 H   0  0  0  0  0  0  0  0  0  0  0  0
   -5.2527    1.3713   -1.9508 H   0  0  0  0  0  0  0  0  0  0  0  0
   -7.7556    0.3644   -1.3969 H   0  0  0  0  0  0  0  0  0  0  0  0
   -9.8849    0.9645    3.3367 H   0  0  0  0  0  0  0  0  0  0  0  0
  -10.1531   -1.6474    3.3207 H   0  0  0  0  0  0  0  0  0  0  0  0
    2.2496    0.7528   -1.9528 H   0  0  0  0  0  0  0  0  0  0  0  0
    4.2545    1.4245   -1.3207 H   0  0  0  0  0  0  0  0  0  0  0  0
    3.4253    0.7707    0.1797 H   0  0  0  0  0  0  0  0  0  0  0  0
    5.5055   -0.6478   -1.5289 H   0  0  0  0  0  0  0  0  0  0  0  0
    7.1184   -1.6503    0.6737 H   0  0  0  0  0  0  0  0  0  0  0  0
    8.7565   -0.7000    2.2007 H   0  0  0  0  0  0  0  0  0  0  0  0
    8.5914    1.6671    2.7898 H   0  0  0  0  0  0  0  0  0  0  0  0
    5.1660    2.1567    0.3452 H   0  0  0  0  0  0  0  0  0  0  0  0
    5.0469   -1.7981    0.9144 H   0  0  0  0  0  0  0  0  0  0  0  0
  1  2  1  0
  2  3  1  0
  3  4  1  0
  4  5  1  0
  5  6  2  0
  6  7  1  0
  7  8  2  0
  8  9  1  0
  9 10  2  0
  8 11  1  0
 11 12  1  0
 12 13  2  0
 12 14  1  0
 14 15  1  0
 15 16  2  0
 16 17  1  0
 17 18  2  0
 18 19  1  0
  2 20  1  0
 20 21  1  0
 21 22  1  0
 22 23  1  0
 23 24  2  0
 24 25  1  0
 25 26  2  0
 26 27  1  0
 27 28  2  0
 27 29  1  0
 22 30  1  0
 10  5  1  0
 19 15  1  0
 28 23  1  0
  1 31  1  0
  1 32  1  0
  1 33  1  0
  2 34  1  1
  3 35  1  0
  3 36  1  0
  4 37  1  0
  6 38  1  0
  7 39  1  0
  9 40  1  0
 10 41  1  0
 11 42  1  0
 11 43  1  0
 14 44  1  0
 17 45  1  0
 18 46  1  0
 20 47  1  0
 21 48  1  0
 21 49  1  0
 22 50  1  6
 24 51  1  0
 25 52  1  0
 26 53  1  0
 28 54  1  0
 30 55  1  0
M  END
>  <Ligand ID>  (1) 
LIG0002242

>  <Ligand>  (1) 
CHEMBL154150

>  <SMILES>  (1) 
C[C@H](CNc1ccc(cc1)CC(=O)Nc1nccs1)NC[C@@H](c1cccc(c1)Cl)O

>  <CID>  (1) 
11134054.0

>  <ChEMBL ID>  (1) 
nan

>  <InChiKey>  (1) 
XFJQPNTUWJJACN-QRWLVFNGSA-N

>  <InChi>  (1) 
InChI=1S/C22H25ClN4O2S/c1-15(25-14-20(28)17-3-2-4-18(23)12-17)13-26-19-7-5-16(6-8-19)11-21(29)27-22-24-9-10-30-22/h2-10,12,15,20,25-26,28H,11,13-14H2,1H3,(H,24,27,29)/t15-,20+/m1/s1

>  <IUPAC Name>  (1) 
2-[4-[[(2R)-2-[[(2R)-2-(3-chlorophenyl)-2-hydroxyethyl]amino]propyl]amino]phenyl]-N-(1,3-thiazol-2-yl)acetamide

$$$$
