
     RDKit          3D

 71 74  0  0  0  0  0  0  0  0999 V2000
    9.6099    0.7308    0.0251 C   0  0  0  0  0  0  0  0  0  0  0  0
    8.1574    1.0237   -0.4801 C   0  0  0  0  0  0  0  0  0  0  0  0
    7.8328    0.1357   -1.6052 C   0  0  0  0  0  0  0  0  0  0  0  0
    6.5494    0.3092   -2.3013 C   0  0  0  0  0  0  0  0  0  0  0  0
    5.3128    0.1828   -1.5381 C   0  0  0  0  0  0  0  0  0  0  0  0
    4.9236    1.1912   -0.5153 C   0  0  0  0  0  0  0  0  0  0  0  0
    3.6609    0.7172    0.0514 N   0  0  0  0  0  0  0  0  0  0  0  0
    3.8230   -0.4631    0.8508 C   0  0  0  0  0  0  0  0  0  0  0  0
    3.2878   -0.1748    2.2300 C   0  0  0  0  0  0  0  0  0  0  0  0
    1.7802    0.1413    2.1365 C   0  0  0  0  0  0  0  0  0  0  0  0
    1.5070    1.0241    0.9664 C   0  0  0  0  0  0  0  0  0  0  0  0
    2.8600    1.7237    0.6574 C   0  0  0  0  0  0  0  0  0  0  0  0
    1.0935   -1.1741    2.1661 C   0  0  0  0  0  0  0  0  0  0  0  0
   -0.3149   -1.2309    2.1334 N   0  0  0  0  0  0  0  0  0  0  0  0
   -0.9186   -0.8450    0.9230 C   0  0  0  0  0  0  0  0  0  0  0  0
   -2.4441   -1.0949    0.9525 C   0  0  1  0  0  0  0  0  0  0  0  0
   -3.0095   -0.4520   -0.2777 C   0  0  0  0  0  0  0  0  0  0  0  0
   -4.3600   -0.4455   -0.4417 O   0  0  0  0  0  0  0  0  0  0  0  0
   -5.3694   -1.3089   -0.6164 C   0  0  0  0  0  0  0  0  0  0  0  0
   -5.3223   -2.6729   -0.7199 C   0  0  0  0  0  0  0  0  0  0  0  0
   -6.4447   -3.4676   -0.9049 C   0  0  0  0  0  0  0  0  0  0  0  0
   -7.6574   -2.8583   -0.9878 C   0  0  0  0  0  0  0  0  0  0  0  0
   -7.7817   -1.4923   -0.8934 C   0  0  0  0  0  0  0  0  0  0  0  0
   -6.6622   -0.7489   -0.7126 C   0  0  0  0  0  0  0  0  0  0  0  0
   -7.0897    0.5822   -0.6506 C   0  0  0  0  0  0  0  0  0  0  0  0
   -6.4477    1.7913   -0.4827 C   0  0  0  0  0  0  0  0  0  0  0  0
   -7.1910    2.9707   -0.4662 C   0  0  0  0  0  0  0  0  0  0  0  0
   -8.5725    2.9621   -0.6156 C   0  0  0  0  0  0  0  0  0  0  0  0
   -9.2011    1.7487   -0.7826 C   0  0  0  0  0  0  0  0  0  0  0  0
   -8.4733    0.5656   -0.8010 C   0  0  0  0  0  0  0  0  0  0  0  0
   -8.8807   -0.7177   -0.9490 N   0  0  0  0  0  0  0  0  0  0  0  0
   -2.7015   -2.4099    1.1546 O   0  0  0  0  0  0  0  0  0  0  0  0
    9.7124   -0.3640    0.0724 H   0  0  0  0  0  0  0  0  0  0  0  0
   10.3192    1.1811   -0.6692 H   0  0  0  0  0  0  0  0  0  0  0  0
    9.6680    1.1377    1.0501 H   0  0  0  0  0  0  0  0  0  0  0  0
    7.5457    0.7565    0.4307 H   0  0  0  0  0  0  0  0  0  0  0  0
    8.0759    2.0799   -0.6681 H   0  0  0  0  0  0  0  0  0  0  0  0
    8.6440    0.2216   -2.4216 H   0  0  0  0  0  0  0  0  0  0  0  0
    7.9745   -0.9686   -1.2912 H   0  0  0  0  0  0  0  0  0  0  0  0
    6.4566   -0.4356   -3.1661 H   0  0  0  0  0  0  0  0  0  0  0  0
    6.5045    1.3338   -2.8221 H   0  0  0  0  0  0  0  0  0  0  0  0
    5.2143   -0.8275   -1.0306 H   0  0  0  0  0  0  0  0  0  0  0  0
    4.4037    0.1371   -2.2459 H   0  0  0  0  0  0  0  0  0  0  0  0
    5.5938    1.4618    0.2684 H   0  0  0  0  0  0  0  0  0  0  0  0
    4.6321    2.1355   -1.1014 H   0  0  0  0  0  0  0  0  0  0  0  0
    3.2309   -1.2777    0.4051 H   0  0  0  0  0  0  0  0  0  0  0  0
    4.8778   -0.8028    0.9369 H   0  0  0  0  0  0  0  0  0  0  0  0
    3.3657   -1.1051    2.8245 H   0  0  0  0  0  0  0  0  0  0  0  0
    3.8377    0.6317    2.7530 H   0  0  0  0  0  0  0  0  0  0  0  0
    1.5098    0.7056    3.0511 H   0  0  0  0  0  0  0  0  0  0  0  0
    1.3212    0.4041    0.0728 H   0  0  0  0  0  0  0  0  0  0  0  0
    0.8159    1.8508    1.1373 H   0  0  0  0  0  0  0  0  0  0  0  0
    2.6819    2.5271   -0.1033 H   0  0  0  0  0  0  0  0  0  0  0  0
    3.2296    2.1747    1.5746 H   0  0  0  0  0  0  0  0  0  0  0  0
    1.5385   -1.8504    1.3495 H   0  0  0  0  0  0  0  0  0  0  0  0
    1.4089   -1.7653    3.0967 H   0  0  0  0  0  0  0  0  0  0  0  0
   -0.6063   -2.1987    2.3973 H   0  0  0  0  0  0  0  0  0  0  0  0
   -0.4516   -1.2965    0.0458 H   0  0  0  0  0  0  0  0  0  0  0  0
   -0.8683    0.2674    0.8052 H   0  0  0  0  0  0  0  0  0  0  0  0
   -2.8689   -0.5240    1.8313 H   0  0  0  0  0  0  0  0  0  0  0  0
   -2.5579    0.5886   -0.4080 H   0  0  0  0  0  0  0  0  0  0  0  0
   -2.5739   -0.9762   -1.2013 H   0  0  0  0  0  0  0  0  0  0  0  0
   -4.3832   -3.1958   -0.6780 H   0  0  0  0  0  0  0  0  0  0  0  0
   -6.3375   -4.5551   -0.9804 H   0  0  0  0  0  0  0  0  0  0  0  0
   -8.5277   -3.4837   -1.1324 H   0  0  0  0  0  0  0  0  0  0  0  0
   -5.3608    1.8233   -0.3634 H   0  0  0  0  0  0  0  0  0  0  0  0
   -6.7163    3.9462   -0.3354 H   0  0  0  0  0  0  0  0  0  0  0  0
   -9.1218    3.8730   -0.6000 H   0  0  0  0  0  0  0  0  0  0  0  0
  -10.2798    1.6827   -0.9036 H   0  0  0  0  0  0  0  0  0  0  0  0
   -9.8693   -1.0482   -1.0823 H   0  0  0  0  0  0  0  0  0  0  0  0
   -3.5952   -2.5055    1.5964 H   0  0  0  0  0  0  0  0  0  0  0  0
  1  2  1  0
  2  3  1  0
  3  4  1  0
  4  5  1  0
  5  6  1  0
  6  7  1  0
  7  8  1  0
  8  9  1  0
  9 10  1  0
 10 11  1  0
 11 12  1  0
 10 13  1  0
 13 14  1  0
 14 15  1  0
 15 16  1  0
 16 17  1  0
 17 18  1  0
 18 19  1  0
 19 20  2  0
 20 21  1  0
 21 22  2  0
 22 23  1  0
 23 24  2  0
 24 25  1  0
 25 26  2  0
 26 27  1  0
 27 28  2  0
 28 29  1  0
 29 30  2  0
 30 31  1  0
 16 32  1  0
 12  7  1  0
 24 19  1  0
 30 25  1  0
 31 23  1  0
  1 33  1  0
  1 34  1  0
  1 35  1  0
  2 36  1  0
  2 37  1  0
  3 38  1  0
  3 39  1  0
  4 40  1  0
  4 41  1  0
  5 42  1  0
  5 43  1  0
  6 44  1  0
  6 45  1  0
  8 46  1  0
  8 47  1  0
  9 48  1  0
  9 49  1  0
 10 50  1  0
 11 51  1  0
 11 52  1  0
 12 53  1  0
 12 54  1  0
 13 55  1  0
 13 56  1  0
 14 57  1  0
 15 58  1  0
 15 59  1  0
 16 60  1  1
 17 61  1  0
 17 62  1  0
 20 63  1  0
 21 64  1  0
 22 65  1  0
 26 66  1  0
 27 67  1  0
 28 68  1  0
 29 69  1  0
 31 70  1  0
 32 71  1  0
M  END
>  <Ligand ID>  (1) 
LIG0004305

>  <Ligand>  (1) 
CHEMBL100414

>  <SMILES>  (1) 
CCCCCCN1CCC(CC1)CNC[C@@H](COc1cccc2c1c1ccccc1[nH]2)O

>  <CID>  (1) 
10160281.0

>  <ChEMBL ID>  (1) 
nan

>  <InChiKey>  (1) 
DZVZIRACKZBQCA-QFIPXVFZSA-N

>  <InChi>  (1) 
InChI=1S/C27H39N3O2/c1-2-3-4-7-15-30-16-13-21(14-17-30)18-28-19-22(31)20-32-26-12-8-11-25-27(26)23-9-5-6-10-24(23)29-25/h5-6,8-12,21-22,28-29,31H,2-4,7,13-20H2,1H3/t22-/m0/s1

>  <IUPAC Name>  (1) 
(2S)-1-(9H-carbazol-4-yloxy)-3-[(1-hexylpiperidin-4-yl)methylamino]propan-2-ol

$$$$
