
     RDKit          3D

 93 96  0  0  0  0  0  0  0  0999 V2000
   -0.3945    4.6849    6.0707 N   0  0  0  0  0  0  0  0  0  0  0  0
   -1.5169    4.1509    5.3476 C   0  0  0  0  0  0  0  0  0  0  0  0
   -1.8846    2.9219    5.5430 N   0  0  0  0  0  0  0  0  0  0  0  0
   -3.0025    2.3611    4.8347 C   0  0  0  0  0  0  0  0  0  0  0  0
   -2.5453    1.2048    3.9391 C   0  0  0  0  0  0  0  0  0  0  0  0
   -1.5514    1.7119    2.9462 C   0  0  0  0  0  0  0  0  0  0  0  0
   -0.9699    0.7308    2.0023 C   0  0  1  0  0  0  0  0  0  0  0  0
   -2.0298    0.1023    1.1709 C   0  0  0  0  0  0  0  0  0  0  0  0
   -3.0150   -0.5276    1.6733 O   0  0  0  0  0  0  0  0  0  0  0  0
   -2.0143    0.1550   -0.2730 N   0  0  0  0  0  0  0  0  0  0  0  0
   -3.0704   -0.5107   -1.0578 C   0  0  1  0  0  0  0  0  0  0  0  0
   -3.6721    0.4306   -2.0192 C   0  0  0  0  0  0  0  0  0  0  0  0
   -4.5960    0.1020   -2.8244 O   0  0  0  0  0  0  0  0  0  0  0  0
   -3.2401    1.7804   -2.0960 N   0  0  0  0  0  0  0  0  0  0  0  0
   -2.4639   -1.7179   -1.7548 C   0  0  0  0  0  0  0  0  0  0  0  0
   -3.5151   -2.4035   -2.5305 C   0  0  0  0  0  0  0  0  0  0  0  0
   -3.6439   -2.3670   -3.9058 C   0  0  0  0  0  0  0  0  0  0  0  0
   -4.7017   -3.1362   -4.1833 N   0  0  0  0  0  0  0  0  0  0  0  0
   -5.2408   -3.6514   -3.0634 C   0  0  0  0  0  0  0  0  0  0  0  0
   -4.4921   -3.1928   -1.9661 C   0  0  0  0  0  0  0  0  0  0  0  0
   -4.8344   -3.5754   -0.6679 C   0  0  0  0  0  0  0  0  0  0  0  0
   -5.9318   -4.4243   -0.4484 C   0  0  0  0  0  0  0  0  0  0  0  0
   -6.6513   -4.8623   -1.5312 C   0  0  0  0  0  0  0  0  0  0  0  0
   -6.3042   -4.4782   -2.8025 C   0  0  0  0  0  0  0  0  0  0  0  0
    0.0451    1.4006    1.2097 N   0  0  0  0  0  0  0  0  0  0  0  0
    1.0594    0.6746    0.5558 C   0  0  0  0  0  0  0  0  0  0  0  0
    1.0019   -0.6058    0.7051 O   0  0  0  0  0  0  0  0  0  0  0  0
    2.1537    1.1847   -0.2534 C   0  0  1  0  0  0  0  0  0  0  0  0
    2.8823    0.0407   -0.8066 N   0  0  0  0  0  0  0  0  0  0  0  0
    3.9286   -0.6223   -0.1193 C   0  0  0  0  0  0  0  0  0  0  0  0
    4.3287   -0.3417    1.0265 O   0  0  0  0  0  0  0  0  0  0  0  0
    4.5645   -1.7536   -0.9274 C   0  0  2  0  0  0  0  0  0  0  0  0
    3.6039   -2.7350   -1.4261 C   0  0  0  0  0  0  0  0  0  0  0  0
    4.1775   -3.8321   -2.2320 C   0  0  0  0  0  0  0  0  0  0  0  0
    4.6321   -5.0472   -1.8559 N   0  0  0  0  0  0  0  0  0  0  0  0
    5.0722   -5.7320   -2.9298 C   0  0  0  0  0  0  0  0  0  0  0  0
    4.9132   -4.9792   -4.0165 N   0  0  0  0  0  0  0  0  0  0  0  0
    4.3688   -3.8162   -3.6145 C   0  0  0  0  0  0  0  0  0  0  0  0
    5.5847   -2.3598   -0.1017 N   0  0  0  0  0  0  0  0  0  0  0  0
    6.7360   -1.6106    0.3394 C   0  0  0  0  0  0  0  0  0  0  0  0
    6.9139   -0.4082    0.0554 O   0  0  0  0  0  0  0  0  0  0  0  0
    7.7269   -2.3895    1.1743 C   0  0  0  0  0  0  0  0  0  0  0  0
    1.9844    2.2512   -1.2421 C   0  0  0  0  0  0  0  0  0  0  0  0
    1.5431    3.5773   -0.8832 C   0  0  0  0  0  0  0  0  0  0  0  0
    0.2470    4.0628   -0.9203 C   0  0  0  0  0  0  0  0  0  0  0  0
   -0.1169    5.3317   -0.5705 C   0  0  0  0  0  0  0  0  0  0  0  0
    0.8208    6.2258   -0.1473 C   0  0  0  0  0  0  0  0  0  0  0  0
    2.1532    5.8015   -0.0855 C   0  0  0  0  0  0  0  0  0  0  0  0
    2.5056    4.4963   -0.4492 C   0  0  0  0  0  0  0  0  0  0  0  0
   -2.2204    5.0037    4.4167 N   0  0  0  0  0  0  0  0  0  0  0  0
   -0.1191    4.2310    6.9847 H   0  0  0  0  0  0  0  0  0  0  0  0
    0.1530    5.5049    5.7198 H   0  0  0  0  0  0  0  0  0  0  0  0
   -3.5078    3.1493    4.2630 H   0  0  0  0  0  0  0  0  0  0  0  0
   -3.7333    1.9883    5.5836 H   0  0  0  0  0  0  0  0  0  0  0  0
   -2.1051    0.4400    4.6009 H   0  0  0  0  0  0  0  0  0  0  0  0
   -3.4737    0.8589    3.4340 H   0  0  0  0  0  0  0  0  0  0  0  0
   -0.7301    2.1850    3.5810 H   0  0  0  0  0  0  0  0  0  0  0  0
   -1.9997    2.5920    2.4220 H   0  0  0  0  0  0  0  0  0  0  0  0
   -0.5408   -0.1350    2.5617 H   0  0  0  0  0  0  0  0  0  0  0  0
   -1.2456    0.6720   -0.7231 H   0  0  0  0  0  0  0  0  0  0  0  0
   -3.8084   -0.8320   -0.3159 H   0  0  0  0  0  0  0  0  0  0  0  0
   -3.8426    2.5988   -2.2804 H   0  0  0  0  0  0  0  0  0  0  0  0
   -2.2243    1.9365   -1.9473 H   0  0  0  0  0  0  0  0  0  0  0  0
   -1.6263   -1.3906   -2.3592 H   0  0  0  0  0  0  0  0  0  0  0  0
   -2.1383   -2.4022   -0.9107 H   0  0  0  0  0  0  0  0  0  0  0  0
   -2.9864   -1.8087   -4.5535 H   0  0  0  0  0  0  0  0  0  0  0  0
   -5.0727   -3.3182   -5.1425 H   0  0  0  0  0  0  0  0  0  0  0  0
   -4.2248   -3.1950    0.1199 H   0  0  0  0  0  0  0  0  0  0  0  0
   -6.2166   -4.7379    0.5565 H   0  0  0  0  0  0  0  0  0  0  0  0
   -7.4928   -5.5197   -1.3141 H   0  0  0  0  0  0  0  0  0  0  0  0
   -6.8599   -4.8209   -3.6679 H   0  0  0  0  0  0  0  0  0  0  0  0
   -0.0047    2.4287    1.1648 H   0  0  0  0  0  0  0  0  0  0  0  0
    2.8710    1.6046    0.5487 H   0  0  0  0  0  0  0  0  0  0  0  0
    2.5666   -0.2498   -1.7638 H   0  0  0  0  0  0  0  0  0  0  0  0
    5.0951   -1.1510   -1.7278 H   0  0  0  0  0  0  0  0  0  0  0  0
    2.9968   -3.2290   -0.6235 H   0  0  0  0  0  0  0  0  0  0  0  0
    2.8797   -2.2039   -2.1142 H   0  0  0  0  0  0  0  0  0  0  0  0
    4.6436   -5.4081   -0.8607 H   0  0  0  0  0  0  0  0  0  0  0  0
    5.4800   -6.7288   -2.8987 H   0  0  0  0  0  0  0  0  0  0  0  0
    4.1245   -3.0019   -4.2969 H   0  0  0  0  0  0  0  0  0  0  0  0
    5.4610   -3.3830    0.1671 H   0  0  0  0  0  0  0  0  0  0  0  0
    8.3795   -1.6363    1.6891 H   0  0  0  0  0  0  0  0  0  0  0  0
    8.3946   -3.0036    0.5382 H   0  0  0  0  0  0  0  0  0  0  0  0
    7.1941   -2.9389    1.9570 H   0  0  0  0  0  0  0  0  0  0  0  0
    1.1713    1.8520   -1.9542 H   0  0  0  0  0  0  0  0  0  0  0  0
    2.8588    2.2745   -1.9872 H   0  0  0  0  0  0  0  0  0  0  0  0
   -0.5045    3.3858   -1.2470 H   0  0  0  0  0  0  0  0  0  0  0  0
   -1.1675    5.5804   -0.6467 H   0  0  0  0  0  0  0  0  0  0  0  0
    0.5081    7.2081    0.1193 H   0  0  0  0  0  0  0  0  0  0  0  0
    2.9271    6.4750    0.2460 H   0  0  0  0  0  0  0  0  0  0  0  0
    3.5425    4.1920   -0.4002 H   0  0  0  0  0  0  0  0  0  0  0  0
   -2.3224    4.7170    3.4162 H   0  0  0  0  0  0  0  0  0  0  0  0
   -2.6280    5.9128    4.7566 H   0  0  0  0  0  0  0  0  0  0  0  0
  1  2  1  0
  2  3  2  3
  3  4  1  0
  4  5  1  0
  5  6  1  0
  6  7  1  0
  7  8  1  0
  8  9  2  0
  8 10  1  0
 10 11  1  0
 11 12  1  0
 12 13  2  0
 12 14  1  0
 11 15  1  0
 15 16  1  0
 16 17  2  0
 17 18  1  0
 18 19  1  0
 19 20  2  0
 20 21  1  0
 21 22  2  0
 22 23  1  0
 23 24  2  0
  7 25  1  0
 25 26  1  0
 26 27  2  0
 26 28  1  0
 28 29  1  0
 29 30  1  0
 30 31  2  0
 30 32  1  0
 32 33  1  0
 33 34  1  0
 34 35  1  0
 35 36  1  0
 36 37  2  0
 37 38  1  0
 32 39  1  0
 39 40  1  0
 40 41  2  0
 40 42  1  0
 28 43  1  0
 43 44  1  0
 44 45  2  0
 45 46  1  0
 46 47  2  0
 47 48  1  0
 48 49  2  0
  2 50  1  0
 20 16  1  0
 38 34  2  0
 49 44  1  0
 24 19  1  0
  1 51  1  0
  1 52  1  0
  4 53  1  0
  4 54  1  0
  5 55  1  0
  5 56  1  0
  6 57  1  0
  6 58  1  0
  7 59  1  1
 10 60  1  0
 11 61  1  1
 14 62  1  0
 14 63  1  0
 15 64  1  0
 15 65  1  0
 17 66  1  0
 18 67  1  0
 21 68  1  0
 22 69  1  0
 23 70  1  0
 24 71  1  0
 25 72  1  0
 28 73  1  1
 29 74  1  0
 32 75  1  6
 33 76  1  0
 33 77  1  0
 35 78  1  0
 36 79  1  0
 38 80  1  0
 39 81  1  0
 42 82  1  0
 42 83  1  0
 42 84  1  0
 43 85  1  0
 43 86  1  0
 45 87  1  0
 46 88  1  0
 47 89  1  0
 48 90  1  0
 49 91  1  0
 50 92  1  0
 50 93  1  0
M  END
>  <Ligand ID>  (1) 
LIG0000882

>  <Ligand>  (1) 
Ac-His-Phe-Arg-DTrp-NH2

>  <SMILES>  (1) 
NC(=NCCC[C@@H](C(=O)N[C@@H](C(=O)N)Cc1c[nH]c2c1cccc2)NC(=O)[C@@H](NC(=O)[C@H](Cc1[nH]cnc1)NC(=O)C)Cc1ccccc1)N

>  <CID>  (1) 
11966875.0

>  <ChEMBL ID>  (1) 
nan

>  <InChiKey>  (1) 
DFCJPPDAOZROBS-CRNKYVSFSA-N

>  <InChi>  (1) 
InChI=1S/C34H43N11O5/c1-20(46)42-29(16-23-18-38-19-41-23)33(50)45-28(14-21-8-3-2-4-9-21)32(49)43-26(12-7-13-39-34(36)37)31(48)44-27(30(35)47)15-22-17-40-25-11-6-5-10-24(22)25/h2-6,8-11,17-19,26-29,40H,7,12-16H2,1H3,(H2,35,47)(H,38,41)(H,42,46)(H,43,49)(H,44,48)(H,45,50)(H4,36,37,39)/t26-,27+,28-,29-/m0/s1

>  <IUPAC Name>  (1) 
(2S)-2-[[(2S)-2-[[(2S)-2-acetamido-3-(1H-imidazol-5-yl)propanoyl]amino]-3-phenylpropanoyl]amino]-N-[(2R)-1-amino-3-(1H-indol-3-yl)-1-oxopropan-2-yl]-5-(diaminomethylideneamino)pentanamide

$$$$
