
     RDKit          3D

 44 46  0  0  0  0  0  0  0  0999 V2000
    0.4734   -1.1466    1.1833 C   0  0  0  0  0  0  0  0  0  0  0  0
    0.5912   -0.7269   -0.2349 C   0  0  1  0  0  0  0  0  0  0  0  0
    1.8023   -1.3601   -0.9214 C   0  0  0  0  0  0  0  0  0  0  0  0
    3.0597   -0.9491   -0.2071 C   0  0  0  0  0  0  0  0  0  0  0  0
    3.8308   -1.6892    0.6589 C   0  0  0  0  0  0  0  0  0  0  0  0
    4.8692   -0.8963    1.0565 N   0  0  0  0  0  0  0  0  0  0  0  0
    4.7425    0.2920    0.4565 C   0  0  0  0  0  0  0  0  0  0  0  0
    3.6266    0.2999   -0.3403 C   0  0  0  0  0  0  0  0  0  0  0  0
    3.3258    1.4495   -1.0482 C   0  0  0  0  0  0  0  0  0  0  0  0
    4.1266    2.5706   -0.9609 C   0  0  0  0  0  0  0  0  0  0  0  0
    5.2420    2.5247   -0.1486 C   0  0  0  0  0  0  0  0  0  0  0  0
    5.5869    1.3992    0.5805 C   0  0  0  0  0  0  0  0  0  0  0  0
   -0.5361   -1.0792   -1.0006 N   0  0  0  0  0  0  0  0  0  0  0  0
   -1.7722   -0.4714   -0.8767 C   0  0  0  0  0  0  0  0  0  0  0  0
   -2.5176   -0.7944    0.3796 C   0  0  1  0  0  0  0  0  0  0  0  0
   -3.8617   -0.0822    0.2174 C   0  0  0  0  0  0  0  0  0  0  0  0
   -4.8075   -0.5722   -0.6534 C   0  0  0  0  0  0  0  0  0  0  0  0
   -6.0174    0.1220   -0.7588 C   0  0  0  0  0  0  0  0  0  0  0  0
   -6.2480    1.2601   -0.0112 C   0  0  0  0  0  0  0  0  0  0  0  0
   -5.2918    1.7632    0.8750 C   0  0  0  0  0  0  0  0  0  0  0  0
   -4.1084    1.0687    0.9663 C   0  0  0  0  0  0  0  0  0  0  0  0
   -5.5726    3.2010    1.8260 Cl  0  0  0  0  0  0  0  0  0  0  0  0
   -2.7773   -2.1754    0.4885 O   0  0  0  0  0  0  0  0  0  0  0  0
    1.4761   -1.4402    1.6214 H   0  0  0  0  0  0  0  0  0  0  0  0
   -0.2601   -1.9327    1.3215 H   0  0  0  0  0  0  0  0  0  0  0  0
    0.1851   -0.2662    1.7932 H   0  0  0  0  0  0  0  0  0  0  0  0
    0.7642    0.3918   -0.2773 H   0  0  0  0  0  0  0  0  0  0  0  0
    1.6655   -2.4556   -0.9307 H   0  0  0  0  0  0  0  0  0  0  0  0
    1.7865   -0.9996   -1.9697 H   0  0  0  0  0  0  0  0  0  0  0  0
    3.6326   -2.7123    0.9573 H   0  0  0  0  0  0  0  0  0  0  0  0
    5.6298   -1.1943    1.7249 H   0  0  0  0  0  0  0  0  0  0  0  0
    2.4348    1.4498   -1.6820 H   0  0  0  0  0  0  0  0  0  0  0  0
    3.8914    3.4834   -1.5199 H   0  0  0  0  0  0  0  0  0  0  0  0
    5.8481    3.4191   -0.1027 H   0  0  0  0  0  0  0  0  0  0  0  0
    6.4595    1.3735    1.2124 H   0  0  0  0  0  0  0  0  0  0  0  0
   -0.3635   -1.7009   -1.8102 H   0  0  0  0  0  0  0  0  0  0  0  0
   -2.3933   -0.7787   -1.7878 H   0  0  0  0  0  0  0  0  0  0  0  0
   -1.6551    0.6512   -0.9087 H   0  0  0  0  0  0  0  0  0  0  0  0
   -2.0584   -0.4183    1.2803 H   0  0  0  0  0  0  0  0  0  0  0  0
   -4.6307   -1.4595   -1.2378 H   0  0  0  0  0  0  0  0  0  0  0  0
   -6.8063   -0.2294   -1.4409 H   0  0  0  0  0  0  0  0  0  0  0  0
   -7.1684    1.8304   -0.0599 H   0  0  0  0  0  0  0  0  0  0  0  0
   -3.3029    1.3862    1.6311 H   0  0  0  0  0  0  0  0  0  0  0  0
   -2.9012   -2.4057    1.4392 H   0  0  0  0  0  0  0  0  0  0  0  0
  1  2  1  0
  2  3  1  0
  3  4  1  0
  4  5  2  0
  5  6  1  0
  6  7  1  0
  7  8  2  0
  8  9  1  0
  9 10  2  0
 10 11  1  0
 11 12  2  0
  2 13  1  0
 13 14  1  0
 14 15  1  0
 15 16  1  0
 16 17  2  0
 17 18  1  0
 18 19  2  0
 19 20  1  0
 20 21  2  0
 20 22  1  0
 15 23  1  0
  8  4  1  0
 21 16  1  0
 12  7  1  0
  1 24  1  0
  1 25  1  0
  1 26  1  0
  2 27  1  1
  3 28  1  0
  3 29  1  0
  5 30  1  0
  6 31  1  0
  9 32  1  0
 10 33  1  0
 11 34  1  0
 12 35  1  0
 13 36  1  0
 14 37  1  0
 14 38  1  0
 15 39  1  1
 17 40  1  0
 18 41  1  0
 19 42  1  0
 21 43  1  0
 23 44  1  0
M  END
>  <Ligand ID>  (1) 
LIG0005215

>  <Ligand>  (1) 
CHEMBL25823

>  <SMILES>  (1) 
C[C@@H](Cc1c[nH]c2c1cccc2)NC[C@@H](c1cccc(c1)Cl)O

>  <CID>  (1) 
11270069.0

>  <ChEMBL ID>  (1) 
nan

>  <InChiKey>  (1) 
AGWBMRMDTWHPJM-DJJJIMSYSA-N

>  <InChi>  (1) 
InChI=1S/C19H21ClN2O/c1-13(9-15-11-22-18-8-3-2-7-17(15)18)21-12-19(23)14-5-4-6-16(20)10-14/h2-8,10-11,13,19,21-23H,9,12H2,1H3/t13-,19-/m0/s1

>  <IUPAC Name>  (1) 
(1R)-1-(3-chlorophenyl)-2-[[(2S)-1-(1H-indol-3-yl)propan-2-yl]amino]ethanol

$$$$
