
     RDKit          3D

 33 35  0  0  0  0  0  0  0  0999 V2000
    2.9662   -3.8842    0.7330 O   0  0  0  0  0  0  0  0  0  0  0  0
    2.6810   -2.6577    0.5163 C   0  0  0  0  0  0  0  0  0  0  0  0
    1.5351   -2.3211   -0.1836 C   0  0  0  0  0  0  0  0  0  0  0  0
    1.2024   -0.9901   -0.4324 C   0  0  0  0  0  0  0  0  0  0  0  0
   -0.0350   -0.7279   -1.1511 C   0  0  0  0  0  0  0  0  0  0  0  0
   -1.2238   -0.3521   -0.2937 C   0  0  0  0  0  0  0  0  0  0  0  0
   -2.3629   -0.0996   -1.2605 C   0  0  0  0  0  0  0  0  0  0  0  0
   -3.6495    0.2874   -0.6228 C   0  0  0  0  0  0  0  0  0  0  0  0
   -3.8285    1.4826    0.2279 C   0  0  0  0  0  0  0  0  0  0  0  0
   -3.9971    0.0420    0.7850 C   0  0  0  0  0  0  0  0  0  0  0  0
    2.0792   -0.0550    0.0580 C   0  0  0  0  0  0  0  0  0  0  0  0
    3.2042   -0.4741    0.7483 C   0  0  0  0  0  0  0  0  0  0  0  0
    3.4915   -1.7313    0.9681 O   0  0  0  0  0  0  0  0  0  0  0  0
    4.0340    0.4813    1.2079 N   0  0  0  0  0  0  0  0  0  0  0  0
    3.7943    1.8055    1.0106 C   0  0  0  0  0  0  0  0  0  0  0  0
    4.5993    2.6890    1.4580 O   0  0  0  0  0  0  0  0  0  0  0  0
    2.6924    2.1768    0.3345 N   0  0  0  0  0  0  0  0  0  0  0  0
    1.8236    1.2772   -0.1502 C   0  0  0  0  0  0  0  0  0  0  0  0
    0.8289    1.7230   -0.7671 O   0  0  0  0  0  0  0  0  0  0  0  0
    0.9069   -3.1026   -0.5311 H   0  0  0  0  0  0  0  0  0  0  0  0
    0.0862    0.0777   -1.8968 H   0  0  0  0  0  0  0  0  0  0  0  0
   -0.4049   -1.6626   -1.6809 H   0  0  0  0  0  0  0  0  0  0  0  0
   -1.0620    0.3986    0.4557 H   0  0  0  0  0  0  0  0  0  0  0  0
   -1.5762   -1.2672    0.2944 H   0  0  0  0  0  0  0  0  0  0  0  0
   -2.5381   -0.9981   -1.8944 H   0  0  0  0  0  0  0  0  0  0  0  0
   -2.0991    0.7012   -1.9976 H   0  0  0  0  0  0  0  0  0  0  0  0
   -4.5188    0.1293   -1.3324 H   0  0  0  0  0  0  0  0  0  0  0  0
   -4.7719    2.0631    0.1862 H   0  0  0  0  0  0  0  0  0  0  0  0
   -2.9923    2.0860    0.6323 H   0  0  0  0  0  0  0  0  0  0  0  0
   -5.0424   -0.2500    1.0855 H   0  0  0  0  0  0  0  0  0  0  0  0
   -3.2656   -0.2505    1.5523 H   0  0  0  0  0  0  0  0  0  0  0  0
    4.8824    0.1903    1.7275 H   0  0  0  0  0  0  0  0  0  0  0  0
    2.5604    3.2130    0.2132 H   0  0  0  0  0  0  0  0  0  0  0  0
  1  2  2  0
  2  3  1  0
  3  4  2  0
  4  5  1  0
  5  6  1  0
  6  7  1  0
  7  8  1  0
  8  9  1  0
  9 10  1  0
  4 11  1  0
 11 12  2  0
 12 13  1  0
 12 14  1  0
 14 15  1  0
 15 16  2  0
 15 17  1  0
 17 18  1  0
 18 19  2  0
 13  2  1  0
 10  8  1  0
 18 11  1  0
  3 20  1  0
  5 21  1  0
  5 22  1  0
  6 23  1  0
  6 24  1  0
  7 25  1  0
  7 26  1  0
  8 27  1  0
  9 28  1  0
  9 29  1  0
 10 30  1  0
 10 31  1  0
 14 32  1  0
 17 33  1  0
M  END
>  <Ligand ID>  (1) 
LIG0002950

>  <Ligand>  (1) 
CHEMBL2036955

>  <SMILES>  (1) 
O=c1cc(CCCC2CC2)c2c(o1)[nH]c(=O)[nH]c2=O

>  <CID>  (1) 
15604637.0

>  <ChEMBL ID>  (1) 
nan

>  <InChiKey>  (1) 
NFKAIVQHKVWFQF-UHFFFAOYSA-N

>  <InChi>  (1) 
InChI=1S/C13H14N2O4/c16-9-6-8(3-1-2-7-4-5-7)10-11(17)14-13(18)15-12(10)19-9/h6-7H,1-5H2,(H2,14,15,17,18)

>  <IUPAC Name>  (1) 
5-(3-cyclopropylpropyl)-1H-pyrano[2,3-d]pyrimidine-2,4,7-trione

$$$$
