
     RDKit          3D

114118  0  0  0  0  0  0  0  0999 V2000
   -5.5290   -5.3640    2.2368 N   0  0  0  0  0  0  0  0  0  0  0  0
   -4.1430   -5.0369    2.2534 C   0  0  0  0  0  0  0  0  0  0  0  0
   -3.4279   -5.6214    1.3953 O   0  0  0  0  0  0  0  0  0  0  0  0
   -3.6938   -4.0743    3.2405 C   0  0  0  0  0  0  0  0  0  0  0  0
   -2.3586   -3.6934    3.2520 N   0  0  0  0  0  0  0  0  0  0  0  0
   -1.3875   -4.4935    3.9761 C   0  0  0  0  0  0  0  0  0  0  0  0
   -0.8270   -5.6651    3.3179 C   0  0  0  0  0  0  0  0  0  0  0  0
   -0.0593   -5.4297    2.1468 N   0  0  0  0  0  0  0  0  0  0  0  0
    1.1745   -4.6996    2.0584 C   0  0  0  0  0  0  0  0  0  0  0  0
    1.5766   -4.2318    3.1230 O   0  0  0  0  0  0  0  0  0  0  0  0
    1.8075   -4.6046    0.7326 C   0  0  0  0  0  0  0  0  0  0  0  0
    3.1689   -4.0316    0.7100 C   0  0  0  0  0  0  0  0  0  0  0  0
    3.2167   -2.6312    1.1464 C   0  0  0  0  0  0  0  0  0  0  0  0
    2.3553   -2.1045    1.8518 O   0  0  0  0  0  0  0  0  0  0  0  0
    4.2690   -1.7062    0.8053 N   0  0  0  0  0  0  0  0  0  0  0  0
    4.2488   -0.3263    1.3380 C   0  0  0  0  0  0  0  0  0  0  0  0
    3.3786    0.4912    0.4541 C   0  0  0  0  0  0  0  0  0  0  0  0
    2.8500   -0.0640   -0.5144 O   0  0  0  0  0  0  0  0  0  0  0  0
    3.1034    1.8675    0.6343 N   0  0  0  0  0  0  0  0  0  0  0  0
    2.0993    2.4649   -0.2875 C   0  0  1  0  0  0  0  0  0  0  0  0
    0.8179    2.1764    0.4672 C   0  0  0  0  0  0  0  0  0  0  0  0
    0.9717    1.7532    1.6228 O   0  0  0  0  0  0  0  0  0  0  0  0
   -0.4978    2.3292   -0.0006 N   0  0  0  0  0  0  0  0  0  0  0  0
   -1.5411    1.9591    0.9593 C   0  0  2  0  0  0  0  0  0  0  0  0
   -1.8489    0.4759    0.7047 C   0  0  0  0  0  0  0  0  0  0  0  0
   -1.5368    0.0145   -0.3733 O   0  0  0  0  0  0  0  0  0  0  0  0
   -2.4478   -0.3101    1.6777 N   0  0  0  0  0  0  0  0  0  0  0  0
   -2.8909   -1.6860    1.6797 C   0  0  2  0  0  0  0  0  0  0  0  0
   -2.0178   -2.5201    2.5086 C   0  0  0  0  0  0  0  0  0  0  0  0
   -0.8348   -2.2263    2.6390 O   0  0  0  0  0  0  0  0  0  0  0  0
   -2.8931   -2.2188    0.2122 C   0  0  0  0  0  0  0  0  0  0  0  0
   -3.8389   -1.3697   -0.5539 C   0  0  0  0  0  0  0  0  0  0  0  0
   -4.6831   -0.3916   -0.0563 C   0  0  0  0  0  0  0  0  0  0  0  0
   -5.4076    0.1611   -1.0464 N   0  0  0  0  0  0  0  0  0  0  0  0
   -5.0733   -0.4200   -2.2007 C   0  0  0  0  0  0  0  0  0  0  0  0
   -4.0955   -1.3798   -1.9222 C   0  0  0  0  0  0  0  0  0  0  0  0
   -3.5851   -2.1215   -2.9618 C   0  0  0  0  0  0  0  0  0  0  0  0
   -4.0600   -1.8883   -4.2495 C   0  0  0  0  0  0  0  0  0  0  0  0
   -5.0245   -0.9416   -4.5265 C   0  0  0  0  0  0  0  0  0  0  0  0
   -5.5362   -0.1978   -3.4787 C   0  0  0  0  0  0  0  0  0  0  0  0
   -2.7908    2.7183    0.8786 C   0  0  0  0  0  0  0  0  0  0  0  0
   -2.7255    4.1873    1.1204 C   0  0  0  0  0  0  0  0  0  0  0  0
   -1.8176    4.9232    0.1780 C   0  0  0  0  0  0  0  0  0  0  0  0
   -1.9156    6.3620    0.5047 N   0  0  0  0  0  0  0  0  0  0  0  0
   -2.9146    6.9601   -0.0856 C   0  0  0  0  0  0  0  0  0  0  0  0
   -3.7960    6.2508   -0.9513 N   0  0  0  0  0  0  0  0  0  0  0  0
   -3.1518    8.3480    0.1238 N   0  0  0  0  0  0  0  0  0  0  0  0
    2.2977    3.8967   -0.5386 C   0  0  0  0  0  0  0  0  0  0  0  0
    3.6298    4.1370   -1.1402 C   0  0  0  0  0  0  0  0  0  0  0  0
    4.7139    4.3869   -0.3217 C   0  0  0  0  0  0  0  0  0  0  0  0
    5.9819    4.6259   -0.8080 C   0  0  0  0  0  0  0  0  0  0  0  0
    6.2123    4.6226   -2.1645 C   0  0  0  0  0  0  0  0  0  0  0  0
    5.1184    4.3714   -2.9741 C   0  0  0  0  0  0  0  0  0  0  0  0
    3.8549    4.1328   -2.4996 C   0  0  0  0  0  0  0  0  0  0  0  0
    5.2952   -2.1693   -0.0432 C   0  0  0  0  0  0  0  0  0  0  0  0
    5.1969   -1.7209   -1.4443 C   0  0  0  0  0  0  0  0  0  0  0  0
    4.5951   -2.3647   -2.4745 C   0  0  0  0  0  0  0  0  0  0  0  0
    4.5733   -1.8250   -3.7559 C   0  0  0  0  0  0  0  0  0  0  0  0
    5.1632   -0.6163   -4.0191 C   0  0  0  0  0  0  0  0  0  0  0  0
    5.7792    0.0581   -3.0009 C   0  0  0  0  0  0  0  0  0  0  0  0
    5.7943   -0.4867   -1.7367 C   0  0  0  0  0  0  0  0  0  0  0  0
   -6.1305   -4.9672    1.4828 H   0  0  0  0  0  0  0  0  0  0  0  0
   -5.8648   -5.9941    2.9966 H   0  0  0  0  0  0  0  0  0  0  0  0
   -4.3918   -3.1963    3.2018 H   0  0  0  0  0  0  0  0  0  0  0  0
   -3.9116   -4.5013    4.2679 H   0  0  0  0  0  0  0  0  0  0  0  0
   -1.9051   -4.8095    4.9305 H   0  0  0  0  0  0  0  0  0  0  0  0
   -0.5426   -3.8634    4.3468 H   0  0  0  0  0  0  0  0  0  0  0  0
   -1.5610   -6.5094    3.1767 H   0  0  0  0  0  0  0  0  0  0  0  0
   -0.1050   -6.1482    4.0756 H   0  0  0  0  0  0  0  0  0  0  0  0
   -0.3935   -5.8065    1.2494 H   0  0  0  0  0  0  0  0  0  0  0  0
    1.7556   -5.5820    0.1866 H   0  0  0  0  0  0  0  0  0  0  0  0
    1.1402   -3.9069    0.1383 H   0  0  0  0  0  0  0  0  0  0  0  0
    3.8497   -4.6655    1.3585 H   0  0  0  0  0  0  0  0  0  0  0  0
    3.5854   -4.1854   -0.3268 H   0  0  0  0  0  0  0  0  0  0  0  0
    3.7074   -0.3919    2.3238 H   0  0  0  0  0  0  0  0  0  0  0  0
    5.2645    0.0604    1.4154 H   0  0  0  0  0  0  0  0  0  0  0  0
    3.5910    2.3539    1.3601 H   0  0  0  0  0  0  0  0  0  0  0  0
    2.0489    1.8287   -1.1763 H   0  0  0  0  0  0  0  0  0  0  0  0
   -0.6340    2.6660   -0.9394 H   0  0  0  0  0  0  0  0  0  0  0  0
   -1.1308    2.0066    2.0105 H   0  0  0  0  0  0  0  0  0  0  0  0
   -2.6108    0.1958    2.5994 H   0  0  0  0  0  0  0  0  0  0  0  0
   -3.9724   -1.7175    1.9123 H   0  0  0  0  0  0  0  0  0  0  0  0
   -3.2331   -3.2556    0.2360 H   0  0  0  0  0  0  0  0  0  0  0  0
   -1.8663   -2.1299   -0.1385 H   0  0  0  0  0  0  0  0  0  0  0  0
   -4.7681   -0.0884    0.9970 H   0  0  0  0  0  0  0  0  0  0  0  0
   -6.1206    0.9336   -0.8857 H   0  0  0  0  0  0  0  0  0  0  0  0
   -2.8324   -2.8583   -2.7354 H   0  0  0  0  0  0  0  0  0  0  0  0
   -3.6568   -2.4758   -5.0866 H   0  0  0  0  0  0  0  0  0  0  0  0
   -5.4005   -0.7520   -5.5217 H   0  0  0  0  0  0  0  0  0  0  0  0
   -6.2976    0.5601   -3.6386 H   0  0  0  0  0  0  0  0  0  0  0  0
   -3.3281    2.5270   -0.1005 H   0  0  0  0  0  0  0  0  0  0  0  0
   -3.5306    2.3174    1.6302 H   0  0  0  0  0  0  0  0  0  0  0  0
   -2.4682    4.4049    2.1889 H   0  0  0  0  0  0  0  0  0  0  0  0
   -3.7395    4.6741    1.0008 H   0  0  0  0  0  0  0  0  0  0  0  0
   -0.7626    4.6025    0.3730 H   0  0  0  0  0  0  0  0  0  0  0  0
   -2.1288    4.7424   -0.8594 H   0  0  0  0  0  0  0  0  0  0  0  0
   -4.7825    6.1392   -0.6240 H   0  0  0  0  0  0  0  0  0  0  0  0
   -3.5093    5.8509   -1.8664 H   0  0  0  0  0  0  0  0  0  0  0  0
   -3.8918    8.5750    0.8432 H   0  0  0  0  0  0  0  0  0  0  0  0
   -2.6501    9.0987   -0.3788 H   0  0  0  0  0  0  0  0  0  0  0  0
    1.5211    4.2419   -1.2567 H   0  0  0  0  0  0  0  0  0  0  0  0
    2.2544    4.4849    0.4036 H   0  0  0  0  0  0  0  0  0  0  0  0
    4.6104    4.4104    0.7611 H   0  0  0  0  0  0  0  0  0  0  0  0
    6.7999    4.8164   -0.1337 H   0  0  0  0  0  0  0  0  0  0  0  0
    7.2054    4.8094   -2.5390 H   0  0  0  0  0  0  0  0  0  0  0  0
    5.3408    4.3772   -4.0554 H   0  0  0  0  0  0  0  0  0  0  0  0
    3.0501    3.9436   -3.1832 H   0  0  0  0  0  0  0  0  0  0  0  0
    5.3593   -3.2917   -0.0878 H   0  0  0  0  0  0  0  0  0  0  0  0
    6.2640   -1.7925    0.3901 H   0  0  0  0  0  0  0  0  0  0  0  0
    4.1160   -3.3143   -2.3598 H   0  0  0  0  0  0  0  0  0  0  0  0
    4.0913   -2.3465   -4.5821 H   0  0  0  0  0  0  0  0  0  0  0  0
    5.1242   -0.2234   -5.0370 H   0  0  0  0  0  0  0  0  0  0  0  0
    6.2569    1.0260   -3.1939 H   0  0  0  0  0  0  0  0  0  0  0  0
    6.2913    0.0852   -0.9693 H   0  0  0  0  0  0  0  0  0  0  0  0
  1  2  1  0
  2  3  2  0
  2  4  1  0
  4  5  1  0
  5  6  1  0
  6  7  1  0
  7  8  1  0
  8  9  1  0
  9 10  2  0
  9 11  1  0
 11 12  1  0
 12 13  1  0
 13 14  2  0
 13 15  1  0
 15 16  1  0
 16 17  1  0
 17 18  2  0
 17 19  1  0
 19 20  1  0
 20 21  1  0
 21 22  2  0
 21 23  1  0
 23 24  1  0
 24 25  1  0
 25 26  2  0
 25 27  1  0
 27 28  1  0
 28 29  1  0
 29 30  2  0
 28 31  1  0
 31 32  1  0
 32 33  2  0
 33 34  1  0
 34 35  1  0
 35 36  2  0
 36 37  1  0
 37 38  2  0
 38 39  1  0
 39 40  2  0
 24 41  1  0
 41 42  1  0
 42 43  1  0
 43 44  1  0
 44 45  2  3
 45 46  1  0
 45 47  1  0
 20 48  1  0
 48 49  1  0
 49 50  2  0
 50 51  1  0
 51 52  2  0
 52 53  1  0
 53 54  2  0
 15 55  1  0
 55 56  1  0
 56 57  2  0
 57 58  1  0
 58 59  2  0
 59 60  1  0
 60 61  2  0
 29  5  1  0
 36 32  1  0
 54 49  1  0
 61 56  1  0
 40 35  1  0
  1 62  1  0
  1 63  1  0
  4 64  1  0
  4 65  1  0
  6 66  1  0
  6 67  1  0
  7 68  1  0
  7 69  1  0
  8 70  1  0
 11 71  1  0
 11 72  1  0
 12 73  1  0
 12 74  1  0
 16 75  1  0
 16 76  1  0
 19 77  1  0
 20 78  1  6
 23 79  1  0
 24 80  1  1
 27 81  1  0
 28 82  1  1
 31 83  1  0
 31 84  1  0
 33 85  1  0
 34 86  1  0
 37 87  1  0
 38 88  1  0
 39 89  1  0
 40 90  1  0
 41 91  1  0
 41 92  1  0
 42 93  1  0
 42 94  1  0
 43 95  1  0
 43 96  1  0
 46 97  1  0
 46 98  1  0
 47 99  1  0
 47100  1  0
 48101  1  0
 48102  1  0
 50103  1  0
 51104  1  0
 52105  1  0
 53106  1  0
 54107  1  0
 55108  1  0
 55109  1  0
 57110  1  0
 58111  1  0
 59112  1  0
 60113  1  0
 61114  1  0
M  END
>  <Ligand ID>  (1) 
LIG0001321

>  <Ligand>  (1) 
CHEMBL602652

>  <SMILES>  (1) 
NC(=O)CN1CCNC(=O)CCC(=O)N(CC(=O)N[C@@H](C(=O)N[C@H](C(=O)N[C@H](C1=O)Cc1c[nH]c2c1cccc2)CCCN=C(N)N)Cc1ccccc1)Cc1ccccc1

>  <CID>  (1) 
46232220.0

>  <ChEMBL ID>  (1) 
nan

>  <InChiKey>  (1) 
ORYWRHNGBVOBHL-XFQWPLCWSA-N

>  <InChi>  (1) 
InChI=1S/C43H53N11O7/c44-36(55)26-53-21-20-47-37(56)17-18-39(58)54(25-29-12-5-2-6-13-29)27-38(57)50-34(22-28-10-3-1-4-11-28)41(60)51-33(16-9-19-48-43(45)46)40(59)52-35(42(53)61)23-30-24-49-32-15-8-7-14-31(30)32/h1-8,10-15,24,33-35,49H,9,16-23,25-27H2,(H2,44,55)(H,47,56)(H,50,57)(H,51,60)(H,52,59)(H4,45,46,48)/t33-,34+,35-/m0/s1

>  <IUPAC Name>  (1) 
2-[(6S,9S,12R)-12,16-dibenzyl-9-[3-(diaminomethylideneamino)propyl]-6-(1H-indol-3-ylmethyl)-5,8,11,14,17,20-hexaoxo-1,4,7,10,13,16-hexazacycloicos-4-yl]acetamide

$$$$
