
     RDKit          3D

 58 62  0  0  0  0  0  0  0  0999 V2000
   -6.7921    2.5865   -2.3557 N   0  0  0  0  0  0  0  0  0  0  0  0
   -7.4592    1.8038   -1.8033 C   0  0  0  0  0  0  0  0  0  0  0  0
   -8.2828    0.8491   -1.1266 C   0  0  0  0  0  0  0  0  0  0  0  0
   -9.6452    1.0694   -1.1018 C   0  0  0  0  0  0  0  0  0  0  0  0
  -10.4624    0.1895   -0.4715 N   0  0  0  0  0  0  0  0  0  0  0  0
   -9.9484   -0.8978    0.1298 C   0  0  0  0  0  0  0  0  0  0  0  0
   -8.5740   -1.1503    0.1232 C   0  0  0  0  0  0  0  0  0  0  0  0
   -7.7117   -0.2562   -0.5212 C   0  0  0  0  0  0  0  0  0  0  0  0
   -6.2453   -0.4981   -0.5428 C   0  0  0  0  0  0  0  0  0  0  0  0
   -5.5735    0.3526    0.3711 O   0  0  0  0  0  0  0  0  0  0  0  0
   -4.1927    0.2319    0.4543 C   0  0  0  0  0  0  0  0  0  0  0  0
   -3.4760    1.0444    1.3357 C   0  0  0  0  0  0  0  0  0  0  0  0
   -2.1294    0.9126    1.4028 N   0  0  0  0  0  0  0  0  0  0  0  0
   -1.4597    0.0266    0.6503 C   0  0  0  0  0  0  0  0  0  0  0  0
   -2.1173   -0.7724   -0.2094 N   0  0  0  0  0  0  0  0  0  0  0  0
   -3.4730   -0.6756   -0.3116 C   0  0  0  0  0  0  0  0  0  0  0  0
   -0.0478   -0.0325    0.7921 N   0  0  0  0  0  0  0  0  0  0  0  0
    0.5897    0.9177    1.7144 C   0  0  0  0  0  0  0  0  0  0  0  0
    1.7447    1.5193    0.9004 C   0  0  0  0  0  0  0  0  0  0  0  0
    2.6315    0.4607    0.4613 N   0  0  0  0  0  0  0  0  0  0  0  0
    2.2046   -0.9159    0.6251 C   0  0  0  0  0  0  0  0  0  0  0  0
    0.7859   -0.9784    0.0761 C   0  0  1  0  0  0  0  0  0  0  0  0
    0.2619   -2.3880    0.1799 C   0  0  0  0  0  0  0  0  0  0  0  0
    3.8780    0.8300   -0.1110 C   0  0  0  0  0  0  0  0  0  0  0  0
    4.2635    2.0889   -0.3116 N   0  0  0  0  0  0  0  0  0  0  0  0
    5.4631    2.0786   -0.8535 O   0  0  0  0  0  0  0  0  0  0  0  0
    5.8863    0.8522   -1.0189 C   0  0  0  0  0  0  0  0  0  0  0  0
    4.8896    0.0613   -0.5519 N   0  0  0  0  0  0  0  0  0  0  0  0
    7.2001    0.4217   -1.6038 C   0  0  0  0  0  0  0  0  0  0  0  0
    7.3957   -1.0454   -1.1944 C   0  0  0  0  0  0  0  0  0  0  0  0
    7.1861   -1.1351    0.1805 O   0  0  0  0  0  0  0  0  0  0  0  0
    7.7613   -0.1046    0.8936 C   0  0  0  0  0  0  0  0  0  0  0  0
    8.7277    0.7167    0.0869 C   0  0  0  0  0  0  0  0  0  0  0  0
    8.2121    1.2153   -1.0877 O   0  0  0  0  0  0  0  0  0  0  0  0
  -10.0992    1.9352   -1.5743 H   0  0  0  0  0  0  0  0  0  0  0  0
  -10.6517   -1.5587    0.6153 H   0  0  0  0  0  0  0  0  0  0  0  0
   -8.1951   -2.0428    0.6213 H   0  0  0  0  0  0  0  0  0  0  0  0
   -5.8116   -0.3514   -1.5655 H   0  0  0  0  0  0  0  0  0  0  0  0
   -6.0916   -1.5640   -0.2777 H   0  0  0  0  0  0  0  0  0  0  0  0
   -3.9483    1.7744    1.9664 H   0  0  0  0  0  0  0  0  0  0  0  0
   -4.0313   -1.2918   -0.9828 H   0  0  0  0  0  0  0  0  0  0  0  0
    1.0936    0.3950    2.5553 H   0  0  0  0  0  0  0  0  0  0  0  0
   -0.0965    1.7104    2.0025 H   0  0  0  0  0  0  0  0  0  0  0  0
    1.3362    2.1056    0.0715 H   0  0  0  0  0  0  0  0  0  0  0  0
    2.3089    2.1573    1.5907 H   0  0  0  0  0  0  0  0  0  0  0  0
    2.8352   -1.6211    0.0537 H   0  0  0  0  0  0  0  0  0  0  0  0
    2.2571   -1.1442    1.6929 H   0  0  0  0  0  0  0  0  0  0  0  0
    0.8596   -0.6861   -0.9994 H   0  0  0  0  0  0  0  0  0  0  0  0
    0.0378   -2.6019    1.2598 H   0  0  0  0  0  0  0  0  0  0  0  0
   -0.5842   -2.6059   -0.4828 H   0  0  0  0  0  0  0  0  0  0  0  0
    1.1032   -3.0722   -0.0752 H   0  0  0  0  0  0  0  0  0  0  0  0
    7.1903    0.4133   -2.7123 H   0  0  0  0  0  0  0  0  0  0  0  0
    8.3850   -1.3908   -1.5074 H   0  0  0  0  0  0  0  0  0  0  0  0
    6.5664   -1.6090   -1.6699 H   0  0  0  0  0  0  0  0  0  0  0  0
    7.0315    0.5538    1.4059 H   0  0  0  0  0  0  0  0  0  0  0  0
    8.3617   -0.5671    1.7170 H   0  0  0  0  0  0  0  0  0  0  0  0
    9.0070    1.6021    0.7138 H   0  0  0  0  0  0  0  0  0  0  0  0
    9.6449    0.0814   -0.0622 H   0  0  0  0  0  0  0  0  0  0  0  0
  1  2  3  0
  2  3  1  0
  3  4  2  0
  4  5  1  0
  5  6  2  0
  6  7  1  0
  7  8  2  0
  8  9  1  0
  9 10  1  0
 10 11  1  0
 11 12  2  0
 12 13  1  0
 13 14  2  0
 14 15  1  0
 15 16  2  0
 14 17  1  0
 17 18  1  0
 18 19  1  0
 19 20  1  0
 20 21  1  0
 21 22  1  0
 22 23  1  0
 20 24  1  0
 24 25  2  0
 25 26  1  0
 26 27  1  0
 27 28  2  0
 27 29  1  0
 29 30  1  0
 30 31  1  0
 31 32  1  0
 32 33  1  0
 33 34  1  0
  8  3  1  0
 16 11  1  0
 22 17  1  0
 28 24  1  0
 34 29  1  0
  4 35  1  0
  6 36  1  0
  7 37  1  0
  9 38  1  0
  9 39  1  0
 12 40  1  0
 16 41  1  0
 18 42  1  0
 18 43  1  0
 19 44  1  0
 19 45  1  0
 21 46  1  0
 21 47  1  0
 22 48  1  6
 23 49  1  0
 23 50  1  0
 23 51  1  0
 29 52  1  0
 30 53  1  0
 30 54  1  0
 32 55  1  0
 32 56  1  0
 33 57  1  0
 33 58  1  0
M  END
>  <Ligand ID>  (1) 
LIG0005318

>  <Ligand>  (1) 
CHEMBL3220233

>  <SMILES>  (1) 
N#Cc1cnccc1COc1cnc(nc1)N1CCN(C[C@H]1C)c1noc(n1)C1COCCO1

>  <CID>  (1) 
90666908.0

>  <ChEMBL ID>  (1) 
nan

>  <InChiKey>  (1) 
BDCALHIYMZXLRA-NYRJJRHWSA-N

>  <InChi>  (1) 
InChI=1S/C22H24N8O4/c1-15-12-29(22-27-20(34-28-22)19-14-31-6-7-32-19)4-5-30(15)21-25-10-18(11-26-21)33-13-16-2-3-24-9-17(16)8-23/h2-3,9-11,15,19H,4-7,12-14H2,1H3/t15-,19?/m1/s1

>  <IUPAC Name>  (1) 
4-[[2-[(2R)-4-[5-(1,4-dioxan-2-yl)-1,2,4-oxadiazol-3-yl]-2-methylpiperazin-1-yl]pyrimidin-5-yl]oxymethyl]pyridine-3-carbonitrile

$$$$
