
     RDKit          3D

 81 85  0  0  0  0  0  0  0  0999 V2000
   -2.1598    4.5979   -3.3136 C   0  0  0  0  0  0  0  0  0  0  0  0
   -2.0127    4.6619   -1.8173 C   0  0  0  0  0  0  0  0  0  0  0  0
   -0.6866    4.1911   -1.3199 C   0  0  0  0  0  0  0  0  0  0  0  0
   -0.2813    2.8185   -1.5739 C   0  0  2  0  0  0  0  0  0  0  0  0
   -1.0758    1.7232   -1.0060 N   0  0  0  0  0  0  0  0  0  0  0  0
   -0.8175    0.4422   -1.6802 C   0  0  0  0  0  0  0  0  0  0  0  0
    0.6472    0.3805   -2.1096 C   0  0  0  0  0  0  0  0  0  0  0  0
    1.4834    1.1507   -1.2097 N   0  0  0  0  0  0  0  0  0  0  0  0
    1.0916    2.5493   -1.0750 C   0  0  0  0  0  0  0  0  0  0  0  0
    1.8593    3.3991   -0.5859 O   0  0  0  0  0  0  0  0  0  0  0  0
    2.5871    0.6076   -0.4536 C   0  0  2  0  0  0  0  0  0  0  0  0
    3.7243    0.3523   -1.3543 C   0  0  0  0  0  0  0  0  0  0  0  0
    4.8041   -0.1615   -0.8981 O   0  0  0  0  0  0  0  0  0  0  0  0
    3.7433    0.6342   -2.7429 N   0  0  0  0  0  0  0  0  0  0  0  0
    4.9518    0.3124   -3.4723 C   0  0  0  0  0  0  0  0  0  0  0  0
    2.1888   -0.5321    0.4087 C   0  0  0  0  0  0  0  0  0  0  0  0
    3.3328   -1.0639    1.1645 C   0  0  0  0  0  0  0  0  0  0  0  0
    3.6549   -0.4657    2.3769 C   0  0  0  0  0  0  0  0  0  0  0  0
    4.7113   -0.9320    3.1605 C   0  0  0  0  0  0  0  0  0  0  0  0
    5.4553   -2.0063    2.7314 C   0  0  0  0  0  0  0  0  0  0  0  0
    5.1576   -2.6190    1.5322 C   0  0  0  0  0  0  0  0  0  0  0  0
    4.1067   -2.1327    0.7825 C   0  0  0  0  0  0  0  0  0  0  0  0
    5.8626   -3.7015    1.0403 C   0  0  0  0  0  0  0  0  0  0  0  0
    6.9315   -4.2060    1.7898 C   0  0  0  0  0  0  0  0  0  0  0  0
    7.2115   -3.5792    2.9845 C   0  0  0  0  0  0  0  0  0  0  0  0
    6.5139   -2.5074    3.4719 C   0  0  0  0  0  0  0  0  0  0  0  0
   -1.9121    1.8502    0.1156 C   0  0  0  0  0  0  0  0  0  0  0  0
   -1.8629    2.9898    0.7281 O   0  0  0  0  0  0  0  0  0  0  0  0
   -2.8334    0.8911    0.6966 C   0  0  2  0  0  0  0  0  0  0  0  0
   -3.0093   -0.3753    0.0474 N   0  0  0  0  0  0  0  0  0  0  0  0
   -2.7973   -1.5677    0.8043 C   0  0  0  0  0  0  0  0  0  0  0  0
   -2.4643   -1.4681    2.0127 O   0  0  0  0  0  0  0  0  0  0  0  0
   -2.9622   -2.8876    0.1923 C   0  0  0  0  0  0  0  0  0  0  0  0
   -2.7957   -4.0210    0.7806 N   0  0  0  0  0  0  0  0  0  0  0  0
   -2.9077   -5.1603    0.3607 C   0  0  0  0  0  0  0  0  0  0  0  0
   -3.4041   -4.8467   -1.4313 S   0  0  0  0  0  0  0  0  0  0  0  0
   -3.3426   -3.0119   -1.1854 C   0  0  0  0  0  0  0  0  0  0  0  0
   -4.1827    1.5855    0.8854 C   0  0  0  0  0  0  0  0  0  0  0  0
   -5.1845    0.6923    1.4708 C   0  0  0  0  0  0  0  0  0  0  0  0
   -5.9686   -0.0595    0.5949 C   0  0  0  0  0  0  0  0  0  0  0  0
   -6.9330   -0.9213    1.1114 C   0  0  0  0  0  0  0  0  0  0  0  0
   -7.1292   -1.0464    2.4829 C   0  0  0  0  0  0  0  0  0  0  0  0
   -6.3301   -0.2817    3.3337 C   0  0  0  0  0  0  0  0  0  0  0  0
   -5.3713    0.5756    2.8356 C   0  0  0  0  0  0  0  0  0  0  0  0
   -8.0557   -1.8731    3.0132 F   0  0  0  0  0  0  0  0  0  0  0  0
   -1.7630    5.5261   -3.7767 H   0  0  0  0  0  0  0  0  0  0  0  0
   -3.2268    4.5307   -3.6132 H   0  0  0  0  0  0  0  0  0  0  0  0
   -1.6618    3.7526   -3.7832 H   0  0  0  0  0  0  0  0  0  0  0  0
   -2.1966    5.6945   -1.4653 H   0  0  0  0  0  0  0  0  0  0  0  0
   -2.8180    4.0301   -1.4179 H   0  0  0  0  0  0  0  0  0  0  0  0
    0.0968    4.8435   -1.8611 H   0  0  0  0  0  0  0  0  0  0  0  0
   -0.4946    4.4756   -0.2635 H   0  0  0  0  0  0  0  0  0  0  0  0
   -0.1657    2.6206   -2.6997 H   0  0  0  0  0  0  0  0  0  0  0  0
   -0.9410   -0.4037   -0.9971 H   0  0  0  0  0  0  0  0  0  0  0  0
   -1.5073    0.3514   -2.5167 H   0  0  0  0  0  0  0  0  0  0  0  0
    0.9932   -0.6627   -2.0813 H   0  0  0  0  0  0  0  0  0  0  0  0
    0.6664    0.8596   -3.0997 H   0  0  0  0  0  0  0  0  0  0  0  0
    2.9386    1.4872    0.1881 H   0  0  0  0  0  0  0  0  0  0  0  0
    2.9496    1.0555   -3.2330 H   0  0  0  0  0  0  0  0  0  0  0  0
    5.0399   -0.7978   -3.6266 H   0  0  0  0  0  0  0  0  0  0  0  0
    5.8025    0.6906   -2.8599 H   0  0  0  0  0  0  0  0  0  0  0  0
    4.9551    0.8557   -4.4382 H   0  0  0  0  0  0  0  0  0  0  0  0
    1.3158   -0.3170    1.0582 H   0  0  0  0  0  0  0  0  0  0  0  0
    1.8285   -1.3468   -0.2912 H   0  0  0  0  0  0  0  0  0  0  0  0
    3.1076    0.3815    2.7671 H   0  0  0  0  0  0  0  0  0  0  0  0
    4.9518   -0.4475    4.1152 H   0  0  0  0  0  0  0  0  0  0  0  0
    3.8759   -2.6273   -0.1662 H   0  0  0  0  0  0  0  0  0  0  0  0
    5.5925   -4.1534    0.0886 H   0  0  0  0  0  0  0  0  0  0  0  0
    7.4807   -5.0447    1.4125 H   0  0  0  0  0  0  0  0  0  0  0  0
    8.0312   -3.9637    3.5628 H   0  0  0  0  0  0  0  0  0  0  0  0
    6.7918   -2.0654    4.4209 H   0  0  0  0  0  0  0  0  0  0  0  0
   -2.4841    0.7205    1.7650 H   0  0  0  0  0  0  0  0  0  0  0  0
   -3.2959   -0.4021   -0.9622 H   0  0  0  0  0  0  0  0  0  0  0  0
   -2.8094   -6.1633    0.7034 H   0  0  0  0  0  0  0  0  0  0  0  0
   -3.5523   -2.2821   -1.9351 H   0  0  0  0  0  0  0  0  0  0  0  0
   -3.9916    2.4471    1.5576 H   0  0  0  0  0  0  0  0  0  0  0  0
   -4.4898    2.0234   -0.1001 H   0  0  0  0  0  0  0  0  0  0  0  0
   -5.8219    0.0317   -0.4877 H   0  0  0  0  0  0  0  0  0  0  0  0
   -7.5379   -1.5021    0.4228 H   0  0  0  0  0  0  0  0  0  0  0  0
   -6.4528   -0.3507    4.4215 H   0  0  0  0  0  0  0  0  0  0  0  0
   -4.7459    1.1745    3.5119 H   0  0  0  0  0  0  0  0  0  0  0  0
  1  2  1  0
  2  3  1  0
  3  4  1  0
  4  5  1  0
  5  6  1  0
  6  7  1  0
  7  8  1  0
  8  9  1  0
  9 10  2  0
  8 11  1  0
 11 12  1  0
 12 13  2  0
 12 14  1  0
 14 15  1  0
 11 16  1  0
 16 17  1  0
 17 18  2  0
 18 19  1  0
 19 20  2  0
 20 21  1  0
 21 22  2  0
 21 23  1  0
 23 24  2  0
 24 25  1  0
 25 26  2  0
  5 27  1  0
 27 28  2  0
 27 29  1  0
 29 30  1  0
 30 31  1  0
 31 32  2  0
 31 33  1  0
 33 34  1  0
 34 35  2  0
 35 36  1  0
 36 37  1  0
 29 38  1  0
 38 39  1  0
 39 40  2  0
 40 41  1  0
 41 42  2  0
 42 43  1  0
 43 44  2  0
 42 45  1  0
  9  4  1  0
 22 17  1  0
 37 33  2  0
 44 39  1  0
 26 20  1  0
  1 46  1  0
  1 47  1  0
  1 48  1  0
  2 49  1  0
  2 50  1  0
  3 51  1  0
  3 52  1  0
  4 53  1  6
  6 54  1  0
  6 55  1  0
  7 56  1  0
  7 57  1  0
 11 58  1  1
 14 59  1  0
 15 60  1  0
 15 61  1  0
 15 62  1  0
 16 63  1  0
 16 64  1  0
 18 65  1  0
 19 66  1  0
 22 67  1  0
 23 68  1  0
 24 69  1  0
 25 70  1  0
 26 71  1  0
 29 72  1  1
 30 73  1  0
 35 74  1  0
 37 75  1  0
 38 76  1  0
 38 77  1  0
 40 78  1  0
 41 79  1  0
 43 80  1  0
 44 81  1  0
M  END
>  <Ligand ID>  (1) 
LIG0004082

>  <Ligand>  (1) 
CHEMBL453300

>  <SMILES>  (1) 
CCC[C@@H]1N(CCN(C1=O)[C@H](C(=O)NC)Cc1ccc2c(c1)cccc2)C(=O)[C@H](NC(=O)c1ncsc1)Cc1ccc(cc1)F

>  <CID>  (1) 
25128751.0

>  <ChEMBL ID>  (1) 
nan

>  <InChiKey>  (1) 
NOMHNUFAKKUFFP-GGCFSWKVSA-N

>  <InChi>  (1) 
InChI=1S/C34H36FN5O4S/c1-3-6-29-34(44)40(30(32(42)36-2)19-23-9-12-24-7-4-5-8-25(24)17-23)16-15-39(29)33(43)27(18-22-10-13-26(35)14-11-22)38-31(41)28-20-45-21-37-28/h4-5,7-14,17,20-21,27,29-30H,3,6,15-16,18-19H2,1-2H3,(H,36,42)(H,38,41)/t27-,29+,30+/m1/s1

>  <IUPAC Name>  (1) 
N-[(2R)-3-(4-fluorophenyl)-1-[(2S)-4-[(2S)-1-(methylamino)-3-naphthalen-2-yl-1-oxopropan-2-yl]-3-oxo-2-propylpiperazin-1-yl]-1-oxopropan-2-yl]-1,3-thiazole-4-carboxamide

$$$$
