
     RDKit          3D

 59 62  0  0  0  0  0  0  0  0999 V2000
   -0.4461   -2.0407   -2.6317 N   0  0  0  0  0  0  0  0  0  0  0  0
   -0.9901   -2.2763   -1.3471 C   0  0  1  0  0  0  0  0  0  0  0  0
    0.1039   -2.1505   -0.3311 C   0  0  0  0  0  0  0  0  0  0  0  0
    0.2828   -0.7677    0.2268 C   0  0  0  0  0  0  0  0  0  0  0  0
   -1.0549   -0.3509    0.8290 C   0  0  0  0  0  0  0  0  0  0  0  0
   -2.0394   -0.2277   -0.2869 C   0  0  0  0  0  0  0  0  0  0  0  0
   -2.2385   -1.5213   -1.0211 C   0  0  0  0  0  0  0  0  0  0  0  0
   -1.5745    0.9091   -1.1870 C   0  0  0  0  0  0  0  0  0  0  0  0
   -0.1776    1.3317   -0.8442 C   0  0  0  0  0  0  0  0  0  0  0  0
    0.7056    0.1828   -0.7491 N   0  0  0  0  0  0  0  0  0  0  0  0
    2.0651    0.6061   -0.6493 C   0  0  0  0  0  0  0  0  0  0  0  0
    2.4018    1.3018    0.6567 C   0  0  0  0  0  0  0  0  0  0  0  0
    3.8434    1.7543    0.7206 C   0  0  0  0  0  0  0  0  0  0  0  0
    4.7132    0.5718    0.5862 C   0  0  0  0  0  0  0  0  0  0  0  0
    5.0858    0.2007   -0.6949 C   0  0  0  0  0  0  0  0  0  0  0  0
    5.8923   -0.8620   -0.9822 C   0  0  0  0  0  0  0  0  0  0  0  0
    6.3691   -1.6175    0.0608 C   0  0  0  0  0  0  0  0  0  0  0  0
    6.0117   -1.2665    1.3350 C   0  0  0  0  0  0  0  0  0  0  0  0
    5.1882   -0.1803    1.6221 C   0  0  0  0  0  0  0  0  0  0  0  0
   -2.4709    2.1171   -1.0113 C   0  0  0  0  0  0  0  0  0  0  0  0
   -3.3708    0.1377    0.2679 C   0  0  0  0  0  0  0  0  0  0  0  0
   -3.5986    0.3531    1.6098 C   0  0  0  0  0  0  0  0  0  0  0  0
   -4.8529    0.6815    2.0410 C   0  0  0  0  0  0  0  0  0  0  0  0
   -5.9269    0.8095    1.1732 C   0  0  0  0  0  0  0  0  0  0  0  0
   -5.7118    0.5963   -0.1732 C   0  0  0  0  0  0  0  0  0  0  0  0
   -4.4347    0.2612   -0.6194 C   0  0  0  0  0  0  0  0  0  0  0  0
   -6.7728    0.7163   -1.0825 O   0  0  0  0  0  0  0  0  0  0  0  0
    0.0246   -1.1650   -2.8242 H   0  0  0  0  0  0  0  0  0  0  0  0
   -0.6632   -2.6832   -3.3881 H   0  0  0  0  0  0  0  0  0  0  0  0
   -1.2660   -3.3753   -1.3369 H   0  0  0  0  0  0  0  0  0  0  0  0
   -0.0974   -2.8260    0.5152 H   0  0  0  0  0  0  0  0  0  0  0  0
    1.0776   -2.4113   -0.8275 H   0  0  0  0  0  0  0  0  0  0  0  0
    0.9588   -0.8851    1.1012 H   0  0  0  0  0  0  0  0  0  0  0  0
   -1.3244   -1.1650    1.5335 H   0  0  0  0  0  0  0  0  0  0  0  0
   -0.8959    0.6084    1.3287 H   0  0  0  0  0  0  0  0  0  0  0  0
   -2.8309   -1.3305   -1.9315 H   0  0  0  0  0  0  0  0  0  0  0  0
   -2.8646   -2.1483   -0.3474 H   0  0  0  0  0  0  0  0  0  0  0  0
   -1.6864    0.6023   -2.2582 H   0  0  0  0  0  0  0  0  0  0  0  0
    0.1950    1.9191   -1.7167 H   0  0  0  0  0  0  0  0  0  0  0  0
   -0.1701    1.9920    0.0202 H   0  0  0  0  0  0  0  0  0  0  0  0
    2.6850   -0.3400   -0.6939 H   0  0  0  0  0  0  0  0  0  0  0  0
    2.3436    1.2046   -1.5221 H   0  0  0  0  0  0  0  0  0  0  0  0
    1.7694    2.1902    0.7903 H   0  0  0  0  0  0  0  0  0  0  0  0
    2.2960    0.5818    1.5216 H   0  0  0  0  0  0  0  0  0  0  0  0
    3.9645    2.1693    1.7663 H   0  0  0  0  0  0  0  0  0  0  0  0
    4.0192    2.5356   -0.0464 H   0  0  0  0  0  0  0  0  0  0  0  0
    4.7234    0.7820   -1.5476 H   0  0  0  0  0  0  0  0  0  0  0  0
    6.1595   -1.1212   -1.9931 H   0  0  0  0  0  0  0  0  0  0  0  0
    7.0056   -2.4520   -0.1706 H   0  0  0  0  0  0  0  0  0  0  0  0
    6.4007   -1.8770    2.1409 H   0  0  0  0  0  0  0  0  0  0  0  0
    4.9151    0.0865    2.6207 H   0  0  0  0  0  0  0  0  0  0  0  0
   -3.2140    2.2129   -1.8437 H   0  0  0  0  0  0  0  0  0  0  0  0
   -1.8400    3.0379   -1.1095 H   0  0  0  0  0  0  0  0  0  0  0  0
   -2.9411    2.1536   -0.0217 H   0  0  0  0  0  0  0  0  0  0  0  0
   -2.7604    0.2502    2.2731 H   0  0  0  0  0  0  0  0  0  0  0  0
   -5.0525    0.8543    3.0793 H   0  0  0  0  0  0  0  0  0  0  0  0
   -6.9073    1.0730    1.5385 H   0  0  0  0  0  0  0  0  0  0  0  0
   -4.3138    0.1003   -1.6809 H   0  0  0  0  0  0  0  0  0  0  0  0
   -6.7122    0.1566   -1.9152 H   0  0  0  0  0  0  0  0  0  0  0  0
  1  2  1  0
  2  3  1  0
  3  4  1  0
  4  5  1  0
  5  6  1  0
  6  7  1  0
  6  8  1  0
  8  9  1  0
  9 10  1  0
 10 11  1  0
 11 12  1  0
 12 13  1  0
 13 14  1  0
 14 15  2  0
 15 16  1  0
 16 17  2  0
 17 18  1  0
 18 19  2  0
  8 20  1  0
  6 21  1  0
 21 22  2  0
 22 23  1  0
 23 24  2  0
 24 25  1  0
 25 26  2  0
 25 27  1  0
  7  2  1  0
 19 14  1  0
 26 21  1  0
 10  4  1  0
  1 28  1  0
  1 29  1  0
  2 30  1  6
  3 31  1  0
  3 32  1  0
  4 33  1  0
  5 34  1  0
  5 35  1  0
  7 36  1  0
  7 37  1  0
  8 38  1  0
  9 39  1  0
  9 40  1  0
 11 41  1  0
 11 42  1  0
 12 43  1  0
 12 44  1  0
 13 45  1  0
 13 46  1  0
 15 47  1  0
 16 48  1  0
 17 49  1  0
 18 50  1  0
 19 51  1  0
 20 52  1  0
 20 53  1  0
 20 54  1  0
 22 55  1  0
 23 56  1  0
 24 57  1  0
 26 58  1  0
 27 59  1  0
M  END
>  <Ligand ID>  (1) 
LIG0004011

>  <Ligand>  (1) 
CHEMBL333342

>  <SMILES>  (1) 
N[C@H]1CC2CC(C1)(C(CN2CCCc1ccccc1)C)c1cccc(c1)O

>  <CID>  (1) 
11950654.0

>  <ChEMBL ID>  (1) 
nan

>  <InChiKey>  (1) 
DBPFGWTUHBQYTM-LGZXGLGHSA-N

>  <InChi>  (1) 
InChI=1S/C24H32N2O/c1-18-17-26(12-6-9-19-7-3-2-4-8-19)22-14-21(25)15-24(18,16-22)20-10-5-11-23(27)13-20/h2-5,7-8,10-11,13,18,21-22,27H,6,9,12,14-17,25H2,1H3/t18?,21-,22?,24?/m0/s1

>  <IUPAC Name>  (1) 
3-[(7R)-7-amino-4-methyl-2-(3-phenylpropyl)-2-azabicyclo[3.3.1]nonan-5-yl]phenol

$$$$
