
     RDKit          3D

 54 56  0  0  0  0  0  0  0  0999 V2000
   -1.8316   -3.0558   -1.5471 O   0  0  0  0  0  0  0  0  0  0  0  0
   -1.5294   -2.4861   -0.3177 C   0  0  2  0  0  0  0  0  0  0  0  0
   -2.8684   -2.0185    0.2584 C   0  0  2  0  0  0  0  0  0  0  0  0
   -3.8744   -2.9215    0.0501 O   0  0  0  0  0  0  0  0  0  0  0  0
   -2.9802   -0.7614   -0.5824 C   0  0  2  0  0  0  0  0  0  0  0  0
   -1.7732   -0.1674   -0.2048 O   0  0  0  0  0  0  0  0  0  0  0  0
   -0.8661   -1.1390   -0.6044 C   0  0  1  0  0  0  0  0  0  0  0  0
    0.3965   -1.0646    0.0555 N   0  0  0  0  0  0  0  0  0  0  0  0
    1.4312   -1.7503   -0.4671 C   0  0  0  0  0  0  0  0  0  0  0  0
    2.6927   -1.7471    0.0910 C   0  0  0  0  0  0  0  0  0  0  0  0
    2.9031   -1.0143    1.2271 C   0  0  0  0  0  0  0  0  0  0  0  0
    1.8719   -0.3252    1.7561 N   0  0  0  0  0  0  0  0  0  0  0  0
    0.6470   -0.3576    1.1725 C   0  0  0  0  0  0  0  0  0  0  0  0
   -0.2994    0.2965    1.6888 O   0  0  0  0  0  0  0  0  0  0  0  0
    4.2072   -1.0203    1.7907 N   0  0  0  0  0  0  0  0  0  0  0  0
    5.1761   -0.1575    1.4859 O   0  0  0  0  0  0  0  0  0  0  0  0
    5.3851   -0.2226    0.1075 C   0  0  0  0  0  0  0  0  0  0  0  0
    6.4606    0.7342   -0.2362 C   0  0  0  0  0  0  0  0  0  0  0  0
    7.7594    0.2508   -0.2115 C   0  0  0  0  0  0  0  0  0  0  0  0
    8.8454    1.0433   -0.5119 C   0  0  0  0  0  0  0  0  0  0  0  0
    8.6278    2.3535   -0.8458 C   0  0  0  0  0  0  0  0  0  0  0  0
    7.3441    2.8348   -0.8711 C   0  0  0  0  0  0  0  0  0  0  0  0
    6.2489    2.0475   -0.5713 C   0  0  0  0  0  0  0  0  0  0  0  0
    7.0606    4.8520   -1.3893 I   0  0  0  0  0  0  0  0  0  0  0  0
   -4.1787    0.0557   -0.3406 C   0  0  0  0  0  0  0  0  0  0  0  0
   -5.2999   -0.6460   -0.7571 O   0  0  0  0  0  0  0  0  0  0  0  0
   -6.7311    0.1678   -0.5394 P   0  0  0  0  0  0  0  0  0  0  0  0
   -7.7460   -0.8452   -0.0053 O   0  0  0  0  0  0  0  0  0  0  0  0
   -6.6645    1.4072    0.5933 O   0  0  0  0  0  0  0  0  0  0  0  0
   -7.7175    2.6617    0.2162 P   0  0  0  0  0  0  0  0  0  0  0  0
   -8.6516    2.1696   -0.8736 O   0  0  0  0  0  0  0  0  0  0  0  0
   -6.8739    3.9890   -0.3989 O   0  0  0  0  0  0  0  0  0  0  0  0
   -8.6508    3.0622    1.5599 O   0  0  0  0  0  0  0  0  0  0  0  0
   -7.3791    0.7853   -1.9671 O   0  0  0  0  0  0  0  0  0  0  0  0
   -1.2633   -3.7952   -1.8204 H   0  0  0  0  0  0  0  0  0  0  0  0
   -0.9610   -3.1192    0.3655 H   0  0  0  0  0  0  0  0  0  0  0  0
   -2.6935   -1.7835    1.3323 H   0  0  0  0  0  0  0  0  0  0  0  0
   -4.0532   -3.3661    0.9155 H   0  0  0  0  0  0  0  0  0  0  0  0
   -2.8268   -1.0886   -1.6214 H   0  0  0  0  0  0  0  0  0  0  0  0
   -0.7158   -0.9741   -1.6954 H   0  0  0  0  0  0  0  0  0  0  0  0
    1.2682   -2.3422   -1.3816 H   0  0  0  0  0  0  0  0  0  0  0  0
    3.4709   -2.3197   -0.3830 H   0  0  0  0  0  0  0  0  0  0  0  0
    4.4180   -1.7603    2.4983 H   0  0  0  0  0  0  0  0  0  0  0  0
    4.4738    0.0359   -0.4709 H   0  0  0  0  0  0  0  0  0  0  0  0
    5.6827   -1.2573   -0.1521 H   0  0  0  0  0  0  0  0  0  0  0  0
    7.9769   -0.7860    0.0490 H   0  0  0  0  0  0  0  0  0  0  0  0
    9.8376    0.6353   -0.4827 H   0  0  0  0  0  0  0  0  0  0  0  0
    9.4988    2.9604   -1.0790 H   0  0  0  0  0  0  0  0  0  0  0  0
    5.2293    2.4246   -0.5900 H   0  0  0  0  0  0  0  0  0  0  0  0
   -4.0553    1.0164   -0.8384 H   0  0  0  0  0  0  0  0  0  0  0  0
   -4.2946    0.2254    0.7396 H   0  0  0  0  0  0  0  0  0  0  0  0
   -5.9073    3.9487   -0.1808 H   0  0  0  0  0  0  0  0  0  0  0  0
   -9.5363    3.3956    1.2261 H   0  0  0  0  0  0  0  0  0  0  0  0
   -6.6910    0.9392   -2.6599 H   0  0  0  0  0  0  0  0  0  0  0  0
  1  2  1  0
  2  3  1  0
  3  4  1  0
  3  5  1  0
  5  6  1  0
  6  7  1  0
  7  8  1  0
  8  9  1  0
  9 10  2  0
 10 11  1  0
 11 12  2  0
 12 13  1  0
 13 14  2  0
 11 15  1  0
 15 16  1  0
 16 17  1  0
 17 18  1  0
 18 19  2  0
 19 20  1  0
 20 21  2  0
 21 22  1  0
 22 23  2  0
 22 24  1  0
  5 25  1  0
 25 26  1  0
 26 27  1  0
 27 28  2  0
 27 29  1  0
 29 30  1  0
 30 31  2  0
 30 32  1  0
 30 33  1  0
 27 34  1  0
  7  2  1  0
 13  8  1  0
 23 18  1  0
  1 35  1  0
  2 36  1  1
  3 37  1  1
  4 38  1  0
  5 39  1  6
  7 40  1  6
  9 41  1  0
 10 42  1  0
 15 43  1  0
 17 44  1  0
 17 45  1  0
 19 46  1  0
 20 47  1  0
 21 48  1  0
 23 49  1  0
 25 50  1  0
 25 51  1  0
 32 52  1  0
 33 53  1  0
 34 54  1  0
M  END
>  <Ligand ID>  (1) 
LIG0002512

>  <Ligand>  (1) 
CHEMBL3220047

>  <SMILES>  (1) 
O[C@@H]1[C@H](O)[C@H](O[C@H]1n1ccc(nc1=O)NOCc1cccc(c1)I)COP(=O)(OP(=O)(O)O)O

>  <CID>  (1) 
90666790.0

>  <ChEMBL ID>  (1) 
nan

>  <InChiKey>  (1) 
VFLQFYSBULVBTG-NMFUWQPSSA-N

>  <InChi>  (1) 
InChI=1S/C16H20IN3O12P2/c17-10-3-1-2-9(6-10)7-29-19-12-4-5-20(16(23)18-12)15-14(22)13(21)11(31-15)8-30-34(27,28)32-33(24,25)26/h1-6,11,13-15,21-22H,7-8H2,(H,27,28)(H,18,19,23)(H2,24,25,26)/t11-,13-,14-,15-/m1/s1

>  <IUPAC Name>  (1) 
[(2R,3S,4R,5R)-3,4-dihydroxy-5-[4-[(3-iodophenyl)methoxyamino]-2-oxopyrimidin-1-yl]oxolan-2-yl]methyl phosphono hydrogen phosphate

$$$$
