
     RDKit          3D

 70 72  0  0  0  0  0  0  0  0999 V2000
   -7.4691    2.9677   -1.3161 O   0  0  0  0  0  0  0  0  0  0  0  0
   -7.4637    2.7323    0.0756 C   0  0  0  0  0  0  0  0  0  0  0  0
   -6.9336    1.3359    0.3257 C   0  0  1  0  0  0  0  0  0  0  0  0
   -5.6379    1.1850   -0.1628 O   0  0  0  0  0  0  0  0  0  0  0  0
   -5.3489   -0.1571   -0.2486 C   0  0  2  0  0  0  0  0  0  0  0  0
   -5.9285   -0.6182   -1.4411 O   0  0  0  0  0  0  0  0  0  0  0  0
   -4.7461   -1.0782   -2.5603 P   0  0  0  0  0  0  0  0  0  0  0  0
   -5.4358   -1.1893   -3.9101 O   0  0  0  0  0  0  0  0  0  0  0  0
   -4.0838   -2.5711   -2.1907 O   0  0  0  0  0  0  0  0  0  0  0  0
   -2.4313   -2.5133   -1.8633 P   0  0  0  0  0  0  0  0  0  0  0  0
   -1.6551   -3.4750   -2.7595 O   0  0  0  0  0  0  0  0  0  0  0  0
   -1.7992   -0.9693   -2.0295 O   0  0  0  0  0  0  0  0  0  0  0  0
   -0.4840   -0.7792   -0.9795 P   0  0  0  0  0  0  0  0  0  0  0  0
   -0.9125   -1.2903    0.3819 O   0  0  0  0  0  0  0  0  0  0  0  0
    0.8418   -1.6702   -1.4998 O   0  0  0  0  0  0  0  0  0  0  0  0
    1.6989   -2.2765   -0.1658 P   0  0  0  0  0  0  0  0  0  0  0  0
    0.7292   -2.6047    0.9665 O   0  0  0  0  0  0  0  0  0  0  0  0
    2.7405   -1.0929    0.4407 O   0  0  0  0  0  0  0  0  0  0  0  0
    3.2446   -0.3728   -0.6332 C   0  0  0  0  0  0  0  0  0  0  0  0
    4.1993    0.7278   -0.2195 C   0  0  1  0  0  0  0  0  0  0  0  0
    5.2911    0.2018    0.4610 O   0  0  0  0  0  0  0  0  0  0  0  0
    6.3791    1.0143    0.1521 C   0  0  2  0  0  0  0  0  0  0  0  0
    6.2129    1.1772   -1.3445 C   0  0  1  0  0  0  0  0  0  0  0  0
    4.7159    1.3851   -1.4570 C   0  0  2  0  0  0  0  0  0  0  0  0
    4.4671    2.7663   -1.3696 O   0  0  0  0  0  0  0  0  0  0  0  0
    6.9366    2.2600   -1.8362 O   0  0  0  0  0  0  0  0  0  0  0  0
    7.6134    0.3818    0.5033 N   0  0  0  0  0  0  0  0  0  0  0  0
    7.7866   -0.9267    0.7080 C   0  0  0  0  0  0  0  0  0  0  0  0
    9.0100   -1.4888    1.0478 C   0  0  0  0  0  0  0  0  0  0  0  0
   10.0752   -0.6169    1.1702 C   0  0  0  0  0  0  0  0  0  0  0  0
   11.2316   -1.0213    1.4752 O   0  0  0  0  0  0  0  0  0  0  0  0
    9.9145    0.7049    0.9665 N   0  0  0  0  0  0  0  0  0  0  0  0
    8.7039    1.1901    0.6393 C   0  0  0  0  0  0  0  0  0  0  0  0
    8.5868    2.4407    0.4543 O   0  0  0  0  0  0  0  0  0  0  0  0
    2.4931   -3.6781   -0.6090 O   0  0  0  0  0  0  0  0  0  0  0  0
   -0.1276    0.8677   -0.7765 O   0  0  0  0  0  0  0  0  0  0  0  0
   -2.2267   -2.9758   -0.2444 O   0  0  0  0  0  0  0  0  0  0  0  0
   -3.6104    0.1583   -2.6722 O   0  0  0  0  0  0  0  0  0  0  0  0
   -5.8662   -0.9896    0.8627 C   0  0  1  0  0  0  0  0  0  0  0  0
   -6.2956   -0.2541    2.0925 C   0  0  1  0  0  0  0  0  0  0  0  0
   -6.8299    1.1249    1.8194 C   0  0  2  0  0  0  0  0  0  0  0  0
   -8.0217    1.3863    2.4793 O   0  0  0  0  0  0  0  0  0  0  0  0
   -7.3463   -0.9912    2.6735 O   0  0  0  0  0  0  0  0  0  0  0  0
   -6.8750   -1.8807    0.4297 O   0  0  0  0  0  0  0  0  0  0  0  0
   -7.8952    3.8563   -1.4695 H   0  0  0  0  0  0  0  0  0  0  0  0
   -8.5271    2.7862    0.3784 H   0  0  0  0  0  0  0  0  0  0  0  0
   -6.9194    3.5195    0.6043 H   0  0  0  0  0  0  0  0  0  0  0  0
   -7.5893    0.6176   -0.1642 H   0  0  0  0  0  0  0  0  0  0  0  0
   -4.2465   -0.2325   -0.3955 H   0  0  0  0  0  0  0  0  0  0  0  0
    2.4637    0.0802   -1.2589 H   0  0  0  0  0  0  0  0  0  0  0  0
    3.7906   -1.0807   -1.3224 H   0  0  0  0  0  0  0  0  0  0  0  0
    3.6105    1.4537    0.4070 H   0  0  0  0  0  0  0  0  0  0  0  0
    6.2730    2.0341    0.5958 H   0  0  0  0  0  0  0  0  0  0  0  0
    6.4467    0.2380   -1.8860 H   0  0  0  0  0  0  0  0  0  0  0  0
    4.2980    0.9585   -2.3911 H   0  0  0  0  0  0  0  0  0  0  0  0
    3.9791    3.0007   -0.5290 H   0  0  0  0  0  0  0  0  0  0  0  0
    6.5599    2.4166   -2.7587 H   0  0  0  0  0  0  0  0  0  0  0  0
    6.9130   -1.5835    0.6001 H   0  0  0  0  0  0  0  0  0  0  0  0
    9.1366   -2.5573    1.2117 H   0  0  0  0  0  0  0  0  0  0  0  0
   10.7215    1.3809    1.0573 H   0  0  0  0  0  0  0  0  0  0  0  0
    1.9648   -4.5165   -0.4202 H   0  0  0  0  0  0  0  0  0  0  0  0
    0.3499    1.2254   -1.5669 H   0  0  0  0  0  0  0  0  0  0  0  0
   -2.9326   -2.4787    0.2570 H   0  0  0  0  0  0  0  0  0  0  0  0
   -4.0933    0.9551   -2.9847 H   0  0  0  0  0  0  0  0  0  0  0  0
   -5.0343   -1.6695    1.1968 H   0  0  0  0  0  0  0  0  0  0  0  0
   -5.4924   -0.2273    2.8685 H   0  0  0  0  0  0  0  0  0  0  0  0
   -6.0730    1.8577    2.1968 H   0  0  0  0  0  0  0  0  0  0  0  0
   -8.0663    2.3099    2.8312 H   0  0  0  0  0  0  0  0  0  0  0  0
   -7.8845   -0.3994    3.2810 H   0  0  0  0  0  0  0  0  0  0  0  0
   -7.0965   -2.4717    1.1804 H   0  0  0  0  0  0  0  0  0  0  0  0
  1  2  1  0
  2  3  1  0
  3  4  1  0
  4  5  1  0
  5  6  1  0
  6  7  1  0
  7  8  2  0
  7  9  1  0
  9 10  1  0
 10 11  2  0
 10 12  1  0
 12 13  1  0
 13 14  2  0
 13 15  1  0
 15 16  1  0
 16 17  2  0
 16 18  1  0
 18 19  1  0
 19 20  1  0
 20 21  1  0
 21 22  1  0
 22 23  1  0
 23 24  1  0
 24 25  1  0
 23 26  1  0
 22 27  1  0
 27 28  1  0
 28 29  2  0
 29 30  1  0
 30 31  2  0
 30 32  1  0
 32 33  1  0
 33 34  2  0
 16 35  1  0
 13 36  1  0
 10 37  1  0
  7 38  1  0
  5 39  1  0
 39 40  1  0
 40 41  1  0
 41 42  1  0
 40 43  1  0
 39 44  1  0
 41  3  1  0
 24 20  1  0
 33 27  1  0
  1 45  1  0
  2 46  1  0
  2 47  1  0
  3 48  1  6
  5 49  1  6
 19 50  1  0
 19 51  1  0
 20 52  1  1
 22 53  1  1
 23 54  1  6
 24 55  1  6
 25 56  1  0
 26 57  1  0
 28 58  1  0
 29 59  1  0
 32 60  1  0
 35 61  1  0
 36 62  1  0
 37 63  1  0
 38 64  1  0
 39 65  1  1
 40 66  1  1
 41 67  1  1
 42 68  1  0
 43 69  1  0
 44 70  1  0
M  END
>  <Ligand ID>  (1) 
LIG0002820

>  <Ligand>  (1) 
CHEMBL1784885

>  <SMILES>  (1) 
OC[C@H]1O[C@H](OP(=O)(OP(=O)(OP(=O)(OP(=O)(OC[C@H]2O[C@H]([C@@H]([C@@H]2O)O)n2ccc(=O)[nH]c2=O)O)O)O)O)[C@@H]([C@@H]([C@@H]1O)O)O

>  <CID>  (1) 
53309244.0

>  <ChEMBL ID>  (1) 
nan

>  <InChiKey>  (1) 
AJLLTXOUJGYGAA-NQQHDEILSA-N

>  <InChi>  (1) 
InChI=1S/C15H26N2O23P4/c18-3-5-8(20)10(22)12(24)14(36-5)37-42(28,29)39-44(32,33)40-43(30,31)38-41(26,27)34-4-6-9(21)11(23)13(35-6)17-2-1-7(19)16-15(17)25/h1-2,5-6,8-14,18,20-24H,3-4H2,(H,26,27)(H,28,29)(H,30,31)(H,32,33)(H,16,19,25)/t5-,6-,8-,9-,10-,11-,12-,13-,14-/m1/s1

>  <IUPAC Name>  (1) 
[[(2R,3S,4R,5R)-5-(2,4-dioxopyrimidin-1-yl)-3,4-dihydroxyoxolan-2-yl]methoxy-hydroxyphosphoryl] [hydroxy-[hydroxy-[(2R,3R,4R,5S,6R)-3,4,5-trihydroxy-6-(hydroxymethyl)oxan-2-yl]oxyphosphoryl]oxyphosphoryl] hydrogen phosphate

$$$$
