
     RDKit          3D

 72 75  0  0  0  0  0  0  0  0999 V2000
    7.1655   -1.9742   -0.0860 O   0  0  0  0  0  0  0  0  0  0  0  0
    7.7281   -1.3393   -1.1556 C   0  0  0  0  0  0  0  0  0  0  0  0
    7.9100   -1.9376   -2.2753 O   0  0  0  0  0  0  0  0  0  0  0  0
    8.1825    0.0860   -1.1417 C   0  0  2  0  0  0  0  0  0  0  0  0
    9.6058    0.2332   -1.5418 C   0  0  0  0  0  0  0  0  0  0  0  0
   10.1300    1.3316   -0.6531 C   0  0  0  0  0  0  0  0  0  0  0  0
    9.3610    1.1806    0.6444 C   0  0  0  0  0  0  0  0  0  0  0  0
    8.0605    0.6702    0.1587 N   0  0  0  0  0  0  0  0  0  0  0  0
    6.9132    0.8101    0.9901 C   0  0  0  0  0  0  0  0  0  0  0  0
    7.1185    1.3780    2.1091 O   0  0  0  0  0  0  0  0  0  0  0  0
    5.5726    0.3836    0.7052 C   0  0  0  0  0  0  0  0  0  0  0  0
    4.9275   -0.3378    1.7186 C   0  0  0  0  0  0  0  0  0  0  0  0
    3.6345   -0.7842    1.5896 C   0  0  0  0  0  0  0  0  0  0  0  0
    2.8925   -0.5389    0.4331 C   0  0  0  0  0  0  0  0  0  0  0  0
    3.5512    0.1720   -0.5488 C   0  0  0  0  0  0  0  0  0  0  0  0
    4.8515    0.6209   -0.4212 C   0  0  0  0  0  0  0  0  0  0  0  0
    1.5603   -0.9633    0.2685 N   0  0  0  0  0  0  0  0  0  0  0  0
    0.7467   -0.6261   -0.9110 C   0  0  0  0  0  0  0  0  0  0  0  0
   -0.6725   -1.1482   -0.7543 C   0  0  0  0  0  0  0  0  0  0  0  0
   -1.3166   -0.7980    0.5466 C   0  0  0  0  0  0  0  0  0  0  0  0
   -0.3036   -0.8663    1.6919 C   0  0  0  0  0  0  0  0  0  0  0  0
    0.8358   -1.7700    1.2613 C   0  0  0  0  0  0  0  0  0  0  0  0
   -1.9639    0.4379    0.6438 N   0  0  0  0  0  0  0  0  0  0  0  0
   -3.2046    0.7270    0.0616 C   0  0  0  0  0  0  0  0  0  0  0  0
   -4.3419    0.0186    0.7255 C   0  0  1  0  0  0  0  0  0  0  0  0
   -5.6583    0.6112    0.4352 C   0  0  0  0  0  0  0  0  0  0  0  0
   -6.1048    1.6701    1.2302 C   0  0  0  0  0  0  0  0  0  0  0  0
   -7.3208    2.2824    1.0593 C   0  0  0  0  0  0  0  0  0  0  0  0
   -8.1759    1.8609    0.0638 C   0  0  0  0  0  0  0  0  0  0  0  0
   -7.7284    0.7966   -0.7360 C   0  0  0  0  0  0  0  0  0  0  0  0
   -6.5149    0.1952   -0.5556 C   0  0  0  0  0  0  0  0  0  0  0  0
   -8.6599    0.4189   -1.7601 N   0  0  0  0  0  0  0  0  0  0  0  0
   -9.6149   -1.0385   -1.6105 S   0  0  0  0  0  0  0  0  0  0  0  0
  -10.4746   -1.2151   -2.8140 O   0  0  0  0  0  0  0  0  0  0  0  0
   -8.7395   -2.2237   -1.3921 O   0  0  0  0  0  0  0  0  0  0  0  0
  -10.6102   -0.7822   -0.1320 C   0  0  0  0  0  0  0  0  0  0  0  0
   -9.4079    2.4597   -0.1308 O   0  0  0  0  0  0  0  0  0  0  0  0
   -4.2381   -1.3411    0.5662 O   0  0  0  0  0  0  0  0  0  0  0  0
    7.1374   -2.9794   -0.0626 H   0  0  0  0  0  0  0  0  0  0  0  0
    7.5577    0.6483   -1.8793 H   0  0  0  0  0  0  0  0  0  0  0  0
    9.7551    0.4671   -2.6198 H   0  0  0  0  0  0  0  0  0  0  0  0
   10.1827   -0.6920   -1.2835 H   0  0  0  0  0  0  0  0  0  0  0  0
   11.2201    1.2658   -0.4615 H   0  0  0  0  0  0  0  0  0  0  0  0
    9.8456    2.3226   -1.0809 H   0  0  0  0  0  0  0  0  0  0  0  0
    9.8228    0.4977    1.3607 H   0  0  0  0  0  0  0  0  0  0  0  0
    9.1642    2.1784    1.1086 H   0  0  0  0  0  0  0  0  0  0  0  0
    5.4649   -0.5633    2.6567 H   0  0  0  0  0  0  0  0  0  0  0  0
    3.2175   -1.3285    2.4141 H   0  0  0  0  0  0  0  0  0  0  0  0
    3.0255    0.3863   -1.4660 H   0  0  0  0  0  0  0  0  0  0  0  0
    5.3330    1.1773   -1.2183 H   0  0  0  0  0  0  0  0  0  0  0  0
    1.1750   -1.1556   -1.8066 H   0  0  0  0  0  0  0  0  0  0  0  0
    0.6709    0.4653   -1.0718 H   0  0  0  0  0  0  0  0  0  0  0  0
   -1.2294   -0.7413   -1.6232 H   0  0  0  0  0  0  0  0  0  0  0  0
   -0.5975   -2.2597   -0.9071 H   0  0  0  0  0  0  0  0  0  0  0  0
   -2.0523   -1.6174    0.7545 H   0  0  0  0  0  0  0  0  0  0  0  0
   -0.7970   -1.3288    2.5518 H   0  0  0  0  0  0  0  0  0  0  0  0
    0.0435    0.1593    1.9041 H   0  0  0  0  0  0  0  0  0  0  0  0
    1.4113   -1.9856    2.1684 H   0  0  0  0  0  0  0  0  0  0  0  0
    0.4006   -2.6879    0.8007 H   0  0  0  0  0  0  0  0  0  0  0  0
   -1.3107    1.2633    0.7191 H   0  0  0  0  0  0  0  0  0  0  0  0
   -3.3788    1.8387    0.2062 H   0  0  0  0  0  0  0  0  0  0  0  0
   -3.2432    0.6015   -1.0473 H   0  0  0  0  0  0  0  0  0  0  0  0
   -4.2133    0.2371    1.8711 H   0  0  0  0  0  0  0  0  0  0  0  0
   -5.4700    2.0510    2.0424 H   0  0  0  0  0  0  0  0  0  0  0  0
   -7.6607    3.0962    1.6739 H   0  0  0  0  0  0  0  0  0  0  0  0
   -6.2140   -0.6182   -1.1954 H   0  0  0  0  0  0  0  0  0  0  0  0
   -8.7294    1.0505   -2.5757 H   0  0  0  0  0  0  0  0  0  0  0  0
  -11.2873   -1.6305    0.0646 H   0  0  0  0  0  0  0  0  0  0  0  0
  -11.1743    0.1742   -0.3102 H   0  0  0  0  0  0  0  0  0  0  0  0
   -9.9014   -0.5560    0.6804 H   0  0  0  0  0  0  0  0  0  0  0  0
   -9.4761    3.4654    0.0330 H   0  0  0  0  0  0  0  0  0  0  0  0
   -4.3884   -1.8625    1.4017 H   0  0  0  0  0  0  0  0  0  0  0  0
  1  2  1  0
  2  3  2  0
  2  4  1  0
  4  5  1  0
  5  6  1  0
  6  7  1  0
  7  8  1  0
  8  9  1  0
  9 10  2  0
  9 11  1  0
 11 12  2  0
 12 13  1  0
 13 14  2  0
 14 15  1  0
 15 16  2  0
 14 17  1  0
 17 18  1  0
 18 19  1  0
 19 20  1  0
 20 21  1  0
 21 22  1  0
 20 23  1  0
 23 24  1  0
 24 25  1  0
 25 26  1  0
 26 27  2  0
 27 28  1  0
 28 29  2  0
 29 30  1  0
 30 31  2  0
 30 32  1  0
 32 33  1  0
 33 34  2  0
 33 35  2  0
 33 36  1  0
 29 37  1  0
 25 38  1  0
  8  4  1  0
 16 11  1  0
 22 17  1  0
 31 26  1  0
  1 39  1  0
  4 40  1  6
  5 41  1  0
  5 42  1  0
  6 43  1  0
  6 44  1  0
  7 45  1  0
  7 46  1  0
 12 47  1  0
 13 48  1  0
 15 49  1  0
 16 50  1  0
 18 51  1  0
 18 52  1  0
 19 53  1  0
 19 54  1  0
 20 55  1  0
 21 56  1  0
 21 57  1  0
 22 58  1  0
 22 59  1  0
 23 60  1  0
 24 61  1  0
 24 62  1  0
 25 63  1  1
 27 64  1  0
 28 65  1  0
 31 66  1  0
 32 67  1  0
 36 68  1  0
 36 69  1  0
 36 70  1  0
 37 71  1  0
 38 72  1  0
M  END
>  <Ligand ID>  (1) 
LIG0004934

>  <Ligand>  (1) 
CHEMBL417325

>  <SMILES>  (1) 
OC(=O)[C@@H]1CCCN1C(=O)c1ccc(cc1)N1CCC(CC1)NC[C@@H](c1ccc(c(c1)NS(=O)(=O)C)O)O

>  <CID>  (1) 
10697841.0

>  <ChEMBL ID>  (1) 
nan

>  <InChiKey>  (1) 
PSTMRGCDBFOIHC-UPVQGACJSA-N

>  <InChi>  (1) 
InChI=1S/C26H34N4O7S/c1-38(36,37)28-21-15-18(6-9-23(21)31)24(32)16-27-19-10-13-29(14-11-19)20-7-4-17(5-8-20)25(33)30-12-2-3-22(30)26(34)35/h4-9,15,19,22,24,27-28,31-32H,2-3,10-14,16H2,1H3,(H,34,35)/t22-,24-/m0/s1

>  <IUPAC Name>  (1) 
(2S)-1-[4-[4-[[(2R)-2-hydroxy-2-[4-hydroxy-3-(methanesulfonamido)phenyl]ethyl]amino]piperidin-1-yl]benzoyl]pyrrolidine-2-carboxylic acid

$$$$
