
     RDKit          3D

 30 32  0  0  0  0  0  0  0  0999 V2000
    3.8108   -0.0718   -1.1115 C   0  0  0  0  0  0  0  0  0  0  0  0
    2.9701    1.0507   -0.5561 C   0  0  0  0  0  0  0  0  0  0  0  0
    1.7690    0.3971   -0.1369 N   0  0  0  0  0  0  0  0  0  0  0  0
    1.6636   -0.8033   -0.5985 C   0  0  0  0  0  0  0  0  0  0  0  0
    2.8236   -1.0833   -1.4009 N   0  0  0  0  0  0  0  0  0  0  0  0
    0.5230   -1.7272   -0.3323 C   0  0  0  0  0  0  0  0  0  0  0  0
   -0.4738   -1.0683    0.5382 C   0  0  0  0  0  0  0  0  0  0  0  0
   -0.6157   -1.3510    1.8837 C   0  0  0  0  0  0  0  0  0  0  0  0
   -1.5696   -0.6956    2.6366 C   0  0  0  0  0  0  0  0  0  0  0  0
   -2.4014    0.2517    2.0738 C   0  0  0  0  0  0  0  0  0  0  0  0
   -2.2743    0.5520    0.7159 C   0  0  0  0  0  0  0  0  0  0  0  0
   -1.3138   -0.1189   -0.0065 C   0  0  0  0  0  0  0  0  0  0  0  0
   -1.2173    0.2065   -1.3549 C   0  0  0  0  0  0  0  0  0  0  0  0
   -2.0501    1.1574   -1.9277 C   0  0  0  0  0  0  0  0  0  0  0  0
   -3.0058    1.8173   -1.1840 C   0  0  0  0  0  0  0  0  0  0  0  0
   -3.1038    1.4938    0.1631 C   0  0  0  0  0  0  0  0  0  0  0  0
    4.3807    0.2487   -2.0307 H   0  0  0  0  0  0  0  0  0  0  0  0
    4.5034   -0.5078   -0.3610 H   0  0  0  0  0  0  0  0  0  0  0  0
    2.7641    1.7909   -1.3592 H   0  0  0  0  0  0  0  0  0  0  0  0
    3.5176    1.5352    0.2969 H   0  0  0  0  0  0  0  0  0  0  0  0
    2.9121   -1.8921   -2.0745 H   0  0  0  0  0  0  0  0  0  0  0  0
    0.1316   -2.0510   -1.2932 H   0  0  0  0  0  0  0  0  0  0  0  0
    0.9583   -2.5649    0.2697 H   0  0  0  0  0  0  0  0  0  0  0  0
    0.0287   -2.0906    2.3389 H   0  0  0  0  0  0  0  0  0  0  0  0
   -1.6375   -0.9587    3.6951 H   0  0  0  0  0  0  0  0  0  0  0  0
   -3.1396    0.7655    2.6353 H   0  0  0  0  0  0  0  0  0  0  0  0
   -0.5018   -0.2545   -2.0185 H   0  0  0  0  0  0  0  0  0  0  0  0
   -1.9488    1.3922   -2.9968 H   0  0  0  0  0  0  0  0  0  0  0  0
   -3.6423    2.5536   -1.6526 H   0  0  0  0  0  0  0  0  0  0  0  0
   -3.8610    2.0263    0.7203 H   0  0  0  0  0  0  0  0  0  0  0  0
  1  2  1  0
  2  3  1  0
  3  4  2  0
  4  5  1  0
  4  6  1  0
  6  7  1  0
  7  8  2  0
  8  9  1  0
  9 10  2  0
 10 11  1  0
 11 12  2  0
 12 13  1  0
 13 14  2  0
 14 15  1  0
 15 16  2  0
  5  1  1  0
 12  7  1  0
 16 11  1  0
  1 17  1  0
  1 18  1  0
  2 19  1  0
  2 20  1  0
  5 21  1  0
  6 22  1  0
  6 23  1  0
  8 24  1  0
  9 25  1  0
 10 26  1  0
 13 27  1  0
 14 28  1  0
 15 29  1  0
 16 30  1  0
M  END
>  <Ligand ID>  (1) 
LIG0000878

>  <Ligand>  (1) 
naphazoline

>  <SMILES>  (1) 
C1CN=C(N1)Cc1cccc2c1cccc2

>  <CID>  (1) 
4436.0

>  <ChEMBL ID>  (1) 
nan

>  <InChiKey>  (1) 
CNIIGCLFLJGOGP-UHFFFAOYSA-N

>  <InChi>  (1) 
InChI=1S/C14H14N2/c1-2-7-13-11(4-1)5-3-6-12(13)10-14-15-8-9-16-14/h1-7H,8-10H2,(H,15,16)

>  <IUPAC Name>  (1) 
2-(naphthalen-1-ylmethyl)-4,5-dihydro-1H-imidazole

$$$$
