
     RDKit          3D

 55 59  0  0  0  0  0  0  0  0999 V2000
   -4.9171    2.9389   -3.0006 C   0  0  0  0  0  0  0  0  0  0  0  0
   -4.4205    1.5265   -2.7817 C   0  0  0  0  0  0  0  0  0  0  0  0
   -2.9055    1.5724   -2.7333 C   0  0  0  0  0  0  0  0  0  0  0  0
   -2.4917    1.6370   -1.3024 C   0  0  0  0  0  0  0  0  0  0  0  0
   -2.7873    0.2487   -0.7420 C   0  0  0  0  0  0  0  0  0  0  0  0
   -4.1654   -0.0250   -0.8637 C   0  0  0  0  0  0  0  0  0  0  0  0
   -5.0037    0.9519   -1.5077 C   0  0  0  0  0  0  0  0  0  0  0  0
   -4.4018   -1.6410   -0.1220 S   0  0  0  0  0  0  0  0  0  0  0  0
   -2.5978   -1.8296    0.3009 C   0  0  0  0  0  0  0  0  0  0  0  0
   -2.0119   -0.6633   -0.1588 C   0  0  0  0  0  0  0  0  0  0  0  0
   -0.6246   -0.6298    0.0809 C   0  0  0  0  0  0  0  0  0  0  0  0
   -0.0433   -1.6905    0.7103 N   0  0  0  0  0  0  0  0  0  0  0  0
   -0.6692   -2.7805    1.1283 C   0  0  0  0  0  0  0  0  0  0  0  0
   -1.9932   -2.8566    0.9172 N   0  0  0  0  0  0  0  0  0  0  0  0
   -0.0130   -3.9117    1.8067 C   0  0  0  0  0  0  0  0  0  0  0  0
    0.2444    0.3759   -0.3353 N   0  0  0  0  0  0  0  0  0  0  0  0
    0.6886    0.3841   -1.7290 C   0  0  0  0  0  0  0  0  0  0  0  0
    2.1989    0.2525   -1.7356 C   0  0  0  0  0  0  0  0  0  0  0  0
    2.6748    0.2429   -0.3567 N   0  0  0  0  0  0  0  0  0  0  0  0
    2.2653    1.2205    0.6251 C   0  0  0  0  0  0  0  0  0  0  0  0
    0.7771    1.4310    0.5048 C   0  0  0  0  0  0  0  0  0  0  0  0
    3.5945   -0.7871    0.0474 C   0  0  0  0  0  0  0  0  0  0  0  0
    3.9975   -1.6722   -0.7465 O   0  0  0  0  0  0  0  0  0  0  0  0
    4.0993   -0.8414    1.4137 C   0  0  0  0  0  0  0  0  0  0  0  0
    4.8590    0.1978    1.9197 C   0  0  0  0  0  0  0  0  0  0  0  0
    5.3085    0.0841    3.2280 C   0  0  0  0  0  0  0  0  0  0  0  0
    5.0207   -1.0080    4.0038 C   0  0  0  0  0  0  0  0  0  0  0  0
    4.2656   -2.0300    3.4860 C   0  0  0  0  0  0  0  0  0  0  0  0
    3.8083   -1.9526    2.2079 C   0  0  0  0  0  0  0  0  0  0  0  0
   -4.8707    3.5426   -2.0702 H   0  0  0  0  0  0  0  0  0  0  0  0
   -5.9725    2.8818   -3.3679 H   0  0  0  0  0  0  0  0  0  0  0  0
   -4.2625    3.3965   -3.7958 H   0  0  0  0  0  0  0  0  0  0  0  0
   -4.6997    0.9375   -3.6796 H   0  0  0  0  0  0  0  0  0  0  0  0
   -2.4520    0.7277   -3.2933 H   0  0  0  0  0  0  0  0  0  0  0  0
   -2.5785    2.4872   -3.2579 H   0  0  0  0  0  0  0  0  0  0  0  0
   -1.5046    1.9874   -1.1311 H   0  0  0  0  0  0  0  0  0  0  0  0
   -3.2700    2.3074   -0.7980 H   0  0  0  0  0  0  0  0  0  0  0  0
   -5.9771    0.4874   -1.7671 H   0  0  0  0  0  0  0  0  0  0  0  0
   -5.2377    1.7919   -0.8255 H   0  0  0  0  0  0  0  0  0  0  0  0
   -0.3033   -3.9631    2.8737 H   0  0  0  0  0  0  0  0  0  0  0  0
   -0.3597   -4.8664    1.3117 H   0  0  0  0  0  0  0  0  0  0  0  0
    1.0839   -3.8614    1.6668 H   0  0  0  0  0  0  0  0  0  0  0  0
    0.4148    1.3031   -2.2617 H   0  0  0  0  0  0  0  0  0  0  0  0
    0.2464   -0.4589   -2.2969 H   0  0  0  0  0  0  0  0  0  0  0  0
    2.6225    1.1201   -2.2661 H   0  0  0  0  0  0  0  0  0  0  0  0
    2.4770   -0.7011   -2.2146 H   0  0  0  0  0  0  0  0  0  0  0  0
    2.4703    0.8137    1.6581 H   0  0  0  0  0  0  0  0  0  0  0  0
    2.8435    2.1692    0.5468 H   0  0  0  0  0  0  0  0  0  0  0  0
    0.2675    1.4836    1.4879 H   0  0  0  0  0  0  0  0  0  0  0  0
    0.6593    2.3931   -0.0719 H   0  0  0  0  0  0  0  0  0  0  0  0
    5.0978    1.0681    1.3244 H   0  0  0  0  0  0  0  0  0  0  0  0
    5.9019    0.8811    3.6433 H   0  0  0  0  0  0  0  0  0  0  0  0
    5.3980   -1.0354    5.0074 H   0  0  0  0  0  0  0  0  0  0  0  0
    4.0451   -2.8949    4.1197 H   0  0  0  0  0  0  0  0  0  0  0  0
    3.2042   -2.7435    1.7567 H   0  0  0  0  0  0  0  0  0  0  0  0
  1  2  1  0
  2  3  1  0
  3  4  1  0
  4  5  1  0
  5  6  2  0
  6  7  1  0
  6  8  1  0
  8  9  1  0
  9 10  2  0
 10 11  1  0
 11 12  2  0
 12 13  1  0
 13 14  2  0
 13 15  1  0
 11 16  1  0
 16 17  1  0
 17 18  1  0
 18 19  1  0
 19 20  1  0
 20 21  1  0
 19 22  1  0
 22 23  2  0
 22 24  1  0
 24 25  2  0
 25 26  1  0
 26 27  2  0
 27 28  1  0
 28 29  2  0
  7  2  1  0
 14  9  1  0
 21 16  1  0
 29 24  1  0
 10  5  1  0
  1 30  1  0
  1 31  1  0
  1 32  1  0
  2 33  1  0
  3 34  1  0
  3 35  1  0
  4 36  1  0
  4 37  1  0
  7 38  1  0
  7 39  1  0
 15 40  1  0
 15 41  1  0
 15 42  1  0
 17 43  1  0
 17 44  1  0
 18 45  1  0
 18 46  1  0
 20 47  1  0
 20 48  1  0
 21 49  1  0
 21 50  1  0
 25 51  1  0
 26 52  1  0
 27 53  1  0
 28 54  1  0
 29 55  1  0
M  END
>  <Ligand ID>  (1) 
LIG0004004

>  <Ligand>  (1) 
MLS-0437134.0001

>  <SMILES>  (1) 
CC1CCc2c(C1)sc1c2c(nc(n1)C)N1CCN(CC1)C(=O)c1ccccc1

>  <CID>  (1) 
3193015.0

>  <ChEMBL ID>  (1) 
nan

>  <InChiKey>  (1) 
SEEXAGYACMBIMM-UHFFFAOYSA-N

>  <InChi>  (1) 
InChI=1S/C23H26N4OS/c1-15-8-9-18-19(14-15)29-22-20(18)21(24-16(2)25-22)26-10-12-27(13-11-26)23(28)17-6-4-3-5-7-17/h3-7,15H,8-14H2,1-2H3

>  <IUPAC Name>  (1) 
[4-(2,7-dimethyl-5,6,7,8-tetrahydro-[1]benzothiolo[2,3-d]pyrimidin-4-yl)piperazin-1-yl]-phenylmethanone

$$$$
