
     RDKit          3D

 43 43  0  0  0  0  0  0  0  0999 V2000
    8.1199   -1.3612   -1.9106 O   0  0  0  0  0  0  0  0  0  0  0  0
    7.1414   -0.4817   -1.4177 C   0  0  0  0  0  0  0  0  0  0  0  0
    7.4593    0.7438   -1.3161 O   0  0  0  0  0  0  0  0  0  0  0  0
    5.7846   -0.9615   -1.0285 C   0  0  0  0  0  0  0  0  0  0  0  0
    5.0592    0.1561   -0.5846 O   0  0  0  0  0  0  0  0  0  0  0  0
    3.7503    0.1193   -0.1358 C   0  0  0  0  0  0  0  0  0  0  0  0
    3.0722   -1.0984   -0.1090 C   0  0  0  0  0  0  0  0  0  0  0  0
    1.7594   -1.1537    0.3379 C   0  0  0  0  0  0  0  0  0  0  0  0
    1.1354    0.0161    0.7554 C   0  0  0  0  0  0  0  0  0  0  0  0
    1.7959    1.2259    0.7332 C   0  0  0  0  0  0  0  0  0  0  0  0
    3.1115    1.2872    0.2865 C   0  0  0  0  0  0  0  0  0  0  0  0
    3.8351    2.5234    0.2475 N   0  0  0  0  0  0  0  0  0  0  0  0
    4.7086    2.7317   -0.6218 O   0  0  0  0  0  0  0  0  0  0  0  0
    3.5693    3.4985    1.1781 O   0  0  0  0  0  0  0  0  0  0  0  0
   -0.2649   -0.0752    1.2261 C   0  0  0  0  0  0  0  0  0  0  0  0
   -1.4662    0.4817   -0.0175 P   0  0  0  0  0  0  0  0  0  0  0  0
   -1.3959    1.9900   -0.1313 O   0  0  0  0  0  0  0  0  0  0  0  0
   -3.0863   -0.1009    0.5316 C   0  0  0  0  0  0  0  0  0  0  0  0
   -4.2182    0.6362   -0.1457 C   0  0  0  0  0  0  0  0  0  0  0  0
   -5.4933    0.0408    0.4135 C   0  0  1  0  0  0  0  0  0  0  0  0
   -6.7116    0.6402   -0.1358 C   0  0  0  0  0  0  0  0  0  0  0  0
   -6.9182    1.8826   -0.0476 O   0  0  0  0  0  0  0  0  0  0  0  0
   -7.7047   -0.1111   -0.7807 O   0  0  0  0  0  0  0  0  0  0  0  0
   -5.4125   -1.3909    0.2296 N   0  0  0  0  0  0  0  0  0  0  0  0
   -1.0561   -0.2285   -1.5174 O   0  0  0  0  0  0  0  0  0  0  0  0
   -0.5046    0.6307    2.3866 O   0  0  0  0  0  0  0  0  0  0  0  0
    9.1070   -1.2085   -1.7504 H   0  0  0  0  0  0  0  0  0  0  0  0
    5.3198   -1.3909   -1.9556 H   0  0  0  0  0  0  0  0  0  0  0  0
    5.8130   -1.7897   -0.2922 H   0  0  0  0  0  0  0  0  0  0  0  0
    3.5469   -2.0227   -0.4320 H   0  0  0  0  0  0  0  0  0  0  0  0
    1.2167   -2.0971    0.3645 H   0  0  0  0  0  0  0  0  0  0  0  0
    1.2934    2.1440    1.0655 H   0  0  0  0  0  0  0  0  0  0  0  0
   -0.5414   -1.1365    1.4408 H   0  0  0  0  0  0  0  0  0  0  0  0
   -3.1627   -1.1623    0.1909 H   0  0  0  0  0  0  0  0  0  0  0  0
   -3.1500    0.0333    1.6149 H   0  0  0  0  0  0  0  0  0  0  0  0
   -4.2120    1.7263    0.0288 H   0  0  0  0  0  0  0  0  0  0  0  0
   -4.1857    0.4741   -1.2400 H   0  0  0  0  0  0  0  0  0  0  0  0
   -5.4431    0.2082    1.5215 H   0  0  0  0  0  0  0  0  0  0  0  0
   -8.6814    0.0988   -0.6988 H   0  0  0  0  0  0  0  0  0  0  0  0
   -5.5937   -1.6839   -0.7527 H   0  0  0  0  0  0  0  0  0  0  0  0
   -5.9721   -1.9301    0.9249 H   0  0  0  0  0  0  0  0  0  0  0  0
   -1.5636   -1.0789   -1.5622 H   0  0  0  0  0  0  0  0  0  0  0  0
    0.1392    0.4552    3.1062 H   0  0  0  0  0  0  0  0  0  0  0  0
  1  2  1  0
  2  3  2  0
  2  4  1  0
  4  5  1  0
  5  6  1  0
  6  7  2  0
  7  8  1  0
  8  9  2  0
  9 10  1  0
 10 11  2  0
 11 12  1  0
 12 13  2  0
 12 14  1  0
  9 15  1  0
 15 16  1  0
 16 17  2  0
 16 18  1  0
 18 19  1  0
 19 20  1  0
 20 21  1  0
 21 22  2  0
 21 23  1  0
 20 24  1  0
 16 25  1  0
 15 26  1  0
 11  6  1  0
  1 27  1  0
  4 28  1  0
  4 29  1  0
  7 30  1  0
  8 31  1  0
 10 32  1  0
 15 33  1  0
 18 34  1  0
 18 35  1  0
 19 36  1  0
 19 37  1  0
 20 38  1  1
 23 39  1  0
 24 40  1  0
 24 41  1  0
 25 42  1  0
 26 43  1  0
M  CHG  2  12   1  14  -1
M  END
>  <Ligand ID>  (1) 
LIG0002468

>  <Ligand>  (1) 
CHEMBL3896848

>  <SMILES>  (1) 
OC(=O)COc1ccc(cc1[N+](=O)[O-])C(P(=O)(CC[C@@H](C(=O)O)N)O)O

>  <CID>  (1) 
71042046.0

>  <ChEMBL ID>  (1) 
nan

>  <InChiKey>  (1) 
UFAMDVHATQKVBA-OADYLZGLSA-N

>  <InChi>  (1) 
InChI=1S/C13H17N2O10P/c14-8(12(18)19)3-4-26(23,24)13(20)7-1-2-10(25-6-11(16)17)9(5-7)15(21)22/h1-2,5,8,13,20H,3-4,6,14H2,(H,16,17)(H,18,19)(H,23,24)/t8-,13?/m0/s1

>  <IUPAC Name>  (1) 
(2S)-2-amino-4-[[[4-(carboxymethoxy)-3-nitrophenyl]-hydroxymethyl]-hydroxyphosphoryl]butanoic acid

$$$$
