
     RDKit          3D

 33 35  0  0  0  0  0  0  0  0999 V2000
    2.0380    0.8368   -3.9222 O   0  0  0  0  0  0  0  0  0  0  0  0
    2.0639    0.5550   -2.6939 C   0  0  0  0  0  0  0  0  0  0  0  0
    0.8910    0.3317   -1.9716 C   0  0  0  0  0  0  0  0  0  0  0  0
    0.9575    0.0213   -0.6105 C   0  0  0  0  0  0  0  0  0  0  0  0
   -0.2539   -0.2240    0.1992 C   0  0  0  0  0  0  0  0  0  0  0  0
   -1.5204   -0.0867   -0.6632 C   0  0  0  0  0  0  0  0  0  0  0  0
   -2.6685   -0.3537    0.2541 C   0  0  0  0  0  0  0  0  0  0  0  0
   -4.0548   -0.2834   -0.3429 C   0  0  0  0  0  0  0  0  0  0  0  0
   -4.5010    0.3168    0.9963 C   0  0  0  0  0  0  0  0  0  0  0  0
   -3.0575    0.8103    1.1422 C   0  0  0  0  0  0  0  0  0  0  0  0
    2.2346   -0.0427   -0.0638 C   0  0  0  0  0  0  0  0  0  0  0  0
    3.3582    0.1952   -0.8596 C   0  0  0  0  0  0  0  0  0  0  0  0
    3.2495    0.4843   -2.1371 O   0  0  0  0  0  0  0  0  0  0  0  0
    4.5657    0.1179   -0.2697 N   0  0  0  0  0  0  0  0  0  0  0  0
    4.7061   -0.1798    1.0519 C   0  0  0  0  0  0  0  0  0  0  0  0
    5.8706   -0.2379    1.5491 O   0  0  0  0  0  0  0  0  0  0  0  0
    3.6306   -0.4095    1.8222 N   0  0  0  0  0  0  0  0  0  0  0  0
    2.4039   -0.3423    1.2720 C   0  0  0  0  0  0  0  0  0  0  0  0
    1.4092   -0.5600    2.0077 O   0  0  0  0  0  0  0  0  0  0  0  0
   -0.0862    0.3991   -2.4698 H   0  0  0  0  0  0  0  0  0  0  0  0
   -0.3836    0.5827    0.9641 H   0  0  0  0  0  0  0  0  0  0  0  0
   -0.3328   -1.2466    0.6083 H   0  0  0  0  0  0  0  0  0  0  0  0
   -1.6087    0.9423   -1.0718 H   0  0  0  0  0  0  0  0  0  0  0  0
   -1.5302   -0.7813   -1.5088 H   0  0  0  0  0  0  0  0  0  0  0  0
   -2.4828   -1.2861    0.8284 H   0  0  0  0  0  0  0  0  0  0  0  0
   -4.4913   -1.2811   -0.5656 H   0  0  0  0  0  0  0  0  0  0  0  0
   -4.1122    0.4729   -1.1416 H   0  0  0  0  0  0  0  0  0  0  0  0
   -5.2597    1.1057    0.9266 H   0  0  0  0  0  0  0  0  0  0  0  0
   -4.6863   -0.4588    1.7794 H   0  0  0  0  0  0  0  0  0  0  0  0
   -2.6689    0.7146    2.1852 H   0  0  0  0  0  0  0  0  0  0  0  0
   -2.8855    1.8029    0.6759 H   0  0  0  0  0  0  0  0  0  0  0  0
    5.4391    0.2861   -0.8159 H   0  0  0  0  0  0  0  0  0  0  0  0
    3.7663   -0.6387    2.8455 H   0  0  0  0  0  0  0  0  0  0  0  0
  1  2  2  0
  2  3  1  0
  3  4  2  0
  4  5  1  0
  5  6  1  0
  6  7  1  0
  7  8  1  0
  8  9  1  0
  9 10  1  0
  4 11  1  0
 11 12  2  0
 12 13  1  0
 12 14  1  0
 14 15  1  0
 15 16  2  0
 15 17  1  0
 17 18  1  0
 18 19  2  0
 13  2  1  0
 10  7  1  0
 18 11  1  0
  3 20  1  0
  5 21  1  0
  5 22  1  0
  6 23  1  0
  6 24  1  0
  7 25  1  0
  8 26  1  0
  8 27  1  0
  9 28  1  0
  9 29  1  0
 10 30  1  0
 10 31  1  0
 14 32  1  0
 17 33  1  0
M  END
>  <Ligand ID>  (1) 
LIG0001328

>  <Ligand>  (1) 
CHEMBL2036954

>  <SMILES>  (1) 
O=c1cc(CCC2CCC2)c2c(o1)[nH]c(=O)[nH]c2=O

>  <CID>  (1) 
59304608.0

>  <ChEMBL ID>  (1) 
nan

>  <InChiKey>  (1) 
JDQWWGPAMKFJTN-UHFFFAOYSA-N

>  <InChi>  (1) 
InChI=1S/C13H14N2O4/c16-9-6-8(5-4-7-2-1-3-7)10-11(17)14-13(18)15-12(10)19-9/h6-7H,1-5H2,(H2,14,15,17,18)

>  <IUPAC Name>  (1) 
5-(2-cyclobutylethyl)-1H-pyrano[2,3-d]pyrimidine-2,4,7-trione

$$$$
