
     RDKit          3D

 66 68  0  0  0  0  0  0  0  0999 V2000
   10.1611   -1.0160    2.4947 O   0  0  0  0  0  0  0  0  0  0  0  0
    9.2943   -0.6890    1.6389 C   0  0  0  0  0  0  0  0  0  0  0  0
    9.7513   -0.1568    0.4288 C   0  0  0  0  0  0  0  0  0  0  0  0
    8.7837    0.1978   -0.5021 C   0  0  0  0  0  0  0  0  0  0  0  0
    7.4545    0.0311   -0.2390 N   0  0  0  0  0  0  0  0  0  0  0  0
    7.0443   -0.4823    0.9311 C   0  0  0  0  0  0  0  0  0  0  0  0
    5.8355   -0.6491    1.2062 O   0  0  0  0  0  0  0  0  0  0  0  0
    7.9669   -0.8331    1.8485 N   0  0  0  0  0  0  0  0  0  0  0  0
    6.5253    0.4200   -1.2469 C   0  0  2  0  0  0  0  0  0  0  0  0
    5.3324    0.9001   -0.7085 O   0  0  0  0  0  0  0  0  0  0  0  0
    4.4129    0.9077   -1.7494 C   0  0  1  0  0  0  0  0  0  0  0  0
    4.7947   -0.2132   -2.6789 C   0  0  2  0  0  0  0  0  0  0  0  0
    6.0256   -0.7936   -2.0117 C   0  0  1  0  0  0  0  0  0  0  0  0
    6.9624   -1.1649   -2.9724 O   0  0  0  0  0  0  0  0  0  0  0  0
    5.2327    0.2921   -3.9238 O   0  0  0  0  0  0  0  0  0  0  0  0
    3.0220    0.6780   -1.1864 C   0  0  0  0  0  0  0  0  0  0  0  0
    2.6515    1.6443   -0.2840 O   0  0  0  0  0  0  0  0  0  0  0  0
    1.1321    1.4599    0.3795 P   0  0  0  0  0  0  0  0  0  0  0  0
    0.1764    2.2986   -0.4731 O   0  0  0  0  0  0  0  0  0  0  0  0
    0.5362   -0.0966    0.3642 O   0  0  0  0  0  0  0  0  0  0  0  0
    0.2901   -0.7790    1.8644 P   0  0  0  0  0  0  0  0  0  0  0  0
    1.3700   -1.7621    2.2440 O   0  0  0  0  0  0  0  0  0  0  0  0
   -1.1970   -1.6146    1.8243 O   0  0  0  0  0  0  0  0  0  0  0  0
   -2.1774   -1.1338    0.5595 P   0  0  0  0  0  0  0  0  0  0  0  0
   -1.4072   -0.4204   -0.5454 O   0  0  0  0  0  0  0  0  0  0  0  0
   -3.4273   -0.1101    1.0053 O   0  0  0  0  0  0  0  0  0  0  0  0
   -4.5166   -0.7941    2.0745 P   0  0  0  0  0  0  0  0  0  0  0  0
   -3.8272   -1.8259    2.9603 O   0  0  0  0  0  0  0  0  0  0  0  0
   -5.7796   -1.5003    1.1848 O   0  0  0  0  0  0  0  0  0  0  0  0
   -6.5179   -0.4570    0.6239 C   0  0  1  0  0  0  0  0  0  0  0  0
   -6.3991   -0.5661   -0.7607 O   0  0  0  0  0  0  0  0  0  0  0  0
   -6.7931    0.6102   -1.4065 C   0  0  0  0  0  0  0  0  0  0  0  0
   -8.0580    1.1463   -0.7560 C   0  0  2  0  0  0  0  0  0  0  0  0
   -8.7984   -0.0381   -0.1481 C   0  0  1  0  0  0  0  0  0  0  0  0
   -7.9662   -0.4747    1.0556 C   0  0  1  0  0  0  0  0  0  0  0  0
   -8.3484   -1.7284    1.5141 O   0  0  0  0  0  0  0  0  0  0  0  0
  -10.0856    0.3117    0.2020 O   0  0  0  0  0  0  0  0  0  0  0  0
   -8.8360    1.7738   -1.7040 O   0  0  0  0  0  0  0  0  0  0  0  0
   -5.2159    0.4231    3.0433 O   0  0  0  0  0  0  0  0  0  0  0  0
   -2.9093   -2.4785   -0.2036 O   0  0  0  0  0  0  0  0  0  0  0  0
    0.1170    0.4433    3.0141 O   0  0  0  0  0  0  0  0  0  0  0  0
    1.0443    2.0889    1.9461 O   0  0  0  0  0  0  0  0  0  0  0  0
   10.7971   -0.0223    0.2141 H   0  0  0  0  0  0  0  0  0  0  0  0
    9.0777    0.6221   -1.4735 H   0  0  0  0  0  0  0  0  0  0  0  0
    7.7052   -1.2429    2.7892 H   0  0  0  0  0  0  0  0  0  0  0  0
    6.9128    1.1467   -1.9723 H   0  0  0  0  0  0  0  0  0  0  0  0
    4.5009    1.9035   -2.2327 H   0  0  0  0  0  0  0  0  0  0  0  0
    3.9808   -0.9542   -2.8131 H   0  0  0  0  0  0  0  0  0  0  0  0
    5.7728   -1.6324   -1.3326 H   0  0  0  0  0  0  0  0  0  0  0  0
    6.5770   -1.2506   -3.8742 H   0  0  0  0  0  0  0  0  0  0  0  0
    4.7139    1.1384   -4.0494 H   0  0  0  0  0  0  0  0  0  0  0  0
    3.0358   -0.2894   -0.6518 H   0  0  0  0  0  0  0  0  0  0  0  0
    2.2724    0.6863   -2.0031 H   0  0  0  0  0  0  0  0  0  0  0  0
   -6.0030    0.4841    0.9681 H   0  0  0  0  0  0  0  0  0  0  0  0
   -6.0142    1.3812   -1.4300 H   0  0  0  0  0  0  0  0  0  0  0  0
   -7.0444    0.3209   -2.4567 H   0  0  0  0  0  0  0  0  0  0  0  0
   -7.7738    1.8747    0.0426 H   0  0  0  0  0  0  0  0  0  0  0  0
   -8.7430   -0.8386   -0.9183 H   0  0  0  0  0  0  0  0  0  0  0  0
   -8.0809    0.2257    1.8888 H   0  0  0  0  0  0  0  0  0  0  0  0
   -7.8795   -1.8540    2.3810 H   0  0  0  0  0  0  0  0  0  0  0  0
  -10.6968   -0.0531   -0.5010 H   0  0  0  0  0  0  0  0  0  0  0  0
   -9.1890    2.6205   -1.3285 H   0  0  0  0  0  0  0  0  0  0  0  0
   -4.7889    1.3139    2.8388 H   0  0  0  0  0  0  0  0  0  0  0  0
   -3.7974   -2.2311   -0.5804 H   0  0  0  0  0  0  0  0  0  0  0  0
   -0.7450    0.4126    3.5003 H   0  0  0  0  0  0  0  0  0  0  0  0
    1.7521    2.7766    2.0872 H   0  0  0  0  0  0  0  0  0  0  0  0
  1  2  2  0
  2  3  1  0
  3  4  2  0
  4  5  1  0
  5  6  1  0
  6  7  2  0
  6  8  1  0
  5  9  1  0
  9 10  1  0
 10 11  1  0
 11 12  1  0
 12 13  1  0
 13 14  1  0
 12 15  1  0
 11 16  1  0
 16 17  1  0
 17 18  1  0
 18 19  2  0
 18 20  1  0
 20 21  1  0
 21 22  2  0
 21 23  1  0
 23 24  1  0
 24 25  2  0
 24 26  1  0
 26 27  1  0
 27 28  2  0
 27 29  1  0
 29 30  1  0
 30 31  1  0
 31 32  1  0
 32 33  1  0
 33 34  1  0
 34 35  1  0
 35 36  1  0
 34 37  1  0
 33 38  1  0
 27 39  1  0
 24 40  1  0
 21 41  1  0
 18 42  1  0
  8  2  1  0
 13  9  1  0
 35 30  1  0
  3 43  1  0
  4 44  1  0
  8 45  1  0
  9 46  1  6
 11 47  1  6
 12 48  1  6
 13 49  1  1
 14 50  1  0
 15 51  1  0
 16 52  1  0
 16 53  1  0
 30 54  1  1
 32 55  1  0
 32 56  1  0
 33 57  1  1
 34 58  1  6
 35 59  1  1
 36 60  1  0
 37 61  1  0
 38 62  1  0
 39 63  1  0
 40 64  1  0
 41 65  1  0
 42 66  1  0
M  END
>  <Ligand ID>  (1) 
LIG0002415

>  <Ligand>  (1) 
CHEMBL1784887

>  <SMILES>  (1) 
O=c1ccn(c(=O)[nH]1)[C@@H]1O[C@@H]([C@H]([C@H]1O)O)COP(=O)(OP(=O)(OP(=O)(OP(=O)(O[C@H]1OC[C@H]([C@@H]([C@H]1O)O)O)O)O)O)O

>  <CID>  (1) 
53309379.0

>  <ChEMBL ID>  (1) 
nan

>  <InChiKey>  (1) 
RNFGZTCOJKAIRF-OCIMBMBZSA-N

>  <InChi>  (1) 
InChI=1S/C14H24N2O22P4/c17-5-3-32-13(11(22)8(5)19)35-40(26,27)37-42(30,31)38-41(28,29)36-39(24,25)33-4-6-9(20)10(21)12(34-6)16-2-1-7(18)15-14(16)23/h1-2,5-6,8-13,17,19-22H,3-4H2,(H,24,25)(H,26,27)(H,28,29)(H,30,31)(H,15,18,23)/t5-,6-,8+,9-,10-,11-,12-,13-/m1/s1

>  <IUPAC Name>  (1) 
[[(2R,3S,4R,5R)-5-(2,4-dioxopyrimidin-1-yl)-3,4-dihydroxyoxolan-2-yl]methoxy-hydroxyphosphoryl] [hydroxy-[hydroxy-[(2R,3R,4S,5R)-3,4,5-trihydroxyoxan-2-yl]oxyphosphoryl]oxyphosphoryl] hydrogen phosphate

$$$$
