
     RDKit          3D

 50 49  0  0  0  0  0  0  0  0999 V2000
    7.6865    0.3768    0.3282 C   0  0  0  0  0  0  0  0  0  0  0  0
    6.8116    0.7367    1.4845 C   0  0  0  0  0  0  0  0  0  0  0  0
    5.4782    0.0544    1.3912 C   0  0  0  0  0  0  0  0  0  0  0  0
    4.7226    0.4290    0.1305 C   0  0  0  0  0  0  0  0  0  0  0  0
    3.4221   -0.3370    0.1996 C   0  0  0  0  0  0  0  0  0  0  0  0
    2.5219   -0.0848   -0.9894 C   0  0  0  0  0  0  0  0  0  0  0  0
    1.2808   -0.9296   -0.7445 C   0  0  0  0  0  0  0  0  0  0  0  0
    0.2709   -0.8039   -1.8246 C   0  0  0  0  0  0  0  0  0  0  0  0
   -0.9183   -1.6776   -1.5174 C   0  0  0  0  0  0  0  0  0  0  0  0
   -1.5869   -1.3084   -0.2235 C   0  0  0  0  0  0  0  0  0  0  0  0
   -2.0871    0.1129   -0.1962 C   0  0  0  0  0  0  0  0  0  0  0  0
   -3.0892    0.4108   -1.2583 C   0  0  0  0  0  0  0  0  0  0  0  0
   -4.3382   -0.4575   -1.1639 C   0  0  0  0  0  0  0  0  0  0  0  0
   -5.0096   -0.2502    0.1467 C   0  0  0  0  0  0  0  0  0  0  0  0
   -4.6164   -0.8422    1.1731 O   0  0  0  0  0  0  0  0  0  0  0  0
   -6.0764    0.6079    0.2131 O   0  0  0  0  0  0  0  0  0  0  0  0
   -6.7954    0.8887    1.3901 C   0  0  0  0  0  0  0  0  0  0  0  0
   -7.8816    1.8912    0.9884 C   0  0  0  0  0  0  0  0  0  0  0  0
    8.7596    0.2924    0.6218 H   0  0  0  0  0  0  0  0  0  0  0  0
    7.6221    1.1924   -0.4283 H   0  0  0  0  0  0  0  0  0  0  0  0
    7.3436   -0.5844   -0.1447 H   0  0  0  0  0  0  0  0  0  0  0  0
    6.5997    1.8239    1.5523 H   0  0  0  0  0  0  0  0  0  0  0  0
    7.2682    0.4114    2.4379 H   0  0  0  0  0  0  0  0  0  0  0  0
    5.5324   -1.0585    1.4283 H   0  0  0  0  0  0  0  0  0  0  0  0
    4.8446    0.4454    2.2378 H   0  0  0  0  0  0  0  0  0  0  0  0
    4.5374    1.5244    0.1834 H   0  0  0  0  0  0  0  0  0  0  0  0
    5.2947    0.2015   -0.7774 H   0  0  0  0  0  0  0  0  0  0  0  0
    3.6596   -1.4135    0.2050 H   0  0  0  0  0  0  0  0  0  0  0  0
    2.8591   -0.0071    1.0925 H   0  0  0  0  0  0  0  0  0  0  0  0
    2.9661   -0.4948   -1.9339 H   0  0  0  0  0  0  0  0  0  0  0  0
    2.2878    0.9635   -1.1637 H   0  0  0  0  0  0  0  0  0  0  0  0
    1.5552   -1.9861   -0.6178 H   0  0  0  0  0  0  0  0  0  0  0  0
    0.8189   -0.5811    0.2181 H   0  0  0  0  0  0  0  0  0  0  0  0
    0.6719   -0.9816   -2.8407 H   0  0  0  0  0  0  0  0  0  0  0  0
   -0.0546    0.2770   -1.8307 H   0  0  0  0  0  0  0  0  0  0  0  0
   -0.6160   -2.7540   -1.4027 H   0  0  0  0  0  0  0  0  0  0  0  0
   -1.6228   -1.6860   -2.3746 H   0  0  0  0  0  0  0  0  0  0  0  0
   -0.9070   -1.5084    0.6019 H   0  0  0  0  0  0  0  0  0  0  0  0
   -2.4461   -2.0191   -0.1193 H   0  0  0  0  0  0  0  0  0  0  0  0
   -1.2613    0.8161   -0.2834 H   0  0  0  0  0  0  0  0  0  0  0  0
   -2.5867    0.2377    0.7960 H   0  0  0  0  0  0  0  0  0  0  0  0
   -3.4646    1.4559   -1.0518 H   0  0  0  0  0  0  0  0  0  0  0  0
   -2.6869    0.4418   -2.2713 H   0  0  0  0  0  0  0  0  0  0  0  0
   -4.0762   -1.5284   -1.2349 H   0  0  0  0  0  0  0  0  0  0  0  0
   -4.9940   -0.2363   -2.0133 H   0  0  0  0  0  0  0  0  0  0  0  0
   -6.1222    1.4259    2.0826 H   0  0  0  0  0  0  0  0  0  0  0  0
   -7.2655   -0.0093    1.8343 H   0  0  0  0  0  0  0  0  0  0  0  0
   -8.5690    1.4418    0.2575 H   0  0  0  0  0  0  0  0  0  0  0  0
   -8.3784    2.3385    1.8785 H   0  0  0  0  0  0  0  0  0  0  0  0
   -7.3653    2.7417    0.4538 H   0  0  0  0  0  0  0  0  0  0  0  0
  1  2  1  0
  2  3  1  0
  3  4  1  0
  4  5  1  0
  5  6  1  0
  6  7  1  0
  7  8  1  0
  8  9  1  0
  9 10  1  0
 10 11  1  0
 11 12  1  0
 12 13  1  0
 13 14  1  0
 14 15  2  0
 14 16  1  0
 16 17  1  0
 17 18  1  0
  1 19  1  0
  1 20  1  0
  1 21  1  0
  2 22  1  0
  2 23  1  0
  3 24  1  0
  3 25  1  0
  4 26  1  0
  4 27  1  0
  5 28  1  0
  5 29  1  0
  6 30  1  0
  6 31  1  0
  7 32  1  0
  7 33  1  0
  8 34  1  0
  8 35  1  0
  9 36  1  0
  9 37  1  0
 10 38  1  0
 10 39  1  0
 11 40  1  0
 11 41  1  0
 12 42  1  0
 12 43  1  0
 13 44  1  0
 13 45  1  0
 17 46  1  0
 17 47  1  0
 18 48  1  0
 18 49  1  0
 18 50  1  0
M  END
>  <Ligand ID>  (1) 
LIG0000549

>  <Ligand>  (1) 
Ethyl Myristate

>  <SMILES>  (1) 
CCCCCCCCCCCCCC(=O)OCC

>  <CID>  (1) 
31283.0

>  <ChEMBL ID>  (1) 
nan

>  <InChiKey>  (1) 
MMKRHZKQPFCLLS-UHFFFAOYSA-N

>  <InChi>  (1) 
InChI=1S/C16H32O2/c1-3-5-6-7-8-9-10-11-12-13-14-15-16(17)18-4-2/h3-15H2,1-2H3

>  <IUPAC Name>  (1) 
ethyl tetradecanoate

$$$$
