
     RDKit          3D

 54 56  0  0  0  0  0  0  0  0999 V2000
   -7.2283    0.3862    1.6868 C   0  0  0  0  0  0  0  0  0  0  0  0
   -5.8240    0.4976    1.6682 O   0  0  0  0  0  0  0  0  0  0  0  0
   -5.1261    0.8133    0.5163 C   0  0  0  0  0  0  0  0  0  0  0  0
   -5.7294    1.0371   -0.6911 C   0  0  0  0  0  0  0  0  0  0  0  0
   -4.9562    1.3504   -1.7921 C   0  0  0  0  0  0  0  0  0  0  0  0
   -3.6056    1.4314   -1.6509 C   0  0  0  0  0  0  0  0  0  0  0  0
   -2.9318    1.2148   -0.4507 C   0  0  0  0  0  0  0  0  0  0  0  0
   -3.7445    0.8993    0.6393 C   0  0  0  0  0  0  0  0  0  0  0  0
   -1.4843    1.3346   -0.3614 C   0  0  0  0  0  0  0  0  0  0  0  0
   -0.6906    0.1122   -0.3926 C   0  0  0  0  0  0  0  0  0  0  0  0
   -1.1384   -1.1337   -0.0134 C   0  0  0  0  0  0  0  0  0  0  0  0
   -0.2666   -2.2100   -0.0689 C   0  0  0  0  0  0  0  0  0  0  0  0
    1.0164   -2.0096   -0.4953 N   0  0  0  0  0  0  0  0  0  0  0  0
    1.4737   -0.8272   -0.8653 N   0  0  0  0  0  0  0  0  0  0  0  0
    0.6289    0.2083   -0.8113 C   0  0  0  0  0  0  0  0  0  0  0  0
    1.0876    1.3410   -1.1681 O   0  0  0  0  0  0  0  0  0  0  0  0
    2.8095   -0.7345   -1.3815 C   0  0  0  0  0  0  0  0  0  0  0  0
    3.8554   -0.2582   -0.4702 C   0  0  0  0  0  0  0  0  0  0  0  0
    4.3445   -1.0815    0.3796 O   0  0  0  0  0  0  0  0  0  0  0  0
    4.2843    1.0780   -0.5669 N   0  0  0  0  0  0  0  0  0  0  0  0
    5.2596    1.7673    0.1583 C   0  0  0  0  0  0  0  0  0  0  0  0
    5.0922    2.4616    1.3160 C   0  0  0  0  0  0  0  0  0  0  0  0
    6.1489    3.1547    1.8983 C   0  0  0  0  0  0  0  0  0  0  0  0
    7.4070    3.1815    1.3486 C   0  0  0  0  0  0  0  0  0  0  0  0
    7.5897    2.4738    0.1649 C   0  0  0  0  0  0  0  0  0  0  0  0
    6.5497    1.7963   -0.3997 C   0  0  0  0  0  0  0  0  0  0  0  0
    8.8666    4.1382    2.1316 Br  0  0  0  0  0  0  0  0  0  0  0  0
   -0.6561   -3.5941    0.2666 C   0  0  0  0  0  0  0  0  0  0  0  0
   -1.2050   -4.3158   -0.9800 C   0  0  0  0  0  0  0  0  0  0  0  0
   -1.6459   -3.7139    1.3866 C   0  0  0  0  0  0  0  0  0  0  0  0
   -7.5412    0.5658    2.7427 H   0  0  0  0  0  0  0  0  0  0  0  0
   -7.7151    1.0871    1.0053 H   0  0  0  0  0  0  0  0  0  0  0  0
   -7.4702   -0.6629    1.3608 H   0  0  0  0  0  0  0  0  0  0  0  0
   -6.7818    0.9797   -0.8052 H   0  0  0  0  0  0  0  0  0  0  0  0
   -5.4395    1.5267   -2.7672 H   0  0  0  0  0  0  0  0  0  0  0  0
   -2.9985    1.6798   -2.5120 H   0  0  0  0  0  0  0  0  0  0  0  0
   -3.2670    0.7104    1.6117 H   0  0  0  0  0  0  0  0  0  0  0  0
   -1.1399    1.9426   -1.2586 H   0  0  0  0  0  0  0  0  0  0  0  0
   -1.2133    1.9383    0.5388 H   0  0  0  0  0  0  0  0  0  0  0  0
   -2.1553   -1.2642    0.3140 H   0  0  0  0  0  0  0  0  0  0  0  0
    3.0790   -1.7298   -1.8334 H   0  0  0  0  0  0  0  0  0  0  0  0
    2.7417   -0.0119   -2.2494 H   0  0  0  0  0  0  0  0  0  0  0  0
    3.7889    1.6646   -1.3192 H   0  0  0  0  0  0  0  0  0  0  0  0
    4.1197    2.4614    1.7724 H   0  0  0  0  0  0  0  0  0  0  0  0
    6.0191    3.7169    2.8249 H   0  0  0  0  0  0  0  0  0  0  0  0
    8.5554    2.4609   -0.3116 H   0  0  0  0  0  0  0  0  0  0  0  0
    6.7518    1.2536   -1.3257 H   0  0  0  0  0  0  0  0  0  0  0  0
    0.2581   -4.1939    0.5190 H   0  0  0  0  0  0  0  0  0  0  0  0
   -0.5530   -4.0819   -1.8478 H   0  0  0  0  0  0  0  0  0  0  0  0
   -2.2700   -4.1060   -1.1375 H   0  0  0  0  0  0  0  0  0  0  0  0
   -1.0941   -5.4179   -0.7984 H   0  0  0  0  0  0  0  0  0  0  0  0
   -1.7332   -2.7706    1.9546 H   0  0  0  0  0  0  0  0  0  0  0  0
   -2.6714   -3.9382    0.9631 H   0  0  0  0  0  0  0  0  0  0  0  0
   -1.4514   -4.6096    2.0493 H   0  0  0  0  0  0  0  0  0  0  0  0
  1  2  1  0
  2  3  1  0
  3  4  2  0
  4  5  1  0
  5  6  2  0
  6  7  1  0
  7  8  2  0
  7  9  1  0
  9 10  1  0
 10 11  2  0
 11 12  1  0
 12 13  2  0
 13 14  1  0
 14 15  1  0
 15 16  2  0
 14 17  1  0
 17 18  1  0
 18 19  2  0
 18 20  1  0
 20 21  1  0
 21 22  2  0
 22 23  1  0
 23 24  2  0
 24 25  1  0
 25 26  2  0
 24 27  1  0
 12 28  1  0
 28 29  1  0
 28 30  1  0
  8  3  1  0
 15 10  1  0
 26 21  1  0
  1 31  1  0
  1 32  1  0
  1 33  1  0
  4 34  1  0
  5 35  1  0
  6 36  1  0
  8 37  1  0
  9 38  1  0
  9 39  1  0
 11 40  1  0
 17 41  1  0
 17 42  1  0
 20 43  1  0
 22 44  1  0
 23 45  1  0
 25 46  1  0
 26 47  1  0
 28 48  1  0
 29 49  1  0
 29 50  1  0
 29 51  1  0
 30 52  1  0
 30 53  1  0
 30 54  1  0
M  END
>  <Ligand ID>  (1) 
LIG0003460

>  <Ligand>  (1) 
CHEMBL2391256

>  <SMILES>  (1) 
COc1cccc(c1)Cc1cc(nn(c1=O)CC(=O)Nc1ccc(cc1)Br)C(C)C

>  <CID>  (1) 
71698529.0

>  <ChEMBL ID>  (1) 
nan

>  <InChiKey>  (1) 
IJHCATOAXCRMJB-UHFFFAOYSA-N

>  <InChi>  (1) 
InChI=1S/C23H24BrN3O3/c1-15(2)21-13-17(11-16-5-4-6-20(12-16)30-3)23(29)27(26-21)14-22(28)25-19-9-7-18(24)8-10-19/h4-10,12-13,15H,11,14H2,1-3H3,(H,25,28)

>  <IUPAC Name>  (1) 
N-(4-bromophenyl)-2-[5-[(3-methoxyphenyl)methyl]-6-oxo-3-propan-2-ylpyridazin-1-yl]acetamide

$$$$
