
     RDKit          3D

 38 39  0  0  0  0  0  0  0  0999 V2000
    1.4833   -2.2693   -0.3892 C   0  0  0  0  0  0  0  0  0  0  0  0
    1.9139   -0.8975   -0.6236 N   0  0  0  0  0  0  0  0  0  0  0  0
    0.9634    0.0704   -1.6947 S   0  0  0  0  0  0  0  0  0  0  0  0
    1.6433    1.4065   -1.9069 O   0  0  0  0  0  0  0  0  0  0  0  0
    1.0222   -0.6215   -3.0303 O   0  0  0  0  0  0  0  0  0  0  0  0
   -0.6636    0.2970   -1.1448 C   0  0  0  0  0  0  0  0  0  0  0  0
   -1.6331   -0.6137   -1.5313 C   0  0  0  0  0  0  0  0  0  0  0  0
   -2.9520   -0.5119   -1.1415 C   0  0  0  0  0  0  0  0  0  0  0  0
   -3.3451    0.5174   -0.3431 C   0  0  0  0  0  0  0  0  0  0  0  0
   -2.3926    1.4336    0.0513 C   0  0  0  0  0  0  0  0  0  0  0  0
   -1.0604    1.3412   -0.3353 C   0  0  0  0  0  0  0  0  0  0  0  0
   -4.7149    0.6042    0.0489 N   0  0  0  0  0  0  0  0  0  0  0  0
   -5.2034   -0.0179    1.2351 C   0  0  0  0  0  0  0  0  0  0  0  0
   -4.4398   -0.6786    1.9981 O   0  0  0  0  0  0  0  0  0  0  0  0
   -6.6508    0.1450    1.5352 C   0  0  0  0  0  0  0  0  0  0  0  0
    3.0714   -0.3402   -0.0094 C   0  0  0  0  0  0  0  0  0  0  0  0
    4.2778   -0.4788   -0.7049 C   0  0  0  0  0  0  0  0  0  0  0  0
    5.4440    0.0340   -0.1765 C   0  0  0  0  0  0  0  0  0  0  0  0
    5.4164    0.6904    1.0519 C   0  0  0  0  0  0  0  0  0  0  0  0
    4.2106    0.8252    1.7400 C   0  0  0  0  0  0  0  0  0  0  0  0
    3.0378    0.3086    1.2072 C   0  0  0  0  0  0  0  0  0  0  0  0
    6.5912    1.2206    1.6093 O   0  0  0  0  0  0  0  0  0  0  0  0
    0.5007   -2.3204    0.1328 H   0  0  0  0  0  0  0  0  0  0  0  0
    1.4688   -2.8470   -1.3510 H   0  0  0  0  0  0  0  0  0  0  0  0
    2.1862   -2.8172    0.2606 H   0  0  0  0  0  0  0  0  0  0  0  0
   -1.3773   -1.4593   -2.1709 H   0  0  0  0  0  0  0  0  0  0  0  0
   -3.6876   -1.2411   -1.4608 H   0  0  0  0  0  0  0  0  0  0  0  0
   -2.6742    2.2651    0.6875 H   0  0  0  0  0  0  0  0  0  0  0  0
   -0.3105    2.0586   -0.0275 H   0  0  0  0  0  0  0  0  0  0  0  0
   -5.3377    1.1521   -0.5879 H   0  0  0  0  0  0  0  0  0  0  0  0
   -7.2711   -0.6620    1.1175 H   0  0  0  0  0  0  0  0  0  0  0  0
   -7.0169    1.1587    1.2006 H   0  0  0  0  0  0  0  0  0  0  0  0
   -6.7790    0.1380    2.6350 H   0  0  0  0  0  0  0  0  0  0  0  0
    4.2902   -0.9879   -1.6544 H   0  0  0  0  0  0  0  0  0  0  0  0
    6.4012   -0.0671   -0.7120 H   0  0  0  0  0  0  0  0  0  0  0  0
    4.1469    1.3291    2.6986 H   0  0  0  0  0  0  0  0  0  0  0  0
    2.1049    0.4118    1.7376 H   0  0  0  0  0  0  0  0  0  0  0  0
    7.3356    1.4239    0.9538 H   0  0  0  0  0  0  0  0  0  0  0  0
  1  2  1  0
  2  3  1  0
  3  4  2  0
  3  5  2  0
  3  6  1  0
  6  7  2  0
  7  8  1  0
  8  9  2  0
  9 10  1  0
 10 11  2  0
  9 12  1  0
 12 13  1  0
 13 14  2  0
 13 15  1  0
  2 16  1  0
 16 17  2  0
 17 18  1  0
 18 19  2  0
 19 20  1  0
 20 21  2  0
 19 22  1  0
 11  6  1  0
 21 16  1  0
  1 23  1  0
  1 24  1  0
  1 25  1  0
  7 26  1  0
  8 27  1  0
 10 28  1  0
 11 29  1  0
 12 30  1  0
 15 31  1  0
 15 32  1  0
 15 33  1  0
 17 34  1  0
 18 35  1  0
 20 36  1  0
 21 37  1  0
 22 38  1  0
M  END
>  <Ligand ID>  (1) 
LIG0003328

>  <Ligand>  (1) 
MLS000081936

>  <SMILES>  (1) 
CN(S(=O)(=O)c1ccc(cc1)NC(=O)C)c1ccc(cc1)O

>  <CID>  (1) 
2998367.0

>  <ChEMBL ID>  (1) 
nan

>  <InChiKey>  (1) 
QNUMCSUIAGXGGL-UHFFFAOYSA-N

>  <InChi>  (1) 
InChI=1S/C15H16N2O4S/c1-11(18)16-12-3-9-15(10-4-12)22(20,21)17(2)13-5-7-14(19)8-6-13/h3-10,19H,1-2H3,(H,16,18)

>  <IUPAC Name>  (1) 
N-[4-[(4-hydroxyphenyl)-methylsulfamoyl]phenyl]acetamide

$$$$
