
     RDKit          3D

 74 79  0  0  0  0  0  0  0  0999 V2000
   -1.9712    0.7211    1.6976 C   0  0  0  0  0  0  0  0  0  0  0  0
   -3.3322    0.2281    1.3130 C   0  0  1  0  0  0  0  0  0  0  0  0
   -3.9239    1.1376    0.2599 C   0  0  1  0  0  0  0  0  0  0  0  0
   -3.3779    0.9216   -1.1182 C   0  0  0  0  0  0  0  0  0  0  0  0
   -2.2368   -0.0252   -1.1827 C   0  0  0  0  0  0  0  0  0  0  0  0
   -2.1527   -1.0811   -0.2943 C   0  0  0  0  0  0  0  0  0  0  0  0
   -3.2828   -1.1693    0.7015 C   0  0  1  0  0  0  0  0  0  0  0  0
   -2.9949   -2.1421    1.7992 C   0  0  0  0  0  0  0  0  0  0  0  0
   -4.5825   -1.4624    0.0282 C   0  0  0  0  0  0  0  0  0  0  0  0
   -5.6750   -0.5044    0.3628 C   0  0  0  0  0  0  0  0  0  0  0  0
   -5.3275    0.8911    0.2260 N   0  0  0  0  0  0  0  0  0  0  0  0
   -6.1208    1.7111    1.1035 C   0  0  0  0  0  0  0  0  0  0  0  0
   -5.7449    3.1636    0.9343 C   0  0  0  0  0  0  0  0  0  0  0  0
   -5.9199    3.7641   -0.4432 C   0  0  0  0  0  0  0  0  0  0  0  0
   -6.8083    4.1660    0.6464 C   0  0  0  0  0  0  0  0  0  0  0  0
   -1.1207   -1.9953   -0.3024 C   0  0  0  0  0  0  0  0  0  0  0  0
   -0.1127   -1.8755   -1.2279 C   0  0  0  0  0  0  0  0  0  0  0  0
   -0.1946   -0.8230   -2.1148 C   0  0  0  0  0  0  0  0  0  0  0  0
   -1.2238    0.0953   -2.1126 C   0  0  0  0  0  0  0  0  0  0  0  0
    0.9784   -2.8446   -1.2346 C   0  0  0  0  0  0  0  0  0  0  0  0
    0.9223   -3.7526   -0.3506 O   0  0  0  0  0  0  0  0  0  0  0  0
    2.0406   -2.7831   -2.1683 N   0  0  0  0  0  0  0  0  0  0  0  0
    3.1112   -3.7586   -2.1519 C   0  0  0  0  0  0  0  0  0  0  0  0
    3.8589   -3.7480   -0.8336 C   0  0  0  0  0  0  0  0  0  0  0  0
    4.4818   -2.4587   -0.5225 C   0  0  0  0  0  0  0  0  0  0  0  0
    3.8827   -1.4378    0.1795 C   0  0  0  0  0  0  0  0  0  0  0  0
    4.5777   -0.2485    0.4144 C   0  0  0  0  0  0  0  0  0  0  0  0
    5.8603   -0.0459   -0.0326 C   0  0  0  0  0  0  0  0  0  0  0  0
    6.4614   -1.0671   -0.7356 C   0  0  0  0  0  0  0  0  0  0  0  0
    5.7831   -2.2391   -0.9699 C   0  0  0  0  0  0  0  0  0  0  0  0
    6.6214    1.1685    0.1854 C   0  0  0  0  0  0  0  0  0  0  0  0
    8.0120    1.0688    0.3044 C   0  0  0  0  0  0  0  0  0  0  0  0
    8.8116    2.1664    0.5116 C   0  0  0  0  0  0  0  0  0  0  0  0
    8.2556    3.4281    0.6108 C   0  0  0  0  0  0  0  0  0  0  0  0
    6.8987    3.5310    0.4954 C   0  0  0  0  0  0  0  0  0  0  0  0
    6.0844    2.4207    0.2853 C   0  0  0  0  0  0  0  0  0  0  0  0
   -2.0394    1.3149    2.6520 H   0  0  0  0  0  0  0  0  0  0  0  0
   -1.2443   -0.0694    1.9036 H   0  0  0  0  0  0  0  0  0  0  0  0
   -1.5195    1.3924    0.9473 H   0  0  0  0  0  0  0  0  0  0  0  0
   -3.9948    0.2876    2.1954 H   0  0  0  0  0  0  0  0  0  0  0  0
   -3.7379    2.1738    0.6259 H   0  0  0  0  0  0  0  0  0  0  0  0
   -4.1819    0.6319   -1.8565 H   0  0  0  0  0  0  0  0  0  0  0  0
   -3.0460    1.9286   -1.5055 H   0  0  0  0  0  0  0  0  0  0  0  0
   -3.1324   -3.2049    1.4818 H   0  0  0  0  0  0  0  0  0  0  0  0
   -2.0376   -1.9652    2.2934 H   0  0  0  0  0  0  0  0  0  0  0  0
   -3.7759   -1.9892    2.5750 H   0  0  0  0  0  0  0  0  0  0  0  0
   -4.9400   -2.4694    0.3897 H   0  0  0  0  0  0  0  0  0  0  0  0
   -4.4494   -1.6222   -1.0743 H   0  0  0  0  0  0  0  0  0  0  0  0
   -6.4943   -0.6864   -0.3926 H   0  0  0  0  0  0  0  0  0  0  0  0
   -6.1158   -0.7628    1.3520 H   0  0  0  0  0  0  0  0  0  0  0  0
   -6.0099    1.3708    2.1447 H   0  0  0  0  0  0  0  0  0  0  0  0
   -7.1834    1.5339    0.8232 H   0  0  0  0  0  0  0  0  0  0  0  0
   -4.8923    3.5589    1.5256 H   0  0  0  0  0  0  0  0  0  0  0  0
   -5.0931    4.4308   -0.8223 H   0  0  0  0  0  0  0  0  0  0  0  0
   -6.2786    3.1010   -1.2612 H   0  0  0  0  0  0  0  0  0  0  0  0
   -6.7450    5.1625    1.1230 H   0  0  0  0  0  0  0  0  0  0  0  0
   -7.8847    3.8384    0.5518 H   0  0  0  0  0  0  0  0  0  0  0  0
   -1.1377   -2.7853    0.4268 H   0  0  0  0  0  0  0  0  0  0  0  0
    0.5734   -0.6843   -2.8627 H   0  0  0  0  0  0  0  0  0  0  0  0
   -1.2800    0.9241   -2.8178 H   0  0  0  0  0  0  0  0  0  0  0  0
    2.0870   -2.0422   -2.8904 H   0  0  0  0  0  0  0  0  0  0  0  0
    3.8425   -3.5957   -2.9447 H   0  0  0  0  0  0  0  0  0  0  0  0
    2.7098   -4.7842   -2.2876 H   0  0  0  0  0  0  0  0  0  0  0  0
    3.2088   -4.0282    0.0343 H   0  0  0  0  0  0  0  0  0  0  0  0
    4.6546   -4.5202   -0.8440 H   0  0  0  0  0  0  0  0  0  0  0  0
    2.8843   -1.5743    0.5375 H   0  0  0  0  0  0  0  0  0  0  0  0
    4.1103    0.5637    0.9691 H   0  0  0  0  0  0  0  0  0  0  0  0
    7.4787   -0.9942   -1.1292 H   0  0  0  0  0  0  0  0  0  0  0  0
    6.2880   -3.0386   -1.5345 H   0  0  0  0  0  0  0  0  0  0  0  0
    8.5163    0.1091    0.2366 H   0  0  0  0  0  0  0  0  0  0  0  0
    9.8905    2.0470    0.5990 H   0  0  0  0  0  0  0  0  0  0  0  0
    8.9323    4.2529    0.7737 H   0  0  0  0  0  0  0  0  0  0  0  0
    6.4776    4.5387    0.5767 H   0  0  0  0  0  0  0  0  0  0  0  0
    5.0209    2.5345    0.1987 H   0  0  0  0  0  0  0  0  0  0  0  0
  1  2  1  0
  2  3  1  0
  3  4  1  0
  4  5  1  0
  5  6  2  0
  6  7  1  0
  7  8  1  1
  7  9  1  0
  9 10  1  0
 10 11  1  0
 11 12  1  0
 12 13  1  0
 13 14  1  0
 14 15  1  0
  6 16  1  0
 16 17  2  0
 17 18  1  0
 18 19  2  0
 17 20  1  0
 20 21  2  0
 20 22  1  0
 22 23  1  0
 23 24  1  0
 24 25  1  0
 25 26  2  0
 26 27  1  0
 27 28  2  0
 28 29  1  0
 29 30  2  0
 28 31  1  0
 31 32  2  0
 32 33  1  0
 33 34  2  0
 34 35  1  0
 35 36  2  0
  7  2  1  0
 15 13  1  0
 30 25  1  0
 36 31  1  0
 11  3  1  0
 19  5  1  0
  1 37  1  0
  1 38  1  0
  1 39  1  0
  2 40  1  1
  3 41  1  1
  4 42  1  0
  4 43  1  0
  8 44  1  0
  8 45  1  0
  8 46  1  0
  9 47  1  0
  9 48  1  0
 10 49  1  0
 10 50  1  0
 12 51  1  0
 12 52  1  0
 13 53  1  0
 14 54  1  0
 14 55  1  0
 15 56  1  0
 15 57  1  0
 16 58  1  0
 18 59  1  0
 19 60  1  0
 22 61  1  0
 23 62  1  0
 23 63  1  0
 24 64  1  0
 24 65  1  0
 26 66  1  0
 27 67  1  0
 29 68  1  0
 30 69  1  0
 32 70  1  0
 33 71  1  0
 34 72  1  0
 35 73  1  0
 36 74  1  0
M  END
>  <Ligand ID>  (1) 
LIG0002272

>  <Ligand>  (1) 
CHEMBL210005

>  <SMILES>  (1) 
C[C@H]1[C@H]2Cc3c([C@]1(C)CCN2CC1CC1)cc(cc3)C(=O)NCCc1ccc(cc1)c1ccccc1

>  <CID>  (1) 
16083041.0

>  <ChEMBL ID>  (1) 
nan

>  <InChiKey>  (1) 
GZDNGLGWJBOMSN-XAEFOYQYSA-N

>  <InChi>  (1) 
InChI=1S/C33H38N2O/c1-23-31-21-28-14-15-29(20-30(28)33(23,2)17-19-35(31)22-25-8-9-25)32(36)34-18-16-24-10-12-27(13-11-24)26-6-4-3-5-7-26/h3-7,10-15,20,23,25,31H,8-9,16-19,21-22H2,1-2H3,(H,34,36)/t23-,31+,33+/m0/s1

>  <IUPAC Name>  (1) 
(1R,9R,13R)-10-(cyclopropylmethyl)-1,13-dimethyl-N-[2-(4-phenylphenyl)ethyl]-10-azatricyclo[7.3.1.02,7]trideca-2(7),3,5-triene-4-carboxamide

$$$$
