
     RDKit          3D

 41 44  0  0  0  0  0  0  0  0999 V2000
    4.8016    3.1881    0.0058 Cl  0  0  0  0  0  0  0  0  0  0  0  0
    4.8023    1.4359    0.0084 C   0  0  0  0  0  0  0  0  0  0  0  0
    3.7392    0.7387   -0.5615 C   0  0  0  0  0  0  0  0  0  0  0  0
    3.8232   -0.6364   -0.5148 C   0  0  0  0  0  0  0  0  0  0  0  0
    4.9014   -1.2724    0.0649 C   0  0  0  0  0  0  0  0  0  0  0  0
    5.9469   -0.5775    0.6251 C   0  0  0  0  0  0  0  0  0  0  0  0
    5.8789    0.7982    0.5870 C   0  0  0  0  0  0  0  0  0  0  0  0
    7.2221    1.6764    1.3072 Cl  0  0  0  0  0  0  0  0  0  0  0  0
    2.7604   -1.5256   -1.0867 C   0  0  0  0  0  0  0  0  0  0  0  0
    1.4964   -1.9240    0.1211 S   0  0  0  0  0  0  0  0  0  0  0  0
    0.5146   -0.5215    0.6079 C   0  0  0  0  0  0  0  0  0  0  0  0
    0.8263    0.2941    1.6132 N   0  0  0  0  0  0  0  0  0  0  0  0
   -0.0987    1.2029    1.7101 N   0  0  0  0  0  0  0  0  0  0  0  0
   -1.0254    0.9876    0.7655 C   0  0  0  0  0  0  0  0  0  0  0  0
   -0.6414   -0.1076    0.0610 N   0  0  0  0  0  0  0  0  0  0  0  0
   -1.3441   -0.7052   -1.0497 C   0  0  0  0  0  0  0  0  0  0  0  0
   -2.2861   -1.7233   -0.5466 C   0  0  0  0  0  0  0  0  0  0  0  0
   -2.0696   -3.0722   -0.3760 C   0  0  0  0  0  0  0  0  0  0  0  0
   -3.0500   -3.8248    0.1004 C   0  0  0  0  0  0  0  0  0  0  0  0
   -4.2504   -3.1755    0.3983 C   0  0  0  0  0  0  0  0  0  0  0  0
   -3.9539   -1.4025   -0.0276 S   0  0  0  0  0  0  0  0  0  0  0  0
   -2.2042    1.8170    0.5923 C   0  0  0  0  0  0  0  0  0  0  0  0
   -2.6986    2.5437    1.6733 C   0  0  0  0  0  0  0  0  0  0  0  0
   -3.8132    3.3465    1.5811 C   0  0  0  0  0  0  0  0  0  0  0  0
   -4.4661    3.4354    0.3722 C   0  0  0  0  0  0  0  0  0  0  0  0
   -3.9656    2.7119   -0.6855 C   0  0  0  0  0  0  0  0  0  0  0  0
   -2.8801    1.9428   -0.5571 N   0  0  0  0  0  0  0  0  0  0  0  0
    2.8925    1.2297   -1.0166 H   0  0  0  0  0  0  0  0  0  0  0  0
    4.9841   -2.3677    0.1102 H   0  0  0  0  0  0  0  0  0  0  0  0
    6.7796   -1.1025    1.0730 H   0  0  0  0  0  0  0  0  0  0  0  0
    2.2550   -1.0064   -1.9410 H   0  0  0  0  0  0  0  0  0  0  0  0
    3.1847   -2.4719   -1.4631 H   0  0  0  0  0  0  0  0  0  0  0  0
   -1.9337    0.0458   -1.6105 H   0  0  0  0  0  0  0  0  0  0  0  0
   -0.6914   -1.2034   -1.7692 H   0  0  0  0  0  0  0  0  0  0  0  0
   -1.0676   -3.4882   -0.6484 H   0  0  0  0  0  0  0  0  0  0  0  0
   -2.9839   -4.9119    0.2753 H   0  0  0  0  0  0  0  0  0  0  0  0
   -5.2170   -3.5471    0.8016 H   0  0  0  0  0  0  0  0  0  0  0  0
   -2.2066    2.4878    2.6215 H   0  0  0  0  0  0  0  0  0  0  0  0
   -4.1604    3.8880    2.4372 H   0  0  0  0  0  0  0  0  0  0  0  0
   -5.3585    4.0551    0.2282 H   0  0  0  0  0  0  0  0  0  0  0  0
   -4.4429    2.7421   -1.6727 H   0  0  0  0  0  0  0  0  0  0  0  0
  1  2  1  0
  2  3  2  0
  3  4  1  0
  4  5  2  0
  5  6  1  0
  6  7  2  0
  7  8  1  0
  4  9  1  0
  9 10  1  0
 10 11  1  0
 11 12  2  0
 12 13  1  0
 13 14  2  0
 14 15  1  0
 15 16  1  0
 16 17  1  0
 17 18  2  0
 18 19  1  0
 19 20  2  0
 20 21  1  0
 14 22  1  0
 22 23  2  0
 23 24  1  0
 24 25  2  0
 25 26  1  0
 26 27  2  0
  7  2  1  0
 15 11  1  0
 21 17  1  0
 27 22  1  0
  3 28  1  0
  5 29  1  0
  6 30  1  0
  9 31  1  0
  9 32  1  0
 16 33  1  0
 16 34  1  0
 18 35  1  0
 19 36  1  0
 20 37  1  0
 23 38  1  0
 24 39  1  0
 25 40  1  0
 26 41  1  0
M  END
>  <Ligand ID>  (1) 
LIG0002776

>  <Ligand>  (1) 
KUC103903N

>  <SMILES>  (1) 
Clc1cc(ccc1Cl)CSc1nnc(n1Cc1cccs1)c1ccccn1

>  <CID>  (1) 
44601475.0

>  <ChEMBL ID>  (1) 
nan

>  <InChiKey>  (1) 
FCROWDAKNKFHDO-UHFFFAOYSA-N

>  <InChi>  (1) 
InChI=1S/C19H14Cl2N4S2/c20-15-7-6-13(10-16(15)21)12-27-19-24-23-18(17-5-1-2-8-22-17)25(19)11-14-4-3-9-26-14/h1-10H,11-12H2

>  <IUPAC Name>  (1) 
2-[5-[(3,4-dichlorophenyl)methylsulfanyl]-4-(thiophen-2-ylmethyl)-1,2,4-triazol-3-yl]pyridine

$$$$
