
     RDKit          3D

 51 52  0  0  0  0  0  0  0  0999 V2000
   -1.0268   -1.1482    2.5601 O   0  0  0  0  0  0  0  0  0  0  0  0
   -0.9472   -0.7401    1.3559 C   0  0  0  0  0  0  0  0  0  0  0  0
    0.3768   -0.4274    0.8333 C   0  0  1  0  0  0  0  0  0  0  0  0
    1.3648   -1.5499    0.9831 C   0  0  0  0  0  0  0  0  0  0  0  0
    2.6908   -1.1986    0.4447 C   0  0  0  0  0  0  0  0  0  0  0  0
    3.5883   -0.5960    1.3172 C   0  0  0  0  0  0  0  0  0  0  0  0
    4.8478   -0.2286    0.9221 C   0  0  0  0  0  0  0  0  0  0  0  0
    5.2280   -0.4715   -0.3952 C   0  0  0  0  0  0  0  0  0  0  0  0
    4.3662   -1.0678   -1.2924 C   0  0  0  0  0  0  0  0  0  0  0  0
    3.0864   -1.4311   -0.8571 C   0  0  0  0  0  0  0  0  0  0  0  0
    6.5231   -0.1089   -0.8593 N   0  0  0  0  0  0  0  0  0  0  0  0
    6.9298    1.0858   -0.5873 C   0  0  0  0  0  0  0  0  0  0  0  0
    6.1124    2.0151    0.1536 N   0  0  0  0  0  0  0  0  0  0  0  0
    8.2131    1.5250   -1.0169 N   0  0  0  0  0  0  0  0  0  0  0  0
    0.3736    0.0036   -0.5436 N   0  0  0  0  0  0  0  0  0  0  0  0
   -2.1601   -0.6115    0.5861 N   0  0  0  0  0  0  0  0  0  0  0  0
   -3.4098   -0.9444    1.1961 C   0  0  2  0  0  0  0  0  0  0  0  0
   -4.0562   -2.0962    0.5154 C   0  0  0  0  0  0  0  0  0  0  0  0
   -5.1843   -2.5605    0.8996 O   0  0  0  0  0  0  0  0  0  0  0  0
   -3.3976   -2.7120   -0.6107 N   0  0  0  0  0  0  0  0  0  0  0  0
   -4.3536    0.2216    1.3730 C   0  0  0  0  0  0  0  0  0  0  0  0
   -4.7453    0.8987    0.1365 C   0  0  0  0  0  0  0  0  0  0  0  0
   -4.0451    1.9699   -0.4063 C   0  0  0  0  0  0  0  0  0  0  0  0
   -4.4251    2.5912   -1.5633 C   0  0  0  0  0  0  0  0  0  0  0  0
   -5.5645    2.1368   -2.2355 C   0  0  0  0  0  0  0  0  0  0  0  0
   -6.2989    1.0608   -1.7236 C   0  0  0  0  0  0  0  0  0  0  0  0
   -5.8848    0.4486   -0.5411 C   0  0  0  0  0  0  0  0  0  0  0  0
    0.7898    0.4227    1.4538 H   0  0  0  0  0  0  0  0  0  0  0  0
    0.9736   -2.3843    0.3454 H   0  0  0  0  0  0  0  0  0  0  0  0
    1.4103   -1.9628    2.0133 H   0  0  0  0  0  0  0  0  0  0  0  0
    3.3123   -0.3956    2.3554 H   0  0  0  0  0  0  0  0  0  0  0  0
    5.5326    0.2459    1.6371 H   0  0  0  0  0  0  0  0  0  0  0  0
    4.6668   -1.2547   -2.3150 H   0  0  0  0  0  0  0  0  0  0  0  0
    2.3737   -1.8997   -1.5176 H   0  0  0  0  0  0  0  0  0  0  0  0
    5.1752    2.3115   -0.2328 H   0  0  0  0  0  0  0  0  0  0  0  0
    6.4293    2.4082    1.0771 H   0  0  0  0  0  0  0  0  0  0  0  0
    9.0993    1.0562   -0.7036 H   0  0  0  0  0  0  0  0  0  0  0  0
    8.3429    2.3384   -1.6678 H   0  0  0  0  0  0  0  0  0  0  0  0
    1.3260    0.2878   -0.8557 H   0  0  0  0  0  0  0  0  0  0  0  0
   -0.2791    0.8183   -0.6537 H   0  0  0  0  0  0  0  0  0  0  0  0
   -2.1044   -0.2780   -0.4014 H   0  0  0  0  0  0  0  0  0  0  0  0
   -3.2144   -1.2884    2.2555 H   0  0  0  0  0  0  0  0  0  0  0  0
   -3.6448   -3.6732   -0.9328 H   0  0  0  0  0  0  0  0  0  0  0  0
   -2.6571   -2.1896   -1.1178 H   0  0  0  0  0  0  0  0  0  0  0  0
   -3.8939    0.9038    2.1281 H   0  0  0  0  0  0  0  0  0  0  0  0
   -5.2406   -0.2039    1.8980 H   0  0  0  0  0  0  0  0  0  0  0  0
   -3.1642    2.3145    0.1214 H   0  0  0  0  0  0  0  0  0  0  0  0
   -3.9018    3.4258   -2.0099 H   0  0  0  0  0  0  0  0  0  0  0  0
   -5.8797    2.6266   -3.1642 H   0  0  0  0  0  0  0  0  0  0  0  0
   -7.1774    0.6864   -2.2126 H   0  0  0  0  0  0  0  0  0  0  0  0
   -6.4767   -0.3801   -0.1754 H   0  0  0  0  0  0  0  0  0  0  0  0
  1  2  2  0
  2  3  1  0
  3  4  1  0
  4  5  1  0
  5  6  2  0
  6  7  1  0
  7  8  2  0
  8  9  1  0
  9 10  2  0
  8 11  1  0
 11 12  2  3
 12 13  1  0
 12 14  1  0
  3 15  1  0
  2 16  1  0
 16 17  1  0
 17 18  1  0
 18 19  2  0
 18 20  1  0
 17 21  1  0
 21 22  1  0
 22 23  2  0
 23 24  1  0
 24 25  2  0
 25 26  1  0
 26 27  2  0
 10  5  1  0
 27 22  1  0
  3 28  1  1
  4 29  1  0
  4 30  1  0
  6 31  1  0
  7 32  1  0
  9 33  1  0
 10 34  1  0
 13 35  1  0
 13 36  1  0
 14 37  1  0
 14 38  1  0
 15 39  1  0
 15 40  1  0
 16 41  1  0
 17 42  1  1
 20 43  1  0
 20 44  1  0
 21 45  1  0
 21 46  1  0
 23 47  1  0
 24 48  1  0
 25 49  1  0
 26 50  1  0
 27 51  1  0
M  END
>  <Ligand ID>  (1) 
LIG0002613

>  <Ligand>  (1) 
CHEMBL3343994

>  <SMILES>  (1) 
O=C([C@@H](Cc1ccc(cc1)N=C(N)N)N)N[C@H](C(=O)N)Cc1ccccc1

>  <CID>  (1) 
118717468.0

>  <ChEMBL ID>  (1) 
nan

>  <InChiKey>  (1) 
JGVSHHWPQVGYRT-CVEARBPZSA-N

>  <InChi>  (1) 
InChI=1S/C19H24N6O2/c20-15(10-13-6-8-14(9-7-13)24-19(22)23)18(27)25-16(17(21)26)11-12-4-2-1-3-5-12/h1-9,15-16H,10-11,20H2,(H2,21,26)(H,25,27)(H4,22,23,24)/t15-,16+/m1/s1

>  <IUPAC Name>  (1) 
(2R)-2-amino-N-[(2S)-1-amino-1-oxo-3-phenylpropan-2-yl]-3-[4-(diaminomethylideneamino)phenyl]propanamide

$$$$
