
     RDKit          3D

134138  0  0  0  0  0  0  0  0999 V2000
    2.8364   -7.8110   -5.8455 N   0  0  0  0  0  0  0  0  0  0  0  0
    3.2384   -6.7033   -5.0424 C   0  0  0  0  0  0  0  0  0  0  0  0
    2.6577   -6.5271   -3.9236 N   0  0  0  0  0  0  0  0  0  0  0  0
    2.9261   -5.4767   -2.9877 C   0  0  0  0  0  0  0  0  0  0  0  0
    1.6555   -4.7186   -2.5723 C   0  0  0  0  0  0  0  0  0  0  0  0
    2.0891   -3.6702   -1.5904 C   0  0  0  0  0  0  0  0  0  0  0  0
    1.0296   -2.7999   -1.0452 C   0  0  1  0  0  0  0  0  0  0  0  0
   -0.0365   -3.4499   -0.3209 N   0  0  0  0  0  0  0  0  0  0  0  0
   -1.2882   -2.7646   -0.2164 C   0  0  0  0  0  0  0  0  0  0  0  0
   -1.2602   -1.6054   -0.7190 O   0  0  0  0  0  0  0  0  0  0  0  0
   -2.5204   -3.2191    0.3800 C   0  0  2  0  0  0  0  0  0  0  0  0
   -3.2877   -4.2803   -0.3934 C   0  0  0  0  0  0  0  0  0  0  0  0
   -2.5947   -5.5392   -0.6068 C   0  0  0  0  0  0  0  0  0  0  0  0
   -2.6952   -6.4951    0.4185 C   0  0  0  0  0  0  0  0  0  0  0  0
   -2.1186   -7.7356    0.3296 C   0  0  0  0  0  0  0  0  0  0  0  0
   -1.4045   -8.0965   -0.7938 C   0  0  0  0  0  0  0  0  0  0  0  0
   -1.3082   -7.1576   -1.7961 C   0  0  0  0  0  0  0  0  0  0  0  0
   -1.8818   -5.9019   -1.7248 C   0  0  0  0  0  0  0  0  0  0  0  0
   -3.4243   -2.0601    0.5753 N   0  0  0  0  0  0  0  0  0  0  0  0
   -4.5002   -2.1157    1.5308 C   0  0  0  0  0  0  0  0  0  0  0  0
   -4.6628   -3.2376    2.0381 O   0  0  0  0  0  0  0  0  0  0  0  0
   -5.3410   -0.9504    1.8694 C   0  0  1  0  0  0  0  0  0  0  0  0
   -5.2889   -0.7644    3.3904 C   0  0  0  0  0  0  0  0  0  0  0  0
   -5.7747   -1.8963    4.1645 C   0  0  0  0  0  0  0  0  0  0  0  0
   -5.1776   -2.9712    4.6918 N   0  0  0  0  0  0  0  0  0  0  0  0
   -6.0678   -3.7660    5.3209 C   0  0  0  0  0  0  0  0  0  0  0  0
   -7.2772   -3.1996    5.2049 N   0  0  0  0  0  0  0  0  0  0  0  0
   -7.1285   -2.0541    4.5020 C   0  0  0  0  0  0  0  0  0  0  0  0
   -4.7328    0.2498    1.3439 N   0  0  0  0  0  0  0  0  0  0  0  0
   -5.4136    1.3583    0.7690 C   0  0  0  0  0  0  0  0  0  0  0  0
   -6.6182    1.2931    0.6773 O   0  0  0  0  0  0  0  0  0  0  0  0
   -4.5128    2.4978    0.3455 C   0  0  2  0  0  0  0  0  0  0  0  0
   -5.3032    3.6115   -0.1317 N   0  0  0  0  0  0  0  0  0  0  0  0
   -6.4114    3.5501   -0.9820 C   0  0  0  0  0  0  0  0  0  0  0  0
   -6.9054    2.5153   -1.4831 O   0  0  0  0  0  0  0  0  0  0  0  0
   -7.0976    4.8353   -1.3482 C   0  0  0  0  0  0  0  0  0  0  0  0
   -3.5616    2.0208   -0.7367 C   0  0  0  0  0  0  0  0  0  0  0  0
   -2.4810    3.0732   -0.7960 C   0  0  0  0  0  0  0  0  0  0  0  0
   -2.4519    3.8850    0.1096 O   0  0  0  0  0  0  0  0  0  0  0  0
   -1.5245    3.1475   -1.8252 N   0  0  0  0  0  0  0  0  0  0  0  0
   -0.4312    4.0116   -2.0280 C   0  0  0  0  0  0  0  0  0  0  0  0
   -0.5418    5.4665   -2.1460 C   0  0  0  0  0  0  0  0  0  0  0  0
   -0.9482    6.3146   -1.0196 C   0  0  0  0  0  0  0  0  0  0  0  0
   -0.2356    6.2522    0.2626 C   0  0  0  0  0  0  0  0  0  0  0  0
    1.2185    6.6027    0.3383 C   0  0  1  0  0  0  0  0  0  0  0  0
    2.0745    5.7298   -0.4380 N   0  0  0  0  0  0  0  0  0  0  0  0
    2.6735    4.5604    0.1837 C   0  0  0  0  0  0  0  0  0  0  0  0
    2.3670    4.4171    1.3745 O   0  0  0  0  0  0  0  0  0  0  0  0
    3.5612    3.6369   -0.5637 C   0  0  2  0  0  0  0  0  0  0  0  0
    3.8262    2.4287    0.2333 N   0  0  0  0  0  0  0  0  0  0  0  0
    3.3666    1.1856   -0.2670 C   0  0  0  0  0  0  0  0  0  0  0  0
    2.7554    1.2314   -1.3497 O   0  0  0  0  0  0  0  0  0  0  0  0
    3.5417   -0.1405    0.3695 C   0  0  1  0  0  0  0  0  0  0  0  0
    2.8037   -1.0860   -0.4931 N   0  0  0  0  0  0  0  0  0  0  0  0
    1.7277   -1.8908   -0.0383 C   0  0  0  0  0  0  0  0  0  0  0  0
    1.4209   -1.8070    1.1406 O   0  0  0  0  0  0  0  0  0  0  0  0
    4.9982   -0.5529    0.4157 C   0  0  0  0  0  0  0  0  0  0  0  0
    5.8819    0.3477    1.1499 C   0  0  0  0  0  0  0  0  0  0  0  0
    6.8018    1.1977    0.5151 C   0  0  0  0  0  0  0  0  0  0  0  0
    7.4673    1.8779    1.4691 N   0  0  0  0  0  0  0  0  0  0  0  0
    7.0280    1.5138    2.6982 C   0  0  0  0  0  0  0  0  0  0  0  0
    6.0337    0.5543    2.5035 C   0  0  0  0  0  0  0  0  0  0  0  0
    5.3751   -0.0270    3.5606 C   0  0  0  0  0  0  0  0  0  0  0  0
    5.7348    0.3767    4.8414 C   0  0  0  0  0  0  0  0  0  0  0  0
    6.7021    1.3118    5.0603 C   0  0  0  0  0  0  0  0  0  0  0  0
    7.3683    1.8988    3.9914 C   0  0  0  0  0  0  0  0  0  0  0  0
    4.8571    4.3430   -0.8964 C   0  0  0  0  0  0  0  0  0  0  0  0
    1.5170    8.0342    0.1079 C   0  0  0  0  0  0  0  0  0  0  0  0
    2.4193    8.4372   -0.6751 O   0  0  0  0  0  0  0  0  0  0  0  0
    0.7026    8.9700    0.8420 N   0  0  0  0  0  0  0  0  0  0  0  0
    4.2680   -5.8558   -5.5446 N   0  0  0  0  0  0  0  0  0  0  0  0
    2.6495   -7.7333   -6.8752 H   0  0  0  0  0  0  0  0  0  0  0  0
    2.7047   -8.7708   -5.4445 H   0  0  0  0  0  0  0  0  0  0  0  0
    3.5877   -4.6809   -3.4043 H   0  0  0  0  0  0  0  0  0  0  0  0
    3.3676   -5.8393   -2.0318 H   0  0  0  0  0  0  0  0  0  0  0  0
    0.9089   -5.4119   -2.1617 H   0  0  0  0  0  0  0  0  0  0  0  0
    1.2420   -4.2895   -3.5028 H   0  0  0  0  0  0  0  0  0  0  0  0
    2.9070   -3.0924   -2.1054 H   0  0  0  0  0  0  0  0  0  0  0  0
    2.6397   -4.1454   -0.7204 H   0  0  0  0  0  0  0  0  0  0  0  0
    0.6193   -2.1065   -1.8298 H   0  0  0  0  0  0  0  0  0  0  0  0
   -0.0057   -4.3575    0.1379 H   0  0  0  0  0  0  0  0  0  0  0  0
   -2.4028   -3.6612    1.3869 H   0  0  0  0  0  0  0  0  0  0  0  0
   -3.5194   -3.7894   -1.3894 H   0  0  0  0  0  0  0  0  0  0  0  0
   -4.2866   -4.3908    0.0720 H   0  0  0  0  0  0  0  0  0  0  0  0
   -3.2523   -6.2551    1.3343 H   0  0  0  0  0  0  0  0  0  0  0  0
   -2.2404   -8.4316    1.1748 H   0  0  0  0  0  0  0  0  0  0  0  0
   -0.9587   -9.0816   -0.8388 H   0  0  0  0  0  0  0  0  0  0  0  0
   -0.7499   -7.4407   -2.6785 H   0  0  0  0  0  0  0  0  0  0  0  0
   -1.7972   -5.1754   -2.5206 H   0  0  0  0  0  0  0  0  0  0  0  0
   -3.3478   -1.1911    0.0638 H   0  0  0  0  0  0  0  0  0  0  0  0
   -6.3953   -1.0667    1.5448 H   0  0  0  0  0  0  0  0  0  0  0  0
   -5.9005    0.1634    3.5795 H   0  0  0  0  0  0  0  0  0  0  0  0
   -4.2423   -0.4861    3.6337 H   0  0  0  0  0  0  0  0  0  0  0  0
   -4.1673   -3.1953    4.6539 H   0  0  0  0  0  0  0  0  0  0  0  0
   -5.8268   -4.6992    5.8287 H   0  0  0  0  0  0  0  0  0  0  0  0
   -7.9400   -1.3776    4.2484 H   0  0  0  0  0  0  0  0  0  0  0  0
   -3.7128    0.3172    1.3849 H   0  0  0  0  0  0  0  0  0  0  0  0
   -4.0263    2.8064    1.2868 H   0  0  0  0  0  0  0  0  0  0  0  0
   -5.0071    4.5742    0.1995 H   0  0  0  0  0  0  0  0  0  0  0  0
   -7.8914    5.0019   -0.6128 H   0  0  0  0  0  0  0  0  0  0  0  0
   -7.4893    4.7549   -2.3915 H   0  0  0  0  0  0  0  0  0  0  0  0
   -6.3422    5.6318   -1.3374 H   0  0  0  0  0  0  0  0  0  0  0  0
   -3.0667    1.1003   -0.3723 H   0  0  0  0  0  0  0  0  0  0  0  0
   -4.0494    1.9006   -1.7017 H   0  0  0  0  0  0  0  0  0  0  0  0
   -1.6981    2.3949   -2.5675 H   0  0  0  0  0  0  0  0  0  0  0  0
    0.3902    3.7091   -1.2863 H   0  0  0  0  0  0  0  0  0  0  0  0
    0.0555    3.6656   -3.0178 H   0  0  0  0  0  0  0  0  0  0  0  0
   -1.3299    5.6941   -2.9739 H   0  0  0  0  0  0  0  0  0  0  0  0
    0.3669    5.9339   -2.6214 H   0  0  0  0  0  0  0  0  0  0  0  0
   -2.0597    6.2443   -0.8530 H   0  0  0  0  0  0  0  0  0  0  0  0
   -0.8931    7.3930   -1.4463 H   0  0  0  0  0  0  0  0  0  0  0  0
   -0.3177    5.2691    0.7893 H   0  0  0  0  0  0  0  0  0  0  0  0
   -0.7399    6.9601    1.0051 H   0  0  0  0  0  0  0  0  0  0  0  0
    1.4862    6.4340    1.4556 H   0  0  0  0  0  0  0  0  0  0  0  0
    2.3364    5.8418   -1.4139 H   0  0  0  0  0  0  0  0  0  0  0  0
    3.0534    3.4025   -1.5113 H   0  0  0  0  0  0  0  0  0  0  0  0
    4.3056    2.4147    1.1223 H   0  0  0  0  0  0  0  0  0  0  0  0
    3.1616   -0.1122    1.3917 H   0  0  0  0  0  0  0  0  0  0  0  0
    3.0640   -1.1765   -1.4698 H   0  0  0  0  0  0  0  0  0  0  0  0
    4.9827   -1.5906    0.8630 H   0  0  0  0  0  0  0  0  0  0  0  0
    5.3496   -0.7191   -0.6271 H   0  0  0  0  0  0  0  0  0  0  0  0
    6.9865    1.3264   -0.5326 H   0  0  0  0  0  0  0  0  0  0  0  0
    8.2316    2.6014    1.3264 H   0  0  0  0  0  0  0  0  0  0  0  0
    4.6094   -0.7637    3.4471 H   0  0  0  0  0  0  0  0  0  0  0  0
    5.2189   -0.0777    5.6788 H   0  0  0  0  0  0  0  0  0  0  0  0
    6.9759    1.6211    6.0706 H   0  0  0  0  0  0  0  0  0  0  0  0
    8.1479    2.6486    4.1422 H   0  0  0  0  0  0  0  0  0  0  0  0
    5.2344    4.7856    0.0536 H   0  0  0  0  0  0  0  0  0  0  0  0
    5.5985    3.5526   -1.1730 H   0  0  0  0  0  0  0  0  0  0  0  0
    4.6592    5.0762   -1.6757 H   0  0  0  0  0  0  0  0  0  0  0  0
    0.6896    8.8435    1.8990 H   0  0  0  0  0  0  0  0  0  0  0  0
    0.1590    9.7248    0.3723 H   0  0  0  0  0  0  0  0  0  0  0  0
    5.1153   -6.2862   -5.9750 H   0  0  0  0  0  0  0  0  0  0  0  0
    4.1366   -4.8037   -5.4623 H   0  0  0  0  0  0  0  0  0  0  0  0
  1  2  1  0
  2  3  2  3
  3  4  1  0
  4  5  1  0
  5  6  1  0
  6  7  1  0
  7  8  1  0
  8  9  1  0
  9 10  2  0
  9 11  1  0
 11 12  1  0
 12 13  1  0
 13 14  2  0
 14 15  1  0
 15 16  2  0
 16 17  1  0
 17 18  2  0
 11 19  1  0
 19 20  1  0
 20 21  2  0
 20 22  1  0
 22 23  1  0
 23 24  1  0
 24 25  1  0
 25 26  1  0
 26 27  2  0
 27 28  1  0
 22 29  1  0
 29 30  1  0
 30 31  2  0
 30 32  1  0
 32 33  1  0
 33 34  1  0
 34 35  2  0
 34 36  1  0
 32 37  1  0
 37 38  1  0
 38 39  2  0
 38 40  1  0
 40 41  1  0
 41 42  1  0
 42 43  1  0
 43 44  1  0
 44 45  1  0
 45 46  1  0
 46 47  1  0
 47 48  2  0
 47 49  1  0
 49 50  1  0
 50 51  1  0
 51 52  2  0
 51 53  1  0
 53 54  1  0
 54 55  1  0
 55 56  2  0
 53 57  1  0
 57 58  1  0
 58 59  2  0
 59 60  1  0
 60 61  1  0
 61 62  2  0
 62 63  1  0
 63 64  2  0
 64 65  1  0
 65 66  2  0
 49 67  1  0
 45 68  1  0
 68 69  2  0
 68 70  1  0
  2 71  1  0
 55  7  1  0
 62 58  1  0
 18 13  1  0
 28 24  2  0
 66 61  1  0
  1 72  1  0
  1 73  1  0
  4 74  1  0
  4 75  1  0
  5 76  1  0
  5 77  1  0
  6 78  1  0
  6 79  1  0
  7 80  1  6
  8 81  1  0
 11 82  1  1
 12 83  1  0
 12 84  1  0
 14 85  1  0
 15 86  1  0
 16 87  1  0
 17 88  1  0
 18 89  1  0
 19 90  1  0
 22 91  1  6
 23 92  1  0
 23 93  1  0
 25 94  1  0
 26 95  1  0
 28 96  1  0
 29 97  1  0
 32 98  1  1
 33 99  1  0
 36100  1  0
 36101  1  0
 36102  1  0
 37103  1  0
 37104  1  0
 40105  1  0
 41106  1  0
 41107  1  0
 42108  1  0
 42109  1  0
 43110  1  0
 43111  1  0
 44112  1  0
 44113  1  0
 45114  1  1
 46115  1  0
 49116  1  6
 50117  1  0
 53118  1  1
 54119  1  0
 57120  1  0
 57121  1  0
 59122  1  0
 60123  1  0
 63124  1  0
 64125  1  0
 65126  1  0
 66127  1  0
 67128  1  0
 67129  1  0
 67130  1  0
 70131  1  0
 70132  1  0
 71133  1  0
 71134  1  0
M  END
>  <Ligand ID>  (1) 
LIG0002169

>  <Ligand>  (1) 
CHEMBL410217

>  <SMILES>  (1) 
NC(=NCCC[C@H]1NC(=O)[C@H](Cc2ccccc2)NC(=O)[C@@H](Cc2[nH]cnc2)NC(=O)[C@H](NC(=O)C)CC(=O)NCCCC[C@@H](NC(=O)[C@H](NC(=O)[C@@H](NC1=O)Cc1c[nH]c2c1cccc2)C)C(=O)N)N

>  <CID>  (1) 
44293516.0

>  <ChEMBL ID>  (1) 
nan

>  <InChiKey>  (1) 
VVNAQHKXBHSZIX-WIPVZAJSSA-N

>  <InChi>  (1) 
InChI=1S/C47H63N15O9/c1-26-41(66)58-33(40(48)65)15-8-9-17-52-39(64)22-38(57-27(2)63)46(71)62-37(21-30-24-51-25-55-30)45(70)60-35(19-28-11-4-3-5-12-28)44(69)59-34(16-10-18-53-47(49)50)42(67)61-36(43(68)56-26)20-29-23-54-32-14-7-6-13-31(29)32/h3-7,11-14,23-26,33-38,54H,8-10,15-22H2,1-2H3,(H2,48,65)(H,51,55)(H,52,64)(H,56,68)(H,57,63)(H,58,66)(H,59,69)(H,60,70)(H,61,67)(H,62,71)(H4,49,50,53)/t26-,33-,34-,35+,36+,37-,38-/m1/s1

>  <IUPAC Name>  (1) 
(3R,6S,9R,12S,15R,18R,26R)-18-acetamido-12-benzyl-9-[3-(diaminomethylideneamino)propyl]-15-(1H-imidazol-5-ylmethyl)-6-(1H-indol-3-ylmethyl)-3-methyl-2,5,8,11,14,17,20-heptaoxo-1,4,7,10,13,16,21-heptazacyclohexacosane-26-carboxamide

$$$$
