
     RDKit          3D

 93 96  0  0  0  0  0  0  0  0999 V2000
   -3.0388   -0.1997    3.5480 C   0  0  0  0  0  0  0  0  0  0  0  0
   -3.8643   -0.6081    2.3464 C   0  0  0  0  0  0  0  0  0  0  0  0
   -4.4448   -1.7313    2.4704 O   0  0  0  0  0  0  0  0  0  0  0  0
   -3.9567    0.2131    1.2047 N   0  0  0  0  0  0  0  0  0  0  0  0
   -4.7154   -0.0988    0.0188 C   0  0  2  0  0  0  0  0  0  0  0  0
   -3.7075   -0.4952   -1.0255 C   0  0  0  0  0  0  0  0  0  0  0  0
   -4.1433   -0.7139   -2.1796 O   0  0  0  0  0  0  0  0  0  0  0  0
   -2.3051   -0.6158   -0.6903 N   0  0  0  0  0  0  0  0  0  0  0  0
   -1.4510   -1.0022   -1.7985 C   0  0  1  0  0  0  0  0  0  0  0  0
   -0.1625   -0.3277   -1.8629 C   0  0  0  0  0  0  0  0  0  0  0  0
    0.5734   -0.4830   -2.8686 O   0  0  0  0  0  0  0  0  0  0  0  0
    0.3497    0.5266   -0.8281 N   0  0  0  0  0  0  0  0  0  0  0  0
    1.6778    1.1180   -1.0839 C   0  0  2  0  0  0  0  0  0  0  0  0
    2.7001    0.1766   -0.4744 C   0  0  0  0  0  0  0  0  0  0  0  0
    3.9309    0.3780   -0.5563 O   0  0  0  0  0  0  0  0  0  0  0  0
    2.2529   -1.0029    0.2303 N   0  0  0  0  0  0  0  0  0  0  0  0
    3.2513   -1.9154    0.8132 C   0  0  1  0  0  0  0  0  0  0  0  0
    4.1618   -2.4589   -0.2305 C   0  0  0  0  0  0  0  0  0  0  0  0
    5.5583   -2.7219    0.2530 C   0  0  0  0  0  0  0  0  0  0  0  0
    6.1404   -1.5324    0.9004 C   0  0  0  0  0  0  0  0  0  0  0  0
    5.2941   -0.8111    1.7493 C   0  0  0  0  0  0  0  0  0  0  0  0
    3.8998   -1.2324    1.9700 C   0  0  0  0  0  0  0  0  0  0  0  0
    5.7689    0.3280    2.4037 C   0  0  0  0  0  0  0  0  0  0  0  0
    7.0800    0.7126    2.1884 C   0  0  0  0  0  0  0  0  0  0  0  0
    7.8990   -0.0211    1.3409 C   0  0  0  0  0  0  0  0  0  0  0  0
    7.4483   -1.1485    0.6863 C   0  0  0  0  0  0  0  0  0  0  0  0
    2.4872   -3.0817    1.3958 C   0  0  0  0  0  0  0  0  0  0  0  0
    1.2336   -3.1413    1.3478 O   0  0  0  0  0  0  0  0  0  0  0  0
    3.2819   -4.0914    1.9936 N   0  0  0  0  0  0  0  0  0  0  0  0
    1.7800    2.4909   -0.5355 C   0  0  0  0  0  0  0  0  0  0  0  0
    3.0954    3.1813   -0.7752 C   0  0  0  0  0  0  0  0  0  0  0  0
    3.1000    4.5914   -0.1740 C   0  0  0  0  0  0  0  0  0  0  0  0
    2.1132    5.3879   -0.6692 N   0  0  0  0  0  0  0  0  0  0  0  0
    1.3608    5.7866   -1.4687 C   0  0  0  0  0  0  0  0  0  0  0  0
    1.1875    5.2914   -2.8274 N   0  0  0  0  0  0  0  0  0  0  0  0
    0.4622    6.9006   -1.1753 N   0  0  0  0  0  0  0  0  0  0  0  0
   -1.2635   -2.5241   -1.6340 C   0  0  0  0  0  0  0  0  0  0  0  0
   -2.5356   -3.2510   -1.6723 C   0  0  0  0  0  0  0  0  0  0  0  0
   -3.1808   -3.4577   -0.4512 C   0  0  0  0  0  0  0  0  0  0  0  0
   -4.3877   -4.1403   -0.4510 C   0  0  0  0  0  0  0  0  0  0  0  0
   -4.9797   -4.6222   -1.5844 C   0  0  0  0  0  0  0  0  0  0  0  0
   -4.3198   -4.4059   -2.7936 C   0  0  0  0  0  0  0  0  0  0  0  0
   -3.1116   -3.7268   -2.8231 C   0  0  0  0  0  0  0  0  0  0  0  0
   -5.4744    1.0477   -0.5405 C   0  0  0  0  0  0  0  0  0  0  0  0
   -6.4788    1.6646    0.3423 C   0  0  0  0  0  0  0  0  0  0  0  0
   -6.8413    1.3238    1.6079 C   0  0  0  0  0  0  0  0  0  0  0  0
   -7.7966    2.1808    1.9750 N   0  0  0  0  0  0  0  0  0  0  0  0
   -8.0540    3.0539    0.9869 C   0  0  0  0  0  0  0  0  0  0  0  0
   -7.2227    2.7278   -0.0425 N   0  0  0  0  0  0  0  0  0  0  0  0
   -2.4186    0.6811    3.3099 H   0  0  0  0  0  0  0  0  0  0  0  0
   -3.7514    0.1152    4.3340 H   0  0  0  0  0  0  0  0  0  0  0  0
   -2.4799   -1.0715    3.9164 H   0  0  0  0  0  0  0  0  0  0  0  0
   -3.4282    1.1387    1.2130 H   0  0  0  0  0  0  0  0  0  0  0  0
   -5.3656   -0.9640    0.2643 H   0  0  0  0  0  0  0  0  0  0  0  0
   -1.9607   -0.4328    0.2786 H   0  0  0  0  0  0  0  0  0  0  0  0
   -2.0138   -0.9076   -2.7329 H   0  0  0  0  0  0  0  0  0  0  0  0
   -0.1884    0.7033    0.0272 H   0  0  0  0  0  0  0  0  0  0  0  0
    1.8973    1.0945   -2.1462 H   0  0  0  0  0  0  0  0  0  0  0  0
    1.2180   -1.2010    0.3255 H   0  0  0  0  0  0  0  0  0  0  0  0
    3.7723   -3.4632   -0.5749 H   0  0  0  0  0  0  0  0  0  0  0  0
    4.1875   -1.8601   -1.1703 H   0  0  0  0  0  0  0  0  0  0  0  0
    5.6225   -3.5757    0.9332 H   0  0  0  0  0  0  0  0  0  0  0  0
    6.2172   -2.9556   -0.6111 H   0  0  0  0  0  0  0  0  0  0  0  0
    3.9303   -1.8779    2.8990 H   0  0  0  0  0  0  0  0  0  0  0  0
    3.3090   -0.3400    2.2820 H   0  0  0  0  0  0  0  0  0  0  0  0
    5.0853    0.8440    3.0421 H   0  0  0  0  0  0  0  0  0  0  0  0
    7.4080    1.5978    2.7126 H   0  0  0  0  0  0  0  0  0  0  0  0
    8.9155    0.2896    1.1818 H   0  0  0  0  0  0  0  0  0  0  0  0
    8.0623   -1.7401    0.0196 H   0  0  0  0  0  0  0  0  0  0  0  0
    3.9584   -3.9403    2.7695 H   0  0  0  0  0  0  0  0  0  0  0  0
    3.1886   -5.0661    1.6408 H   0  0  0  0  0  0  0  0  0  0  0  0
    0.9235    3.1452   -0.8499 H   0  0  0  0  0  0  0  0  0  0  0  0
    1.7030    2.3974    0.5906 H   0  0  0  0  0  0  0  0  0  0  0  0
    3.9515    2.6267   -0.3101 H   0  0  0  0  0  0  0  0  0  0  0  0
    3.3520    3.2757   -1.8470 H   0  0  0  0  0  0  0  0  0  0  0  0
    4.1515    5.0177   -0.3013 H   0  0  0  0  0  0  0  0  0  0  0  0
    3.0248    4.4158    0.9410 H   0  0  0  0  0  0  0  0  0  0  0  0
    0.3675    5.5101   -3.4021 H   0  0  0  0  0  0  0  0  0  0  0  0
    1.9257    4.6726   -3.2634 H   0  0  0  0  0  0  0  0  0  0  0  0
    0.7488    7.8633   -1.5226 H   0  0  0  0  0  0  0  0  0  0  0  0
   -0.4199    6.7555   -0.6481 H   0  0  0  0  0  0  0  0  0  0  0  0
   -0.7144   -2.7145   -0.6863 H   0  0  0  0  0  0  0  0  0  0  0  0
   -0.6214   -2.9455   -2.4311 H   0  0  0  0  0  0  0  0  0  0  0  0
   -2.7845   -3.1100    0.4911 H   0  0  0  0  0  0  0  0  0  0  0  0
   -4.9207   -4.3225    0.4912 H   0  0  0  0  0  0  0  0  0  0  0  0
   -5.9248   -5.1620   -1.6069 H   0  0  0  0  0  0  0  0  0  0  0  0
   -4.7593   -4.7692   -3.6996 H   0  0  0  0  0  0  0  0  0  0  0  0
   -2.6354   -3.5787   -3.7847 H   0  0  0  0  0  0  0  0  0  0  0  0
   -5.9572    0.8121   -1.5222 H   0  0  0  0  0  0  0  0  0  0  0  0
   -4.7520    1.8766   -0.8057 H   0  0  0  0  0  0  0  0  0  0  0  0
   -6.4710    0.5316    2.2277 H   0  0  0  0  0  0  0  0  0  0  0  0
   -8.7722    3.8526    0.9988 H   0  0  0  0  0  0  0  0  0  0  0  0
   -7.2340    3.2621   -0.9277 H   0  0  0  0  0  0  0  0  0  0  0  0
  1  2  1  0
  2  3  2  0
  2  4  1  0
  4  5  1  0
  5  6  1  0
  6  7  2  0
  6  8  1  0
  8  9  1  0
  9 10  1  0
 10 11  2  0
 10 12  1  0
 12 13  1  0
 13 14  1  0
 14 15  2  0
 14 16  1  0
 17 16  1  6
 17 18  1  0
 18 19  1  0
 19 20  1  0
 20 21  2  0
 21 22  1  0
 21 23  1  0
 23 24  2  0
 24 25  1  0
 25 26  2  0
 17 27  1  0
 27 28  2  0
 27 29  1  0
 13 30  1  0
 30 31  1  0
 31 32  1  0
 32 33  1  0
 33 34  2  3
 34 35  1  0
 34 36  1  0
  9 37  1  0
 37 38  1  0
 38 39  2  0
 39 40  1  0
 40 41  2  0
 41 42  1  0
 42 43  2  0
  5 44  1  0
 44 45  1  0
 45 46  2  0
 46 47  1  0
 47 48  2  0
 48 49  1  0
 22 17  1  0
 43 38  1  0
 49 45  1  0
 26 20  1  0
  1 50  1  0
  1 51  1  0
  1 52  1  0
  4 53  1  0
  5 54  1  1
  8 55  1  0
  9 56  1  6
 12 57  1  0
 13 58  1  6
 16 59  1  0
 18 60  1  0
 18 61  1  0
 19 62  1  0
 19 63  1  0
 22 64  1  0
 22 65  1  0
 23 66  1  0
 24 67  1  0
 25 68  1  0
 26 69  1  0
 29 70  1  0
 29 71  1  0
 30 72  1  0
 30 73  1  0
 31 74  1  0
 31 75  1  0
 32 76  1  0
 32 77  1  0
 35 78  1  0
 35 79  1  0
 36 80  1  0
 36 81  1  0
 37 82  1  0
 37 83  1  0
 39 84  1  0
 40 85  1  0
 41 86  1  0
 42 87  1  0
 43 88  1  0
 44 89  1  0
 44 90  1  0
 46 91  1  0
 48 92  1  0
 49 93  1  0
M  END
>  <Ligand ID>  (1) 
LIG0003303

>  <Ligand>  (1) 
CHEMBL2371147

>  <SMILES>  (1) 
CC(=O)N[C@H](C(=O)N[C@@H](C(=O)N[C@H](C(=O)N[C@]1(CCc2c(C1)cccc2)C(=O)N)CCCN=C(N)N)Cc1ccccc1)Cc1cnc[nH]1

>  <CID>  (1) 
73356187.0

>  <ChEMBL ID>  (1) 
nan

>  <InChiKey>  (1) 
FKKJYDBNNXYKOI-JPWDMULGSA-N

>  <InChi>  (1) 
InChI=1S/C34H44N10O5/c1-21(45)41-28(17-25-19-38-20-40-25)30(47)43-27(16-22-8-3-2-4-9-22)29(46)42-26(12-7-15-39-33(36)37)31(48)44-34(32(35)49)14-13-23-10-5-6-11-24(23)18-34/h2-6,8-11,19-20,26-28H,7,12-18H2,1H3,(H2,35,49)(H,38,40)(H,41,45)(H,42,46)(H,43,47)(H,44,48)(H4,36,37,39)/t26-,27+,28-,34-/m0/s1

>  <IUPAC Name>  (1) 
(2S)-2-[[(2S)-2-[[(2R)-2-[[(2S)-2-acetamido-3-(1H-imidazol-5-yl)propanoyl]amino]-3-phenylpropanoyl]amino]-5-(diaminomethylideneamino)pentanoyl]amino]-3,4-dihydro-1H-naphthalene-2-carboxamide

$$$$
