
     RDKit          3D

 27 28  0  0  0  0  0  0  0  0999 V2000
   -3.1670   -0.0392   -0.7544 C   0  0  0  0  0  0  0  0  0  0  0  0
   -2.4531   -0.8987    0.2536 C   0  0  0  0  0  0  0  0  0  0  0  0
   -1.1708   -0.3289    0.7487 C   0  0  0  0  0  0  0  0  0  0  0  0
   -0.1286   -0.0983   -0.2609 C   0  0  0  0  0  0  0  0  0  0  0  0
   -0.1728    0.0810   -1.6195 C   0  0  0  0  0  0  0  0  0  0  0  0
    1.0791    0.2421   -2.1042 N   0  0  0  0  0  0  0  0  0  0  0  0
    1.9459    0.1695   -1.0698 C   0  0  0  0  0  0  0  0  0  0  0  0
    1.2317   -0.0384    0.0700 C   0  0  0  0  0  0  0  0  0  0  0  0
    1.8870   -0.1463    1.2652 C   0  0  0  0  0  0  0  0  0  0  0  0
    3.2615   -0.0558    1.4002 C   0  0  0  0  0  0  0  0  0  0  0  0
    3.9880    0.1550    0.2478 C   0  0  0  0  0  0  0  0  0  0  0  0
    3.3410    0.2670   -0.9810 C   0  0  0  0  0  0  0  0  0  0  0  0
   -3.3093   -1.0633    1.4440 N   0  0  0  0  0  0  0  0  0  0  0  0
   -4.2361    0.1260   -0.4064 H   0  0  0  0  0  0  0  0  0  0  0  0
   -3.2840   -0.4930   -1.7510 H   0  0  0  0  0  0  0  0  0  0  0  0
   -2.7490    0.9880   -0.8365 H   0  0  0  0  0  0  0  0  0  0  0  0
   -2.3460   -1.9063   -0.2025 H   0  0  0  0  0  0  0  0  0  0  0  0
   -1.3942    0.5802    1.3524 H   0  0  0  0  0  0  0  0  0  0  0  0
   -0.7496   -1.0630    1.5018 H   0  0  0  0  0  0  0  0  0  0  0  0
   -1.0459    0.0961   -2.2315 H   0  0  0  0  0  0  0  0  0  0  0  0
    1.3415    0.3961   -3.1112 H   0  0  0  0  0  0  0  0  0  0  0  0
    1.3314   -0.3102    2.1974 H   0  0  0  0  0  0  0  0  0  0  0  0
    3.7299   -0.1442    2.3859 H   0  0  0  0  0  0  0  0  0  0  0  0
    5.0688    0.2308    0.3364 H   0  0  0  0  0  0  0  0  0  0  0  0
    3.9328    0.4306   -1.8736 H   0  0  0  0  0  0  0  0  0  0  0  0
   -2.7934   -1.8280    1.9791 H   0  0  0  0  0  0  0  0  0  0  0  0
   -3.1388   -0.2118    2.0200 H   0  0  0  0  0  0  0  0  0  0  0  0
  1  2  1  0
  2  3  1  0
  3  4  1  0
  4  5  2  0
  5  6  1  0
  6  7  1  0
  7  8  2  0
  8  9  1  0
  9 10  2  0
 10 11  1  0
 11 12  2  0
  2 13  1  0
  8  4  1  0
 12  7  1  0
  1 14  1  0
  1 15  1  0
  1 16  1  0
  2 17  1  0
  3 18  1  0
  3 19  1  0
  5 20  1  0
  6 21  1  0
  9 22  1  0
 10 23  1  0
 11 24  1  0
 12 25  1  0
 13 26  1  0
 13 27  1  0
M  END
>  <Ligand ID>  (1) 
LIG0003529

>  <Ligand>  (1) 
3-(2-Aminopropyl)indole

>  <SMILES>  (1) 
CC(Cc1c[nH]c2c1cccc2)N

>  <CID>  (1) 
9287.0

>  <ChEMBL ID>  (1) 
nan

>  <InChiKey>  (1) 
QSQQQURBVYWZKJ-UHFFFAOYSA-N

>  <InChi>  (1) 
InChI=1S/C11H14N2/c1-8(12)6-9-7-13-11-5-3-2-4-10(9)11/h2-5,7-8,13H,6,12H2,1H3

>  <IUPAC Name>  (1) 
1-(1H-indol-3-yl)propan-2-amine

$$$$
