
     RDKit          3D

 60 64  0  0  0  0  0  0  0  0999 V2000
    8.4506   -2.8817    2.2672 N   0  0  0  0  0  0  0  0  0  0  0  0
    7.1573   -2.3965    1.9268 C   0  0  0  0  0  0  0  0  0  0  0  0
    6.2039   -2.6383    2.7114 O   0  0  0  0  0  0  0  0  0  0  0  0
    7.0237   -1.6375    0.6673 C   0  0  0  0  0  0  0  0  0  0  0  0
    5.6316   -1.1874    0.4259 C   0  0  0  0  0  0  0  0  0  0  0  0
    5.1645    0.0295    0.8811 C   0  0  0  0  0  0  0  0  0  0  0  0
    3.8485    0.4321    0.6414 C   0  0  0  0  0  0  0  0  0  0  0  0
    3.0085   -0.4032   -0.0621 C   0  0  0  0  0  0  0  0  0  0  0  0
    3.4575   -1.6429   -0.5345 C   0  0  0  0  0  0  0  0  0  0  0  0
    4.7720   -2.0162   -0.2801 C   0  0  0  0  0  0  0  0  0  0  0  0
    1.6533   -0.0652   -0.3742 N   0  0  0  0  0  0  0  0  0  0  0  0
    1.2746    1.1838   -0.9335 C   0  0  0  0  0  0  0  0  0  0  0  0
    2.2076    2.1338   -1.2824 C   0  0  0  0  0  0  0  0  0  0  0  0
    1.8400    3.3756   -1.8167 C   0  0  0  0  0  0  0  0  0  0  0  0
    2.7190    4.2205   -2.1239 O   0  0  0  0  0  0  0  0  0  0  0  0
    0.5419    3.6647   -2.0015 N   0  0  0  0  0  0  0  0  0  0  0  0
   -0.3785    2.7533   -1.6686 C   0  0  0  0  0  0  0  0  0  0  0  0
   -0.0504    1.5059   -1.1337 C   0  0  0  0  0  0  0  0  0  0  0  0
   -1.0889    0.6530   -0.8302 C   0  0  0  0  0  0  0  0  0  0  0  0
   -2.4172    0.9560   -1.0212 C   0  0  0  0  0  0  0  0  0  0  0  0
   -2.7104    2.1951   -1.5512 C   0  0  0  0  0  0  0  0  0  0  0  0
   -1.7030    3.1054   -1.8804 C   0  0  0  0  0  0  0  0  0  0  0  0
   -3.5448    0.0691   -0.6890 C   0  0  0  0  0  0  0  0  0  0  0  0
   -4.7034    0.7308   -0.0615 C   0  0  0  0  0  0  0  0  0  0  0  0
   -5.6965    1.2537   -0.8889 C   0  0  0  0  0  0  0  0  0  0  0  0
   -6.8138    1.8867   -0.4022 C   0  0  0  0  0  0  0  0  0  0  0  0
   -7.0015    2.0326    0.9497 C   0  0  0  0  0  0  0  0  0  0  0  0
   -6.0306    1.5215    1.7808 C   0  0  0  0  0  0  0  0  0  0  0  0
   -4.9054    0.8839    1.2842 C   0  0  0  0  0  0  0  0  0  0  0  0
   -8.4353    2.8441    1.5439 Cl  0  0  0  0  0  0  0  0  0  0  0  0
   -3.1715   -1.1085    0.1285 C   0  0  0  0  0  0  0  0  0  0  0  0
   -2.4119   -1.0186    1.2876 C   0  0  0  0  0  0  0  0  0  0  0  0
   -2.0805   -2.1025    2.0588 C   0  0  0  0  0  0  0  0  0  0  0  0
   -2.4967   -3.3680    1.7099 C   0  0  0  0  0  0  0  0  0  0  0  0
   -3.2525   -3.4995    0.5651 C   0  0  0  0  0  0  0  0  0  0  0  0
   -3.5809   -2.4060   -0.2031 C   0  0  0  0  0  0  0  0  0  0  0  0
   -2.0502   -4.7224    2.7237 Cl  0  0  0  0  0  0  0  0  0  0  0  0
    8.6484   -3.2943    3.2076 H   0  0  0  0  0  0  0  0  0  0  0  0
    9.2594   -2.8533    1.6090 H   0  0  0  0  0  0  0  0  0  0  0  0
    7.3906   -2.3110   -0.1410 H   0  0  0  0  0  0  0  0  0  0  0  0
    7.7157   -0.7886    0.6816 H   0  0  0  0  0  0  0  0  0  0  0  0
    5.8641    0.6457    1.4263 H   0  0  0  0  0  0  0  0  0  0  0  0
    3.5286    1.3798    1.0296 H   0  0  0  0  0  0  0  0  0  0  0  0
    2.8090   -2.3092   -1.0878 H   0  0  0  0  0  0  0  0  0  0  0  0
    5.1639   -2.9752   -0.6305 H   0  0  0  0  0  0  0  0  0  0  0  0
    0.9654   -0.8301   -0.1519 H   0  0  0  0  0  0  0  0  0  0  0  0
    3.2645    1.9804   -1.1824 H   0  0  0  0  0  0  0  0  0  0  0  0
    0.2971    4.5985   -2.4017 H   0  0  0  0  0  0  0  0  0  0  0  0
   -0.8664   -0.3183   -0.4262 H   0  0  0  0  0  0  0  0  0  0  0  0
   -3.7158    2.5464   -1.7449 H   0  0  0  0  0  0  0  0  0  0  0  0
   -1.9483    4.0715   -2.2945 H   0  0  0  0  0  0  0  0  0  0  0  0
   -3.9711   -0.3938   -1.6461 H   0  0  0  0  0  0  0  0  0  0  0  0
   -5.6322    1.1768   -1.9799 H   0  0  0  0  0  0  0  0  0  0  0  0
   -7.5740    2.2864   -1.0603 H   0  0  0  0  0  0  0  0  0  0  0  0
   -6.1724    1.6328    2.8388 H   0  0  0  0  0  0  0  0  0  0  0  0
   -4.2093    0.5155    2.0144 H   0  0  0  0  0  0  0  0  0  0  0  0
   -2.0177   -0.0515    1.6399 H   0  0  0  0  0  0  0  0  0  0  0  0
   -1.4832   -1.9872    2.9607 H   0  0  0  0  0  0  0  0  0  0  0  0
   -3.5691   -4.5065    0.3095 H   0  0  0  0  0  0  0  0  0  0  0  0
   -4.1777   -2.5515   -1.0972 H   0  0  0  0  0  0  0  0  0  0  0  0
  1  2  1  0
  2  3  2  0
  2  4  1  0
  4  5  1  0
  5  6  2  0
  6  7  1  0
  7  8  2  0
  8  9  1  0
  9 10  2  0
  8 11  1  0
 11 12  1  0
 12 13  2  0
 13 14  1  0
 14 15  2  0
 14 16  1  0
 16 17  1  0
 17 18  2  0
 18 19  1  0
 19 20  2  0
 20 21  1  0
 21 22  2  0
 20 23  1  0
 23 24  1  0
 24 25  2  0
 25 26  1  0
 26 27  2  0
 27 28  1  0
 28 29  2  0
 27 30  1  0
 23 31  1  0
 31 32  2  0
 32 33  1  0
 33 34  2  0
 34 35  1  0
 35 36  2  0
 34 37  1  0
 10  5  1  0
 18 12  1  0
 29 24  1  0
 36 31  1  0
 22 17  1  0
  1 38  1  0
  1 39  1  0
  4 40  1  0
  4 41  1  0
  6 42  1  0
  7 43  1  0
  9 44  1  0
 10 45  1  0
 11 46  1  0
 13 47  1  0
 16 48  1  0
 19 49  1  0
 21 50  1  0
 22 51  1  0
 23 52  1  0
 25 53  1  0
 26 54  1  0
 28 55  1  0
 29 56  1  0
 32 57  1  0
 33 58  1  0
 35 59  1  0
 36 60  1  0
M  END
>  <Ligand ID>  (1) 
LIG0005906

>  <Ligand>  (1) 
CHEMBL3974719

>  <SMILES>  (1) 
NC(=O)Cc1ccc(cc1)Nc1cc(=O)[nH]c2c1cc(cc2)C(c1ccc(cc1)Cl)c1ccc(cc1)Cl

>  <CID>  (1) 
118324045.0

>  <ChEMBL ID>  (1) 
nan

>  <InChiKey>  (1) 
NROPRVDZXGJHLE-UHFFFAOYSA-N

>  <InChi>  (1) 
InChI=1S/C30H23Cl2N3O2/c31-22-8-3-19(4-9-22)30(20-5-10-23(32)11-6-20)21-7-14-26-25(16-21)27(17-29(37)35-26)34-24-12-1-18(2-13-24)15-28(33)36/h1-14,16-17,30H,15H2,(H2,33,36)(H2,34,35,37)

>  <IUPAC Name>  (1) 
2-[4-[[6-[bis(4-chlorophenyl)methyl]-2-oxo-1H-quinolin-4-yl]amino]phenyl]acetamide

$$$$
