
     RDKit          3D

 47 50  0  0  0  0  0  0  0  0999 V2000
   -5.3697   -1.4423   -0.9424 O   0  0  0  0  0  0  0  0  0  0  0  0
   -5.9258   -0.5251   -0.0555 C   0  0  0  0  0  0  0  0  0  0  0  0
   -5.0265    0.6781    0.1375 C   0  0  1  0  0  0  0  0  0  0  0  0
   -3.6936    0.2023    0.6928 C   0  0  0  0  0  0  0  0  0  0  0  0
   -2.6641    0.7198   -0.2955 C   0  0  2  0  0  0  0  0  0  0  0  0
   -3.4299    0.6329   -1.5854 C   0  0  1  0  0  0  0  0  0  0  0  0
   -4.7306    1.3074   -1.2012 C   0  0  2  0  0  0  0  0  0  0  0  0
   -4.4681    2.6534   -0.9742 O   0  0  0  0  0  0  0  0  0  0  0  0
   -2.8569    1.4340   -2.5854 O   0  0  0  0  0  0  0  0  0  0  0  0
   -1.4597   -0.0634   -0.2823 N   0  0  0  0  0  0  0  0  0  0  0  0
   -1.2813   -1.2018   -0.9332 C   0  0  0  0  0  0  0  0  0  0  0  0
   -0.0383   -1.6573   -0.6943 N   0  0  0  0  0  0  0  0  0  0  0  0
    0.5805   -0.7892    0.1239 C   0  0  0  0  0  0  0  0  0  0  0  0
   -0.3160    0.2033    0.3755 C   0  0  0  0  0  0  0  0  0  0  0  0
    0.0801    1.2210    1.1944 N   0  0  0  0  0  0  0  0  0  0  0  0
    1.3415    1.1981    1.7174 C   0  0  0  0  0  0  0  0  0  0  0  0
    2.1912    0.2170    1.4530 N   0  0  0  0  0  0  0  0  0  0  0  0
    1.8740   -0.8162    0.6580 C   0  0  0  0  0  0  0  0  0  0  0  0
    2.7526   -1.8762    0.3579 N   0  0  0  0  0  0  0  0  0  0  0  0
    4.0896   -2.0366    0.8244 C   0  0  0  0  0  0  0  0  0  0  0  0
    5.0120   -0.9676    0.4292 C   0  0  0  0  0  0  0  0  0  0  0  0
    5.6427   -1.0821   -0.7975 C   0  0  0  0  0  0  0  0  0  0  0  0
    6.5379   -0.1380   -1.2638 C   0  0  0  0  0  0  0  0  0  0  0  0
    6.8271    0.9676   -0.4920 C   0  0  0  0  0  0  0  0  0  0  0  0
    6.2037    1.0848    0.7253 C   0  0  0  0  0  0  0  0  0  0  0  0
    5.3153    0.1399    1.1793 C   0  0  0  0  0  0  0  0  0  0  0  0
    6.6226    2.7542    1.9216 I   0  0  0  0  0  0  0  0  0  0  0  0
   -5.6515   -2.3410   -0.6612 H   0  0  0  0  0  0  0  0  0  0  0  0
   -6.0967   -1.0278    0.9181 H   0  0  0  0  0  0  0  0  0  0  0  0
   -6.8947   -0.1642   -0.4624 H   0  0  0  0  0  0  0  0  0  0  0  0
   -5.4787    1.3819    0.8520 H   0  0  0  0  0  0  0  0  0  0  0  0
   -3.6513   -0.8952    0.7937 H   0  0  0  0  0  0  0  0  0  0  0  0
   -3.4742    0.7200    1.6660 H   0  0  0  0  0  0  0  0  0  0  0  0
   -2.4567    1.7719   -0.0731 H   0  0  0  0  0  0  0  0  0  0  0  0
   -3.5531   -0.3829   -1.9590 H   0  0  0  0  0  0  0  0  0  0  0  0
   -5.5419    1.1528   -1.9376 H   0  0  0  0  0  0  0  0  0  0  0  0
   -4.5071    2.8979   -0.0173 H   0  0  0  0  0  0  0  0  0  0  0  0
   -1.9669    1.7642   -2.2621 H   0  0  0  0  0  0  0  0  0  0  0  0
   -1.9831   -1.7387   -1.5753 H   0  0  0  0  0  0  0  0  0  0  0  0
    1.6815    1.9955    2.3716 H   0  0  0  0  0  0  0  0  0  0  0  0
    2.3763   -2.6353   -0.2850 H   0  0  0  0  0  0  0  0  0  0  0  0
    4.0393   -2.0690    1.9562 H   0  0  0  0  0  0  0  0  0  0  0  0
    4.5003   -3.0342    0.5576 H   0  0  0  0  0  0  0  0  0  0  0  0
    5.4469   -1.9312   -1.4357 H   0  0  0  0  0  0  0  0  0  0  0  0
    7.0174   -0.2586   -2.2349 H   0  0  0  0  0  0  0  0  0  0  0  0
    7.5216    1.6998   -0.8543 H   0  0  0  0  0  0  0  0  0  0  0  0
    4.8620    0.2762    2.1395 H   0  0  0  0  0  0  0  0  0  0  0  0
  1  2  1  0
  2  3  1  0
  3  4  1  0
  4  5  1  0
  5  6  1  0
  6  7  1  0
  7  8  1  0
  6  9  1  0
  5 10  1  0
 10 11  1  0
 11 12  2  0
 12 13  1  0
 13 14  2  0
 14 15  1  0
 15 16  2  0
 16 17  1  0
 17 18  2  0
 18 19  1  0
 19 20  1  0
 20 21  1  0
 21 22  2  0
 22 23  1  0
 23 24  2  0
 24 25  1  0
 25 26  2  0
 25 27  1  0
  7  3  1  0
 14 10  1  0
 26 21  1  0
 18 13  1  0
  1 28  1  0
  2 29  1  0
  2 30  1  0
  3 31  1  1
  4 32  1  0
  4 33  1  0
  5 34  1  1
  6 35  1  6
  7 36  1  6
  8 37  1  0
  9 38  1  0
 11 39  1  0
 16 40  1  0
 19 41  1  0
 20 42  1  0
 20 43  1  0
 22 44  1  0
 23 45  1  0
 24 46  1  0
 26 47  1  0
M  END
>  <Ligand ID>  (1) 
LIG0005664

>  <Ligand>  (1) 
CHEMBL71385

>  <SMILES>  (1) 
OC[C@H]1C[C@H]([C@@H]([C@@H]1O)O)n1cnc2c1ncnc2NCc1cccc(c1)I

>  <CID>  (1) 
44309799.0

>  <ChEMBL ID>  (1) 
nan

>  <InChiKey>  (1) 
JIBVHQBGLJITFH-CUBALJKWSA-N

>  <InChi>  (1) 
InChI=1S/C18H20IN5O3/c19-12-3-1-2-10(4-12)6-20-17-14-18(22-8-21-17)24(9-23-14)13-5-11(7-25)15(26)16(13)27/h1-4,8-9,11,13,15-16,25-27H,5-7H2,(H,20,21,22)/t11-,13-,15-,16+/m1/s1

>  <IUPAC Name>  (1) 
(1S,2R,3R,5R)-3-(hydroxymethyl)-5-[6-[(3-iodophenyl)methylamino]purin-9-yl]cyclopentane-1,2-diol

$$$$
