
     RDKit          3D

 62 64  0  0  0  0  0  0  0  0999 V2000
    5.6718    3.7601    1.2495 C   0  0  0  0  0  0  0  0  0  0  0  0
    5.5725    2.2342    1.2793 C   0  0  0  0  0  0  0  0  0  0  0  0
    6.0822    1.7388   -0.0576 C   0  0  0  0  0  0  0  0  0  0  0  0
    6.0368    0.2589   -0.1551 C   0  0  0  0  0  0  0  0  0  0  0  0
    4.6797   -0.3689    0.0022 C   0  0  0  0  0  0  0  0  0  0  0  0
    3.7149    0.0926   -1.0276 C   0  0  0  0  0  0  0  0  0  0  0  0
    2.3688   -0.5335   -0.8804 C   0  0  0  0  0  0  0  0  0  0  0  0
    1.3083   -0.0243   -1.6024 C   0  0  0  0  0  0  0  0  0  0  0  0
    0.0468   -0.5952   -1.4772 C   0  0  0  0  0  0  0  0  0  0  0  0
   -0.1812   -1.6725   -0.6398 C   0  0  0  0  0  0  0  0  0  0  0  0
    0.8878   -2.1707    0.0753 C   0  0  0  0  0  0  0  0  0  0  0  0
    2.1626   -1.6089   -0.0386 C   0  0  0  0  0  0  0  0  0  0  0  0
   -1.5517   -2.2867   -0.5088 C   0  0  1  0  0  0  0  0  0  0  0  0
   -1.5296   -3.7169   -1.0654 C   0  0  0  0  0  0  0  0  0  0  0  0
   -1.3603   -4.6247    0.1074 C   0  0  0  0  0  0  0  0  0  0  0  0
   -1.4758   -3.7600    1.3071 C   0  0  0  0  0  0  0  0  0  0  0  0
   -1.2216   -4.0527    2.4613 O   0  0  0  0  0  0  0  0  0  0  0  0
   -1.9736   -2.3944    0.9139 C   0  0  2  0  0  0  0  0  0  0  0  0
   -3.4700   -2.4238    1.0190 C   0  0  0  0  0  0  0  0  0  0  0  0
   -4.1473   -1.2056    0.4704 C   0  0  0  0  0  0  0  0  0  0  0  0
   -3.7144    0.0624    1.1754 C   0  0  0  0  0  0  0  0  0  0  0  0
   -4.4428    1.2053    0.5558 C   0  0  0  0  0  0  0  0  0  0  0  0
   -5.6736    1.7385    0.9220 C   0  0  0  0  0  0  0  0  0  0  0  0
   -6.1182    2.7767    0.1996 C   0  0  0  0  0  0  0  0  0  0  0  0
   -5.3750    3.2409   -0.8162 C   0  0  0  0  0  0  0  0  0  0  0  0
   -3.9194    2.1870   -0.8214 S   0  0  0  0  0  0  0  0  0  0  0  0
   -5.5769    4.3189   -1.7574 C   0  0  0  0  0  0  0  0  0  0  0  0
   -4.7187    4.5699   -2.6420 O   0  0  0  0  0  0  0  0  0  0  0  0
   -6.7426    5.0589   -1.6485 O   0  0  0  0  0  0  0  0  0  0  0  0
    3.5022    1.4616   -0.9729 O   0  0  0  0  0  0  0  0  0  0  0  0
    6.7121    4.0939    1.3686 H   0  0  0  0  0  0  0  0  0  0  0  0
    5.2641    4.1960    0.3300 H   0  0  0  0  0  0  0  0  0  0  0  0
    5.1338    4.1253    2.1653 H   0  0  0  0  0  0  0  0  0  0  0  0
    4.5626    1.9030    1.5248 H   0  0  0  0  0  0  0  0  0  0  0  0
    6.3070    1.8668    2.0372 H   0  0  0  0  0  0  0  0  0  0  0  0
    5.6316    2.3144   -0.8599 H   0  0  0  0  0  0  0  0  0  0  0  0
    7.1710    2.0196   -0.0675 H   0  0  0  0  0  0  0  0  0  0  0  0
    6.7480   -0.1510    0.5932 H   0  0  0  0  0  0  0  0  0  0  0  0
    6.4125   -0.0432   -1.1645 H   0  0  0  0  0  0  0  0  0  0  0  0
    4.8615   -1.4692   -0.0254 H   0  0  0  0  0  0  0  0  0  0  0  0
    4.2940   -0.0492    0.9995 H   0  0  0  0  0  0  0  0  0  0  0  0
    4.1263   -0.1483   -2.0289 H   0  0  0  0  0  0  0  0  0  0  0  0
    1.4089    0.8208   -2.2812 H   0  0  0  0  0  0  0  0  0  0  0  0
   -0.8063   -0.2111   -2.0367 H   0  0  0  0  0  0  0  0  0  0  0  0
    0.7936   -2.9942    0.7375 H   0  0  0  0  0  0  0  0  0  0  0  0
    2.9805   -2.0232    0.5362 H   0  0  0  0  0  0  0  0  0  0  0  0
   -2.2462   -1.7427   -1.1646 H   0  0  0  0  0  0  0  0  0  0  0  0
   -0.7338   -3.7674   -1.8119 H   0  0  0  0  0  0  0  0  0  0  0  0
   -2.5017   -3.9460   -1.5665 H   0  0  0  0  0  0  0  0  0  0  0  0
   -0.3575   -5.1260    0.0545 H   0  0  0  0  0  0  0  0  0  0  0  0
   -2.1362   -5.4395    0.1465 H   0  0  0  0  0  0  0  0  0  0  0  0
   -1.5197   -1.6192    1.5648 H   0  0  0  0  0  0  0  0  0  0  0  0
   -3.8012   -3.2793    0.3579 H   0  0  0  0  0  0  0  0  0  0  0  0
   -3.8181   -2.6986    2.0204 H   0  0  0  0  0  0  0  0  0  0  0  0
   -4.0536   -1.0506   -0.6023 H   0  0  0  0  0  0  0  0  0  0  0  0
   -5.2575   -1.2760    0.6781 H   0  0  0  0  0  0  0  0  0  0  0  0
   -3.9791    0.0895    2.2421 H   0  0  0  0  0  0  0  0  0  0  0  0
   -2.6479    0.2338    0.9774 H   0  0  0  0  0  0  0  0  0  0  0  0
   -6.2123    1.2850    1.7766 H   0  0  0  0  0  0  0  0  0  0  0  0
   -7.1072    3.2588    0.4395 H   0  0  0  0  0  0  0  0  0  0  0  0
   -6.9666    5.8184   -2.3100 H   0  0  0  0  0  0  0  0  0  0  0  0
    2.8960    1.7434   -0.2576 H   0  0  0  0  0  0  0  0  0  0  0  0
  1  2  1  0
  2  3  1  0
  3  4  1  0
  4  5  1  0
  5  6  1  0
  6  7  1  0
  7  8  2  0
  8  9  1  0
  9 10  2  0
 10 11  1  0
 11 12  2  0
 10 13  1  0
 13 14  1  0
 14 15  1  0
 15 16  1  0
 16 17  2  0
 16 18  1  0
 18 19  1  0
 19 20  1  0
 20 21  1  0
 21 22  1  0
 22 23  2  0
 23 24  1  0
 24 25  2  0
 25 26  1  0
 25 27  1  0
 27 28  2  0
 27 29  1  0
  6 30  1  0
 12  7  1  0
 18 13  1  0
 26 22  1  0
  1 31  1  0
  1 32  1  0
  1 33  1  0
  2 34  1  0
  2 35  1  0
  3 36  1  0
  3 37  1  0
  4 38  1  0
  4 39  1  0
  5 40  1  0
  5 41  1  0
  6 42  1  0
  8 43  1  0
  9 44  1  0
 11 45  1  0
 12 46  1  0
 13 47  1  6
 14 48  1  0
 14 49  1  0
 15 50  1  0
 15 51  1  0
 18 52  1  1
 19 53  1  0
 19 54  1  0
 20 55  1  0
 20 56  1  0
 21 57  1  0
 21 58  1  0
 23 59  1  0
 24 60  1  0
 29 61  1  0
 30 62  1  0
M  END
>  <Ligand ID>  (1) 
LIG0004205

>  <Ligand>  (1) 
SCHEMBL2014800

>  <SMILES>  (1) 
CCCCCC(c1ccc(cc1)[C@H]1CCC(=O)[C@@H]1CCCc1ccc(s1)C(=O)O)O

>  <CID>  (1) 
59465581.0

>  <ChEMBL ID>  (1) 
nan

>  <InChiKey>  (1) 
BKEIZHJYCQKMOM-JAZPPYFYSA-N

>  <InChi>  (1) 
InChI=1S/C25H32O4S/c1-2-3-4-8-22(26)18-11-9-17(10-12-18)20-14-15-23(27)21(20)7-5-6-19-13-16-24(30-19)25(28)29/h9-13,16,20-22,26H,2-8,14-15H2,1H3,(H,28,29)/t20-,21-,22?/m1/s1

>  <IUPAC Name>  (1) 
5-[3-[(1R,2S)-2-[4-(1-hydroxyhexyl)phenyl]-5-oxocyclopentyl]propyl]thiophene-2-carboxylic acid

$$$$
