
     RDKit          3D

 30 31  0  0  0  0  0  0  0  0999 V2000
    3.9971   -1.1543   -1.0239 O   0  0  0  0  0  0  0  0  0  0  0  0
    2.9909   -1.5965   -0.1826 C   0  0  0  0  0  0  0  0  0  0  0  0
    3.3109   -2.3088    0.8186 O   0  0  0  0  0  0  0  0  0  0  0  0
    1.5338   -1.2556   -0.4240 C   0  0  1  0  0  0  0  0  0  0  0  0
    1.0022   -0.4968    0.7376 C   0  0  2  0  0  0  0  0  0  0  0  0
   -0.3104    0.0334    0.9843 C   0  0  1  0  0  0  0  0  0  0  0  0
    0.7877    1.0017    0.5173 C   0  0  1  0  0  0  0  0  0  0  0  0
    1.3439    1.9601    1.4977 C   0  0  0  0  0  0  0  0  0  0  0  0
    1.7295    3.1054    1.1985 O   0  0  0  0  0  0  0  0  0  0  0  0
    1.4218    1.5078    2.8288 O   0  0  0  0  0  0  0  0  0  0  0  0
   -1.5233    0.0053    0.1883 C   0  0  0  0  0  0  0  0  0  0  0  0
   -2.6125    0.7633    0.6585 C   0  0  0  0  0  0  0  0  0  0  0  0
   -3.8122    0.8059    0.0004 C   0  0  0  0  0  0  0  0  0  0  0  0
   -4.0105    0.1050   -1.1589 C   0  0  0  0  0  0  0  0  0  0  0  0
   -2.9784   -0.6429   -1.6480 C   0  0  0  0  0  0  0  0  0  0  0  0
   -1.7523   -0.6847   -0.9725 C   0  0  0  0  0  0  0  0  0  0  0  0
    1.5510   -0.4349   -1.6478 N   0  0  0  0  0  0  0  0  0  0  0  0
    4.9864   -1.1581   -0.7407 H   0  0  0  0  0  0  0  0  0  0  0  0
    1.0335   -2.1926   -0.6678 H   0  0  0  0  0  0  0  0  0  0  0  0
    1.6391   -0.6763    1.6712 H   0  0  0  0  0  0  0  0  0  0  0  0
   -0.5601    0.2507    2.0908 H   0  0  0  0  0  0  0  0  0  0  0  0
    0.7157    1.3326   -0.5357 H   0  0  0  0  0  0  0  0  0  0  0  0
    1.8480    2.0631    3.5684 H   0  0  0  0  0  0  0  0  0  0  0  0
   -2.5354    1.3474    1.5714 H   0  0  0  0  0  0  0  0  0  0  0  0
   -4.6318    1.4094    0.4033 H   0  0  0  0  0  0  0  0  0  0  0  0
   -4.9711    0.1630   -1.6507 H   0  0  0  0  0  0  0  0  0  0  0  0
   -3.0989   -1.2193   -2.5757 H   0  0  0  0  0  0  0  0  0  0  0  0
   -1.0048   -1.2895   -1.4023 H   0  0  0  0  0  0  0  0  0  0  0  0
    2.2723    0.3079   -1.6146 H   0  0  0  0  0  0  0  0  0  0  0  0
    1.6380   -1.0516   -2.4901 H   0  0  0  0  0  0  0  0  0  0  0  0
  1  2  1  0
  2  3  2  0
  2  4  1  0
  4  5  1  0
  5  6  1  0
  6  7  1  0
  7  8  1  0
  8  9  2  0
  8 10  1  0
  6 11  1  0
 11 12  2  0
 12 13  1  0
 13 14  2  0
 14 15  1  0
 15 16  2  0
  4 17  1  0
  7  5  1  0
 16 11  1  0
  1 18  1  0
  4 19  1  6
  5 20  1  1
  6 21  1  1
  7 22  1  6
 10 23  1  0
 12 24  1  0
 13 25  1  0
 14 26  1  0
 15 27  1  0
 16 28  1  0
 17 29  1  0
 17 30  1  0
M  END
>  <Ligand ID>  (1) 
LIG0002592

>  <Ligand>  (1) 
CHEMBL2115160

>  <SMILES>  (1) 
OC(=O)[C@@H]([C@@H]1[C@@H]([C@H]1C(=O)O)c1ccccc1)N

>  <CID>  (1) 
9991661.0

>  <ChEMBL ID>  (1) 
nan

>  <InChiKey>  (1) 
IFLWVSHRWAIVQF-SGIHWFKDSA-N

>  <InChi>  (1) 
InChI=1S/C12H13NO4/c13-10(12(16)17)8-7(9(8)11(14)15)6-4-2-1-3-5-6/h1-5,7-10H,13H2,(H,14,15)(H,16,17)/t7-,8+,9+,10+/m0/s1

>  <IUPAC Name>  (1) 
(1R,2R,3S)-2-[(R)-amino(carboxy)methyl]-3-phenylcyclopropane-1-carboxylic acid

$$$$
