
     RDKit          3D

 65 65  0  0  0  0  0  0  0  0999 V2000
    1.4111   -0.7423    0.2932 O   0  0  0  0  0  0  0  0  0  0  0  0
    0.4857    0.2854    0.0991 C   0  0  0  0  0  0  0  0  0  0  0  0
    0.8828    1.4988    0.0619 O   0  0  0  0  0  0  0  0  0  0  0  0
   -0.9757   -0.0386   -0.0657 C   0  0  0  0  0  0  0  0  0  0  0  0
   -1.6459    1.1600   -0.2392 F   0  0  0  0  0  0  0  0  0  0  0  0
   -1.1006   -0.8808   -1.1451 F   0  0  0  0  0  0  0  0  0  0  0  0
   -1.3874   -0.6795    1.1080 F   0  0  0  0  0  0  0  0  0  0  0  0
   -7.5830    2.0063   -0.6005 C   0  0  0  0  0  0  0  0  0  0  0  0
   -7.1142    1.1470    0.5550 C   0  0  0  0  0  0  0  0  0  0  0  0
   -5.7126    1.5888    0.9221 C   0  0  0  0  0  0  0  0  0  0  0  0
   -4.7454    1.4477   -0.1897 C   0  0  0  0  0  0  0  0  0  0  0  0
   -4.5552    0.0680   -0.7241 C   0  0  0  0  0  0  0  0  0  0  0  0
   -4.0715   -0.9460    0.2184 C   0  0  0  0  0  0  0  0  0  0  0  0
   -3.8917   -2.3177   -0.3652 C   0  0  0  0  0  0  0  0  0  0  0  0
   -2.8683   -2.3164   -1.4417 C   0  0  0  0  0  0  0  0  0  0  0  0
   -1.5307   -1.9046   -0.9804 C   0  0  0  0  0  0  0  0  0  0  0  0
   -0.6920   -2.9070   -0.5037 C   0  0  0  0  0  0  0  0  0  0  0  0
    0.5835   -2.6294   -0.0505 C   0  0  0  0  0  0  0  0  0  0  0  0
    1.0652   -1.3358   -0.0587 C   0  0  0  0  0  0  0  0  0  0  0  0
    0.2471   -0.3277   -0.5283 C   0  0  0  0  0  0  0  0  0  0  0  0
   -1.0398   -0.6278   -0.9825 C   0  0  0  0  0  0  0  0  0  0  0  0
    2.4105   -1.0315    0.4175 C   0  0  0  0  0  0  0  0  0  0  0  0
    3.3101   -1.9558    0.9059 C   0  0  0  0  0  0  0  0  0  0  0  0
    4.4538   -1.3429    1.2573 N   0  0  0  0  0  0  0  0  0  0  0  0
    4.2724   -0.0303    0.9891 C   0  0  0  0  0  0  0  0  0  0  0  0
    3.0295    0.1481    0.4800 N   0  0  0  0  0  0  0  0  0  0  0  0
    5.3001    1.0050    1.2318 C   0  0  2  0  0  0  0  0  0  0  0  0
    6.3738    0.9835    0.1504 C   0  0  0  0  0  0  0  0  0  0  0  0
    7.3338    1.9431    0.3621 O   0  0  0  0  0  0  0  0  0  0  0  0
    8.5531    1.9884   -0.7835 P   0  0  0  0  0  0  0  0  0  0  0  0
    8.1081    2.6367   -2.0750 O   0  0  0  0  0  0  0  0  0  0  0  0
    9.2176    0.4957   -1.1385 O   0  0  0  0  0  0  0  0  0  0  0  0
    9.7882    2.9778   -0.1496 O   0  0  0  0  0  0  0  0  0  0  0  0
    5.8690    0.7611    2.5565 N   0  0  0  0  0  0  0  0  0  0  0  0
    2.3300   -0.6030   -0.1122 H   0  0  0  0  0  0  0  0  0  0  0  0
   -7.4677    1.4692   -1.5818 H   0  0  0  0  0  0  0  0  0  0  0  0
   -8.6748    2.2047   -0.5065 H   0  0  0  0  0  0  0  0  0  0  0  0
   -7.0026    2.9467   -0.7148 H   0  0  0  0  0  0  0  0  0  0  0  0
   -7.1816    0.1017    0.2402 H   0  0  0  0  0  0  0  0  0  0  0  0
   -7.7408    1.3586    1.4625 H   0  0  0  0  0  0  0  0  0  0  0  0
   -5.3635    1.1868    1.8945 H   0  0  0  0  0  0  0  0  0  0  0  0
   -5.8234    2.6824    1.1175 H   0  0  0  0  0  0  0  0  0  0  0  0
   -5.0253    2.1547   -0.9975 H   0  0  0  0  0  0  0  0  0  0  0  0
   -3.7557    1.8022    0.1669 H   0  0  0  0  0  0  0  0  0  0  0  0
   -5.5828   -0.2560   -1.0791 H   0  0  0  0  0  0  0  0  0  0  0  0
   -3.9597    0.0785   -1.6457 H   0  0  0  0  0  0  0  0  0  0  0  0
   -3.0527   -0.6790    0.6386 H   0  0  0  0  0  0  0  0  0  0  0  0
   -4.6856   -1.0865    1.1300 H   0  0  0  0  0  0  0  0  0  0  0  0
   -3.7284   -3.0935    0.4107 H   0  0  0  0  0  0  0  0  0  0  0  0
   -4.8737   -2.5624   -0.8705 H   0  0  0  0  0  0  0  0  0  0  0  0
   -3.1908   -1.6439   -2.2573 H   0  0  0  0  0  0  0  0  0  0  0  0
   -2.8029   -3.3431   -1.9352 H   0  0  0  0  0  0  0  0  0  0  0  0
   -1.0309   -3.9281   -0.4813 H   0  0  0  0  0  0  0  0  0  0  0  0
    1.2188   -3.4334    0.3173 H   0  0  0  0  0  0  0  0  0  0  0  0
    0.5837    0.7126   -0.5545 H   0  0  0  0  0  0  0  0  0  0  0  0
   -1.6349    0.1864   -1.3390 H   0  0  0  0  0  0  0  0  0  0  0  0
    3.1736   -3.0300    1.0147 H   0  0  0  0  0  0  0  0  0  0  0  0
    2.6037    1.0525    0.1785 H   0  0  0  0  0  0  0  0  0  0  0  0
    4.7853    1.9891    1.2118 H   0  0  0  0  0  0  0  0  0  0  0  0
    6.7600   -0.0351    0.0031 H   0  0  0  0  0  0  0  0  0  0  0  0
    5.8456    1.2519   -0.7893 H   0  0  0  0  0  0  0  0  0  0  0  0
   10.2195    0.4863   -1.0238 H   0  0  0  0  0  0  0  0  0  0  0  0
    9.9857    2.6229    0.7566 H   0  0  0  0  0  0  0  0  0  0  0  0
    5.0700    0.8515    3.2186 H   0  0  0  0  0  0  0  0  0  0  0  0
    6.2205   -0.2264    2.5407 H   0  0  0  0  0  0  0  0  0  0  0  0
  1  2  1  0
  2  3  2  0
  2  4  1  0
  4  5  1  0
  4  6  1  0
  4  7  1  0
  8  9  1  0
  9 10  1  0
 10 11  1  0
 11 12  1  0
 12 13  1  0
 13 14  1  0
 14 15  1  0
 15 16  1  0
 16 17  2  0
 17 18  1  0
 18 19  2  0
 19 20  1  0
 20 21  2  0
 19 22  1  0
 22 23  2  0
 23 24  1  0
 24 25  2  0
 25 26  1  0
 25 27  1  0
 27 28  1  0
 28 29  1  0
 29 30  1  0
 30 31  2  0
 30 32  1  0
 30 33  1  0
 27 34  1  0
 21 16  1  0
 26 22  1  0
  1 35  1  0
  8 36  1  0
  8 37  1  0
  8 38  1  0
  9 39  1  0
  9 40  1  0
 10 41  1  0
 10 42  1  0
 11 43  1  0
 11 44  1  0
 12 45  1  0
 12 46  1  0
 13 47  1  0
 13 48  1  0
 14 49  1  0
 14 50  1  0
 15 51  1  0
 15 52  1  0
 17 53  1  0
 18 54  1  0
 20 55  1  0
 21 56  1  0
 23 57  1  0
 26 58  1  0
 27 59  1  1
 28 60  1  0
 28 61  1  0
 32 62  1  0
 33 63  1  0
 34 64  1  0
 34 65  1  0
M  END
>  <Ligand ID>  (1) 
LIG0004240

>  <Ligand>  (1) 
CHEMBL190865

>  <SMILES>  (1) 
OC(=O)C(F)(F)F.CCCCCCCCc1ccc(cc1)c1cnc([nH]1)[C@H](COP(=O)(O)O)N

>  <CID>  (1) 
44398124.0

>  <ChEMBL ID>  (1) 
nan

>  <InChiKey>  (1) 
ZCSCDRUDJGGNKN-LMOVPXPDSA-N

>  <InChi>  (1) 
InChI=1S/C19H30N3O4P.C2HF3O2/c1-2-3-4-5-6-7-8-15-9-11-16(12-10-15)18-13-21-19(22-18)17(20)14-26-27(23,24)25;3-2(4,5)1(6)7/h9-13,17H,2-8,14,20H2,1H3,(H,21,22)(H2,23,24,25);(H,6,7)/t17-;/m0./s1

>  <IUPAC Name>  (1) 
[(2R)-2-amino-2-[5-(4-octylphenyl)-1H-imidazol-2-yl]ethyl] dihydrogen phosphate;2,2,2-trifluoroacetic acid

$$$$
