
     RDKit          3D

 34 35  0  0  0  0  0  0  0  0999 V2000
   -0.8339   -2.9400   -0.1219 O   0  0  0  0  0  0  0  0  0  0  0  0
   -0.9677   -1.5956   -0.4912 C   0  0  2  0  0  0  0  0  0  0  0  0
    0.3871   -1.1209   -1.0310 C   0  0  2  0  0  0  0  0  0  0  0  0
    0.9327   -1.9983   -1.9247 O   0  0  0  0  0  0  0  0  0  0  0  0
    1.1063   -1.0819    0.3170 C   0  0  2  0  0  0  0  0  0  0  0  0
    0.2299   -0.2578    1.0159 O   0  0  0  0  0  0  0  0  0  0  0  0
   -1.0194   -0.7781    0.7959 C   0  0  1  0  0  0  0  0  0  0  0  0
   -2.0557    0.1927    0.6495 N   0  0  0  0  0  0  0  0  0  0  0  0
   -3.3413   -0.2466    0.7896 C   0  0  0  0  0  0  0  0  0  0  0  0
   -4.3960    0.6257    0.6633 C   0  0  0  0  0  0  0  0  0  0  0  0
   -6.1747   -0.0553    0.8715 Br  0  0  0  0  0  0  0  0  0  0  0  0
   -4.1339    1.9415    0.3947 C   0  0  0  0  0  0  0  0  0  0  0  0
   -5.1175    2.7181    0.2841 O   0  0  0  0  0  0  0  0  0  0  0  0
   -2.8585    2.3563    0.2598 N   0  0  0  0  0  0  0  0  0  0  0  0
   -1.8359    1.5062    0.3832 C   0  0  0  0  0  0  0  0  0  0  0  0
   -0.6665    1.9078    0.2553 O   0  0  0  0  0  0  0  0  0  0  0  0
    2.4897   -0.5112    0.2185 C   0  0  0  0  0  0  0  0  0  0  0  0
    2.4899    0.6990   -0.4274 O   0  0  0  0  0  0  0  0  0  0  0  0
    4.0785    1.3058   -0.5145 P   0  0  0  0  0  0  0  0  0  0  0  0
    4.6550    1.0940   -1.8774 O   0  0  0  0  0  0  0  0  0  0  0  0
    3.9955    2.9795   -0.1952 O   0  0  0  0  0  0  0  0  0  0  0  0
    4.9709    0.5599    0.7159 O   0  0  0  0  0  0  0  0  0  0  0  0
   -0.7294   -3.0438    0.8606 H   0  0  0  0  0  0  0  0  0  0  0  0
   -1.7977   -1.4002   -1.1695 H   0  0  0  0  0  0  0  0  0  0  0  0
    0.2818   -0.0834   -1.4071 H   0  0  0  0  0  0  0  0  0  0  0  0
    1.5230   -2.6747   -1.5380 H   0  0  0  0  0  0  0  0  0  0  0  0
    1.0798   -2.0896    0.7567 H   0  0  0  0  0  0  0  0  0  0  0  0
   -1.2562   -1.4320    1.6628 H   0  0  0  0  0  0  0  0  0  0  0  0
   -3.5455   -1.2912    1.0027 H   0  0  0  0  0  0  0  0  0  0  0  0
   -2.6858    3.3657    0.0550 H   0  0  0  0  0  0  0  0  0  0  0  0
    3.1593   -1.2734   -0.2003 H   0  0  0  0  0  0  0  0  0  0  0  0
    2.8005   -0.3043    1.2788 H   0  0  0  0  0  0  0  0  0  0  0  0
    3.6891    3.1057    0.7497 H   0  0  0  0  0  0  0  0  0  0  0  0
    5.5465   -0.1796    0.3870 H   0  0  0  0  0  0  0  0  0  0  0  0
  1  2  1  0
  2  3  1  0
  3  4  1  0
  3  5  1  0
  5  6  1  0
  6  7  1  0
  7  8  1  0
  8  9  1  0
  9 10  2  0
 10 11  1  0
 10 12  1  0
 12 13  2  0
 12 14  1  0
 14 15  1  0
 15 16  2  0
  5 17  1  0
 17 18  1  0
 18 19  1  0
 19 20  2  0
 19 21  1  0
 19 22  1  0
  7  2  1  0
 15  8  1  0
  1 23  1  0
  2 24  1  6
  3 25  1  6
  4 26  1  0
  5 27  1  1
  7 28  1  1
  9 29  1  0
 14 30  1  0
 17 31  1  0
 17 32  1  0
 21 33  1  0
 22 34  1  0
M  END
>  <Ligand ID>  (1) 
LIG0002448

>  <Ligand>  (1) 
5-Brump

>  <SMILES>  (1) 
O[C@@H]1[C@H](O)[C@H](O[C@H]1n1cc(Br)c(=O)[nH]c1=O)COP(=O)(O)O

>  <CID>  (1) 
150973.0

>  <ChEMBL ID>  (1) 
nan

>  <InChiKey>  (1) 
IDPVUMJNEZFMNU-UAKXSSHOSA-N

>  <InChi>  (1) 
InChI=1S/C9H12BrN2O9P/c10-3-1-12(9(16)11-7(3)15)8-6(14)5(13)4(21-8)2-20-22(17,18)19/h1,4-6,8,13-14H,2H2,(H,11,15,16)(H2,17,18,19)/t4-,5-,6-,8-/m1/s1

>  <IUPAC Name>  (1) 
[(2R,3S,4R,5R)-5-(5-bromo-2,4-dioxopyrimidin-1-yl)-3,4-dihydroxyoxolan-2-yl]methyl dihydrogen phosphate

$$$$
