
     RDKit          3D

 40 44  0  0  0  0  0  0  0  0999 V2000
    1.7268    3.3413   -0.7048 O   0  0  0  0  0  0  0  0  0  0  0  0
    0.4868    2.7824   -0.3527 C   0  0  1  0  0  0  0  0  0  0  0  0
   -0.0693    2.2077   -1.5992 C   0  0  0  0  0  0  0  0  0  0  0  0
   -0.8548    1.1220   -1.6190 C   0  0  0  0  0  0  0  0  0  0  0  0
   -1.1693    0.4841   -0.3366 C   0  0  2  0  0  0  0  0  0  0  0  0
   -0.0097    0.5079    0.5905 C   0  0  2  0  0  0  0  0  0  0  0  0
    0.7150    1.8104    0.7408 C   0  0  1  0  0  0  0  0  0  0  0  0
    2.1003    1.4196    0.8777 O   0  0  0  0  0  0  0  0  0  0  0  0
    2.2866    0.2505    0.1264 C   0  0  0  0  0  0  0  0  0  0  0  0
    1.0565   -0.2978   -0.0543 C   0  0  0  0  0  0  0  0  0  0  0  0
    0.7940   -1.4422   -0.7337 C   0  0  0  0  0  0  0  0  0  0  0  0
   -0.5822   -1.9278   -0.8656 C   0  0  0  0  0  0  0  0  0  0  0  0
   -1.6138   -0.9486   -0.4301 C   0  0  1  0  0  0  0  0  0  0  0  0
   -2.2398   -1.3183    0.8007 N   0  0  0  0  0  0  0  0  0  0  0  0
   -1.6835   -0.7876    1.9874 C   0  0  0  0  0  0  0  0  0  0  0  0
   -0.3820   -0.0913    1.8940 C   0  0  0  0  0  0  0  0  0  0  0  0
   -3.6821   -1.0973    0.7372 C   0  0  0  0  0  0  0  0  0  0  0  0
    1.8721   -2.1117   -1.2915 C   0  0  0  0  0  0  0  0  0  0  0  0
    3.1388   -1.5859   -1.1289 C   0  0  0  0  0  0  0  0  0  0  0  0
    3.3697   -0.4027   -0.4218 C   0  0  0  0  0  0  0  0  0  0  0  0
    4.6241    0.1317   -0.2524 O   0  0  0  0  0  0  0  0  0  0  0  0
    1.5358    4.0241   -1.3970 H   0  0  0  0  0  0  0  0  0  0  0  0
   -0.1273    3.6474    0.0259 H   0  0  0  0  0  0  0  0  0  0  0  0
    0.1558    2.6729   -2.5718 H   0  0  0  0  0  0  0  0  0  0  0  0
   -1.2526    0.7159   -2.5428 H   0  0  0  0  0  0  0  0  0  0  0  0
   -2.0172    1.0385    0.1168 H   0  0  0  0  0  0  0  0  0  0  0  0
    0.4394    2.2562    1.7145 H   0  0  0  0  0  0  0  0  0  0  0  0
   -0.7215   -2.2507   -1.9272 H   0  0  0  0  0  0  0  0  0  0  0  0
   -0.6900   -2.8529   -0.2650 H   0  0  0  0  0  0  0  0  0  0  0  0
   -2.4224   -0.9520   -1.2176 H   0  0  0  0  0  0  0  0  0  0  0  0
   -2.4291   -0.0956    2.4360 H   0  0  0  0  0  0  0  0  0  0  0  0
   -1.5942   -1.6335    2.7258 H   0  0  0  0  0  0  0  0  0  0  0  0
   -0.3379    0.7531    2.6442 H   0  0  0  0  0  0  0  0  0  0  0  0
    0.4420   -0.7604    2.2216 H   0  0  0  0  0  0  0  0  0  0  0  0
   -4.1143   -0.9933    1.7381 H   0  0  0  0  0  0  0  0  0  0  0  0
   -3.8240   -0.1684    0.1330 H   0  0  0  0  0  0  0  0  0  0  0  0
   -4.1123   -1.9107    0.1282 H   0  0  0  0  0  0  0  0  0  0  0  0
    1.7215   -3.0171   -1.8362 H   0  0  0  0  0  0  0  0  0  0  0  0
    4.0190   -2.0751   -1.5484 H   0  0  0  0  0  0  0  0  0  0  0  0
    5.4448   -0.4446   -0.3808 H   0  0  0  0  0  0  0  0  0  0  0  0
  1  2  1  0
  2  3  1  0
  3  4  2  0
  4  5  1  0
  5  6  1  0
  6  7  1  0
  7  8  1  0
  8  9  1  0
  9 10  2  0
 10 11  1  0
 11 12  1  0
 12 13  1  0
 13 14  1  0
 14 15  1  0
 15 16  1  0
 14 17  1  0
 11 18  2  0
 18 19  1  0
 19 20  2  0
 20 21  1  0
  7  2  1  0
 20  9  1  0
 13  5  1  0
  6 16  1  1
 10  6  1  0
  1 22  1  0
  2 23  1  1
  3 24  1  0
  4 25  1  0
  5 26  1  1
  7 27  1  1
 12 28  1  0
 12 29  1  0
 13 30  1  6
 15 31  1  0
 15 32  1  0
 16 33  1  0
 16 34  1  0
 17 35  1  0
 17 36  1  0
 17 37  1  0
 18 38  1  0
 19 39  1  0
 21 40  1  0
M  END
>  <Ligand ID>  (1) 
LIG0000597

>  <Ligand>  (1) 
morphine

>  <SMILES>  (1) 
O[C@H]1C=C[C@@H]2[C@@]34[C@H]1Oc1c4c(C[C@H]2N(CC3)C)ccc1O

>  <CID>  (1) 
5288826.0

>  <ChEMBL ID>  (1) 
nan

>  <InChiKey>  (1) 
BQJCRHHNABKAKU-KBQPJGBKSA-N

>  <InChi>  (1) 
InChI=1S/C17H19NO3/c1-18-7-6-17-10-3-5-13(20)16(17)21-15-12(19)4-2-9(14(15)17)8-11(10)18/h2-5,10-11,13,16,19-20H,6-8H2,1H3/t10-,11+,13-,16-,17-/m0/s1

>  <IUPAC Name>  (1) 
(4R,4aR,7S,7aR,12bS)-3-methyl-2,4,4a,7,7a,13-hexahydro-1H-4,12-methanobenzofuro[3,2-e]isoquinoline-7,9-diol

$$$$
