
     RDKit          3D

 55 57  0  0  0  0  0  0  0  0999 V2000
    3.6757   -0.8136   -3.2358 O   0  0  0  0  0  0  0  0  0  0  0  0
    4.4731   -0.2327   -2.2808 C   0  0  0  0  0  0  0  0  0  0  0  0
    3.8154   -0.3318   -0.8855 C   0  0  0  0  0  0  0  0  0  0  0  0
    4.7334    0.3885    0.0752 C   0  0  0  0  0  0  0  0  0  0  0  0
    4.9333    1.7174   -0.3083 O   0  0  0  0  0  0  0  0  0  0  0  0
    5.9712    2.4415    0.8267 P   0  0  0  0  0  0  0  0  0  0  0  0
    6.4838    1.4131    1.8108 O   0  0  0  0  0  0  0  0  0  0  0  0
    7.3004    3.1400    0.0735 O   0  0  0  0  0  0  0  0  0  0  0  0
    5.0894    3.6168    1.6650 O   0  0  0  0  0  0  0  0  0  0  0  0
    3.7190   -1.7686   -0.5133 C   0  0  0  0  0  0  0  0  0  0  0  0
    3.1028   -1.9682    0.8076 C   0  0  0  0  0  0  0  0  0  0  0  0
    1.7465   -1.4866    1.0192 C   0  0  0  0  0  0  0  0  0  0  0  0
    1.3781   -0.2698    1.5379 C   0  0  0  0  0  0  0  0  0  0  0  0
    0.0629    0.1244    1.7036 C   0  0  0  0  0  0  0  0  0  0  0  0
   -0.9577   -0.7307    1.3369 C   0  0  0  0  0  0  0  0  0  0  0  0
   -0.6261   -1.9634    0.8116 C   0  0  0  0  0  0  0  0  0  0  0  0
    0.6938   -2.3358    0.6551 C   0  0  0  0  0  0  0  0  0  0  0  0
   -2.3581   -0.3528    1.4954 C   0  0  0  0  0  0  0  0  0  0  0  0
   -2.7987    0.8534    2.0085 C   0  0  0  0  0  0  0  0  0  0  0  0
   -4.0921    0.8694    2.0127 O   0  0  0  0  0  0  0  0  0  0  0  0
   -4.5357   -0.2608    1.5302 C   0  0  0  0  0  0  0  0  0  0  0  0
   -3.4723   -1.0467    1.1974 N   0  0  0  0  0  0  0  0  0  0  0  0
   -5.9793   -0.5876    1.3880 C   0  0  0  0  0  0  0  0  0  0  0  0
   -6.4794   -0.1536    0.0427 C   0  0  0  0  0  0  0  0  0  0  0  0
   -6.4434   -0.9896   -1.0531 C   0  0  0  0  0  0  0  0  0  0  0  0
   -6.9325   -0.4929   -2.2621 C   0  0  0  0  0  0  0  0  0  0  0  0
   -7.4340    0.7881   -2.3573 C   0  0  0  0  0  0  0  0  0  0  0  0
   -7.4658    1.6145   -1.2585 C   0  0  0  0  0  0  0  0  0  0  0  0
   -6.9772    1.1145   -0.0567 C   0  0  0  0  0  0  0  0  0  0  0  0
   -8.0490    1.4127   -3.8772 Cl  0  0  0  0  0  0  0  0  0  0  0  0
    2.5393    0.3465   -0.9018 N   0  0  0  0  0  0  0  0  0  0  0  0
    3.2243   -0.0642   -3.7291 H   0  0  0  0  0  0  0  0  0  0  0  0
    4.6747    0.8200   -2.4969 H   0  0  0  0  0  0  0  0  0  0  0  0
    5.4520   -0.7654   -2.1634 H   0  0  0  0  0  0  0  0  0  0  0  0
    4.4092    0.3354    1.1294 H   0  0  0  0  0  0  0  0  0  0  0  0
    5.7314   -0.1318    0.0652 H   0  0  0  0  0  0  0  0  0  0  0  0
    7.6349    2.6407   -0.7028 H   0  0  0  0  0  0  0  0  0  0  0  0
    5.4219    4.5159    1.4450 H   0  0  0  0  0  0  0  0  0  0  0  0
    4.7877   -2.1420   -0.4335 H   0  0  0  0  0  0  0  0  0  0  0  0
    3.3020   -2.4091   -1.3229 H   0  0  0  0  0  0  0  0  0  0  0  0
    3.7980   -1.5279    1.5851 H   0  0  0  0  0  0  0  0  0  0  0  0
    3.1810   -3.0835    1.0297 H   0  0  0  0  0  0  0  0  0  0  0  0
    2.1442    0.4242    1.8425 H   0  0  0  0  0  0  0  0  0  0  0  0
   -0.1468    1.1014    2.1201 H   0  0  0  0  0  0  0  0  0  0  0  0
   -1.4342   -2.6233    0.5286 H   0  0  0  0  0  0  0  0  0  0  0  0
    0.8922   -3.3044    0.2421 H   0  0  0  0  0  0  0  0  0  0  0  0
   -2.1336    1.6560    2.3519 H   0  0  0  0  0  0  0  0  0  0  0  0
   -6.5517   -0.1436    2.2037 H   0  0  0  0  0  0  0  0  0  0  0  0
   -6.0458   -1.6982    1.4410 H   0  0  0  0  0  0  0  0  0  0  0  0
   -6.0454   -1.9969   -0.9635 H   0  0  0  0  0  0  0  0  0  0  0  0
   -6.9280   -1.1025   -3.1475 H   0  0  0  0  0  0  0  0  0  0  0  0
   -7.8452    2.6262   -1.2679 H   0  0  0  0  0  0  0  0  0  0  0  0
   -7.0030    1.7701    0.8123 H   0  0  0  0  0  0  0  0  0  0  0  0
    1.7865   -0.2350   -1.3342 H   0  0  0  0  0  0  0  0  0  0  0  0
    2.5768    1.2823   -1.3177 H   0  0  0  0  0  0  0  0  0  0  0  0
  1  2  1  0
  2  3  1  0
  3  4  1  0
  4  5  1  0
  5  6  1  0
  6  7  2  0
  6  8  1  0
  6  9  1  0
  3 10  1  0
 10 11  1  0
 11 12  1  0
 12 13  2  0
 13 14  1  0
 14 15  2  0
 15 16  1  0
 16 17  2  0
 15 18  1  0
 18 19  2  0
 19 20  1  0
 20 21  1  0
 21 22  2  0
 21 23  1  0
 23 24  1  0
 24 25  2  0
 25 26  1  0
 26 27  2  0
 27 28  1  0
 28 29  2  0
 27 30  1  0
  3 31  1  0
 17 12  1  0
 22 18  1  0
 29 24  1  0
  1 32  1  0
  2 33  1  0
  2 34  1  0
  4 35  1  0
  4 36  1  0
  8 37  1  0
  9 38  1  0
 10 39  1  0
 10 40  1  0
 11 41  1  0
 11 42  1  0
 13 43  1  0
 14 44  1  0
 16 45  1  0
 17 46  1  0
 19 47  1  0
 23 48  1  0
 23 49  1  0
 25 50  1  0
 26 51  1  0
 28 52  1  0
 29 53  1  0
 31 54  1  0
 31 55  1  0
M  END
>  <Ligand ID>  (1) 
LIG0005926

>  <Ligand>  (1) 
CHEMBL3341932

>  <SMILES>  (1) 
OCC(COP(=O)(O)O)(CCc1ccc(cc1)c1coc(n1)Cc1ccc(cc1)Cl)N

>  <CID>  (1) 
118716154.0

>  <ChEMBL ID>  (1) 
nan

>  <InChiKey>  (1) 
YUAGZXYQWHROPU-UHFFFAOYSA-N

>  <InChi>  (1) 
InChI=1S/C21H24ClN2O6P/c22-18-7-3-16(4-8-18)11-20-24-19(12-29-20)17-5-1-15(2-6-17)9-10-21(23,13-25)14-30-31(26,27)28/h1-8,12,25H,9-11,13-14,23H2,(H2,26,27,28)

>  <IUPAC Name>  (1) 
[2-amino-4-[4-[2-[(4-chlorophenyl)methyl]-1,3-oxazol-4-yl]phenyl]-2-(hydroxymethyl)butyl] dihydrogen phosphate

$$$$
