
     RDKit          3D

 67 71  0  0  0  0  0  0  0  0999 V2000
    9.8989    1.0712    0.5007 N   0  0  0  0  0  0  0  0  0  0  0  0
    8.5639    0.5263    0.4563 C   0  0  0  0  0  0  0  0  0  0  0  0
    7.6290    1.3445    0.5565 O   0  0  0  0  0  0  0  0  0  0  0  0
    8.4498   -0.9279    0.2973 C   0  0  0  0  0  0  0  0  0  0  0  0
    7.0335   -1.4365    0.4599 C   0  0  0  0  0  0  0  0  0  0  0  0
    6.4925   -1.1515    1.8362 C   0  0  0  0  0  0  0  0  0  0  0  0
    5.2018   -1.5991    2.0096 O   0  0  0  0  0  0  0  0  0  0  0  0
    4.0617   -1.1944    1.4025 C   0  0  0  0  0  0  0  0  0  0  0  0
    2.8891   -1.8712    1.7604 C   0  0  0  0  0  0  0  0  0  0  0  0
    1.6640   -1.5633    1.2264 C   0  0  0  0  0  0  0  0  0  0  0  0
    1.5441   -0.5535    0.2978 C   0  0  0  0  0  0  0  0  0  0  0  0
    2.6690    0.1368   -0.0808 C   0  0  0  0  0  0  0  0  0  0  0  0
    3.9094   -0.1954    0.4784 C   0  0  0  0  0  0  0  0  0  0  0  0
    0.2336   -0.2750   -0.1885 N   0  0  0  0  0  0  0  0  0  0  0  0
   -0.0935   -0.0749   -1.5413 C   0  0  0  0  0  0  0  0  0  0  0  0
    0.8175   -0.2036   -2.5677 C   0  0  0  0  0  0  0  0  0  0  0  0
    0.4781    0.0244   -3.9009 C   0  0  0  0  0  0  0  0  0  0  0  0
    1.3536   -0.1064   -4.8069 O   0  0  0  0  0  0  0  0  0  0  0  0
   -0.7735    0.3833   -4.2327 N   0  0  0  0  0  0  0  0  0  0  0  0
   -1.6839    0.5147   -3.2426 C   0  0  0  0  0  0  0  0  0  0  0  0
   -1.3764    0.2955   -1.9106 C   0  0  0  0  0  0  0  0  0  0  0  0
   -2.4008    0.4673   -1.0067 C   0  0  0  0  0  0  0  0  0  0  0  0
   -3.6840    0.8416   -1.3959 C   0  0  0  0  0  0  0  0  0  0  0  0
   -3.9713    1.0557   -2.7266 C   0  0  0  0  0  0  0  0  0  0  0  0
   -2.9582    0.8887   -3.6481 C   0  0  0  0  0  0  0  0  0  0  0  0
   -4.7384    1.0000   -0.3575 C   0  0  0  0  0  0  0  0  0  0  0  0
   -5.5546   -0.2244   -0.2741 C   0  0  0  0  0  0  0  0  0  0  0  0
   -5.0077   -1.4642   -0.0025 C   0  0  0  0  0  0  0  0  0  0  0  0
   -5.7566   -2.6183    0.0908 C   0  0  0  0  0  0  0  0  0  0  0  0
   -7.1224   -2.5726   -0.0898 C   0  0  0  0  0  0  0  0  0  0  0  0
   -7.7057   -1.3534   -0.3628 C   0  0  0  0  0  0  0  0  0  0  0  0
   -6.9447   -0.2154   -0.4520 C   0  0  0  0  0  0  0  0  0  0  0  0
   -8.1297   -4.0063    0.0165 Cl  0  0  0  0  0  0  0  0  0  0  0  0
   -4.2743    1.5447    0.9139 C   0  0  0  0  0  0  0  0  0  0  0  0
   -4.0749    2.9303    1.0106 C   0  0  0  0  0  0  0  0  0  0  0  0
   -3.6440    3.5254    2.1736 C   0  0  0  0  0  0  0  0  0  0  0  0
   -3.3930    2.7603    3.2930 C   0  0  0  0  0  0  0  0  0  0  0  0
   -3.5773    1.3943    3.2384 C   0  0  0  0  0  0  0  0  0  0  0  0
   -4.0107    0.8281    2.0563 C   0  0  0  0  0  0  0  0  0  0  0  0
   -2.8516    3.5552    4.7373 Cl  0  0  0  0  0  0  0  0  0  0  0  0
   10.7030    0.5872    0.0505 H   0  0  0  0  0  0  0  0  0  0  0  0
   10.1163    1.9689    0.9836 H   0  0  0  0  0  0  0  0  0  0  0  0
    9.1097   -1.4479    1.0264 H   0  0  0  0  0  0  0  0  0  0  0  0
    8.8388   -1.2266   -0.7148 H   0  0  0  0  0  0  0  0  0  0  0  0
    6.3821   -1.0316   -0.2983 H   0  0  0  0  0  0  0  0  0  0  0  0
    7.0915   -2.5574    0.2969 H   0  0  0  0  0  0  0  0  0  0  0  0
    7.1823   -1.6282    2.5818 H   0  0  0  0  0  0  0  0  0  0  0  0
    6.5492   -0.0309    2.0008 H   0  0  0  0  0  0  0  0  0  0  0  0
    2.9227   -2.6736    2.4854 H   0  0  0  0  0  0  0  0  0  0  0  0
    0.7811   -2.1235    1.5414 H   0  0  0  0  0  0  0  0  0  0  0  0
    2.6152    0.9328   -0.7798 H   0  0  0  0  0  0  0  0  0  0  0  0
    4.7340    0.4055    0.1487 H   0  0  0  0  0  0  0  0  0  0  0  0
   -0.5032   -0.2287    0.5551 H   0  0  0  0  0  0  0  0  0  0  0  0
    1.8392   -0.5030   -2.3987 H   0  0  0  0  0  0  0  0  0  0  0  0
   -0.9954    0.5463   -5.2403 H   0  0  0  0  0  0  0  0  0  0  0  0
   -2.2496    0.3197    0.0350 H   0  0  0  0  0  0  0  0  0  0  0  0
   -4.9757    1.3473   -3.0120 H   0  0  0  0  0  0  0  0  0  0  0  0
   -3.1971    1.0615   -4.7061 H   0  0  0  0  0  0  0  0  0  0  0  0
   -5.4350    1.7863   -0.7904 H   0  0  0  0  0  0  0  0  0  0  0  0
   -3.9274   -1.5971    0.1468 H   0  0  0  0  0  0  0  0  0  0  0  0
   -5.2667   -3.5805    0.3095 H   0  0  0  0  0  0  0  0  0  0  0  0
   -8.7735   -1.2584   -0.5135 H   0  0  0  0  0  0  0  0  0  0  0  0
   -7.4148    0.7415   -0.6681 H   0  0  0  0  0  0  0  0  0  0  0  0
   -4.2580    3.5749    0.1607 H   0  0  0  0  0  0  0  0  0  0  0  0
   -3.5017    4.6092    2.2070 H   0  0  0  0  0  0  0  0  0  0  0  0
   -3.3838    0.7658    4.1186 H   0  0  0  0  0  0  0  0  0  0  0  0
   -4.1454   -0.2406    2.0567 H   0  0  0  0  0  0  0  0  0  0  0  0
  1  2  1  0
  2  3  2  0
  2  4  1  0
  4  5  1  0
  5  6  1  0
  6  7  1  0
  7  8  1  0
  8  9  2  0
  9 10  1  0
 10 11  2  0
 11 12  1  0
 12 13  2  0
 11 14  1  0
 14 15  1  0
 15 16  2  0
 16 17  1  0
 17 18  2  0
 17 19  1  0
 19 20  1  0
 20 21  2  0
 21 22  1  0
 22 23  2  0
 23 24  1  0
 24 25  2  0
 23 26  1  0
 26 27  1  0
 27 28  2  0
 28 29  1  0
 29 30  2  0
 30 31  1  0
 31 32  2  0
 30 33  1  0
 26 34  1  0
 34 35  2  0
 35 36  1  0
 36 37  2  0
 37 38  1  0
 38 39  2  0
 37 40  1  0
 13  8  1  0
 21 15  1  0
 32 27  1  0
 39 34  1  0
 25 20  1  0
  1 41  1  0
  1 42  1  0
  4 43  1  0
  4 44  1  0
  5 45  1  0
  5 46  1  0
  6 47  1  0
  6 48  1  0
  9 49  1  0
 10 50  1  0
 12 51  1  0
 13 52  1  0
 14 53  1  0
 16 54  1  0
 19 55  1  0
 22 56  1  0
 24 57  1  0
 25 58  1  0
 26 59  1  0
 28 60  1  0
 29 61  1  0
 31 62  1  0
 32 63  1  0
 35 64  1  0
 36 65  1  0
 38 66  1  0
 39 67  1  0
M  END
>  <Ligand ID>  (1) 
LIG0005898

>  <Ligand>  (1) 
CHEMBL3964712

>  <SMILES>  (1) 
NC(=O)CCCOc1ccc(cc1)Nc1cc(=O)[nH]c2c1cc(cc2)C(c1ccc(cc1)Cl)c1ccc(cc1)Cl

>  <CID>  (1) 
118324139.0

>  <ChEMBL ID>  (1) 
nan

>  <InChiKey>  (1) 
RFZFPCARUGWAAM-UHFFFAOYSA-N

>  <InChi>  (1) 
InChI=1S/C32H27Cl2N3O3/c33-23-8-3-20(4-9-23)32(21-5-10-24(34)11-6-21)22-7-16-28-27(18-22)29(19-31(39)37-28)36-25-12-14-26(15-13-25)40-17-1-2-30(35)38/h3-16,18-19,32H,1-2,17H2,(H2,35,38)(H2,36,37,39)

>  <IUPAC Name>  (1) 
4-[4-[[6-[bis(4-chlorophenyl)methyl]-2-oxo-1H-quinolin-4-yl]amino]phenoxy]butanamide

$$$$
