
     RDKit          3D

 44 44  0  0  0  0  0  0  0  0999 V2000
    6.5270    0.0604    0.8211 O   0  0  0  0  0  0  0  0  0  0  0  0
    5.5326   -0.3509   -0.0634 C   0  0  0  0  0  0  0  0  0  0  0  0
    4.2199    0.2222    0.4246 C   0  0  0  0  0  0  0  0  0  0  0  0
    3.0727   -0.1927   -0.5072 C   0  0  0  0  0  0  0  0  0  0  0  0
    1.8245    0.4523    0.1051 C   0  0  0  0  0  0  0  0  0  0  0  0
    0.6950    0.1739   -0.6193 O   0  0  0  0  0  0  0  0  0  0  0  0
   -0.4768    0.7501   -0.0878 C   0  0  0  0  0  0  0  0  0  0  0  0
   -0.9023    1.7358   -1.1734 C   0  0  0  0  0  0  0  0  0  0  0  0
   -0.9955    1.0490   -2.5228 C   0  0  0  0  0  0  0  0  0  0  0  0
   -1.2235   -0.4222   -2.4041 C   0  0  0  0  0  0  0  0  0  0  0  0
   -2.1256   -0.7065   -1.2197 C   0  0  0  0  0  0  0  0  0  0  0  0
   -1.4646   -0.3646    0.0776 C   0  0  0  0  0  0  0  0  0  0  0  0
   -2.4754   -0.1542    1.1648 C   0  0  0  0  0  0  0  0  0  0  0  0
   -3.3760   -1.3957    1.1624 C   0  0  0  0  0  0  0  0  0  0  0  0
   -3.3533    1.0370    0.9759 C   0  0  0  0  0  0  0  0  0  0  0  0
   -1.8747   -0.0819    2.5328 C   0  0  0  0  0  0  0  0  0  0  0  0
    6.4782   -0.3820    1.7055 H   0  0  0  0  0  0  0  0  0  0  0  0
    5.4775   -1.4348   -0.1823 H   0  0  0  0  0  0  0  0  0  0  0  0
    5.7947    0.0875   -1.0469 H   0  0  0  0  0  0  0  0  0  0  0  0
    4.2367    1.3299    0.3582 H   0  0  0  0  0  0  0  0  0  0  0  0
    3.9776   -0.1658    1.4178 H   0  0  0  0  0  0  0  0  0  0  0  0
    3.1963    0.2199   -1.5130 H   0  0  0  0  0  0  0  0  0  0  0  0
    2.9676   -1.2846   -0.5554 H   0  0  0  0  0  0  0  0  0  0  0  0
    2.0277    1.5380    0.2145 H   0  0  0  0  0  0  0  0  0  0  0  0
    1.7083    0.0016    1.1123 H   0  0  0  0  0  0  0  0  0  0  0  0
   -0.2602    1.3192    0.8160 H   0  0  0  0  0  0  0  0  0  0  0  0
   -0.0762    2.4734   -1.2494 H   0  0  0  0  0  0  0  0  0  0  0  0
   -1.8135    2.2775   -0.9286 H   0  0  0  0  0  0  0  0  0  0  0  0
   -1.7814    1.5426   -3.1323 H   0  0  0  0  0  0  0  0  0  0  0  0
   -0.0428    1.1989   -3.1090 H   0  0  0  0  0  0  0  0  0  0  0  0
   -0.2912   -1.0216   -2.3705 H   0  0  0  0  0  0  0  0  0  0  0  0
   -1.7685   -0.7658   -3.3072 H   0  0  0  0  0  0  0  0  0  0  0  0
   -2.3602   -1.7992   -1.2247 H   0  0  0  0  0  0  0  0  0  0  0  0
   -3.0456   -0.1353   -1.3880 H   0  0  0  0  0  0  0  0  0  0  0  0
   -0.8766   -1.2762    0.3904 H   0  0  0  0  0  0  0  0  0  0  0  0
   -4.1454   -1.2138    1.9431 H   0  0  0  0  0  0  0  0  0  0  0  0
   -2.8096   -2.3157    1.3514 H   0  0  0  0  0  0  0  0  0  0  0  0
   -3.9421   -1.4330    0.1958 H   0  0  0  0  0  0  0  0  0  0  0  0
   -2.8323    1.9888    1.2518 H   0  0  0  0  0  0  0  0  0  0  0  0
   -3.8910    1.0625    0.0303 H   0  0  0  0  0  0  0  0  0  0  0  0
   -4.1580    0.9509    1.7638 H   0  0  0  0  0  0  0  0  0  0  0  0
   -1.1967    0.7901    2.6561 H   0  0  0  0  0  0  0  0  0  0  0  0
   -2.7379    0.1003    3.2357 H   0  0  0  0  0  0  0  0  0  0  0  0
   -1.4396   -1.0330    2.8979 H   0  0  0  0  0  0  0  0  0  0  0  0
  1  2  1  0
  2  3  1  0
  3  4  1  0
  4  5  1  0
  5  6  1  0
  6  7  1  0
  7  8  1  0
  8  9  1  0
  9 10  1  0
 10 11  1  0
 11 12  1  0
 12 13  1  0
 13 14  1  0
 13 15  1  0
 13 16  1  0
 12  7  1  0
  1 17  1  0
  2 18  1  0
  2 19  1  0
  3 20  1  0
  3 21  1  0
  4 22  1  0
  4 23  1  0
  5 24  1  0
  5 25  1  0
  7 26  1  0
  8 27  1  0
  8 28  1  0
  9 29  1  0
  9 30  1  0
 10 31  1  0
 10 32  1  0
 11 33  1  0
 11 34  1  0
 12 35  1  0
 14 36  1  0
 14 37  1  0
 14 38  1  0
 15 39  1  0
 15 40  1  0
 15 41  1  0
 16 42  1  0
 16 43  1  0
 16 44  1  0
M  END
>  <Ligand ID>  (1) 
LIG0000422

>  <Ligand>  (1) 
4-(2-tert-butylcyclohexyl)oxybutan-1-ol

>  <SMILES>  (1) 
OCCCCOC1CCCCC1C(C)(C)C

>  <CID>  (1) 
53836233.0

>  <ChEMBL ID>  (1) 
nan

>  <InChiKey>  (1) 
GFVWSUIPAJYAEG-UHFFFAOYSA-N

>  <InChi>  (1) 
InChI=1S/C14H28O2/c1-14(2,3)12-8-4-5-9-13(12)16-11-7-6-10-15/h12-13,15H,4-11H2,1-3H3

>  <IUPAC Name>  (1) 
4-(2-tert-butylcyclohexyl)oxybutan-1-ol

$$$$
