
     RDKit          3D

149152  0  0  0  0  0  0  0  0999 V2000
    8.3889    3.8474   -1.1265 C   0  0  0  0  0  0  0  0  0  0  0  0
    7.8041    5.0094   -0.3717 C   0  0  0  0  0  0  0  0  0  0  0  0
    6.3395    4.9967   -0.1781 C   0  0  0  0  0  0  0  0  0  0  0  0
    5.7296    3.9186    0.6598 C   0  0  0  0  0  0  0  0  0  0  0  0
    5.9538    2.5112    0.2535 C   0  0  0  0  0  0  0  0  0  0  0  0
    5.2028    1.4963    1.1526 C   0  0  0  0  0  0  0  0  0  0  0  0
    5.5064    0.1207    0.6947 C   0  0  1  0  0  0  0  0  0  0  0  0
    5.1036   -0.1033   -0.7438 C   0  0  0  0  0  0  0  0  0  0  0  0
    6.0394   -0.2769   -1.5487 O   0  0  0  0  0  0  0  0  0  0  0  0
    3.7179   -0.1199   -1.1250 N   0  0  0  0  0  0  0  0  0  0  0  0
    3.4183   -0.3529   -2.4911 C   0  0  2  0  0  0  0  0  0  0  0  0
    2.0748   -0.0596   -2.9758 C   0  0  0  0  0  0  0  0  0  0  0  0
    1.8674   -0.4098   -4.2069 O   0  0  0  0  0  0  0  0  0  0  0  0
    1.0002    0.5346   -2.2966 N   0  0  0  0  0  0  0  0  0  0  0  0
   -0.2683    0.6703   -3.0198 C   0  0  1  0  0  0  0  0  0  0  0  0
   -1.4105    0.1996   -2.2512 C   0  0  0  0  0  0  0  0  0  0  0  0
   -2.4730   -0.0988   -2.8808 O   0  0  0  0  0  0  0  0  0  0  0  0
   -1.4591    0.0241   -0.8378 N   0  0  0  0  0  0  0  0  0  0  0  0
   -2.6622   -0.5742   -0.1742 C   0  0  2  0  0  0  0  0  0  0  0  0
   -3.8171    0.3939   -0.2728 C   0  0  0  0  0  0  0  0  0  0  0  0
   -3.6637    1.6009   -0.5657 O   0  0  0  0  0  0  0  0  0  0  0  0
   -5.1071   -0.0904   -0.0387 N   0  0  0  0  0  0  0  0  0  0  0  0
   -6.3488    0.6972   -0.1228 C   0  0  2  0  0  0  0  0  0  0  0  0
   -7.1540    0.6570    1.0701 C   0  0  0  0  0  0  0  0  0  0  0  0
   -6.7042   -0.0275    2.0658 O   0  0  0  0  0  0  0  0  0  0  0  0
   -8.3988    1.2879    1.3125 N   0  0  0  0  0  0  0  0  0  0  0  0
   -9.1123    1.2165    2.5633 C   0  0  2  0  0  0  0  0  0  0  0  0
  -10.3724    0.4778    2.4292 C   0  0  0  0  0  0  0  0  0  0  0  0
  -10.7811   -0.0885    1.3914 O   0  0  0  0  0  0  0  0  0  0  0  0
  -11.2576    0.3665    3.5729 N   0  0  0  0  0  0  0  0  0  0  0  0
   -9.4036    2.5963    3.1404 C   0  0  0  0  0  0  0  0  0  0  0  0
  -10.1832    3.4291    2.2921 N   0  0  0  0  0  0  0  0  0  0  0  0
  -11.0387    3.0918    1.5087 N   0  0  0  0  0  0  0  0  0  0  0  0
  -11.9125    2.7446    0.6802 N   0  0  0  0  0  0  0  0  0  0  0  0
   -6.8889    0.4656   -1.4738 C   0  0  0  0  0  0  0  0  0  0  0  0
   -8.1272    1.0221   -1.9362 C   0  0  0  0  0  0  0  0  0  0  0  0
   -8.3325    2.2882   -2.4800 C   0  0  0  0  0  0  0  0  0  0  0  0
   -9.6473    2.4533   -2.7531 N   0  0  0  0  0  0  0  0  0  0  0  0
  -10.3218    1.3510   -2.4147 C   0  0  0  0  0  0  0  0  0  0  0  0
   -9.3958    0.4530   -1.9062 C   0  0  0  0  0  0  0  0  0  0  0  0
   -9.8898   -0.7727   -1.5244 C   0  0  0  0  0  0  0  0  0  0  0  0
  -11.2271   -1.1222   -1.6271 C   0  0  0  0  0  0  0  0  0  0  0  0
  -12.1316   -0.2049   -2.1370 C   0  0  0  0  0  0  0  0  0  0  0  0
  -11.6708    1.0403   -2.5317 C   0  0  0  0  0  0  0  0  0  0  0  0
   -2.2338   -0.7460    1.2210 C   0  0  0  0  0  0  0  0  0  0  0  0
   -3.0524   -1.3624    2.2624 C   0  0  0  0  0  0  0  0  0  0  0  0
   -3.3943   -2.7939    2.1935 C   0  0  0  0  0  0  0  0  0  0  0  0
   -4.1575   -3.3248    1.1364 N   0  0  0  0  0  0  0  0  0  0  0  0
   -5.4038   -3.7317    1.2887 C   0  0  0  0  0  0  0  0  0  0  0  0
   -5.9071   -3.5811    2.6157 N   0  0  0  0  0  0  0  0  0  0  0  0
   -6.1570   -4.2801    0.2286 N   0  0  0  0  0  0  0  0  0  0  0  0
   -0.3921    2.0895   -3.4578 C   0  0  0  0  0  0  0  0  0  0  0  0
   -0.3714    3.0478   -2.3404 C   0  0  0  0  0  0  0  0  0  0  0  0
    0.8358    3.4767   -1.7823 C   0  0  0  0  0  0  0  0  0  0  0  0
    0.8940    4.4033   -0.7756 C   0  0  0  0  0  0  0  0  0  0  0  0
   -0.2599    4.9852   -0.2359 C   0  0  0  0  0  0  0  0  0  0  0  0
   -1.4498    4.5615   -0.7875 C   0  0  0  0  0  0  0  0  0  0  0  0
   -1.5036    3.6327   -1.7971 C   0  0  0  0  0  0  0  0  0  0  0  0
    3.7355   -1.8464   -2.7668 C   0  0  0  0  0  0  0  0  0  0  0  0
    2.9374   -2.7701   -1.9705 C   0  0  0  0  0  0  0  0  0  0  0  0
    3.1146   -4.1620   -2.0548 C   0  0  0  0  0  0  0  0  0  0  0  0
    2.2515   -4.7241   -1.1946 N   0  0  0  0  0  0  0  0  0  0  0  0
    1.5424   -3.7892   -0.5734 C   0  0  0  0  0  0  0  0  0  0  0  0
    1.9822   -2.5965   -1.0681 N   0  0  0  0  0  0  0  0  0  0  0  0
    6.9254   -0.2245    0.8408 N   0  0  0  0  0  0  0  0  0  0  0  0
    7.2458   -1.5882    0.5666 C   0  0  0  0  0  0  0  0  0  0  0  0
    6.2671   -2.3103    0.2026 O   0  0  0  0  0  0  0  0  0  0  0  0
    8.5622   -2.2048    0.6613 C   0  0  1  0  0  0  0  0  0  0  0  0
    9.4744   -1.4446    1.4557 N   0  0  0  0  0  0  0  0  0  0  0  0
   10.6756   -0.8470    0.9472 C   0  0  0  0  0  0  0  0  0  0  0  0
   11.0195   -0.9538   -0.2664 O   0  0  0  0  0  0  0  0  0  0  0  0
   11.5219   -0.0776    1.9302 C   0  0  0  0  0  0  0  0  0  0  0  0
    8.4302   -3.6576    1.0325 C   0  0  0  0  0  0  0  0  0  0  0  0
    9.7750   -4.3178    1.1658 C   0  0  0  0  0  0  0  0  0  0  0  0
    9.5297   -5.8008    1.4396 C   0  0  0  0  0  0  0  0  0  0  0  0
   10.8306   -6.5380    1.6005 C   0  0  0  0  0  0  0  0  0  0  0  0
    7.6076    3.2597   -1.6599 H   0  0  0  0  0  0  0  0  0  0  0  0
    8.9791    3.1505   -0.5043 H   0  0  0  0  0  0  0  0  0  0  0  0
    9.1546    4.2172   -1.8858 H   0  0  0  0  0  0  0  0  0  0  0  0
    8.2587    4.9858    0.6765 H   0  0  0  0  0  0  0  0  0  0  0  0
    8.1468    5.9466   -0.8633 H   0  0  0  0  0  0  0  0  0  0  0  0
    6.0350    6.0040    0.2610 H   0  0  0  0  0  0  0  0  0  0  0  0
    5.8085    5.0406   -1.1904 H   0  0  0  0  0  0  0  0  0  0  0  0
    4.6130    4.1694    0.6770 H   0  0  0  0  0  0  0  0  0  0  0  0
    6.0180    4.0773    1.7329 H   0  0  0  0  0  0  0  0  0  0  0  0
    5.6158    2.3177   -0.7696 H   0  0  0  0  0  0  0  0  0  0  0  0
    7.0435    2.2997    0.3671 H   0  0  0  0  0  0  0  0  0  0  0  0
    5.6434    1.6474    2.1668 H   0  0  0  0  0  0  0  0  0  0  0  0
    4.1452    1.6965    1.2241 H   0  0  0  0  0  0  0  0  0  0  0  0
    4.9257   -0.6373    1.2273 H   0  0  0  0  0  0  0  0  0  0  0  0
    3.0506    0.0472   -0.3435 H   0  0  0  0  0  0  0  0  0  0  0  0
    4.1810    0.1414   -3.1745 H   0  0  0  0  0  0  0  0  0  0  0  0
    1.1385    0.8569   -1.3218 H   0  0  0  0  0  0  0  0  0  0  0  0
   -0.1664    0.0171   -3.9744 H   0  0  0  0  0  0  0  0  0  0  0  0
   -0.6334    0.3252   -0.3048 H   0  0  0  0  0  0  0  0  0  0  0  0
   -2.8865   -1.4771   -0.7118 H   0  0  0  0  0  0  0  0  0  0  0  0
   -5.2695   -1.0903    0.2060 H   0  0  0  0  0  0  0  0  0  0  0  0
   -5.9184    1.7859   -0.1418 H   0  0  0  0  0  0  0  0  0  0  0  0
   -8.8069    1.8394    0.5311 H   0  0  0  0  0  0  0  0  0  0  0  0
   -8.4793    0.6356    3.2791 H   0  0  0  0  0  0  0  0  0  0  0  0
  -12.2994    0.3913    3.3634 H   0  0  0  0  0  0  0  0  0  0  0  0
  -10.9069    0.2712    4.5401 H   0  0  0  0  0  0  0  0  0  0  0  0
   -8.5184    3.1235    3.4862 H   0  0  0  0  0  0  0  0  0  0  0  0
  -10.0330    2.3891    4.0582 H   0  0  0  0  0  0  0  0  0  0  0  0
   -6.9434   -0.6822   -1.5761 H   0  0  0  0  0  0  0  0  0  0  0  0
   -6.0222    0.6786   -2.1850 H   0  0  0  0  0  0  0  0  0  0  0  0
   -7.5139    2.9923   -2.6381 H   0  0  0  0  0  0  0  0  0  0  0  0
  -10.0784    3.3209   -3.1642 H   0  0  0  0  0  0  0  0  0  0  0  0
   -9.1826   -1.4887   -1.1305 H   0  0  0  0  0  0  0  0  0  0  0  0
  -11.5155   -2.1066   -1.3000 H   0  0  0  0  0  0  0  0  0  0  0  0
  -13.1571   -0.5119   -2.1982 H   0  0  0  0  0  0  0  0  0  0  0  0
  -12.3909    1.7475   -2.9331 H   0  0  0  0  0  0  0  0  0  0  0  0
   -1.8653    0.2488    1.6521 H   0  0  0  0  0  0  0  0  0  0  0  0
   -1.2446   -1.3231    1.1814 H   0  0  0  0  0  0  0  0  0  0  0  0
   -3.9493   -0.7059    2.4667 H   0  0  0  0  0  0  0  0  0  0  0  0
   -2.4668   -1.2352    3.2426 H   0  0  0  0  0  0  0  0  0  0  0  0
   -3.8440   -3.1208    3.2013 H   0  0  0  0  0  0  0  0  0  0  0  0
   -2.4068   -3.3564    2.2228 H   0  0  0  0  0  0  0  0  0  0  0  0
   -6.2675   -2.6419    2.9644 H   0  0  0  0  0  0  0  0  0  0  0  0
   -5.9555   -4.3521    3.3131 H   0  0  0  0  0  0  0  0  0  0  0  0
   -6.0508   -5.2646   -0.1301 H   0  0  0  0  0  0  0  0  0  0  0  0
   -6.9045   -3.7243   -0.2850 H   0  0  0  0  0  0  0  0  0  0  0  0
    0.4126    2.3890   -4.1709 H   0  0  0  0  0  0  0  0  0  0  0  0
   -1.4045    2.2469   -3.9499 H   0  0  0  0  0  0  0  0  0  0  0  0
    1.7289    3.0332   -2.1908 H   0  0  0  0  0  0  0  0  0  0  0  0
    1.8728    4.7055   -0.3746 H   0  0  0  0  0  0  0  0  0  0  0  0
   -0.1918    5.7141    0.5539 H   0  0  0  0  0  0  0  0  0  0  0  0
   -2.3880    4.9691   -0.4188 H   0  0  0  0  0  0  0  0  0  0  0  0
   -2.4438    3.3390   -2.2158 H   0  0  0  0  0  0  0  0  0  0  0  0
    4.7988   -1.9937   -2.5070 H   0  0  0  0  0  0  0  0  0  0  0  0
    3.6783   -2.0167   -3.8666 H   0  0  0  0  0  0  0  0  0  0  0  0
    3.8225   -4.6894   -2.6946 H   0  0  0  0  0  0  0  0  0  0  0  0
    0.7508   -3.8918    0.1835 H   0  0  0  0  0  0  0  0  0  0  0  0
    1.5809   -1.7067   -0.7485 H   0  0  0  0  0  0  0  0  0  0  0  0
    7.6612    0.4422    1.1171 H   0  0  0  0  0  0  0  0  0  0  0  0
    8.9807   -2.1729   -0.4337 H   0  0  0  0  0  0  0  0  0  0  0  0
    9.2309   -1.3285    2.4867 H   0  0  0  0  0  0  0  0  0  0  0  0
   11.4911   -0.6232    2.9043 H   0  0  0  0  0  0  0  0  0  0  0  0
   11.0737    0.9111    2.1206 H   0  0  0  0  0  0  0  0  0  0  0  0
   12.5526   -0.0715    1.5631 H   0  0  0  0  0  0  0  0  0  0  0  0
    7.9521   -4.1550    0.1311 H   0  0  0  0  0  0  0  0  0  0  0  0
    7.7718   -3.8081    1.8956 H   0  0  0  0  0  0  0  0  0  0  0  0
   10.3551   -4.1927    0.2569 H   0  0  0  0  0  0  0  0  0  0  0  0
   10.3515   -3.8961    2.0346 H   0  0  0  0  0  0  0  0  0  0  0  0
    8.8755   -5.8829    2.3104 H   0  0  0  0  0  0  0  0  0  0  0  0
    9.0283   -6.2292    0.5324 H   0  0  0  0  0  0  0  0  0  0  0  0
   11.4426   -6.5182    0.6885 H   0  0  0  0  0  0  0  0  0  0  0  0
   10.6470   -7.5943    1.9050 H   0  0  0  0  0  0  0  0  0  0  0  0
   11.4274   -6.0689    2.4255 H   0  0  0  0  0  0  0  0  0  0  0  0
  1  2  1  0
  2  3  1  0
  3  4  1  0
  4  5  1  0
  5  6  1  0
  6  7  1  0
  7  8  1  0
  8  9  2  0
  8 10  1  0
 10 11  1  0
 11 12  1  0
 12 13  2  0
 12 14  1  0
 14 15  1  0
 15 16  1  0
 16 17  2  0
 16 18  1  0
 18 19  1  0
 19 20  1  0
 20 21  2  0
 20 22  1  0
 22 23  1  0
 23 24  1  0
 24 25  2  0
 24 26  1  0
 26 27  1  0
 27 28  1  0
 28 29  2  0
 28 30  1  0
 27 31  1  0
 31 32  1  0
 32 33  2  0
 33 34  2  0
 23 35  1  0
 35 36  1  0
 36 37  2  0
 37 38  1  0
 38 39  1  0
 39 40  2  0
 40 41  1  0
 41 42  2  0
 42 43  1  0
 43 44  2  0
 19 45  1  0
 45 46  1  0
 46 47  1  0
 47 48  1  0
 48 49  2  3
 49 50  1  0
 49 51  1  0
 15 52  1  0
 52 53  1  0
 53 54  2  0
 54 55  1  0
 55 56  2  0
 56 57  1  0
 57 58  2  0
 11 59  1  0
 59 60  1  0
 60 61  2  0
 61 62  1  0
 62 63  2  0
 63 64  1  0
  7 65  1  0
 65 66  1  0
 66 67  2  0
 66 68  1  0
 68 69  1  0
 69 70  1  0
 70 71  2  0
 70 72  1  0
 68 73  1  0
 73 74  1  0
 74 75  1  0
 75 76  1  0
 40 36  1  0
 58 53  1  0
 64 60  1  0
 44 39  1  0
  1 77  1  0
  1 78  1  0
  1 79  1  0
  2 80  1  0
  2 81  1  0
  3 82  1  0
  3 83  1  0
  4 84  1  0
  4 85  1  0
  5 86  1  0
  5 87  1  0
  6 88  1  0
  6 89  1  0
  7 90  1  1
 10 91  1  0
 11 92  1  6
 14 93  1  0
 15 94  1  6
 18 95  1  0
 19 96  1  6
 22 97  1  0
 23 98  1  6
 26 99  1  0
 27100  1  1
 30101  1  0
 30102  1  0
 31103  1  0
 31104  1  0
 35105  1  0
 35106  1  0
 37107  1  0
 38108  1  0
 41109  1  0
 42110  1  0
 43111  1  0
 44112  1  0
 45113  1  0
 45114  1  0
 46115  1  0
 46116  1  0
 47117  1  0
 47118  1  0
 50119  1  0
 50120  1  0
 51121  1  0
 51122  1  0
 52123  1  0
 52124  1  0
 54125  1  0
 55126  1  0
 56127  1  0
 57128  1  0
 58129  1  0
 59130  1  0
 59131  1  0
 61132  1  0
 63133  1  0
 64134  1  0
 65135  1  0
 68136  1  6
 69137  1  0
 72138  1  0
 72139  1  0
 72140  1  0
 73141  1  0
 73142  1  0
 74143  1  0
 74144  1  0
 75145  1  0
 75146  1  0
 76147  1  0
 76148  1  0
 76149  1  0
M  CHG  2  33   1  34  -1
M  END
>  <Ligand ID>  (1) 
LIG0001872

>  <Ligand>  (1) 
CHEMBL3358536

>  <SMILES>  (1) 
CCCCCC[C@@H](C(=O)N[C@H](C(=O)N[C@@H](C(=O)N[C@H](C(=O)N[C@H](C(=O)N[C@H](C(=O)N)CN=[N+]=[N-])Cc1c[nH]c2c1cccc2)CCCN=C(N)N)Cc1ccccc1)Cc1cnc[nH]1)NC(=O)[C@@H](NC(=O)C)CCCC

>  <CID>  (1) 
118722927.0

>  <ChEMBL ID>  (1) 
nan

>  <InChiKey>  (1) 
GMRAYQVDTHJHDB-ZRBRQIMBSA-N

>  <InChi>  (1) 
InChI=1S/C51H73N17O8/c1-4-6-8-12-21-38(62-45(71)37(19-7-5-2)61-31(3)69)46(72)66-42(26-34-28-56-30-59-34)50(76)64-40(24-32-16-10-9-11-17-32)48(74)63-39(22-15-23-57-51(53)54)47(73)65-41(49(75)67-43(44(52)70)29-60-68-55)25-33-27-58-36-20-14-13-18-35(33)36/h9-11,13-14,16-18,20,27-28,30,37-43,58H,4-8,12,15,19,21-26,29H2,1-3H3,(H2,52,70)(H,56,59)(H,61,69)(H,62,71)(H,63,74)(H,64,76)(H,65,73)(H,66,72)(H,67,75)(H4,53,54,57)/t37-,38-,39-,40+,41-,42-,43-/m0/s1

>  <IUPAC Name>  (1) 
(2S)-2-[[(2S)-2-acetamidohexanoyl]amino]-N-[(2S)-1-[[(2R)-1-[[(2S)-1-[[(2S)-1-[[(2S)-1-amino-3-azido-1-oxopropan-2-yl]amino]-3-(1H-indol-3-yl)-1-oxopropan-2-yl]amino]-5-(diaminomethylideneamino)-1-oxopentan-2-yl]amino]-1-oxo-3-phenylpropan-2-yl]amino]-3-(1H-imidazol-5-yl)-1-oxopropan-2-yl]octanamide

$$$$
