
     RDKit          3D

 67 73  0  0  0  0  0  0  0  0999 V2000
    1.1916   -2.4658    1.6042 C   0  0  0  0  0  0  0  0  0  0  0  0
    1.3673   -1.1810    1.2328 O   0  0  0  0  0  0  0  0  0  0  0  0
    0.3999   -0.4726    0.6246 C   0  0  2  0  0  0  0  0  0  0  0  0
   -0.0301   -1.0923   -0.7002 C   0  0  0  0  0  0  0  0  0  0  0  0
   -0.9845   -0.1874   -1.4027 C   0  0  0  0  0  0  0  0  0  0  0  0
   -1.4753    0.8961   -0.4790 C   0  0  2  0  0  0  0  0  0  0  0  0
   -0.3598    1.8105   -0.1509 C   0  0  0  0  0  0  0  0  0  0  0  0
    0.8190    0.9494    0.3820 C   0  0  2  0  0  0  0  0  0  0  0  0
    2.0016    1.2008   -0.4605 C   0  0  0  0  0  0  0  0  0  0  0  0
    3.2437    0.8792   -0.2800 O   0  0  0  0  0  0  0  0  0  0  0  0
    3.8214   -0.2728   -0.1086 C   0  0  0  0  0  0  0  0  0  0  0  0
    5.3612   -0.1600   -0.1484 C   0  0  0  0  0  0  0  0  0  0  0  0
    6.0141   -0.3098   -1.3536 C   0  0  0  0  0  0  0  0  0  0  0  0
    7.3890   -0.2135   -1.4360 C   0  0  0  0  0  0  0  0  0  0  0  0
    8.1157    0.0404   -0.2696 C   0  0  0  0  0  0  0  0  0  0  0  0
    7.4527    0.1862    0.9168 C   0  0  0  0  0  0  0  0  0  0  0  0
    6.0791    0.0861    0.9761 C   0  0  0  0  0  0  0  0  0  0  0  0
   -1.9401    0.2981    0.8423 C   0  0  2  0  0  0  0  0  0  0  0  0
   -0.8270   -0.4505    1.5299 C   0  0  1  0  0  0  0  0  0  0  0  0
   -1.3485   -1.7573    1.7576 O   0  0  0  0  0  0  0  0  0  0  0  0
   -2.4541   -2.0045    0.9690 C   0  0  0  0  0  0  0  0  0  0  0  0
   -2.8015   -0.8253    0.4117 C   0  0  0  0  0  0  0  0  0  0  0  0
   -3.8205   -0.5691   -0.4455 C   0  0  0  0  0  0  0  0  0  0  0  0
   -3.9717    0.8099   -0.9583 C   0  0  0  0  0  0  0  0  0  0  0  0
   -2.6872    1.6037   -1.0045 C   0  0  1  0  0  0  0  0  0  0  0  0
   -2.7823    2.8158   -0.2151 N   0  0  0  0  0  0  0  0  0  0  0  0
   -3.0542    2.5636    1.1693 C   0  0  0  0  0  0  0  0  0  0  0  0
   -2.6739    1.2446    1.6921 C   0  0  0  0  0  0  0  0  0  0  0  0
   -3.7080    3.7567   -0.7743 C   0  0  0  0  0  0  0  0  0  0  0  0
   -4.6140   -1.6414   -0.7981 C   0  0  0  0  0  0  0  0  0  0  0  0
   -4.3212   -2.9001   -0.2601 C   0  0  0  0  0  0  0  0  0  0  0  0
   -3.2498   -3.0972    0.6202 C   0  0  0  0  0  0  0  0  0  0  0  0
   -2.9357   -4.3537    1.1733 N   0  0  0  0  0  0  0  0  0  0  0  0
    2.2050   -2.7973    2.0361 H   0  0  0  0  0  0  0  0  0  0  0  0
    0.5458   -2.5911    2.5312 H   0  0  0  0  0  0  0  0  0  0  0  0
    0.9573   -3.2043    0.8357 H   0  0  0  0  0  0  0  0  0  0  0  0
   -0.5010   -2.0595   -0.4969 H   0  0  0  0  0  0  0  0  0  0  0  0
    0.8926   -1.2527   -1.3300 H   0  0  0  0  0  0  0  0  0  0  0  0
   -0.4754    0.3084   -2.2516 H   0  0  0  0  0  0  0  0  0  0  0  0
   -1.8275   -0.7471   -1.8756 H   0  0  0  0  0  0  0  0  0  0  0  0
   -0.0170    2.3155   -1.0831 H   0  0  0  0  0  0  0  0  0  0  0  0
   -0.6105    2.5959    0.5794 H   0  0  0  0  0  0  0  0  0  0  0  0
    1.0714    1.3829    1.4113 H   0  0  0  0  0  0  0  0  0  0  0  0
    1.9994    2.3707   -0.6281 H   0  0  0  0  0  0  0  0  0  0  0  0
    1.7139    0.8911   -1.5695 H   0  0  0  0  0  0  0  0  0  0  0  0
    3.6879   -0.6263    0.9557 H   0  0  0  0  0  0  0  0  0  0  0  0
    3.6017   -1.0643   -0.8506 H   0  0  0  0  0  0  0  0  0  0  0  0
    5.4430   -0.5066   -2.2541 H   0  0  0  0  0  0  0  0  0  0  0  0
    7.9493   -0.3214   -2.3471 H   0  0  0  0  0  0  0  0  0  0  0  0
    9.1762    0.1225   -0.2863 H   0  0  0  0  0  0  0  0  0  0  0  0
    7.9691    0.3825    1.8404 H   0  0  0  0  0  0  0  0  0  0  0  0
    5.5703    0.2040    1.9224 H   0  0  0  0  0  0  0  0  0  0  0  0
   -0.5763   -0.0042    2.5034 H   0  0  0  0  0  0  0  0  0  0  0  0
   -4.4746    0.7593   -1.9599 H   0  0  0  0  0  0  0  0  0  0  0  0
   -4.6610    1.3235   -0.2497 H   0  0  0  0  0  0  0  0  0  0  0  0
   -2.4955    1.9004   -2.0494 H   0  0  0  0  0  0  0  0  0  0  0  0
   -4.1486    2.7998    1.3017 H   0  0  0  0  0  0  0  0  0  0  0  0
   -2.5489    3.3590    1.7554 H   0  0  0  0  0  0  0  0  0  0  0  0
   -3.6226    0.7387    2.0438 H   0  0  0  0  0  0  0  0  0  0  0  0
   -2.0928    1.3311    2.6592 H   0  0  0  0  0  0  0  0  0  0  0  0
   -4.1874    4.3922    0.0180 H   0  0  0  0  0  0  0  0  0  0  0  0
   -4.5373    3.2353   -1.3071 H   0  0  0  0  0  0  0  0  0  0  0  0
   -3.1997    4.4318   -1.4724 H   0  0  0  0  0  0  0  0  0  0  0  0
   -5.4325   -1.4749   -1.4756 H   0  0  0  0  0  0  0  0  0  0  0  0
   -4.9501   -3.7615   -0.5357 H   0  0  0  0  0  0  0  0  0  0  0  0
   -2.5481   -4.3893    2.1404 H   0  0  0  0  0  0  0  0  0  0  0  0
   -3.0929   -5.2312    0.6139 H   0  0  0  0  0  0  0  0  0  0  0  0
  1  2  1  0
  3  2  1  1
  3  4  1  0
  4  5  1  0
  6  5  1  6
  6  7  1  0
  7  8  1  0
  8  9  1  0
  9 10  1  0
 10 11  1  0
 11 12  1  0
 12 13  2  0
 13 14  1  0
 14 15  2  0
 15 16  1  0
 16 17  2  0
  6 18  1  0
 18 19  1  0
 19 20  1  0
 20 21  1  0
 21 22  2  0
 22 23  1  0
 23 24  1  0
 24 25  1  0
 25 26  1  0
 26 27  1  0
 27 28  1  0
 26 29  1  0
 23 30  2  0
 30 31  1  0
 31 32  2  0
 32 33  1  0
  8  3  1  0
 17 12  1  0
 18 28  1  1
 19  3  1  0
 32 21  1  0
 25  6  1  0
 22 18  1  0
  1 34  1  0
  1 35  1  0
  1 36  1  0
  4 37  1  0
  4 38  1  0
  5 39  1  0
  5 40  1  0
  7 41  1  0
  7 42  1  0
  8 43  1  1
  9 44  1  0
  9 45  1  0
 11 46  1  0
 11 47  1  0
 13 48  1  0
 14 49  1  0
 15 50  1  0
 16 51  1  0
 17 52  1  0
 19 53  1  1
 24 54  1  0
 24 55  1  0
 25 56  1  6
 27 57  1  0
 27 58  1  0
 28 59  1  0
 28 60  1  0
 29 61  1  0
 29 62  1  0
 29 63  1  0
 30 64  1  0
 31 65  1  0
 33 66  1  0
 33 67  1  0
M  END
>  <Ligand ID>  (1) 
LIG0004589

>  <Ligand>  (1) 
SCHEMBL878190

>  <SMILES>  (1) 
CO[C@]12CC[C@]3(C[C@@H]1COCc1ccccc1)[C@@]14[C@H]2Oc2c4c(C[C@H]3N(CC1)C)ccc2N

>  <CID>  (1) 
66826826.0

>  <ChEMBL ID>  (1) 
nan

>  <InChiKey>  (1) 
CUAYKCKUHHCHSI-RHRQCQTHSA-N

>  <InChi>  (1) 
InChI=1S/C28H34N2O3/c1-30-13-12-27-23-19-8-9-21(29)24(23)33-25(27)28(31-2)11-10-26(27,22(30)14-19)15-20(28)17-32-16-18-6-4-3-5-7-18/h3-9,20,22,25H,10-17,29H2,1-2H3/t20-,22-,25-,26-,27+,28-/m1/s1

>  <IUPAC Name>  (1) 
(1S,2S,6R,14R,15R,16R)-15-methoxy-5-methyl-16-(phenylmethoxymethyl)-13-oxa-5-azahexacyclo[13.2.2.12,8.01,6.02,14.012,20]icosa-8(20),9,11-trien-11-amine

$$$$
