
     RDKit          3D

 90 93  0  0  0  0  0  0  0  0999 V2000
   -8.1421    2.0356   -2.5875 O   0  0  0  0  0  0  0  0  0  0  0  0
   -8.2640    1.3960   -1.3766 C   0  0  2  0  0  0  0  0  0  0  0  0
   -8.7828   -0.0290   -1.5045 C   0  0  1  0  0  0  0  0  0  0  0  0
   -7.6280   -0.9391   -1.1465 C   0  0  0  0  0  0  0  0  0  0  0  0
   -7.9969   -2.2839   -1.0872 O   0  0  0  0  0  0  0  0  0  0  0  0
   -6.6595   -3.2464   -0.6831 P   0  0  0  0  0  0  0  0  0  0  0  0
   -5.6636   -3.2943   -1.8159 O   0  0  0  0  0  0  0  0  0  0  0  0
   -5.8973   -2.6057    0.6780 O   0  0  0  0  0  0  0  0  0  0  0  0
   -4.2314   -2.6482    0.4383 P   0  0  0  0  0  0  0  0  0  0  0  0
   -3.8362   -1.8794   -0.8157 O   0  0  0  0  0  0  0  0  0  0  0  0
   -3.5045   -1.8397    1.7311 O   0  0  0  0  0  0  0  0  0  0  0  0
   -1.8603   -1.6377    1.5145 P   0  0  0  0  0  0  0  0  0  0  0  0
   -1.3009   -1.1262    2.8426 O   0  0  0  0  0  0  0  0  0  0  0  0
   -1.4886   -0.5813    0.2478 O   0  0  0  0  0  0  0  0  0  0  0  0
   -0.1964    0.3867    0.7398 P   0  0  0  0  0  0  0  0  0  0  0  0
   -0.6708    1.7251    1.2465 O   0  0  0  0  0  0  0  0  0  0  0  0
    0.8905    0.6669   -0.5131 O   0  0  0  0  0  0  0  0  0  0  0  0
    1.9296    1.9303   -0.0636 P   0  0  0  0  0  0  0  0  0  0  0  0
    2.9046    2.2415   -1.1691 O   0  0  0  0  0  0  0  0  0  0  0  0
    2.7848    1.4562    1.3091 O   0  0  0  0  0  0  0  0  0  0  0  0
    4.2652    0.7502    0.8850 P   0  0  0  0  0  0  0  0  0  0  0  0
    4.7376    1.3390   -0.4391 O   0  0  0  0  0  0  0  0  0  0  0  0
    3.9990   -0.9237    0.7128 O   0  0  0  0  0  0  0  0  0  0  0  0
    5.1400   -1.4784   -0.3972 P   0  0  0  0  0  0  0  0  0  0  0  0
    5.1399   -0.4839   -1.5483 O   0  0  0  0  0  0  0  0  0  0  0  0
    6.6472   -1.3785    0.3387 O   0  0  0  0  0  0  0  0  0  0  0  0
    7.7118   -1.6468   -0.4745 C   0  0  0  0  0  0  0  0  0  0  0  0
    9.0666   -1.5582    0.1890 C   0  0  2  0  0  0  0  0  0  0  0  0
    9.3344   -0.3180    0.7011 O   0  0  0  0  0  0  0  0  0  0  0  0
   10.6999   -0.1039    0.6504 C   0  0  1  0  0  0  0  0  0  0  0  0
   11.3115   -1.1142   -0.2550 C   0  0  2  0  0  0  0  0  0  0  0  0
   10.1050   -1.7558   -0.9093 C   0  0  1  0  0  0  0  0  0  0  0  0
   10.2953   -3.1167   -1.1424 O   0  0  0  0  0  0  0  0  0  0  0  0
   12.1347   -2.0349    0.3855 O   0  0  0  0  0  0  0  0  0  0  0  0
   10.9670    1.2635    0.3261 N   0  0  0  0  0  0  0  0  0  0  0  0
    9.9820    2.1974    0.1846 C   0  0  0  0  0  0  0  0  0  0  0  0
   10.2887    3.5041   -0.1287 C   0  0  0  0  0  0  0  0  0  0  0  0
   11.6080    3.8793   -0.3028 C   0  0  0  0  0  0  0  0  0  0  0  0
   11.9351    5.0619   -0.5896 O   0  0  0  0  0  0  0  0  0  0  0  0
   12.5764    2.9344   -0.1576 N   0  0  0  0  0  0  0  0  0  0  0  0
   12.2617    1.6504    0.1511 C   0  0  0  0  0  0  0  0  0  0  0  0
   13.2205    0.8434    0.2660 O   0  0  0  0  0  0  0  0  0  0  0  0
    4.7942   -2.9780   -1.0385 O   0  0  0  0  0  0  0  0  0  0  0  0
    5.4263    1.1171    2.0248 O   0  0  0  0  0  0  0  0  0  0  0  0
    1.0477    3.3528    0.2381 O   0  0  0  0  0  0  0  0  0  0  0  0
    0.6260   -0.3956    1.9868 O   0  0  0  0  0  0  0  0  0  0  0  0
   -1.1860   -3.1736    1.2404 O   0  0  0  0  0  0  0  0  0  0  0  0
   -3.6956   -4.2273    0.2619 O   0  0  0  0  0  0  0  0  0  0  0  0
   -7.2609   -4.7983   -0.3090 O   0  0  0  0  0  0  0  0  0  0  0  0
   -9.8014   -0.1309   -0.5648 O   0  0  0  0  0  0  0  0  0  0  0  0
  -10.5022    1.0789   -0.7482 C   0  0  2  0  0  0  0  0  0  0  0  0
   -9.3832    2.0880   -0.6151 C   0  0  2  0  0  0  0  0  0  0  0  0
   -9.7150    3.3076   -1.1936 O   0  0  0  0  0  0  0  0  0  0  0  0
  -11.5298    1.2322    0.2502 N   0  0  0  0  0  0  0  0  0  0  0  0
  -11.1811    1.0370    1.5337 C   0  0  0  0  0  0  0  0  0  0  0  0
  -12.1903    1.1904    2.4856 C   0  0  0  0  0  0  0  0  0  0  0  0
  -13.4772    1.5274    2.0942 C   0  0  0  0  0  0  0  0  0  0  0  0
  -14.3787    1.6626    2.9649 O   0  0  0  0  0  0  0  0  0  0  0  0
  -13.7421    1.7045    0.7921 N   0  0  0  0  0  0  0  0  0  0  0  0
  -12.7755    1.5592   -0.1376 C   0  0  0  0  0  0  0  0  0  0  0  0
  -12.9936    1.7185   -1.3619 O   0  0  0  0  0  0  0  0  0  0  0  0
   -8.1122    1.3535   -3.3268 H   0  0  0  0  0  0  0  0  0  0  0  0
   -7.3279    1.4338   -0.7827 H   0  0  0  0  0  0  0  0  0  0  0  0
   -9.2025   -0.2410   -2.4910 H   0  0  0  0  0  0  0  0  0  0  0  0
   -6.7692   -0.7393   -1.8031 H   0  0  0  0  0  0  0  0  0  0  0  0
   -7.2978   -0.6678   -0.1149 H   0  0  0  0  0  0  0  0  0  0  0  0
    7.7197   -0.8376   -1.2596 H   0  0  0  0  0  0  0  0  0  0  0  0
    7.5976   -2.5833   -1.0559 H   0  0  0  0  0  0  0  0  0  0  0  0
    9.2394   -2.3051    0.9710 H   0  0  0  0  0  0  0  0  0  0  0  0
   11.0702   -0.3172    1.6937 H   0  0  0  0  0  0  0  0  0  0  0  0
   11.9378   -0.6233   -1.0306 H   0  0  0  0  0  0  0  0  0  0  0  0
    9.8104   -1.2631   -1.8573 H   0  0  0  0  0  0  0  0  0  0  0  0
   10.0486   -3.6902   -0.3746 H   0  0  0  0  0  0  0  0  0  0  0  0
   11.7546   -2.9391    0.4585 H   0  0  0  0  0  0  0  0  0  0  0  0
    8.9478    1.8866    0.3247 H   0  0  0  0  0  0  0  0  0  0  0  0
    9.5189    4.2742   -0.2483 H   0  0  0  0  0  0  0  0  0  0  0  0
   13.5825    3.2102   -0.2881 H   0  0  0  0  0  0  0  0  0  0  0  0
    4.2215   -2.8748   -1.8155 H   0  0  0  0  0  0  0  0  0  0  0  0
    5.1128    1.7577    2.7032 H   0  0  0  0  0  0  0  0  0  0  0  0
    1.2551    3.6577    1.1446 H   0  0  0  0  0  0  0  0  0  0  0  0
    1.2266   -1.0980    1.6643 H   0  0  0  0  0  0  0  0  0  0  0  0
   -0.8340   -3.2764    0.3272 H   0  0  0  0  0  0  0  0  0  0  0  0
   -3.9068   -4.4869   -0.6841 H   0  0  0  0  0  0  0  0  0  0  0  0
   -7.7708   -4.6588    0.5475 H   0  0  0  0  0  0  0  0  0  0  0  0
  -10.8902    1.1102   -1.7786 H   0  0  0  0  0  0  0  0  0  0  0  0
   -9.1045    2.1655    0.4571 H   0  0  0  0  0  0  0  0  0  0  0  0
   -8.8849    3.8646   -1.1564 H   0  0  0  0  0  0  0  0  0  0  0  0
  -10.1598    0.7702    1.8350 H   0  0  0  0  0  0  0  0  0  0  0  0
  -11.9952    1.0521    3.5325 H   0  0  0  0  0  0  0  0  0  0  0  0
  -14.6826    1.9553    0.4551 H   0  0  0  0  0  0  0  0  0  0  0  0
  1  2  1  0
  2  3  1  0
  3  4  1  0
  4  5  1  0
  5  6  1  0
  6  7  2  0
  6  8  1  0
  8  9  1  0
  9 10  2  0
  9 11  1  0
 11 12  1  0
 12 13  2  0
 12 14  1  0
 14 15  1  0
 15 16  2  0
 15 17  1  0
 17 18  1  0
 18 19  2  0
 18 20  1  0
 20 21  1  0
 21 22  2  0
 21 23  1  0
 23 24  1  0
 24 25  2  0
 24 26  1  0
 26 27  1  0
 27 28  1  0
 28 29  1  0
 29 30  1  0
 30 31  1  0
 31 32  1  0
 32 33  1  0
 31 34  1  0
 30 35  1  0
 35 36  1  0
 36 37  2  0
 37 38  1  0
 38 39  2  0
 38 40  1  0
 40 41  1  0
 41 42  2  0
 24 43  1  0
 21 44  1  0
 18 45  1  0
 15 46  1  0
 12 47  1  0
  9 48  1  0
  6 49  1  0
  3 50  1  0
 50 51  1  0
 51 52  1  0
 52 53  1  0
 51 54  1  0
 54 55  1  0
 55 56  2  0
 56 57  1  0
 57 58  2  0
 57 59  1  0
 59 60  1  0
 60 61  2  0
 52  2  1  0
 60 54  1  0
 32 28  1  0
 41 35  1  0
  1 62  1  0
  2 63  1  1
  3 64  1  6
  4 65  1  0
  4 66  1  0
 27 67  1  0
 27 68  1  0
 28 69  1  1
 30 70  1  1
 31 71  1  6
 32 72  1  6
 33 73  1  0
 34 74  1  0
 36 75  1  0
 37 76  1  0
 40 77  1  0
 43 78  1  0
 44 79  1  0
 45 80  1  0
 46 81  1  0
 47 82  1  0
 48 83  1  0
 49 84  1  0
 51 85  1  6
 52 86  1  1
 53 87  1  0
 55 88  1  0
 56 89  1  0
 59 90  1  0
M  END
>  <Ligand ID>  (1) 
LIG0002834

>  <Ligand>  (1) 
CHEMBL2113398

>  <SMILES>  (1) 
O[C@@H]1[C@@H](COP(=O)(OP(=O)(OP(=O)(OP(=O)(OP(=O)(OP(=O)(OP(=O)(OC[C@@H]2O[C@@H]([C@H]([C@H]2O)O)n2ccc(=O)[nH]c2=O)O)O)O)O)O)O)O)O[C@H]([C@@H]1O)n1ccc(=O)[nH]c1=O

>  <CID>  (1) 
71459956.0

>  <ChEMBL ID>  (1) 
nan

>  <InChiKey>  (1) 
KUEVKDRCJQJOTF-WWMDGMSNSA-N

>  <InChi>  (1) 
InChI=1S/C18H29N4O32P7/c23-9-1-3-21(17(29)19-9)15-13(27)11(25)7(47-15)5-45-55(31,32)49-57(35,36)51-59(39,40)53-61(43,44)54-60(41,42)52-58(37,38)50-56(33,34)46-6-8-12(26)14(28)16(48-8)22-4-2-10(24)20-18(22)30/h1-4,7-8,11-16,25-28H,5-6H2,(H,31,32)(H,33,34)(H,35,36)(H,37,38)(H,39,40)(H,41,42)(H,43,44)(H,19,23,29)(H,20,24,30)/t7-,8+,11-,12+,13-,14+,15-,16+

>  <IUPAC Name>  (1) 
[[(2S,3R,4S,5S)-5-(2,4-dioxopyrimidin-1-yl)-3,4-dihydroxyoxolan-2-yl]methoxy-hydroxyphosphoryl] [[[[[[(2R,3S,4R,5R)-5-(2,4-dioxopyrimidin-1-yl)-3,4-dihydroxyoxolan-2-yl]methoxy-hydroxyphosphoryl]oxy-hydroxyphosphoryl]oxy-hydroxyphosphoryl]oxy-hydroxyphosphoryl]oxy-hydroxyphosphoryl] hydrogen phosphate

$$$$
