
     RDKit          3D

 44 44  0  0  0  0  0  0  0  0999 V2000
    0.9341   -2.6974    1.6293 O   0  0  0  0  0  0  0  0  0  0  0  0
    0.5372   -2.7165    0.4539 C   0  0  0  0  0  0  0  0  0  0  0  0
    1.3628   -1.9543   -0.5272 C   0  0  0  0  0  0  0  0  0  0  0  0
    2.2500   -0.9747    0.2688 C   0  0  0  0  0  0  0  0  0  0  0  0
    2.9755   -0.0866   -0.6873 C   0  0  0  0  0  0  0  0  0  0  0  0
    3.4776    1.1836   -0.0158 C   0  0  0  0  0  0  0  0  0  0  0  0
    2.3795    2.2589    0.0112 C   0  0  0  0  0  0  0  0  0  0  0  0
    1.0508    1.8086    0.4438 C   0  0  0  0  0  0  0  0  0  0  0  0
   -0.0277    2.9130    0.4675 C   0  0  0  0  0  0  0  0  0  0  0  0
   -1.3904    2.2645    0.6848 C   0  0  0  0  0  0  0  0  0  0  0  0
   -1.8528    1.5314   -0.5451 C   0  0  0  0  0  0  0  0  0  0  0  0
   -3.1038    0.7568   -0.4267 C   0  0  0  0  0  0  0  0  0  0  0  0
   -3.0579   -0.4540    0.4762 C   0  0  0  0  0  0  0  0  0  0  0  0
   -1.9668   -1.4155    0.0066 C   0  0  0  0  0  0  0  0  0  0  0  0
   -1.9105   -2.7061    0.7400 C   0  0  0  0  0  0  0  0  0  0  0  0
   -0.6873   -3.4713    0.1781 C   0  0  0  0  0  0  0  0  0  0  0  0
    0.7963   -1.3238   -1.2216 H   0  0  0  0  0  0  0  0  0  0  0  0
    2.0343   -2.6245   -1.1058 H   0  0  0  0  0  0  0  0  0  0  0  0
    1.6917   -0.4891    1.0214 H   0  0  0  0  0  0  0  0  0  0  0  0
    3.0467   -1.6486    0.8043 H   0  0  0  0  0  0  0  0  0  0  0  0
    3.8218   -0.6580   -1.1433 H   0  0  0  0  0  0  0  0  0  0  0  0
    2.3617    0.2296   -1.5540 H   0  0  0  0  0  0  0  0  0  0  0  0
    4.2773    1.5906   -0.6702 H   0  0  0  0  0  0  0  0  0  0  0  0
    3.8979    1.0074    0.9823 H   0  0  0  0  0  0  0  0  0  0  0  0
    2.2953    2.6444   -1.0340 H   0  0  0  0  0  0  0  0  0  0  0  0
    2.7280    3.1150    0.6238 H   0  0  0  0  0  0  0  0  0  0  0  0
    0.7005    1.0369   -0.2245 H   0  0  0  0  0  0  0  0  0  0  0  0
    1.1119    1.5384    1.5360 H   0  0  0  0  0  0  0  0  0  0  0  0
    0.0112    3.4810   -0.4778 H   0  0  0  0  0  0  0  0  0  0  0  0
    0.1966    3.6152    1.2881 H   0  0  0  0  0  0  0  0  0  0  0  0
   -2.0874    3.1058    0.8847 H   0  0  0  0  0  0  0  0  0  0  0  0
   -1.3076    1.5886    1.5490 H   0  0  0  0  0  0  0  0  0  0  0  0
   -1.0114    0.9584   -0.9665 H   0  0  0  0  0  0  0  0  0  0  0  0
   -2.0071    2.3519   -1.3319 H   0  0  0  0  0  0  0  0  0  0  0  0
   -3.9067    1.4317   -0.0266 H   0  0  0  0  0  0  0  0  0  0  0  0
   -3.4144    0.4028   -1.4272 H   0  0  0  0  0  0  0  0  0  0  0  0
   -4.0122   -1.0147    0.4661 H   0  0  0  0  0  0  0  0  0  0  0  0
   -2.8312   -0.1945    1.5192 H   0  0  0  0  0  0  0  0  0  0  0  0
   -2.1662   -1.5914   -1.0476 H   0  0  0  0  0  0  0  0  0  0  0  0
   -1.0212   -0.8766    0.2367 H   0  0  0  0  0  0  0  0  0  0  0  0
   -2.8106   -3.2929    0.5595 H   0  0  0  0  0  0  0  0  0  0  0  0
   -1.7670   -2.5981    1.8310 H   0  0  0  0  0  0  0  0  0  0  0  0
   -0.7283   -4.4951    0.5697 H   0  0  0  0  0  0  0  0  0  0  0  0
   -0.8706   -3.5309   -0.9160 H   0  0  0  0  0  0  0  0  0  0  0  0
  1  2  2  0
  2  3  1  0
  3  4  1  0
  4  5  1  0
  5  6  1  0
  6  7  1  0
  7  8  1  0
  8  9  1  0
  9 10  1  0
 10 11  1  0
 11 12  1  0
 12 13  1  0
 13 14  1  0
 14 15  1  0
 15 16  1  0
 16  2  1  0
  3 17  1  0
  3 18  1  0
  4 19  1  0
  4 20  1  0
  5 21  1  0
  5 22  1  0
  6 23  1  0
  6 24  1  0
  7 25  1  0
  7 26  1  0
  8 27  1  0
  8 28  1  0
  9 29  1  0
  9 30  1  0
 10 31  1  0
 10 32  1  0
 11 33  1  0
 11 34  1  0
 12 35  1  0
 12 36  1  0
 13 37  1  0
 13 38  1  0
 14 39  1  0
 14 40  1  0
 15 41  1  0
 15 42  1  0
 16 43  1  0
 16 44  1  0
M  END
>  <Ligand ID>  (1) 
LIG0000306

>  <Ligand>  (1) 
Cyclopentadecanone

>  <SMILES>  (1) 
O=C1CCCCCCCCCCCCCC1

>  <CID>  (1) 
10409.0

>  <ChEMBL ID>  (1) 
nan

>  <InChiKey>  (1) 
OSOIQJGOYGSIMF-UHFFFAOYSA-N

>  <InChi>  (1) 
InChI=1S/C15H28O/c16-15-13-11-9-7-5-3-1-2-4-6-8-10-12-14-15/h1-14H2

>  <IUPAC Name>  (1) 
cyclopentadecanone

$$$$
