
     RDKit          3D

 32 34  0  0  0  0  0  0  0  0999 V2000
    3.1664   -0.3036    0.8775 C   0  0  0  0  0  0  0  0  0  0  0  0
    2.2640   -1.0556   -0.0729 C   0  0  1  0  0  0  0  0  0  0  0  0
    1.5236   -0.0766   -0.9096 C   0  0  0  0  0  0  0  0  0  0  0  0
    0.6822    0.8658   -0.2814 N   0  0  0  0  0  0  0  0  0  0  0  0
    1.1003    2.1125    0.1112 C   0  0  0  0  0  0  0  0  0  0  0  0
    0.0726    2.8094    0.6789 C   0  0  0  0  0  0  0  0  0  0  0  0
   -1.0173    2.0035    0.6517 C   0  0  0  0  0  0  0  0  0  0  0  0
   -0.6231    0.8248    0.0631 C   0  0  0  0  0  0  0  0  0  0  0  0
   -1.5773   -0.1571   -0.0723 C   0  0  0  0  0  0  0  0  0  0  0  0
   -1.2620   -1.3424   -0.6357 C   0  0  0  0  0  0  0  0  0  0  0  0
   -2.2841   -2.3074   -0.7417 C   0  0  0  0  0  0  0  0  0  0  0  0
   -3.5541   -2.0540   -0.2893 C   0  0  0  0  0  0  0  0  0  0  0  0
   -3.8440   -0.8674    0.2681 N   0  0  0  0  0  0  0  0  0  0  0  0
   -2.8641    0.0783    0.3779 C   0  0  0  0  0  0  0  0  0  0  0  0
   -3.2563    1.2619    0.9672 C   0  0  0  0  0  0  0  0  0  0  0  0
   -2.3006    2.2440    1.1034 C   0  0  0  0  0  0  0  0  0  0  0  0
    3.1460   -1.7936   -0.9858 N   0  0  0  0  0  0  0  0  0  0  0  0
    3.5922   -1.0802    1.5765 H   0  0  0  0  0  0  0  0  0  0  0  0
    4.0275    0.1734    0.3809 H   0  0  0  0  0  0  0  0  0  0  0  0
    2.5865    0.3950    1.5285 H   0  0  0  0  0  0  0  0  0  0  0  0
    1.7204   -1.8002    0.4931 H   0  0  0  0  0  0  0  0  0  0  0  0
    1.2564   -0.3987   -1.9539 H   0  0  0  0  0  0  0  0  0  0  0  0
    2.4488    0.5109   -1.2723 H   0  0  0  0  0  0  0  0  0  0  0  0
    2.1011    2.5320    0.0063 H   0  0  0  0  0  0  0  0  0  0  0  0
    0.1212    3.8274    1.0801 H   0  0  0  0  0  0  0  0  0  0  0  0
   -0.3338   -1.6330   -1.0019 H   0  0  0  0  0  0  0  0  0  0  0  0
   -2.0653   -3.2811   -1.1938 H   0  0  0  0  0  0  0  0  0  0  0  0
   -4.2854   -2.8379   -0.4030 H   0  0  0  0  0  0  0  0  0  0  0  0
   -4.2688    1.4176    1.3094 H   0  0  0  0  0  0  0  0  0  0  0  0
   -2.5434    3.2038    1.5608 H   0  0  0  0  0  0  0  0  0  0  0  0
    3.7874   -1.1344   -1.4773 H   0  0  0  0  0  0  0  0  0  0  0  0
    2.4829   -2.1370   -1.7439 H   0  0  0  0  0  0  0  0  0  0  0  0
  1  2  1  0
  2  3  1  0
  3  4  1  0
  4  5  1  0
  5  6  2  0
  6  7  1  0
  7  8  2  0
  8  9  1  0
  9 10  2  0
 10 11  1  0
 11 12  2  0
 12 13  1  0
 13 14  2  0
 14 15  1  0
 15 16  2  0
  2 17  1  0
  8  4  1  0
 14  9  1  0
 16  7  1  0
  1 18  1  0
  1 19  1  0
  1 20  1  0
  2 21  1  1
  3 22  1  0
  3 23  1  0
  5 24  1  0
  6 25  1  0
 10 26  1  0
 11 27  1  0
 12 28  1  0
 15 29  1  0
 16 30  1  0
 17 31  1  0
 17 32  1  0
M  END
>  <Ligand ID>  (1) 
LIG0002143

>  <Ligand>  (1) 
VER-2692

>  <SMILES>  (1) 
C[C@@H](Cn1ccc2c1c1cccnc1cc2)N

>  <CID>  (1) 
10198431.0

>  <ChEMBL ID>  (1) 
nan

>  <InChiKey>  (1) 
SDEXYLCQNBTWLI-JTQLQIEISA-N

>  <InChi>  (1) 
InChI=1S/C14H15N3/c1-10(15)9-17-8-6-11-4-5-13-12(14(11)17)3-2-7-16-13/h2-8,10H,9,15H2,1H3/t10-/m0/s1

>  <IUPAC Name>  (1) 
(2S)-1-pyrrolo[2,3-f]quinolin-1-ylpropan-2-amine

$$$$
