
     RDKit          3D

 26 26  0  0  0  0  0  0  0  0999 V2000
    3.3035   -0.3473   -0.6717 C   0  0  0  0  0  0  0  0  0  0  0  0
    2.8591   -0.4838    0.7342 C   0  0  0  0  0  0  0  0  0  0  0  0
    1.7494    0.0942    1.1997 C   0  0  0  0  0  0  0  0  0  0  0  0
    0.8596    0.9194    0.3737 C   0  0  0  0  0  0  0  0  0  0  0  0
   -0.5201    0.3492    0.3195 C   0  0  0  0  0  0  0  0  0  0  0  0
   -1.2201   -0.0605   -0.7336 C   0  0  0  0  0  0  0  0  0  0  0  0
   -0.8094   -0.0627   -2.1817 C   0  0  0  0  0  0  0  0  0  0  0  0
   -2.5639   -0.5579   -0.2916 C   0  0  0  0  0  0  0  0  0  0  0  0
   -2.7566    0.2645    0.9668 C   0  0  0  0  0  0  0  0  0  0  0  0
   -1.3569    0.1518    1.5521 C   0  0  0  0  0  0  0  0  0  0  0  0
    4.0759   -1.0974   -0.8668 H   0  0  0  0  0  0  0  0  0  0  0  0
    3.6943    0.6816   -0.8010 H   0  0  0  0  0  0  0  0  0  0  0  0
    2.4915   -0.4996   -1.4096 H   0  0  0  0  0  0  0  0  0  0  0  0
    3.4451   -1.0799    1.4530 H   0  0  0  0  0  0  0  0  0  0  0  0
    1.4835   -0.0492    2.2453 H   0  0  0  0  0  0  0  0  0  0  0  0
    1.2441    0.9297   -0.6594 H   0  0  0  0  0  0  0  0  0  0  0  0
    0.8486    1.9394    0.8207 H   0  0  0  0  0  0  0  0  0  0  0  0
    0.2668    0.1238   -2.2788 H   0  0  0  0  0  0  0  0  0  0  0  0
   -1.3564    0.7480   -2.7028 H   0  0  0  0  0  0  0  0  0  0  0  0
   -1.0051   -1.0723   -2.5864 H   0  0  0  0  0  0  0  0  0  0  0  0
   -2.4579   -1.6182    0.0394 H   0  0  0  0  0  0  0  0  0  0  0  0
   -3.3331   -0.4158   -1.0486 H   0  0  0  0  0  0  0  0  0  0  0  0
   -3.5223   -0.1614    1.6407 H   0  0  0  0  0  0  0  0  0  0  0  0
   -2.9910    1.2865    0.6365 H   0  0  0  0  0  0  0  0  0  0  0  0
   -1.2740   -0.8977    1.9282 H   0  0  0  0  0  0  0  0  0  0  0  0
   -1.1547    0.9156    2.3223 H   0  0  0  0  0  0  0  0  0  0  0  0
  1  2  1  0
  2  3  2  0
  3  4  1  0
  4  5  1  0
  5  6  2  0
  6  7  1  0
  6  8  1  0
  8  9  1  0
  9 10  1  0
 10  5  1  0
  1 11  1  0
  1 12  1  0
  1 13  1  0
  2 14  1  0
  3 15  1  0
  4 16  1  0
  4 17  1  0
  7 18  1  0
  7 19  1  0
  7 20  1  0
  8 21  1  0
  8 22  1  0
  9 23  1  0
  9 24  1  0
 10 25  1  0
 10 26  1  0
M  END
>  <Ligand ID>  (1) 
LIG0004983

>  <Ligand>  (1) 
1-[(Z)-but-2-enyl]-2-methylcyclopentene

>  <SMILES>  (1) 
C/C=C\CC1=C(C)CCC1

>  <CID>  (1) 
92043553.0

>  <ChEMBL ID>  (1) 
nan

>  <InChiKey>  (1) 
QUQOZOBHIUEDSV-ARJAWSKDSA-N

>  <InChi>  (1) 
InChI=1S/C10H16/c1-3-4-7-10-8-5-6-9(10)2/h3-4H,5-8H2,1-2H3/b4-3-

>  <IUPAC Name>  (1) 
1-[(Z)-but-2-enyl]-2-methylcyclopentene

$$$$
