
     RDKit          3D

 26 28  0  0  0  0  0  0  0  0999 V2000
   -1.2409   -2.7527    0.6835 Cl  0  0  0  0  0  0  0  0  0  0  0  0
   -2.0103   -1.2597    0.1608 C   0  0  0  0  0  0  0  0  0  0  0  0
   -3.3717   -1.2484   -0.0662 C   0  0  0  0  0  0  0  0  0  0  0  0
   -4.0199   -0.1018   -0.4770 C   0  0  0  0  0  0  0  0  0  0  0  0
   -3.2706    1.0433   -0.6574 C   0  0  0  0  0  0  0  0  0  0  0  0
   -1.9076    1.0122   -0.4248 C   0  0  0  0  0  0  0  0  0  0  0  0
   -1.2318   -0.1093   -0.0161 C   0  0  0  0  0  0  0  0  0  0  0  0
    0.1954   -0.2166    0.2457 C   0  0  0  0  0  0  0  0  0  0  0  0
    1.0395   -0.5809   -0.9579 C   0  0  0  0  0  0  0  0  0  0  0  0
    2.3712   -0.1814   -0.4904 N   0  0  0  0  0  0  0  0  0  0  0  0
    2.2685    0.7718    0.4466 C   0  0  0  0  0  0  0  0  0  0  0  0
    0.8146    1.0838    0.6759 C   0  0  0  0  0  0  0  0  0  0  0  0
    3.4880    1.1247    0.8620 N   0  0  0  0  0  0  0  0  0  0  0  0
    4.3807    0.3810    0.1752 C   0  0  0  0  0  0  0  0  0  0  0  0
    3.6948   -0.4514   -0.6852 C   0  0  0  0  0  0  0  0  0  0  0  0
   -3.9191   -2.1643    0.0866 H   0  0  0  0  0  0  0  0  0  0  0  0
   -5.0871   -0.0806   -0.6583 H   0  0  0  0  0  0  0  0  0  0  0  0
   -3.7850    1.9372   -0.9792 H   0  0  0  0  0  0  0  0  0  0  0  0
   -1.3654    1.9293   -0.5801 H   0  0  0  0  0  0  0  0  0  0  0  0
    0.4208   -1.0065    1.0048 H   0  0  0  0  0  0  0  0  0  0  0  0
    0.7713   -0.0009   -1.8497 H   0  0  0  0  0  0  0  0  0  0  0  0
    1.0120   -1.6404   -1.2225 H   0  0  0  0  0  0  0  0  0  0  0  0
    0.6351    1.2899    1.7662 H   0  0  0  0  0  0  0  0  0  0  0  0
    0.5312    1.9466    0.0733 H   0  0  0  0  0  0  0  0  0  0  0  0
    5.4640    0.4454    0.2979 H   0  0  0  0  0  0  0  0  0  0  0  0
    4.1223   -1.1700   -1.3725 H   0  0  0  0  0  0  0  0  0  0  0  0
  1  2  1  0
  2  3  2  0
  3  4  1  0
  4  5  2  0
  5  6  1  0
  6  7  2  0
  7  8  1  0
  8  9  1  0
  9 10  1  0
 10 11  1  0
 11 12  1  0
 11 13  2  0
 13 14  1  0
 14 15  2  0
  7  2  1  0
 12  8  1  0
 15 10  1  0
  3 16  1  0
  4 17  1  0
  5 18  1  0
  6 19  1  0
  8 20  1  0
  9 21  1  0
  9 22  1  0
 12 23  1  0
 12 24  1  0
 14 25  1  0
 15 26  1  0
M  END
>  <Ligand ID>  (1) 
LIG0002873

>  <Ligand>  (1) 
CHEMBL449284

>  <SMILES>  (1) 
Clc1ccccc1C1Cn2c(C1)ncc2

>  <CID>  (1) 
44574935.0

>  <ChEMBL ID>  (1) 
nan

>  <InChiKey>  (1) 
SPZWSHWMHHYVPO-UHFFFAOYSA-N

>  <InChi>  (1) 
InChI=1S/C12H11ClN2/c13-11-4-2-1-3-10(11)9-7-12-14-5-6-15(12)8-9/h1-6,9H,7-8H2

>  <IUPAC Name>  (1) 
6-(2-chlorophenyl)-6,7-dihydro-5H-pyrrolo[1,2-a]imidazole

$$$$
