
     RDKit          3D

 57 58  0  0  0  0  0  0  0  0999 V2000
   -7.3040   -1.8327    1.7361 C   0  0  0  0  0  0  0  0  0  0  0  0
   -6.6114   -0.4782    1.5611 C   0  0  0  0  0  0  0  0  0  0  0  0
   -5.2790   -0.6927    0.8799 C   0  0  0  0  0  0  0  0  0  0  0  0
   -4.6342    0.6318    0.7248 C   0  0  0  0  0  0  0  0  0  0  0  0
   -5.1637    1.7100    1.1169 O   0  0  0  0  0  0  0  0  0  0  0  0
   -3.3241    0.7409    0.0940 C   0  0  0  0  0  0  0  0  0  0  0  0
   -2.6833   -0.3918   -0.3594 C   0  0  0  0  0  0  0  0  0  0  0  0
   -1.4310   -0.2903   -0.9627 C   0  0  0  0  0  0  0  0  0  0  0  0
   -0.7789    0.9011   -1.1364 C   0  0  0  0  0  0  0  0  0  0  0  0
   -1.4683    2.0347   -0.6595 C   0  0  0  0  0  0  0  0  0  0  0  0
   -2.7021    1.9374   -0.0654 C   0  0  0  0  0  0  0  0  0  0  0  0
   -3.3339    3.0858    0.3849 O   0  0  0  0  0  0  0  0  0  0  0  0
   -0.8586    3.3917   -0.7935 C   0  0  0  0  0  0  0  0  0  0  0  0
    0.4253    1.1259   -1.7040 O   0  0  0  0  0  0  0  0  0  0  0  0
    1.2944    0.1836   -2.2159 C   0  0  0  0  0  0  0  0  0  0  0  0
    1.8210   -0.7247   -1.1529 C   0  0  0  0  0  0  0  0  0  0  0  0
    2.7708   -1.7494   -1.7881 C   0  0  0  0  0  0  0  0  0  0  0  0
    3.2562   -2.6192   -0.6724 C   0  0  0  0  0  0  0  0  0  0  0  0
    3.9213   -1.8971    0.2857 O   0  0  0  0  0  0  0  0  0  0  0  0
    5.0802   -1.2201    0.1646 C   0  0  0  0  0  0  0  0  0  0  0  0
    5.8943   -1.1126   -0.9326 C   0  0  0  0  0  0  0  0  0  0  0  0
    7.0774   -0.3680   -0.9259 C   0  0  0  0  0  0  0  0  0  0  0  0
    7.4853    0.3000    0.1991 C   0  0  0  0  0  0  0  0  0  0  0  0
    6.6818    0.2049    1.3156 C   0  0  0  0  0  0  0  0  0  0  0  0
    5.5246   -0.5244    1.3048 C   0  0  0  0  0  0  0  0  0  0  0  0
    7.1059    0.9096    2.5150 C   0  0  0  0  0  0  0  0  0  0  0  0
    8.1696    1.5809    2.5271 O   0  0  0  0  0  0  0  0  0  0  0  0
    6.3755    0.8845    3.6979 O   0  0  0  0  0  0  0  0  0  0  0  0
    8.6218    1.0121    0.1966 F   0  0  0  0  0  0  0  0  0  0  0  0
   -7.4762    0.4844    0.8095 C   0  0  0  0  0  0  0  0  0  0  0  0
   -8.3677   -1.6068    1.9515 H   0  0  0  0  0  0  0  0  0  0  0  0
   -7.1553   -2.4170    0.8121 H   0  0  0  0  0  0  0  0  0  0  0  0
   -6.8842   -2.3165    2.6255 H   0  0  0  0  0  0  0  0  0  0  0  0
   -6.3750   -0.1182    2.5849 H   0  0  0  0  0  0  0  0  0  0  0  0
   -4.6761   -1.3838    1.5076 H   0  0  0  0  0  0  0  0  0  0  0  0
   -5.4783   -1.1848   -0.0909 H   0  0  0  0  0  0  0  0  0  0  0  0
   -3.1604   -1.3631   -0.2437 H   0  0  0  0  0  0  0  0  0  0  0  0
   -1.0135   -1.2190   -1.3100 H   0  0  0  0  0  0  0  0  0  0  0  0
   -3.3358    3.2372    1.3993 H   0  0  0  0  0  0  0  0  0  0  0  0
   -0.2580    3.3494   -1.7429 H   0  0  0  0  0  0  0  0  0  0  0  0
   -1.6402    4.1548   -1.0123 H   0  0  0  0  0  0  0  0  0  0  0  0
   -0.2112    3.6383    0.0633 H   0  0  0  0  0  0  0  0  0  0  0  0
    0.7902   -0.4522   -2.9890 H   0  0  0  0  0  0  0  0  0  0  0  0
    2.1523    0.6567   -2.7548 H   0  0  0  0  0  0  0  0  0  0  0  0
    1.0952   -1.2983   -0.5814 H   0  0  0  0  0  0  0  0  0  0  0  0
    2.4847   -0.1660   -0.4358 H   0  0  0  0  0  0  0  0  0  0  0  0
    2.1881   -2.4075   -2.4838 H   0  0  0  0  0  0  0  0  0  0  0  0
    3.5317   -1.2537   -2.3642 H   0  0  0  0  0  0  0  0  0  0  0  0
    3.9194   -3.4222   -1.1017 H   0  0  0  0  0  0  0  0  0  0  0  0
    2.3550   -3.0857   -0.1983 H   0  0  0  0  0  0  0  0  0  0  0  0
    5.6782   -1.6157   -1.8554 H   0  0  0  0  0  0  0  0  0  0  0  0
    7.6955   -0.3096   -1.8250 H   0  0  0  0  0  0  0  0  0  0  0  0
    4.9413   -0.5527    2.2269 H   0  0  0  0  0  0  0  0  0  0  0  0
    6.4337    1.6795    4.3242 H   0  0  0  0  0  0  0  0  0  0  0  0
   -7.7381    1.3259    1.5089 H   0  0  0  0  0  0  0  0  0  0  0  0
   -7.0075    0.9126   -0.0803 H   0  0  0  0  0  0  0  0  0  0  0  0
   -8.4210    0.0001    0.4899 H   0  0  0  0  0  0  0  0  0  0  0  0
  1  2  1  0
  2  3  1  0
  3  4  1  0
  4  5  2  0
  4  6  1  0
  6  7  2  0
  7  8  1  0
  8  9  2  0
  9 10  1  0
 10 11  2  0
 11 12  1  0
 10 13  1  0
  9 14  1  0
 14 15  1  0
 15 16  1  0
 16 17  1  0
 17 18  1  0
 18 19  1  0
 19 20  1  0
 20 21  2  0
 21 22  1  0
 22 23  2  0
 23 24  1  0
 24 25  2  0
 24 26  1  0
 26 27  2  0
 26 28  1  0
 23 29  1  0
  2 30  1  0
 11  6  1  0
 25 20  1  0
  1 31  1  0
  1 32  1  0
  1 33  1  0
  2 34  1  0
  3 35  1  0
  3 36  1  0
  7 37  1  0
  8 38  1  0
 12 39  1  0
 13 40  1  0
 13 41  1  0
 13 42  1  0
 15 43  1  0
 15 44  1  0
 16 45  1  0
 16 46  1  0
 17 47  1  0
 17 48  1  0
 18 49  1  0
 18 50  1  0
 21 51  1  0
 22 52  1  0
 25 53  1  0
 28 54  1  0
 30 55  1  0
 30 56  1  0
 30 57  1  0
M  END
>  <Ligand ID>  (1) 
LIG0003644

>  <Ligand>  (1) 
CHEMBL3287687

>  <SMILES>  (1) 
CC(CC(=O)c1ccc(c(c1O)C)OCCCCOc1ccc(c(c1)C(=O)O)F)C

>  <CID>  (1) 
90643865.0

>  <ChEMBL ID>  (1) 
nan

>  <InChiKey>  (1) 
VOAWHZVCPXGDSD-UHFFFAOYSA-N

>  <InChi>  (1) 
InChI=1S/C23H27FO6/c1-14(2)12-20(25)17-7-9-21(15(3)22(17)26)30-11-5-4-10-29-16-6-8-19(24)18(13-16)23(27)28/h6-9,13-14,26H,4-5,10-12H2,1-3H3,(H,27,28)

>  <IUPAC Name>  (1) 
2-fluoro-5-[4-[3-hydroxy-2-methyl-4-(3-methylbutanoyl)phenoxy]butoxy]benzoic acid

$$$$
