
     RDKit          3D

 24 25  0  0  0  0  0  0  0  0999 V2000
    3.4847   -0.2540    0.2317 O   0  0  0  0  0  0  0  0  0  0  0  0
    2.5820    0.2555    1.1578 C   0  0  0  0  0  0  0  0  0  0  0  0
    2.9079    0.4086    2.3726 O   0  0  0  0  0  0  0  0  0  0  0  0
    1.2052    0.6359    0.7471 C   0  0  2  0  0  0  0  0  0  0  0  0
    0.5453   -0.3783   -0.2235 C   0  0  2  0  0  0  0  0  0  0  0  0
    1.0209    0.9360   -0.6660 C   0  0  1  0  0  0  0  0  0  0  0  0
   -0.4328    1.7310   -1.2920 S   0  0  0  0  0  0  0  0  0  0  0  0
   -1.0275    2.6751   -0.2993 O   0  0  0  0  0  0  0  0  0  0  0  0
   -0.2183    2.3432   -2.6321 O   0  0  0  0  0  0  0  0  0  0  0  0
   -1.4721    0.2648   -1.4005 C   0  0  0  0  0  0  0  0  0  0  0  0
   -0.9461   -0.4063   -0.1465 C   0  0  2  0  0  0  0  0  0  0  0  0
   -1.4393    0.4214    0.9660 N   0  0  0  0  0  0  0  0  0  0  0  0
   -1.4234   -1.7844    0.0324 C   0  0  0  0  0  0  0  0  0  0  0  0
   -1.1260   -2.6784   -0.8012 O   0  0  0  0  0  0  0  0  0  0  0  0
   -2.2220   -2.1722    1.1220 O   0  0  0  0  0  0  0  0  0  0  0  0
    4.4436   -0.5057    0.4971 H   0  0  0  0  0  0  0  0  0  0  0  0
    0.5620    1.0312    1.5551 H   0  0  0  0  0  0  0  0  0  0  0  0
    1.1193   -1.2499   -0.5384 H   0  0  0  0  0  0  0  0  0  0  0  0
    1.9007    1.0744   -1.3212 H   0  0  0  0  0  0  0  0  0  0  0  0
   -2.5298    0.5122   -1.2768 H   0  0  0  0  0  0  0  0  0  0  0  0
   -1.2412   -0.3207   -2.3113 H   0  0  0  0  0  0  0  0  0  0  0  0
   -1.1903    0.0273    1.8775 H   0  0  0  0  0  0  0  0  0  0  0  0
   -2.4786    0.5163    0.7884 H   0  0  0  0  0  0  0  0  0  0  0  0
   -2.0241   -3.0832    1.5610 H   0  0  0  0  0  0  0  0  0  0  0  0
  1  2  1  0
  2  3  2  0
  2  4  1  0
  4  5  1  0
  5  6  1  0
  6  7  1  0
  7  8  2  0
  7  9  2  0
  7 10  1  0
 10 11  1  0
 11 12  1  1
 11 13  1  0
 13 14  2  0
 13 15  1  0
  6  4  1  0
 11  5  1  0
  1 16  1  0
  4 17  1  1
  5 18  1  6
  6 19  1  6
 10 20  1  0
 10 21  1  0
 12 22  1  0
 12 23  1  0
 15 24  1  0
M  END
>  <Ligand ID>  (1) 
LIG0002341

>  <Ligand>  (1) 
635318-11-5

>  <SMILES>  (1) 
OC(=O)[C@@H]1[C@@H]2[C@H]1S(=O)(=O)C[C@@]2(N)C(=O)O

>  <CID>  (1) 
9834591.0

>  <ChEMBL ID>  (1) 
nan

>  <InChiKey>  (1) 
AVDUGNCTZRCAHH-MDASVERJSA-N

>  <InChi>  (1) 
InChI=1S/C7H9NO6S/c8-7(6(11)12)1-15(13,14)4-2(3(4)7)5(9)10/h2-4H,1,8H2,(H,9,10)(H,11,12)/t2-,3-,4+,7+/m1/s1

>  <IUPAC Name>  (1) 
(1R,4S,5S,6S)-4-amino-2,2-dioxo-2lambda6-thiabicyclo[3.1.0]hexane-4,6-dicarboxylic acid

$$$$
