
     RDKit          3D

 45 48  0  0  0  0  0  0  0  0999 V2000
    0.8203    5.5403   -1.6209 O   0  0  0  0  0  0  0  0  0  0  0  0
    0.7067    4.1941   -1.3115 C   0  0  0  0  0  0  0  0  0  0  0  0
    0.9700    3.6721   -0.0642 C   0  0  0  0  0  0  0  0  0  0  0  0
    0.8390    2.3102    0.1902 C   0  0  0  0  0  0  0  0  0  0  0  0
    0.4431    1.4088   -0.7767 C   0  0  0  0  0  0  0  0  0  0  0  0
    0.1804    1.9588   -2.0366 C   0  0  0  0  0  0  0  0  0  0  0  0
    0.3103    3.3076   -2.2878 C   0  0  0  0  0  0  0  0  0  0  0  0
    0.2992   -0.0179   -0.4893 C   0  0  0  0  0  0  0  0  0  0  0  0
    1.4361   -0.6315    0.2475 C   0  0  0  0  0  0  0  0  0  0  0  0
    1.5134   -0.5807    1.6462 C   0  0  0  0  0  0  0  0  0  0  0  0
    2.5631   -1.1423    2.3450 C   0  0  0  0  0  0  0  0  0  0  0  0
    3.5964   -1.7861    1.7053 C   0  0  0  0  0  0  0  0  0  0  0  0
    3.5431   -1.8489    0.3340 C   0  0  0  0  0  0  0  0  0  0  0  0
    2.4820   -1.2813   -0.3745 C   0  0  0  0  0  0  0  0  0  0  0  0
    4.6397   -2.3427    2.4261 O   0  0  0  0  0  0  0  0  0  0  0  0
   -1.0258   -0.3463    0.1187 C   0  0  0  0  0  0  0  0  0  0  0  0
   -1.6946    0.0859    1.2662 C   0  0  0  0  0  0  0  0  0  0  0  0
   -2.9278   -0.4611    1.6273 C   0  0  0  0  0  0  0  0  0  0  0  0
   -3.6531   -0.0092    2.8519 C   0  0  0  0  0  0  0  0  0  0  0  0
   -3.5372   -1.4412    0.8775 C   0  0  0  0  0  0  0  0  0  0  0  0
   -2.8868   -1.8679   -0.2518 C   0  0  0  0  0  0  0  0  0  0  0  0
   -1.6623   -1.3239   -0.6116 C   0  0  0  0  0  0  0  0  0  0  0  0
   -0.9256   -1.6027   -1.8050 N   0  0  0  0  0  0  0  0  0  0  0  0
    0.2059   -0.7374   -1.7876 C   0  0  0  0  0  0  0  0  0  0  0  0
    0.9734   -0.6607   -2.8015 O   0  0  0  0  0  0  0  0  0  0  0  0
   -1.2616   -2.5742   -2.8323 C   0  0  0  0  0  0  0  0  0  0  0  0
    0.8099    6.1929   -0.8436 H   0  0  0  0  0  0  0  0  0  0  0  0
    1.2814    4.3703    0.7025 H   0  0  0  0  0  0  0  0  0  0  0  0
    1.0726    2.0090    1.2040 H   0  0  0  0  0  0  0  0  0  0  0  0
   -0.1389    1.3432   -2.8568 H   0  0  0  0  0  0  0  0  0  0  0  0
    0.0965    3.6979   -3.2813 H   0  0  0  0  0  0  0  0  0  0  0  0
    0.7558   -0.1032    2.2417 H   0  0  0  0  0  0  0  0  0  0  0  0
    2.6061   -1.0927    3.4263 H   0  0  0  0  0  0  0  0  0  0  0  0
    4.3580   -2.3571   -0.1821 H   0  0  0  0  0  0  0  0  0  0  0  0
    2.5526   -1.3956   -1.4461 H   0  0  0  0  0  0  0  0  0  0  0  0
    5.4393   -2.7263    1.9579 H   0  0  0  0  0  0  0  0  0  0  0  0
   -1.3189    0.8474    1.9065 H   0  0  0  0  0  0  0  0  0  0  0  0
   -3.8172   -0.8573    3.5701 H   0  0  0  0  0  0  0  0  0  0  0  0
   -4.6289    0.4830    2.5900 H   0  0  0  0  0  0  0  0  0  0  0  0
   -2.9807    0.6957    3.3828 H   0  0  0  0  0  0  0  0  0  0  0  0
   -4.4884   -1.8698    1.1496 H   0  0  0  0  0  0  0  0  0  0  0  0
   -3.3803   -2.6416   -0.8338 H   0  0  0  0  0  0  0  0  0  0  0  0
   -0.4086   -3.1785   -3.1584 H   0  0  0  0  0  0  0  0  0  0  0  0
   -1.7185   -2.0139   -3.6822 H   0  0  0  0  0  0  0  0  0  0  0  0
   -2.0391   -3.2254   -2.4316 H   0  0  0  0  0  0  0  0  0  0  0  0
  1  2  1  0
  2  3  2  0
  3  4  1  0
  4  5  2  0
  5  6  1  0
  6  7  2  0
  5  8  1  0
  8  9  1  0
  9 10  2  0
 10 11  1  0
 11 12  2  0
 12 13  1  0
 13 14  2  0
 12 15  1  0
  8 16  1  0
 16 17  2  0
 17 18  1  0
 18 19  1  0
 18 20  2  0
 20 21  1  0
 21 22  2  0
 22 23  1  0
 23 24  1  0
 24 25  2  0
 23 26  1  0
  7  2  1  0
 24  8  1  0
 14  9  1  0
 22 16  1  0
  1 27  1  0
  3 28  1  0
  4 29  1  0
  6 30  1  0
  7 31  1  0
 10 32  1  0
 11 33  1  0
 13 34  1  0
 14 35  1  0
 15 36  1  0
 17 37  1  0
 19 38  1  0
 19 39  1  0
 19 40  1  0
 20 41  1  0
 21 42  1  0
 26 43  1  0
 26 44  1  0
 26 45  1  0
M  END
>  <Ligand ID>  (1) 
LIG0003895

>  <Ligand>  (1) 
MLS000661102

>  <SMILES>  (1) 
Oc1ccc(cc1)C1(c2ccc(cc2)O)c2cc(C)ccc2N(C1=O)C

>  <CID>  (1) 
2895915.0

>  <ChEMBL ID>  (1) 
nan

>  <InChiKey>  (1) 
DLEHJJPGKGNIMC-UHFFFAOYSA-N

>  <InChi>  (1) 
InChI=1S/C22H19NO3/c1-14-3-12-20-19(13-14)22(21(26)23(20)2,15-4-8-17(24)9-5-15)16-6-10-18(25)11-7-16/h3-13,24-25H,1-2H3

>  <IUPAC Name>  (1) 
3,3-bis(4-hydroxyphenyl)-1,5-dimethylindol-2-one

$$$$
