
     RDKit          3D

124133  0  0  0  0  0  0  0  0999 V2000
  -15.2229   -1.8374   -0.6550 C   0  0  0  0  0  0  0  0  0  0  0  0
  -14.4528   -1.0840   -1.3957 C   0  0  0  0  0  0  0  0  0  0  0  0
  -12.9739   -1.3208   -1.4774 C   0  0  0  0  0  0  0  0  0  0  0  0
  -12.3418   -0.1385   -1.0159 N   0  0  0  0  0  0  0  0  0  0  0  0
  -12.5222    0.1173    0.3585 C   0  0  0  0  0  0  0  0  0  0  0  0
  -11.2818    0.0474    1.2167 C   0  0  0  0  0  0  0  0  0  0  0  0
  -10.1333    0.7648    0.6064 C   0  0  2  0  0  0  0  0  0  0  0  0
  -10.4495    1.2943   -0.7674 C   0  0  2  0  0  0  0  0  0  0  0  0
  -11.0495    0.1485   -1.5472 C   0  0  1  0  0  0  0  0  0  0  0  0
  -10.1242   -0.9799   -1.6701 C   0  0  0  0  0  0  0  0  0  0  0  0
   -9.0579   -1.0583   -0.6507 C   0  0  0  0  0  0  0  0  0  0  0  0
   -9.0448   -0.2270    0.4056 C   0  0  0  0  0  0  0  0  0  0  0  0
   -8.1118   -0.1550    1.4046 C   0  0  0  0  0  0  0  0  0  0  0  0
   -8.5157    0.8616    2.2745 O   0  0  0  0  0  0  0  0  0  0  0  0
   -9.4403    1.7137    1.5352 C   0  0  1  0  0  0  0  0  0  0  0  0
   -8.7559    2.8135    0.8509 C   0  0  0  0  0  0  0  0  0  0  0  0
   -8.0526    3.5567    1.5494 O   0  0  0  0  0  0  0  0  0  0  0  0
   -8.8292    3.1085   -0.5848 C   0  0  0  0  0  0  0  0  0  0  0  0
   -9.1788    1.8376   -1.3649 C   0  0  0  0  0  0  0  0  0  0  0  0
   -7.0625   -1.0418    1.3198 C   0  0  0  0  0  0  0  0  0  0  0  0
   -7.0064   -1.9341    0.2599 C   0  0  0  0  0  0  0  0  0  0  0  0
   -7.9891   -1.9640   -0.7391 C   0  0  0  0  0  0  0  0  0  0  0  0
   -6.0442   -1.0380    2.3103 O   0  0  0  0  0  0  0  0  0  0  0  0
   -4.9556   -0.2160    2.0709 C   0  0  0  0  0  0  0  0  0  0  0  0
   -5.0023    0.4524    0.9813 O   0  0  0  0  0  0  0  0  0  0  0  0
   -3.7783   -0.0514    2.9373 C   0  0  0  0  0  0  0  0  0  0  0  0
   -2.7281   -1.1075    2.5751 C   0  0  0  0  0  0  0  0  0  0  0  0
   -2.4334   -0.9060    1.1174 C   0  0  0  0  0  0  0  0  0  0  0  0
   -1.4067   -1.8517    0.6044 C   0  0  0  0  0  0  0  0  0  0  0  0
   -0.0648   -1.6901    1.3055 C   0  0  0  0  0  0  0  0  0  0  0  0
    0.4302   -0.2619    1.1199 C   0  0  0  0  0  0  0  0  0  0  0  0
    0.5645    0.0978   -0.3200 C   0  0  0  0  0  0  0  0  0  0  0  0
    1.5301   -0.7969   -1.0273 C   0  0  0  0  0  0  0  0  0  0  0  0
    2.8914   -0.7265   -0.4153 C   0  0  0  0  0  0  0  0  0  0  0  0
    3.3638   -1.6492    0.3032 O   0  0  0  0  0  0  0  0  0  0  0  0
    3.6174    0.4325   -0.6860 O   0  0  0  0  0  0  0  0  0  0  0  0
    4.8923    0.6363   -0.1924 C   0  0  0  0  0  0  0  0  0  0  0  0
    5.1436    1.0029    1.1103 C   0  0  0  0  0  0  0  0  0  0  0  0
    6.4718    1.1841    1.5026 C   0  0  0  0  0  0  0  0  0  0  0  0
    7.5106    0.9989    0.5992 C   0  0  0  0  0  0  0  0  0  0  0  0
    7.2381    0.6318   -0.7061 C   0  0  0  0  0  0  0  0  0  0  0  0
    5.9330    0.4485   -1.1058 C   0  0  0  0  0  0  0  0  0  0  0  0
    8.2941    0.4375   -1.7265 C   0  0  1  0  0  0  0  0  0  0  0  0
    7.8587    0.9481   -3.0578 C   0  0  0  0  0  0  0  0  0  0  0  0
    8.8012    1.9703   -3.6685 C   0  0  0  0  0  0  0  0  0  0  0  0
    9.1616    3.0886   -2.7312 C   0  0  0  0  0  0  0  0  0  0  0  0
    9.3758    2.5860   -1.3121 C   0  0  0  0  0  0  0  0  0  0  0  0
    9.5690    1.1021   -1.2977 C   0  0  1  0  0  0  0  0  0  0  0  0
    9.9246    0.6560    0.1171 C   0  0  1  0  0  0  0  0  0  0  0  0
    8.8940    1.1888    1.0628 C   0  0  0  0  0  0  0  0  0  0  0  0
   10.0238   -0.7480    0.2168 N   0  0  0  0  0  0  0  0  0  0  0  0
    9.0126   -1.5313   -0.3998 C   0  0  0  0  0  0  0  0  0  0  0  0
    8.5690   -1.0531   -1.7699 C   0  0  0  0  0  0  0  0  0  0  0  0
   11.2388   -1.3615    0.5543 C   0  0  0  0  0  0  0  0  0  0  0  0
   11.7707   -1.2442    1.9311 C   0  0  0  0  0  0  0  0  0  0  0  0
   13.1098   -2.0281    2.0427 C   0  0  0  0  0  0  0  0  0  0  0  0
   13.7961   -0.6909    1.7401 C   0  0  0  0  0  0  0  0  0  0  0  0
   12.5447   -0.0544    2.3704 C   0  0  0  0  0  0  0  0  0  0  0  0
   10.6047    0.7855   -2.1774 O   0  0  0  0  0  0  0  0  0  0  0  0
  -11.3650    2.3373   -0.6064 O   0  0  0  0  0  0  0  0  0  0  0  0
  -14.7857   -2.6530   -0.0856 H   0  0  0  0  0  0  0  0  0  0  0  0
  -16.2899   -1.6583   -0.6016 H   0  0  0  0  0  0  0  0  0  0  0  0
  -14.8738   -0.2663   -1.9704 H   0  0  0  0  0  0  0  0  0  0  0  0
  -12.7771   -1.5900   -2.5147 H   0  0  0  0  0  0  0  0  0  0  0  0
  -12.7338   -2.1634   -0.7997 H   0  0  0  0  0  0  0  0  0  0  0  0
  -13.2288   -0.6486    0.7653 H   0  0  0  0  0  0  0  0  0  0  0  0
  -13.0522    1.1011    0.5222 H   0  0  0  0  0  0  0  0  0  0  0  0
  -11.5277    0.5041    2.2011 H   0  0  0  0  0  0  0  0  0  0  0  0
  -11.0394   -1.0260    1.4695 H   0  0  0  0  0  0  0  0  0  0  0  0
  -11.2397    0.5813   -2.5783 H   0  0  0  0  0  0  0  0  0  0  0  0
  -10.6162   -1.9748   -1.8246 H   0  0  0  0  0  0  0  0  0  0  0  0
   -9.5544   -0.8585   -2.6514 H   0  0  0  0  0  0  0  0  0  0  0  0
  -10.1556    2.0824    2.2864 H   0  0  0  0  0  0  0  0  0  0  0  0
   -9.5198    3.9293   -0.7772 H   0  0  0  0  0  0  0  0  0  0  0  0
   -7.8252    3.4335   -0.9650 H   0  0  0  0  0  0  0  0  0  0  0  0
   -8.2952    1.1826   -1.2365 H   0  0  0  0  0  0  0  0  0  0  0  0
   -9.3074    2.1557   -2.4230 H   0  0  0  0  0  0  0  0  0  0  0  0
   -6.1880   -2.6452    0.1729 H   0  0  0  0  0  0  0  0  0  0  0  0
   -7.9457   -2.6593   -1.5644 H   0  0  0  0  0  0  0  0  0  0  0  0
   -3.3102    0.9363    2.7321 H   0  0  0  0  0  0  0  0  0  0  0  0
   -4.0904   -0.0949    3.9841 H   0  0  0  0  0  0  0  0  0  0  0  0
   -1.8426   -0.8549    3.1739 H   0  0  0  0  0  0  0  0  0  0  0  0
   -3.1812   -2.0792    2.8279 H   0  0  0  0  0  0  0  0  0  0  0  0
   -2.1842    0.1564    0.9586 H   0  0  0  0  0  0  0  0  0  0  0  0
   -3.3600   -1.0812    0.4968 H   0  0  0  0  0  0  0  0  0  0  0  0
   -1.7502   -2.8871    0.8700 H   0  0  0  0  0  0  0  0  0  0  0  0
   -1.3233   -1.7804   -0.4929 H   0  0  0  0  0  0  0  0  0  0  0  0
   -0.2322   -1.8106    2.3907 H   0  0  0  0  0  0  0  0  0  0  0  0
    0.6337   -2.3995    0.8728 H   0  0  0  0  0  0  0  0  0  0  0  0
    1.4241   -0.2003    1.6125 H   0  0  0  0  0  0  0  0  0  0  0  0
   -0.2585    0.4545    1.5882 H   0  0  0  0  0  0  0  0  0  0  0  0
    0.9294    1.1491   -0.3818 H   0  0  0  0  0  0  0  0  0  0  0  0
   -0.4309    0.0556   -0.8400 H   0  0  0  0  0  0  0  0  0  0  0  0
    1.5550   -0.5257   -2.1223 H   0  0  0  0  0  0  0  0  0  0  0  0
    1.1925   -1.8599   -1.0009 H   0  0  0  0  0  0  0  0  0  0  0  0
    4.3136    1.1354    1.7759 H   0  0  0  0  0  0  0  0  0  0  0  0
    6.6325    1.4718    2.5339 H   0  0  0  0  0  0  0  0  0  0  0  0
    5.6637    0.1454   -2.1299 H   0  0  0  0  0  0  0  0  0  0  0  0
    7.7687    0.1159   -3.7825 H   0  0  0  0  0  0  0  0  0  0  0  0
    6.8585    1.4380   -3.0094 H   0  0  0  0  0  0  0  0  0  0  0  0
    8.2077    2.4414   -4.5079 H   0  0  0  0  0  0  0  0  0  0  0  0
    9.6720    1.5189   -4.1733 H   0  0  0  0  0  0  0  0  0  0  0  0
    8.4260    3.9179   -2.7922 H   0  0  0  0  0  0  0  0  0  0  0  0
   10.1349    3.5028   -3.0685 H   0  0  0  0  0  0  0  0  0  0  0  0
   10.2896    3.0318   -0.8452 H   0  0  0  0  0  0  0  0  0  0  0  0
    8.5152    2.9350   -0.7176 H   0  0  0  0  0  0  0  0  0  0  0  0
   10.9005    1.1353    0.3093 H   0  0  0  0  0  0  0  0  0  0  0  0
    9.0362    2.2454    1.3675 H   0  0  0  0  0  0  0  0  0  0  0  0
    9.0001    0.6061    2.0272 H   0  0  0  0  0  0  0  0  0  0  0  0
    8.1109   -1.6655    0.2711 H   0  0  0  0  0  0  0  0  0  0  0  0
    9.3936   -2.5736   -0.5378 H   0  0  0  0  0  0  0  0  0  0  0  0
    7.5941   -1.5462   -1.9835 H   0  0  0  0  0  0  0  0  0  0  0  0
    9.3087   -1.3475   -2.5283 H   0  0  0  0  0  0  0  0  0  0  0  0
   11.0827   -2.4837    0.3835 H   0  0  0  0  0  0  0  0  0  0  0  0
   12.0720   -1.1436   -0.1691 H   0  0  0  0  0  0  0  0  0  0  0  0
   11.1221   -1.6708    2.7390 H   0  0  0  0  0  0  0  0  0  0  0  0
   13.3181   -2.4174    3.0411 H   0  0  0  0  0  0  0  0  0  0  0  0
   13.2647   -2.6905    1.1820 H   0  0  0  0  0  0  0  0  0  0  0  0
   14.7217   -0.5354    2.3394 H   0  0  0  0  0  0  0  0  0  0  0  0
   13.8787   -0.4900    0.6558 H   0  0  0  0  0  0  0  0  0  0  0  0
   12.3245    0.9387    2.0163 H   0  0  0  0  0  0  0  0  0  0  0  0
   12.7226   -0.1173    3.4924 H   0  0  0  0  0  0  0  0  0  0  0  0
   11.3451    1.4369   -1.9620 H   0  0  0  0  0  0  0  0  0  0  0  0
  -11.2544    2.9976   -1.3077 H   0  0  0  0  0  0  0  0  0  0  0  0
  1  2  2  0
  2  3  1  0
  3  4  1  0
  4  5  1  0
  5  6  1  0
  7  6  1  1
  7  8  1  0
  8  9  1  0
  9 10  1  0
 10 11  1  0
 11 12  2  0
 12 13  1  0
 13 14  1  0
 14 15  1  0
 15 16  1  0
 16 17  2  0
 16 18  1  0
 18 19  1  0
 13 20  2  0
 20 21  1  0
 21 22  2  0
 20 23  1  0
 23 24  1  0
 24 25  2  0
 24 26  1  0
 26 27  1  0
 27 28  1  0
 28 29  1  0
 29 30  1  0
 30 31  1  0
 31 32  1  0
 32 33  1  0
 33 34  1  0
 34 35  2  0
 34 36  1  0
 36 37  1  0
 37 38  2  0
 38 39  1  0
 39 40  2  0
 40 41  1  0
 41 42  2  0
 41 43  1  0
 43 44  1  6
 44 45  1  0
 45 46  1  0
 46 47  1  0
 47 48  1  0
 48 49  1  0
 49 50  1  0
 49 51  1  0
 51 52  1  0
 52 53  1  0
 51 54  1  0
 54 55  1  0
 55 56  1  0
 56 57  1  0
 57 58  1  0
 48 59  1  6
  8 60  1  1
  9  4  1  0
 22 11  1  0
 42 37  1  0
 53 43  1  0
 58 55  1  0
 15  7  1  0
 50 40  1  0
 12  7  1  0
 48 43  1  0
 19  8  1  0
  1 61  1  0
  1 62  1  0
  2 63  1  0
  3 64  1  0
  3 65  1  0
  5 66  1  0
  5 67  1  0
  6 68  1  0
  6 69  1  0
  9 70  1  6
 10 71  1  0
 10 72  1  0
 15 73  1  1
 18 74  1  0
 18 75  1  0
 19 76  1  0
 19 77  1  0
 21 78  1  0
 22 79  1  0
 26 80  1  0
 26 81  1  0
 27 82  1  0
 27 83  1  0
 28 84  1  0
 28 85  1  0
 29 86  1  0
 29 87  1  0
 30 88  1  0
 30 89  1  0
 31 90  1  0
 31 91  1  0
 32 92  1  0
 32 93  1  0
 33 94  1  0
 33 95  1  0
 38 96  1  0
 39 97  1  0
 42 98  1  0
 44 99  1  0
 44100  1  0
 45101  1  0
 45102  1  0
 46103  1  0
 46104  1  0
 47105  1  0
 47106  1  0
 49107  1  1
 50108  1  0
 50109  1  0
 52110  1  0
 52111  1  0
 53112  1  0
 53113  1  0
 54114  1  0
 54115  1  0
 55116  1  0
 56117  1  0
 56118  1  0
 57119  1  0
 57120  1  0
 58121  1  0
 58122  1  0
 59123  1  0
 60124  1  0
M  END
>  <Ligand ID>  (1) 
LIG0005627

>  <Ligand>  (1) 
CHEMBL1774950

>  <SMILES>  (1) 
C=CCN1CC[C@@]23[C@@]4([C@H]1Cc1c3c(O[C@H]2C(=O)CC4)c(cc1)OC(=O)CCCCCCCCC(=O)Oc1ccc2c(c1)[C@]13CCCC[C@]3([C@@H](C2)N(CC1)CC1CCC1)O)O

>  <CID>  (1) 
54582933.0

>  <ChEMBL ID>  (1) 
nan

>  <InChiKey>  (1) 
ZBRHLKCYFJFMJO-XYIWGVFMSA-N

>  <InChi>  (1) 
InChI=1S/C50H64N2O8/c1-2-26-51-28-25-48-44-35-17-19-39(45(44)60-46(48)38(53)20-23-50(48,57)41(51)30-35)59-43(55)15-8-6-4-3-5-7-14-42(54)58-36-18-16-34-29-40-49(56)22-10-9-21-47(49,37(34)31-36)24-27-52(40)32-33-12-11-13-33/h2,16-19,31,33,40-41,46,56-57H,1,3-15,20-30,32H2/t40-,41-,46+,47+,48+,49-,50-/m1/s1

>  <IUPAC Name>  (1) 
10-O-[(4R,4aS,7aR,12bS)-4a-hydroxy-7-oxo-3-prop-2-enyl-2,4,5,6,7a,13-hexahydro-1H-4,12-methanobenzofuro[3,2-e]isoquinolin-9-yl] 1-O-[(1S,9R,10S)-17-(cyclobutylmethyl)-10-hydroxy-17-azatetracyclo[7.5.3.01,10.02,7]heptadeca-2(7),3,5-trien-4-yl] decanedioate

$$$$
