
     RDKit          3D

 79 81  0  0  0  0  0  0  0  0999 V2000
   10.8412    0.5599    2.6944 O   0  0  0  0  0  0  0  0  0  0  0  0
   10.8773    0.7684    1.3211 C   0  0  0  0  0  0  0  0  0  0  0  0
    9.7652    0.0834    0.6037 C   0  0  0  0  0  0  0  0  0  0  0  0
    8.6752    0.7738    0.1316 C   0  0  0  0  0  0  0  0  0  0  0  0
    7.6287    0.1385   -0.5472 C   0  0  0  0  0  0  0  0  0  0  0  0
    7.7571   -1.2132   -0.7131 C   0  0  0  0  0  0  0  0  0  0  0  0
    8.8639   -1.9159   -0.2342 C   0  0  0  0  0  0  0  0  0  0  0  0
    9.8876   -1.2796    0.4329 C   0  0  0  0  0  0  0  0  0  0  0  0
   10.9664   -2.0175    0.8907 O   0  0  0  0  0  0  0  0  0  0  0  0
    6.5269    0.9797   -1.0048 C   0  0  2  0  0  0  0  0  0  0  0  0
    5.6102    0.3414   -1.9879 C   0  0  0  0  0  0  0  0  0  0  0  0
    4.9603   -0.7933   -1.4164 N   0  0  0  0  0  0  0  0  0  0  0  0
    4.0435   -0.4450   -0.3996 C   0  0  0  0  0  0  0  0  0  0  0  0
    2.8313    0.2810   -0.9231 C   0  0  0  0  0  0  0  0  0  0  0  0
    1.8955    0.5938    0.2368 C   0  0  0  0  0  0  0  0  0  0  0  0
    0.6584    1.3189   -0.2227 C   0  0  0  0  0  0  0  0  0  0  0  0
   -0.1576    0.5774   -1.2100 C   0  0  0  0  0  0  0  0  0  0  0  0
   -0.6788   -0.7616   -0.7299 C   0  0  0  0  0  0  0  0  0  0  0  0
   -1.4222   -0.8496    0.2534 O   0  0  0  0  0  0  0  0  0  0  0  0
   -2.1843   -0.9295    1.2399 C   0  0  0  0  0  0  0  0  0  0  0  0
   -3.5363   -1.5701    0.8755 C   0  0  0  0  0  0  0  0  0  0  0  0
   -4.4645   -1.6663    2.0376 C   0  0  0  0  0  0  0  0  0  0  0  0
   -4.8583   -0.3701    2.6632 C   0  0  0  0  0  0  0  0  0  0  0  0
   -5.5568    0.4595    1.6664 C   0  0  0  0  0  0  0  0  0  0  0  0
   -4.9509    1.3697    0.8346 C   0  0  0  0  0  0  0  0  0  0  0  0
   -5.7231    2.0744   -0.0575 C   0  0  0  0  0  0  0  0  0  0  0  0
   -7.0820    1.9121   -0.1591 C   0  0  0  0  0  0  0  0  0  0  0  0
   -7.6978    1.0157    0.6568 C   0  0  0  0  0  0  0  0  0  0  0  0
   -6.9292    0.3010    1.5585 C   0  0  0  0  0  0  0  0  0  0  0  0
   -9.1691    0.7565    0.6328 C   0  0  0  0  0  0  0  0  0  0  0  0
   -9.4202   -0.3050   -0.3170 N   0  0  0  0  0  0  0  0  0  0  0  0
   -9.6717   -0.1070   -1.6337 C   0  0  0  0  0  0  0  0  0  0  0  0
   -9.7285    1.1446   -2.2745 O   0  0  0  0  0  0  0  0  0  0  0  0
   -9.8642   -1.3402   -2.2485 C   0  0  0  0  0  0  0  0  0  0  0  0
   -9.7239   -2.2691   -1.2826 N   0  0  0  0  0  0  0  0  0  0  0  0
   -9.4538   -1.6377   -0.1074 C   0  0  0  0  0  0  0  0  0  0  0  0
   -9.2711   -2.2231    0.9759 O   0  0  0  0  0  0  0  0  0  0  0  0
    7.0974    2.1046   -1.6721 O   0  0  0  0  0  0  0  0  0  0  0  0
   11.5577   -0.0451    2.9839 H   0  0  0  0  0  0  0  0  0  0  0  0
   10.8165    1.8405    1.0999 H   0  0  0  0  0  0  0  0  0  0  0  0
   11.8559    0.4190    0.9284 H   0  0  0  0  0  0  0  0  0  0  0  0
    8.6460    1.8583    0.3038 H   0  0  0  0  0  0  0  0  0  0  0  0
    7.0198   -1.7906   -1.2213 H   0  0  0  0  0  0  0  0  0  0  0  0
    8.9483   -2.9923   -0.3766 H   0  0  0  0  0  0  0  0  0  0  0  0
   11.4896   -2.5445    0.1840 H   0  0  0  0  0  0  0  0  0  0  0  0
    5.9717    1.4352   -0.1574 H   0  0  0  0  0  0  0  0  0  0  0  0
    6.2025    0.0162   -2.8871 H   0  0  0  0  0  0  0  0  0  0  0  0
    4.8481    1.0962   -2.2897 H   0  0  0  0  0  0  0  0  0  0  0  0
    4.5365   -1.3831   -2.1469 H   0  0  0  0  0  0  0  0  0  0  0  0
    4.4964    0.1998    0.4031 H   0  0  0  0  0  0  0  0  0  0  0  0
    3.7182   -1.3604    0.1908 H   0  0  0  0  0  0  0  0  0  0  0  0
    2.3447   -0.3647   -1.6667 H   0  0  0  0  0  0  0  0  0  0  0  0
    3.0875    1.2360   -1.4067 H   0  0  0  0  0  0  0  0  0  0  0  0
    2.4305    1.2967    0.9095 H   0  0  0  0  0  0  0  0  0  0  0  0
    1.7129   -0.3143    0.8064 H   0  0  0  0  0  0  0  0  0  0  0  0
    1.0228    2.2385   -0.7268 H   0  0  0  0  0  0  0  0  0  0  0  0
    0.1028    1.6410    0.6610 H   0  0  0  0  0  0  0  0  0  0  0  0
   -1.0299    1.2054   -1.4784 H   0  0  0  0  0  0  0  0  0  0  0  0
    0.4134    0.3943   -2.1384 H   0  0  0  0  0  0  0  0  0  0  0  0
   -1.1367   -1.2169   -1.6877 H   0  0  0  0  0  0  0  0  0  0  0  0
    0.2609   -1.4054   -0.6506 H   0  0  0  0  0  0  0  0  0  0  0  0
   -1.7670   -1.6530    2.0369 H   0  0  0  0  0  0  0  0  0  0  0  0
   -2.3918   -0.0164    1.8732 H   0  0  0  0  0  0  0  0  0  0  0  0
   -3.9275   -0.9480    0.0636 H   0  0  0  0  0  0  0  0  0  0  0  0
   -3.3533   -2.6035    0.5200 H   0  0  0  0  0  0  0  0  0  0  0  0
   -5.3913   -2.1651    1.6670 H   0  0  0  0  0  0  0  0  0  0  0  0
   -4.0229   -2.3432    2.8003 H   0  0  0  0  0  0  0  0  0  0  0  0
   -5.5525   -0.6163    3.5056 H   0  0  0  0  0  0  0  0  0  0  0  0
   -4.0049    0.1834    3.1013 H   0  0  0  0  0  0  0  0  0  0  0  0
   -3.8939    1.5259    0.8831 H   0  0  0  0  0  0  0  0  0  0  0  0
   -5.2404    2.8043   -0.7250 H   0  0  0  0  0  0  0  0  0  0  0  0
   -7.7022    2.4683   -0.8664 H   0  0  0  0  0  0  0  0  0  0  0  0
   -7.4349   -0.4145    2.2077 H   0  0  0  0  0  0  0  0  0  0  0  0
   -9.5188    0.4088    1.6155 H   0  0  0  0  0  0  0  0  0  0  0  0
   -9.6832    1.6969    0.3722 H   0  0  0  0  0  0  0  0  0  0  0  0
  -10.6547    1.5950   -2.2498 H   0  0  0  0  0  0  0  0  0  0  0  0
  -10.0807   -1.5016   -3.2965 H   0  0  0  0  0  0  0  0  0  0  0  0
   -9.8086   -3.2950   -1.4126 H   0  0  0  0  0  0  0  0  0  0  0  0
    7.7707    1.7112   -2.2971 H   0  0  0  0  0  0  0  0  0  0  0  0
  1  2  1  0
  2  3  1  0
  3  4  2  0
  4  5  1  0
  5  6  2  0
  6  7  1  0
  7  8  2  0
  8  9  1  0
  5 10  1  0
 10 11  1  0
 11 12  1  0
 12 13  1  0
 13 14  1  0
 14 15  1  0
 15 16  1  0
 16 17  1  0
 17 18  1  0
 18 19  1  0
 19 20  1  0
 20 21  1  0
 21 22  1  0
 22 23  1  0
 23 24  1  0
 24 25  2  0
 25 26  1  0
 26 27  2  0
 27 28  1  0
 28 29  2  0
 28 30  1  0
 30 31  1  0
 31 32  1  0
 32 33  1  0
 32 34  2  0
 34 35  1  0
 35 36  1  0
 36 37  2  0
 10 38  1  0
  8  3  1  0
 29 24  1  0
 36 31  1  0
  1 39  1  0
  2 40  1  0
  2 41  1  0
  4 42  1  0
  6 43  1  0
  7 44  1  0
  9 45  1  0
 10 46  1  1
 11 47  1  0
 11 48  1  0
 12 49  1  0
 13 50  1  0
 13 51  1  0
 14 52  1  0
 14 53  1  0
 15 54  1  0
 15 55  1  0
 16 56  1  0
 16 57  1  0
 17 58  1  0
 17 59  1  0
 18 60  1  0
 18 61  1  0
 20 62  1  0
 20 63  1  0
 21 64  1  0
 21 65  1  0
 22 66  1  0
 22 67  1  0
 23 68  1  0
 23 69  1  0
 25 70  1  0
 26 71  1  0
 27 72  1  0
 29 73  1  0
 30 74  1  0
 30 75  1  0
 33 76  1  0
 34 77  1  0
 35 78  1  0
 38 79  1  0
M  END
>  <Ligand ID>  (1) 
LIG0002499

>  <Ligand>  (1) 
BDBM50419005

>  <SMILES>  (1) 
OCc1cc(ccc1O)[C@H](CNCCCCCCOCCCCc1cccc(c1)Cn1c(O)c[nH]c1=O)O

>  <CID>  (1) 
90993835.0

>  <ChEMBL ID>  (1) 
nan

>  <InChiKey>  (1) 
VPGJZSQALIUTRT-MHZLTWQESA-N

>  <InChi>  (1) 
InChI=1S/C29H41N3O6/c33-21-25-17-24(11-12-26(25)34)27(35)18-30-13-4-1-2-5-14-38-15-6-3-8-22-9-7-10-23(16-22)20-32-28(36)19-31-29(32)37/h7,9-12,16-17,19,27,30,33-36H,1-6,8,13-15,18,20-21H2,(H,31,37)/t27-/m0/s1

>  <IUPAC Name>  (1) 
4-hydroxy-3-[[3-[4-[6-[[(2R)-2-hydroxy-2-[4-hydroxy-3-(hydroxymethyl)phenyl]ethyl]amino]hexoxy]butyl]phenyl]methyl]-1H-imidazol-2-one

$$$$
