
     RDKit          3D

173178  0  0  0  0  0  0  0  0999 V2000
   -7.8899    5.1541    4.5736 N   0  0  0  0  0  0  0  0  0  0  0  0
   -6.5225    5.2109    4.2099 C   0  0  0  0  0  0  0  0  0  0  0  0
   -6.1083    6.1925    3.4394 N   0  0  0  0  0  0  0  0  0  0  0  0
   -5.5694    4.2325    4.6549 N   0  0  0  0  0  0  0  0  0  0  0  0
   -4.3382    4.1685    3.8643 C   0  0  0  0  0  0  0  0  0  0  0  0
   -4.7623    3.6359    2.5011 C   0  0  0  0  0  0  0  0  0  0  0  0
   -3.6386    3.5205    1.5422 C   0  0  0  0  0  0  0  0  0  0  0  0
   -2.5393    2.5540    1.9413 C   0  0  2  0  0  0  0  0  0  0  0  0
   -1.5436    2.6723    0.8757 N   0  0  0  0  0  0  0  0  0  0  0  0
   -0.4954    3.4686    1.0087 C   0  0  0  0  0  0  0  0  0  0  0  0
   -0.4547    4.1391    2.2245 O   0  0  0  0  0  0  0  0  0  0  0  0
    0.5112    3.6165   -0.0627 C   0  0  2  0  0  0  0  0  0  0  0  0
    1.9040    3.3740    0.4009 C   0  0  0  0  0  0  0  0  0  0  0  0
    2.2109    1.6832    0.9235 S   0  0  0  0  0  0  0  0  0  0  0  0
    2.0116    0.2899   -0.6258 S   0  0  0  0  0  0  0  0  0  0  0  0
    3.4812   -0.0176   -1.5661 C   0  0  0  0  0  0  0  0  0  0  0  0
    4.6118   -0.7062   -0.8698 C   0  0  2  0  0  0  0  0  0  0  0  0
    4.1939   -1.9611   -0.2963 N   0  0  0  0  0  0  0  0  0  0  0  0
    4.3309   -3.1169   -0.8545 C   0  0  0  0  0  0  0  0  0  0  0  0
    4.9248   -3.1474   -2.1027 O   0  0  0  0  0  0  0  0  0  0  0  0
    3.8520   -4.3562   -0.1458 C   0  0  2  0  0  0  0  0  0  0  0  0
    5.0465   -5.2727    0.0990 C   0  0  0  0  0  0  0  0  0  0  0  0
    5.7516   -5.7105   -1.0988 C   0  0  0  0  0  0  0  0  0  0  0  0
    6.8692   -4.9793   -1.5325 C   0  0  0  0  0  0  0  0  0  0  0  0
    7.5743   -5.3449   -2.6599 C   0  0  0  0  0  0  0  0  0  0  0  0
    7.2293   -6.4500   -3.4329 C   0  0  0  0  0  0  0  0  0  0  0  0
    6.1263   -7.1720   -3.0044 C   0  0  0  0  0  0  0  0  0  0  0  0
    5.4090   -6.8077   -1.8658 C   0  0  0  0  0  0  0  0  0  0  0  0
    2.7683   -4.9090   -0.6951 N   0  0  0  0  0  0  0  0  0  0  0  0
    1.7066   -5.2608   -1.1484 C   0  0  0  0  0  0  0  0  0  0  0  0
    0.4548   -4.4628   -1.1377 C   0  0  1  0  0  0  0  0  0  0  0  0
   -0.6504   -5.0041   -0.4807 N   0  0  0  0  0  0  0  0  0  0  0  0
   -0.9331   -5.9940    0.2045 C   0  0  0  0  0  0  0  0  0  0  0  0
   -2.3478   -6.1566    0.7174 C   0  0  1  0  0  0  0  0  0  0  0  0
   -3.1653   -5.0163    0.5245 N   0  0  0  0  0  0  0  0  0  0  0  0
   -4.2908   -4.8933    1.0903 C   0  0  0  0  0  0  0  0  0  0  0  0
   -5.1977   -3.6993    0.9225 C   0  0  1  0  0  0  0  0  0  0  0  0
   -4.6371   -2.5865    0.3130 N   0  0  0  0  0  0  0  0  0  0  0  0
   -4.3877   -1.4380    0.7280 C   0  0  0  0  0  0  0  0  0  0  0  0
   -4.5305   -0.7084    1.9548 C   0  0  1  0  0  0  0  0  0  0  0  0
   -4.1708    0.7131    1.8448 N   0  0  0  0  0  0  0  0  0  0  0  0
   -2.9935    1.1407    2.0267 C   0  0  0  0  0  0  0  0  0  0  0  0
   -1.9975    0.2034    2.3418 O   0  0  0  0  0  0  0  0  0  0  0  0
   -5.6562   -0.8474    2.8950 C   0  0  0  0  0  0  0  0  0  0  0  0
   -7.0363   -0.6290    2.4601 C   0  0  0  0  0  0  0  0  0  0  0  0
   -7.6296    0.5724    2.1870 C   0  0  0  0  0  0  0  0  0  0  0  0
   -8.9647    0.7348    1.8592 C   0  0  0  0  0  0  0  0  0  0  0  0
   -9.7842   -0.3511    1.7908 C   0  0  0  0  0  0  0  0  0  0  0  0
   -9.2413   -1.5881    2.0554 C   0  0  0  0  0  0  0  0  0  0  0  0
   -7.9053   -1.7390    2.3830 C   0  0  0  0  0  0  0  0  0  0  0  0
   -3.7825   -0.6212   -0.3331 O   0  0  0  0  0  0  0  0  0  0  0  0
   -6.5049   -4.1575    0.3045 C   0  0  0  0  0  0  0  0  0  0  0  0
   -6.3859   -4.7841   -1.0179 C   0  0  0  0  0  0  0  0  0  0  0  0
   -6.2386   -6.1303   -1.2486 C   0  0  0  0  0  0  0  0  0  0  0  0
   -6.1587   -6.6377   -2.5481 C   0  0  0  0  0  0  0  0  0  0  0  0
   -6.2269   -5.7842   -3.6556 C   0  0  0  0  0  0  0  0  0  0  0  0
   -6.3734   -4.4500   -3.3732 C   0  0  0  0  0  0  0  0  0  0  0  0
   -6.4554   -3.9074   -2.1189 C   0  0  0  0  0  0  0  0  0  0  0  0
   -4.7425   -5.9277    1.9323 O   0  0  0  0  0  0  0  0  0  0  0  0
   -2.9742   -7.3799    0.1038 C   0  0  0  0  0  0  0  0  0  0  0  0
   -3.0696   -7.3849   -1.3652 C   0  0  0  0  0  0  0  0  0  0  0  0
   -2.9440   -6.4214   -2.1704 N   0  0  0  0  0  0  0  0  0  0  0  0
   -3.3403   -8.6493   -1.9418 O   0  0  0  0  0  0  0  0  0  0  0  0
    0.0449   -6.9462    0.4998 O   0  0  0  0  0  0  0  0  0  0  0  0
    0.7363   -3.0127   -0.8010 C   0  0  0  0  0  0  0  0  0  0  0  0
    1.6254   -6.5558   -1.7473 O   0  0  0  0  0  0  0  0  0  0  0  0
    5.4435    0.1347    0.0025 C   0  0  0  0  0  0  0  0  0  0  0  0
    6.7065    0.2365   -0.2382 N   0  0  0  0  0  0  0  0  0  0  0  0
    7.6180    1.0481    0.5717 C   0  0  2  0  0  0  0  0  0  0  0  0
    7.1993    2.4571    0.6278 C   0  0  0  0  0  0  0  0  0  0  0  0
    6.2219    2.9026   -0.0782 N   0  0  0  0  0  0  0  0  0  0  0  0
    7.9115    3.3039    1.4847 O   0  0  0  0  0  0  0  0  0  0  0  0
    9.0320    0.9147    0.0240 C   0  0  0  0  0  0  0  0  0  0  0  0
   10.0470    1.6866    0.7613 C   0  0  0  0  0  0  0  0  0  0  0  0
   10.6700    1.0670    1.8413 C   0  0  0  0  0  0  0  0  0  0  0  0
   11.6472    1.6909    2.5872 C   0  0  0  0  0  0  0  0  0  0  0  0
   12.0125    2.9612    2.2525 C   0  0  0  0  0  0  0  0  0  0  0  0
   11.3939    3.6002    1.1645 C   0  0  0  0  0  0  0  0  0  0  0  0
   10.4200    2.9853    0.4173 C   0  0  0  0  0  0  0  0  0  0  0  0
   13.0040    3.6254    2.9894 O   0  0  0  0  0  0  0  0  0  0  0  0
    4.9181    0.8439    1.1057 O   0  0  0  0  0  0  0  0  0  0  0  0
    0.4024    4.8723   -0.7155 N   0  0  0  0  0  0  0  0  0  0  0  0
    0.7638    6.0247   -0.4172 C   0  0  0  0  0  0  0  0  0  0  0  0
    0.4795    7.1423   -1.3701 C   0  0  2  0  0  0  0  0  0  0  0  0
   -0.0531    6.6553   -2.6825 C   0  0  0  0  0  0  0  0  0  0  0  0
   -0.3378    7.7783   -3.6324 C   0  0  0  0  0  0  0  0  0  0  0  0
   -1.6086    8.3147   -3.6086 C   0  0  0  0  0  0  0  0  0  0  0  0
   -1.9505    9.3696   -4.4695 C   0  0  0  0  0  0  0  0  0  0  0  0
   -0.9554    9.8178   -5.3116 C   0  0  0  0  0  0  0  0  0  0  0  0
    0.3034    9.2911   -5.3381 C   0  0  0  0  0  0  0  0  0  0  0  0
    0.6303    8.2545   -4.4913 C   0  0  0  0  0  0  0  0  0  0  0  0
   -1.2646   10.8636   -6.1735 O   0  0  0  0  0  0  0  0  0  0  0  0
    1.6973    7.9029   -1.5198 N   0  0  0  0  0  0  0  0  0  0  0  0
    1.4347    6.4087    0.7543 O   0  0  0  0  0  0  0  0  0  0  0  0
   -8.6581    5.1280    3.8381 H   0  0  0  0  0  0  0  0  0  0  0  0
   -8.2278    5.1315    5.5594 H   0  0  0  0  0  0  0  0  0  0  0  0
   -6.8546    6.8807    3.1447 H   0  0  0  0  0  0  0  0  0  0  0  0
   -5.7629    3.6377    5.4752 H   0  0  0  0  0  0  0  0  0  0  0  0
   -3.9523    5.2032    3.7977 H   0  0  0  0  0  0  0  0  0  0  0  0
   -3.6160    3.4454    4.2893 H   0  0  0  0  0  0  0  0  0  0  0  0
   -5.5592    4.2827    2.1046 H   0  0  0  0  0  0  0  0  0  0  0  0
   -5.1932    2.6268    2.7197 H   0  0  0  0  0  0  0  0  0  0  0  0
   -4.0214    3.2119    0.5259 H   0  0  0  0  0  0  0  0  0  0  0  0
   -3.1849    4.5323    1.4007 H   0  0  0  0  0  0  0  0  0  0  0  0
   -2.0822    2.8095    2.8946 H   0  0  0  0  0  0  0  0  0  0  0  0
   -0.3834    3.6805    3.1056 H   0  0  0  0  0  0  0  0  0  0  0  0
    0.2444    2.7817   -0.8119 H   0  0  0  0  0  0  0  0  0  0  0  0
    2.1675    4.0283    1.2598 H   0  0  0  0  0  0  0  0  0  0  0  0
    2.5702    3.5721   -0.4774 H   0  0  0  0  0  0  0  0  0  0  0  0
    3.2205   -0.6274   -2.4630 H   0  0  0  0  0  0  0  0  0  0  0  0
    3.8954    0.9557   -1.9641 H   0  0  0  0  0  0  0  0  0  0  0  0
    5.3198   -0.9844   -1.7460 H   0  0  0  0  0  0  0  0  0  0  0  0
    4.5636   -2.5519   -2.8331 H   0  0  0  0  0  0  0  0  0  0  0  0
    3.6002   -4.0092    0.9244 H   0  0  0  0  0  0  0  0  0  0  0  0
    4.7266   -6.1177    0.7569 H   0  0  0  0  0  0  0  0  0  0  0  0
    5.7507   -4.6951    0.7272 H   0  0  0  0  0  0  0  0  0  0  0  0
    7.2258   -4.1092   -1.0050 H   0  0  0  0  0  0  0  0  0  0  0  0
    8.4470   -4.7949   -3.0210 H   0  0  0  0  0  0  0  0  0  0  0  0
    7.7969   -6.7083   -4.3069 H   0  0  0  0  0  0  0  0  0  0  0  0
    5.8471   -8.0319   -3.5961 H   0  0  0  0  0  0  0  0  0  0  0  0
    4.5783   -7.4003   -1.5913 H   0  0  0  0  0  0  0  0  0  0  0  0
    0.1725   -4.4173   -2.2497 H   0  0  0  0  0  0  0  0  0  0  0  0
   -2.2579   -6.2921    1.8418 H   0  0  0  0  0  0  0  0  0  0  0  0
   -5.4675   -3.4351    1.9862 H   0  0  0  0  0  0  0  0  0  0  0  0
   -3.6317   -1.0945    2.6224 H   0  0  0  0  0  0  0  0  0  0  0  0
   -1.9180   -0.6679    1.8108 H   0  0  0  0  0  0  0  0  0  0  0  0
   -5.6373   -1.7675    3.5382 H   0  0  0  0  0  0  0  0  0  0  0  0
   -5.4688   -0.0305    3.6892 H   0  0  0  0  0  0  0  0  0  0  0  0
   -7.0398    1.4643    2.2226 H   0  0  0  0  0  0  0  0  0  0  0  0
   -9.3939    1.7015    1.6477 H   0  0  0  0  0  0  0  0  0  0  0  0
  -10.8220   -0.2446    1.5301 H   0  0  0  0  0  0  0  0  0  0  0  0
   -9.8829   -2.4828    2.0046 H   0  0  0  0  0  0  0  0  0  0  0  0
   -7.5798   -2.7365    2.5837 H   0  0  0  0  0  0  0  0  0  0  0  0
   -3.2605   -1.1195   -1.0608 H   0  0  0  0  0  0  0  0  0  0  0  0
   -7.0072   -4.8456    1.0024 H   0  0  0  0  0  0  0  0  0  0  0  0
   -7.1687   -3.2409    0.2326 H   0  0  0  0  0  0  0  0  0  0  0  0
   -6.1825   -6.7838   -0.3899 H   0  0  0  0  0  0  0  0  0  0  0  0
   -6.0428   -7.7007   -2.7334 H   0  0  0  0  0  0  0  0  0  0  0  0
   -6.1684   -6.2058   -4.6441 H   0  0  0  0  0  0  0  0  0  0  0  0
   -6.4370   -3.7363   -4.2087 H   0  0  0  0  0  0  0  0  0  0  0  0
   -6.5696   -2.8239   -1.9456 H   0  0  0  0  0  0  0  0  0  0  0  0
   -4.1229   -6.4660    2.5285 H   0  0  0  0  0  0  0  0  0  0  0  0
   -4.0116   -7.5805    0.4792 H   0  0  0  0  0  0  0  0  0  0  0  0
   -2.3541   -8.2614    0.4523 H   0  0  0  0  0  0  0  0  0  0  0  0
   -2.7586   -5.4419   -2.0611 H   0  0  0  0  0  0  0  0  0  0  0  0
   -3.4584   -8.6806   -2.9443 H   0  0  0  0  0  0  0  0  0  0  0  0
    0.9655   -6.6784    0.8565 H   0  0  0  0  0  0  0  0  0  0  0  0
   -0.1586   -2.4372   -1.1500 H   0  0  0  0  0  0  0  0  0  0  0  0
    1.5714   -2.6810   -1.4450 H   0  0  0  0  0  0  0  0  0  0  0  0
    1.0076   -2.8328    0.2399 H   0  0  0  0  0  0  0  0  0  0  0  0
    2.1370   -7.3189   -1.3334 H   0  0  0  0  0  0  0  0  0  0  0  0
    7.6444    0.6474    1.6142 H   0  0  0  0  0  0  0  0  0  0  0  0
    5.9836    3.9160    0.0142 H   0  0  0  0  0  0  0  0  0  0  0  0
    7.4344    4.1120    1.9158 H   0  0  0  0  0  0  0  0  0  0  0  0
    9.0024    1.2032   -1.0450 H   0  0  0  0  0  0  0  0  0  0  0  0
    9.3308   -0.1759    0.0012 H   0  0  0  0  0  0  0  0  0  0  0  0
   10.3943    0.0613    2.1188 H   0  0  0  0  0  0  0  0  0  0  0  0
   12.1419    1.2219    3.4306 H   0  0  0  0  0  0  0  0  0  0  0  0
   11.7125    4.6130    0.9264 H   0  0  0  0  0  0  0  0  0  0  0  0
    9.9227    3.4188   -0.4155 H   0  0  0  0  0  0  0  0  0  0  0  0
   13.8038    3.0227    3.2278 H   0  0  0  0  0  0  0  0  0  0  0  0
    5.5058    1.0410    1.9216 H   0  0  0  0  0  0  0  0  0  0  0  0
   -0.3395    7.7862   -0.9150 H   0  0  0  0  0  0  0  0  0  0  0  0
    0.7028    5.9735   -3.1321 H   0  0  0  0  0  0  0  0  0  0  0  0
   -0.9925    6.0830   -2.5661 H   0  0  0  0  0  0  0  0  0  0  0  0
   -2.3395    7.9122   -2.9229 H   0  0  0  0  0  0  0  0  0  0  0  0
   -2.9311    9.8112   -4.4785 H   0  0  0  0  0  0  0  0  0  0  0  0
    1.0113    9.7125   -6.0321 H   0  0  0  0  0  0  0  0  0  0  0  0
    1.6152    7.8490   -4.5165 H   0  0  0  0  0  0  0  0  0  0  0  0
   -0.5764   11.5454   -6.4360 H   0  0  0  0  0  0  0  0  0  0  0  0
    1.4510    8.9238   -1.6117 H   0  0  0  0  0  0  0  0  0  0  0  0
    2.2290    7.8129   -0.6145 H   0  0  0  0  0  0  0  0  0  0  0  0
    1.1985    6.1153    1.6696 H   0  0  0  0  0  0  0  0  0  0  0  0
  1  2  1  0
  2  3  2  3
  2  4  1  0
  4  5  1  0
  5  6  1  0
  6  7  1  0
  7  8  1  0
  8  9  1  0
  9 10  2  3
 10 11  1  0
 10 12  1  0
 12 13  1  0
 13 14  1  0
 14 15  1  0
 15 16  1  0
 16 17  1  0
 17 18  1  0
 18 19  2  3
 19 20  1  0
 19 21  1  0
 21 22  1  0
 22 23  1  0
 23 24  2  0
 24 25  1  0
 25 26  2  0
 26 27  1  0
 27 28  2  0
 21 29  1  0
 29 30  2  3
 30 31  1  0
 31 32  1  0
 32 33  2  3
 33 34  1  0
 34 35  1  0
 35 36  2  3
 36 37  1  0
 37 38  1  0
 38 39  2  3
 39 40  1  0
 40 41  1  0
 41 42  2  3
 42 43  1  0
 40 44  1  0
 44 45  1  0
 45 46  2  0
 46 47  1  0
 47 48  2  0
 48 49  1  0
 49 50  2  0
 39 51  1  0
 37 52  1  0
 52 53  1  0
 53 54  2  0
 54 55  1  0
 55 56  2  0
 56 57  1  0
 57 58  2  0
 36 59  1  0
 34 60  1  0
 60 61  1  0
 61 62  2  3
 61 63  1  0
 33 64  1  0
 31 65  1  0
 30 66  1  0
 17 67  1  0
 67 68  2  3
 68 69  1  0
 69 70  1  0
 70 71  2  3
 70 72  1  0
 69 73  1  0
 73 74  1  0
 74 75  2  0
 75 76  1  0
 76 77  2  0
 77 78  1  0
 78 79  2  0
 77 80  1  0
 67 81  1  0
 12 82  1  0
 82 83  2  3
 83 84  1  0
 84 85  1  0
 85 86  1  0
 86 87  2  0
 87 88  1  0
 88 89  2  0
 89 90  1  0
 90 91  2  0
 89 92  1  0
 84 93  1  0
 83 94  1  0
 42  8  1  0
 50 45  1  0
 58 53  1  0
 79 74  1  0
 91 86  1  0
 28 23  1  0
  1 95  1  0
  1 96  1  0
  3 97  1  0
  4 98  1  0
  5 99  1  0
  5100  1  0
  6101  1  0
  6102  1  0
  7103  1  0
  7104  1  0
  8105  1  1
 11106  1  0
 12107  1  6
 13108  1  0
 13109  1  0
 16110  1  0
 16111  1  0
 17112  1  6
 20113  1  0
 21114  1  1
 22115  1  0
 22116  1  0
 24117  1  0
 25118  1  0
 26119  1  0
 27120  1  0
 28121  1  0
 31122  1  6
 34123  1  1
 37124  1  1
 40125  1  1
 43126  1  0
 44127  1  0
 44128  1  0
 46129  1  0
 47130  1  0
 48131  1  0
 49132  1  0
 50133  1  0
 51134  1  0
 52135  1  0
 52136  1  0
 54137  1  0
 55138  1  0
 56139  1  0
 57140  1  0
 58141  1  0
 59142  1  0
 60143  1  0
 60144  1  0
 62145  1  0
 63146  1  0
 64147  1  0
 65148  1  0
 65149  1  0
 65150  1  0
 66151  1  0
 69152  1  1
 71153  1  0
 72154  1  0
 73155  1  0
 73156  1  0
 75157  1  0
 76158  1  0
 78159  1  0
 79160  1  0
 80161  1  0
 81162  1  0
 84163  1  1
 85164  1  0
 85165  1  0
 87166  1  0
 88167  1  0
 90168  1  0
 91169  1  0
 92170  1  0
 93171  1  0
 93172  1  0
 94173  1  0
M  END
>  <Ligand ID>  (1) 
LIG0002273

>  <Ligand>  (1) 
CID 102305013

>  <SMILES>  (1) 
NC(=N)NCCC[C@@H]1N=C(O)[C@H](CSSC[C@H](N=C(O)[C@H](Cc2ccccc2)N=C([C@@H](N=C([C@@H](N=C([C@@H](N=C([C@@H](N=C1O)Cc1ccccc1)O)Cc1ccccc1)O)CC(=N)O)O)C)O)C(=N[C@H](C(=N)O)Cc1ccc(cc1)O)O)N=C([C@H](Cc1ccc(cc1)O)N)O

>  <CID>  (1) 
102305013.0

>  <ChEMBL ID>  (1) 
nan

>  <InChiKey>  (1) 
WGLRFTCHAYWLOR-FPWNCKOBSA-N

>  <InChi>  (1) 
InChI=1S/C64H79N15O13S2/c1-36-55(84)74-47(30-37-12-5-2-6-13-37)61(90)79-52(63(92)73-46(54(67)83)29-41-21-25-43(81)26-22-41)35-94-93-34-51(78-56(85)44(65)28-40-19-23-42(80)24-20-40)62(91)72-45(18-11-27-70-64(68)69)57(86)75-48(31-38-14-7-3-8-15-38)59(88)76-49(32-39-16-9-4-10-17-39)60(89)77-50(33-53(66)82)58(87)71-36/h2-10,12-17,19-26,36,44-52,80-81H,11,18,27-35,65H2,1H3,(H2,66,82)(H2,67,83)(H,71,87)(H,72,91)(H,73,92)(H,74,84)(H,75,86)(H,76,88)(H,77,89)(H,78,85)(H,79,90)(H4,68,69,70)/t36-,44-,45-,46-,47-,48-,49-,50-,51-,52-/m0/s1

>  <IUPAC Name>  (1) 
(4R,7S,10S,13S,16S,19S,22S,25R)-25-[[(2S)-2-amino-1-hydroxy-3-(4-hydroxyphenyl)propylidene]amino]-7,16,19-tribenzyl-22-(3-carbamimidamidopropyl)-6,9,12,15,18,21,24-heptahydroxy-N-[(2S)-1-hydroxy-3-(4-hydroxyphenyl)-1-iminopropan-2-yl]-13-(2-hydroxy-2-iminoethyl)-10-methyl-1,2-dithia-5,8,11,14,17,20,23-heptazacyclohexacosa-5,8,11,14,17,20,23-heptaene-4-carboximidic acid

$$$$
