
     RDKit          3D

 32 34  0  0  0  0  0  0  0  0999 V2000
    4.6320    0.5533    0.2074 C   0  0  0  0  0  0  0  0  0  0  0  0
    3.7372    1.6043    0.8251 C   0  0  0  0  0  0  0  0  0  0  0  0
    2.4212    1.0589    0.5505 N   0  0  0  0  0  0  0  0  0  0  0  0
    2.4611    0.2056   -0.4170 C   0  0  0  0  0  0  0  0  0  0  0  0
    3.7984    0.0886   -0.8909 N   0  0  0  0  0  0  0  0  0  0  0  0
    1.3095   -0.5708   -0.9927 C   0  0  0  0  0  0  0  0  0  0  0  0
    0.1140   -0.2397   -0.3144 O   0  0  0  0  0  0  0  0  0  0  0  0
   -1.0845   -0.8267   -0.6657 C   0  0  0  0  0  0  0  0  0  0  0  0
   -1.1344   -1.7622   -1.7029 C   0  0  0  0  0  0  0  0  0  0  0  0
   -2.3327   -2.3489   -2.0539 C   0  0  0  0  0  0  0  0  0  0  0  0
   -3.4649   -1.9949   -1.3660 C   0  0  0  0  0  0  0  0  0  0  0  0
   -3.4310   -1.0696   -0.3361 C   0  0  0  0  0  0  0  0  0  0  0  0
   -2.2334   -0.4747    0.0243 C   0  0  0  0  0  0  0  0  0  0  0  0
   -2.1639    0.4974    1.0974 C   0  0  0  0  0  0  0  0  0  0  0  0
   -1.2644    0.6187    2.1354 C   0  0  0  0  0  0  0  0  0  0  0  0
   -1.6267    1.6577    2.8394 O   0  0  0  0  0  0  0  0  0  0  0  0
   -2.6826    2.2436    2.3724 C   0  0  0  0  0  0  0  0  0  0  0  0
   -3.0639    1.5351    1.2546 C   0  0  0  0  0  0  0  0  0  0  0  0
    4.7343   -0.2892    0.9157 H   0  0  0  0  0  0  0  0  0  0  0  0
    5.5977    0.9646   -0.1345 H   0  0  0  0  0  0  0  0  0  0  0  0
    3.9174    1.7256    1.9109 H   0  0  0  0  0  0  0  0  0  0  0  0
    3.8427    2.5767    0.2796 H   0  0  0  0  0  0  0  0  0  0  0  0
    4.1498   -0.2512   -1.8168 H   0  0  0  0  0  0  0  0  0  0  0  0
    1.4564   -1.6641   -0.8361 H   0  0  0  0  0  0  0  0  0  0  0  0
    1.1754   -0.3501   -2.0542 H   0  0  0  0  0  0  0  0  0  0  0  0
   -0.2094   -2.0110   -2.2196 H   0  0  0  0  0  0  0  0  0  0  0  0
   -2.3844   -3.0743   -2.8549 H   0  0  0  0  0  0  0  0  0  0  0  0
   -4.3983   -2.4509   -1.6383 H   0  0  0  0  0  0  0  0  0  0  0  0
   -4.3258   -0.7802    0.2183 H   0  0  0  0  0  0  0  0  0  0  0  0
   -0.4157   -0.0531    2.3035 H   0  0  0  0  0  0  0  0  0  0  0  0
   -3.2074    3.1107    2.7343 H   0  0  0  0  0  0  0  0  0  0  0  0
   -3.9238    1.7707    0.6251 H   0  0  0  0  0  0  0  0  0  0  0  0
  1  2  1  0
  2  3  1  0
  3  4  2  0
  4  5  1  0
  4  6  1  0
  6  7  1  0
  7  8  1  0
  8  9  2  0
  9 10  1  0
 10 11  2  0
 11 12  1  0
 12 13  2  0
 13 14  1  0
 14 15  2  0
 15 16  1  0
 16 17  1  0
 17 18  2  0
  5  1  1  0
 13  8  1  0
 18 14  1  0
  1 19  1  0
  1 20  1  0
  2 21  1  0
  2 22  1  0
  5 23  1  0
  6 24  1  0
  6 25  1  0
  9 26  1  0
 10 27  1  0
 11 28  1  0
 12 29  1  0
 15 30  1  0
 17 31  1  0
 18 32  1  0
M  END
>  <Ligand ID>  (1) 
LIG0003198

>  <Ligand>  (1) 
CHEMBL142784

>  <SMILES>  (1) 
C1CN=C(N1)COc1ccccc1c1cocc1

>  <CID>  (1) 
44362194.0

>  <ChEMBL ID>  (1) 
nan

>  <InChiKey>  (1) 
JJNCVWTXKJXARP-UHFFFAOYSA-N

>  <InChi>  (1) 
InChI=1S/C14H14N2O2/c1-2-4-13(18-10-14-15-6-7-16-14)12(3-1)11-5-8-17-9-11/h1-5,8-9H,6-7,10H2,(H,15,16)

>  <IUPAC Name>  (1) 
2-[[2-(furan-3-yl)phenoxy]methyl]-4,5-dihydro-1H-imidazole

$$$$
