
     RDKit          3D

 51 54  0  0  0  0  0  0  0  0999 V2000
    5.4307    0.5925    0.4866 O   0  0  0  0  0  0  0  0  0  0  0  0
    4.2170    0.2152   -0.1093 C   0  0  2  0  0  0  0  0  0  0  0  0
    3.5171    1.4788   -0.5037 C   0  0  0  0  0  0  0  0  0  0  0  0
    2.1314    1.2629   -1.0314 C   0  0  0  0  0  0  0  0  0  0  0  0
    1.4465    0.0529   -0.4428 C   0  0  1  0  0  0  0  0  0  0  0  0
    2.0118   -0.2405    0.9467 C   0  0  2  0  0  0  0  0  0  0  0  0
    3.4667   -0.5884    0.9099 C   0  0  0  0  0  0  0  0  0  0  0  0
    1.2796   -1.3797    1.5750 C   0  0  0  0  0  0  0  0  0  0  0  0
   -0.2032   -1.2104    1.6223 C   0  0  0  0  0  0  0  0  0  0  0  0
   -0.8112   -0.7484    0.3097 C   0  0  2  0  0  0  0  0  0  0  0  0
    0.0074    0.4137   -0.2104 C   0  0  2  0  0  0  0  0  0  0  0  0
   -0.6663    1.0201   -1.3943 C   0  0  0  0  0  0  0  0  0  0  0  0
   -1.9311    1.7058   -0.8518 C   0  0  0  0  0  0  0  0  0  0  0  0
   -2.8224    0.6007   -0.4315 C   0  0  1  0  0  0  0  0  0  0  0  0
   -2.1382   -0.1954    0.6580 C   0  0  1  0  0  0  0  0  0  0  0  0
   -3.2031   -1.1516    1.0343 C   0  0  0  0  0  0  0  0  0  0  0  0
   -4.4500   -0.2534    1.0629 C   0  0  0  0  0  0  0  0  0  0  0  0
   -4.0054    1.0176    0.3750 C   0  0  0  0  0  0  0  0  0  0  0  0
   -4.5269    2.1143    0.4846 O   0  0  0  0  0  0  0  0  0  0  0  0
   -3.3288   -0.2544   -1.5457 C   0  0  0  0  0  0  0  0  0  0  0  0
    1.6374   -1.0885   -1.3983 C   0  0  0  0  0  0  0  0  0  0  0  0
    5.3834    0.5167    1.4763 H   0  0  0  0  0  0  0  0  0  0  0  0
    4.4678   -0.4220   -0.9795 H   0  0  0  0  0  0  0  0  0  0  0  0
    3.5236    2.1883    0.3354 H   0  0  0  0  0  0  0  0  0  0  0  0
    4.1194    1.9478   -1.3171 H   0  0  0  0  0  0  0  0  0  0  0  0
    1.5651    2.2018   -0.7839 H   0  0  0  0  0  0  0  0  0  0  0  0
    2.1621    1.1662   -2.1363 H   0  0  0  0  0  0  0  0  0  0  0  0
    1.8242    0.6898    1.5306 H   0  0  0  0  0  0  0  0  0  0  0  0
    3.5948   -1.6715    0.7084 H   0  0  0  0  0  0  0  0  0  0  0  0
    3.8558   -0.4225    1.9457 H   0  0  0  0  0  0  0  0  0  0  0  0
    1.6240   -1.4054    2.6453 H   0  0  0  0  0  0  0  0  0  0  0  0
    1.6170   -2.3495    1.1457 H   0  0  0  0  0  0  0  0  0  0  0  0
   -0.6552   -2.1510    1.9645 H   0  0  0  0  0  0  0  0  0  0  0  0
   -0.4200   -0.4212    2.3755 H   0  0  0  0  0  0  0  0  0  0  0  0
   -0.8615   -1.5798   -0.4285 H   0  0  0  0  0  0  0  0  0  0  0  0
   -0.0059    1.1718    0.6012 H   0  0  0  0  0  0  0  0  0  0  0  0
   -0.0409    1.7165   -1.9523 H   0  0  0  0  0  0  0  0  0  0  0  0
   -1.0364    0.2580   -2.1278 H   0  0  0  0  0  0  0  0  0  0  0  0
   -1.5984    2.2397    0.0702 H   0  0  0  0  0  0  0  0  0  0  0  0
   -2.3490    2.4021   -1.5767 H   0  0  0  0  0  0  0  0  0  0  0  0
   -2.0002    0.5003    1.5248 H   0  0  0  0  0  0  0  0  0  0  0  0
   -3.0648   -1.6021    2.0555 H   0  0  0  0  0  0  0  0  0  0  0  0
   -3.3115   -1.9438    0.2732 H   0  0  0  0  0  0  0  0  0  0  0  0
   -5.2880   -0.7227    0.5187 H   0  0  0  0  0  0  0  0  0  0  0  0
   -4.7495   -0.1028    2.0995 H   0  0  0  0  0  0  0  0  0  0  0  0
   -4.3461   -0.6856   -1.3288 H   0  0  0  0  0  0  0  0  0  0  0  0
   -3.4596    0.3999   -2.4322 H   0  0  0  0  0  0  0  0  0  0  0  0
   -2.6747   -1.0994   -1.8299 H   0  0  0  0  0  0  0  0  0  0  0  0
    2.0131   -1.9960   -0.8792 H   0  0  0  0  0  0  0  0  0  0  0  0
    2.3718   -0.8481   -2.2086 H   0  0  0  0  0  0  0  0  0  0  0  0
    0.6806   -1.3394   -1.9204 H   0  0  0  0  0  0  0  0  0  0  0  0
  1  2  1  0
  2  3  1  0
  3  4  1  0
  4  5  1  0
  5  6  1  0
  6  7  1  0
  6  8  1  0
  8  9  1  0
  9 10  1  0
 10 11  1  0
 11 12  1  0
 12 13  1  0
 13 14  1  0
 14 15  1  0
 15 16  1  0
 16 17  1  0
 17 18  1  0
 18 19  2  0
 14 20  1  6
  5 21  1  6
  7  2  1  0
 15 10  1  0
 11  5  1  0
 18 14  1  0
  1 22  1  0
  2 23  1  6
  3 24  1  0
  3 25  1  0
  4 26  1  0
  4 27  1  0
  6 28  1  1
  7 29  1  0
  7 30  1  0
  8 31  1  0
  8 32  1  0
  9 33  1  0
  9 34  1  0
 10 35  1  6
 11 36  1  1
 12 37  1  0
 12 38  1  0
 13 39  1  0
 13 40  1  0
 15 41  1  1
 16 42  1  0
 16 43  1  0
 17 44  1  0
 17 45  1  0
 20 46  1  0
 20 47  1  0
 20 48  1  0
 21 49  1  0
 21 50  1  0
 21 51  1  0
M  END
>  <Ligand ID>  (1) 
LIG0000447

>  <Ligand>  (1) 
Androsterone

>  <SMILES>  (1) 
O[C@@H]1CC[C@]2([C@H](C1)CC[C@@H]1[C@@H]2CC[C@]2([C@H]1CCC2=O)C)C

>  <CID>  (1) 
5879.0

>  <ChEMBL ID>  (1) 
nan

>  <InChiKey>  (1) 
QGXBDMJGAMFCBF-HLUDHZFRSA-N

>  <InChi>  (1) 
InChI=1S/C19H30O2/c1-18-9-7-13(20)11-12(18)3-4-14-15-5-6-17(21)19(15,2)10-8-16(14)18/h12-16,20H,3-11H2,1-2H3/t12-,13+,14-,15-,16-,18-,19-/m0/s1

>  <IUPAC Name>  (1) 
(3R,5S,8R,9S,10S,13S,14S)-3-hydroxy-10,13-dimethyl-1,2,3,4,5,6,7,8,9,11,12,14,15,16-tetradecahydrocyclopenta[a]phenanthren-17-one

$$$$
