
     RDKit          3D

 32 34  0  0  0  0  0  0  0  0999 V2000
   -3.1104    2.3755    0.0937 C   0  0  0  0  0  0  0  0  0  0  0  0
   -2.1889    1.2127   -0.0016 C   0  0  0  0  0  0  0  0  0  0  0  0
   -2.7458   -0.0627    0.0345 C   0  0  0  0  0  0  0  0  0  0  0  0
   -1.9343   -1.1642   -0.0499 C   0  0  0  0  0  0  0  0  0  0  0  0
   -2.5018   -2.5536   -0.0141 C   0  0  0  0  0  0  0  0  0  0  0  0
   -0.5787   -0.9749   -0.1691 C   0  0  0  0  0  0  0  0  0  0  0  0
   -0.0043    0.3044   -0.2075 C   0  0  0  0  0  0  0  0  0  0  0  0
   -0.8443    1.3980   -0.1202 C   0  0  0  0  0  0  0  0  0  0  0  0
    1.4228    0.5217   -0.3538 C   0  0  1  0  0  0  0  0  0  0  0  0
    2.0405    1.6431    0.4037 C   0  0  0  0  0  0  0  0  0  0  0  0
    3.4318    1.2419    0.5451 N   0  0  0  0  0  0  0  0  0  0  0  0
    3.5307   -0.1652    0.1845 C   0  0  0  0  0  0  0  0  0  0  0  0
    2.1405   -0.6330    0.3712 C   0  0  2  0  0  0  0  0  0  0  0  0
    1.7325   -1.8133   -0.3419 N   0  0  0  0  0  0  0  0  0  0  0  0
    0.3215   -2.1347   -0.2405 C   0  0  0  0  0  0  0  0  0  0  0  0
   -0.0850   -3.3209   -0.2171 O   0  0  0  0  0  0  0  0  0  0  0  0
   -2.6523    3.2732   -0.3459 H   0  0  0  0  0  0  0  0  0  0  0  0
   -4.0804    2.1368   -0.3815 H   0  0  0  0  0  0  0  0  0  0  0  0
   -3.2988    2.6101    1.1781 H   0  0  0  0  0  0  0  0  0  0  0  0
   -3.8133   -0.2008    0.1285 H   0  0  0  0  0  0  0  0  0  0  0  0
   -3.6200   -2.4623    0.0031 H   0  0  0  0  0  0  0  0  0  0  0  0
   -2.1823   -3.1049    0.8851 H   0  0  0  0  0  0  0  0  0  0  0  0
   -2.2891   -3.0920   -0.9712 H   0  0  0  0  0  0  0  0  0  0  0  0
   -0.4315    2.3835   -0.1465 H   0  0  0  0  0  0  0  0  0  0  0  0
    1.7803    0.5130   -1.4062 H   0  0  0  0  0  0  0  0  0  0  0  0
    1.6090    1.6465    1.4266 H   0  0  0  0  0  0  0  0  0  0  0  0
    1.9309    2.6181   -0.1079 H   0  0  0  0  0  0  0  0  0  0  0  0
    4.0811    1.8349    0.0017 H   0  0  0  0  0  0  0  0  0  0  0  0
    4.1919   -0.6424    0.9455 H   0  0  0  0  0  0  0  0  0  0  0  0
    3.9335   -0.3324   -0.8156 H   0  0  0  0  0  0  0  0  0  0  0  0
    1.8727   -0.6240    1.4429 H   0  0  0  0  0  0  0  0  0  0  0  0
    2.3418   -2.4320   -0.8996 H   0  0  0  0  0  0  0  0  0  0  0  0
  1  2  1  0
  2  3  2  0
  3  4  1  0
  4  5  1  0
  4  6  2  0
  6  7  1  0
  7  8  2  0
  7  9  1  0
  9 10  1  0
 10 11  1  0
 11 12  1  0
 12 13  1  0
 13 14  1  0
 14 15  1  0
 15 16  2  0
  8  2  1  0
 13  9  1  0
 15  6  1  0
  1 17  1  0
  1 18  1  0
  1 19  1  0
  3 20  1  0
  5 21  1  0
  5 22  1  0
  5 23  1  0
  8 24  1  0
  9 25  1  6
 10 26  1  0
 10 27  1  0
 11 28  1  0
 12 29  1  0
 12 30  1  0
 13 31  1  1
 14 32  1  0
M  END
>  <Ligand ID>  (1) 
LIG0003735

>  <Ligand>  (1) 
CHEMBL2337503

>  <SMILES>  (1) 
Cc1cc(C)c2c(c1)[C@H]1CNC[C@@H]1NC2=O

>  <CID>  (1) 
11499800.0

>  <ChEMBL ID>  (1) 
nan

>  <InChiKey>  (1) 
SGPNLBSMFCLLAE-MNOVXSKESA-N

>  <InChi>  (1) 
InChI=1S/C13H16N2O/c1-7-3-8(2)12-9(4-7)10-5-14-6-11(10)15-13(12)16/h3-4,10-11,14H,5-6H2,1-2H3,(H,15,16)/t10-,11+/m1/s1

>  <IUPAC Name>  (1) 
(3aR,9bS)-6,8-dimethyl-1,2,3,3a,4,9b-hexahydropyrrolo[3,4-c]isoquinolin-5-one

$$$$
