
     RDKit          3D

 66 70  0  0  0  0  0  0  0  0999 V2000
    3.8850    6.8844   -0.3654 N   0  0  0  0  0  0  0  0  0  0  0  0
    2.8895    6.8044   -1.3991 C   0  0  0  0  0  0  0  0  0  0  0  0
    1.8474    5.7330   -1.0806 C   0  0  0  0  0  0  0  0  0  0  0  0
    2.4385    4.4653   -0.9605 O   0  0  0  0  0  0  0  0  0  0  0  0
    1.6148    3.3836   -0.6706 C   0  0  0  0  0  0  0  0  0  0  0  0
    2.1946    2.1862   -0.5603 N   0  0  0  0  0  0  0  0  0  0  0  0
    1.4746    1.0838   -0.2817 C   0  0  0  0  0  0  0  0  0  0  0  0
    2.1494   -0.1598   -0.1760 N   0  0  0  0  0  0  0  0  0  0  0  0
    3.6056   -0.2202   -0.3726 C   0  0  0  0  0  0  0  0  0  0  0  0
    4.1395   -1.5794   -0.2194 C   0  0  0  0  0  0  0  0  0  0  0  0
    4.5428   -1.9575    1.0649 C   0  0  0  0  0  0  0  0  0  0  0  0
    5.0540   -3.2221    1.2776 C   0  0  0  0  0  0  0  0  0  0  0  0
    5.1760   -4.1261    0.2432 C   0  0  0  0  0  0  0  0  0  0  0  0
    4.7847   -3.7752   -1.0314 C   0  0  0  0  0  0  0  0  0  0  0  0
    4.2697   -2.4949   -1.2350 C   0  0  0  0  0  0  0  0  0  0  0  0
    5.7325   -5.4930    0.4923 C   0  0  0  0  0  0  0  0  0  0  0  0
    4.7470   -6.4034    0.2022 F   0  0  0  0  0  0  0  0  0  0  0  0
    6.0705   -5.5884    1.8431 F   0  0  0  0  0  0  0  0  0  0  0  0
    6.8588   -5.7475   -0.2494 F   0  0  0  0  0  0  0  0  0  0  0  0
    0.1165    1.2367   -0.1145 C   0  0  0  0  0  0  0  0  0  0  0  0
   -0.5114    2.4635   -0.2227 C   0  0  0  0  0  0  0  0  0  0  0  0
    0.2820    3.5173   -0.5038 N   0  0  0  0  0  0  0  0  0  0  0  0
   -1.8579    2.6291   -0.0593 C   0  0  0  0  0  0  0  0  0  0  0  0
   -2.6032    1.4962    0.2273 C   0  0  0  0  0  0  0  0  0  0  0  0
   -2.0413    0.2462    0.3483 C   0  0  0  0  0  0  0  0  0  0  0  0
   -0.6557    0.1518    0.1683 C   0  0  0  0  0  0  0  0  0  0  0  0
   -2.8294   -0.9819    0.6556 C   0  0  0  0  0  0  0  0  0  0  0  0
   -3.3164   -1.7058   -0.5112 C   0  0  0  0  0  0  0  0  0  0  0  0
   -4.5331   -2.3493   -0.6078 C   0  0  0  0  0  0  0  0  0  0  0  0
   -4.9323   -3.0076   -1.7627 C   0  0  0  0  0  0  0  0  0  0  0  0
   -4.1271   -3.0528   -2.8804 C   0  0  0  0  0  0  0  0  0  0  0  0
   -2.9096   -2.4148   -2.7972 C   0  0  0  0  0  0  0  0  0  0  0  0
   -2.5110   -1.7540   -1.6358 C   0  0  0  0  0  0  0  0  0  0  0  0
   -4.5731   -3.8626   -4.3566 Cl  0  0  0  0  0  0  0  0  0  0  0  0
   -3.9516   -0.6450    1.5490 C   0  0  0  0  0  0  0  0  0  0  0  0
   -3.8137   -0.8163    2.9323 C   0  0  0  0  0  0  0  0  0  0  0  0
   -4.8125   -0.5135    3.8156 C   0  0  0  0  0  0  0  0  0  0  0  0
   -6.0154   -0.0180    3.3621 C   0  0  0  0  0  0  0  0  0  0  0  0
   -6.1940    0.1661    2.0087 C   0  0  0  0  0  0  0  0  0  0  0  0
   -5.1655   -0.1489    1.1331 C   0  0  0  0  0  0  0  0  0  0  0  0
   -7.2532    0.3496    4.5470 Cl  0  0  0  0  0  0  0  0  0  0  0  0
    3.4209    7.1936    0.5112 H   0  0  0  0  0  0  0  0  0  0  0  0
    4.2350    5.9111   -0.1956 H   0  0  0  0  0  0  0  0  0  0  0  0
    3.3405    6.6306   -2.3982 H   0  0  0  0  0  0  0  0  0  0  0  0
    2.4049    7.7991   -1.4448 H   0  0  0  0  0  0  0  0  0  0  0  0
    1.1113    5.7743   -1.9246 H   0  0  0  0  0  0  0  0  0  0  0  0
    1.3857    6.0325   -0.1212 H   0  0  0  0  0  0  0  0  0  0  0  0
    1.7004   -1.0702    0.0356 H   0  0  0  0  0  0  0  0  0  0  0  0
    4.0343    0.4823    0.3728 H   0  0  0  0  0  0  0  0  0  0  0  0
    3.7608    0.1824   -1.4142 H   0  0  0  0  0  0  0  0  0  0  0  0
    4.4546   -1.2669    1.8806 H   0  0  0  0  0  0  0  0  0  0  0  0
    5.3702   -3.5319    2.2590 H   0  0  0  0  0  0  0  0  0  0  0  0
    4.8909   -4.4983   -1.8150 H   0  0  0  0  0  0  0  0  0  0  0  0
    3.9560   -2.2031   -2.2365 H   0  0  0  0  0  0  0  0  0  0  0  0
   -2.3528    3.6003   -0.1453 H   0  0  0  0  0  0  0  0  0  0  0  0
   -3.6633    1.6456    0.3552 H   0  0  0  0  0  0  0  0  0  0  0  0
   -0.2452   -0.8276    0.2694 H   0  0  0  0  0  0  0  0  0  0  0  0
   -2.1543   -1.6918    1.2214 H   0  0  0  0  0  0  0  0  0  0  0  0
   -5.2200   -2.3725    0.2213 H   0  0  0  0  0  0  0  0  0  0  0  0
   -5.9046   -3.5017   -1.7908 H   0  0  0  0  0  0  0  0  0  0  0  0
   -2.2699   -2.4422   -3.6646 H   0  0  0  0  0  0  0  0  0  0  0  0
   -1.5344   -1.2883   -1.6877 H   0  0  0  0  0  0  0  0  0  0  0  0
   -2.8745   -1.2019    3.2754 H   0  0  0  0  0  0  0  0  0  0  0  0
   -4.6201   -0.6773    4.8675 H   0  0  0  0  0  0  0  0  0  0  0  0
   -7.1434    0.5557    1.6684 H   0  0  0  0  0  0  0  0  0  0  0  0
   -5.3493    0.0068    0.0842 H   0  0  0  0  0  0  0  0  0  0  0  0
  1  2  1  0
  2  3  1  0
  3  4  1  0
  4  5  1  0
  5  6  2  0
  6  7  1  0
  7  8  1  0
  8  9  1  0
  9 10  1  0
 10 11  2  0
 11 12  1  0
 12 13  2  0
 13 14  1  0
 14 15  2  0
 13 16  1  0
 16 17  1  0
 16 18  1  0
 16 19  1  0
  7 20  2  0
 20 21  1  0
 21 22  2  0
 21 23  1  0
 23 24  2  0
 24 25  1  0
 25 26  2  0
 25 27  1  0
 27 28  1  0
 28 29  2  0
 29 30  1  0
 30 31  2  0
 31 32  1  0
 32 33  2  0
 31 34  1  0
 27 35  1  0
 35 36  2  0
 36 37  1  0
 37 38  2  0
 38 39  1  0
 39 40  2  0
 38 41  1  0
 22  5  1  0
 33 28  1  0
 40 35  1  0
 15 10  1  0
 26 20  1  0
  1 42  1  0
  1 43  1  0
  2 44  1  0
  2 45  1  0
  3 46  1  0
  3 47  1  0
  8 48  1  0
  9 49  1  0
  9 50  1  0
 11 51  1  0
 12 52  1  0
 14 53  1  0
 15 54  1  0
 23 55  1  0
 24 56  1  0
 26 57  1  0
 27 58  1  0
 29 59  1  0
 30 60  1  0
 32 61  1  0
 33 62  1  0
 36 63  1  0
 37 64  1  0
 39 65  1  0
 40 66  1  0
M  END
>  <Ligand ID>  (1) 
LIG0005950

>  <Ligand>  (1) 
SCHEMBL17557548

>  <SMILES>  (1) 
NCCOc1nc(NCc2ccc(cc2)C(F)(F)F)c2c(n1)ccc(c2)C(c1ccc(cc1)Cl)c1ccc(cc1)Cl

>  <CID>  (1) 
118916034.0

>  <ChEMBL ID>  (1) 
nan

>  <InChiKey>  (1) 
JMFXJJLJHCBVMO-UHFFFAOYSA-N

>  <InChi>  (1) 
InChI=1S/C31H25Cl2F3N4O/c32-24-10-3-20(4-11-24)28(21-5-12-25(33)13-6-21)22-7-14-27-26(17-22)29(40-30(39-27)41-16-15-37)38-18-19-1-8-23(9-2-19)31(34,35)36/h1-14,17,28H,15-16,18,37H2,(H,38,39,40)

>  <IUPAC Name>  (1) 
2-(2-aminoethoxy)-6-[bis(4-chlorophenyl)methyl]-N-[[4-(trifluoromethyl)phenyl]methyl]quinazolin-4-amine

$$$$
