
     RDKit          3D

 30 31  0  0  0  0  0  0  0  0999 V2000
    3.6412   -1.3909   -0.0406 C   0  0  0  0  0  0  0  0  0  0  0  0
    3.0523   -0.0010   -0.1657 C   0  0  0  0  0  0  0  0  0  0  0  0
    1.7261   -0.0576    0.2912 O   0  0  0  0  0  0  0  0  0  0  0  0
    0.6753    0.3237   -0.5349 C   0  0  0  0  0  0  0  0  0  0  0  0
    0.7018    0.7698   -1.7851 N   0  0  0  0  0  0  0  0  0  0  0  0
   -0.4808    1.0353   -2.2587 O   0  0  0  0  0  0  0  0  0  0  0  0
   -1.3348    0.7753   -1.3413 C   0  0  0  0  0  0  0  0  0  0  0  0
   -0.6636    0.3020   -0.1722 C   0  0  0  0  0  0  0  0  0  0  0  0
   -1.2339   -0.1116    1.1272 C   0  0  0  0  0  0  0  0  0  0  0  0
   -2.2628   -1.0743    1.2704 N   0  0  0  0  0  0  0  0  0  0  0  0
   -3.6054   -0.6262    0.7822 C   0  0  0  0  0  0  0  0  0  0  0  0
   -3.4282    0.1681   -0.3621 C   0  0  0  0  0  0  0  0  0  0  0  0
   -2.8480    0.9262   -1.4233 C   0  0  0  0  0  0  0  0  0  0  0  0
    3.8179    0.9467    0.7349 C   0  0  0  0  0  0  0  0  0  0  0  0
    4.5605   -1.3768    0.5676 H   0  0  0  0  0  0  0  0  0  0  0  0
    2.9592   -2.1037    0.4709 H   0  0  0  0  0  0  0  0  0  0  0  0
    3.8976   -1.7594   -1.0489 H   0  0  0  0  0  0  0  0  0  0  0  0
    3.0602    0.3696   -1.2010 H   0  0  0  0  0  0  0  0  0  0  0  0
   -0.3693   -0.6130    1.6677 H   0  0  0  0  0  0  0  0  0  0  0  0
   -1.3783    0.7842    1.8092 H   0  0  0  0  0  0  0  0  0  0  0  0
   -1.9749   -1.9512    0.8132 H   0  0  0  0  0  0  0  0  0  0  0  0
   -4.1761   -0.1527    1.6410 H   0  0  0  0  0  0  0  0  0  0  0  0
   -4.2321   -1.5377    0.6452 H   0  0  0  0  0  0  0  0  0  0  0  0
   -2.8597    0.8634    0.3125 H   0  0  0  0  0  0  0  0  0  0  0  0
   -2.9416   -0.7230   -0.8401 H   0  0  0  0  0  0  0  0  0  0  0  0
   -3.1243    2.0254   -1.4558 H   0  0  0  0  0  0  0  0  0  0  0  0
   -3.2083    0.6423   -2.4605 H   0  0  0  0  0  0  0  0  0  0  0  0
    4.8738    1.0526    0.4028 H   0  0  0  0  0  0  0  0  0  0  0  0
    3.8261    0.5618    1.7696 H   0  0  0  0  0  0  0  0  0  0  0  0
    3.3298    1.9327    0.7845 H   0  0  0  0  0  0  0  0  0  0  0  0
  1  2  1  0
  2  3  1  0
  3  4  1  0
  4  5  2  0
  5  6  1  0
  6  7  1  0
  7  8  2  0
  8  9  1  0
  9 10  1  0
 10 11  1  0
 11 12  1  0
 12 13  1  0
  2 14  1  0
  8  4  1  0
 13  7  1  0
  1 15  1  0
  1 16  1  0
  1 17  1  0
  2 18  1  0
  9 19  1  0
  9 20  1  0
 10 21  1  0
 11 22  1  0
 11 23  1  0
 12 24  1  0
 12 25  1  0
 13 26  1  0
 13 27  1  0
 14 28  1  0
 14 29  1  0
 14 30  1  0
M  END
>  <Ligand ID>  (1) 
LIG0003503

>  <Ligand>  (1) 
CHEMBL305264

>  <SMILES>  (1) 
CC(Oc1noc2c1CNCCC2)C

>  <CID>  (1) 
10465280.0

>  <ChEMBL ID>  (1) 
nan

>  <InChiKey>  (1) 
XTTVTDWUFDGHOL-UHFFFAOYSA-N

>  <InChi>  (1) 
InChI=1S/C10H16N2O2/c1-7(2)13-10-8-6-11-5-3-4-9(8)14-12-10/h7,11H,3-6H2,1-2H3

>  <IUPAC Name>  (1) 
3-propan-2-yloxy-5,6,7,8-tetrahydro-4H-[1,2]oxazolo[4,5-c]azepine

$$$$
