
     RDKit          3D

 32 34  0  0  0  0  0  0  0  0999 V2000
   -2.8224    1.5616    0.7511 C   0  0  0  0  0  0  0  0  0  0  0  0
   -2.1635    1.1573   -0.5609 C   0  0  2  0  0  0  0  0  0  0  0  0
   -2.9166    0.0227   -1.2155 C   0  0  0  0  0  0  0  0  0  0  0  0
   -2.1241   -1.1390   -1.4480 N   0  0  0  0  0  0  0  0  0  0  0  0
   -1.3884   -1.6407   -0.3172 C   0  0  0  0  0  0  0  0  0  0  0  0
   -0.7081   -0.5553    0.4676 C   0  0  2  0  0  0  0  0  0  0  0  0
   -0.8230    0.7009   -0.2533 N   0  0  0  0  0  0  0  0  0  0  0  0
    0.4827    1.2320   -0.5103 C   0  0  0  0  0  0  0  0  0  0  0  0
    0.7473    2.3109   -1.1166 O   0  0  0  0  0  0  0  0  0  0  0  0
    1.4276    0.2839    0.0638 C   0  0  0  0  0  0  0  0  0  0  0  0
    0.7511   -0.7707    0.6417 C   0  0  0  0  0  0  0  0  0  0  0  0
    1.3992   -1.8119    1.2585 C   0  0  0  0  0  0  0  0  0  0  0  0
    2.7786   -1.8229    1.3132 C   0  0  0  0  0  0  0  0  0  0  0  0
    3.4862   -0.7961    0.7522 C   0  0  0  0  0  0  0  0  0  0  0  0
    2.8120    0.2531    0.1300 C   0  0  0  0  0  0  0  0  0  0  0  0
    3.5345    1.3916   -0.4942 C   0  0  0  0  0  0  0  0  0  0  0  0
    3.2076    1.4342   -1.8483 F   0  0  0  0  0  0  0  0  0  0  0  0
    3.2194    2.5839    0.1193 F   0  0  0  0  0  0  0  0  0  0  0  0
    4.9091    1.2078   -0.3971 F   0  0  0  0  0  0  0  0  0  0  0  0
   -3.5644    2.3742    0.5629 H   0  0  0  0  0  0  0  0  0  0  0  0
   -3.2541    0.6865    1.2743 H   0  0  0  0  0  0  0  0  0  0  0  0
   -2.0116    1.9493    1.4028 H   0  0  0  0  0  0  0  0  0  0  0  0
   -2.1188    2.0764   -1.1815 H   0  0  0  0  0  0  0  0  0  0  0  0
   -3.8739   -0.1416   -0.6930 H   0  0  0  0  0  0  0  0  0  0  0  0
   -3.1993    0.4021   -2.2380 H   0  0  0  0  0  0  0  0  0  0  0  0
   -2.7289   -1.8785   -1.8182 H   0  0  0  0  0  0  0  0  0  0  0  0
   -1.9909   -2.3093    0.3431 H   0  0  0  0  0  0  0  0  0  0  0  0
   -0.5775   -2.2854   -0.7204 H   0  0  0  0  0  0  0  0  0  0  0  0
   -1.2086   -0.4300    1.4494 H   0  0  0  0  0  0  0  0  0  0  0  0
    0.8681   -2.6388    1.7116 H   0  0  0  0  0  0  0  0  0  0  0  0
    3.2866   -2.6444    1.7997 H   0  0  0  0  0  0  0  0  0  0  0  0
    4.5640   -0.7636    0.7716 H   0  0  0  0  0  0  0  0  0  0  0  0
  1  2  1  0
  2  3  1  0
  3  4  1  0
  4  5  1  0
  5  6  1  0
  6  7  1  0
  7  8  1  0
  8  9  2  0
  8 10  1  0
 10 11  2  0
 11 12  1  0
 12 13  2  0
 13 14  1  0
 14 15  2  0
 15 16  1  0
 16 17  1  0
 16 18  1  0
 16 19  1  0
  7  2  1  0
 15 10  1  0
 11  6  1  0
  1 20  1  0
  1 21  1  0
  1 22  1  0
  2 23  1  6
  3 24  1  0
  3 25  1  0
  4 26  1  0
  5 27  1  0
  5 28  1  0
  6 29  1  1
 12 30  1  0
 13 31  1  0
 14 32  1  0
M  END
>  <Ligand ID>  (1) 
LIG0002177

>  <Ligand>  (1) 
CHEMBL223272

>  <SMILES>  (1) 
C[C@@H]1CNC[C@@H]2N1C(=O)c1c2cccc1C(F)(F)F

>  <CID>  (1) 
16115267.0

>  <ChEMBL ID>  (1) 
nan

>  <InChiKey>  (1) 
MNIPSARJNABKIZ-XCBNKYQSSA-N

>  <InChi>  (1) 
InChI=1S/C13H13F3N2O/c1-7-5-17-6-10-8-3-2-4-9(13(14,15)16)11(8)12(19)18(7)10/h2-4,7,10,17H,5-6H2,1H3/t7-,10+/m1/s1

>  <IUPAC Name>  (1) 
(4R,10bR)-4-methyl-7-(trifluoromethyl)-2,3,4,10b-tetrahydro-1H-pyrazino[1,2-b]isoindol-6-one

$$$$
