
     RDKit          3D

 63 63  0  0  0  0  0  0  0  0999 V2000
   -4.4240    2.5986    0.9549 C   0  0  0  0  0  0  0  0  0  0  0  0
   -5.6058    2.1910    0.1182 C   0  0  0  0  0  0  0  0  0  0  0  0
   -6.2458    0.9251    0.5397 C   0  0  0  0  0  0  0  0  0  0  0  0
   -5.4763   -0.3361    0.5553 C   0  0  0  0  0  0  0  0  0  0  0  0
   -4.8955   -0.8729   -0.6788 C   0  0  0  0  0  0  0  0  0  0  0  0
   -3.8136   -0.1645   -1.3931 C   0  0  1  0  0  0  0  0  0  0  0  0
   -2.6089   -0.0660   -0.4833 C   0  0  0  0  0  0  0  0  0  0  0  0
   -1.4877   -0.7228   -0.7767 C   0  0  0  0  0  0  0  0  0  0  0  0
   -0.2618   -0.6488    0.1086 C   0  0  2  0  0  0  0  0  0  0  0  0
    0.8898   -0.2552   -0.7688 C   0  0  1  0  0  0  0  0  0  0  0  0
    1.8845    0.6816   -0.1231 C   0  0  0  0  0  0  0  0  0  0  0  0
    2.9081    0.9478   -1.1655 C   0  0  0  0  0  0  0  0  0  0  0  0
    4.1972    0.6816   -1.0728 C   0  0  0  0  0  0  0  0  0  0  0  0
    4.9011    0.0796    0.0459 C   0  0  0  0  0  0  0  0  0  0  0  0
    5.9667    0.9575    0.6037 C   0  0  0  0  0  0  0  0  0  0  0  0
    5.6014    2.2597    1.1883 C   0  0  0  0  0  0  0  0  0  0  0  0
    5.0348    3.3062    0.3542 C   0  0  0  0  0  0  0  0  0  0  0  0
    4.9015    3.3454   -0.8810 O   0  0  0  0  0  0  0  0  0  0  0  0
    4.5597    4.4599    1.0369 O   0  0  0  0  0  0  0  0  0  0  0  0
    1.6271   -1.5159   -1.0687 C   0  0  0  0  0  0  0  0  0  0  0  0
    2.3837   -1.7303   -2.0004 O   0  0  0  0  0  0  0  0  0  0  0  0
    1.3001   -2.5125   -0.0366 C   0  0  0  0  0  0  0  0  0  0  0  0
    0.0257   -2.0436    0.5640 C   0  0  1  0  0  0  0  0  0  0  0  0
    0.0232   -2.1495    1.9635 O   0  0  0  0  0  0  0  0  0  0  0  0
    1.0837   -3.8951   -0.6278 C   0  0  0  0  0  0  0  0  0  0  0  0
    2.3502   -2.5501    1.0585 C   0  0  0  0  0  0  0  0  0  0  0  0
   -3.3999   -1.0620   -2.4320 O   0  0  0  0  0  0  0  0  0  0  0  0
   -3.5270    2.7066    0.2962 H   0  0  0  0  0  0  0  0  0  0  0  0
   -4.6173    3.6232    1.3632 H   0  0  0  0  0  0  0  0  0  0  0  0
   -4.2767    1.9493    1.8244 H   0  0  0  0  0  0  0  0  0  0  0  0
   -5.3911    2.3109   -0.9532 H   0  0  0  0  0  0  0  0  0  0  0  0
   -6.4273    2.9984    0.2734 H   0  0  0  0  0  0  0  0  0  0  0  0
   -6.6504    1.1064    1.5939 H   0  0  0  0  0  0  0  0  0  0  0  0
   -7.1692    0.7556   -0.0980 H   0  0  0  0  0  0  0  0  0  0  0  0
   -6.1181   -1.1679    1.0220 H   0  0  0  0  0  0  0  0  0  0  0  0
   -4.6248   -0.2971    1.3149 H   0  0  0  0  0  0  0  0  0  0  0  0
   -4.5534   -1.9321   -0.4704 H   0  0  0  0  0  0  0  0  0  0  0  0
   -5.7784   -1.0682   -1.3839 H   0  0  0  0  0  0  0  0  0  0  0  0
   -4.0456    0.7655   -1.8994 H   0  0  0  0  0  0  0  0  0  0  0  0
   -2.5985    0.5148    0.4199 H   0  0  0  0  0  0  0  0  0  0  0  0
   -1.3918   -1.3428   -1.6608 H   0  0  0  0  0  0  0  0  0  0  0  0
   -0.4674    0.0616    0.9376 H   0  0  0  0  0  0  0  0  0  0  0  0
    0.5156    0.2467   -1.6912 H   0  0  0  0  0  0  0  0  0  0  0  0
    1.3806    1.6711    0.0721 H   0  0  0  0  0  0  0  0  0  0  0  0
    2.2694    0.3139    0.8271 H   0  0  0  0  0  0  0  0  0  0  0  0
    2.5357    1.4078   -2.0861 H   0  0  0  0  0  0  0  0  0  0  0  0
    4.7971    0.9333   -1.9679 H   0  0  0  0  0  0  0  0  0  0  0  0
    5.4261   -0.8827   -0.2605 H   0  0  0  0  0  0  0  0  0  0  0  0
    4.2276   -0.1847    0.9028 H   0  0  0  0  0  0  0  0  0  0  0  0
    6.7026    1.1928   -0.2490 H   0  0  0  0  0  0  0  0  0  0  0  0
    6.6508    0.3769    1.3011 H   0  0  0  0  0  0  0  0  0  0  0  0
    4.9339    2.0316    2.0828 H   0  0  0  0  0  0  0  0  0  0  0  0
    6.5183    2.7091    1.7042 H   0  0  0  0  0  0  0  0  0  0  0  0
    4.4966    5.3398    0.5417 H   0  0  0  0  0  0  0  0  0  0  0  0
   -0.7978   -2.7393    0.2151 H   0  0  0  0  0  0  0  0  0  0  0  0
   -0.1631   -3.1150    2.1913 H   0  0  0  0  0  0  0  0  0  0  0  0
    1.4439   -4.6273    0.1136 H   0  0  0  0  0  0  0  0  0  0  0  0
   -0.0117   -4.0475   -0.8558 H   0  0  0  0  0  0  0  0  0  0  0  0
    1.5922   -3.9244   -1.6041 H   0  0  0  0  0  0  0  0  0  0  0  0
    2.0945   -1.8795    1.8822 H   0  0  0  0  0  0  0  0  0  0  0  0
    3.3561   -2.3936    0.6185 H   0  0  0  0  0  0  0  0  0  0  0  0
    2.3471   -3.5856    1.4954 H   0  0  0  0  0  0  0  0  0  0  0  0
   -4.0979   -1.7366   -2.6178 H   0  0  0  0  0  0  0  0  0  0  0  0
  1  2  1  0
  2  3  1  0
  3  4  1  0
  4  5  1  0
  5  6  1  0
  6  7  1  0
  7  8  2  0
  8  9  1  0
  9 10  1  0
 10 11  1  0
 11 12  1  0
 12 13  2  0
 13 14  1  0
 14 15  1  0
 15 16  1  0
 16 17  1  0
 17 18  2  0
 17 19  1  0
 10 20  1  0
 20 21  2  0
 20 22  1  0
 22 23  1  0
 23 24  1  0
 22 25  1  0
 22 26  1  0
  6 27  1  0
 23  9  1  0
  1 28  1  0
  1 29  1  0
  1 30  1  0
  2 31  1  0
  2 32  1  0
  3 33  1  0
  3 34  1  0
  4 35  1  0
  4 36  1  0
  5 37  1  0
  5 38  1  0
  6 39  1  6
  7 40  1  0
  8 41  1  0
  9 42  1  1
 10 43  1  6
 11 44  1  0
 11 45  1  0
 12 46  1  0
 13 47  1  0
 14 48  1  0
 14 49  1  0
 15 50  1  0
 15 51  1  0
 16 52  1  0
 16 53  1  0
 19 54  1  0
 23 55  1  6
 24 56  1  0
 25 57  1  0
 25 58  1  0
 25 59  1  0
 26 60  1  0
 26 61  1  0
 26 62  1  0
 27 63  1  0
M  END
>  <Ligand ID>  (1) 
LIG0004190

>  <Ligand>  (1) 
SCHEMBL2191445

>  <SMILES>  (1) 
CCCCC[C@@H](/C=C/[C@@H]1[C@@H](C/C=C\CCCC(=O)O)C(=O)C([C@H]1O)(C)C)O

>  <CID>  (1) 
10339756.0

>  <ChEMBL ID>  (1) 
nan

>  <InChiKey>  (1) 
HMHNXLVVOUOPHR-AOBFYLGBSA-N

>  <InChi>  (1) 
InChI=1S/C22H36O5/c1-4-5-8-11-16(23)14-15-18-17(20(26)22(2,3)21(18)27)12-9-6-7-10-13-19(24)25/h6,9,14-18,21,23,27H,4-5,7-8,10-13H2,1-3H3,(H,24,25)/b9-6-,15-14+/t16-,17+,18+,21-/m0/s1

>  <IUPAC Name>  (1) 
(Z)-7-[(1R,4S,5R)-4-hydroxy-5-[(E,3S)-3-hydroxyoct-1-enyl]-3,3-dimethyl-2-oxocyclopentyl]hept-5-enoic acid

$$$$
