
     RDKit          3D

 34 36  0  0  0  0  0  0  0  0999 V2000
    4.9989    1.9619    0.6250 C   0  0  0  0  0  0  0  0  0  0  0  0
    4.2207    0.7183    0.4424 C   0  0  0  0  0  0  0  0  0  0  0  0
    4.6569   -0.5386    0.6364 N   0  0  0  0  0  0  0  0  0  0  0  0
    3.6934   -1.3345    0.3755 O   0  0  0  0  0  0  0  0  0  0  0  0
    2.5997   -0.6662    0.0056 C   0  0  0  0  0  0  0  0  0  0  0  0
    2.9483    0.6026    0.0540 N   0  0  0  0  0  0  0  0  0  0  0  0
    1.3731   -1.3639   -0.3413 C   0  0  0  0  0  0  0  0  0  0  0  0
    1.3183   -2.7455   -0.2918 C   0  0  0  0  0  0  0  0  0  0  0  0
    0.2021   -3.4831   -0.6013 C   0  0  0  0  0  0  0  0  0  0  0  0
   -0.9474   -2.8336   -0.9879 C   0  0  0  0  0  0  0  0  0  0  0  0
   -0.9079   -1.4576   -1.0420 C   0  0  0  0  0  0  0  0  0  0  0  0
    0.2204   -0.7162   -0.7287 C   0  0  0  0  0  0  0  0  0  0  0  0
    0.1636    0.6981   -0.8283 N   0  0  0  0  0  0  0  0  0  0  0  0
   -1.0875    1.3429   -1.2303 C   0  0  0  0  0  0  0  0  0  0  0  0
   -2.1651    1.1526   -0.2246 C   0  0  0  0  0  0  0  0  0  0  0  0
   -2.1213    0.5588    0.9263 N   0  0  0  0  0  0  0  0  0  0  0  0
   -3.3841    0.5912    1.5988 C   0  0  0  0  0  0  0  0  0  0  0  0
   -4.3365    1.1986    0.6164 C   0  0  0  0  0  0  0  0  0  0  0  0
   -3.4944    1.6654   -0.4480 N   0  0  0  0  0  0  0  0  0  0  0  0
    5.6328    2.0954   -0.2836 H   0  0  0  0  0  0  0  0  0  0  0  0
    5.7057    1.7989    1.4665 H   0  0  0  0  0  0  0  0  0  0  0  0
    4.3914    2.8420    0.8544 H   0  0  0  0  0  0  0  0  0  0  0  0
    2.2009   -3.3340    0.0092 H   0  0  0  0  0  0  0  0  0  0  0  0
    0.1998   -4.5510   -0.5505 H   0  0  0  0  0  0  0  0  0  0  0  0
   -1.8298   -3.4095   -1.2328 H   0  0  0  0  0  0  0  0  0  0  0  0
   -1.8447   -0.9817   -1.3629 H   0  0  0  0  0  0  0  0  0  0  0  0
    0.9452    1.3460   -0.6394 H   0  0  0  0  0  0  0  0  0  0  0  0
   -0.9587    2.3932   -1.4926 H   0  0  0  0  0  0  0  0  0  0  0  0
   -1.4820    0.8560   -2.1707 H   0  0  0  0  0  0  0  0  0  0  0  0
   -3.7421   -0.4111    1.9132 H   0  0  0  0  0  0  0  0  0  0  0  0
   -3.3656    1.2388    2.5195 H   0  0  0  0  0  0  0  0  0  0  0  0
   -4.9349    2.0103    1.0733 H   0  0  0  0  0  0  0  0  0  0  0  0
   -5.0577    0.4768    0.1734 H   0  0  0  0  0  0  0  0  0  0  0  0
   -3.8115    2.2787   -1.2494 H   0  0  0  0  0  0  0  0  0  0  0  0
  1  2  1  0
  2  3  2  0
  3  4  1  0
  4  5  1  0
  5  6  2  0
  5  7  1  0
  7  8  2  0
  8  9  1  0
  9 10  2  0
 10 11  1  0
 11 12  2  0
 12 13  1  0
 13 14  1  0
 14 15  1  0
 15 16  2  0
 16 17  1  0
 17 18  1  0
 18 19  1  0
  6  2  1  0
 12  7  1  0
 19 15  1  0
  1 20  1  0
  1 21  1  0
  1 22  1  0
  8 23  1  0
  9 24  1  0
 10 25  1  0
 11 26  1  0
 13 27  1  0
 14 28  1  0
 14 29  1  0
 17 30  1  0
 17 31  1  0
 18 32  1  0
 18 33  1  0
 19 34  1  0
M  END
>  <Ligand ID>  (1) 
LIG0003987

>  <Ligand>  (1) 
CHEMBL347920

>  <SMILES>  (1) 
Cc1noc(n1)c1ccccc1NCC1=NCCN1

>  <CID>  (1) 
22493325.0

>  <ChEMBL ID>  (1) 
nan

>  <InChiKey>  (1) 
GETLEMAHEPUIBB-UHFFFAOYSA-N

>  <InChi>  (1) 
InChI=1S/C13H15N5O/c1-9-17-13(19-18-9)10-4-2-3-5-11(10)16-8-12-14-6-7-15-12/h2-5,16H,6-8H2,1H3,(H,14,15)

>  <IUPAC Name>  (1) 
N-(4,5-dihydro-1H-imidazol-2-ylmethyl)-2-(3-methyl-1,2,4-oxadiazol-5-yl)aniline

$$$$
