
     RDKit          3D

 59 61  0  0  0  0  0  0  0  0999 V2000
   10.4273   -1.1453    1.0979 Cl  0  0  0  0  0  0  0  0  0  0  0  0
    9.0429   -0.1775    0.6514 C   0  0  0  0  0  0  0  0  0  0  0  0
    9.1502    1.1855    0.7984 C   0  0  0  0  0  0  0  0  0  0  0  0
    8.0796    2.0202    0.4535 C   0  0  0  0  0  0  0  0  0  0  0  0
    6.9350    1.4142   -0.0298 C   0  0  0  0  0  0  0  0  0  0  0  0
    6.8286    0.0392   -0.1772 C   0  0  0  0  0  0  0  0  0  0  0  0
    7.8987   -0.7636    0.1693 C   0  0  0  0  0  0  0  0  0  0  0  0
    5.5569   -0.5240   -0.7112 C   0  0  0  0  0  0  0  0  0  0  0  0
    4.6299   -0.8481    0.4273 C   0  0  0  0  0  0  0  0  0  0  0  0
    3.3762   -1.4252   -0.0478 N   0  0  0  0  0  0  0  0  0  0  0  0
    2.5990   -0.4950   -0.7843 C   0  0  0  0  0  0  0  0  0  0  0  0
    2.0188    0.6558   -0.0519 C   0  0  0  0  0  0  0  0  0  0  0  0
    0.8817    0.4242    1.2423 S   0  0  0  0  0  0  0  0  0  0  0  0
    0.0016   -1.0467    1.5301 C   0  0  0  0  0  0  0  0  0  0  0  0
   -0.7669   -1.4975    0.3201 C   0  0  0  0  0  0  0  0  0  0  0  0
   -1.5579   -0.4033   -0.2710 C   0  0  0  0  0  0  0  0  0  0  0  0
   -2.5083    0.1757    0.6158 N   0  0  0  0  0  0  0  0  0  0  0  0
   -3.0631    1.3781    0.0348 C   0  0  0  0  0  0  0  0  0  0  0  0
   -3.9431    1.2023   -1.1417 C   0  0  1  0  0  0  0  0  0  0  0  0
   -5.3649    0.8237   -0.7862 C   0  0  0  0  0  0  0  0  0  0  0  0
   -6.4126    1.7110   -1.0908 C   0  0  0  0  0  0  0  0  0  0  0  0
   -7.6998    1.3573   -0.7826 C   0  0  0  0  0  0  0  0  0  0  0  0
   -7.9892    0.1623   -0.1855 C   0  0  0  0  0  0  0  0  0  0  0  0
   -6.9686   -0.7671    0.1408 C   0  0  0  0  0  0  0  0  0  0  0  0
   -5.7070   -0.3502   -0.1942 C   0  0  0  0  0  0  0  0  0  0  0  0
   -4.6426   -1.6837    0.3185 S   0  0  0  0  0  0  0  0  0  0  0  0
   -6.0784   -2.7025    0.9595 C   0  0  0  0  0  0  0  0  0  0  0  0
   -5.9107   -3.8246    1.4739 O   0  0  0  0  0  0  0  0  0  0  0  0
   -7.1252   -1.9306    0.7084 N   0  0  0  0  0  0  0  0  0  0  0  0
   -9.3251   -0.0995    0.0839 O   0  0  0  0  0  0  0  0  0  0  0  0
   -4.1344    2.5626   -1.6209 O   0  0  0  0  0  0  0  0  0  0  0  0
   10.0618    1.6702    1.1894 H   0  0  0  0  0  0  0  0  0  0  0  0
    8.1683    3.1110    0.5673 H   0  0  0  0  0  0  0  0  0  0  0  0
    6.1221    2.0666   -0.2903 H   0  0  0  0  0  0  0  0  0  0  0  0
    7.7891   -1.8508    0.0488 H   0  0  0  0  0  0  0  0  0  0  0  0
    5.1161    0.1926   -1.4462 H   0  0  0  0  0  0  0  0  0  0  0  0
    5.7996   -1.4279   -1.3046 H   0  0  0  0  0  0  0  0  0  0  0  0
    4.4257    0.0033    1.0739 H   0  0  0  0  0  0  0  0  0  0  0  0
    5.0863   -1.6446    1.0486 H   0  0  0  0  0  0  0  0  0  0  0  0
    3.5320   -2.3337   -0.5429 H   0  0  0  0  0  0  0  0  0  0  0  0
    3.1452   -0.0455   -1.6769 H   0  0  0  0  0  0  0  0  0  0  0  0
    1.7634   -1.0408   -1.2738 H   0  0  0  0  0  0  0  0  0  0  0  0
    2.8688    1.3831    0.2667 H   0  0  0  0  0  0  0  0  0  0  0  0
    1.5204    1.3037   -0.8539 H   0  0  0  0  0  0  0  0  0  0  0  0
   -0.7872   -0.8679    2.3251 H   0  0  0  0  0  0  0  0  0  0  0  0
    0.5844   -1.8974    1.9640 H   0  0  0  0  0  0  0  0  0  0  0  0
   -0.1609   -2.0709   -0.4177 H   0  0  0  0  0  0  0  0  0  0  0  0
   -1.4911   -2.2838    0.7115 H   0  0  0  0  0  0  0  0  0  0  0  0
   -2.0344   -0.8217   -1.1944 H   0  0  0  0  0  0  0  0  0  0  0  0
   -0.8703    0.3921   -0.6560 H   0  0  0  0  0  0  0  0  0  0  0  0
   -2.3441    0.1662    1.6071 H   0  0  0  0  0  0  0  0  0  0  0  0
   -2.1746    2.0288   -0.1996 H   0  0  0  0  0  0  0  0  0  0  0  0
   -3.6174    1.9001    0.8371 H   0  0  0  0  0  0  0  0  0  0  0  0
   -3.6340    0.5901   -1.9602 H   0  0  0  0  0  0  0  0  0  0  0  0
   -6.2479    2.6621   -1.5616 H   0  0  0  0  0  0  0  0  0  0  0  0
   -8.4790    2.0422   -1.0182 H   0  0  0  0  0  0  0  0  0  0  0  0
   -8.0985   -2.3144    1.0061 H   0  0  0  0  0  0  0  0  0  0  0  0
   -9.8607    0.6434    0.5624 H   0  0  0  0  0  0  0  0  0  0  0  0
   -4.4114    3.0165   -0.7619 H   0  0  0  0  0  0  0  0  0  0  0  0
  1  2  1  0
  2  3  2  0
  3  4  1  0
  4  5  2  0
  5  6  1  0
  6  7  2  0
  6  8  1  0
  8  9  1  0
  9 10  1  0
 10 11  1  0
 11 12  1  0
 12 13  1  0
 13 14  1  0
 14 15  1  0
 15 16  1  0
 16 17  1  0
 17 18  1  0
 18 19  1  0
 19 20  1  0
 20 21  2  0
 21 22  1  0
 22 23  2  0
 23 24  1  0
 24 25  2  0
 25 26  1  0
 26 27  1  0
 27 28  2  0
 27 29  1  0
 23 30  1  0
 19 31  1  0
  7  2  1  0
 25 20  1  0
 29 24  1  0
  3 32  1  0
  4 33  1  0
  5 34  1  0
  7 35  1  0
  8 36  1  0
  8 37  1  0
  9 38  1  0
  9 39  1  0
 10 40  1  0
 11 41  1  0
 11 42  1  0
 12 43  1  0
 12 44  1  0
 14 45  1  0
 14 46  1  0
 15 47  1  0
 15 48  1  0
 16 49  1  0
 16 50  1  0
 17 51  1  0
 18 52  1  0
 18 53  1  0
 19 54  1  6
 21 55  1  0
 22 56  1  0
 29 57  1  0
 30 58  1  0
 31 59  1  0
M  END
>  <Ligand ID>  (1) 
LIG0005845

>  <Ligand>  (1) 
CHEMBL1807869

>  <SMILES>  (1) 
Clc1cccc(c1)CCNCCSCCCNC[C@@H](c1ccc(c2c1sc(=O)[nH]2)O)O

>  <CID>  (1) 
16049374.0

>  <ChEMBL ID>  (1) 
nan

>  <InChiKey>  (1) 
JNRWMDWBIFENSQ-IBGZPJMESA-N

>  <InChi>  (1) 
InChI=1S/C22H28ClN3O3S2/c23-16-4-1-3-15(13-16)7-9-24-10-12-30-11-2-8-25-14-19(28)17-5-6-18(27)20-21(17)31-22(29)26-20/h1,3-6,13,19,24-25,27-28H,2,7-12,14H2,(H,26,29)/t19-/m0/s1

>  <IUPAC Name>  (1) 
7-[(1R)-2-[3-[2-[2-(3-chlorophenyl)ethylamino]ethylsulfanyl]propylamino]-1-hydroxyethyl]-4-hydroxy-3H-1,3-benzothiazol-2-one

$$$$
