
     RDKit          3D

 62 63  0  0  0  0  0  0  0  0999 V2000
   -9.0252    0.7736    2.7356 C   0  0  0  0  0  0  0  0  0  0  0  0
   -9.1589    0.9020    1.2476 C   0  0  0  0  0  0  0  0  0  0  0  0
   -7.9005    0.3162    0.6128 C   0  0  0  0  0  0  0  0  0  0  0  0
   -6.7477    1.1190    1.1372 C   0  0  0  0  0  0  0  0  0  0  0  0
   -5.4013    0.6618    0.5980 C   0  0  0  0  0  0  0  0  0  0  0  0
   -5.3156    0.7535   -0.8795 C   0  0  0  0  0  0  0  0  0  0  0  0
   -3.9508    0.2956   -1.3460 C   0  0  0  0  0  0  0  0  0  0  0  0
   -3.6169   -1.1173   -1.0046 C   0  0  0  0  0  0  0  0  0  0  0  0
   -2.3835   -1.5944   -1.4118 O   0  0  0  0  0  0  0  0  0  0  0  0
   -1.1362   -1.2180   -1.0604 C   0  0  0  0  0  0  0  0  0  0  0  0
   -0.7600   -0.2520   -0.1649 C   0  0  0  0  0  0  0  0  0  0  0  0
    0.5589    0.0551    0.1257 C   0  0  0  0  0  0  0  0  0  0  0  0
    1.5633   -0.6373   -0.5089 C   0  0  0  0  0  0  0  0  0  0  0  0
    1.2397   -1.6129   -1.4119 C   0  0  0  0  0  0  0  0  0  0  0  0
   -0.0758   -1.9016   -1.6859 C   0  0  0  0  0  0  0  0  0  0  0  0
   -0.3888   -2.9835   -2.6873 C   0  0  0  0  0  0  0  0  0  0  0  0
   -1.1065   -2.4640   -3.7230 F   0  0  0  0  0  0  0  0  0  0  0  0
    0.7601   -3.6247   -3.0386 F   0  0  0  0  0  0  0  0  0  0  0  0
   -1.1484   -3.9197   -1.9729 F   0  0  0  0  0  0  0  0  0  0  0  0
    2.9734   -0.2956   -0.1862 C   0  0  0  0  0  0  0  0  0  0  0  0
    3.6039    0.4462    0.5023 N   0  0  0  0  0  0  0  0  0  0  0  0
    4.8912    0.5036    0.5616 N   0  0  0  0  0  0  0  0  0  0  0  0
    5.6138   -0.2428   -0.1245 C   0  0  0  0  0  0  0  0  0  0  0  0
    4.3535   -1.2231   -1.0364 S   0  0  0  0  0  0  0  0  0  0  0  0
    7.0669   -0.4975   -0.3527 C   0  0  2  0  0  0  0  0  0  0  0  0
    7.7889    0.4579    0.5338 C   0  0  0  0  0  0  0  0  0  0  0  0
    7.5111    1.7764    0.1946 O   0  0  0  0  0  0  0  0  0  0  0  0
    8.3307    2.8635    1.2018 P   0  0  0  0  0  0  0  0  0  0  0  0
    7.7029    4.2341    1.0997 O   0  0  0  0  0  0  0  0  0  0  0  0
    9.9422    2.9519    0.7450 O   0  0  0  0  0  0  0  0  0  0  0  0
    8.1834    2.2856    2.7852 O   0  0  0  0  0  0  0  0  0  0  0  0
    7.4200   -0.3453   -1.7534 N   0  0  0  0  0  0  0  0  0  0  0  0
    7.4515   -1.9124    0.0270 C   0  0  0  0  0  0  0  0  0  0  0  0
   -9.9745    0.4702    3.2032 H   0  0  0  0  0  0  0  0  0  0  0  0
   -8.6449    1.7271    3.1587 H   0  0  0  0  0  0  0  0  0  0  0  0
   -8.2839   -0.0232    3.0143 H   0  0  0  0  0  0  0  0  0  0  0  0
   -9.1482    1.9828    0.9370 H   0  0  0  0  0  0  0  0  0  0  0  0
  -10.0860    0.4595    0.8376 H   0  0  0  0  0  0  0  0  0  0  0  0
   -7.8500   -0.7579    0.8150 H   0  0  0  0  0  0  0  0  0  0  0  0
   -7.9433    0.4367   -0.4963 H   0  0  0  0  0  0  0  0  0  0  0  0
   -6.9325    2.1709    0.8813 H   0  0  0  0  0  0  0  0  0  0  0  0
   -6.6939    1.0238    2.2406 H   0  0  0  0  0  0  0  0  0  0  0  0
   -4.6607    1.3980    1.0124 H   0  0  0  0  0  0  0  0  0  0  0  0
   -5.1690   -0.2953    1.0586 H   0  0  0  0  0  0  0  0  0  0  0  0
   -5.3995    1.8236   -1.1641 H   0  0  0  0  0  0  0  0  0  0  0  0
   -6.0612    0.1333   -1.4158 H   0  0  0  0  0  0  0  0  0  0  0  0
   -3.2301    0.9811   -0.8958 H   0  0  0  0  0  0  0  0  0  0  0  0
   -3.8717    0.4769   -2.4563 H   0  0  0  0  0  0  0  0  0  0  0  0
   -3.8411   -1.3646    0.0629 H   0  0  0  0  0  0  0  0  0  0  0  0
   -4.3861   -1.7464   -1.5625 H   0  0  0  0  0  0  0  0  0  0  0  0
   -1.5000    0.3116    0.3793 H   0  0  0  0  0  0  0  0  0  0  0  0
    0.8520    0.8152    0.8294 H   0  0  0  0  0  0  0  0  0  0  0  0
    2.0354   -2.1521   -1.9054 H   0  0  0  0  0  0  0  0  0  0  0  0
    7.3985    0.3185    1.5607 H   0  0  0  0  0  0  0  0  0  0  0  0
    8.8755    0.2298    0.4584 H   0  0  0  0  0  0  0  0  0  0  0  0
   10.2212    2.0110    0.5386 H   0  0  0  0  0  0  0  0  0  0  0  0
    8.8405    2.7163    3.4130 H   0  0  0  0  0  0  0  0  0  0  0  0
    6.8335    0.4182   -2.1722 H   0  0  0  0  0  0  0  0  0  0  0  0
    7.2120   -1.2155   -2.2935 H   0  0  0  0  0  0  0  0  0  0  0  0
    8.2085   -2.3320   -0.6768 H   0  0  0  0  0  0  0  0  0  0  0  0
    7.7904   -1.9901    1.0698 H   0  0  0  0  0  0  0  0  0  0  0  0
    6.5696   -2.5816   -0.0643 H   0  0  0  0  0  0  0  0  0  0  0  0
  1  2  1  0
  2  3  1  0
  3  4  1  0
  4  5  1  0
  5  6  1  0
  6  7  1  0
  7  8  1  0
  8  9  1  0
  9 10  1  0
 10 11  2  0
 11 12  1  0
 12 13  2  0
 13 14  1  0
 14 15  2  0
 15 16  1  0
 16 17  1  0
 16 18  1  0
 16 19  1  0
 13 20  1  0
 20 21  2  0
 21 22  1  0
 22 23  2  0
 23 24  1  0
 23 25  1  0
 25 26  1  0
 26 27  1  0
 27 28  1  0
 28 29  2  0
 28 30  1  0
 28 31  1  0
 25 32  1  6
 25 33  1  0
 15 10  1  0
 24 20  1  0
  1 34  1  0
  1 35  1  0
  1 36  1  0
  2 37  1  0
  2 38  1  0
  3 39  1  0
  3 40  1  0
  4 41  1  0
  4 42  1  0
  5 43  1  0
  5 44  1  0
  6 45  1  0
  6 46  1  0
  7 47  1  0
  7 48  1  0
  8 49  1  0
  8 50  1  0
 11 51  1  0
 12 52  1  0
 14 53  1  0
 26 54  1  0
 26 55  1  0
 30 56  1  0
 31 57  1  0
 32 58  1  0
 32 59  1  0
 33 60  1  0
 33 61  1  0
 33 62  1  0
M  END
>  <Ligand ID>  (1) 
LIG0004293

>  <Ligand>  (1) 
SCHEMBL2953362

>  <SMILES>  (1) 
CCCCCCCCOc1ccc(cc1C(F)(F)F)c1nnc(s1)[C@](COP(=O)(O)O)(N)C

>  <CID>  (1) 
59384310.0

>  <ChEMBL ID>  (1) 
nan

>  <InChiKey>  (1) 
HUMSNEXMXSTWBK-IBGZPJMESA-N

>  <InChi>  (1) 
InChI=1S/C20H29F3N3O5PS/c1-3-4-5-6-7-8-11-30-16-10-9-14(12-15(16)20(21,22)23)17-25-26-18(33-17)19(2,24)13-31-32(27,28)29/h9-10,12H,3-8,11,13,24H2,1-2H3,(H2,27,28,29)/t19-/m0/s1

>  <IUPAC Name>  (1) 
[(2S)-2-amino-2-[5-[4-octoxy-3-(trifluoromethyl)phenyl]-1,3,4-thiadiazol-2-yl]propyl] dihydrogen phosphate

$$$$
