
     RDKit          3D

 51 52  0  0  0  0  0  0  0  0999 V2000
    1.8440    2.5389   -1.6502 N   0  0  0  0  0  0  0  0  0  0  0  0
    1.0542    1.3438   -1.2788 C   0  0  0  0  0  0  0  0  0  0  0  0
   -0.1377    1.9037   -0.5894 C   0  0  0  0  0  0  0  0  0  0  0  0
   -0.1655    3.1499   -0.4263 O   0  0  0  0  0  0  0  0  0  0  0  0
   -1.2202    1.1485   -0.1147 N   0  0  0  0  0  0  0  0  0  0  0  0
   -2.3470    1.7722    0.5498 C   0  0  2  0  0  0  0  0  0  0  0  0
   -2.5720    1.2384    1.8977 C   0  0  0  0  0  0  0  0  0  0  0  0
   -1.8492    0.3235    2.4200 O   0  0  0  0  0  0  0  0  0  0  0  0
   -3.6504    1.7693    2.6579 N   0  0  0  0  0  0  0  0  0  0  0  0
   -3.5768    1.6104   -0.3402 C   0  0  0  0  0  0  0  0  0  0  0  0
   -3.8771    0.1787   -0.5751 C   0  0  0  0  0  0  0  0  0  0  0  0
   -3.3138   -0.4919   -1.6641 C   0  0  0  0  0  0  0  0  0  0  0  0
   -3.5931   -1.8139   -1.8785 C   0  0  0  0  0  0  0  0  0  0  0  0
   -4.4259   -2.4965   -1.0317 C   0  0  0  0  0  0  0  0  0  0  0  0
   -4.9946   -1.8350    0.0606 C   0  0  0  0  0  0  0  0  0  0  0  0
   -4.7236   -0.5082    0.2888 C   0  0  0  0  0  0  0  0  0  0  0  0
    1.9665    0.5665   -0.3540 C   0  0  0  0  0  0  0  0  0  0  0  0
    3.2105    0.2482   -1.1709 C   0  0  0  0  0  0  0  0  0  0  0  0
    4.2642   -0.1629   -0.1885 C   0  0  0  0  0  0  0  0  0  0  0  0
    3.7382   -1.2573    0.6057 N   0  0  0  0  0  0  0  0  0  0  0  0
    2.3896   -1.7408    0.5241 C   0  0  0  0  0  0  0  0  0  0  0  0
    1.3641   -0.6954    0.1809 C   0  0  0  0  0  0  0  0  0  0  0  0
    4.6397   -1.8924    1.5336 C   0  0  0  0  0  0  0  0  0  0  0  0
    4.2393   -2.8551    2.2946 N   0  0  0  0  0  0  0  0  0  0  0  0
    6.0030   -1.4852    1.6478 N   0  0  0  0  0  0  0  0  0  0  0  0
    1.1402    3.1610   -2.1080 H   0  0  0  0  0  0  0  0  0  0  0  0
    2.0581    3.0047   -0.7331 H   0  0  0  0  0  0  0  0  0  0  0  0
    0.8011    0.7397   -2.1586 H   0  0  0  0  0  0  0  0  0  0  0  0
   -1.2307    0.1161   -0.2374 H   0  0  0  0  0  0  0  0  0  0  0  0
   -2.1943    2.8810    0.6062 H   0  0  0  0  0  0  0  0  0  0  0  0
   -4.3501    1.1376    3.1438 H   0  0  0  0  0  0  0  0  0  0  0  0
   -3.7310    2.8127    2.7223 H   0  0  0  0  0  0  0  0  0  0  0  0
   -3.4066    2.1650   -1.2824 H   0  0  0  0  0  0  0  0  0  0  0  0
   -4.4649    2.0640    0.1489 H   0  0  0  0  0  0  0  0  0  0  0  0
   -2.6592    0.0762   -2.3152 H   0  0  0  0  0  0  0  0  0  0  0  0
   -3.1233   -2.2803   -2.7443 H   0  0  0  0  0  0  0  0  0  0  0  0
   -4.6278   -3.5300   -1.2222 H   0  0  0  0  0  0  0  0  0  0  0  0
   -5.6543   -2.3515    0.7425 H   0  0  0  0  0  0  0  0  0  0  0  0
   -5.1855   -0.0233    1.1520 H   0  0  0  0  0  0  0  0  0  0  0  0
    2.2832    1.2126    0.4879 H   0  0  0  0  0  0  0  0  0  0  0  0
    2.9588   -0.6314   -1.7870 H   0  0  0  0  0  0  0  0  0  0  0  0
    3.5104    1.1243   -1.7443 H   0  0  0  0  0  0  0  0  0  0  0  0
    5.1719   -0.4647   -0.7873 H   0  0  0  0  0  0  0  0  0  0  0  0
    4.6273    0.6753    0.4416 H   0  0  0  0  0  0  0  0  0  0  0  0
    2.1205   -2.1754    1.5073 H   0  0  0  0  0  0  0  0  0  0  0  0
    2.4031   -2.5983   -0.1836 H   0  0  0  0  0  0  0  0  0  0  0  0
    0.6839   -0.5352    1.0296 H   0  0  0  0  0  0  0  0  0  0  0  0
    0.7600   -1.1289   -0.6495 H   0  0  0  0  0  0  0  0  0  0  0  0
    4.8491   -3.3284    2.9634 H   0  0  0  0  0  0  0  0  0  0  0  0
    6.5252   -1.3910    0.7469 H   0  0  0  0  0  0  0  0  0  0  0  0
    6.4685   -1.2890    2.5599 H   0  0  0  0  0  0  0  0  0  0  0  0
  1  2  1  0
  2  3  1  0
  3  4  2  0
  3  5  1  0
  5  6  1  0
  6  7  1  0
  7  8  2  0
  7  9  1  0
  6 10  1  0
 10 11  1  0
 11 12  2  0
 12 13  1  0
 13 14  2  0
 14 15  1  0
 15 16  2  0
  2 17  1  0
 17 18  1  0
 18 19  1  0
 19 20  1  0
 20 21  1  0
 21 22  1  0
 20 23  1  0
 23 24  2  3
 23 25  1  0
 16 11  1  0
 22 17  1  0
  1 26  1  0
  1 27  1  0
  2 28  1  0
  5 29  1  0
  6 30  1  1
  9 31  1  0
  9 32  1  0
 10 33  1  0
 10 34  1  0
 12 35  1  0
 13 36  1  0
 14 37  1  0
 15 38  1  0
 16 39  1  0
 17 40  1  0
 18 41  1  0
 18 42  1  0
 19 43  1  0
 19 44  1  0
 21 45  1  0
 21 46  1  0
 22 47  1  0
 22 48  1  0
 24 49  1  0
 25 50  1  0
 25 51  1  0
M  END
>  <Ligand ID>  (1) 
LIG0003135

>  <Ligand>  (1) 
CHEMBL3343988

>  <SMILES>  (1) 
NC(C(=O)N[C@H](C(=O)N)Cc1ccccc1)C1CCN(CC1)C(=N)N

>  <CID>  (1) 
118717464.0

>  <ChEMBL ID>  (1) 
nan

>  <InChiKey>  (1) 
ZQRUPFZEQPUPTB-LSLKUGRBSA-N

>  <InChi>  (1) 
InChI=1S/C17H26N6O2/c18-14(12-6-8-23(9-7-12)17(20)21)16(25)22-13(15(19)24)10-11-4-2-1-3-5-11/h1-5,12-14H,6-10,18H2,(H2,19,24)(H3,20,21)(H,22,25)/t13-,14?/m0/s1

>  <IUPAC Name>  (1) 
(2S)-2-[[2-amino-2-(1-carbamimidoylpiperidin-4-yl)acetyl]amino]-3-phenylpropanamide

$$$$
