
     RDKit          3D

 63 65  0  0  0  0  0  0  0  0999 V2000
   -1.0874    1.9897   -1.3906 O   0  0  0  0  0  0  0  0  0  0  0  0
   -1.3068    1.9477    0.0019 C   0  0  1  0  0  0  0  0  0  0  0  0
   -2.7469    2.1400    0.3328 C   0  0  0  0  0  0  0  0  0  0  0  0
   -3.7404    1.1712   -0.2061 C   0  0  0  0  0  0  0  0  0  0  0  0
   -3.5411   -0.2542    0.2120 C   0  0  0  0  0  0  0  0  0  0  0  0
   -4.5958   -1.1742   -0.3763 C   0  0  0  0  0  0  0  0  0  0  0  0
   -4.5850   -1.1583   -1.8758 C   0  0  0  0  0  0  0  0  0  0  0  0
   -4.2444   -2.5950    0.0564 C   0  0  0  0  0  0  0  0  0  0  0  0
   -5.9601   -0.8650    0.1468 C   0  0  0  0  0  0  0  0  0  0  0  0
   -3.1598    3.5693   -0.0248 C   0  0  0  0  0  0  0  0  0  0  0  0
   -3.9151    3.6059    1.2948 C   0  0  0  0  0  0  0  0  0  0  0  0
   -2.9423    2.5391    1.7802 C   0  0  0  0  0  0  0  0  0  0  0  0
   -0.6698    0.7611    0.5889 C   0  0  0  0  0  0  0  0  0  0  0  0
    0.3292    0.1143   -0.0065 C   0  0  0  0  0  0  0  0  0  0  0  0
    0.9993   -1.0754    0.5383 C   0  0  1  0  0  0  0  0  0  0  0  0
    0.3241   -2.3242    0.0676 C   0  0  0  0  0  0  0  0  0  0  0  0
    0.9817   -2.5762   -1.1728 O   0  0  0  0  0  0  0  0  0  0  0  0
    2.3401   -2.2949   -0.9578 C   0  0  0  0  0  0  0  0  0  0  0  0
    3.3464   -2.8696   -1.4476 O   0  0  0  0  0  0  0  0  0  0  0  0
    2.3419   -1.1859   -0.0383 N   0  0  0  0  0  0  0  0  0  0  0  0
    3.5080   -0.3872    0.2027 C   0  0  0  0  0  0  0  0  0  0  0  0
    3.6499    0.8036   -0.7076 C   0  0  0  0  0  0  0  0  0  0  0  0
    5.1919    1.6774   -0.2336 S   0  0  0  0  0  0  0  0  0  0  0  0
    6.6113    0.6891   -0.5732 C   0  0  0  0  0  0  0  0  0  0  0  0
    7.4826    0.7852   -2.2657 S   0  0  0  0  0  0  0  0  0  0  0  0
    8.7131   -0.4609   -1.7371 C   0  0  0  0  0  0  0  0  0  0  0  0
    8.3337   -0.7865   -0.4006 C   0  0  0  0  0  0  0  0  0  0  0  0
    7.2867   -0.1234   -0.0116 N   0  0  0  0  0  0  0  0  0  0  0  0
    9.0722   -1.7605    0.3944 C   0  0  0  0  0  0  0  0  0  0  0  0
    8.7273   -2.0404    1.5750 O   0  0  0  0  0  0  0  0  0  0  0  0
   10.1735   -2.4117   -0.1121 O   0  0  0  0  0  0  0  0  0  0  0  0
   -1.3016    2.8623   -1.7758 H   0  0  0  0  0  0  0  0  0  0  0  0
   -0.7339    2.8444    0.3831 H   0  0  0  0  0  0  0  0  0  0  0  0
   -3.6689    1.1953   -1.3132 H   0  0  0  0  0  0  0  0  0  0  0  0
   -4.7560    1.5354    0.0328 H   0  0  0  0  0  0  0  0  0  0  0  0
   -3.5741   -0.3889    1.3135 H   0  0  0  0  0  0  0  0  0  0  0  0
   -2.5551   -0.6374   -0.1284 H   0  0  0  0  0  0  0  0  0  0  0  0
   -3.5728   -1.1927   -2.3056 H   0  0  0  0  0  0  0  0  0  0  0  0
   -5.1834   -0.2979   -2.2914 H   0  0  0  0  0  0  0  0  0  0  0  0
   -5.1265   -2.0782   -2.2273 H   0  0  0  0  0  0  0  0  0  0  0  0
   -3.8008   -2.5059    1.0709 H   0  0  0  0  0  0  0  0  0  0  0  0
   -3.4167   -2.9473   -0.6067 H   0  0  0  0  0  0  0  0  0  0  0  0
   -5.1223   -3.2708    0.0384 H   0  0  0  0  0  0  0  0  0  0  0  0
   -6.5955   -1.7683   -0.0020 H   0  0  0  0  0  0  0  0  0  0  0  0
   -5.8780   -0.7680    1.2650 H   0  0  0  0  0  0  0  0  0  0  0  0
   -6.4243    0.0479   -0.2499 H   0  0  0  0  0  0  0  0  0  0  0  0
   -2.3045    4.2656   -0.0721 H   0  0  0  0  0  0  0  0  0  0  0  0
   -3.8756    3.6445   -0.8733 H   0  0  0  0  0  0  0  0  0  0  0  0
   -3.8528    4.5620    1.8550 H   0  0  0  0  0  0  0  0  0  0  0  0
   -4.9256    3.1869    1.2157 H   0  0  0  0  0  0  0  0  0  0  0  0
   -3.3836    1.7903    2.4486 H   0  0  0  0  0  0  0  0  0  0  0  0
   -2.0166    2.9722    2.2175 H   0  0  0  0  0  0  0  0  0  0  0  0
   -1.0267    0.3840    1.5605 H   0  0  0  0  0  0  0  0  0  0  0  0
    0.6584    0.5215   -0.9776 H   0  0  0  0  0  0  0  0  0  0  0  0
    1.0431   -0.9851    1.6411 H   0  0  0  0  0  0  0  0  0  0  0  0
    0.5416   -3.1818    0.7608 H   0  0  0  0  0  0  0  0  0  0  0  0
   -0.7685   -2.2343   -0.0704 H   0  0  0  0  0  0  0  0  0  0  0  0
    4.3973   -1.0443    0.1809 H   0  0  0  0  0  0  0  0  0  0  0  0
    3.4293    0.0027    1.2586 H   0  0  0  0  0  0  0  0  0  0  0  0
    3.8241    0.4298   -1.7359 H   0  0  0  0  0  0  0  0  0  0  0  0
    2.8589    1.5394   -0.5932 H   0  0  0  0  0  0  0  0  0  0  0  0
    9.5499   -0.8442   -2.3580 H   0  0  0  0  0  0  0  0  0  0  0  0
   10.6430   -3.0894    0.4388 H   0  0  0  0  0  0  0  0  0  0  0  0
  1  2  1  0
  2  3  1  0
  3  4  1  0
  4  5  1  0
  5  6  1  0
  6  7  1  0
  6  8  1  0
  6  9  1  0
  3 10  1  0
 10 11  1  0
 11 12  1  0
  2 13  1  0
 13 14  2  0
 14 15  1  0
 15 16  1  0
 16 17  1  0
 17 18  1  0
 18 19  2  0
 18 20  1  0
 20 21  1  0
 21 22  1  0
 22 23  1  0
 23 24  1  0
 24 25  1  0
 25 26  1  0
 26 27  2  0
 27 28  1  0
 27 29  1  0
 29 30  2  0
 29 31  1  0
 12  3  1  0
 20 15  1  0
 28 24  2  0
  1 32  1  0
  2 33  1  1
  4 34  1  0
  4 35  1  0
  5 36  1  0
  5 37  1  0
  7 38  1  0
  7 39  1  0
  7 40  1  0
  8 41  1  0
  8 42  1  0
  8 43  1  0
  9 44  1  0
  9 45  1  0
  9 46  1  0
 10 47  1  0
 10 48  1  0
 11 49  1  0
 11 50  1  0
 12 51  1  0
 12 52  1  0
 13 53  1  0
 14 54  1  0
 15 55  1  1
 16 56  1  0
 16 57  1  0
 21 58  1  0
 21 59  1  0
 22 60  1  0
 22 61  1  0
 26 62  1  0
 31 63  1  0
M  END
>  <Ligand ID>  (1) 
LIG0003386

>  <Ligand>  (1) 
CHEMBL3752435

>  <SMILES>  (1) 
O[C@@H](C1(CCC(C)(C)C)CCC1)/C=C/[C@H]1COC(=O)N1CCSc1scc(n1)C(=O)O

>  <CID>  (1) 
66857738.0

>  <ChEMBL ID>  (1) 
nan

>  <InChiKey>  (1) 
JSUUDWPORGQXHO-QRBHQTINSA-N

>  <InChi>  (1) 
InChI=1S/C22H32N2O5S2/c1-21(2,3)9-10-22(7-4-8-22)17(25)6-5-15-13-29-20(28)24(15)11-12-30-19-23-16(14-31-19)18(26)27/h5-6,14-15,17,25H,4,7-13H2,1-3H3,(H,26,27)/b6-5+/t15-,17+/m0/s1

>  <IUPAC Name>  (1) 
2-[2-[(4S)-4-[(E,3R)-3-[1-(3,3-dimethylbutyl)cyclobutyl]-3-hydroxyprop-1-enyl]-2-oxo-1,3-oxazolidin-3-yl]ethylsulfanyl]-1,3-thiazole-4-carboxylic acid

$$$$
