
     RDKit          3D

 59 62  0  0  0  0  0  0  0  0999 V2000
   -2.0026    4.1427   -2.3707 C   0  0  0  0  0  0  0  0  0  0  0  0
   -1.5338    2.8791   -3.0491 C   0  0  0  0  0  0  0  0  0  0  0  0
   -1.2887    1.8423   -2.1075 O   0  0  0  0  0  0  0  0  0  0  0  0
   -2.2904    1.3590   -1.2732 C   0  0  0  0  0  0  0  0  0  0  0  0
   -3.4239    1.8883   -1.3968 O   0  0  0  0  0  0  0  0  0  0  0  0
   -2.0259    0.2593   -0.2756 C   0  0  0  0  0  0  0  0  0  0  0  0
   -0.9419    0.8017    0.6249 C   0  0  0  0  0  0  0  0  0  0  0  0
    0.4293    0.3622    0.1667 C   0  0  0  0  0  0  0  0  0  0  0  0
    0.5871    0.1646   -1.2178 N   0  0  0  0  0  0  0  0  0  0  0  0
   -0.3617   -0.6188   -1.9103 C   0  0  0  0  0  0  0  0  0  0  0  0
   -1.5528   -0.9329   -1.0677 C   0  0  0  0  0  0  0  0  0  0  0  0
    1.9121    0.1295   -1.7220 C   0  0  0  0  0  0  0  0  0  0  0  0
    2.6592   -1.0059   -1.1290 C   0  0  0  0  0  0  0  0  0  0  0  0
    2.6921   -2.2941   -1.6501 C   0  0  0  0  0  0  0  0  0  0  0  0
    3.4930   -3.1010   -0.8477 C   0  0  0  0  0  0  0  0  0  0  0  0
    3.9369   -2.2904    0.1518 C   0  0  0  0  0  0  0  0  0  0  0  0
    3.4335   -1.0556   -0.0318 N   0  0  0  0  0  0  0  0  0  0  0  0
    3.7247    0.0210    0.8506 C   0  0  0  0  0  0  0  0  0  0  0  0
    4.4982    1.0569    0.3138 C   0  0  0  0  0  0  0  0  0  0  0  0
    4.8193    2.1436    1.1284 C   0  0  0  0  0  0  0  0  0  0  0  0
    4.3749    2.1785    2.4321 C   0  0  0  0  0  0  0  0  0  0  0  0
    3.6316    1.1609    2.9126 N   0  0  0  0  0  0  0  0  0  0  0  0
    3.3040    0.0929    2.1461 C   0  0  0  0  0  0  0  0  0  0  0  0
   -3.3178    0.0172    0.4292 C   0  0  0  0  0  0  0  0  0  0  0  0
   -3.2856   -1.0384    1.4668 C   0  0  0  0  0  0  0  0  0  0  0  0
   -3.0371   -0.7991    2.8007 C   0  0  0  0  0  0  0  0  0  0  0  0
   -3.0255   -1.8758    3.6742 C   0  0  0  0  0  0  0  0  0  0  0  0
   -3.2583   -3.1620    3.2180 C   0  0  0  0  0  0  0  0  0  0  0  0
   -3.5077   -3.4158    1.8910 C   0  0  0  0  0  0  0  0  0  0  0  0
   -3.5193   -2.3439    1.0206 C   0  0  0  0  0  0  0  0  0  0  0  0
   -1.7254    4.9969   -3.0251 H   0  0  0  0  0  0  0  0  0  0  0  0
   -1.4965    4.2919   -1.3902 H   0  0  0  0  0  0  0  0  0  0  0  0
   -3.1168    4.1622   -2.2805 H   0  0  0  0  0  0  0  0  0  0  0  0
   -0.5550    3.1340   -3.5179 H   0  0  0  0  0  0  0  0  0  0  0  0
   -2.2839    2.6018   -3.8028 H   0  0  0  0  0  0  0  0  0  0  0  0
   -1.0452    0.4267    1.6630 H   0  0  0  0  0  0  0  0  0  0  0  0
   -0.9834    1.9148    0.6902 H   0  0  0  0  0  0  0  0  0  0  0  0
    1.1234    1.1610    0.5517 H   0  0  0  0  0  0  0  0  0  0  0  0
    0.6834   -0.5813    0.6894 H   0  0  0  0  0  0  0  0  0  0  0  0
    0.1243   -1.6172   -2.1292 H   0  0  0  0  0  0  0  0  0  0  0  0
   -0.6566   -0.2460   -2.9147 H   0  0  0  0  0  0  0  0  0  0  0  0
   -1.2807   -1.7527   -0.3705 H   0  0  0  0  0  0  0  0  0  0  0  0
   -2.3836   -1.2228   -1.7519 H   0  0  0  0  0  0  0  0  0  0  0  0
    1.9635   -0.0208   -2.8277 H   0  0  0  0  0  0  0  0  0  0  0  0
    2.4905    1.0615   -1.5411 H   0  0  0  0  0  0  0  0  0  0  0  0
    2.2082   -2.6928   -2.5302 H   0  0  0  0  0  0  0  0  0  0  0  0
    3.7129   -4.1469   -0.9910 H   0  0  0  0  0  0  0  0  0  0  0  0
    4.5872   -2.6187    0.9476 H   0  0  0  0  0  0  0  0  0  0  0  0
    4.8440    1.0125   -0.7275 H   0  0  0  0  0  0  0  0  0  0  0  0
    5.4183    2.9207    0.6733 H   0  0  0  0  0  0  0  0  0  0  0  0
    4.6459    3.0373    3.0272 H   0  0  0  0  0  0  0  0  0  0  0  0
    2.7065   -0.7305    2.5240 H   0  0  0  0  0  0  0  0  0  0  0  0
   -3.6033    1.0131    0.8849 H   0  0  0  0  0  0  0  0  0  0  0  0
   -4.1455   -0.1741   -0.2987 H   0  0  0  0  0  0  0  0  0  0  0  0
   -2.8636    0.1913    3.1538 H   0  0  0  0  0  0  0  0  0  0  0  0
   -2.8332   -1.7368    4.7393 H   0  0  0  0  0  0  0  0  0  0  0  0
   -3.2473   -3.9960    3.9067 H   0  0  0  0  0  0  0  0  0  0  0  0
   -3.6928   -4.4115    1.5089 H   0  0  0  0  0  0  0  0  0  0  0  0
   -3.7182   -2.5433   -0.0396 H   0  0  0  0  0  0  0  0  0  0  0  0
  1  2  1  0
  2  3  1  0
  3  4  1  0
  4  5  2  0
  4  6  1  0
  6  7  1  0
  7  8  1  0
  8  9  1  0
  9 10  1  0
 10 11  1  0
  9 12  1  0
 12 13  1  0
 13 14  2  0
 14 15  1  0
 15 16  2  0
 16 17  1  0
 17 18  1  0
 18 19  2  0
 19 20  1  0
 20 21  2  0
 21 22  1  0
 22 23  2  0
  6 24  1  0
 24 25  1  0
 25 26  2  0
 26 27  1  0
 27 28  2  0
 28 29  1  0
 29 30  2  0
 11  6  1  0
 17 13  1  0
 23 18  1  0
 30 25  1  0
  1 31  1  0
  1 32  1  0
  1 33  1  0
  2 34  1  0
  2 35  1  0
  7 36  1  0
  7 37  1  0
  8 38  1  0
  8 39  1  0
 10 40  1  0
 10 41  1  0
 11 42  1  0
 11 43  1  0
 12 44  1  0
 12 45  1  0
 14 46  1  0
 15 47  1  0
 16 48  1  0
 19 49  1  0
 20 50  1  0
 21 51  1  0
 23 52  1  0
 24 53  1  0
 24 54  1  0
 26 55  1  0
 27 56  1  0
 28 57  1  0
 29 58  1  0
 30 59  1  0
M  END
>  <Ligand ID>  (1) 
LIG0004434

>  <Ligand>  (1) 
MLS000733862

>  <SMILES>  (1) 
CCOC(=O)C1(CCN(CC1)Cc1cccn1c1cccnc1)Cc1ccccc1

>  <CID>  (1) 
16191853.0

>  <ChEMBL ID>  (1) 
nan

>  <InChiKey>  (1) 
NHURNSAJVRJTDH-UHFFFAOYSA-N

>  <InChi>  (1) 
InChI=1S/C25H29N3O2/c1-2-30-24(29)25(18-21-8-4-3-5-9-21)12-16-27(17-13-25)20-23-11-7-15-28(23)22-10-6-14-26-19-22/h3-11,14-15,19H,2,12-13,16-18,20H2,1H3

>  <IUPAC Name>  (1) 
ethyl 4-benzyl-1-[(1-pyridin-3-ylpyrrol-2-yl)methyl]piperidine-4-carboxylate

$$$$
