
     RDKit          3D

 42 46  0  0  0  0  0  0  0  0999 V2000
    5.9895   -0.1211    1.4607 O   0  0  0  0  0  0  0  0  0  0  0  0
    4.6100   -0.2509    1.4373 C   0  0  0  0  0  0  0  0  0  0  0  0
    3.9807    0.6494    0.4149 C   0  0  0  0  0  0  0  0  0  0  0  0
    4.7820    0.7857   -0.8632 C   0  0  0  0  0  0  0  0  0  0  0  0
    4.6282    1.9614    0.0442 C   0  0  0  0  0  0  0  0  0  0  0  0
    2.5268    0.6083    0.2893 N   0  0  0  0  0  0  0  0  0  0  0  0
    1.8354   -0.5927   -0.0581 C   0  0  0  0  0  0  0  0  0  0  0  0
    2.4563   -1.6792   -0.2733 O   0  0  0  0  0  0  0  0  0  0  0  0
    0.3686   -0.5240   -0.1580 C   0  0  0  0  0  0  0  0  0  0  0  0
   -0.4256    0.5430    0.0386 N   0  0  0  0  0  0  0  0  0  0  0  0
   -1.6978    0.2372   -0.1370 N   0  0  0  0  0  0  0  0  0  0  0  0
   -1.7920   -1.0584   -0.4599 C   0  0  0  0  0  0  0  0  0  0  0  0
   -0.4876   -1.5609   -0.4785 C   0  0  0  0  0  0  0  0  0  0  0  0
   -0.4838   -2.9829   -0.8244 C   0  0  0  0  0  0  0  0  0  0  0  0
   -1.9056   -3.2686   -1.1844 C   0  0  2  0  0  0  0  0  0  0  0  0
   -2.7611   -2.1056   -0.7919 C   0  0  1  0  0  0  0  0  0  0  0  0
   -2.8332   -3.3210    0.0086 C   0  0  0  0  0  0  0  0  0  0  0  0
   -2.7366    1.2126    0.0178 C   0  0  0  0  0  0  0  0  0  0  0  0
   -2.5056    2.5570   -0.2819 C   0  0  0  0  0  0  0  0  0  0  0  0
   -3.5001    3.4916   -0.1337 C   0  0  0  0  0  0  0  0  0  0  0  0
   -4.7544    3.1178    0.3169 C   0  0  0  0  0  0  0  0  0  0  0  0
   -5.0143    1.7985    0.6212 C   0  0  0  0  0  0  0  0  0  0  0  0
   -4.0011    0.8766    0.4652 C   0  0  0  0  0  0  0  0  0  0  0  0
   -4.2681   -0.4048    0.7653 F   0  0  0  0  0  0  0  0  0  0  0  0
   -5.7078    4.0819    0.4473 F   0  0  0  0  0  0  0  0  0  0  0  0
    6.2959    0.6407    2.0446 H   0  0  0  0  0  0  0  0  0  0  0  0
    4.3452   -1.2974    1.2048 H   0  0  0  0  0  0  0  0  0  0  0  0
    4.2473   -0.0105    2.4663 H   0  0  0  0  0  0  0  0  0  0  0  0
    5.7924    0.3498   -0.9015 H   0  0  0  0  0  0  0  0  0  0  0  0
    4.2458    0.7616   -1.8280 H   0  0  0  0  0  0  0  0  0  0  0  0
    5.5325    2.3108    0.6153 H   0  0  0  0  0  0  0  0  0  0  0  0
    3.9687    2.7730   -0.3239 H   0  0  0  0  0  0  0  0  0  0  0  0
    2.0197    1.5175    0.4704 H   0  0  0  0  0  0  0  0  0  0  0  0
   -0.2349   -3.6293    0.0658 H   0  0  0  0  0  0  0  0  0  0  0  0
    0.2431   -3.2511   -1.6160 H   0  0  0  0  0  0  0  0  0  0  0  0
   -2.1855   -3.7412   -2.1259 H   0  0  0  0  0  0  0  0  0  0  0  0
   -3.6475   -1.8471   -1.4312 H   0  0  0  0  0  0  0  0  0  0  0  0
   -2.4435   -3.4544    1.0178 H   0  0  0  0  0  0  0  0  0  0  0  0
   -3.7202   -3.9943   -0.1785 H   0  0  0  0  0  0  0  0  0  0  0  0
   -1.5107    2.7924   -0.6289 H   0  0  0  0  0  0  0  0  0  0  0  0
   -3.2478    4.5212   -0.3865 H   0  0  0  0  0  0  0  0  0  0  0  0
   -6.0033    1.5077    0.9759 H   0  0  0  0  0  0  0  0  0  0  0  0
  1  2  1  0
  2  3  1  0
  3  4  1  0
  4  5  1  0
  3  6  1  0
  6  7  1  0
  7  8  2  0
  7  9  1  0
  9 10  2  0
 10 11  1  0
 11 12  1  0
 12 13  2  0
 13 14  1  0
 14 15  1  0
 15 16  1  0
 16 17  1  0
 11 18  1  0
 18 19  2  0
 19 20  1  0
 20 21  2  0
 21 22  1  0
 22 23  2  0
 23 24  1  0
 21 25  1  0
  5  3  1  0
 13  9  1  0
 17 15  1  0
 23 18  1  0
 16 12  1  0
  1 26  1  0
  2 27  1  0
  2 28  1  0
  4 29  1  0
  4 30  1  0
  5 31  1  0
  5 32  1  0
  6 33  1  0
 14 34  1  0
 14 35  1  0
 15 36  1  6
 16 37  1  6
 17 38  1  0
 17 39  1  0
 19 40  1  0
 20 41  1  0
 22 42  1  0
M  END
>  <Ligand ID>  (1) 
LIG0001331

>  <Ligand>  (1) 
CHEMBL3354953

>  <SMILES>  (1) 
OCC1(CC1)NC(=O)c1nn(c2c1C[C@@H]1[C@H]2C1)c1ccc(cc1F)F

>  <CID>  (1) 
118720564.0

>  <ChEMBL ID>  (1) 
nan

>  <InChiKey>  (1) 
RAMHCAPSUIGEGV-MWLCHTKSSA-N

>  <InChi>  (1) 
InChI=1S/C18H17F2N3O2/c19-10-1-2-14(13(20)7-10)23-16-11-5-9(11)6-12(16)15(22-23)17(25)21-18(8-24)3-4-18/h1-2,7,9,11,24H,3-6,8H2,(H,21,25)/t9-,11-/m1/s1

>  <IUPAC Name>  (1) 
(2R,4R)-9-(2,4-difluorophenyl)-N-[1-(hydroxymethyl)cyclopropyl]-8,9-diazatricyclo[4.3.0.02,4]nona-1(6),7-diene-7-carboxamide

$$$$
