
     RDKit          3D

 57 61  0  0  0  0  0  0  0  0999 V2000
    1.7214    1.4382    1.2801 O   0  0  0  0  0  0  0  0  0  0  0  0
    1.3768    0.6712    0.3332 C   0  0  0  0  0  0  0  0  0  0  0  0
    2.4144    0.5700   -0.7192 C   0  0  0  0  0  0  0  0  0  0  0  0
    3.4626   -0.4298   -0.2771 C   0  0  0  0  0  0  0  0  0  0  0  0
    4.0937    0.0085    0.9949 C   0  0  0  0  0  0  0  0  0  0  0  0
    5.2172    0.8096    0.8992 C   0  0  0  0  0  0  0  0  0  0  0  0
    5.8574    1.2555    2.0517 C   0  0  0  0  0  0  0  0  0  0  0  0
    5.3995    0.9181    3.3165 C   0  0  0  0  0  0  0  0  0  0  0  0
    4.2638    0.1083    3.4090 C   0  0  0  0  0  0  0  0  0  0  0  0
    3.6471   -0.3206    2.2356 C   0  0  0  0  0  0  0  0  0  0  0  0
    1.9176    0.1359   -2.0047 N   0  0  0  0  0  0  0  0  0  0  0  0
    1.0543   -0.9548   -2.3643 C   0  0  0  0  0  0  0  0  0  0  0  0
    1.0380   -1.3675   -3.5319 O   0  0  0  0  0  0  0  0  0  0  0  0
    0.1706   -1.6251   -1.4105 C   0  0  0  0  0  0  0  0  0  0  0  0
   -0.2551   -1.1873   -0.1687 C   0  0  0  0  0  0  0  0  0  0  0  0
    0.0764    0.0454    0.4337 N   0  0  0  0  0  0  0  0  0  0  0  0
   -0.8819    0.7690    1.2305 C   0  0  0  0  0  0  0  0  0  0  0  0
   -1.6031    1.7705    0.3617 C   0  0  0  0  0  0  0  0  0  0  0  0
   -1.1073    3.0545    0.3355 C   0  0  0  0  0  0  0  0  0  0  0  0
   -1.6101    4.0622   -0.4542 C   0  0  0  0  0  0  0  0  0  0  0  0
   -2.6786    3.7632   -1.2697 C   0  0  0  0  0  0  0  0  0  0  0  0
   -3.1910    2.4869   -1.2588 C   0  0  0  0  0  0  0  0  0  0  0  0
   -2.6593    1.4759   -0.4414 C   0  0  0  0  0  0  0  0  0  0  0  0
   -3.3570    0.2082   -0.4943 C   0  0  0  0  0  0  0  0  0  0  0  0
   -3.3839   -0.4377   -1.7322 C   0  0  0  0  0  0  0  0  0  0  0  0
   -4.0510   -1.6356   -1.9149 C   0  0  0  0  0  0  0  0  0  0  0  0
   -4.7052   -2.1977   -0.8325 C   0  0  0  0  0  0  0  0  0  0  0  0
   -4.6886   -1.5713    0.4002 C   0  0  0  0  0  0  0  0  0  0  0  0
   -4.0130   -0.3612    0.5776 C   0  0  0  0  0  0  0  0  0  0  0  0
   -1.0772   -1.9157    0.6536 C   0  0  0  0  0  0  0  0  0  0  0  0
   -1.5008   -3.1387    0.2254 C   0  0  0  0  0  0  0  0  0  0  0  0
   -1.0808   -3.5909   -1.0222 C   0  0  0  0  0  0  0  0  0  0  0  0
   -0.2553   -2.8569   -1.8434 C   0  0  0  0  0  0  0  0  0  0  0  0
    2.9127    1.5702   -0.8647 H   0  0  0  0  0  0  0  0  0  0  0  0
    2.9100   -1.3769   -0.0223 H   0  0  0  0  0  0  0  0  0  0  0  0
    4.2031   -0.6240   -1.0769 H   0  0  0  0  0  0  0  0  0  0  0  0
    5.6037    1.0936   -0.0835 H   0  0  0  0  0  0  0  0  0  0  0  0
    6.7348    1.8821    1.9052 H   0  0  0  0  0  0  0  0  0  0  0  0
    5.9159    1.2778    4.2079 H   0  0  0  0  0  0  0  0  0  0  0  0
    3.9088   -0.1533    4.3896 H   0  0  0  0  0  0  0  0  0  0  0  0
    2.7618   -0.9521    2.3253 H   0  0  0  0  0  0  0  0  0  0  0  0
    2.2333    0.7069   -2.8481 H   0  0  0  0  0  0  0  0  0  0  0  0
   -0.3494    1.3981    2.0133 H   0  0  0  0  0  0  0  0  0  0  0  0
   -1.6919    0.2018    1.6890 H   0  0  0  0  0  0  0  0  0  0  0  0
   -0.2710    3.2884    0.9735 H   0  0  0  0  0  0  0  0  0  0  0  0
   -1.1542    5.0378   -0.4054 H   0  0  0  0  0  0  0  0  0  0  0  0
   -3.0812    4.5457   -1.8950 H   0  0  0  0  0  0  0  0  0  0  0  0
   -4.0271    2.2925   -1.9111 H   0  0  0  0  0  0  0  0  0  0  0  0
   -2.8789   -0.0146   -2.5895 H   0  0  0  0  0  0  0  0  0  0  0  0
   -4.0540   -2.1196   -2.9009 H   0  0  0  0  0  0  0  0  0  0  0  0
   -5.2340   -3.1454   -0.9717 H   0  0  0  0  0  0  0  0  0  0  0  0
   -5.2148   -2.0330    1.2509 H   0  0  0  0  0  0  0  0  0  0  0  0
   -4.0240    0.1076    1.5394 H   0  0  0  0  0  0  0  0  0  0  0  0
   -1.3467   -1.5000    1.5895 H   0  0  0  0  0  0  0  0  0  0  0  0
   -2.1453   -3.7046    0.8739 H   0  0  0  0  0  0  0  0  0  0  0  0
   -1.4098   -4.5590   -1.3732 H   0  0  0  0  0  0  0  0  0  0  0  0
    0.0864   -3.1801   -2.8132 H   0  0  0  0  0  0  0  0  0  0  0  0
  1  2  2  0
  2  3  1  0
  3  4  1  0
  4  5  1  0
  5  6  2  0
  6  7  1  0
  7  8  2  0
  8  9  1  0
  9 10  2  0
  3 11  1  0
 11 12  1  0
 12 13  2  0
 12 14  1  0
 14 15  2  0
 15 16  1  0
 16 17  1  0
 17 18  1  0
 18 19  2  0
 19 20  1  0
 20 21  2  0
 21 22  1  0
 22 23  2  0
 23 24  1  0
 24 25  2  0
 25 26  1  0
 26 27  2  0
 27 28  1  0
 28 29  2  0
 15 30  1  0
 30 31  2  0
 31 32  1  0
 32 33  2  0
 16  2  1  0
 23 18  1  0
 29 24  1  0
 10  5  1  0
 33 14  1  0
  3 34  1  0
  4 35  1  0
  4 36  1  0
  6 37  1  0
  7 38  1  0
  8 39  1  0
  9 40  1  0
 10 41  1  0
 11 42  1  0
 17 43  1  0
 17 44  1  0
 19 45  1  0
 20 46  1  0
 21 47  1  0
 22 48  1  0
 25 49  1  0
 26 50  1  0
 27 51  1  0
 28 52  1  0
 29 53  1  0
 30 54  1  0
 31 55  1  0
 32 56  1  0
 33 57  1  0
M  END
>  <Ligand ID>  (1) 
LIG0002669

>  <Ligand>  (1) 
CHEMBL273044

>  <SMILES>  (1) 
O=C1C(Cc2ccccc2)NC(=O)c2c(N1Cc1ccccc1c1ccccc1)cccc2

>  <CID>  (1) 
44456957.0

>  <ChEMBL ID>  (1) 
nan

>  <InChiKey>  (1) 
RONAYXZXQCHUAB-UHFFFAOYSA-N

>  <InChi>  (1) 
InChI=1S/C29H24N2O2/c32-28-25-17-9-10-18-27(25)31(29(33)26(30-28)19-21-11-3-1-4-12-21)20-23-15-7-8-16-24(23)22-13-5-2-6-14-22/h1-18,26H,19-20H2,(H,30,32)

>  <IUPAC Name>  (1) 
3-benzyl-1-[(2-phenylphenyl)methyl]-3,4-dihydro-1,4-benzodiazepine-2,5-dione

$$$$
