
     RDKit          3D

 36 37  0  0  0  0  0  0  0  0999 V2000
    3.3500    1.8525   -1.5112 C   0  0  0  0  0  0  0  0  0  0  0  0
    3.4324    1.3715   -0.1829 O   0  0  0  0  0  0  0  0  0  0  0  0
    2.4265    0.6659    0.4265 C   0  0  0  0  0  0  0  0  0  0  0  0
    2.6413    0.2554    1.7372 C   0  0  0  0  0  0  0  0  0  0  0  0
    1.7331   -0.4535    2.4654 C   0  0  0  0  0  0  0  0  0  0  0  0
    0.5350   -0.7763    1.8547 C   0  0  0  0  0  0  0  0  0  0  0  0
    0.3249   -0.3646    0.5468 C   0  0  0  0  0  0  0  0  0  0  0  0
    1.2526    0.3360   -0.1361 N   0  0  0  0  0  0  0  0  0  0  0  0
   -0.9301   -0.7473   -0.0260 N   0  0  0  0  0  0  0  0  0  0  0  0
   -0.9187   -1.9444   -0.8639 C   0  0  0  0  0  0  0  0  0  0  0  0
    0.4547   -2.5724   -0.9243 C   0  0  0  0  0  0  0  0  0  0  0  0
   -1.8862   -2.9434   -0.2738 C   0  0  0  0  0  0  0  0  0  0  0  0
   -2.1292    0.0110    0.2306 C   0  0  0  0  0  0  0  0  0  0  0  0
   -2.0250    1.4212   -0.2141 C   0  0  0  0  0  0  0  0  0  0  0  0
   -2.3604    1.9637   -1.4151 C   0  0  0  0  0  0  0  0  0  0  0  0
   -2.0861    3.2946   -1.3477 N   0  0  0  0  0  0  0  0  0  0  0  0
   -1.5912    3.5603   -0.1263 C   0  0  0  0  0  0  0  0  0  0  0  0
   -1.5515    2.4003    0.5815 N   0  0  0  0  0  0  0  0  0  0  0  0
    3.6302    2.9379   -1.5796 H   0  0  0  0  0  0  0  0  0  0  0  0
    4.0421    1.2959   -2.1815 H   0  0  0  0  0  0  0  0  0  0  0  0
    2.3162    1.7456   -1.8712 H   0  0  0  0  0  0  0  0  0  0  0  0
    3.5843    0.5016    2.2348 H   0  0  0  0  0  0  0  0  0  0  0  0
    1.9159   -0.7621    3.4786 H   0  0  0  0  0  0  0  0  0  0  0  0
   -0.2060   -1.3404    2.4137 H   0  0  0  0  0  0  0  0  0  0  0  0
   -1.2293   -1.7027   -1.8830 H   0  0  0  0  0  0  0  0  0  0  0  0
    1.1668   -1.9971   -1.5119 H   0  0  0  0  0  0  0  0  0  0  0  0
    0.8439   -2.7756    0.1100 H   0  0  0  0  0  0  0  0  0  0  0  0
    0.3377   -3.5681   -1.3982 H   0  0  0  0  0  0  0  0  0  0  0  0
   -2.8967   -2.8584   -0.7559 H   0  0  0  0  0  0  0  0  0  0  0  0
   -2.0858   -2.7517    0.8118 H   0  0  0  0  0  0  0  0  0  0  0  0
   -1.4573   -3.9716   -0.3957 H   0  0  0  0  0  0  0  0  0  0  0  0
   -3.0251   -0.4490   -0.2369 H   0  0  0  0  0  0  0  0  0  0  0  0
   -2.3757    0.0024    1.3354 H   0  0  0  0  0  0  0  0  0  0  0  0
   -2.7637    1.4690   -2.2600 H   0  0  0  0  0  0  0  0  0  0  0  0
   -1.2691    4.5382    0.2532 H   0  0  0  0  0  0  0  0  0  0  0  0
   -1.2005    2.3556    1.5675 H   0  0  0  0  0  0  0  0  0  0  0  0
  1  2  1  0
  2  3  1  0
  3  4  2  0
  4  5  1  0
  5  6  2  0
  6  7  1  0
  7  8  2  0
  7  9  1  0
  9 10  1  0
 10 11  1  0
 10 12  1  0
  9 13  1  0
 13 14  1  0
 14 15  2  0
 15 16  1  0
 16 17  2  0
 17 18  1  0
  8  3  1  0
 18 14  1  0
  1 19  1  0
  1 20  1  0
  1 21  1  0
  4 22  1  0
  5 23  1  0
  6 24  1  0
 10 25  1  0
 11 26  1  0
 11 27  1  0
 11 28  1  0
 12 29  1  0
 12 30  1  0
 12 31  1  0
 13 32  1  0
 13 33  1  0
 15 34  1  0
 17 35  1  0
 18 36  1  0
M  END
>  <Ligand ID>  (1) 
LIG0003477

>  <Ligand>  (1) 
CHEMBL2206388

>  <SMILES>  (1) 
COc1cccc(n1)N(C(C)C)Cc1cnc[nH]1

>  <CID>  (1) 
59728103.0

>  <ChEMBL ID>  (1) 
nan

>  <InChiKey>  (1) 
HXJNMJJXCIYGOW-UHFFFAOYSA-N

>  <InChi>  (1) 
InChI=1S/C13H18N4O/c1-10(2)17(8-11-7-14-9-15-11)12-5-4-6-13(16-12)18-3/h4-7,9-10H,8H2,1-3H3,(H,14,15)

>  <IUPAC Name>  (1) 
N-(1H-imidazol-5-ylmethyl)-6-methoxy-N-propan-2-ylpyridin-2-amine

$$$$
