
     RDKit          3D

126128  0  0  0  0  0  0  0  0999 V2000
    9.9776   -2.9679    0.3670 N   0  0  0  0  0  0  0  0  0  0  0  0
    8.8632   -2.2614   -0.1909 C   0  0  0  0  0  0  0  0  0  0  0  0
    8.0219   -1.5422    0.8539 C   0  0  0  0  0  0  0  0  0  0  0  0
    6.8760   -0.8080    0.2553 C   0  0  1  0  0  0  0  0  0  0  0  0
    7.2870    0.2350   -0.7376 C   0  0  0  0  0  0  0  0  0  0  0  0
    6.6765    0.3188   -1.8525 O   0  0  0  0  0  0  0  0  0  0  0  0
    8.3468    1.1207   -0.4287 N   0  0  0  0  0  0  0  0  0  0  0  0
    8.7641    2.1549   -1.3488 C   0  0  0  0  0  0  0  0  0  0  0  0
    9.2132    1.6629   -2.6609 C   0  0  0  0  0  0  0  0  0  0  0  0
    9.2436    0.4316   -2.9800 O   0  0  0  0  0  0  0  0  0  0  0  0
    9.6358    2.6454   -3.6142 N   0  0  0  0  0  0  0  0  0  0  0  0
    5.8034   -1.6278   -0.2570 N   0  0  0  0  0  0  0  0  0  0  0  0
    4.4850   -1.0274   -0.2186 C   0  0  0  0  0  0  0  0  0  0  0  0
    4.4108    0.1111    0.2254 O   0  0  0  0  0  0  0  0  0  0  0  0
    3.3874   -1.8934   -0.7368 C   0  0  2  0  0  0  0  0  0  0  0  0
    3.8968   -2.4260   -2.0439 C   0  0  0  0  0  0  0  0  0  0  0  0
    2.9139   -1.9862   -3.0750 C   0  0  0  0  0  0  0  0  0  0  0  0
    1.7124   -1.4831   -2.3838 C   0  0  0  0  0  0  0  0  0  0  0  0
    2.1407   -1.2456   -0.9543 N   0  0  0  0  0  0  0  0  0  0  0  0
    1.2659   -0.4404   -0.1912 C   0  0  0  0  0  0  0  0  0  0  0  0
    0.2627    0.0242   -0.8824 O   0  0  0  0  0  0  0  0  0  0  0  0
    1.2768   -0.0342    1.2044 C   0  0  2  0  0  0  0  0  0  0  0  0
    0.6548   -1.0016    2.1947 C   0  0  0  0  0  0  0  0  0  0  0  0
    1.2677   -2.6669    2.1285 S   0  0  0  0  0  0  0  0  0  0  0  0
    0.5289   -3.7715    0.4789 S   0  0  0  0  0  0  0  0  0  0  0  0
   -0.9535   -4.7163    0.9090 C   0  0  0  0  0  0  0  0  0  0  0  0
   -1.5137   -5.3281   -0.3503 C   0  0  2  0  0  0  0  0  0  0  0  0
   -0.5589   -6.0122   -1.1598 N   0  0  0  0  0  0  0  0  0  0  0  0
   -2.3936   -4.4249   -1.1242 C   0  0  0  0  0  0  0  0  0  0  0  0
   -2.2623   -4.0936   -2.3040 O   0  0  0  0  0  0  0  0  0  0  0  0
   -3.5190   -3.8749   -0.4466 N   0  0  0  0  0  0  0  0  0  0  0  0
   -4.5065   -2.9948   -1.0398 C   0  0  1  0  0  0  0  0  0  0  0  0
   -5.8775   -3.6022   -1.1385 C   0  0  0  0  0  0  0  0  0  0  0  0
   -6.4758   -3.9923    0.1744 C   0  0  0  0  0  0  0  0  0  0  0  0
   -6.3318   -5.1131    0.7613 N   0  0  0  0  0  0  0  0  0  0  0  0
   -6.9155   -5.4280    1.9187 C   0  0  0  0  0  0  0  0  0  0  0  0
   -7.8725   -3.9121    2.3397 S   0  0  0  0  0  0  0  0  0  0  0  0
   -7.3270   -3.0224    0.8215 C   0  0  0  0  0  0  0  0  0  0  0  0
   -4.4396   -1.6392   -0.4525 C   0  0  0  0  0  0  0  0  0  0  0  0
   -3.4495   -1.3447    0.2260 O   0  0  0  0  0  0  0  0  0  0  0  0
   -5.4347   -0.6367   -0.5986 N   0  0  0  0  0  0  0  0  0  0  0  0
   -5.2712    0.7336   -0.0461 C   0  0  2  0  0  0  0  0  0  0  0  0
   -4.1008    1.3725   -0.6083 C   0  0  0  0  0  0  0  0  0  0  0  0
   -3.3317    0.6794   -1.3367 O   0  0  0  0  0  0  0  0  0  0  0  0
   -3.6570    2.7100   -0.4770 N   0  0  0  0  0  0  0  0  0  0  0  0
   -2.4531    3.2215   -1.1208 C   0  0  2  0  0  0  0  0  0  0  0  0
   -1.3299    3.4998   -0.2460 C   0  0  0  0  0  0  0  0  0  0  0  0
   -0.3022    4.0303   -0.7082 O   0  0  0  0  0  0  0  0  0  0  0  0
   -1.2576    3.2189    1.1638 N   0  0  0  0  0  0  0  0  0  0  0  0
   -0.0339    3.5826    1.9114 C   0  0  2  0  0  0  0  0  0  0  0  0
    0.8552    2.3755    1.9230 C   0  0  0  0  0  0  0  0  0  0  0  0
    1.9829    2.2800    2.3894 O   0  0  0  0  0  0  0  0  0  0  0  0
    0.3614    1.1534    1.3239 N   0  0  0  0  0  0  0  0  0  0  0  0
   -0.2998    4.0332    3.2779 C   0  0  0  0  0  0  0  0  0  0  0  0
    0.9392    4.4464    3.9604 C   0  0  0  0  0  0  0  0  0  0  0  0
    2.0832    4.5089    3.4649 O   0  0  0  0  0  0  0  0  0  0  0  0
    0.8611    4.8315    5.3590 N   0  0  0  0  0  0  0  0  0  0  0  0
   -2.8686    4.4791   -1.8512 C   0  0  0  0  0  0  0  0  0  0  0  0
   -3.9379    4.2172   -2.8899 C   0  0  0  0  0  0  0  0  0  0  0  0
   -4.2854    5.5102   -3.5585 C   0  0  0  0  0  0  0  0  0  0  0  0
   -3.6445    6.5606   -3.2675 O   0  0  0  0  0  0  0  0  0  0  0  0
   -5.3457    5.5343   -4.5226 N   0  0  0  0  0  0  0  0  0  0  0  0
   -5.6409    0.8226    1.3579 C   0  0  2  0  0  0  0  0  0  0  0  0
   -5.4908    2.1671    1.9935 C   0  0  0  0  0  0  0  0  0  0  0  0
   -5.9595    2.1102    3.4729 C   0  0  0  0  0  0  0  0  0  0  0  0
   -5.1229   -0.2687    2.2833 C   0  0  0  0  0  0  0  0  0  0  0  0
    9.9755   -3.9873    0.2452 H   0  0  0  0  0  0  0  0  0  0  0  0
   10.9078   -2.5418    0.1194 H   0  0  0  0  0  0  0  0  0  0  0  0
    9.2623   -1.5369   -0.9370 H   0  0  0  0  0  0  0  0  0  0  0  0
    8.2546   -2.9839   -0.7743 H   0  0  0  0  0  0  0  0  0  0  0  0
    7.7030   -2.3163    1.5914 H   0  0  0  0  0  0  0  0  0  0  0  0
    8.7151   -0.8815    1.4196 H   0  0  0  0  0  0  0  0  0  0  0  0
    6.4035   -0.1681    1.0722 H   0  0  0  0  0  0  0  0  0  0  0  0
    8.8129    0.9775    0.5141 H   0  0  0  0  0  0  0  0  0  0  0  0
    9.6569    2.6572   -0.8870 H   0  0  0  0  0  0  0  0  0  0  0  0
    8.0066    2.9792   -1.4072 H   0  0  0  0  0  0  0  0  0  0  0  0
   10.5083    3.1915   -3.4515 H   0  0  0  0  0  0  0  0  0  0  0  0
    9.0425    2.8009   -4.4856 H   0  0  0  0  0  0  0  0  0  0  0  0
    5.9487   -2.5975   -0.6333 H   0  0  0  0  0  0  0  0  0  0  0  0
    3.2996   -2.7364    0.0153 H   0  0  0  0  0  0  0  0  0  0  0  0
    4.9332   -2.0265   -2.2899 H   0  0  0  0  0  0  0  0  0  0  0  0
    4.0356   -3.5336   -2.0180 H   0  0  0  0  0  0  0  0  0  0  0  0
    3.3537   -1.2534   -3.7990 H   0  0  0  0  0  0  0  0  0  0  0  0
    2.6972   -2.9043   -3.7054 H   0  0  0  0  0  0  0  0  0  0  0  0
    1.2897   -0.5528   -2.8069 H   0  0  0  0  0  0  0  0  0  0  0  0
    0.9129   -2.2471   -2.4075 H   0  0  0  0  0  0  0  0  0  0  0  0
    2.2647    0.2390    1.5602 H   0  0  0  0  0  0  0  0  0  0  0  0
   -0.4662   -1.0334    2.0369 H   0  0  0  0  0  0  0  0  0  0  0  0
    0.7960   -0.5846    3.2114 H   0  0  0  0  0  0  0  0  0  0  0  0
   -1.7213   -3.9449    1.2160 H   0  0  0  0  0  0  0  0  0  0  0  0
   -0.8054   -5.4468    1.7192 H   0  0  0  0  0  0  0  0  0  0  0  0
   -2.2252   -6.1426    0.0508 H   0  0  0  0  0  0  0  0  0  0  0  0
   -0.5298   -5.7592   -2.1532 H   0  0  0  0  0  0  0  0  0  0  0  0
    0.4087   -6.0657   -0.7858 H   0  0  0  0  0  0  0  0  0  0  0  0
   -3.6297   -4.1273    0.5319 H   0  0  0  0  0  0  0  0  0  0  0  0
   -4.1613   -2.8064   -2.1306 H   0  0  0  0  0  0  0  0  0  0  0  0
   -5.7947   -4.5265   -1.7967 H   0  0  0  0  0  0  0  0  0  0  0  0
   -6.5802   -2.9636   -1.7160 H   0  0  0  0  0  0  0  0  0  0  0  0
   -6.9084   -6.3252    2.5626 H   0  0  0  0  0  0  0  0  0  0  0  0
   -7.5869   -2.0744    0.5438 H   0  0  0  0  0  0  0  0  0  0  0  0
   -6.2695   -0.9368   -1.1120 H   0  0  0  0  0  0  0  0  0  0  0  0
   -6.1296    1.2714   -0.6191 H   0  0  0  0  0  0  0  0  0  0  0  0
   -4.2155    3.3530    0.0596 H   0  0  0  0  0  0  0  0  0  0  0  0
   -2.0855    2.4976   -1.8971 H   0  0  0  0  0  0  0  0  0  0  0  0
   -2.0723    2.7784    1.5614 H   0  0  0  0  0  0  0  0  0  0  0  0
    0.4646    4.3602    1.3099 H   0  0  0  0  0  0  0  0  0  0  0  0
   -0.5877    1.1602    1.0144 H   0  0  0  0  0  0  0  0  0  0  0  0
   -0.7148    3.1954    3.9310 H   0  0  0  0  0  0  0  0  0  0  0  0
   -0.9911    4.9118    3.3379 H   0  0  0  0  0  0  0  0  0  0  0  0
    0.5041    4.1666    6.0796 H   0  0  0  0  0  0  0  0  0  0  0  0
    1.1873    5.8015    5.5592 H   0  0  0  0  0  0  0  0  0  0  0  0
   -3.2029    5.2696   -1.1559 H   0  0  0  0  0  0  0  0  0  0  0  0
   -1.9907    4.8954   -2.3959 H   0  0  0  0  0  0  0  0  0  0  0  0
   -4.8151    3.6958   -2.4981 H   0  0  0  0  0  0  0  0  0  0  0  0
   -3.5136    3.5588   -3.7065 H   0  0  0  0  0  0  0  0  0  0  0  0
   -6.2556    5.0805   -4.2301 H   0  0  0  0  0  0  0  0  0  0  0  0
   -5.2276    5.9788   -5.4723 H   0  0  0  0  0  0  0  0  0  0  0  0
   -6.7717    0.6303    1.3921 H   0  0  0  0  0  0  0  0  0  0  0  0
   -6.0401    2.9826    1.5346 H   0  0  0  0  0  0  0  0  0  0  0  0
   -4.4036    2.4822    2.0553 H   0  0  0  0  0  0  0  0  0  0  0  0
   -6.0919    3.1617    3.7920 H   0  0  0  0  0  0  0  0  0  0  0  0
   -5.1906    1.6809    4.1169 H   0  0  0  0  0  0  0  0  0  0  0  0
   -6.9209    1.5444    3.4725 H   0  0  0  0  0  0  0  0  0  0  0  0
   -5.4897   -1.2249    1.9317 H   0  0  0  0  0  0  0  0  0  0  0  0
   -5.7044   -0.0844    3.2484 H   0  0  0  0  0  0  0  0  0  0  0  0
   -4.0825   -0.1840    2.5637 H   0  0  0  0  0  0  0  0  0  0  0  0
  1  2  1  0
  2  3  1  0
  3  4  1  0
  4  5  1  0
  5  6  2  0
  5  7  1  0
  7  8  1  0
  8  9  1  0
  9 10  2  0
  9 11  1  0
  4 12  1  0
 12 13  1  0
 13 14  2  0
 13 15  1  0
 15 16  1  0
 16 17  1  0
 17 18  1  0
 18 19  1  0
 19 20  1  0
 20 21  2  0
 20 22  1  0
 22 23  1  0
 23 24  1  0
 24 25  1  0
 25 26  1  0
 26 27  1  0
 27 28  1  0
 27 29  1  0
 29 30  2  0
 29 31  1  0
 31 32  1  0
 32 33  1  0
 33 34  1  0
 34 35  1  0
 35 36  2  0
 36 37  1  0
 37 38  1  0
 32 39  1  0
 39 40  2  0
 39 41  1  0
 41 42  1  0
 42 43  1  0
 43 44  2  0
 43 45  1  0
 45 46  1  0
 46 47  1  0
 47 48  2  0
 47 49  1  0
 49 50  1  0
 50 51  1  0
 51 52  2  0
 51 53  1  0
 50 54  1  0
 54 55  1  0
 55 56  2  0
 55 57  1  0
 46 58  1  0
 58 59  1  0
 59 60  1  0
 60 61  2  0
 60 62  1  0
 42 63  1  0
 63 64  1  0
 64 65  1  0
 63 66  1  0
 19 15  1  0
 53 22  1  0
 38 34  2  0
  1 67  1  0
  1 68  1  0
  2 69  1  0
  2 70  1  0
  3 71  1  0
  3 72  1  0
  4 73  1  1
  7 74  1  0
  8 75  1  0
  8 76  1  0
 11 77  1  0
 11 78  1  0
 12 79  1  0
 15 80  1  1
 16 81  1  0
 16 82  1  0
 17 83  1  0
 17 84  1  0
 18 85  1  0
 18 86  1  0
 22 87  1  1
 23 88  1  0
 23 89  1  0
 26 90  1  0
 26 91  1  0
 27 92  1  1
 28 93  1  0
 28 94  1  0
 31 95  1  0
 32 96  1  6
 33 97  1  0
 33 98  1  0
 36 99  1  0
 38100  1  0
 41101  1  0
 42102  1  6
 45103  1  0
 46104  1  6
 49105  1  0
 50106  1  6
 53107  1  0
 54108  1  0
 54109  1  0
 57110  1  0
 57111  1  0
 58112  1  0
 58113  1  0
 59114  1  0
 59115  1  0
 62116  1  0
 62117  1  0
 63118  1  6
 64119  1  0
 64120  1  0
 65121  1  0
 65122  1  0
 65123  1  0
 66124  1  0
 66125  1  0
 66126  1  0
M  END
>  <Ligand ID>  (1) 
LIG0001619

>  <Ligand>  (1) 
CHEMBL1819547

>  <SMILES>  (1) 
NCC[C@@H](C(=O)NCC(=O)N)NC(=O)[C@@H]1CCCN1C(=O)[C@@H]1CSSC[C@H](N)C(=O)N[C@@H](Cc2ncsc2)C(=O)N[C@H](C(=O)N[C@H](C(=O)N[C@H](C(=O)N1)CC(=O)N)CCC(=O)N)[C@H](CC)C

>  <CID>  (1) 
53362849.0

>  <ChEMBL ID>  (1) 
nan

>  <InChiKey>  (1) 
ZMRHDKBLKCEWID-URPKOMAESA-N

>  <InChi>  (1) 
InChI=1S/C38H60N14O11S3/c1-3-18(2)30-37(62)47-21(6-7-27(41)53)33(58)49-24(12-28(42)54)34(59)50-25(16-66-65-15-20(40)31(56)48-23(35(60)51-30)11-19-14-64-17-45-19)38(63)52-10-4-5-26(52)36(61)46-22(8-9-39)32(57)44-13-29(43)55/h14,17-18,20-26,30H,3-13,15-16,39-40H2,1-2H3,(H2,41,53)(H2,42,54)(H2,43,55)(H,44,57)(H,46,61)(H,47,62)(H,48,56)(H,49,58)(H,50,59)(H,51,60)/t18-,20-,21-,22-,23-,24-,25-,26-,30-/m0/s1

>  <IUPAC Name>  (1) 
(2S)-N-[(2S)-4-amino-1-[(2-amino-2-oxoethyl)amino]-1-oxobutan-2-yl]-1-[(4R,7S,10S,13S,16S,19R)-19-amino-7-(2-amino-2-oxoethyl)-10-(3-amino-3-oxopropyl)-13-[(2S)-butan-2-yl]-6,9,12,15,18-pentaoxo-16-(1,3-thiazol-4-ylmethyl)-1,2-dithia-5,8,11,14,17-pentazacycloicosane-4-carbonyl]pyrrolidine-2-carboxamide

$$$$
