
     RDKit          3D

 30 31  0  0  0  0  0  0  0  0999 V2000
   -2.7467    2.1875   -1.7393 C   0  0  0  0  0  0  0  0  0  0  0  0
   -3.0641    1.7272   -0.0326 S   0  0  0  0  0  0  0  0  0  0  0  0
   -2.4840    0.0630    0.3237 C   0  0  0  0  0  0  0  0  0  0  0  0
   -3.3315   -1.0073    0.1414 C   0  0  0  0  0  0  0  0  0  0  0  0
   -2.9377   -2.3010    0.3992 C   0  0  0  0  0  0  0  0  0  0  0  0
   -1.6497   -2.4909    0.8517 C   0  0  0  0  0  0  0  0  0  0  0  0
   -0.8083   -1.4160    1.0315 C   0  0  0  0  0  0  0  0  0  0  0  0
   -1.1671   -0.1094    0.7842 C   0  0  0  0  0  0  0  0  0  0  0  0
   -0.3255    1.0049    0.9884 N   0  0  0  0  0  0  0  0  0  0  0  0
    1.0260    0.9949    1.4312 C   0  0  0  0  0  0  0  0  0  0  0  0
    2.0404    0.5835    0.4425 C   0  0  0  0  0  0  0  0  0  0  0  0
    3.0374    1.3790    0.1179 N   0  0  0  0  0  0  0  0  0  0  0  0
    3.9054    0.7954   -0.8520 C   0  0  0  0  0  0  0  0  0  0  0  0
    3.6352   -0.6964   -0.6245 C   0  0  0  0  0  0  0  0  0  0  0  0
    2.1989   -0.5980   -0.3133 N   0  0  0  0  0  0  0  0  0  0  0  0
   -1.1089   -4.1422    1.1935 Cl  0  0  0  0  0  0  0  0  0  0  0  0
   -2.8342    3.2946   -1.7974 H   0  0  0  0  0  0  0  0  0  0  0  0
   -1.7047    1.8945   -1.9926 H   0  0  0  0  0  0  0  0  0  0  0  0
   -3.4939    1.7412   -2.4060 H   0  0  0  0  0  0  0  0  0  0  0  0
   -4.3379   -0.8524   -0.2128 H   0  0  0  0  0  0  0  0  0  0  0  0
   -3.5607   -3.1674    0.2728 H   0  0  0  0  0  0  0  0  0  0  0  0
    0.1903   -1.6251    1.3901 H   0  0  0  0  0  0  0  0  0  0  0  0
   -0.7609    1.9523    0.7832 H   0  0  0  0  0  0  0  0  0  0  0  0
    1.2648    2.0017    1.8426 H   0  0  0  0  0  0  0  0  0  0  0  0
    1.0587    0.3310    2.3443 H   0  0  0  0  0  0  0  0  0  0  0  0
    3.5472    0.9957   -1.8838 H   0  0  0  0  0  0  0  0  0  0  0  0
    4.9626    1.0586   -0.7055 H   0  0  0  0  0  0  0  0  0  0  0  0
    4.1379   -1.0262    0.3187 H   0  0  0  0  0  0  0  0  0  0  0  0
    3.8442   -1.3120   -1.4978 H   0  0  0  0  0  0  0  0  0  0  0  0
    1.4669   -1.2609   -0.5991 H   0  0  0  0  0  0  0  0  0  0  0  0
  1  2  1  0
  2  3  1  0
  3  4  2  0
  4  5  1  0
  5  6  2  0
  6  7  1  0
  7  8  2  0
  8  9  1  0
  9 10  1  0
 10 11  1  0
 11 12  2  0
 12 13  1  0
 13 14  1  0
 14 15  1  0
  6 16  1  0
  8  3  1  0
 15 11  1  0
  1 17  1  0
  1 18  1  0
  1 19  1  0
  4 20  1  0
  5 21  1  0
  7 22  1  0
  9 23  1  0
 10 24  1  0
 10 25  1  0
 13 26  1  0
 13 27  1  0
 14 28  1  0
 14 29  1  0
 15 30  1  0
M  END
>  <Ligand ID>  (1) 
LIG0001009

>  <Ligand>  (1) 
CHEMBL70751

>  <SMILES>  (1) 
CSc1ccc(cc1NCC1=NCCN1)Cl

>  <CID>  (1) 
11109088.0

>  <ChEMBL ID>  (1) 
nan

>  <InChiKey>  (1) 
ZHDIISZEXUGDAJ-UHFFFAOYSA-N

>  <InChi>  (1) 
InChI=1S/C11H14ClN3S/c1-16-10-3-2-8(12)6-9(10)15-7-11-13-4-5-14-11/h2-3,6,15H,4-5,7H2,1H3,(H,13,14)

>  <IUPAC Name>  (1) 
5-chloro-N-(4,5-dihydro-1H-imidazol-2-ylmethyl)-2-methylsulfanylaniline

$$$$
