
     RDKit          3D

 76 75  0  0  0  0  0  0  0  0999 V2000
    8.8085    3.8572    0.3375 C   0  0  0  0  0  0  0  0  0  0  0  0
    9.0533    2.9803    1.5404 C   0  0  0  0  0  0  0  0  0  0  0  0
    8.0615    1.8632    1.6523 C   0  0  0  0  0  0  0  0  0  0  0  0
    8.1473    0.9957    0.4169 C   0  0  0  0  0  0  0  0  0  0  0  0
    7.1687   -0.1652    0.4513 C   0  0  0  0  0  0  0  0  0  0  0  0
    5.7532    0.2833    0.5465 C   0  0  0  0  0  0  0  0  0  0  0  0
    4.8467   -0.9589    0.5916 C   0  0  0  0  0  0  0  0  0  0  0  0
    4.9891   -1.8014   -0.6221 C   0  0  0  0  0  0  0  0  0  0  0  0
    4.1069   -3.0117   -0.5430 C   0  0  0  0  0  0  0  0  0  0  0  0
    2.6652   -2.5888   -0.4329 C   0  0  0  0  0  0  0  0  0  0  0  0
    1.8437   -3.8669   -0.3920 C   0  0  0  0  0  0  0  0  0  0  0  0
    0.3920   -3.5061   -0.2715 C   0  0  0  0  0  0  0  0  0  0  0  0
   -0.0291   -2.6882   -1.4396 C   0  0  0  0  0  0  0  0  0  0  0  0
   -1.5377   -2.3182   -1.3281 C   0  0  0  0  0  0  0  0  0  0  0  0
   -1.8317   -1.5146   -2.5354 C   0  0  0  0  0  0  0  0  0  0  0  0
   -3.1858   -1.0709   -2.8881 C   0  0  0  0  0  0  0  0  0  0  0  0
   -3.9353   -0.2679   -1.9039 C   0  0  0  0  0  0  0  0  0  0  0  0
   -4.3788   -1.0154   -0.7124 C   0  0  0  0  0  0  0  0  0  0  0  0
   -5.0676   -0.2125    0.2140 O   0  0  0  0  0  0  0  0  0  0  0  0
   -6.2049    0.3691   -0.2849 C   0  0  0  0  0  0  0  0  0  0  0  0
   -6.7977    1.1854    0.8734 C   0  0  0  0  0  0  0  0  0  0  0  0
   -7.9680    2.0101    0.3857 C   0  0  0  0  0  0  0  0  0  0  0  0
   -8.3840    2.8477    1.3922 O   0  0  0  0  0  0  0  0  0  0  0  0
   -9.6862    3.8216    0.9305 P   0  0  0  0  0  0  0  0  0  0  0  0
   -9.6995    4.0834   -0.7762 S   0  0  0  0  0  0  0  0  0  0  0  0
   -9.4805    5.3213    1.6976 O   0  0  0  0  0  0  0  0  0  0  0  0
  -11.1162    3.0608    1.3641 O   0  0  0  0  0  0  0  0  0  0  0  0
   -7.1117    0.4110    1.9650 O   0  0  0  0  0  0  0  0  0  0  0  0
   -6.3537    0.7019    3.0913 C   0  0  0  0  0  0  0  0  0  0  0  0
    9.2881    4.8400    0.5154 H   0  0  0  0  0  0  0  0  0  0  0  0
    7.7376    3.9243    0.0690 H   0  0  0  0  0  0  0  0  0  0  0  0
    9.3446    3.4303   -0.5532 H   0  0  0  0  0  0  0  0  0  0  0  0
   10.0508    2.5076    1.4042 H   0  0  0  0  0  0  0  0  0  0  0  0
    9.1079    3.5966    2.4544 H   0  0  0  0  0  0  0  0  0  0  0  0
    8.4199    1.2227    2.5098 H   0  0  0  0  0  0  0  0  0  0  0  0
    7.0436    2.1501    1.9074 H   0  0  0  0  0  0  0  0  0  0  0  0
    9.1476    0.5285    0.3225 H   0  0  0  0  0  0  0  0  0  0  0  0
    7.9708    1.5743   -0.5110 H   0  0  0  0  0  0  0  0  0  0  0  0
    7.3065   -0.6606   -0.5554 H   0  0  0  0  0  0  0  0  0  0  0  0
    7.4475   -0.9296    1.2002 H   0  0  0  0  0  0  0  0  0  0  0  0
    5.5092    0.8399    1.4562 H   0  0  0  0  0  0  0  0  0  0  0  0
    5.3981    0.8622   -0.3042 H   0  0  0  0  0  0  0  0  0  0  0  0
    3.7848   -0.6236    0.6948 H   0  0  0  0  0  0  0  0  0  0  0  0
    5.0976   -1.4831    1.5345 H   0  0  0  0  0  0  0  0  0  0  0  0
    6.0256   -2.1703   -0.7909 H   0  0  0  0  0  0  0  0  0  0  0  0
    4.7730   -1.1963   -1.5497 H   0  0  0  0  0  0  0  0  0  0  0  0
    4.2299   -3.6890   -1.4151 H   0  0  0  0  0  0  0  0  0  0  0  0
    4.3132   -3.6088    0.3922 H   0  0  0  0  0  0  0  0  0  0  0  0
    2.5329   -2.1018    0.5684 H   0  0  0  0  0  0  0  0  0  0  0  0
    2.4586   -1.9441   -1.2857 H   0  0  0  0  0  0  0  0  0  0  0  0
    2.2159   -4.4167    0.5087 H   0  0  0  0  0  0  0  0  0  0  0  0
    2.0822   -4.4676   -1.2688 H   0  0  0  0  0  0  0  0  0  0  0  0
   -0.2398   -4.4039   -0.1054 H   0  0  0  0  0  0  0  0  0  0  0  0
    0.2650   -2.8730    0.6370 H   0  0  0  0  0  0  0  0  0  0  0  0
    0.4721   -1.7007   -1.3971 H   0  0  0  0  0  0  0  0  0  0  0  0
    0.0635   -3.2226   -2.3889 H   0  0  0  0  0  0  0  0  0  0  0  0
   -2.1276   -3.2082   -1.2149 H   0  0  0  0  0  0  0  0  0  0  0  0
   -1.5912   -1.6433   -0.4180 H   0  0  0  0  0  0  0  0  0  0  0  0
   -1.1009   -0.6102   -2.5831 H   0  0  0  0  0  0  0  0  0  0  0  0
   -1.4521   -2.0703   -3.4802 H   0  0  0  0  0  0  0  0  0  0  0  0
   -3.1988   -0.5673   -3.9134 H   0  0  0  0  0  0  0  0  0  0  0  0
   -3.8501   -1.9793   -3.1042 H   0  0  0  0  0  0  0  0  0  0  0  0
   -4.8157    0.2327   -2.4362 H   0  0  0  0  0  0  0  0  0  0  0  0
   -3.2418    0.5977   -1.6044 H   0  0  0  0  0  0  0  0  0  0  0  0
   -5.1259   -1.8073   -1.1022 H   0  0  0  0  0  0  0  0  0  0  0  0
   -3.6204   -1.5970   -0.2353 H   0  0  0  0  0  0  0  0  0  0  0  0
   -6.9340   -0.3291   -0.7010 H   0  0  0  0  0  0  0  0  0  0  0  0
   -6.0133    1.1474   -1.0802 H   0  0  0  0  0  0  0  0  0  0  0  0
   -5.9801    1.8803    1.1801 H   0  0  0  0  0  0  0  0  0  0  0  0
   -7.6457    2.6395   -0.4634 H   0  0  0  0  0  0  0  0  0  0  0  0
   -8.7669    1.3349   -0.0005 H   0  0  0  0  0  0  0  0  0  0  0  0
   -8.9654    5.2379    2.5221 H   0  0  0  0  0  0  0  0  0  0  0  0
  -11.9089    3.6187    1.1640 H   0  0  0  0  0  0  0  0  0  0  0  0
   -6.6833    0.0240    3.9155 H   0  0  0  0  0  0  0  0  0  0  0  0
   -6.6197    1.7327    3.4524 H   0  0  0  0  0  0  0  0  0  0  0  0
   -5.2723    0.5763    2.9625 H   0  0  0  0  0  0  0  0  0  0  0  0
  1  2  1  0
  2  3  1  0
  3  4  1  0
  4  5  1  0
  5  6  1  0
  6  7  1  0
  7  8  1  0
  8  9  1  0
  9 10  1  0
 10 11  1  0
 11 12  1  0
 12 13  1  0
 13 14  1  0
 14 15  1  0
 15 16  1  0
 16 17  1  0
 17 18  1  0
 18 19  1  0
 19 20  1  0
 20 21  1  0
 21 22  1  0
 22 23  1  0
 23 24  1  0
 24 25  2  0
 24 26  1  0
 24 27  1  0
 21 28  1  0
 28 29  1  0
  1 30  1  0
  1 31  1  0
  1 32  1  0
  2 33  1  0
  2 34  1  0
  3 35  1  0
  3 36  1  0
  4 37  1  0
  4 38  1  0
  5 39  1  0
  5 40  1  0
  6 41  1  0
  6 42  1  0
  7 43  1  0
  7 44  1  0
  8 45  1  0
  8 46  1  0
  9 47  1  0
  9 48  1  0
 10 49  1  0
 10 50  1  0
 11 51  1  0
 11 52  1  0
 12 53  1  0
 12 54  1  0
 13 55  1  0
 13 56  1  0
 14 57  1  0
 14 58  1  0
 15 59  1  0
 15 60  1  0
 16 61  1  0
 16 62  1  0
 17 63  1  0
 17 64  1  0
 18 65  1  0
 18 66  1  0
 20 67  1  0
 20 68  1  0
 21 69  1  0
 22 70  1  0
 22 71  1  0
 26 72  1  0
 27 73  1  0
 29 74  1  0
 29 75  1  0
 29 76  1  0
M  END
>  <Ligand ID>  (1) 
LIG0000701

>  <Ligand>  (1) 
CHEMBL2335052

>  <SMILES>  (1) 
CCCCCCCCCCCCCCCCCCOCC(COP(=S)(O)O)OC

>  <CID>  (1) 
11648176.0

>  <ChEMBL ID>  (1) 
nan

>  <InChiKey>  (1) 
JYAROLONGLXUOT-UHFFFAOYSA-N

>  <InChi>  (1) 
InChI=1S/C22H47O5PS/c1-3-4-5-6-7-8-9-10-11-12-13-14-15-16-17-18-19-26-20-22(25-2)21-27-28(23,24)29/h22H,3-21H2,1-2H3,(H2,23,24,29)

>  <IUPAC Name>  (1) 
dihydroxy-(2-methoxy-3-octadecoxypropoxy)-sulfanylidene-lambda5-phosphane

$$$$
