
     RDKit          3D

 51 53  0  0  0  0  0  0  0  0999 V2000
   -8.9242    0.3892    1.1282 N   0  0  0  0  0  0  0  0  0  0  0  0
   -8.7358   -0.6262    0.1006 C   0  0  0  0  0  0  0  0  0  0  0  0
   -7.3170   -1.1262    0.2670 C   0  0  0  0  0  0  0  0  0  0  0  0
   -6.3549   -0.0516    0.0985 N   0  0  0  0  0  0  0  0  0  0  0  0
   -4.9837   -0.3881    0.2301 C   0  0  0  0  0  0  0  0  0  0  0  0
   -4.7376   -1.6149    0.4857 O   0  0  0  0  0  0  0  0  0  0  0  0
   -3.9080    0.5853    0.0871 C   0  0  0  0  0  0  0  0  0  0  0  0
   -4.1245    1.9195   -0.1880 C   0  0  0  0  0  0  0  0  0  0  0  0
   -3.0623    2.7811   -0.3099 C   0  0  0  0  0  0  0  0  0  0  0  0
   -1.7509    2.3667   -0.1666 C   0  0  0  0  0  0  0  0  0  0  0  0
   -1.5370    1.0312    0.1086 C   0  0  0  0  0  0  0  0  0  0  0  0
   -2.6093    0.1507    0.2338 C   0  0  0  0  0  0  0  0  0  0  0  0
   -0.1843    0.4467    0.2873 C   0  0  0  0  0  0  0  0  0  0  0  0
    0.5216   -0.1552   -1.2684 S   0  0  0  0  0  0  0  0  0  0  0  0
    2.1485   -0.8210   -0.8530 C   0  0  0  0  0  0  0  0  0  0  0  0
    2.2019   -2.1216   -0.5106 N   0  0  0  0  0  0  0  0  0  0  0  0
    3.3672   -2.7356   -0.1778 C   0  0  0  0  0  0  0  0  0  0  0  0
    3.4030   -4.1149    0.1822 N   0  0  0  0  0  0  0  0  0  0  0  0
    4.5092   -1.9539   -0.2074 C   0  0  0  0  0  0  0  0  0  0  0  0
    4.4847   -0.6138   -0.5556 C   0  0  0  0  0  0  0  0  0  0  0  0
    3.2740   -0.0210   -0.8897 C   0  0  0  0  0  0  0  0  0  0  0  0
    3.1801    1.3696   -1.2614 C   0  0  0  0  0  0  0  0  0  0  0  0
    3.1005    2.4760   -1.5450 N   0  0  0  0  0  0  0  0  0  0  0  0
    5.6973    0.1708   -0.5757 C   0  0  0  0  0  0  0  0  0  0  0  0
    6.1849    0.8756    0.5069 C   0  0  0  0  0  0  0  0  0  0  0  0
    7.3608    1.5887    0.3549 C   0  0  0  0  0  0  0  0  0  0  0  0
    8.0616    1.6204   -0.8372 C   0  0  0  0  0  0  0  0  0  0  0  0
    7.5729    0.9118   -1.9288 C   0  0  0  0  0  0  0  0  0  0  0  0
    6.4005    0.1975   -1.7864 C   0  0  0  0  0  0  0  0  0  0  0  0
    5.7683   -2.5648    0.1386 C   0  0  0  0  0  0  0  0  0  0  0  0
    6.7922   -3.0429    0.4110 N   0  0  0  0  0  0  0  0  0  0  0  0
   -8.4600    1.2584    0.8121 H   0  0  0  0  0  0  0  0  0  0  0  0
   -9.8946    0.4753    1.4451 H   0  0  0  0  0  0  0  0  0  0  0  0
   -8.9207   -0.1661   -0.8789 H   0  0  0  0  0  0  0  0  0  0  0  0
   -9.4002   -1.4889    0.3163 H   0  0  0  0  0  0  0  0  0  0  0  0
   -7.2449   -1.6183    1.2486 H   0  0  0  0  0  0  0  0  0  0  0  0
   -7.1143   -1.8366   -0.5852 H   0  0  0  0  0  0  0  0  0  0  0  0
   -6.6387    0.9207   -0.1082 H   0  0  0  0  0  0  0  0  0  0  0  0
   -5.1356    2.2834   -0.3073 H   0  0  0  0  0  0  0  0  0  0  0  0
   -3.2021    3.8475   -0.5282 H   0  0  0  0  0  0  0  0  0  0  0  0
   -0.9063    3.0345   -0.2601 H   0  0  0  0  0  0  0  0  0  0  0  0
   -2.4347   -0.8950    0.4496 H   0  0  0  0  0  0  0  0  0  0  0  0
    0.5137    1.1899    0.7090 H   0  0  0  0  0  0  0  0  0  0  0  0
   -0.2281   -0.4056    0.9947 H   0  0  0  0  0  0  0  0  0  0  0  0
    2.7041   -4.7814   -0.2548 H   0  0  0  0  0  0  0  0  0  0  0  0
    4.1188   -4.4419    0.8710 H   0  0  0  0  0  0  0  0  0  0  0  0
    5.6338    0.8487    1.4387 H   0  0  0  0  0  0  0  0  0  0  0  0
    7.7390    2.1383    1.2030 H   0  0  0  0  0  0  0  0  0  0  0  0
    8.9821    2.1738   -0.9697 H   0  0  0  0  0  0  0  0  0  0  0  0
    8.0665    0.8916   -2.8878 H   0  0  0  0  0  0  0  0  0  0  0  0
    6.0229   -0.3571   -2.6495 H   0  0  0  0  0  0  0  0  0  0  0  0
  1  2  1  0
  2  3  1  0
  3  4  1  0
  4  5  1  0
  5  6  2  0
  5  7  1  0
  7  8  2  0
  8  9  1  0
  9 10  2  0
 10 11  1  0
 11 12  2  0
 11 13  1  0
 13 14  1  0
 14 15  1  0
 15 16  2  0
 16 17  1  0
 17 18  1  0
 17 19  2  0
 19 20  1  0
 20 21  2  0
 21 22  1  0
 22 23  3  0
 20 24  1  0
 24 25  2  0
 25 26  1  0
 26 27  2  0
 27 28  1  0
 28 29  2  0
 19 30  1  0
 30 31  3  0
 12  7  1  0
 21 15  1  0
 29 24  1  0
  1 32  1  0
  1 33  1  0
  2 34  1  0
  2 35  1  0
  3 36  1  0
  3 37  1  0
  4 38  1  0
  8 39  1  0
  9 40  1  0
 10 41  1  0
 12 42  1  0
 13 43  1  0
 13 44  1  0
 18 45  1  0
 18 46  1  0
 25 47  1  0
 26 48  1  0
 27 49  1  0
 28 50  1  0
 29 51  1  0
M  END
>  <Ligand ID>  (1) 
LIG0002659

>  <Ligand>  (1) 
SCHEMBL3377531

>  <SMILES>  (1) 
NCCNC(=O)c1cccc(c1)CSc1nc(N)c(c(c1C#N)c1ccccc1)C#N

>  <CID>  (1) 
66633776.0

>  <ChEMBL ID>  (1) 
nan

>  <InChiKey>  (1) 
VPILLSACNTZHIJ-UHFFFAOYSA-N

>  <InChi>  (1) 
InChI=1S/C23H20N6OS/c24-9-10-28-22(30)17-8-4-5-15(11-17)14-31-23-19(13-26)20(16-6-2-1-3-7-16)18(12-25)21(27)29-23/h1-8,11H,9-10,14,24H2,(H2,27,29)(H,28,30)

>  <IUPAC Name>  (1) 
3-[(6-amino-3,5-dicyano-4-phenylpyridin-2-yl)sulfanylmethyl]-N-(2-aminoethyl)benzamide

$$$$
