
     RDKit          3D

 42 43  0  0  0  0  0  0  0  0999 V2000
    4.2804    2.4914   -0.5695 C   0  0  0  0  0  0  0  0  0  0  0  0
    4.4845    1.2681   -1.2024 O   0  0  0  0  0  0  0  0  0  0  0  0
    3.6474    0.1950   -0.9178 C   0  0  0  0  0  0  0  0  0  0  0  0
    3.8453   -1.0437   -1.5464 C   0  0  0  0  0  0  0  0  0  0  0  0
    2.9985   -2.1227   -1.2535 C   0  0  0  0  0  0  0  0  0  0  0  0
    1.9599   -2.0086   -0.3542 C   0  0  0  0  0  0  0  0  0  0  0  0
    1.7843   -0.7882    0.2476 C   0  0  0  0  0  0  0  0  0  0  0  0
    2.5933    0.3106   -0.0069 C   0  0  0  0  0  0  0  0  0  0  0  0
    0.6855   -0.9619    1.0936 C   0  0  0  0  0  0  0  0  0  0  0  0
    0.0386    0.0803    1.9563 C   0  0  0  0  0  0  0  0  0  0  0  0
   -0.8622    0.9014    1.0424 C   0  0  0  0  0  0  0  0  0  0  0  0
   -1.8518    0.0434    0.4192 N   0  0  0  0  0  0  0  0  0  0  0  0
   -2.7985   -0.4796    1.3831 C   0  0  0  0  0  0  0  0  0  0  0  0
   -3.6936   -1.4304    0.6494 C   0  0  0  0  0  0  0  0  0  0  0  0
   -4.9970   -1.2736    0.5590 C   0  0  0  0  0  0  0  0  0  0  0  0
   -2.5936    0.8530   -0.5274 C   0  0  0  0  0  0  0  0  0  0  0  0
   -1.6285    1.1952   -1.6369 C   0  0  0  0  0  0  0  0  0  0  0  0
   -1.3228    2.4513   -1.9380 C   0  0  0  0  0  0  0  0  0  0  0  0
    0.2661   -2.2665    0.9563 C   0  0  0  0  0  0  0  0  0  0  0  0
    1.0385   -2.8978    0.0788 N   0  0  0  0  0  0  0  0  0  0  0  0
    5.2155    3.1067   -0.6522 H   0  0  0  0  0  0  0  0  0  0  0  0
    4.0486    2.3944    0.5164 H   0  0  0  0  0  0  0  0  0  0  0  0
    3.4910    3.0603   -1.0732 H   0  0  0  0  0  0  0  0  0  0  0  0
    4.6686   -1.1619   -2.2702 H   0  0  0  0  0  0  0  0  0  0  0  0
    3.1246   -3.0894   -1.7222 H   0  0  0  0  0  0  0  0  0  0  0  0
    2.3922    1.2428    0.5062 H   0  0  0  0  0  0  0  0  0  0  0  0
   -0.4341   -0.3024    2.8506 H   0  0  0  0  0  0  0  0  0  0  0  0
    0.8438    0.7906    2.2570 H   0  0  0  0  0  0  0  0  0  0  0  0
   -1.3062    1.7351    1.6097 H   0  0  0  0  0  0  0  0  0  0  0  0
   -0.2209    1.3227    0.2489 H   0  0  0  0  0  0  0  0  0  0  0  0
   -2.2937   -1.0742    2.1766 H   0  0  0  0  0  0  0  0  0  0  0  0
   -3.4175    0.3488    1.7606 H   0  0  0  0  0  0  0  0  0  0  0  0
   -3.2706   -2.3196    0.1483 H   0  0  0  0  0  0  0  0  0  0  0  0
   -5.6769   -1.9428    0.0353 H   0  0  0  0  0  0  0  0  0  0  0  0
   -5.4076   -0.3766    1.0589 H   0  0  0  0  0  0  0  0  0  0  0  0
   -2.8237    1.8139   -0.0092 H   0  0  0  0  0  0  0  0  0  0  0  0
   -3.5098    0.3649   -0.9086 H   0  0  0  0  0  0  0  0  0  0  0  0
   -1.2166    0.3310   -2.1574 H   0  0  0  0  0  0  0  0  0  0  0  0
   -1.7864    3.2418   -1.3641 H   0  0  0  0  0  0  0  0  0  0  0  0
   -0.6343    2.6148   -2.7337 H   0  0  0  0  0  0  0  0  0  0  0  0
   -0.5700   -2.7137    1.4837 H   0  0  0  0  0  0  0  0  0  0  0  0
    0.9096   -3.9037   -0.1939 H   0  0  0  0  0  0  0  0  0  0  0  0
  1  2  1  0
  2  3  1  0
  3  4  2  0
  4  5  1  0
  5  6  2  0
  6  7  1  0
  7  8  2  0
  7  9  1  0
  9 10  1  0
 10 11  1  0
 11 12  1  0
 12 13  1  0
 13 14  1  0
 14 15  2  0
 12 16  1  0
 16 17  1  0
 17 18  2  0
  9 19  2  0
 19 20  1  0
  8  3  1  0
 20  6  1  0
  1 21  1  0
  1 22  1  0
  1 23  1  0
  4 24  1  0
  5 25  1  0
  8 26  1  0
 10 27  1  0
 10 28  1  0
 11 29  1  0
 11 30  1  0
 13 31  1  0
 13 32  1  0
 14 33  1  0
 15 34  1  0
 15 35  1  0
 16 36  1  0
 16 37  1  0
 17 38  1  0
 18 39  1  0
 18 40  1  0
 19 41  1  0
 20 42  1  0
M  END
>  <Ligand ID>  (1) 
LIG0004889

>  <Ligand>  (1) 
928822-98-4

>  <SMILES>  (1) 
COc1ccc2c(c1)c(CCN(CC=C)CC=C)c[nH]2

>  <CID>  (1) 
50878551.0

>  <ChEMBL ID>  (1) 
nan

>  <InChiKey>  (1) 
HGRHWEAUHXYNNP-UHFFFAOYSA-N

>  <InChi>  (1) 
InChI=1S/C17H22N2O/c1-4-9-19(10-5-2)11-8-14-13-18-17-7-6-15(20-3)12-16(14)17/h4-7,12-13,18H,1-2,8-11H2,3H3

>  <IUPAC Name>  (1) 
N-[2-(5-methoxy-1H-indol-3-yl)ethyl]-N-prop-2-enylprop-2-en-1-amine

$$$$
