
     RDKit          3D

 34 35  0  0  0  0  0  0  0  0999 V2000
    4.3367   -0.9312    0.4887 C   0  0  0  0  0  0  0  0  0  0  0  0
    3.1287   -0.2001   -0.0175 C   0  0  0  0  0  0  0  0  0  0  0  0
    3.2382    0.9627   -0.5293 O   0  0  0  0  0  0  0  0  0  0  0  0
    1.8878   -0.8024    0.0766 O   0  0  0  0  0  0  0  0  0  0  0  0
    0.7811   -0.1016   -0.4013 C   0  0  0  0  0  0  0  0  0  0  0  0
    0.0294   -0.8564   -1.4908 C   0  0  0  0  0  0  0  0  0  0  0  0
   -1.4262   -0.6609   -1.1641 C   0  0  0  0  0  0  0  0  0  0  0  0
   -1.3841    0.6198   -0.3517 C   0  0  0  0  0  0  0  0  0  0  0  0
   -0.3092    0.1129    0.6246 C   0  0  0  0  0  0  0  0  0  0  0  0
    0.0013    1.0854    1.6914 C   0  0  0  0  0  0  0  0  0  0  0  0
   -0.9579   -1.1604    1.0872 C   0  0  0  0  0  0  0  0  0  0  0  0
   -1.7634   -1.6705   -0.0964 C   0  0  0  0  0  0  0  0  0  0  0  0
   -0.8876    1.7934   -1.1648 C   0  0  0  0  0  0  0  0  0  0  0  0
   -2.6760    0.9440    0.3039 C   0  0  0  0  0  0  0  0  0  0  0  0
    5.0972   -0.1480    0.6905 H   0  0  0  0  0  0  0  0  0  0  0  0
    4.1435   -1.4405    1.4416 H   0  0  0  0  0  0  0  0  0  0  0  0
    4.7028   -1.6182   -0.3006 H   0  0  0  0  0  0  0  0  0  0  0  0
    1.0291    0.8958   -0.8179 H   0  0  0  0  0  0  0  0  0  0  0  0
    0.3128   -0.5699   -2.5043 H   0  0  0  0  0  0  0  0  0  0  0  0
    0.2851   -1.9272   -1.3588 H   0  0  0  0  0  0  0  0  0  0  0  0
   -2.0895   -0.6443   -2.0194 H   0  0  0  0  0  0  0  0  0  0  0  0
   -0.0098    0.5847    2.7009 H   0  0  0  0  0  0  0  0  0  0  0  0
    1.0163    1.4947    1.5438 H   0  0  0  0  0  0  0  0  0  0  0  0
   -0.7068    1.9347    1.7731 H   0  0  0  0  0  0  0  0  0  0  0  0
   -1.6737   -0.8714    1.8840 H   0  0  0  0  0  0  0  0  0  0  0  0
   -0.2691   -1.9267    1.4660 H   0  0  0  0  0  0  0  0  0  0  0  0
   -1.2976   -2.6477   -0.4159 H   0  0  0  0  0  0  0  0  0  0  0  0
   -2.8295   -1.7879    0.1098 H   0  0  0  0  0  0  0  0  0  0  0  0
   -0.2590    2.4549   -0.5493 H   0  0  0  0  0  0  0  0  0  0  0  0
   -1.8164    2.3538   -1.4760 H   0  0  0  0  0  0  0  0  0  0  0  0
   -0.4220    1.4924   -2.1239 H   0  0  0  0  0  0  0  0  0  0  0  0
   -3.1360    1.8040   -0.2645 H   0  0  0  0  0  0  0  0  0  0  0  0
   -2.6297    1.2791    1.3383 H   0  0  0  0  0  0  0  0  0  0  0  0
   -3.4465    0.1530    0.2461 H   0  0  0  0  0  0  0  0  0  0  0  0
  1  2  1  0
  2  3  2  0
  2  4  1  0
  4  5  1  0
  5  6  1  0
  6  7  1  0
  7  8  1  0
  8  9  1  0
  9 10  1  0
  9 11  1  0
 11 12  1  0
  8 13  1  0
  8 14  1  0
  9  5  1  0
 12  7  1  0
  1 15  1  0
  1 16  1  0
  1 17  1  0
  5 18  1  0
  6 19  1  0
  6 20  1  0
  7 21  1  0
 10 22  1  0
 10 23  1  0
 10 24  1  0
 11 25  1  0
 11 26  1  0
 12 27  1  0
 12 28  1  0
 13 29  1  0
 13 30  1  0
 13 31  1  0
 14 32  1  0
 14 33  1  0
 14 34  1  0
M  END
>  <Ligand ID>  (1) 
LIG0000398

>  <Ligand>  (1) 
Acetic acid 1,7,7-trimethyl-bicyclo(2.2.1)hept-2-yl ester

>  <SMILES>  (1) 
CC(=O)OC1CC2C(C1(C)CC2)(C)C

>  <CID>  (1) 
6448.0

>  <ChEMBL ID>  (1) 
nan

>  <InChiKey>  (1) 
KGEKLUUHTZCSIP-UHFFFAOYSA-N

>  <InChi>  (1) 
InChI=1S/C12H20O2/c1-8(13)14-10-7-9-5-6-12(10,4)11(9,2)3/h9-10H,5-7H2,1-4H3

>  <IUPAC Name>  (1) 
(1,7,7-trimethyl-2-bicyclo[2.2.1]heptanyl) acetate

$$$$
