
     RDKit          3D

 95 98  0  0  0  0  0  0  0  0999 V2000
   -1.3860    7.1591    1.5604 N   0  0  0  0  0  0  0  0  0  0  0  0
   -1.2375    5.7842    1.1952 C   0  0  0  0  0  0  0  0  0  0  0  0
   -1.9499    5.3883    0.1902 N   0  0  0  0  0  0  0  0  0  0  0  0
   -1.9305    4.0232   -0.3226 C   0  0  0  0  0  0  0  0  0  0  0  0
   -2.9250    3.2202    0.4470 C   0  0  0  0  0  0  0  0  0  0  0  0
   -3.0612    1.7917    0.0540 C   0  0  0  0  0  0  0  0  0  0  0  0
   -1.8599    0.9333    0.1684 C   0  0  1  0  0  0  0  0  0  0  0  0
   -2.1461   -0.4833   -0.2588 C   0  0  0  0  0  0  0  0  0  0  0  0
   -1.5523   -0.8482   -1.3190 O   0  0  0  0  0  0  0  0  0  0  0  0
   -3.0040   -1.2904    0.4961 N   0  0  0  0  0  0  0  0  0  0  0  0
   -3.3110   -2.6583    0.1243 C   0  0  1  0  0  0  0  0  0  0  0  0
   -2.1007   -3.4472    0.6246 C   0  0  0  0  0  0  0  0  0  0  0  0
   -2.0462   -4.7005    0.3720 O   0  0  0  0  0  0  0  0  0  0  0  0
   -1.0586   -2.8668    1.3417 N   0  0  0  0  0  0  0  0  0  0  0  0
   -4.5396   -3.1731    0.7840 C   0  0  0  0  0  0  0  0  0  0  0  0
   -5.7832   -2.4426    0.4921 C   0  0  0  0  0  0  0  0  0  0  0  0
   -6.2090   -1.5002    1.4449 C   0  0  0  0  0  0  0  0  0  0  0  0
   -7.3863   -0.7778    1.2061 C   0  0  0  0  0  0  0  0  0  0  0  0
   -8.1459   -0.9571    0.0705 C   0  0  0  0  0  0  0  0  0  0  0  0
   -7.6969   -1.8867   -0.8367 C   0  0  0  0  0  0  0  0  0  0  0  0
   -6.5450   -2.6200   -0.6456 C   0  0  0  0  0  0  0  0  0  0  0  0
   -6.1183   -3.5608   -1.5613 C   0  0  0  0  0  0  0  0  0  0  0  0
   -6.8789   -3.7665   -2.7048 C   0  0  0  0  0  0  0  0  0  0  0  0
   -8.0461   -3.0375   -2.9197 C   0  0  0  0  0  0  0  0  0  0  0  0
   -8.4485   -2.0925   -1.9700 C   0  0  0  0  0  0  0  0  0  0  0  0
   -0.7309    1.3341   -0.6488 N   0  0  0  0  0  0  0  0  0  0  0  0
    0.5457    1.2090   -0.0823 C   0  0  0  0  0  0  0  0  0  0  0  0
    0.6036    0.7444    1.1212 O   0  0  0  0  0  0  0  0  0  0  0  0
    1.8494    1.5400   -0.6823 C   0  0  1  0  0  0  0  0  0  0  0  0
    2.9249    1.1818    0.2364 N   0  0  0  0  0  0  0  0  0  0  0  0
    3.1678   -0.2050    0.4121 C   0  0  0  0  0  0  0  0  0  0  0  0
    2.4484   -1.0143   -0.2531 O   0  0  0  0  0  0  0  0  0  0  0  0
    4.1818   -0.7846    1.3039 C   0  0  2  0  0  0  0  0  0  0  0  0
    5.5710   -0.2138    1.0052 C   0  0  0  0  0  0  0  0  0  0  0  0
    6.5473   -0.7355    2.0326 C   0  0  0  0  0  0  0  0  0  0  0  0
    7.8736   -0.5201    2.0950 N   0  0  0  0  0  0  0  0  0  0  0  0
    8.3417   -1.1118    3.2087 C   0  0  0  0  0  0  0  0  0  0  0  0
    7.3600   -1.7108    3.8805 N   0  0  0  0  0  0  0  0  0  0  0  0
    6.2481   -1.4848    3.1636 C   0  0  0  0  0  0  0  0  0  0  0  0
    4.1890   -2.2345    1.1294 N   0  0  0  0  0  0  0  0  0  0  0  0
    5.2112   -3.0818    0.7328 C   0  0  0  0  0  0  0  0  0  0  0  0
    6.3866   -2.7983    0.4038 O   0  0  0  0  0  0  0  0  0  0  0  0
    4.9020   -4.5666    0.6764 C   0  0  0  0  0  0  0  0  0  0  0  0
    2.0506    1.1217   -2.0895 C   0  0  0  0  0  0  0  0  0  0  0  0
    3.3806    1.5186   -2.5804 C   0  0  0  0  0  0  0  0  0  0  0  0
    3.4873    2.7979   -3.1221 C   0  0  0  0  0  0  0  0  0  0  0  0
    4.7033    3.2730   -3.6238 C   0  0  0  0  0  0  0  0  0  0  0  0
    5.8451    2.4857   -3.5994 C   0  0  0  0  0  0  0  0  0  0  0  0
    5.7292    1.2188   -3.0609 C   0  0  0  0  0  0  0  0  0  0  0  0
    4.5070    0.7450   -2.5576 C   0  0  0  0  0  0  0  0  0  0  0  0
   -0.3520    4.9257    1.9042 N   0  0  0  0  0  0  0  0  0  0  0  0
   -1.5890    7.9143    0.8655 H   0  0  0  0  0  0  0  0  0  0  0  0
   -1.3016    7.4897    2.5495 H   0  0  0  0  0  0  0  0  0  0  0  0
   -2.2205    4.0607   -1.3791 H   0  0  0  0  0  0  0  0  0  0  0  0
   -0.8800    3.6830   -0.1611 H   0  0  0  0  0  0  0  0  0  0  0  0
   -2.7515    3.3490    1.5526 H   0  0  0  0  0  0  0  0  0  0  0  0
   -3.9331    3.7023    0.2625 H   0  0  0  0  0  0  0  0  0  0  0  0
   -3.8534    1.3536    0.7329 H   0  0  0  0  0  0  0  0  0  0  0  0
   -3.5470    1.7191   -0.9639 H   0  0  0  0  0  0  0  0  0  0  0  0
   -1.5620    0.8242    1.2258 H   0  0  0  0  0  0  0  0  0  0  0  0
   -3.4624   -0.9252    1.3690 H   0  0  0  0  0  0  0  0  0  0  0  0
   -3.3368   -2.7374   -0.9654 H   0  0  0  0  0  0  0  0  0  0  0  0
   -1.1565   -2.4829    2.3111 H   0  0  0  0  0  0  0  0  0  0  0  0
   -0.0879   -2.7806    0.9314 H   0  0  0  0  0  0  0  0  0  0  0  0
   -4.6601   -4.2789    0.6818 H   0  0  0  0  0  0  0  0  0  0  0  0
   -4.3367   -3.0689    1.9046 H   0  0  0  0  0  0  0  0  0  0  0  0
   -5.6431   -1.3256    2.3558 H   0  0  0  0  0  0  0  0  0  0  0  0
   -7.6977   -0.0558    1.9496 H   0  0  0  0  0  0  0  0  0  0  0  0
   -9.0712   -0.3948   -0.1164 H   0  0  0  0  0  0  0  0  0  0  0  0
   -5.2167   -4.1504   -1.4348 H   0  0  0  0  0  0  0  0  0  0  0  0
   -6.5490   -4.5033   -3.4247 H   0  0  0  0  0  0  0  0  0  0  0  0
   -8.6443   -3.2010   -3.8180 H   0  0  0  0  0  0  0  0  0  0  0  0
   -9.3644   -1.5100   -2.1239 H   0  0  0  0  0  0  0  0  0  0  0  0
   -0.8024    1.7009   -1.6182 H   0  0  0  0  0  0  0  0  0  0  0  0
    1.8774    2.6750   -0.7046 H   0  0  0  0  0  0  0  0  0  0  0  0
    3.5052    1.8713    0.7547 H   0  0  0  0  0  0  0  0  0  0  0  0
    4.0612   -0.5826    2.3738 H   0  0  0  0  0  0  0  0  0  0  0  0
    5.9441   -0.5092    0.0167 H   0  0  0  0  0  0  0  0  0  0  0  0
    5.5490    0.8790    1.1498 H   0  0  0  0  0  0  0  0  0  0  0  0
    8.4625    0.0046    1.4142 H   0  0  0  0  0  0  0  0  0  0  0  0
    9.3739   -1.1227    3.5454 H   0  0  0  0  0  0  0  0  0  0  0  0
    5.2660   -1.8393    3.4445 H   0  0  0  0  0  0  0  0  0  0  0  0
    3.2455   -2.6842    1.3518 H   0  0  0  0  0  0  0  0  0  0  0  0
    5.2606   -4.9324   -0.3028 H   0  0  0  0  0  0  0  0  0  0  0  0
    5.4827   -5.0995    1.4727 H   0  0  0  0  0  0  0  0  0  0  0  0
    3.8369   -4.7630    0.8043 H   0  0  0  0  0  0  0  0  0  0  0  0
    1.2840    1.7007   -2.6927 H   0  0  0  0  0  0  0  0  0  0  0  0
    1.8033    0.0637   -2.3276 H   0  0  0  0  0  0  0  0  0  0  0  0
    2.6188    3.4626   -3.1685 H   0  0  0  0  0  0  0  0  0  0  0  0
    4.7712    4.2870   -4.0491 H   0  0  0  0  0  0  0  0  0  0  0  0
    6.7821    2.8744   -3.9980 H   0  0  0  0  0  0  0  0  0  0  0  0
    6.5535    0.5495   -3.0026 H   0  0  0  0  0  0  0  0  0  0  0  0
    4.4365   -0.2594   -2.1435 H   0  0  0  0  0  0  0  0  0  0  0  0
   -0.4344    4.8426    2.9474 H   0  0  0  0  0  0  0  0  0  0  0  0
    0.3815    4.3761    1.3890 H   0  0  0  0  0  0  0  0  0  0  0  0
  1  2  1  0
  2  3  2  3
  3  4  1  0
  4  5  1  0
  5  6  1  0
  6  7  1  0
  7  8  1  0
  8  9  2  0
  8 10  1  0
 10 11  1  0
 11 12  1  0
 12 13  2  0
 12 14  1  0
 11 15  1  0
 15 16  1  0
 16 17  2  0
 17 18  1  0
 18 19  2  0
 19 20  1  0
 20 21  2  0
 21 22  1  0
 22 23  2  0
 23 24  1  0
 24 25  2  0
  7 26  1  0
 26 27  1  0
 27 28  2  0
 27 29  1  0
 29 30  1  0
 30 31  1  0
 31 32  2  0
 31 33  1  0
 33 34  1  0
 34 35  1  0
 35 36  1  0
 36 37  1  0
 37 38  2  0
 38 39  1  0
 33 40  1  0
 40 41  1  0
 41 42  2  0
 41 43  1  0
 29 44  1  0
 44 45  1  0
 45 46  2  0
 46 47  1  0
 47 48  2  0
 48 49  1  0
 49 50  2  0
  2 51  1  0
 21 16  1  0
 39 35  2  0
 50 45  1  0
 25 20  1  0
  1 52  1  0
  1 53  1  0
  4 54  1  0
  4 55  1  0
  5 56  1  0
  5 57  1  0
  6 58  1  0
  6 59  1  0
  7 60  1  1
 10 61  1  0
 11 62  1  6
 14 63  1  0
 14 64  1  0
 15 65  1  0
 15 66  1  0
 17 67  1  0
 18 68  1  0
 19 69  1  0
 22 70  1  0
 23 71  1  0
 24 72  1  0
 25 73  1  0
 26 74  1  0
 29 75  1  6
 30 76  1  0
 33 77  1  1
 34 78  1  0
 34 79  1  0
 36 80  1  0
 37 81  1  0
 39 82  1  0
 40 83  1  0
 43 84  1  0
 43 85  1  0
 43 86  1  0
 44 87  1  0
 44 88  1  0
 46 89  1  0
 47 90  1  0
 48 91  1  0
 49 92  1  0
 50 93  1  0
 51 94  1  0
 51 95  1  0
M  END
>  <Ligand ID>  (1) 
LIG0001411

>  <Ligand>  (1) 
CHEMBL154153

>  <SMILES>  (1) 
NC(=NCCC[C@@H](C(=O)N[C@@H](C(=O)N)Cc1cccc2c1cccc2)NC(=O)[C@@H](NC(=O)[C@H](Cc1[nH]cnc1)NC(=O)C)Cc1ccccc1)N

>  <CID>  (1) 
44368898.0

>  <ChEMBL ID>  (1) 
nan

>  <InChiKey>  (1) 
ZOSNQMLKRGKNRN-JVVMDBNWSA-N

>  <InChi>  (1) 
InChI=1S/C36H44N10O5/c1-22(47)43-31(19-26-20-40-21-42-26)35(51)46-30(17-23-9-3-2-4-10-23)34(50)44-28(15-8-16-41-36(38)39)33(49)45-29(32(37)48)18-25-13-7-12-24-11-5-6-14-27(24)25/h2-7,9-14,20-21,28-31H,8,15-19H2,1H3,(H2,37,48)(H,40,42)(H,43,47)(H,44,50)(H,45,49)(H,46,51)(H4,38,39,41)/t28-,29+,30-,31-/m0/s1

>  <IUPAC Name>  (1) 
(2S)-2-[[(2S)-2-[[(2S)-2-acetamido-3-(1H-imidazol-5-yl)propanoyl]amino]-3-phenylpropanoyl]amino]-N-[(2R)-1-amino-3-naphthalen-1-yl-1-oxopropan-2-yl]-5-(diaminomethylideneamino)pentanamide

$$$$
