
     RDKit          3D

 19 20  0  0  0  0  0  0  0  0999 V2000
    3.0251    1.5261    0.1864 O   0  0  0  0  0  0  0  0  0  0  0  0
    2.6203    0.4298   -0.6095 C   0  0  0  0  0  0  0  0  0  0  0  0
    1.2232    0.0190   -0.2794 C   0  0  0  0  0  0  0  0  0  0  0  0
    1.0194   -0.9334    0.7103 C   0  0  0  0  0  0  0  0  0  0  0  0
   -0.2533   -1.3577    1.0638 C   0  0  0  0  0  0  0  0  0  0  0  0
   -1.3072   -0.7853    0.3820 C   0  0  0  0  0  0  0  0  0  0  0  0
   -1.1143    0.1722   -0.6139 C   0  0  0  0  0  0  0  0  0  0  0  0
    0.1509    0.5824   -0.9531 C   0  0  0  0  0  0  0  0  0  0  0  0
   -2.4022    0.4992   -1.0541 O   0  0  0  0  0  0  0  0  0  0  0  0
   -3.3269    0.1919    0.0005 C   0  0  0  0  0  0  0  0  0  0  0  0
   -2.6960   -0.9929    0.4984 O   0  0  0  0  0  0  0  0  0  0  0  0
    2.8262    1.3351    1.1448 H   0  0  0  0  0  0  0  0  0  0  0  0
    3.3262   -0.4062   -0.5606 H   0  0  0  0  0  0  0  0  0  0  0  0
    2.6752    0.8264   -1.6601 H   0  0  0  0  0  0  0  0  0  0  0  0
    1.8860   -1.3319    1.1949 H   0  0  0  0  0  0  0  0  0  0  0  0
   -0.3855   -2.1014    1.8387 H   0  0  0  0  0  0  0  0  0  0  0  0
    0.2694    1.3108   -1.7128 H   0  0  0  0  0  0  0  0  0  0  0  0
   -3.1949    0.9785    0.7744 H   0  0  0  0  0  0  0  0  0  0  0  0
   -4.3416    0.0376   -0.3508 H   0  0  0  0  0  0  0  0  0  0  0  0
  1  2  1  0
  2  3  1  0
  3  4  2  0
  4  5  1  0
  5  6  2  0
  6  7  1  0
  7  8  2  0
  7  9  1  0
  9 10  1  0
 10 11  1  0
  8  3  1  0
 11  6  1  0
  1 12  1  0
  2 13  1  0
  2 14  1  0
  4 15  1  0
  5 16  1  0
  8 17  1  0
 10 18  1  0
 10 19  1  0
M  END
>  <Ligand ID>  (1) 
LIG0000197

>  <Ligand>  (1) 
Piperonyl alcohol

>  <SMILES>  (1) 
OCc1ccc2c(c1)OCO2

>  <CID>  (1) 
10322.0

>  <ChEMBL ID>  (1) 
nan

>  <InChiKey>  (1) 
BHUIUXNAPJIDOG-UHFFFAOYSA-N

>  <InChi>  (1) 
InChI=1S/C8H8O3/c9-4-6-1-2-7-8(3-6)11-5-10-7/h1-3,9H,4-5H2

>  <IUPAC Name>  (1) 
1,3-benzodioxol-5-ylmethanol

$$$$
