
     RDKit          3D

138140  0  0  0  0  0  0  0  0999 V2000
    7.4437    2.3673    3.9479 C   0  0  0  0  0  0  0  0  0  0  0  0
    6.8814    0.8608    3.1536 S   0  0  0  0  0  0  0  0  0  0  0  0
    8.2206   -0.2856    2.7472 C   0  0  0  0  0  0  0  0  0  0  0  0
    9.1417    0.2765    1.6881 C   0  0  0  0  0  0  0  0  0  0  0  0
    8.4540    0.5775    0.3898 C   0  0  1  0  0  0  0  0  0  0  0  0
    9.4477    1.1090   -0.5662 C   0  0  0  0  0  0  0  0  0  0  0  0
    9.6224    0.6262   -1.7231 O   0  0  0  0  0  0  0  0  0  0  0  0
   10.2331    2.2258   -0.1240 N   0  0  0  0  0  0  0  0  0  0  0  0
    7.7125   -0.5595   -0.1241 N   0  0  0  0  0  0  0  0  0  0  0  0
    6.3530   -0.4258   -0.3584 C   0  0  0  0  0  0  0  0  0  0  0  0
    5.7437    0.6595   -0.1326 O   0  0  0  0  0  0  0  0  0  0  0  0
    5.4563   -1.5344   -0.8908 C   0  0  1  0  0  0  0  0  0  0  0  0
    4.0661   -1.0702   -0.6613 N   0  0  0  0  0  0  0  0  0  0  0  0
    3.4441   -1.1836    0.6126 C   0  0  0  0  0  0  0  0  0  0  0  0
    3.9727   -1.6782    1.6231 O   0  0  0  0  0  0  0  0  0  0  0  0
    2.0553   -0.6417    0.7221 C   0  0  0  0  0  0  0  0  0  0  0  0
    1.5132   -0.2629   -0.5031 N   0  0  0  0  0  0  0  0  0  0  0  0
    1.7779    1.0013   -1.2421 C   0  0  0  0  0  0  0  0  0  0  0  0
    0.6495    1.9329   -0.8897 C   0  0  0  0  0  0  0  0  0  0  0  0
    0.6474    3.2125   -1.7147 C   0  0  0  0  0  0  0  0  0  0  0  0
   -0.7355    3.7667   -1.4643 C   0  0  0  0  0  0  0  0  0  0  0  0
   -0.9964    4.9666   -2.3451 C   0  0  0  0  0  0  0  0  0  0  0  0
   -2.5026    5.2427   -2.2649 C   0  0  0  0  0  0  0  0  0  0  0  0
   -2.9289    5.6103   -0.9312 N   0  0  0  0  0  0  0  0  0  0  0  0
   -4.3388    5.6770   -0.7368 C   0  0  0  0  0  0  0  0  0  0  0  0
   -5.0142    5.3818   -1.7349 O   0  0  0  0  0  0  0  0  0  0  0  0
   -5.0363    6.0487    0.5087 C   0  0  0  0  0  0  0  0  0  0  0  0
   -6.3260    5.1505    0.4928 C   0  0  0  0  0  0  0  0  0  0  0  0
   -5.8282    3.7764    0.7660 C   0  0  0  0  0  0  0  0  0  0  0  0
   -4.6742    3.6365    1.1557 O   0  0  0  0  0  0  0  0  0  0  0  0
   -6.6023    2.5696    0.6020 N   0  0  0  0  0  0  0  0  0  0  0  0
   -5.9878    1.3556    1.0559 C   0  0  2  0  0  0  0  0  0  0  0  0
   -5.3378    0.5894   -0.0869 C   0  0  0  0  0  0  0  0  0  0  0  0
   -5.3952    0.9444   -1.2639 O   0  0  0  0  0  0  0  0  0  0  0  0
   -4.6116   -0.6060    0.1693 N   0  0  0  0  0  0  0  0  0  0  0  0
   -3.9167   -1.3875   -0.8395 C   0  0  1  0  0  0  0  0  0  0  0  0
   -2.5007   -1.5947   -0.4323 C   0  0  0  0  0  0  0  0  0  0  0  0
   -2.1672   -1.1711    0.6887 O   0  0  0  0  0  0  0  0  0  0  0  0
   -1.4895   -2.2211   -1.1841 N   0  0  0  0  0  0  0  0  0  0  0  0
   -0.0970   -2.2977   -0.5223 C   0  0  2  0  0  0  0  0  0  0  0  0
    0.5773   -1.1282   -1.1295 C   0  0  0  0  0  0  0  0  0  0  0  0
    0.3178   -0.8336   -2.2904 O   0  0  0  0  0  0  0  0  0  0  0  0
    0.3716   -3.6019   -1.0220 C   0  0  0  0  0  0  0  0  0  0  0  0
    1.6601   -4.1405   -0.6171 C   0  0  0  0  0  0  0  0  0  0  0  0
    2.8378   -4.0541   -1.3189 C   0  0  0  0  0  0  0  0  0  0  0  0
    3.9609   -4.6559   -0.8032 C   0  0  0  0  0  0  0  0  0  0  0  0
    3.9898   -5.3490    0.3881 C   0  0  0  0  0  0  0  0  0  0  0  0
    2.8142   -5.4365    1.0952 C   0  0  0  0  0  0  0  0  0  0  0  0
    1.6789   -4.8461    0.6029 C   0  0  0  0  0  0  0  0  0  0  0  0
   -4.5705   -2.7573   -0.8307 C   0  0  0  0  0  0  0  0  0  0  0  0
   -4.4475   -3.4046    0.5078 C   0  0  0  0  0  0  0  0  0  0  0  0
   -3.3898   -4.2128    0.8600 C   0  0  0  0  0  0  0  0  0  0  0  0
   -3.2663   -4.8096    2.1016 C   0  0  0  0  0  0  0  0  0  0  0  0
   -4.2437   -4.6006    3.0612 C   0  0  0  0  0  0  0  0  0  0  0  0
   -5.3361   -3.7841    2.7394 C   0  0  0  0  0  0  0  0  0  0  0  0
   -5.4161   -3.2087    1.4846 C   0  0  0  0  0  0  0  0  0  0  0  0
   -6.8314    0.4633    1.8840 C   0  0  0  0  0  0  0  0  0  0  0  0
   -8.0472   -0.1665    1.3709 C   0  0  0  0  0  0  0  0  0  0  0  0
   -9.1480    0.7145    0.8848 C   0  0  0  0  0  0  0  0  0  0  0  0
   -9.5581    1.6385    1.9207 N   0  0  0  0  0  0  0  0  0  0  0  0
  -10.1529    2.7466    1.6409 C   0  0  0  0  0  0  0  0  0  0  0  0
  -10.3963    3.0319    0.2608 N   0  0  0  0  0  0  0  0  0  0  0  0
  -10.5379    3.6275    2.6906 N   0  0  0  0  0  0  0  0  0  0  0  0
    5.6588   -1.8180   -2.3321 C   0  0  0  0  0  0  0  0  0  0  0  0
    7.0343   -2.2533   -2.6635 C   0  0  0  0  0  0  0  0  0  0  0  0
    7.1705   -2.5331   -4.1752 C   0  0  0  0  0  0  0  0  0  0  0  0
    7.4594   -3.4984   -1.9627 C   0  0  0  0  0  0  0  0  0  0  0  0
    7.7242    2.1465    5.0011 H   0  0  0  0  0  0  0  0  0  0  0  0
    6.5550    3.0571    3.9871 H   0  0  0  0  0  0  0  0  0  0  0  0
    8.2409    2.8253    3.3562 H   0  0  0  0  0  0  0  0  0  0  0  0
    7.7094   -1.2306    2.4134 H   0  0  0  0  0  0  0  0  0  0  0  0
    8.8518   -0.4969    3.6465 H   0  0  0  0  0  0  0  0  0  0  0  0
    9.4762    1.2707    2.0922 H   0  0  0  0  0  0  0  0  0  0  0  0
   10.0700   -0.3201    1.5864 H   0  0  0  0  0  0  0  0  0  0  0  0
    7.7030    1.3860    0.5874 H   0  0  0  0  0  0  0  0  0  0  0  0
   11.2763    2.1548    0.0035 H   0  0  0  0  0  0  0  0  0  0  0  0
    9.7063    3.1065    0.0586 H   0  0  0  0  0  0  0  0  0  0  0  0
    8.2575   -1.4314   -0.2645 H   0  0  0  0  0  0  0  0  0  0  0  0
    5.6095   -2.4051   -0.2606 H   0  0  0  0  0  0  0  0  0  0  0  0
    3.5777   -0.6559   -1.5026 H   0  0  0  0  0  0  0  0  0  0  0  0
    1.4257   -1.3015    1.3539 H   0  0  0  0  0  0  0  0  0  0  0  0
    2.1429    0.3036    1.3308 H   0  0  0  0  0  0  0  0  0  0  0  0
    1.7774    0.8033   -2.3100 H   0  0  0  0  0  0  0  0  0  0  0  0
    2.7033    1.4720   -0.8461 H   0  0  0  0  0  0  0  0  0  0  0  0
   -0.3154    1.3954   -1.0423 H   0  0  0  0  0  0  0  0  0  0  0  0
    0.6905    2.1925    0.1918 H   0  0  0  0  0  0  0  0  0  0  0  0
    0.8207    2.9897   -2.7762 H   0  0  0  0  0  0  0  0  0  0  0  0
    1.4533    3.8650   -1.3122 H   0  0  0  0  0  0  0  0  0  0  0  0
   -1.4773    2.9634   -1.5939 H   0  0  0  0  0  0  0  0  0  0  0  0
   -0.8167    4.1595   -0.4086 H   0  0  0  0  0  0  0  0  0  0  0  0
   -0.3856    5.7922   -1.9970 H   0  0  0  0  0  0  0  0  0  0  0  0
   -0.7730    4.7003   -3.3741 H   0  0  0  0  0  0  0  0  0  0  0  0
   -3.0474    4.3082   -2.5112 H   0  0  0  0  0  0  0  0  0  0  0  0
   -2.7690    6.0230   -3.0120 H   0  0  0  0  0  0  0  0  0  0  0  0
   -2.3549    5.8224   -0.1280 H   0  0  0  0  0  0  0  0  0  0  0  0
   -5.3338    7.1026    0.4160 H   0  0  0  0  0  0  0  0  0  0  0  0
   -4.4691    5.8850    1.4226 H   0  0  0  0  0  0  0  0  0  0  0  0
   -6.9603    5.5054    1.3243 H   0  0  0  0  0  0  0  0  0  0  0  0
   -6.8310    5.2662   -0.4685 H   0  0  0  0  0  0  0  0  0  0  0  0
   -7.4975    2.7351    0.1740 H   0  0  0  0  0  0  0  0  0  0  0  0
   -5.0978    1.6227    1.7520 H   0  0  0  0  0  0  0  0  0  0  0  0
   -4.5791   -0.9224    1.1304 H   0  0  0  0  0  0  0  0  0  0  0  0
   -3.9883   -0.9558   -1.8326 H   0  0  0  0  0  0  0  0  0  0  0  0
   -1.6712   -2.5858   -2.0802 H   0  0  0  0  0  0  0  0  0  0  0  0
   -0.2300   -2.1758    0.5600 H   0  0  0  0  0  0  0  0  0  0  0  0
    0.2781   -3.6012   -2.1717 H   0  0  0  0  0  0  0  0  0  0  0  0
   -0.4105   -4.4083   -0.7802 H   0  0  0  0  0  0  0  0  0  0  0  0
    2.8057   -3.5127   -2.2527 H   0  0  0  0  0  0  0  0  0  0  0  0
    4.8930   -4.6067   -1.3475 H   0  0  0  0  0  0  0  0  0  0  0  0
    4.9218   -5.8057    0.7423 H   0  0  0  0  0  0  0  0  0  0  0  0
    2.7631   -5.9666    2.0398 H   0  0  0  0  0  0  0  0  0  0  0  0
    0.7667   -4.9400    1.1965 H   0  0  0  0  0  0  0  0  0  0  0  0
   -4.1407   -3.3906   -1.6399 H   0  0  0  0  0  0  0  0  0  0  0  0
   -5.6548   -2.7005   -1.0603 H   0  0  0  0  0  0  0  0  0  0  0  0
   -2.6108   -4.4007    0.1408 H   0  0  0  0  0  0  0  0  0  0  0  0
   -2.3879   -5.4442    2.3029 H   0  0  0  0  0  0  0  0  0  0  0  0
   -4.1442   -5.0678    4.0305 H   0  0  0  0  0  0  0  0  0  0  0  0
   -6.0998   -3.6261    3.4993 H   0  0  0  0  0  0  0  0  0  0  0  0
   -6.2932   -2.5855    1.3023 H   0  0  0  0  0  0  0  0  0  0  0  0
   -6.1401   -0.3881    2.2157 H   0  0  0  0  0  0  0  0  0  0  0  0
   -7.0341    0.9930    2.8830 H   0  0  0  0  0  0  0  0  0  0  0  0
   -8.5372   -0.8220    2.1746 H   0  0  0  0  0  0  0  0  0  0  0  0
   -7.8475   -0.9242    0.5591 H   0  0  0  0  0  0  0  0  0  0  0  0
  -10.0811    0.0353    0.7130 H   0  0  0  0  0  0  0  0  0  0  0  0
   -8.9977    1.2061   -0.0723 H   0  0  0  0  0  0  0  0  0  0  0  0
  -10.0727    3.9439   -0.1271 H   0  0  0  0  0  0  0  0  0  0  0  0
  -10.8911    2.2942   -0.2724 H   0  0  0  0  0  0  0  0  0  0  0  0
   -9.8200    4.3321    3.0198 H   0  0  0  0  0  0  0  0  0  0  0  0
  -11.4818    3.6077    3.1448 H   0  0  0  0  0  0  0  0  0  0  0  0
    5.3221   -0.9536   -2.9821 H   0  0  0  0  0  0  0  0  0  0  0  0
    4.9638   -2.6360   -2.6242 H   0  0  0  0  0  0  0  0  0  0  0  0
    7.7609   -1.4464   -2.4715 H   0  0  0  0  0  0  0  0  0  0  0  0
    7.0538   -1.5743   -4.6938 H   0  0  0  0  0  0  0  0  0  0  0  0
    8.1818   -2.9555   -4.3383 H   0  0  0  0  0  0  0  0  0  0  0  0
    6.4212   -3.3023   -4.4008 H   0  0  0  0  0  0  0  0  0  0  0  0
    7.1649   -4.3905   -2.5470 H   0  0  0  0  0  0  0  0  0  0  0  0
    8.5754   -3.4875   -1.8343 H   0  0  0  0  0  0  0  0  0  0  0  0
    7.0593   -3.6235   -0.9514 H   0  0  0  0  0  0  0  0  0  0  0  0
  1  2  1  0
  2  3  1  0
  3  4  1  0
  4  5  1  0
  5  6  1  0
  6  7  2  0
  6  8  1  0
  5  9  1  0
  9 10  1  0
 10 11  2  0
 10 12  1  0
 12 13  1  0
 13 14  1  0
 14 15  2  0
 14 16  1  0
 16 17  1  0
 17 18  1  0
 18 19  1  0
 19 20  1  0
 20 21  1  0
 21 22  1  0
 22 23  1  0
 23 24  1  0
 24 25  1  0
 25 26  2  0
 25 27  1  0
 27 28  1  0
 28 29  1  0
 29 30  2  0
 29 31  1  0
 31 32  1  0
 32 33  1  0
 33 34  2  0
 33 35  1  0
 35 36  1  0
 36 37  1  0
 37 38  2  0
 37 39  1  0
 39 40  1  0
 40 41  1  0
 41 42  2  0
 40 43  1  0
 43 44  1  0
 44 45  2  0
 45 46  1  0
 46 47  2  0
 47 48  1  0
 48 49  2  0
 36 50  1  0
 50 51  1  0
 51 52  2  0
 52 53  1  0
 53 54  2  0
 54 55  1  0
 55 56  2  0
 32 57  1  0
 57 58  1  0
 58 59  1  0
 59 60  1  0
 60 61  2  3
 61 62  1  0
 61 63  1  0
 12 64  1  0
 64 65  1  0
 65 66  1  0
 65 67  1  0
 41 17  1  0
 49 44  1  0
 56 51  1  0
  1 68  1  0
  1 69  1  0
  1 70  1  0
  3 71  1  0
  3 72  1  0
  4 73  1  0
  4 74  1  0
  5 75  1  1
  8 76  1  0
  8 77  1  0
  9 78  1  0
 12 79  1  1
 13 80  1  0
 16 81  1  0
 16 82  1  0
 18 83  1  0
 18 84  1  0
 19 85  1  0
 19 86  1  0
 20 87  1  0
 20 88  1  0
 21 89  1  0
 21 90  1  0
 22 91  1  0
 22 92  1  0
 23 93  1  0
 23 94  1  0
 24 95  1  0
 27 96  1  0
 27 97  1  0
 28 98  1  0
 28 99  1  0
 31100  1  0
 32101  1  1
 35102  1  0
 36103  1  6
 39104  1  0
 40105  1  1
 43106  1  0
 43107  1  0
 45108  1  0
 46109  1  0
 47110  1  0
 48111  1  0
 49112  1  0
 50113  1  0
 50114  1  0
 52115  1  0
 53116  1  0
 54117  1  0
 55118  1  0
 56119  1  0
 57120  1  0
 57121  1  0
 58122  1  0
 58123  1  0
 59124  1  0
 59125  1  0
 62126  1  0
 62127  1  0
 63128  1  0
 63129  1  0
 64130  1  0
 64131  1  0
 65132  1  0
 66133  1  0
 66134  1  0
 66135  1  0
 67136  1  0
 67137  1  0
 67138  1  0
M  END
>  <Ligand ID>  (1) 
LIG0003432

>  <Ligand>  (1) 
CHEMBL323028

>  <SMILES>  (1) 
CSCC[C@@H](C(=O)N)NC(=O)[C@@H](NC(=O)CN1CCCCCCNC(=O)CCC(=O)N[C@H](C(=O)N[C@@H](C(=O)N[C@H](C1=O)Cc1ccccc1)Cc1ccccc1)CCCN=C(N)N)CC(C)C

>  <CID>  (1) 
44337560.0

>  <ChEMBL ID>  (1) 
nan

>  <InChiKey>  (1) 
WWIIPPGDXFNDIN-AKHKZFQHSA-N

>  <InChi>  (1) 
InChI=1S/C47H71N11O8S/c1-31(2)27-36(44(64)55-34(42(48)62)22-26-67-3)54-41(61)30-58-25-13-5-4-12-23-51-39(59)20-21-40(60)53-35(19-14-24-52-47(49)50)43(63)56-37(28-32-15-8-6-9-16-32)45(65)57-38(46(58)66)29-33-17-10-7-11-18-33/h6-11,15-18,31,34-38H,4-5,12-14,19-30H2,1-3H3,(H2,48,62)(H,51,59)(H,53,60)(H,54,61)(H,55,64)(H,56,63)(H,57,65)(H4,49,50,52)/t34-,35-,36-,37+,38-/m0/s1

>  <IUPAC Name>  (1) 
(2S)-N-[(2S)-1-amino-4-methylsulfanyl-1-oxobutan-2-yl]-2-[[2-[(3S,6R,9S)-3,6-dibenzyl-9-[3-(diaminomethylideneamino)propyl]-2,5,8,11,14-pentaoxo-1,4,7,10,15-pentazacyclohenicos-1-yl]acetyl]amino]-4-methylpentanamide

$$$$
