
     RDKit          3D

 65 68  0  0  0  0  0  0  0  0999 V2000
   -7.6028    3.6771   -1.7638 O   0  0  0  0  0  0  0  0  0  0  0  0
   -6.5043    4.4766   -2.1621 C   0  0  0  0  0  0  0  0  0  0  0  0
   -6.0955    5.2529   -0.9608 C   0  0  0  0  0  0  0  0  0  0  0  0
   -5.7234    4.4228    0.0787 O   0  0  0  0  0  0  0  0  0  0  0  0
   -4.6971    3.5514    0.1865 C   0  0  0  0  0  0  0  0  0  0  0  0
   -4.6170    2.8247    1.3850 C   0  0  0  0  0  0  0  0  0  0  0  0
   -3.6326    1.9111    1.6359 C   0  0  0  0  0  0  0  0  0  0  0  0
   -2.6642    1.6740    0.6876 C   0  0  0  0  0  0  0  0  0  0  0  0
   -2.7053    2.3542   -0.4811 C   0  0  0  0  0  0  0  0  0  0  0  0
   -3.7143    3.2866   -0.7295 C   0  0  0  0  0  0  0  0  0  0  0  0
   -1.5894    0.7119    0.8992 C   0  0  0  0  0  0  0  0  0  0  0  0
   -0.4120    1.1428    1.4691 C   0  0  0  0  0  0  0  0  0  0  0  0
   -0.2527    2.5362    1.8481 C   0  0  0  0  0  0  0  0  0  0  0  0
   -0.1333    3.6501    2.1347 N   0  0  0  0  0  0  0  0  0  0  0  0
    0.6276    0.2295    1.6797 C   0  0  0  0  0  0  0  0  0  0  0  0
    2.1089    0.8658    2.4212 S   0  0  0  0  0  0  0  0  0  0  0  0
    3.4117   -0.3122    2.6715 C   0  0  0  0  0  0  0  0  0  0  0  0
    3.9514   -0.7880    1.3805 C   0  0  0  0  0  0  0  0  0  0  0  0
    3.5223   -1.9047    0.7160 C   0  0  0  0  0  0  0  0  0  0  0  0
    4.0383   -2.3222   -0.4905 C   0  0  0  0  0  0  0  0  0  0  0  0
    5.0347   -1.5774   -1.0534 C   0  0  0  0  0  0  0  0  0  0  0  0
    5.5178   -0.4423   -0.4439 C   0  0  0  0  0  0  0  0  0  0  0  0
    4.9747   -0.0597    0.7613 C   0  0  0  0  0  0  0  0  0  0  0  0
    6.5764    0.3870   -0.9980 C   0  0  0  0  0  0  0  0  0  0  0  0
    7.0031    1.4241   -0.4195 O   0  0  0  0  0  0  0  0  0  0  0  0
    7.2086    0.0755   -2.2488 N   0  0  0  0  0  0  0  0  0  0  0  0
    8.2514    0.9341   -2.7463 C   0  0  0  0  0  0  0  0  0  0  0  0
    0.4167   -1.0199    1.3126 N   0  0  0  0  0  0  0  0  0  0  0  0
   -0.7209   -1.4705    0.7544 C   0  0  0  0  0  0  0  0  0  0  0  0
   -1.7753   -0.6061    0.5267 C   0  0  0  0  0  0  0  0  0  0  0  0
   -3.0120   -1.0250   -0.0643 C   0  0  0  0  0  0  0  0  0  0  0  0
   -4.0140   -1.3507   -0.5579 N   0  0  0  0  0  0  0  0  0  0  0  0
   -0.9136   -2.8261    0.3740 N   0  0  0  0  0  0  0  0  0  0  0  0
   -1.9830   -3.6429    0.9614 C   0  0  0  0  0  0  0  0  0  0  0  0
   -1.2569   -4.9555    1.1591 C   0  0  0  0  0  0  0  0  0  0  0  0
   -0.1330   -4.9852    0.1574 C   0  0  2  0  0  0  0  0  0  0  0  0
   -0.2137   -3.6567   -0.5604 C   0  0  0  0  0  0  0  0  0  0  0  0
   -0.3129   -6.0232   -0.7562 O   0  0  0  0  0  0  0  0  0  0  0  0
   -8.2020    4.2372   -1.2093 H   0  0  0  0  0  0  0  0  0  0  0  0
   -5.7338    3.8192   -2.5183 H   0  0  0  0  0  0  0  0  0  0  0  0
   -6.8453    5.1186   -3.0062 H   0  0  0  0  0  0  0  0  0  0  0  0
   -6.9437    5.9446   -0.6532 H   0  0  0  0  0  0  0  0  0  0  0  0
   -5.2504    5.9452   -1.2791 H   0  0  0  0  0  0  0  0  0  0  0  0
   -5.3594    2.9739    2.1697 H   0  0  0  0  0  0  0  0  0  0  0  0
   -3.5852    1.3596    2.5654 H   0  0  0  0  0  0  0  0  0  0  0  0
   -1.9405    2.1727   -1.2403 H   0  0  0  0  0  0  0  0  0  0  0  0
   -3.6635    3.7909   -1.6583 H   0  0  0  0  0  0  0  0  0  0  0  0
    4.2543    0.2239    3.1892 H   0  0  0  0  0  0  0  0  0  0  0  0
    3.1547   -1.1450    3.3575 H   0  0  0  0  0  0  0  0  0  0  0  0
    2.7398   -2.5126    1.1450 H   0  0  0  0  0  0  0  0  0  0  0  0
    3.6632   -3.2177   -0.9802 H   0  0  0  0  0  0  0  0  0  0  0  0
    5.4415   -1.8918   -1.9881 H   0  0  0  0  0  0  0  0  0  0  0  0
    5.3366    0.8268    1.2585 H   0  0  0  0  0  0  0  0  0  0  0  0
    6.9259   -0.7542   -2.7954 H   0  0  0  0  0  0  0  0  0  0  0  0
    8.0378    2.0138   -2.5583 H   0  0  0  0  0  0  0  0  0  0  0  0
    9.1653    0.7002   -2.1915 H   0  0  0  0  0  0  0  0  0  0  0  0
    8.3731    0.7800   -3.8230 H   0  0  0  0  0  0  0  0  0  0  0  0
   -2.3485   -3.2300    1.9181 H   0  0  0  0  0  0  0  0  0  0  0  0
   -2.8403   -3.7547    0.2679 H   0  0  0  0  0  0  0  0  0  0  0  0
   -0.8108   -4.9423    2.1794 H   0  0  0  0  0  0  0  0  0  0  0  0
   -1.9292   -5.8083    1.0295 H   0  0  0  0  0  0  0  0  0  0  0  0
    0.8611   -5.0689    0.6726 H   0  0  0  0  0  0  0  0  0  0  0  0
   -0.7989   -3.8329   -1.4980 H   0  0  0  0  0  0  0  0  0  0  0  0
    0.8029   -3.2850   -0.8008 H   0  0  0  0  0  0  0  0  0  0  0  0
   -0.4695   -6.8832   -0.3167 H   0  0  0  0  0  0  0  0  0  0  0  0
  1  2  1  0
  2  3  1  0
  3  4  1  0
  4  5  1  0
  5  6  2  0
  6  7  1  0
  7  8  2  0
  8  9  1  0
  9 10  2  0
  8 11  1  0
 11 12  2  0
 12 13  1  0
 13 14  3  0
 12 15  1  0
 15 16  1  0
 16 17  1  0
 17 18  1  0
 18 19  2  0
 19 20  1  0
 20 21  2  0
 21 22  1  0
 22 23  2  0
 22 24  1  0
 24 25  2  0
 24 26  1  0
 26 27  1  0
 15 28  2  0
 28 29  1  0
 29 30  2  0
 30 31  1  0
 31 32  3  0
 29 33  1  0
 33 34  1  0
 34 35  1  0
 35 36  1  0
 36 37  1  0
 36 38  1  0
 10  5  1  0
 30 11  1  0
 37 33  1  0
 23 18  1  0
  1 39  1  0
  2 40  1  0
  2 41  1  0
  3 42  1  0
  3 43  1  0
  6 44  1  0
  7 45  1  0
  9 46  1  0
 10 47  1  0
 17 48  1  0
 17 49  1  0
 19 50  1  0
 20 51  1  0
 21 52  1  0
 23 53  1  0
 26 54  1  0
 27 55  1  0
 27 56  1  0
 27 57  1  0
 34 58  1  0
 34 59  1  0
 35 60  1  0
 35 61  1  0
 36 62  1  1
 37 63  1  0
 37 64  1  0
 38 65  1  0
M  END
>  <Ligand ID>  (1) 
LIG0004650

>  <Ligand>  (1) 
SCHEMBL244864

>  <SMILES>  (1) 
OCCOc1ccc(cc1)c1c(C#N)c(SCc2cccc(c2)C(=O)NC)nc(c1C#N)N1CC[C@H](C1)O

>  <CID>  (1) 
66631463.0

>  <ChEMBL ID>  (1) 
nan

>  <InChiKey>  (1) 
GGYIOAQCIRVUSI-OAQYLSRUSA-N

>  <InChi>  (1) 
InChI=1S/C28H27N5O4S/c1-31-27(36)20-4-2-3-18(13-20)17-38-28-24(15-30)25(19-5-7-22(8-6-19)37-12-11-34)23(14-29)26(32-28)33-10-9-21(35)16-33/h2-8,13,21,34-35H,9-12,16-17H2,1H3,(H,31,36)/t21-/m1/s1

>  <IUPAC Name>  (1) 
3-[[3,5-dicyano-4-[4-(2-hydroxyethoxy)phenyl]-6-[(3R)-3-hydroxypyrrolidin-1-yl]pyridin-2-yl]sulfanylmethyl]-N-methylbenzamide

$$$$
