
     RDKit          3D

 86 89  0  0  0  0  0  0  0  0999 V2000
   -6.5578   -0.0632   -1.8098 O   0  0  0  0  0  0  0  0  0  0  0  0
   -6.5785    0.9337   -1.0264 C   0  0  0  0  0  0  0  0  0  0  0  0
   -7.7479    1.6028   -0.6355 N   0  0  0  0  0  0  0  0  0  0  0  0
   -9.0468    1.1578   -1.1237 C   0  0  2  0  0  0  0  0  0  0  0  0
   -9.7461    2.2407   -1.8445 C   0  0  0  0  0  0  0  0  0  0  0  0
   -9.2690    3.3996   -2.0051 O   0  0  0  0  0  0  0  0  0  0  0  0
  -11.0006    2.0026   -2.3875 O   0  0  0  0  0  0  0  0  0  0  0  0
   -9.8182    0.7412    0.1194 C   0  0  0  0  0  0  0  0  0  0  0  0
   -9.0751   -0.3447    0.8119 C   0  0  0  0  0  0  0  0  0  0  0  0
   -8.1291    0.0133    1.7785 C   0  0  0  0  0  0  0  0  0  0  0  0
   -7.3969   -0.9289    2.4639 C   0  0  0  0  0  0  0  0  0  0  0  0
   -7.5967   -2.2585    2.1952 C   0  0  0  0  0  0  0  0  0  0  0  0
   -8.5216   -2.6057    1.2501 C   0  0  0  0  0  0  0  0  0  0  0  0
   -9.2799   -1.6896    0.5373 C   0  0  0  0  0  0  0  0  0  0  0  0
   -5.3104    1.3712   -0.5329 N   0  0  0  0  0  0  0  0  0  0  0  0
   -4.0821    0.7332   -0.9028 C   0  0  0  0  0  0  0  0  0  0  0  0
   -3.4505    1.2831   -2.0241 C   0  0  0  0  0  0  0  0  0  0  0  0
   -2.2690    0.6837   -2.3959 C   0  0  0  0  0  0  0  0  0  0  0  0
   -1.7089   -0.3939   -1.7332 C   0  0  0  0  0  0  0  0  0  0  0  0
   -2.3545   -0.9157   -0.6317 C   0  0  0  0  0  0  0  0  0  0  0  0
   -3.5565   -0.3382   -0.2176 C   0  0  0  0  0  0  0  0  0  0  0  0
   -0.2021   -1.0043   -2.3526 S   0  0  0  0  0  0  0  0  0  0  0  0
   -0.1178   -2.5089   -2.2170 O   0  0  0  0  0  0  0  0  0  0  0  0
   -0.0587   -0.7148   -3.8326 O   0  0  0  0  0  0  0  0  0  0  0  0
    1.1849   -0.3742   -1.5659 N   0  0  0  0  0  0  0  0  0  0  0  0
    1.2837   -0.6716   -0.1892 C   0  0  0  0  0  0  0  0  0  0  0  0
    0.8451    0.3646    0.7794 C   0  0  0  0  0  0  0  0  0  0  0  0
    1.4960    1.6764    0.4436 C   0  0  0  0  0  0  0  0  0  0  0  0
    1.0058    2.0221   -0.9585 C   0  0  0  0  0  0  0  0  0  0  0  0
    1.4702    0.9846   -1.9419 C   0  0  0  0  0  0  0  0  0  0  0  0
    3.0044    1.5802    0.4555 C   0  0  0  0  0  0  0  0  0  0  0  0
    3.4259    1.1634    1.7691 N   0  0  0  0  0  0  0  0  0  0  0  0
    4.8455    1.1549    1.9026 C   0  0  0  0  0  0  0  0  0  0  0  0
    5.4855    0.1092    1.0546 C   0  0  1  0  0  0  0  0  0  0  0  0
    6.9867    0.1849    1.2335 C   0  0  0  0  0  0  0  0  0  0  0  0
    7.5623    1.1436    2.0312 C   0  0  0  0  0  0  0  0  0  0  0  0
    8.9254    1.2298    2.1914 C   0  0  0  0  0  0  0  0  0  0  0  0
    9.7262    0.3278    1.5309 C   0  0  0  0  0  0  0  0  0  0  0  0
    9.1928   -0.6659    0.7079 C   0  0  0  0  0  0  0  0  0  0  0  0
    7.8300   -0.6962    0.5926 C   0  0  0  0  0  0  0  0  0  0  0  0
   10.0789   -1.5544    0.0501 N   0  0  0  0  0  0  0  0  0  0  0  0
    9.5619   -2.6492   -1.1953 S   0  0  0  0  0  0  0  0  0  0  0  0
    8.9180   -1.8023   -2.2764 O   0  0  0  0  0  0  0  0  0  0  0  0
   10.7212   -3.4044   -1.7623 O   0  0  0  0  0  0  0  0  0  0  0  0
    8.3686   -3.7771   -0.5270 C   0  0  0  0  0  0  0  0  0  0  0  0
   11.1022    0.3927    1.6755 O   0  0  0  0  0  0  0  0  0  0  0  0
    5.0547   -1.1624    1.3370 O   0  0  0  0  0  0  0  0  0  0  0  0
   -7.7426    2.4198   -0.0014 H   0  0  0  0  0  0  0  0  0  0  0  0
   -8.9714    0.2655   -1.7736 H   0  0  0  0  0  0  0  0  0  0  0  0
  -11.3431    2.4720   -3.2231 H   0  0  0  0  0  0  0  0  0  0  0  0
  -10.0317    1.5616    0.7996 H   0  0  0  0  0  0  0  0  0  0  0  0
  -10.8130    0.3397   -0.2304 H   0  0  0  0  0  0  0  0  0  0  0  0
   -7.9636    1.0798    1.9958 H   0  0  0  0  0  0  0  0  0  0  0  0
   -6.6558   -0.6514    3.2228 H   0  0  0  0  0  0  0  0  0  0  0  0
   -7.0561   -3.0446    2.6941 H   0  0  0  0  0  0  0  0  0  0  0  0
   -8.6714   -3.6736    1.0412 H   0  0  0  0  0  0  0  0  0  0  0  0
  -10.0088   -1.9785   -0.2069 H   0  0  0  0  0  0  0  0  0  0  0  0
   -5.3307    2.1885    0.1173 H   0  0  0  0  0  0  0  0  0  0  0  0
   -3.8471    2.1161   -2.5683 H   0  0  0  0  0  0  0  0  0  0  0  0
   -1.7731    1.1064   -3.2668 H   0  0  0  0  0  0  0  0  0  0  0  0
   -1.9188   -1.7572   -0.1143 H   0  0  0  0  0  0  0  0  0  0  0  0
   -4.0896   -0.7226    0.6441 H   0  0  0  0  0  0  0  0  0  0  0  0
    0.7828   -1.6546   -0.0135 H   0  0  0  0  0  0  0  0  0  0  0  0
    2.3708   -0.9009    0.0218 H   0  0  0  0  0  0  0  0  0  0  0  0
    1.1151    0.0540    1.7948 H   0  0  0  0  0  0  0  0  0  0  0  0
   -0.2613    0.4998    0.7312 H   0  0  0  0  0  0  0  0  0  0  0  0
    1.1908    2.4903    1.1176 H   0  0  0  0  0  0  0  0  0  0  0  0
   -0.0835    2.0822   -0.9354 H   0  0  0  0  0  0  0  0  0  0  0  0
    1.4391    2.9920   -1.2663 H   0  0  0  0  0  0  0  0  0  0  0  0
    0.8694    1.1570   -2.8829 H   0  0  0  0  0  0  0  0  0  0  0  0
    2.5199    1.1116   -2.2217 H   0  0  0  0  0  0  0  0  0  0  0  0
    3.3700    0.9009   -0.3531 H   0  0  0  0  0  0  0  0  0  0  0  0
    3.4153    2.5842    0.2185 H   0  0  0  0  0  0  0  0  0  0  0  0
    3.0917    0.2091    2.0172 H   0  0  0  0  0  0  0  0  0  0  0  0
    5.1324    0.9972    2.9679 H   0  0  0  0  0  0  0  0  0  0  0  0
    5.2028    2.1737    1.6079 H   0  0  0  0  0  0  0  0  0  0  0  0
    5.2461    0.2978   -0.0287 H   0  0  0  0  0  0  0  0  0  0  0  0
    6.9593    1.8586    2.5565 H   0  0  0  0  0  0  0  0  0  0  0  0
    9.3288    2.0107    2.8370 H   0  0  0  0  0  0  0  0  0  0  0  0
    7.3732   -1.4429   -0.0277 H   0  0  0  0  0  0  0  0  0  0  0  0
   11.0806   -1.5695    0.3054 H   0  0  0  0  0  0  0  0  0  0  0  0
    8.7263   -4.8205   -0.6754 H   0  0  0  0  0  0  0  0  0  0  0  0
    7.3884   -3.6100   -1.0375 H   0  0  0  0  0  0  0  0  0  0  0  0
    8.2455   -3.6154    0.5494 H   0  0  0  0  0  0  0  0  0  0  0  0
   11.4859    0.8981    2.4609 H   0  0  0  0  0  0  0  0  0  0  0  0
    5.0265   -1.3833    2.3038 H   0  0  0  0  0  0  0  0  0  0  0  0
  1  2  2  0
  2  3  1  0
  3  4  1  0
  4  5  1  0
  5  6  2  0
  5  7  1  0
  4  8  1  0
  8  9  1  0
  9 10  2  0
 10 11  1  0
 11 12  2  0
 12 13  1  0
 13 14  2  0
  2 15  1  0
 15 16  1  0
 16 17  2  0
 17 18  1  0
 18 19  2  0
 19 20  1  0
 20 21  2  0
 19 22  1  0
 22 23  2  0
 22 24  2  0
 22 25  1  0
 25 26  1  0
 26 27  1  0
 27 28  1  0
 28 29  1  0
 29 30  1  0
 28 31  1  0
 31 32  1  0
 32 33  1  0
 33 34  1  0
 34 35  1  0
 35 36  2  0
 36 37  1  0
 37 38  2  0
 38 39  1  0
 39 40  2  0
 39 41  1  0
 41 42  1  0
 42 43  2  0
 42 44  2  0
 42 45  1  0
 38 46  1  0
 34 47  1  0
 14  9  1  0
 21 16  1  0
 30 25  1  0
 40 35  1  0
  3 48  1  0
  4 49  1  6
  7 50  1  0
  8 51  1  0
  8 52  1  0
 10 53  1  0
 11 54  1  0
 12 55  1  0
 13 56  1  0
 14 57  1  0
 15 58  1  0
 17 59  1  0
 18 60  1  0
 20 61  1  0
 21 62  1  0
 26 63  1  0
 26 64  1  0
 27 65  1  0
 27 66  1  0
 28 67  1  0
 29 68  1  0
 29 69  1  0
 30 70  1  0
 30 71  1  0
 31 72  1  0
 31 73  1  0
 32 74  1  0
 33 75  1  0
 33 76  1  0
 34 77  1  6
 36 78  1  0
 37 79  1  0
 40 80  1  0
 41 81  1  0
 45 82  1  0
 45 83  1  0
 45 84  1  0
 46 85  1  0
 47 86  1  0
M  END
>  <Ligand ID>  (1) 
LIG0004947

>  <Ligand>  (1) 
CHEMBL101674

>  <SMILES>  (1) 
O=C(N[C@H](C(=O)O)Cc1ccccc1)Nc1ccc(cc1)S(=O)(=O)N1CCC(CC1)CNC[C@@H](c1ccc(c(c1)NS(=O)(=O)C)O)O

>  <CID>  (1) 
44331443.0

>  <ChEMBL ID>  (1) 
nan

>  <InChiKey>  (1) 
WNUQYWNOPBJDHK-YTMVLYRLSA-N

>  <InChi>  (1) 
InChI=1S/C31H39N5O9S2/c1-46(42,43)35-26-18-23(7-12-28(26)37)29(38)20-32-19-22-13-15-36(16-14-22)47(44,45)25-10-8-24(9-11-25)33-31(41)34-27(30(39)40)17-21-5-3-2-4-6-21/h2-12,18,22,27,29,32,35,37-38H,13-17,19-20H2,1H3,(H,39,40)(H2,33,34,41)/t27-,29-/m0/s1

>  <IUPAC Name>  (1) 
(2S)-2-[[4-[4-[[[(2R)-2-hydroxy-2-[4-hydroxy-3-(methanesulfonamido)phenyl]ethyl]amino]methyl]piperidin-1-yl]sulfonylphenyl]carbamoylamino]-3-phenylpropanoic acid

$$$$
