
     RDKit          3D

 33 35  0  0  0  0  0  0  0  0999 V2000
    5.1175   -1.6944    0.3987 O   0  0  0  0  0  0  0  0  0  0  0  0
    4.4621   -0.6247    0.3504 C   0  0  0  0  0  0  0  0  0  0  0  0
    5.0986    0.7193    0.5590 C   0  0  0  0  0  0  0  0  0  0  0  0
    4.6632    1.5991   -0.5957 C   0  0  0  0  0  0  0  0  0  0  0  0
    3.2586    1.7456   -0.5193 O   0  0  0  0  0  0  0  0  0  0  0  0
    2.4936    0.6009   -0.3405 C   0  0  0  0  0  0  0  0  0  0  0  0
    3.0172   -0.6024    0.0853 C   0  0  0  0  0  0  0  0  0  0  0  0
    2.2824   -1.7391    0.2673 C   0  0  0  0  0  0  0  0  0  0  0  0
    0.9075   -1.7024    0.0109 C   0  0  0  0  0  0  0  0  0  0  0  0
    0.3713   -0.5015   -0.4166 C   0  0  0  0  0  0  0  0  0  0  0  0
    1.1310    0.6363   -0.5944 C   0  0  0  0  0  0  0  0  0  0  0  0
   -1.1077   -0.4697   -0.6903 C   0  0  0  0  0  0  0  0  0  0  0  0
   -1.7391   -0.1054    0.5245 O   0  0  0  0  0  0  0  0  0  0  0  0
   -3.1228    0.0062    0.5787 C   0  0  0  0  0  0  0  0  0  0  0  0
   -3.6705    0.3641    1.7916 C   0  0  0  0  0  0  0  0  0  0  0  0
   -5.0585    0.4884    1.8932 C   0  0  0  0  0  0  0  0  0  0  0  0
   -5.8721    0.2577    0.8001 C   0  0  0  0  0  0  0  0  0  0  0  0
   -5.3175   -0.1046   -0.4276 C   0  0  0  0  0  0  0  0  0  0  0  0
   -3.9463   -0.2181   -0.4926 C   0  0  0  0  0  0  0  0  0  0  0  0
    6.2047    0.6333    0.6124 H   0  0  0  0  0  0  0  0  0  0  0  0
    4.7213    1.1499    1.5266 H   0  0  0  0  0  0  0  0  0  0  0  0
    4.8956    1.0201   -1.5363 H   0  0  0  0  0  0  0  0  0  0  0  0
    5.1851    2.5756   -0.5912 H   0  0  0  0  0  0  0  0  0  0  0  0
    2.7730   -2.6461    0.6055 H   0  0  0  0  0  0  0  0  0  0  0  0
    0.3233   -2.6002    0.1539 H   0  0  0  0  0  0  0  0  0  0  0  0
    0.6412    1.5420   -0.9320 H   0  0  0  0  0  0  0  0  0  0  0  0
   -1.4493   -1.4881   -1.0037 H   0  0  0  0  0  0  0  0  0  0  0  0
   -1.2644    0.2789   -1.4750 H   0  0  0  0  0  0  0  0  0  0  0  0
   -3.0457    0.5535    2.6772 H   0  0  0  0  0  0  0  0  0  0  0  0
   -5.5371    0.7675    2.8251 H   0  0  0  0  0  0  0  0  0  0  0  0
   -6.9517    0.3453    0.8446 H   0  0  0  0  0  0  0  0  0  0  0  0
   -5.9546   -0.2894   -1.2991 H   0  0  0  0  0  0  0  0  0  0  0  0
   -3.5101   -0.4975   -1.4372 H   0  0  0  0  0  0  0  0  0  0  0  0
  1  2  2  0
  2  3  1  0
  3  4  1  0
  4  5  1  0
  5  6  1  0
  6  7  2  0
  7  8  1  0
  8  9  2  0
  9 10  1  0
 10 11  2  0
 10 12  1  0
 12 13  1  0
 13 14  1  0
 14 15  2  0
 15 16  1  0
 16 17  2  0
 17 18  1  0
 18 19  2  0
  7  2  1  0
 19 14  1  0
 11  6  1  0
  3 20  1  0
  3 21  1  0
  4 22  1  0
  4 23  1  0
  8 24  1  0
  9 25  1  0
 11 26  1  0
 12 27  1  0
 12 28  1  0
 15 29  1  0
 16 30  1  0
 17 31  1  0
 18 32  1  0
 19 33  1  0
M  END
>  <Ligand ID>  (1) 
LIG0000507

>  <Ligand>  (1) 
CHEMBL1682820

>  <SMILES>  (1) 
O=C1CCOc2c1ccc(c2)COc1ccccc1

>  <CID>  (1) 
15420544.0

>  <ChEMBL ID>  (1) 
nan

>  <InChiKey>  (1) 
LOURISIOISPYCO-UHFFFAOYSA-N

>  <InChi>  (1) 
InChI=1S/C16H14O3/c17-15-8-9-18-16-10-12(6-7-14(15)16)11-19-13-4-2-1-3-5-13/h1-7,10H,8-9,11H2

>  <IUPAC Name>  (1) 
7-(phenoxymethyl)-2,3-dihydrochromen-4-one

$$$$
