
     RDKit          3D

 61 63  0  0  0  0  0  0  0  0999 V2000
  -10.1559   -1.0955    0.6198 C   0  0  0  0  0  0  0  0  0  0  0  0
   -9.4059   -0.0177    0.4227 C   0  0  0  0  0  0  0  0  0  0  0  0
   -7.9275   -0.1226    0.1238 C   0  0  0  0  0  0  0  0  0  0  0  0
   -7.2949    0.5631    1.1483 O   0  0  0  0  0  0  0  0  0  0  0  0
   -5.9121    0.5958    1.0393 C   0  0  0  0  0  0  0  0  0  0  0  0
   -5.2582   -0.7619    1.0450 C   0  0  0  0  0  0  0  0  0  0  0  0
   -3.8890   -0.7411    0.9426 O   0  0  0  0  0  0  0  0  0  0  0  0
   -3.3865   -0.1854   -0.2248 C   0  0  2  0  0  0  0  0  0  0  0  0
   -2.6015   -1.1879   -1.0278 C   0  0  0  0  0  0  0  0  0  0  0  0
   -1.2760   -1.5259   -0.4413 C   0  0  0  0  0  0  0  0  0  0  0  0
   -0.4845   -0.2877   -0.2444 C   0  0  0  0  0  0  0  0  0  0  0  0
   -1.1411    0.8908    0.0262 C   0  0  0  0  0  0  0  0  0  0  0  0
   -2.5987    1.0341    0.1401 C   0  0  0  0  0  0  0  0  0  0  0  0
   -0.3645    2.0152    0.2011 C   0  0  0  0  0  0  0  0  0  0  0  0
    1.0156    1.9558    0.1075 C   0  0  0  0  0  0  0  0  0  0  0  0
    1.6616    0.7684   -0.1642 C   0  0  0  0  0  0  0  0  0  0  0  0
    0.8952   -0.3612   -0.3407 C   0  0  0  0  0  0  0  0  0  0  0  0
    3.1374    0.6507   -0.2759 C   0  0  2  0  0  0  0  0  0  0  0  0
    3.4939    0.1291   -1.6726 C   0  0  0  0  0  0  0  0  0  0  0  0
    4.8416   -0.5088   -1.5553 C   0  0  0  0  0  0  0  0  0  0  0  0
    5.0446   -0.7011   -0.0752 C   0  0  1  0  0  0  0  0  0  0  0  0
    3.7182   -0.4296    0.6038 C   0  0  0  0  0  0  0  0  0  0  0  0
    5.4494   -2.0283    0.2552 N   0  0  0  0  0  0  0  0  0  0  0  0
    6.0304    0.3520    0.3802 C   0  0  0  0  0  0  0  0  0  0  0  0
    7.2814    0.1542   -0.2081 O   0  0  0  0  0  0  0  0  0  0  0  0
    8.3349    1.3494    0.3273 P   0  0  0  0  0  0  0  0  0  0  0  0
    8.3004    2.5715   -0.5536 O   0  0  0  0  0  0  0  0  0  0  0  0
    7.8901    1.7593    1.9196 O   0  0  0  0  0  0  0  0  0  0  0  0
    9.8802    0.6655    0.3881 O   0  0  0  0  0  0  0  0  0  0  0  0
  -11.2124   -0.9876    0.8321 H   0  0  0  0  0  0  0  0  0  0  0  0
   -9.6795   -2.0682    0.5614 H   0  0  0  0  0  0  0  0  0  0  0  0
   -9.8310    0.9811    0.4697 H   0  0  0  0  0  0  0  0  0  0  0  0
   -7.6732    0.2582   -0.8667 H   0  0  0  0  0  0  0  0  0  0  0  0
   -7.6694   -1.2219    0.1287 H   0  0  0  0  0  0  0  0  0  0  0  0
   -5.6302    1.1657    0.1178 H   0  0  0  0  0  0  0  0  0  0  0  0
   -5.5663    1.2084    1.9247 H   0  0  0  0  0  0  0  0  0  0  0  0
   -5.6723   -1.3046    0.1398 H   0  0  0  0  0  0  0  0  0  0  0  0
   -5.6264   -1.3210    1.9072 H   0  0  0  0  0  0  0  0  0  0  0  0
   -4.2474    0.1155   -0.8529 H   0  0  0  0  0  0  0  0  0  0  0  0
   -2.4552   -0.8360   -2.0692 H   0  0  0  0  0  0  0  0  0  0  0  0
   -3.2399   -2.0983   -1.1019 H   0  0  0  0  0  0  0  0  0  0  0  0
   -0.7524   -2.1903   -1.1599 H   0  0  0  0  0  0  0  0  0  0  0  0
   -1.3171   -2.0701    0.5072 H   0  0  0  0  0  0  0  0  0  0  0  0
   -2.8596    1.4096    1.1729 H   0  0  0  0  0  0  0  0  0  0  0  0
   -2.8893    1.8549   -0.5461 H   0  0  0  0  0  0  0  0  0  0  0  0
   -0.7865    2.9911    0.4180 H   0  0  0  0  0  0  0  0  0  0  0  0
    1.6066    2.8569    0.2496 H   0  0  0  0  0  0  0  0  0  0  0  0
    1.3413   -1.3358   -0.5588 H   0  0  0  0  0  0  0  0  0  0  0  0
    3.5864    1.6407   -0.1068 H   0  0  0  0  0  0  0  0  0  0  0  0
    3.4511    0.9596   -2.4049 H   0  0  0  0  0  0  0  0  0  0  0  0
    2.7503   -0.6447   -1.9000 H   0  0  0  0  0  0  0  0  0  0  0  0
    4.9158   -1.4727   -2.0978 H   0  0  0  0  0  0  0  0  0  0  0  0
    5.6094    0.1540   -1.9977 H   0  0  0  0  0  0  0  0  0  0  0  0
    3.0452   -1.3032    0.5693 H   0  0  0  0  0  0  0  0  0  0  0  0
    3.8991   -0.0796    1.6394 H   0  0  0  0  0  0  0  0  0  0  0  0
    5.8694   -2.0729    1.1872 H   0  0  0  0  0  0  0  0  0  0  0  0
    5.9602   -2.5382   -0.4968 H   0  0  0  0  0  0  0  0  0  0  0  0
    5.6986    1.3517    0.0351 H   0  0  0  0  0  0  0  0  0  0  0  0
    6.0956    0.4022    1.4871 H   0  0  0  0  0  0  0  0  0  0  0  0
    8.2085    1.0034    2.5055 H   0  0  0  0  0  0  0  0  0  0  0  0
    9.7923   -0.3078    0.6293 H   0  0  0  0  0  0  0  0  0  0  0  0
  1  2  2  0
  2  3  1  0
  3  4  1  0
  4  5  1  0
  5  6  1  0
  6  7  1  0
  7  8  1  0
  8  9  1  0
  9 10  1  0
 10 11  1  0
 11 12  2  0
 12 13  1  0
 12 14  1  0
 14 15  2  0
 15 16  1  0
 16 17  2  0
 16 18  1  0
 18 19  1  0
 19 20  1  0
 20 21  1  0
 21 22  1  0
 21 23  1  6
 21 24  1  0
 24 25  1  0
 25 26  1  0
 26 27  2  0
 26 28  1  0
 26 29  1  0
 13  8  1  0
 22 18  1  0
 17 11  1  0
  1 30  1  0
  1 31  1  0
  2 32  1  0
  3 33  1  0
  3 34  1  0
  5 35  1  0
  5 36  1  0
  6 37  1  0
  6 38  1  0
  8 39  1  6
  9 40  1  0
  9 41  1  0
 10 42  1  0
 10 43  1  0
 13 44  1  0
 13 45  1  0
 14 46  1  0
 15 47  1  0
 17 48  1  0
 18 49  1  1
 19 50  1  0
 19 51  1  0
 20 52  1  0
 20 53  1  0
 22 54  1  0
 22 55  1  0
 23 56  1  0
 23 57  1  0
 24 58  1  0
 24 59  1  0
 28 60  1  0
 29 61  1  0
M  END
>  <Ligand ID>  (1) 
LIG0005657

>  <Ligand>  (1) 
BDBM65253

>  <SMILES>  (1) 
C=CCOCCO[C@@H]1CCc2c(C1)ccc(c2)[C@@H]1CC[C@@](C1)(N)COP(=O)(O)O

>  <CID>  (1) 
131953716.0

>  <ChEMBL ID>  (1) 
nan

>  <InChiKey>  (1) 
ULARLNYBJUILQM-NJYVYQBISA-N

>  <InChi>  (1) 
InChI=1S/C21H32NO6P/c1-2-9-26-10-11-27-20-6-5-16-12-17(3-4-18(16)13-20)19-7-8-21(22,14-19)15-28-29(23,24)25/h2-4,12,19-20H,1,5-11,13-15,22H2,(H2,23,24,25)/t19-,20-,21+/m1/s1

>  <IUPAC Name>  (1) 
[(1S,3R)-1-amino-3-[(6R)-6-(2-prop-2-enoxyethoxy)-5,6,7,8-tetrahydronaphthalen-2-yl]cyclopentyl]methyl dihydrogen phosphate

$$$$
