
     RDKit          3D

 46 49  0  0  0  0  0  0  0  0999 V2000
    3.6832    4.1245   -2.4880 F   0  0  0  0  0  0  0  0  0  0  0  0
    4.0854    3.0346   -1.8161 C   0  0  0  0  0  0  0  0  0  0  0  0
    5.2975    3.0546   -1.1611 C   0  0  0  0  0  0  0  0  0  0  0  0
    5.7020    1.9410   -0.4780 C   0  0  0  0  0  0  0  0  0  0  0  0
    4.9254    0.7960   -0.4282 C   0  0  0  0  0  0  0  0  0  0  0  0
    3.7099    0.8182   -1.1026 C   0  0  0  0  0  0  0  0  0  0  0  0
    3.2795    1.9164   -1.7935 C   0  0  0  0  0  0  0  0  0  0  0  0
    2.9004   -0.4318   -1.0272 C   0  0  0  0  0  0  0  0  0  0  0  0
    2.3350   -0.4552    0.2279 O   0  0  0  0  0  0  0  0  0  0  0  0
    1.5340   -1.5570    0.4957 C   0  0  1  0  0  0  0  0  0  0  0  0
    1.8892   -2.1870    1.8391 C   0  0  0  0  0  0  0  0  0  0  0  0
    1.6715   -0.9272    2.6909 C   0  0  0  0  0  0  0  0  0  0  0  0
    0.2988   -0.5761    2.2393 C   0  0  0  0  0  0  0  0  0  0  0  0
    0.2174   -0.9585    0.9128 C   0  0  0  0  0  0  0  0  0  0  0  0
   -0.9065   -0.7808    0.1925 N   0  0  0  0  0  0  0  0  0  0  0  0
   -2.0340   -0.2161    0.7162 C   0  0  0  0  0  0  0  0  0  0  0  0
   -1.9556    0.1662    2.0385 C   0  0  0  0  0  0  0  0  0  0  0  0
   -0.8181   -0.0008    2.8086 C   0  0  0  0  0  0  0  0  0  0  0  0
   -3.1940   -0.0496   -0.0847 N   0  0  0  0  0  0  0  0  0  0  0  0
   -4.4398    0.5047    0.3988 C   0  0  0  0  0  0  0  0  0  0  0  0
   -5.6659   -0.0998   -0.2249 C   0  0  0  0  0  0  0  0  0  0  0  0
   -5.4946   -0.7790   -1.4470 N   0  0  0  0  0  0  0  0  0  0  0  0
   -4.2667   -1.4520   -1.6656 C   0  0  0  0  0  0  0  0  0  0  0  0
   -3.1452   -0.4525   -1.4774 C   0  0  0  0  0  0  0  0  0  0  0  0
    5.3267   -0.3165    0.2524 F   0  0  0  0  0  0  0  0  0  0  0  0
    5.9472    3.9321   -1.1696 H   0  0  0  0  0  0  0  0  0  0  0  0
    6.6535    1.9481    0.0400 H   0  0  0  0  0  0  0  0  0  0  0  0
    2.3205    1.8725   -2.2999 H   0  0  0  0  0  0  0  0  0  0  0  0
    3.5728   -1.2556   -1.2711 H   0  0  0  0  0  0  0  0  0  0  0  0
    2.1413   -0.3890   -1.8461 H   0  0  0  0  0  0  0  0  0  0  0  0
    1.4390   -2.2790   -0.3078 H   0  0  0  0  0  0  0  0  0  0  0  0
    2.8840   -2.5949    1.8923 H   0  0  0  0  0  0  0  0  0  0  0  0
    1.0555   -2.8690    2.0905 H   0  0  0  0  0  0  0  0  0  0  0  0
    2.3769   -0.1224    2.3894 H   0  0  0  0  0  0  0  0  0  0  0  0
    1.7423   -1.2157    3.7381 H   0  0  0  0  0  0  0  0  0  0  0  0
   -2.7995    0.6196    2.5260 H   0  0  0  0  0  0  0  0  0  0  0  0
   -0.7733    0.3045    3.8436 H   0  0  0  0  0  0  0  0  0  0  0  0
   -4.5212    0.4376    1.4904 H   0  0  0  0  0  0  0  0  0  0  0  0
   -4.4139    1.6073    0.1577 H   0  0  0  0  0  0  0  0  0  0  0  0
   -6.1213   -0.8063    0.5107 H   0  0  0  0  0  0  0  0  0  0  0  0
   -6.4134    0.7114   -0.3525 H   0  0  0  0  0  0  0  0  0  0  0  0
   -6.0365   -0.4816   -2.2584 H   0  0  0  0  0  0  0  0  0  0  0  0
   -4.1350   -2.3096   -0.9631 H   0  0  0  0  0  0  0  0  0  0  0  0
   -4.2787   -1.8374   -2.7105 H   0  0  0  0  0  0  0  0  0  0  0  0
   -2.1590   -0.8496   -1.7660 H   0  0  0  0  0  0  0  0  0  0  0  0
   -3.4165    0.4609   -2.0736 H   0  0  0  0  0  0  0  0  0  0  0  0
  1  2  1  0
  2  3  2  0
  3  4  1  0
  4  5  2  0
  5  6  1  0
  6  7  2  0
  6  8  1  0
  8  9  1  0
  9 10  1  0
 10 11  1  0
 11 12  1  0
 12 13  1  0
 13 14  2  0
 14 15  1  0
 15 16  2  0
 16 17  1  0
 17 18  2  0
 16 19  1  0
 19 20  1  0
 20 21  1  0
 21 22  1  0
 22 23  1  0
 23 24  1  0
  5 25  1  0
  7  2  1  0
 14 10  1  0
 24 19  1  0
 18 13  1  0
  3 26  1  0
  4 27  1  0
  7 28  1  0
  8 29  1  0
  8 30  1  0
 10 31  1  6
 11 32  1  0
 11 33  1  0
 12 34  1  0
 12 35  1  0
 17 36  1  0
 18 37  1  0
 20 38  1  0
 20 39  1  0
 21 40  1  0
 21 41  1  0
 22 42  1  0
 23 43  1  0
 23 44  1  0
 24 45  1  0
 24 46  1  0
M  END
>  <Ligand ID>  (1) 
LIG0002987

>  <Ligand>  (1) 
CHEMBL594469

>  <SMILES>  (1) 
Fc1ccc(c(c1)CO[C@H]1CCc2c1nc(cc2)N1CCNCC1)F

>  <CID>  (1) 
11952353.0

>  <ChEMBL ID>  (1) 
nan

>  <InChiKey>  (1) 
PUSWEWCVDWRQPZ-KRWDZBQOSA-N

>  <InChi>  (1) 
InChI=1S/C19H21F2N3O/c20-15-3-4-16(21)14(11-15)12-25-17-5-1-13-2-6-18(23-19(13)17)24-9-7-22-8-10-24/h2-4,6,11,17,22H,1,5,7-10,12H2/t17-/m0/s1

>  <IUPAC Name>  (1) 
(7S)-7-[(2,5-difluorophenyl)methoxy]-2-piperazin-1-yl-6,7-dihydro-5H-cyclopenta[b]pyridine

$$$$
