
     RDKit          3D

 76 79  0  0  0  0  0  0  0  0999 V2000
   -7.9921   -2.9874    1.7751 N   0  0  0  0  0  0  0  0  0  0  0  0
   -7.2481   -2.1017    1.5501 C   0  0  0  0  0  0  0  0  0  0  0  0
   -6.3225   -0.9789    1.2488 C   0  0  0  0  0  0  0  0  0  0  0  0
   -7.0111    0.2142    1.8012 C   0  0  0  0  0  0  0  0  0  0  0  0
   -8.0730    0.7364    1.0932 C   0  0  0  0  0  0  0  0  0  0  0  0
   -8.7842    1.8185    1.5137 C   0  0  0  0  0  0  0  0  0  0  0  0
   -8.4358    2.4318    2.7044 C   0  0  0  0  0  0  0  0  0  0  0  0
   -7.3652    1.9355    3.4554 C   0  0  0  0  0  0  0  0  0  0  0  0
   -6.6707    0.8262    2.9808 C   0  0  0  0  0  0  0  0  0  0  0  0
   -6.2043   -0.7910   -0.2176 C   0  0  0  0  0  0  0  0  0  0  0  0
   -5.5966    0.3078   -0.7824 C   0  0  0  0  0  0  0  0  0  0  0  0
   -5.5227    0.4079   -2.1771 C   0  0  0  0  0  0  0  0  0  0  0  0
   -6.0630   -0.6013   -2.9711 C   0  0  0  0  0  0  0  0  0  0  0  0
   -6.6769   -1.7114   -2.4166 C   0  0  0  0  0  0  0  0  0  0  0  0
   -6.7329   -1.7795   -1.0410 C   0  0  0  0  0  0  0  0  0  0  0  0
   -5.0378   -1.3248    1.9063 C   0  0  0  0  0  0  0  0  0  0  0  0
   -3.9122   -0.3726    1.7466 C   0  0  0  0  0  0  0  0  0  0  0  0
   -2.8210   -0.9169    2.4683 O   0  0  0  0  0  0  0  0  0  0  0  0
   -1.7678   -0.0867    2.4515 N   0  0  0  0  0  0  0  0  0  0  0  0
   -0.8745    0.0563    1.3549 C   0  0  0  0  0  0  0  0  0  0  0  0
   -1.1389    0.9971    0.3688 C   0  0  0  0  0  0  0  0  0  0  0  0
   -0.2190    1.0841   -0.6763 C   0  0  0  0  0  0  0  0  0  0  0  0
    0.8634    0.2873   -0.7083 N   0  0  0  0  0  0  0  0  0  0  0  0
    1.0761   -0.6144    0.2775 C   0  0  0  0  0  0  0  0  0  0  0  0
    2.0760   -1.3691    0.2723 O   0  0  0  0  0  0  0  0  0  0  0  0
    0.2186   -0.7275    1.2942 N   0  0  0  0  0  0  0  0  0  0  0  0
    1.8191    0.4016   -1.8191 C   0  0  2  0  0  0  0  0  0  0  0  0
    2.9385   -0.3330   -1.5274 O   0  0  0  0  0  0  0  0  0  0  0  0
    4.0397    0.4759   -1.4388 C   0  0  1  0  0  0  0  0  0  0  0  0
    3.5889    1.8952   -1.2867 C   0  0  2  0  0  0  0  0  0  0  0  0
    2.2390    1.8469   -2.0027 C   0  0  1  0  0  0  0  0  0  0  0  0
    2.4183    2.0593   -3.3519 O   0  0  0  0  0  0  0  0  0  0  0  0
    4.4070    2.8127   -1.9386 O   0  0  0  0  0  0  0  0  0  0  0  0
    5.0078    0.0369   -0.3605 C   0  0  0  0  0  0  0  0  0  0  0  0
    5.4165   -1.2384   -0.6740 O   0  0  0  0  0  0  0  0  0  0  0  0
    6.5228   -1.8872    0.4102 P   0  0  0  0  0  0  0  0  0  0  0  0
    5.7658   -2.7324    1.4090 O   0  0  0  0  0  0  0  0  0  0  0  0
    7.6209   -2.8212   -0.4622 O   0  0  0  0  0  0  0  0  0  0  0  0
    9.2181   -2.5286   -0.0640 P   0  0  0  0  0  0  0  0  0  0  0  0
    9.9999   -2.3927   -1.3684 O   0  0  0  0  0  0  0  0  0  0  0  0
    9.4473   -1.0958    0.8011 O   0  0  0  0  0  0  0  0  0  0  0  0
   10.4370   -0.0164   -0.0241 P   0  0  0  0  0  0  0  0  0  0  0  0
   11.8873   -0.1501    0.3878 O   0  0  0  0  0  0  0  0  0  0  0  0
   10.2838   -0.1639   -1.7075 O   0  0  0  0  0  0  0  0  0  0  0  0
    9.9701    1.5689    0.3519 O   0  0  0  0  0  0  0  0  0  0  0  0
    9.8974   -3.8161    0.7927 O   0  0  0  0  0  0  0  0  0  0  0  0
    7.3537   -0.6353    1.1734 O   0  0  0  0  0  0  0  0  0  0  0  0
   -8.3566    0.2554    0.1450 H   0  0  0  0  0  0  0  0  0  0  0  0
   -9.6049    2.1734    0.9069 H   0  0  0  0  0  0  0  0  0  0  0  0
   -9.0024    3.2947    3.0401 H   0  0  0  0  0  0  0  0  0  0  0  0
   -7.0815    2.4054    4.3893 H   0  0  0  0  0  0  0  0  0  0  0  0
   -5.8532    0.4526    3.5785 H   0  0  0  0  0  0  0  0  0  0  0  0
   -5.1814    1.0910   -0.1635 H   0  0  0  0  0  0  0  0  0  0  0  0
   -5.0492    1.2628   -2.6554 H   0  0  0  0  0  0  0  0  0  0  0  0
   -6.0249   -0.5592   -4.0579 H   0  0  0  0  0  0  0  0  0  0  0  0
   -7.1060   -2.5121   -3.0151 H   0  0  0  0  0  0  0  0  0  0  0  0
   -7.2221   -2.6650   -0.6068 H   0  0  0  0  0  0  0  0  0  0  0  0
   -5.2694   -1.5744    2.9630 H   0  0  0  0  0  0  0  0  0  0  0  0
   -4.7037   -2.2989    1.4613 H   0  0  0  0  0  0  0  0  0  0  0  0
   -3.5618   -0.4360    0.6796 H   0  0  0  0  0  0  0  0  0  0  0  0
   -4.0446    0.6440    2.0895 H   0  0  0  0  0  0  0  0  0  0  0  0
   -1.6222    0.4873    3.3357 H   0  0  0  0  0  0  0  0  0  0  0  0
   -2.0119    1.6293    0.4089 H   0  0  0  0  0  0  0  0  0  0  0  0
   -0.3921    1.8106   -1.4688 H   0  0  0  0  0  0  0  0  0  0  0  0
    1.2923    0.0111   -2.7128 H   0  0  0  0  0  0  0  0  0  0  0  0
    4.5957    0.4247   -2.4206 H   0  0  0  0  0  0  0  0  0  0  0  0
    3.4595    2.1694   -0.2091 H   0  0  0  0  0  0  0  0  0  0  0  0
    1.5780    2.5757   -1.5365 H   0  0  0  0  0  0  0  0  0  0  0  0
    3.3585    1.9099   -3.6240 H   0  0  0  0  0  0  0  0  0  0  0  0
    5.2920    2.4155   -2.1297 H   0  0  0  0  0  0  0  0  0  0  0  0
    4.4584   -0.0431    0.6210 H   0  0  0  0  0  0  0  0  0  0  0  0
    5.7947    0.7778   -0.2328 H   0  0  0  0  0  0  0  0  0  0  0  0
   10.8739    0.5439   -2.0891 H   0  0  0  0  0  0  0  0  0  0  0  0
   10.2188    2.2103   -0.3390 H   0  0  0  0  0  0  0  0  0  0  0  0
   10.4616   -4.3971    0.2219 H   0  0  0  0  0  0  0  0  0  0  0  0
    6.6621   -0.0855    1.6396 H   0  0  0  0  0  0  0  0  0  0  0  0
  1  2  3  0
  2  3  1  0
  3  4  1  0
  4  5  2  0
  5  6  1  0
  6  7  2  0
  7  8  1  0
  8  9  2  0
  3 10  1  0
 10 11  2  0
 11 12  1  0
 12 13  2  0
 13 14  1  0
 14 15  2  0
  3 16  1  0
 16 17  1  0
 17 18  1  0
 18 19  1  0
 19 20  1  0
 20 21  1  0
 21 22  2  0
 22 23  1  0
 23 24  1  0
 24 25  2  0
 24 26  1  0
 23 27  1  0
 27 28  1  0
 28 29  1  0
 29 30  1  0
 30 31  1  0
 31 32  1  0
 30 33  1  0
 29 34  1  0
 34 35  1  0
 35 36  1  0
 36 37  2  0
 36 38  1  0
 38 39  1  0
 39 40  2  0
 39 41  1  0
 41 42  1  0
 42 43  2  0
 42 44  1  0
 42 45  1  0
 39 46  1  0
 36 47  1  0
  9  4  1  0
 15 10  1  0
 26 20  2  0
 31 27  1  0
  5 48  1  0
  6 49  1  0
  7 50  1  0
  8 51  1  0
  9 52  1  0
 11 53  1  0
 12 54  1  0
 13 55  1  0
 14 56  1  0
 15 57  1  0
 16 58  1  0
 16 59  1  0
 17 60  1  0
 17 61  1  0
 19 62  1  0
 21 63  1  0
 22 64  1  0
 27 65  1  6
 29 66  1  6
 30 67  1  1
 31 68  1  1
 32 69  1  0
 33 70  1  0
 34 71  1  0
 34 72  1  0
 44 73  1  0
 45 74  1  0
 46 75  1  0
 47 76  1  0
M  END
>  <Ligand ID>  (1) 
LIG0002612

>  <Ligand>  (1) 
CHEMBL3261375

>  <SMILES>  (1) 
N#CC(c1ccccc1)(c1ccccc1)CCONc1ccn(c(=O)n1)[C@@H]1O[C@@H]([C@H]([C@H]1O)O)COP(=O)(OP(=O)(OP(=O)(O)O)O)O

>  <CID>  (1) 
90656226.0

>  <ChEMBL ID>  (1) 
nan

>  <InChiKey>  (1) 
YWGARZGMLXLDKP-JMJGKCIBSA-N

>  <InChi>  (1) 
InChI=1S/C25H29N4O15P3/c26-16-25(17-7-3-1-4-8-17,18-9-5-2-6-10-18)12-14-40-28-20-11-13-29(24(32)27-20)23-22(31)21(30)19(42-23)15-41-46(36,37)44-47(38,39)43-45(33,34)35/h1-11,13,19,21-23,30-31H,12,14-15H2,(H,36,37)(H,38,39)(H,27,28,32)(H2,33,34,35)/t19-,21-,22-,23-/m1/s1

>  <IUPAC Name>  (1) 
[[(2R,3S,4R,5R)-5-[4-[(3-cyano-3,3-diphenylpropoxy)amino]-2-oxopyrimidin-1-yl]-3,4-dihydroxyoxolan-2-yl]methoxy-hydroxyphosphoryl] phosphono hydrogen phosphate

$$$$
