
     RDKit          3D

 16 16  0  0  0  0  0  0  0  0999 V2000
    1.8517   -0.3540    1.6082 O   0  0  0  0  0  0  0  0  0  0  0  0
    1.2211   -0.1682    0.5915 C   0  0  0  0  0  0  0  0  0  0  0  0
    0.8423    1.2092    0.1106 C   0  0  0  0  0  0  0  0  0  0  0  0
   -0.6408    1.2967    0.3543 C   0  0  0  0  0  0  0  0  0  0  0  0
   -1.3131    0.1119   -0.1833 C   0  0  0  0  0  0  0  0  0  0  0  0
   -2.4833    0.2522   -0.5666 O   0  0  0  0  0  0  0  0  0  0  0  0
   -0.7336   -1.2340   -0.3136 C   0  0  0  0  0  0  0  0  0  0  0  0
    0.7534   -1.2960   -0.2925 C   0  0  0  0  0  0  0  0  0  0  0  0
    0.9762    1.2645   -1.0025 H   0  0  0  0  0  0  0  0  0  0  0  0
    1.4342    2.0019    0.5575 H   0  0  0  0  0  0  0  0  0  0  0  0
   -1.0202    2.2054   -0.1924 H   0  0  0  0  0  0  0  0  0  0  0  0
   -0.8763    1.4943    1.4317 H   0  0  0  0  0  0  0  0  0  0  0  0
   -1.1830   -1.8480    0.5172 H   0  0  0  0  0  0  0  0  0  0  0  0
   -1.0842   -1.6437   -1.3040 H   0  0  0  0  0  0  0  0  0  0  0  0
    1.1294   -2.2687   -0.0014 H   0  0  0  0  0  0  0  0  0  0  0  0
    1.1262   -1.0236   -1.3146 H   0  0  0  0  0  0  0  0  0  0  0  0
  1  2  2  0
  2  3  1  0
  3  4  1  0
  4  5  1  0
  5  6  2  0
  5  7  1  0
  7  8  1  0
  8  2  1  0
  3  9  1  0
  3 10  1  0
  4 11  1  0
  4 12  1  0
  7 13  1  0
  7 14  1  0
  8 15  1  0
  8 16  1  0
M  END
>  <Ligand ID>  (1) 
LIG0000767

>  <Ligand>  (1) 
1,4-Cyclohexanedione

>  <SMILES>  (1) 
O=C1CCC(=O)CC1

>  <CID>  (1) 
12511.0

>  <ChEMBL ID>  (1) 
nan

>  <InChiKey>  (1) 
DCZFGQYXRKMVFG-UHFFFAOYSA-N

>  <InChi>  (1) 
InChI=1S/C6H8O2/c7-5-1-2-6(8)4-3-5/h1-4H2

>  <IUPAC Name>  (1) 
cyclohexane-1,4-dione

$$$$
