
     RDKit          3D

 26 26  0  0  0  0  0  0  0  0999 V2000
    3.8755    0.4461    0.1511 N   0  0  0  0  0  0  0  0  0  0  0  0
    2.9300   -0.6280    0.4441 C   0  0  0  0  0  0  0  0  0  0  0  0
    1.5517    0.0016    0.5003 C   0  0  1  0  0  0  0  0  0  0  0  0
    1.1871    0.6648   -0.8240 C   0  0  0  0  0  0  0  0  0  0  0  0
    0.4603   -0.5884   -0.2646 C   0  0  2  0  0  0  0  0  0  0  0  0
   -0.9615   -0.3436   -0.0713 C   0  0  0  0  0  0  0  0  0  0  0  0
   -1.7686   -0.3832   -1.2258 C   0  0  0  0  0  0  0  0  0  0  0  0
   -3.1097   -0.1600   -1.1900 C   0  0  0  0  0  0  0  0  0  0  0  0
   -3.7414    0.1210    0.0155 C   0  0  0  0  0  0  0  0  0  0  0  0
   -2.9780    0.1632    1.1418 C   0  0  0  0  0  0  0  0  0  0  0  0
   -1.6070   -0.0674    1.0902 C   0  0  0  0  0  0  0  0  0  0  0  0
   -0.7386   -0.0048    2.5985 Cl  0  0  0  0  0  0  0  0  0  0  0  0
    0.6847    0.0000    0.0000 Cl  0  0  0  0  0  0  0  0  0  0  0  0
    3.4707    1.1074   -0.5767 H   0  0  0  0  0  0  0  0  0  0  0  0
    4.0240    1.0328    0.9986 H   0  0  0  0  0  0  0  0  0  0  0  0
    2.9718   -1.3363   -0.4200 H   0  0  0  0  0  0  0  0  0  0  0  0
    3.2404   -1.0858    1.3966 H   0  0  0  0  0  0  0  0  0  0  0  0
    1.3618    0.5424    1.4232 H   0  0  0  0  0  0  0  0  0  0  0  0
    1.7978    0.5047   -1.7123 H   0  0  0  0  0  0  0  0  0  0  0  0
    0.6997    1.6443   -0.7018 H   0  0  0  0  0  0  0  0  0  0  0  0
    0.6643   -1.5230   -0.8502 H   0  0  0  0  0  0  0  0  0  0  0  0
   -1.3214   -0.5997   -2.1983 H   0  0  0  0  0  0  0  0  0  0  0  0
   -3.7390   -0.1879   -2.0705 H   0  0  0  0  0  0  0  0  0  0  0  0
   -4.7989    0.2963    0.0371 H   0  0  0  0  0  0  0  0  0  0  0  0
   -3.4711    0.3832    2.0873 H   0  0  0  0  0  0  0  0  0  0  0  0
   -0.6847    0.0000    0.0000 H   0  0  0  0  0  0  0  0  0  0  0  0
  1  2  1  0
  2  3  1  0
  3  4  1  0
  4  5  1  0
  5  6  1  0
  6  7  2  0
  7  8  1  0
  8  9  2  0
  9 10  1  0
 10 11  2  0
 11 12  1  0
  5  3  1  0
 11  6  1  0
  1 14  1  0
  1 15  1  0
  2 16  1  0
  2 17  1  0
  3 18  1  1
  4 19  1  0
  4 20  1  0
  5 21  1  6
  7 22  1  0
  8 23  1  0
  9 24  1  0
 10 25  1  0
 13 26  1  0
M  END
>  <Ligand ID>  (1) 
LIG0002391

>  <Ligand>  (1) 
CHEMBL443128

>  <SMILES>  (1) 
NC[C@H]1C[C@@H]1c1ccccc1Cl.Cl

>  <CID>  (1) 
44572748.0

>  <ChEMBL ID>  (1) 
nan

>  <InChiKey>  (1) 
OAHBKIWUFOWQEL-JXLXBRSFSA-N

>  <InChi>  (1) 
InChI=1S/C10H12ClN.ClH/c11-10-4-2-1-3-8(10)9-5-7(9)6-12;/h1-4,7,9H,5-6,12H2;1H/t7-,9+;/m1./s1

>  <IUPAC Name>  (1) 
[(1S,2S)-2-(2-chlorophenyl)cyclopropyl]methanamine;hydrochloride

$$$$
