
     RDKit          3D

 48 50  0  0  0  0  0  0  0  0999 V2000
    8.8740    3.1687    0.9775 O   0  0  0  0  0  0  0  0  0  0  0  0
    8.2172    2.0496    0.4503 C   0  0  0  0  0  0  0  0  0  0  0  0
    8.7921    1.2741   -0.3799 O   0  0  0  0  0  0  0  0  0  0  0  0
    6.8038    1.7443    0.8633 C   0  0  0  0  0  0  0  0  0  0  0  0
    6.4303    0.4807    0.1018 C   0  0  0  0  0  0  0  0  0  0  0  0
    5.0466    0.0468    0.4068 C   0  0  0  0  0  0  0  0  0  0  0  0
    4.7554   -0.8301    1.4554 C   0  0  0  0  0  0  0  0  0  0  0  0
    3.4443   -1.1954    1.6870 C   0  0  0  0  0  0  0  0  0  0  0  0
    2.4410   -0.6928    0.8841 C   0  0  0  0  0  0  0  0  0  0  0  0
    2.6899    0.1744   -0.1596 C   0  0  0  0  0  0  0  0  0  0  0  0
    4.0123    0.5245   -0.3701 C   0  0  0  0  0  0  0  0  0  0  0  0
    1.5918    0.6937   -0.9997 C   0  0  0  0  0  0  0  0  0  0  0  0
    1.0693   -1.1057    1.1649 C   0  0  0  0  0  0  0  0  0  0  0  0
    0.6654   -1.9377    2.1380 N   0  0  0  0  0  0  0  0  0  0  0  0
   -0.6216   -2.0617    2.0712 O   0  0  0  0  0  0  0  0  0  0  0  0
   -1.1227   -1.3498    1.0926 C   0  0  0  0  0  0  0  0  0  0  0  0
   -0.0566   -0.7439    0.5172 N   0  0  0  0  0  0  0  0  0  0  0  0
   -2.5037   -1.1930    0.6578 C   0  0  0  0  0  0  0  0  0  0  0  0
   -2.8554   -0.3839   -0.4170 C   0  0  0  0  0  0  0  0  0  0  0  0
   -4.1588   -0.2993   -0.7479 N   0  0  0  0  0  0  0  0  0  0  0  0
   -5.1391   -0.9600   -0.0891 C   0  0  0  0  0  0  0  0  0  0  0  0
   -4.8375   -1.7781    0.9884 C   0  0  0  0  0  0  0  0  0  0  0  0
   -3.4920   -1.8893    1.3600 C   0  0  0  0  0  0  0  0  0  0  0  0
   -6.0799   -2.6492    1.8657 Cl  0  0  0  0  0  0  0  0  0  0  0  0
   -6.4756   -0.8541   -0.4524 O   0  0  0  0  0  0  0  0  0  0  0  0
   -6.9326   -0.0650   -1.5202 C   0  0  0  0  0  0  0  0  0  0  0  0
   -7.6220   -0.8414   -2.6083 C   0  0  0  0  0  0  0  0  0  0  0  0
   -7.8066    1.0857   -1.0465 C   0  0  0  0  0  0  0  0  0  0  0  0
    9.8451    3.2631    0.6431 H   0  0  0  0  0  0  0  0  0  0  0  0
    6.7999    1.5253    1.9513 H   0  0  0  0  0  0  0  0  0  0  0  0
    6.1452    2.5880    0.6540 H   0  0  0  0  0  0  0  0  0  0  0  0
    7.1810   -0.2857    0.4189 H   0  0  0  0  0  0  0  0  0  0  0  0
    6.5957    0.6289   -0.9795 H   0  0  0  0  0  0  0  0  0  0  0  0
    5.5584   -1.2122    2.0728 H   0  0  0  0  0  0  0  0  0  0  0  0
    3.2012   -1.8786    2.5012 H   0  0  0  0  0  0  0  0  0  0  0  0
    4.2606    1.2101   -1.1863 H   0  0  0  0  0  0  0  0  0  0  0  0
    1.0775   -0.1616   -1.4925 H   0  0  0  0  0  0  0  0  0  0  0  0
    2.0476    1.3447   -1.7746 H   0  0  0  0  0  0  0  0  0  0  0  0
    0.8855    1.3353   -0.4411 H   0  0  0  0  0  0  0  0  0  0  0  0
   -2.0876    0.1530   -0.9574 H   0  0  0  0  0  0  0  0  0  0  0  0
   -3.1881   -2.5153    2.1969 H   0  0  0  0  0  0  0  0  0  0  0  0
   -6.0334    0.4116   -1.9626 H   0  0  0  0  0  0  0  0  0  0  0  0
   -8.1591   -1.7348   -2.2079 H   0  0  0  0  0  0  0  0  0  0  0  0
   -8.3813   -0.1908   -3.0911 H   0  0  0  0  0  0  0  0  0  0  0  0
   -6.8842   -1.1175   -3.3842 H   0  0  0  0  0  0  0  0  0  0  0  0
   -7.7482    1.8703   -1.8385 H   0  0  0  0  0  0  0  0  0  0  0  0
   -8.8554    0.7594   -0.8896 H   0  0  0  0  0  0  0  0  0  0  0  0
   -7.3898    1.4962   -0.1242 H   0  0  0  0  0  0  0  0  0  0  0  0
  1  2  1  0
  2  3  2  0
  2  4  1  0
  4  5  1  0
  5  6  1  0
  6  7  2  0
  7  8  1  0
  8  9  2  0
  9 10  1  0
 10 11  2  0
 10 12  1  0
  9 13  1  0
 13 14  2  0
 14 15  1  0
 15 16  1  0
 16 17  2  0
 16 18  1  0
 18 19  2  0
 19 20  1  0
 20 21  2  0
 21 22  1  0
 22 23  2  0
 22 24  1  0
 21 25  1  0
 25 26  1  0
 26 27  1  0
 26 28  1  0
 11  6  1  0
 17 13  1  0
 23 18  1  0
  1 29  1  0
  4 30  1  0
  4 31  1  0
  5 32  1  0
  5 33  1  0
  7 34  1  0
  8 35  1  0
 11 36  1  0
 12 37  1  0
 12 38  1  0
 12 39  1  0
 19 40  1  0
 23 41  1  0
 26 42  1  0
 27 43  1  0
 27 44  1  0
 27 45  1  0
 28 46  1  0
 28 47  1  0
 28 48  1  0
M  END
>  <Ligand ID>  (1) 
LIG0001689

>  <Ligand>  (1) 
CHEMBL210695

>  <SMILES>  (1) 
OC(=O)CCc1ccc(c(c1)C)c1noc(n1)c1cnc(c(c1)Cl)OC(C)C

>  <CID>  (1) 
11697013.0

>  <ChEMBL ID>  (1) 
nan

>  <InChiKey>  (1) 
UHRJSAKDHQPMAD-UHFFFAOYSA-N

>  <InChi>  (1) 
InChI=1S/C20H20ClN3O4/c1-11(2)27-20-16(21)9-14(10-22-20)19-23-18(24-28-19)15-6-4-13(8-12(15)3)5-7-17(25)26/h4,6,8-11H,5,7H2,1-3H3,(H,25,26)

>  <IUPAC Name>  (1) 
3-[4-[5-(5-chloro-6-propan-2-yloxypyridin-3-yl)-1,2,4-oxadiazol-3-yl]-3-methylphenyl]propanoic acid

$$$$
