
     RDKit          3D

 33 34  0  0  0  0  0  0  0  0999 V2000
    1.6732   -1.3506    1.9706 O   0  0  0  0  0  0  0  0  0  0  0  0
    0.7472   -0.9298    1.2280 C   0  0  0  0  0  0  0  0  0  0  0  0
   -0.6408   -1.3131    1.5730 C   0  0  0  0  0  0  0  0  0  0  0  0
   -1.6246   -0.7730    0.6502 N   0  0  0  0  0  0  0  0  0  0  0  0
   -2.1800    0.4281    0.8820 N   0  0  0  0  0  0  0  0  0  0  0  0
   -3.0922    0.9758    0.0657 C   0  0  0  0  0  0  0  0  0  0  0  0
   -3.6797    2.3143    0.3681 C   0  0  0  0  0  0  0  0  0  0  0  0
   -3.5289    0.3436   -1.0762 C   0  0  0  0  0  0  0  0  0  0  0  0
   -2.9629   -0.9068   -1.3346 C   0  0  0  0  0  0  0  0  0  0  0  0
   -2.0253   -1.4246   -0.4578 C   0  0  0  0  0  0  0  0  0  0  0  0
   -1.5028   -2.5586   -0.6793 O   0  0  0  0  0  0  0  0  0  0  0  0
   -3.3513   -1.6520   -2.5040 N   0  0  0  0  0  0  0  0  0  0  0  0
    1.0542   -0.1121    0.0977 N   0  0  0  0  0  0  0  0  0  0  0  0
    2.4476    0.1721   -0.1040 C   0  0  0  0  0  0  0  0  0  0  0  0
    3.2210   -0.6773   -0.8872 C   0  0  0  0  0  0  0  0  0  0  0  0
    4.5755   -0.4002   -1.0826 C   0  0  0  0  0  0  0  0  0  0  0  0
    5.1605    0.6975   -0.5152 C   0  0  0  0  0  0  0  0  0  0  0  0
    4.3812    1.5431    0.2670 C   0  0  0  0  0  0  0  0  0  0  0  0
    3.0321    1.2984    0.4825 C   0  0  0  0  0  0  0  0  0  0  0  0
    7.0154    1.0253   -0.8174 Br  0  0  0  0  0  0  0  0  0  0  0  0
   -0.6866   -2.4201    1.4941 H   0  0  0  0  0  0  0  0  0  0  0  0
   -0.9511   -1.0659    2.5899 H   0  0  0  0  0  0  0  0  0  0  0  0
   -2.8807    2.9400    0.8389 H   0  0  0  0  0  0  0  0  0  0  0  0
   -4.1317    2.7798   -0.5116 H   0  0  0  0  0  0  0  0  0  0  0  0
   -4.4289    2.1410    1.1891 H   0  0  0  0  0  0  0  0  0  0  0  0
   -4.2551    0.7445   -1.7554 H   0  0  0  0  0  0  0  0  0  0  0  0
   -3.7573   -1.1348   -3.3113 H   0  0  0  0  0  0  0  0  0  0  0  0
   -3.2010   -2.6824   -2.4735 H   0  0  0  0  0  0  0  0  0  0  0  0
    0.3053    0.2409   -0.5211 H   0  0  0  0  0  0  0  0  0  0  0  0
    2.8204   -1.5559   -1.3603 H   0  0  0  0  0  0  0  0  0  0  0  0
    5.1698   -1.0748   -1.6990 H   0  0  0  0  0  0  0  0  0  0  0  0
    4.8628    2.4246    0.7193 H   0  0  0  0  0  0  0  0  0  0  0  0
    2.4147    1.9631    1.0988 H   0  0  0  0  0  0  0  0  0  0  0  0
  1  2  2  0
  2  3  1  0
  3  4  1  0
  4  5  1  0
  5  6  2  0
  6  7  1  0
  6  8  1  0
  8  9  2  0
  9 10  1  0
 10 11  2  0
  9 12  1  0
  2 13  1  0
 13 14  1  0
 14 15  2  0
 15 16  1  0
 16 17  2  0
 17 18  1  0
 18 19  2  0
 17 20  1  0
 10  4  1  0
 19 14  1  0
  3 21  1  0
  3 22  1  0
  7 23  1  0
  7 24  1  0
  7 25  1  0
  8 26  1  0
 12 27  1  0
 12 28  1  0
 13 29  1  0
 15 30  1  0
 16 31  1  0
 18 32  1  0
 19 33  1  0
M  END
>  <Ligand ID>  (1) 
LIG0003955

>  <Ligand>  (1) 
CHEMBL2391448

>  <SMILES>  (1) 
O=C(Cn1nc(C)cc(c1=O)N)Nc1ccc(cc1)Br

>  <CID>  (1) 
71698442.0

>  <ChEMBL ID>  (1) 
nan

>  <InChiKey>  (1) 
WPYRTEPZXMIHCR-UHFFFAOYSA-N

>  <InChi>  (1) 
InChI=1S/C13H13BrN4O2/c1-8-6-11(15)13(20)18(17-8)7-12(19)16-10-4-2-9(14)3-5-10/h2-6H,7,15H2,1H3,(H,16,19)

>  <IUPAC Name>  (1) 
2-(5-amino-3-methyl-6-oxopyridazin-1-yl)-N-(4-bromophenyl)acetamide

$$$$
