
     RDKit          3D

 85 87  0  0  0  0  0  0  0  0999 V2000
    3.6892    0.2978   -1.8924 O   0  0  0  0  0  0  0  0  0  0  0  0
    3.7845    1.2681   -1.1011 C   0  0  0  0  0  0  0  0  0  0  0  0
    3.0516    1.1369    0.1287 N   0  0  0  0  0  0  0  0  0  0  0  0
    2.2736   -0.0792    0.3494 C   0  0  2  0  0  0  0  0  0  0  0  0
    0.8284    0.2567    0.5105 C   0  0  0  0  0  0  0  0  0  0  0  0
    0.5367    1.4989    0.4684 O   0  0  0  0  0  0  0  0  0  0  0  0
   -0.1847   -0.7016    0.6975 N   0  0  0  0  0  0  0  0  0  0  0  0
   -1.5457   -0.2285    0.8401 C   0  0  1  0  0  0  0  0  0  0  0  0
   -2.4931   -0.7805   -0.1321 C   0  0  0  0  0  0  0  0  0  0  0  0
   -2.2390   -1.6522   -0.9897 O   0  0  0  0  0  0  0  0  0  0  0  0
   -3.8407   -0.2541   -0.0825 N   0  0  0  0  0  0  0  0  0  0  0  0
   -4.8746   -0.7050   -0.9824 C   0  0  1  0  0  0  0  0  0  0  0  0
   -6.0381   -1.2159   -0.2619 C   0  0  0  0  0  0  0  0  0  0  0  0
   -7.0592   -1.6767   -0.8780 O   0  0  0  0  0  0  0  0  0  0  0  0
   -6.1539   -1.2539    1.1718 N   0  0  0  0  0  0  0  0  0  0  0  0
   -5.1675    0.3108   -2.0506 C   0  0  0  0  0  0  0  0  0  0  0  0
   -5.6100    1.6424   -1.5704 C   0  0  0  0  0  0  0  0  0  0  0  0
   -6.8760    1.7005   -0.7888 C   0  0  0  0  0  0  0  0  0  0  0  0
   -7.9601    1.2006   -1.6277 N   0  0  0  0  0  0  0  0  0  0  0  0
   -9.1308    1.7176   -1.5728 C   0  0  0  0  0  0  0  0  0  0  0  0
   -9.3488    2.8032   -0.6628 N   0  0  0  0  0  0  0  0  0  0  0  0
  -10.1567    1.2010   -2.4032 N   0  0  0  0  0  0  0  0  0  0  0  0
   -1.9726   -0.7103    2.2353 C   0  0  0  0  0  0  0  0  0  0  0  0
   -1.8705   -2.1997    2.2996 C   0  0  0  0  0  0  0  0  0  0  0  0
   -2.8814   -3.0442    1.9188 C   0  0  0  0  0  0  0  0  0  0  0  0
   -2.7951   -4.4225    1.9899 C   0  0  0  0  0  0  0  0  0  0  0  0
   -1.6272   -4.9864    2.4708 C   0  0  0  0  0  0  0  0  0  0  0  0
   -0.5827   -4.1789    2.8660 C   0  0  0  0  0  0  0  0  0  0  0  0
   -0.7102   -2.7972    2.7784 C   0  0  0  0  0  0  0  0  0  0  0  0
    2.7020   -0.6787    1.6641 C   0  0  0  0  0  0  0  0  0  0  0  0
    4.1308   -1.0434    1.7310 C   0  0  0  0  0  0  0  0  0  0  0  0
    4.6631   -2.2410    1.3863 N   0  0  0  0  0  0  0  0  0  0  0  0
    5.9972   -2.2078    1.5892 C   0  0  0  0  0  0  0  0  0  0  0  0
    6.2732   -0.9811    2.0598 N   0  0  0  0  0  0  0  0  0  0  0  0
    5.1485   -0.2463    2.1569 C   0  0  0  0  0  0  0  0  0  0  0  0
    4.5830    2.4892   -1.3728 C   0  0  0  0  0  0  0  0  0  0  0  0
    5.2160    2.3842   -2.7343 C   0  0  0  0  0  0  0  0  0  0  0  0
    6.1861    1.2588   -2.8954 C   0  0  0  0  0  0  0  0  0  0  0  0
    7.3266    1.4367   -1.9205 C   0  0  0  0  0  0  0  0  0  0  0  0
    7.2966    0.9007   -0.6586 C   0  0  0  0  0  0  0  0  0  0  0  0
    8.3727    1.0935    0.2042 C   0  0  0  0  0  0  0  0  0  0  0  0
    9.4629    1.8280   -0.2311 C   0  0  0  0  0  0  0  0  0  0  0  0
    9.5182    2.3749   -1.4885 C   0  0  0  0  0  0  0  0  0  0  0  0
    8.4368    2.1723   -2.3325 C   0  0  0  0  0  0  0  0  0  0  0  0
    3.0568    1.8741    0.8612 H   0  0  0  0  0  0  0  0  0  0  0  0
    2.4446   -0.8116   -0.4433 H   0  0  0  0  0  0  0  0  0  0  0  0
    0.0833   -1.7054    0.7261 H   0  0  0  0  0  0  0  0  0  0  0  0
   -1.5737    0.8799    0.8340 H   0  0  0  0  0  0  0  0  0  0  0  0
   -4.0916    0.4856    0.6354 H   0  0  0  0  0  0  0  0  0  0  0  0
   -4.4466   -1.6115   -1.5354 H   0  0  0  0  0  0  0  0  0  0  0  0
   -6.7060   -1.9884    1.6590 H   0  0  0  0  0  0  0  0  0  0  0  0
   -5.6715   -0.5255    1.7650 H   0  0  0  0  0  0  0  0  0  0  0  0
   -4.2912    0.4178   -2.7497 H   0  0  0  0  0  0  0  0  0  0  0  0
   -5.9764   -0.0857   -2.7386 H   0  0  0  0  0  0  0  0  0  0  0  0
   -4.7707    2.1581   -1.0417 H   0  0  0  0  0  0  0  0  0  0  0  0
   -5.7749    2.3069   -2.4771 H   0  0  0  0  0  0  0  0  0  0  0  0
   -7.1080    2.7845   -0.5775 H   0  0  0  0  0  0  0  0  0  0  0  0
   -6.8864    1.1711    0.1597 H   0  0  0  0  0  0  0  0  0  0  0  0
   -9.5939    2.6415    0.3533 H   0  0  0  0  0  0  0  0  0  0  0  0
   -9.2609    3.7780   -1.0289 H   0  0  0  0  0  0  0  0  0  0  0  0
  -10.2370    0.1772   -2.6213 H   0  0  0  0  0  0  0  0  0  0  0  0
  -10.8625    1.8531   -2.8163 H   0  0  0  0  0  0  0  0  0  0  0  0
   -2.9804   -0.3373    2.4830 H   0  0  0  0  0  0  0  0  0  0  0  0
   -1.2144   -0.3088    2.9385 H   0  0  0  0  0  0  0  0  0  0  0  0
   -3.7930   -2.6249    1.5408 H   0  0  0  0  0  0  0  0  0  0  0  0
   -3.6382   -5.0416    1.6692 H   0  0  0  0  0  0  0  0  0  0  0  0
   -1.5933   -6.0752    2.5145 H   0  0  0  0  0  0  0  0  0  0  0  0
    0.3122   -4.6420    3.2352 H   0  0  0  0  0  0  0  0  0  0  0  0
    0.1249   -2.1703    3.0953 H   0  0  0  0  0  0  0  0  0  0  0  0
    2.4346   -0.0257    2.5250 H   0  0  0  0  0  0  0  0  0  0  0  0
    2.1040   -1.6182    1.8523 H   0  0  0  0  0  0  0  0  0  0  0  0
    4.1426   -3.0672    1.0219 H   0  0  0  0  0  0  0  0  0  0  0  0
    6.7085   -3.0207    1.4059 H   0  0  0  0  0  0  0  0  0  0  0  0
    5.0857    0.7881    2.5105 H   0  0  0  0  0  0  0  0  0  0  0  0
    5.3508    2.6398   -0.5762 H   0  0  0  0  0  0  0  0  0  0  0  0
    3.8905    3.3587   -1.4105 H   0  0  0  0  0  0  0  0  0  0  0  0
    4.4073    2.2116   -3.5039 H   0  0  0  0  0  0  0  0  0  0  0  0
    5.6824    3.3392   -3.0523 H   0  0  0  0  0  0  0  0  0  0  0  0
    6.6446    1.3381   -3.9266 H   0  0  0  0  0  0  0  0  0  0  0  0
    5.7610    0.2520   -2.8541 H   0  0  0  0  0  0  0  0  0  0  0  0
    6.4214    0.3415   -0.3814 H   0  0  0  0  0  0  0  0  0  0  0  0
    8.3518    0.6701    1.2068 H   0  0  0  0  0  0  0  0  0  0  0  0
   10.3015    1.9736    0.4521 H   0  0  0  0  0  0  0  0  0  0  0  0
   10.3878    2.9538   -1.8149 H   0  0  0  0  0  0  0  0  0  0  0  0
    8.4154    2.5778   -3.3429 H   0  0  0  0  0  0  0  0  0  0  0  0
  1  2  2  0
  2  3  1  0
  3  4  1  0
  4  5  1  0
  5  6  2  0
  5  7  1  0
  7  8  1  0
  8  9  1  0
  9 10  2  0
  9 11  1  0
 11 12  1  0
 12 13  1  0
 13 14  2  0
 13 15  1  0
 12 16  1  0
 16 17  1  0
 17 18  1  0
 18 19  1  0
 19 20  2  3
 20 21  1  0
 20 22  1  0
  8 23  1  0
 23 24  1  0
 24 25  2  0
 25 26  1  0
 26 27  2  0
 27 28  1  0
 28 29  2  0
  4 30  1  0
 30 31  1  0
 31 32  1  0
 32 33  1  0
 33 34  2  0
 34 35  1  0
  2 36  1  0
 36 37  1  0
 37 38  1  0
 38 39  1  0
 39 40  2  0
 40 41  1  0
 41 42  2  0
 42 43  1  0
 43 44  2  0
 29 24  1  0
 35 31  2  0
 44 39  1  0
  3 45  1  0
  4 46  1  6
  7 47  1  0
  8 48  1  1
 11 49  1  0
 12 50  1  6
 15 51  1  0
 15 52  1  0
 16 53  1  0
 16 54  1  0
 17 55  1  0
 17 56  1  0
 18 57  1  0
 18 58  1  0
 21 59  1  0
 21 60  1  0
 22 61  1  0
 22 62  1  0
 23 63  1  0
 23 64  1  0
 25 65  1  0
 26 66  1  0
 27 67  1  0
 28 68  1  0
 29 69  1  0
 30 70  1  0
 30 71  1  0
 32 72  1  0
 33 73  1  0
 35 74  1  0
 36 75  1  0
 36 76  1  0
 37 77  1  0
 37 78  1  0
 38 79  1  0
 38 80  1  0
 40 81  1  0
 41 82  1  0
 42 83  1  0
 43 84  1  0
 44 85  1  0
M  END
>  <Ligand ID>  (1) 
LIG0000827

>  <Ligand>  (1) 
CHEMBL569694

>  <SMILES>  (1) 
O=C(N[C@H](C(=O)N[C@@H](C(=O)N[C@@H](C(=O)N)CCCN=C(N)N)Cc1ccccc1)Cc1[nH]cnc1)CCCc1ccccc1

>  <CID>  (1) 
45487404.0

>  <ChEMBL ID>  (1) 
nan

>  <InChiKey>  (1) 
PZZOHVGUHARWRP-CYXNTTPDSA-N

>  <InChi>  (1) 
InChI=1S/C31H41N9O4/c32-28(42)24(14-8-16-36-31(33)34)39-29(43)25(17-22-11-5-2-6-12-22)40-30(44)26(18-23-19-35-20-37-23)38-27(41)15-7-13-21-9-3-1-4-10-21/h1-6,9-12,19-20,24-26H,7-8,13-18H2,(H2,32,42)(H,35,37)(H,38,41)(H,39,43)(H,40,44)(H4,33,34,36)/t24-,25-,26+/m1/s1

>  <IUPAC Name>  (1) 
(2R)-5-(diaminomethylideneamino)-2-[[(2R)-2-[[(2S)-3-(1H-imidazol-5-yl)-2-(4-phenylbutanoylamino)propanoyl]amino]-3-phenylpropanoyl]amino]pentanamide

$$$$
