
     RDKit          3D

 20 19  0  0  0  0  0  0  0  0999 V2000
   -3.0312    1.1196   -0.4059 O   0  0  0  0  0  0  0  0  0  0  0  0
   -1.7402    0.9579    0.1481 C   0  0  0  0  0  0  0  0  0  0  0  0
   -1.2405    1.9969    0.6278 O   0  0  0  0  0  0  0  0  0  0  0  0
   -1.1310   -0.3698    0.1083 C   0  0  2  0  0  0  0  0  0  0  0  0
    0.2097   -0.4675   -0.5572 C   0  0  0  0  0  0  0  0  0  0  0  0
    1.1942    0.3882    0.1448 C   0  0  2  0  0  0  0  0  0  0  0  0
    2.5566    0.3349   -0.4544 C   0  0  0  0  0  0  0  0  0  0  0  0
    3.5288   -0.0702    0.2607 O   0  0  0  0  0  0  0  0  0  0  0  0
    2.7697    0.7171   -1.7640 O   0  0  0  0  0  0  0  0  0  0  0  0
    1.3251   -0.0559    1.4538 O   0  0  0  0  0  0  0  0  0  0  0  0
   -2.0750   -1.3339   -0.4362 N   0  0  0  0  0  0  0  0  0  0  0  0
   -3.5859    1.9188   -0.1413 H   0  0  0  0  0  0  0  0  0  0  0  0
   -1.0134   -0.6905    1.1882 H   0  0  0  0  0  0  0  0  0  0  0  0
    0.0825   -0.2219   -1.6350 H   0  0  0  0  0  0  0  0  0  0  0  0
    0.5053   -1.5556   -0.5197 H   0  0  0  0  0  0  0  0  0  0  0  0
    0.8972    1.4473    0.1624 H   0  0  0  0  0  0  0  0  0  0  0  0
    3.7263    0.6571   -2.1317 H   0  0  0  0  0  0  0  0  0  0  0  0
    1.3724   -1.0470    1.4157 H   0  0  0  0  0  0  0  0  0  0  0  0
   -2.6611   -1.7828    0.2844 H   0  0  0  0  0  0  0  0  0  0  0  0
   -1.6895   -1.9426   -1.1631 H   0  0  0  0  0  0  0  0  0  0  0  0
  1  2  1  0
  2  3  2  0
  2  4  1  0
  4  5  1  0
  5  6  1  0
  6  7  1  0
  7  8  2  0
  7  9  1  0
  6 10  1  0
  4 11  1  0
  1 12  1  0
  4 13  1  1
  5 14  1  0
  5 15  1  0
  6 16  1  1
  9 17  1  0
 10 18  1  0
 11 19  1  0
 11 20  1  0
M  END
>  <Ligand ID>  (1) 
LIG0002114

>  <Ligand>  (1) 
2485-33-8

>  <SMILES>  (1) 
OC(=O)[C@H](C[C@H](C(=O)O)O)N

>  <CID>  (1) 
440854.0

>  <ChEMBL ID>  (1) 
nan

>  <InChiKey>  (1) 
HBDWQSHEVMSFGY-STHAYSLISA-N

>  <InChi>  (1) 
InChI=1S/C5H9NO5/c6-2(4(8)9)1-3(7)5(10)11/h2-3,7H,1,6H2,(H,8,9)(H,10,11)/t2-,3+/m0/s1

>  <IUPAC Name>  (1) 
(2S,4R)-2-amino-4-hydroxypentanedioic acid

$$$$
