
     RDKit          3D

 55 57  0  0  0  0  0  0  0  0999 V2000
   -0.1134   -0.4909   -3.4362 O   0  0  0  0  0  0  0  0  0  0  0  0
   -0.7366   -1.7446   -3.2942 C   0  0  0  0  0  0  0  0  0  0  0  0
    0.0201   -2.5097   -2.2639 C   0  0  0  0  0  0  0  0  0  0  0  0
    0.0303   -1.8504   -1.0127 N   0  0  0  0  0  0  0  0  0  0  0  0
   -0.7074   -0.7118   -0.6160 C   0  0  0  0  0  0  0  0  0  0  0  0
   -0.0953    0.5054   -0.4986 N   0  0  0  0  0  0  0  0  0  0  0  0
   -0.7569    1.6123   -0.1338 C   0  0  0  0  0  0  0  0  0  0  0  0
   -0.0595    3.2200    0.0362 S   0  0  0  0  0  0  0  0  0  0  0  0
    1.6681    3.3741   -0.3370 C   0  0  0  0  0  0  0  0  0  0  0  0
    2.5974    2.6656    0.5427 C   0  0  0  0  0  0  0  0  0  0  0  0
    2.9675    3.2634    1.7307 C   0  0  0  0  0  0  0  0  0  0  0  0
    3.8858    2.6306    2.5813 C   0  0  0  0  0  0  0  0  0  0  0  0
    4.3972    1.4590    2.2426 N   0  0  0  0  0  0  0  0  0  0  0  0
    4.0450    0.8596    1.0804 C   0  0  0  0  0  0  0  0  0  0  0  0
    3.1478    1.4508    0.2246 C   0  0  0  0  0  0  0  0  0  0  0  0
    4.6646   -0.4272    0.7396 C   0  0  0  0  0  0  0  0  0  0  0  0
    4.3966   -1.0256   -0.3345 O   0  0  0  0  0  0  0  0  0  0  0  0
    5.5913   -1.0392    1.6129 N   0  0  0  0  0  0  0  0  0  0  0  0
    6.2127   -2.3200    1.2567 C   0  0  0  0  0  0  0  0  0  0  0  0
   -2.1310    1.4899    0.1313 C   0  0  0  0  0  0  0  0  0  0  0  0
   -2.7739    0.2888    0.0229 C   0  0  0  0  0  0  0  0  0  0  0  0
   -2.0664   -0.8337   -0.3535 C   0  0  0  0  0  0  0  0  0  0  0  0
   -2.7777   -2.0651   -0.4243 C   0  0  0  0  0  0  0  0  0  0  0  0
   -3.3381   -3.0630   -0.4957 N   0  0  0  0  0  0  0  0  0  0  0  0
   -4.2120    0.2541    0.3207 C   0  0  0  0  0  0  0  0  0  0  0  0
   -4.6282   -0.0125    1.6059 C   0  0  0  0  0  0  0  0  0  0  0  0
   -5.9803   -0.0481    1.9500 C   0  0  0  0  0  0  0  0  0  0  0  0
   -6.8932    0.1983    0.9321 C   0  0  0  0  0  0  0  0  0  0  0  0
   -6.5050    0.4683   -0.3655 C   0  0  0  0  0  0  0  0  0  0  0  0
   -5.1483    0.4907   -0.6474 C   0  0  0  0  0  0  0  0  0  0  0  0
   -2.8901    2.6590    0.5303 C   0  0  0  0  0  0  0  0  0  0  0  0
   -3.4993    3.5952    0.8314 N   0  0  0  0  0  0  0  0  0  0  0  0
    0.8820   -2.4401    0.0433 C   0  0  0  0  0  0  0  0  0  0  0  0
    0.8371   -0.5018   -3.2461 H   0  0  0  0  0  0  0  0  0  0  0  0
   -1.7902   -1.6694   -3.0226 H   0  0  0  0  0  0  0  0  0  0  0  0
   -0.6066   -2.3153   -4.2560 H   0  0  0  0  0  0  0  0  0  0  0  0
    1.0926   -2.5854   -2.6176 H   0  0  0  0  0  0  0  0  0  0  0  0
   -0.3005   -3.5809   -2.1988 H   0  0  0  0  0  0  0  0  0  0  0  0
    1.9547    4.4692   -0.3432 H   0  0  0  0  0  0  0  0  0  0  0  0
    1.9089    3.0651   -1.3999 H   0  0  0  0  0  0  0  0  0  0  0  0
    2.5530    4.2391    2.0372 H   0  0  0  0  0  0  0  0  0  0  0  0
    4.1460    3.1482    3.5106 H   0  0  0  0  0  0  0  0  0  0  0  0
    2.8883    0.9287   -0.7095 H   0  0  0  0  0  0  0  0  0  0  0  0
    5.8045   -0.5422    2.5047 H   0  0  0  0  0  0  0  0  0  0  0  0
    6.8183   -2.7423    2.0544 H   0  0  0  0  0  0  0  0  0  0  0  0
    5.4657   -2.9900    0.7996 H   0  0  0  0  0  0  0  0  0  0  0  0
    6.9303   -2.0358    0.4289 H   0  0  0  0  0  0  0  0  0  0  0  0
   -3.8813   -0.2052    2.3887 H   0  0  0  0  0  0  0  0  0  0  0  0
   -6.3015   -0.2602    2.9759 H   0  0  0  0  0  0  0  0  0  0  0  0
   -7.9572    0.1717    1.1898 H   0  0  0  0  0  0  0  0  0  0  0  0
   -7.2534    0.6476   -1.0968 H   0  0  0  0  0  0  0  0  0  0  0  0
   -4.7837    0.6965   -1.6466 H   0  0  0  0  0  0  0  0  0  0  0  0
    0.8266   -3.5418   -0.0336 H   0  0  0  0  0  0  0  0  0  0  0  0
    1.9246   -2.1301   -0.0532 H   0  0  0  0  0  0  0  0  0  0  0  0
    0.5300   -2.1689    1.0519 H   0  0  0  0  0  0  0  0  0  0  0  0
  1  2  1  0
  2  3  1  0
  3  4  1  0
  4  5  1  0
  5  6  2  0
  6  7  1  0
  7  8  1  0
  8  9  1  0
  9 10  1  0
 10 11  2  0
 11 12  1  0
 12 13  2  0
 13 14  1  0
 14 15  2  0
 14 16  1  0
 16 17  2  0
 16 18  1  0
 18 19  1  0
  7 20  2  0
 20 21  1  0
 21 22  2  0
 22 23  1  0
 23 24  3  0
 21 25  1  0
 25 26  2  0
 26 27  1  0
 27 28  2  0
 28 29  1  0
 29 30  2  0
 20 31  1  0
 31 32  3  0
  4 33  1  0
 22  5  1  0
 30 25  1  0
 15 10  1  0
  1 34  1  0
  2 35  1  0
  2 36  1  0
  3 37  1  0
  3 38  1  0
  9 39  1  0
  9 40  1  0
 11 41  1  0
 12 42  1  0
 15 43  1  0
 18 44  1  0
 19 45  1  0
 19 46  1  0
 19 47  1  0
 26 48  1  0
 27 49  1  0
 28 50  1  0
 29 51  1  0
 30 52  1  0
 33 53  1  0
 33 54  1  0
 33 55  1  0
M  END
>  <Ligand ID>  (1) 
LIG0004656

>  <Ligand>  (1) 
SCHEMBL244055

>  <SMILES>  (1) 
OCCN(c1nc(SCc2ccnc(c2)C(=O)NC)c(c(c1C#N)c1ccccc1)C#N)C

>  <CID>  (1) 
66631260.0

>  <ChEMBL ID>  (1) 
nan

>  <InChiKey>  (1) 
CUTIHBIGUWEKQJ-UHFFFAOYSA-N

>  <InChi>  (1) 
InChI=1S/C24H22N6O2S/c1-27-23(32)20-12-16(8-9-28-20)15-33-24-19(14-26)21(17-6-4-3-5-7-17)18(13-25)22(29-24)30(2)10-11-31/h3-9,12,31H,10-11,15H2,1-2H3,(H,27,32)

>  <IUPAC Name>  (1) 
4-[[3,5-dicyano-6-[2-hydroxyethyl(methyl)amino]-4-phenylpyridin-2-yl]sulfanylmethyl]-N-methylpyridine-2-carboxamide

$$$$
