
     RDKit          3D

 16 16  0  0  0  0  0  0  0  0999 V2000
   -2.0730   -0.3101    0.0996 C   0  0  0  0  0  0  0  0  0  0  0  0
   -0.5852   -0.2328    0.0375 C   0  0  0  0  0  0  0  0  0  0  0  0
    0.1703   -1.3790   -0.1789 C   0  0  0  0  0  0  0  0  0  0  0  0
    1.5485   -1.2689   -0.2304 C   0  0  0  0  0  0  0  0  0  0  0  0
    2.1914   -0.0364   -0.0702 C   0  0  0  0  0  0  0  0  0  0  0  0
    1.3999    1.0734    0.1424 C   0  0  0  0  0  0  0  0  0  0  0  0
    0.0146    0.9998    0.1999 C   0  0  0  0  0  0  0  0  0  0  0  0
   -0.7848    2.1087    0.4127 O   0  0  0  0  0  0  0  0  0  0  0  0
   -2.3796   -1.3373   -0.1598 H   0  0  0  0  0  0  0  0  0  0  0  0
   -2.5167    0.4507   -0.5759 H   0  0  0  0  0  0  0  0  0  0  0  0
   -2.4452   -0.0872    1.1258 H   0  0  0  0  0  0  0  0  0  0  0  0
   -0.3291   -2.3422   -0.3043 H   0  0  0  0  0  0  0  0  0  0  0  0
    2.1307   -2.1858   -0.4024 H   0  0  0  0  0  0  0  0  0  0  0  0
    3.2685    0.0439   -0.1113 H   0  0  0  0  0  0  0  0  0  0  0  0
    1.8436    2.0709    0.2759 H   0  0  0  0  0  0  0  0  0  0  0  0
   -1.4538    2.4323   -0.2605 H   0  0  0  0  0  0  0  0  0  0  0  0
  1  2  1  0
  2  3  2  0
  3  4  1  0
  4  5  2  0
  5  6  1  0
  6  7  2  0
  7  8  1  0
  7  2  1  0
  1  9  1  0
  1 10  1  0
  1 11  1  0
  3 12  1  0
  4 13  1  0
  5 14  1  0
  6 15  1  0
  8 16  1  0
M  END
>  <Ligand ID>  (1) 
LIG0000538

>  <Ligand>  (1) 
O-Cresol

>  <SMILES>  (1) 
Cc1ccccc1O

>  <CID>  (1) 
335.0

>  <ChEMBL ID>  (1) 
nan

>  <InChiKey>  (1) 
QWVGKYWNOKOFNN-UHFFFAOYSA-N

>  <InChi>  (1) 
InChI=1S/C7H8O/c1-6-4-2-3-5-7(6)8/h2-5,8H,1H3

>  <IUPAC Name>  (1) 
2-methylphenol

$$$$
