
     RDKit          3D

 91 92  0  0  0  0  0  0  0  0999 V2000
    4.2891   -0.9944   -0.8742 O   0  0  0  0  0  0  0  0  0  0  0  0
    3.3515   -0.1600   -0.2629 C   0  0  0  0  0  0  0  0  0  0  0  0
    3.7492    0.8129    0.4330 O   0  0  0  0  0  0  0  0  0  0  0  0
    1.9119   -0.4066   -0.4241 C   0  0  0  0  0  0  0  0  0  0  0  0
    1.0445    0.3789    0.1513 C   0  0  0  0  0  0  0  0  0  0  0  0
   -0.4031    0.2335    0.0629 C   0  0  0  0  0  0  0  0  0  0  0  0
   -1.2606    1.1204    0.7114 C   0  0  0  0  0  0  0  0  0  0  0  0
   -2.6333    1.0035    0.6428 C   0  0  0  0  0  0  0  0  0  0  0  0
   -3.2189   -0.0144   -0.0837 C   0  0  0  0  0  0  0  0  0  0  0  0
   -2.3927   -0.9079   -0.7366 C   0  0  0  0  0  0  0  0  0  0  0  0
   -1.0141   -0.7741   -0.6558 C   0  0  0  0  0  0  0  0  0  0  0  0
   -9.4521    2.4612    1.6652 O   0  0  0  0  0  0  0  0  0  0  0  0
   -9.4005    1.7186    0.5017 C   0  0  0  0  0  0  0  0  0  0  0  0
   -8.4045    0.6168    0.5352 C   0  0  0  0  0  0  0  0  0  0  0  0
   -7.2072    0.7220   -0.1307 C   0  0  0  0  0  0  0  0  0  0  0  0
   -6.2648   -0.2785   -0.1242 C   0  0  0  0  0  0  0  0  0  0  0  0
   -6.4817   -1.4532    0.5628 C   0  0  0  0  0  0  0  0  0  0  0  0
   -7.6949   -1.5728    1.2445 C   0  0  0  0  0  0  0  0  0  0  0  0
   -8.6372   -0.5530    1.2283 C   0  0  0  0  0  0  0  0  0  0  0  0
   -9.8552   -0.6701    1.9108 O   0  0  0  0  0  0  0  0  0  0  0  0
   -4.9959   -0.0287   -0.8969 C   0  0  2  0  0  0  0  0  0  0  0  0
   -3.9634   -1.0707   -0.6744 C   0  0  0  0  0  0  0  0  0  0  0  0
   -2.8082   -0.8322   -1.4785 N   0  0  0  0  0  0  0  0  0  0  0  0
   -1.9861    0.2765   -1.1701 C   0  0  0  0  0  0  0  0  0  0  0  0
   -0.8364    0.2509   -2.1990 C   0  0  0  0  0  0  0  0  0  0  0  0
   -0.1294   -1.0664   -2.0263 C   0  0  0  0  0  0  0  0  0  0  0  0
    0.4577   -1.2923   -0.6800 C   0  0  0  0  0  0  0  0  0  0  0  0
    1.4975   -0.2144   -0.2889 C   0  0  0  0  0  0  0  0  0  0  0  0
    2.5824   -0.2527   -1.2967 C   0  0  0  0  0  0  0  0  0  0  0  0
    3.6915    0.4734   -1.2053 O   0  0  0  0  0  0  0  0  0  0  0  0
    3.6605    1.7842   -1.0738 C   0  0  0  0  0  0  0  0  0  0  0  0
    3.2663    2.3455    0.2276 C   0  0  0  0  0  0  0  0  0  0  0  0
    4.1080    2.1439    1.4086 C   0  0  0  0  0  0  0  0  0  0  0  0
    4.4759    0.8993    2.0486 C   0  0  0  0  0  0  0  0  0  0  0  0
    5.2590   -0.1422    1.4098 C   0  0  0  0  0  0  0  0  0  0  0  0
    4.8280   -1.3394    0.9036 C   0  0  0  0  0  0  0  0  0  0  0  0
    5.6468   -2.2722    0.3046 C   0  0  0  0  0  0  0  0  0  0  0  0
    6.9940   -2.0106    0.1934 C   0  0  0  0  0  0  0  0  0  0  0  0
    7.4788   -0.8197    0.6870 C   0  0  0  0  0  0  0  0  0  0  0  0
    6.6420    0.0972    1.2815 C   0  0  0  0  0  0  0  0  0  0  0  0
    9.2067   -0.5304    0.5213 S   0  0  0  0  0  0  0  0  0  0  0  0
    9.7648   -1.1536   -0.7011 O   0  0  0  0  0  0  0  0  0  0  0  0
    9.4141    0.9648    0.5171 O   0  0  0  0  0  0  0  0  0  0  0  0
   10.0141   -1.1567    1.9221 N   0  0  0  0  0  0  0  0  0  0  0  0
   -4.5459    1.2180   -0.5671 O   0  0  0  0  0  0  0  0  0  0  0  0
    5.1900   -0.5917   -1.1235 H   0  0  0  0  0  0  0  0  0  0  0  0
    1.5710   -1.2302   -1.0133 H   0  0  0  0  0  0  0  0  0  0  0  0
    1.4300    1.2040    0.7409 H   0  0  0  0  0  0  0  0  0  0  0  0
   -0.7962    1.9184    1.2808 H   0  0  0  0  0  0  0  0  0  0  0  0
   -3.2591    1.7268    1.1707 H   0  0  0  0  0  0  0  0  0  0  0  0
   -4.2968   -0.0975   -0.1313 H   0  0  0  0  0  0  0  0  0  0  0  0
   -2.8297   -1.7225   -1.3183 H   0  0  0  0  0  0  0  0  0  0  0  0
   -0.4326   -1.4989   -1.1844 H   0  0  0  0  0  0  0  0  0  0  0  0
  -10.4062    2.5216    1.9747 H   0  0  0  0  0  0  0  0  0  0  0  0
   -9.0879    2.4296   -0.3187 H   0  0  0  0  0  0  0  0  0  0  0  0
  -10.3899    1.3433    0.1565 H   0  0  0  0  0  0  0  0  0  0  0  0
   -7.0143    1.6488   -0.6830 H   0  0  0  0  0  0  0  0  0  0  0  0
   -5.7348   -2.2346    0.5621 H   0  0  0  0  0  0  0  0  0  0  0  0
   -7.9100   -2.4767    1.7994 H   0  0  0  0  0  0  0  0  0  0  0  0
  -10.7238   -0.6362    1.3853 H   0  0  0  0  0  0  0  0  0  0  0  0
   -5.3598   -0.0273   -1.9725 H   0  0  0  0  0  0  0  0  0  0  0  0
   -4.3229   -2.1035   -0.9109 H   0  0  0  0  0  0  0  0  0  0  0  0
   -3.6373   -1.1329    0.3999 H   0  0  0  0  0  0  0  0  0  0  0  0
   -3.0687   -0.8958   -2.4695 H   0  0  0  0  0  0  0  0  0  0  0  0
   -1.5997    0.1981   -0.1306 H   0  0  0  0  0  0  0  0  0  0  0  0
   -2.4067    1.2757   -1.2645 H   0  0  0  0  0  0  0  0  0  0  0  0
   -0.1937    1.1274   -2.0971 H   0  0  0  0  0  0  0  0  0  0  0  0
   -1.3444    0.2097   -3.1942 H   0  0  0  0  0  0  0  0  0  0  0  0
   -0.9373   -1.8529   -2.1782 H   0  0  0  0  0  0  0  0  0  0  0  0
    0.5700   -1.2298   -2.8581 H   0  0  0  0  0  0  0  0  0  0  0  0
   -0.2793   -1.3251    0.1170 H   0  0  0  0  0  0  0  0  0  0  0  0
    1.0280   -2.2644   -0.7260 H   0  0  0  0  0  0  0  0  0  0  0  0
    0.8628    0.7353   -0.4033 H   0  0  0  0  0  0  0  0  0  0  0  0
    1.7541   -0.3667    0.7489 H   0  0  0  0  0  0  0  0  0  0  0  0
    2.9069   -1.3510   -1.4190 H   0  0  0  0  0  0  0  0  0  0  0  0
    2.0515   -0.0588   -2.3095 H   0  0  0  0  0  0  0  0  0  0  0  0
    2.9044    2.2192   -1.8453 H   0  0  0  0  0  0  0  0  0  0  0  0
    4.6085    2.2994   -1.4676 H   0  0  0  0  0  0  0  0  0  0  0  0
    2.2037    2.1482    0.5318 H   0  0  0  0  0  0  0  0  0  0  0  0
    3.2033    3.5022    0.0901 H   0  0  0  0  0  0  0  0  0  0  0  0
    3.6271    2.8409    2.2219 H   0  0  0  0  0  0  0  0  0  0  0  0
    5.0654    2.7693    1.1858 H   0  0  0  0  0  0  0  0  0  0  0  0
    5.0120    1.1197    3.0394 H   0  0  0  0  0  0  0  0  0  0  0  0
    3.5243    0.3794    2.4389 H   0  0  0  0  0  0  0  0  0  0  0  0
    3.7904   -1.5706    0.9792 H   0  0  0  0  0  0  0  0  0  0  0  0
    5.2253   -3.1837   -0.0636 H   0  0  0  0  0  0  0  0  0  0  0  0
    7.6352   -2.7409   -0.2758 H   0  0  0  0  0  0  0  0  0  0  0  0
    7.0746    1.0311    1.6602 H   0  0  0  0  0  0  0  0  0  0  0  0
   10.4769   -2.0586    1.6425 H   0  0  0  0  0  0  0  0  0  0  0  0
    9.2983   -1.4194    2.6483 H   0  0  0  0  0  0  0  0  0  0  0  0
   -4.7311    1.8674   -1.2983 H   0  0  0  0  0  0  0  0  0  0  0  0
  1  2  1  0
  2  3  2  0
  2  4  1  0
  4  5  2  0
  5  6  1  0
  6  7  2  0
  7  8  1  0
  8  9  2  0
  9 10  1  0
 10 11  2  0
 12 13  1  0
 13 14  1  0
 14 15  2  0
 15 16  1  0
 16 17  2  0
 17 18  1  0
 18 19  2  0
 19 20  1  0
 16 21  1  0
 21 22  1  0
 22 23  1  0
 23 24  1  0
 24 25  1  0
 25 26  1  0
 26 27  1  0
 27 28  1  0
 28 29  1  0
 29 30  1  0
 30 31  1  0
 31 32  1  0
 32 33  1  0
 33 34  1  0
 34 35  1  0
 35 36  2  0
 36 37  1  0
 37 38  2  0
 38 39  1  0
 39 40  2  0
 39 41  1  0
 41 42  2  0
 41 43  2  0
 41 44  1  0
 21 45  1  0
 11  6  1  0
 19 14  1  0
 40 35  1  0
  1 46  1  0
  4 47  1  0
  5 48  1  0
  7 49  1  0
  8 50  1  0
  9 51  1  0
 10 52  1  0
 11 53  1  0
 12 54  1  0
 13 55  1  0
 13 56  1  0
 15 57  1  0
 17 58  1  0
 18 59  1  0
 20 60  1  0
 21 61  1  6
 22 62  1  0
 22 63  1  0
 23 64  1  0
 24 65  1  0
 24 66  1  0
 25 67  1  0
 25 68  1  0
 26 69  1  0
 26 70  1  0
 27 71  1  0
 27 72  1  0
 28 73  1  0
 28 74  1  0
 29 75  1  0
 29 76  1  0
 31 77  1  0
 31 78  1  0
 32 79  1  0
 32 80  1  0
 33 81  1  0
 33 82  1  0
 34 83  1  0
 34 84  1  0
 36 85  1  0
 37 86  1  0
 38 87  1  0
 40 88  1  0
 44 89  1  0
 44 90  1  0
 45 91  1  0
M  END
>  <Ligand ID>  (1) 
LIG0002595

>  <Ligand>  (1) 
UNII-B623P04DB3

>  <SMILES>  (1) 
OC(=O)/C=C/c1ccccc1.OCc1cc(ccc1O)[C@H](CNCCCCCCOCCCCc1cccc(c1)S(=O)(=O)N)O

>  <CID>  (1) 
42611263.0

>  <ChEMBL ID>  (1) 
nan

>  <InChiKey>  (1) 
YAZYYGDPISTBAK-DTHFRSEHSA-N

>  <InChi>  (1) 
InChI=1S/C25H38N2O6S.C9H8O2/c26-34(31,32)23-10-7-9-20(16-23)8-3-6-15-33-14-5-2-1-4-13-27-18-25(30)21-11-12-24(29)22(17-21)19-28;10-9(11)7-6-8-4-2-1-3-5-8/h7,9-12,16-17,25,27-30H,1-6,8,13-15,18-19H2,(H2,26,31,32);1-7H,(H,10,11)/b;7-6+/t25-;/m0./s1

>  <IUPAC Name>  (1) 
3-[4-[6-[[(2R)-2-hydroxy-2-[4-hydroxy-3-(hydroxymethyl)phenyl]ethyl]amino]hexoxy]butyl]benzenesulfonamide;(E)-3-phenylprop-2-enoic acid

$$$$
