
     RDKit          3D

 51 54  0  0  0  0  0  0  0  0999 V2000
   -7.0529    3.3863    0.3159 Cl  0  0  0  0  0  0  0  0  0  0  0  0
   -5.4862    2.5941    0.2415 C   0  0  0  0  0  0  0  0  0  0  0  0
   -5.1957    1.7353   -0.7993 C   0  0  0  0  0  0  0  0  0  0  0  0
   -3.9748    1.0996   -0.8839 C   0  0  0  0  0  0  0  0  0  0  0  0
   -2.9981    1.2986    0.0692 C   0  0  0  0  0  0  0  0  0  0  0  0
   -3.2930    2.1532    1.1016 C   0  0  0  0  0  0  0  0  0  0  0  0
   -4.5100    2.7937    1.1954 C   0  0  0  0  0  0  0  0  0  0  0  0
   -1.7390    0.5911   -0.0770 C   0  0  0  0  0  0  0  0  0  0  0  0
   -0.4358    1.0842    0.0358 C   0  0  0  0  0  0  0  0  0  0  0  0
   -0.0721    2.4785    0.3087 C   0  0  0  0  0  0  0  0  0  0  0  0
    0.4120    0.0270   -0.1724 C   0  0  0  0  0  0  0  0  0  0  0  0
   -0.3965   -1.0303   -0.3970 N   0  0  0  0  0  0  0  0  0  0  0  0
   -1.6624   -0.7178   -0.3449 N   0  0  0  0  0  0  0  0  0  0  0  0
   -2.7113   -1.6694   -0.5501 C   0  0  0  0  0  0  0  0  0  0  0  0
   -2.8819   -2.2955   -1.7880 C   0  0  0  0  0  0  0  0  0  0  0  0
   -3.9113   -3.2192   -1.9634 C   0  0  0  0  0  0  0  0  0  0  0  0
   -4.7382   -3.4840   -0.8852 C   0  0  0  0  0  0  0  0  0  0  0  0
   -4.5741   -2.8758    0.3203 C   0  0  0  0  0  0  0  0  0  0  0  0
   -3.5443   -1.9536    0.4914 C   0  0  0  0  0  0  0  0  0  0  0  0
   -3.3916   -1.2080    2.0726 Cl  0  0  0  0  0  0  0  0  0  0  0  0
   -6.0353   -4.6384   -1.0824 Cl  0  0  0  0  0  0  0  0  0  0  0  0
    1.8555   -0.0787   -0.1653 C   0  0  0  0  0  0  0  0  0  0  0  0
    2.3717   -1.2177   -0.4714 O   0  0  0  0  0  0  0  0  0  0  0  0
    2.7699    0.9307    0.1420 N   0  0  0  0  0  0  0  0  0  0  0  0
    4.1265    0.6719    0.1006 N   0  0  0  0  0  0  0  0  0  0  0  0
    4.5831    0.1947    1.3512 C   0  0  0  0  0  0  0  0  0  0  0  0
    6.0149   -0.2127    1.4067 C   0  0  0  0  0  0  0  0  0  0  0  0
    6.6056   -0.6763    0.1183 C   0  0  0  0  0  0  0  0  0  0  0  0
    5.5221   -1.1118   -0.8489 C   0  0  0  0  0  0  0  0  0  0  0  0
    4.6429    0.0950   -1.0786 C   0  0  0  0  0  0  0  0  0  0  0  0
   -5.9480    1.5729   -1.5466 H   0  0  0  0  0  0  0  0  0  0  0  0
   -3.8104    0.4509   -1.7077 H   0  0  0  0  0  0  0  0  0  0  0  0
   -2.5714    2.3391    1.8722 H   0  0  0  0  0  0  0  0  0  0  0  0
   -4.7596    3.4760    2.0096 H   0  0  0  0  0  0  0  0  0  0  0  0
    0.4022    2.5441    1.2970 H   0  0  0  0  0  0  0  0  0  0  0  0
   -1.0083    3.0945    0.2608 H   0  0  0  0  0  0  0  0  0  0  0  0
    0.5804    2.8418   -0.5274 H   0  0  0  0  0  0  0  0  0  0  0  0
   -2.2110   -2.0600   -2.6100 H   0  0  0  0  0  0  0  0  0  0  0  0
   -4.0180   -3.6845   -2.9259 H   0  0  0  0  0  0  0  0  0  0  0  0
   -5.2368   -3.1028    1.1465 H   0  0  0  0  0  0  0  0  0  0  0  0
    2.4544    1.8658    0.4039 H   0  0  0  0  0  0  0  0  0  0  0  0
    4.4819    1.0545    2.0776 H   0  0  0  0  0  0  0  0  0  0  0  0
    3.8873   -0.5702    1.7686 H   0  0  0  0  0  0  0  0  0  0  0  0
    6.0655   -1.0878    2.1194 H   0  0  0  0  0  0  0  0  0  0  0  0
    6.6894    0.5471    1.8609 H   0  0  0  0  0  0  0  0  0  0  0  0
    7.1443    0.1471   -0.3934 H   0  0  0  0  0  0  0  0  0  0  0  0
    7.3197   -1.5248    0.2096 H   0  0  0  0  0  0  0  0  0  0  0  0
    6.0246   -1.3290   -1.8144 H   0  0  0  0  0  0  0  0  0  0  0  0
    4.9982   -2.0088   -0.5271 H   0  0  0  0  0  0  0  0  0  0  0  0
    3.9010   -0.1612   -1.8638 H   0  0  0  0  0  0  0  0  0  0  0  0
    5.3146    0.8509   -1.5900 H   0  0  0  0  0  0  0  0  0  0  0  0
  1  2  1  0
  2  3  2  0
  3  4  1  0
  4  5  2  0
  5  6  1  0
  6  7  2  0
  5  8  1  0
  8  9  2  0
  9 10  1  0
  9 11  1  0
 11 12  2  0
 12 13  1  0
 13 14  1  0
 14 15  2  0
 15 16  1  0
 16 17  2  0
 17 18  1  0
 18 19  2  0
 19 20  1  0
 17 21  1  0
 11 22  1  0
 22 23  2  0
 22 24  1  0
 24 25  1  0
 25 26  1  0
 26 27  1  0
 27 28  1  0
 28 29  1  0
 29 30  1  0
  7  2  1  0
 13  8  1  0
 19 14  1  0
 30 25  1  0
  3 31  1  0
  4 32  1  0
  6 33  1  0
  7 34  1  0
 10 35  1  0
 10 36  1  0
 10 37  1  0
 15 38  1  0
 16 39  1  0
 18 40  1  0
 24 41  1  0
 26 42  1  0
 26 43  1  0
 27 44  1  0
 27 45  1  0
 28 46  1  0
 28 47  1  0
 29 48  1  0
 29 49  1  0
 30 50  1  0
 30 51  1  0
M  END
>  <Ligand ID>  (1) 
LIG0000944

>  <Ligand>  (1) 
RIMONABANT

>  <SMILES>  (1) 
Clc1ccc(cc1)c1c(C)c(nn1c1ccc(cc1Cl)Cl)C(=O)NN1CCCCC1

>  <CID>  (1) 
104850.0

>  <ChEMBL ID>  (1) 
nan

>  <InChiKey>  (1) 
JZCPYUJPEARBJL-UHFFFAOYSA-N

>  <InChi>  (1) 
InChI=1S/C22H21Cl3N4O/c1-14-20(22(30)27-28-11-3-2-4-12-28)26-29(19-10-9-17(24)13-18(19)25)21(14)15-5-7-16(23)8-6-15/h5-10,13H,2-4,11-12H2,1H3,(H,27,30)

>  <IUPAC Name>  (1) 
5-(4-chlorophenyl)-1-(2,4-dichlorophenyl)-4-methyl-N-piperidin-1-ylpyrazole-3-carboxamide

$$$$
