
     RDKit          3D

 22 24  0  0  0  0  0  0  0  0999 V2000
   -2.2138    2.6482   -1.3815 Cl  0  0  0  0  0  0  0  0  0  0  0  0
   -1.0542    1.4837   -0.7689 C   0  0  0  0  0  0  0  0  0  0  0  0
    0.3080    1.7522   -0.8653 C   0  0  0  0  0  0  0  0  0  0  0  0
    1.2420    0.8544   -0.3919 C   0  0  0  0  0  0  0  0  0  0  0  0
    2.5878    1.1422   -0.4984 C   0  0  0  0  0  0  0  0  0  0  0  0
    3.4720    0.2019   -0.0051 C   0  0  0  0  0  0  0  0  0  0  0  0
    3.0515   -0.9793    0.5723 C   0  0  0  0  0  0  0  0  0  0  0  0
    1.7256   -1.2029    0.6474 N   0  0  0  0  0  0  0  0  0  0  0  0
    0.7960   -0.3221    0.1825 C   0  0  0  0  0  0  0  0  0  0  0  0
   -0.5664   -0.6150    0.2911 C   0  0  0  0  0  0  0  0  0  0  0  0
   -1.4761    0.3037   -0.1921 C   0  0  0  0  0  0  0  0  0  0  0  0
   -2.8226    0.0212   -0.0882 C   0  0  0  0  0  0  0  0  0  0  0  0
   -3.1947   -1.1726    0.4968 C   0  0  0  0  0  0  0  0  0  0  0  0
   -2.2872   -2.0931    0.9809 C   0  0  0  0  0  0  0  0  0  0  0  0
   -0.9750   -1.7802    0.8609 N   0  0  0  0  0  0  0  0  0  0  0  0
    0.6093    2.6985   -1.3289 H   0  0  0  0  0  0  0  0  0  0  0  0
    2.9119    2.0691   -0.9517 H   0  0  0  0  0  0  0  0  0  0  0  0
    4.5395    0.3890   -0.0691 H   0  0  0  0  0  0  0  0  0  0  0  0
    3.7648   -1.7166    0.9596 H   0  0  0  0  0  0  0  0  0  0  0  0
   -3.5517    0.7406   -0.4671 H   0  0  0  0  0  0  0  0  0  0  0  0
   -4.2434   -1.4043    0.5836 H   0  0  0  0  0  0  0  0  0  0  0  0
   -2.6233   -3.0185    1.4331 H   0  0  0  0  0  0  0  0  0  0  0  0
  1  2  1  0
  2  3  2  0
  3  4  1  0
  4  5  2  0
  5  6  1  0
  6  7  2  0
  7  8  1  0
  8  9  2  0
  9 10  1  0
 10 11  2  0
 11 12  1  0
 12 13  2  0
 13 14  1  0
 14 15  2  0
 11  2  1  0
  9  4  1  0
 15 10  1  0
  3 16  1  0
  5 17  1  0
  6 18  1  0
  7 19  1  0
 12 20  1  0
 13 21  1  0
 14 22  1  0
M  END
>  <Ligand ID>  (1) 
LIG0002804

>  <Ligand>  (1) 
5-Chloro-1,10-phenanthroline

>  <SMILES>  (1) 
Clc1cc2cccnc2c2c1cccn2

>  <CID>  (1) 
77865.0

>  <ChEMBL ID>  (1) 
nan

>  <InChiKey>  (1) 
XDUUQOQFSWSZSM-UHFFFAOYSA-N

>  <InChi>  (1) 
InChI=1S/C12H7ClN2/c13-10-7-8-3-1-5-14-11(8)12-9(10)4-2-6-15-12/h1-7H

>  <IUPAC Name>  (1) 
5-chloro-1,10-phenanthroline

$$$$
