
     RDKit          3D

155160  0  0  0  0  0  0  0  0999 V2000
   -6.0720   -4.0575    1.2908 C   0  0  0  0  0  0  0  0  0  0  0  0
   -5.6767   -2.9665    2.2322 C   0  0  0  0  0  0  0  0  0  0  0  0
   -6.1132   -1.6168    1.9231 C   0  0  0  0  0  0  0  0  0  0  0  0
   -5.7082   -0.9283    0.6151 C   0  0  1  0  0  0  0  0  0  0  0  0
   -6.3551    0.3521    0.6779 C   0  0  0  0  0  0  0  0  0  0  0  0
   -7.5625    0.2175    1.2610 O   0  0  0  0  0  0  0  0  0  0  0  0
   -6.1273    1.6882    0.3311 N   0  0  0  0  0  0  0  0  0  0  0  0
   -7.2329    2.5288    0.7457 C   0  0  2  0  0  0  0  0  0  0  0  0
   -8.2795    2.4171   -0.3703 C   0  0  0  0  0  0  0  0  0  0  0  0
   -7.9365    2.6148   -1.5871 O   0  0  0  0  0  0  0  0  0  0  0  0
   -9.5576    2.0930   -0.1424 O   0  0  0  0  0  0  0  0  0  0  0  0
  -10.6894    1.9121   -0.8754 C   0  0  0  0  0  0  0  0  0  0  0  0
  -10.7202    0.9998   -2.0013 C   0  0  0  0  0  0  0  0  0  0  0  0
  -10.6524    1.6096   -3.2908 C   0  0  0  0  0  0  0  0  0  0  0  0
  -10.7277    0.8422   -4.3938 C   0  0  0  0  0  0  0  0  0  0  0  0
  -10.8665   -0.5239   -4.4163 C   0  0  0  0  0  0  0  0  0  0  0  0
  -10.9304   -1.1375   -3.1614 C   0  0  0  0  0  0  0  0  0  0  0  0
  -10.8532   -0.3465   -2.0028 C   0  0  0  0  0  0  0  0  0  0  0  0
  -11.0955   -2.6159   -3.0748 C   0  0  0  0  0  0  0  0  0  0  0  0
  -12.2269   -3.0044   -3.7498 F   0  0  0  0  0  0  0  0  0  0  0  0
  -10.0088   -3.3134   -3.5540 F   0  0  0  0  0  0  0  0  0  0  0  0
  -11.2772   -2.9134   -1.7233 F   0  0  0  0  0  0  0  0  0  0  0  0
  -10.6630    1.5266   -5.7304 C   0  0  0  0  0  0  0  0  0  0  0  0
  -11.5852    0.8619   -6.5446 F   0  0  0  0  0  0  0  0  0  0  0  0
  -11.0331    2.8462   -5.6139 F   0  0  0  0  0  0  0  0  0  0  0  0
   -9.4573    1.4365   -6.3447 F   0  0  0  0  0  0  0  0  0  0  0  0
   -6.9187    3.9815    0.9911 C   0  0  0  0  0  0  0  0  0  0  0  0
   -8.2146    4.5479    1.5260 C   0  0  0  0  0  0  0  0  0  0  0  0
   -9.2411    5.2463    1.1023 C   0  0  0  0  0  0  0  0  0  0  0  0
  -10.1548    5.3839    2.0570 N   0  0  0  0  0  0  0  0  0  0  0  0
   -9.7387    4.7401    3.2235 C   0  0  0  0  0  0  0  0  0  0  0  0
   -8.5179    4.2231    2.8691 C   0  0  0  0  0  0  0  0  0  0  0  0
   -7.8779    3.4912    3.8840 C   0  0  0  0  0  0  0  0  0  0  0  0
   -8.4823    3.3432    5.1316 C   0  0  0  0  0  0  0  0  0  0  0  0
   -9.6867    3.8923    5.3953 C   0  0  0  0  0  0  0  0  0  0  0  0
  -10.3484    4.6129    4.4265 C   0  0  0  0  0  0  0  0  0  0  0  0
   -4.2919   -0.9120    0.4743 N   0  0  0  0  0  0  0  0  0  0  0  0
   -3.6507   -1.7797   -0.3983 C   0  0  0  0  0  0  0  0  0  0  0  0
   -4.5394   -2.5328   -1.0698 O   0  0  0  0  0  0  0  0  0  0  0  0
   -2.3183   -2.0719   -0.7508 C   0  0  2  0  0  0  0  0  0  0  0  0
   -1.7938   -2.9862    0.4174 C   0  0  0  0  0  0  0  0  0  0  0  0
   -0.7698   -2.1461    1.0853 C   0  0  0  0  0  0  0  0  0  0  0  0
   -0.7795   -0.8064    0.3726 C   0  0  0  0  0  0  0  0  0  0  0  0
   -1.2002   -1.2168   -0.9219 N   0  0  0  0  0  0  0  0  0  0  0  0
   -0.5818   -1.1369   -2.2404 C   0  0  0  0  0  0  0  0  0  0  0  0
   -1.3204   -1.3070   -3.2365 O   0  0  0  0  0  0  0  0  0  0  0  0
    0.8867   -0.8801   -2.3816 C   0  0  1  0  0  0  0  0  0  0  0  0
    1.6825   -0.8975   -1.2394 N   0  0  0  0  0  0  0  0  0  0  0  0
    2.7836   -0.0698   -0.9027 C   0  0  0  0  0  0  0  0  0  0  0  0
    3.1972    0.8422   -1.6906 O   0  0  0  0  0  0  0  0  0  0  0  0
    3.5195   -0.2514    0.4273 C   0  0  2  0  0  0  0  0  0  0  0  0
    2.8756    0.5787    1.4831 C   0  0  0  0  0  0  0  0  0  0  0  0
    3.4698    0.4880    2.8412 C   0  0  0  0  0  0  0  0  0  0  0  0
    3.0536   -0.6171    3.5863 C   0  0  0  0  0  0  0  0  0  0  0  0
    3.4535   -0.8090    4.8794 C   0  0  0  0  0  0  0  0  0  0  0  0
    4.3008    0.1500    5.4326 C   0  0  0  0  0  0  0  0  0  0  0  0
    4.7038    1.2366    4.6834 C   0  0  0  0  0  0  0  0  0  0  0  0
    4.2984    1.4198    3.3987 C   0  0  0  0  0  0  0  0  0  0  0  0
    4.9013    0.2282    0.1876 N   0  0  0  0  0  0  0  0  0  0  0  0
    5.8842   -0.8100    0.1387 C   0  0  0  0  0  0  0  0  0  0  0  0
    5.6095   -2.0355    0.2971 O   0  0  0  0  0  0  0  0  0  0  0  0
    7.2719   -0.4185   -0.1263 C   0  0  0  0  0  0  0  0  0  0  0  0
    8.2381   -1.4906   -0.1608 N   0  0  0  0  0  0  0  0  0  0  0  0
    9.5772   -1.0314   -0.4827 C   0  0  0  0  0  0  0  0  0  0  0  0
    9.6235    0.2345   -0.6693 O   0  0  0  0  0  0  0  0  0  0  0  0
   10.7580   -1.8859   -0.5788 C   0  0  2  0  0  0  0  0  0  0  0  0
   11.8060   -0.9736   -1.0068 N   0  0  0  0  0  0  0  0  0  0  0  0
   13.0976   -0.8303   -0.4636 C   0  0  0  0  0  0  0  0  0  0  0  0
   13.5702   -1.5260    0.4640 O   0  0  0  0  0  0  0  0  0  0  0  0
   13.9042    0.2884   -1.1052 C   0  0  2  0  0  0  0  0  0  0  0  0
   14.0397    1.3451    0.0202 C   0  0  0  0  0  0  0  0  0  0  0  0
   14.7365    2.5521   -0.4213 C   0  0  0  0  0  0  0  0  0  0  0  0
   13.9768    3.6584   -0.7148 C   0  0  0  0  0  0  0  0  0  0  0  0
   14.5928    4.7728   -1.1954 C   0  0  0  0  0  0  0  0  0  0  0  0
   15.9281    4.7988   -1.3839 C   0  0  0  0  0  0  0  0  0  0  0  0
   16.6766    3.6752   -1.0807 C   0  0  0  0  0  0  0  0  0  0  0  0
   16.1279    2.4937   -0.5847 C   0  0  0  0  0  0  0  0  0  0  0  0
   16.6756    5.8847   -1.8817 O   0  0  0  0  0  0  0  0  0  0  0  0
   13.1961    0.9295   -2.1573 N   0  0  0  0  0  0  0  0  0  0  0  0
   10.6156   -3.0659   -1.5167 C   0  0  0  0  0  0  0  0  0  0  0  0
    1.3586   -2.1149   -3.2747 C   0  0  0  0  0  0  0  0  0  0  0  0
    0.9016   -3.3023   -2.4723 C   0  0  0  0  0  0  0  0  0  0  0  0
    1.0550   -4.9014   -3.2641 S   0  0  0  0  0  0  0  0  0  0  0  0
    0.2353   -5.0306   -4.5416 O   0  0  0  0  0  0  0  0  0  0  0  0
    0.3766   -6.1900   -2.1182 C   0  0  0  0  0  0  0  0  0  0  0  0
   -6.4384   -3.3691    3.5744 C   0  0  0  0  0  0  0  0  0  0  0  0
   -7.0263   -3.7439    0.7937 H   0  0  0  0  0  0  0  0  0  0  0  0
   -6.3138   -4.9943    1.8744 H   0  0  0  0  0  0  0  0  0  0  0  0
   -5.3503   -4.2954    0.4959 H   0  0  0  0  0  0  0  0  0  0  0  0
   -4.6129   -3.1097    2.4940 H   0  0  0  0  0  0  0  0  0  0  0  0
   -7.2276   -1.5327    2.0636 H   0  0  0  0  0  0  0  0  0  0  0  0
   -5.7107   -0.9425    2.7746 H   0  0  0  0  0  0  0  0  0  0  0  0
   -6.1806   -1.6111   -0.1748 H   0  0  0  0  0  0  0  0  0  0  0  0
   -5.2697    1.9244   -0.1399 H   0  0  0  0  0  0  0  0  0  0  0  0
   -7.7664    2.1377    1.6321 H   0  0  0  0  0  0  0  0  0  0  0  0
  -11.5026    1.5904   -0.1538 H   0  0  0  0  0  0  0  0  0  0  0  0
  -11.0950    2.9359   -1.1894 H   0  0  0  0  0  0  0  0  0  0  0  0
  -10.5320    2.7040   -3.3165 H   0  0  0  0  0  0  0  0  0  0  0  0
  -10.9342   -1.0450   -5.3414 H   0  0  0  0  0  0  0  0  0  0  0  0
  -10.9061   -0.8308   -1.0181 H   0  0  0  0  0  0  0  0  0  0  0  0
   -6.1148    4.0870    1.7305 H   0  0  0  0  0  0  0  0  0  0  0  0
   -6.6471    4.4768    0.0737 H   0  0  0  0  0  0  0  0  0  0  0  0
   -9.3191    5.6477    0.0563 H   0  0  0  0  0  0  0  0  0  0  0  0
  -11.0757    5.8895    1.9350 H   0  0  0  0  0  0  0  0  0  0  0  0
   -6.8988    3.0524    3.6960 H   0  0  0  0  0  0  0  0  0  0  0  0
   -7.8875    2.7671    5.8533 H   0  0  0  0  0  0  0  0  0  0  0  0
  -10.0964    3.6915    6.3983 H   0  0  0  0  0  0  0  0  0  0  0  0
  -11.3088    5.0073    4.6984 H   0  0  0  0  0  0  0  0  0  0  0  0
   -3.7450   -0.2358    1.0187 H   0  0  0  0  0  0  0  0  0  0  0  0
   -2.3829   -2.7928   -1.6505 H   0  0  0  0  0  0  0  0  0  0  0  0
   -2.6387   -3.2396    1.0459 H   0  0  0  0  0  0  0  0  0  0  0  0
   -1.3863   -3.9285    0.0057 H   0  0  0  0  0  0  0  0  0  0  0  0
   -1.1183   -1.9345    2.1398 H   0  0  0  0  0  0  0  0  0  0  0  0
    0.2150   -2.6171    1.1684 H   0  0  0  0  0  0  0  0  0  0  0  0
   -1.5802   -0.1577    0.8210 H   0  0  0  0  0  0  0  0  0  0  0  0
    0.1474   -0.2793    0.4512 H   0  0  0  0  0  0  0  0  0  0  0  0
    1.0377   -0.0164   -3.0128 H   0  0  0  0  0  0  0  0  0  0  0  0
    1.5011   -1.6810   -0.5194 H   0  0  0  0  0  0  0  0  0  0  0  0
    3.5655   -1.2902    0.7038 H   0  0  0  0  0  0  0  0  0  0  0  0
    3.1469    1.6595    1.1743 H   0  0  0  0  0  0  0  0  0  0  0  0
    1.7964    0.5971    1.5105 H   0  0  0  0  0  0  0  0  0  0  0  0
    2.3965   -1.3617    3.1392 H   0  0  0  0  0  0  0  0  0  0  0  0
    3.1703   -1.6415    5.5091 H   0  0  0  0  0  0  0  0  0  0  0  0
    4.6011   -0.0115    6.4387 H   0  0  0  0  0  0  0  0  0  0  0  0
    5.3754    1.9460    5.2114 H   0  0  0  0  0  0  0  0  0  0  0  0
    4.6064    2.2630    2.8201 H   0  0  0  0  0  0  0  0  0  0  0  0
    5.1074    1.2342    0.0554 H   0  0  0  0  0  0  0  0  0  0  0  0
    7.6535    0.4055    0.5311 H   0  0  0  0  0  0  0  0  0  0  0  0
    7.3105    0.0076   -1.1793 H   0  0  0  0  0  0  0  0  0  0  0  0
    8.0621   -2.4811    0.0252 H   0  0  0  0  0  0  0  0  0  0  0  0
   11.0302   -2.3303    0.4106 H   0  0  0  0  0  0  0  0  0  0  0  0
   11.5101   -0.3657   -1.8295 H   0  0  0  0  0  0  0  0  0  0  0  0
   14.8641   -0.1046   -1.4120 H   0  0  0  0  0  0  0  0  0  0  0  0
   14.5200    0.8491    0.9056 H   0  0  0  0  0  0  0  0  0  0  0  0
   13.0205    1.6231    0.3719 H   0  0  0  0  0  0  0  0  0  0  0  0
   12.9029    3.6681   -0.5830 H   0  0  0  0  0  0  0  0  0  0  0  0
   14.0043    5.6539   -1.4030 H   0  0  0  0  0  0  0  0  0  0  0  0
   17.7381    3.6555   -1.2234 H   0  0  0  0  0  0  0  0  0  0  0  0
   16.6605    1.6168   -0.3428 H   0  0  0  0  0  0  0  0  0  0  0  0
   17.0532    5.7100   -2.8276 H   0  0  0  0  0  0  0  0  0  0  0  0
   13.1016    0.3464   -3.0112 H   0  0  0  0  0  0  0  0  0  0  0  0
   12.3555    1.4515   -1.8551 H   0  0  0  0  0  0  0  0  0  0  0  0
   11.6580   -3.4683   -1.6425 H   0  0  0  0  0  0  0  0  0  0  0  0
   10.0000   -3.8239   -0.9652 H   0  0  0  0  0  0  0  0  0  0  0  0
   10.2347   -2.7561   -2.4788 H   0  0  0  0  0  0  0  0  0  0  0  0
    0.9863   -2.0285   -4.2682 H   0  0  0  0  0  0  0  0  0  0  0  0
    2.4538   -2.0694   -3.2407 H   0  0  0  0  0  0  0  0  0  0  0  0
   -0.1530   -3.1773   -2.1596 H   0  0  0  0  0  0  0  0  0  0  0  0
    1.5088   -3.4056   -1.5199 H   0  0  0  0  0  0  0  0  0  0  0  0
   -0.1993   -5.6267   -1.3532 H   0  0  0  0  0  0  0  0  0  0  0  0
    1.2386   -6.6513   -1.6536 H   0  0  0  0  0  0  0  0  0  0  0  0
   -0.2732   -6.8666   -2.7251 H   0  0  0  0  0  0  0  0  0  0  0  0
   -6.6357   -4.4280    3.5882 H   0  0  0  0  0  0  0  0  0  0  0  0
   -7.4340   -2.8344    3.5107 H   0  0  0  0  0  0  0  0  0  0  0  0
   -5.8983   -3.0526    4.4475 H   0  0  0  0  0  0  0  0  0  0  0  0
  1  2  1  0
  2  3  1  0
  3  4  1  0
  4  5  1  0
  5  6  2  0
  5  7  1  0
  7  8  1  0
  8  9  1  0
  9 10  2  0
  9 11  1  0
 11 12  1  0
 12 13  1  0
 13 14  2  0
 14 15  1  0
 15 16  2  0
 16 17  1  0
 17 18  2  0
 17 19  1  0
 19 20  1  0
 19 21  1  0
 19 22  1  0
 15 23  1  0
 23 24  1  0
 23 25  1  0
 23 26  1  0
  8 27  1  0
 27 28  1  0
 28 29  2  0
 29 30  1  0
 30 31  1  0
 31 32  2  0
 32 33  1  0
 33 34  2  0
 34 35  1  0
 35 36  2  0
  4 37  1  0
 37 38  1  0
 38 39  2  0
 38 40  1  0
 40 41  1  0
 41 42  1  0
 42 43  1  0
 43 44  1  0
 44 45  1  0
 45 46  2  0
 45 47  1  0
 47 48  1  0
 48 49  1  0
 49 50  2  0
 49 51  1  0
 51 52  1  0
 52 53  1  0
 53 54  2  0
 54 55  1  0
 55 56  2  0
 56 57  1  0
 57 58  2  0
 51 59  1  0
 59 60  1  0
 60 61  2  0
 60 62  1  0
 62 63  1  0
 63 64  1  0
 64 65  2  0
 64 66  1  0
 66 67  1  0
 67 68  1  0
 68 69  2  0
 68 70  1  0
 70 71  1  0
 71 72  1  0
 72 73  2  0
 73 74  1  0
 74 75  2  0
 75 76  1  0
 76 77  2  0
 75 78  1  0
 70 79  1  0
 66 80  1  0
 47 81  1  0
 81 82  1  0
 82 83  1  0
 83 84  2  0
 83 85  1  0
  2 86  1  0
 18 13  1  0
 32 28  1  0
 44 40  1  0
 58 53  1  0
 77 72  1  0
 36 31  1  0
  1 87  1  0
  1 88  1  0
  1 89  1  0
  2 90  1  0
  3 91  1  0
  3 92  1  0
  4 93  1  6
  7 94  1  0
  8 95  1  1
 12 96  1  0
 12 97  1  0
 14 98  1  0
 16 99  1  0
 18100  1  0
 27101  1  0
 27102  1  0
 29103  1  0
 30104  1  0
 33105  1  0
 34106  1  0
 35107  1  0
 36108  1  0
 37109  1  0
 40110  1  6
 41111  1  0
 41112  1  0
 42113  1  0
 42114  1  0
 43115  1  0
 43116  1  0
 47117  1  6
 48118  1  0
 51119  1  1
 52120  1  0
 52121  1  0
 54122  1  0
 55123  1  0
 56124  1  0
 57125  1  0
 58126  1  0
 59127  1  0
 62128  1  0
 62129  1  0
 63130  1  0
 66131  1  1
 67132  1  0
 70133  1  6
 71134  1  0
 71135  1  0
 73136  1  0
 74137  1  0
 76138  1  0
 77139  1  0
 78140  1  0
 79141  1  0
 79142  1  0
 80143  1  0
 80144  1  0
 80145  1  0
 81146  1  0
 81147  1  0
 82148  1  0
 82149  1  0
 85150  1  0
 85151  1  0
 85152  1  0
 86153  1  0
 86154  1  0
 86155  1  0
M  END
>  <Ligand ID>  (1) 
LIG0005376

>  <Ligand>  (1) 
CHEMBL229280

>  <SMILES>  (1) 
CC(C[C@@H](C(=O)N[C@H](C(=O)OCc1cc(cc(c1)C(F)(F)F)C(F)(F)F)Cc1c[nH]c2c1cccc2)NC(=O)[C@@H]1CCCN1C(=O)[C@@H](NC(=O)[C@H](Cc1ccccc1)NC(=O)CNC(=O)[C@H](NC(=O)[C@H](Cc1ccc(cc1)O)N)C)CCS(=O)C)C

>  <CID>  (1) 
16737631.0

>  <ChEMBL ID>  (1) 
nan

>  <InChiKey>  (1) 
PWPFRWYBVBHLLB-HBTMXKHJSA-N

>  <InChi>  (1) 
InChI=1S/C59H69F6N9O11S/c1-33(2)23-46(53(79)73-48(28-38-30-67-44-14-9-8-13-42(38)44)57(83)85-32-37-24-39(58(60,61)62)29-40(25-37)59(63,64)65)72-55(81)49-15-10-21-74(49)56(82)45(20-22-86(4)84)71-54(80)47(27-35-11-6-5-7-12-35)70-50(76)31-68-51(77)34(3)69-52(78)43(66)26-36-16-18-41(75)19-17-36/h5-9,11-14,16-19,24-25,29-30,33-34,43,45-49,67,75H,10,15,20-23,26-28,31-32,66H2,1-4H3,(H,68,77)(H,69,78)(H,70,76)(H,71,80)(H,72,81)(H,73,79)/t34-,43+,45+,46+,47+,48+,49+,86?/m1/s1

>  <IUPAC Name>  (1) 
[3,5-bis(trifluoromethyl)phenyl]methyl (2S)-2-[[(2S)-2-[[(2S)-1-[(2S)-2-[[(2S)-2-[[2-[[(2R)-2-[[(2S)-2-amino-3-(4-hydroxyphenyl)propanoyl]amino]propanoyl]amino]acetyl]amino]-3-phenylpropanoyl]amino]-4-methylsulfinylbutanoyl]pyrrolidine-2-carbonyl]amino]-4-methylpentanoyl]amino]-3-(1H-indol-3-yl)propanoate

$$$$
