
     RDKit          3D

 88 92  0  0  0  0  0  0  0  0999 V2000
    1.9561    7.6808   -1.4449 N   0  0  0  0  0  0  0  0  0  0  0  0
    1.3876    6.3785   -1.5213 C   0  0  0  0  0  0  0  0  0  0  0  0
    1.9859    5.3927   -2.1363 N   0  0  0  0  0  0  0  0  0  0  0  0
    1.3446    4.0682   -2.1789 C   0  0  0  0  0  0  0  0  0  0  0  0
    2.4177    3.0632   -2.4371 C   0  0  0  0  0  0  0  0  0  0  0  0
    1.9626    1.6970   -2.5101 N   0  0  0  0  0  0  0  0  0  0  0  0
    1.3184    1.1513   -1.3723 C   0  0  0  0  0  0  0  0  0  0  0  0
    1.1366    1.8221   -0.3192 O   0  0  0  0  0  0  0  0  0  0  0  0
    0.8171   -0.2519   -1.3549 C   0  0  1  0  0  0  0  0  0  0  0  0
    1.9573   -1.2450   -1.4247 C   0  0  0  0  0  0  0  0  0  0  0  0
    2.1601   -1.6243    0.0240 C   0  0  2  0  0  0  0  0  0  0  0  0
    1.2455   -0.7731    0.8438 C   0  0  0  0  0  0  0  0  0  0  0  0
    0.1483   -0.5610   -0.1199 N   0  0  0  0  0  0  0  0  0  0  0  0
   -1.1989   -0.6532    0.2621 C   0  0  0  0  0  0  0  0  0  0  0  0
   -1.4190   -0.8912    1.5033 O   0  0  0  0  0  0  0  0  0  0  0  0
   -2.3831   -0.5083   -0.5894 C   0  0  2  0  0  0  0  0  0  0  0  0
   -3.5715   -0.4917    0.2977 N   0  0  0  0  0  0  0  0  0  0  0  0
   -4.4357    0.6332    0.2355 C   0  0  0  0  0  0  0  0  0  0  0  0
   -4.1879    1.5952   -0.5672 O   0  0  0  0  0  0  0  0  0  0  0  0
   -5.6517    0.7644    1.0764 C   0  0  0  0  0  0  0  0  0  0  0  0
   -6.6509   -0.3442    0.8606 C   0  0  0  0  0  0  0  0  0  0  0  0
   -7.6091   -0.3969    2.0472 C   0  0  0  0  0  0  0  0  0  0  0  0
   -7.5474    0.8537    2.7777 N   0  0  0  0  0  0  0  0  0  0  0  0
   -6.2886    0.9954    3.4829 C   0  0  0  0  0  0  0  0  0  0  0  0
   -5.1832    0.6156    2.5312 C   0  0  0  0  0  0  0  0  0  0  0  0
   -2.5362   -1.6549   -1.5746 C   0  0  0  0  0  0  0  0  0  0  0  0
   -3.7628   -1.3858   -2.3715 C   0  0  0  0  0  0  0  0  0  0  0  0
   -3.5804   -0.6312   -3.5303 C   0  0  0  0  0  0  0  0  0  0  0  0
   -4.6630   -0.3361   -4.3360 C   0  0  0  0  0  0  0  0  0  0  0  0
   -5.9047   -0.8021   -3.9665 C   0  0  0  0  0  0  0  0  0  0  0  0
   -6.1133   -1.5565   -2.8175 C   0  0  0  0  0  0  0  0  0  0  0  0
   -5.0127   -1.8453   -2.0153 C   0  0  0  0  0  0  0  0  0  0  0  0
    3.4985   -1.5248    0.3609 O   0  0  0  0  0  0  0  0  0  0  0  0
    3.9180   -2.8013    0.7735 C   0  0  0  0  0  0  0  0  0  0  0  0
    5.3526   -2.7848    1.1584 C   0  0  0  0  0  0  0  0  0  0  0  0
    6.2768   -3.0383    0.1633 C   0  0  0  0  0  0  0  0  0  0  0  0
    7.6408   -3.0537    0.3885 C   0  0  0  0  0  0  0  0  0  0  0  0
    8.0592   -2.7984    1.6838 C   0  0  0  0  0  0  0  0  0  0  0  0
    7.1540   -2.5422    2.6966 C   0  0  0  0  0  0  0  0  0  0  0  0
    5.7819   -2.5320    2.4453 C   0  0  0  0  0  0  0  0  0  0  0  0
    7.6294   -2.2958    3.9678 C   0  0  0  0  0  0  0  0  0  0  0  0
    9.0015   -2.3082    4.2108 C   0  0  0  0  0  0  0  0  0  0  0  0
    9.9187   -2.5618    3.2108 C   0  0  0  0  0  0  0  0  0  0  0  0
    9.4361   -2.8095    1.9324 C   0  0  0  0  0  0  0  0  0  0  0  0
    0.1135    6.1915   -0.8860 N   0  0  0  0  0  0  0  0  0  0  0  0
    1.8745    8.2459   -0.5692 H   0  0  0  0  0  0  0  0  0  0  0  0
    2.4640    8.1003   -2.2518 H   0  0  0  0  0  0  0  0  0  0  0  0
    0.6091    4.1091   -2.9873 H   0  0  0  0  0  0  0  0  0  0  0  0
    0.8812    3.9705   -1.1700 H   0  0  0  0  0  0  0  0  0  0  0  0
    3.2743    3.2251   -1.7598 H   0  0  0  0  0  0  0  0  0  0  0  0
    2.8275    3.3059   -3.4615 H   0  0  0  0  0  0  0  0  0  0  0  0
    2.0744    1.0813   -3.3449 H   0  0  0  0  0  0  0  0  0  0  0  0
    0.2107   -0.3620   -2.2662 H   0  0  0  0  0  0  0  0  0  0  0  0
    2.8531   -0.8315   -1.9107 H   0  0  0  0  0  0  0  0  0  0  0  0
    1.6305   -2.1595   -1.9619 H   0  0  0  0  0  0  0  0  0  0  0  0
    1.8710   -2.6992    0.2060 H   0  0  0  0  0  0  0  0  0  0  0  0
    1.6629    0.1571    1.2250 H   0  0  0  0  0  0  0  0  0  0  0  0
    0.8900   -1.3400    1.7409 H   0  0  0  0  0  0  0  0  0  0  0  0
   -2.4117    0.4293   -1.1597 H   0  0  0  0  0  0  0  0  0  0  0  0
   -3.7730   -1.2761    0.9473 H   0  0  0  0  0  0  0  0  0  0  0  0
   -6.1576    1.7271    0.9386 H   0  0  0  0  0  0  0  0  0  0  0  0
   -6.1814   -1.3233    0.7106 H   0  0  0  0  0  0  0  0  0  0  0  0
   -7.2508   -0.0914   -0.0282 H   0  0  0  0  0  0  0  0  0  0  0  0
   -7.3528   -1.1966    2.7635 H   0  0  0  0  0  0  0  0  0  0  0  0
   -8.6267   -0.5985    1.6750 H   0  0  0  0  0  0  0  0  0  0  0  0
   -8.3117    0.8974    3.4749 H   0  0  0  0  0  0  0  0  0  0  0  0
   -6.2579    0.3148    4.3404 H   0  0  0  0  0  0  0  0  0  0  0  0
   -6.0960    2.0344    3.7910 H   0  0  0  0  0  0  0  0  0  0  0  0
   -4.2364    1.1532    2.6994 H   0  0  0  0  0  0  0  0  0  0  0  0
   -4.9713   -0.4638    2.6781 H   0  0  0  0  0  0  0  0  0  0  0  0
   -1.6316   -1.7699   -2.1529 H   0  0  0  0  0  0  0  0  0  0  0  0
   -2.7796   -2.5980   -0.9931 H   0  0  0  0  0  0  0  0  0  0  0  0
   -2.5821   -0.2709   -3.8030 H   0  0  0  0  0  0  0  0  0  0  0  0
   -4.4893    0.2534   -5.2325 H   0  0  0  0  0  0  0  0  0  0  0  0
   -6.7524   -0.5613   -4.6143 H   0  0  0  0  0  0  0  0  0  0  0  0
   -7.1166   -1.9139   -2.5501 H   0  0  0  0  0  0  0  0  0  0  0  0
   -5.1132   -2.4231   -1.1212 H   0  0  0  0  0  0  0  0  0  0  0  0
    3.7288   -3.4654   -0.0955 H   0  0  0  0  0  0  0  0  0  0  0  0
    3.3346   -3.1808    1.6198 H   0  0  0  0  0  0  0  0  0  0  0  0
    5.9475   -3.2384   -0.8511 H   0  0  0  0  0  0  0  0  0  0  0  0
    8.3108   -3.2580   -0.4215 H   0  0  0  0  0  0  0  0  0  0  0  0
    5.0574   -2.3338    3.2176 H   0  0  0  0  0  0  0  0  0  0  0  0
    6.9509   -2.0920    4.7866 H   0  0  0  0  0  0  0  0  0  0  0  0
    9.3601   -2.1116    5.2237 H   0  0  0  0  0  0  0  0  0  0  0  0
   10.9862   -2.5722    3.3901 H   0  0  0  0  0  0  0  0  0  0  0  0
   10.1045   -3.0151    1.1057 H   0  0  0  0  0  0  0  0  0  0  0  0
   -0.7276    5.9166   -1.4398 H   0  0  0  0  0  0  0  0  0  0  0  0
   -0.0023    6.3263    0.1511 H   0  0  0  0  0  0  0  0  0  0  0  0
  1  2  1  0
  2  3  2  3
  3  4  1  0
  4  5  1  0
  5  6  1  0
  6  7  1  0
  7  8  2  0
  7  9  1  0
  9 10  1  0
 10 11  1  0
 11 12  1  0
 12 13  1  0
 13 14  1  0
 14 15  2  0
 14 16  1  0
 16 17  1  0
 17 18  1  0
 18 19  2  0
 18 20  1  0
 20 21  1  0
 21 22  1  0
 22 23  1  0
 23 24  1  0
 24 25  1  0
 16 26  1  0
 26 27  1  0
 27 28  2  0
 28 29  1  0
 29 30  2  0
 30 31  1  0
 31 32  2  0
 11 33  1  0
 33 34  1  0
 34 35  1  0
 35 36  2  0
 36 37  1  0
 37 38  2  0
 38 39  1  0
 39 40  2  0
 39 41  1  0
 41 42  2  0
 42 43  1  0
 43 44  2  0
  2 45  1  0
 13  9  1  0
 25 20  1  0
 32 27  1  0
 40 35  1  0
 44 38  1  0
  1 46  1  0
  1 47  1  0
  4 48  1  0
  4 49  1  0
  5 50  1  0
  5 51  1  0
  6 52  1  0
  9 53  1  6
 10 54  1  0
 10 55  1  0
 11 56  1  6
 12 57  1  0
 12 58  1  0
 16 59  1  6
 17 60  1  0
 20 61  1  0
 21 62  1  0
 21 63  1  0
 22 64  1  0
 22 65  1  0
 23 66  1  0
 24 67  1  0
 24 68  1  0
 25 69  1  0
 25 70  1  0
 26 71  1  0
 26 72  1  0
 28 73  1  0
 29 74  1  0
 30 75  1  0
 31 76  1  0
 32 77  1  0
 34 78  1  0
 34 79  1  0
 36 80  1  0
 37 81  1  0
 40 82  1  0
 41 83  1  0
 42 84  1  0
 43 85  1  0
 44 86  1  0
 45 87  1  0
 45 88  1  0
M  END
>  <Ligand ID>  (1) 
LIG0003235

>  <Ligand>  (1) 
CHEMBL377778

>  <SMILES>  (1) 
NC(=NCCNC(=O)[C@H]1C[C@H](CN1C(=O)[C@H](NC(=O)C1CCNCC1)Cc1ccccc1)OCc1ccc2c(c1)cccc2)N

>  <CID>  (1) 
11845440.0

>  <ChEMBL ID>  (1) 
nan

>  <InChiKey>  (1) 
NISOYWYHGOQPMJ-IDZRBWSNSA-N

>  <InChi>  (1) 
InChI=1S/C34H43N7O4/c35-34(36)39-17-16-38-32(43)30-20-28(45-22-24-10-11-25-8-4-5-9-27(25)18-24)21-41(30)33(44)29(19-23-6-2-1-3-7-23)40-31(42)26-12-14-37-15-13-26/h1-11,18,26,28-30,37H,12-17,19-22H2,(H,38,43)(H,40,42)(H4,35,36,39)/t28-,29-,30-/m1/s1

>  <IUPAC Name>  (1) 
N-[(2R)-1-[(2R,4R)-2-[2-(diaminomethylideneamino)ethylcarbamoyl]-4-(naphthalen-2-ylmethoxy)pyrrolidin-1-yl]-1-oxo-3-phenylpropan-2-yl]piperidine-4-carboxamide

$$$$
