
     RDKit          3D

 60 63  0  0  0  0  0  0  0  0999 V2000
   -9.7112   -0.3473    0.0753 C   0  0  0  0  0  0  0  0  0  0  0  0
   -8.4950   -0.1936    0.8194 O   0  0  0  0  0  0  0  0  0  0  0  0
   -7.3836    0.4075    0.2443 C   0  0  0  0  0  0  0  0  0  0  0  0
   -7.4103    0.8778   -1.0626 C   0  0  0  0  0  0  0  0  0  0  0  0
   -6.2820    1.4743   -1.6090 C   0  0  0  0  0  0  0  0  0  0  0  0
   -5.1516    1.5847   -0.8297 C   0  0  0  0  0  0  0  0  0  0  0  0
   -5.0965    1.1288    0.4635 C   0  0  0  0  0  0  0  0  0  0  0  0
   -6.2344    0.5354    0.9943 C   0  0  0  0  0  0  0  0  0  0  0  0
   -5.9274    0.1869    2.2721 N   0  0  0  0  0  0  0  0  0  0  0  0
   -4.6585    0.5443    2.5292 C   0  0  0  0  0  0  0  0  0  0  0  0
   -4.0941    1.1465    1.4027 C   0  0  0  0  0  0  0  0  0  0  0  0
   -2.7082    1.6137    1.3612 C   0  0  0  0  0  0  0  0  0  0  0  0
   -1.7210    0.6712    0.7737 C   0  0  2  0  0  0  0  0  0  0  0  0
   -0.3848    1.2395    0.7740 N   0  0  0  0  0  0  0  0  0  0  0  0
    0.5629    0.3195    0.1971 C   0  0  0  0  0  0  0  0  0  0  0  0
    1.9687    0.8795    0.1892 C   0  0  1  0  0  0  0  0  0  0  0  0
    2.8680   -0.0566   -0.5100 C   0  0  0  0  0  0  0  0  0  0  0  0
    2.5710   -1.3789   -0.7563 C   0  0  0  0  0  0  0  0  0  0  0  0
    3.4194   -2.2430   -1.4155 C   0  0  0  0  0  0  0  0  0  0  0  0
    4.6422   -1.7937   -1.8680 C   0  0  0  0  0  0  0  0  0  0  0  0
    4.9543   -0.4715   -1.6288 C   0  0  0  0  0  0  0  0  0  0  0  0
    4.1073    0.3979   -0.9686 C   0  0  0  0  0  0  0  0  0  0  0  0
    6.1975    0.0586   -2.0692 N   0  0  0  0  0  0  0  0  0  0  0  0
    7.6984   -0.7687   -1.8638 S   0  0  0  0  0  0  0  0  0  0  0  0
    7.6857   -2.0924   -2.5904 O   0  0  0  0  0  0  0  0  0  0  0  0
    8.8073    0.0290   -2.4707 O   0  0  0  0  0  0  0  0  0  0  0  0
    7.9996   -0.9912   -0.1625 C   0  0  0  0  0  0  0  0  0  0  0  0
    9.0345   -0.5539    0.6366 C   0  0  0  0  0  0  0  0  0  0  0  0
    9.0432   -0.8535    1.9167 C   0  0  0  0  0  0  0  0  0  0  0  0
    7.9993   -1.6127    2.4460 C   0  0  0  0  0  0  0  0  0  0  0  0
    6.9199   -1.9167    0.9738 S   0  0  0  0  0  0  0  0  0  0  0  0
    1.9988    2.0737   -0.5650 O   0  0  0  0  0  0  0  0  0  0  0  0
   -2.1583    0.1143   -0.5330 C   0  0  0  0  0  0  0  0  0  0  0  0
  -10.4632   -0.7405    0.7908 H   0  0  0  0  0  0  0  0  0  0  0  0
  -10.0033    0.5655   -0.4471 H   0  0  0  0  0  0  0  0  0  0  0  0
   -9.5644   -1.1844   -0.6589 H   0  0  0  0  0  0  0  0  0  0  0  0
   -8.3287    0.7598   -1.6199 H   0  0  0  0  0  0  0  0  0  0  0  0
   -6.3171    1.8381   -2.6317 H   0  0  0  0  0  0  0  0  0  0  0  0
   -4.2722    2.0539   -1.2420 H   0  0  0  0  0  0  0  0  0  0  0  0
   -6.5994   -0.2782    2.9062 H   0  0  0  0  0  0  0  0  0  0  0  0
   -4.1853    0.3670    3.4935 H   0  0  0  0  0  0  0  0  0  0  0  0
   -2.6682    2.5560    0.7361 H   0  0  0  0  0  0  0  0  0  0  0  0
   -2.3469    1.9077    2.3818 H   0  0  0  0  0  0  0  0  0  0  0  0
   -1.6988   -0.2215    1.4858 H   0  0  0  0  0  0  0  0  0  0  0  0
   -0.1259    1.3411    1.7933 H   0  0  0  0  0  0  0  0  0  0  0  0
    0.2915    0.1705   -0.8689 H   0  0  0  0  0  0  0  0  0  0  0  0
    0.5472   -0.5850    0.8140 H   0  0  0  0  0  0  0  0  0  0  0  0
    2.2488    1.1322    1.2081 H   0  0  0  0  0  0  0  0  0  0  0  0
    1.6261   -1.7845   -0.4237 H   0  0  0  0  0  0  0  0  0  0  0  0
    3.1300   -3.2674   -1.5781 H   0  0  0  0  0  0  0  0  0  0  0  0
    5.3564   -2.4058   -2.3891 H   0  0  0  0  0  0  0  0  0  0  0  0
    4.3485    1.4324   -0.7794 H   0  0  0  0  0  0  0  0  0  0  0  0
    6.1670    0.9927   -2.5343 H   0  0  0  0  0  0  0  0  0  0  0  0
    9.8428    0.0529    0.1468 H   0  0  0  0  0  0  0  0  0  0  0  0
    9.8447   -0.5358    2.6259 H   0  0  0  0  0  0  0  0  0  0  0  0
    7.7899   -1.9676    3.4008 H   0  0  0  0  0  0  0  0  0  0  0  0
    1.2483    2.1185   -1.2196 H   0  0  0  0  0  0  0  0  0  0  0  0
   -2.2748    0.8216   -1.3566 H   0  0  0  0  0  0  0  0  0  0  0  0
   -3.1519   -0.3737   -0.3573 H   0  0  0  0  0  0  0  0  0  0  0  0
   -1.5021   -0.7596   -0.8428 H   0  0  0  0  0  0  0  0  0  0  0  0
  1  2  1  0
  2  3  1  0
  3  4  2  0
  4  5  1  0
  5  6  2  0
  6  7  1  0
  7  8  2  0
  8  9  1  0
  9 10  1  0
 10 11  2  0
 11 12  1  0
 12 13  1  0
 13 14  1  0
 14 15  1  0
 15 16  1  0
 16 17  1  0
 17 18  2  0
 18 19  1  0
 19 20  2  0
 20 21  1  0
 21 22  2  0
 21 23  1  0
 23 24  1  0
 24 25  2  0
 24 26  2  0
 24 27  1  0
 27 28  2  0
 28 29  1  0
 29 30  2  0
 30 31  1  0
 16 32  1  0
 13 33  1  0
  8  3  1  0
 22 17  1  0
 31 27  1  0
 11  7  1  0
  1 34  1  0
  1 35  1  0
  1 36  1  0
  4 37  1  0
  5 38  1  0
  6 39  1  0
  9 40  1  0
 10 41  1  0
 12 42  1  0
 12 43  1  0
 13 44  1  1
 14 45  1  0
 15 46  1  0
 15 47  1  0
 16 48  1  1
 18 49  1  0
 19 50  1  0
 20 51  1  0
 22 52  1  0
 23 53  1  0
 28 54  1  0
 29 55  1  0
 30 56  1  0
 32 57  1  0
 33 58  1  0
 33 59  1  0
 33 60  1  0
M  END
>  <Ligand ID>  (1) 
LIG0002211

>  <Ligand>  (1) 
CHEMBL361505

>  <SMILES>  (1) 
COc1cccc2c1[nH]cc2C[C@H](NC[C@@H](c1cccc(c1)NS(=O)(=O)c1cccs1)O)C

>  <CID>  (1) 
44396596.0

>  <ChEMBL ID>  (1) 
nan

>  <InChiKey>  (1) 
GGFAWZQZGYUXOY-IERDGZPVSA-N

>  <InChi>  (1) 
InChI=1S/C24H27N3O4S2/c1-16(12-18-14-26-24-20(18)8-4-9-22(24)31-2)25-15-21(28)17-6-3-7-19(13-17)27-33(29,30)23-10-5-11-32-23/h3-11,13-14,16,21,25-28H,12,15H2,1-2H3/t16-,21+/m1/s1

>  <IUPAC Name>  (1) 
N-[3-[(1R)-1-hydroxy-2-[[(2R)-1-(7-methoxy-1H-indol-3-yl)propan-2-yl]amino]ethyl]phenyl]thiophene-2-sulfonamide

$$$$
