
     RDKit          3D

 23 24  0  0  0  0  0  0  0  0999 V2000
   -0.0179    0.0328    0.0155 S   0  0  0  0  0  0  0  0  0  0  0  0
    1.4801    0.3561   -0.9738 C   0  0  0  0  0  0  0  0  0  0  0  0
    2.7054   -0.0176   -0.2171 C   0  0  0  0  0  0  0  0  0  0  0  0
    3.4760    0.7507    0.6288 C   0  0  0  0  0  0  0  0  0  0  0  0
    4.5064   -0.0835    1.0734 C   0  0  0  0  0  0  0  0  0  0  0  0
    4.3033   -1.3201    0.4691 C   0  0  0  0  0  0  0  0  0  0  0  0
    3.2201   -1.2374   -0.2912 O   0  0  0  0  0  0  0  0  0  0  0  0
   -1.4368    0.5266   -1.0101 C   0  0  0  0  0  0  0  0  0  0  0  0
   -2.6999    0.2868   -0.2560 C   0  0  0  0  0  0  0  0  0  0  0  0
   -3.4181   -0.9051   -0.2957 C   0  0  0  0  0  0  0  0  0  0  0  0
   -4.5028   -0.6632    0.5506 C   0  0  0  0  0  0  0  0  0  0  0  0
   -4.3857    0.6346    1.0469 C   0  0  0  0  0  0  0  0  0  0  0  0
   -3.3024    1.1426    0.5343 O   0  0  0  0  0  0  0  0  0  0  0  0
    1.3877   -0.2468   -1.9025 H   0  0  0  0  0  0  0  0  0  0  0  0
    1.4635    1.4212   -1.2558 H   0  0  0  0  0  0  0  0  0  0  0  0
    3.3026    1.7822    0.8827 H   0  0  0  0  0  0  0  0  0  0  0  0
    5.3137    0.1934    1.7650 H   0  0  0  0  0  0  0  0  0  0  0  0
    4.9245   -2.2185    0.5914 H   0  0  0  0  0  0  0  0  0  0  0  0
   -1.3932   -0.0382   -1.9599 H   0  0  0  0  0  0  0  0  0  0  0  0
   -1.3526    1.6215   -1.1608 H   0  0  0  0  0  0  0  0  0  0  0  0
   -3.2090   -1.8110   -0.8403 H   0  0  0  0  0  0  0  0  0  0  0  0
   -5.2948   -1.3501    0.7853 H   0  0  0  0  0  0  0  0  0  0  0  0
   -5.0703    1.1429    1.7389 H   0  0  0  0  0  0  0  0  0  0  0  0
  1  2  1  0
  2  3  1  0
  3  4  2  0
  4  5  1  0
  5  6  2  0
  6  7  1  0
  1  8  1  0
  8  9  1  0
  9 10  2  0
 10 11  1  0
 11 12  2  0
 12 13  1  0
  7  3  1  0
 13  9  1  0
  2 14  1  0
  2 15  1  0
  4 16  1  0
  5 17  1  0
  6 18  1  0
  8 19  1  0
  8 20  1  0
 10 21  1  0
 11 22  1  0
 12 23  1  0
M  END
>  <Ligand ID>  (1) 
LIG0002103

>  <Ligand>  (1) 
Furfuryl Sulfide

>  <SMILES>  (1) 
S(Cc1ccco1)Cc1ccco1

>  <CID>  (1) 
61659.0

>  <ChEMBL ID>  (1) 
nan

>  <InChiKey>  (1) 
UYLKDZXJEKFFHJ-UHFFFAOYSA-N

>  <InChi>  (1) 
InChI=1S/C10H10O2S/c1-3-9(11-5-1)7-13-8-10-4-2-6-12-10/h1-6H,7-8H2

>  <IUPAC Name>  (1) 
2-(furan-2-ylmethylsulfanylmethyl)furan

$$$$
