
     RDKit          3D

 47 51  0  0  0  0  0  0  0  0999 V2000
    0.2573   -0.9864   -1.7365 O   0  0  0  0  0  0  0  0  0  0  0  0
    0.0548   -0.3447   -0.6377 C   0  0  0  0  0  0  0  0  0  0  0  0
   -1.3488   -0.2217   -0.2359 C   0  0  0  0  0  0  0  0  0  0  0  0
   -2.1423   -0.7868   -1.4417 C   0  0  0  0  0  0  0  0  0  0  0  0
   -3.6092   -0.6144   -1.2361 C   0  0  0  0  0  0  0  0  0  0  0  0
   -3.9994    0.8135   -1.0150 C   0  0  0  0  0  0  0  0  0  0  0  0
   -3.2402    1.3525    0.1691 C   0  0  0  0  0  0  0  0  0  0  0  0
   -1.7568    1.2170   -0.0958 C   0  0  0  0  0  0  0  0  0  0  0  0
   -3.5655    0.5965    1.4183 C   0  0  0  0  0  0  0  0  0  0  0  0
   -3.2400   -0.8457    1.1908 C   0  0  0  0  0  0  0  0  0  0  0  0
   -1.7247   -0.9912    1.0044 C   0  0  0  0  0  0  0  0  0  0  0  0
   -3.9837   -1.4036    0.0035 C   0  0  0  0  0  0  0  0  0  0  0  0
    1.1849    0.1516    0.0286 N   0  0  0  0  0  0  0  0  0  0  0  0
    1.3566    0.9477    1.2183 C   0  0  0  0  0  0  0  0  0  0  0  0
    2.6983    0.5414    1.8042 C   0  0  0  0  0  0  0  0  0  0  0  0
    3.4361    0.1425    0.5680 C   0  0  0  0  0  0  0  0  0  0  0  0
    2.5271   -0.0749   -0.4520 C   0  0  0  0  0  0  0  0  0  0  0  0
    3.0619   -0.4494   -1.6708 C   0  0  0  0  0  0  0  0  0  0  0  0
    4.4171   -0.6027   -1.8772 C   0  0  0  0  0  0  0  0  0  0  0  0
    5.2979   -0.3779   -0.8368 C   0  0  0  0  0  0  0  0  0  0  0  0
    4.7972   -0.0024    0.3937 C   0  0  0  0  0  0  0  0  0  0  0  0
    5.7351    0.2475    1.5394 C   0  0  0  0  0  0  0  0  0  0  0  0
   -1.7347   -0.2506   -2.3246 H   0  0  0  0  0  0  0  0  0  0  0  0
   -1.8727   -1.8413   -1.5115 H   0  0  0  0  0  0  0  0  0  0  0  0
   -4.1536   -1.0622   -2.0747 H   0  0  0  0  0  0  0  0  0  0  0  0
   -5.0970    0.8013   -0.7744 H   0  0  0  0  0  0  0  0  0  0  0  0
   -3.7869    1.4273   -1.8950 H   0  0  0  0  0  0  0  0  0  0  0  0
   -3.4455    2.4393    0.2976 H   0  0  0  0  0  0  0  0  0  0  0  0
   -1.5131    1.7456   -1.0557 H   0  0  0  0  0  0  0  0  0  0  0  0
   -1.2540    1.6980    0.7610 H   0  0  0  0  0  0  0  0  0  0  0  0
   -4.6104    0.6916    1.7502 H   0  0  0  0  0  0  0  0  0  0  0  0
   -2.8791    0.9577    2.2336 H   0  0  0  0  0  0  0  0  0  0  0  0
   -3.5689   -1.4433    2.0732 H   0  0  0  0  0  0  0  0  0  0  0  0
   -1.5709   -2.0773    0.8747 H   0  0  0  0  0  0  0  0  0  0  0  0
   -1.2796   -0.5326    1.8740 H   0  0  0  0  0  0  0  0  0  0  0  0
   -3.7249   -2.4617   -0.1428 H   0  0  0  0  0  0  0  0  0  0  0  0
   -5.0548   -1.3511    0.2147 H   0  0  0  0  0  0  0  0  0  0  0  0
    0.5948    0.8149    1.9963 H   0  0  0  0  0  0  0  0  0  0  0  0
    1.4698    2.0316    0.9831 H   0  0  0  0  0  0  0  0  0  0  0  0
    2.5784   -0.2775    2.5265 H   0  0  0  0  0  0  0  0  0  0  0  0
    3.2434    1.3946    2.2340 H   0  0  0  0  0  0  0  0  0  0  0  0
    2.4193   -0.6372   -2.5188 H   0  0  0  0  0  0  0  0  0  0  0  0
    4.8097   -0.8986   -2.8477 H   0  0  0  0  0  0  0  0  0  0  0  0
    6.3798   -0.4857   -0.9488 H   0  0  0  0  0  0  0  0  0  0  0  0
    5.9134    1.3432    1.5218 H   0  0  0  0  0  0  0  0  0  0  0  0
    6.7048   -0.2456    1.3777 H   0  0  0  0  0  0  0  0  0  0  0  0
    5.2189   -0.0889    2.4592 H   0  0  0  0  0  0  0  0  0  0  0  0
  1  2  2  0
  2  3  1  0
  3  4  1  0
  4  5  1  0
  5  6  1  0
  6  7  1  0
  7  8  1  0
  7  9  1  0
  9 10  1  0
 10 11  1  0
 10 12  1  0
  2 13  1  0
 13 14  1  0
 14 15  1  0
 15 16  1  0
 16 17  2  0
 17 18  1  0
 18 19  2  0
 19 20  1  0
 20 21  2  0
 21 22  1  0
 11  3  1  0
 17 13  1  0
  8  3  1  0
 21 16  1  0
 12  5  1  0
  4 23  1  0
  4 24  1  0
  5 25  1  0
  6 26  1  0
  6 27  1  0
  7 28  1  0
  8 29  1  0
  8 30  1  0
  9 31  1  0
  9 32  1  0
 10 33  1  0
 11 34  1  0
 11 35  1  0
 12 36  1  0
 12 37  1  0
 14 38  1  0
 14 39  1  0
 15 40  1  0
 15 41  1  0
 18 42  1  0
 19 43  1  0
 20 44  1  0
 22 45  1  0
 22 46  1  0
 22 47  1  0
M  END
>  <Ligand ID>  (1) 
LIG0001712

>  <Ligand>  (1) 
CHEMBL2338182

>  <SMILES>  (1) 
O=C(C12CC3CC(C2)CC(C1)C3)N1CCc2c1cccc2C

>  <CID>  (1) 
71559525.0

>  <ChEMBL ID>  (1) 
nan

>  <InChiKey>  (1) 
OURFGJMYPYSEAS-UHFFFAOYSA-N

>  <InChi>  (1) 
InChI=1S/C20H25NO/c1-13-3-2-4-18-17(13)5-6-21(18)19(22)20-10-14-7-15(11-20)9-16(8-14)12-20/h2-4,14-16H,5-12H2,1H3

>  <IUPAC Name>  (1) 
1-adamantyl-(4-methyl-2,3-dihydroindol-1-yl)methanone

$$$$
