
     RDKit          3D

 62 66  0  0  0  0  0  0  0  0999 V2000
   -7.5517    3.8512    0.7899 F   0  0  0  0  0  0  0  0  0  0  0  0
   -6.8110    2.7311    0.6242 C   0  0  0  0  0  0  0  0  0  0  0  0
   -5.5194    2.6047    1.1164 C   0  0  0  0  0  0  0  0  0  0  0  0
   -4.7699    1.4809    0.9525 C   0  0  0  0  0  0  0  0  0  0  0  0
   -5.2578    0.3897    0.2791 C   0  0  0  0  0  0  0  0  0  0  0  0
   -6.5526    0.5026   -0.2202 C   0  0  0  0  0  0  0  0  0  0  0  0
   -7.3132    1.6410   -0.0548 C   0  0  0  0  0  0  0  0  0  0  0  0
   -6.7923   -0.6626   -0.8198 N   0  0  0  0  0  0  0  0  0  0  0  0
   -5.7508   -1.4593   -0.7200 C   0  0  0  0  0  0  0  0  0  0  0  0
   -5.6899   -2.6296   -1.1949 O   0  0  0  0  0  0  0  0  0  0  0  0
   -4.7636   -0.8034   -0.0221 N   0  0  0  0  0  0  0  0  0  0  0  0
   -3.5158   -1.4121    0.2465 C   0  0  0  0  0  0  0  0  0  0  0  0
   -2.4747   -0.8269    1.0284 C   0  0  0  0  0  0  0  0  0  0  0  0
   -1.5151    0.0962    0.2666 C   0  0  0  0  0  0  0  0  0  0  0  0
   -0.7839   -0.6842   -0.6631 N   0  0  0  0  0  0  0  0  0  0  0  0
   -1.4396   -1.8862   -1.0969 C   0  0  0  0  0  0  0  0  0  0  0  0
   -2.9278   -1.7268   -1.1428 C   0  0  0  0  0  0  0  0  0  0  0  0
    0.5968   -0.8800   -0.4149 C   0  0  0  0  0  0  0  0  0  0  0  0
    0.9498   -1.5707    0.8670 C   0  0  0  0  0  0  0  0  0  0  0  0
    2.4389   -1.9220    0.7401 C   0  0  0  0  0  0  0  0  0  0  0  0
    3.2442   -0.7279    0.6833 N   0  0  0  0  0  0  0  0  0  0  0  0
    2.4670    0.4732    0.5938 C   0  0  0  0  0  0  0  0  0  0  0  0
    1.3645    0.4259   -0.4319 C   0  0  0  0  0  0  0  0  0  0  0  0
    4.2993   -0.8065   -0.3105 C   0  0  0  0  0  0  0  0  0  0  0  0
    5.1070    0.4476   -0.3341 C   0  0  0  0  0  0  0  0  0  0  0  0
    4.9256    1.3669   -1.3572 C   0  0  0  0  0  0  0  0  0  0  0  0
    5.6467    2.5473   -1.4300 C   0  0  0  0  0  0  0  0  0  0  0  0
    6.5847    2.8372   -0.4585 C   0  0  0  0  0  0  0  0  0  0  0  0
    6.7625    1.9309    0.5484 C   0  0  0  0  0  0  0  0  0  0  0  0
    6.0433    0.7423    0.6308 C   0  0  0  0  0  0  0  0  0  0  0  0
    6.2696   -0.2064    1.7370 C   0  0  0  0  0  0  0  0  0  0  0  0
    5.1365   -0.4301    2.4935 F   0  0  0  0  0  0  0  0  0  0  0  0
    6.8354   -1.4066    1.3229 F   0  0  0  0  0  0  0  0  0  0  0  0
    7.2002    0.3482    2.6151 F   0  0  0  0  0  0  0  0  0  0  0  0
   -5.1347    3.4714    1.6502 H   0  0  0  0  0  0  0  0  0  0  0  0
   -3.7911    1.4378    1.3484 H   0  0  0  0  0  0  0  0  0  0  0  0
   -8.3251    1.6430   -0.4824 H   0  0  0  0  0  0  0  0  0  0  0  0
   -7.6800   -0.8945   -1.2946 H   0  0  0  0  0  0  0  0  0  0  0  0
   -3.7448   -2.4529    0.6452 H   0  0  0  0  0  0  0  0  0  0  0  0
   -2.6624   -0.4929    2.0700 H   0  0  0  0  0  0  0  0  0  0  0  0
   -1.7543   -1.6898    1.2585 H   0  0  0  0  0  0  0  0  0  0  0  0
   -0.8982    0.6876    0.9631 H   0  0  0  0  0  0  0  0  0  0  0  0
   -2.1636    0.7922   -0.3229 H   0  0  0  0  0  0  0  0  0  0  0  0
   -1.1273   -2.0328   -2.1539 H   0  0  0  0  0  0  0  0  0  0  0  0
   -1.1056   -2.7997   -0.5594 H   0  0  0  0  0  0  0  0  0  0  0  0
   -3.1529   -0.9125   -1.8662 H   0  0  0  0  0  0  0  0  0  0  0  0
   -3.3737   -2.6492   -1.5693 H   0  0  0  0  0  0  0  0  0  0  0  0
    1.0081   -1.4900   -1.2369 H   0  0  0  0  0  0  0  0  0  0  0  0
    0.4572   -2.5684    0.9957 H   0  0  0  0  0  0  0  0  0  0  0  0
    0.8081   -0.9750    1.7759 H   0  0  0  0  0  0  0  0  0  0  0  0
    2.7569   -2.6642    1.4739 H   0  0  0  0  0  0  0  0  0  0  0  0
    2.5216   -2.3792   -0.2889 H   0  0  0  0  0  0  0  0  0  0  0  0
    2.0213    0.6575    1.6102 H   0  0  0  0  0  0  0  0  0  0  0  0
    3.1368    1.3118    0.3433 H   0  0  0  0  0  0  0  0  0  0  0  0
    1.8133    0.6277   -1.4234 H   0  0  0  0  0  0  0  0  0  0  0  0
    0.6968    1.2869   -0.2159 H   0  0  0  0  0  0  0  0  0  0  0  0
    4.9790   -1.6212   -0.0611 H   0  0  0  0  0  0  0  0  0  0  0  0
    3.8830   -0.9898   -1.3243 H   0  0  0  0  0  0  0  0  0  0  0  0
    4.1978    1.1714   -2.1353 H   0  0  0  0  0  0  0  0  0  0  0  0
    5.5166    3.2703   -2.2180 H   0  0  0  0  0  0  0  0  0  0  0  0
    7.1816    3.7431   -0.4584 H   0  0  0  0  0  0  0  0  0  0  0  0
    7.4922    2.1359    1.3212 H   0  0  0  0  0  0  0  0  0  0  0  0
  1  2  1  0
  2  3  2  0
  3  4  1  0
  4  5  2  0
  5  6  1  0
  6  7  2  0
  6  8  1  0
  8  9  1  0
  9 10  2  0
  9 11  1  0
 11 12  1  0
 12 13  1  0
 13 14  1  0
 14 15  1  0
 15 16  1  0
 16 17  1  0
 15 18  1  0
 18 19  1  0
 19 20  1  0
 20 21  1  0
 21 22  1  0
 22 23  1  0
 21 24  1  0
 24 25  1  0
 25 26  2  0
 26 27  1  0
 27 28  2  0
 28 29  1  0
 29 30  2  0
 30 31  1  0
 31 32  1  0
 31 33  1  0
 31 34  1  0
  7  2  1  0
 17 12  1  0
 23 18  1  0
 30 25  1  0
 11  5  1  0
  3 35  1  0
  4 36  1  0
  7 37  1  0
  8 38  1  0
 12 39  1  0
 13 40  1  0
 13 41  1  0
 14 42  1  0
 14 43  1  0
 16 44  1  0
 16 45  1  0
 17 46  1  0
 17 47  1  0
 18 48  1  0
 19 49  1  0
 19 50  1  0
 20 51  1  0
 20 52  1  0
 22 53  1  0
 22 54  1  0
 23 55  1  0
 23 56  1  0
 24 57  1  0
 24 58  1  0
 26 59  1  0
 27 60  1  0
 28 61  1  0
 29 62  1  0
M  END
>  <Ligand ID>  (1) 
LIG0000869

>  <Ligand>  (1) 
CHEMBL489576

>  <SMILES>  (1) 
Fc1ccc2c(c1)[nH]c(=O)n2C1CCN(CC1)C1CCN(CC1)Cc1ccccc1C(F)(F)F

>  <CID>  (1) 
44579457.0

>  <ChEMBL ID>  (1) 
nan

>  <InChiKey>  (1) 
BVXXXRLWEYNAGE-UHFFFAOYSA-N

>  <InChi>  (1) 
InChI=1S/C25H28F4N4O/c26-18-5-6-23-22(15-18)30-24(34)33(23)20-9-13-32(14-10-20)19-7-11-31(12-8-19)16-17-3-1-2-4-21(17)25(27,28)29/h1-6,15,19-20H,7-14,16H2,(H,30,34)

>  <IUPAC Name>  (1) 
6-fluoro-3-[1-[1-[[2-(trifluoromethyl)phenyl]methyl]piperidin-4-yl]piperidin-4-yl]-1H-benzimidazol-2-one

$$$$
