
     RDKit          3D

 14 13  0  0  0  0  0  0  0  0999 V2000
   -1.9779    0.2863    0.4738 C   0  0  0  0  0  0  0  0  0  0  0  0
   -1.1664   -0.8867    0.0348 C   0  0  0  0  0  0  0  0  0  0  0  0
    0.2127   -0.7581    0.2673 O   0  0  0  0  0  0  0  0  0  0  0  0
    0.9965    0.2460   -0.2737 C   0  0  0  0  0  0  0  0  0  0  0  0
    0.4828    1.1142   -1.0227 O   0  0  0  0  0  0  0  0  0  0  0  0
    2.4656    0.2938    0.0385 C   0  0  0  0  0  0  0  0  0  0  0  0
   -1.6057    0.7936    1.3620 H   0  0  0  0  0  0  0  0  0  0  0  0
   -2.9901   -0.0954    0.7354 H   0  0  0  0  0  0  0  0  0  0  0  0
   -2.0848    0.9756   -0.4079 H   0  0  0  0  0  0  0  0  0  0  0  0
   -1.4700   -1.8309    0.5682 H   0  0  0  0  0  0  0  0  0  0  0  0
   -1.3613   -1.0638   -1.0409 H   0  0  0  0  0  0  0  0  0  0  0  0
    2.6262    0.3628    1.1459 H   0  0  0  0  0  0  0  0  0  0  0  0
    2.9615   -0.6371   -0.2757 H   0  0  0  0  0  0  0  0  0  0  0  0
    2.9110    1.1997   -0.3987 H   0  0  0  0  0  0  0  0  0  0  0  0
  1  2  1  0
  2  3  1  0
  3  4  1  0
  4  5  2  0
  4  6  1  0
  1  7  1  0
  1  8  1  0
  1  9  1  0
  2 10  1  0
  2 11  1  0
  6 12  1  0
  6 13  1  0
  6 14  1  0
M  END
>  <Ligand ID>  (1) 
LIG0000414

>  <Ligand>  (1) 
Ethyl acetate

>  <SMILES>  (1) 
CCOC(=O)C

>  <CID>  (1) 
8857.0

>  <ChEMBL ID>  (1) 
nan

>  <InChiKey>  (1) 
XEKOWRVHYACXOJ-UHFFFAOYSA-N

>  <InChi>  (1) 
InChI=1S/C4H8O2/c1-3-6-4(2)5/h3H2,1-2H3

>  <IUPAC Name>  (1) 
ethyl acetate

$$$$
