
     RDKit          3D

 62 65  0  0  0  0  0  0  0  0999 V2000
   -0.4145   -0.8152    2.2316 O   0  0  0  0  0  0  0  0  0  0  0  0
   -0.1835   -0.8195    0.9197 C   0  0  0  0  0  0  0  0  0  0  0  0
   -1.2771   -1.1958    0.1268 C   0  0  0  0  0  0  0  0  0  0  0  0
   -1.2819   -1.5871   -1.1916 C   0  0  0  0  0  0  0  0  0  0  0  0
   -2.4492   -1.9493   -1.8689 C   0  0  0  0  0  0  0  0  0  0  0  0
   -3.6492   -1.9243   -1.2115 C   0  0  0  0  0  0  0  0  0  0  0  0
   -3.7081   -1.5441    0.0995 C   0  0  0  0  0  0  0  0  0  0  0  0
   -2.5474   -1.1926    0.7317 C   0  0  0  0  0  0  0  0  0  0  0  0
   -5.2027   -1.5383    1.0366 S   0  0  0  0  0  0  0  0  0  0  0  0
   -4.8528   -1.5642    2.5177 O   0  0  0  0  0  0  0  0  0  0  0  0
   -5.9552   -2.8417    0.8043 O   0  0  0  0  0  0  0  0  0  0  0  0
   -6.2344   -0.2820    0.7377 N   0  0  0  0  0  0  0  0  0  0  0  0
   -5.8486    1.0539    0.9558 C   0  0  0  0  0  0  0  0  0  0  0  0
   -5.9184    1.8799   -0.3253 C   0  0  0  0  0  0  0  0  0  0  0  0
   -7.2160    1.6678   -1.0446 C   0  0  0  0  0  0  0  0  0  0  0  0
   -7.4925    0.2043   -1.2745 C   0  0  0  0  0  0  0  0  0  0  0  0
   -7.4548   -0.4931    0.0614 C   0  0  0  0  0  0  0  0  0  0  0  0
    1.1558   -0.4312    0.6978 N   0  0  0  0  0  0  0  0  0  0  0  0
    1.8586   -0.1411    1.9705 C   0  0  0  0  0  0  0  0  0  0  0  0
    3.3134   -0.2056    1.9604 C   0  0  0  0  0  0  0  0  0  0  0  0
    3.9348   -0.1284    0.6533 N   0  0  0  0  0  0  0  0  0  0  0  0
    3.2741   -0.9644   -0.3728 C   0  0  0  0  0  0  0  0  0  0  0  0
    1.8932   -0.2776   -0.4895 C   0  0  0  0  0  0  0  0  0  0  0  0
    5.0426    0.6893    0.3677 C   0  0  0  0  0  0  0  0  0  0  0  0
    4.9635    2.0190    0.7909 C   0  0  0  0  0  0  0  0  0  0  0  0
    5.9710    2.9319    0.5395 C   0  0  0  0  0  0  0  0  0  0  0  0
    7.0866    2.4715   -0.1642 C   0  0  0  0  0  0  0  0  0  0  0  0
    7.1589    1.1504   -0.5805 C   0  0  0  0  0  0  0  0  0  0  0  0
    6.1464    0.2486   -0.3224 C   0  0  0  0  0  0  0  0  0  0  0  0
    6.2754   -1.1602   -0.7696 C   0  0  0  0  0  0  0  0  0  0  0  0
    8.3681    0.6427   -1.3273 C   0  0  0  0  0  0  0  0  0  0  0  0
   -0.3912   -1.6438   -1.7524 H   0  0  0  0  0  0  0  0  0  0  0  0
   -2.3759   -2.2426   -2.9207 H   0  0  0  0  0  0  0  0  0  0  0  0
   -4.5547   -2.2001   -1.7281 H   0  0  0  0  0  0  0  0  0  0  0  0
   -2.6505   -0.8908    1.7828 H   0  0  0  0  0  0  0  0  0  0  0  0
   -4.8641    1.1459    1.4022 H   0  0  0  0  0  0  0  0  0  0  0  0
   -6.5720    1.5246    1.6809 H   0  0  0  0  0  0  0  0  0  0  0  0
   -5.8757    2.9479   -0.0232 H   0  0  0  0  0  0  0  0  0  0  0  0
   -5.0158    1.7108   -0.9377 H   0  0  0  0  0  0  0  0  0  0  0  0
   -8.0207    2.1355   -0.4172 H   0  0  0  0  0  0  0  0  0  0  0  0
   -7.1452    2.1942   -2.0250 H   0  0  0  0  0  0  0  0  0  0  0  0
   -6.7017   -0.2289   -1.9000 H   0  0  0  0  0  0  0  0  0  0  0  0
   -8.5018    0.0518   -1.7139 H   0  0  0  0  0  0  0  0  0  0  0  0
   -8.2852   -0.0819    0.7173 H   0  0  0  0  0  0  0  0  0  0  0  0
   -7.6563   -1.5746   -0.0353 H   0  0  0  0  0  0  0  0  0  0  0  0
    1.4323   -0.8687    2.7184 H   0  0  0  0  0  0  0  0  0  0  0  0
    1.5301    0.8674    2.3468 H   0  0  0  0  0  0  0  0  0  0  0  0
    3.6724   -1.1917    2.3933 H   0  0  0  0  0  0  0  0  0  0  0  0
    3.8186    0.5565    2.5999 H   0  0  0  0  0  0  0  0  0  0  0  0
    3.7697   -0.9188   -1.3388 H   0  0  0  0  0  0  0  0  0  0  0  0
    3.1821   -1.9778    0.0634 H   0  0  0  0  0  0  0  0  0  0  0  0
    2.1761    0.8347   -0.5405 H   0  0  0  0  0  0  0  0  0  0  0  0
    1.4577   -0.5115   -1.4473 H   0  0  0  0  0  0  0  0  0  0  0  0
    4.0797    2.3780    1.3425 H   0  0  0  0  0  0  0  0  0  0  0  0
    5.8906    3.9389    0.8819 H   0  0  0  0  0  0  0  0  0  0  0  0
    7.8885    3.1738   -0.3791 H   0  0  0  0  0  0  0  0  0  0  0  0
    7.3265   -1.5046   -0.5015 H   0  0  0  0  0  0  0  0  0  0  0  0
    6.1070   -1.2759   -1.8537 H   0  0  0  0  0  0  0  0  0  0  0  0
    5.6308   -1.8442   -0.1698 H   0  0  0  0  0  0  0  0  0  0  0  0
    9.2147    0.4301   -0.6789 H   0  0  0  0  0  0  0  0  0  0  0  0
    8.5852    1.4340   -2.0856 H   0  0  0  0  0  0  0  0  0  0  0  0
    8.0927   -0.2722   -1.9187 H   0  0  0  0  0  0  0  0  0  0  0  0
  1  2  2  0
  2  3  1  0
  3  4  2  0
  4  5  1  0
  5  6  2  0
  6  7  1  0
  7  8  2  0
  7  9  1  0
  9 10  2  0
  9 11  2  0
  9 12  1  0
 12 13  1  0
 13 14  1  0
 14 15  1  0
 15 16  1  0
 16 17  1  0
  2 18  1  0
 18 19  1  0
 19 20  1  0
 20 21  1  0
 21 22  1  0
 22 23  1  0
 21 24  1  0
 24 25  2  0
 25 26  1  0
 26 27  2  0
 27 28  1  0
 28 29  2  0
 29 30  1  0
 28 31  1  0
  8  3  1  0
 17 12  1  0
 23 18  1  0
 29 24  1  0
  4 32  1  0
  5 33  1  0
  6 34  1  0
  8 35  1  0
 13 36  1  0
 13 37  1  0
 14 38  1  0
 14 39  1  0
 15 40  1  0
 15 41  1  0
 16 42  1  0
 16 43  1  0
 17 44  1  0
 17 45  1  0
 19 46  1  0
 19 47  1  0
 20 48  1  0
 20 49  1  0
 22 50  1  0
 22 51  1  0
 23 52  1  0
 23 53  1  0
 25 54  1  0
 26 55  1  0
 27 56  1  0
 30 57  1  0
 30 58  1  0
 30 59  1  0
 31 60  1  0
 31 61  1  0
 31 62  1  0
M  END
>  <Ligand ID>  (1) 
LIG0001671

>  <Ligand>  (1) 
MLS-0433928.0001

>  <SMILES>  (1) 
O=C(c1cccc(c1)S(=O)(=O)N1CCCCC1)N1CCN(CC1)c1cccc(c1C)C

>  <CID>  (1) 
2518725.0

>  <ChEMBL ID>  (1) 
nan

>  <InChiKey>  (1) 
DOFHYXBPOKRVPS-UHFFFAOYSA-N

>  <InChi>  (1) 
InChI=1S/C24H31N3O3S/c1-19-8-6-11-23(20(19)2)25-14-16-26(17-15-25)24(28)21-9-7-10-22(18-21)31(29,30)27-12-4-3-5-13-27/h6-11,18H,3-5,12-17H2,1-2H3

>  <IUPAC Name>  (1) 
[4-(2,3-dimethylphenyl)piperazin-1-yl]-(3-piperidin-1-ylsulfonylphenyl)methanone

$$$$
