
     RDKit          3D

 57 59  0  0  0  0  0  0  0  0999 V2000
   -2.0406   -1.9950    1.3003 O   0  0  0  0  0  0  0  0  0  0  0  0
   -1.5894   -0.8285    1.0943 C   0  0  0  0  0  0  0  0  0  0  0  0
   -2.2022    0.2579    1.9012 C   0  0  0  0  0  0  0  0  0  0  0  0
   -3.6449    0.3103    1.6191 C   0  0  0  0  0  0  0  0  0  0  0  0
   -4.5976   -0.2568    2.4435 C   0  0  0  0  0  0  0  0  0  0  0  0
   -5.9462   -0.2262    2.1744 C   0  0  0  0  0  0  0  0  0  0  0  0
   -6.4169    0.3994    1.0215 C   0  0  0  0  0  0  0  0  0  0  0  0
   -5.4693    0.9735    0.1847 C   0  0  0  0  0  0  0  0  0  0  0  0
   -4.1146    0.9411    0.4577 C   0  0  0  0  0  0  0  0  0  0  0  0
   -3.2773    1.5489   -0.4357 C   0  0  0  0  0  0  0  0  0  0  0  0
   -3.6920    2.1886   -1.5864 C   0  0  0  0  0  0  0  0  0  0  0  0
   -5.0484    2.2075   -1.8383 C   0  0  0  0  0  0  0  0  0  0  0  0
   -5.9578    1.6050   -0.9648 C   0  0  0  0  0  0  0  0  0  0  0  0
   -0.5762   -0.6653    0.1486 N   0  0  0  0  0  0  0  0  0  0  0  0
   -0.0358   -1.8160   -0.5818 C   0  0  0  0  0  0  0  0  0  0  0  0
    1.0313   -1.3502   -1.5683 C   0  0  0  0  0  0  0  0  0  0  0  0
    2.0677   -0.6709   -0.7432 C   0  0  0  0  0  0  0  0  0  0  0  0
    2.9097   -1.3313    0.1197 C   0  0  0  0  0  0  0  0  0  0  0  0
    3.8113   -0.5527    0.8231 C   0  0  0  0  0  0  0  0  0  0  0  0
    3.8879    0.8193    0.6886 C   0  0  0  0  0  0  0  0  0  0  0  0
    3.0389    1.4841   -0.1819 C   0  0  0  0  0  0  0  0  0  0  0  0
    2.1431    0.7075   -0.8803 C   0  0  0  0  0  0  0  0  0  0  0  0
    4.8141    1.6242    1.4069 N   0  0  0  0  0  0  0  0  0  0  0  0
    4.8630    3.0641    1.2446 C   0  0  0  0  0  0  0  0  0  0  0  0
    5.7747    1.0410    2.3525 C   0  0  0  0  0  0  0  0  0  0  0  0
    1.6417   -2.5200   -2.1295 N   0  0  0  0  0  0  0  0  0  0  0  0
    2.6641   -2.2521   -3.0854 C   0  0  0  0  0  0  0  0  0  0  0  0
    0.7424   -3.5108   -2.6258 C   0  0  0  0  0  0  0  0  0  0  0  0
   -1.6497    1.1967    1.8871 H   0  0  0  0  0  0  0  0  0  0  0  0
   -2.1170   -0.1105    2.9604 H   0  0  0  0  0  0  0  0  0  0  0  0
   -4.2939   -0.7626    3.3633 H   0  0  0  0  0  0  0  0  0  0  0  0
   -6.6951   -0.6819    2.8374 H   0  0  0  0  0  0  0  0  0  0  0  0
   -7.4652    0.4443    0.7739 H   0  0  0  0  0  0  0  0  0  0  0  0
   -2.2290    1.5363   -0.2361 H   0  0  0  0  0  0  0  0  0  0  0  0
   -2.9604    2.6486   -2.2452 H   0  0  0  0  0  0  0  0  0  0  0  0
   -5.3786    2.7124   -2.7472 H   0  0  0  0  0  0  0  0  0  0  0  0
   -7.0256    1.6330   -1.1865 H   0  0  0  0  0  0  0  0  0  0  0  0
   -0.2019    0.2875   -0.0352 H   0  0  0  0  0  0  0  0  0  0  0  0
    0.3992   -2.4793    0.1919 H   0  0  0  0  0  0  0  0  0  0  0  0
   -0.8462   -2.3964   -1.0683 H   0  0  0  0  0  0  0  0  0  0  0  0
    0.6141   -0.6953   -2.3384 H   0  0  0  0  0  0  0  0  0  0  0  0
    2.8379   -2.4012    0.2133 H   0  0  0  0  0  0  0  0  0  0  0  0
    4.4702   -1.0643    1.4967 H   0  0  0  0  0  0  0  0  0  0  0  0
    3.0616    2.5566   -0.3202 H   0  0  0  0  0  0  0  0  0  0  0  0
    1.4780    1.2465   -1.5651 H   0  0  0  0  0  0  0  0  0  0  0  0
    3.8650    3.5109    1.5325 H   0  0  0  0  0  0  0  0  0  0  0  0
    5.6092    3.5338    1.9037 H   0  0  0  0  0  0  0  0  0  0  0  0
    5.0220    3.3824    0.2016 H   0  0  0  0  0  0  0  0  0  0  0  0
    6.0935    0.0362    2.0411 H   0  0  0  0  0  0  0  0  0  0  0  0
    6.6982    1.6568    2.3927 H   0  0  0  0  0  0  0  0  0  0  0  0
    5.3112    1.0781    3.3589 H   0  0  0  0  0  0  0  0  0  0  0  0
    3.6208   -2.6150   -2.6506 H   0  0  0  0  0  0  0  0  0  0  0  0
    2.5469   -2.8599   -4.0250 H   0  0  0  0  0  0  0  0  0  0  0  0
    2.8392   -1.1831   -3.3176 H   0  0  0  0  0  0  0  0  0  0  0  0
    0.6674   -4.3850   -1.9411 H   0  0  0  0  0  0  0  0  0  0  0  0
   -0.2289   -3.0816   -2.8853 H   0  0  0  0  0  0  0  0  0  0  0  0
    1.1762   -3.9408   -3.5682 H   0  0  0  0  0  0  0  0  0  0  0  0
  1  2  2  0
  2  3  1  0
  3  4  1  0
  4  5  2  0
  5  6  1  0
  6  7  2  0
  7  8  1  0
  8  9  2  0
  9 10  1  0
 10 11  2  0
 11 12  1  0
 12 13  2  0
  2 14  1  0
 14 15  1  0
 15 16  1  0
 16 17  1  0
 17 18  2  0
 18 19  1  0
 19 20  2  0
 20 21  1  0
 21 22  2  0
 20 23  1  0
 23 24  1  0
 23 25  1  0
 16 26  1  0
 26 27  1  0
 26 28  1  0
  9  4  1  0
 22 17  1  0
 13  8  1  0
  3 29  1  0
  3 30  1  0
  5 31  1  0
  6 32  1  0
  7 33  1  0
 10 34  1  0
 11 35  1  0
 12 36  1  0
 13 37  1  0
 14 38  1  0
 15 39  1  0
 15 40  1  0
 16 41  1  0
 18 42  1  0
 19 43  1  0
 21 44  1  0
 22 45  1  0
 24 46  1  0
 24 47  1  0
 24 48  1  0
 25 49  1  0
 25 50  1  0
 25 51  1  0
 27 52  1  0
 27 53  1  0
 27 54  1  0
 28 55  1  0
 28 56  1  0
 28 57  1  0
M  END
>  <Ligand ID>  (1) 
LIG0004537

>  <Ligand>  (1) 
MLS001166782

>  <SMILES>  (1) 
O=C(Cc1cccc2c1cccc2)NCC(c1ccc(cc1)N(C)C)N(C)C

>  <CID>  (1) 
18564899.0

>  <ChEMBL ID>  (1) 
nan

>  <InChiKey>  (1) 
QVKPANHKYGHYNJ-UHFFFAOYSA-N

>  <InChi>  (1) 
InChI=1S/C24H29N3O/c1-26(2)21-14-12-19(13-15-21)23(27(3)4)17-25-24(28)16-20-10-7-9-18-8-5-6-11-22(18)20/h5-15,23H,16-17H2,1-4H3,(H,25,28)

>  <IUPAC Name>  (1) 
N-[2-(dimethylamino)-2-[4-(dimethylamino)phenyl]ethyl]-2-naphthalen-1-ylacetamide

$$$$
