
     RDKit          3D

 23 23  0  0  0  0  0  0  0  0999 V2000
    3.8602   -0.7441    0.8053 C   0  0  0  0  0  0  0  0  0  0  0  0
    2.6785    0.0237    0.7010 O   0  0  0  0  0  0  0  0  0  0  0  0
    1.4677   -0.5336    0.2465 C   0  0  0  0  0  0  0  0  0  0  0  0
    1.5230   -1.7423   -0.0520 O   0  0  0  0  0  0  0  0  0  0  0  0
    0.3111    0.3301    0.1735 C   0  0  0  0  0  0  0  0  0  0  0  0
    0.4420    1.6517    0.5489 C   0  0  0  0  0  0  0  0  0  0  0  0
   -0.5797    2.5687    0.5242 C   0  0  0  0  0  0  0  0  0  0  0  0
   -1.8218    2.1585    0.0997 C   0  0  0  0  0  0  0  0  0  0  0  0
   -1.9589    0.8461   -0.2750 C   0  0  0  0  0  0  0  0  0  0  0  0
   -0.9315   -0.0775   -0.2505 C   0  0  0  0  0  0  0  0  0  0  0  0
   -1.1872   -1.4066   -0.6597 N   0  0  0  0  0  0  0  0  0  0  0  0
   -2.5424   -1.7365   -1.0927 C   0  0  0  0  0  0  0  0  0  0  0  0
    3.9190   -1.5516    0.0382 H   0  0  0  0  0  0  0  0  0  0  0  0
    4.0132   -1.1898    1.7851 H   0  0  0  0  0  0  0  0  0  0  0  0
    4.7196   -0.0728    0.5894 H   0  0  0  0  0  0  0  0  0  0  0  0
    1.4125    2.0421    0.8987 H   0  0  0  0  0  0  0  0  0  0  0  0
   -0.4537    3.5982    0.8229 H   0  0  0  0  0  0  0  0  0  0  0  0
   -2.6626    2.8503    0.0631 H   0  0  0  0  0  0  0  0  0  0  0  0
   -2.9595    0.5479   -0.6085 H   0  0  0  0  0  0  0  0  0  0  0  0
   -0.5111   -2.1870   -0.6877 H   0  0  0  0  0  0  0  0  0  0  0  0
   -2.8370   -1.0232   -1.9021 H   0  0  0  0  0  0  0  0  0  0  0  0
   -3.2885   -1.5997   -0.2713 H   0  0  0  0  0  0  0  0  0  0  0  0
   -2.6132   -2.7529   -1.4968 H   0  0  0  0  0  0  0  0  0  0  0  0
  1  2  1  0
  2  3  1  0
  3  4  2  0
  3  5  1  0
  5  6  2  0
  6  7  1  0
  7  8  2  0
  8  9  1  0
  9 10  2  0
 10 11  1  0
 11 12  1  0
 10  5  1  0
  1 13  1  0
  1 14  1  0
  1 15  1  0
  6 16  1  0
  7 17  1  0
  8 18  1  0
  9 19  1  0
 11 20  1  0
 12 21  1  0
 12 22  1  0
 12 23  1  0
M  END
>  <Ligand ID>  (1) 
LIG0000179

>  <Ligand>  (1) 
Dimethyl anthranilate

>  <SMILES>  (1) 
COC(=O)c1ccccc1NC

>  <CID>  (1) 
6826.0

>  <ChEMBL ID>  (1) 
nan

>  <InChiKey>  (1) 
GVOWHGSUZUUUDR-UHFFFAOYSA-N

>  <InChi>  (1) 
InChI=1S/C9H11NO2/c1-10-8-6-4-3-5-7(8)9(11)12-2/h3-6,10H,1-2H3

>  <IUPAC Name>  (1) 
methyl 2-(methylamino)benzoate

$$$$
