
     RDKit          3D

 37 38  0  0  0  0  0  0  0  0999 V2000
    6.8961    2.9175    1.8724 N   0  0  0  0  0  0  0  0  0  0  0  0
    6.7722    1.8702    1.4047 C   0  0  0  0  0  0  0  0  0  0  0  0
    6.5909    0.5438    0.8149 C   0  0  0  0  0  0  0  0  0  0  0  0
    5.5250    0.5240   -0.2070 C   0  0  0  0  0  0  0  0  0  0  0  0
    5.8606    0.7858   -1.5188 C   0  0  0  0  0  0  0  0  0  0  0  0
    4.8746    0.7703   -2.4860 C   0  0  0  0  0  0  0  0  0  0  0  0
    3.5751    0.4915   -2.1094 C   0  0  0  0  0  0  0  0  0  0  0  0
    3.2254    0.2263   -0.7918 C   0  0  0  0  0  0  0  0  0  0  0  0
    4.2226    0.2472    0.1542 C   0  0  0  0  0  0  0  0  0  0  0  0
    1.8488   -0.0555   -0.4859 C   0  0  0  0  0  0  0  0  0  0  0  0
    0.6872   -0.2860   -0.2418 C   0  0  0  0  0  0  0  0  0  0  0  0
   -0.7022   -0.5458    0.0303 C   0  0  0  0  0  0  0  0  0  0  0  0
   -1.3231   -1.7328   -0.2984 C   0  0  0  0  0  0  0  0  0  0  0  0
   -2.6690   -1.9344   -0.0134 C   0  0  0  0  0  0  0  0  0  0  0  0
   -3.3689   -0.9193    0.6057 C   0  0  0  0  0  0  0  0  0  0  0  0
   -2.7482    0.2893    0.9433 C   0  0  0  0  0  0  0  0  0  0  0  0
   -1.4099    0.4723    0.6527 C   0  0  0  0  0  0  0  0  0  0  0  0
   -3.4287    1.2745    1.5444 F   0  0  0  0  0  0  0  0  0  0  0  0
   -4.8080   -1.0214    0.9584 C   0  0  0  0  0  0  0  0  0  0  0  0
   -5.5701   -0.1964   -0.0667 C   0  0  0  0  0  0  0  0  0  0  0  0
   -7.0267   -0.2634    0.2409 C   0  0  0  0  0  0  0  0  0  0  0  0
   -7.4771   -0.9208    1.2161 O   0  0  0  0  0  0  0  0  0  0  0  0
   -7.8921    0.4438   -0.6092 O   0  0  0  0  0  0  0  0  0  0  0  0
    6.3509   -0.1349    1.6710 H   0  0  0  0  0  0  0  0  0  0  0  0
    7.5174    0.1548    0.3368 H   0  0  0  0  0  0  0  0  0  0  0  0
    6.9047    0.9984   -1.7505 H   0  0  0  0  0  0  0  0  0  0  0  0
    5.1460    0.9774   -3.5186 H   0  0  0  0  0  0  0  0  0  0  0  0
    2.8367    0.4922   -2.9134 H   0  0  0  0  0  0  0  0  0  0  0  0
    3.9452    0.0411    1.1709 H   0  0  0  0  0  0  0  0  0  0  0  0
   -0.7518   -2.5092   -0.7818 H   0  0  0  0  0  0  0  0  0  0  0  0
   -3.1776   -2.8588   -0.2622 H   0  0  0  0  0  0  0  0  0  0  0  0
   -0.9207    1.4089    0.9128 H   0  0  0  0  0  0  0  0  0  0  0  0
   -4.9810   -0.5583    1.9278 H   0  0  0  0  0  0  0  0  0  0  0  0
   -5.1680   -2.0606    0.8753 H   0  0  0  0  0  0  0  0  0  0  0  0
   -5.3887   -0.6001   -1.0921 H   0  0  0  0  0  0  0  0  0  0  0  0
   -5.2106    0.8637   -0.0796 H   0  0  0  0  0  0  0  0  0  0  0  0
   -8.7569    0.8047   -0.2306 H   0  0  0  0  0  0  0  0  0  0  0  0
  1  2  3  0
  2  3  1  0
  3  4  1  0
  4  5  2  0
  5  6  1  0
  6  7  2  0
  7  8  1  0
  8  9  2  0
  8 10  1  0
 10 11  3  0
 11 12  1  0
 12 13  2  0
 13 14  1  0
 14 15  2  0
 15 16  1  0
 16 17  2  0
 16 18  1  0
 15 19  1  0
 19 20  1  0
 20 21  1  0
 21 22  2  0
 21 23  1  0
  9  4  1  0
 17 12  1  0
  3 24  1  0
  3 25  1  0
  5 26  1  0
  6 27  1  0
  7 28  1  0
  9 29  1  0
 13 30  1  0
 14 31  1  0
 17 32  1  0
 19 33  1  0
 19 34  1  0
 20 35  1  0
 20 36  1  0
 23 37  1  0
M  END
>  <Ligand ID>  (1) 
LIG0005815

>  <Ligand>  (1) 
CHEMBL2386354

>  <SMILES>  (1) 
N#CCc1cccc(c1)C#Cc1ccc(c(c1)F)CCC(=O)O

>  <CID>  (1) 
71655293.0

>  <ChEMBL ID>  (1) 
nan

>  <InChiKey>  (1) 
NULHTRXWWDYHMK-UHFFFAOYSA-N

>  <InChi>  (1) 
InChI=1S/C19H14FNO2/c20-18-13-16(6-7-17(18)8-9-19(22)23)5-4-14-2-1-3-15(12-14)10-11-21/h1-3,6-7,12-13H,8-10H2,(H,22,23)

>  <IUPAC Name>  (1) 
3-[4-[2-[3-(cyanomethyl)phenyl]ethynyl]-2-fluorophenyl]propanoic acid

$$$$
