
     RDKit          3D

109113  0  0  0  0  0  0  0  0999 V2000
   -5.4011   -1.7686    1.0020 O   0  0  0  0  0  0  0  0  0  0  0  0
   -5.7809   -0.6272    0.5814 C   0  0  0  0  0  0  0  0  0  0  0  0
   -5.0834    0.0893   -0.4247 N   0  0  0  0  0  0  0  0  0  0  0  0
   -3.8682   -0.5738   -0.9750 C   0  0  2  0  0  0  0  0  0  0  0  0
   -2.7312    0.3753   -0.8787 C   0  0  0  0  0  0  0  0  0  0  0  0
   -3.0536    1.5888   -0.6293 O   0  0  0  0  0  0  0  0  0  0  0  0
   -1.4059   -0.0379   -1.0437 N   0  0  0  0  0  0  0  0  0  0  0  0
   -0.2332    0.8043   -0.9664 C   0  0  2  0  0  0  0  0  0  0  0  0
    0.8261    0.4114   -1.8954 C   0  0  0  0  0  0  0  0  0  0  0  0
    0.6135   -0.5536   -2.6671 O   0  0  0  0  0  0  0  0  0  0  0  0
    2.1019    1.0912   -1.9468 N   0  0  0  0  0  0  0  0  0  0  0  0
    3.0634    0.6045   -2.8800 C   0  0  2  0  0  0  0  0  0  0  0  0
    3.9485   -0.4399   -2.2304 C   0  0  0  0  0  0  0  0  0  0  0  0
    4.9190   -0.9299   -2.8665 O   0  0  0  0  0  0  0  0  0  0  0  0
    3.6116   -0.8115   -0.9073 N   0  0  0  0  0  0  0  0  0  0  0  0
    4.2910   -1.7751   -0.0979 C   0  0  2  0  0  0  0  0  0  0  0  0
    3.4847   -3.0234    0.0774 C   0  0  0  0  0  0  0  0  0  0  0  0
    3.9382   -3.9906    0.7758 O   0  0  0  0  0  0  0  0  0  0  0  0
    2.2078   -3.0950   -0.5552 N   0  0  0  0  0  0  0  0  0  0  0  0
    4.6314   -1.1642    1.2392 C   0  0  0  0  0  0  0  0  0  0  0  0
    5.3184   -2.0813    2.1629 C   0  0  0  0  0  0  0  0  0  0  0  0
    4.6399   -2.6935    3.2303 C   0  0  0  0  0  0  0  0  0  0  0  0
    5.4753   -3.4799    3.9165 N   0  0  0  0  0  0  0  0  0  0  0  0
    6.6798   -3.4039    3.3343 C   0  0  0  0  0  0  0  0  0  0  0  0
    6.5917   -2.5387    2.2461 C   0  0  0  0  0  0  0  0  0  0  0  0
    7.6885   -2.2723    1.4665 C   0  0  0  0  0  0  0  0  0  0  0  0
    8.8955   -2.8873    1.7866 C   0  0  0  0  0  0  0  0  0  0  0  0
    8.9861   -3.7536    2.8741 C   0  0  0  0  0  0  0  0  0  0  0  0
    7.8744   -4.0138    3.6516 C   0  0  0  0  0  0  0  0  0  0  0  0
    3.7877    1.6037   -3.6275 C   0  0  0  0  0  0  0  0  0  0  0  0
    4.6722    2.6109   -3.0479 C   0  0  0  0  0  0  0  0  0  0  0  0
    4.1866    3.6068   -2.0707 C   0  0  0  0  0  0  0  0  0  0  0  0
    5.3710    4.4684   -1.7707 N   0  0  0  0  0  0  0  0  0  0  0  0
    5.2707    5.7359   -1.6314 C   0  0  0  0  0  0  0  0  0  0  0  0
    6.3890    6.5759   -1.3449 N   0  0  0  0  0  0  0  0  0  0  0  0
    4.0093    6.3770   -1.7594 N   0  0  0  0  0  0  0  0  0  0  0  0
    0.2914    0.8657    0.4708 C   0  0  0  0  0  0  0  0  0  0  0  0
   -0.7105    1.4145    1.4102 C   0  0  0  0  0  0  0  0  0  0  0  0
   -0.7524    2.7799    1.6245 C   0  0  0  0  0  0  0  0  0  0  0  0
   -1.6514    3.3681    2.4977 C   0  0  0  0  0  0  0  0  0  0  0  0
   -2.5318    2.5350    3.1699 C   0  0  0  0  0  0  0  0  0  0  0  0
   -2.5218    1.1609    2.9822 C   0  0  0  0  0  0  0  0  0  0  0  0
   -1.6045    0.6175    2.0986 C   0  0  0  0  0  0  0  0  0  0  0  0
   -4.2261   -0.7608   -2.4204 C   0  0  0  0  0  0  0  0  0  0  0  0
   -3.2743   -1.3972   -3.2994 C   0  0  0  0  0  0  0  0  0  0  0  0
   -2.3272   -0.7169   -4.0628 C   0  0  0  0  0  0  0  0  0  0  0  0
   -1.4657   -1.4104   -4.9000 C   0  0  0  0  0  0  0  0  0  0  0  0
   -1.5019   -2.7945   -5.0176 C   0  0  0  0  0  0  0  0  0  0  0  0
   -2.4321   -3.4561   -4.2661 C   0  0  0  0  0  0  0  0  0  0  0  0
   -3.3099   -2.7858   -3.4178 C   0  0  0  0  0  0  0  0  0  0  0  0
   -0.3860   -3.6212   -6.0956 Cl  0  0  0  0  0  0  0  0  0  0  0  0
   -7.0192   -0.0988    1.2272 C   0  0  0  0  0  0  0  0  0  0  0  0
   -7.5113   -1.1074    2.2708 C   0  0  0  0  0  0  0  0  0  0  0  0
   -8.7503   -0.6263    2.9276 C   0  0  0  0  0  0  0  0  0  0  0  0
  -10.0003   -0.9739    2.4096 C   0  0  0  0  0  0  0  0  0  0  0  0
  -11.1305   -0.4936    3.0493 C   0  0  0  0  0  0  0  0  0  0  0  0
  -11.0727    0.3090    4.1698 C   0  0  0  0  0  0  0  0  0  0  0  0
   -9.8363    0.6461    4.6725 C   0  0  0  0  0  0  0  0  0  0  0  0
   -8.6837    0.1776    4.0504 C   0  0  0  0  0  0  0  0  0  0  0  0
   -5.3933    1.0154   -0.7624 H   0  0  0  0  0  0  0  0  0  0  0  0
   -3.7535   -1.4980   -0.4192 H   0  0  0  0  0  0  0  0  0  0  0  0
   -1.2240   -1.0579   -1.2459 H   0  0  0  0  0  0  0  0  0  0  0  0
   -0.5513    1.8421   -1.1757 H   0  0  0  0  0  0  0  0  0  0  0  0
    2.1861    1.8785   -1.2851 H   0  0  0  0  0  0  0  0  0  0  0  0
    2.4915   -0.0453   -3.6278 H   0  0  0  0  0  0  0  0  0  0  0  0
    2.7701   -0.3399   -0.4449 H   0  0  0  0  0  0  0  0  0  0  0  0
    5.2264   -2.0872   -0.6012 H   0  0  0  0  0  0  0  0  0  0  0  0
    2.0586   -2.8394   -1.5554 H   0  0  0  0  0  0  0  0  0  0  0  0
    1.3585   -3.4169   -0.0156 H   0  0  0  0  0  0  0  0  0  0  0  0
    5.2455   -0.2589    1.0012 H   0  0  0  0  0  0  0  0  0  0  0  0
    3.6812   -0.7766    1.6707 H   0  0  0  0  0  0  0  0  0  0  0  0
    3.5776   -2.5505    3.4721 H   0  0  0  0  0  0  0  0  0  0  0  0
    5.1623   -4.0306    4.7562 H   0  0  0  0  0  0  0  0  0  0  0  0
    7.5904   -1.5910    0.6213 H   0  0  0  0  0  0  0  0  0  0  0  0
    9.7676   -2.6774    1.1670 H   0  0  0  0  0  0  0  0  0  0  0  0
    9.9501   -4.1953    3.0654 H   0  0  0  0  0  0  0  0  0  0  0  0
    7.9361   -4.6953    4.5085 H   0  0  0  0  0  0  0  0  0  0  0  0
    4.3867    1.0937   -4.4541 H   0  0  0  0  0  0  0  0  0  0  0  0
    3.0338    2.1913   -4.2781 H   0  0  0  0  0  0  0  0  0  0  0  0
    5.6730    2.1661   -2.6976 H   0  0  0  0  0  0  0  0  0  0  0  0
    5.0495    3.2344   -3.9347 H   0  0  0  0  0  0  0  0  0  0  0  0
    3.4155    4.2516   -2.5193 H   0  0  0  0  0  0  0  0  0  0  0  0
    3.9415    3.2267   -1.0553 H   0  0  0  0  0  0  0  0  0  0  0  0
    6.3529    7.3330   -0.6100 H   0  0  0  0  0  0  0  0  0  0  0  0
    7.2869    6.4463   -1.8764 H   0  0  0  0  0  0  0  0  0  0  0  0
    3.3555    6.3666   -0.9506 H   0  0  0  0  0  0  0  0  0  0  0  0
    3.8118    6.8297   -2.6811 H   0  0  0  0  0  0  0  0  0  0  0  0
    1.1833    1.5186    0.5353 H   0  0  0  0  0  0  0  0  0  0  0  0
    0.6358   -0.1345    0.8119 H   0  0  0  0  0  0  0  0  0  0  0  0
   -0.0708    3.4694    1.1102 H   0  0  0  0  0  0  0  0  0  0  0  0
   -1.6521    4.4486    2.6401 H   0  0  0  0  0  0  0  0  0  0  0  0
   -3.2618    2.9529    3.8729 H   0  0  0  0  0  0  0  0  0  0  0  0
   -3.1774    0.4779    3.4754 H   0  0  0  0  0  0  0  0  0  0  0  0
   -1.5675   -0.4524    1.9283 H   0  0  0  0  0  0  0  0  0  0  0  0
   -4.3847    0.2906   -2.8175 H   0  0  0  0  0  0  0  0  0  0  0  0
   -5.2624   -1.2062   -2.5325 H   0  0  0  0  0  0  0  0  0  0  0  0
   -2.2972    0.3662   -3.9710 H   0  0  0  0  0  0  0  0  0  0  0  0
   -0.7562   -0.8362   -5.4673 H   0  0  0  0  0  0  0  0  0  0  0  0
   -2.4833   -4.5280   -4.3370 H   0  0  0  0  0  0  0  0  0  0  0  0
   -4.0005   -3.3958   -2.8726 H   0  0  0  0  0  0  0  0  0  0  0  0
   -7.8266    0.0345    0.4851 H   0  0  0  0  0  0  0  0  0  0  0  0
   -6.8379    0.8631    1.7245 H   0  0  0  0  0  0  0  0  0  0  0  0
   -6.7537   -1.2886    3.0539 H   0  0  0  0  0  0  0  0  0  0  0  0
   -7.7504   -2.0837    1.7799 H   0  0  0  0  0  0  0  0  0  0  0  0
  -10.0568   -1.6023    1.5355 H   0  0  0  0  0  0  0  0  0  0  0  0
  -12.0820   -0.7762    2.6298 H   0  0  0  0  0  0  0  0  0  0  0  0
  -11.9716    0.6827    4.6646 H   0  0  0  0  0  0  0  0  0  0  0  0
   -9.8160    1.2748    5.5439 H   0  0  0  0  0  0  0  0  0  0  0  0
   -7.7047    0.4505    4.4558 H   0  0  0  0  0  0  0  0  0  0  0  0
  1  2  2  0
  2  3  1  0
  3  4  1  0
  4  5  1  0
  5  6  2  0
  5  7  1  0
  7  8  1  0
  8  9  1  0
  9 10  2  0
  9 11  1  0
 11 12  1  0
 12 13  1  0
 13 14  2  0
 13 15  1  0
 15 16  1  0
 16 17  1  0
 17 18  2  0
 17 19  1  0
 16 20  1  0
 20 21  1  0
 21 22  2  0
 22 23  1  0
 23 24  1  0
 24 25  2  0
 25 26  1  0
 26 27  2  0
 27 28  1  0
 28 29  2  0
 12 30  1  0
 30 31  1  0
 31 32  1  0
 32 33  1  0
 33 34  2  3
 34 35  1  0
 34 36  1  0
  8 37  1  0
 37 38  1  0
 38 39  2  0
 39 40  1  0
 40 41  2  0
 41 42  1  0
 42 43  2  0
  4 44  1  0
 44 45  1  0
 45 46  2  0
 46 47  1  0
 47 48  2  0
 48 49  1  0
 49 50  2  0
 48 51  1  0
  2 52  1  0
 52 53  1  0
 53 54  1  0
 54 55  2  0
 55 56  1  0
 56 57  2  0
 57 58  1  0
 58 59  2  0
 25 21  1  0
 43 38  1  0
 50 45  1  0
 59 54  1  0
 29 24  1  0
  3 60  1  0
  4 61  1  1
  7 62  1  0
  8 63  1  6
 11 64  1  0
 12 65  1  6
 15 66  1  0
 16 67  1  6
 19 68  1  0
 19 69  1  0
 20 70  1  0
 20 71  1  0
 22 72  1  0
 23 73  1  0
 26 74  1  0
 27 75  1  0
 28 76  1  0
 29 77  1  0
 30 78  1  0
 30 79  1  0
 31 80  1  0
 31 81  1  0
 32 82  1  0
 32 83  1  0
 35 84  1  0
 35 85  1  0
 36 86  1  0
 36 87  1  0
 37 88  1  0
 37 89  1  0
 39 90  1  0
 40 91  1  0
 41 92  1  0
 42 93  1  0
 43 94  1  0
 44 95  1  0
 44 96  1  0
 46 97  1  0
 47 98  1  0
 49 99  1  0
 50100  1  0
 52101  1  0
 52102  1  0
 53103  1  0
 53104  1  0
 55105  1  0
 56106  1  0
 57107  1  0
 58108  1  0
 59109  1  0
M  END
>  <Ligand ID>  (1) 
LIG0002670

>  <Ligand>  (1) 
CHEMBL184895

>  <SMILES>  (1) 
O=C(N[C@H](C(=O)N[C@H](C(=O)N[C@H](C(=O)N[C@H](C(=O)N)Cc1c[nH]c2c1cccc2)CCCN=C(N)N)Cc1ccccc1)Cc1ccc(cc1)Cl)CCc1ccccc1

>  <CID>  (1) 
44394694.0

>  <ChEMBL ID>  (1) 
nan

>  <InChiKey>  (1) 
UKHDYLADDOWZDE-ZQWQDMLBSA-N

>  <InChi>  (1) 
InChI=1S/C44H50ClN9O5/c45-32-20-17-30(18-21-32)25-37(51-39(55)22-19-28-10-3-1-4-11-28)42(58)54-38(24-29-12-5-2-6-13-29)43(59)52-35(16-9-23-49-44(47)48)41(57)53-36(40(46)56)26-31-27-50-34-15-8-7-14-33(31)34/h1-8,10-15,17-18,20-21,27,35-38,50H,9,16,19,22-26H2,(H2,46,56)(H,51,55)(H,52,59)(H,53,57)(H,54,58)(H4,47,48,49)/t35-,36-,37-,38-/m0/s1

>  <IUPAC Name>  (1) 
(2S)-N-[(2S)-1-amino-3-(1H-indol-3-yl)-1-oxopropan-2-yl]-2-[[(2S)-2-[[(2S)-3-(4-chlorophenyl)-2-(3-phenylpropanoylamino)propanoyl]amino]-3-phenylpropanoyl]amino]-5-(diaminomethylideneamino)pentanamide

$$$$
