
     RDKit          3D

 13 13  0  0  0  0  0  0  0  0999 V2000
   -2.6281   -0.0243    0.1697 N   0  0  0  0  0  0  0  0  0  0  0  0
   -1.3864    0.5688    0.1219 N   0  0  0  0  0  0  0  0  0  0  0  0
   -0.2093   -0.2361   -0.0374 C   0  0  0  0  0  0  0  0  0  0  0  0
   -0.2707   -1.9394   -0.1749 S   0  0  0  0  0  0  0  0  0  0  0  0
    1.5699   -2.1233   -0.3343 N   0  0  0  0  0  0  0  0  0  0  0  0
    2.0161   -0.8151   -0.2600 C   0  0  0  0  0  0  0  0  0  0  0  0
    1.1006    0.1235   -0.1099 C   0  0  0  0  0  0  0  0  0  0  0  0
    1.4529    1.5614   -0.0174 C   0  0  0  0  0  0  0  0  0  0  0  0
    1.7118    2.7043    0.0557 N   0  0  0  0  0  0  0  0  0  0  0  0
    3.7762   -0.5503   -0.3756 Cl  0  0  0  0  0  0  0  0  0  0  0  0
   -2.6821   -0.9464   -0.2946 H   0  0  0  0  0  0  0  0  0  0  0  0
   -3.1442    0.0623    1.0540 H   0  0  0  0  0  0  0  0  0  0  0  0
   -1.3068    1.6145    0.2029 H   0  0  0  0  0  0  0  0  0  0  0  0
  1  2  1  0
  2  3  1  0
  3  4  1  0
  4  5  1  0
  5  6  2  0
  6  7  1  0
  7  8  1  0
  8  9  3  0
  6 10  1  0
  7  3  2  0
  1 11  1  0
  1 12  1  0
  2 13  1  0
M  END
>  <Ligand ID>  (1) 
LIG0005075

>  <Ligand>  (1) 
MLS000724232

>  <SMILES>  (1) 
NNc1snc(c1C#N)Cl

>  <CID>  (1) 
1206899.0

>  <ChEMBL ID>  (1) 
nan

>  <InChiKey>  (1) 
OVJXTQYKUANUNQ-UHFFFAOYSA-N

>  <InChi>  (1) 
InChI=1S/C4H3ClN4S/c5-3-2(1-6)4(8-7)10-9-3/h8H,7H2

>  <IUPAC Name>  (1) 
3-chloro-5-hydrazinyl-1,2-thiazole-4-carbonitrile

$$$$
