
     RDKit          3D

 27 28  0  0  0  0  0  0  0  0999 V2000
    2.9383   -3.5444   -0.2533 Cl  0  0  0  0  0  0  0  0  0  0  0  0
    2.1528   -1.9734   -0.2613 C   0  0  0  0  0  0  0  0  0  0  0  0
    2.9384   -0.8674   -0.0945 C   0  0  0  0  0  0  0  0  0  0  0  0
    2.3355    0.3691   -0.0988 C   0  0  0  0  0  0  0  0  0  0  0  0
    0.9735    0.5498   -0.2634 C   0  0  0  0  0  0  0  0  0  0  0  0
    0.1888   -0.5700   -0.4308 C   0  0  0  0  0  0  0  0  0  0  0  0
    0.7982   -1.8164   -0.4263 C   0  0  0  0  0  0  0  0  0  0  0  0
   -1.2787   -0.6246   -0.6229 C   0  0  1  0  0  0  0  0  0  0  0  0
   -1.8365   -1.8261    0.0718 C   0  0  0  0  0  0  0  0  0  0  0  0
   -1.8928    0.6698   -0.1057 C   0  0  0  0  0  0  0  0  0  0  0  0
   -1.2862    1.1305    1.1133 N   0  0  0  0  0  0  0  0  0  0  0  0
   -0.3655    2.2453    0.8971 C   0  0  0  0  0  0  0  0  0  0  0  0
    0.6003    1.9704   -0.2272 C   0  0  0  0  0  0  0  0  0  0  0  0
    4.0132   -0.8940    0.0422 H   0  0  0  0  0  0  0  0  0  0  0  0
    2.9424    1.2547    0.0319 H   0  0  0  0  0  0  0  0  0  0  0  0
    0.1962   -2.7195   -0.5574 H   0  0  0  0  0  0  0  0  0  0  0  0
   -1.4975   -0.6944   -1.6956 H   0  0  0  0  0  0  0  0  0  0  0  0
   -1.9369   -2.6497   -0.6633 H   0  0  0  0  0  0  0  0  0  0  0  0
   -1.2061   -2.1221    0.9438 H   0  0  0  0  0  0  0  0  0  0  0  0
   -2.8698   -1.6404    0.4721 H   0  0  0  0  0  0  0  0  0  0  0  0
   -2.9746    0.4625    0.0280 H   0  0  0  0  0  0  0  0  0  0  0  0
   -1.8217    1.4336   -0.9260 H   0  0  0  0  0  0  0  0  0  0  0  0
   -2.0176    1.5026    1.7753 H   0  0  0  0  0  0  0  0  0  0  0  0
   -0.9179    3.1958    0.7600 H   0  0  0  0  0  0  0  0  0  0  0  0
    0.2068    2.3626    1.8505 H   0  0  0  0  0  0  0  0  0  0  0  0
    0.1231    2.2090   -1.2154 H   0  0  0  0  0  0  0  0  0  0  0  0
    1.4941    2.5868   -0.1440 H   0  0  0  0  0  0  0  0  0  0  0  0
  1  2  1  0
  2  3  2  0
  3  4  1  0
  4  5  2  0
  5  6  1  0
  6  7  2  0
  6  8  1  0
  8  9  1  0
  8 10  1  0
 10 11  1  0
 11 12  1  0
 12 13  1  0
  7  2  1  0
 13  5  1  0
  3 14  1  0
  4 15  1  0
  7 16  1  0
  8 17  1  6
  9 18  1  0
  9 19  1  0
  9 20  1  0
 10 21  1  0
 10 22  1  0
 11 23  1  0
 12 24  1  0
 12 25  1  0
 13 26  1  0
 13 27  1  0
M  END
>  <Ligand ID>  (1) 
LIG0001173

>  <Ligand>  (1) 
lorcaserin

>  <SMILES>  (1) 
Clc1ccc2c(c1)[C@@H](C)CNCC2

>  <CID>  (1) 
11658860.0

>  <ChEMBL ID>  (1) 
nan

>  <InChiKey>  (1) 
XTTZERNUQAFMOF-QMMMGPOBSA-N

>  <InChi>  (1) 
InChI=1S/C11H14ClN/c1-8-7-13-5-4-9-2-3-10(12)6-11(8)9/h2-3,6,8,13H,4-5,7H2,1H3/t8-/m0/s1

>  <IUPAC Name>  (1) 
(5R)-7-chloro-5-methyl-2,3,4,5-tetrahydro-1H-3-benzazepine

$$$$
