
     RDKit          3D

 26 26  0  0  0  0  0  0  0  0999 V2000
    3.5107    0.5214   -0.3342 C   0  0  0  0  0  0  0  0  0  0  0  0
    2.1505   -0.0669   -0.3483 C   0  0  0  0  0  0  0  0  0  0  0  0
    1.4396   -0.0933   -1.4684 C   0  0  0  0  0  0  0  0  0  0  0  0
    0.0726   -0.6827   -1.4892 C   0  0  0  0  0  0  0  0  0  0  0  0
   -0.5937   -0.4534   -0.1753 C   0  0  0  0  0  0  0  0  0  0  0  0
    0.1403   -0.4304    0.9319 C   0  0  0  0  0  0  0  0  0  0  0  0
    1.6175   -0.6237    0.9383 C   0  0  0  0  0  0  0  0  0  0  0  0
   -2.0672   -0.2613   -0.1893 C   0  0  0  0  0  0  0  0  0  0  0  0
   -2.5857   -0.0348    1.2309 C   0  0  0  0  0  0  0  0  0  0  0  0
   -2.3849    0.9488   -1.0395 C   0  0  0  0  0  0  0  0  0  0  0  0
    4.2987   -0.2722   -0.3698 H   0  0  0  0  0  0  0  0  0  0  0  0
    3.6739    1.1489   -1.2547 H   0  0  0  0  0  0  0  0  0  0  0  0
    3.6265    1.2167    0.5044 H   0  0  0  0  0  0  0  0  0  0  0  0
    1.8828    0.3278   -2.3720 H   0  0  0  0  0  0  0  0  0  0  0  0
   -0.4773   -0.2034   -2.3261 H   0  0  0  0  0  0  0  0  0  0  0  0
    0.1178   -1.7871   -1.6510 H   0  0  0  0  0  0  0  0  0  0  0  0
   -0.3422   -0.2640    1.8872 H   0  0  0  0  0  0  0  0  0  0  0  0
    2.0646   -0.1109    1.8123 H   0  0  0  0  0  0  0  0  0  0  0  0
    1.8649   -1.7120    1.0251 H   0  0  0  0  0  0  0  0  0  0  0  0
   -2.6150   -1.1604   -0.5729 H   0  0  0  0  0  0  0  0  0  0  0  0
   -2.3046   -0.8777    1.8731 H   0  0  0  0  0  0  0  0  0  0  0  0
   -2.0166    0.8659    1.6074 H   0  0  0  0  0  0  0  0  0  0  0  0
   -3.6359    0.2477    1.2454 H   0  0  0  0  0  0  0  0  0  0  0  0
   -2.8776    1.7181   -0.4107 H   0  0  0  0  0  0  0  0  0  0  0  0
   -3.1097    0.6517   -1.8361 H   0  0  0  0  0  0  0  0  0  0  0  0
   -1.4498    1.3870   -1.4845 H   0  0  0  0  0  0  0  0  0  0  0  0
  1  2  1  0
  2  3  2  0
  3  4  1  0
  4  5  1  0
  5  6  2  0
  6  7  1  0
  5  8  1  0
  8  9  1  0
  8 10  1  0
  7  2  1  0
  1 11  1  0
  1 12  1  0
  1 13  1  0
  3 14  1  0
  4 15  1  0
  4 16  1  0
  6 17  1  0
  7 18  1  0
  7 19  1  0
  8 20  1  0
  9 21  1  0
  9 22  1  0
  9 23  1  0
 10 24  1  0
 10 25  1  0
 10 26  1  0
M  END
>  <Ligand ID>  (1) 
LIG0001031

>  <Ligand>  (1) 
gamma-Terpinene

>  <SMILES>  (1) 
CC1=CCC(=CC1)C(C)C

>  <CID>  (1) 
7461.0

>  <ChEMBL ID>  (1) 
nan

>  <InChiKey>  (1) 
YKFLAYDHMOASIY-UHFFFAOYSA-N

>  <InChi>  (1) 
InChI=1S/C10H16/c1-8(2)10-6-4-9(3)5-7-10/h4,7-8H,5-6H2,1-3H3

>  <IUPAC Name>  (1) 
1-methyl-4-propan-2-ylcyclohexa-1,4-diene

$$$$
