
     RDKit          3D

 48 52  0  0  0  0  0  0  0  0999 V2000
    0.3470   -3.1033    0.4739 C   0  0  0  0  0  0  0  0  0  0  0  0
   -0.1809   -1.7143    0.1227 C   0  0  1  0  0  0  0  0  0  0  0  0
   -1.1400   -1.2401    1.1569 C   0  0  0  0  0  0  0  0  0  0  0  0
   -1.6885    0.0663    0.8827 N   0  0  0  0  0  0  0  0  0  0  0  0
   -1.1134    1.1955    1.3940 C   0  0  0  0  0  0  0  0  0  0  0  0
   -1.8252    2.3087    1.0211 C   0  0  0  0  0  0  0  0  0  0  0  0
   -2.8618    1.8671    0.2641 C   0  0  0  0  0  0  0  0  0  0  0  0
   -2.7413    0.4863    0.2028 C   0  0  0  0  0  0  0  0  0  0  0  0
   -3.6970   -0.1776   -0.5224 C   0  0  0  0  0  0  0  0  0  0  0  0
   -3.6544   -1.5390   -0.6467 C   0  0  0  0  0  0  0  0  0  0  0  0
   -4.6454   -2.1869   -1.4011 C   0  0  0  0  0  0  0  0  0  0  0  0
   -5.6220   -1.4510   -1.9904 C   0  0  0  0  0  0  0  0  0  0  0  0
   -5.6583   -0.1140   -1.8655 N   0  0  0  0  0  0  0  0  0  0  0  0
   -4.7097    0.5233   -1.1412 C   0  0  0  0  0  0  0  0  0  0  0  0
   -4.8288    1.8996   -1.0781 C   0  0  0  0  0  0  0  0  0  0  0  0
   -3.8707    2.5702   -0.3526 C   0  0  0  0  0  0  0  0  0  0  0  0
    0.9795   -0.8777   -0.0707 N   0  0  0  0  0  0  0  0  0  0  0  0
    1.8750   -0.8107    1.0338 C   0  0  0  0  0  0  0  0  0  0  0  0
    2.9957    0.1086    0.6243 C   0  0  0  0  0  0  0  0  0  0  0  0
    2.8675    1.4499    0.8871 C   0  0  0  0  0  0  0  0  0  0  0  0
    3.9014    2.2890    0.5080 C   0  0  0  0  0  0  0  0  0  0  0  0
    5.0239    1.7779   -0.1158 C   0  0  0  0  0  0  0  0  0  0  0  0
    5.1246    0.4116   -0.3690 C   0  0  0  0  0  0  0  0  0  0  0  0
    4.1072   -0.4237    0.0027 C   0  0  0  0  0  0  0  0  0  0  0  0
    6.3592    0.2028   -1.0024 O   0  0  0  0  0  0  0  0  0  0  0  0
    6.7345    1.4434   -1.5685 C   0  0  0  0  0  0  0  0  0  0  0  0
    6.1979    2.3585   -0.6019 O   0  0  0  0  0  0  0  0  0  0  0  0
   -0.3204   -3.8699   -0.0101 H   0  0  0  0  0  0  0  0  0  0  0  0
    0.3564   -3.2709    1.5625 H   0  0  0  0  0  0  0  0  0  0  0  0
    1.3776   -3.2693    0.1020 H   0  0  0  0  0  0  0  0  0  0  0  0
   -0.6812   -1.7741   -0.8603 H   0  0  0  0  0  0  0  0  0  0  0  0
   -0.4619   -1.1426    2.1044 H   0  0  0  0  0  0  0  0  0  0  0  0
   -1.8299   -2.0052    1.5100 H   0  0  0  0  0  0  0  0  0  0  0  0
   -0.2224    1.2680    2.0136 H   0  0  0  0  0  0  0  0  0  0  0  0
   -1.6124    3.3359    1.2736 H   0  0  0  0  0  0  0  0  0  0  0  0
   -2.9261   -2.1951   -0.2340 H   0  0  0  0  0  0  0  0  0  0  0  0
   -4.6441   -3.2685   -1.5216 H   0  0  0  0  0  0  0  0  0  0  0  0
   -6.3737   -1.9719   -2.5656 H   0  0  0  0  0  0  0  0  0  0  0  0
   -5.6082    2.4622   -1.5519 H   0  0  0  0  0  0  0  0  0  0  0  0
   -3.9377    3.6487   -0.2858 H   0  0  0  0  0  0  0  0  0  0  0  0
    0.8126    0.0026   -0.5705 H   0  0  0  0  0  0  0  0  0  0  0  0
    2.3098   -1.8380    1.2173 H   0  0  0  0  0  0  0  0  0  0  0  0
    1.4362   -0.4374    1.9639 H   0  0  0  0  0  0  0  0  0  0  0  0
    2.0136    1.9008    1.3710 H   0  0  0  0  0  0  0  0  0  0  0  0
    3.8355    3.3669    0.7011 H   0  0  0  0  0  0  0  0  0  0  0  0
    4.2079   -1.4804   -0.2042 H   0  0  0  0  0  0  0  0  0  0  0  0
    6.1681    1.6587   -2.4939 H   0  0  0  0  0  0  0  0  0  0  0  0
    7.8245    1.5590   -1.6667 H   0  0  0  0  0  0  0  0  0  0  0  0
  1  2  1  0
  2  3  1  0
  3  4  1  0
  4  5  1  0
  5  6  2  0
  6  7  1  0
  7  8  2  0
  8  9  1  0
  9 10  2  0
 10 11  1  0
 11 12  2  0
 12 13  1  0
 13 14  2  0
 14 15  1  0
 15 16  2  0
  2 17  1  0
 17 18  1  0
 18 19  1  0
 19 20  2  0
 20 21  1  0
 21 22  2  0
 22 23  1  0
 23 24  2  0
 23 25  1  0
 25 26  1  0
 26 27  1  0
  8  4  1  0
 14  9  1  0
 24 19  1  0
 16  7  1  0
 27 22  1  0
  1 28  1  0
  1 29  1  0
  1 30  1  0
  2 31  1  6
  3 32  1  0
  3 33  1  0
  5 34  1  0
  6 35  1  0
 10 36  1  0
 11 37  1  0
 12 38  1  0
 15 39  1  0
 16 40  1  0
 17 41  1  0
 18 42  1  0
 18 43  1  0
 20 44  1  0
 21 45  1  0
 24 46  1  0
 26 47  1  0
 26 48  1  0
M  END
>  <Ligand ID>  (1) 
LIG0002148

>  <Ligand>  (1) 
CHEMBL202458

>  <SMILES>  (1) 
C[C@@H](Cn1ccc2c1c1cccnc1cc2)NCc1ccc2c(c1)OCO2

>  <CID>  (1) 
18715555.0

>  <ChEMBL ID>  (1) 
nan

>  <InChiKey>  (1) 
CARSKLMPPXNAOS-HNNXBMFYSA-N

>  <InChi>  (1) 
InChI=1S/C22H21N3O2/c1-15(24-12-16-4-7-20-21(11-16)27-14-26-20)13-25-10-8-17-5-6-19-18(22(17)25)3-2-9-23-19/h2-11,15,24H,12-14H2,1H3/t15-/m0/s1

>  <IUPAC Name>  (1) 
(2S)-N-(1,3-benzodioxol-5-ylmethyl)-1-pyrrolo[2,3-f]quinolin-1-ylpropan-2-amine

$$$$
