
     RDKit          3D

 56 58  0  0  0  0  0  0  0  0999 V2000
   -0.7586   -3.3022   -0.1053 F   0  0  0  0  0  0  0  0  0  0  0  0
   -2.0189   -3.5383   -0.5937 C   0  0  0  0  0  0  0  0  0  0  0  0
   -2.1193   -4.4335   -1.6204 C   0  0  0  0  0  0  0  0  0  0  0  0
   -3.3747   -4.7070   -2.1501 C   0  0  0  0  0  0  0  0  0  0  0  0
   -4.4688   -4.0711   -1.6259 C   0  0  0  0  0  0  0  0  0  0  0  0
   -4.3362   -3.1778   -0.5955 C   0  0  0  0  0  0  0  0  0  0  0  0
   -3.1216   -2.8755   -0.0409 C   0  0  0  0  0  0  0  0  0  0  0  0
   -2.8568   -1.9678    1.0744 C   0  0  0  0  0  0  0  0  0  0  0  0
   -2.2450   -0.7735    0.7708 O   0  0  0  0  0  0  0  0  0  0  0  0
   -2.6510    0.2432    0.0136 C   0  0  0  0  0  0  0  0  0  0  0  0
   -3.8409    0.3755   -0.6754 C   0  0  0  0  0  0  0  0  0  0  0  0
   -4.1520    1.4834   -1.4290 C   0  0  0  0  0  0  0  0  0  0  0  0
   -3.2781    2.5366   -1.5374 C   0  0  0  0  0  0  0  0  0  0  0  0
   -2.0880    2.4448   -0.8696 C   0  0  0  0  0  0  0  0  0  0  0  0
   -1.7719    1.3436   -0.1170 C   0  0  0  0  0  0  0  0  0  0  0  0
   -0.4634    1.2322    0.6162 C   0  0  0  0  0  0  0  0  0  0  0  0
    0.4679    0.3961   -0.0692 N   0  0  0  0  0  0  0  0  0  0  0  0
    1.6569    0.2547    0.7442 C   0  0  0  0  0  0  0  0  0  0  0  0
    2.4638    1.4987    0.9033 C   0  0  0  0  0  0  0  0  0  0  0  0
    3.6214    1.2313    1.7377 N   0  0  0  0  0  0  0  0  0  0  0  0
    4.6320    0.2895    1.3999 C   0  0  0  0  0  0  0  0  0  0  0  0
    4.6009   -0.3796    0.3453 O   0  0  0  0  0  0  0  0  0  0  0  0
    5.7633    0.0767    2.3022 C   0  0  0  0  0  0  0  0  0  0  0  0
    6.0086    0.6284    3.5062 N   0  0  0  0  0  0  0  0  0  0  0  0
    7.1157    0.1599    3.9763 O   0  0  0  0  0  0  0  0  0  0  0  0
    7.6191   -0.6851    3.1296 N   0  0  0  0  0  0  0  0  0  0  0  0
    6.8224   -0.7921    2.0454 C   0  0  0  0  0  0  0  0  0  0  0  0
    7.0462   -1.6105    0.9088 N   0  0  0  0  0  0  0  0  0  0  0  0
   -1.2170    3.5109   -0.9912 C   0  0  0  0  0  0  0  0  0  0  0  0
   -1.5283    4.6209   -1.7504 C   0  0  0  0  0  0  0  0  0  0  0  0
   -2.7675    4.6548   -2.4127 C   0  0  0  0  0  0  0  0  0  0  0  0
   -3.6635    3.6062   -2.3142 C   0  0  0  0  0  0  0  0  0  0  0  0
    0.0000    0.0000    0.0000 Cl  0  0  0  0  0  0  0  0  0  0  0  0
   -1.2403   -4.9235   -2.0199 H   0  0  0  0  0  0  0  0  0  0  0  0
   -3.4801   -5.4107   -2.9612 H   0  0  0  0  0  0  0  0  0  0  0  0
   -5.4809   -4.2370   -1.9919 H   0  0  0  0  0  0  0  0  0  0  0  0
   -5.2064   -2.6693   -0.1767 H   0  0  0  0  0  0  0  0  0  0  0  0
   -2.2973   -2.5606    1.8494 H   0  0  0  0  0  0  0  0  0  0  0  0
   -3.8371   -1.7603    1.5825 H   0  0  0  0  0  0  0  0  0  0  0  0
   -4.5804   -0.4027   -0.6292 H   0  0  0  0  0  0  0  0  0  0  0  0
   -5.1163    1.5279   -1.9567 H   0  0  0  0  0  0  0  0  0  0  0  0
   -0.7071    0.6824    1.5810 H   0  0  0  0  0  0  0  0  0  0  0  0
   -0.0576    2.1878    0.9484 H   0  0  0  0  0  0  0  0  0  0  0  0
    0.7785    0.8429   -0.9750 H   0  0  0  0  0  0  0  0  0  0  0  0
    2.2997   -0.5777    0.3957 H   0  0  0  0  0  0  0  0  0  0  0  0
    1.3018   -0.0267    1.7794 H   0  0  0  0  0  0  0  0  0  0  0  0
    1.9257    2.3322    1.3557 H   0  0  0  0  0  0  0  0  0  0  0  0
    2.7610    1.8305   -0.1155 H   0  0  0  0  0  0  0  0  0  0  0  0
    3.7742    1.7373    2.6616 H   0  0  0  0  0  0  0  0  0  0  0  0
    8.4984   -1.2256    3.2218 H   0  0  0  0  0  0  0  0  0  0  0  0
    6.2734   -2.0048    0.3172 H   0  0  0  0  0  0  0  0  0  0  0  0
    8.0406   -1.8239    0.6599 H   0  0  0  0  0  0  0  0  0  0  0  0
   -0.2713    3.5067   -0.5026 H   0  0  0  0  0  0  0  0  0  0  0  0
   -0.8843    5.4743   -1.8749 H   0  0  0  0  0  0  0  0  0  0  0  0
   -2.9928    5.5501   -3.0098 H   0  0  0  0  0  0  0  0  0  0  0  0
   -4.5985    3.6775   -2.8381 H   0  0  0  0  0  0  0  0  0  0  0  0
  1  2  1  0
  2  3  2  0
  3  4  1  0
  4  5  2  0
  5  6  1  0
  6  7  2  0
  7  8  1  0
  8  9  1  0
  9 10  1  0
 10 11  2  0
 11 12  1  0
 12 13  2  0
 13 14  1  0
 14 15  2  0
 15 16  1  0
 16 17  1  0
 17 18  1  0
 18 19  1  0
 19 20  1  0
 20 21  1  0
 21 22  2  0
 21 23  1  0
 23 24  2  0
 24 25  1  0
 25 26  1  0
 26 27  2  0
 27 28  1  0
 14 29  1  0
 29 30  2  0
 30 31  1  0
 31 32  2  0
  7  2  1  0
 15 10  1  0
 27 23  1  0
 32 13  1  0
  3 34  1  0
  4 35  1  0
  5 36  1  0
  6 37  1  0
  8 38  1  0
  8 39  1  0
 11 40  1  0
 12 41  1  0
 16 42  1  0
 16 43  1  0
 17 44  1  0
 18 45  1  0
 18 46  1  0
 19 47  1  0
 19 48  1  0
 20 49  1  0
 26 50  1  0
 28 51  1  0
 28 52  1  0
 29 53  1  0
 30 54  1  0
 31 55  1  0
 32 56  1  0
M  CHG  2  26   1  33  -1
M  END
>  <Ligand ID>  (1) 
LIG0002744

>  <Ligand>  (1) 
MolPort-000-796-374

>  <SMILES>  (1) 
Fc1ccccc1COc1ccc2c(c1CNCCNC(=O)c1no[nH+]c1N)cccc2.[Cl-]

>  <CID>  (1) 
135931853.0

>  <ChEMBL ID>  (1) 
nan

>  <InChiKey>  (1) 
JHFODTNVZWOCMX-UHFFFAOYSA-N

>  <InChi>  (1) 
InChI=1S/C23H22FN5O3.ClH/c24-19-8-4-2-6-16(19)14-31-20-10-9-15-5-1-3-7-17(15)18(20)13-26-11-12-27-23(30)21-22(25)29-32-28-21;/h1-10,26H,11-14H2,(H2,25,29)(H,27,30);1H

>  <IUPAC Name>  (1) 
4-amino-N-[2-[[2-[(2-fluorophenyl)methoxy]naphthalen-1-yl]methylamino]ethyl]-1,2,5-oxadiazol-5-ium-3-carboxamide;chloride

$$$$
