
     RDKit          3D

 67 73  0  0  0  0  0  0  0  0999 V2000
   -6.6503   -4.0244    0.5527 C   0  0  0  0  0  0  0  0  0  0  0  0
   -5.4148   -3.5295    1.0555 O   0  0  0  0  0  0  0  0  0  0  0  0
   -4.6194   -2.6801    0.2784 C   0  0  0  0  0  0  0  0  0  0  0  0
   -5.0061   -2.2815   -0.9982 C   0  0  0  0  0  0  0  0  0  0  0  0
   -4.2275   -1.4370   -1.7853 C   0  0  0  0  0  0  0  0  0  0  0  0
   -3.0100   -0.9745   -1.2657 C   0  0  0  0  0  0  0  0  0  0  0  0
   -2.6987   -1.3982   -0.0241 C   0  0  0  0  0  0  0  0  0  0  0  0
   -3.4287   -2.2233    0.7762 C   0  0  0  0  0  0  0  0  0  0  0  0
   -2.6880   -2.3785    1.9643 O   0  0  0  0  0  0  0  0  0  0  0  0
   -1.3016   -2.0815    1.6278 C   0  0  2  0  0  0  0  0  0  0  0  0
   -1.4520   -0.9566    0.6353 C   0  0  2  0  0  0  0  0  0  0  0  0
   -1.6588    0.3302    1.3195 C   0  0  0  0  0  0  0  0  0  0  0  0
   -1.4866    1.5847    0.5585 C   0  0  0  0  0  0  0  0  0  0  0  0
   -0.8302    1.5294   -0.6731 N   0  0  0  0  0  0  0  0  0  0  0  0
   -0.8022    0.2278   -1.3388 C   0  0  2  0  0  0  0  0  0  0  0  0
   -2.0809   -0.1158   -1.9977 C   0  0  0  0  0  0  0  0  0  0  0  0
   -0.3318   -0.8194   -0.3649 C   0  0  2  0  0  0  0  0  0  0  0  0
   -0.1348   -2.1140   -1.0911 C   0  0  0  0  0  0  0  0  0  0  0  0
    0.2702   -3.1414   -0.0534 C   0  0  0  0  0  0  0  0  0  0  0  0
   -0.7505   -3.3016    1.0242 C   0  0  0  0  0  0  0  0  0  0  0  0
   -1.1221   -4.4217    1.3989 O   0  0  0  0  0  0  0  0  0  0  0  0
    0.7812   -0.4245    0.3888 O   0  0  0  0  0  0  0  0  0  0  0  0
    2.0318   -0.1756   -0.1468 C   0  0  0  0  0  0  0  0  0  0  0  0
    2.1520   -0.3190   -1.3912 O   0  0  0  0  0  0  0  0  0  0  0  0
    3.1896    0.2346    0.6331 C   0  0  0  0  0  0  0  0  0  0  0  0
    4.3196    0.4412   -0.0040 C   0  0  0  0  0  0  0  0  0  0  0  0
    5.5638    0.8535    0.6273 C   0  0  0  0  0  0  0  0  0  0  0  0
    6.7257    1.0592   -0.1263 C   0  0  0  0  0  0  0  0  0  0  0  0
    7.9144    1.4478    0.4367 C   0  0  0  0  0  0  0  0  0  0  0  0
    7.9967    1.6538    1.8176 C   0  0  0  0  0  0  0  0  0  0  0  0
    6.8668    1.4577    2.5810 C   0  0  0  0  0  0  0  0  0  0  0  0
    5.6973    1.0697    1.9832 C   0  0  0  0  0  0  0  0  0  0  0  0
   -1.0026    2.5427   -1.6286 C   0  0  0  0  0  0  0  0  0  0  0  0
   -0.4264    3.8907   -1.3667 C   0  0  0  0  0  0  0  0  0  0  0  0
   -0.8143    4.7314   -0.1820 C   0  0  0  0  0  0  0  0  0  0  0  0
    0.5251    4.1633   -0.2691 C   0  0  0  0  0  0  0  0  0  0  0  0
   -7.3897   -3.2130    0.6028 H   0  0  0  0  0  0  0  0  0  0  0  0
   -6.9583   -4.9450    1.1116 H   0  0  0  0  0  0  0  0  0  0  0  0
   -6.4448   -4.3683   -0.5027 H   0  0  0  0  0  0  0  0  0  0  0  0
   -5.9519   -2.6259   -1.4273 H   0  0  0  0  0  0  0  0  0  0  0  0
   -4.5187   -1.1229   -2.7752 H   0  0  0  0  0  0  0  0  0  0  0  0
   -0.7885   -1.7139    2.5213 H   0  0  0  0  0  0  0  0  0  0  0  0
   -1.0566    0.3000    2.2824 H   0  0  0  0  0  0  0  0  0  0  0  0
   -2.7205    0.3133    1.7226 H   0  0  0  0  0  0  0  0  0  0  0  0
   -2.4850    2.1028    0.4170 H   0  0  0  0  0  0  0  0  0  0  0  0
   -0.9634    2.2807    1.2807 H   0  0  0  0  0  0  0  0  0  0  0  0
   -0.0596    0.3680   -2.1591 H   0  0  0  0  0  0  0  0  0  0  0  0
   -2.6702    0.7568   -2.3453 H   0  0  0  0  0  0  0  0  0  0  0  0
   -1.8494   -0.6717   -2.9576 H   0  0  0  0  0  0  0  0  0  0  0  0
   -1.0778   -2.4661   -1.5292 H   0  0  0  0  0  0  0  0  0  0  0  0
    0.6688   -2.0581   -1.8331 H   0  0  0  0  0  0  0  0  0  0  0  0
    1.1699   -2.7362    0.4535 H   0  0  0  0  0  0  0  0  0  0  0  0
    0.5793   -4.0870   -0.5212 H   0  0  0  0  0  0  0  0  0  0  0  0
    3.1489    0.3689    1.6831 H   0  0  0  0  0  0  0  0  0  0  0  0
    4.3601    0.3014   -1.0910 H   0  0  0  0  0  0  0  0  0  0  0  0
    6.6933    0.9070   -1.2072 H   0  0  0  0  0  0  0  0  0  0  0  0
    8.7666    1.5874   -0.2084 H   0  0  0  0  0  0  0  0  0  0  0  0
    8.9467    1.9553    2.1961 H   0  0  0  0  0  0  0  0  0  0  0  0
    6.9189    1.6152    3.6621 H   0  0  0  0  0  0  0  0  0  0  0  0
    4.8393    0.9313    2.6445 H   0  0  0  0  0  0  0  0  0  0  0  0
   -2.0986    2.6413   -1.9223 H   0  0  0  0  0  0  0  0  0  0  0  0
   -0.5407    2.2105   -2.6099 H   0  0  0  0  0  0  0  0  0  0  0  0
   -0.3078    4.5328   -2.2941 H   0  0  0  0  0  0  0  0  0  0  0  0
   -1.6718    4.3424    0.3640 H   0  0  0  0  0  0  0  0  0  0  0  0
   -0.9122    5.8558   -0.3021 H   0  0  0  0  0  0  0  0  0  0  0  0
    1.3545    4.8999   -0.4999 H   0  0  0  0  0  0  0  0  0  0  0  0
    0.9231    3.3176    0.2917 H   0  0  0  0  0  0  0  0  0  0  0  0
  1  2  1  0
  2  3  1  0
  3  4  2  0
  4  5  1  0
  5  6  2  0
  6  7  1  0
  7  8  2  0
  8  9  1  0
  9 10  1  0
 10 11  1  0
 11 12  1  1
 12 13  1  0
 13 14  1  0
 14 15  1  0
 15 16  1  0
 15 17  1  0
 17 18  1  0
 18 19  1  0
 19 20  1  0
 20 21  2  0
 17 22  1  1
 22 23  1  0
 23 24  2  0
 23 25  1  0
 25 26  2  0
 26 27  1  0
 27 28  2  0
 28 29  1  0
 29 30  2  0
 30 31  1  0
 31 32  2  0
 14 33  1  0
 33 34  1  0
 34 35  1  0
 35 36  1  0
  8  3  1  0
 20 10  1  0
 32 27  1  0
 36 34  1  0
 16  6  1  0
 11  7  1  0
 17 11  1  0
  1 37  1  0
  1 38  1  0
  1 39  1  0
  4 40  1  0
  5 41  1  0
 10 42  1  1
 12 43  1  0
 12 44  1  0
 13 45  1  0
 13 46  1  0
 15 47  1  6
 16 48  1  0
 16 49  1  0
 18 50  1  0
 18 51  1  0
 19 52  1  0
 19 53  1  0
 25 54  1  0
 26 55  1  0
 28 56  1  0
 29 57  1  0
 30 58  1  0
 31 59  1  0
 32 60  1  0
 33 61  1  0
 33 62  1  0
 34 63  1  0
 35 64  1  0
 35 65  1  0
 36 66  1  0
 36 67  1  0
M  END
>  <Ligand ID>  (1) 
LIG0004767

>  <Ligand>  (1) 
CHEMBL474755

>  <SMILES>  (1) 
COc1ccc2c3c1O[C@@H]1[C@@]43CCN([C@H](C2)[C@@]4(CCC1=O)OC(=O)/C=C/c1ccccc1)CC1CC1

>  <CID>  (1) 
25257431.0

>  <ChEMBL ID>  (1) 
nan

>  <InChiKey>  (1) 
WGDLNMCFJZEUHA-ATTGEPADSA-N

>  <InChi>  (1) 
InChI=1S/C30H31NO5/c1-34-23-11-10-21-17-24-30(36-25(33)12-9-19-5-3-2-4-6-19)14-13-22(32)28-29(30,26(21)27(23)35-28)15-16-31(24)18-20-7-8-20/h2-6,9-12,20,24,28H,7-8,13-18H2,1H3/b12-9+/t24-,28+,29+,30-/m1/s1

>  <IUPAC Name>  (1) 
[(4R,4aS,7aR,12bS)-3-(cyclopropylmethyl)-9-methoxy-7-oxo-2,4,5,6,7a,13-hexahydro-1H-4,12-methanobenzofuro[3,2-e]isoquinolin-4a-yl] (E)-3-phenylprop-2-enoate

$$$$
