
     RDKit          3D

 63 64  0  0  0  0  0  0  0  0999 V2000
   -9.1408   -0.0438    1.5023 C   0  0  0  0  0  0  0  0  0  0  0  0
   -8.4578    1.2806    1.6575 C   0  0  0  0  0  0  0  0  0  0  0  0
   -6.9766    1.1864    1.2847 C   0  0  0  0  0  0  0  0  0  0  0  0
   -6.8013    0.7490   -0.1360 C   0  0  0  0  0  0  0  0  0  0  0  0
   -5.3495    0.6399   -0.5558 C   0  0  0  0  0  0  0  0  0  0  0  0
   -4.5891   -0.3448    0.2707 C   0  0  0  0  0  0  0  0  0  0  0  0
   -3.1348   -0.4783   -0.1224 C   0  0  0  0  0  0  0  0  0  0  0  0
   -2.3996    0.8389    0.0118 C   0  0  0  0  0  0  0  0  0  0  0  0
   -0.9807    0.5592   -0.4076 C   0  0  0  0  0  0  0  0  0  0  0  0
   -0.5804    0.6941   -1.7234 C   0  0  0  0  0  0  0  0  0  0  0  0
    0.7309    0.4322   -2.0924 C   0  0  0  0  0  0  0  0  0  0  0  0
    1.6729    0.0272   -1.1427 C   0  0  0  0  0  0  0  0  0  0  0  0
    1.2811   -0.1097    0.1725 C   0  0  0  0  0  0  0  0  0  0  0  0
   -0.0282    0.1563    0.5159 C   0  0  0  0  0  0  0  0  0  0  0  0
    2.2053   -0.5344    1.2576 C   0  0  0  0  0  0  0  0  0  0  0  0
    3.6103   -0.2126    0.7953 C   0  0  0  0  0  0  0  0  0  0  0  0
    3.8002   -0.9743   -0.4963 C   0  0  1  0  0  0  0  0  0  0  0  0
    3.0557   -0.2402   -1.5809 C   0  0  0  0  0  0  0  0  0  0  0  0
    5.2447   -1.1739   -0.7888 C   0  0  2  0  0  0  0  0  0  0  0  0
    6.0447    0.0760   -0.9394 C   0  0  0  0  0  0  0  0  0  0  0  0
    5.9167    0.8910    0.1742 O   0  0  0  0  0  0  0  0  0  0  0  0
    6.8216    2.3132    0.0125 P   0  0  0  0  0  0  0  0  0  0  0  0
    6.2757    3.1787   -1.0794 O   0  0  0  0  0  0  0  0  0  0  0  0
    6.7107    3.1455    1.4805 O   0  0  0  0  0  0  0  0  0  0  0  0
    8.4599    1.9989   -0.2512 O   0  0  0  0  0  0  0  0  0  0  0  0
    5.3795   -2.0267   -1.9559 N   0  0  0  0  0  0  0  0  0  0  0  0
    5.8330   -1.9503    0.3784 C   0  0  0  0  0  0  0  0  0  0  0  0
   -9.8168    0.0083    0.6014 H   0  0  0  0  0  0  0  0  0  0  0  0
   -8.4223   -0.8637    1.2962 H   0  0  0  0  0  0  0  0  0  0  0  0
   -9.7038   -0.3039    2.4090 H   0  0  0  0  0  0  0  0  0  0  0  0
   -8.4972    1.5725    2.7213 H   0  0  0  0  0  0  0  0  0  0  0  0
   -8.9553    2.0998    1.0845 H   0  0  0  0  0  0  0  0  0  0  0  0
   -6.5721    2.2024    1.4394 H   0  0  0  0  0  0  0  0  0  0  0  0
   -6.4965    0.5381    2.0189 H   0  0  0  0  0  0  0  0  0  0  0  0
   -7.2779    1.4705   -0.8051 H   0  0  0  0  0  0  0  0  0  0  0  0
   -7.2761   -0.2418   -0.2893 H   0  0  0  0  0  0  0  0  0  0  0  0
   -4.8943    1.6390   -0.3981 H   0  0  0  0  0  0  0  0  0  0  0  0
   -5.3456    0.3055   -1.6083 H   0  0  0  0  0  0  0  0  0  0  0  0
   -4.5958   -0.0293    1.3496 H   0  0  0  0  0  0  0  0  0  0  0  0
   -5.0572   -1.3419    0.1479 H   0  0  0  0  0  0  0  0  0  0  0  0
   -3.0889   -0.9022   -1.1274 H   0  0  0  0  0  0  0  0  0  0  0  0
   -2.6884   -1.2082    0.5827 H   0  0  0  0  0  0  0  0  0  0  0  0
   -2.8536    1.6439   -0.5624 H   0  0  0  0  0  0  0  0  0  0  0  0
   -2.3425    1.0551    1.0989 H   0  0  0  0  0  0  0  0  0  0  0  0
   -1.3306    1.0095   -2.4400 H   0  0  0  0  0  0  0  0  0  0  0  0
    1.0249    0.5422   -3.1200 H   0  0  0  0  0  0  0  0  0  0  0  0
   -0.3387    0.0510    1.5406 H   0  0  0  0  0  0  0  0  0  0  0  0
    1.9638   -0.0226    2.2148 H   0  0  0  0  0  0  0  0  0  0  0  0
    2.1468   -1.6298    1.3504 H   0  0  0  0  0  0  0  0  0  0  0  0
    4.3765   -0.4505    1.5491 H   0  0  0  0  0  0  0  0  0  0  0  0
    3.5928    0.8719    0.5100 H   0  0  0  0  0  0  0  0  0  0  0  0
    3.3254   -1.9520   -0.3839 H   0  0  0  0  0  0  0  0  0  0  0  0
    3.0374   -0.8926   -2.4817 H   0  0  0  0  0  0  0  0  0  0  0  0
    3.5062    0.7106   -1.8608 H   0  0  0  0  0  0  0  0  0  0  0  0
    7.1014   -0.2182   -1.0954 H   0  0  0  0  0  0  0  0  0  0  0  0
    5.7657    0.6815   -1.8243 H   0  0  0  0  0  0  0  0  0  0  0  0
    6.8531    2.4813    2.1972 H   0  0  0  0  0  0  0  0  0  0  0  0
    8.7853    1.1909    0.2187 H   0  0  0  0  0  0  0  0  0  0  0  0
    6.3556   -2.4266   -1.9217 H   0  0  0  0  0  0  0  0  0  0  0  0
    5.1974   -1.4796   -2.8084 H   0  0  0  0  0  0  0  0  0  0  0  0
    6.5787   -2.6997    0.0639 H   0  0  0  0  0  0  0  0  0  0  0  0
    6.3045   -1.2994    1.1402 H   0  0  0  0  0  0  0  0  0  0  0  0
    5.0339   -2.5041    0.9508 H   0  0  0  0  0  0  0  0  0  0  0  0
  1  2  1  0
  2  3  1  0
  3  4  1  0
  4  5  1  0
  5  6  1  0
  6  7  1  0
  7  8  1  0
  8  9  1  0
  9 10  2  0
 10 11  1  0
 11 12  2  0
 12 13  1  0
 13 14  2  0
 13 15  1  0
 15 16  1  0
 16 17  1  0
 17 18  1  0
 17 19  1  0
 19 20  1  0
 20 21  1  0
 21 22  1  0
 22 23  2  0
 22 24  1  0
 22 25  1  0
 19 26  1  6
 19 27  1  0
 14  9  1  0
 18 12  1  0
  1 28  1  0
  1 29  1  0
  1 30  1  0
  2 31  1  0
  2 32  1  0
  3 33  1  0
  3 34  1  0
  4 35  1  0
  4 36  1  0
  5 37  1  0
  5 38  1  0
  6 39  1  0
  6 40  1  0
  7 41  1  0
  7 42  1  0
  8 43  1  0
  8 44  1  0
 10 45  1  0
 11 46  1  0
 14 47  1  0
 15 48  1  0
 15 49  1  0
 16 50  1  0
 16 51  1  0
 17 52  1  1
 18 53  1  0
 18 54  1  0
 20 55  1  0
 20 56  1  0
 24 57  1  0
 25 58  1  0
 26 59  1  0
 26 60  1  0
 27 61  1  0
 27 62  1  0
 27 63  1  0
M  END
>  <Ligand ID>  (1) 
LIG0001883

>  <Ligand>  (1) 
CHEMBL1093686

>  <SMILES>  (1) 
CCCCCCCCc1ccc2c(c1)CC[C@@H](C2)[C@](COP(=O)(O)O)(N)C

>  <CID>  (1) 
46884020.0

>  <ChEMBL ID>  (1) 
nan

>  <InChiKey>  (1) 
ZOJBKIGIQRVLGZ-SFTDATJTSA-N

>  <InChi>  (1) 
InChI=1S/C21H36NO4P/c1-3-4-5-6-7-8-9-17-10-11-19-15-20(13-12-18(19)14-17)21(2,22)16-26-27(23,24)25/h10-11,14,20H,3-9,12-13,15-16,22H2,1-2H3,(H2,23,24,25)/t20-,21-/m0/s1

>  <IUPAC Name>  (1) 
[(2R)-2-amino-2-[(2S)-6-octyl-1,2,3,4-tetrahydronaphthalen-2-yl]propyl] dihydrogen phosphate

$$$$
