
     RDKit          3D

 16 15  0  0  0  0  0  0  0  0999 V2000
    3.0694    0.7810    0.3543 S   0  0  0  0  0  0  0  0  0  0  0  0
    1.7229   -0.4595    0.3394 C   0  0  0  0  0  0  0  0  0  0  0  0
    0.4790    0.2906   -0.1171 C   0  0  0  0  0  0  0  0  0  0  0  0
   -0.7175   -0.6189   -0.1755 C   0  0  0  0  0  0  0  0  0  0  0  0
   -1.9700    0.1110   -0.6293 C   0  0  0  0  0  0  0  0  0  0  0  0
   -2.3896    1.4657    0.4907 S   0  0  0  0  0  0  0  0  0  0  0  0
    4.2703    0.2028   -0.0810 H   0  0  0  0  0  0  0  0  0  0  0  0
    1.9596   -1.3031   -0.3341 H   0  0  0  0  0  0  0  0  0  0  0  0
    1.6032   -0.8217    1.3958 H   0  0  0  0  0  0  0  0  0  0  0  0
    0.7097    0.6663   -1.1350 H   0  0  0  0  0  0  0  0  0  0  0  0
    0.3568    1.1159    0.6066 H   0  0  0  0  0  0  0  0  0  0  0  0
   -0.9320   -1.0580    0.8168 H   0  0  0  0  0  0  0  0  0  0  0  0
   -0.5045   -1.4337   -0.8905 H   0  0  0  0  0  0  0  0  0  0  0  0
   -2.7959   -0.6225   -0.6459 H   0  0  0  0  0  0  0  0  0  0  0  0
   -1.8604    0.4973   -1.6651 H   0  0  0  0  0  0  0  0  0  0  0  0
   -3.0010    0.9752    1.6701 H   0  0  0  0  0  0  0  0  0  0  0  0
  1  2  1  0
  2  3  1  0
  3  4  1  0
  4  5  1  0
  5  6  1  0
  1  7  1  0
  2  8  1  0
  2  9  1  0
  3 10  1  0
  3 11  1  0
  4 12  1  0
  4 13  1  0
  5 14  1  0
  5 15  1  0
  6 16  1  0
M  END
>  <Ligand ID>  (1) 
LIG0000784

>  <Ligand>  (1) 
butane-1,4-dithiol

>  <SMILES>  (1) 
SCCCCS

>  <CID>  (1) 
79148.0

>  <ChEMBL ID>  (1) 
nan

>  <InChiKey>  (1) 
SMTOKHQOVJRXLK-UHFFFAOYSA-N

>  <InChi>  (1) 
InChI=1S/C4H10S2/c5-3-1-2-4-6/h5-6H,1-4H2

>  <IUPAC Name>  (1) 
butane-1,4-dithiol

$$$$
