
     RDKit          3D

 26 26  0  0  0  0  0  0  0  0999 V2000
   -3.0847    0.4017   -0.9957 C   0  0  0  0  0  0  0  0  0  0  0  0
   -2.1808   -0.6967   -1.0934 N   0  0  0  0  0  0  0  0  0  0  0  0
   -1.8636   -1.3640    0.1004 C   0  0  0  0  0  0  0  0  0  0  0  0
   -1.0467   -0.5682    1.0869 C   0  0  1  0  0  0  0  0  0  0  0  0
    0.2890   -0.1835    0.6103 C   0  0  0  0  0  0  0  0  0  0  0  0
    0.9306    0.8409    1.3192 C   0  0  0  0  0  0  0  0  0  0  0  0
    2.1740    1.2488    0.9437 C   0  0  0  0  0  0  0  0  0  0  0  0
    2.8387    0.6835   -0.1252 C   0  0  0  0  0  0  0  0  0  0  0  0
    2.2093   -0.3262   -0.8258 C   0  0  0  0  0  0  0  0  0  0  0  0
    0.9509   -0.7398   -0.4473 C   0  0  0  0  0  0  0  0  0  0  0  0
    2.8733   -0.8975   -1.9007 O   0  0  0  0  0  0  0  0  0  0  0  0
    4.1064    1.1065   -0.4993 O   0  0  0  0  0  0  0  0  0  0  0  0
   -1.7411    0.5994    1.4389 O   0  0  0  0  0  0  0  0  0  0  0  0
   -3.7098    0.2550   -0.0999 H   0  0  0  0  0  0  0  0  0  0  0  0
   -3.7679    0.3755   -1.8706 H   0  0  0  0  0  0  0  0  0  0  0  0
   -2.5946    1.3919   -1.0190 H   0  0  0  0  0  0  0  0  0  0  0  0
   -1.5628   -0.7300   -1.8938 H   0  0  0  0  0  0  0  0  0  0  0  0
   -2.8112   -1.6254    0.6289 H   0  0  0  0  0  0  0  0  0  0  0  0
   -1.3877   -2.3256   -0.1498 H   0  0  0  0  0  0  0  0  0  0  0  0
   -0.8932   -1.1587    2.0216 H   0  0  0  0  0  0  0  0  0  0  0  0
    0.4589    1.3142    2.1577 H   0  0  0  0  0  0  0  0  0  0  0  0
    2.6865    2.0412    1.4794 H   0  0  0  0  0  0  0  0  0  0  0  0
    0.4805   -1.5267   -0.9978 H   0  0  0  0  0  0  0  0  0  0  0  0
    3.6220   -1.5752   -1.7350 H   0  0  0  0  0  0  0  0  0  0  0  0
    4.3330    2.0829   -0.3575 H   0  0  0  0  0  0  0  0  0  0  0  0
   -1.3086    1.3759    1.0269 H   0  0  0  0  0  0  0  0  0  0  0  0
  1  2  1  0
  2  3  1  0
  3  4  1  0
  4  5  1  0
  5  6  2  0
  6  7  1  0
  7  8  2  0
  8  9  1  0
  9 10  2  0
  9 11  1  0
  8 12  1  0
  4 13  1  0
 10  5  1  0
  1 14  1  0
  1 15  1  0
  1 16  1  0
  2 17  1  0
  3 18  1  0
  3 19  1  0
  4 20  1  1
  6 21  1  0
  7 22  1  0
 10 23  1  0
 11 24  1  0
 12 25  1  0
 13 26  1  0
M  END
>  <Ligand ID>  (1) 
LIG0000993

>  <Ligand>  (1) 
(-)-adrenaline

>  <SMILES>  (1) 
CNC[C@@H](c1ccc(c(c1)O)O)O

>  <CID>  (1) 
5816.0

>  <ChEMBL ID>  (1) 
nan

>  <InChiKey>  (1) 
UCTWMZQNUQWSLP-VIFPVBQESA-N

>  <InChi>  (1) 
InChI=1S/C9H13NO3/c1-10-5-9(13)6-2-3-7(11)8(12)4-6/h2-4,9-13H,5H2,1H3/t9-/m0/s1

>  <IUPAC Name>  (1) 
4-[(1R)-1-hydroxy-2-(methylamino)ethyl]benzene-1,2-diol

$$$$
