
     RDKit          3D

 19 19  0  0  0  0  0  0  0  0999 V2000
    3.0433    0.5285    0.5638 C   0  0  0  0  0  0  0  0  0  0  0  0
    1.6505    0.1375    0.2046 C   0  0  0  0  0  0  0  0  0  0  0  0
    1.4446   -0.9990   -0.5802 C   0  0  0  0  0  0  0  0  0  0  0  0
    0.2120   -1.3600   -0.9082 N   0  0  0  0  0  0  0  0  0  0  0  0
   -0.8577   -0.6491   -0.4982 C   0  0  0  0  0  0  0  0  0  0  0  0
   -0.6787    0.4746    0.2762 C   0  0  0  0  0  0  0  0  0  0  0  0
    0.5749    0.8519    0.6166 N   0  0  0  0  0  0  0  0  0  0  0  0
   -1.8413    1.2636    0.7329 C   0  0  0  0  0  0  0  0  0  0  0  0
   -2.1976   -1.1239   -0.9106 C   0  0  0  0  0  0  0  0  0  0  0  0
    3.1380    1.6155    0.5524 H   0  0  0  0  0  0  0  0  0  0  0  0
    3.3094    0.0389    1.5273 H   0  0  0  0  0  0  0  0  0  0  0  0
    3.7446    0.1211   -0.1987 H   0  0  0  0  0  0  0  0  0  0  0  0
    2.3028   -1.5521   -0.8974 H   0  0  0  0  0  0  0  0  0  0  0  0
   -2.7361    0.6678    0.9757 H   0  0  0  0  0  0  0  0  0  0  0  0
   -1.5336    1.7821    1.6647 H   0  0  0  0  0  0  0  0  0  0  0  0
   -2.0558    2.0798   -0.0167 H   0  0  0  0  0  0  0  0  0  0  0  0
   -2.3873   -2.0579   -0.3196 H   0  0  0  0  0  0  0  0  0  0  0  0
   -2.9928   -0.3880   -0.8097 H   0  0  0  0  0  0  0  0  0  0  0  0
   -2.1392   -1.4312   -1.9749 H   0  0  0  0  0  0  0  0  0  0  0  0
  1  2  1  0
  2  3  2  0
  3  4  1  0
  4  5  2  0
  5  6  1  0
  6  7  2  0
  6  8  1  0
  5  9  1  0
  7  2  1  0
  1 10  1  0
  1 11  1  0
  1 12  1  0
  3 13  1  0
  8 14  1  0
  8 15  1  0
  8 16  1  0
  9 17  1  0
  9 18  1  0
  9 19  1  0
M  END
>  <Ligand ID>  (1) 
LIG0000004

>  <Ligand>  (1) 
2,3,5-Trimethylpyrazine

>  <SMILES>  (1) 
Cc1cnc(c(n1)C)C

>  <CID>  (1) 
26808.0

>  <ChEMBL ID>  (1) 
nan

>  <InChiKey>  (1) 
IAEGWXHKWJGQAZ-UHFFFAOYSA-N

>  <InChi>  (1) 
InChI=1S/C7H10N2/c1-5-4-8-6(2)7(3)9-5/h4H,1-3H3

>  <IUPAC Name>  (1) 
2,3,5-trimethylpyrazine

$$$$
