
     RDKit          3D

 35 37  0  0  0  0  0  0  0  0999 V2000
    4.4690   -1.6631   -0.1522 C   0  0  0  0  0  0  0  0  0  0  0  0
    3.2089   -0.8723   -0.0643 C   0  0  0  0  0  0  0  0  0  0  0  0
    1.9831   -1.4809   -0.2393 C   0  0  0  0  0  0  0  0  0  0  0  0
    0.8091   -0.7467   -0.1579 C   0  0  0  0  0  0  0  0  0  0  0  0
   -0.4646   -1.4648   -0.3561 C   0  0  0  0  0  0  0  0  0  0  0  0
   -1.6036   -0.7803    0.3377 C   0  0  2  0  0  0  0  0  0  0  0  0
   -2.9013   -1.4612    0.0763 C   0  0  0  0  0  0  0  0  0  0  0  0
   -3.9855   -0.5632    0.4244 N   0  0  0  0  0  0  0  0  0  0  0  0
   -4.0293    0.6002   -0.4041 C   0  0  0  0  0  0  0  0  0  0  0  0
   -2.7372    1.3246   -0.5543 C   0  0  0  0  0  0  0  0  0  0  0  0
   -1.5986    0.6135   -0.0180 N   0  0  0  0  0  0  0  0  0  0  0  0
   -0.3783    1.3322    0.1774 C   0  0  0  0  0  0  0  0  0  0  0  0
   -0.3907    2.5808    0.4129 O   0  0  0  0  0  0  0  0  0  0  0  0
    0.8953    0.6091    0.1028 C   0  0  0  0  0  0  0  0  0  0  0  0
    2.1086    1.2417    0.2817 C   0  0  0  0  0  0  0  0  0  0  0  0
    3.2478    0.4711    0.1917 C   0  0  0  0  0  0  0  0  0  0  0  0
    2.1438    2.7034    0.5599 C   0  0  0  0  0  0  0  0  0  0  0  0
    5.2656   -1.2918    0.5163 H   0  0  0  0  0  0  0  0  0  0  0  0
    4.2285   -2.7307    0.0170 H   0  0  0  0  0  0  0  0  0  0  0  0
    4.8372   -1.5546   -1.2064 H   0  0  0  0  0  0  0  0  0  0  0  0
    1.9323   -2.5364   -0.4415 H   0  0  0  0  0  0  0  0  0  0  0  0
   -0.4006   -2.5220   -0.0244 H   0  0  0  0  0  0  0  0  0  0  0  0
   -0.6990   -1.4638   -1.4546 H   0  0  0  0  0  0  0  0  0  0  0  0
   -1.3925   -0.8823    1.4426 H   0  0  0  0  0  0  0  0  0  0  0  0
   -2.9943   -1.8902   -0.9276 H   0  0  0  0  0  0  0  0  0  0  0  0
   -3.0033   -2.3265    0.7875 H   0  0  0  0  0  0  0  0  0  0  0  0
   -4.9028   -1.0326    0.3833 H   0  0  0  0  0  0  0  0  0  0  0  0
   -4.4954    0.3591   -1.4040 H   0  0  0  0  0  0  0  0  0  0  0  0
   -4.7663    1.3023    0.0742 H   0  0  0  0  0  0  0  0  0  0  0  0
   -2.7500    2.3067   -0.0037 H   0  0  0  0  0  0  0  0  0  0  0  0
   -2.4997    1.5847   -1.6100 H   0  0  0  0  0  0  0  0  0  0  0  0
    4.2197    0.9586    0.3314 H   0  0  0  0  0  0  0  0  0  0  0  0
    1.6704    2.9486    1.5142 H   0  0  0  0  0  0  0  0  0  0  0  0
    1.7501    3.3131   -0.2989 H   0  0  0  0  0  0  0  0  0  0  0  0
    3.2234    3.0137    0.6411 H   0  0  0  0  0  0  0  0  0  0  0  0
  1  2  1  0
  2  3  2  0
  3  4  1  0
  4  5  1  0
  5  6  1  0
  6  7  1  0
  7  8  1  0
  8  9  1  0
  9 10  1  0
 10 11  1  0
 11 12  1  0
 12 13  2  0
 12 14  1  0
 14 15  1  0
 15 16  2  0
 15 17  1  0
 16  2  1  0
 14  4  2  0
 11  6  1  0
  1 18  1  0
  1 19  1  0
  1 20  1  0
  3 21  1  0
  5 22  1  0
  5 23  1  0
  6 24  1  1
  7 25  1  0
  7 26  1  0
  8 27  1  0
  9 28  1  0
  9 29  1  0
 10 30  1  0
 10 31  1  0
 16 32  1  0
 17 33  1  0
 17 34  1  0
 17 35  1  0
M  END
>  <Ligand ID>  (1) 
LIG0003742

>  <Ligand>  (1) 
SCHEMBL3561114

>  <SMILES>  (1) 
Cc1cc2C[C@@H]3CNCCN3C(=O)c2c(c1)C

>  <CID>  (1) 
24826963.0

>  <ChEMBL ID>  (1) 
nan

>  <InChiKey>  (1) 
VXTVXKNGQJWYSP-GFCCVEGCSA-N

>  <InChi>  (1) 
InChI=1S/C14H18N2O/c1-9-5-10(2)13-11(6-9)7-12-8-15-3-4-16(12)14(13)17/h5-6,12,15H,3-4,7-8H2,1-2H3/t12-/m1/s1

>  <IUPAC Name>  (1) 
(11aR)-7,9-dimethyl-1,2,3,4,11,11a-hexahydropyrazino[1,2-b]isoquinolin-6-one

$$$$
