
     RDKit          3D

 65 67  0  0  0  0  0  0  0  0999 V2000
   -0.9710   -0.0090    2.4070 C   0  0  0  0  0  0  0  0  0  0  0  0
   -1.8102    0.2276    1.1945 C   0  0  0  0  0  0  0  0  0  0  0  0
   -1.2416    0.8150    0.0836 C   0  0  0  0  0  0  0  0  0  0  0  0
    0.0809    1.1593    0.1414 O   0  0  0  0  0  0  0  0  0  0  0  0
    0.8427    1.7584   -0.8613 C   0  0  0  0  0  0  0  0  0  0  0  0
    2.2607    1.9439   -0.3244 C   0  0  0  0  0  0  0  0  0  0  0  0
    2.9025    0.6434    0.0604 C   0  0  0  0  0  0  0  0  0  0  0  0
    4.3039    0.8279    0.5912 C   0  0  0  0  0  0  0  0  0  0  0  0
    5.1770    1.4101   -0.2881 O   0  0  0  0  0  0  0  0  0  0  0  0
    5.3620    0.7212   -1.4583 C   0  0  0  0  0  0  0  0  0  0  0  0
    5.8728   -0.5883   -1.2820 O   0  0  0  0  0  0  0  0  0  0  0  0
    7.0966   -0.7654   -0.6665 C   0  0  0  0  0  0  0  0  0  0  0  0
    7.5696   -2.0655   -0.5091 C   0  0  0  0  0  0  0  0  0  0  0  0
    8.7811   -2.3396    0.0938 C   0  0  0  0  0  0  0  0  0  0  0  0
    9.5710   -1.2920    0.5670 C   0  0  0  0  0  0  0  0  0  0  0  0
    9.1008   -0.0121    0.4096 C   0  0  0  0  0  0  0  0  0  0  0  0
    7.8778    0.2725   -0.1984 C   0  0  0  0  0  0  0  0  0  0  0  0
   10.8543   -1.5457    1.2079 C   0  0  0  0  0  0  0  0  0  0  0  0
   11.5910   -0.6129    1.6461 O   0  0  0  0  0  0  0  0  0  0  0  0
   11.3208   -2.8342    1.3630 O   0  0  0  0  0  0  0  0  0  0  0  0
   -2.0566    1.0135   -1.0135 C   0  0  0  0  0  0  0  0  0  0  0  0
   -3.4003    0.6296   -0.9839 C   0  0  0  0  0  0  0  0  0  0  0  0
   -3.9526    0.0435    0.1352 C   0  0  0  0  0  0  0  0  0  0  0  0
   -3.1303   -0.1558    1.2394 C   0  0  0  0  0  0  0  0  0  0  0  0
   -3.6382   -0.7494    2.4099 O   0  0  0  0  0  0  0  0  0  0  0  0
   -5.3574   -0.3709    0.2003 C   0  0  0  0  0  0  0  0  0  0  0  0
   -5.7355   -0.8923    1.2783 O   0  0  0  0  0  0  0  0  0  0  0  0
   -6.2137   -0.1536   -0.9757 C   0  0  0  0  0  0  0  0  0  0  0  0
   -7.6118   -0.6390   -0.7123 C   0  0  0  0  0  0  0  0  0  0  0  0
   -8.2890    0.0412    0.4328 C   0  0  0  0  0  0  0  0  0  0  0  0
   -9.7617   -0.3001    0.1884 C   0  0  0  0  0  0  0  0  0  0  0  0
   -9.9092   -0.3227   -1.2989 C   0  0  0  0  0  0  0  0  0  0  0  0
   -8.5214   -0.3403   -1.8850 C   0  0  0  0  0  0  0  0  0  0  0  0
   -1.5407    0.2422    3.3190 H   0  0  0  0  0  0  0  0  0  0  0  0
   -0.0663    0.6332    2.4079 H   0  0  0  0  0  0  0  0  0  0  0  0
   -0.6753   -1.0746    2.4541 H   0  0  0  0  0  0  0  0  0  0  0  0
    0.4442    2.8043   -0.9921 H   0  0  0  0  0  0  0  0  0  0  0  0
    0.8350    1.2761   -1.8370 H   0  0  0  0  0  0  0  0  0  0  0  0
    2.2900    2.6391    0.5180 H   0  0  0  0  0  0  0  0  0  0  0  0
    2.8123    2.4326   -1.1743 H   0  0  0  0  0  0  0  0  0  0  0  0
    2.3003    0.2123    0.8892 H   0  0  0  0  0  0  0  0  0  0  0  0
    2.8387   -0.0594   -0.7653 H   0  0  0  0  0  0  0  0  0  0  0  0
    4.2970    1.4124    1.5325 H   0  0  0  0  0  0  0  0  0  0  0  0
    4.7325   -0.1575    0.8631 H   0  0  0  0  0  0  0  0  0  0  0  0
    6.1755    1.2701   -2.0161 H   0  0  0  0  0  0  0  0  0  0  0  0
    4.4924    0.7466   -2.1279 H   0  0  0  0  0  0  0  0  0  0  0  0
    6.9612   -2.8822   -0.8742 H   0  0  0  0  0  0  0  0  0  0  0  0
    9.1140   -3.3803    0.1964 H   0  0  0  0  0  0  0  0  0  0  0  0
    9.7426    0.7955    0.7912 H   0  0  0  0  0  0  0  0  0  0  0  0
    7.5298    1.2911   -0.3101 H   0  0  0  0  0  0  0  0  0  0  0  0
   11.8679   -3.0830    2.1766 H   0  0  0  0  0  0  0  0  0  0  0  0
   -1.6308    1.4732   -1.8967 H   0  0  0  0  0  0  0  0  0  0  0  0
   -4.0488    0.7840   -1.8478 H   0  0  0  0  0  0  0  0  0  0  0  0
   -3.6853   -0.1621    3.2388 H   0  0  0  0  0  0  0  0  0  0  0  0
   -5.8237   -0.8057   -1.8096 H   0  0  0  0  0  0  0  0  0  0  0  0
   -6.2233    0.8975   -1.3486 H   0  0  0  0  0  0  0  0  0  0  0  0
   -7.5558   -1.7276   -0.4975 H   0  0  0  0  0  0  0  0  0  0  0  0
   -8.2346    1.1582    0.3151 H   0  0  0  0  0  0  0  0  0  0  0  0
   -7.9867   -0.2957    1.4234 H   0  0  0  0  0  0  0  0  0  0  0  0
  -10.4099    0.4609    0.6962 H   0  0  0  0  0  0  0  0  0  0  0  0
   -9.9799   -1.2910    0.6686 H   0  0  0  0  0  0  0  0  0  0  0  0
  -10.3815   -1.2877   -1.5837 H   0  0  0  0  0  0  0  0  0  0  0  0
  -10.5184    0.5522   -1.6231 H   0  0  0  0  0  0  0  0  0  0  0  0
   -8.3966   -1.0837   -2.6975 H   0  0  0  0  0  0  0  0  0  0  0  0
   -8.2408    0.6908   -2.2480 H   0  0  0  0  0  0  0  0  0  0  0  0
  1  2  1  0
  2  3  2  0
  3  4  1  0
  4  5  1  0
  5  6  1  0
  6  7  1  0
  7  8  1  0
  8  9  1  0
  9 10  1  0
 10 11  1  0
 11 12  1  0
 12 13  2  0
 13 14  1  0
 14 15  2  0
 15 16  1  0
 16 17  2  0
 15 18  1  0
 18 19  2  0
 18 20  1  0
  3 21  1  0
 21 22  2  0
 22 23  1  0
 23 24  2  0
 24 25  1  0
 23 26  1  0
 26 27  2  0
 26 28  1  0
 28 29  1  0
 29 30  1  0
 30 31  1  0
 31 32  1  0
 32 33  1  0
 24  2  1  0
 33 29  1  0
 17 12  1  0
  1 34  1  0
  1 35  1  0
  1 36  1  0
  5 37  1  0
  5 38  1  0
  6 39  1  0
  6 40  1  0
  7 41  1  0
  7 42  1  0
  8 43  1  0
  8 44  1  0
 10 45  1  0
 10 46  1  0
 13 47  1  0
 14 48  1  0
 16 49  1  0
 17 50  1  0
 20 51  1  0
 21 52  1  0
 22 53  1  0
 25 54  1  0
 28 55  1  0
 28 56  1  0
 29 57  1  0
 30 58  1  0
 30 59  1  0
 31 60  1  0
 31 61  1  0
 32 62  1  0
 32 63  1  0
 33 64  1  0
 33 65  1  0
M  END
>  <Ligand ID>  (1) 
LIG0003654

>  <Ligand>  (1) 
CHEMBL3287696

>  <SMILES>  (1) 
Cc1c(OCCCCOCOc2ccc(cc2)C(=O)O)ccc(c1O)C(=O)CC1CCCC1

>  <CID>  (1) 
90643873.0

>  <ChEMBL ID>  (1) 
nan

>  <InChiKey>  (1) 
WIKSLWGWAGNVMC-UHFFFAOYSA-N

>  <InChi>  (1) 
InChI=1S/C26H32O7/c1-18-24(13-12-22(25(18)28)23(27)16-19-6-2-3-7-19)32-15-5-4-14-31-17-33-21-10-8-20(9-11-21)26(29)30/h8-13,19,28H,2-7,14-17H2,1H3,(H,29,30)

>  <IUPAC Name>  (1) 
4-[4-[4-(2-cyclopentylacetyl)-3-hydroxy-2-methylphenoxy]butoxymethoxy]benzoic acid

$$$$
