
     RDKit          3D

 52 56  0  0  0  0  0  0  0  0999 V2000
   -5.2497    5.1363   -0.8874 Cl  0  0  0  0  0  0  0  0  0  0  0  0
   -4.8813    3.4433   -0.6074 C   0  0  0  0  0  0  0  0  0  0  0  0
   -4.4185    3.0058    0.6160 C   0  0  0  0  0  0  0  0  0  0  0  0
   -4.1524    1.6894    0.7991 C   0  0  0  0  0  0  0  0  0  0  0  0
   -4.3301    0.7181   -0.2116 C   0  0  0  0  0  0  0  0  0  0  0  0
   -4.7745    1.1305   -1.4063 C   0  0  0  0  0  0  0  0  0  0  0  0
   -5.0467    2.4793   -1.6022 C   0  0  0  0  0  0  0  0  0  0  0  0
   -4.0471   -0.6736    0.2412 C   0  0  0  0  0  0  0  0  0  0  0  0
   -5.2826   -1.4748    0.6150 C   0  0  0  0  0  0  0  0  0  0  0  0
   -4.4807   -1.7971   -0.6211 C   0  0  0  0  0  0  0  0  0  0  0  0
   -2.7946   -0.8227    0.9989 C   0  0  0  0  0  0  0  0  0  0  0  0
   -2.9114   -1.3404    2.1722 O   0  0  0  0  0  0  0  0  0  0  0  0
   -1.4971   -0.4824    0.6247 N   0  0  0  0  0  0  0  0  0  0  0  0
   -0.4336   -0.3971    1.6203 C   0  0  0  0  0  0  0  0  0  0  0  0
    0.3170   -1.6972    1.4787 C   0  0  0  0  0  0  0  0  0  0  0  0
    0.8707   -1.8319    0.0994 C   0  0  0  0  0  0  0  0  0  0  0  0
    0.3339   -0.9534   -0.9681 C   0  0  0  0  0  0  0  0  0  0  0  0
   -1.0419   -0.3432   -0.7661 C   0  0  0  0  0  0  0  0  0  0  0  0
    2.3277   -1.6068    0.1967 N   0  0  0  0  0  0  0  0  0  0  0  0
    2.9832   -0.5403   -0.1644 N   0  0  0  0  0  0  0  0  0  0  0  0
    4.2729   -0.7336    0.0786 C   0  0  0  0  0  0  0  0  0  0  0  0
    4.4074   -1.9143    0.5908 O   0  0  0  0  0  0  0  0  0  0  0  0
    3.2334   -2.5084    0.6873 C   0  0  0  0  0  0  0  0  0  0  0  0
    3.0132   -3.6559    1.1322 O   0  0  0  0  0  0  0  0  0  0  0  0
    5.4061    0.1677   -0.1478 C   0  0  0  0  0  0  0  0  0  0  0  0
    6.7017   -0.1265    0.2132 C   0  0  0  0  0  0  0  0  0  0  0  0
    7.7391    0.7332   -0.0222 C   0  0  0  0  0  0  0  0  0  0  0  0
    7.5292    1.9502   -0.6419 C   0  0  0  0  0  0  0  0  0  0  0  0
    6.2296    2.2740   -1.0208 C   0  0  0  0  0  0  0  0  0  0  0  0
    5.1831    1.3838   -0.7724 C   0  0  0  0  0  0  0  0  0  0  0  0
   -4.2867    3.6983    1.4012 H   0  0  0  0  0  0  0  0  0  0  0  0
   -3.7849    1.3779    1.7931 H   0  0  0  0  0  0  0  0  0  0  0  0
   -4.9140    0.4340   -2.1980 H   0  0  0  0  0  0  0  0  0  0  0  0
   -5.4174    2.8391   -2.5690 H   0  0  0  0  0  0  0  0  0  0  0  0
   -5.1798   -2.1258    1.5083 H   0  0  0  0  0  0  0  0  0  0  0  0
   -6.2833   -1.0663    0.4570 H   0  0  0  0  0  0  0  0  0  0  0  0
   -5.0000   -1.6264   -1.5768 H   0  0  0  0  0  0  0  0  0  0  0  0
   -3.8867   -2.7325   -0.5518 H   0  0  0  0  0  0  0  0  0  0  0  0
    0.2091    0.4543    1.2558 H   0  0  0  0  0  0  0  0  0  0  0  0
   -0.8205   -0.1946    2.6226 H   0  0  0  0  0  0  0  0  0  0  0  0
   -0.4325   -2.5448    1.6393 H   0  0  0  0  0  0  0  0  0  0  0  0
    1.0892   -1.7751    2.2798 H   0  0  0  0  0  0  0  0  0  0  0  0
    0.8241   -2.9129   -0.2373 H   0  0  0  0  0  0  0  0  0  0  0  0
    0.2598   -1.5721   -1.9252 H   0  0  0  0  0  0  0  0  0  0  0  0
    1.0580   -0.1454   -1.2653 H   0  0  0  0  0  0  0  0  0  0  0  0
   -1.0112    0.7132   -1.0131 H   0  0  0  0  0  0  0  0  0  0  0  0
   -1.7786   -0.8603   -1.4426 H   0  0  0  0  0  0  0  0  0  0  0  0
    6.8954   -1.1006    0.7092 H   0  0  0  0  0  0  0  0  0  0  0  0
    8.7336    0.4029    0.3012 H   0  0  0  0  0  0  0  0  0  0  0  0
    8.3409    2.6089   -0.8111 H   0  0  0  0  0  0  0  0  0  0  0  0
    6.0016    3.2183   -1.5109 H   0  0  0  0  0  0  0  0  0  0  0  0
    4.1779    1.6978   -1.0956 H   0  0  0  0  0  0  0  0  0  0  0  0
  1  2  1  0
  2  3  2  0
  3  4  1  0
  4  5  2  0
  5  6  1  0
  6  7  2  0
  5  8  1  0
  8  9  1  0
  9 10  1  0
  8 11  1  0
 11 12  2  0
 11 13  1  0
 13 14  1  0
 14 15  1  0
 15 16  1  0
 16 17  1  0
 17 18  1  0
 16 19  1  0
 19 20  1  0
 20 21  2  0
 21 22  1  0
 22 23  1  0
 23 24  2  0
 21 25  1  0
 25 26  2  0
 26 27  1  0
 27 28  2  0
 28 29  1  0
 29 30  2  0
  7  2  1  0
 10  8  1  0
 18 13  1  0
 23 19  1  0
 30 25  1  0
  3 31  1  0
  4 32  1  0
  6 33  1  0
  7 34  1  0
  9 35  1  0
  9 36  1  0
 10 37  1  0
 10 38  1  0
 14 39  1  0
 14 40  1  0
 15 41  1  0
 15 42  1  0
 16 43  1  0
 17 44  1  0
 17 45  1  0
 18 46  1  0
 18 47  1  0
 26 48  1  0
 27 49  1  0
 28 50  1  0
 29 51  1  0
 30 52  1  0
M  END
>  <Ligand ID>  (1) 
LIG0003141

>  <Ligand>  (1) 
MLS001116134

>  <SMILES>  (1) 
Clc1ccc(cc1)C1(CC1)C(=O)N1CCC(CC1)n1nc(oc1=O)c1ccccc1

>  <CID>  (1) 
23612567.0

>  <ChEMBL ID>  (1) 
nan

>  <InChiKey>  (1) 
CREWBZNTQFJRTK-UHFFFAOYSA-N

>  <InChi>  (1) 
InChI=1S/C23H22ClN3O3/c24-18-8-6-17(7-9-18)23(12-13-23)21(28)26-14-10-19(11-15-26)27-22(29)30-20(25-27)16-4-2-1-3-5-16/h1-9,19H,10-15H2

>  <IUPAC Name>  (1) 
3-[1-[1-(4-chlorophenyl)cyclopropanecarbonyl]piperidin-4-yl]-5-phenyl-1,3,4-oxadiazol-2-one

$$$$
