
     RDKit          3D

 41 41  0  0  0  0  0  0  0  0999 V2000
    5.7310    1.4417    0.4158 O   0  0  0  0  0  0  0  0  0  0  0  0
    6.1768    0.2552    0.9595 C   0  0  0  0  0  0  0  0  0  0  0  0
    6.6970    0.3394    2.1238 O   0  0  0  0  0  0  0  0  0  0  0  0
    6.1055   -1.0657    0.3250 C   0  0  0  0  0  0  0  0  0  0  0  0
    5.3164   -0.9725   -1.2709 S   0  0  0  0  0  0  0  0  0  0  0  0
    3.5904   -0.5693   -1.2023 C   0  0  0  0  0  0  0  0  0  0  0  0
    2.6927   -1.6207   -1.0657 C   0  0  0  0  0  0  0  0  0  0  0  0
    1.3288   -1.3791   -1.0150 C   0  0  0  0  0  0  0  0  0  0  0  0
    0.7997   -0.1006   -1.0965 C   0  0  0  0  0  0  0  0  0  0  0  0
    1.7108    0.9456   -1.2336 C   0  0  0  0  0  0  0  0  0  0  0  0
    3.0744    0.6955   -1.2836 C   0  0  0  0  0  0  0  0  0  0  0  0
   -0.6511    0.0970   -1.0392 C   0  0  0  0  0  0  0  0  0  0  0  0
   -1.0921    0.6765    0.6180 P   0  0  0  0  0  0  0  0  0  0  0  0
    0.0662    1.4687    1.1677 O   0  0  0  0  0  0  0  0  0  0  0  0
   -2.5787    1.6973    0.4662 C   0  0  0  0  0  0  0  0  0  0  0  0
   -3.7742    0.9331    0.9034 C   0  0  0  0  0  0  0  0  0  0  0  0
   -4.0858   -0.3176    0.1578 C   0  0  1  0  0  0  0  0  0  0  0  0
   -5.3242   -0.8855    0.7948 C   0  0  0  0  0  0  0  0  0  0  0  0
   -5.4019   -1.1005    2.0313 O   0  0  0  0  0  0  0  0  0  0  0  0
   -6.4454   -1.1974    0.0241 O   0  0  0  0  0  0  0  0  0  0  0  0
   -4.3179   -0.2014   -1.2329 N   0  0  0  0  0  0  0  0  0  0  0  0
   -1.3820   -0.6452    1.6214 O   0  0  0  0  0  0  0  0  0  0  0  0
   -1.0719    1.0054   -2.0079 O   0  0  0  0  0  0  0  0  0  0  0  0
    6.2288    2.3130    0.4940 H   0  0  0  0  0  0  0  0  0  0  0  0
    7.1306   -1.4876    0.1724 H   0  0  0  0  0  0  0  0  0  0  0  0
    5.5501   -1.8050    0.9555 H   0  0  0  0  0  0  0  0  0  0  0  0
    3.0335   -2.6319   -0.9972 H   0  0  0  0  0  0  0  0  0  0  0  0
    0.6365   -2.2249   -0.9066 H   0  0  0  0  0  0  0  0  0  0  0  0
    1.3314    1.9761   -1.3009 H   0  0  0  0  0  0  0  0  0  0  0  0
    3.7228    1.5258   -1.3951 H   0  0  0  0  0  0  0  0  0  0  0  0
   -1.1502   -0.8732   -1.2894 H   0  0  0  0  0  0  0  0  0  0  0  0
   -2.4640    2.5440    1.1808 H   0  0  0  0  0  0  0  0  0  0  0  0
   -2.6468    2.1567   -0.5222 H   0  0  0  0  0  0  0  0  0  0  0  0
   -4.6773    1.5956    0.9205 H   0  0  0  0  0  0  0  0  0  0  0  0
   -3.6203    0.6318    1.9695 H   0  0  0  0  0  0  0  0  0  0  0  0
   -3.2967   -1.1060    0.3216 H   0  0  0  0  0  0  0  0  0  0  0  0
   -7.1831   -1.8074    0.3168 H   0  0  0  0  0  0  0  0  0  0  0  0
   -4.3633    0.7274   -1.6477 H   0  0  0  0  0  0  0  0  0  0  0  0
   -4.0220   -0.9862   -1.8203 H   0  0  0  0  0  0  0  0  0  0  0  0
   -1.0612   -1.4650    1.1957 H   0  0  0  0  0  0  0  0  0  0  0  0
   -0.3132    1.4171   -2.5038 H   0  0  0  0  0  0  0  0  0  0  0  0
  1  2  1  0
  2  3  2  0
  2  4  1  0
  4  5  1  0
  5  6  1  0
  6  7  2  0
  7  8  1  0
  8  9  2  0
  9 10  1  0
 10 11  2  0
  9 12  1  0
 12 13  1  0
 13 14  2  0
 13 15  1  0
 15 16  1  0
 16 17  1  0
 17 18  1  0
 18 19  2  0
 18 20  1  0
 17 21  1  0
 13 22  1  0
 12 23  1  0
 11  6  1  0
  1 24  1  0
  4 25  1  0
  4 26  1  0
  7 27  1  0
  8 28  1  0
 10 29  1  0
 11 30  1  0
 12 31  1  0
 15 32  1  0
 15 33  1  0
 16 34  1  0
 16 35  1  0
 17 36  1  6
 20 37  1  0
 21 38  1  0
 21 39  1  0
 22 40  1  0
 23 41  1  0
M  END
>  <Ligand ID>  (1) 
LIG0002537

>  <Ligand>  (1) 
CHEMBL3905370

>  <SMILES>  (1) 
OC(=O)CSc1ccc(cc1)C(P(=O)(CC[C@@H](C(=O)O)N)O)O

>  <CID>  (1) 
71042041.0

>  <ChEMBL ID>  (1) 
nan

>  <InChiKey>  (1) 
IMWRUEZSFIGPIN-NKUHCKNESA-N

>  <InChi>  (1) 
InChI=1S/C13H18NO7PS/c14-10(12(17)18)5-6-22(20,21)13(19)8-1-3-9(4-2-8)23-7-11(15)16/h1-4,10,13,19H,5-7,14H2,(H,15,16)(H,17,18)(H,20,21)/t10-,13?/m0/s1

>  <IUPAC Name>  (1) 
(2S)-2-amino-4-[[[4-(carboxymethylsulfanyl)phenyl]-hydroxymethyl]-hydroxyphosphoryl]butanoic acid

$$$$
