
     RDKit          3D

 49 49  0  0  0  0  0  0  0  0999 V2000
   -2.1963    2.3685    2.5042 C   0  0  0  0  0  0  0  0  0  0  0  0
   -3.0747    1.3817    2.0065 O   0  0  0  0  0  0  0  0  0  0  0  0
   -2.5659    0.4525    1.1160 C   0  0  0  0  0  0  0  0  0  0  0  0
   -1.2276    0.5495    0.7696 C   0  0  0  0  0  0  0  0  0  0  0  0
   -0.6550   -0.3470   -0.1094 C   0  0  0  0  0  0  0  0  0  0  0  0
   -1.4717   -1.3332   -0.6200 C   0  0  0  0  0  0  0  0  0  0  0  0
   -2.8016   -1.4258   -0.2735 C   0  0  0  0  0  0  0  0  0  0  0  0
   -3.3989   -0.5214    0.6186 C   0  0  0  0  0  0  0  0  0  0  0  0
   -4.7103   -0.6951    0.8905 O   0  0  0  0  0  0  0  0  0  0  0  0
   -5.8697   -0.3827    0.2359 C   0  0  0  0  0  0  0  0  0  0  0  0
   -6.1318    1.0244   -0.0754 C   0  0  0  0  0  0  0  0  0  0  0  0
   -7.2335    1.2739   -0.6692 O   0  0  0  0  0  0  0  0  0  0  0  0
   -5.3368    2.1008    0.1939 O   0  0  0  0  0  0  0  0  0  0  0  0
   -3.5746   -2.4476   -0.8256 O   0  0  0  0  0  0  0  0  0  0  0  0
   -2.9254   -3.3329   -1.7191 C   0  0  0  0  0  0  0  0  0  0  0  0
    0.7706   -0.2938   -0.5175 C   0  0  0  0  0  0  0  0  0  0  0  0
    1.6799    0.7508    0.6465 P   0  0  0  0  0  0  0  0  0  0  0  0
    1.4274    2.2196    0.4096 O   0  0  0  0  0  0  0  0  0  0  0  0
    3.4853    0.4998    0.4567 C   0  0  0  0  0  0  0  0  0  0  0  0
    3.8519    0.2085   -0.9803 C   0  0  0  0  0  0  0  0  0  0  0  0
    5.3418    0.0005   -1.1444 C   0  0  1  0  0  0  0  0  0  0  0  0
    6.0871    1.2270   -0.7171 C   0  0  0  0  0  0  0  0  0  0  0  0
    5.8257    2.3536   -1.2429 O   0  0  0  0  0  0  0  0  0  0  0  0
    7.0788    1.1955    0.2530 O   0  0  0  0  0  0  0  0  0  0  0  0
    5.8425   -1.1050   -0.3916 N   0  0  0  0  0  0  0  0  0  0  0  0
    1.2429    0.3268    2.2246 O   0  0  0  0  0  0  0  0  0  0  0  0
    1.3407   -1.5809   -0.4810 O   0  0  0  0  0  0  0  0  0  0  0  0
   -2.7089    3.1307    3.1165 H   0  0  0  0  0  0  0  0  0  0  0  0
   -1.3408    1.9016    3.0686 H   0  0  0  0  0  0  0  0  0  0  0  0
   -1.7253    2.9357    1.6675 H   0  0  0  0  0  0  0  0  0  0  0  0
   -0.5912    1.3156    1.1657 H   0  0  0  0  0  0  0  0  0  0  0  0
   -1.0139   -2.0449   -1.3182 H   0  0  0  0  0  0  0  0  0  0  0  0
   -6.0705   -1.0284   -0.6634 H   0  0  0  0  0  0  0  0  0  0  0  0
   -6.7222   -0.6903    0.9312 H   0  0  0  0  0  0  0  0  0  0  0  0
   -5.4071    2.9282   -0.3898 H   0  0  0  0  0  0  0  0  0  0  0  0
   -2.5090   -2.6896   -2.5476 H   0  0  0  0  0  0  0  0  0  0  0  0
   -2.0314   -3.8309   -1.2692 H   0  0  0  0  0  0  0  0  0  0  0  0
   -3.6227   -4.0643   -2.1624 H   0  0  0  0  0  0  0  0  0  0  0  0
    0.8259    0.1489   -1.5270 H   0  0  0  0  0  0  0  0  0  0  0  0
    3.9815    1.3804    0.8671 H   0  0  0  0  0  0  0  0  0  0  0  0
    3.7188   -0.3653    1.1096 H   0  0  0  0  0  0  0  0  0  0  0  0
    3.3729   -0.7408   -1.2727 H   0  0  0  0  0  0  0  0  0  0  0  0
    3.5326    1.0183   -1.6566 H   0  0  0  0  0  0  0  0  0  0  0  0
    5.6095   -0.1404   -2.2104 H   0  0  0  0  0  0  0  0  0  0  0  0
    7.4309    2.0570    0.6402 H   0  0  0  0  0  0  0  0  0  0  0  0
    6.2161   -1.8981   -0.9201 H   0  0  0  0  0  0  0  0  0  0  0  0
    6.3883   -0.8323    0.4535 H   0  0  0  0  0  0  0  0  0  0  0  0
    1.1556   -0.6743    2.2037 H   0  0  0  0  0  0  0  0  0  0  0  0
    0.7100   -2.2848   -0.2531 H   0  0  0  0  0  0  0  0  0  0  0  0
  1  2  1  0
  2  3  1  0
  3  4  2  0
  4  5  1  0
  5  6  2  0
  6  7  1  0
  7  8  2  0
  8  9  1  0
  9 10  1  0
 10 11  1  0
 11 12  2  0
 11 13  1  0
  7 14  1  0
 14 15  1  0
  5 16  1  0
 16 17  1  0
 17 18  2  0
 17 19  1  0
 19 20  1  0
 20 21  1  0
 21 22  1  0
 22 23  2  0
 22 24  1  0
 21 25  1  0
 17 26  1  0
 16 27  1  0
  8  3  1  0
  1 28  1  0
  1 29  1  0
  1 30  1  0
  4 31  1  0
  6 32  1  0
 10 33  1  0
 10 34  1  0
 13 35  1  0
 15 36  1  0
 15 37  1  0
 15 38  1  0
 16 39  1  0
 19 40  1  0
 19 41  1  0
 20 42  1  0
 20 43  1  0
 21 44  1  6
 24 45  1  0
 25 46  1  0
 25 47  1  0
 26 48  1  0
 27 49  1  0
M  END
>  <Ligand ID>  (1) 
LIG0002011

>  <Ligand>  (1) 
CHEMBL3982807

>  <SMILES>  (1) 
COc1cc(cc(c1OCC(=O)O)OC)C(P(=O)(CC[C@@H](C(=O)O)N)O)O

>  <CID>  (1) 
71041980.0

>  <ChEMBL ID>  (1) 
nan

>  <InChiKey>  (1) 
JDWNQHDRUKKAKP-HJULIUOESA-N

>  <InChi>  (1) 
InChI=1S/C15H22NO10P/c1-24-10-5-8(6-11(25-2)13(10)26-7-12(17)18)15(21)27(22,23)4-3-9(16)14(19)20/h5-6,9,15,21H,3-4,7,16H2,1-2H3,(H,17,18)(H,19,20)(H,22,23)/t9-,15?/m0/s1

>  <IUPAC Name>  (1) 
(2S)-2-amino-4-[[[4-(carboxymethoxy)-3,5-dimethoxyphenyl]-hydroxymethyl]-hydroxyphosphoryl]butanoic acid

$$$$
