
     RDKit          3D

 97101  0  0  0  0  0  0  0  0999 V2000
   -3.1853    6.8769    0.9687 N   0  0  0  0  0  0  0  0  0  0  0  0
   -2.7709    5.7584    1.7493 C   0  0  0  0  0  0  0  0  0  0  0  0
   -3.4193    4.6466    1.7119 N   0  0  0  0  0  0  0  0  0  0  0  0
   -3.0160    3.4757    2.5057 C   0  0  0  0  0  0  0  0  0  0  0  0
   -2.2939    2.5818    1.5135 C   0  0  0  0  0  0  0  0  0  0  0  0
   -1.7974    1.3166    2.1457 C   0  0  0  0  0  0  0  0  0  0  0  0
   -1.1223    0.4900    1.1014 C   0  0  1  0  0  0  0  0  0  0  0  0
   -2.1439    0.2051    0.0363 C   0  0  0  0  0  0  0  0  0  0  0  0
   -1.9392    0.5404   -1.1545 O   0  0  0  0  0  0  0  0  0  0  0  0
   -3.3334   -0.4541    0.4504 N   0  0  0  0  0  0  0  0  0  0  0  0
   -4.3625   -0.7548   -0.5677 C   0  0  2  0  0  0  0  0  0  0  0  0
   -5.5869   -0.0299   -0.2284 C   0  0  0  0  0  0  0  0  0  0  0  0
   -6.6101    0.0639   -0.9487 O   0  0  0  0  0  0  0  0  0  0  0  0
   -5.6746    0.6578    1.0421 N   0  0  0  0  0  0  0  0  0  0  0  0
   -4.5871   -2.2342   -0.6306 C   0  0  0  0  0  0  0  0  0  0  0  0
   -5.5901   -2.7243   -1.5767 C   0  0  0  0  0  0  0  0  0  0  0  0
   -5.2654   -3.1090   -2.8835 C   0  0  0  0  0  0  0  0  0  0  0  0
   -6.3747   -3.4813   -3.5416 N   0  0  0  0  0  0  0  0  0  0  0  0
   -7.4474   -3.3602   -2.7144 C   0  0  0  0  0  0  0  0  0  0  0  0
   -6.9501   -2.8904   -1.4985 C   0  0  0  0  0  0  0  0  0  0  0  0
   -7.8551   -2.7070   -0.4907 C   0  0  0  0  0  0  0  0  0  0  0  0
   -9.1817   -2.9674   -0.6601 C   0  0  0  0  0  0  0  0  0  0  0  0
   -9.6632   -3.4306   -1.8685 C   0  0  0  0  0  0  0  0  0  0  0  0
   -8.7885   -3.6287   -2.9046 C   0  0  0  0  0  0  0  0  0  0  0  0
    0.0109    1.1908    0.5613 N   0  0  0  0  0  0  0  0  0  0  0  0
    1.2403    0.4792    0.3558 C   0  0  0  0  0  0  0  0  0  0  0  0
    1.2671   -0.7385    0.6725 O   0  0  0  0  0  0  0  0  0  0  0  0
    2.4418    1.0883   -0.2037 C   0  0  1  0  0  0  0  0  0  0  0  0
    3.2150    2.0234    0.6885 C   0  0  0  0  0  0  0  0  0  0  0  0
    3.7582    1.4151    1.9091 C   0  0  0  0  0  0  0  0  0  0  0  0
    5.0986    1.0011    1.9998 C   0  0  0  0  0  0  0  0  0  0  0  0
    5.3315    0.4648    3.1904 N   0  0  0  0  0  0  0  0  0  0  0  0
    4.2047    0.4946    3.9208 C   0  0  0  0  0  0  0  0  0  0  0  0
    3.2226    1.0883    3.1208 C   0  0  0  0  0  0  0  0  0  0  0  0
    1.9627    1.2524    3.6221 C   0  0  0  0  0  0  0  0  0  0  0  0
    1.6932    0.8288    4.8981 C   0  0  0  0  0  0  0  0  0  0  0  0
    2.6506    0.2329    5.7184 C   0  0  0  0  0  0  0  0  0  0  0  0
    3.9228    0.0719    5.2026 C   0  0  0  0  0  0  0  0  0  0  0  0
    3.4406    0.0135   -0.4929 N   0  0  0  0  0  0  0  0  0  0  0  0
    3.9956   -0.0793   -1.7989 C   0  0  0  0  0  0  0  0  0  0  0  0
    3.6421    0.7456   -2.7014 O   0  0  0  0  0  0  0  0  0  0  0  0
    4.9866   -1.0995   -2.1952 C   0  0  2  0  0  0  0  0  0  0  0  0
    6.1480   -1.0353   -1.2428 C   0  0  0  0  0  0  0  0  0  0  0  0
    7.1950   -2.0464   -1.5873 C   0  0  0  0  0  0  0  0  0  0  0  0
    7.2951   -3.3250   -1.1436 N   0  0  0  0  0  0  0  0  0  0  0  0
    8.3867   -3.8689   -1.7085 C   0  0  0  0  0  0  0  0  0  0  0  0
    8.9714   -2.9570   -2.4966 N   0  0  0  0  0  0  0  0  0  0  0  0
    8.2441   -1.8083   -2.4374 C   0  0  0  0  0  0  0  0  0  0  0  0
    5.3606   -0.9037   -3.5742 N   0  0  0  0  0  0  0  0  0  0  0  0
    5.1165   -1.8141   -4.6167 C   0  0  0  0  0  0  0  0  0  0  0  0
    4.5345   -2.9262   -4.4740 O   0  0  0  0  0  0  0  0  0  0  0  0
    5.5794   -1.4390   -5.9979 C   0  0  0  0  0  0  0  0  0  0  0  0
   -1.6305    5.8158    2.5998 N   0  0  0  0  0  0  0  0  0  0  0  0
   -3.4333    6.7976   -0.0526 H   0  0  0  0  0  0  0  0  0  0  0  0
   -3.2658    7.8398    1.3669 H   0  0  0  0  0  0  0  0  0  0  0  0
   -2.3796    3.8498    3.3098 H   0  0  0  0  0  0  0  0  0  0  0  0
   -3.9577    2.9946    2.8264 H   0  0  0  0  0  0  0  0  0  0  0  0
   -1.4138    3.1618    1.1689 H   0  0  0  0  0  0  0  0  0  0  0  0
   -2.9369    2.3963    0.6516 H   0  0  0  0  0  0  0  0  0  0  0  0
   -2.6038    0.7602    2.6795 H   0  0  0  0  0  0  0  0  0  0  0  0
   -1.0786    1.5863    2.9432 H   0  0  0  0  0  0  0  0  0  0  0  0
   -0.7898   -0.5192    1.4943 H   0  0  0  0  0  0  0  0  0  0  0  0
   -3.5321   -0.7430    1.4319 H   0  0  0  0  0  0  0  0  0  0  0  0
   -3.9598   -0.4408   -1.5753 H   0  0  0  0  0  0  0  0  0  0  0  0
   -6.2318    0.2546    1.8385 H   0  0  0  0  0  0  0  0  0  0  0  0
   -5.1875    1.5717    1.2019 H   0  0  0  0  0  0  0  0  0  0  0  0
   -3.6204   -2.7909   -0.7712 H   0  0  0  0  0  0  0  0  0  0  0  0
   -4.9207   -2.5421    0.4033 H   0  0  0  0  0  0  0  0  0  0  0  0
   -4.2877   -3.1174   -3.3260 H   0  0  0  0  0  0  0  0  0  0  0  0
   -6.4798   -3.8206   -4.5311 H   0  0  0  0  0  0  0  0  0  0  0  0
   -7.4455   -2.3381    0.4591 H   0  0  0  0  0  0  0  0  0  0  0  0
   -9.8827   -2.8133    0.1584 H   0  0  0  0  0  0  0  0  0  0  0  0
  -10.7407   -3.6247   -1.9547 H   0  0  0  0  0  0  0  0  0  0  0  0
   -9.1339   -3.9902   -3.8626 H   0  0  0  0  0  0  0  0  0  0  0  0
    0.0351    2.1937    0.2894 H   0  0  0  0  0  0  0  0  0  0  0  0
    2.3050    1.6055   -1.1697 H   0  0  0  0  0  0  0  0  0  0  0  0
    2.6016    2.8961    1.0127 H   0  0  0  0  0  0  0  0  0  0  0  0
    4.0417    2.4699    0.0984 H   0  0  0  0  0  0  0  0  0  0  0  0
    5.8569    1.0943    1.2209 H   0  0  0  0  0  0  0  0  0  0  0  0
    6.2226    0.0696    3.5544 H   0  0  0  0  0  0  0  0  0  0  0  0
    1.2341    1.7213    2.9843 H   0  0  0  0  0  0  0  0  0  0  0  0
    0.6867    0.9517    5.3178 H   0  0  0  0  0  0  0  0  0  0  0  0
    2.3996   -0.0916    6.7281 H   0  0  0  0  0  0  0  0  0  0  0  0
    4.7142   -0.3909    5.8046 H   0  0  0  0  0  0  0  0  0  0  0  0
    3.7273   -0.6530    0.2391 H   0  0  0  0  0  0  0  0  0  0  0  0
    4.4713   -2.0872   -2.0557 H   0  0  0  0  0  0  0  0  0  0  0  0
    5.7511   -1.3556   -0.2420 H   0  0  0  0  0  0  0  0  0  0  0  0
    6.5610   -0.0323   -1.1039 H   0  0  0  0  0  0  0  0  0  0  0  0
    6.6049   -3.7279   -0.4850 H   0  0  0  0  0  0  0  0  0  0  0  0
    8.6955   -4.8870   -1.5203 H   0  0  0  0  0  0  0  0  0  0  0  0
    8.5151   -0.9159   -2.9923 H   0  0  0  0  0  0  0  0  0  0  0  0
    5.8577    0.0059   -3.7920 H   0  0  0  0  0  0  0  0  0  0  0  0
    6.5030   -0.8203   -5.8847 H   0  0  0  0  0  0  0  0  0  0  0  0
    4.7818   -0.8268   -6.4703 H   0  0  0  0  0  0  0  0  0  0  0  0
    5.7529   -2.3555   -6.5907 H   0  0  0  0  0  0  0  0  0  0  0  0
   -0.8469    5.1110    2.5102 H   0  0  0  0  0  0  0  0  0  0  0  0
   -1.5172    6.5458    3.3407 H   0  0  0  0  0  0  0  0  0  0  0  0
  1  2  1  0
  2  3  2  3
  3  4  1  0
  4  5  1  0
  5  6  1  0
  6  7  1  0
  7  8  1  0
  8  9  2  0
  8 10  1  0
 10 11  1  0
 11 12  1  0
 12 13  2  0
 12 14  1  0
 11 15  1  0
 15 16  1  0
 16 17  2  0
 17 18  1  0
 18 19  1  0
 19 20  2  0
 20 21  1  0
 21 22  2  0
 22 23  1  0
 23 24  2  0
  7 25  1  0
 25 26  1  0
 26 27  2  0
 26 28  1  0
 28 29  1  0
 29 30  1  0
 30 31  2  0
 31 32  1  0
 32 33  1  0
 33 34  2  0
 34 35  1  0
 35 36  2  0
 36 37  1  0
 37 38  2  0
 28 39  1  0
 39 40  1  0
 40 41  2  0
 40 42  1  0
 42 43  1  0
 43 44  1  0
 44 45  1  0
 45 46  1  0
 46 47  2  0
 47 48  1  0
 42 49  1  0
 49 50  1  0
 50 51  2  0
 50 52  1  0
  2 53  1  0
 20 16  1  0
 34 30  1  0
 48 44  2  0
 24 19  1  0
 38 33  1  0
  1 54  1  0
  1 55  1  0
  4 56  1  0
  4 57  1  0
  5 58  1  0
  5 59  1  0
  6 60  1  0
  6 61  1  0
  7 62  1  1
 10 63  1  0
 11 64  1  6
 14 65  1  0
 14 66  1  0
 15 67  1  0
 15 68  1  0
 17 69  1  0
 18 70  1  0
 21 71  1  0
 22 72  1  0
 23 73  1  0
 24 74  1  0
 25 75  1  0
 28 76  1  6
 29 77  1  0
 29 78  1  0
 31 79  1  0
 32 80  1  0
 35 81  1  0
 36 82  1  0
 37 83  1  0
 38 84  1  0
 39 85  1  0
 42 86  1  6
 43 87  1  0
 43 88  1  0
 45 89  1  0
 46 90  1  0
 48 91  1  0
 49 92  1  0
 52 93  1  0
 52 94  1  0
 52 95  1  0
 53 96  1  0
 53 97  1  0
M  END
>  <Ligand ID>  (1) 
LIG0001441

>  <Ligand>  (1) 
CHEMBL322889

>  <SMILES>  (1) 
NC(=NCCC[C@@H](C(=O)N[C@H](C(=O)N)Cc1c[nH]c2c1cccc2)NC(=O)[C@@H](Cc1c[nH]c2c1cccc2)NC(=O)[C@H](Cc1[nH]cnc1)NC(=O)C)N

>  <CID>  (1) 
11104545.0

>  <ChEMBL ID>  (1) 
nan

>  <InChiKey>  (1) 
LUHDZKBXWWFQLS-MBEDZMRZSA-N

>  <InChi>  (1) 
InChI=1S/C36H44N12O5/c1-20(49)45-31(15-23-18-40-19-44-23)35(53)48-30(14-22-17-43-27-10-5-3-8-25(22)27)34(52)46-28(11-6-12-41-36(38)39)33(51)47-29(32(37)50)13-21-16-42-26-9-4-2-7-24(21)26/h2-5,7-10,16-19,28-31,42-43H,6,11-15H2,1H3,(H2,37,50)(H,40,44)(H,45,49)(H,46,52)(H,47,51)(H,48,53)(H4,38,39,41)/t28-,29-,30+,31-/m0/s1

>  <IUPAC Name>  (1) 
(2S)-2-[[(2R)-2-[[(2S)-2-acetamido-3-(1H-imidazol-5-yl)propanoyl]amino]-3-(1H-indol-3-yl)propanoyl]amino]-N-[(2S)-1-amino-3-(1H-indol-3-yl)-1-oxopropan-2-yl]-5-(diaminomethylideneamino)pentanamide

$$$$
