
     RDKit          3D

 65 69  0  0  0  0  0  0  0  0999 V2000
   -0.9230   -4.3732    0.4629 C   0  0  0  0  0  0  0  0  0  0  0  0
   -1.3925   -4.5177   -0.9535 C   0  0  0  0  0  0  0  0  0  0  0  0
   -2.5801   -3.8504   -1.2242 O   0  0  0  0  0  0  0  0  0  0  0  0
   -2.8566   -2.5139   -1.1273 C   0  0  0  0  0  0  0  0  0  0  0  0
   -1.9457   -1.5641   -0.7155 C   0  0  0  0  0  0  0  0  0  0  0  0
   -2.2876   -0.2374   -0.6377 C   0  0  0  0  0  0  0  0  0  0  0  0
   -3.5507    0.1765   -0.9712 C   0  0  0  0  0  0  0  0  0  0  0  0
   -4.4582   -0.7639   -1.3815 C   0  0  0  0  0  0  0  0  0  0  0  0
   -4.1476   -2.1097   -1.4707 C   0  0  0  0  0  0  0  0  0  0  0  0
   -5.0711   -3.0640   -1.8887 O   0  0  0  0  0  0  0  0  0  0  0  0
   -6.3795   -2.6273   -2.2383 C   0  0  0  0  0  0  0  0  0  0  0  0
   -3.8698    1.4872   -0.8933 N   0  0  0  0  0  0  0  0  0  0  0  0
   -2.9600    2.3937   -0.4914 C   0  0  0  0  0  0  0  0  0  0  0  0
   -1.7361    1.9679   -0.1711 N   0  0  0  0  0  0  0  0  0  0  0  0
   -1.3532    0.6589   -0.2282 C   0  0  0  0  0  0  0  0  0  0  0  0
   -0.0318    0.3794    0.1631 N   0  0  0  0  0  0  0  0  0  0  0  0
    0.3977   -0.3654    1.3032 C   0  0  0  0  0  0  0  0  0  0  0  0
    1.8016   -0.9169    1.1227 C   0  0  0  0  0  0  0  0  0  0  0  0
    2.7309    0.1520    0.7910 N   0  0  0  0  0  0  0  0  0  0  0  0
    2.1103    1.3932    0.3032 C   0  0  0  0  0  0  0  0  0  0  0  0
    1.0434    0.9187   -0.6965 C   0  0  0  0  0  0  0  0  0  0  0  0
    4.1398    0.0284    0.9075 C   0  0  0  0  0  0  0  0  0  0  0  0
    4.9280    1.1845    0.9385 C   0  0  0  0  0  0  0  0  0  0  0  0
    6.2965    1.0602    1.0348 C   0  0  0  0  0  0  0  0  0  0  0  0
    6.9583   -0.1398    1.1043 C   0  0  0  0  0  0  0  0  0  0  0  0
    6.1495   -1.2832    1.0711 C   0  0  0  0  0  0  0  0  0  0  0  0
    4.7742   -1.1985    0.9750 C   0  0  0  0  0  0  0  0  0  0  0  0
    6.8195   -2.4972    1.1411 O   0  0  0  0  0  0  0  0  0  0  0  0
    8.2134   -2.5918    1.2357 C   0  0  0  0  0  0  0  0  0  0  0  0
   -3.2467    3.8211   -0.3854 C   0  0  0  0  0  0  0  0  0  0  0  0
   -4.5284    4.2753   -0.6807 C   0  0  0  0  0  0  0  0  0  0  0  0
   -4.7914    5.6449   -0.5733 C   0  0  0  0  0  0  0  0  0  0  0  0
   -3.8076    6.5416   -0.1822 C   0  0  0  0  0  0  0  0  0  0  0  0
   -2.5505    6.0732    0.1047 C   0  0  0  0  0  0  0  0  0  0  0  0
   -2.2977    4.7210   -0.0035 C   0  0  0  0  0  0  0  0  0  0  0  0
   -1.5769   -3.6656    1.0151 H   0  0  0  0  0  0  0  0  0  0  0  0
    0.1103   -4.0384    0.5613 H   0  0  0  0  0  0  0  0  0  0  0  0
   -1.0339   -5.3635    0.9904 H   0  0  0  0  0  0  0  0  0  0  0  0
   -0.6000   -4.1345   -1.6411 H   0  0  0  0  0  0  0  0  0  0  0  0
   -1.5216   -5.5924   -1.1955 H   0  0  0  0  0  0  0  0  0  0  0  0
   -0.9518   -1.9074   -0.4729 H   0  0  0  0  0  0  0  0  0  0  0  0
   -5.4528   -0.4262   -1.6415 H   0  0  0  0  0  0  0  0  0  0  0  0
   -7.0779   -3.4844   -2.3283 H   0  0  0  0  0  0  0  0  0  0  0  0
   -6.3400   -2.0596   -3.1939 H   0  0  0  0  0  0  0  0  0  0  0  0
   -6.8030   -1.9447   -1.4745 H   0  0  0  0  0  0  0  0  0  0  0  0
    0.4289    0.3263    2.2001 H   0  0  0  0  0  0  0  0  0  0  0  0
   -0.2557   -1.1874    1.6070 H   0  0  0  0  0  0  0  0  0  0  0  0
    1.7780   -1.6877    0.3355 H   0  0  0  0  0  0  0  0  0  0  0  0
    2.1160   -1.3460    2.0924 H   0  0  0  0  0  0  0  0  0  0  0  0
    2.8184    2.0759   -0.1634 H   0  0  0  0  0  0  0  0  0  0  0  0
    1.5545    1.8615    1.1510 H   0  0  0  0  0  0  0  0  0  0  0  0
    0.7223    1.7607   -1.3039 H   0  0  0  0  0  0  0  0  0  0  0  0
    1.3835    0.0683   -1.2910 H   0  0  0  0  0  0  0  0  0  0  0  0
    4.5236    2.1757    0.8951 H   0  0  0  0  0  0  0  0  0  0  0  0
    6.8979    1.9736    1.0579 H   0  0  0  0  0  0  0  0  0  0  0  0
    8.0289   -0.1837    1.1797 H   0  0  0  0  0  0  0  0  0  0  0  0
    4.1941   -2.1320    0.9560 H   0  0  0  0  0  0  0  0  0  0  0  0
    8.6891   -2.0028    0.4196 H   0  0  0  0  0  0  0  0  0  0  0  0
    8.5369   -2.1336    2.2003 H   0  0  0  0  0  0  0  0  0  0  0  0
    8.5014   -3.6582    1.1701 H   0  0  0  0  0  0  0  0  0  0  0  0
   -5.3351    3.6497   -0.9832 H   0  0  0  0  0  0  0  0  0  0  0  0
   -5.7860    6.0124   -0.7993 H   0  0  0  0  0  0  0  0  0  0  0  0
   -4.0566    7.5960   -0.1129 H   0  0  0  0  0  0  0  0  0  0  0  0
   -1.8007    6.7874    0.4050 H   0  0  0  0  0  0  0  0  0  0  0  0
   -1.2888    4.3976    0.2317 H   0  0  0  0  0  0  0  0  0  0  0  0
  1  2  1  0
  2  3  1  0
  3  4  1  0
  4  5  2  0
  5  6  1  0
  6  7  2  0
  7  8  1  0
  8  9  2  0
  9 10  1  0
 10 11  1  0
  7 12  1  0
 12 13  2  0
 13 14  1  0
 14 15  2  0
 15 16  1  0
 16 17  1  0
 17 18  1  0
 18 19  1  0
 19 20  1  0
 20 21  1  0
 19 22  1  0
 22 23  2  0
 23 24  1  0
 24 25  2  0
 25 26  1  0
 26 27  2  0
 26 28  1  0
 28 29  1  0
 13 30  1  0
 30 31  2  0
 31 32  1  0
 32 33  2  0
 33 34  1  0
 34 35  2  0
  9  4  1  0
 21 16  1  0
 27 22  1  0
 35 30  1  0
 15  6  1  0
  1 36  1  0
  1 37  1  0
  1 38  1  0
  2 39  1  0
  2 40  1  0
  5 41  1  0
  8 42  1  0
 11 43  1  0
 11 44  1  0
 11 45  1  0
 17 46  1  0
 17 47  1  0
 18 48  1  0
 18 49  1  0
 20 50  1  0
 20 51  1  0
 21 52  1  0
 21 53  1  0
 23 54  1  0
 24 55  1  0
 25 56  1  0
 27 57  1  0
 29 58  1  0
 29 59  1  0
 29 60  1  0
 31 61  1  0
 32 62  1  0
 33 63  1  0
 34 64  1  0
 35 65  1  0
M  END
>  <Ligand ID>  (1) 
LIG0004466

>  <Ligand>  (1) 
CHEMBL2431236

>  <SMILES>  (1) 
CCOc1cc2c(cc1OC)nc(nc2N1CCN(CC1)c1cccc(c1)OC)c1ccccc1

>  <CID>  (1) 
73349346.0

>  <ChEMBL ID>  (1) 
nan

>  <InChiKey>  (1) 
AESGFGNUDJVJQO-UHFFFAOYSA-N

>  <InChi>  (1) 
InChI=1S/C28H30N4O3/c1-4-35-26-18-23-24(19-25(26)34-3)29-27(20-9-6-5-7-10-20)30-28(23)32-15-13-31(14-16-32)21-11-8-12-22(17-21)33-2/h5-12,17-19H,4,13-16H2,1-3H3

>  <IUPAC Name>  (1) 
6-ethoxy-7-methoxy-4-[4-(3-methoxyphenyl)piperazin-1-yl]-2-phenylquinazoline

$$$$
