
     RDKit          3D

 80 83  0  0  0  0  0  0  0  0999 V2000
   -8.6999    2.0120   -2.5703 O   0  0  0  0  0  0  0  0  0  0  0  0
   -8.3067    1.4757   -1.3262 C   0  0  2  0  0  0  0  0  0  0  0  0
   -7.4207    0.3037   -1.6010 C   0  0  1  0  0  0  0  0  0  0  0  0
   -6.1747    0.4450   -0.7516 C   0  0  0  0  0  0  0  0  0  0  0  0
   -6.5065    0.5247    0.6016 O   0  0  0  0  0  0  0  0  0  0  0  0
   -5.1147    0.6833    1.5611 P   0  0  0  0  0  0  0  0  0  0  0  0
   -4.4699   -0.6679    1.7763 O   0  0  0  0  0  0  0  0  0  0  0  0
   -4.0419    1.6736    0.7170 O   0  0  0  0  0  0  0  0  0  0  0  0
   -2.5001    1.0116    0.8048 P   0  0  0  0  0  0  0  0  0  0  0  0
   -2.0485    1.1049    2.2553 O   0  0  0  0  0  0  0  0  0  0  0  0
   -1.4004    1.8498   -0.1582 O   0  0  0  0  0  0  0  0  0  0  0  0
    0.1291    1.6414    0.5612 P   0  0  0  0  0  0  0  0  0  0  0  0
    0.0716    2.1916    1.9656 O   0  0  0  0  0  0  0  0  0  0  0  0
    1.3182    2.4931   -0.2832 O   0  0  0  0  0  0  0  0  0  0  0  0
    2.4625    3.0337    0.8611 P   0  0  0  0  0  0  0  0  0  0  0  0
    1.8783    4.2221    1.5472 O   0  0  0  0  0  0  0  0  0  0  0  0
    3.9400    3.4113    0.1286 O   0  0  0  0  0  0  0  0  0  0  0  0
    4.4139    2.2226   -0.9645 P   0  0  0  0  0  0  0  0  0  0  0  0
    3.6310    0.9767   -0.6830 O   0  0  0  0  0  0  0  0  0  0  0  0
    6.0754    1.9845   -0.7697 O   0  0  0  0  0  0  0  0  0  0  0  0
    6.4708    0.6777   -0.9334 C   0  0  0  0  0  0  0  0  0  0  0  0
    7.9650    0.6268   -0.7307 C   0  0  2  0  0  0  0  0  0  0  0  0
    8.4909   -0.6367   -0.8687 O   0  0  0  0  0  0  0  0  0  0  0  0
    9.8122   -0.4168   -0.4164 C   0  0  1  0  0  0  0  0  0  0  0  0
    9.6659    0.3853    0.8566 C   0  0  2  0  0  0  0  0  0  0  0  0
    8.2284    0.8716    0.7600 C   0  0  1  0  0  0  0  0  0  0  0  0
    8.1062    2.2250    0.9715 O   0  0  0  0  0  0  0  0  0  0  0  0
   10.4879    1.5144    0.8824 O   0  0  0  0  0  0  0  0  0  0  0  0
   10.4622   -1.6771   -0.2310 N   0  0  0  0  0  0  0  0  0  0  0  0
   11.5766   -1.9963   -0.9501 C   0  0  0  0  0  0  0  0  0  0  0  0
   12.2246   -3.2039   -0.7928 C   0  0  0  0  0  0  0  0  0  0  0  0
   11.7405   -4.1295    0.1186 C   0  0  0  0  0  0  0  0  0  0  0  0
   12.2798   -5.2436    0.3109 O   0  0  0  0  0  0  0  0  0  0  0  0
   10.6318   -3.7852    0.8188 N   0  0  0  0  0  0  0  0  0  0  0  0
   10.0178   -2.6006    0.6472 C   0  0  0  0  0  0  0  0  0  0  0  0
    8.9936   -2.3577    1.3364 O   0  0  0  0  0  0  0  0  0  0  0  0
    4.0291    2.7666   -2.5242 O   0  0  0  0  0  0  0  0  0  0  0  0
    2.7230    1.7602    1.9424 O   0  0  0  0  0  0  0  0  0  0  0  0
    0.5128   -0.0056    0.6364 O   0  0  0  0  0  0  0  0  0  0  0  0
   -2.5032   -0.6280    0.3755 O   0  0  0  0  0  0  0  0  0  0  0  0
   -5.4913    1.3018    3.0762 O   0  0  0  0  0  0  0  0  0  0  0  0
   -8.1126   -0.8441   -1.2516 O   0  0  0  0  0  0  0  0  0  0  0  0
   -9.4580   -0.5577   -1.3310 C   0  0  2  0  0  0  0  0  0  0  0  0
   -9.5315    0.8213   -0.7042 C   0  0  2  0  0  0  0  0  0  0  0  0
  -10.6983    1.4901   -1.0622 O   0  0  0  0  0  0  0  0  0  0  0  0
  -10.2270   -1.5336   -0.5951 N   0  0  0  0  0  0  0  0  0  0  0  0
   -9.7229   -2.1743    0.4562 C   0  0  0  0  0  0  0  0  0  0  0  0
  -10.5350   -3.0981    1.1055 C   0  0  0  0  0  0  0  0  0  0  0  0
  -11.8266   -3.3378    0.6655 C   0  0  0  0  0  0  0  0  0  0  0  0
  -12.5646   -4.1794    1.2580 O   0  0  0  0  0  0  0  0  0  0  0  0
  -12.2920   -2.6636   -0.4041 N   0  0  0  0  0  0  0  0  0  0  0  0
  -11.4985   -1.7735   -1.0236 C   0  0  0  0  0  0  0  0  0  0  0  0
  -11.9826   -1.1711   -2.0177 O   0  0  0  0  0  0  0  0  0  0  0  0
   -9.1982    2.8499   -2.4196 H   0  0  0  0  0  0  0  0  0  0  0  0
   -7.8411    2.2366   -0.6722 H   0  0  0  0  0  0  0  0  0  0  0  0
   -7.0605    0.2837   -2.6563 H   0  0  0  0  0  0  0  0  0  0  0  0
   -5.4981   -0.4240   -0.9337 H   0  0  0  0  0  0  0  0  0  0  0  0
   -5.6888    1.4097   -1.0726 H   0  0  0  0  0  0  0  0  0  0  0  0
    6.1979    0.2470   -1.9086 H   0  0  0  0  0  0  0  0  0  0  0  0
    6.0029    0.0552   -0.1565 H   0  0  0  0  0  0  0  0  0  0  0  0
    8.5394    1.3433   -1.3139 H   0  0  0  0  0  0  0  0  0  0  0  0
   10.3929    0.1943   -1.1209 H   0  0  0  0  0  0  0  0  0  0  0  0
    9.8489   -0.1957    1.7675 H   0  0  0  0  0  0  0  0  0  0  0  0
    7.5487    0.2576    1.3654 H   0  0  0  0  0  0  0  0  0  0  0  0
    8.4300    2.6920    0.1461 H   0  0  0  0  0  0  0  0  0  0  0  0
   11.3974    1.2575    1.1745 H   0  0  0  0  0  0  0  0  0  0  0  0
   11.9949   -1.3033   -1.6774 H   0  0  0  0  0  0  0  0  0  0  0  0
   13.1096   -3.4847   -1.3484 H   0  0  0  0  0  0  0  0  0  0  0  0
   10.2462   -4.4668    1.5135 H   0  0  0  0  0  0  0  0  0  0  0  0
    4.8780    3.0160   -2.9727 H   0  0  0  0  0  0  0  0  0  0  0  0
    2.6285    0.9185    1.4289 H   0  0  0  0  0  0  0  0  0  0  0  0
   -0.0097   -0.4459    1.3516 H   0  0  0  0  0  0  0  0  0  0  0  0
   -2.4908   -0.7228   -0.6225 H   0  0  0  0  0  0  0  0  0  0  0  0
   -5.9406    2.1791    2.9888 H   0  0  0  0  0  0  0  0  0  0  0  0
   -9.7398   -0.5160   -2.4055 H   0  0  0  0  0  0  0  0  0  0  0  0
   -9.4148    0.7072    0.3794 H   0  0  0  0  0  0  0  0  0  0  0  0
  -11.3991    1.3354   -0.3801 H   0  0  0  0  0  0  0  0  0  0  0  0
   -8.7132   -1.9637    0.7724 H   0  0  0  0  0  0  0  0  0  0  0  0
  -10.1653   -3.6388    1.9613 H   0  0  0  0  0  0  0  0  0  0  0  0
  -13.2667   -2.8415   -0.7398 H   0  0  0  0  0  0  0  0  0  0  0  0
  1  2  1  0
  2  3  1  0
  3  4  1  0
  4  5  1  0
  5  6  1  0
  6  7  2  0
  6  8  1  0
  8  9  1  0
  9 10  2  0
  9 11  1  0
 11 12  1  0
 12 13  2  0
 12 14  1  0
 14 15  1  0
 15 16  2  0
 15 17  1  0
 17 18  1  0
 18 19  2  0
 18 20  1  0
 20 21  1  0
 21 22  1  0
 22 23  1  0
 23 24  1  0
 24 25  1  0
 25 26  1  0
 26 27  1  0
 25 28  1  0
 24 29  1  0
 29 30  1  0
 30 31  2  0
 31 32  1  0
 32 33  2  0
 32 34  1  0
 34 35  1  0
 35 36  2  0
 18 37  1  0
 15 38  1  0
 12 39  1  0
  9 40  1  0
  6 41  1  0
  3 42  1  0
 42 43  1  0
 43 44  1  0
 44 45  1  0
 43 46  1  0
 46 47  1  0
 47 48  2  0
 48 49  1  0
 49 50  2  0
 49 51  1  0
 51 52  1  0
 52 53  2  0
 44  2  1  0
 52 46  1  0
 26 22  1  0
 35 29  1  0
  1 54  1  0
  2 55  1  1
  3 56  1  6
  4 57  1  0
  4 58  1  0
 21 59  1  0
 21 60  1  0
 22 61  1  6
 24 62  1  6
 25 63  1  1
 26 64  1  1
 27 65  1  0
 28 66  1  0
 30 67  1  0
 31 68  1  0
 34 69  1  0
 37 70  1  0
 38 71  1  0
 39 72  1  0
 40 73  1  0
 41 74  1  0
 43 75  1  6
 44 76  1  1
 45 77  1  0
 47 78  1  0
 48 79  1  0
 51 80  1  0
M  END
>  <Ligand ID>  (1) 
LIG0002832

>  <Ligand>  (1) 
CHEMBL2113401

>  <SMILES>  (1) 
O[C@@H]1[C@@H](COP(=O)(OP(=O)(OP(=O)(OP(=O)(OP(=O)(OC[C@@H]2O[C@@H]([C@H]([C@H]2O)O)n2ccc(=O)[nH]c2=O)O)O)O)O)O)O[C@H]([C@@H]1O)n1ccc(=O)[nH]c1=O

>  <CID>  (1) 
71459957.0

>  <ChEMBL ID>  (1) 
nan

>  <InChiKey>  (1) 
DTPUCAAWIZAYGN-WWMDGMSNSA-N

>  <InChi>  (1) 
InChI=1S/C18H27N4O26P5/c23-9-1-3-21(17(29)19-9)15-13(27)11(25)7(43-15)5-41-49(31,32)45-51(35,36)47-53(39,40)48-52(37,38)46-50(33,34)42-6-8-12(26)14(28)16(44-8)22-4-2-10(24)20-18(22)30/h1-4,7-8,11-16,25-28H,5-6H2,(H,31,32)(H,33,34)(H,35,36)(H,37,38)(H,39,40)(H,19,23,29)(H,20,24,30)/t7-,8+,11-,12+,13-,14+,15-,16+

>  <IUPAC Name>  (1) 
[[(2S,3R,4S,5S)-5-(2,4-dioxopyrimidin-1-yl)-3,4-dihydroxyoxolan-2-yl]methoxy-hydroxyphosphoryl] [[[[(2R,3S,4R,5R)-5-(2,4-dioxopyrimidin-1-yl)-3,4-dihydroxyoxolan-2-yl]methoxy-hydroxyphosphoryl]oxy-hydroxyphosphoryl]oxy-hydroxyphosphoryl] hydrogen phosphate

$$$$
