
     RDKit          3D

 52 52  0  0  0  0  0  0  0  0999 V2000
    5.6079    2.1611    0.1341 O   0  0  0  0  0  0  0  0  0  0  0  0
    6.1104    1.0958    0.8346 C   0  0  0  0  0  0  0  0  0  0  0  0
    6.3041   -0.1797    0.0808 C   0  0  0  0  0  0  0  0  0  0  0  0
    5.3574   -0.8434   -0.4944 O   0  0  0  0  0  0  0  0  0  0  0  0
    4.4631   -0.6983   -1.4222 C   0  0  0  0  0  0  0  0  0  0  0  0
    3.3840    0.3174   -1.1859 C   0  0  0  0  0  0  0  0  0  0  0  0
    2.6543   -0.0002    0.1009 C   0  0  0  0  0  0  0  0  0  0  0  0
    1.9992   -1.3370   -0.0057 C   0  0  0  0  0  0  0  0  0  0  0  0
    1.2521   -1.7037    1.2393 C   0  0  0  0  0  0  0  0  0  0  0  0
    0.1959   -0.6824    1.5366 C   0  0  0  0  0  0  0  0  0  0  0  0
   -0.6941   -0.5710    0.4212 N   0  0  0  0  0  0  0  0  0  0  0  0
   -1.5276   -1.6908    0.1490 C   0  0  0  0  0  0  0  0  0  0  0  0
   -2.3872   -1.2912   -1.0635 C   0  0  1  0  0  0  0  0  0  0  0  0
   -3.2634   -0.1689   -0.7131 C   0  0  0  0  0  0  0  0  0  0  0  0
   -2.8903    1.1499   -0.6713 C   0  0  0  0  0  0  0  0  0  0  0  0
   -3.7571    2.1734   -0.3253 C   0  0  0  0  0  0  0  0  0  0  0  0
   -5.0621    1.9070   -0.0011 C   0  0  0  0  0  0  0  0  0  0  0  0
   -5.4635    0.5786   -0.0368 C   0  0  0  0  0  0  0  0  0  0  0  0
   -4.5915   -0.4396   -0.3832 C   0  0  0  0  0  0  0  0  0  0  0  0
   -6.8934    0.3034    0.3190 C   0  0  0  0  0  0  0  0  0  0  0  0
   -7.0540    0.3906    1.6886 O   0  0  0  0  0  0  0  0  0  0  0  0
   -5.9113    2.9441    0.3403 O   0  0  0  0  0  0  0  0  0  0  0  0
   -1.6115   -0.9777   -2.1700 O   0  0  0  0  0  0  0  0  0  0  0  0
    6.1187    3.0166    0.3006 H   0  0  0  0  0  0  0  0  0  0  0  0
    5.4136    0.9318    1.7166 H   0  0  0  0  0  0  0  0  0  0  0  0
    7.0810    1.3687    1.3604 H   0  0  0  0  0  0  0  0  0  0  0  0
    7.1760   -0.0053   -0.6618 H   0  0  0  0  0  0  0  0  0  0  0  0
    6.8475   -0.9083    0.8068 H   0  0  0  0  0  0  0  0  0  0  0  0
    4.9255   -0.4648   -2.4630 H   0  0  0  0  0  0  0  0  0  0  0  0
    3.9154   -1.6629   -1.6979 H   0  0  0  0  0  0  0  0  0  0  0  0
    3.6454    1.3577   -1.2364 H   0  0  0  0  0  0  0  0  0  0  0  0
    2.6006    0.1942   -2.0476 H   0  0  0  0  0  0  0  0  0  0  0  0
    1.9444    0.8284    0.3412 H   0  0  0  0  0  0  0  0  0  0  0  0
    3.3586   -0.0277    0.9667 H   0  0  0  0  0  0  0  0  0  0  0  0
    1.3400   -1.3262   -0.9053 H   0  0  0  0  0  0  0  0  0  0  0  0
    2.7704   -2.1281   -0.2302 H   0  0  0  0  0  0  0  0  0  0  0  0
    1.9449   -1.8493    2.1110 H   0  0  0  0  0  0  0  0  0  0  0  0
    0.7784   -2.7056    1.0479 H   0  0  0  0  0  0  0  0  0  0  0  0
    0.6811    0.2919    1.7080 H   0  0  0  0  0  0  0  0  0  0  0  0
   -0.3570   -0.9274    2.4853 H   0  0  0  0  0  0  0  0  0  0  0  0
   -0.2425   -0.1571   -0.4247 H   0  0  0  0  0  0  0  0  0  0  0  0
   -2.1982   -1.9018    0.9960 H   0  0  0  0  0  0  0  0  0  0  0  0
   -0.9643   -2.6109   -0.1280 H   0  0  0  0  0  0  0  0  0  0  0  0
   -3.0284   -2.1629   -1.3584 H   0  0  0  0  0  0  0  0  0  0  0  0
   -1.8838    1.4427   -0.9150 H   0  0  0  0  0  0  0  0  0  0  0  0
   -3.3978    3.1997   -0.3100 H   0  0  0  0  0  0  0  0  0  0  0  0
   -4.9574   -1.4778   -0.3985 H   0  0  0  0  0  0  0  0  0  0  0  0
   -7.1513   -0.6753   -0.1209 H   0  0  0  0  0  0  0  0  0  0  0  0
   -7.4755    1.1092   -0.1780 H   0  0  0  0  0  0  0  0  0  0  0  0
   -7.8780    0.9267    1.8765 H   0  0  0  0  0  0  0  0  0  0  0  0
   -5.7080    3.8785    0.0093 H   0  0  0  0  0  0  0  0  0  0  0  0
   -1.5209    0.0082   -2.3119 H   0  0  0  0  0  0  0  0  0  0  0  0
  1  2  1  0
  2  3  1  0
  3  4  1  0
  4  5  1  0
  5  6  1  0
  6  7  1  0
  7  8  1  0
  8  9  1  0
  9 10  1  0
 10 11  1  0
 11 12  1  0
 12 13  1  0
 13 14  1  0
 14 15  2  0
 15 16  1  0
 16 17  2  0
 17 18  1  0
 18 19  2  0
 18 20  1  0
 20 21  1  0
 17 22  1  0
 13 23  1  0
 19 14  1  0
  1 24  1  0
  2 25  1  0
  2 26  1  0
  3 27  1  0
  3 28  1  0
  5 29  1  0
  5 30  1  0
  6 31  1  0
  6 32  1  0
  7 33  1  0
  7 34  1  0
  8 35  1  0
  8 36  1  0
  9 37  1  0
  9 38  1  0
 10 39  1  0
 10 40  1  0
 11 41  1  0
 12 42  1  0
 12 43  1  0
 13 44  1  6
 15 45  1  0
 16 46  1  0
 19 47  1  0
 20 48  1  0
 20 49  1  0
 21 50  1  0
 22 51  1  0
 23 52  1  0
M  END
>  <Ligand ID>  (1) 
LIG0002466

>  <Ligand>  (1) 
CHEMBL1083884

>  <SMILES>  (1) 
OCCOCCCCCCNC[C@@H](c1ccc(c(c1)CO)O)O

>  <CID>  (1) 
46832227.0

>  <ChEMBL ID>  (1) 
nan

>  <InChiKey>  (1) 
BOBWIDWDXFEGNK-KRWDZBQOSA-N

>  <InChi>  (1) 
InChI=1S/C17H29NO5/c19-8-10-23-9-4-2-1-3-7-18-12-17(22)14-5-6-16(21)15(11-14)13-20/h5-6,11,17-22H,1-4,7-10,12-13H2/t17-/m0/s1

>  <IUPAC Name>  (1) 
4-[(1R)-1-hydroxy-2-[6-(2-hydroxyethoxy)hexylamino]ethyl]-2-(hydroxymethyl)phenol

$$$$
