
     RDKit          3D

 35 38  0  0  0  0  0  0  0  0999 V2000
    5.1202    1.0342    0.2144 O   0  0  0  0  0  0  0  0  0  0  0  0
    3.7959    0.6203    0.1639 C   0  0  0  0  0  0  0  0  0  0  0  0
    3.2323    0.2832   -1.0496 C   0  0  0  0  0  0  0  0  0  0  0  0
    1.9016   -0.1370   -1.1328 C   0  0  0  0  0  0  0  0  0  0  0  0
    1.3850   -0.4688   -2.4025 O   0  0  0  0  0  0  0  0  0  0  0  0
    0.3547   -1.4762   -2.4053 C   0  0  0  0  0  0  0  0  0  0  0  0
   -0.7216   -0.9457   -1.5283 C   0  0  2  0  0  0  0  0  0  0  0  0
   -0.2719   -0.6694   -0.1068 C   0  0  1  0  0  0  0  0  0  0  0  0
    1.1028   -0.2291    0.0005 C   0  0  0  0  0  0  0  0  0  0  0  0
    1.6947    0.1137    1.1952 C   0  0  0  0  0  0  0  0  0  0  0  0
    3.0129    0.5320    1.2936 C   0  0  0  0  0  0  0  0  0  0  0  0
    3.5828    0.8696    2.4981 O   0  0  0  0  0  0  0  0  0  0  0  0
   -1.3052    0.2579    0.4218 C   0  0  0  0  0  0  0  0  0  0  0  0
   -1.0373    1.4812    0.9803 C   0  0  0  0  0  0  0  0  0  0  0  0
   -2.1188    2.2300    1.4245 C   0  0  0  0  0  0  0  0  0  0  0  0
   -3.4228    1.7426    1.3001 C   0  0  0  0  0  0  0  0  0  0  0  0
   -3.6785    0.5061    0.7340 C   0  0  0  0  0  0  0  0  0  0  0  0
   -2.6238   -0.2285    0.2988 C   0  0  0  0  0  0  0  0  0  0  0  0
   -2.7272   -1.5709   -0.3347 C   0  0  0  0  0  0  0  0  0  0  0  0
   -1.8726   -1.7860   -1.4508 N   0  0  0  0  0  0  0  0  0  0  0  0
    5.3684    1.9472   -0.1597 H   0  0  0  0  0  0  0  0  0  0  0  0
    3.8572    0.3574   -1.9231 H   0  0  0  0  0  0  0  0  0  0  0  0
    0.7991   -2.4290   -2.0625 H   0  0  0  0  0  0  0  0  0  0  0  0
   -0.0068   -1.5083   -3.4367 H   0  0  0  0  0  0  0  0  0  0  0  0
   -1.0226    0.0441   -1.9450 H   0  0  0  0  0  0  0  0  0  0  0  0
   -0.4420   -1.6383    0.4486 H   0  0  0  0  0  0  0  0  0  0  0  0
    1.1487    0.0682    2.1324 H   0  0  0  0  0  0  0  0  0  0  0  0
    3.7388    0.2860    3.2869 H   0  0  0  0  0  0  0  0  0  0  0  0
   -0.0250    1.8410    1.0628 H   0  0  0  0  0  0  0  0  0  0  0  0
   -1.9156    3.2023    1.8694 H   0  0  0  0  0  0  0  0  0  0  0  0
   -4.2611    2.3517    1.6581 H   0  0  0  0  0  0  0  0  0  0  0  0
   -4.6805    0.1044    0.6254 H   0  0  0  0  0  0  0  0  0  0  0  0
   -2.6397   -2.3691    0.4498 H   0  0  0  0  0  0  0  0  0  0  0  0
   -3.7952   -1.6262   -0.6971 H   0  0  0  0  0  0  0  0  0  0  0  0
   -1.5269   -2.7909   -1.4236 H   0  0  0  0  0  0  0  0  0  0  0  0
  1  2  1  0
  2  3  2  0
  3  4  1  0
  4  5  1  0
  5  6  1  0
  6  7  1  0
  7  8  1  0
  8  9  1  0
  9 10  1  0
 10 11  2  0
 11 12  1  0
  8 13  1  0
 13 14  2  0
 14 15  1  0
 15 16  2  0
 16 17  1  0
 17 18  2  0
 18 19  1  0
 19 20  1  0
 11  2  1  0
 18 13  1  0
  9  4  2  0
 20  7  1  0
  1 21  1  0
  3 22  1  0
  6 23  1  0
  6 24  1  0
  7 25  1  6
  8 26  1  1
 10 27  1  0
 12 28  1  0
 14 29  1  0
 15 30  1  0
 16 31  1  0
 17 32  1  0
 19 33  1  0
 19 34  1  0
 20 35  1  0
M  END
>  <Ligand ID>  (1) 
LIG0002411

>  <Ligand>  (1) 
CHEMBL387250

>  <SMILES>  (1) 
Oc1cc2OC[C@@H]3[C@@H](c2cc1O)c1ccccc1CN3

>  <CID>  (1) 
15981509.0

>  <ChEMBL ID>  (1) 
nan

>  <InChiKey>  (1) 
QDUNOUQOKOYLCH-MLGOLLRUSA-N

>  <InChi>  (1) 
InChI=1S/C16H15NO3/c18-13-5-11-15(6-14(13)19)20-8-12-16(11)10-4-2-1-3-9(10)7-17-12/h1-6,12,16-19H,7-8H2/t12-,16-/m1/s1

>  <IUPAC Name>  (1) 
(6aS,12bR)-6a,7,8,12b-tetrahydro-6H-chromeno[3,4-c]isoquinoline-2,3-diol

$$$$
