
     RDKit          3D

 59 62  0  0  0  0  0  0  0  0999 V2000
   -1.0173   -1.3900    3.5141 O   0  0  0  0  0  0  0  0  0  0  0  0
   -0.9881   -0.8664    2.3464 C   0  0  0  0  0  0  0  0  0  0  0  0
    0.3401   -0.4714    1.8847 C   0  0  0  0  0  0  0  0  0  0  0  0
    1.2910   -1.4014    1.4720 C   0  0  0  0  0  0  0  0  0  0  0  0
    2.5454   -0.9578    1.0441 C   0  0  0  0  0  0  0  0  0  0  0  0
    2.8726    0.3715    1.0167 C   0  0  0  0  0  0  0  0  0  0  0  0
    1.9044    1.2791    1.4343 C   0  0  0  0  0  0  0  0  0  0  0  0
    0.6560    0.8736    1.8627 C   0  0  0  0  0  0  0  0  0  0  0  0
    4.1655    0.9230    0.5838 C   0  0  0  0  0  0  0  0  0  0  0  0
    4.2603    1.2359   -0.8057 N   0  0  0  0  0  0  0  0  0  0  0  0
    5.7859    1.8757   -1.2367 S   0  0  0  0  0  0  0  0  0  0  0  0
    5.8565    2.2508   -2.6793 O   0  0  0  0  0  0  0  0  0  0  0  0
    6.0206    3.1439   -0.4554 O   0  0  0  0  0  0  0  0  0  0  0  0
    7.0527    0.7218   -0.9206 C   0  0  0  0  0  0  0  0  0  0  0  0
    7.4880   -0.2032   -1.8424 C   0  0  0  0  0  0  0  0  0  0  0  0
    8.5143   -1.0944   -1.5077 C   0  0  0  0  0  0  0  0  0  0  0  0
    9.1111   -1.0750   -0.2657 C   0  0  0  0  0  0  0  0  0  0  0  0
    8.6641   -0.1388    0.6554 C   0  0  0  0  0  0  0  0  0  0  0  0
    7.6627    0.7363    0.3391 C   0  0  0  0  0  0  0  0  0  0  0  0
   -2.1620   -0.6983    1.5946 N   0  0  0  0  0  0  0  0  0  0  0  0
   -2.2386   -0.1226    0.2777 C   0  0  0  0  0  0  0  0  0  0  0  0
   -3.6628   -0.3115   -0.2065 C   0  0  0  0  0  0  0  0  0  0  0  0
   -4.6277    0.2730    0.6690 N   0  0  0  0  0  0  0  0  0  0  0  0
   -4.3457    0.0765    2.0687 C   0  0  0  0  0  0  0  0  0  0  0  0
   -3.4316   -1.1444    2.1869 C   0  0  0  0  0  0  0  0  0  0  0  0
   -5.9216   -0.3287    0.4244 C   0  0  0  0  0  0  0  0  0  0  0  0
   -6.4452   -0.1428   -0.9261 C   0  0  0  0  0  0  0  0  0  0  0  0
   -7.2119    0.9922   -1.1718 C   0  0  0  0  0  0  0  0  0  0  0  0
   -7.7553    1.2573   -2.4111 C   0  0  0  0  0  0  0  0  0  0  0  0
   -7.5212    0.3565   -3.4312 C   0  0  0  0  0  0  0  0  0  0  0  0
   -6.7652   -0.7925   -3.2467 C   0  0  0  0  0  0  0  0  0  0  0  0
   -6.2524   -0.9975   -1.9878 C   0  0  0  0  0  0  0  0  0  0  0  0
    1.0254   -2.4447    1.4949 H   0  0  0  0  0  0  0  0  0  0  0  0
    3.2919   -1.6771    0.7202 H   0  0  0  0  0  0  0  0  0  0  0  0
    2.1311    2.3549    1.4270 H   0  0  0  0  0  0  0  0  0  0  0  0
   -0.0488    1.6119    2.1700 H   0  0  0  0  0  0  0  0  0  0  0  0
    4.9358    0.1216    0.7869 H   0  0  0  0  0  0  0  0  0  0  0  0
    4.4326    1.7784    1.2411 H   0  0  0  0  0  0  0  0  0  0  0  0
    3.8745    0.5314   -1.4359 H   0  0  0  0  0  0  0  0  0  0  0  0
    7.0225   -0.2270   -2.8217 H   0  0  0  0  0  0  0  0  0  0  0  0
    8.8687   -1.8335   -2.2370 H   0  0  0  0  0  0  0  0  0  0  0  0
    9.9137   -1.7720    0.0031 H   0  0  0  0  0  0  0  0  0  0  0  0
    9.0946   -0.0677    1.6616 H   0  0  0  0  0  0  0  0  0  0  0  0
    7.3326    1.4617    1.0932 H   0  0  0  0  0  0  0  0  0  0  0  0
   -1.8780    0.9033    0.1956 H   0  0  0  0  0  0  0  0  0  0  0  0
   -1.6074   -0.7491   -0.4115 H   0  0  0  0  0  0  0  0  0  0  0  0
   -3.7211    0.1773   -1.2023 H   0  0  0  0  0  0  0  0  0  0  0  0
   -3.8298   -1.3999   -0.3849 H   0  0  0  0  0  0  0  0  0  0  0  0
   -5.2409   -0.1547    2.6832 H   0  0  0  0  0  0  0  0  0  0  0  0
   -3.8324    0.9412    2.5415 H   0  0  0  0  0  0  0  0  0  0  0  0
   -3.8383   -1.9702    1.5730 H   0  0  0  0  0  0  0  0  0  0  0  0
   -3.3042   -1.4760    3.2280 H   0  0  0  0  0  0  0  0  0  0  0  0
   -5.8318   -1.4119    0.6540 H   0  0  0  0  0  0  0  0  0  0  0  0
   -6.6866    0.0738    1.1481 H   0  0  0  0  0  0  0  0  0  0  0  0
   -7.3953    1.7055   -0.3573 H   0  0  0  0  0  0  0  0  0  0  0  0
   -8.3519    2.1426   -2.5908 H   0  0  0  0  0  0  0  0  0  0  0  0
   -7.9328    0.5229   -4.4354 H   0  0  0  0  0  0  0  0  0  0  0  0
   -6.6035   -1.4808   -4.0784 H   0  0  0  0  0  0  0  0  0  0  0  0
   -5.6652   -1.8920   -1.8356 H   0  0  0  0  0  0  0  0  0  0  0  0
  1  2  2  0
  2  3  1  0
  3  4  2  0
  4  5  1  0
  5  6  2  0
  6  7  1  0
  7  8  2  0
  6  9  1  0
  9 10  1  0
 10 11  1  0
 11 12  2  0
 11 13  2  0
 11 14  1  0
 14 15  2  0
 15 16  1  0
 16 17  2  0
 17 18  1  0
 18 19  2  0
  2 20  1  0
 20 21  1  0
 21 22  1  0
 22 23  1  0
 23 24  1  0
 24 25  1  0
 23 26  1  0
 26 27  1  0
 27 28  2  0
 28 29  1  0
 29 30  2  0
 30 31  1  0
 31 32  2  0
  8  3  1  0
 19 14  1  0
 25 20  1  0
 32 27  1  0
  4 33  1  0
  5 34  1  0
  7 35  1  0
  8 36  1  0
  9 37  1  0
  9 38  1  0
 10 39  1  0
 15 40  1  0
 16 41  1  0
 17 42  1  0
 18 43  1  0
 19 44  1  0
 21 45  1  0
 21 46  1  0
 22 47  1  0
 22 48  1  0
 24 49  1  0
 24 50  1  0
 25 51  1  0
 25 52  1  0
 26 53  1  0
 26 54  1  0
 28 55  1  0
 29 56  1  0
 30 57  1  0
 31 58  1  0
 32 59  1  0
M  END
>  <Ligand ID>  (1) 
LIG0003157

>  <Ligand>  (1) 
MLS002699334

>  <SMILES>  (1) 
O=C(c1ccc(cc1)CNS(=O)(=O)c1ccccc1)N1CCN(CC1)Cc1ccccc1

>  <CID>  (1) 
9550286.0

>  <ChEMBL ID>  (1) 
nan

>  <InChiKey>  (1) 
UFMJAGNPIYFMFZ-UHFFFAOYSA-N

>  <InChi>  (1) 
InChI=1S/C25H27N3O3S/c29-25(28-17-15-27(16-18-28)20-22-7-3-1-4-8-22)23-13-11-21(12-14-23)19-26-32(30,31)24-9-5-2-6-10-24/h1-14,26H,15-20H2

>  <IUPAC Name>  (1) 
N-[[4-(4-benzylpiperazine-1-carbonyl)phenyl]methyl]benzenesulfonamide

$$$$
