
     RDKit          3D

 48 51  0  0  0  0  0  0  0  0999 V2000
    5.6611   -1.0062   -0.3187 C   0  0  0  0  0  0  0  0  0  0  0  0
    4.4584   -0.3846    0.2929 C   0  0  0  0  0  0  0  0  0  0  0  0
    4.6664    0.3225    1.4061 C   0  0  0  0  0  0  0  0  0  0  0  0
    3.1137   -0.5336   -0.2861 C   0  0  0  0  0  0  0  0  0  0  0  0
    3.0339   -1.2196   -1.3337 O   0  0  0  0  0  0  0  0  0  0  0  0
    2.0791    0.0795    0.3572 O   0  0  0  0  0  0  0  0  0  0  0  0
    0.7079   -0.0385   -0.1974 C   0  0  1  0  0  0  0  0  0  0  0  0
    0.0392   -0.8447    0.8611 C   0  0  0  0  0  0  0  0  0  0  0  0
   -1.3063   -1.3907    0.6757 C   0  0  1  0  0  0  0  0  0  0  0  0
   -1.4600   -2.6800    1.4475 O   0  0  0  0  0  0  0  0  0  0  0  0
   -2.1001   -1.4926    1.7832 C   0  0  2  0  0  0  0  0  0  0  0  0
   -3.5861   -1.4173    1.7425 C   0  0  0  0  0  0  0  0  0  0  0  0
   -3.9554    0.0588    1.5188 C   0  0  0  0  0  0  0  0  0  0  0  0
   -3.0807    0.4535    0.3379 C   0  0  0  0  0  0  0  0  0  0  0  0
   -2.0724    1.2681    0.6483 C   0  0  0  0  0  0  0  0  0  0  0  0
   -1.1735    1.7027   -0.4165 C   0  0  2  0  0  0  0  0  0  0  0  0
    0.2725    1.3574   -0.2559 C   0  0  2  0  0  0  0  0  0  0  0  0
    0.7927    2.1672   -1.4085 C   0  0  0  0  0  0  0  0  0  0  0  0
    1.6782    1.9550   -2.3275 C   0  0  0  0  0  0  0  0  0  0  0  0
   -0.0194    3.4157   -1.2910 C   0  0  0  0  0  0  0  0  0  0  0  0
    0.1813    4.4928   -1.9191 O   0  0  0  0  0  0  0  0  0  0  0  0
   -1.0388    3.1516   -0.3518 O   0  0  0  0  0  0  0  0  0  0  0  0
   -3.2553    0.0083   -1.0947 C   0  0  0  0  0  0  0  0  0  0  0  0
   -2.0989   -0.6462   -1.5053 O   0  0  0  0  0  0  0  0  0  0  0  0
   -1.7382   -1.6866   -0.7081 C   0  0  1  0  0  0  0  0  0  0  0  0
   -0.7436   -2.4248   -1.3477 O   0  0  0  0  0  0  0  0  0  0  0  0
    5.3851   -1.5916   -1.2286 H   0  0  0  0  0  0  0  0  0  0  0  0
    6.4568   -0.2598   -0.5216 H   0  0  0  0  0  0  0  0  0  0  0  0
    6.1030   -1.7427    0.3915 H   0  0  0  0  0  0  0  0  0  0  0  0
    5.6888    0.3676    1.7443 H   0  0  0  0  0  0  0  0  0  0  0  0
    3.8635    0.8213    1.9399 H   0  0  0  0  0  0  0  0  0  0  0  0
    0.8591   -0.5594   -1.1333 H   0  0  0  0  0  0  0  0  0  0  0  0
    0.7486   -1.6526    1.2262 H   0  0  0  0  0  0  0  0  0  0  0  0
   -0.0089   -0.1702    1.7743 H   0  0  0  0  0  0  0  0  0  0  0  0
   -1.6979   -1.0991    2.7638 H   0  0  0  0  0  0  0  0  0  0  0  0
   -4.0521   -2.0574    0.9702 H   0  0  0  0  0  0  0  0  0  0  0  0
   -3.9887   -1.6947    2.7375 H   0  0  0  0  0  0  0  0  0  0  0  0
   -3.7147    0.6088    2.4239 H   0  0  0  0  0  0  0  0  0  0  0  0
   -5.0145    0.0807    1.2252 H   0  0  0  0  0  0  0  0  0  0  0  0
   -1.8849    1.6267    1.6566 H   0  0  0  0  0  0  0  0  0  0  0  0
   -1.5401    1.5673   -1.4531 H   0  0  0  0  0  0  0  0  0  0  0  0
    0.5886    1.8907    0.6934 H   0  0  0  0  0  0  0  0  0  0  0  0
    2.2830    1.0841   -2.4800 H   0  0  0  0  0  0  0  0  0  0  0  0
    1.8566    2.7590   -3.0665 H   0  0  0  0  0  0  0  0  0  0  0  0
   -3.4107    0.8827   -1.7418 H   0  0  0  0  0  0  0  0  0  0  0  0
   -4.0967   -0.6589   -1.2547 H   0  0  0  0  0  0  0  0  0  0  0  0
   -2.6385   -2.3627   -0.6658 H   0  0  0  0  0  0  0  0  0  0  0  0
   -0.8410   -2.5074   -2.3108 H   0  0  0  0  0  0  0  0  0  0  0  0
  1  2  1  0
  2  3  2  0
  2  4  1  0
  4  5  2  0
  4  6  1  0
  6  7  1  0
  7  8  1  0
  8  9  1  0
  9 10  1  1
 10 11  1  0
 11 12  1  0
 12 13  1  0
 13 14  1  0
 14 15  2  3
 15 16  1  0
 16 17  1  0
 17 18  1  0
 18 19  2  0
 18 20  1  0
 20 21  2  0
 20 22  1  0
 14 23  1  0
 23 24  1  0
 24 25  1  0
 25 26  1  0
 17  7  1  0
 25  9  1  0
 11  9  1  0
 22 16  1  0
  1 27  1  0
  1 28  1  0
  1 29  1  0
  3 30  1  0
  3 31  1  0
  7 32  1  6
  8 33  1  0
  8 34  1  0
 11 35  1  1
 12 36  1  0
 12 37  1  0
 13 38  1  0
 13 39  1  0
 15 40  1  0
 16 41  1  6
 17 42  1  1
 19 43  1  0
 19 44  1  0
 23 45  1  0
 23 46  1  0
 25 47  1  1
 26 48  1  0
M  END
>  <Ligand ID>  (1) 
LIG0001021

>  <Ligand>  (1) 
Vernolide

>  <SMILES>  (1) 
CC(=C)C(=O)O[C@H]1C[C@]23O[C@@H]3CCC(=C[C@@H]3[C@@H]1C(=C)C(=O)O3)CO[C@H]2O

>  <CID>  (1) 
5281508.0

>  <ChEMBL ID>  (1) 
nan

>  <InChiKey>  (1) 
ZGXVZQZFVYSUDU-ULYHCOEVSA-N  

>  <InChi>  (1) 
InChI=1S/C19H22O7/c1-9(2)16(20)25-13-7-19-14(26-19)5-4-11(8-23-18(19)22)6-12-15(13)10(3)17(21)24-12/h6,12-15,18,22H,1,3-5,7-8H2,2H3/b11-6-/t12-,13+,14-,15+,18-,19-/m1/s1

>  <IUPAC Name>  (1) 
[(1R,3S,4R,8R,9Z,13R,15R)-15-hydroxy-5-methylidene-6-oxo-7,14,16-trioxatetracyclo[8.4.3.01,13.04,8]heptadec-9-en-3-yl] 2-methylprop-2-enoate

$$$$
