
     RDKit          3D

 58 60  0  0  0  0  0  0  0  0999 V2000
    7.6781    1.7288    1.0591 C   0  0  0  0  0  0  0  0  0  0  0  0
    6.4156    2.4922    0.7341 C   0  0  0  0  0  0  0  0  0  0  0  0
    5.5752    1.6303   -0.0190 O   0  0  0  0  0  0  0  0  0  0  0  0
    5.1113    0.4265    0.4704 C   0  0  0  0  0  0  0  0  0  0  0  0
    5.4088    0.0194    1.6234 O   0  0  0  0  0  0  0  0  0  0  0  0
    4.2629   -0.3915   -0.3556 N   0  0  0  0  0  0  0  0  0  0  0  0
    3.9017    0.0375   -1.6744 C   0  0  0  0  0  0  0  0  0  0  0  0
    2.5926   -0.6321   -2.0478 C   0  0  0  0  0  0  0  0  0  0  0  0
    1.7480   -0.6717   -0.8163 C   0  0  0  0  0  0  0  0  0  0  0  0
    2.2571   -1.6426    0.2281 C   0  0  0  0  0  0  0  0  0  0  0  0
    3.7639   -1.6578    0.1352 C   0  0  0  0  0  0  0  0  0  0  0  0
    0.3538   -0.8502   -1.1185 N   0  0  0  0  0  0  0  0  0  0  0  0
    0.0441   -2.0457   -1.8193 C   0  0  0  0  0  0  0  0  0  0  0  0
   -0.9181   -2.9791   -1.1348 C   0  0  0  0  0  0  0  0  0  0  0  0
   -2.1113   -2.2931   -0.5551 C   0  0  0  0  0  0  0  0  0  0  0  0
   -1.9306   -0.8050   -0.5193 C   0  0  2  0  0  0  0  0  0  0  0  0
   -0.5108   -0.5787   -0.0171 C   0  0  0  0  0  0  0  0  0  0  0  0
   -2.8650   -0.1453    0.3635 N   0  0  0  0  0  0  0  0  0  0  0  0
   -3.7584    0.8589   -0.0714 C   0  0  0  0  0  0  0  0  0  0  0  0
   -3.7484    1.2063   -1.2942 O   0  0  0  0  0  0  0  0  0  0  0  0
   -4.6787    1.4722    0.9223 C   0  0  0  0  0  0  0  0  0  0  0  0
   -5.5936    0.4567    1.5562 C   0  0  0  0  0  0  0  0  0  0  0  0
   -6.8847    1.1775    1.8425 C   0  0  0  0  0  0  0  0  0  0  0  0
   -6.8350    2.4943    1.0915 C   0  0  0  0  0  0  0  0  0  0  0  0
   -5.6687    2.3154    0.1457 C   0  0  0  0  0  0  0  0  0  0  0  0
    8.4665    2.0877    0.3555 H   0  0  0  0  0  0  0  0  0  0  0  0
    7.5287    0.6470    0.8739 H   0  0  0  0  0  0  0  0  0  0  0  0
    8.0055    1.9185    2.1059 H   0  0  0  0  0  0  0  0  0  0  0  0
    5.9457    2.7712    1.6997 H   0  0  0  0  0  0  0  0  0  0  0  0
    6.6548    3.4159    0.1708 H   0  0  0  0  0  0  0  0  0  0  0  0
    3.7301    1.1508   -1.6644 H   0  0  0  0  0  0  0  0  0  0  0  0
    4.7214   -0.2367   -2.3595 H   0  0  0  0  0  0  0  0  0  0  0  0
    2.0760    0.0051   -2.7812 H   0  0  0  0  0  0  0  0  0  0  0  0
    2.8641   -1.6280   -2.4425 H   0  0  0  0  0  0  0  0  0  0  0  0
    1.8343    0.3400   -0.3464 H   0  0  0  0  0  0  0  0  0  0  0  0
    1.9850   -1.2522    1.2488 H   0  0  0  0  0  0  0  0  0  0  0  0
    1.8065   -2.6395    0.0501 H   0  0  0  0  0  0  0  0  0  0  0  0
    4.1571   -1.8669    1.1611 H   0  0  0  0  0  0  0  0  0  0  0  0
    4.0824   -2.4388   -0.5780 H   0  0  0  0  0  0  0  0  0  0  0  0
    0.9403   -2.6541   -2.0802 H   0  0  0  0  0  0  0  0  0  0  0  0
   -0.4236   -1.7610   -2.7852 H   0  0  0  0  0  0  0  0  0  0  0  0
   -1.2957   -3.6697   -1.9425 H   0  0  0  0  0  0  0  0  0  0  0  0
   -0.3827   -3.6528   -0.4255 H   0  0  0  0  0  0  0  0  0  0  0  0
   -3.0722   -2.5081   -1.0756 H   0  0  0  0  0  0  0  0  0  0  0  0
   -2.2483   -2.6975    0.4902 H   0  0  0  0  0  0  0  0  0  0  0  0
   -1.9989   -0.4332   -1.5623 H   0  0  0  0  0  0  0  0  0  0  0  0
   -0.3198   -1.3541    0.7789 H   0  0  0  0  0  0  0  0  0  0  0  0
   -0.3742    0.4543    0.3477 H   0  0  0  0  0  0  0  0  0  0  0  0
   -2.8572   -0.4451    1.3632 H   0  0  0  0  0  0  0  0  0  0  0  0
   -4.1300    2.0777    1.6756 H   0  0  0  0  0  0  0  0  0  0  0  0
   -5.1112    0.0414    2.4495 H   0  0  0  0  0  0  0  0  0  0  0  0
   -5.7445   -0.3591    0.7899 H   0  0  0  0  0  0  0  0  0  0  0  0
   -7.0312    1.4080    2.9075 H   0  0  0  0  0  0  0  0  0  0  0  0
   -7.7802    0.6091    1.4908 H   0  0  0  0  0  0  0  0  0  0  0  0
   -7.7854    2.6901    0.5510 H   0  0  0  0  0  0  0  0  0  0  0  0
   -6.6356    3.3638    1.7412 H   0  0  0  0  0  0  0  0  0  0  0  0
   -5.2384    3.2713   -0.1936 H   0  0  0  0  0  0  0  0  0  0  0  0
   -5.9791    1.7218   -0.7438 H   0  0  0  0  0  0  0  0  0  0  0  0
  1  2  1  0
  2  3  1  0
  3  4  1  0
  4  5  2  0
  4  6  1  0
  6  7  1  0
  7  8  1  0
  8  9  1  0
  9 10  1  0
 10 11  1  0
  9 12  1  0
 12 13  1  0
 13 14  1  0
 14 15  1  0
 15 16  1  0
 16 17  1  0
 16 18  1  0
 18 19  1  0
 19 20  2  0
 19 21  1  0
 21 22  1  0
 22 23  1  0
 23 24  1  0
 24 25  1  0
 11  6  1  0
 17 12  1  0
 25 21  1  0
  1 26  1  0
  1 27  1  0
  1 28  1  0
  2 29  1  0
  2 30  1  0
  7 31  1  0
  7 32  1  0
  8 33  1  0
  8 34  1  0
  9 35  1  0
 10 36  1  0
 10 37  1  0
 11 38  1  0
 11 39  1  0
 13 40  1  0
 13 41  1  0
 14 42  1  0
 14 43  1  0
 15 44  1  0
 15 45  1  0
 16 46  1  6
 17 47  1  0
 17 48  1  0
 18 49  1  0
 21 50  1  0
 22 51  1  0
 22 52  1  0
 23 53  1  0
 23 54  1  0
 24 55  1  0
 24 56  1  0
 25 57  1  0
 25 58  1  0
M  END
>  <Ligand ID>  (1) 
LIG0001948

>  <Ligand>  (1) 
CHEMBL1916235

>  <SMILES>  (1) 
CCOC(=O)N1CCC(CC1)N1CCC[C@H](C1)NC(=O)C1CCCC1

>  <CID>  (1) 
46873656.0

>  <ChEMBL ID>  (1) 
nan

>  <InChiKey>  (1) 
NTSQDFWSCSUPSQ-MRXNPFEDSA-N

>  <InChi>  (1) 
InChI=1S/C19H33N3O3/c1-2-25-19(24)21-12-9-17(10-13-21)22-11-5-8-16(14-22)20-18(23)15-6-3-4-7-15/h15-17H,2-14H2,1H3,(H,20,23)/t16-/m1/s1

>  <IUPAC Name>  (1) 
ethyl 4-[(3R)-3-(cyclopentanecarbonylamino)piperidin-1-yl]piperidine-1-carboxylate

$$$$
