
     RDKit          3D

 59 63  0  0  0  0  0  0  0  0999 V2000
    4.4709    3.0879    5.5242 Cl  0  0  0  0  0  0  0  0  0  0  0  0
    3.3865    2.3219    4.3850 C   0  0  0  0  0  0  0  0  0  0  0  0
    2.6418    3.0760    3.5016 C   0  0  0  0  0  0  0  0  0  0  0  0
    1.7690    2.5031    2.5812 C   0  0  0  0  0  0  0  0  0  0  0  0
    1.6542    1.1079    2.5649 C   0  0  0  0  0  0  0  0  0  0  0  0
    2.4048    0.3281    3.4574 C   0  0  0  0  0  0  0  0  0  0  0  0
    3.2534    0.9488    4.3467 C   0  0  0  0  0  0  0  0  0  0  0  0
    2.2031   -1.4072    3.3699 Cl  0  0  0  0  0  0  0  0  0  0  0  0
    0.7481    0.4605    1.6442 N   0  0  0  0  0  0  0  0  0  0  0  0
   -0.4850    0.1765    2.0393 N   0  0  0  0  0  0  0  0  0  0  0  0
   -1.1764   -0.4313    1.0311 C   0  0  0  0  0  0  0  0  0  0  0  0
   -0.2926   -0.5063   -0.0091 C   0  0  0  0  0  0  0  0  0  0  0  0
    0.9236    0.0658    0.3961 C   0  0  0  0  0  0  0  0  0  0  0  0
    2.0687    0.1615   -0.4921 C   0  0  0  0  0  0  0  0  0  0  0  0
    3.2549    0.6080   -0.1310 C   0  0  0  0  0  0  0  0  0  0  0  0
    4.4058    0.7102   -1.0145 C   0  0  0  0  0  0  0  0  0  0  0  0
    4.3686    1.2079   -2.2933 C   0  0  0  0  0  0  0  0  0  0  0  0
    5.4917    1.2740   -3.1046 C   0  0  0  0  0  0  0  0  0  0  0  0
    6.7191    0.8257   -2.6307 C   0  0  0  0  0  0  0  0  0  0  0  0
    6.7579    0.3245   -1.3430 C   0  0  0  0  0  0  0  0  0  0  0  0
    5.6241    0.2625   -0.5367 C   0  0  0  0  0  0  0  0  0  0  0  0
    7.8335    0.8763   -3.3974 F   0  0  0  0  0  0  0  0  0  0  0  0
    1.8512   -0.3101   -1.9025 C   0  0  0  0  0  0  0  0  0  0  0  0
    0.9465   -1.5230   -1.8364 C   0  0  0  0  0  0  0  0  0  0  0  0
   -0.4451   -1.0788   -1.3541 C   0  0  0  0  0  0  0  0  0  0  0  0
   -2.5478   -0.8378    1.2178 C   0  0  0  0  0  0  0  0  0  0  0  0
   -3.0270   -0.7507    2.4043 O   0  0  0  0  0  0  0  0  0  0  0  0
   -3.4272   -1.3210    0.2357 N   0  0  0  0  0  0  0  0  0  0  0  0
   -4.7973   -1.6953    0.6082 C   0  0  1  0  0  0  0  0  0  0  0  0
   -5.7047   -0.8446   -0.1965 C   0  0  0  0  0  0  0  0  0  0  0  0
   -5.4814   -0.6550   -1.5372 C   0  0  0  0  0  0  0  0  0  0  0  0
   -6.3532    0.1488   -2.2540 C   0  0  0  0  0  0  0  0  0  0  0  0
   -7.4293    0.7514   -1.6375 C   0  0  0  0  0  0  0  0  0  0  0  0
   -7.6069    0.5265   -0.2867 C   0  0  0  0  0  0  0  0  0  0  0  0
   -6.7656   -0.2545    0.4253 N   0  0  0  0  0  0  0  0  0  0  0  0
   -4.9389   -3.1561    0.2712 C   0  0  0  0  0  0  0  0  0  0  0  0
    2.7588    4.1508    3.5464 H   0  0  0  0  0  0  0  0  0  0  0  0
    1.2022    3.1194    1.9057 H   0  0  0  0  0  0  0  0  0  0  0  0
    3.8142    0.3277    5.0149 H   0  0  0  0  0  0  0  0  0  0  0  0
    3.4102    0.9251    0.8874 H   0  0  0  0  0  0  0  0  0  0  0  0
    3.4529    1.5793   -2.7147 H   0  0  0  0  0  0  0  0  0  0  0  0
    5.4067    1.6775   -4.1113 H   0  0  0  0  0  0  0  0  0  0  0  0
    7.7064   -0.0415   -0.9255 H   0  0  0  0  0  0  0  0  0  0  0  0
    5.7270   -0.1399    0.4549 H   0  0  0  0  0  0  0  0  0  0  0  0
    2.8099   -0.6633   -2.3485 H   0  0  0  0  0  0  0  0  0  0  0  0
    1.3664    0.4776   -2.4783 H   0  0  0  0  0  0  0  0  0  0  0  0
    1.3750   -2.2289   -1.0882 H   0  0  0  0  0  0  0  0  0  0  0  0
    0.9056   -1.9529   -2.8575 H   0  0  0  0  0  0  0  0  0  0  0  0
   -1.0470   -2.0157   -1.3932 H   0  0  0  0  0  0  0  0  0  0  0  0
   -0.7730   -0.2903   -2.0424 H   0  0  0  0  0  0  0  0  0  0  0  0
   -3.1318   -1.4077   -0.7470 H   0  0  0  0  0  0  0  0  0  0  0  0
   -4.9741   -1.5394    1.6796 H   0  0  0  0  0  0  0  0  0  0  0  0
   -4.6547   -1.1018   -2.0715 H   0  0  0  0  0  0  0  0  0  0  0  0
   -6.2298    0.3370   -3.3174 H   0  0  0  0  0  0  0  0  0  0  0  0
   -8.1343    1.3795   -2.1321 H   0  0  0  0  0  0  0  0  0  0  0  0
   -8.4376    0.9819    0.2239 H   0  0  0  0  0  0  0  0  0  0  0  0
   -4.0804   -3.6929    0.6802 H   0  0  0  0  0  0  0  0  0  0  0  0
   -5.8787   -3.6032    0.6286 H   0  0  0  0  0  0  0  0  0  0  0  0
   -4.8930   -3.2609   -0.8408 H   0  0  0  0  0  0  0  0  0  0  0  0
  1  2  1  0
  2  3  2  0
  3  4  1  0
  4  5  2  0
  5  6  1  0
  6  7  2  0
  6  8  1  0
  5  9  1  0
  9 10  1  0
 10 11  2  0
 11 12  1  0
 12 13  2  0
 13 14  1  0
 14 15  2  0
 15 16  1  0
 16 17  2  0
 17 18  1  0
 18 19  2  0
 19 20  1  0
 20 21  2  0
 19 22  1  0
 14 23  1  0
 23 24  1  0
 24 25  1  0
 11 26  1  0
 26 27  2  0
 26 28  1  0
 28 29  1  0
 29 30  1  0
 30 31  2  0
 31 32  1  0
 32 33  2  0
 33 34  1  0
 34 35  2  0
 29 36  1  0
  7  2  1  0
 13  9  1  0
 21 16  1  0
 35 30  1  0
 25 12  1  0
  3 37  1  0
  4 38  1  0
  7 39  1  0
 15 40  1  0
 17 41  1  0
 18 42  1  0
 20 43  1  0
 21 44  1  0
 23 45  1  0
 23 46  1  0
 24 47  1  0
 24 48  1  0
 25 49  1  0
 25 50  1  0
 28 51  1  0
 29 52  1  1
 31 53  1  0
 32 54  1  0
 33 55  1  0
 34 56  1  0
 36 57  1  0
 36 58  1  0
 36 59  1  0
M  END
>  <Ligand ID>  (1) 
LIG0005418

>  <Ligand>  (1) 
CHEMBL3958380

>  <SMILES>  (1) 
Clc1ccc(c(c1)Cl)n1nc(c2c1/C(=C/c1ccc(cc1)F)/CCC2)C(=O)N[C@@H](c1ccccn1)C

>  <CID>  (1) 
134155237.0

>  <ChEMBL ID>  (1) 
nan

>  <InChiKey>  (1) 
IYOAMTWFZGWWSB-VXNZKSKFSA-N

>  <InChi>  (1) 
InChI=1S/C28H23Cl2FN4O/c1-17(24-7-2-3-14-32-24)33-28(36)26-22-6-4-5-19(15-18-8-11-21(31)12-9-18)27(22)35(34-26)25-13-10-20(29)16-23(25)30/h2-3,7-17H,4-6H2,1H3,(H,33,36)/b19-15+/t17-/m1/s1

>  <IUPAC Name>  (1) 
(7E)-1-(2,4-dichlorophenyl)-7-[(4-fluorophenyl)methylidene]-N-[(1R)-1-pyridin-2-ylethyl]-5,6-dihydro-4H-indazole-3-carboxamide

$$$$
