
     RDKit          3D

 75 79  0  0  0  0  0  0  0  0999 V2000
   -5.5966   -6.5622    2.6868 C   0  0  0  0  0  0  0  0  0  0  0  0
   -5.7947   -5.1927    2.3026 O   0  0  0  0  0  0  0  0  0  0  0  0
   -4.8033   -4.5452    1.5860 C   0  0  0  0  0  0  0  0  0  0  0  0
   -4.9703   -3.2225    1.2029 C   0  0  0  0  0  0  0  0  0  0  0  0
   -4.0123   -2.5307    0.4876 C   0  0  0  0  0  0  0  0  0  0  0  0
   -2.8508   -3.1410    0.1298 C   0  0  0  0  0  0  0  0  0  0  0  0
   -2.6729   -4.4777    0.5120 C   0  0  0  0  0  0  0  0  0  0  0  0
   -3.6370   -5.1541    1.2253 C   0  0  0  0  0  0  0  0  0  0  0  0
   -1.7486   -2.5457   -0.6015 C   0  0  0  0  0  0  0  0  0  0  0  0
   -1.2485   -1.3494   -0.3686 C   0  0  0  0  0  0  0  0  0  0  0  0
   -1.7828   -0.4431    0.7130 C   0  0  0  0  0  0  0  0  0  0  0  0
   -0.7075    0.4970    0.9834 N   0  0  0  0  0  0  0  0  0  0  0  0
    0.7095    0.1104    0.8424 C   0  0  0  0  0  0  0  0  0  0  0  0
    0.9285   -0.1899   -0.5851 C   0  0  0  0  0  0  0  0  0  0  0  0
   -0.1088   -0.9269   -1.1978 C   0  0  0  0  0  0  0  0  0  0  0  0
    0.2209   -1.0914   -2.4659 N   0  0  0  0  0  0  0  0  0  0  0  0
    1.3872   -0.5096   -2.6789 N   0  0  0  0  0  0  0  0  0  0  0  0
    1.8680    0.0614   -1.5457 C   0  0  0  0  0  0  0  0  0  0  0  0
    3.1535    0.7225   -1.4729 C   0  0  0  0  0  0  0  0  0  0  0  0
    3.7002    1.0490   -2.5850 O   0  0  0  0  0  0  0  0  0  0  0  0
    3.8688    1.0408   -0.3189 N   0  0  0  0  0  0  0  0  0  0  0  0
    5.1569    1.7097   -0.3545 C   0  0  1  0  0  0  0  0  0  0  0  0
    5.1762    2.8735    0.5583 C   0  0  0  0  0  0  0  0  0  0  0  0
    4.6494    2.7821    1.8245 C   0  0  0  0  0  0  0  0  0  0  0  0
    4.6445    3.8409    2.7259 C   0  0  0  0  0  0  0  0  0  0  0  0
    5.2060    5.0538    2.3131 C   0  0  0  0  0  0  0  0  0  0  0  0
    5.7331    5.1307    1.0366 C   0  0  0  0  0  0  0  0  0  0  0  0
    5.7156    4.0749    0.1936 N   0  0  0  0  0  0  0  0  0  0  0  0
    6.2727    0.7759    0.0777 C   0  0  0  0  0  0  0  0  0  0  0  0
   -0.6046   -1.8039   -3.4048 C   0  0  0  0  0  0  0  0  0  0  0  0
   -1.8808   -1.2741   -3.6216 C   0  0  0  0  0  0  0  0  0  0  0  0
   -2.6851   -1.9436   -4.5218 C   0  0  0  0  0  0  0  0  0  0  0  0
   -2.2624   -3.0909   -5.1888 C   0  0  0  0  0  0  0  0  0  0  0  0
   -0.9985   -3.5975   -4.9607 C   0  0  0  0  0  0  0  0  0  0  0  0
   -0.1746   -2.9362   -4.0572 C   0  0  0  0  0  0  0  0  0  0  0  0
    1.4461   -3.5078   -3.7045 Cl  0  0  0  0  0  0  0  0  0  0  0  0
   -3.3226   -3.9133   -6.3252 Cl  0  0  0  0  0  0  0  0  0  0  0  0
   -1.0897    1.8200    1.3856 C   0  0  0  0  0  0  0  0  0  0  0  0
   -2.3165    2.0271    1.4796 O   0  0  0  0  0  0  0  0  0  0  0  0
   -0.0204    2.7788    1.6413 C   0  0  0  0  0  0  0  0  0  0  0  0
   -0.5257    4.1704    1.8027 C   0  0  0  0  0  0  0  0  0  0  0  0
   -1.3253    4.8268    0.3853 S   0  0  0  0  0  0  0  0  0  0  0  0
   -2.5092    4.0411   -0.0637 O   0  0  0  0  0  0  0  0  0  0  0  0
   -0.3088    4.8952   -0.7180 O   0  0  0  0  0  0  0  0  0  0  0  0
   -1.8407    6.4609    0.7174 N   0  0  0  0  0  0  0  0  0  0  0  0
   -6.5332   -7.0378    3.0277 H   0  0  0  0  0  0  0  0  0  0  0  0
   -5.2108   -7.1543    1.8442 H   0  0  0  0  0  0  0  0  0  0  0  0
   -4.8188   -6.6107    3.5000 H   0  0  0  0  0  0  0  0  0  0  0  0
   -5.8878   -2.6935    1.4689 H   0  0  0  0  0  0  0  0  0  0  0  0
   -4.2101   -1.5109    0.2166 H   0  0  0  0  0  0  0  0  0  0  0  0
   -1.7723   -5.0182    0.2583 H   0  0  0  0  0  0  0  0  0  0  0  0
   -3.4548   -6.1910    1.5031 H   0  0  0  0  0  0  0  0  0  0  0  0
   -1.3294   -3.1603   -1.4000 H   0  0  0  0  0  0  0  0  0  0  0  0
   -2.6394    0.1796    0.3197 H   0  0  0  0  0  0  0  0  0  0  0  0
   -2.1067   -0.9954    1.5897 H   0  0  0  0  0  0  0  0  0  0  0  0
    0.7962   -0.8198    1.4708 H   0  0  0  0  0  0  0  0  0  0  0  0
    1.3312    0.8811    1.2814 H   0  0  0  0  0  0  0  0  0  0  0  0
    3.5033    0.7935    0.6181 H   0  0  0  0  0  0  0  0  0  0  0  0
    5.4225    2.0287   -1.3797 H   0  0  0  0  0  0  0  0  0  0  0  0
    4.1930    1.8636    2.2109 H   0  0  0  0  0  0  0  0  0  0  0  0
    4.2188    3.7422    3.7248 H   0  0  0  0  0  0  0  0  0  0  0  0
    5.2044    5.8798    3.0080 H   0  0  0  0  0  0  0  0  0  0  0  0
    6.1589    6.0697    0.7456 H   0  0  0  0  0  0  0  0  0  0  0  0
    7.0791    1.4048    0.5035 H   0  0  0  0  0  0  0  0  0  0  0  0
    5.9241    0.1129    0.9090 H   0  0  0  0  0  0  0  0  0  0  0  0
    6.7008    0.2057   -0.7598 H   0  0  0  0  0  0  0  0  0  0  0  0
   -2.2026   -0.3800   -3.0970 H   0  0  0  0  0  0  0  0  0  0  0  0
   -3.6762   -1.5452   -4.7017 H   0  0  0  0  0  0  0  0  0  0  0  0
   -0.6304   -4.4928   -5.4634 H   0  0  0  0  0  0  0  0  0  0  0  0
    0.5432    2.5271    2.5667 H   0  0  0  0  0  0  0  0  0  0  0  0
    0.7072    2.7130    0.7801 H   0  0  0  0  0  0  0  0  0  0  0  0
   -1.2797    4.2282    2.6418 H   0  0  0  0  0  0  0  0  0  0  0  0
    0.2715    4.8861    2.1049 H   0  0  0  0  0  0  0  0  0  0  0  0
   -2.8770    6.4892    0.8146 H   0  0  0  0  0  0  0  0  0  0  0  0
   -1.4622    6.8112    1.6210 H   0  0  0  0  0  0  0  0  0  0  0  0
  1  2  1  0
  2  3  1  0
  3  4  2  0
  4  5  1  0
  5  6  2  0
  6  7  1  0
  7  8  2  0
  6  9  1  0
  9 10  2  0
 10 11  1  0
 11 12  1  0
 12 13  1  0
 13 14  1  0
 14 15  2  0
 15 16  1  0
 16 17  1  0
 17 18  2  0
 18 19  1  0
 19 20  2  0
 19 21  1  0
 21 22  1  0
 22 23  1  0
 23 24  2  0
 24 25  1  0
 25 26  2  0
 26 27  1  0
 27 28  2  0
 22 29  1  0
 16 30  1  0
 30 31  2  0
 31 32  1  0
 32 33  2  0
 33 34  1  0
 34 35  2  0
 35 36  1  0
 33 37  1  0
 12 38  1  0
 38 39  2  0
 38 40  1  0
 40 41  1  0
 41 42  1  0
 42 43  2  0
 42 44  2  0
 42 45  1  0
  8  3  1  0
 15 10  1  0
 28 23  1  0
 35 30  1  0
 18 14  1  0
  1 46  1  0
  1 47  1  0
  1 48  1  0
  4 49  1  0
  5 50  1  0
  7 51  1  0
  8 52  1  0
  9 53  1  0
 11 54  1  0
 11 55  1  0
 13 56  1  0
 13 57  1  0
 21 58  1  0
 22 59  1  6
 24 60  1  0
 25 61  1  0
 26 62  1  0
 27 63  1  0
 29 64  1  0
 29 65  1  0
 29 66  1  0
 31 67  1  0
 32 68  1  0
 34 69  1  0
 40 70  1  0
 40 71  1  0
 41 72  1  0
 41 73  1  0
 45 74  1  0
 45 75  1  0
M  END
>  <Ligand ID>  (1) 
LIG0005441

>  <Ligand>  (1) 
CHEMBL3924597

>  <SMILES>  (1) 
COc1ccc(cc1)/C=C/1\CN(Cc2c1n(nc2C(=O)N[C@@H](c1ccccn1)C)c1ccc(cc1Cl)Cl)C(=O)CCS(=O)(=O)N

>  <CID>  (1) 
134141929.0

>  <ChEMBL ID>  (1) 
nan

>  <InChiKey>  (1) 
KIIXHWREEFBHTH-DDNKWHRWSA-N

>  <InChi>  (1) 
InChI=1S/C31H30Cl2N6O5S/c1-19(26-5-3-4-13-35-26)36-31(41)29-24-18-38(28(40)12-14-45(34,42)43)17-21(15-20-6-9-23(44-2)10-7-20)30(24)39(37-29)27-11-8-22(32)16-25(27)33/h3-11,13,15-16,19H,12,14,17-18H2,1-2H3,(H,36,41)(H2,34,42,43)/b21-15+/t19-/m1/s1

>  <IUPAC Name>  (1) 
(7E)-1-(2,4-dichlorophenyl)-7-[(4-methoxyphenyl)methylidene]-N-[(1R)-1-pyridin-2-ylethyl]-5-(3-sulfamoylpropanoyl)-4,6-dihydropyrazolo[4,3-c]pyridine-3-carboxamide

$$$$
