
     RDKit          3D

 22 21  0  0  0  0  0  0  0  0999 V2000
   -3.3976    0.2657    0.1106 C   0  0  0  0  0  0  0  0  0  0  0  0
   -2.0516    0.6947    0.6587 C   0  0  0  0  0  0  0  0  0  0  0  0
   -1.0273   -0.1453   -0.0197 C   0  0  0  0  0  0  0  0  0  0  0  0
    0.3969    0.1652    0.4237 C   0  0  0  0  0  0  0  0  0  0  0  0
    1.2422   -0.7812   -0.3783 C   0  0  0  0  0  0  0  0  0  0  0  0
    2.7128   -0.7186   -0.1386 C   0  0  0  0  0  0  0  0  0  0  0  0
    3.3645    0.5613   -0.4231 C   0  0  0  0  0  0  0  0  0  0  0  0
    2.9202    1.6275    0.0507 O   0  0  0  0  0  0  0  0  0  0  0  0
   -3.4940    0.6509   -0.9197 H   0  0  0  0  0  0  0  0  0  0  0  0
   -4.2413    0.5507    0.7754 H   0  0  0  0  0  0  0  0  0  0  0  0
   -3.4214   -0.8594    0.0245 H   0  0  0  0  0  0  0  0  0  0  0  0
   -2.0431    0.5650    1.7671 H   0  0  0  0  0  0  0  0  0  0  0  0
   -1.9362    1.7816    0.4188 H   0  0  0  0  0  0  0  0  0  0  0  0
   -1.2190   -1.2079    0.2895 H   0  0  0  0  0  0  0  0  0  0  0  0
   -1.1436   -0.0187   -1.1152 H   0  0  0  0  0  0  0  0  0  0  0  0
    0.4750   -0.0805    1.4833 H   0  0  0  0  0  0  0  0  0  0  0  0
    0.6501    1.2161    0.1869 H   0  0  0  0  0  0  0  0  0  0  0  0
    0.9794   -0.6229   -1.4574 H   0  0  0  0  0  0  0  0  0  0  0  0
    0.8878   -1.8155   -0.1696 H   0  0  0  0  0  0  0  0  0  0  0  0
    2.9149   -0.9555    0.9368 H   0  0  0  0  0  0  0  0  0  0  0  0
    3.1899   -1.5194   -0.7277 H   0  0  0  0  0  0  0  0  0  0  0  0
    4.2413    0.6462   -1.0516 H   0  0  0  0  0  0  0  0  0  0  0  0
  1  2  1  0
  2  3  1  0
  3  4  1  0
  4  5  1  0
  5  6  1  0
  6  7  1  0
  7  8  2  0
  1  9  1  0
  1 10  1  0
  1 11  1  0
  2 12  1  0
  2 13  1  0
  3 14  1  0
  3 15  1  0
  4 16  1  0
  4 17  1  0
  5 18  1  0
  5 19  1  0
  6 20  1  0
  6 21  1  0
  7 22  1  0
M  END
>  <Ligand ID>  (1) 
LIG0000080

>  <Ligand>  (1) 
heptanal

>  <SMILES>  (1) 
CCCCCCC=O

>  <CID>  (1) 
8130.0

>  <ChEMBL ID>  (1) 
nan

>  <InChiKey>  (1) 
FXHGMKSSBGDXIY-UHFFFAOYSA-N

>  <InChi>  (1) 
InChI=1S/C7H14O/c1-2-3-4-5-6-7-8/h7H,2-6H2,1H3

>  <IUPAC Name>  (1) 
heptanal

$$$$
