
     RDKit          3D

 42 44  0  0  0  0  0  0  0  0999 V2000
   -3.5135    2.3637    0.4040 C   0  0  0  0  0  0  0  0  0  0  0  0
   -3.4237    0.8738    0.0792 C   0  0  0  0  0  0  0  0  0  0  0  0
   -2.4333    0.6481   -0.9579 N   0  0  0  0  0  0  0  0  0  0  0  0
   -2.4545    1.3616   -2.0953 N   0  0  0  0  0  0  0  0  0  0  0  0
   -1.4556    0.9895   -2.9007 C   0  0  0  0  0  0  0  0  0  0  0  0
   -0.7897   -0.0155   -2.1994 C   0  0  0  0  0  0  0  0  0  0  0  0
   -1.4059   -0.2226   -0.9876 C   0  0  0  0  0  0  0  0  0  0  0  0
   -1.0644   -1.1543    0.0784 C   0  0  0  0  0  0  0  0  0  0  0  0
   -2.0545   -1.9456    0.6351 C   0  0  0  0  0  0  0  0  0  0  0  0
   -1.7944   -2.8502    1.6575 C   0  0  0  0  0  0  0  0  0  0  0  0
   -0.5246   -2.9901    2.1564 C   0  0  0  0  0  0  0  0  0  0  0  0
    0.4617   -2.2006    1.6010 C   0  0  0  0  0  0  0  0  0  0  0  0
    0.2077   -1.3008    0.5859 C   0  0  0  0  0  0  0  0  0  0  0  0
    1.2784   -0.5127    0.0853 N   0  0  0  0  0  0  0  0  0  0  0  0
    2.6288   -0.6750    0.6238 C   0  0  0  0  0  0  0  0  0  0  0  0
    3.6121    0.2152   -0.0048 C   0  0  0  0  0  0  0  0  0  0  0  0
    3.3167    1.0592   -0.9416 N   0  0  0  0  0  0  0  0  0  0  0  0
    4.4872    1.7873   -1.3541 C   0  0  0  0  0  0  0  0  0  0  0  0
    5.6534    0.9744   -0.7982 C   0  0  0  0  0  0  0  0  0  0  0  0
    4.9989    0.2840    0.3107 N   0  0  0  0  0  0  0  0  0  0  0  0
   -4.7684    0.3555   -0.3619 C   0  0  0  0  0  0  0  0  0  0  0  0
   -3.7474    2.9439   -0.5009 H   0  0  0  0  0  0  0  0  0  0  0  0
   -4.3166    2.4994    1.1515 H   0  0  0  0  0  0  0  0  0  0  0  0
   -2.5406    2.7035    0.7881 H   0  0  0  0  0  0  0  0  0  0  0  0
   -3.1358    0.3790    1.0101 H   0  0  0  0  0  0  0  0  0  0  0  0
   -1.2146    1.3848   -3.8884 H   0  0  0  0  0  0  0  0  0  0  0  0
    0.0672   -0.5202   -2.6019 H   0  0  0  0  0  0  0  0  0  0  0  0
   -3.0926   -1.9098    0.3077 H   0  0  0  0  0  0  0  0  0  0  0  0
   -2.5693   -3.4666    2.0902 H   0  0  0  0  0  0  0  0  0  0  0  0
   -0.2884   -3.6801    2.9463 H   0  0  0  0  0  0  0  0  0  0  0  0
    1.4549   -2.3179    1.9995 H   0  0  0  0  0  0  0  0  0  0  0  0
    1.1815    0.2065   -0.6608 H   0  0  0  0  0  0  0  0  0  0  0  0
    2.9112   -1.7461    0.4130 H   0  0  0  0  0  0  0  0  0  0  0  0
    2.6739   -0.4956    1.7120 H   0  0  0  0  0  0  0  0  0  0  0  0
    4.4873    2.7785   -0.8824 H   0  0  0  0  0  0  0  0  0  0  0  0
    4.5842    1.8807   -2.4409 H   0  0  0  0  0  0  0  0  0  0  0  0
    6.4697    1.6007   -0.4156 H   0  0  0  0  0  0  0  0  0  0  0  0
    5.9802    0.2006   -1.5187 H   0  0  0  0  0  0  0  0  0  0  0  0
    5.4508   -0.0920    1.1750 H   0  0  0  0  0  0  0  0  0  0  0  0
   -4.6662   -0.1625   -1.3399 H   0  0  0  0  0  0  0  0  0  0  0  0
   -5.5115    1.1787   -0.4067 H   0  0  0  0  0  0  0  0  0  0  0  0
   -5.1406   -0.4103    0.3464 H   0  0  0  0  0  0  0  0  0  0  0  0
  1  2  1  0
  2  3  1  0
  3  4  1  0
  4  5  2  0
  5  6  1  0
  6  7  2  0
  7  8  1  0
  8  9  2  0
  9 10  1  0
 10 11  2  0
 11 12  1  0
 12 13  2  0
 13 14  1  0
 14 15  1  0
 15 16  1  0
 16 17  2  0
 17 18  1  0
 18 19  1  0
 19 20  1  0
  2 21  1  0
  7  3  1  0
 13  8  1  0
 20 16  1  0
  1 22  1  0
  1 23  1  0
  1 24  1  0
  2 25  1  0
  5 26  1  0
  6 27  1  0
  9 28  1  0
 10 29  1  0
 11 30  1  0
 12 31  1  0
 14 32  1  0
 15 33  1  0
 15 34  1  0
 18 35  1  0
 18 36  1  0
 19 37  1  0
 19 38  1  0
 20 39  1  0
 21 40  1  0
 21 41  1  0
 21 42  1  0
M  END
>  <Ligand ID>  (1) 
LIG0003481

>  <Ligand>  (1) 
CHEMBL18303

>  <SMILES>  (1) 
CC(n1nccc1c1ccccc1NCC1=NCCN1)C

>  <CID>  (1) 
22493387.0

>  <ChEMBL ID>  (1) 
nan

>  <InChiKey>  (1) 
APTMFOIALVJASZ-UHFFFAOYSA-N

>  <InChi>  (1) 
InChI=1S/C16H21N5/c1-12(2)21-15(7-8-20-21)13-5-3-4-6-14(13)19-11-16-17-9-10-18-16/h3-8,12,19H,9-11H2,1-2H3,(H,17,18)

>  <IUPAC Name>  (1) 
N-(4,5-dihydro-1H-imidazol-2-ylmethyl)-2-(2-propan-2-ylpyrazol-3-yl)aniline

$$$$
