
     RDKit          3D

 80 80  0  0  0  0  0  0  0  0999 V2000
   -5.5308   -2.0707    0.0097 O   0  0  0  0  0  0  0  0  0  0  0  0
   -4.3337   -2.3873   -0.0229 C   0  0  0  0  0  0  0  0  0  0  0  0
   -3.1659   -1.6247   -0.3602 C   0  0  0  0  0  0  0  0  0  0  0  0
   -2.0828   -2.3884   -0.8531 C   0  0  0  0  0  0  0  0  0  0  0  0
   -0.9133   -1.8340   -1.2898 C   0  0  0  0  0  0  0  0  0  0  0  0
   -0.7871   -0.4820   -1.2485 C   0  0  0  0  0  0  0  0  0  0  0  0
   -1.8186    0.2600   -0.7779 C   0  0  0  0  0  0  0  0  0  0  0  0
   -3.0490   -0.2601   -0.3127 C   0  0  0  0  0  0  0  0  0  0  0  0
   -3.9609    0.6697    0.1605 N   0  0  0  0  0  0  0  0  0  0  0  0
   -5.2772    0.7207    0.6766 C   0  0  0  0  0  0  0  0  0  0  0  0
   -6.3150    0.7284   -0.3879 C   0  0  0  0  0  0  0  0  0  0  0  0
   -6.7969    2.0495   -0.8647 C   0  0  0  0  0  0  0  0  0  0  0  0
   -6.9905    3.1027    0.1726 C   0  0  0  0  0  0  0  0  0  0  0  0
   -5.6313    3.2176    0.8817 C   0  0  0  0  0  0  0  0  0  0  0  0
   -5.4524    1.9403    1.6200 C   0  0  0  0  0  0  0  0  0  0  0  0
    0.4540    0.1241   -1.7117 C   0  0  0  0  0  0  0  0  0  0  0  0
    1.2175   -0.4234   -2.7229 C   0  0  0  0  0  0  0  0  0  0  0  0
    2.3865    0.1808   -3.1348 C   0  0  0  0  0  0  0  0  0  0  0  0
    2.8465    1.3631   -2.5527 C   0  0  0  0  0  0  0  0  0  0  0  0
    2.0646    1.8905   -1.5433 C   0  0  0  0  0  0  0  0  0  0  0  0
    0.8912    1.3049   -1.1135 C   0  0  0  0  0  0  0  0  0  0  0  0
    4.1041    2.0097   -3.0013 C   0  0  0  0  0  0  0  0  0  0  0  0
    5.3242    1.5534   -2.2653 C   0  0  0  0  0  0  0  0  0  0  0  0
    5.2039    1.8324   -0.8656 N   0  0  0  0  0  0  0  0  0  0  0  0
    6.3514    1.4264   -0.1073 C   0  0  0  0  0  0  0  0  0  0  0  0
    6.5309   -0.0637   -0.0337 C   0  0  1  0  0  0  0  0  0  0  0  0
    7.7354   -0.3274    0.8176 C   0  0  0  0  0  0  0  0  0  0  0  0
    7.6960   -0.1876    2.1891 C   0  0  0  0  0  0  0  0  0  0  0  0
    8.8343   -0.4409    2.9374 C   0  0  0  0  0  0  0  0  0  0  0  0
   10.0176   -0.8332    2.3397 C   0  0  0  0  0  0  0  0  0  0  0  0
   10.0405   -0.9656    0.9968 N   0  0  0  0  0  0  0  0  0  0  0  0
    8.9276   -0.7190    0.2531 C   0  0  0  0  0  0  0  0  0  0  0  0
    5.4438   -0.6614    0.5566 O   0  0  0  0  0  0  0  0  0  0  0  0
   -4.1353   -3.7698    0.3634 N   0  0  0  0  0  0  0  0  0  0  0  0
   -5.6070   -4.6239    0.7644 S   0  0  0  0  0  0  0  0  0  0  0  0
   -6.7570   -4.0700   -0.0085 O   0  0  0  0  0  0  0  0  0  0  0  0
   -5.4798   -6.0594    0.4316 O   0  0  0  0  0  0  0  0  0  0  0  0
   -5.9444   -4.4655    2.5038 C   0  0  0  0  0  0  0  0  0  0  0  0
    0.6845    0.0000    0.0000 Cl  0  0  0  0  0  0  0  0  0  0  0  0
    0.6868    0.0000    0.0000 Cl  0  0  0  0  0  0  0  0  0  0  0  0
    0.6904    0.0000    0.0000 Cl  0  0  0  0  0  0  0  0  0  0  0  0
   -2.1443   -3.4728   -0.9190 H   0  0  0  0  0  0  0  0  0  0  0  0
   -0.1134   -2.4400   -1.6561 H   0  0  0  0  0  0  0  0  0  0  0  0
   -1.6424    1.3505   -0.7771 H   0  0  0  0  0  0  0  0  0  0  0  0
   -3.5599    1.6935    0.1410 H   0  0  0  0  0  0  0  0  0  0  0  0
   -5.4495   -0.1089    1.3784 H   0  0  0  0  0  0  0  0  0  0  0  0
   -7.1857    0.1081   -0.1112 H   0  0  0  0  0  0  0  0  0  0  0  0
   -5.8704    0.2293   -1.3084 H   0  0  0  0  0  0  0  0  0  0  0  0
   -7.8020    1.8913   -1.3508 H   0  0  0  0  0  0  0  0  0  0  0  0
   -6.1727    2.4919   -1.6704 H   0  0  0  0  0  0  0  0  0  0  0  0
   -7.2401    4.0478   -0.3436 H   0  0  0  0  0  0  0  0  0  0  0  0
   -7.7542    2.8922    0.9307 H   0  0  0  0  0  0  0  0  0  0  0  0
   -4.8601    3.4373    0.1407 H   0  0  0  0  0  0  0  0  0  0  0  0
   -5.7233    4.0322    1.5970 H   0  0  0  0  0  0  0  0  0  0  0  0
   -6.3030    1.7734    2.2910 H   0  0  0  0  0  0  0  0  0  0  0  0
   -4.5263    1.9808    2.2281 H   0  0  0  0  0  0  0  0  0  0  0  0
    0.8826   -1.3319   -3.1844 H   0  0  0  0  0  0  0  0  0  0  0  0
    2.9916   -0.2416   -3.9277 H   0  0  0  0  0  0  0  0  0  0  0  0
    2.3583    2.8101   -1.0413 H   0  0  0  0  0  0  0  0  0  0  0  0
    0.3111    1.7541   -0.3189 H   0  0  0  0  0  0  0  0  0  0  0  0
    3.9502    3.1196   -2.8681 H   0  0  0  0  0  0  0  0  0  0  0  0
    4.2492    1.9021   -4.1070 H   0  0  0  0  0  0  0  0  0  0  0  0
    5.4533    0.4759   -2.4877 H   0  0  0  0  0  0  0  0  0  0  0  0
    6.1698    2.1663   -2.6476 H   0  0  0  0  0  0  0  0  0  0  0  0
    4.3128    1.4404   -0.4825 H   0  0  0  0  0  0  0  0  0  0  0  0
    7.2452    1.9118   -0.5609 H   0  0  0  0  0  0  0  0  0  0  0  0
    6.2454    1.8125    0.9325 H   0  0  0  0  0  0  0  0  0  0  0  0
    6.7091   -0.5066   -1.0352 H   0  0  0  0  0  0  0  0  0  0  0  0
    6.7814    0.1193    2.6906 H   0  0  0  0  0  0  0  0  0  0  0  0
    8.8575   -0.3462    4.0185 H   0  0  0  0  0  0  0  0  0  0  0  0
   10.9148   -1.0313    2.9416 H   0  0  0  0  0  0  0  0  0  0  0  0
    9.0431   -0.8509   -0.8089 H   0  0  0  0  0  0  0  0  0  0  0  0
    4.9983   -1.3303   -0.0288 H   0  0  0  0  0  0  0  0  0  0  0  0
   -3.2358   -4.2476    0.4239 H   0  0  0  0  0  0  0  0  0  0  0  0
   -6.6055   -3.6013    2.7010 H   0  0  0  0  0  0  0  0  0  0  0  0
   -6.3748   -5.3976    2.9280 H   0  0  0  0  0  0  0  0  0  0  0  0
   -4.9515   -4.2498    2.9961 H   0  0  0  0  0  0  0  0  0  0  0  0
   -0.6845    0.0000    0.0000 H   0  0  0  0  0  0  0  0  0  0  0  0
   -0.6868    0.0000    0.0000 H   0  0  0  0  0  0  0  0  0  0  0  0
   -0.6904    0.0000    0.0000 H   0  0  0  0  0  0  0  0  0  0  0  0
  1  2  2  0
  2  3  1  0
  3  4  2  0
  4  5  1  0
  5  6  2  0
  6  7  1  0
  7  8  2  0
  8  9  1  0
  9 10  1  0
 10 11  1  0
 11 12  1  0
 12 13  1  0
 13 14  1  0
 14 15  1  0
  6 16  1  0
 16 17  2  0
 17 18  1  0
 18 19  2  0
 19 20  1  0
 20 21  2  0
 19 22  1  0
 22 23  1  0
 23 24  1  0
 24 25  1  0
 25 26  1  0
 26 27  1  0
 27 28  2  0
 28 29  1  0
 29 30  2  0
 30 31  1  0
 31 32  2  0
 26 33  1  0
  2 34  1  0
 34 35  1  0
 35 36  2  0
 35 37  2  0
 35 38  1  0
  8  3  1  0
 15 10  1  0
 21 16  1  0
 32 27  1  0
  4 42  1  0
  5 43  1  0
  7 44  1  0
  9 45  1  0
 10 46  1  0
 11 47  1  0
 11 48  1  0
 12 49  1  0
 12 50  1  0
 13 51  1  0
 13 52  1  0
 14 53  1  0
 14 54  1  0
 15 55  1  0
 15 56  1  0
 17 57  1  0
 18 58  1  0
 20 59  1  0
 21 60  1  0
 22 61  1  0
 22 62  1  0
 23 63  1  0
 23 64  1  0
 24 65  1  0
 25 66  1  0
 25 67  1  0
 26 68  1  6
 28 69  1  0
 29 70  1  0
 30 71  1  0
 32 72  1  0
 33 73  1  0
 34 74  1  0
 38 75  1  0
 38 76  1  0
 38 77  1  0
 39 78  1  0
 40 79  1  0
 41 80  1  0
M  END
>  <Ligand ID>  (1) 
LIG0004930

>  <Ligand>  (1) 
CHEMBL452696

>  <SMILES>  (1) 
O=C(c1ccc(cc1NC1CCCCC1)c1ccc(cc1)CCNC[C@@H](c1cccnc1)O)NS(=O)(=O)C.Cl.Cl.Cl

>  <CID>  (1) 
42639493.0

>  <ChEMBL ID>  (1) 
nan

>  <InChiKey>  (1) 
YZKKOFUGVBFEQP-FPCIESGBSA-N

>  <InChi>  (1) 
InChI=1S/C29H36N4O4S.3ClH/c1-38(36,37)33-29(35)26-14-13-23(18-27(26)32-25-7-3-2-4-8-25)22-11-9-21(10-12-22)15-17-31-20-28(34)24-6-5-16-30-19-24;;;/h5-6,9-14,16,18-19,25,28,31-32,34H,2-4,7-8,15,17,20H2,1H3,(H,33,35);3*1H/t28-;;;/m0.../s1

>  <IUPAC Name>  (1) 
2-(cyclohexylamino)-4-[4-[2-[[(2R)-2-hydroxy-2-pyridin-3-ylethyl]amino]ethyl]phenyl]-N-methylsulfonylbenzamide;trihydrochloride

$$$$
