
     RDKit          3D

 22 21  0  0  0  0  0  0  0  0999 V2000
    3.5728    1.1192    0.5581 O   0  0  0  0  0  0  0  0  0  0  0  0
    2.9867    0.2727   -0.3675 C   0  0  0  0  0  0  0  0  0  0  0  0
    3.6883   -0.5899   -0.9928 O   0  0  0  0  0  0  0  0  0  0  0  0
    1.4950    0.3406   -0.6694 C   0  0  0  0  0  0  0  0  0  0  0  0
    0.8657   -0.7218    0.1289 C   0  0  0  0  0  0  0  0  0  0  0  0
   -0.5759   -0.9787    0.0724 C   0  0  0  0  0  0  0  0  0  0  0  0
   -1.5432    0.0838    0.4304 C   0  0  1  0  0  0  0  0  0  0  0  0
   -1.5665    1.2948   -0.3912 C   0  0  0  0  0  0  0  0  0  0  0  0
   -2.1622    2.3117    0.1238 O   0  0  0  0  0  0  0  0  0  0  0  0
   -1.0402    1.4752   -1.6341 O   0  0  0  0  0  0  0  0  0  0  0  0
   -2.8801   -0.4706    0.4562 N   0  0  0  0  0  0  0  0  0  0  0  0
    4.5896    1.1555    0.6603 H   0  0  0  0  0  0  0  0  0  0  0  0
    1.3688    0.2538   -1.7448 H   0  0  0  0  0  0  0  0  0  0  0  0
    1.2446    1.3761   -0.3566 H   0  0  0  0  0  0  0  0  0  0  0  0
    1.2231   -0.6128    1.1898 H   0  0  0  0  0  0  0  0  0  0  0  0
    1.3679   -1.6966   -0.1917 H   0  0  0  0  0  0  0  0  0  0  0  0
   -0.8590   -1.3887   -0.9307 H   0  0  0  0  0  0  0  0  0  0  0  0
   -0.7701   -1.8183    0.8166 H   0  0  0  0  0  0  0  0  0  0  0  0
   -1.3190    0.3748    1.5242 H   0  0  0  0  0  0  0  0  0  0  0  0
   -3.3704   -0.2744   -0.4515 H   0  0  0  0  0  0  0  0  0  0  0  0
   -2.8544   -1.5054    0.5677 H   0  0  0  0  0  0  0  0  0  0  0  0
   -3.4615   -0.0011    1.2020 H   0  0  0  0  0  0  0  0  0  0  0  0
  1  2  1  0
  2  3  2  0
  2  4  1  0
  4  5  1  0
  5  6  1  0
  6  7  1  0
  7  8  1  0
  8  9  2  0
  8 10  1  0
  7 11  1  0
  1 12  1  0
  4 13  1  0
  4 14  1  0
  5 15  1  0
  5 16  1  0
  6 17  1  0
  6 18  1  0
  7 19  1  1
 11 20  1  0
 11 21  1  0
 11 22  1  0
M  CHG  2  10  -1  11   1
M  END
>  <Ligand ID>  (1) 
LIG0000426

>  <Ligand>  (1) 
CID 59066632

>  <SMILES>  (1) 
OC(=O)CCC[C@@H](C(=O)[O-])[NH3+]

>  <CID>  (1) 
59066632.0

>  <ChEMBL ID>  (1) 
nan

>  <InChiKey>  (1) 
OYIFNHCXNCRBQI-BYPYZUCNSA-N

>  <InChi>  (1) 
InChI=1S/C6H11NO4/c7-4(6(10)11)2-1-3-5(8)9/h4H,1-3,7H2,(H,8,9)(H,10,11)/t4-/m0/s1

>  <IUPAC Name>  (1) 
(2S)-2-azaniumyl-6-hydroxy-6-oxohexanoate

$$$$
