
     RDKit          3D

 36 38  0  0  0  0  0  0  0  0999 V2000
    7.0802   -0.8442   -0.7520 C   0  0  0  0  0  0  0  0  0  0  0  0
    6.4645    0.3054    0.0383 C   0  0  0  0  0  0  0  0  0  0  0  0
    5.0631    0.1981   -0.0803 O   0  0  0  0  0  0  0  0  0  0  0  0
    4.1680    1.0665    0.5036 C   0  0  0  0  0  0  0  0  0  0  0  0
    4.6380    2.0134    1.1847 O   0  0  0  0  0  0  0  0  0  0  0  0
    2.7307    0.9619    0.3858 C   0  0  0  0  0  0  0  0  0  0  0  0
    2.1037   -0.0345   -0.3349 C   0  0  0  0  0  0  0  0  0  0  0  0
    0.7403   -0.0482   -0.3864 C   0  0  0  0  0  0  0  0  0  0  0  0
    0.0784   -1.0407   -1.1055 C   0  0  0  0  0  0  0  0  0  0  0  0
   -1.3197   -0.9896   -1.1125 C   0  0  0  0  0  0  0  0  0  0  0  0
   -2.0173   -0.0173   -0.4495 C   0  0  0  0  0  0  0  0  0  0  0  0
   -1.3581    0.9650    0.2623 C   0  0  0  0  0  0  0  0  0  0  0  0
    0.0138    0.9398    0.2867 C   0  0  0  0  0  0  0  0  0  0  0  0
    0.6294    1.8845    0.9707 O   0  0  0  0  0  0  0  0  0  0  0  0
    1.9515    1.9050    1.0258 C   0  0  0  0  0  0  0  0  0  0  0  0
    2.4628    2.8477    1.7051 O   0  0  0  0  0  0  0  0  0  0  0  0
   -3.4156    0.0067   -0.4755 O   0  0  0  0  0  0  0  0  0  0  0  0
   -4.1908   -0.6426    0.4510 C   0  0  0  0  0  0  0  0  0  0  0  0
   -3.5815   -1.2918    1.3694 O   0  0  0  0  0  0  0  0  0  0  0  0
   -5.6521   -0.6087    0.4113 C   0  0  0  0  0  0  0  0  0  0  0  0
   -6.4232    0.0554   -0.5272 C   0  0  0  0  0  0  0  0  0  0  0  0
   -7.7420   -0.2002   -0.1566 C   0  0  0  0  0  0  0  0  0  0  0  0
   -7.6949   -0.9822    0.9536 C   0  0  0  0  0  0  0  0  0  0  0  0
   -6.4413   -1.2064    1.2647 O   0  0  0  0  0  0  0  0  0  0  0  0
    6.4446   -1.7386   -0.7271 H   0  0  0  0  0  0  0  0  0  0  0  0
    7.2358   -0.5448   -1.8038 H   0  0  0  0  0  0  0  0  0  0  0  0
    8.0694   -1.1281   -0.3220 H   0  0  0  0  0  0  0  0  0  0  0  0
    6.8574    1.2752   -0.2975 H   0  0  0  0  0  0  0  0  0  0  0  0
    6.7217    0.1334    1.1082 H   0  0  0  0  0  0  0  0  0  0  0  0
    2.6929   -0.7843   -0.8447 H   0  0  0  0  0  0  0  0  0  0  0  0
    0.6251   -1.8144   -1.6334 H   0  0  0  0  0  0  0  0  0  0  0  0
   -1.8133   -1.7774   -1.6823 H   0  0  0  0  0  0  0  0  0  0  0  0
   -1.8846    1.7435    0.7942 H   0  0  0  0  0  0  0  0  0  0  0  0
   -6.0893    0.6540   -1.3791 H   0  0  0  0  0  0  0  0  0  0  0  0
   -8.6421    0.1450   -0.6416 H   0  0  0  0  0  0  0  0  0  0  0  0
   -8.5057   -1.4066    1.5610 H   0  0  0  0  0  0  0  0  0  0  0  0
  1  2  1  0
  2  3  1  0
  3  4  1  0
  4  5  2  0
  4  6  1  0
  6  7  2  0
  7  8  1  0
  8  9  2  0
  9 10  1  0
 10 11  2  0
 11 12  1  0
 12 13  2  0
 13 14  1  0
 14 15  1  0
 15 16  2  0
 11 17  1  0
 17 18  1  0
 18 19  2  0
 18 20  1  0
 20 21  2  0
 21 22  1  0
 22 23  2  0
 23 24  1  0
 15  6  1  0
 24 20  1  0
 13  8  1  0
  1 25  1  0
  1 26  1  0
  1 27  1  0
  2 28  1  0
  2 29  1  0
  7 30  1  0
  9 31  1  0
 10 32  1  0
 12 33  1  0
 21 34  1  0
 22 35  1  0
 23 36  1  0
M  END
>  <Ligand ID>  (1) 
LIG0001936

>  <Ligand>  (1) 
MLS000050094

>  <SMILES>  (1) 
CCOC(=O)c1cc2ccc(cc2oc1=O)OC(=O)c1ccco1

>  <CID>  (1) 
733831.0

>  <ChEMBL ID>  (1) 
nan

>  <InChiKey>  (1) 
VRUYZQVRGWGPMI-UHFFFAOYSA-N

>  <InChi>  (1) 
InChI=1S/C17H12O7/c1-2-21-15(18)12-8-10-5-6-11(9-14(10)24-16(12)19)23-17(20)13-4-3-7-22-13/h3-9H,2H2,1H3

>  <IUPAC Name>  (1) 
ethyl 7-(furan-2-carbonyloxy)-2-oxochromene-3-carboxylate

$$$$
