
     RDKit          3D

122126  0  0  0  0  0  0  0  0999 V2000
   -6.8419   -2.7341    4.6186 C   0  0  0  0  0  0  0  0  0  0  0  0
   -5.4703   -2.8505    4.0010 C   0  0  0  0  0  0  0  0  0  0  0  0
   -5.6635   -2.5241    2.5052 C   0  0  0  0  0  0  0  0  0  0  0  0
   -4.3648   -2.6183    1.7781 C   0  0  0  0  0  0  0  0  0  0  0  0
   -4.6066   -2.3748    0.2633 C   0  0  2  0  0  0  0  0  0  0  0  0
   -3.2862   -2.5107   -0.3813 N   0  0  0  0  0  0  0  0  0  0  0  0
   -2.6184   -3.8005   -0.3929 C   0  0  0  0  0  0  0  0  0  0  0  0
   -3.2297   -4.7008    0.1777 O   0  0  0  0  0  0  0  0  0  0  0  0
   -1.2986   -3.9835   -1.0366 C   0  0  0  0  0  0  0  0  0  0  0  0
   -0.4387   -4.9819   -0.2815 C   0  0  0  0  0  0  0  0  0  0  0  0
    0.8945   -5.0918   -1.0549 C   0  0  2  0  0  0  0  0  0  0  0  0
    1.2723   -3.7811   -1.4904 N   0  0  0  0  0  0  0  0  0  0  0  0
    2.0654   -2.7955   -0.8344 C   0  0  0  0  0  0  0  0  0  0  0  0
    2.5085   -3.0902    0.2632 O   0  0  0  0  0  0  0  0  0  0  0  0
    2.2301   -1.5321   -1.5879 C   0  0  1  0  0  0  0  0  0  0  0  0
    2.6930   -0.4830   -0.7121 N   0  0  0  0  0  0  0  0  0  0  0  0
    1.6690    0.2484    0.0033 C   0  0  0  0  0  0  0  0  0  0  0  0
    0.5554   -0.2837   -0.0176 O   0  0  0  0  0  0  0  0  0  0  0  0
    1.9734    1.5444    0.7108 C   0  0  1  0  0  0  0  0  0  0  0  0
    0.7319    1.8923    1.3868 N   0  0  0  0  0  0  0  0  0  0  0  0
   -0.4477    2.1582    0.6348 C   0  0  0  0  0  0  0  0  0  0  0  0
   -0.3490    1.9837   -0.5927 O   0  0  0  0  0  0  0  0  0  0  0  0
   -1.7437    2.5958    1.1749 C   0  0  2  0  0  0  0  0  0  0  0  0
   -2.8385    2.0951    0.3728 N   0  0  0  0  0  0  0  0  0  0  0  0
   -4.2215    2.2268    0.6280 C   0  0  0  0  0  0  0  0  0  0  0  0
   -4.5559    3.0100    1.5118 O   0  0  0  0  0  0  0  0  0  0  0  0
   -5.2287    1.4259   -0.1974 C   0  0  2  0  0  0  0  0  0  0  0  0
   -4.5433    0.1289   -0.3912 N   0  0  0  0  0  0  0  0  0  0  0  0
   -5.1806   -1.0483    0.1669 C   0  0  0  0  0  0  0  0  0  0  0  0
   -6.3316   -0.8255    0.5799 O   0  0  0  0  0  0  0  0  0  0  0  0
   -5.3724    2.1913   -1.4716 C   0  0  0  0  0  0  0  0  0  0  0  0
   -6.3371    1.5417   -2.4110 C   0  0  0  0  0  0  0  0  0  0  0  0
   -5.9163    0.5529   -3.0614 O   0  0  0  0  0  0  0  0  0  0  0  0
   -7.6437    2.0226   -2.5504 O   0  0  0  0  0  0  0  0  0  0  0  0
   -1.7955    4.1406    1.1890 C   0  0  0  0  0  0  0  0  0  0  0  0
   -1.6643    4.7499   -0.1264 C   0  0  0  0  0  0  0  0  0  0  0  0
   -2.8308    5.0525   -0.8226 C   0  0  0  0  0  0  0  0  0  0  0  0
   -2.7836    5.6311   -2.0973 C   0  0  0  0  0  0  0  0  0  0  0  0
   -1.5284    5.8811   -2.6173 C   0  0  0  0  0  0  0  0  0  0  0  0
   -0.3810    5.5921   -1.9510 C   0  0  0  0  0  0  0  0  0  0  0  0
   -0.4216    5.0247   -0.7007 C   0  0  0  0  0  0  0  0  0  0  0  0
    0.8188    5.8785   -2.5602 C   0  0  0  0  0  0  0  0  0  0  0  0
    0.9177    6.4474   -3.8195 C   0  0  0  0  0  0  0  0  0  0  0  0
   -0.2610    6.7435   -4.5003 C   0  0  0  0  0  0  0  0  0  0  0  0
   -1.4718    6.4482   -3.8721 C   0  0  0  0  0  0  0  0  0  0  0  0
    3.1291    1.3979    1.6040 C   0  0  0  0  0  0  0  0  0  0  0  0
    3.4836    2.6841    2.3287 C   0  0  0  0  0  0  0  0  0  0  0  0
    4.6899    2.4178    3.1972 C   0  0  0  0  0  0  0  0  0  0  0  0
    5.0551    3.6458    3.8799 N   0  0  0  0  0  0  0  0  0  0  0  0
    6.0954    3.7642    4.6270 C   0  0  0  0  0  0  0  0  0  0  0  0
    6.4076    4.9998    5.2736 N   0  0  0  0  0  0  0  0  0  0  0  0
    7.0043    2.6764    4.8591 N   0  0  0  0  0  0  0  0  0  0  0  0
    3.1791   -1.7166   -2.7481 C   0  0  0  0  0  0  0  0  0  0  0  0
    4.5465   -2.0920   -2.3811 C   0  0  0  0  0  0  0  0  0  0  0  0
    5.5686   -1.1271   -2.2851 C   0  0  0  0  0  0  0  0  0  0  0  0
    6.7108   -1.7214   -1.9059 N   0  0  0  0  0  0  0  0  0  0  0  0
    6.5075   -3.0429   -1.7423 C   0  0  0  0  0  0  0  0  0  0  0  0
    5.1572   -3.2617   -2.0412 C   0  0  0  0  0  0  0  0  0  0  0  0
    4.7001   -4.5424   -1.9559 C   0  0  0  0  0  0  0  0  0  0  0  0
    5.5201   -5.5857   -1.5908 C   0  0  0  0  0  0  0  0  0  0  0  0
    6.8479   -5.3557   -1.2983 C   0  0  0  0  0  0  0  0  0  0  0  0
    7.3484   -4.0730   -1.3743 C   0  0  0  0  0  0  0  0  0  0  0  0
    0.7437   -6.1092   -2.0715 C   0  0  0  0  0  0  0  0  0  0  0  0
    0.9354   -5.8686   -3.3001 O   0  0  0  0  0  0  0  0  0  0  0  0
    0.3685   -7.4255   -1.6937 N   0  0  0  0  0  0  0  0  0  0  0  0
   -7.2928   -3.7615    4.7512 H   0  0  0  0  0  0  0  0  0  0  0  0
   -7.5587   -2.1866    3.9788 H   0  0  0  0  0  0  0  0  0  0  0  0
   -6.8497   -2.2661    5.6185 H   0  0  0  0  0  0  0  0  0  0  0  0
   -5.1339   -3.8899    4.1002 H   0  0  0  0  0  0  0  0  0  0  0  0
   -4.8204   -2.1019    4.4542 H   0  0  0  0  0  0  0  0  0  0  0  0
   -6.4685   -3.1317    2.0845 H   0  0  0  0  0  0  0  0  0  0  0  0
   -6.0400   -1.4535    2.5686 H   0  0  0  0  0  0  0  0  0  0  0  0
   -3.8999   -3.5674    1.9890 H   0  0  0  0  0  0  0  0  0  0  0  0
   -3.7472   -1.7456    2.1535 H   0  0  0  0  0  0  0  0  0  0  0  0
   -5.1888   -3.2513   -0.0204 H   0  0  0  0  0  0  0  0  0  0  0  0
   -2.7709   -1.7731   -0.8352 H   0  0  0  0  0  0  0  0  0  0  0  0
   -0.7685   -3.0083   -1.0078 H   0  0  0  0  0  0  0  0  0  0  0  0
   -1.3464   -4.2963   -2.0958 H   0  0  0  0  0  0  0  0  0  0  0  0
   -0.2336   -4.6946    0.7398 H   0  0  0  0  0  0  0  0  0  0  0  0
   -0.9177   -5.9748   -0.3385 H   0  0  0  0  0  0  0  0  0  0  0  0
    1.5908   -5.4810   -0.2486 H   0  0  0  0  0  0  0  0  0  0  0  0
    0.9221   -3.4926   -2.4267 H   0  0  0  0  0  0  0  0  0  0  0  0
    1.1794   -1.2856   -1.9522 H   0  0  0  0  0  0  0  0  0  0  0  0
    3.6386   -0.1891   -0.5214 H   0  0  0  0  0  0  0  0  0  0  0  0
    2.1522    2.3044   -0.1209 H   0  0  0  0  0  0  0  0  0  0  0  0
    0.6139    1.9662    2.4011 H   0  0  0  0  0  0  0  0  0  0  0  0
   -1.8819    2.3367    2.2156 H   0  0  0  0  0  0  0  0  0  0  0  0
   -2.5956    1.5959   -0.4929 H   0  0  0  0  0  0  0  0  0  0  0  0
   -6.1391    1.3243    0.3697 H   0  0  0  0  0  0  0  0  0  0  0  0
   -3.6894   -0.0247   -0.8792 H   0  0  0  0  0  0  0  0  0  0  0  0
   -5.7904    3.2017   -1.2451 H   0  0  0  0  0  0  0  0  0  0  0  0
   -4.4043    2.3952   -1.9716 H   0  0  0  0  0  0  0  0  0  0  0  0
   -8.3704    1.3151   -2.6931 H   0  0  0  0  0  0  0  0  0  0  0  0
   -0.9974    4.5301    1.8376 H   0  0  0  0  0  0  0  0  0  0  0  0
   -2.7582    4.4059    1.6565 H   0  0  0  0  0  0  0  0  0  0  0  0
   -3.8152    4.8726   -0.4396 H   0  0  0  0  0  0  0  0  0  0  0  0
   -3.6779    5.8669   -2.6404 H   0  0  0  0  0  0  0  0  0  0  0  0
    0.5087    4.7961   -0.1809 H   0  0  0  0  0  0  0  0  0  0  0  0
    1.7438    5.6409   -2.0104 H   0  0  0  0  0  0  0  0  0  0  0  0
    1.8348    6.6767   -4.3112 H   0  0  0  0  0  0  0  0  0  0  0  0
   -0.2971    7.1815   -5.4697 H   0  0  0  0  0  0  0  0  0  0  0  0
   -2.3856    6.6828   -4.4091 H   0  0  0  0  0  0  0  0  0  0  0  0
    2.8610    0.6676    2.4256 H   0  0  0  0  0  0  0  0  0  0  0  0
    3.9930    0.9577    1.1070 H   0  0  0  0  0  0  0  0  0  0  0  0
    3.6488    3.5293    1.6401 H   0  0  0  0  0  0  0  0  0  0  0  0
    2.6669    2.9892    3.0087 H   0  0  0  0  0  0  0  0  0  0  0  0
    4.4642    1.6353    3.9181 H   0  0  0  0  0  0  0  0  0  0  0  0
    5.5029    2.0575    2.5365 H   0  0  0  0  0  0  0  0  0  0  0  0
    6.7800    5.8266    4.7530 H   0  0  0  0  0  0  0  0  0  0  0  0
    6.2797    5.1462    6.3083 H   0  0  0  0  0  0  0  0  0  0  0  0
    6.9890    2.2644    5.8392 H   0  0  0  0  0  0  0  0  0  0  0  0
    7.6352    2.3165    4.1117 H   0  0  0  0  0  0  0  0  0  0  0  0
    3.1599   -0.7780   -3.3663 H   0  0  0  0  0  0  0  0  0  0  0  0
    2.7504   -2.4949   -3.4524 H   0  0  0  0  0  0  0  0  0  0  0  0
    5.4794   -0.0806   -2.4749 H   0  0  0  0  0  0  0  0  0  0  0  0
    7.6288   -1.2458   -1.7566 H   0  0  0  0  0  0  0  0  0  0  0  0
    3.6784   -4.7471   -2.1923 H   0  0  0  0  0  0  0  0  0  0  0  0
    5.1138   -6.6104   -1.5295 H   0  0  0  0  0  0  0  0  0  0  0  0
    7.5370   -6.1424   -1.0065 H   0  0  0  0  0  0  0  0  0  0  0  0
    8.4098   -3.8944   -1.1405 H   0  0  0  0  0  0  0  0  0  0  0  0
    0.9735   -8.0161   -1.0777 H   0  0  0  0  0  0  0  0  0  0  0  0
   -0.5588   -7.7599   -2.0749 H   0  0  0  0  0  0  0  0  0  0  0  0
  1  2  1  0
  2  3  1  0
  3  4  1  0
  4  5  1  0
  5  6  1  0
  6  7  1  0
  7  8  2  0
  7  9  1  0
  9 10  1  0
 10 11  1  0
 11 12  1  0
 12 13  1  0
 13 14  2  0
 13 15  1  0
 15 16  1  0
 16 17  1  0
 17 18  2  0
 17 19  1  0
 19 20  1  0
 20 21  1  0
 21 22  2  0
 21 23  1  0
 23 24  1  0
 24 25  1  0
 25 26  2  0
 25 27  1  0
 27 28  1  0
 28 29  1  0
 29 30  2  0
 27 31  1  0
 31 32  1  0
 32 33  2  0
 32 34  1  0
 23 35  1  0
 35 36  1  0
 36 37  2  0
 37 38  1  0
 38 39  2  0
 39 40  1  0
 40 41  2  0
 40 42  1  0
 42 43  2  0
 43 44  1  0
 44 45  2  0
 19 46  1  0
 46 47  1  0
 47 48  1  0
 48 49  1  0
 49 50  2  3
 50 51  1  0
 50 52  1  0
 15 53  1  0
 53 54  1  0
 54 55  2  0
 55 56  1  0
 56 57  1  0
 57 58  2  0
 58 59  1  0
 59 60  2  0
 60 61  1  0
 61 62  2  0
 11 63  1  0
 63 64  2  0
 63 65  1  0
 29  5  1  0
 41 36  1  0
 58 54  1  0
 45 39  1  0
 62 57  1  0
  1 66  1  0
  1 67  1  0
  1 68  1  0
  2 69  1  0
  2 70  1  0
  3 71  1  0
  3 72  1  0
  4 73  1  0
  4 74  1  0
  5 75  1  6
  6 76  1  0
  9 77  1  0
  9 78  1  0
 10 79  1  0
 10 80  1  0
 11 81  1  1
 12 82  1  0
 15 83  1  6
 16 84  1  0
 19 85  1  6
 20 86  1  0
 23 87  1  1
 24 88  1  0
 27 89  1  1
 28 90  1  0
 31 91  1  0
 31 92  1  0
 34 93  1  0
 35 94  1  0
 35 95  1  0
 37 96  1  0
 38 97  1  0
 41 98  1  0
 42 99  1  0
 43100  1  0
 44101  1  0
 45102  1  0
 46103  1  0
 46104  1  0
 47105  1  0
 47106  1  0
 48107  1  0
 48108  1  0
 51109  1  0
 51110  1  0
 52111  1  0
 52112  1  0
 53113  1  0
 53114  1  0
 55115  1  0
 56116  1  0
 59117  1  0
 60118  1  0
 61119  1  0
 62120  1  0
 65121  1  0
 65122  1  0
M  END
>  <Ligand ID>  (1) 
LIG0001836

>  <Ligand>  (1) 
CHEMBL409144

>  <SMILES>  (1) 
CCCC[C@@H]1NC(=O)CC[C@H](NC(=O)[C@@H](NC(=O)[C@@H](NC(=O)[C@H](NC(=O)[C@H](NC1=O)CC(=O)O)Cc1ccc2c(c1)cccc2)CCCN=C(N)N)Cc1c[nH]c2c1cccc2)C(=O)N

>  <CID>  (1) 
44408400.0

>  <ChEMBL ID>  (1) 
nan

>  <InChiKey>  (1) 
VKDMHINLWUJYEZ-XBWXEZBPSA-N

>  <InChi>  (1) 
InChI=1S/C45H57N11O9/c1-2-3-12-32-40(61)56-36(23-38(58)59)44(65)54-34(21-25-15-16-26-9-4-5-10-27(26)20-25)42(63)53-33(14-8-19-49-45(47)48)41(62)55-35(22-28-24-50-30-13-7-6-11-29(28)30)43(64)52-31(39(46)60)17-18-37(57)51-32/h4-7,9-11,13,15-16,20,24,31-36,50H,2-3,8,12,14,17-19,21-23H2,1H3,(H2,46,60)(H,51,57)(H,52,64)(H,53,63)(H,54,65)(H,55,62)(H,56,61)(H,58,59)(H4,47,48,49)/t31-,32-,33-,34+,35-,36+/m0/s1

>  <IUPAC Name>  (1) 
2-[(2S,5R,8R,11S,14S,17S)-2-butyl-17-carbamoyl-11-[3-(diaminomethylideneamino)propyl]-14-(1H-indol-3-ylmethyl)-8-(naphthalen-2-ylmethyl)-3,6,9,12,15,20-hexaoxo-1,4,7,10,13,16-hexazacycloicos-5-yl]acetic acid

$$$$
