
     RDKit          3D

198205  0  0  0  0  0  0  0  0999 V2000
    8.0728   -6.7991    3.3477 N   0  0  0  0  0  0  0  0  0  0  0  0
    8.5060   -5.4605    3.0888 C   0  0  0  0  0  0  0  0  0  0  0  0
    8.6276   -4.5614    3.9834 N   0  0  0  0  0  0  0  0  0  0  0  0
    8.8082   -5.1367    1.7472 N   0  0  0  0  0  0  0  0  0  0  0  0
    8.7300   -3.7884    1.2060 C   0  0  0  0  0  0  0  0  0  0  0  0
    7.3004   -3.3306    1.1601 C   0  0  0  0  0  0  0  0  0  0  0  0
    7.2502   -1.9195    0.5610 C   0  0  0  0  0  0  0  0  0  0  0  0
    5.8335   -1.4591    0.5388 C   0  0  2  0  0  0  0  0  0  0  0  0
    5.0468   -2.3936   -0.2739 N   0  0  0  0  0  0  0  0  0  0  0  0
    3.7381   -2.7407    0.1431 C   0  0  0  0  0  0  0  0  0  0  0  0
    3.2925   -2.1732    1.1348 O   0  0  0  0  0  0  0  0  0  0  0  0
    2.9076   -3.7935   -0.6300 C   0  0  1  0  0  0  0  0  0  0  0  0
    3.6751   -5.0639   -0.3738 C   0  0  0  0  0  0  0  0  0  0  0  0
    3.1929   -6.3010   -0.9461 C   0  0  0  0  0  0  0  0  0  0  0  0
    2.4107   -7.1873   -0.2021 C   0  0  0  0  0  0  0  0  0  0  0  0
    2.0014   -8.3576   -0.8550 C   0  0  0  0  0  0  0  0  0  0  0  0
    2.3522   -8.6200   -2.1618 C   0  0  0  0  0  0  0  0  0  0  0  0
    3.1218   -7.7426   -2.8875 C   0  0  0  0  0  0  0  0  0  0  0  0
    3.5315   -6.5946   -2.2685 C   0  0  0  0  0  0  0  0  0  0  0  0
    1.6339   -3.8176    0.0329 N   0  0  0  0  0  0  0  0  0  0  0  0
    0.3938   -3.3732   -0.5469 C   0  0  0  0  0  0  0  0  0  0  0  0
    0.3940   -3.0208   -1.6952 O   0  0  0  0  0  0  0  0  0  0  0  0
   -0.8017   -3.4036    0.3987 C   0  0  2  0  0  0  0  0  0  0  0  0
   -1.0392   -4.8494    0.7379 C   0  0  0  0  0  0  0  0  0  0  0  0
   -1.4167   -5.5990   -0.4767 C   0  0  0  0  0  0  0  0  0  0  0  0
   -0.5944   -6.0226   -1.4749 C   0  0  0  0  0  0  0  0  0  0  0  0
   -1.0457   -6.7720   -2.5601 C   0  0  0  0  0  0  0  0  0  0  0  0
   -2.3655   -7.1232   -2.6735 C   0  0  0  0  0  0  0  0  0  0  0  0
   -3.2180   -6.6988   -1.6674 C   0  0  0  0  0  0  0  0  0  0  0  0
   -2.7660   -5.9601   -0.5995 C   0  0  0  0  0  0  0  0  0  0  0  0
   -1.9705   -2.8233   -0.1983 N   0  0  0  0  0  0  0  0  0  0  0  0
   -2.1451   -1.4782   -0.6344 C   0  0  0  0  0  0  0  0  0  0  0  0
   -1.1375   -0.7742   -0.6376 O   0  0  0  0  0  0  0  0  0  0  0  0
   -3.5149   -1.0897   -1.0460 C   0  0  1  0  0  0  0  0  0  0  0  0
   -4.4842   -1.9700   -0.4409 N   0  0  0  0  0  0  0  0  0  0  0  0
   -5.4683   -2.7385   -1.0915 C   0  0  0  0  0  0  0  0  0  0  0  0
   -5.6544   -2.7451   -2.3337 O   0  0  0  0  0  0  0  0  0  0  0  0
   -6.3380   -3.5997   -0.2266 C   0  0  2  0  0  0  0  0  0  0  0  0
   -7.7135   -2.9650    0.0029 C   0  0  0  0  0  0  0  0  0  0  0  0
   -8.5067   -3.9096    0.8839 C   0  0  0  0  0  0  0  0  0  0  0  0
   -8.3431   -3.7379    2.2609 C   0  0  0  0  0  0  0  0  0  0  0  0
   -8.9952   -4.5445    3.1576 C   0  0  0  0  0  0  0  0  0  0  0  0
   -9.8182   -5.5278    2.6300 C   0  0  0  0  0  0  0  0  0  0  0  0
   -9.9892   -5.7056    1.2664 C   0  0  0  0  0  0  0  0  0  0  0  0
   -9.3187   -4.8783    0.3665 C   0  0  0  0  0  0  0  0  0  0  0  0
  -10.4724   -6.3387    3.5609 O   0  0  0  0  0  0  0  0  0  0  0  0
   -5.7481   -3.7137    1.1245 N   0  0  0  0  0  0  0  0  0  0  0  0
   -3.8360    0.3628   -1.0264 C   0  0  0  0  0  0  0  0  0  0  0  0
   -3.5969    1.0845    0.2137 C   0  0  0  0  0  0  0  0  0  0  0  0
   -2.6258    0.8322    0.9058 O   0  0  0  0  0  0  0  0  0  0  0  0
   -4.4103    2.1321    0.7895 N   0  0  0  0  0  0  0  0  0  0  0  0
   -5.5501    2.4722   -0.0040 C   0  0  2  0  0  0  0  0  0  0  0  0
   -6.5696    1.4081   -0.0207 C   0  0  0  0  0  0  0  0  0  0  0  0
   -6.3094    0.3889    0.7232 O   0  0  0  0  0  0  0  0  0  0  0  0
   -7.7680    1.3716   -0.7312 N   0  0  0  0  0  0  0  0  0  0  0  0
   -5.2603    3.1625   -1.2851 C   0  0  0  0  0  0  0  0  0  0  0  0
   -6.5027    3.4310   -2.0495 C   0  0  0  0  0  0  0  0  0  0  0  0
   -6.8837    2.5603   -3.0601 C   0  0  0  0  0  0  0  0  0  0  0  0
   -8.0410    2.7656   -3.7856 C   0  0  0  0  0  0  0  0  0  0  0  0
   -8.8122    3.8616   -3.4794 C   0  0  0  0  0  0  0  0  0  0  0  0
   -8.4403    4.7440   -2.4648 C   0  0  0  0  0  0  0  0  0  0  0  0
   -7.2874    4.5197   -1.7596 C   0  0  0  0  0  0  0  0  0  0  0  0
   -9.9900    4.1236   -4.1760 O   0  0  0  0  0  0  0  0  0  0  0  0
   -4.0564    2.7296    2.0779 C   0  0  0  0  0  0  0  0  0  0  0  0
   -3.6722    1.5495    3.0118 C   0  0  0  0  0  0  0  0  0  0  0  0
   -2.9730    3.6504    2.1045 N   0  0  0  0  0  0  0  0  0  0  0  0
   -3.0015    4.9864    1.6087 C   0  0  0  0  0  0  0  0  0  0  0  0
   -4.0876    5.3366    1.1163 O   0  0  0  0  0  0  0  0  0  0  0  0
   -1.9118    5.9757    1.6286 C   0  0  1  0  0  0  0  0  0  0  0  0
   -0.6512    5.4444    2.0808 N   0  0  0  0  0  0  0  0  0  0  0  0
   -0.3463    5.1635    3.4614 C   0  0  0  0  0  0  0  0  0  0  0  0
   -1.3131    5.2895    4.2264 O   0  0  0  0  0  0  0  0  0  0  0  0
    1.0071    4.7459    3.9098 C   0  0  1  0  0  0  0  0  0  0  0  0
    2.0836    5.2219    3.0813 N   0  0  0  0  0  0  0  0  0  0  0  0
    2.8670    4.4913    2.1667 C   0  0  0  0  0  0  0  0  0  0  0  0
    2.5400    3.3191    1.9633 O   0  0  0  0  0  0  0  0  0  0  0  0
    4.0263    5.1764    1.5068 C   0  0  1  0  0  0  0  0  0  0  0  0
    4.7365    4.3584    0.5577 N   0  0  0  0  0  0  0  0  0  0  0  0
    5.4340    3.1694    0.9292 C   0  0  0  0  0  0  0  0  0  0  0  0
    5.2445    2.8180    2.1093 O   0  0  0  0  0  0  0  0  0  0  0  0
    6.3038    2.3885    0.0146 C   0  0  1  0  0  0  0  0  0  0  0  0
    6.4522    1.0313    0.5140 N   0  0  0  0  0  0  0  0  0  0  0  0
    5.6819   -0.0731    0.0389 C   0  0  0  0  0  0  0  0  0  0  0  0
    4.8527    0.1599   -0.8307 O   0  0  0  0  0  0  0  0  0  0  0  0
    6.0270    2.5656   -1.4366 C   0  0  0  0  0  0  0  0  0  0  0  0
    6.9325    1.8461   -2.3551 C   0  0  0  0  0  0  0  0  0  0  0  0
    6.8087    0.7527   -3.1577 C   0  0  0  0  0  0  0  0  0  0  0  0
    7.9554    0.5005   -3.8300 N   0  0  0  0  0  0  0  0  0  0  0  0
    8.8616    1.4288   -3.4822 C   0  0  0  0  0  0  0  0  0  0  0  0
    8.2531    2.2809   -2.5667 C   0  0  0  0  0  0  0  0  0  0  0  0
    9.0194    3.3122   -2.0890 C   0  0  0  0  0  0  0  0  0  0  0  0
   10.3466    3.5087   -2.4912 C   0  0  0  0  0  0  0  0  0  0  0  0
   10.9158    2.6403   -3.4011 C   0  0  0  0  0  0  0  0  0  0  0  0
   10.1629    1.5903   -3.9005 C   0  0  0  0  0  0  0  0  0  0  0  0
    3.7464    6.5548    1.0766 C   0  0  0  0  0  0  0  0  0  0  0  0
    5.0082    7.0917    0.4340 C   0  0  0  0  0  0  0  0  0  0  0  0
    6.0361    6.3653    0.3575 O   0  0  0  0  0  0  0  0  0  0  0  0
    4.9676    8.4238   -0.0625 N   0  0  0  0  0  0  0  0  0  0  0  0
    1.2056    5.2760    5.3080 C   0  0  0  0  0  0  0  0  0  0  0  0
   -1.8100    6.8801    0.4635 C   0  0  0  0  0  0  0  0  0  0  0  0
   -1.6063    6.2639   -0.8474 C   0  0  0  0  0  0  0  0  0  0  0  0
   -2.6277    5.9413   -1.7164 C   0  0  0  0  0  0  0  0  0  0  0  0
   -2.4396    5.3458   -2.9395 C   0  0  0  0  0  0  0  0  0  0  0  0
   -1.1680    5.0365   -3.3558 C   0  0  0  0  0  0  0  0  0  0  0  0
   -0.1135    5.3378   -2.5260 C   0  0  0  0  0  0  0  0  0  0  0  0
   -0.3215    5.9415   -1.2917 C   0  0  0  0  0  0  0  0  0  0  0  0
   -5.2452    3.3302    2.7361 C   0  0  0  0  0  0  0  0  0  0  0  0
   -5.2316    4.4837    3.2670 O   0  0  0  0  0  0  0  0  0  0  0  0
   -6.4694    2.6575    2.8169 O   0  0  0  0  0  0  0  0  0  0  0  0
    7.2298   -6.9152    3.9407 H   0  0  0  0  0  0  0  0  0  0  0  0
    8.6174   -7.5882    2.9359 H   0  0  0  0  0  0  0  0  0  0  0  0
    8.9441   -3.6042    3.7568 H   0  0  0  0  0  0  0  0  0  0  0  0
    9.1045   -5.9033    1.0972 H   0  0  0  0  0  0  0  0  0  0  0  0
    9.2822   -3.0409    1.8041 H   0  0  0  0  0  0  0  0  0  0  0  0
    9.1309   -3.7468    0.1894 H   0  0  0  0  0  0  0  0  0  0  0  0
    6.8805   -3.2858    2.2044 H   0  0  0  0  0  0  0  0  0  0  0  0
    6.6378   -3.9867    0.5704 H   0  0  0  0  0  0  0  0  0  0  0  0
    7.7229   -1.9376   -0.4406 H   0  0  0  0  0  0  0  0  0  0  0  0
    7.8867   -1.2739    1.2044 H   0  0  0  0  0  0  0  0  0  0  0  0
    5.4028   -1.4187    1.5776 H   0  0  0  0  0  0  0  0  0  0  0  0
    5.3676   -2.8253   -1.1376 H   0  0  0  0  0  0  0  0  0  0  0  0
    2.8993   -3.5253   -1.6814 H   0  0  0  0  0  0  0  0  0  0  0  0
    4.7641   -4.9294   -0.6936 H   0  0  0  0  0  0  0  0  0  0  0  0
    3.7886   -5.2398    0.7348 H   0  0  0  0  0  0  0  0  0  0  0  0
    2.1465   -6.9678    0.8181 H   0  0  0  0  0  0  0  0  0  0  0  0
    1.3970   -9.0268   -0.2651 H   0  0  0  0  0  0  0  0  0  0  0  0
    2.0195   -9.5299   -2.6370 H   0  0  0  0  0  0  0  0  0  0  0  0
    3.4097   -7.9224   -3.9080 H   0  0  0  0  0  0  0  0  0  0  0  0
    4.1379   -5.8936   -2.8238 H   0  0  0  0  0  0  0  0  0  0  0  0
    1.5761   -4.1710    0.9825 H   0  0  0  0  0  0  0  0  0  0  0  0
   -0.4443   -2.8274    1.2671 H   0  0  0  0  0  0  0  0  0  0  0  0
   -0.1259   -5.2771    1.1464 H   0  0  0  0  0  0  0  0  0  0  0  0
   -1.8108   -4.9009    1.5249 H   0  0  0  0  0  0  0  0  0  0  0  0
    0.4233   -5.7675   -1.4626 H   0  0  0  0  0  0  0  0  0  0  0  0
   -0.3669   -7.0905   -3.3373 H   0  0  0  0  0  0  0  0  0  0  0  0
   -2.7502   -7.7033   -3.4933 H   0  0  0  0  0  0  0  0  0  0  0  0
   -4.2679   -6.9660   -1.7435 H   0  0  0  0  0  0  0  0  0  0  0  0
   -3.4840   -5.6788    0.1445 H   0  0  0  0  0  0  0  0  0  0  0  0
   -2.7854   -3.4367   -0.3434 H   0  0  0  0  0  0  0  0  0  0  0  0
   -3.5217   -1.3410   -2.1795 H   0  0  0  0  0  0  0  0  0  0  0  0
   -4.4239   -2.0154    0.6288 H   0  0  0  0  0  0  0  0  0  0  0  0
   -6.3834   -4.5990   -0.6527 H   0  0  0  0  0  0  0  0  0  0  0  0
   -8.2856   -2.8605   -0.9355 H   0  0  0  0  0  0  0  0  0  0  0  0
   -7.5604   -2.0268    0.5391 H   0  0  0  0  0  0  0  0  0  0  0  0
   -7.6923   -2.9564    2.6461 H   0  0  0  0  0  0  0  0  0  0  0  0
   -8.8481   -4.3965    4.2193 H   0  0  0  0  0  0  0  0  0  0  0  0
  -10.6526   -6.4911    0.8809 H   0  0  0  0  0  0  0  0  0  0  0  0
   -9.4297   -4.9891   -0.7046 H   0  0  0  0  0  0  0  0  0  0  0  0
  -10.0642   -6.5475    4.4701 H   0  0  0  0  0  0  0  0  0  0  0  0
   -6.1878   -4.5580    1.5873 H   0  0  0  0  0  0  0  0  0  0  0  0
   -4.7310   -3.9304    1.0578 H   0  0  0  0  0  0  0  0  0  0  0  0
   -4.8351    0.5252   -1.5017 H   0  0  0  0  0  0  0  0  0  0  0  0
   -3.1271    0.8285   -1.7870 H   0  0  0  0  0  0  0  0  0  0  0  0
   -6.0762    3.3107    0.6189 H   0  0  0  0  0  0  0  0  0  0  0  0
   -7.9842    0.5358   -1.3458 H   0  0  0  0  0  0  0  0  0  0  0  0
   -8.5108    2.1121   -0.7149 H   0  0  0  0  0  0  0  0  0  0  0  0
   -4.5792    2.6587   -1.9883 H   0  0  0  0  0  0  0  0  0  0  0  0
   -4.8725    4.1932   -1.0508 H   0  0  0  0  0  0  0  0  0  0  0  0
   -6.2597    1.7210   -3.2704 H   0  0  0  0  0  0  0  0  0  0  0  0
   -8.3301    2.0800   -4.5733 H   0  0  0  0  0  0  0  0  0  0  0  0
   -9.0709    5.5901   -2.2470 H   0  0  0  0  0  0  0  0  0  0  0  0
   -7.0377    5.2305   -0.9843 H   0  0  0  0  0  0  0  0  0  0  0  0
  -10.8413    3.6814   -3.8858 H   0  0  0  0  0  0  0  0  0  0  0  0
   -4.0213    1.8381    4.0176 H   0  0  0  0  0  0  0  0  0  0  0  0
   -4.1143    0.6141    2.6930 H   0  0  0  0  0  0  0  0  0  0  0  0
   -2.5490    1.5194    3.1071 H   0  0  0  0  0  0  0  0  0  0  0  0
   -2.0670    3.3719    2.4992 H   0  0  0  0  0  0  0  0  0  0  0  0
   -2.3062    6.6873    2.4813 H   0  0  0  0  0  0  0  0  0  0  0  0
    0.1094    5.2259    1.4330 H   0  0  0  0  0  0  0  0  0  0  0  0
    0.9929    3.6255    3.9523 H   0  0  0  0  0  0  0  0  0  0  0  0
    2.3117    6.2274    3.1626 H   0  0  0  0  0  0  0  0  0  0  0  0
    4.7652    5.2338    2.4033 H   0  0  0  0  0  0  0  0  0  0  0  0
    4.7759    4.5813   -0.4414 H   0  0  0  0  0  0  0  0  0  0  0  0
    7.3992    2.7690    0.0930 H   0  0  0  0  0  0  0  0  0  0  0  0
    7.1293    0.7813    1.2487 H   0  0  0  0  0  0  0  0  0  0  0  0
    4.9551    2.2841   -1.6555 H   0  0  0  0  0  0  0  0  0  0  0  0
    6.0540    3.6559   -1.7112 H   0  0  0  0  0  0  0  0  0  0  0  0
    5.9397    0.1592   -3.2684 H   0  0  0  0  0  0  0  0  0  0  0  0
    8.0965   -0.2931   -4.5084 H   0  0  0  0  0  0  0  0  0  0  0  0
    8.6466    4.0337   -1.3878 H   0  0  0  0  0  0  0  0  0  0  0  0
   10.9203    4.3446   -2.0822 H   0  0  0  0  0  0  0  0  0  0  0  0
   11.9403    2.7843   -3.7155 H   0  0  0  0  0  0  0  0  0  0  0  0
   10.5678    0.8823   -4.6168 H   0  0  0  0  0  0  0  0  0  0  0  0
    3.4997    7.2021    1.9163 H   0  0  0  0  0  0  0  0  0  0  0  0
    2.9233    6.6146    0.3126 H   0  0  0  0  0  0  0  0  0  0  0  0
    5.2297    8.6196   -1.0564 H   0  0  0  0  0  0  0  0  0  0  0  0
    4.6877    9.2453    0.5215 H   0  0  0  0  0  0  0  0  0  0  0  0
    0.2247    5.4570    5.8036 H   0  0  0  0  0  0  0  0  0  0  0  0
    1.7093    6.2790    5.2328 H   0  0  0  0  0  0  0  0  0  0  0  0
    1.8360    4.6109    5.9332 H   0  0  0  0  0  0  0  0  0  0  0  0
   -2.7391    7.5264    0.4555 H   0  0  0  0  0  0  0  0  0  0  0  0
   -0.9996    7.6249    0.7197 H   0  0  0  0  0  0  0  0  0  0  0  0
   -3.6444    6.1695   -1.4367 H   0  0  0  0  0  0  0  0  0  0  0  0
   -3.2886    5.1096   -3.5967 H   0  0  0  0  0  0  0  0  0  0  0  0
   -1.0490    4.5683   -4.3253 H   0  0  0  0  0  0  0  0  0  0  0  0
    0.8749    5.0791   -2.8914 H   0  0  0  0  0  0  0  0  0  0  0  0
    0.5623    6.1443   -0.7102 H   0  0  0  0  0  0  0  0  0  0  0  0
   -7.3040    3.1427    3.1493 H   0  0  0  0  0  0  0  0  0  0  0  0
  1  2  1  0
  2  3  2  3
  2  4  1  0
  4  5  1  0
  5  6  1  0
  6  7  1  0
  7  8  1  0
  8  9  1  0
  9 10  1  0
 10 11  2  0
 10 12  1  0
 12 13  1  0
 13 14  1  0
 14 15  2  0
 15 16  1  0
 16 17  2  0
 17 18  1  0
 18 19  2  0
 12 20  1  0
 20 21  1  0
 21 22  2  0
 21 23  1  0
 23 24  1  0
 24 25  1  0
 25 26  2  0
 26 27  1  0
 27 28  2  0
 28 29  1  0
 29 30  2  0
 23 31  1  0
 31 32  1  0
 32 33  2  0
 32 34  1  0
 34 35  1  0
 35 36  1  0
 36 37  2  0
 36 38  1  0
 38 39  1  0
 39 40  1  0
 40 41  2  0
 41 42  1  0
 42 43  2  0
 43 44  1  0
 44 45  2  0
 43 46  1  0
 38 47  1  0
 34 48  1  0
 48 49  1  0
 49 50  2  0
 49 51  1  0
 51 52  1  0
 52 53  1  0
 53 54  2  0
 53 55  1  0
 52 56  1  0
 56 57  1  0
 57 58  2  0
 58 59  1  0
 59 60  2  0
 60 61  1  0
 61 62  2  0
 60 63  1  0
 51 64  1  0
 64 65  1  0
 64 66  1  0
 66 67  1  0
 67 68  2  0
 67 69  1  0
 69 70  1  0
 70 71  1  0
 71 72  2  0
 71 73  1  0
 73 74  1  0
 74 75  1  0
 75 76  2  0
 75 77  1  0
 77 78  1  0
 78 79  1  0
 79 80  2  0
 79 81  1  0
 81 82  1  0
 82 83  1  0
 83 84  2  0
 81 85  1  0
 85 86  1  0
 86 87  2  0
 87 88  1  0
 88 89  1  0
 89 90  2  0
 90 91  1  0
 91 92  2  0
 92 93  1  0
 93 94  2  0
 77 95  1  0
 95 96  1  0
 96 97  2  0
 96 98  1  0
 73 99  1  0
 69100  1  0
100101  1  0
101102  2  0
102103  1  0
103104  2  0
104105  1  0
105106  2  0
 64107  1  0
107108  2  0
107109  1  0
 83  8  1  0
 90 86  1  0
106101  1  0
 19 14  1  0
 30 25  1  0
 45 40  1  0
 62 57  1  0
 94 89  1  0
  1110  1  0
  1111  1  0
  3112  1  0
  4113  1  0
  5114  1  0
  5115  1  0
  6116  1  0
  6117  1  0
  7118  1  0
  7119  1  0
  8120  1  1
  9121  1  0
 12122  1  6
 13123  1  0
 13124  1  0
 15125  1  0
 16126  1  0
 17127  1  0
 18128  1  0
 19129  1  0
 20130  1  0
 23131  1  1
 24132  1  0
 24133  1  0
 26134  1  0
 27135  1  0
 28136  1  0
 29137  1  0
 30138  1  0
 31139  1  0
 34140  1  6
 35141  1  0
 38142  1  6
 39143  1  0
 39144  1  0
 41145  1  0
 42146  1  0
 44147  1  0
 45148  1  0
 46149  1  0
 47150  1  0
 47151  1  0
 48152  1  0
 48153  1  0
 52154  1  1
 55155  1  0
 55156  1  0
 56157  1  0
 56158  1  0
 58159  1  0
 59160  1  0
 61161  1  0
 62162  1  0
 63163  1  0
 65164  1  0
 65165  1  0
 65166  1  0
 66167  1  0
 69168  1  1
 70169  1  0
 73170  1  1
 74171  1  0
 77172  1  1
 78173  1  0
 81174  1  6
 82175  1  0
 85176  1  0
 85177  1  0
 87178  1  0
 88179  1  0
 91180  1  0
 92181  1  0
 93182  1  0
 94183  1  0
 95184  1  0
 95185  1  0
 98186  1  0
 98187  1  0
 99188  1  0
 99189  1  0
 99190  1  0
100191  1  0
100192  1  0
102193  1  0
103194  1  0
104195  1  0
105196  1  0
106197  1  0
109198  1  0
M  END
>  <Ligand ID>  (1) 
LIG0002288

>  <Ligand>  (1) 
CHEMBL2096714

>  <SMILES>  (1) 
NC(=N)NCCC[C@@H]1NC(=O)[C@@H](Cc2ccccc2)NC(=O)[C@H](Cc2ccccc2)NC(=O)[C@@H](NC(=O)[C@H](Cc2ccc(cc2)O)N)CC(=O)N([C@H](C(=O)N)Cc2ccc(cc2)O)C(C)(NC(=O)[C@@H](NC(=O)[C@@H](NC(=O)[C@@H](NC(=O)[C@@H](NC1=O)Cc1c[nH]c2c1cccc2)CC(=O)N)C)Cc1ccccc1)C(=O)O

>  <CID>  (1) 
91900714.0

>  <ChEMBL ID>  (1) 
nan

>  <InChiKey>  (1) 
YNTGNBUNWBJHKM-UEIAFFDZSA-N

>  <InChi>  (1) 
InChI=1S/C76H89N17O16/c1-42-65(99)86-57(36-45-19-10-5-11-20-45)73(107)92-76(2,74(108)109)93(61(64(79)98)37-47-26-30-50(95)31-27-47)63(97)40-60(87-66(100)52(77)33-46-24-28-49(94)29-25-46)72(106)89-56(35-44-17-8-4-9-18-44)70(104)88-55(34-43-15-6-3-7-16-43)69(103)85-54(23-14-32-82-75(80)81)67(101)90-58(38-48-41-83-53-22-13-12-21-51(48)53)71(105)91-59(39-62(78)96)68(102)84-42/h3-13,15-22,24-31,41-42,52,54-61,83,94-95H,14,23,32-40,77H2,1-2H3,(H2,78,96)(H2,79,98)(H,84,102)(H,85,103)(H,86,99)(H,87,100)(H,88,104)(H,89,106)(H,90,101)(H,91,105)(H,92,107)(H,108,109)(H4,80,81,82)/t42-,52-,54-,55+,56-,57-,58-,59-,60-,61-,76?/m0/s1

>  <IUPAC Name>  (1) 
(5S,8S,11S,14S,17S,20R,23S,26S)-1-[(2S)-1-amino-3-(4-hydroxyphenyl)-1-oxopropan-2-yl]-26-[[(2S)-2-amino-3-(4-hydroxyphenyl)propanoyl]amino]-11-(2-amino-2-oxoethyl)-5,20,23-tribenzyl-17-(3-carbamimidamidopropyl)-14-(1H-indol-3-ylmethyl)-2,8-dimethyl-4,7,10,13,16,19,22,25,28-nonaoxo-1,3,6,9,12,15,18,21,24-nonazacyclooctacosane-2-carboxylic acid

$$$$
