
     RDKit          3D

 76 79  0  0  0  0  0  0  0  0999 V2000
   -5.1639   -2.1715   -2.4981 N   0  0  0  0  0  0  0  0  0  0  0  0
   -3.7596   -1.8659   -2.4019 C   0  0  0  0  0  0  0  0  0  0  0  0
   -3.0126   -2.8249   -2.1184 O   0  0  0  0  0  0  0  0  0  0  0  0
   -3.3594   -0.4792   -2.6457 C   0  0  0  0  0  0  0  0  0  0  0  0
   -1.8997   -0.2221   -2.4053 C   0  0  0  0  0  0  0  0  0  0  0  0
   -1.5751   -0.5187   -0.9700 C   0  0  1  0  0  0  0  0  0  0  0  0
   -0.1161   -0.2783   -0.6587 C   0  0  0  0  0  0  0  0  0  0  0  0
    0.1334    0.5753    0.2481 O   0  0  0  0  0  0  0  0  0  0  0  0
    0.9116   -0.9761   -1.3519 N   0  0  0  0  0  0  0  0  0  0  0  0
    2.2849   -0.6509   -0.9479 C   0  0  2  0  0  0  0  0  0  0  0  0
    2.8553   -0.0029   -2.1868 C   0  0  0  0  0  0  0  0  0  0  0  0
    2.1482    0.1007   -3.2442 O   0  0  0  0  0  0  0  0  0  0  0  0
    4.1872    0.4698   -2.1028 N   0  0  0  0  0  0  0  0  0  0  0  0
    4.8085    1.0959   -3.2228 C   0  0  0  0  0  0  0  0  0  0  0  0
    4.1327    2.3294   -3.7363 C   0  0  0  0  0  0  0  0  0  0  0  0
    4.0101    3.4291   -2.7770 C   0  0  0  0  0  0  0  0  0  0  0  0
    4.9535    4.4199   -2.5898 C   0  0  0  0  0  0  0  0  0  0  0  0
    4.7786    5.4245   -1.6875 C   0  0  0  0  0  0  0  0  0  0  0  0
    3.6352    5.5021   -0.9062 C   0  0  0  0  0  0  0  0  0  0  0  0
    2.6938    4.5273   -1.0819 C   0  0  0  0  0  0  0  0  0  0  0  0
    2.8696    3.4976   -2.0046 C   0  0  0  0  0  0  0  0  0  0  0  0
    2.9529   -1.9538   -0.6573 C   0  0  0  0  0  0  0  0  0  0  0  0
    2.2120   -2.6322    0.4313 C   0  0  0  0  0  0  0  0  0  0  0  0
    1.3307   -3.7015    0.2342 C   0  0  0  0  0  0  0  0  0  0  0  0
    0.8172   -4.0921    1.4107 N   0  0  0  0  0  0  0  0  0  0  0  0
    1.3451   -3.3010    2.3715 C   0  0  0  0  0  0  0  0  0  0  0  0
    2.2100   -2.3910    1.7890 C   0  0  0  0  0  0  0  0  0  0  0  0
    2.8802   -1.4698    2.5427 C   0  0  0  0  0  0  0  0  0  0  0  0
    2.6467   -1.4960    3.9227 C   0  0  0  0  0  0  0  0  0  0  0  0
    1.7848   -2.4036    4.4988 C   0  0  0  0  0  0  0  0  0  0  0  0
    1.1155   -3.3265    3.7290 C   0  0  0  0  0  0  0  0  0  0  0  0
   -2.3105    0.4027   -0.1186 N   0  0  0  0  0  0  0  0  0  0  0  0
   -3.1628    0.0096    0.9293 C   0  0  0  0  0  0  0  0  0  0  0  0
   -3.3619   -1.2188    1.2219 O   0  0  0  0  0  0  0  0  0  0  0  0
   -3.8427    1.0817    1.7064 C   0  0  0  0  0  0  0  0  0  0  0  0
   -4.6861    0.4845    2.7475 C   0  0  0  0  0  0  0  0  0  0  0  0
   -5.9978    0.1746    2.5001 C   0  0  0  0  0  0  0  0  0  0  0  0
   -6.7280   -0.3821    3.5300 C   0  0  0  0  0  0  0  0  0  0  0  0
   -6.1798   -0.6289    4.7772 C   0  0  0  0  0  0  0  0  0  0  0  0
   -4.8709   -0.3131    5.0026 C   0  0  0  0  0  0  0  0  0  0  0  0
   -4.1131    0.2454    3.9927 C   0  0  0  0  0  0  0  0  0  0  0  0
   -5.6396   -2.3671   -3.3920 H   0  0  0  0  0  0  0  0  0  0  0  0
   -5.6616   -2.1763   -1.5580 H   0  0  0  0  0  0  0  0  0  0  0  0
   -3.9398    0.2513   -2.0368 H   0  0  0  0  0  0  0  0  0  0  0  0
   -3.5635   -0.2221   -3.7120 H   0  0  0  0  0  0  0  0  0  0  0  0
   -1.3272   -0.8701   -3.1044 H   0  0  0  0  0  0  0  0  0  0  0  0
   -1.6234    0.8116   -2.6657 H   0  0  0  0  0  0  0  0  0  0  0  0
   -1.7423   -1.5629   -0.6971 H   0  0  0  0  0  0  0  0  0  0  0  0
    0.6979   -1.6721   -2.0965 H   0  0  0  0  0  0  0  0  0  0  0  0
    2.2949    0.0293   -0.1025 H   0  0  0  0  0  0  0  0  0  0  0  0
    4.7481    0.3681   -1.2071 H   0  0  0  0  0  0  0  0  0  0  0  0
    5.8665    1.3918   -2.9982 H   0  0  0  0  0  0  0  0  0  0  0  0
    4.9064    0.4106   -4.1081 H   0  0  0  0  0  0  0  0  0  0  0  0
    3.1596    2.0681   -4.2196 H   0  0  0  0  0  0  0  0  0  0  0  0
    4.7662    2.6892   -4.5938 H   0  0  0  0  0  0  0  0  0  0  0  0
    5.8550    4.3552   -3.2074 H   0  0  0  0  0  0  0  0  0  0  0  0
    5.5174    6.1945   -1.5444 H   0  0  0  0  0  0  0  0  0  0  0  0
    3.4709    6.2930   -0.1812 H   0  0  0  0  0  0  0  0  0  0  0  0
    1.7967    4.5808   -0.4770 H   0  0  0  0  0  0  0  0  0  0  0  0
    2.0856    2.7820   -2.0749 H   0  0  0  0  0  0  0  0  0  0  0  0
    2.9439   -2.5990   -1.5656 H   0  0  0  0  0  0  0  0  0  0  0  0
    4.0000   -1.7323   -0.3610 H   0  0  0  0  0  0  0  0  0  0  0  0
    1.1074   -4.1340   -0.7216 H   0  0  0  0  0  0  0  0  0  0  0  0
    0.1318   -4.8755    1.5186 H   0  0  0  0  0  0  0  0  0  0  0  0
    3.5504   -0.7675    2.0831 H   0  0  0  0  0  0  0  0  0  0  0  0
    3.1562   -0.7845    4.5706 H   0  0  0  0  0  0  0  0  0  0  0  0
    1.5981   -2.4313    5.5771 H   0  0  0  0  0  0  0  0  0  0  0  0
    0.4246   -4.0624    4.1415 H   0  0  0  0  0  0  0  0  0  0  0  0
   -2.1710    1.4259   -0.3286 H   0  0  0  0  0  0  0  0  0  0  0  0
   -3.1408    1.7792    2.1994 H   0  0  0  0  0  0  0  0  0  0  0  0
   -4.4150    1.6922    0.9525 H   0  0  0  0  0  0  0  0  0  0  0  0
   -6.4471    0.3640    1.5148 H   0  0  0  0  0  0  0  0  0  0  0  0
   -7.7615   -0.6475    3.4006 H   0  0  0  0  0  0  0  0  0  0  0  0
   -6.7679   -1.0737    5.5920 H   0  0  0  0  0  0  0  0  0  0  0  0
   -4.3630   -0.4749    5.9571 H   0  0  0  0  0  0  0  0  0  0  0  0
   -3.0716    0.4972    4.1739 H   0  0  0  0  0  0  0  0  0  0  0  0
  1  2  1  0
  2  3  2  0
  2  4  1  0
  4  5  1  0
  5  6  1  0
  6  7  1  0
  7  8  2  0
  7  9  1  0
  9 10  1  0
 10 11  1  0
 11 12  2  0
 11 13  1  0
 13 14  1  0
 14 15  1  0
 15 16  1  0
 16 17  2  0
 17 18  1  0
 18 19  2  0
 19 20  1  0
 20 21  2  0
 10 22  1  0
 22 23  1  0
 23 24  2  0
 24 25  1  0
 25 26  1  0
 26 27  2  0
 27 28  1  0
 28 29  2  0
 29 30  1  0
 30 31  2  0
  6 32  1  0
 32 33  1  0
 33 34  2  0
 33 35  1  0
 35 36  1  0
 36 37  2  0
 37 38  1  0
 38 39  2  0
 39 40  1  0
 40 41  2  0
 21 16  1  0
 27 23  1  0
 41 36  1  0
 31 26  1  0
  1 42  1  0
  1 43  1  0
  4 44  1  0
  4 45  1  0
  5 46  1  0
  5 47  1  0
  6 48  1  1
  9 49  1  0
 10 50  1  1
 13 51  1  0
 14 52  1  0
 14 53  1  0
 15 54  1  0
 15 55  1  0
 17 56  1  0
 18 57  1  0
 19 58  1  0
 20 59  1  0
 21 60  1  0
 22 61  1  0
 22 62  1  0
 24 63  1  0
 25 64  1  0
 28 65  1  0
 29 66  1  0
 30 67  1  0
 31 68  1  0
 32 69  1  0
 35 70  1  0
 35 71  1  0
 37 72  1  0
 38 73  1  0
 39 74  1  0
 40 75  1  0
 41 76  1  0
M  END
>  <Ligand ID>  (1) 
LIG0002682

>  <Ligand>  (1) 
CHEMBL3144503

>  <SMILES>  (1) 
NC(=O)CC[C@@H](C(=O)N[C@H](C(=O)NCCc1ccccc1)Cc1c[nH]c2c1cccc2)NC(=O)Cc1ccccc1

>  <CID>  (1) 
90663970.0

>  <ChEMBL ID>  (1) 
nan

>  <InChiKey>  (1) 
BCRZWUKUZGBBLX-NSOVKSMOSA-N

>  <InChi>  (1) 
InChI=1S/C32H35N5O4/c33-29(38)16-15-27(36-30(39)19-23-11-5-2-6-12-23)32(41)37-28(20-24-21-35-26-14-8-7-13-25(24)26)31(40)34-18-17-22-9-3-1-4-10-22/h1-14,21,27-28,35H,15-20H2,(H2,33,38)(H,34,40)(H,36,39)(H,37,41)/t27-,28-/m0/s1

>  <IUPAC Name>  (1) 
(2S)-N-[(2S)-3-(1H-indol-3-yl)-1-oxo-1-(2-phenylethylamino)propan-2-yl]-2-[(2-phenylacetyl)amino]pentanediamide

$$$$
