
     RDKit          3D

 31 31  0  0  0  0  0  0  0  0999 V2000
    2.9280   -0.3832   -1.2473 C   0  0  0  0  0  0  0  0  0  0  0  0
    1.5153   -0.1776   -0.7289 C   0  0  1  0  0  0  0  0  0  0  0  0
    1.1897   -1.3506    0.1432 C   0  0  0  0  0  0  0  0  0  0  0  0
   -0.2485   -1.3052    0.6455 C   0  0  0  0  0  0  0  0  0  0  0  0
   -0.6496    0.0439    1.1487 C   0  0  1  0  0  0  0  0  0  0  0  0
    0.5053    0.9965    1.2557 C   0  0  2  0  0  0  0  0  0  0  0  0
    1.3447    1.0990    0.0230 C   0  0  0  0  0  0  0  0  0  0  0  0
    1.3301    0.5145    2.2887 O   0  0  0  0  0  0  0  0  0  0  0  0
   -1.8836    0.6101    0.5177 C   0  0  0  0  0  0  0  0  0  0  0  0
   -3.0295   -0.3511    0.8023 C   0  0  0  0  0  0  0  0  0  0  0  0
   -1.8308    0.7718   -0.9704 C   0  0  0  0  0  0  0  0  0  0  0  0
    3.6824    0.1679   -0.6591 H   0  0  0  0  0  0  0  0  0  0  0  0
    3.0041   -0.0117   -2.3105 H   0  0  0  0  0  0  0  0  0  0  0  0
    3.1419   -1.4697   -1.3321 H   0  0  0  0  0  0  0  0  0  0  0  0
    0.8664   -0.2619   -1.6389 H   0  0  0  0  0  0  0  0  0  0  0  0
    1.9113   -1.4296    0.9756 H   0  0  0  0  0  0  0  0  0  0  0  0
    1.2624   -2.2760   -0.4710 H   0  0  0  0  0  0  0  0  0  0  0  0
   -0.9374   -1.6714   -0.1551 H   0  0  0  0  0  0  0  0  0  0  0  0
   -0.3020   -2.1176    1.4255 H   0  0  0  0  0  0  0  0  0  0  0  0
   -0.9569   -0.1150    2.2279 H   0  0  0  0  0  0  0  0  0  0  0  0
    0.1383    1.9672    1.5799 H   0  0  0  0  0  0  0  0  0  0  0  0
    1.0364    1.9214   -0.6560 H   0  0  0  0  0  0  0  0  0  0  0  0
    2.3703    1.4055    0.3609 H   0  0  0  0  0  0  0  0  0  0  0  0
    1.3834    1.1358    3.0537 H   0  0  0  0  0  0  0  0  0  0  0  0
   -2.1082    1.5683    0.9798 H   0  0  0  0  0  0  0  0  0  0  0  0
   -3.9833    0.2150    0.6337 H   0  0  0  0  0  0  0  0  0  0  0  0
   -2.9663   -0.7916    1.8043 H   0  0  0  0  0  0  0  0  0  0  0  0
   -3.0260   -1.1929    0.0686 H   0  0  0  0  0  0  0  0  0  0  0  0
   -1.2666    1.6562   -1.3137 H   0  0  0  0  0  0  0  0  0  0  0  0
   -2.8952    0.9636   -1.2882 H   0  0  0  0  0  0  0  0  0  0  0  0
   -1.5262   -0.1316   -1.5054 H   0  0  0  0  0  0  0  0  0  0  0  0
  1  2  1  0
  2  3  1  0
  3  4  1  0
  4  5  1  0
  5  6  1  0
  6  7  1  0
  6  8  1  0
  5  9  1  0
  9 10  1  0
  9 11  1  0
  7  2  1  0
  1 12  1  0
  1 13  1  0
  1 14  1  0
  2 15  1  6
  3 16  1  0
  3 17  1  0
  4 18  1  0
  4 19  1  0
  5 20  1  1
  6 21  1  1
  7 22  1  0
  7 23  1  0
  8 24  1  0
  9 25  1  0
 10 26  1  0
 10 27  1  0
 10 28  1  0
 11 29  1  0
 11 30  1  0
 11 31  1  0
M  END
>  <Ligand ID>  (1) 
LIG0000020

>  <Ligand>  (1) 
(+)-menthol

>  <SMILES>  (1) 
C[C@H]1CC[C@@H]([C@H](C1)O)C(C)C

>  <CID>  (1) 
165675.0

>  <ChEMBL ID>  (1) 
nan

>  <InChiKey>  (1) 
NOOLISFMXDJSKH-AEJSXWLSSA-N

>  <InChi>  (1) 
InChI=1S/C10H20O/c1-7(2)9-5-4-8(3)6-10(9)11/h7-11H,4-6H2,1-3H3/t8-,9+,10-/m0/s1

>  <IUPAC Name>  (1) 
(1S,2R,5S)-5-methyl-2-propan-2-ylcyclohexan-1-ol

$$$$
