
     RDKit          3D

 51 56  0  0  0  0  0  0  0  0999 V2000
   -2.8671    4.9112    0.7870 O   0  0  0  0  0  0  0  0  0  0  0  0
   -1.7766    4.0743    0.5541 C   0  0  0  0  0  0  0  0  0  0  0  0
   -0.5558    4.5877    0.1815 C   0  0  0  0  0  0  0  0  0  0  0  0
    0.4958    3.7363   -0.0371 C   0  0  0  0  0  0  0  0  0  0  0  0
    0.3418    2.3519    0.1121 C   0  0  0  0  0  0  0  0  0  0  0  0
   -0.8785    1.8420    0.4815 C   0  0  0  0  0  0  0  0  0  0  0  0
   -1.9280    2.6921    0.7020 C   0  0  0  0  0  0  0  0  0  0  0  0
   -0.9606    0.3476    0.6034 C   0  0  2  0  0  0  0  0  0  0  0  0
   -0.1707   -0.0439    1.8682 C   0  0  0  0  0  0  0  0  0  0  0  0
    0.8934   -1.0372    1.6338 C   0  0  0  0  0  0  0  0  0  0  0  0
    1.9170   -0.7204    0.6371 N   0  0  0  0  0  0  0  0  0  0  0  0
    1.2609    0.1105   -0.4277 C   0  0  2  0  0  0  0  0  0  0  0  0
    1.5415    1.5272   -0.1115 C   0  0  0  0  0  0  0  0  0  0  0  0
   -0.1344   -0.3091   -0.4811 C   0  0  2  0  0  0  0  0  0  0  0  0
   -0.8552   -0.3447   -1.7963 C   0  0  0  0  0  0  0  0  0  0  0  0
   -1.9911   -1.3259   -1.5187 C   0  0  0  0  0  0  0  0  0  0  0  0
   -2.7086   -1.2184   -0.3227 C   0  0  0  0  0  0  0  0  0  0  0  0
   -2.3631   -0.0803    0.5959 C   0  0  0  0  0  0  0  0  0  0  0  0
   -3.6251   -2.1406   -0.1908 N   0  0  0  0  0  0  0  0  0  0  0  0
   -3.9343   -3.0210   -0.8992 C   0  0  0  0  0  0  0  0  0  0  0  0
   -2.6802   -2.7146   -2.3435 S   0  0  0  0  0  0  0  0  0  0  0  0
   -4.8211   -4.1338   -1.0627 N   0  0  0  0  0  0  0  0  0  0  0  0
    2.2133   -1.9749   -0.0360 C   0  0  0  0  0  0  0  0  0  0  0  0
    3.5183   -1.9173   -0.7452 C   0  0  0  0  0  0  0  0  0  0  0  0
    4.7739   -1.7314    0.0307 C   0  0  0  0  0  0  0  0  0  0  0  0
    4.2767   -0.5802   -0.7513 C   0  0  0  0  0  0  0  0  0  0  0  0
   -3.0395    5.7874    0.3093 H   0  0  0  0  0  0  0  0  0  0  0  0
   -0.4238    5.6741    0.0589 H   0  0  0  0  0  0  0  0  0  0  0  0
    1.4554    4.1348   -0.3266 H   0  0  0  0  0  0  0  0  0  0  0  0
   -2.9105    2.3840    1.0146 H   0  0  0  0  0  0  0  0  0  0  0  0
    0.1804    0.8293    2.4200 H   0  0  0  0  0  0  0  0  0  0  0  0
   -0.9412   -0.5373    2.5160 H   0  0  0  0  0  0  0  0  0  0  0  0
    1.5082   -1.0501    2.5976 H   0  0  0  0  0  0  0  0  0  0  0  0
    0.5592   -2.1001    1.5733 H   0  0  0  0  0  0  0  0  0  0  0  0
    1.7429   -0.1142   -1.4097 H   0  0  0  0  0  0  0  0  0  0  0  0
    2.1890    2.0296   -0.8789 H   0  0  0  0  0  0  0  0  0  0  0  0
    2.1518    1.6471    0.8388 H   0  0  0  0  0  0  0  0  0  0  0  0
   -0.1553   -1.4121   -0.1582 H   0  0  0  0  0  0  0  0  0  0  0  0
   -1.3063    0.5926   -2.1133 H   0  0  0  0  0  0  0  0  0  0  0  0
   -0.1820   -0.7957   -2.5564 H   0  0  0  0  0  0  0  0  0  0  0  0
   -3.0049    0.7519    0.1532 H   0  0  0  0  0  0  0  0  0  0  0  0
   -2.7891   -0.2056    1.6091 H   0  0  0  0  0  0  0  0  0  0  0  0
   -5.7525   -3.9505   -1.4608 H   0  0  0  0  0  0  0  0  0  0  0  0
   -4.5665   -5.1098   -0.7991 H   0  0  0  0  0  0  0  0  0  0  0  0
    1.4425   -2.2797   -0.7750 H   0  0  0  0  0  0  0  0  0  0  0  0
    2.2659   -2.7788    0.7605 H   0  0  0  0  0  0  0  0  0  0  0  0
    3.5653   -2.4323   -1.7501 H   0  0  0  0  0  0  0  0  0  0  0  0
    5.6668   -2.2855   -0.3581 H   0  0  0  0  0  0  0  0  0  0  0  0
    4.6512   -1.6820    1.1240 H   0  0  0  0  0  0  0  0  0  0  0  0
    3.8965    0.3074   -0.2446 H   0  0  0  0  0  0  0  0  0  0  0  0
    4.8145   -0.2918   -1.7000 H   0  0  0  0  0  0  0  0  0  0  0  0
  1  2  1  0
  2  3  2  0
  3  4  1  0
  4  5  2  0
  5  6  1  0
  6  7  2  0
  6  8  1  0
  8  9  1  1
  9 10  1  0
 10 11  1  0
 11 12  1  0
 12 13  1  0
 12 14  1  0
 14 15  1  0
 15 16  1  0
 16 17  2  0
 17 18  1  0
 17 19  1  0
 19 20  2  0
 20 21  1  0
 20 22  1  0
 11 23  1  0
 23 24  1  0
 24 25  1  0
 25 26  1  0
  7  2  1  0
 18  8  1  0
 26 24  1  0
 13  5  1  0
 21 16  1  0
 14  8  1  0
  1 27  1  0
  3 28  1  0
  4 29  1  0
  7 30  1  0
  9 31  1  0
  9 32  1  0
 10 33  1  0
 10 34  1  0
 12 35  1  6
 13 36  1  0
 13 37  1  0
 14 38  1  1
 15 39  1  0
 15 40  1  0
 18 41  1  0
 18 42  1  0
 22 43  1  0
 22 44  1  0
 23 45  1  0
 23 46  1  0
 24 47  1  0
 25 48  1  0
 25 49  1  0
 26 50  1  0
 26 51  1  0
M  END
>  <Ligand ID>  (1) 
LIG0002960

>  <Ligand>  (1) 
CHEMBL226217

>  <SMILES>  (1) 
Oc1ccc2c(c1)[C@@]13CCN([C@H](C2)[C@@H]3Cc2c(C1)nc(s2)N)CC1CC1

>  <CID>  (1) 
16720749.0

>  <ChEMBL ID>  (1) 
nan

>  <InChiKey>  (1) 
HBUZKCMRMAMMDZ-YRISNDGFSA-N

>  <InChi>  (1) 
InChI=1S/C21H25N3OS/c22-20-23-17-10-21-5-6-24(11-12-1-2-12)18(16(21)9-19(17)26-20)7-13-3-4-14(25)8-15(13)21/h3-4,8,12,16,18,25H,1-2,5-7,9-11H2,(H2,22,23)/t16-,18+,21+/m0/s1

>  <IUPAC Name>  (1) 
(1S,9R,10R)-5-amino-20-(cyclopropylmethyl)-6-thia-4,20-diazapentacyclo[8.7.3.01,9.03,7.012,17]icosa-3(7),4,12(17),13,15-pentaen-15-ol

$$$$
