
     RDKit          3D

 56 60  0  0  0  0  0  0  0  0999 V2000
   -5.6381    5.1032    0.8126 Cl  0  0  0  0  0  0  0  0  0  0  0  0
   -4.9296    3.5629    0.3798 C   0  0  0  0  0  0  0  0  0  0  0  0
   -5.5460    2.6741   -0.4716 C   0  0  0  0  0  0  0  0  0  0  0  0
   -4.9520    1.4739   -0.7839 C   0  0  0  0  0  0  0  0  0  0  0  0
   -3.7141    1.0836   -0.2723 C   0  0  0  0  0  0  0  0  0  0  0  0
   -3.1133    1.9932    0.5809 C   0  0  0  0  0  0  0  0  0  0  0  0
   -3.7168    3.2133    0.8989 C   0  0  0  0  0  0  0  0  0  0  0  0
   -3.0832   -0.2152   -0.6384 C   0  0  0  0  0  0  0  0  0  0  0  0
   -1.7727   -0.1105   -1.2680 C   0  0  0  0  0  0  0  0  0  0  0  0
   -1.7302    0.4152   -2.5680 C   0  0  0  0  0  0  0  0  0  0  0  0
   -0.5616    0.5569   -3.2697 C   0  0  0  0  0  0  0  0  0  0  0  0
    0.6030    0.1623   -2.6567 C   0  0  0  0  0  0  0  0  0  0  0  0
    0.6332   -0.3624   -1.3815 C   0  0  0  0  0  0  0  0  0  0  0  0
   -0.5686   -0.4844   -0.7184 C   0  0  0  0  0  0  0  0  0  0  0  0
    1.8445   -0.7375   -0.8304 C   0  0  0  0  0  0  0  0  0  0  0  0
    2.9323   -0.5626   -1.5885 N   0  0  0  0  0  0  0  0  0  0  0  0
    2.9091   -0.0559   -2.8216 C   0  0  0  0  0  0  0  0  0  0  0  0
    1.7426    0.3081   -3.3591 N   0  0  0  0  0  0  0  0  0  0  0  0
    1.9310   -1.2840    0.4705 N   0  0  0  0  0  0  0  0  0  0  0  0
    3.1678   -1.6948    1.1066 C   0  0  0  0  0  0  0  0  0  0  0  0
    4.1277   -0.5965    1.3079 C   0  0  0  0  0  0  0  0  0  0  0  0
    3.9802    0.2037    2.4471 C   0  0  0  0  0  0  0  0  0  0  0  0
    4.8310    1.2181    2.7095 N   0  0  0  0  0  0  0  0  0  0  0  0
    5.8692    1.5172    1.8901 C   0  0  0  0  0  0  0  0  0  0  0  0
    6.0570    0.7559    0.7527 C   0  0  0  0  0  0  0  0  0  0  0  0
    5.1754   -0.2907    0.4868 C   0  0  0  0  0  0  0  0  0  0  0  0
    7.1851    1.0276   -0.2023 C   0  0  0  0  0  0  0  0  0  0  0  0
    8.2375    1.6291    0.4695 F   0  0  0  0  0  0  0  0  0  0  0  0
    6.7765    1.8072   -1.2640 F   0  0  0  0  0  0  0  0  0  0  0  0
    7.6129   -0.1956   -0.6616 F   0  0  0  0  0  0  0  0  0  0  0  0
   -3.2306   -1.2433    0.4159 C   0  0  0  0  0  0  0  0  0  0  0  0
   -4.0023   -2.3953    0.1966 C   0  0  0  0  0  0  0  0  0  0  0  0
   -4.1749   -3.3624    1.1472 C   0  0  0  0  0  0  0  0  0  0  0  0
   -3.5906   -3.2530    2.3884 C   0  0  0  0  0  0  0  0  0  0  0  0
   -2.8314   -2.1433    2.6380 C   0  0  0  0  0  0  0  0  0  0  0  0
   -2.6582   -1.1592    1.6657 C   0  0  0  0  0  0  0  0  0  0  0  0
   -3.8593   -4.5333    3.5501 Cl  0  0  0  0  0  0  0  0  0  0  0  0
   -6.5048    2.9668   -0.8733 H   0  0  0  0  0  0  0  0  0  0  0  0
   -5.4795    0.7975   -1.4662 H   0  0  0  0  0  0  0  0  0  0  0  0
   -2.1689    1.8094    1.0219 H   0  0  0  0  0  0  0  0  0  0  0  0
   -3.2185    3.8996    1.5695 H   0  0  0  0  0  0  0  0  0  0  0  0
   -3.7662   -0.5917   -1.4901 H   0  0  0  0  0  0  0  0  0  0  0  0
   -2.6409    0.7351   -3.0750 H   0  0  0  0  0  0  0  0  0  0  0  0
   -0.5387    0.9638   -4.2728 H   0  0  0  0  0  0  0  0  0  0  0  0
   -0.5688   -0.8891    0.2556 H   0  0  0  0  0  0  0  0  0  0  0  0
    3.8689    0.0423   -3.3529 H   0  0  0  0  0  0  0  0  0  0  0  0
    1.0674   -1.4290    1.0758 H   0  0  0  0  0  0  0  0  0  0  0  0
    2.9883   -2.2725    2.0379 H   0  0  0  0  0  0  0  0  0  0  0  0
    3.6498   -2.3909    0.3543 H   0  0  0  0  0  0  0  0  0  0  0  0
    3.1581    0.0159    3.1558 H   0  0  0  0  0  0  0  0  0  0  0  0
    6.5552    2.3314    2.0968 H   0  0  0  0  0  0  0  0  0  0  0  0
    5.3661   -0.8571   -0.3936 H   0  0  0  0  0  0  0  0  0  0  0  0
   -4.4969   -2.5450   -0.7738 H   0  0  0  0  0  0  0  0  0  0  0  0
   -4.7930   -4.2393    0.9066 H   0  0  0  0  0  0  0  0  0  0  0  0
   -2.3693   -2.0510    3.6117 H   0  0  0  0  0  0  0  0  0  0  0  0
   -2.0508   -0.3220    1.9613 H   0  0  0  0  0  0  0  0  0  0  0  0
  1  2  1  0
  2  3  2  0
  3  4  1  0
  4  5  2  0
  5  6  1  0
  6  7  2  0
  5  8  1  0
  8  9  1  0
  9 10  2  0
 10 11  1  0
 11 12  2  0
 12 13  1  0
 13 14  2  0
 13 15  1  0
 15 16  2  0
 16 17  1  0
 17 18  2  0
 15 19  1  0
 19 20  1  0
 20 21  1  0
 21 22  2  0
 22 23  1  0
 23 24  2  0
 24 25  1  0
 25 26  2  0
 25 27  1  0
 27 28  1  0
 27 29  1  0
 27 30  1  0
  8 31  1  0
 31 32  2  0
 32 33  1  0
 33 34  2  0
 34 35  1  0
 35 36  2  0
 34 37  1  0
  7  2  1  0
 14  9  1  0
 26 21  1  0
 36 31  1  0
 18 12  1  0
  3 38  1  0
  4 39  1  0
  6 40  1  0
  7 41  1  0
  8 42  1  0
 10 43  1  0
 11 44  1  0
 14 45  1  0
 17 46  1  0
 19 47  1  0
 20 48  1  0
 20 49  1  0
 22 50  1  0
 24 51  1  0
 26 52  1  0
 32 53  1  0
 33 54  1  0
 35 55  1  0
 36 56  1  0
M  END
>  <Ligand ID>  (1) 
LIG0005888

>  <Ligand>  (1) 
SCHEMBL17557762

>  <SMILES>  (1) 
Clc1ccc(cc1)C(c1ccc2c(c1)c(ncn2)NCc1cncc(c1)C(F)(F)F)c1ccc(cc1)Cl

>  <CID>  (1) 
118916235.0

>  <ChEMBL ID>  (1) 
nan

>  <InChiKey>  (1) 
PTRRXLAXDJMCMO-UHFFFAOYSA-N

>  <InChi>  (1) 
InChI=1S/C28H19Cl2F3N4/c29-22-6-1-18(2-7-22)26(19-3-8-23(30)9-4-19)20-5-10-25-24(12-20)27(37-16-36-25)35-14-17-11-21(15-34-13-17)28(31,32)33/h1-13,15-16,26H,14H2,(H,35,36,37)

>  <IUPAC Name>  (1) 
6-[bis(4-chlorophenyl)methyl]-N-[[5-(trifluoromethyl)pyridin-3-yl]methyl]quinazolin-4-amine

$$$$
