
     RDKit          3D

 68 75  0  0  0  0  0  0  0  0999 V2000
    3.4771    0.2936   -1.6592 C   0  0  0  0  0  0  0  0  0  0  0  0
    2.9807    0.6881   -0.4475 O   0  0  0  0  0  0  0  0  0  0  0  0
    1.6397    0.4706   -0.2899 C   0  0  2  0  0  0  0  0  0  0  0  0
    1.1321    0.9965    1.0469 C   0  0  0  0  0  0  0  0  0  0  0  0
   -0.1096    0.5815    1.3354 C   0  0  0  0  0  0  0  0  0  0  0  0
   -0.8385   -0.0259    0.1502 C   0  0  2  0  0  0  0  0  0  0  0  0
   -0.1641   -1.3011   -0.1504 C   0  0  0  0  0  0  0  0  0  0  0  0
    1.3546   -1.0170   -0.2587 C   0  0  2  0  0  0  0  0  0  0  0  0
    2.0648   -1.7250    0.8533 C   0  0  1  0  0  0  0  0  0  0  0  0
    3.5297   -1.6338    0.8290 C   0  0  0  0  0  0  0  0  0  0  0  0
    4.2965   -2.5653    0.1201 C   0  0  0  0  0  0  0  0  0  0  0  0
    5.6634   -2.5341    0.0915 C   0  0  0  0  0  0  0  0  0  0  0  0
    6.3670   -1.5735    0.7661 C   0  0  0  0  0  0  0  0  0  0  0  0
    5.6486   -0.6376    1.4766 C   0  0  0  0  0  0  0  0  0  0  0  0
    4.2628   -0.6695    1.5057 C   0  0  0  0  0  0  0  0  0  0  0  0
    1.6378   -1.3576    2.1264 O   0  0  0  0  0  0  0  0  0  0  0  0
   -0.6291    0.9824   -0.9721 C   0  0  2  0  0  0  0  0  0  0  0  0
    0.8206    1.0848   -1.3972 C   0  0  1  0  0  0  0  0  0  0  0  0
    1.0249    2.5104   -1.5148 O   0  0  0  0  0  0  0  0  0  0  0  0
    0.1684    3.1721   -0.6414 C   0  0  0  0  0  0  0  0  0  0  0  0
   -0.7927    2.2757   -0.2997 C   0  0  0  0  0  0  0  0  0  0  0  0
   -1.8490    2.4563    0.5439 C   0  0  0  0  0  0  0  0  0  0  0  0
   -2.7647    1.3502    0.8494 C   0  0  0  0  0  0  0  0  0  0  0  0
   -2.2856   -0.0273    0.4808 C   0  0  1  0  0  0  0  0  0  0  0  0
   -2.9801   -0.5350   -0.6950 N   0  0  0  0  0  0  0  0  0  0  0  0
   -2.9258    0.4706   -1.7070 C   0  0  0  0  0  0  0  0  0  0  0  0
   -1.5576    0.8750   -2.1132 C   0  0  0  0  0  0  0  0  0  0  0  0
   -4.3349   -0.9254   -0.4475 C   0  0  0  0  0  0  0  0  0  0  0  0
   -4.4244   -2.1563    0.4424 C   0  0  0  0  0  0  0  0  0  0  0  0
   -3.7558   -3.4295   -0.0834 C   0  0  0  0  0  0  0  0  0  0  0  0
   -5.2325   -3.2939   -0.0449 C   0  0  0  0  0  0  0  0  0  0  0  0
   -1.9438    3.7232    1.1136 C   0  0  0  0  0  0  0  0  0  0  0  0
   -0.9877    4.6989    0.8024 C   0  0  0  0  0  0  0  0  0  0  0  0
    0.0706    4.4303   -0.0733 C   0  0  0  0  0  0  0  0  0  0  0  0
    1.0253    5.3695   -0.3967 O   0  0  0  0  0  0  0  0  0  0  0  0
    3.3724   -0.7571   -1.9134 H   0  0  0  0  0  0  0  0  0  0  0  0
    3.0622    0.9222   -2.4805 H   0  0  0  0  0  0  0  0  0  0  0  0
    4.5881    0.4937   -1.6325 H   0  0  0  0  0  0  0  0  0  0  0  0
    1.7240    1.6312    1.6751 H   0  0  0  0  0  0  0  0  0  0  0  0
   -0.5623    0.6634    2.3085 H   0  0  0  0  0  0  0  0  0  0  0  0
   -0.5472   -1.8182   -1.0404 H   0  0  0  0  0  0  0  0  0  0  0  0
   -0.3266   -1.9847    0.7262 H   0  0  0  0  0  0  0  0  0  0  0  0
    1.6546   -1.4860   -1.2146 H   0  0  0  0  0  0  0  0  0  0  0  0
    1.8580   -2.8523    0.7721 H   0  0  0  0  0  0  0  0  0  0  0  0
    3.7422   -3.3275   -0.4154 H   0  0  0  0  0  0  0  0  0  0  0  0
    6.1737   -3.2960   -0.4838 H   0  0  0  0  0  0  0  0  0  0  0  0
    7.4340   -1.5965    0.7089 H   0  0  0  0  0  0  0  0  0  0  0  0
    6.2096    0.1191    2.0078 H   0  0  0  0  0  0  0  0  0  0  0  0
    3.7317    0.0952    2.0929 H   0  0  0  0  0  0  0  0  0  0  0  0
    0.9948   -2.0121    2.5152 H   0  0  0  0  0  0  0  0  0  0  0  0
    0.9511    0.5705   -2.3468 H   0  0  0  0  0  0  0  0  0  0  0  0
   -3.7693    1.6089    0.4815 H   0  0  0  0  0  0  0  0  0  0  0  0
   -2.8772    1.3565    1.9850 H   0  0  0  0  0  0  0  0  0  0  0  0
   -2.4627   -0.7347    1.3040 H   0  0  0  0  0  0  0  0  0  0  0  0
   -3.4195    0.0350   -2.6232 H   0  0  0  0  0  0  0  0  0  0  0  0
   -3.5447    1.3693   -1.4844 H   0  0  0  0  0  0  0  0  0  0  0  0
   -1.6536    1.9192   -2.5477 H   0  0  0  0  0  0  0  0  0  0  0  0
   -1.1596    0.2818   -2.9711 H   0  0  0  0  0  0  0  0  0  0  0  0
   -4.9853   -0.1225   -0.0646 H   0  0  0  0  0  0  0  0  0  0  0  0
   -4.7637   -1.2048   -1.4351 H   0  0  0  0  0  0  0  0  0  0  0  0
   -4.3775   -2.0005    1.5516 H   0  0  0  0  0  0  0  0  0  0  0  0
   -3.2866   -3.3765   -1.0857 H   0  0  0  0  0  0  0  0  0  0  0  0
   -3.1970   -4.0100    0.6836 H   0  0  0  0  0  0  0  0  0  0  0  0
   -5.7343   -3.9703    0.6981 H   0  0  0  0  0  0  0  0  0  0  0  0
   -5.7689   -3.2628   -1.0104 H   0  0  0  0  0  0  0  0  0  0  0  0
   -2.7600    3.9304    1.7901 H   0  0  0  0  0  0  0  0  0  0  0  0
   -1.0656    5.6939    1.2510 H   0  0  0  0  0  0  0  0  0  0  0  0
    1.1768    6.1001    0.3001 H   0  0  0  0  0  0  0  0  0  0  0  0
  1  2  1  0
  3  2  1  6
  3  4  1  0
  4  5  2  0
  5  6  1  0
  6  7  1  6
  7  8  1  0
  8  9  1  0
  9 10  1  0
 10 11  2  0
 11 12  1  0
 12 13  2  0
 13 14  1  0
 14 15  2  0
  9 16  1  0
  6 17  1  0
 17 18  1  0
 18 19  1  0
 19 20  1  0
 20 21  2  0
 21 22  1  0
 22 23  1  0
 23 24  1  0
 24 25  1  0
 25 26  1  0
 26 27  1  0
 25 28  1  0
 28 29  1  0
 29 30  1  0
 30 31  1  0
 22 32  2  0
 32 33  1  0
 33 34  2  0
 34 35  1  0
  8  3  1  0
 15 10  1  0
 17 27  1  6
 31 29  1  0
 18  3  1  0
 34 20  1  0
 24  6  1  0
 21 17  1  0
  1 36  1  0
  1 37  1  0
  1 38  1  0
  4 39  1  0
  5 40  1  0
  7 41  1  0
  7 42  1  0
  8 43  1  6
  9 44  1  6
 11 45  1  0
 12 46  1  0
 13 47  1  0
 14 48  1  0
 15 49  1  0
 16 50  1  0
 18 51  1  6
 23 52  1  0
 23 53  1  0
 24 54  1  1
 26 55  1  0
 26 56  1  0
 27 57  1  0
 27 58  1  0
 28 59  1  0
 28 60  1  0
 29 61  1  0
 30 62  1  0
 30 63  1  0
 31 64  1  0
 31 65  1  0
 32 66  1  0
 33 67  1  0
 35 68  1  0
M  END
>  <Ligand ID>  (1) 
LIG0004689

>  <Ligand>  (1) 
CHEMBL3262093

>  <SMILES>  (1) 
CO[C@]12C=C[C@]3(C[C@@H]1[C@@H](c1ccccc1)O)[C@@]14[C@H]2Oc2c4c(C[C@H]3N(CC1)CC1CC1)ccc2O

>  <CID>  (1) 
90656665.0

>  <ChEMBL ID>  (1) 
nan

>  <InChiKey>  (1) 
KLULJLHFQXPFIW-QDVRVZIDSA-N

>  <InChi>  (1) 
InChI=1S/C30H33NO4/c1-34-30-12-11-28(16-21(30)25(33)19-5-3-2-4-6-19)23-15-20-9-10-22(32)26-24(20)29(28,27(30)35-26)13-14-31(23)17-18-7-8-18/h2-6,9-12,18,21,23,25,27,32-33H,7-8,13-17H2,1H3/t21-,23-,25-,27-,28-,29+,30-/m1/s1

>  <IUPAC Name>  (1) 
(1R,2S,6R,14R,15R,19R)-5-(cyclopropylmethyl)-19-[(S)-hydroxy(phenyl)methyl]-15-methoxy-13-oxa-5-azahexacyclo[13.2.2.12,8.01,6.02,14.012,20]icosa-8(20),9,11,16-tetraen-11-ol

$$$$
