
     RDKit          3D

 94 98  0  0  0  0  0  0  0  0999 V2000
    4.1699    6.9618   -2.5407 N   0  0  0  0  0  0  0  0  0  0  0  0
    3.2779    6.0893   -1.8521 C   0  0  0  0  0  0  0  0  0  0  0  0
    3.2898    4.8162   -2.0604 N   0  0  0  0  0  0  0  0  0  0  0  0
    2.3380    4.0145   -1.3068 C   0  0  0  0  0  0  0  0  0  0  0  0
    2.9421    3.4932   -0.0270 C   0  0  0  0  0  0  0  0  0  0  0  0
    1.9776    2.6788    0.7526 C   0  0  0  0  0  0  0  0  0  0  0  0
    1.4486    1.4447    0.0216 C   0  0  1  0  0  0  0  0  0  0  0  0
    2.5207    0.5248   -0.3525 C   0  0  0  0  0  0  0  0  0  0  0  0
    3.4160    0.9547   -1.1583 O   0  0  0  0  0  0  0  0  0  0  0  0
    2.6693   -0.8060    0.0926 N   0  0  0  0  0  0  0  0  0  0  0  0
    3.7988   -1.6060   -0.3698 C   0  0  2  0  0  0  0  0  0  0  0  0
    3.3887   -2.8775   -0.9669 C   0  0  0  0  0  0  0  0  0  0  0  0
    4.2731   -3.6769   -1.4150 O   0  0  0  0  0  0  0  0  0  0  0  0
    2.0171   -3.2544   -1.0646 N   0  0  0  0  0  0  0  0  0  0  0  0
    4.7081   -1.8351    0.8455 C   0  0  0  0  0  0  0  0  0  0  0  0
    5.8972   -2.6297    0.4923 C   0  0  0  0  0  0  0  0  0  0  0  0
    6.2119   -3.9487    0.7172 C   0  0  0  0  0  0  0  0  0  0  0  0
    7.4291   -4.2022    0.1916 N   0  0  0  0  0  0  0  0  0  0  0  0
    7.9293   -3.0736   -0.3785 C   0  0  0  0  0  0  0  0  0  0  0  0
    6.9806   -2.0970   -0.1933 C   0  0  0  0  0  0  0  0  0  0  0  0
    7.2478   -0.8321   -0.6888 C   0  0  0  0  0  0  0  0  0  0  0  0
    8.4041   -0.5263   -1.3463 C   0  0  0  0  0  0  0  0  0  0  0  0
    9.3661   -1.4956   -1.5412 C   0  0  0  0  0  0  0  0  0  0  0  0
    9.1059   -2.7718   -1.0450 C   0  0  0  0  0  0  0  0  0  0  0  0
    0.4499    0.8815    0.9094 N   0  0  0  0  0  0  0  0  0  0  0  0
   -0.9557    1.0118    0.6178 C   0  0  0  0  0  0  0  0  0  0  0  0
   -1.2101    1.6435   -0.4455 O   0  0  0  0  0  0  0  0  0  0  0  0
   -1.8902    0.4274    1.5413 C   0  0  2  0  0  0  0  0  0  0  0  0
   -1.6328   -0.9810    2.0194 C   0  0  0  0  0  0  0  0  0  0  0  0
   -2.7031   -1.3177    3.0086 C   0  0  0  0  0  0  0  0  0  0  0  0
   -2.5358   -2.4227    3.8375 C   0  0  0  0  0  0  0  0  0  0  0  0
   -3.4555   -2.8093    4.7724 C   0  0  0  0  0  0  0  0  0  0  0  0
   -4.6367   -2.0693    4.9216 C   0  0  0  0  0  0  0  0  0  0  0  0
   -4.7847   -0.9819    4.0950 C   0  0  0  0  0  0  0  0  0  0  0  0
   -3.8666   -0.5928    3.1591 C   0  0  0  0  0  0  0  0  0  0  0  0
   -4.1861    0.6103    2.3421 C   0  0  0  0  0  0  0  0  0  0  0  0
   -3.3023    0.4343    1.1769 N   0  0  0  0  0  0  0  0  0  0  0  0
   -3.7991    0.2587   -0.1228 C   0  0  0  0  0  0  0  0  0  0  0  0
   -3.0186    0.1156   -1.1483 O   0  0  0  0  0  0  0  0  0  0  0  0
   -5.2379    0.2166   -0.4879 C   0  0  2  0  0  0  0  0  0  0  0  0
   -5.9493   -1.0263    0.0148 C   0  0  0  0  0  0  0  0  0  0  0  0
   -7.4102   -0.9407   -0.2640 C   0  0  0  0  0  0  0  0  0  0  0  0
   -8.2998   -1.9082    0.0186 N   0  0  0  0  0  0  0  0  0  0  0  0
   -9.5252   -1.4872   -0.3075 C   0  0  0  0  0  0  0  0  0  0  0  0
   -9.4271   -0.2397   -0.8047 N   0  0  0  0  0  0  0  0  0  0  0  0
   -8.1310    0.1328   -0.7933 C   0  0  0  0  0  0  0  0  0  0  0  0
   -5.2646    0.2580   -1.9505 N   0  0  0  0  0  0  0  0  0  0  0  0
   -5.8487   -0.5924   -2.8667 C   0  0  0  0  0  0  0  0  0  0  0  0
   -6.5021   -1.6456   -2.6610 O   0  0  0  0  0  0  0  0  0  0  0  0
   -5.7022   -0.2394   -4.3283 C   0  0  0  0  0  0  0  0  0  0  0  0
    2.3753    6.7038   -0.9217 N   0  0  0  0  0  0  0  0  0  0  0  0
    5.2020    6.8079   -2.5436 H   0  0  0  0  0  0  0  0  0  0  0  0
    3.7069    7.7688   -3.0452 H   0  0  0  0  0  0  0  0  0  0  0  0
    1.9696    3.1593   -1.8976 H   0  0  0  0  0  0  0  0  0  0  0  0
    1.4307    4.6011   -1.0370 H   0  0  0  0  0  0  0  0  0  0  0  0
    3.1534    4.4146    0.5984 H   0  0  0  0  0  0  0  0  0  0  0  0
    3.9172    2.9920   -0.1856 H   0  0  0  0  0  0  0  0  0  0  0  0
    1.0526    3.3031    0.9339 H   0  0  0  0  0  0  0  0  0  0  0  0
    2.3207    2.4263    1.7737 H   0  0  0  0  0  0  0  0  0  0  0  0
    0.9145    1.8361   -0.8638 H   0  0  0  0  0  0  0  0  0  0  0  0
    1.9448   -1.1737    0.7517 H   0  0  0  0  0  0  0  0  0  0  0  0
    4.3824   -1.0066   -1.0670 H   0  0  0  0  0  0  0  0  0  0  0  0
    1.5916   -3.6073   -1.9667 H   0  0  0  0  0  0  0  0  0  0  0  0
    1.4306   -3.1669   -0.1887 H   0  0  0  0  0  0  0  0  0  0  0  0
    4.1472   -2.4228    1.6207 H   0  0  0  0  0  0  0  0  0  0  0  0
    4.9395   -0.8605    1.3286 H   0  0  0  0  0  0  0  0  0  0  0  0
    5.5763   -4.6569    1.2338 H   0  0  0  0  0  0  0  0  0  0  0  0
    7.9528   -5.1053    0.1934 H   0  0  0  0  0  0  0  0  0  0  0  0
    6.5109   -0.0470   -0.5502 H   0  0  0  0  0  0  0  0  0  0  0  0
    8.5362    0.4851   -1.7035 H   0  0  0  0  0  0  0  0  0  0  0  0
   10.2941   -1.2833   -2.0602 H   0  0  0  0  0  0  0  0  0  0  0  0
    9.8612   -3.5228   -1.2020 H   0  0  0  0  0  0  0  0  0  0  0  0
    0.7562    0.3703    1.7823 H   0  0  0  0  0  0  0  0  0  0  0  0
   -1.7637    1.0388    2.5118 H   0  0  0  0  0  0  0  0  0  0  0  0
   -1.5110   -1.7168    1.2282 H   0  0  0  0  0  0  0  0  0  0  0  0
   -0.6827   -0.9958    2.6052 H   0  0  0  0  0  0  0  0  0  0  0  0
   -1.6313   -3.0321    3.7592 H   0  0  0  0  0  0  0  0  0  0  0  0
   -3.3614   -3.6548    5.4312 H   0  0  0  0  0  0  0  0  0  0  0  0
   -5.3906   -2.3285    5.6393 H   0  0  0  0  0  0  0  0  0  0  0  0
   -5.7206   -0.4163    4.2332 H   0  0  0  0  0  0  0  0  0  0  0  0
   -5.1919    0.8576    2.1591 H   0  0  0  0  0  0  0  0  0  0  0  0
   -3.7319    1.4754    2.9127 H   0  0  0  0  0  0  0  0  0  0  0  0
   -5.8323    1.0150   -0.1170 H   0  0  0  0  0  0  0  0  0  0  0  0
   -5.5383   -1.9654   -0.3920 H   0  0  0  0  0  0  0  0  0  0  0  0
   -5.8187   -1.0752    1.0971 H   0  0  0  0  0  0  0  0  0  0  0  0
   -8.0642   -2.8362    0.4268 H   0  0  0  0  0  0  0  0  0  0  0  0
  -10.4579   -2.0306   -0.2019 H   0  0  0  0  0  0  0  0  0  0  0  0
   -7.6750    1.0596   -1.1146 H   0  0  0  0  0  0  0  0  0  0  0  0
   -4.7294    1.1076   -2.3408 H   0  0  0  0  0  0  0  0  0  0  0  0
   -5.8280   -1.1190   -4.9551 H   0  0  0  0  0  0  0  0  0  0  0  0
   -6.4447    0.5282   -4.5687 H   0  0  0  0  0  0  0  0  0  0  0  0
   -4.6476    0.1128   -4.4589 H   0  0  0  0  0  0  0  0  0  0  0  0
    2.7023    7.0013    0.0277 H   0  0  0  0  0  0  0  0  0  0  0  0
    1.3701    6.8779   -1.1438 H   0  0  0  0  0  0  0  0  0  0  0  0
  1  2  1  0
  2  3  2  3
  3  4  1  0
  4  5  1  0
  5  6  1  0
  6  7  1  0
  7  8  1  0
  8  9  2  0
  8 10  1  0
 10 11  1  0
 11 12  1  0
 12 13  2  0
 12 14  1  0
 11 15  1  0
 15 16  1  0
 16 17  2  0
 17 18  1  0
 18 19  1  0
 19 20  2  0
 20 21  1  0
 21 22  2  0
 22 23  1  0
 23 24  2  0
  7 25  1  0
 25 26  1  0
 26 27  2  0
 26 28  1  0
 28 29  1  0
 29 30  1  0
 30 31  2  0
 31 32  1  0
 32 33  2  0
 33 34  1  0
 34 35  2  0
 35 36  1  0
 36 37  1  0
 37 38  1  0
 38 39  2  0
 38 40  1  0
 40 41  1  0
 41 42  1  0
 42 43  1  0
 43 44  1  0
 44 45  2  0
 45 46  1  0
 40 47  1  0
 47 48  1  0
 48 49  2  0
 48 50  1  0
  2 51  1  0
 20 16  1  0
 37 28  1  0
 46 42  2  0
 24 19  1  0
 35 30  1  0
  1 52  1  0
  1 53  1  0
  4 54  1  0
  4 55  1  0
  5 56  1  0
  5 57  1  0
  6 58  1  0
  6 59  1  0
  7 60  1  6
 10 61  1  0
 11 62  1  6
 14 63  1  0
 14 64  1  0
 15 65  1  0
 15 66  1  0
 17 67  1  0
 18 68  1  0
 21 69  1  0
 22 70  1  0
 23 71  1  0
 24 72  1  0
 25 73  1  0
 28 74  1  1
 29 75  1  0
 29 76  1  0
 31 77  1  0
 32 78  1  0
 33 79  1  0
 34 80  1  0
 36 81  1  0
 36 82  1  0
 40 83  1  1
 41 84  1  0
 41 85  1  0
 43 86  1  0
 44 87  1  0
 46 88  1  0
 47 89  1  0
 50 90  1  0
 50 91  1  0
 50 92  1  0
 51 93  1  0
 51 94  1  0
M  END
>  <Ligand ID>  (1) 
LIG0001444

>  <Ligand>  (1) 
CHEMBL607104

>  <SMILES>  (1) 
NC(=NCCC[C@@H](C(=O)N[C@H](C(=O)N)Cc1c[nH]c2c1cccc2)NC(=O)[C@@H]1Cc2ccccc2CN1C(=O)[C@H](Cc1[nH]cnc1)NC(=O)C)N

>  <CID>  (1) 
11006979.0

>  <ChEMBL ID>  (1) 
nan

>  <InChiKey>  (1) 
DOONUQVQAZPUIE-KRCBVYEFSA-N

>  <InChi>  (1) 
InChI=1S/C35H43N11O5/c1-20(47)43-29(15-24-17-39-19-42-24)34(51)46-18-22-8-3-2-7-21(22)14-30(46)33(50)44-27(11-6-12-40-35(37)38)32(49)45-28(31(36)48)13-23-16-41-26-10-5-4-9-25(23)26/h2-5,7-10,16-17,19,27-30,41H,6,11-15,18H2,1H3,(H2,36,48)(H,39,42)(H,43,47)(H,44,50)(H,45,49)(H4,37,38,40)/t27-,28-,29-,30-/m0/s1

>  <IUPAC Name>  (1) 
(3S)-2-[(2S)-2-acetamido-3-(1H-imidazol-5-yl)propanoyl]-N-[(2S)-1-[[(2S)-1-amino-3-(1H-indol-3-yl)-1-oxopropan-2-yl]amino]-5-(diaminomethylideneamino)-1-oxopentan-2-yl]-3,4-dihydro-1H-isoquinoline-3-carboxamide

$$$$
