
     RDKit          3D

 30 30  0  0  0  0  0  0  0  0999 V2000
   -4.6383    0.9396   -0.1150 C   0  0  0  0  0  0  0  0  0  0  0  0
   -3.4285    0.2466   -0.6707 C   0  0  0  0  0  0  0  0  0  0  0  0
   -2.1928    0.7286    0.1044 C   0  0  0  0  0  0  0  0  0  0  0  0
   -1.1150    0.0158   -0.4985 O   0  0  0  0  0  0  0  0  0  0  0  0
    0.1959    0.1709   -0.0783 C   0  0  0  0  0  0  0  0  0  0  0  0
    0.4718    0.9588    0.8626 O   0  0  0  0  0  0  0  0  0  0  0  0
    1.2338   -0.6313   -0.7895 C   0  0  0  0  0  0  0  0  0  0  0  0
    2.5381   -0.3115   -0.1847 C   0  0  0  0  0  0  0  0  0  0  0  0
    3.3402    0.7063   -0.6365 C   0  0  0  0  0  0  0  0  0  0  0  0
    4.5643    0.9574   -0.0196 C   0  0  0  0  0  0  0  0  0  0  0  0
    4.9833    0.1776    1.0600 C   0  0  0  0  0  0  0  0  0  0  0  0
    4.1675   -0.8487    1.5107 C   0  0  0  0  0  0  0  0  0  0  0  0
    2.9498   -1.0902    0.8887 C   0  0  0  0  0  0  0  0  0  0  0  0
   -3.4900   -1.2520   -0.4506 C   0  0  0  0  0  0  0  0  0  0  0  0
   -4.5034    2.0295   -0.3317 H   0  0  0  0  0  0  0  0  0  0  0  0
   -4.6447    0.7794    0.9736 H   0  0  0  0  0  0  0  0  0  0  0  0
   -5.5458    0.5711   -0.6189 H   0  0  0  0  0  0  0  0  0  0  0  0
   -3.2742    0.4238   -1.7511 H   0  0  0  0  0  0  0  0  0  0  0  0
   -2.0831    1.8111    0.0697 H   0  0  0  0  0  0  0  0  0  0  0  0
   -2.2970    0.4276    1.1671 H   0  0  0  0  0  0  0  0  0  0  0  0
    1.1623   -0.3815   -1.8672 H   0  0  0  0  0  0  0  0  0  0  0  0
    0.9727   -1.7184   -0.6744 H   0  0  0  0  0  0  0  0  0  0  0  0
    3.0144    1.3174   -1.4808 H   0  0  0  0  0  0  0  0  0  0  0  0
    5.1803    1.7709   -0.3985 H   0  0  0  0  0  0  0  0  0  0  0  0
    5.9441    0.3779    1.5410 H   0  0  0  0  0  0  0  0  0  0  0  0
    4.4940   -1.4492    2.3448 H   0  0  0  0  0  0  0  0  0  0  0  0
    2.3513   -1.9058    1.2822 H   0  0  0  0  0  0  0  0  0  0  0  0
   -2.4391   -1.6341   -0.5108 H   0  0  0  0  0  0  0  0  0  0  0  0
   -3.7961   -1.4128    0.6005 H   0  0  0  0  0  0  0  0  0  0  0  0
   -4.1155   -1.7747   -1.1844 H   0  0  0  0  0  0  0  0  0  0  0  0
  1  2  1  0
  2  3  1  0
  3  4  1  0
  4  5  1  0
  5  6  2  0
  5  7  1  0
  7  8  1  0
  8  9  2  0
  9 10  1  0
 10 11  2  0
 11 12  1  0
 12 13  2  0
  2 14  1  0
 13  8  1  0
  1 15  1  0
  1 16  1  0
  1 17  1  0
  2 18  1  0
  3 19  1  0
  3 20  1  0
  7 21  1  0
  7 22  1  0
  9 23  1  0
 10 24  1  0
 11 25  1  0
 12 26  1  0
 13 27  1  0
 14 28  1  0
 14 29  1  0
 14 30  1  0
M  END
>  <Ligand ID>  (1) 
LIG0000731

>  <Ligand>  (1) 
Isobutyl phenylacetate

>  <SMILES>  (1) 
CC(COC(=O)Cc1ccccc1)C

>  <CID>  (1) 
60998.0

>  <ChEMBL ID>  (1) 
nan

>  <InChiKey>  (1) 
RJASFPFZACBKBE-UHFFFAOYSA-N

>  <InChi>  (1) 
InChI=1S/C12H16O2/c1-10(2)9-14-12(13)8-11-6-4-3-5-7-11/h3-7,10H,8-9H2,1-2H3

>  <IUPAC Name>  (1) 
2-methylpropyl 2-phenylacetate

$$$$
