
     RDKit          3D

 55 57  0  0  0  0  0  0  0  0999 V2000
  -10.1539   -1.2834   -1.2144 C   0  0  0  0  0  0  0  0  0  0  0  0
   -8.7884   -1.1465   -0.8634 O   0  0  0  0  0  0  0  0  0  0  0  0
   -7.9818   -0.0902   -1.2172 C   0  0  0  0  0  0  0  0  0  0  0  0
   -8.3820    0.8990   -1.9122 O   0  0  0  0  0  0  0  0  0  0  0  0
   -6.5685   -0.0475   -0.7966 C   0  0  0  0  0  0  0  0  0  0  0  0
   -5.7775    1.0371   -1.1620 C   0  0  0  0  0  0  0  0  0  0  0  0
   -4.4363    1.0770   -0.7672 C   0  0  0  0  0  0  0  0  0  0  0  0
   -3.8745    0.0618   -0.0207 C   0  0  0  0  0  0  0  0  0  0  0  0
   -4.6835   -1.0225    0.3398 C   0  0  0  0  0  0  0  0  0  0  0  0
   -6.0105   -1.0624   -0.0502 C   0  0  0  0  0  0  0  0  0  0  0  0
   -2.4985    0.0979    0.3735 N   0  0  0  0  0  0  0  0  0  0  0  0
   -2.0587    0.0276    1.6241 C   0  0  0  0  0  0  0  0  0  0  0  0
   -2.8849   -0.0949    2.8705 C   0  0  0  0  0  0  0  0  0  0  0  0
   -0.6914    0.0870    1.5767 C   0  0  0  0  0  0  0  0  0  0  0  0
   -0.2605    0.1991    0.2452 C   0  0  0  0  0  0  0  0  0  0  0  0
   -1.4292    0.2020   -0.4818 C   0  0  0  0  0  0  0  0  0  0  0  0
   -1.5463    0.2917   -1.9484 C   0  0  0  0  0  0  0  0  0  0  0  0
    1.1200    0.3040   -0.1349 C   0  0  0  0  0  0  0  0  0  0  0  0
    2.0113    0.2311    0.7867 O   0  0  0  0  0  0  0  0  0  0  0  0
    1.6542    0.4936   -1.4960 C   0  0  0  0  0  0  0  0  0  0  0  0
    3.0137   -0.6407   -1.8266 S   0  0  0  0  0  0  0  0  0  0  0  0
    4.4517   -0.3453   -0.8379 C   0  0  0  0  0  0  0  0  0  0  0  0
    5.4126    0.5692   -1.2775 C   0  0  0  0  0  0  0  0  0  0  0  0
    6.5623    0.8164   -0.5667 C   0  0  0  0  0  0  0  0  0  0  0  0
    6.8276    0.1620    0.6366 C   0  0  0  0  0  0  0  0  0  0  0  0
    5.8809   -0.7383    1.0697 C   0  0  0  0  0  0  0  0  0  0  0  0
    4.7162   -0.9923    0.3552 C   0  0  0  0  0  0  0  0  0  0  0  0
    8.0312    0.4401    1.3386 N   0  0  0  0  0  0  0  0  0  0  0  0
    9.1637   -0.3759    0.9770 C   0  0  0  0  0  0  0  0  0  0  0  0
    9.0444   -1.2699    0.0847 O   0  0  0  0  0  0  0  0  0  0  0  0
   10.4856   -0.2157    1.6097 C   0  0  0  0  0  0  0  0  0  0  0  0
  -10.2536   -2.2468   -1.7818 H   0  0  0  0  0  0  0  0  0  0  0  0
  -10.5350   -0.4419   -1.8401 H   0  0  0  0  0  0  0  0  0  0  0  0
  -10.7079   -1.3871   -0.2560 H   0  0  0  0  0  0  0  0  0  0  0  0
   -6.1944    1.8386   -1.7454 H   0  0  0  0  0  0  0  0  0  0  0  0
   -3.7864    1.9073   -1.0288 H   0  0  0  0  0  0  0  0  0  0  0  0
   -4.2516   -1.8399    0.9364 H   0  0  0  0  0  0  0  0  0  0  0  0
   -6.6651   -1.8863    0.2123 H   0  0  0  0  0  0  0  0  0  0  0  0
   -2.2487    0.1921    3.7326 H   0  0  0  0  0  0  0  0  0  0  0  0
   -3.7459    0.6192    2.8370 H   0  0  0  0  0  0  0  0  0  0  0  0
   -3.2253   -1.1295    3.0385 H   0  0  0  0  0  0  0  0  0  0  0  0
   -0.0747    0.0491    2.4671 H   0  0  0  0  0  0  0  0  0  0  0  0
   -2.6499    0.1941   -2.2157 H   0  0  0  0  0  0  0  0  0  0  0  0
   -1.0813   -0.5746   -2.4754 H   0  0  0  0  0  0  0  0  0  0  0  0
   -1.2855    1.2810   -2.3726 H   0  0  0  0  0  0  0  0  0  0  0  0
    0.9299    0.5350   -2.3033 H   0  0  0  0  0  0  0  0  0  0  0  0
    2.1407    1.5340   -1.5081 H   0  0  0  0  0  0  0  0  0  0  0  0
    5.2882    1.1217   -2.2021 H   0  0  0  0  0  0  0  0  0  0  0  0
    7.3213    1.5290   -0.8961 H   0  0  0  0  0  0  0  0  0  0  0  0
    6.0691   -1.2653    2.0137 H   0  0  0  0  0  0  0  0  0  0  0  0
    3.9831   -1.7088    0.7177 H   0  0  0  0  0  0  0  0  0  0  0  0
    8.1290    1.1739    2.0716 H   0  0  0  0  0  0  0  0  0  0  0  0
   11.1033    0.3923    0.9074 H   0  0  0  0  0  0  0  0  0  0  0  0
   10.4216    0.3351    2.5573 H   0  0  0  0  0  0  0  0  0  0  0  0
   10.9701   -1.1958    1.8194 H   0  0  0  0  0  0  0  0  0  0  0  0
  1  2  1  0
  2  3  1  0
  3  4  2  0
  3  5  1  0
  5  6  2  0
  6  7  1  0
  7  8  2  0
  8  9  1  0
  9 10  2  0
  8 11  1  0
 11 12  1  0
 12 13  1  0
 12 14  2  0
 14 15  1  0
 15 16  2  0
 16 17  1  0
 15 18  1  0
 18 19  2  0
 18 20  1  0
 20 21  1  0
 21 22  1  0
 22 23  2  0
 23 24  1  0
 24 25  2  0
 25 26  1  0
 26 27  2  0
 25 28  1  0
 28 29  1  0
 29 30  2  0
 29 31  1  0
 10  5  1  0
 16 11  1  0
 27 22  1  0
  1 32  1  0
  1 33  1  0
  1 34  1  0
  6 35  1  0
  7 36  1  0
  9 37  1  0
 10 38  1  0
 13 39  1  0
 13 40  1  0
 13 41  1  0
 14 42  1  0
 17 43  1  0
 17 44  1  0
 17 45  1  0
 20 46  1  0
 20 47  1  0
 23 48  1  0
 24 49  1  0
 26 50  1  0
 27 51  1  0
 28 52  1  0
 31 53  1  0
 31 54  1  0
 31 55  1  0
M  END
>  <Ligand ID>  (1) 
LIG0000690

>  <Ligand>  (1) 
AC1N2AWG

>  <SMILES>  (1) 
COC(=O)c1ccc(cc1)n1c(C)cc(c1C)C(=O)CSc1ccc(cc1)NC(=O)C

>  <CID>  (1) 
4043841.0

>  <ChEMBL ID>  (1) 
nan

>  <InChiKey>  (1) 
BCNKQXDDMIBITO-UHFFFAOYSA-N

>  <InChi>  (1) 
InChI=1S/C24H24N2O4S/c1-15-13-22(16(2)26(15)20-9-5-18(6-10-20)24(29)30-4)23(28)14-31-21-11-7-19(8-12-21)25-17(3)27/h5-13H,14H2,1-4H3,(H,25,27)

>  <IUPAC Name>  (1) 
methyl 4-[3-[2-(4-acetamidophenyl)sulfanylacetyl]-2,5-dimethylpyrrol-1-yl]benzoate

$$$$
