
     RDKit          3D

 71 69  0  0  0  0  0  0  0  0999 V2000
    1.4301   -0.6525    0.4096 O   0  0  0  0  0  0  0  0  0  0  0  0
    0.4846    0.2815   -0.0038 C   0  0  0  0  0  0  0  0  0  0  0  0
    0.9179    1.4175   -0.3693 O   0  0  0  0  0  0  0  0  0  0  0  0
   -0.9610   -0.0506   -0.0112 C   0  0  0  0  0  0  0  0  0  0  0  0
   -1.2476   -1.1180   -0.8310 F   0  0  0  0  0  0  0  0  0  0  0  0
   -1.6409    1.0649   -0.4652 F   0  0  0  0  0  0  0  0  0  0  0  0
   -1.3328   -0.3785    1.2743 F   0  0  0  0  0  0  0  0  0  0  0  0
    9.0655   -1.1234    1.0577 C   0  0  0  0  0  0  0  0  0  0  0  0
    7.6426   -0.7775    1.5681 C   0  0  0  0  0  0  0  0  0  0  0  0
    6.8762   -0.3393    0.3822 C   0  0  0  0  0  0  0  0  0  0  0  0
    5.4496    0.0890    0.7775 C   0  0  0  0  0  0  0  0  0  0  0  0
    4.7459   -1.0457    1.3788 C   0  0  0  0  0  0  0  0  0  0  0  0
    3.3810   -0.9528    1.9052 C   0  0  0  0  0  0  0  0  0  0  0  0
    2.2700   -0.5599    1.0213 C   0  0  0  0  0  0  0  0  0  0  0  0
    2.2505    0.8191    0.4736 C   0  0  0  0  0  0  0  0  0  0  0  0
    0.9656    0.9811   -0.3823 C   0  0  0  0  0  0  0  0  0  0  0  0
    0.9186    0.0285   -1.5207 C   0  0  0  0  0  0  0  0  0  0  0  0
   -0.3835    0.2670   -2.3176 C   0  0  0  0  0  0  0  0  0  0  0  0
   -0.4735    1.6398   -2.8681 C   0  0  0  0  0  0  0  0  0  0  0  0
   -1.7112    1.8556   -3.6641 C   0  0  0  0  0  0  0  0  0  0  0  0
   -3.0092    1.6865   -2.9711 C   0  0  0  0  0  0  0  0  0  0  0  0
   -3.1957    0.4129   -2.4794 O   0  0  0  0  0  0  0  0  0  0  0  0
   -4.3982    0.3406   -1.8647 N   0  0  0  0  0  0  0  0  0  0  0  0
   -4.5878    0.6211   -0.4826 C   0  0  0  0  0  0  0  0  0  0  0  0
   -3.6379    0.9601    0.2727 O   0  0  0  0  0  0  0  0  0  0  0  0
   -5.9757    0.4963    0.0442 C   0  0  2  0  0  0  0  0  0  0  0  0
   -5.9268   -0.4223    1.2389 C   0  0  0  0  0  0  0  0  0  0  0  0
   -7.1560   -0.4826    1.8622 O   0  0  0  0  0  0  0  0  0  0  0  0
   -7.0790   -1.5065    3.1840 P   0  0  0  0  0  0  0  0  0  0  0  0
   -6.4719   -0.6996    4.3237 O   0  0  0  0  0  0  0  0  0  0  0  0
   -6.2485   -2.9356    2.8975 O   0  0  0  0  0  0  0  0  0  0  0  0
   -8.6664   -1.9365    3.6117 O   0  0  0  0  0  0  0  0  0  0  0  0
   -6.9160    0.1028   -0.9600 N   0  0  0  0  0  0  0  0  0  0  0  0
    2.3497   -0.5642   -0.0035 H   0  0  0  0  0  0  0  0  0  0  0  0
    8.9306   -1.9549    0.3571 H   0  0  0  0  0  0  0  0  0  0  0  0
    9.4082   -0.2402    0.5123 H   0  0  0  0  0  0  0  0  0  0  0  0
    9.6403   -1.3744    1.9615 H   0  0  0  0  0  0  0  0  0  0  0  0
    7.2142   -1.7402    1.9740 H   0  0  0  0  0  0  0  0  0  0  0  0
    7.7663    0.0055    2.3219 H   0  0  0  0  0  0  0  0  0  0  0  0
    7.3637    0.4880   -0.1839 H   0  0  0  0  0  0  0  0  0  0  0  0
    6.7876   -1.1634   -0.3855 H   0  0  0  0  0  0  0  0  0  0  0  0
    5.0371    0.3931   -0.2324 H   0  0  0  0  0  0  0  0  0  0  0  0
    5.4963    1.0068    1.3852 H   0  0  0  0  0  0  0  0  0  0  0  0
    4.8570   -1.9170    0.6425 H   0  0  0  0  0  0  0  0  0  0  0  0
    5.4016   -1.3880    2.2609 H   0  0  0  0  0  0  0  0  0  0  0  0
    3.3374   -0.3285    2.8575 H   0  0  0  0  0  0  0  0  0  0  0  0
    3.0871   -1.9940    2.3081 H   0  0  0  0  0  0  0  0  0  0  0  0
    1.2878   -0.6733    1.5866 H   0  0  0  0  0  0  0  0  0  0  0  0
    2.1871   -1.3164    0.1754 H   0  0  0  0  0  0  0  0  0  0  0  0
    2.0168    1.4979    1.3619 H   0  0  0  0  0  0  0  0  0  0  0  0
    3.1005    1.1841   -0.0819 H   0  0  0  0  0  0  0  0  0  0  0  0
    1.0237    2.0244   -0.7379 H   0  0  0  0  0  0  0  0  0  0  0  0
    0.1296    0.8343    0.3316 H   0  0  0  0  0  0  0  0  0  0  0  0
    0.8300   -1.0460   -1.2214 H   0  0  0  0  0  0  0  0  0  0  0  0
    1.7271    0.1835   -2.2397 H   0  0  0  0  0  0  0  0  0  0  0  0
   -1.1739   -0.0138   -1.5873 H   0  0  0  0  0  0  0  0  0  0  0  0
   -0.4305   -0.4502   -3.1441 H   0  0  0  0  0  0  0  0  0  0  0  0
   -0.3801    2.4416   -2.0931 H   0  0  0  0  0  0  0  0  0  0  0  0
    0.4132    1.7831   -3.5363 H   0  0  0  0  0  0  0  0  0  0  0  0
   -1.6695    1.1023   -4.5116 H   0  0  0  0  0  0  0  0  0  0  0  0
   -1.6856    2.8374   -4.2262 H   0  0  0  0  0  0  0  0  0  0  0  0
   -3.2278    2.4766   -2.2217 H   0  0  0  0  0  0  0  0  0  0  0  0
   -3.8123    1.8252   -3.7562 H   0  0  0  0  0  0  0  0  0  0  0  0
   -5.2082    0.0573   -2.4838 H   0  0  0  0  0  0  0  0  0  0  0  0
   -6.3515    1.4794    0.4474 H   0  0  0  0  0  0  0  0  0  0  0  0
   -5.2297    0.0755    1.9707 H   0  0  0  0  0  0  0  0  0  0  0  0
   -5.4696   -1.4052    1.0146 H   0  0  0  0  0  0  0  0  0  0  0  0
   -6.0839   -3.1510    1.9632 H   0  0  0  0  0  0  0  0  0  0  0  0
   -9.1222   -2.1963    2.7596 H   0  0  0  0  0  0  0  0  0  0  0  0
   -7.8094   -0.1408   -0.4759 H   0  0  0  0  0  0  0  0  0  0  0  0
   -7.1177    0.9271   -1.5616 H   0  0  0  0  0  0  0  0  0  0  0  0
  1  2  1  0
  2  3  2  0
  2  4  1  0
  4  5  1  0
  4  6  1  0
  4  7  1  0
  8  9  1  0
  9 10  1  0
 10 11  1  0
 11 12  1  0
 12 13  1  0
 13 14  1  0
 14 15  1  0
 15 16  1  0
 16 17  1  0
 17 18  1  0
 18 19  1  0
 19 20  1  0
 20 21  1  0
 21 22  1  0
 22 23  1  0
 23 24  1  0
 24 25  2  0
 24 26  1  0
 26 27  1  0
 27 28  1  0
 28 29  1  0
 29 30  2  0
 29 31  1  0
 29 32  1  0
 26 33  1  0
  1 34  1  0
  8 35  1  0
  8 36  1  0
  8 37  1  0
  9 38  1  0
  9 39  1  0
 10 40  1  0
 10 41  1  0
 11 42  1  0
 11 43  1  0
 12 44  1  0
 12 45  1  0
 13 46  1  0
 13 47  1  0
 14 48  1  0
 14 49  1  0
 15 50  1  0
 15 51  1  0
 16 52  1  0
 16 53  1  0
 17 54  1  0
 17 55  1  0
 18 56  1  0
 18 57  1  0
 19 58  1  0
 19 59  1  0
 20 60  1  0
 20 61  1  0
 21 62  1  0
 21 63  1  0
 23 64  1  0
 26 65  1  1
 27 66  1  0
 27 67  1  0
 31 68  1  0
 32 69  1  0
 33 70  1  0
 33 71  1  0
M  END
>  <Ligand ID>  (1) 
LIG0004277

>  <Ligand>  (1) 
CHEMBL115505

>  <SMILES>  (1) 
OC(=O)C(F)(F)F.CCCCCCCCCCCCCCONC(=O)[C@H](COP(=O)(O)O)N

>  <CID>  (1) 
44342245.0

>  <ChEMBL ID>  (1) 
nan

>  <InChiKey>  (1) 
WGEZURZHFRGUCB-NTISSMGPSA-N

>  <InChi>  (1) 
InChI=1S/C17H37N2O6P.C2HF3O2/c1-2-3-4-5-6-7-8-9-10-11-12-13-14-24-19-17(20)16(18)15-25-26(21,22)23;3-2(4,5)1(6)7/h16H,2-15,18H2,1H3,(H,19,20)(H2,21,22,23);(H,6,7)/t16-;/m0./s1

>  <IUPAC Name>  (1) 
[(2S)-2-amino-3-oxo-3-(tetradecoxyamino)propyl] dihydrogen phosphate;2,2,2-trifluoroacetic acid

$$$$
