
     RDKit          3D

 57 58  0  0  0  0  0  0  0  0999 V2000
   -6.3503    2.3947   -1.6932 C   0  0  0  0  0  0  0  0  0  0  0  0
   -6.5357    0.9323   -1.3909 C   0  0  0  0  0  0  0  0  0  0  0  0
   -5.2069    0.2957   -1.0706 C   0  0  0  0  0  0  0  0  0  0  0  0
   -4.5540    0.9135    0.1024 C   0  0  0  0  0  0  0  0  0  0  0  0
   -5.0479    1.8548    0.7690 O   0  0  0  0  0  0  0  0  0  0  0  0
   -3.2541    0.3928    0.5066 C   0  0  0  0  0  0  0  0  0  0  0  0
   -2.6258   -0.6364   -0.1601 C   0  0  0  0  0  0  0  0  0  0  0  0
   -1.3817   -1.1291    0.2297 C   0  0  0  0  0  0  0  0  0  0  0  0
   -0.7548   -0.5520    1.3398 C   0  0  0  0  0  0  0  0  0  0  0  0
   -1.3642    0.4737    2.0170 C   0  0  0  0  0  0  0  0  0  0  0  0
   -2.6141    0.9335    1.5863 C   0  0  0  0  0  0  0  0  0  0  0  0
   -3.2053    1.9719    2.2911 O   0  0  0  0  0  0  0  0  0  0  0  0
   -0.7386    1.1095    3.1907 C   0  0  0  0  0  0  0  0  0  0  0  0
    0.4938   -1.0324    1.7463 O   0  0  0  0  0  0  0  0  0  0  0  0
    1.1432   -2.0979    1.0532 C   0  0  0  0  0  0  0  0  0  0  0  0
    2.4576   -2.3775    1.7276 C   0  0  0  0  0  0  0  0  0  0  0  0
    3.2424   -3.4921    1.0879 C   0  0  0  0  0  0  0  0  0  0  0  0
    3.5885   -3.2203   -0.3686 C   0  0  0  0  0  0  0  0  0  0  0  0
    4.3012   -2.1565   -0.6286 O   0  0  0  0  0  0  0  0  0  0  0  0
    4.9004   -1.0422   -0.8284 C   0  0  0  0  0  0  0  0  0  0  0  0
    4.3249    0.1823   -0.4433 C   0  0  0  0  0  0  0  0  0  0  0  0
    4.9591    1.3835   -0.6531 C   0  0  0  0  0  0  0  0  0  0  0  0
    6.1922    1.3485   -1.2607 C   0  0  0  0  0  0  0  0  0  0  0  0
    6.8210    0.1943   -1.6661 C   0  0  0  0  0  0  0  0  0  0  0  0
    6.1655   -0.9925   -1.4445 C   0  0  0  0  0  0  0  0  0  0  0  0
    6.8974   -2.4849   -1.9284 Cl  0  0  0  0  0  0  0  0  0  0  0  0
    6.8810    2.6090   -1.4925 C   0  0  0  0  0  0  0  0  0  0  0  0
    8.0184    2.6759   -2.0447 O   0  0  0  0  0  0  0  0  0  0  0  0
    6.3222    3.8360   -1.1152 O   0  0  0  0  0  0  0  0  0  0  0  0
   -7.5488    0.7075   -0.2875 C   0  0  0  0  0  0  0  0  0  0  0  0
   -6.3688    2.5249   -2.7927 H   0  0  0  0  0  0  0  0  0  0  0  0
   -7.2053    2.9485   -1.2479 H   0  0  0  0  0  0  0  0  0  0  0  0
   -5.3788    2.7984   -1.3389 H   0  0  0  0  0  0  0  0  0  0  0  0
   -6.9427    0.4326   -2.2911 H   0  0  0  0  0  0  0  0  0  0  0  0
   -5.3769   -0.7816   -0.9192 H   0  0  0  0  0  0  0  0  0  0  0  0
   -4.5516    0.4139   -1.9568 H   0  0  0  0  0  0  0  0  0  0  0  0
   -3.1254   -1.0733   -1.0193 H   0  0  0  0  0  0  0  0  0  0  0  0
   -0.9091   -1.9489   -0.3222 H   0  0  0  0  0  0  0  0  0  0  0  0
   -3.2958    2.9126    1.9046 H   0  0  0  0  0  0  0  0  0  0  0  0
   -1.1973    2.1106    3.3735 H   0  0  0  0  0  0  0  0  0  0  0  0
   -0.8930    0.5343    4.1134 H   0  0  0  0  0  0  0  0  0  0  0  0
    0.3461    1.2822    3.0528 H   0  0  0  0  0  0  0  0  0  0  0  0
    0.4792   -2.9818    1.0237 H   0  0  0  0  0  0  0  0  0  0  0  0
    1.3514   -1.8017   -0.0043 H   0  0  0  0  0  0  0  0  0  0  0  0
    2.2901   -2.6751    2.7875 H   0  0  0  0  0  0  0  0  0  0  0  0
    3.1157   -1.4815    1.6938 H   0  0  0  0  0  0  0  0  0  0  0  0
    2.5536   -4.3847    1.0679 H   0  0  0  0  0  0  0  0  0  0  0  0
    4.0897   -3.7999    1.6994 H   0  0  0  0  0  0  0  0  0  0  0  0
    3.9587   -4.2145   -0.7519 H   0  0  0  0  0  0  0  0  0  0  0  0
    2.5689   -3.1529   -0.8733 H   0  0  0  0  0  0  0  0  0  0  0  0
    3.3547    0.2239    0.0346 H   0  0  0  0  0  0  0  0  0  0  0  0
    4.4994    2.3236   -0.3488 H   0  0  0  0  0  0  0  0  0  0  0  0
    7.7935    0.2057   -2.1419 H   0  0  0  0  0  0  0  0  0  0  0  0
    6.7794    4.7230   -1.2181 H   0  0  0  0  0  0  0  0  0  0  0  0
   -7.3902   -0.2671    0.2209 H   0  0  0  0  0  0  0  0  0  0  0  0
   -7.5049    1.4759    0.5113 H   0  0  0  0  0  0  0  0  0  0  0  0
   -8.5672    0.6579   -0.7441 H   0  0  0  0  0  0  0  0  0  0  0  0
  1  2  1  0
  2  3  1  0
  3  4  1  0
  4  5  2  0
  4  6  1  0
  6  7  2  0
  7  8  1  0
  8  9  2  0
  9 10  1  0
 10 11  2  0
 11 12  1  0
 10 13  1  0
  9 14  1  0
 14 15  1  0
 15 16  1  0
 16 17  1  0
 17 18  1  0
 18 19  1  0
 19 20  1  0
 20 21  2  0
 21 22  1  0
 22 23  2  0
 23 24  1  0
 24 25  2  0
 25 26  1  0
 23 27  1  0
 27 28  2  0
 27 29  1  0
  2 30  1  0
 11  6  1  0
 25 20  1  0
  1 31  1  0
  1 32  1  0
  1 33  1  0
  2 34  1  0
  3 35  1  0
  3 36  1  0
  7 37  1  0
  8 38  1  0
 12 39  1  0
 13 40  1  0
 13 41  1  0
 13 42  1  0
 15 43  1  0
 15 44  1  0
 16 45  1  0
 16 46  1  0
 17 47  1  0
 17 48  1  0
 18 49  1  0
 18 50  1  0
 21 51  1  0
 22 52  1  0
 24 53  1  0
 29 54  1  0
 30 55  1  0
 30 56  1  0
 30 57  1  0
M  END
>  <Ligand ID>  (1) 
LIG0003639

>  <Ligand>  (1) 
CHEMBL3287697

>  <SMILES>  (1) 
CC(CC(=O)c1ccc(c(c1O)C)OCCCCOc1ccc(cc1Cl)C(=O)O)C

>  <CID>  (1) 
90643874.0

>  <ChEMBL ID>  (1) 
nan

>  <InChiKey>  (1) 
DOUCTXYLBQZORZ-UHFFFAOYSA-N

>  <InChi>  (1) 
InChI=1S/C23H27ClO6/c1-14(2)12-19(25)17-7-9-20(15(3)22(17)26)29-10-4-5-11-30-21-8-6-16(23(27)28)13-18(21)24/h6-9,13-14,26H,4-5,10-12H2,1-3H3,(H,27,28)

>  <IUPAC Name>  (1) 
3-chloro-4-[4-[3-hydroxy-2-methyl-4-(3-methylbutanoyl)phenoxy]butoxy]benzoic acid

$$$$
