
     RDKit          3D

136138  0  0  0  0  0  0  0  0999 V2000
    9.2244    4.2813    1.5564 N   0  0  0  0  0  0  0  0  0  0  0  0
    9.3049    2.9858    0.8939 C   0  0  0  0  0  0  0  0  0  0  0  0
    8.3988    3.0381   -0.3244 C   0  0  0  0  0  0  0  0  0  0  0  0
    8.4709    1.6753   -1.0347 C   0  0  1  0  0  0  0  0  0  0  0  0
    9.8657    1.3975   -1.4554 C   0  0  0  0  0  0  0  0  0  0  0  0
   10.5012    0.3782   -1.0495 O   0  0  0  0  0  0  0  0  0  0  0  0
   10.5746    2.2608   -2.3392 N   0  0  0  0  0  0  0  0  0  0  0  0
   11.9332    1.9032   -2.6858 C   0  0  0  0  0  0  0  0  0  0  0  0
   12.4486    2.9636   -3.6078 C   0  0  0  0  0  0  0  0  0  0  0  0
   11.6455    3.9202   -3.8958 O   0  0  0  0  0  0  0  0  0  0  0  0
   13.7687    2.9143   -4.1398 N   0  0  0  0  0  0  0  0  0  0  0  0
    8.0048    0.6797   -0.1041 N   0  0  0  0  0  0  0  0  0  0  0  0
    6.7396    0.0029   -0.2340 C   0  0  0  0  0  0  0  0  0  0  0  0
    5.9919    0.2637   -1.1848 O   0  0  0  0  0  0  0  0  0  0  0  0
    6.4511   -0.9881    0.8493 C   0  0  2  0  0  0  0  0  0  0  0  0
    7.0126   -2.3114    0.4175 C   0  0  0  0  0  0  0  0  0  0  0  0
    5.9771   -3.3177    0.7994 C   0  0  0  0  0  0  0  0  0  0  0  0
    4.7858   -2.5964    1.3361 C   0  0  0  0  0  0  0  0  0  0  0  0
    5.0474   -1.1931    1.0293 N   0  0  0  0  0  0  0  0  0  0  0  0
    4.0616   -0.2127    0.9730 C   0  0  0  0  0  0  0  0  0  0  0  0
    4.4655    0.9898    0.6478 O   0  0  0  0  0  0  0  0  0  0  0  0
    2.6160   -0.2671    1.2143 C   0  0  2  0  0  0  0  0  0  0  0  0
    2.2301    0.9257    2.0842 C   0  0  0  0  0  0  0  0  0  0  0  0
    0.4682    0.9417    2.3503 S   0  0  0  0  0  0  0  0  0  0  0  0
   -0.6287    1.2672    0.5900 S   0  0  0  0  0  0  0  0  0  0  0  0
   -0.9512    2.9663    0.1908 C   0  0  0  0  0  0  0  0  0  0  0  0
   -1.8488    3.7359    1.0846 C   0  0  2  0  0  0  0  0  0  0  0  0
   -1.4206    3.8737    2.4409 N   0  0  0  0  0  0  0  0  0  0  0  0
   -3.2537    3.2416    1.1157 C   0  0  0  0  0  0  0  0  0  0  0  0
   -3.9898    3.3641    2.1108 O   0  0  0  0  0  0  0  0  0  0  0  0
   -3.8654    2.5827    0.0106 N   0  0  0  0  0  0  0  0  0  0  0  0
   -5.2385    2.1113   -0.0044 C   0  0  1  0  0  0  0  0  0  0  0  0
   -5.9707    2.2269   -1.2684 C   0  0  0  0  0  0  0  0  0  0  0  0
   -6.1837    3.5760   -1.8402 C   0  0  0  0  0  0  0  0  0  0  0  0
   -4.9787    4.3849   -2.1695 C   0  0  0  0  0  0  0  0  0  0  0  0
   -5.3711    5.8296   -2.5133 C   0  0  0  0  0  0  0  0  0  0  0  0
   -6.7780    5.8836   -3.0124 C   0  0  0  0  0  0  0  0  0  0  0  0
   -7.7886    5.4090   -2.0205 C   0  0  0  0  0  0  0  0  0  0  0  0
   -7.1218    4.4616   -1.0469 C   0  0  0  0  0  0  0  0  0  0  0  0
   -5.1980    0.7377    0.5597 C   0  0  0  0  0  0  0  0  0  0  0  0
   -4.1480    0.3878    1.1232 O   0  0  0  0  0  0  0  0  0  0  0  0
   -6.2337   -0.2233    0.5135 N   0  0  0  0  0  0  0  0  0  0  0  0
   -5.9681   -1.4722    1.2427 C   0  0  2  0  0  0  0  0  0  0  0  0
   -4.8334   -2.1870    0.5358 C   0  0  0  0  0  0  0  0  0  0  0  0
   -4.4687   -1.7291   -0.5317 O   0  0  0  0  0  0  0  0  0  0  0  0
   -4.1983   -3.3266    1.0620 N   0  0  0  0  0  0  0  0  0  0  0  0
   -3.0783   -4.0356    0.4823 C   0  0  2  0  0  0  0  0  0  0  0  0
   -1.8251   -3.6805    1.1749 C   0  0  0  0  0  0  0  0  0  0  0  0
   -1.9137   -2.9882    2.2086 O   0  0  0  0  0  0  0  0  0  0  0  0
   -0.5133   -4.0386    0.7877 N   0  0  0  0  0  0  0  0  0  0  0  0
    0.5883   -3.5714    1.6457 C   0  0  2  0  0  0  0  0  0  0  0  0
    1.1110   -2.2839    1.0896 C   0  0  0  0  0  0  0  0  0  0  0  0
    0.6990   -1.7597    0.0440 O   0  0  0  0  0  0  0  0  0  0  0  0
    2.1611   -1.5265    1.7401 N   0  0  0  0  0  0  0  0  0  0  0  0
    1.6891   -4.5653    1.7643 C   0  0  0  0  0  0  0  0  0  0  0  0
    1.2337   -5.8611    2.3412 C   0  0  0  0  0  0  0  0  0  0  0  0
    2.0117   -6.8378    2.5022 O   0  0  0  0  0  0  0  0  0  0  0  0
   -0.1302   -5.9551    2.7087 N   0  0  0  0  0  0  0  0  0  0  0  0
   -2.9885   -3.9700   -1.0289 C   0  0  0  0  0  0  0  0  0  0  0  0
   -4.2246   -4.6114   -1.5991 C   0  0  0  0  0  0  0  0  0  0  0  0
   -4.1217   -4.5135   -3.0963 C   0  0  0  0  0  0  0  0  0  0  0  0
   -3.1317   -3.9994   -3.6727 O   0  0  0  0  0  0  0  0  0  0  0  0
   -5.2295   -5.0454   -3.8479 N   0  0  0  0  0  0  0  0  0  0  0  0
   -7.1539   -2.2884    1.5102 C   0  0  2  0  0  0  0  0  0  0  0  0
   -7.8923   -2.7412    0.2724 C   0  0  0  0  0  0  0  0  0  0  0  0
   -9.0827   -3.5641    0.7318 C   0  0  0  0  0  0  0  0  0  0  0  0
   -8.1350   -1.4319    2.3082 C   0  0  0  0  0  0  0  0  0  0  0  0
    9.1093    5.0763    0.9014 H   0  0  0  0  0  0  0  0  0  0  0  0
   10.0072    4.4328    2.2320 H   0  0  0  0  0  0  0  0  0  0  0  0
   10.3515    2.7900    0.6367 H   0  0  0  0  0  0  0  0  0  0  0  0
    8.9888    2.2382    1.6374 H   0  0  0  0  0  0  0  0  0  0  0  0
    7.3947    3.2414    0.0354 H   0  0  0  0  0  0  0  0  0  0  0  0
    8.7437    3.8469   -0.9762 H   0  0  0  0  0  0  0  0  0  0  0  0
    7.7547    1.7174   -1.8862 H   0  0  0  0  0  0  0  0  0  0  0  0
   10.1064    3.1171   -2.7085 H   0  0  0  0  0  0  0  0  0  0  0  0
   12.5824    1.8504   -1.7860 H   0  0  0  0  0  0  0  0  0  0  0  0
   12.0119    0.9315   -3.2245 H   0  0  0  0  0  0  0  0  0  0  0  0
   14.0064    3.2229   -5.1075 H   0  0  0  0  0  0  0  0  0  0  0  0
   14.5225    2.5420   -3.5018 H   0  0  0  0  0  0  0  0  0  0  0  0
    8.6575    0.4624    0.7019 H   0  0  0  0  0  0  0  0  0  0  0  0
    6.8906   -0.6380    1.8139 H   0  0  0  0  0  0  0  0  0  0  0  0
    7.1937   -2.3026   -0.6913 H   0  0  0  0  0  0  0  0  0  0  0  0
    7.9828   -2.4870    0.9595 H   0  0  0  0  0  0  0  0  0  0  0  0
    6.4250   -4.0481    1.5057 H   0  0  0  0  0  0  0  0  0  0  0  0
    5.7018   -3.9110   -0.1245 H   0  0  0  0  0  0  0  0  0  0  0  0
    3.8578   -2.9540    0.8892 H   0  0  0  0  0  0  0  0  0  0  0  0
    4.7577   -2.7678    2.4339 H   0  0  0  0  0  0  0  0  0  0  0  0
    2.1206   -0.0368    0.2296 H   0  0  0  0  0  0  0  0  0  0  0  0
    2.6103    1.8211    1.5560 H   0  0  0  0  0  0  0  0  0  0  0  0
    2.7308    0.8553    3.0825 H   0  0  0  0  0  0  0  0  0  0  0  0
   -1.3429    2.9985   -0.8590 H   0  0  0  0  0  0  0  0  0  0  0  0
    0.0382    3.5054    0.1482 H   0  0  0  0  0  0  0  0  0  0  0  0
   -1.8511    4.8087    0.6809 H   0  0  0  0  0  0  0  0  0  0  0  0
   -1.4194    4.8481    2.8114 H   0  0  0  0  0  0  0  0  0  0  0  0
   -1.9660    3.3194    3.1388 H   0  0  0  0  0  0  0  0  0  0  0  0
   -3.2692    2.4343   -0.8007 H   0  0  0  0  0  0  0  0  0  0  0  0
   -5.8355    2.6702    0.7896 H   0  0  0  0  0  0  0  0  0  0  0  0
   -6.9550    1.6878   -1.1983 H   0  0  0  0  0  0  0  0  0  0  0  0
   -5.4057    1.6300   -2.0482 H   0  0  0  0  0  0  0  0  0  0  0  0
   -6.7288    3.4114   -2.8275 H   0  0  0  0  0  0  0  0  0  0  0  0
   -4.2696    4.4692   -1.3245 H   0  0  0  0  0  0  0  0  0  0  0  0
   -4.4270    3.9929   -3.0405 H   0  0  0  0  0  0  0  0  0  0  0  0
   -5.2023    6.5002   -1.6331 H   0  0  0  0  0  0  0  0  0  0  0  0
   -4.6888    6.1737   -3.3071 H   0  0  0  0  0  0  0  0  0  0  0  0
   -6.9867    6.8973   -3.3864 H   0  0  0  0  0  0  0  0  0  0  0  0
   -6.8132    5.2003   -3.9128 H   0  0  0  0  0  0  0  0  0  0  0  0
   -8.1396    6.3027   -1.4375 H   0  0  0  0  0  0  0  0  0  0  0  0
   -8.6508    4.9003   -2.5319 H   0  0  0  0  0  0  0  0  0  0  0  0
   -6.5607    5.1133   -0.3339 H   0  0  0  0  0  0  0  0  0  0  0  0
   -7.9220    3.8953   -0.5520 H   0  0  0  0  0  0  0  0  0  0  0  0
   -7.0641    0.0058   -0.0023 H   0  0  0  0  0  0  0  0  0  0  0  0
   -5.4505   -1.2155    2.2254 H   0  0  0  0  0  0  0  0  0  0  0  0
   -4.5829   -3.6707    1.9516 H   0  0  0  0  0  0  0  0  0  0  0  0
   -3.3448   -5.1358    0.6443 H   0  0  0  0  0  0  0  0  0  0  0  0
   -0.4126   -4.5929   -0.0491 H   0  0  0  0  0  0  0  0  0  0  0  0
    0.2017   -3.3162    2.6572 H   0  0  0  0  0  0  0  0  0  0  0  0
    2.5214   -1.9715    2.5844 H   0  0  0  0  0  0  0  0  0  0  0  0
    2.4878   -4.2049    2.4351 H   0  0  0  0  0  0  0  0  0  0  0  0
    2.1951   -4.7733    0.7923 H   0  0  0  0  0  0  0  0  0  0  0  0
   -0.5299   -5.2299    3.3386 H   0  0  0  0  0  0  0  0  0  0  0  0
   -0.6649   -6.7653    2.3204 H   0  0  0  0  0  0  0  0  0  0  0  0
   -2.1250   -4.6454   -1.2776 H   0  0  0  0  0  0  0  0  0  0  0  0
   -2.7816   -2.9558   -1.3369 H   0  0  0  0  0  0  0  0  0  0  0  0
   -4.1816   -5.7241   -1.3202 H   0  0  0  0  0  0  0  0  0  0  0  0
   -5.1225   -4.1667   -1.1920 H   0  0  0  0  0  0  0  0  0  0  0  0
   -6.1780   -4.6505   -3.7286 H   0  0  0  0  0  0  0  0  0  0  0  0
   -5.0469   -5.8293   -4.5065 H   0  0  0  0  0  0  0  0  0  0  0  0
   -6.8878   -3.1249    2.1766 H   0  0  0  0  0  0  0  0  0  0  0  0
   -8.3014   -1.8172   -0.2254 H   0  0  0  0  0  0  0  0  0  0  0  0
   -7.2976   -3.3521   -0.4050 H   0  0  0  0  0  0  0  0  0  0  0  0
   -9.8913   -2.9486    1.1516 H   0  0  0  0  0  0  0  0  0  0  0  0
   -8.7079   -4.3158    1.4688 H   0  0  0  0  0  0  0  0  0  0  0  0
   -9.4594   -4.1696   -0.1356 H   0  0  0  0  0  0  0  0  0  0  0  0
   -8.9034   -2.0912    2.7182 H   0  0  0  0  0  0  0  0  0  0  0  0
   -8.6071   -0.7030    1.6117 H   0  0  0  0  0  0  0  0  0  0  0  0
   -7.6014   -0.8635    3.1046 H   0  0  0  0  0  0  0  0  0  0  0  0
  1  2  1  0
  2  3  1  0
  3  4  1  0
  4  5  1  0
  5  6  2  0
  5  7  1  0
  7  8  1  0
  8  9  1  0
  9 10  2  0
  9 11  1  0
  4 12  1  0
 12 13  1  0
 13 14  2  0
 13 15  1  0
 15 16  1  0
 16 17  1  0
 17 18  1  0
 18 19  1  0
 19 20  1  0
 20 21  2  0
 20 22  1  0
 22 23  1  0
 23 24  1  0
 24 25  1  0
 25 26  1  0
 26 27  1  0
 27 28  1  0
 27 29  1  0
 29 30  2  0
 29 31  1  0
 31 32  1  0
 32 33  1  0
 33 34  1  0
 34 35  1  0
 35 36  1  0
 36 37  1  0
 37 38  1  0
 38 39  1  0
 32 40  1  0
 40 41  2  0
 40 42  1  0
 42 43  1  0
 43 44  1  0
 44 45  2  0
 44 46  1  0
 46 47  1  0
 47 48  1  0
 48 49  2  0
 48 50  1  0
 50 51  1  0
 51 52  1  0
 52 53  2  0
 52 54  1  0
 51 55  1  0
 55 56  1  0
 56 57  2  0
 56 58  1  0
 47 59  1  0
 59 60  1  0
 60 61  1  0
 61 62  2  0
 61 63  1  0
 43 64  1  0
 64 65  1  0
 65 66  1  0
 64 67  1  0
 19 15  1  0
 54 22  1  0
 39 34  1  0
  1 68  1  0
  1 69  1  0
  2 70  1  0
  2 71  1  0
  3 72  1  0
  3 73  1  0
  4 74  1  6
  7 75  1  0
  8 76  1  0
  8 77  1  0
 11 78  1  0
 11 79  1  0
 12 80  1  0
 15 81  1  1
 16 82  1  0
 16 83  1  0
 17 84  1  0
 17 85  1  0
 18 86  1  0
 18 87  1  0
 22 88  1  6
 23 89  1  0
 23 90  1  0
 26 91  1  0
 26 92  1  0
 27 93  1  6
 28 94  1  0
 28 95  1  0
 31 96  1  0
 32 97  1  1
 33 98  1  0
 33 99  1  0
 34100  1  0
 35101  1  0
 35102  1  0
 36103  1  0
 36104  1  0
 37105  1  0
 37106  1  0
 38107  1  0
 38108  1  0
 39109  1  0
 39110  1  0
 42111  1  0
 43112  1  1
 46113  1  0
 47114  1  6
 50115  1  0
 51116  1  1
 54117  1  0
 55118  1  0
 55119  1  0
 58120  1  0
 58121  1  0
 59122  1  0
 59123  1  0
 60124  1  0
 60125  1  0
 63126  1  0
 63127  1  0
 64128  1  1
 65129  1  0
 65130  1  0
 66131  1  0
 66132  1  0
 66133  1  0
 67134  1  0
 67135  1  0
 67136  1  0
M  END
>  <Ligand ID>  (1) 
LIG0000932

>  <Ligand>  (1) 
CHEMBL1819555

>  <SMILES>  (1) 
NCC[C@@H](C(=O)NCC(=O)N)NC(=O)[C@@H]1CCCN1C(=O)[C@@H]1CSSC[C@H](N)C(=O)N[C@@H](CC2CCCCC2)C(=O)N[C@H](C(=O)N[C@H](C(=O)N[C@H](C(=O)N1)CC(=O)N)CCC(=O)N)[C@H](CC)C

>  <CID>  (1) 
53362964.0

>  <ChEMBL ID>  (1) 
nan

>  <InChiKey>  (1) 
HVKIEOSRGWWEGS-VIZGXHJBSA-N

>  <InChi>  (1) 
InChI=1S/C41H69N13O11S2/c1-3-21(2)33-40(64)49-24(11-12-30(44)55)36(60)51-27(17-31(45)56)37(61)52-28(20-67-66-19-23(43)34(58)50-26(38(62)53-33)16-22-8-5-4-6-9-22)41(65)54-15-7-10-29(54)39(63)48-25(13-14-42)35(59)47-18-32(46)57/h21-29,33H,3-20,42-43H2,1-2H3,(H2,44,55)(H2,45,56)(H2,46,57)(H,47,59)(H,48,63)(H,49,64)(H,50,58)(H,51,60)(H,52,61)(H,53,62)/t21-,23-,24-,25-,26-,27-,28-,29-,33-/m0/s1

>  <IUPAC Name>  (1) 
(2S)-N-[(2S)-4-amino-1-[(2-amino-2-oxoethyl)amino]-1-oxobutan-2-yl]-1-[(4R,7S,10S,13S,16S,19R)-19-amino-7-(2-amino-2-oxoethyl)-10-(3-amino-3-oxopropyl)-13-[(2S)-butan-2-yl]-16-(cyclohexylmethyl)-6,9,12,15,18-pentaoxo-1,2-dithia-5,8,11,14,17-pentazacycloicosane-4-carbonyl]pyrrolidine-2-carboxamide

$$$$
