
     RDKit          3D

 73 79  0  0  0  0  0  0  0  0999 V2000
    2.2241    0.4046    2.2591 C   0  0  0  0  0  0  0  0  0  0  0  0
    1.6730    0.8756    1.0953 O   0  0  0  0  0  0  0  0  0  0  0  0
    0.8084    0.0378    0.4276 C   0  0  1  0  0  0  0  0  0  0  0  0
    0.2590    0.8127   -0.7514 C   0  0  0  0  0  0  0  0  0  0  0  0
   -0.4308   -0.1299   -1.7020 C   0  0  0  0  0  0  0  0  0  0  0  0
   -0.6167   -1.4715   -1.0849 C   0  0  1  0  0  0  0  0  0  0  0  0
    0.7239   -2.0919   -0.9228 C   0  0  0  0  0  0  0  0  0  0  0  0
    1.6126   -1.1232   -0.1345 C   0  0  1  0  0  0  0  0  0  0  0  0
    2.7564   -0.6406   -0.9952 C   0  0  0  0  0  0  0  0  0  0  0  0
    3.6687    0.1588   -0.3586 O   0  0  0  0  0  0  0  0  0  0  0  0
    4.7067    0.5785   -1.1928 C   0  0  0  0  0  0  0  0  0  0  0  0
    5.6490    1.4343   -0.4399 C   0  0  0  0  0  0  0  0  0  0  0  0
    6.7464    0.9079    0.2381 C   0  0  0  0  0  0  0  0  0  0  0  0
    7.5777    1.7871    0.9183 C   0  0  0  0  0  0  0  0  0  0  0  0
    7.3564    3.1498    0.9453 C   0  0  0  0  0  0  0  0  0  0  0  0
    6.2553    3.6502    0.2615 C   0  0  0  0  0  0  0  0  0  0  0  0
    5.3909    2.8072   -0.4365 C   0  0  0  0  0  0  0  0  0  0  0  0
   -1.1916   -1.2968    0.3067 C   0  0  1  0  0  0  0  0  0  0  0  0
   -0.3015   -0.4959    1.2354 C   0  0  2  0  0  0  0  0  0  0  0  0
   -1.1875    0.4175    1.8202 O   0  0  0  0  0  0  0  0  0  0  0  0
   -2.3052    0.6204    1.0267 C   0  0  0  0  0  0  0  0  0  0  0  0
   -2.3055   -0.3759    0.1087 C   0  0  0  0  0  0  0  0  0  0  0  0
   -3.2034   -0.5819   -0.8825 C   0  0  0  0  0  0  0  0  0  0  0  0
   -2.9911   -1.7034   -1.8183 C   0  0  0  0  0  0  0  0  0  0  0  0
   -1.6282   -2.2906   -1.8313 C   0  0  2  0  0  0  0  0  0  0  0  0
   -1.6832   -3.6383   -1.2470 N   0  0  0  0  0  0  0  0  0  0  0  0
   -2.2304   -3.5732    0.0940 C   0  0  0  0  0  0  0  0  0  0  0  0
   -1.6555   -2.5331    0.9711 C   0  0  0  0  0  0  0  0  0  0  0  0
   -2.5284   -4.4907   -2.0240 C   0  0  0  0  0  0  0  0  0  0  0  0
   -4.2490    0.3244   -0.9726 C   0  0  0  0  0  0  0  0  0  0  0  0
   -4.3145    1.3810   -0.0528 C   0  0  0  0  0  0  0  0  0  0  0  0
   -3.3470    1.5340    0.9468 C   0  0  0  0  0  0  0  0  0  0  0  0
   -3.4006    2.5990    1.8817 N   0  0  0  0  0  0  0  0  0  0  0  0
   -4.7093    3.7135    1.8456 S   0  0  0  0  0  0  0  0  0  0  0  0
   -4.5157    4.7731    2.8978 O   0  0  0  0  0  0  0  0  0  0  0  0
   -4.7853    4.4183    0.5253 O   0  0  0  0  0  0  0  0  0  0  0  0
   -6.2294    2.8739    2.1429 C   0  0  0  0  0  0  0  0  0  0  0  0
    1.4728    0.1650    3.0424 H   0  0  0  0  0  0  0  0  0  0  0  0
    2.8624    1.2107    2.6706 H   0  0  0  0  0  0  0  0  0  0  0  0
    2.8697   -0.4774    2.1012 H   0  0  0  0  0  0  0  0  0  0  0  0
    1.0564    1.4059   -1.2513 H   0  0  0  0  0  0  0  0  0  0  0  0
   -0.4529    1.5635   -0.3611 H   0  0  0  0  0  0  0  0  0  0  0  0
    0.2126   -0.2403   -2.5998 H   0  0  0  0  0  0  0  0  0  0  0  0
   -1.3477    0.3853   -2.0438 H   0  0  0  0  0  0  0  0  0  0  0  0
    0.6985   -3.0938   -0.4506 H   0  0  0  0  0  0  0  0  0  0  0  0
    1.1861   -2.2348   -1.9129 H   0  0  0  0  0  0  0  0  0  0  0  0
    2.0369   -1.6952    0.7085 H   0  0  0  0  0  0  0  0  0  0  0  0
    3.3229   -1.5261   -1.4205 H   0  0  0  0  0  0  0  0  0  0  0  0
    2.4247   -0.0922   -1.8986 H   0  0  0  0  0  0  0  0  0  0  0  0
    4.3203    1.1462   -2.0478 H   0  0  0  0  0  0  0  0  0  0  0  0
    5.2844   -0.2818   -1.6024 H   0  0  0  0  0  0  0  0  0  0  0  0
    6.9209   -0.1562    0.2180 H   0  0  0  0  0  0  0  0  0  0  0  0
    8.4309    1.4206    1.4509 H   0  0  0  0  0  0  0  0  0  0  0  0
    8.0302    3.8018    1.4889 H   0  0  0  0  0  0  0  0  0  0  0  0
    6.0894    4.7289    0.2890 H   0  0  0  0  0  0  0  0  0  0  0  0
    4.5406    3.2320   -0.9597 H   0  0  0  0  0  0  0  0  0  0  0  0
    0.1120   -1.2265    1.9733 H   0  0  0  0  0  0  0  0  0  0  0  0
   -3.2902   -1.4144   -2.8732 H   0  0  0  0  0  0  0  0  0  0  0  0
   -3.7824   -2.4722   -1.5613 H   0  0  0  0  0  0  0  0  0  0  0  0
   -1.2861   -2.4279   -2.8741 H   0  0  0  0  0  0  0  0  0  0  0  0
   -3.3473   -3.5742    0.0929 H   0  0  0  0  0  0  0  0  0  0  0  0
   -1.9736   -4.5755    0.5504 H   0  0  0  0  0  0  0  0  0  0  0  0
   -0.8262   -2.9023    1.6225 H   0  0  0  0  0  0  0  0  0  0  0  0
   -2.4903   -2.2193    1.6729 H   0  0  0  0  0  0  0  0  0  0  0  0
   -2.5012   -4.3055   -3.0982 H   0  0  0  0  0  0  0  0  0  0  0  0
   -3.5596   -4.4980   -1.5886 H   0  0  0  0  0  0  0  0  0  0  0  0
   -2.1648   -5.5417   -1.8241 H   0  0  0  0  0  0  0  0  0  0  0  0
   -4.9873    0.1937   -1.7497 H   0  0  0  0  0  0  0  0  0  0  0  0
   -5.1377    2.0848   -0.1319 H   0  0  0  0  0  0  0  0  0  0  0  0
   -2.6511    2.7130    2.5931 H   0  0  0  0  0  0  0  0  0  0  0  0
   -6.0628    1.7673    2.0570 H   0  0  0  0  0  0  0  0  0  0  0  0
   -7.0000    3.2348    1.4322 H   0  0  0  0  0  0  0  0  0  0  0  0
   -6.6090    3.0788    3.1852 H   0  0  0  0  0  0  0  0  0  0  0  0
  1  2  1  0
  3  2  1  1
  3  4  1  0
  4  5  1  0
  6  5  1  6
  6  7  1  0
  7  8  1  0
  8  9  1  0
  9 10  1  0
 10 11  1  0
 11 12  1  0
 12 13  2  0
 13 14  1  0
 14 15  2  0
 15 16  1  0
 16 17  2  0
  6 18  1  0
 18 19  1  0
 19 20  1  0
 20 21  1  0
 21 22  2  0
 22 23  1  0
 23 24  1  0
 24 25  1  0
 25 26  1  0
 26 27  1  0
 27 28  1  0
 26 29  1  0
 23 30  2  0
 30 31  1  0
 31 32  2  0
 32 33  1  0
 33 34  1  0
 34 35  2  0
 34 36  2  0
 34 37  1  0
  8  3  1  0
 17 12  1  0
 18 28  1  1
 19  3  1  0
 32 21  1  0
 25  6  1  0
 22 18  1  0
  1 38  1  0
  1 39  1  0
  1 40  1  0
  4 41  1  0
  4 42  1  0
  5 43  1  0
  5 44  1  0
  7 45  1  0
  7 46  1  0
  8 47  1  1
  9 48  1  0
  9 49  1  0
 11 50  1  0
 11 51  1  0
 13 52  1  0
 14 53  1  0
 15 54  1  0
 16 55  1  0
 17 56  1  0
 19 57  1  1
 24 58  1  0
 24 59  1  0
 25 60  1  6
 27 61  1  0
 27 62  1  0
 28 63  1  0
 28 64  1  0
 29 65  1  0
 29 66  1  0
 29 67  1  0
 30 68  1  0
 31 69  1  0
 33 70  1  0
 37 71  1  0
 37 72  1  0
 37 73  1  0
M  END
>  <Ligand ID>  (1) 
LIG0004624

>  <Ligand>  (1) 
CHEMBL3972343

>  <SMILES>  (1) 
CO[C@@]12CC[C@@]3(C[C@H]1COCc1ccccc1)[C@]14[C@@H]2Oc2c4c(C[C@@H]3N(CC1)C)ccc2NS(=O)(=O)C

>  <CID>  (1) 
134153640.0

>  <ChEMBL ID>  (1) 
nan

>  <InChiKey>  (1) 
DIIUDCDSVQJDAE-ZXEGOYMSSA-N

>  <InChi>  (1) 
InChI=1S/C29H36N2O5S/c1-31-14-13-28-24-20-9-10-22(30-37(3,32)33)25(24)36-26(28)29(34-2)12-11-27(28,23(31)15-20)16-21(29)18-35-17-19-7-5-4-6-8-19/h4-10,21,23,26,30H,11-18H2,1-3H3/t21-,23-,26-,27-,28+,29-/m0/s1

>  <IUPAC Name>  (1) 
N-[(1R,2R,6S,14S,15S,16S)-15-methoxy-5-methyl-16-(phenylmethoxymethyl)-13-oxa-5-azahexacyclo[13.2.2.12,8.01,6.02,14.012,20]icosa-8(20),9,11-trien-11-yl]methanesulfonamide

$$$$
