
     RDKit          3D

 75 78  0  0  0  0  0  0  0  0999 V2000
   -2.6484    0.0686    2.5331 O   0  0  0  0  0  0  0  0  0  0  0  0
   -1.8179   -0.4677    1.5346 C   0  0  2  0  0  0  0  0  0  0  0  0
   -2.7611   -1.0085    0.4585 C   0  0  0  0  0  0  0  0  0  0  0  0
   -3.5709    0.0202   -0.0574 O   0  0  0  0  0  0  0  0  0  0  0  0
   -4.4987   -0.2375   -1.0475 C   0  0  0  0  0  0  0  0  0  0  0  0
   -4.5818   -1.5418   -1.5012 C   0  0  0  0  0  0  0  0  0  0  0  0
   -5.4650   -1.9182   -2.4887 C   0  0  0  0  0  0  0  0  0  0  0  0
   -6.2668   -0.9381   -3.0121 C   0  0  0  0  0  0  0  0  0  0  0  0
   -6.1855    0.3817   -2.5575 C   0  0  0  0  0  0  0  0  0  0  0  0
   -5.3114    0.7766   -1.5674 C   0  0  0  0  0  0  0  0  0  0  0  0
   -5.5134    2.2109   -1.2751 C   0  0  0  0  0  0  0  0  0  0  0  0
   -6.2062    2.5037    0.0226 C   0  0  0  0  0  0  0  0  0  0  0  0
   -5.4936    2.0089    1.2247 C   0  0  0  0  0  0  0  0  0  0  0  0
   -6.3818    4.0150    0.1829 C   0  0  0  0  0  0  0  0  0  0  0  0
   -6.4301    2.6391   -2.4107 C   0  0  0  0  0  0  0  0  0  0  0  0
   -6.7375    3.8320   -2.7052 O   0  0  0  0  0  0  0  0  0  0  0  0
   -6.8931    1.4917   -3.0960 N   0  0  0  0  0  0  0  0  0  0  0  0
   -0.9632   -1.5843    2.0949 C   0  0  0  0  0  0  0  0  0  0  0  0
   -0.1003   -2.1800    1.1500 N   0  0  0  0  0  0  0  0  0  0  0  0
    0.7399   -3.2205    1.5917 C   0  0  0  0  0  0  0  0  0  0  0  0
    1.7812   -2.6880    2.5461 C   0  0  0  0  0  0  0  0  0  0  0  0
    2.6628   -1.6610    1.9149 C   0  0  0  0  0  0  0  0  0  0  0  0
    2.4130   -0.3152    1.9502 C   0  0  0  0  0  0  0  0  0  0  0  0
    3.2718    0.5475    1.3391 C   0  0  0  0  0  0  0  0  0  0  0  0
    4.4343    0.1216    0.6542 C   0  0  0  0  0  0  0  0  0  0  0  0
    4.6302   -1.2398    0.6543 C   0  0  0  0  0  0  0  0  0  0  0  0
    3.7785   -2.1386    1.2643 C   0  0  0  0  0  0  0  0  0  0  0  0
    5.1784    1.0750    0.1069 O   0  0  0  0  0  0  0  0  0  0  0  0
    6.2418    1.3339   -0.6204 C   0  0  0  0  0  0  0  0  0  0  0  0
    7.1458    0.4704   -1.2023 C   0  0  0  0  0  0  0  0  0  0  0  0
    8.2301    0.8728   -1.9496 C   0  0  0  0  0  0  0  0  0  0  0  0
    8.4361    2.2082   -2.1345 C   0  0  0  0  0  0  0  0  0  0  0  0
    7.5542    3.0896   -1.5681 C   0  0  0  0  0  0  0  0  0  0  0  0
    6.5182    2.6702   -0.8531 N   0  0  0  0  0  0  0  0  0  0  0  0
    9.5790    2.6292   -2.9236 C   0  0  0  0  0  0  0  0  0  0  0  0
   10.3220    1.7403   -3.4206 O   0  0  0  0  0  0  0  0  0  0  0  0
    9.8921    3.9952   -3.1571 N   0  0  0  0  0  0  0  0  0  0  0  0
    1.4772   -3.9178    0.4510 C   0  0  0  0  0  0  0  0  0  0  0  0
    0.0223   -4.3280    2.3362 C   0  0  0  0  0  0  0  0  0  0  0  0
   -2.2664    0.9061    2.9114 H   0  0  0  0  0  0  0  0  0  0  0  0
   -1.2604    0.3560    1.0911 H   0  0  0  0  0  0  0  0  0  0  0  0
   -2.1719   -1.4706   -0.3818 H   0  0  0  0  0  0  0  0  0  0  0  0
   -3.3627   -1.8355    0.8663 H   0  0  0  0  0  0  0  0  0  0  0  0
   -3.9420   -2.3168   -1.0847 H   0  0  0  0  0  0  0  0  0  0  0  0
   -5.5432   -2.9271   -2.8507 H   0  0  0  0  0  0  0  0  0  0  0  0
   -6.9626   -1.2334   -3.7903 H   0  0  0  0  0  0  0  0  0  0  0  0
   -4.5679    2.7541   -1.3122 H   0  0  0  0  0  0  0  0  0  0  0  0
   -7.2547    2.0749    0.0061 H   0  0  0  0  0  0  0  0  0  0  0  0
   -4.4111    2.2378    1.1733 H   0  0  0  0  0  0  0  0  0  0  0  0
   -5.6409    0.9179    1.3654 H   0  0  0  0  0  0  0  0  0  0  0  0
   -5.8734    2.5510    2.1383 H   0  0  0  0  0  0  0  0  0  0  0  0
   -7.4486    4.3187    0.0350 H   0  0  0  0  0  0  0  0  0  0  0  0
   -5.7832    4.5237   -0.6114 H   0  0  0  0  0  0  0  0  0  0  0  0
   -6.0280    4.3670    1.1685 H   0  0  0  0  0  0  0  0  0  0  0  0
   -7.6181    1.5216   -3.8449 H   0  0  0  0  0  0  0  0  0  0  0  0
   -1.6788   -2.3059    2.5526 H   0  0  0  0  0  0  0  0  0  0  0  0
   -0.3892   -1.1753    2.9429 H   0  0  0  0  0  0  0  0  0  0  0  0
   -0.3026   -2.0849    0.1582 H   0  0  0  0  0  0  0  0  0  0  0  0
    1.2969   -2.2124    3.4092 H   0  0  0  0  0  0  0  0  0  0  0  0
    2.3755   -3.5614    2.8989 H   0  0  0  0  0  0  0  0  0  0  0  0
    1.5481    0.0717    2.4565 H   0  0  0  0  0  0  0  0  0  0  0  0
    3.0348    1.6178    1.3914 H   0  0  0  0  0  0  0  0  0  0  0  0
    5.4844   -1.6561    0.1635 H   0  0  0  0  0  0  0  0  0  0  0  0
    3.9913   -3.2042    1.2285 H   0  0  0  0  0  0  0  0  0  0  0  0
    7.0206   -0.5919   -1.0853 H   0  0  0  0  0  0  0  0  0  0  0  0
    8.9009    0.1340   -2.3786 H   0  0  0  0  0  0  0  0  0  0  0  0
    7.7252    4.1495   -1.7197 H   0  0  0  0  0  0  0  0  0  0  0  0
   10.8035    4.2620   -3.5861 H   0  0  0  0  0  0  0  0  0  0  0  0
    9.2503    4.7800   -2.9203 H   0  0  0  0  0  0  0  0  0  0  0  0
    1.9768   -3.1957   -0.2218 H   0  0  0  0  0  0  0  0  0  0  0  0
    2.1544   -4.7050    0.8391 H   0  0  0  0  0  0  0  0  0  0  0  0
    0.7435   -4.4731   -0.2021 H   0  0  0  0  0  0  0  0  0  0  0  0
    0.8018   -5.0754    2.6035 H   0  0  0  0  0  0  0  0  0  0  0  0
   -0.7209   -4.8665    1.7384 H   0  0  0  0  0  0  0  0  0  0  0  0
   -0.3638   -3.9699    3.3279 H   0  0  0  0  0  0  0  0  0  0  0  0
  1  2  1  0
  2  3  1  0
  3  4  1  0
  4  5  1  0
  5  6  2  0
  6  7  1  0
  7  8  2  0
  8  9  1  0
  9 10  2  0
 10 11  1  0
 11 12  1  0
 12 13  1  0
 12 14  1  0
 11 15  1  0
 15 16  2  0
 15 17  1  0
  2 18  1  0
 18 19  1  0
 19 20  1  0
 20 21  1  0
 21 22  1  0
 22 23  2  0
 23 24  1  0
 24 25  2  0
 25 26  1  0
 26 27  2  0
 25 28  1  0
 28 29  1  0
 29 30  2  0
 30 31  1  0
 31 32  2  0
 32 33  1  0
 33 34  2  0
 32 35  1  0
 35 36  2  0
 35 37  1  0
 20 38  1  0
 20 39  1  0
 10  5  1  0
 27 22  1  0
 34 29  1  0
 17  9  1  0
  1 40  1  0
  2 41  1  6
  3 42  1  0
  3 43  1  0
  6 44  1  0
  7 45  1  0
  8 46  1  0
 11 47  1  0
 12 48  1  0
 13 49  1  0
 13 50  1  0
 13 51  1  0
 14 52  1  0
 14 53  1  0
 14 54  1  0
 17 55  1  0
 18 56  1  0
 18 57  1  0
 19 58  1  0
 21 59  1  0
 21 60  1  0
 23 61  1  0
 24 62  1  0
 26 63  1  0
 27 64  1  0
 30 65  1  0
 31 66  1  0
 33 67  1  0
 37 68  1  0
 37 69  1  0
 38 70  1  0
 38 71  1  0
 38 72  1  0
 39 73  1  0
 39 74  1  0
 39 75  1  0
M  END
>  <Ligand ID>  (1) 
LIG0003461

>  <Ligand>  (1) 
CHEMBL251176

>  <SMILES>  (1) 
O[C@H](COc1cccc2c1C(C(C)C)C(=O)N2)CNC(Cc1ccc(cc1)Oc1ccc(cn1)C(=O)N)(C)C

>  <CID>  (1) 
44444166.0

>  <ChEMBL ID>  (1) 
nan

>  <InChiKey>  (1) 
GJQJAGBAGXHUOX-GVNKFJBHSA-N

>  <InChi>  (1) 
InChI=1S/C30H36N4O5/c1-18(2)26-27-23(34-29(26)37)6-5-7-24(27)38-17-21(35)16-33-30(3,4)14-19-8-11-22(12-9-19)39-25-13-10-20(15-32-25)28(31)36/h5-13,15,18,21,26,33,35H,14,16-17H2,1-4H3,(H2,31,36)(H,34,37)/t21-,26?/m0/s1

>  <IUPAC Name>  (1) 
6-[4-[2-[[(2S)-2-hydroxy-3-[(2-oxo-3-propan-2-yl-1,3-dihydroindol-4-yl)oxy]propyl]amino]-2-methylpropyl]phenoxy]pyridine-3-carboxamide

$$$$
