
     RDKit          3D

 71 75  0  0  0  0  0  0  0  0999 V2000
    0.5679   -6.9394    3.9098 Cl  0  0  0  0  0  0  0  0  0  0  0  0
    0.5601   -5.4732    2.9381 C   0  0  0  0  0  0  0  0  0  0  0  0
    0.7035   -5.6451    1.5707 C   0  0  0  0  0  0  0  0  0  0  0  0
    0.7029   -4.5130    0.7565 C   0  0  0  0  0  0  0  0  0  0  0  0
    0.5597   -3.2368    1.3202 C   0  0  0  0  0  0  0  0  0  0  0  0
    0.4180   -3.1172    2.7097 C   0  0  0  0  0  0  0  0  0  0  0  0
    0.4172   -4.2263    3.5217 C   0  0  0  0  0  0  0  0  0  0  0  0
    0.5742   -2.0827    0.4764 N   0  0  0  0  0  0  0  0  0  0  0  0
    1.7260   -1.4106    0.2846 N   0  0  0  0  0  0  0  0  0  0  0  0
    1.5086   -0.3718   -0.5409 C   0  0  0  0  0  0  0  0  0  0  0  0
    0.1774   -0.4249   -0.8549 C   0  0  0  0  0  0  0  0  0  0  0  0
   -0.4140   -1.5097   -0.2088 C   0  0  0  0  0  0  0  0  0  0  0  0
   -1.8405   -1.7957   -0.3709 C   0  0  0  0  0  0  0  0  0  0  0  0
   -2.4114   -2.7396    0.3220 C   0  0  0  0  0  0  0  0  0  0  0  0
   -3.8429   -3.0935    0.2149 C   0  0  0  0  0  0  0  0  0  0  0  0
   -4.4920   -3.2152   -0.9883 C   0  0  0  0  0  0  0  0  0  0  0  0
   -5.8415   -3.5430   -0.9688 C   0  0  0  0  0  0  0  0  0  0  0  0
   -6.5459   -3.7487    0.1948 C   0  0  0  0  0  0  0  0  0  0  0  0
   -5.8797   -3.6237    1.4099 C   0  0  0  0  0  0  0  0  0  0  0  0
   -4.5279   -3.2955    1.4021 C   0  0  0  0  0  0  0  0  0  0  0  0
   -7.8725   -4.0692    0.1332 F   0  0  0  0  0  0  0  0  0  0  0  0
   -2.6340   -0.9756   -1.3202 C   0  0  0  0  0  0  0  0  0  0  0  0
   -2.0280    0.3850   -1.2851 N   0  0  0  0  0  0  0  0  0  0  0  0
   -0.6701    0.4499   -1.7260 C   0  0  0  0  0  0  0  0  0  0  0  0
   -2.8600    1.4010   -0.8068 C   0  0  0  0  0  0  0  0  0  0  0  0
   -4.0307    0.9804   -0.4146 O   0  0  0  0  0  0  0  0  0  0  0  0
   -2.6514    2.8274   -0.6705 C   0  0  0  0  0  0  0  0  0  0  0  0
   -1.4030    3.3749   -1.1301 N   0  0  0  0  0  0  0  0  0  0  0  0
   -1.5086    5.0997   -0.7905 S   0  0  0  0  0  0  0  0  0  0  0  0
   -1.6737    5.2821    0.6882 O   0  0  0  0  0  0  0  0  0  0  0  0
   -0.2209    5.7262   -1.2388 O   0  0  0  0  0  0  0  0  0  0  0  0
   -2.8444    5.7944   -1.6888 C   0  0  0  0  0  0  0  0  0  0  0  0
    2.4359    0.6423   -1.0315 C   0  0  0  0  0  0  0  0  0  0  0  0
    2.0555    1.5463   -1.8416 O   0  0  0  0  0  0  0  0  0  0  0  0
    3.7733    0.5768   -0.5669 N   0  0  0  0  0  0  0  0  0  0  0  0
    4.7025    1.5740   -1.0416 C   0  0  1  0  0  0  0  0  0  0  0  0
    5.1956    2.4315    0.0889 C   0  0  0  0  0  0  0  0  0  0  0  0
    5.2822    3.8103   -0.0292 C   0  0  0  0  0  0  0  0  0  0  0  0
    5.7336    4.6120    1.0116 C   0  0  0  0  0  0  0  0  0  0  0  0
    6.1090    4.0135    2.2053 C   0  0  0  0  0  0  0  0  0  0  0  0
    6.0154    2.6387    2.3029 C   0  0  0  0  0  0  0  0  0  0  0  0
    5.5679    1.8851    1.2603 N   0  0  0  0  0  0  0  0  0  0  0  0
    5.8343    0.8742   -1.7616 C   0  0  0  0  0  0  0  0  0  0  0  0
    0.8155   -6.6322    1.1163 H   0  0  0  0  0  0  0  0  0  0  0  0
    0.8146   -4.6489   -0.3063 H   0  0  0  0  0  0  0  0  0  0  0  0
    0.3062   -2.1451    3.1700 H   0  0  0  0  0  0  0  0  0  0  0  0
    0.3079   -4.1615    4.6159 H   0  0  0  0  0  0  0  0  0  0  0  0
   -1.8570   -3.3139    1.0201 H   0  0  0  0  0  0  0  0  0  0  0  0
   -3.9791   -3.0724   -1.9273 H   0  0  0  0  0  0  0  0  0  0  0  0
   -6.3513   -3.6377   -1.9365 H   0  0  0  0  0  0  0  0  0  0  0  0
   -6.4249   -3.7845    2.3464 H   0  0  0  0  0  0  0  0  0  0  0  0
   -3.9979   -3.1954    2.3598 H   0  0  0  0  0  0  0  0  0  0  0  0
   -3.6902   -0.9102   -1.0428 H   0  0  0  0  0  0  0  0  0  0  0  0
   -2.4837   -1.2770   -2.3892 H   0  0  0  0  0  0  0  0  0  0  0  0
   -0.6544   -0.0505   -2.7405 H   0  0  0  0  0  0  0  0  0  0  0  0
   -0.2803    1.4653   -1.7712 H   0  0  0  0  0  0  0  0  0  0  0  0
   -2.7247    3.1375    0.4175 H   0  0  0  0  0  0  0  0  0  0  0  0
   -3.4971    3.3385   -1.2056 H   0  0  0  0  0  0  0  0  0  0  0  0
   -1.4842    3.3633   -2.1916 H   0  0  0  0  0  0  0  0  0  0  0  0
   -2.9171    5.3248   -2.6987 H   0  0  0  0  0  0  0  0  0  0  0  0
   -3.8085    5.5904   -1.1971 H   0  0  0  0  0  0  0  0  0  0  0  0
   -2.7382    6.8830   -1.8015 H   0  0  0  0  0  0  0  0  0  0  0  0
    4.1326   -0.1444    0.0960 H   0  0  0  0  0  0  0  0  0  0  0  0
    4.2416    2.2695   -1.7733 H   0  0  0  0  0  0  0  0  0  0  0  0
    4.9928    4.2949   -0.9565 H   0  0  0  0  0  0  0  0  0  0  0  0
    5.8085    5.6870    0.9417 H   0  0  0  0  0  0  0  0  0  0  0  0
    6.4672    4.6118    3.0413 H   0  0  0  0  0  0  0  0  0  0  0  0
    6.3116    2.1865    3.2411 H   0  0  0  0  0  0  0  0  0  0  0  0
    5.4073   -0.0385   -2.2617 H   0  0  0  0  0  0  0  0  0  0  0  0
    6.2611    1.5046   -2.5645 H   0  0  0  0  0  0  0  0  0  0  0  0
    6.5943    0.4797   -1.0471 H   0  0  0  0  0  0  0  0  0  0  0  0
  1  2  1  0
  2  3  2  0
  3  4  1  0
  4  5  2  0
  5  6  1  0
  6  7  2  0
  5  8  1  0
  8  9  1  0
  9 10  2  0
 10 11  1  0
 11 12  2  0
 12 13  1  0
 13 14  2  0
 14 15  1  0
 15 16  2  0
 16 17  1  0
 17 18  2  0
 18 19  1  0
 19 20  2  0
 18 21  1  0
 13 22  1  0
 22 23  1  0
 23 24  1  0
 23 25  1  0
 25 26  2  0
 25 27  1  0
 27 28  1  0
 28 29  1  0
 29 30  2  0
 29 31  2  0
 29 32  1  0
 10 33  1  0
 33 34  2  0
 33 35  1  0
 35 36  1  0
 36 37  1  0
 37 38  2  0
 38 39  1  0
 39 40  2  0
 40 41  1  0
 41 42  2  0
 36 43  1  0
  7  2  1  0
 12  8  1  0
 20 15  1  0
 42 37  1  0
 24 11  1  0
  3 44  1  0
  4 45  1  0
  6 46  1  0
  7 47  1  0
 14 48  1  0
 16 49  1  0
 17 50  1  0
 19 51  1  0
 20 52  1  0
 22 53  1  0
 22 54  1  0
 24 55  1  0
 24 56  1  0
 27 57  1  0
 27 58  1  0
 28 59  1  0
 32 60  1  0
 32 61  1  0
 32 62  1  0
 35 63  1  0
 36 64  1  6
 38 65  1  0
 39 66  1  0
 40 67  1  0
 41 68  1  0
 43 69  1  0
 43 70  1  0
 43 71  1  0
M  END
>  <Ligand ID>  (1) 
LIG0005439

>  <Ligand>  (1) 
CHEMBL3906628

>  <SMILES>  (1) 
Clc1ccc(cc1)n1nc(c2c1/C(=C/c1ccc(cc1)F)/CN(C2)C(=O)CNS(=O)(=O)C)C(=O)N[C@@H](c1ccccn1)C

>  <CID>  (1) 
134135465.0

>  <ChEMBL ID>  (1) 
nan

>  <InChiKey>  (1) 
ZBAGVNLOHADOLK-DDNKWHRWSA-N

>  <InChi>  (1) 
InChI=1S/C30H28ClFN6O4S/c1-19(26-5-3-4-14-33-26)35-30(40)28-25-18-37(27(39)16-34-43(2,41)42)17-21(15-20-6-10-23(32)11-7-20)29(25)38(36-28)24-12-8-22(31)9-13-24/h3-15,19,34H,16-18H2,1-2H3,(H,35,40)/b21-15+/t19-/m1/s1

>  <IUPAC Name>  (1) 
(7E)-1-(4-chlorophenyl)-7-[(4-fluorophenyl)methylidene]-5-[2-(methanesulfonamido)acetyl]-N-[(1R)-1-pyridin-2-ylethyl]-4,6-dihydropyrazolo[4,3-c]pyridine-3-carboxamide

$$$$
