
     RDKit          3D

 41 44  0  0  0  0  0  0  0  0999 V2000
    7.4211    0.1374    1.1444 Cl  0  0  0  0  0  0  0  0  0  0  0  0
    5.8888   -0.2425    0.3845 C   0  0  0  0  0  0  0  0  0  0  0  0
    4.9897    0.7507    0.0346 C   0  0  0  0  0  0  0  0  0  0  0  0
    3.7919    0.4206   -0.5621 C   0  0  0  0  0  0  0  0  0  0  0  0
    3.4557   -0.9025   -0.8269 C   0  0  0  0  0  0  0  0  0  0  0  0
    4.3502   -1.9013   -0.4798 C   0  0  0  0  0  0  0  0  0  0  0  0
    5.5512   -1.5636    0.1191 C   0  0  0  0  0  0  0  0  0  0  0  0
    6.6842   -2.8510    0.5572 Cl  0  0  0  0  0  0  0  0  0  0  0  0
    2.7877    1.4425   -0.9598 C   0  0  0  0  0  0  0  0  0  0  0  0
    1.5978    1.8065    0.3536 S   0  0  0  0  0  0  0  0  0  0  0  0
    0.5616    0.3813    0.6998 C   0  0  0  0  0  0  0  0  0  0  0  0
    0.8502   -0.5779    1.5985 N   0  0  0  0  0  0  0  0  0  0  0  0
   -0.1496   -1.4421    1.5577 N   0  0  0  0  0  0  0  0  0  0  0  0
   -1.0460   -1.0243    0.6459 C   0  0  0  0  0  0  0  0  0  0  0  0
   -0.6125    0.1201    0.0987 N   0  0  0  0  0  0  0  0  0  0  0  0
   -1.2107    0.9413   -0.9078 C   0  0  0  0  0  0  0  0  0  0  0  0
   -2.1136    1.9938   -0.3747 C   0  0  0  0  0  0  0  0  0  0  0  0
   -1.6919    3.2704   -0.0271 C   0  0  0  0  0  0  0  0  0  0  0  0
   -2.7920    3.9695    0.4256 C   0  0  0  0  0  0  0  0  0  0  0  0
   -3.8458    3.0924    0.3373 C   0  0  0  0  0  0  0  0  0  0  0  0
   -3.3885    1.9744   -0.1301 O   0  0  0  0  0  0  0  0  0  0  0  0
   -2.2874   -1.7136    0.3141 C   0  0  0  0  0  0  0  0  0  0  0  0
   -3.5300   -1.2663    0.7132 C   0  0  0  0  0  0  0  0  0  0  0  0
   -4.6556   -2.0037    0.3399 C   0  0  0  0  0  0  0  0  0  0  0  0
   -4.4610   -3.1516   -0.4158 C   0  0  0  0  0  0  0  0  0  0  0  0
   -3.2070   -3.5796   -0.8035 C   0  0  0  0  0  0  0  0  0  0  0  0
   -2.1486   -2.8500   -0.4292 N   0  0  0  0  0  0  0  0  0  0  0  0
    5.2099    1.7905    0.2217 H   0  0  0  0  0  0  0  0  0  0  0  0
    2.5220   -1.1737   -1.2932 H   0  0  0  0  0  0  0  0  0  0  0  0
    4.0775   -2.9373   -0.6916 H   0  0  0  0  0  0  0  0  0  0  0  0
    3.2701    2.4179   -1.2129 H   0  0  0  0  0  0  0  0  0  0  0  0
    2.2909    1.1038   -1.9030 H   0  0  0  0  0  0  0  0  0  0  0  0
   -0.4351    1.4657   -1.5380 H   0  0  0  0  0  0  0  0  0  0  0  0
   -1.7489    0.2945   -1.6429 H   0  0  0  0  0  0  0  0  0  0  0  0
   -0.7028    3.7003   -0.0768 H   0  0  0  0  0  0  0  0  0  0  0  0
   -2.8115    5.0099    0.7804 H   0  0  0  0  0  0  0  0  0  0  0  0
   -4.8564    3.3659    0.6287 H   0  0  0  0  0  0  0  0  0  0  0  0
   -3.6100   -0.3618    1.3022 H   0  0  0  0  0  0  0  0  0  0  0  0
   -5.6568   -1.6754    0.6408 H   0  0  0  0  0  0  0  0  0  0  0  0
   -5.3061   -3.7602   -0.7316 H   0  0  0  0  0  0  0  0  0  0  0  0
   -3.0325   -4.4712   -1.3923 H   0  0  0  0  0  0  0  0  0  0  0  0
  1  2  1  0
  2  3  2  0
  3  4  1  0
  4  5  2  0
  5  6  1  0
  6  7  2  0
  7  8  1  0
  4  9  1  0
  9 10  1  0
 10 11  1  0
 11 12  2  0
 12 13  1  0
 13 14  2  0
 14 15  1  0
 15 16  1  0
 16 17  1  0
 17 18  2  0
 18 19  1  0
 19 20  2  0
 20 21  1  0
 14 22  1  0
 22 23  2  0
 23 24  1  0
 24 25  2  0
 25 26  1  0
 26 27  2  0
  7  2  1  0
 15 11  1  0
 21 17  1  0
 27 22  1  0
  3 28  1  0
  5 29  1  0
  6 30  1  0
  9 31  1  0
  9 32  1  0
 16 33  1  0
 16 34  1  0
 18 35  1  0
 19 36  1  0
 20 37  1  0
 23 38  1  0
 24 39  1  0
 25 40  1  0
 26 41  1  0
M  END
>  <Ligand ID>  (1) 
LIG0002765

>  <Ligand>  (1) 
ML138

>  <SMILES>  (1) 
Clc1cc(ccc1Cl)CSc1nnc(n1Cc1ccco1)c1ccccn1

>  <CID>  (1) 
44601470.0

>  <ChEMBL ID>  (1) 
nan

>  <InChiKey>  (1) 
QDXGAJIGONMOCL-UHFFFAOYSA-N

>  <InChi>  (1) 
InChI=1S/C19H14Cl2N4OS/c20-15-7-6-13(10-16(15)21)12-27-19-24-23-18(17-5-1-2-8-22-17)25(19)11-14-4-3-9-26-14/h1-10H,11-12H2

>  <IUPAC Name>  (1) 
2-[5-[(3,4-dichlorophenyl)methylsulfanyl]-4-(furan-2-ylmethyl)-1,2,4-triazol-3-yl]pyridine

$$$$
