
     RDKit          3D

 64 69  0  0  0  0  0  0  0  0999 V2000
   -6.6246    3.1953   -0.0581 C   0  0  0  0  0  0  0  0  0  0  0  0
   -5.3477    2.7828   -0.5080 O   0  0  0  0  0  0  0  0  0  0  0  0
   -4.6935    1.6739   -0.0047 C   0  0  0  0  0  0  0  0  0  0  0  0
   -5.2168    0.8613    0.9823 C   0  0  0  0  0  0  0  0  0  0  0  0
   -4.5234   -0.2534    1.4666 C   0  0  0  0  0  0  0  0  0  0  0  0
   -3.2940   -0.5338    0.9383 C   0  0  0  0  0  0  0  0  0  0  0  0
   -2.8017    0.2854   -0.0360 C   0  0  0  0  0  0  0  0  0  0  0  0
   -3.4498    1.3732   -0.5255 C   0  0  0  0  0  0  0  0  0  0  0  0
   -2.6125    1.9249   -1.4916 O   0  0  0  0  0  0  0  0  0  0  0  0
   -1.2710    1.4505   -1.2577 C   0  0  2  0  0  0  0  0  0  0  0  0
   -1.4848    0.0764   -0.7144 C   0  0  2  0  0  0  0  0  0  0  0  0
   -1.8155   -0.8583   -1.8463 C   0  0  0  0  0  0  0  0  0  0  0  0
   -2.1605   -2.2449   -1.3817 C   0  0  0  0  0  0  0  0  0  0  0  0
   -1.2234   -2.6354   -0.3631 N   0  0  0  0  0  0  0  0  0  0  0  0
   -1.1151   -1.7579    0.7547 C   0  0  0  0  0  0  0  0  0  0  0  0
   -2.4580   -1.6865    1.3940 C   0  0  0  0  0  0  0  0  0  0  0  0
   -0.5693   -0.4060    0.3301 C   0  0  2  0  0  0  0  0  0  0  0  0
   -0.7906    0.4639    1.5728 C   0  0  0  0  0  0  0  0  0  0  0  0
   -1.0582    1.8976    1.2278 C   0  0  0  0  0  0  0  0  0  0  0  0
   -0.6784    2.2674   -0.1620 C   0  0  0  0  0  0  0  0  0  0  0  0
    0.0886    3.2019   -0.4130 O   0  0  0  0  0  0  0  0  0  0  0  0
    0.8342   -0.3429    0.0958 N   0  0  0  0  0  0  0  0  0  0  0  0
    1.5882   -1.1080   -0.8273 C   0  0  0  0  0  0  0  0  0  0  0  0
    1.0250   -1.9722   -1.5661 O   0  0  0  0  0  0  0  0  0  0  0  0
    3.0345   -0.9757   -1.0061 C   0  0  0  0  0  0  0  0  0  0  0  0
    3.7979   -0.1394   -0.3379 C   0  0  0  0  0  0  0  0  0  0  0  0
    5.2408   -0.0180   -0.5269 C   0  0  0  0  0  0  0  0  0  0  0  0
    5.9598   -0.7685   -1.4278 C   0  0  0  0  0  0  0  0  0  0  0  0
    7.3300   -0.6195   -1.5738 C   0  0  0  0  0  0  0  0  0  0  0  0
    8.0375    0.2840   -0.8268 C   0  0  0  0  0  0  0  0  0  0  0  0
    7.3383    1.0465    0.0818 C   0  0  0  0  0  0  0  0  0  0  0  0
    5.9787    0.8970    0.2250 C   0  0  0  0  0  0  0  0  0  0  0  0
    5.2570    1.7295    1.2081 C   0  0  0  0  0  0  0  0  0  0  0  0
   -1.1917   -4.0301   -0.0891 C   0  0  0  0  0  0  0  0  0  0  0  0
   -7.3871    2.6122   -0.6034 H   0  0  0  0  0  0  0  0  0  0  0  0
   -6.8008    4.2647   -0.2262 H   0  0  0  0  0  0  0  0  0  0  0  0
   -6.7358    3.0350    1.0471 H   0  0  0  0  0  0  0  0  0  0  0  0
   -6.2005    1.0976    1.3951 H   0  0  0  0  0  0  0  0  0  0  0  0
   -4.9258   -0.8840    2.2304 H   0  0  0  0  0  0  0  0  0  0  0  0
   -0.6649    1.4830   -2.1807 H   0  0  0  0  0  0  0  0  0  0  0  0
   -2.7880   -0.4704   -2.2842 H   0  0  0  0  0  0  0  0  0  0  0  0
   -1.1275   -0.8088   -2.7084 H   0  0  0  0  0  0  0  0  0  0  0  0
   -1.9505   -2.9020   -2.2678 H   0  0  0  0  0  0  0  0  0  0  0  0
   -3.2174   -2.4063   -1.1358 H   0  0  0  0  0  0  0  0  0  0  0  0
   -0.4211   -2.2043    1.4748 H   0  0  0  0  0  0  0  0  0  0  0  0
   -2.4253   -1.7442    2.5049 H   0  0  0  0  0  0  0  0  0  0  0  0
   -3.0502   -2.5849    1.1039 H   0  0  0  0  0  0  0  0  0  0  0  0
    0.2106    0.4504    2.1216 H   0  0  0  0  0  0  0  0  0  0  0  0
   -1.4760    0.0401    2.3110 H   0  0  0  0  0  0  0  0  0  0  0  0
   -2.1203    2.1813    1.3736 H   0  0  0  0  0  0  0  0  0  0  0  0
   -0.4792    2.5790    1.9170 H   0  0  0  0  0  0  0  0  0  0  0  0
    1.4232    0.3545    0.6626 H   0  0  0  0  0  0  0  0  0  0  0  0
    3.5320   -1.6020   -1.7360 H   0  0  0  0  0  0  0  0  0  0  0  0
    3.3553    0.5035    0.3967 H   0  0  0  0  0  0  0  0  0  0  0  0
    5.4926   -1.5028   -2.0581 H   0  0  0  0  0  0  0  0  0  0  0  0
    7.8791   -1.2219   -2.2909 H   0  0  0  0  0  0  0  0  0  0  0  0
    9.0964    0.4221   -0.9168 H   0  0  0  0  0  0  0  0  0  0  0  0
    7.8769    1.7567    0.6727 H   0  0  0  0  0  0  0  0  0  0  0  0
    5.9552    2.3458    1.7990 H   0  0  0  0  0  0  0  0  0  0  0  0
    4.7700    1.0104    1.9267 H   0  0  0  0  0  0  0  0  0  0  0  0
    4.4667    2.3695    0.7326 H   0  0  0  0  0  0  0  0  0  0  0  0
   -2.1366   -4.4695    0.2688 H   0  0  0  0  0  0  0  0  0  0  0  0
   -0.3942   -4.2294    0.6370 H   0  0  0  0  0  0  0  0  0  0  0  0
   -0.8868   -4.5362   -1.0448 H   0  0  0  0  0  0  0  0  0  0  0  0
  1  2  1  0
  2  3  1  0
  3  4  2  0
  4  5  1  0
  5  6  2  0
  6  7  1  0
  7  8  2  0
  8  9  1  0
  9 10  1  0
 10 11  1  0
 11 12  1  6
 12 13  1  0
 13 14  1  0
 14 15  1  0
 15 16  1  0
 15 17  1  0
 17 18  1  0
 18 19  1  0
 19 20  1  0
 20 21  2  0
 17 22  1  6
 22 23  1  0
 23 24  2  0
 23 25  1  0
 25 26  2  0
 26 27  1  0
 27 28  2  0
 28 29  1  0
 29 30  2  0
 30 31  1  0
 31 32  2  0
 32 33  1  0
 14 34  1  0
  8  3  1  0
 20 10  1  0
 32 27  1  0
 16  6  1  0
 11  7  1  0
 17 11  1  0
  1 35  1  0
  1 36  1  0
  1 37  1  0
  4 38  1  0
  5 39  1  0
 10 40  1  6
 12 41  1  0
 12 42  1  0
 13 43  1  0
 13 44  1  0
 15 45  1  0
 16 46  1  0
 16 47  1  0
 18 48  1  0
 18 49  1  0
 19 50  1  0
 19 51  1  0
 22 52  1  0
 25 53  1  0
 26 54  1  0
 28 55  1  0
 29 56  1  0
 30 57  1  0
 31 58  1  0
 33 59  1  0
 33 60  1  0
 33 61  1  0
 34 62  1  0
 34 63  1  0
 34 64  1  0
M  END
>  <Ligand ID>  (1) 
LIG0003860

>  <Ligand>  (1) 
BDBM50193549

>  <SMILES>  (1) 
COc1ccc2c3c1O[C@@H]1[C@@]43CCN(C(C2)[C@@]4(CCC1=O)NC(=O)/C=C/c1ccccc1C)C

>  <CID>  (1) 
44415061.0

>  <ChEMBL ID>  (1) 
nan

>  <InChiKey>  (1) 
SXVUBZDBQVNZMU-FLFYABMLSA-N

>  <InChi>  (1) 
InChI=1S/C28H30N2O4/c1-17-6-4-5-7-18(17)9-11-23(32)29-28-13-12-20(31)26-27(28)14-15-30(2)22(28)16-19-8-10-21(33-3)25(34-26)24(19)27/h4-11,22,26H,12-16H2,1-3H3,(H,29,32)/b11-9+/t22?,26-,27-,28+/m0/s1

>  <IUPAC Name>  (1) 
(E)-N-[(4aS,7aR,12bR)-9-methoxy-3-methyl-7-oxo-2,4,5,6,7a,13-hexahydro-1H-4,12-methanobenzofuro[3,2-e]isoquinolin-4a-yl]-3-(2-methylphenyl)prop-2-enamide

$$$$
