
     RDKit          3D

 46 48  0  0  0  0  0  0  0  0999 V2000
   -7.0640    2.5869    0.1828 C   0  0  0  0  0  0  0  0  0  0  0  0
   -6.8975    1.2128    0.4818 O   0  0  0  0  0  0  0  0  0  0  0  0
   -5.6143    0.6630    0.3879 C   0  0  0  0  0  0  0  0  0  0  0  0
   -4.5299    1.4598    0.0107 C   0  0  0  0  0  0  0  0  0  0  0  0
   -3.2533    0.9257   -0.0849 C   0  0  0  0  0  0  0  0  0  0  0  0
   -3.0439   -0.4201    0.1972 C   0  0  0  0  0  0  0  0  0  0  0  0
   -4.1268   -1.1900    0.5677 C   0  0  0  0  0  0  0  0  0  0  0  0
   -5.4117   -0.6957    0.6741 C   0  0  0  0  0  0  0  0  0  0  0  0
   -6.5601   -1.5527    1.0757 C   0  0  0  0  0  0  0  0  0  0  0  0
   -7.4894   -1.5197    0.0550 F   0  0  0  0  0  0  0  0  0  0  0  0
   -7.0184   -1.1469    2.2874 F   0  0  0  0  0  0  0  0  0  0  0  0
   -6.0581   -2.8554    1.2271 F   0  0  0  0  0  0  0  0  0  0  0  0
   -1.6901   -0.9744    0.1001 C   0  0  0  0  0  0  0  0  0  0  0  0
   -1.2929   -2.1993    0.3122 O   0  0  0  0  0  0  0  0  0  0  0  0
   -0.0150   -2.3291    0.1345 N   0  0  0  0  0  0  0  0  0  0  0  0
    0.4416   -1.0995   -0.2162 C   0  0  0  0  0  0  0  0  0  0  0  0
   -0.6049   -0.2678   -0.2346 N   0  0  0  0  0  0  0  0  0  0  0  0
    1.8503   -0.8400   -0.4767 C   0  0  0  0  0  0  0  0  0  0  0  0
    2.7470   -1.8745   -0.2730 C   0  0  0  0  0  0  0  0  0  0  0  0
    4.1073   -1.6618   -0.5020 C   0  0  0  0  0  0  0  0  0  0  0  0
    4.5874   -0.4517   -0.9244 C   0  0  0  0  0  0  0  0  0  0  0  0
    3.6794    0.5627   -1.1222 C   0  0  0  0  0  0  0  0  0  0  0  0
    2.3229    0.3847   -0.9052 C   0  0  0  0  0  0  0  0  0  0  0  0
    1.4197    1.5147   -1.1577 C   0  0  0  0  0  0  0  0  0  0  0  0
    6.0170   -0.2038   -1.1472 C   0  0  0  0  0  0  0  0  0  0  0  0
    6.6840    0.4312    0.0294 C   0  0  0  0  0  0  0  0  0  0  0  0
    6.5735   -0.3918    1.2256 C   0  0  0  0  0  0  0  0  0  0  0  0
    5.4817   -0.8647    1.6776 O   0  0  0  0  0  0  0  0  0  0  0  0
    7.6972   -0.7449    2.0036 O   0  0  0  0  0  0  0  0  0  0  0  0
   -6.5425    3.2181    0.9448 H   0  0  0  0  0  0  0  0  0  0  0  0
   -6.5684    2.8422   -0.8026 H   0  0  0  0  0  0  0  0  0  0  0  0
   -8.1181    2.8742    0.0826 H   0  0  0  0  0  0  0  0  0  0  0  0
   -4.6492    2.5174   -0.2169 H   0  0  0  0  0  0  0  0  0  0  0  0
   -2.3926    1.5413   -0.3810 H   0  0  0  0  0  0  0  0  0  0  0  0
   -3.9244   -2.2365    0.7759 H   0  0  0  0  0  0  0  0  0  0  0  0
    2.4568   -2.8609    0.0609 H   0  0  0  0  0  0  0  0  0  0  0  0
    4.8099   -2.4908   -0.3487 H   0  0  0  0  0  0  0  0  0  0  0  0
    4.0570    1.5285   -1.4606 H   0  0  0  0  0  0  0  0  0  0  0  0
    1.9201    2.2199   -1.8637 H   0  0  0  0  0  0  0  0  0  0  0  0
    1.1946    2.0935   -0.2573 H   0  0  0  0  0  0  0  0  0  0  0  0
    0.5118    1.1588   -1.7047 H   0  0  0  0  0  0  0  0  0  0  0  0
    6.1771    0.3694   -2.0924 H   0  0  0  0  0  0  0  0  0  0  0  0
    6.4869   -1.2234   -1.3345 H   0  0  0  0  0  0  0  0  0  0  0  0
    7.7850    0.5988   -0.1608 H   0  0  0  0  0  0  0  0  0  0  0  0
    6.2530    1.4581    0.1785 H   0  0  0  0  0  0  0  0  0  0  0  0
    7.6047   -0.9314    2.9942 H   0  0  0  0  0  0  0  0  0  0  0  0
  1  2  1  0
  2  3  1  0
  3  4  2  0
  4  5  1  0
  5  6  2  0
  6  7  1  0
  7  8  2  0
  8  9  1  0
  9 10  1  0
  9 11  1  0
  9 12  1  0
  6 13  1  0
 13 14  1  0
 14 15  1  0
 15 16  2  0
 16 17  1  0
 16 18  1  0
 18 19  2  0
 19 20  1  0
 20 21  2  0
 21 22  1  0
 22 23  2  0
 23 24  1  0
 21 25  1  0
 25 26  1  0
 26 27  1  0
 27 28  2  0
 27 29  1  0
  8  3  1  0
 17 13  2  0
 23 18  1  0
  1 30  1  0
  1 31  1  0
  1 32  1  0
  4 33  1  0
  5 34  1  0
  7 35  1  0
 19 36  1  0
 20 37  1  0
 22 38  1  0
 24 39  1  0
 24 40  1  0
 24 41  1  0
 25 42  1  0
 25 43  1  0
 26 44  1  0
 26 45  1  0
 29 46  1  0
M  END
>  <Ligand ID>  (1) 
LIG0001686

>  <Ligand>  (1) 
CHEMBL211806

>  <SMILES>  (1) 
COc1ccc(cc1C(F)(F)F)c1onc(n1)c1ccc(cc1C)CCC(=O)O

>  <CID>  (1) 
44412868.0

>  <ChEMBL ID>  (1) 
nan

>  <InChiKey>  (1) 
MUKUBBMIKFMHNH-UHFFFAOYSA-N

>  <InChi>  (1) 
InChI=1S/C20H17F3N2O4/c1-11-9-12(4-8-17(26)27)3-6-14(11)18-24-19(29-25-18)13-5-7-16(28-2)15(10-13)20(21,22)23/h3,5-7,9-10H,4,8H2,1-2H3,(H,26,27)

>  <IUPAC Name>  (1) 
3-[4-[5-[4-methoxy-3-(trifluoromethyl)phenyl]-1,2,4-oxadiazol-3-yl]-3-methylphenyl]propanoic acid

$$$$
