
     RDKit          3D

 37 38  0  0  0  0  0  0  0  0999 V2000
   -3.3011   -1.3532    1.0647 C   0  0  0  0  0  0  0  0  0  0  0  0
   -1.9005   -0.8661    1.0156 N   0  0  0  0  0  0  0  0  0  0  0  0
   -1.7933   -0.1870   -0.2463 C   0  0  0  0  0  0  0  0  0  0  0  0
   -2.9641    0.7520   -0.3976 C   0  0  0  0  0  0  0  0  0  0  0  0
   -3.4277    1.6202    0.5972 C   0  0  0  0  0  0  0  0  0  0  0  0
   -4.5010    2.2894    0.0511 C   0  0  0  0  0  0  0  0  0  0  0  0
   -4.6260    1.7947   -1.2293 C   0  0  0  0  0  0  0  0  0  0  0  0
   -3.7110    0.8888   -1.4764 O   0  0  0  0  0  0  0  0  0  0  0  0
   -0.5758    0.6399   -0.3364 C   0  0  0  0  0  0  0  0  0  0  0  0
    0.6892   -0.0204   -0.2409 N   0  0  0  0  0  0  0  0  0  0  0  0
    1.8527    0.8196   -0.3079 C   0  0  0  0  0  0  0  0  0  0  0  0
    1.6059    2.0608   -0.4456 O   0  0  0  0  0  0  0  0  0  0  0  0
    3.2053    0.3051   -0.2261 C   0  0  0  0  0  0  0  0  0  0  0  0
    3.5277   -1.0235   -0.0770 C   0  0  0  0  0  0  0  0  0  0  0  0
    4.8473   -1.4433   -0.0061 C   0  0  0  0  0  0  0  0  0  0  0  0
    5.8806   -0.5323   -0.0840 C   0  0  0  0  0  0  0  0  0  0  0  0
    5.5569    0.8009   -0.2337 C   0  0  0  0  0  0  0  0  0  0  0  0
    4.2422    1.2109   -0.3034 C   0  0  0  0  0  0  0  0  0  0  0  0
    7.7050   -1.0807    0.0105 Br  0  0  0  0  0  0  0  0  0  0  0  0
   -1.1198   -2.0908    1.0325 C   0  0  0  0  0  0  0  0  0  0  0  0
   -3.9740   -0.5993    1.4907 H   0  0  0  0  0  0  0  0  0  0  0  0
   -3.5502   -1.6671    0.0529 H   0  0  0  0  0  0  0  0  0  0  0  0
   -3.3159   -2.2219    1.7742 H   0  0  0  0  0  0  0  0  0  0  0  0
   -1.8786   -0.9424   -1.0693 H   0  0  0  0  0  0  0  0  0  0  0  0
   -3.0264    1.7469    1.6022 H   0  0  0  0  0  0  0  0  0  0  0  0
   -5.1059    3.0428    0.5429 H   0  0  0  0  0  0  0  0  0  0  0  0
   -5.3705    2.0974   -1.9511 H   0  0  0  0  0  0  0  0  0  0  0  0
   -0.6153    1.2981   -1.2652 H   0  0  0  0  0  0  0  0  0  0  0  0
   -0.5792    1.4350    0.4856 H   0  0  0  0  0  0  0  0  0  0  0  0
    0.8791   -1.0263   -0.1433 H   0  0  0  0  0  0  0  0  0  0  0  0
    2.7540   -1.7543   -0.0134 H   0  0  0  0  0  0  0  0  0  0  0  0
    5.0530   -2.4950    0.1110 H   0  0  0  0  0  0  0  0  0  0  0  0
    6.3393    1.5543   -0.2995 H   0  0  0  0  0  0  0  0  0  0  0  0
    4.0460    2.2573   -0.4197 H   0  0  0  0  0  0  0  0  0  0  0  0
   -1.7013   -2.8934    1.5848 H   0  0  0  0  0  0  0  0  0  0  0  0
   -0.9412   -2.4330    0.0003 H   0  0  0  0  0  0  0  0  0  0  0  0
   -0.2052   -1.9837    1.6287 H   0  0  0  0  0  0  0  0  0  0  0  0
  1  2  1  0
  2  3  1  0
  3  4  1  0
  4  5  2  0
  5  6  1  0
  6  7  2  0
  7  8  1  0
  3  9  1  0
  9 10  1  0
 10 11  1  0
 11 12  2  0
 11 13  1  0
 13 14  2  0
 14 15  1  0
 15 16  2  0
 16 17  1  0
 17 18  2  0
 16 19  1  0
  2 20  1  0
  8  4  1  0
 18 13  1  0
  1 21  1  0
  1 22  1  0
  1 23  1  0
  3 24  1  0
  5 25  1  0
  6 26  1  0
  7 27  1  0
  9 28  1  0
  9 29  1  0
 10 30  1  0
 14 31  1  0
 15 32  1  0
 17 33  1  0
 18 34  1  0
 20 35  1  0
 20 36  1  0
 20 37  1  0
M  END
>  <Ligand ID>  (1) 
LIG0004514

>  <Ligand>  (1) 
MLS001216040

>  <SMILES>  (1) 
CN(C(c1ccco1)CNC(=O)c1ccc(cc1)Br)C

>  <CID>  (1) 
16437666.0

>  <ChEMBL ID>  (1) 
nan

>  <InChiKey>  (1) 
PNNODXHEPQGAJL-UHFFFAOYSA-N

>  <InChi>  (1) 
InChI=1S/C15H17BrN2O2/c1-18(2)13(14-4-3-9-20-14)10-17-15(19)11-5-7-12(16)8-6-11/h3-9,13H,10H2,1-2H3,(H,17,19)

>  <IUPAC Name>  (1) 
4-bromo-N-[2-(dimethylamino)-2-(furan-2-yl)ethyl]benzamide

$$$$
