
     RDKit          3D

 49 53  0  0  0  0  0  0  0  0999 V2000
   -2.0712    5.2274   -0.5677 C   0  0  0  0  0  0  0  0  0  0  0  0
   -2.2494    3.7867   -0.3356 C   0  0  0  0  0  0  0  0  0  0  0  0
   -1.2164    2.9591   -0.1650 N   0  0  0  0  0  0  0  0  0  0  0  0
   -1.3416    1.6163    0.0531 C   0  0  0  0  0  0  0  0  0  0  0  0
   -0.1107    0.9240    0.1336 N   0  0  0  0  0  0  0  0  0  0  0  0
    0.5054    0.2704   -0.9944 C   0  0  0  0  0  0  0  0  0  0  0  0
    1.7690   -0.4988   -0.6454 C   0  0  0  0  0  0  0  0  0  0  0  0
    2.6761    0.1944    0.2081 N   0  0  0  0  0  0  0  0  0  0  0  0
    2.0780    1.1884    1.1258 C   0  0  0  0  0  0  0  0  0  0  0  0
    0.6251    0.8412    1.4042 C   0  0  0  0  0  0  0  0  0  0  0  0
    4.0719    0.0322    0.2821 C   0  0  0  0  0  0  0  0  0  0  0  0
    4.7002    0.7733    1.1201 O   0  0  0  0  0  0  0  0  0  0  0  0
    4.8819   -0.8780   -0.4805 C   0  0  0  0  0  0  0  0  0  0  0  0
    6.1943   -1.1896   -0.2811 C   0  0  0  0  0  0  0  0  0  0  0  0
    6.7748   -2.0637   -1.1059 C   0  0  0  0  0  0  0  0  0  0  0  0
    6.0522   -2.6071   -2.1024 C   0  0  0  0  0  0  0  0  0  0  0  0
    4.3661   -1.8420   -1.9064 S   0  0  0  0  0  0  0  0  0  0  0  0
   -2.6001    1.0144    0.1141 C   0  0  0  0  0  0  0  0  0  0  0  0
   -3.6415    1.9478   -0.0756 C   0  0  0  0  0  0  0  0  0  0  0  0
   -3.4783    3.2294   -0.2835 N   0  0  0  0  0  0  0  0  0  0  0  0
   -5.1307    0.9957    0.0465 S   0  0  0  0  0  0  0  0  0  0  0  0
   -4.3210   -0.5553    0.3400 C   0  0  0  0  0  0  0  0  0  0  0  0
   -2.9522   -0.2471    0.3260 C   0  0  0  0  0  0  0  0  0  0  0  0
   -2.1356   -1.5033    0.6224 C   0  0  0  0  0  0  0  0  0  0  0  0
   -2.5666   -2.4684   -0.4610 C   0  0  0  0  0  0  0  0  0  0  0  0
   -3.9872   -2.9415   -0.2470 C   0  0  0  0  0  0  0  0  0  0  0  0
   -4.7770   -1.9385    0.5596 C   0  0  0  0  0  0  0  0  0  0  0  0
   -1.1072    5.5042   -0.0612 H   0  0  0  0  0  0  0  0  0  0  0  0
   -2.8351    5.8475   -0.0540 H   0  0  0  0  0  0  0  0  0  0  0  0
   -2.0539    5.4749   -1.6420 H   0  0  0  0  0  0  0  0  0  0  0  0
   -0.1718   -0.4777   -1.4566 H   0  0  0  0  0  0  0  0  0  0  0  0
    0.7095    0.9999   -1.8224 H   0  0  0  0  0  0  0  0  0  0  0  0
    1.4632   -1.4304   -0.1232 H   0  0  0  0  0  0  0  0  0  0  0  0
    2.2015   -0.7956   -1.6272 H   0  0  0  0  0  0  0  0  0  0  0  0
    2.6490    1.0902    2.0738 H   0  0  0  0  0  0  0  0  0  0  0  0
    2.1707    2.2087    0.7170 H   0  0  0  0  0  0  0  0  0  0  0  0
    0.2509    1.5336    2.1517 H   0  0  0  0  0  0  0  0  0  0  0  0
    0.5806   -0.1868    1.8075 H   0  0  0  0  0  0  0  0  0  0  0  0
    6.7580   -0.7148    0.5625 H   0  0  0  0  0  0  0  0  0  0  0  0
    7.8547   -2.3536   -0.9847 H   0  0  0  0  0  0  0  0  0  0  0  0
    6.2431   -3.3228   -2.9070 H   0  0  0  0  0  0  0  0  0  0  0  0
   -2.4821   -1.8576    1.6245 H   0  0  0  0  0  0  0  0  0  0  0  0
   -1.0748   -1.3715    0.5489 H   0  0  0  0  0  0  0  0  0  0  0  0
   -1.8600   -3.3126   -0.5736 H   0  0  0  0  0  0  0  0  0  0  0  0
   -2.5429   -1.9012   -1.4132 H   0  0  0  0  0  0  0  0  0  0  0  0
   -3.9528   -3.9489    0.2246 H   0  0  0  0  0  0  0  0  0  0  0  0
   -4.4559   -3.0769   -1.2398 H   0  0  0  0  0  0  0  0  0  0  0  0
   -5.8435   -1.9835    0.3448 H   0  0  0  0  0  0  0  0  0  0  0  0
   -4.6165   -2.1924    1.6264 H   0  0  0  0  0  0  0  0  0  0  0  0
  1  2  1  0
  2  3  2  0
  3  4  1  0
  4  5  1  0
  5  6  1  0
  6  7  1  0
  7  8  1  0
  8  9  1  0
  9 10  1  0
  8 11  1  0
 11 12  2  0
 11 13  1  0
 13 14  2  0
 14 15  1  0
 15 16  2  0
 16 17  1  0
  4 18  2  0
 18 19  1  0
 19 20  2  0
 19 21  1  0
 21 22  1  0
 22 23  2  0
 23 24  1  0
 24 25  1  0
 25 26  1  0
 26 27  1  0
 20  2  1  0
 27 22  1  0
 10  5  1  0
 17 13  1  0
 23 18  1  0
  1 28  1  0
  1 29  1  0
  1 30  1  0
  6 31  1  0
  6 32  1  0
  7 33  1  0
  7 34  1  0
  9 35  1  0
  9 36  1  0
 10 37  1  0
 10 38  1  0
 14 39  1  0
 15 40  1  0
 16 41  1  0
 24 42  1  0
 24 43  1  0
 25 44  1  0
 25 45  1  0
 26 46  1  0
 26 47  1  0
 27 48  1  0
 27 49  1  0
M  END
>  <Ligand ID>  (1) 
LIG0003916

>  <Ligand>  (1) 
MLS-0354783.0001

>  <SMILES>  (1) 
Cc1nc(N2CCN(CC2)C(=O)c2cccs2)c2c(n1)sc1c2CCCC1

>  <CID>  (1) 
1434956.0

>  <ChEMBL ID>  (1) 
nan

>  <InChiKey>  (1) 
VPFJJEBHYFVAOH-UHFFFAOYSA-N

>  <InChi>  (1) 
InChI=1S/C20H22N4OS2/c1-13-21-18(17-14-5-2-3-6-15(14)27-19(17)22-13)23-8-10-24(11-9-23)20(25)16-7-4-12-26-16/h4,7,12H,2-3,5-6,8-11H2,1H3

>  <IUPAC Name>  (1) 
[4-(2-methyl-5,6,7,8-tetrahydro-[1]benzothiolo[2,3-d]pyrimidin-4-yl)piperazin-1-yl]-thiophen-2-ylmethanone

$$$$
