
     RDKit          3D

 62 66  0  0  0  0  0  0  0  0999 V2000
   -1.0685   -4.3114   -1.8527 C   0  0  0  0  0  0  0  0  0  0  0  0
   -2.3765   -3.7987   -1.8041 O   0  0  0  0  0  0  0  0  0  0  0  0
   -2.6732   -2.5329   -1.3103 C   0  0  0  0  0  0  0  0  0  0  0  0
   -1.7076   -1.6778   -0.8279 C   0  0  0  0  0  0  0  0  0  0  0  0
   -1.9864   -0.4243   -0.3372 C   0  0  0  0  0  0  0  0  0  0  0  0
   -3.3170    0.0037   -0.3268 C   0  0  0  0  0  0  0  0  0  0  0  0
   -4.3030   -0.8589   -0.8148 C   0  0  0  0  0  0  0  0  0  0  0  0
   -3.9866   -2.1157   -1.3025 C   0  0  0  0  0  0  0  0  0  0  0  0
   -4.9569   -2.9807   -1.7897 O   0  0  0  0  0  0  0  0  0  0  0  0
   -6.3124   -2.5871   -1.7974 C   0  0  0  0  0  0  0  0  0  0  0  0
   -3.6401    1.2263    0.1505 N   0  0  0  0  0  0  0  0  0  0  0  0
   -2.6307    2.0133    0.6144 C   0  0  0  0  0  0  0  0  0  0  0  0
   -1.3449    1.5967    0.6028 N   0  0  0  0  0  0  0  0  0  0  0  0
   -0.9887    0.3865    0.1347 C   0  0  0  0  0  0  0  0  0  0  0  0
    0.4025    0.0068    0.1338 N   0  0  0  0  0  0  0  0  0  0  0  0
    1.1066   -0.1864   -1.1099 C   0  0  0  0  0  0  0  0  0  0  0  0
    2.1226   -1.2650   -1.0553 C   0  0  0  0  0  0  0  0  0  0  0  0
    2.8257   -1.2106    0.2067 N   0  0  0  0  0  0  0  0  0  0  0  0
    2.0049   -1.2500    1.4116 C   0  0  0  0  0  0  0  0  0  0  0  0
    1.0013   -0.1456    1.4438 C   0  0  0  0  0  0  0  0  0  0  0  0
    4.2325   -1.1274    0.3328 C   0  0  0  0  0  0  0  0  0  0  0  0
    4.8589   -2.1613    1.0197 C   0  0  0  0  0  0  0  0  0  0  0  0
    6.2133   -2.2035    1.2131 C   0  0  0  0  0  0  0  0  0  0  0  0
    6.9752   -1.1665    0.6972 C   0  0  0  0  0  0  0  0  0  0  0  0
    6.3699   -0.1380    0.0161 C   0  0  0  0  0  0  0  0  0  0  0  0
    4.9960   -0.1005   -0.1770 C   0  0  0  0  0  0  0  0  0  0  0  0
    4.3882    0.9264   -0.8575 O   0  0  0  0  0  0  0  0  0  0  0  0
    5.0723    2.0286   -1.4216 C   0  0  0  0  0  0  0  0  0  0  0  0
   -2.9679    3.3344    1.1313 C   0  0  0  0  0  0  0  0  0  0  0  0
   -1.9794    4.1642    1.6103 C   0  0  0  0  0  0  0  0  0  0  0  0
   -2.3343    5.4216    2.0976 C   0  0  0  0  0  0  0  0  0  0  0  0
   -3.6428    5.8509    2.1110 C   0  0  0  0  0  0  0  0  0  0  0  0
   -4.6336    5.0218    1.6319 C   0  0  0  0  0  0  0  0  0  0  0  0
   -4.2596    3.7709    1.1498 C   0  0  0  0  0  0  0  0  0  0  0  0
   -1.0940   -5.4147   -1.9594 H   0  0  0  0  0  0  0  0  0  0  0  0
   -0.4747   -4.0641   -0.9483 H   0  0  0  0  0  0  0  0  0  0  0  0
   -0.5277   -3.9125   -2.7563 H   0  0  0  0  0  0  0  0  0  0  0  0
   -0.6915   -2.0362   -0.8420 H   0  0  0  0  0  0  0  0  0  0  0  0
   -5.3307   -0.5456   -0.8142 H   0  0  0  0  0  0  0  0  0  0  0  0
   -6.6203   -2.1826   -0.7919 H   0  0  0  0  0  0  0  0  0  0  0  0
   -6.9591   -3.4318   -2.0951 H   0  0  0  0  0  0  0  0  0  0  0  0
   -6.4546   -1.7453   -2.5052 H   0  0  0  0  0  0  0  0  0  0  0  0
    0.4107   -0.2642   -1.9712 H   0  0  0  0  0  0  0  0  0  0  0  0
    1.6817    0.7800   -1.2667 H   0  0  0  0  0  0  0  0  0  0  0  0
    2.8239   -1.1658   -1.9199 H   0  0  0  0  0  0  0  0  0  0  0  0
    1.6375   -2.2624   -1.1817 H   0  0  0  0  0  0  0  0  0  0  0  0
    1.4129   -2.2052    1.3136 H   0  0  0  0  0  0  0  0  0  0  0  0
    2.6041   -1.2973    2.3358 H   0  0  0  0  0  0  0  0  0  0  0  0
    0.2703   -0.3782    2.2248 H   0  0  0  0  0  0  0  0  0  0  0  0
    1.4460    0.8399    1.7165 H   0  0  0  0  0  0  0  0  0  0  0  0
    4.2743   -2.9755    1.4263 H   0  0  0  0  0  0  0  0  0  0  0  0
    6.7006   -3.0039    1.7453 H   0  0  0  0  0  0  0  0  0  0  0  0
    8.0448   -1.1557    0.8239 H   0  0  0  0  0  0  0  0  0  0  0  0
    6.9633    0.6758   -0.3896 H   0  0  0  0  0  0  0  0  0  0  0  0
    4.2721    2.7629   -1.7084 H   0  0  0  0  0  0  0  0  0  0  0  0
    5.6604    2.5073   -0.6323 H   0  0  0  0  0  0  0  0  0  0  0  0
    5.6238    1.7906   -2.3419 H   0  0  0  0  0  0  0  0  0  0  0  0
   -0.9533    3.8192    1.5965 H   0  0  0  0  0  0  0  0  0  0  0  0
   -1.5455    6.0585    2.4689 H   0  0  0  0  0  0  0  0  0  0  0  0
   -3.9322    6.8409    2.4933 H   0  0  0  0  0  0  0  0  0  0  0  0
   -5.6678    5.3307    1.6296 H   0  0  0  0  0  0  0  0  0  0  0  0
   -5.0347    3.1254    0.7763 H   0  0  0  0  0  0  0  0  0  0  0  0
  1  2  1  0
  2  3  1  0
  3  4  2  0
  4  5  1  0
  5  6  2  0
  6  7  1  0
  7  8  2  0
  8  9  1  0
  9 10  1  0
  6 11  1  0
 11 12  2  0
 12 13  1  0
 13 14  2  0
 14 15  1  0
 15 16  1  0
 16 17  1  0
 17 18  1  0
 18 19  1  0
 19 20  1  0
 18 21  1  0
 21 22  2  0
 22 23  1  0
 23 24  2  0
 24 25  1  0
 25 26  2  0
 26 27  1  0
 27 28  1  0
 12 29  1  0
 29 30  2  0
 30 31  1  0
 31 32  2  0
 32 33  1  0
 33 34  2  0
  8  3  1  0
 20 15  1  0
 26 21  1  0
 34 29  1  0
 14  5  1  0
  1 35  1  0
  1 36  1  0
  1 37  1  0
  4 38  1  0
  7 39  1  0
 10 40  1  0
 10 41  1  0
 10 42  1  0
 16 43  1  0
 16 44  1  0
 17 45  1  0
 17 46  1  0
 19 47  1  0
 19 48  1  0
 20 49  1  0
 20 50  1  0
 22 51  1  0
 23 52  1  0
 24 53  1  0
 25 54  1  0
 28 55  1  0
 28 56  1  0
 28 57  1  0
 30 58  1  0
 31 59  1  0
 32 60  1  0
 33 61  1  0
 34 62  1  0
M  END
>  <Ligand ID>  (1) 
LIG0004864

>  <Ligand>  (1) 
CHEMBL2431133

>  <SMILES>  (1) 
COc1cc2c(cc1OC)nc(nc2N1CCN(CC1)c1ccccc1OC)c1ccccc1

>  <CID>  (1) 
4679731.0

>  <ChEMBL ID>  (1) 
nan

>  <InChiKey>  (1) 
LAKZIVWNOULFMV-UHFFFAOYSA-N

>  <InChi>  (1) 
InChI=1S/C27H28N4O3/c1-32-23-12-8-7-11-22(23)30-13-15-31(16-14-30)27-20-17-24(33-2)25(34-3)18-21(20)28-26(29-27)19-9-5-4-6-10-19/h4-12,17-18H,13-16H2,1-3H3

>  <IUPAC Name>  (1) 
6,7-dimethoxy-4-[4-(2-methoxyphenyl)piperazin-1-yl]-2-phenylquinazoline

$$$$
