
     RDKit          3D

143147  0  0  0  0  0  0  0  0999 V2000
   10.9188   -0.9536    2.9214 C   0  0  0  0  0  0  0  0  0  0  0  0
   11.3280   -1.7584    1.7368 C   0  0  0  0  0  0  0  0  0  0  0  0
   10.5136   -2.9269    1.3884 C   0  0  0  0  0  0  0  0  0  0  0  0
    9.1214   -2.7481    0.9466 C   0  0  0  0  0  0  0  0  0  0  0  0
    8.9073   -1.9497   -0.3059 C   0  0  1  0  0  0  0  0  0  0  0  0
    7.4326   -1.9858   -0.6488 C   0  0  0  0  0  0  0  0  0  0  0  0
    6.9683   -3.1341   -0.8193 O   0  0  0  0  0  0  0  0  0  0  0  0
    6.6204   -0.8710   -0.7838 N   0  0  0  0  0  0  0  0  0  0  0  0
    5.1769   -0.8476   -1.1616 C   0  0  1  0  0  0  0  0  0  0  0  0
    4.4911   -2.0096   -0.5253 C   0  0  0  0  0  0  0  0  0  0  0  0
    3.0509   -2.1903   -0.7225 C   0  0  0  0  0  0  0  0  0  0  0  0
    2.1510   -1.3766   -0.8114 O   0  0  0  0  0  0  0  0  0  0  0  0
    2.5485   -3.5683   -0.8543 N   0  0  0  0  0  0  0  0  0  0  0  0
    1.1833   -3.8995   -1.0605 C   0  0  0  0  0  0  0  0  0  0  0  0
    0.2673   -3.5511    0.0936 C   0  0  0  0  0  0  0  0  0  0  0  0
   -1.0968   -3.9695   -0.3468 C   0  0  0  0  0  0  0  0  0  0  0  0
   -2.1536   -4.0166    0.7099 C   0  0  0  0  0  0  0  0  0  0  0  0
   -3.4588   -4.4356    0.0521 C   0  0  1  0  0  0  0  0  0  0  0  0
   -4.0248   -3.3594   -0.7117 N   0  0  0  0  0  0  0  0  0  0  0  0
   -5.1737   -3.3967   -1.5209 C   0  0  0  0  0  0  0  0  0  0  0  0
   -5.6871   -4.4818   -1.7505 O   0  0  0  0  0  0  0  0  0  0  0  0
   -5.6772   -2.0757   -2.0582 C   0  0  2  0  0  0  0  0  0  0  0  0
   -5.3095   -1.0122   -1.1748 N   0  0  0  0  0  0  0  0  0  0  0  0
   -4.2581   -0.0564   -1.3680 C   0  0  0  0  0  0  0  0  0  0  0  0
   -3.6189   -0.1156   -2.3880 O   0  0  0  0  0  0  0  0  0  0  0  0
   -4.0896    0.9197   -0.2311 C   0  0  1  0  0  0  0  0  0  0  0  0
   -2.9632    1.7969   -0.3215 N   0  0  0  0  0  0  0  0  0  0  0  0
   -1.5906    1.3748   -0.0897 C   0  0  0  0  0  0  0  0  0  0  0  0
   -1.4401    0.1492   -0.0647 O   0  0  0  0  0  0  0  0  0  0  0  0
   -0.5301    2.3967    0.0748 C   0  0  2  0  0  0  0  0  0  0  0  0
    0.7779    1.8631   -0.2122 N   0  0  0  0  0  0  0  0  0  0  0  0
    1.8085    2.7890   -0.6230 C   0  0  0  0  0  0  0  0  0  0  0  0
    1.4031    3.9731   -0.6161 O   0  0  0  0  0  0  0  0  0  0  0  0
    3.1657    2.5040   -0.9991 C   0  0  1  0  0  0  0  0  0  0  0  0
    3.5234    1.1454   -1.3828 N   0  0  0  0  0  0  0  0  0  0  0  0
    4.6442    0.4599   -0.8820 C   0  0  0  0  0  0  0  0  0  0  0  0
    5.3006    1.1624   -0.0229 O   0  0  0  0  0  0  0  0  0  0  0  0
    3.8381    3.5200   -1.9157 C   0  0  0  0  0  0  0  0  0  0  0  0
    3.9140    4.8297   -1.2555 C   0  0  0  0  0  0  0  0  0  0  0  0
    4.9445    5.1599   -0.4177 N   0  0  0  0  0  0  0  0  0  0  0  0
    4.8080    6.4121    0.0279 C   0  0  0  0  0  0  0  0  0  0  0  0
    3.6732    6.9386   -0.5133 N   0  0  0  0  0  0  0  0  0  0  0  0
    3.1408    5.9586   -1.2967 C   0  0  0  0  0  0  0  0  0  0  0  0
   -0.5527    2.7037    1.6061 C   0  0  0  0  0  0  0  0  0  0  0  0
    0.3962    3.6798    2.0616 C   0  0  0  0  0  0  0  0  0  0  0  0
    1.6411    3.2987    2.5168 C   0  0  0  0  0  0  0  0  0  0  0  0
    2.5461    4.2389    2.9699 C   0  0  0  0  0  0  0  0  0  0  0  0
    2.2293    5.5739    2.9769 C   0  0  0  0  0  0  0  0  0  0  0  0
    0.9910    5.9880    2.5271 C   0  0  0  0  0  0  0  0  0  0  0  0
    0.0892    5.0335    2.0752 C   0  0  0  0  0  0  0  0  0  0  0  0
    3.6310    6.9996    3.6871 I   0  0  0  0  0  0  0  0  0  0  0  0
   -5.3126    1.7953   -0.3252 C   0  0  0  0  0  0  0  0  0  0  0  0
   -5.3920    2.8731    0.7204 C   0  0  0  0  0  0  0  0  0  0  0  0
   -6.6734    3.6465    0.4105 C   0  0  0  0  0  0  0  0  0  0  0  0
   -7.8185    2.7750    0.4518 N   0  0  0  0  0  0  0  0  0  0  0  0
   -8.7650    3.0012   -0.4303 C   0  0  0  0  0  0  0  0  0  0  0  0
   -8.6295    4.0777   -1.3822 N   0  0  0  0  0  0  0  0  0  0  0  0
   -9.9361    2.2106   -0.5220 N   0  0  0  0  0  0  0  0  0  0  0  0
   -7.0683   -2.2344   -2.4981 C   0  0  0  0  0  0  0  0  0  0  0  0
   -8.0858   -2.7109   -1.5620 C   0  0  0  0  0  0  0  0  0  0  0  0
   -8.5872   -4.0234   -1.6410 C   0  0  0  0  0  0  0  0  0  0  0  0
   -9.5270   -4.1882   -0.6736 N   0  0  0  0  0  0  0  0  0  0  0  0
   -9.6482   -3.0466    0.0213 C   0  0  0  0  0  0  0  0  0  0  0  0
   -8.7654   -2.1450   -0.5247 C   0  0  0  0  0  0  0  0  0  0  0  0
   -8.7291   -0.8985    0.0363 C   0  0  0  0  0  0  0  0  0  0  0  0
   -9.5422   -0.5775    1.1029 C   0  0  0  0  0  0  0  0  0  0  0  0
  -10.4198   -1.4906    1.6414 C   0  0  0  0  0  0  0  0  0  0  0  0
  -10.4639   -2.7408    1.0829 C   0  0  0  0  0  0  0  0  0  0  0  0
   -3.1193   -5.5965   -0.8924 C   0  0  0  0  0  0  0  0  0  0  0  0
   -3.3701   -5.5371   -2.1100 O   0  0  0  0  0  0  0  0  0  0  0  0
   -2.4976   -6.7401   -0.2840 N   0  0  0  0  0  0  0  0  0  0  0  0
    9.3342   -0.5928   -0.2419 N   0  0  0  0  0  0  0  0  0  0  0  0
    8.9774    0.3869    0.7118 C   0  0  0  0  0  0  0  0  0  0  0  0
    8.1776    0.0998    1.6655 O   0  0  0  0  0  0  0  0  0  0  0  0
    9.5507    1.7626    0.5895 C   0  0  0  0  0  0  0  0  0  0  0  0
   10.9843    0.1597    2.7252 H   0  0  0  0  0  0  0  0  0  0  0  0
    9.9321   -1.1884    3.3377 H   0  0  0  0  0  0  0  0  0  0  0  0
   11.6544   -1.1541    3.7677 H   0  0  0  0  0  0  0  0  0  0  0  0
   11.4450   -1.0481    0.8565 H   0  0  0  0  0  0  0  0  0  0  0  0
   12.3765   -2.1468    1.9494 H   0  0  0  0  0  0  0  0  0  0  0  0
   11.0863   -3.5410    0.6352 H   0  0  0  0  0  0  0  0  0  0  0  0
   10.4724   -3.5750    2.3267 H   0  0  0  0  0  0  0  0  0  0  0  0
    8.6373   -3.7531    0.7488 H   0  0  0  0  0  0  0  0  0  0  0  0
    8.4999   -2.2572    1.7371 H   0  0  0  0  0  0  0  0  0  0  0  0
    9.4264   -2.5305   -1.1168 H   0  0  0  0  0  0  0  0  0  0  0  0
    7.0113    0.1047   -0.6501 H   0  0  0  0  0  0  0  0  0  0  0  0
    5.1420   -1.0762   -2.2702 H   0  0  0  0  0  0  0  0  0  0  0  0
    4.6995   -2.1002    0.5614 H   0  0  0  0  0  0  0  0  0  0  0  0
    4.9315   -2.9354   -1.0507 H   0  0  0  0  0  0  0  0  0  0  0  0
    3.3068   -4.2628   -0.7831 H   0  0  0  0  0  0  0  0  0  0  0  0
    0.7900   -3.4693   -2.0201 H   0  0  0  0  0  0  0  0  0  0  0  0
    1.1296   -5.0087   -1.2424 H   0  0  0  0  0  0  0  0  0  0  0  0
    0.2534   -2.4912    0.3319 H   0  0  0  0  0  0  0  0  0  0  0  0
    0.5283   -4.1680    0.9683 H   0  0  0  0  0  0  0  0  0  0  0  0
   -1.4064   -3.2831   -1.1474 H   0  0  0  0  0  0  0  0  0  0  0  0
   -0.9731   -5.0219   -0.7286 H   0  0  0  0  0  0  0  0  0  0  0  0
   -1.9095   -4.6599    1.5589 H   0  0  0  0  0  0  0  0  0  0  0  0
   -2.3120   -2.9901    1.1026 H   0  0  0  0  0  0  0  0  0  0  0  0
   -4.1623   -4.8550    0.7417 H   0  0  0  0  0  0  0  0  0  0  0  0
   -3.5369   -2.4459   -0.6792 H   0  0  0  0  0  0  0  0  0  0  0  0
   -5.0627   -1.9920   -3.0245 H   0  0  0  0  0  0  0  0  0  0  0  0
   -5.8307   -0.9074   -0.2929 H   0  0  0  0  0  0  0  0  0  0  0  0
   -4.0609    0.2855    0.6976 H   0  0  0  0  0  0  0  0  0  0  0  0
   -3.0447    2.7812   -0.5726 H   0  0  0  0  0  0  0  0  0  0  0  0
   -0.8030    3.3171   -0.4303 H   0  0  0  0  0  0  0  0  0  0  0  0
    1.0774    0.9055   -0.1563 H   0  0  0  0  0  0  0  0  0  0  0  0
    3.8386    2.6463   -0.0255 H   0  0  0  0  0  0  0  0  0  0  0  0
    2.9462    0.6841   -2.0755 H   0  0  0  0  0  0  0  0  0  0  0  0
    4.7809    3.1532   -2.3275 H   0  0  0  0  0  0  0  0  0  0  0  0
    3.1195    3.6327   -2.7835 H   0  0  0  0  0  0  0  0  0  0  0  0
    5.7583    4.5403   -0.1464 H   0  0  0  0  0  0  0  0  0  0  0  0
    5.4423    6.9915    0.7108 H   0  0  0  0  0  0  0  0  0  0  0  0
    2.2504    6.1097   -1.8660 H   0  0  0  0  0  0  0  0  0  0  0  0
   -1.5939    3.0670    1.8252 H   0  0  0  0  0  0  0  0  0  0  0  0
   -0.4408    1.7448    2.1601 H   0  0  0  0  0  0  0  0  0  0  0  0
    1.8691    2.2194    2.5006 H   0  0  0  0  0  0  0  0  0  0  0  0
    3.5151    3.9400    3.3354 H   0  0  0  0  0  0  0  0  0  0  0  0
    0.6738    7.0231    2.5000 H   0  0  0  0  0  0  0  0  0  0  0  0
   -0.8883    5.2872    1.7119 H   0  0  0  0  0  0  0  0  0  0  0  0
   -6.2040    1.1873   -0.4172 H   0  0  0  0  0  0  0  0  0  0  0  0
   -5.1874    2.3473   -1.3109 H   0  0  0  0  0  0  0  0  0  0  0  0
   -5.5158    2.3925    1.7109 H   0  0  0  0  0  0  0  0  0  0  0  0
   -4.5244    3.5227    0.6460 H   0  0  0  0  0  0  0  0  0  0  0  0
   -6.6248    4.0692   -0.6354 H   0  0  0  0  0  0  0  0  0  0  0  0
   -6.7585    4.5479    1.0546 H   0  0  0  0  0  0  0  0  0  0  0  0
   -8.1028    3.8957   -2.2625 H   0  0  0  0  0  0  0  0  0  0  0  0
   -9.0548    4.9949   -1.1728 H   0  0  0  0  0  0  0  0  0  0  0  0
  -10.6773    2.1742    0.2165 H   0  0  0  0  0  0  0  0  0  0  0  0
  -10.0118    1.6387   -1.4267 H   0  0  0  0  0  0  0  0  0  0  0  0
   -7.0532   -2.8649   -3.4372 H   0  0  0  0  0  0  0  0  0  0  0  0
   -7.3944   -1.2209   -2.9257 H   0  0  0  0  0  0  0  0  0  0  0  0
   -8.3296   -4.8014   -2.3157 H   0  0  0  0  0  0  0  0  0  0  0  0
  -10.0671   -5.0621   -0.4990 H   0  0  0  0  0  0  0  0  0  0  0  0
   -8.0570   -0.1841   -0.4054 H   0  0  0  0  0  0  0  0  0  0  0  0
   -9.5095    0.4051    1.5469 H   0  0  0  0  0  0  0  0  0  0  0  0
  -11.0596   -1.2132    2.4896 H   0  0  0  0  0  0  0  0  0  0  0  0
  -11.1671   -3.4377    1.5265 H   0  0  0  0  0  0  0  0  0  0  0  0
   -2.2514   -6.7410    0.7070 H   0  0  0  0  0  0  0  0  0  0  0  0
   -2.3194   -7.5649   -0.9307 H   0  0  0  0  0  0  0  0  0  0  0  0
   10.0034   -0.2715   -0.9985 H   0  0  0  0  0  0  0  0  0  0  0  0
    9.2576    2.1183   -0.4390 H   0  0  0  0  0  0  0  0  0  0  0  0
   10.6591    1.6635    0.6111 H   0  0  0  0  0  0  0  0  0  0  0  0
    9.1867    2.3875    1.4039 H   0  0  0  0  0  0  0  0  0  0  0  0
  1  2  1  0
  2  3  1  0
  3  4  1  0
  4  5  1  0
  5  6  1  0
  6  7  2  0
  6  8  1  0
  8  9  1  0
  9 10  1  0
 10 11  1  0
 11 12  2  0
 11 13  1  0
 13 14  1  0
 14 15  1  0
 15 16  1  0
 16 17  1  0
 17 18  1  0
 18 19  1  0
 19 20  1  0
 20 21  2  0
 20 22  1  0
 22 23  1  0
 23 24  1  0
 24 25  2  0
 24 26  1  0
 26 27  1  0
 27 28  1  0
 28 29  2  0
 28 30  1  0
 30 31  1  0
 31 32  1  0
 32 33  2  0
 32 34  1  0
 34 35  1  0
 35 36  1  0
 36 37  2  0
 34 38  1  0
 38 39  1  0
 39 40  1  0
 40 41  1  0
 41 42  2  0
 42 43  1  0
 30 44  1  0
 44 45  1  0
 45 46  2  0
 46 47  1  0
 47 48  2  0
 48 49  1  0
 49 50  2  0
 48 51  1  0
 26 52  1  0
 52 53  1  0
 53 54  1  0
 54 55  1  0
 55 56  2  3
 56 57  1  0
 56 58  1  0
 22 59  1  0
 59 60  1  0
 60 61  2  0
 61 62  1  0
 62 63  1  0
 63 64  2  0
 64 65  1  0
 65 66  2  0
 66 67  1  0
 67 68  2  0
 18 69  1  0
 69 70  2  0
 69 71  1  0
  5 72  1  0
 72 73  1  0
 73 74  2  0
 73 75  1  0
 36  9  1  0
 43 39  2  0
 50 45  1  0
 64 60  1  0
 68 63  1  0
  1 76  1  0
  1 77  1  0
  1 78  1  0
  2 79  1  0
  2 80  1  0
  3 81  1  0
  3 82  1  0
  4 83  1  0
  4 84  1  0
  5 85  1  6
  8 86  1  0
  9 87  1  6
 10 88  1  0
 10 89  1  0
 13 90  1  0
 14 91  1  0
 14 92  1  0
 15 93  1  0
 15 94  1  0
 16 95  1  0
 16 96  1  0
 17 97  1  0
 17 98  1  0
 18 99  1  1
 19100  1  0
 22101  1  6
 23102  1  0
 26103  1  1
 27104  1  0
 30105  1  6
 31106  1  0
 34107  1  1
 35108  1  0
 38109  1  0
 38110  1  0
 40111  1  0
 41112  1  0
 43113  1  0
 44114  1  0
 44115  1  0
 46116  1  0
 47117  1  0
 49118  1  0
 50119  1  0
 52120  1  0
 52121  1  0
 53122  1  0
 53123  1  0
 54124  1  0
 54125  1  0
 57126  1  0
 57127  1  0
 58128  1  0
 58129  1  0
 59130  1  0
 59131  1  0
 61132  1  0
 62133  1  0
 65134  1  0
 66135  1  0
 67136  1  0
 68137  1  0
 71138  1  0
 71139  1  0
 72140  1  0
 75141  1  0
 75142  1  0
 75143  1  0
M  END
>  <Ligand ID>  (1) 
LIG0000971

>  <Ligand>  (1) 
CHEMBL428801

>  <SMILES>  (1) 
CCCC[C@@H](C(=O)N[C@H]1CC(=O)NCCCC[C@@H](NC(=O)[C@H](NC(=O)[C@@H](NC(=O)[C@H](NC(=O)[C@@H](NC1=O)Cc1[nH]cnc1)Cc1ccc(cc1)I)CCCN=C(N)N)Cc1c[nH]c2c1cccc2)C(=O)N)NC(=O)C

>  <CID>  (1) 
44343362.0

>  <ChEMBL ID>  (1) 
nan

>  <InChiKey>  (1) 
NVIBFTUPAARCBA-MYGWSCCLSA-N

>  <InChi>  (1) 
InChI=1S/C50H68IN15O9/c1-3-4-11-36(60-28(2)67)44(70)66-41-24-42(68)56-19-8-7-13-35(43(52)69)61-47(73)39(22-30-25-58-34-12-6-5-10-33(30)34)64-45(71)37(14-9-20-57-50(53)54)62-46(72)38(21-29-15-17-31(51)18-16-29)63-48(74)40(65-49(41)75)23-32-26-55-27-59-32/h5-6,10,12,15-18,25-27,35-41,58H,3-4,7-9,11,13-14,19-24H2,1-2H3,(H2,52,69)(H,55,59)(H,56,68)(H,60,67)(H,61,73)(H,62,72)(H,63,74)(H,64,71)(H,65,75)(H,66,70)(H4,53,54,57)/t35-,36+,37+,38-,39-,40+,41+/m1/s1

>  <IUPAC Name>  (1) 
(3R,6S,9R,12S,15S,23R)-15-[[(2S)-2-acetamidohexanoyl]amino]-6-[3-(diaminomethylideneamino)propyl]-12-(1H-imidazol-5-ylmethyl)-3-(1H-indol-3-ylmethyl)-9-[(4-iodophenyl)methyl]-2,5,8,11,14,17-hexaoxo-1,4,7,10,13,18-hexazacyclotricosane-23-carboxamide

$$$$
