
     RDKit          3D

 44 47  0  0  0  0  0  0  0  0999 V2000
    6.5069   -2.3056   -1.8154 F   0  0  0  0  0  0  0  0  0  0  0  0
    5.5321   -2.4066   -0.8510 C   0  0  0  0  0  0  0  0  0  0  0  0
    4.6127   -1.2292   -0.9319 C   0  0  0  0  0  0  0  0  0  0  0  0
    3.2570   -1.4401   -1.0797 C   0  0  0  0  0  0  0  0  0  0  0  0
    2.4154   -0.3316   -1.1528 C   0  0  0  0  0  0  0  0  0  0  0  0
    3.0006    0.9143   -1.0715 C   0  0  0  0  0  0  0  0  0  0  0  0
    4.3530    1.1128   -0.9242 C   0  0  0  0  0  0  0  0  0  0  0  0
    5.1897    0.0150   -0.8515 C   0  0  0  0  0  0  0  0  0  0  0  0
    2.0370    2.0776   -1.1533 C   0  0  0  0  0  0  0  0  0  0  0  0
    1.5059    2.4619    0.5410 S   0  0  0  0  0  0  0  0  0  0  0  0
    0.5351    1.1317    1.2207 C   0  0  0  0  0  0  0  0  0  0  0  0
    1.0886    0.0790    1.8532 N   0  0  0  0  0  0  0  0  0  0  0  0
    0.0870   -0.7104    2.2542 N   0  0  0  0  0  0  0  0  0  0  0  0
   -1.0814   -0.1234    1.8570 C   0  0  0  0  0  0  0  0  0  0  0  0
   -0.8035    1.0310    1.2097 N   0  0  0  0  0  0  0  0  0  0  0  0
   -1.8209    1.8990    0.6906 C   0  0  0  0  0  0  0  0  0  0  0  0
   -2.2592    1.6441   -0.6421 C   0  0  0  0  0  0  0  0  0  0  0  0
   -3.1874    0.7652   -1.2062 C   0  0  0  0  0  0  0  0  0  0  0  0
   -3.3866    0.7844   -2.5087 C   0  0  0  0  0  0  0  0  0  0  0  0
   -2.6732    1.6732   -3.2892 C   0  0  0  0  0  0  0  0  0  0  0  0
   -1.6191    2.5842   -2.1524 S   0  0  0  0  0  0  0  0  0  0  0  0
   -2.3686   -0.7406    2.1460 C   0  0  0  0  0  0  0  0  0  0  0  0
   -2.7989   -1.8421    1.4452 C   0  0  0  0  0  0  0  0  0  0  0  0
   -4.0346   -2.4436    1.7205 C   0  0  0  0  0  0  0  0  0  0  0  0
   -4.7778   -1.8464    2.7423 C   0  0  0  0  0  0  0  0  0  0  0  0
   -4.3236   -0.7418    3.4301 C   0  0  0  0  0  0  0  0  0  0  0  0
   -3.1189   -0.1815    3.1385 N   0  0  0  0  0  0  0  0  0  0  0  0
    6.1677   -2.4515    0.3801 F   0  0  0  0  0  0  0  0  0  0  0  0
    4.8182   -3.5638   -1.0289 F   0  0  0  0  0  0  0  0  0  0  0  0
    2.8587   -2.4471   -1.1375 H   0  0  0  0  0  0  0  0  0  0  0  0
    1.3304   -0.4651   -1.2708 H   0  0  0  0  0  0  0  0  0  0  0  0
    4.7604    2.0984   -0.8653 H   0  0  0  0  0  0  0  0  0  0  0  0
    6.2524    0.1839   -0.7357 H   0  0  0  0  0  0  0  0  0  0  0  0
    1.2081    1.8259   -1.8305 H   0  0  0  0  0  0  0  0  0  0  0  0
    2.6417    2.9450   -1.4933 H   0  0  0  0  0  0  0  0  0  0  0  0
   -1.4132    2.9487    0.8187 H   0  0  0  0  0  0  0  0  0  0  0  0
   -2.7205    1.8802    1.3758 H   0  0  0  0  0  0  0  0  0  0  0  0
   -3.7213    0.0819   -0.5063 H   0  0  0  0  0  0  0  0  0  0  0  0
   -4.1113    0.1113   -3.0239 H   0  0  0  0  0  0  0  0  0  0  0  0
   -2.7038    1.8325   -4.3801 H   0  0  0  0  0  0  0  0  0  0  0  0
   -2.2029   -2.2882    0.6564 H   0  0  0  0  0  0  0  0  0  0  0  0
   -4.3912   -3.3048    1.1853 H   0  0  0  0  0  0  0  0  0  0  0  0
   -5.7503   -2.2642    3.0078 H   0  0  0  0  0  0  0  0  0  0  0  0
   -4.8902   -0.2641    4.2289 H   0  0  0  0  0  0  0  0  0  0  0  0
  1  2  1  0
  2  3  1  0
  3  4  2  0
  4  5  1  0
  5  6  2  0
  6  7  1  0
  7  8  2  0
  6  9  1  0
  9 10  1  0
 10 11  1  0
 11 12  2  0
 12 13  1  0
 13 14  2  0
 14 15  1  0
 15 16  1  0
 16 17  1  0
 17 18  2  0
 18 19  1  0
 19 20  2  0
 20 21  1  0
 14 22  1  0
 22 23  2  0
 23 24  1  0
 24 25  2  0
 25 26  1  0
 26 27  2  0
  2 28  1  0
  2 29  1  0
  8  3  1  0
 15 11  1  0
 21 17  1  0
 27 22  1  0
  4 30  1  0
  5 31  1  0
  7 32  1  0
  8 33  1  0
  9 34  1  0
  9 35  1  0
 16 36  1  0
 16 37  1  0
 18 38  1  0
 19 39  1  0
 20 40  1  0
 23 41  1  0
 24 42  1  0
 25 43  1  0
 26 44  1  0
M  END
>  <Ligand ID>  (1) 
LIG0002780

>  <Ligand>  (1) 
KUC104194N

>  <SMILES>  (1) 
FC(c1ccc(cc1)CSc1nnc(n1Cc1cccs1)c1ccccn1)(F)F

>  <CID>  (1) 
44620933.0

>  <ChEMBL ID>  (1) 
nan

>  <InChiKey>  (1) 
MNHYKLARNCUUNN-UHFFFAOYSA-N

>  <InChi>  (1) 
InChI=1S/C20H15F3N4S2/c21-20(22,23)15-8-6-14(7-9-15)13-29-19-26-25-18(17-5-1-2-10-24-17)27(19)12-16-4-3-11-28-16/h1-11H,12-13H2

>  <IUPAC Name>  (1) 
2-[4-(thiophen-2-ylmethyl)-5-[[4-(trifluoromethyl)phenyl]methylsulfanyl]-1,2,4-triazol-3-yl]pyridine

$$$$
