
     RDKit          3D

 15 15  0  0  0  0  0  0  0  0999 V2000
    2.9098   -0.5171    0.2495 O   0  0  0  0  0  0  0  0  0  0  0  0
    1.9891    0.4395   -0.1418 C   0  0  0  0  0  0  0  0  0  0  0  0
    2.4374    1.5412   -0.5447 O   0  0  0  0  0  0  0  0  0  0  0  0
    0.5585    0.1820   -0.0894 C   0  0  0  0  0  0  0  0  0  0  0  0
   -0.3246    1.1603   -0.4876 C   0  0  0  0  0  0  0  0  0  0  0  0
   -1.6782    0.9028   -0.4329 C   0  0  0  0  0  0  0  0  0  0  0  0
   -2.1354   -0.3304    0.0195 C   0  0  0  0  0  0  0  0  0  0  0  0
   -1.2407   -1.3101    0.4186 C   0  0  0  0  0  0  0  0  0  0  0  0
    0.1045   -1.0407    0.3591 C   0  0  0  0  0  0  0  0  0  0  0  0
    3.7757   -0.2604    0.7520 H   0  0  0  0  0  0  0  0  0  0  0  0
    0.0682    2.1071   -0.8337 H   0  0  0  0  0  0  0  0  0  0  0  0
   -2.3998    1.6645   -0.7440 H   0  0  0  0  0  0  0  0  0  0  0  0
   -3.1940   -0.4774    0.0417 H   0  0  0  0  0  0  0  0  0  0  0  0
   -1.6497   -2.2399    0.7577 H   0  0  0  0  0  0  0  0  0  0  0  0
    0.7793   -1.8215    0.6760 H   0  0  0  0  0  0  0  0  0  0  0  0
  1  2  1  0
  2  3  2  0
  2  4  1  0
  4  5  2  0
  5  6  1  0
  6  7  2  0
  7  8  1  0
  8  9  2  0
  9  4  1  0
  1 10  1  0
  5 11  1  0
  6 12  1  0
  7 13  1  0
  8 14  1  0
  9 15  1  0
M  END
>  <Ligand ID>  (1) 
LIG0000388

>  <Ligand>  (1) 
benzoic acid

>  <SMILES>  (1) 
OC(=O)c1ccccc1

>  <CID>  (1) 
243.0

>  <ChEMBL ID>  (1) 
nan

>  <InChiKey>  (1) 
WPYMKLBDIGXBTP-UHFFFAOYSA-N

>  <InChi>  (1) 
InChI=1S/C7H6O2/c8-7(9)6-4-2-1-3-5-6/h1-5H,(H,8,9)

>  <IUPAC Name>  (1) 
benzoic acid

$$$$
