
     RDKit          3D

 33 34  0  0  0  0  0  0  0  0999 V2000
   -1.9202    3.3452   -1.1930 C   0  0  0  0  0  0  0  0  0  0  0  0
   -2.5474    2.4610    0.2467 S   0  0  0  0  0  0  0  0  0  0  0  0
   -2.2037    0.7115    0.1862 C   0  0  0  0  0  0  0  0  0  0  0  0
   -3.1189   -0.1313   -0.4054 C   0  0  0  0  0  0  0  0  0  0  0  0
   -2.8986   -1.4849   -0.4759 C   0  0  0  0  0  0  0  0  0  0  0  0
   -1.7464   -1.9792    0.0564 C   0  0  0  0  0  0  0  0  0  0  0  0
   -0.8315   -1.1333    0.6484 C   0  0  0  0  0  0  0  0  0  0  0  0
   -1.0076    0.2321    0.7432 C   0  0  0  0  0  0  0  0  0  0  0  0
   -0.0838    1.1089    1.3540 N   0  0  0  0  0  0  0  0  0  0  0  0
    1.1602    0.7618    1.9450 C   0  0  0  0  0  0  0  0  0  0  0  0
    2.0666    0.2317    0.8832 C   0  0  0  0  0  0  0  0  0  0  0  0
    2.7022   -0.8820    0.8203 N   0  0  0  0  0  0  0  0  0  0  0  0
    3.4814   -1.0156   -0.3890 C   0  0  0  0  0  0  0  0  0  0  0  0
    3.5431    0.4031   -0.8970 C   0  0  0  0  0  0  0  0  0  0  0  0
    2.3634    0.9932   -0.2926 N   0  0  0  0  0  0  0  0  0  0  0  0
   -1.4845   -3.4532   -0.0090 C   0  0  0  0  0  0  0  0  0  0  0  0
   -0.8386    3.6063   -1.0234 H   0  0  0  0  0  0  0  0  0  0  0  0
   -2.4757    4.2982   -1.3084 H   0  0  0  0  0  0  0  0  0  0  0  0
   -1.9583    2.7452   -2.1175 H   0  0  0  0  0  0  0  0  0  0  0  0
   -4.0208    0.3057   -0.8151 H   0  0  0  0  0  0  0  0  0  0  0  0
   -3.6476   -2.1012   -0.9502 H   0  0  0  0  0  0  0  0  0  0  0  0
    0.0551   -1.5928    1.0537 H   0  0  0  0  0  0  0  0  0  0  0  0
   -0.3727    2.1379    1.3602 H   0  0  0  0  0  0  0  0  0  0  0  0
    1.6294    1.6745    2.3662 H   0  0  0  0  0  0  0  0  0  0  0  0
    1.0743    0.0470    2.7930 H   0  0  0  0  0  0  0  0  0  0  0  0
    2.9612   -1.7046   -1.0842 H   0  0  0  0  0  0  0  0  0  0  0  0
    4.5075   -1.3894   -0.1766 H   0  0  0  0  0  0  0  0  0  0  0  0
    3.5103    0.4510   -2.0034 H   0  0  0  0  0  0  0  0  0  0  0  0
    4.4058    0.9343   -0.4680 H   0  0  0  0  0  0  0  0  0  0  0  0
    1.8672    1.8039   -0.6710 H   0  0  0  0  0  0  0  0  0  0  0  0
   -0.4243   -3.6521    0.3126 H   0  0  0  0  0  0  0  0  0  0  0  0
   -1.5433   -3.7269   -1.0878 H   0  0  0  0  0  0  0  0  0  0  0  0
   -2.2036   -4.0057    0.5984 H   0  0  0  0  0  0  0  0  0  0  0  0
  1  2  1  0
  2  3  1  0
  3  4  2  0
  4  5  1  0
  5  6  2  0
  6  7  1  0
  7  8  2  0
  8  9  1  0
  9 10  1  0
 10 11  1  0
 11 12  2  0
 12 13  1  0
 13 14  1  0
 14 15  1  0
  6 16  1  0
  8  3  1  0
 15 11  1  0
  1 17  1  0
  1 18  1  0
  1 19  1  0
  4 20  1  0
  5 21  1  0
  7 22  1  0
  9 23  1  0
 10 24  1  0
 10 25  1  0
 13 26  1  0
 13 27  1  0
 14 28  1  0
 14 29  1  0
 15 30  1  0
 16 31  1  0
 16 32  1  0
 16 33  1  0
M  END
>  <Ligand ID>  (1) 
LIG0000953

>  <Ligand>  (1) 
CHEMBL72441

>  <SMILES>  (1) 
CSc1ccc(cc1NCC1=NCCN1)C

>  <CID>  (1) 
10934575.0

>  <ChEMBL ID>  (1) 
nan

>  <InChiKey>  (1) 
ZVVQFUFKMNLNCB-UHFFFAOYSA-N

>  <InChi>  (1) 
InChI=1S/C12H17N3S/c1-9-3-4-11(16-2)10(7-9)15-8-12-13-5-6-14-12/h3-4,7,15H,5-6,8H2,1-2H3,(H,13,14)

>  <IUPAC Name>  (1) 
N-(4,5-dihydro-1H-imidazol-2-ylmethyl)-5-methyl-2-methylsulfanylaniline

$$$$
