
     RDKit          3D

 41 41  0  0  0  0  0  0  0  0999 V2000
    5.7515   -1.6750    0.5928 O   0  0  0  0  0  0  0  0  0  0  0  0
    6.3030   -0.4286    0.7554 C   0  0  0  0  0  0  0  0  0  0  0  0
    7.3477   -0.3559    1.4792 O   0  0  0  0  0  0  0  0  0  0  0  0
    5.7985    0.8215    0.1710 C   0  0  0  0  0  0  0  0  0  0  0  0
    4.6296    0.6251   -0.5762 O   0  0  0  0  0  0  0  0  0  0  0  0
    3.4354    0.1452   -0.0998 C   0  0  0  0  0  0  0  0  0  0  0  0
    2.3958    0.0192   -1.0236 C   0  0  0  0  0  0  0  0  0  0  0  0
    1.1831   -0.4602   -0.5729 C   0  0  0  0  0  0  0  0  0  0  0  0
    0.9445   -0.8194    0.7343 C   0  0  0  0  0  0  0  0  0  0  0  0
    1.9692   -0.6946    1.6426 C   0  0  0  0  0  0  0  0  0  0  0  0
    3.1931   -0.2148    1.2067 C   0  0  0  0  0  0  0  0  0  0  0  0
   -0.3510   -1.3341    1.2319 C   0  0  0  0  0  0  0  0  0  0  0  0
   -1.6941   -1.1432    0.0308 P   0  0  0  0  0  0  0  0  0  0  0  0
   -2.9575   -1.6353    0.7013 O   0  0  0  0  0  0  0  0  0  0  0  0
   -1.8654    0.5765   -0.4085 C   0  0  0  0  0  0  0  0  0  0  0  0
   -3.2208    1.1715   -0.1177 C   0  0  0  0  0  0  0  0  0  0  0  0
   -4.3609    0.5230   -0.8202 C   0  0  1  0  0  0  0  0  0  0  0  0
   -5.6301    1.2128   -0.4383 C   0  0  0  0  0  0  0  0  0  0  0  0
   -5.9621    1.2248    0.7740 O   0  0  0  0  0  0  0  0  0  0  0  0
   -6.4538    1.8380   -1.3633 O   0  0  0  0  0  0  0  0  0  0  0  0
   -4.2415    0.6736   -2.2793 N   0  0  0  0  0  0  0  0  0  0  0  0
   -1.3061   -2.1404   -1.3041 O   0  0  0  0  0  0  0  0  0  0  0  0
   -0.6974   -0.7175    2.4540 O   0  0  0  0  0  0  0  0  0  0  0  0
    6.3286   -2.5032    0.4453 H   0  0  0  0  0  0  0  0  0  0  0  0
    5.5841    1.5503    1.0065 H   0  0  0  0  0  0  0  0  0  0  0  0
    6.5844    1.3399   -0.4290 H   0  0  0  0  0  0  0  0  0  0  0  0
    2.5437    0.2919   -2.0637 H   0  0  0  0  0  0  0  0  0  0  0  0
    0.3936   -0.5502   -1.3034 H   0  0  0  0  0  0  0  0  0  0  0  0
    1.8409   -0.9629    2.6912 H   0  0  0  0  0  0  0  0  0  0  0  0
    3.9768   -0.1222    1.9431 H   0  0  0  0  0  0  0  0  0  0  0  0
   -0.2042   -2.4154    1.5012 H   0  0  0  0  0  0  0  0  0  0  0  0
   -1.1381    1.1838    0.1661 H   0  0  0  0  0  0  0  0  0  0  0  0
   -1.5950    0.7642   -1.4805 H   0  0  0  0  0  0  0  0  0  0  0  0
   -3.4208    1.2372    0.9692 H   0  0  0  0  0  0  0  0  0  0  0  0
   -3.1697    2.2229   -0.4848 H   0  0  0  0  0  0  0  0  0  0  0  0
   -4.5092   -0.5408   -0.6494 H   0  0  0  0  0  0  0  0  0  0  0  0
   -7.4625    1.9268   -1.2164 H   0  0  0  0  0  0  0  0  0  0  0  0
   -3.3663    0.2203   -2.5887 H   0  0  0  0  0  0  0  0  0  0  0  0
   -5.0211    0.0964   -2.6880 H   0  0  0  0  0  0  0  0  0  0  0  0
   -0.8786   -2.9721   -0.9457 H   0  0  0  0  0  0  0  0  0  0  0  0
   -0.6971    0.2680    2.3567 H   0  0  0  0  0  0  0  0  0  0  0  0
  1  2  1  0
  2  3  2  0
  2  4  1  0
  4  5  1  0
  5  6  1  0
  6  7  2  0
  7  8  1  0
  8  9  2  0
  9 10  1  0
 10 11  2  0
  9 12  1  0
 12 13  1  0
 13 14  2  0
 13 15  1  0
 15 16  1  0
 16 17  1  0
 17 18  1  0
 18 19  2  0
 18 20  1  0
 17 21  1  0
 13 22  1  0
 12 23  1  0
 11  6  1  0
  1 24  1  0
  4 25  1  0
  4 26  1  0
  7 27  1  0
  8 28  1  0
 10 29  1  0
 11 30  1  0
 12 31  1  0
 15 32  1  0
 15 33  1  0
 16 34  1  0
 16 35  1  0
 17 36  1  6
 20 37  1  0
 21 38  1  0
 21 39  1  0
 22 40  1  0
 23 41  1  0
M  END
>  <Ligand ID>  (1) 
LIG0000585

>  <Ligand>  (1) 
LSP4-2022

>  <SMILES>  (1) 
OC(=O)COc1ccc(cc1)C(P(=O)(CC[C@@H](C(=O)O)N)O)O

>  <CID>  (1) 
71041983.0

>  <ChEMBL ID>  (1) 
nan

>  <InChiKey>  (1) 
BGOFVWMHMQISHB-NKUHCKNESA-N

>  <InChi>  (1) 
InChI=1S/C13H18NO8P/c14-10(12(17)18)5-6-23(20,21)13(19)8-1-3-9(4-2-8)22-7-11(15)16/h1-4,10,13,19H,5-7,14H2,(H,15,16)(H,17,18)(H,20,21)/t10-,13?/m0/s1

>  <IUPAC Name>  (1) 
(2S)-2-amino-4-[[[4-(carboxymethoxy)phenyl]-hydroxymethyl]-hydroxyphosphoryl]butanoic acid

$$$$
