
     RDKit          3D

 29 29  0  0  0  0  0  0  0  0999 V2000
   -3.0736   -1.1046   -0.0358 C   0  0  0  0  0  0  0  0  0  0  0  0
   -2.2111    0.1005    0.1869 C   0  0  0  0  0  0  0  0  0  0  0  0
   -2.6200    1.1033    0.9501 C   0  0  0  0  0  0  0  0  0  0  0  0
   -0.8868    0.1021   -0.4913 C   0  0  2  0  0  0  0  0  0  0  0  0
   -0.1114   -1.1432   -0.1319 C   0  0  0  0  0  0  0  0  0  0  0  0
    0.9205   -0.7759    0.9278 C   0  0  0  0  0  0  0  0  0  0  0  0
    1.9683    0.0573    0.2606 C   0  0  2  0  0  0  0  0  0  0  0  0
    1.3257    1.0430   -0.6801 C   0  0  1  0  0  0  0  0  0  0  0  0
   -0.1009    1.3505   -0.2052 C   0  0  0  0  0  0  0  0  0  0  0  0
    2.1136    2.1750   -0.7416 O   0  0  0  0  0  0  0  0  0  0  0  0
    2.9129   -0.8556   -0.5119 C   0  0  0  0  0  0  0  0  0  0  0  0
   -2.8003   -1.6191   -0.9843 H   0  0  0  0  0  0  0  0  0  0  0  0
   -4.1397   -0.7903   -0.0331 H   0  0  0  0  0  0  0  0  0  0  0  0
   -2.9157   -1.8120    0.8074 H   0  0  0  0  0  0  0  0  0  0  0  0
   -2.0438    1.9978    1.1482 H   0  0  0  0  0  0  0  0  0  0  0  0
   -3.5901    1.0396    1.4125 H   0  0  0  0  0  0  0  0  0  0  0  0
   -1.1149    0.1160   -1.5911 H   0  0  0  0  0  0  0  0  0  0  0  0
   -0.7444   -1.9627    0.2380 H   0  0  0  0  0  0  0  0  0  0  0  0
    0.4655   -1.5147   -1.0016 H   0  0  0  0  0  0  0  0  0  0  0  0
    0.3912   -0.1965    1.7080 H   0  0  0  0  0  0  0  0  0  0  0  0
    1.3529   -1.6670    1.4019 H   0  0  0  0  0  0  0  0  0  0  0  0
    2.5450    0.5862    1.0455 H   0  0  0  0  0  0  0  0  0  0  0  0
    1.2451    0.6085   -1.6972 H   0  0  0  0  0  0  0  0  0  0  0  0
   -0.4667    2.1564   -0.8423 H   0  0  0  0  0  0  0  0  0  0  0  0
   -0.0583    1.6195    0.8741 H   0  0  0  0  0  0  0  0  0  0  0  0
    2.1801    2.6176    0.1345 H   0  0  0  0  0  0  0  0  0  0  0  0
    3.9401   -0.7975   -0.1077 H   0  0  0  0  0  0  0  0  0  0  0  0
    2.9736   -0.5318   -1.5683 H   0  0  0  0  0  0  0  0  0  0  0  0
    2.5434   -1.9026   -0.4719 H   0  0  0  0  0  0  0  0  0  0  0  0
  1  2  1  0
  2  3  2  0
  2  4  1  0
  4  5  1  0
  5  6  1  0
  6  7  1  0
  7  8  1  0
  8  9  1  0
  8 10  1  0
  7 11  1  0
  9  4  1  0
  1 12  1  0
  1 13  1  0
  1 14  1  0
  3 15  1  0
  3 16  1  0
  4 17  1  6
  5 18  1  0
  5 19  1  0
  6 20  1  0
  6 21  1  0
  7 22  1  1
  8 23  1  6
  9 24  1  0
  9 25  1  0
 10 26  1  0
 11 27  1  0
 11 28  1  0
 11 29  1  0
M  END
>  <Ligand ID>  (1) 
LIG0000166

>  <Ligand>  (1) 
Cyclohexanol, 2-methyl-5-(1-methylethenyl)-, (1R,2R,5R)-rel-

>  <SMILES>  (1) 
CC(=C)[C@@H]1CC[C@H]([C@@H](C1)O)C

>  <CID>  (1) 
443163.0

>  <ChEMBL ID>  (1) 
nan

>  <InChiKey>  (1) 
KRCZYMFUWVJCLI-OPRDCNLKSA-N

>  <InChi>  (1) 
InChI=1S/C10H18O/c1-7(2)9-5-4-8(3)10(11)6-9/h8-11H,1,4-6H2,2-3H3/t8-,9-,10-/m1/s1

>  <IUPAC Name>  (1) 
(1R,2R,5R)-2-methyl-5-prop-1-en-2-ylcyclohexan-1-ol

$$$$
