
     RDKit          3D

 50 52  0  0  0  0  0  0  0  0999 V2000
   -4.2553   -5.0080    0.6199 Cl  0  0  0  0  0  0  0  0  0  0  0  0
   -2.8889   -3.9913    0.2137 C   0  0  0  0  0  0  0  0  0  0  0  0
   -1.8950   -4.3876   -0.6646 C   0  0  0  0  0  0  0  0  0  0  0  0
   -0.8173   -3.6071   -0.9987 C   0  0  0  0  0  0  0  0  0  0  0  0
   -0.7626   -2.3482   -0.3931 C   0  0  0  0  0  0  0  0  0  0  0  0
   -1.7727   -1.9485    0.4971 C   0  0  0  0  0  0  0  0  0  0  0  0
   -2.8344   -2.7525    0.8094 C   0  0  0  0  0  0  0  0  0  0  0  0
   -1.8449   -0.6924    1.1540 N   0  0  0  0  0  0  0  0  0  0  0  0
   -3.1293   -0.1097    1.3883 C   0  0  0  0  0  0  0  0  0  0  0  0
   -3.5619    0.6332    0.1390 C   0  0  0  0  0  0  0  0  0  0  0  0
   -4.2713   -0.0021   -0.8591 C   0  0  0  0  0  0  0  0  0  0  0  0
   -4.6622    0.6715   -1.9869 C   0  0  0  0  0  0  0  0  0  0  0  0
   -4.3605    1.9954   -2.1574 C   0  0  0  0  0  0  0  0  0  0  0  0
   -3.6536    2.6577   -1.1794 C   0  0  0  0  0  0  0  0  0  0  0  0
   -3.2669    1.9661   -0.0492 C   0  0  0  0  0  0  0  0  0  0  0  0
   -0.7027    0.0773    1.5951 C   0  0  0  0  0  0  0  0  0  0  0  0
   -0.9200    1.0958    2.2949 O   0  0  0  0  0  0  0  0  0  0  0  0
    0.7675   -0.1783    1.3263 C   0  0  0  0  0  0  0  0  0  0  0  0
    0.8890   -0.4137   -0.1241 N   0  0  0  0  0  0  0  0  0  0  0  0
    0.4395   -1.5908   -0.8167 C   0  0  0  0  0  0  0  0  0  0  0  0
    1.0729   -1.9947   -1.8057 O   0  0  0  0  0  0  0  0  0  0  0  0
    1.5936    0.9815    1.7054 C   0  0  0  0  0  0  0  0  0  0  0  0
    3.0572    0.8914    1.5768 C   0  0  0  0  0  0  0  0  0  0  0  0
    3.6134    0.6048    0.2167 C   0  0  0  0  0  0  0  0  0  0  0  0
    5.0871    0.5895    0.2950 N   0  0  0  0  0  0  0  0  0  0  0  0
    5.8002    1.6039   -0.0502 C   0  0  0  0  0  0  0  0  0  0  0  0
    5.1596    2.7984   -0.5295 N   0  0  0  0  0  0  0  0  0  0  0  0
    7.2043    1.4826    0.0645 N   0  0  0  0  0  0  0  0  0  0  0  0
   -1.9532   -5.3646   -1.1243 H   0  0  0  0  0  0  0  0  0  0  0  0
   -0.0311   -3.8739   -1.6698 H   0  0  0  0  0  0  0  0  0  0  0  0
   -3.5584   -2.4133    1.4875 H   0  0  0  0  0  0  0  0  0  0  0  0
   -3.9191   -0.7790    1.6056 H   0  0  0  0  0  0  0  0  0  0  0  0
   -3.0552    0.7452    2.1279 H   0  0  0  0  0  0  0  0  0  0  0  0
   -4.5407   -1.0466   -0.7827 H   0  0  0  0  0  0  0  0  0  0  0  0
   -5.2257    0.1898   -2.7927 H   0  0  0  0  0  0  0  0  0  0  0  0
   -4.6455    2.5792   -3.0323 H   0  0  0  0  0  0  0  0  0  0  0  0
   -3.3916    3.7184   -1.2772 H   0  0  0  0  0  0  0  0  0  0  0  0
   -2.7067    2.4319    0.7671 H   0  0  0  0  0  0  0  0  0  0  0  0
    1.0653   -1.0673    1.8958 H   0  0  0  0  0  0  0  0  0  0  0  0
    1.3154    0.3221   -0.7198 H   0  0  0  0  0  0  0  0  0  0  0  0
    1.2334    1.8591    1.0858 H   0  0  0  0  0  0  0  0  0  0  0  0
    1.3791    1.2309    2.7956 H   0  0  0  0  0  0  0  0  0  0  0  0
    3.4728    0.1917    2.3518 H   0  0  0  0  0  0  0  0  0  0  0  0
    3.4624    1.9259    1.8364 H   0  0  0  0  0  0  0  0  0  0  0  0
    3.3809    1.4189   -0.4679 H   0  0  0  0  0  0  0  0  0  0  0  0
    3.3716   -0.4207   -0.1336 H   0  0  0  0  0  0  0  0  0  0  0  0
    4.7743    2.8066   -1.5123 H   0  0  0  0  0  0  0  0  0  0  0  0
    5.0581    3.6464    0.0385 H   0  0  0  0  0  0  0  0  0  0  0  0
    7.7663    2.3391    0.2644 H   0  0  0  0  0  0  0  0  0  0  0  0
    7.6626    0.5361   -0.0525 H   0  0  0  0  0  0  0  0  0  0  0  0
  1  2  1  0
  2  3  2  0
  3  4  1  0
  4  5  2  0
  5  6  1  0
  6  7  2  0
  6  8  1  0
  8  9  1  0
  9 10  1  0
 10 11  2  0
 11 12  1  0
 12 13  2  0
 13 14  1  0
 14 15  2  0
  8 16  1  0
 16 17  2  0
 16 18  1  0
 18 19  1  0
 19 20  1  0
 20 21  2  0
 18 22  1  0
 22 23  1  0
 23 24  1  0
 24 25  1  0
 25 26  2  3
 26 27  1  0
 26 28  1  0
  7  2  1  0
 15 10  1  0
 20  5  1  0
  3 29  1  0
  4 30  1  0
  7 31  1  0
  9 32  1  0
  9 33  1  0
 11 34  1  0
 12 35  1  0
 13 36  1  0
 14 37  1  0
 15 38  1  0
 18 39  1  0
 19 40  1  0
 22 41  1  0
 22 42  1  0
 23 43  1  0
 23 44  1  0
 24 45  1  0
 24 46  1  0
 27 47  1  0
 27 48  1  0
 28 49  1  0
 28 50  1  0
M  END
>  <Ligand ID>  (1) 
LIG0002690

>  <Ligand>  (1) 
CHEMBL272439

>  <SMILES>  (1) 
Clc1ccc2c(c1)N(Cc1ccccc1)C(=O)C(NC2=O)CCCN=C(N)N

>  <CID>  (1) 
44457021.0

>  <ChEMBL ID>  (1) 
nan

>  <InChiKey>  (1) 
CWVXKDNUHVPLLR-UHFFFAOYSA-N

>  <InChi>  (1) 
InChI=1S/C20H22ClN5O2/c21-14-8-9-15-17(11-14)26(12-13-5-2-1-3-6-13)19(28)16(25-18(15)27)7-4-10-24-20(22)23/h1-3,5-6,8-9,11,16H,4,7,10,12H2,(H,25,27)(H4,22,23,24)

>  <IUPAC Name>  (1) 
2-[3-(1-benzyl-8-chloro-2,5-dioxo-3,4-dihydro-1,4-benzodiazepin-3-yl)propyl]guanidine

$$$$
