
     RDKit          3D

102105  0  0  0  0  0  0  0  0999 V2000
   10.7200    0.7766   -3.4123 C   0  0  0  0  0  0  0  0  0  0  0  0
    9.2680    0.6731   -3.8059 C   0  0  0  0  0  0  0  0  0  0  0  0
    8.4377    0.5989   -2.5672 C   0  0  0  0  0  0  0  0  0  0  0  0
    8.9721    0.6054   -1.4071 O   0  0  0  0  0  0  0  0  0  0  0  0
    7.0507    0.5214   -2.6646 O   0  0  0  0  0  0  0  0  0  0  0  0
    6.2206    0.4504   -1.5684 C   0  0  0  0  0  0  0  0  0  0  0  0
    6.7408    0.4504   -0.4341 O   0  0  0  0  0  0  0  0  0  0  0  0
    4.8059    0.3811   -1.7425 N   0  0  0  0  0  0  0  0  0  0  0  0
    4.0035    0.3128   -0.5453 C   0  0  2  0  0  0  0  0  0  0  0  0
    2.9600   -0.7560   -0.7660 C   0  0  0  0  0  0  0  0  0  0  0  0
    2.9298   -1.4229   -1.8379 O   0  0  0  0  0  0  0  0  0  0  0  0
    2.0488   -0.9348    0.2938 N   0  0  0  0  0  0  0  0  0  0  0  0
    0.9537   -1.8828    0.3168 C   0  0  2  0  0  0  0  0  0  0  0  0
   -0.3457   -1.1809    0.2492 C   0  0  0  0  0  0  0  0  0  0  0  0
   -0.2980    0.0673    0.0540 O   0  0  0  0  0  0  0  0  0  0  0  0
   -1.6228   -1.7680    0.3808 N   0  0  0  0  0  0  0  0  0  0  0  0
   -2.7663   -0.9142    0.2679 C   0  0  2  0  0  0  0  0  0  0  0  0
   -3.2011   -0.4306    1.6278 C   0  0  0  0  0  0  0  0  0  0  0  0
   -2.6080   -0.8362    2.6752 O   0  0  0  0  0  0  0  0  0  0  0  0
   -4.2860    0.4919    1.6790 N   0  0  0  0  0  0  0  0  0  0  0  0
   -4.7561    1.0248    2.9771 C   0  0  2  0  0  0  0  0  0  0  0  0
   -6.1652    0.7115    3.1599 C   0  0  0  0  0  0  0  0  0  0  0  0
   -6.7355    0.9835    4.2676 O   0  0  0  0  0  0  0  0  0  0  0  0
   -6.9352    0.0930    2.1002 N   0  0  0  0  0  0  0  0  0  0  0  0
   -4.5198    2.5171    2.9719 C   0  0  0  0  0  0  0  0  0  0  0  0
   -5.2099    3.2282    1.8866 C   0  0  0  0  0  0  0  0  0  0  0  0
   -4.5808    3.4723    0.6525 C   0  0  0  0  0  0  0  0  0  0  0  0
   -5.4374    4.0848   -0.1774 N   0  0  0  0  0  0  0  0  0  0  0  0
   -6.5915    4.2472    0.4672 C   0  0  0  0  0  0  0  0  0  0  0  0
   -6.4652    3.7282    1.7314 C   0  0  0  0  0  0  0  0  0  0  0  0
   -7.5334    3.8006    2.5858 C   0  0  0  0  0  0  0  0  0  0  0  0
   -8.7046    4.3849    2.1643 C   0  0  0  0  0  0  0  0  0  0  0  0
   -8.8578    4.9109    0.9007 C   0  0  0  0  0  0  0  0  0  0  0  0
   -7.7719    4.8459    0.0142 C   0  0  0  0  0  0  0  0  0  0  0  0
   -3.8710   -1.5466   -0.4788 C   0  0  0  0  0  0  0  0  0  0  0  0
   -3.6370   -1.9654   -1.8773 C   0  0  0  0  0  0  0  0  0  0  0  0
   -2.5897   -3.0038   -2.1190 C   0  0  0  0  0  0  0  0  0  0  0  0
   -2.8848   -4.2319   -1.4209 N   0  0  0  0  0  0  0  0  0  0  0  0
   -3.8578   -4.9790   -1.7449 C   0  0  0  0  0  0  0  0  0  0  0  0
   -4.7795   -4.7519   -2.7959 N   0  0  0  0  0  0  0  0  0  0  0  0
   -4.0501   -6.1754   -0.9679 N   0  0  0  0  0  0  0  0  0  0  0  0
    1.0798   -2.7425    1.5368 C   0  0  0  0  0  0  0  0  0  0  0  0
    2.3888   -3.4800    1.4773 C   0  0  0  0  0  0  0  0  0  0  0  0
    2.3999   -4.7305    0.8744 C   0  0  0  0  0  0  0  0  0  0  0  0
    3.5656   -5.4688    0.7817 C   0  0  0  0  0  0  0  0  0  0  0  0
    4.7307   -4.9645    1.2901 C   0  0  0  0  0  0  0  0  0  0  0  0
    4.6955   -3.7303    1.8795 C   0  0  0  0  0  0  0  0  0  0  0  0
    3.5513   -2.9583    1.9937 C   0  0  0  0  0  0  0  0  0  0  0  0
    3.2897    1.6755   -0.4650 C   0  0  0  0  0  0  0  0  0  0  0  0
    4.2888    2.7658   -0.3856 C   0  0  0  0  0  0  0  0  0  0  0  0
    4.8023    3.4092   -1.4981 C   0  0  0  0  0  0  0  0  0  0  0  0
    5.7387    4.4207   -1.3357 C   0  0  0  0  0  0  0  0  0  0  0  0
    6.1250    4.7486   -0.0574 C   0  0  0  0  0  0  0  0  0  0  0  0
    5.6324    4.1268    1.0746 C   0  0  0  0  0  0  0  0  0  0  0  0
    4.7018    3.1224    0.9030 C   0  0  0  0  0  0  0  0  0  0  0  0
    7.3237    6.0446    0.1100 Cl  0  0  0  0  0  0  0  0  0  0  0  0
   11.3013    0.7265   -4.3578 H   0  0  0  0  0  0  0  0  0  0  0  0
   10.9316    1.7870   -2.9873 H   0  0  0  0  0  0  0  0  0  0  0  0
   11.0088    0.0214   -2.6678 H   0  0  0  0  0  0  0  0  0  0  0  0
    9.0280    1.6137   -4.3824 H   0  0  0  0  0  0  0  0  0  0  0  0
    9.0727   -0.1623   -4.4960 H   0  0  0  0  0  0  0  0  0  0  0  0
    4.3338    0.3762   -2.6657 H   0  0  0  0  0  0  0  0  0  0  0  0
    4.5537    0.1806    0.3824 H   0  0  0  0  0  0  0  0  0  0  0  0
    2.1348   -0.3423    1.1790 H   0  0  0  0  0  0  0  0  0  0  0  0
    0.9753   -2.5499   -0.5783 H   0  0  0  0  0  0  0  0  0  0  0  0
   -1.6508   -2.7977    0.5609 H   0  0  0  0  0  0  0  0  0  0  0  0
   -2.4281    0.0058   -0.3132 H   0  0  0  0  0  0  0  0  0  0  0  0
   -4.7834    0.8245    0.8169 H   0  0  0  0  0  0  0  0  0  0  0  0
   -4.1341    0.5269    3.7674 H   0  0  0  0  0  0  0  0  0  0  0  0
   -7.6758   -0.5775    2.4191 H   0  0  0  0  0  0  0  0  0  0  0  0
   -6.7486    0.3133    1.0953 H   0  0  0  0  0  0  0  0  0  0  0  0
   -4.8764    2.9824    3.9257 H   0  0  0  0  0  0  0  0  0  0  0  0
   -3.4258    2.7510    2.9272 H   0  0  0  0  0  0  0  0  0  0  0  0
   -3.5704    3.2259    0.3637 H   0  0  0  0  0  0  0  0  0  0  0  0
   -5.2250    4.3851   -1.1756 H   0  0  0  0  0  0  0  0  0  0  0  0
   -7.4349    3.4176    3.5640 H   0  0  0  0  0  0  0  0  0  0  0  0
   -9.5727    4.4534    2.8341 H   0  0  0  0  0  0  0  0  0  0  0  0
   -9.7923    5.3781    0.5615 H   0  0  0  0  0  0  0  0  0  0  0  0
   -7.8364    5.2434   -0.9920 H   0  0  0  0  0  0  0  0  0  0  0  0
   -4.7143   -0.7771   -0.5013 H   0  0  0  0  0  0  0  0  0  0  0  0
   -4.3369   -2.3973    0.0912 H   0  0  0  0  0  0  0  0  0  0  0  0
   -4.6036   -2.4285   -2.2409 H   0  0  0  0  0  0  0  0  0  0  0  0
   -3.4717   -1.0921   -2.5585 H   0  0  0  0  0  0  0  0  0  0  0  0
   -2.6172   -3.2435   -3.2344 H   0  0  0  0  0  0  0  0  0  0  0  0
   -1.6046   -2.6085   -1.8410 H   0  0  0  0  0  0  0  0  0  0  0  0
   -5.7572   -4.5042   -2.5220 H   0  0  0  0  0  0  0  0  0  0  0  0
   -4.5546   -4.8150   -3.8095 H   0  0  0  0  0  0  0  0  0  0  0  0
   -3.8253   -6.1872    0.0471 H   0  0  0  0  0  0  0  0  0  0  0  0
   -4.4137   -7.0293   -1.4223 H   0  0  0  0  0  0  0  0  0  0  0  0
    1.0267   -2.1242    2.4671 H   0  0  0  0  0  0  0  0  0  0  0  0
    0.2530   -3.4844    1.5922 H   0  0  0  0  0  0  0  0  0  0  0  0
    1.5170   -5.1718    0.4613 H   0  0  0  0  0  0  0  0  0  0  0  0
    3.5639   -6.4534    0.3054 H   0  0  0  0  0  0  0  0  0  0  0  0
    5.6813   -5.5063    1.2432 H   0  0  0  0  0  0  0  0  0  0  0  0
    5.6123   -3.3403    2.2770 H   0  0  0  0  0  0  0  0  0  0  0  0
    3.5589   -1.9716    2.4769 H   0  0  0  0  0  0  0  0  0  0  0  0
    2.7132    1.8064   -1.4128 H   0  0  0  0  0  0  0  0  0  0  0  0
    2.6178    1.7204    0.4042 H   0  0  0  0  0  0  0  0  0  0  0  0
    4.4572    3.1046   -2.4713 H   0  0  0  0  0  0  0  0  0  0  0  0
    6.1128    4.8978   -2.2302 H   0  0  0  0  0  0  0  0  0  0  0  0
    5.9435    4.3928    2.0805 H   0  0  0  0  0  0  0  0  0  0  0  0
    4.2923    2.6089    1.7749 H   0  0  0  0  0  0  0  0  0  0  0  0
  1  2  1  0
  2  3  1  0
  3  4  2  0
  3  5  1  0
  5  6  1  0
  6  7  2  0
  6  8  1  0
  8  9  1  0
  9 10  1  0
 10 11  2  0
 10 12  1  0
 12 13  1  0
 13 14  1  0
 14 15  2  0
 14 16  1  0
 16 17  1  0
 17 18  1  0
 18 19  2  0
 18 20  1  0
 20 21  1  0
 21 22  1  0
 22 23  2  0
 22 24  1  0
 21 25  1  0
 25 26  1  0
 26 27  2  0
 27 28  1  0
 28 29  1  0
 29 30  2  0
 30 31  1  0
 31 32  2  0
 32 33  1  0
 33 34  2  0
 17 35  1  0
 35 36  1  0
 36 37  1  0
 37 38  1  0
 38 39  2  3
 39 40  1  0
 39 41  1  0
 13 42  1  0
 42 43  1  0
 43 44  2  0
 44 45  1  0
 45 46  2  0
 46 47  1  0
 47 48  2  0
  9 49  1  0
 49 50  1  0
 50 51  2  0
 51 52  1  0
 52 53  2  0
 53 54  1  0
 54 55  2  0
 53 56  1  0
 30 26  1  0
 48 43  1  0
 55 50  1  0
 34 29  1  0
  1 57  1  0
  1 58  1  0
  1 59  1  0
  2 60  1  0
  2 61  1  0
  8 62  1  0
  9 63  1  1
 12 64  1  0
 13 65  1  6
 16 66  1  0
 17 67  1  6
 20 68  1  0
 21 69  1  1
 24 70  1  0
 24 71  1  0
 25 72  1  0
 25 73  1  0
 27 74  1  0
 28 75  1  0
 31 76  1  0
 32 77  1  0
 33 78  1  0
 34 79  1  0
 35 80  1  0
 35 81  1  0
 36 82  1  0
 36 83  1  0
 37 84  1  0
 37 85  1  0
 40 86  1  0
 40 87  1  0
 41 88  1  0
 41 89  1  0
 42 90  1  0
 42 91  1  0
 44 92  1  0
 45 93  1  0
 46 94  1  0
 47 95  1  0
 48 96  1  0
 49 97  1  0
 49 98  1  0
 51 99  1  0
 52100  1  0
 54101  1  0
 55102  1  0
M  END
>  <Ligand ID>  (1) 
LIG0004043

>  <Ligand>  (1) 
CHEMBL184968

>  <SMILES>  (1) 
CCC(=O)OC(=O)N[C@H](C(=O)N[C@H](C(=O)N[C@H](C(=O)N[C@H](C(=O)N)Cc1c[nH]c2c1cccc2)CCCN=C(N)N)Cc1ccccc1)Cc1ccc(cc1)Cl

>  <CID>  (1) 
44394656.0

>  <ChEMBL ID>  (1) 
nan

>  <InChiKey>  (1) 
FHXAUELZKMEZRN-YDPTYEFTSA-N

>  <InChi>  (1) 
InChI=1S/C39H46ClN9O7/c1-2-33(50)56-39(55)49-32(20-24-14-16-26(40)17-15-24)37(54)48-31(19-23-9-4-3-5-10-23)36(53)46-29(13-8-18-44-38(42)43)35(52)47-30(34(41)51)21-25-22-45-28-12-7-6-11-27(25)28/h3-7,9-12,14-17,22,29-32,45H,2,8,13,18-21H2,1H3,(H2,41,51)(H,46,53)(H,47,52)(H,48,54)(H,49,55)(H4,42,43,44)/t29-,30-,31-,32-/m0/s1

>  <IUPAC Name>  (1) 
[(2S)-1-[[(2S)-1-[[(2S)-1-[[(2S)-1-amino-3-(1H-indol-3-yl)-1-oxopropan-2-yl]amino]-5-(diaminomethylideneamino)-1-oxopentan-2-yl]amino]-1-oxo-3-phenylpropan-2-yl]amino]-3-(4-chlorophenyl)-1-oxopropan-2-yl]carbamoyl propanoate

$$$$
