
     RDKit          3D

 34 36  0  0  0  0  0  0  0  0999 V2000
   -4.1322    3.3213    0.8661 C   0  0  0  0  0  0  0  0  0  0  0  0
   -3.7049    1.8873    0.9373 C   0  0  0  0  0  0  0  0  0  0  0  0
   -4.3342    0.9129    1.5433 O   0  0  0  0  0  0  0  0  0  0  0  0
   -3.6961   -0.1877    1.4098 N   0  0  0  0  0  0  0  0  0  0  0  0
   -2.5690    0.0373    0.6746 C   0  0  0  0  0  0  0  0  0  0  0  0
   -2.6111    1.3387    0.4004 N   0  0  0  0  0  0  0  0  0  0  0  0
   -1.6299   -1.0152    0.3484 C   0  0  0  0  0  0  0  0  0  0  0  0
   -1.8744   -2.3092    0.7977 C   0  0  0  0  0  0  0  0  0  0  0  0
   -1.0460   -3.3720    0.5429 C   0  0  0  0  0  0  0  0  0  0  0  0
    0.0968   -3.1878   -0.1930 C   0  0  0  0  0  0  0  0  0  0  0  0
    0.3558   -1.9124   -0.6470 C   0  0  0  0  0  0  0  0  0  0  0  0
   -0.4808   -0.8342   -0.3904 C   0  0  0  0  0  0  0  0  0  0  0  0
   -0.1426    0.4506   -0.9107 N   0  0  0  0  0  0  0  0  0  0  0  0
    1.0789    0.5948   -1.6667 C   0  0  0  0  0  0  0  0  0  0  0  0
    2.2852    0.3628   -0.7968 C   0  0  0  0  0  0  0  0  0  0  0  0
    2.3238    0.1136    0.4673 N   0  0  0  0  0  0  0  0  0  0  0  0
    3.6864   -0.0485    0.9385 C   0  0  0  0  0  0  0  0  0  0  0  0
    4.4572    0.7003   -0.1277 C   0  0  0  0  0  0  0  0  0  0  0  0
    3.6236    0.3988   -1.2976 N   0  0  0  0  0  0  0  0  0  0  0  0
   -5.2341    3.3821    0.7146 H   0  0  0  0  0  0  0  0  0  0  0  0
   -3.6778    3.8403    0.0127 H   0  0  0  0  0  0  0  0  0  0  0  0
   -3.8882    3.7974    1.8290 H   0  0  0  0  0  0  0  0  0  0  0  0
   -2.7661   -2.5302    1.3897 H   0  0  0  0  0  0  0  0  0  0  0  0
   -1.2570   -4.3683    0.9027 H   0  0  0  0  0  0  0  0  0  0  0  0
    0.7518   -4.0257   -0.3950 H   0  0  0  0  0  0  0  0  0  0  0  0
    1.2732   -1.8088   -1.2369 H   0  0  0  0  0  0  0  0  0  0  0  0
   -0.7173    1.3020   -0.7846 H   0  0  0  0  0  0  0  0  0  0  0  0
    1.0995    1.6041   -2.1176 H   0  0  0  0  0  0  0  0  0  0  0  0
    1.1126   -0.1071   -2.5322 H   0  0  0  0  0  0  0  0  0  0  0  0
    3.8408    0.4083    1.9461 H   0  0  0  0  0  0  0  0  0  0  0  0
    3.9932   -1.1330    0.9588 H   0  0  0  0  0  0  0  0  0  0  0  0
    5.4993    0.3615   -0.2490 H   0  0  0  0  0  0  0  0  0  0  0  0
    4.3476    1.7831    0.0736 H   0  0  0  0  0  0  0  0  0  0  0  0
    3.9363    0.2428   -2.2874 H   0  0  0  0  0  0  0  0  0  0  0  0
  1  2  1  0
  2  3  1  0
  3  4  1  0
  4  5  2  0
  5  6  1  0
  5  7  1  0
  7  8  2  0
  8  9  1  0
  9 10  2  0
 10 11  1  0
 11 12  2  0
 12 13  1  0
 13 14  1  0
 14 15  1  0
 15 16  2  0
 16 17  1  0
 17 18  1  0
 18 19  1  0
  6  2  2  0
 12  7  1  0
 19 15  1  0
  1 20  1  0
  1 21  1  0
  1 22  1  0
  8 23  1  0
  9 24  1  0
 10 25  1  0
 11 26  1  0
 13 27  1  0
 14 28  1  0
 14 29  1  0
 17 30  1  0
 17 31  1  0
 18 32  1  0
 18 33  1  0
 19 34  1  0
M  END
>  <Ligand ID>  (1) 
LIG0003925

>  <Ligand>  (1) 
CHEMBL358685

>  <SMILES>  (1) 
Cc1onc(n1)c1ccccc1NCC1=NCCN1

>  <CID>  (1) 
22493359.0

>  <ChEMBL ID>  (1) 
nan

>  <InChiKey>  (1) 
NHQBBQYXJYNTCW-UHFFFAOYSA-N

>  <InChi>  (1) 
InChI=1S/C13H15N5O/c1-9-17-13(18-19-9)10-4-2-3-5-11(10)16-8-12-14-6-7-15-12/h2-5,16H,6-8H2,1H3,(H,14,15)

>  <IUPAC Name>  (1) 
N-(4,5-dihydro-1H-imidazol-2-ylmethyl)-2-(5-methyl-1,2,4-oxadiazol-3-yl)aniline

$$$$
