
     RDKit          3D

136138  0  0  0  0  0  0  0  0999 V2000
   -6.6729    0.5922    4.0961 C   0  0  0  0  0  0  0  0  0  0  0  0
   -6.5855    0.6882    2.5881 C   0  0  0  0  0  0  0  0  0  0  0  0
   -5.9690   -0.4921    1.9561 C   0  0  1  0  0  0  0  0  0  0  0  0
   -4.5364   -0.7089    2.4494 C   0  0  2  0  0  0  0  0  0  0  0  0
   -3.6276    0.3391    2.1664 N   0  0  0  0  0  0  0  0  0  0  0  0
   -3.5945    1.2833    1.1195 C   0  0  0  0  0  0  0  0  0  0  0  0
   -4.5169    1.2251    0.2926 O   0  0  0  0  0  0  0  0  0  0  0  0
   -2.4945    2.2627    1.0512 C   0  0  1  0  0  0  0  0  0  0  0  0
   -2.5215    3.0388   -0.1729 N   0  0  0  0  0  0  0  0  0  0  0  0
   -1.2643    3.3910   -0.8498 C   0  0  0  0  0  0  0  0  0  0  0  0
   -0.2747    3.0447   -0.1958 O   0  0  0  0  0  0  0  0  0  0  0  0
   -1.2632    4.0843   -2.1459 C   0  0  0  0  0  0  0  0  0  0  0  0
    0.0958    4.5198   -2.5460 C   0  0  0  0  0  0  0  0  0  0  0  0
    1.3498    3.3790   -2.9698 S   0  0  0  0  0  0  0  0  0  0  0  0
    2.0160    2.1383   -1.4749 S   0  0  0  0  0  0  0  0  0  0  0  0
    1.2920    0.5252   -1.3550 C   0  0  0  0  0  0  0  0  0  0  0  0
    1.5637   -0.4362   -2.4262 C   0  0  2  0  0  0  0  0  0  0  0  0
    0.7156   -1.6763   -2.1251 N   0  0  0  0  0  0  0  0  0  0  0  0
    0.1588   -2.3924   -3.1994 C   0  0  0  0  0  0  0  0  0  0  0  0
    0.4905   -1.9299   -4.3432 O   0  0  0  0  0  0  0  0  0  0  0  0
   -0.7104   -3.5618   -3.2026 C   0  0  1  0  0  0  0  0  0  0  0  0
   -1.3601   -3.9478   -1.9771 N   0  0  0  0  0  0  0  0  0  0  0  0
   -2.1327   -3.0656   -1.1713 C   0  0  0  0  0  0  0  0  0  0  0  0
   -2.0969   -1.8639   -1.6178 O   0  0  0  0  0  0  0  0  0  0  0  0
   -2.9056   -3.3134    0.0106 C   0  0  1  0  0  0  0  0  0  0  0  0
   -3.4067   -2.0704    0.6295 N   0  0  0  0  0  0  0  0  0  0  0  0
   -4.1128   -2.0197    1.8554 C   0  0  0  0  0  0  0  0  0  0  0  0
   -4.3785   -3.0782    2.4091 O   0  0  0  0  0  0  0  0  0  0  0  0
   -4.1405   -4.1987   -0.2900 C   0  0  0  0  0  0  0  0  0  0  0  0
   -3.8170   -5.5582   -0.7797 C   0  0  0  0  0  0  0  0  0  0  0  0
   -3.0245   -6.3901    0.1738 C   0  0  0  0  0  0  0  0  0  0  0  0
   -2.7826   -6.0393    1.3560 O   0  0  0  0  0  0  0  0  0  0  0  0
   -2.5014   -7.6573   -0.2448 N   0  0  0  0  0  0  0  0  0  0  0  0
   -1.5500   -3.5639   -4.4396 C   0  0  0  0  0  0  0  0  0  0  0  0
   -2.4533   -4.7195   -4.4914 C   0  0  0  0  0  0  0  0  0  0  0  0
   -3.6641   -4.5315   -4.1905 O   0  0  0  0  0  0  0  0  0  0  0  0
   -1.9628   -6.0212   -4.8766 N   0  0  0  0  0  0  0  0  0  0  0  0
    2.9117   -0.9099   -2.6222 C   0  0  0  0  0  0  0  0  0  0  0  0
    3.0066   -2.2179   -2.3395 O   0  0  0  0  0  0  0  0  0  0  0  0
    4.1353   -0.4059   -3.0274 N   0  0  0  0  0  0  0  0  0  0  0  0
    5.1955   -1.4571   -3.1681 C   0  0  0  0  0  0  0  0  0  0  0  0
    6.5781   -1.0705   -2.8638 C   0  0  0  0  0  0  0  0  0  0  0  0
    7.0221   -1.7493   -4.1772 C   0  0  0  0  0  0  0  0  0  0  0  0
    5.6016   -1.5631   -4.6559 C   0  0  0  0  0  0  0  0  0  0  0  0
    4.6060    0.9081   -3.3288 C   0  0  0  0  0  0  0  0  0  0  0  0
    5.2042    1.6208   -2.1350 C   0  0  0  0  0  0  0  0  0  0  0  0
    5.7242    2.7597   -2.2507 O   0  0  0  0  0  0  0  0  0  0  0  0
    5.1321    0.9159   -0.9075 N   0  0  0  0  0  0  0  0  0  0  0  0
    5.7112    1.4821    0.3494 C   0  0  2  0  0  0  0  0  0  0  0  0
    5.9062    0.3653    1.2618 C   0  0  0  0  0  0  0  0  0  0  0  0
    5.3876   -0.7569    0.9041 O   0  0  0  0  0  0  0  0  0  0  0  0
    6.5893    0.3479    2.4893 N   0  0  0  0  0  0  0  0  0  0  0  0
    6.5998   -0.9289    3.2170 C   0  0  0  0  0  0  0  0  0  0  0  0
    5.1841   -1.3014    3.5299 C   0  0  0  0  0  0  0  0  0  0  0  0
    4.2010   -0.5781    3.2012 O   0  0  0  0  0  0  0  0  0  0  0  0
    4.8558   -2.5128    4.2268 N   0  0  0  0  0  0  0  0  0  0  0  0
    4.7509    2.5608    0.8320 C   0  0  0  0  0  0  0  0  0  0  0  0
    5.2373    3.2002    2.0904 C   0  0  0  0  0  0  0  0  0  0  0  0
    6.6021    3.8788    1.9547 C   0  0  0  0  0  0  0  0  0  0  0  0
    4.2242    4.3211    2.4910 C   0  0  0  0  0  0  0  0  0  0  0  0
   -2.3614    3.1478    2.2730 C   0  0  0  0  0  0  0  0  0  0  0  0
   -3.4823    3.9988    2.6030 C   0  0  0  0  0  0  0  0  0  0  0  0
   -3.5205    5.2783    2.0374 C   0  0  0  0  0  0  0  0  0  0  0  0
   -4.5299    6.1713    2.2962 C   0  0  0  0  0  0  0  0  0  0  0  0
   -5.5701    5.8449    3.1388 C   0  0  0  0  0  0  0  0  0  0  0  0
   -5.5512    4.5932    3.7056 C   0  0  0  0  0  0  0  0  0  0  0  0
   -4.5354    3.6969    3.4453 C   0  0  0  0  0  0  0  0  0  0  0  0
   -6.6209    6.6903    3.4457 O   0  0  0  0  0  0  0  0  0  0  0  0
   -6.7487   -1.7291    2.3547 C   0  0  0  0  0  0  0  0  0  0  0  0
   -7.2804    1.4037    4.5410 H   0  0  0  0  0  0  0  0  0  0  0  0
   -5.6547    0.6752    4.5138 H   0  0  0  0  0  0  0  0  0  0  0  0
   -7.0709   -0.3852    4.4311 H   0  0  0  0  0  0  0  0  0  0  0  0
   -6.1101    1.6543    2.3650 H   0  0  0  0  0  0  0  0  0  0  0  0
   -7.6603    0.8309    2.2512 H   0  0  0  0  0  0  0  0  0  0  0  0
   -6.0054   -0.4915    0.8426 H   0  0  0  0  0  0  0  0  0  0  0  0
   -4.6819   -0.8200    3.5419 H   0  0  0  0  0  0  0  0  0  0  0  0
   -2.8270    0.4562    2.8562 H   0  0  0  0  0  0  0  0  0  0  0  0
   -1.5278    1.6928    0.9990 H   0  0  0  0  0  0  0  0  0  0  0  0
   -3.3395    3.3929   -0.6553 H   0  0  0  0  0  0  0  0  0  0  0  0
   -1.9038    5.0192   -2.1009 H   0  0  0  0  0  0  0  0  0  0  0  0
   -1.7148    3.3850   -2.8925 H   0  0  0  0  0  0  0  0  0  0  0  0
    0.5402    5.2011   -1.7169 H   0  0  0  0  0  0  0  0  0  0  0  0
   -0.0116    5.3423   -3.3697 H   0  0  0  0  0  0  0  0  0  0  0  0
    0.1752    0.6398   -1.2579 H   0  0  0  0  0  0  0  0  0  0  0  0
    1.5755    0.0839   -0.3569 H   0  0  0  0  0  0  0  0  0  0  0  0
    1.1371   -0.0672   -3.4069 H   0  0  0  0  0  0  0  0  0  0  0  0
    0.5603   -1.9825   -1.1873 H   0  0  0  0  0  0  0  0  0  0  0  0
    0.0197   -4.4615   -3.3839 H   0  0  0  0  0  0  0  0  0  0  0  0
   -1.2843   -4.9025   -1.5970 H   0  0  0  0  0  0  0  0  0  0  0  0
   -2.4003   -3.8619    0.7981 H   0  0  0  0  0  0  0  0  0  0  0  0
   -3.2428   -1.1738    0.1668 H   0  0  0  0  0  0  0  0  0  0  0  0
   -4.8591   -4.1789    0.5378 H   0  0  0  0  0  0  0  0  0  0  0  0
   -4.6461   -3.6461   -1.1178 H   0  0  0  0  0  0  0  0  0  0  0  0
   -3.4036   -5.6482   -1.7864 H   0  0  0  0  0  0  0  0  0  0  0  0
   -4.8171   -6.1231   -0.8302 H   0  0  0  0  0  0  0  0  0  0  0  0
   -3.1127   -8.4756   -0.3598 H   0  0  0  0  0  0  0  0  0  0  0  0
   -1.4589   -7.6671   -0.4128 H   0  0  0  0  0  0  0  0  0  0  0  0
   -2.1294   -2.6121   -4.4833 H   0  0  0  0  0  0  0  0  0  0  0  0
   -0.8626   -3.6495   -5.3129 H   0  0  0  0  0  0  0  0  0  0  0  0
   -2.6196   -6.8360   -4.7710 H   0  0  0  0  0  0  0  0  0  0  0  0
   -0.9902   -6.0852   -5.2381 H   0  0  0  0  0  0  0  0  0  0  0  0
    4.8362   -2.4443   -2.8736 H   0  0  0  0  0  0  0  0  0  0  0  0
    6.8378   -0.0015   -2.9006 H   0  0  0  0  0  0  0  0  0  0  0  0
    7.0974   -1.6331   -2.0481 H   0  0  0  0  0  0  0  0  0  0  0  0
    7.3215   -2.8012   -4.0729 H   0  0  0  0  0  0  0  0  0  0  0  0
    7.7844   -1.1500   -4.7237 H   0  0  0  0  0  0  0  0  0  0  0  0
    5.1517   -2.4581   -5.1393 H   0  0  0  0  0  0  0  0  0  0  0  0
    5.5018   -0.6473   -5.2393 H   0  0  0  0  0  0  0  0  0  0  0  0
    3.8078    1.5845   -3.7135 H   0  0  0  0  0  0  0  0  0  0  0  0
    5.4440    0.9118   -4.0776 H   0  0  0  0  0  0  0  0  0  0  0  0
    4.6637   -0.0260   -0.8680 H   0  0  0  0  0  0  0  0  0  0  0  0
    6.6107    2.0234    0.0435 H   0  0  0  0  0  0  0  0  0  0  0  0
    7.0681    1.1946    2.8430 H   0  0  0  0  0  0  0  0  0  0  0  0
    7.2148   -0.7679    4.1164 H   0  0  0  0  0  0  0  0  0  0  0  0
    7.0747   -1.6871    2.5624 H   0  0  0  0  0  0  0  0  0  0  0  0
    5.4115   -2.8291    5.0553 H   0  0  0  0  0  0  0  0  0  0  0  0
    4.0330   -3.0597    3.8666 H   0  0  0  0  0  0  0  0  0  0  0  0
    3.7252    2.1759    0.9848 H   0  0  0  0  0  0  0  0  0  0  0  0
    4.7822    3.3523    0.0422 H   0  0  0  0  0  0  0  0  0  0  0  0
    5.2631    2.5644    2.9753 H   0  0  0  0  0  0  0  0  0  0  0  0
    6.4720    4.6440    1.1468 H   0  0  0  0  0  0  0  0  0  0  0  0
    7.3257    3.1550    1.5743 H   0  0  0  0  0  0  0  0  0  0  0  0
    6.8571    4.3697    2.9125 H   0  0  0  0  0  0  0  0  0  0  0  0
    4.4728    4.6751    3.5138 H   0  0  0  0  0  0  0  0  0  0  0  0
    4.2767    5.1069    1.7306 H   0  0  0  0  0  0  0  0  0  0  0  0
    3.2336    3.8700    2.5152 H   0  0  0  0  0  0  0  0  0  0  0  0
   -2.0412    2.4901    3.1269 H   0  0  0  0  0  0  0  0  0  0  0  0
   -1.4456    3.7900    2.1042 H   0  0  0  0  0  0  0  0  0  0  0  0
   -2.7183    5.5927    1.3661 H   0  0  0  0  0  0  0  0  0  0  0  0
   -4.5158    7.1603    1.8366 H   0  0  0  0  0  0  0  0  0  0  0  0
   -6.3800    4.3289    4.3792 H   0  0  0  0  0  0  0  0  0  0  0  0
   -4.5432    2.7025    3.9110 H   0  0  0  0  0  0  0  0  0  0  0  0
   -6.9092    7.3840    2.7546 H   0  0  0  0  0  0  0  0  0  0  0  0
   -6.5401   -2.5665    1.6258 H   0  0  0  0  0  0  0  0  0  0  0  0
   -7.8341   -1.5391    2.2177 H   0  0  0  0  0  0  0  0  0  0  0  0
   -6.5409   -2.0515    3.4047 H   0  0  0  0  0  0  0  0  0  0  0  0
  1  2  1  0
  2  3  1  0
  3  4  1  0
  4  5  1  0
  5  6  1  0
  6  7  2  0
  6  8  1  0
  8  9  1  0
  9 10  1  0
 10 11  2  0
 10 12  1  0
 12 13  1  0
 13 14  1  0
 14 15  1  0
 15 16  1  0
 16 17  1  0
 17 18  1  0
 18 19  1  0
 19 20  2  0
 19 21  1  0
 21 22  1  0
 22 23  1  0
 23 24  2  0
 23 25  1  0
 25 26  1  0
 26 27  1  0
 27 28  2  0
 25 29  1  0
 29 30  1  0
 30 31  1  0
 31 32  2  0
 31 33  1  0
 21 34  1  0
 34 35  1  0
 35 36  2  0
 35 37  1  0
 17 38  1  0
 38 39  2  0
 38 40  1  0
 40 41  1  0
 41 42  1  0
 42 43  1  0
 43 44  1  0
 40 45  1  0
 45 46  1  0
 46 47  2  0
 46 48  1  0
 48 49  1  0
 49 50  1  0
 50 51  2  0
 50 52  1  0
 52 53  1  0
 53 54  1  0
 54 55  2  0
 54 56  1  0
 49 57  1  0
 57 58  1  0
 58 59  1  0
 58 60  1  0
  8 61  1  0
 61 62  1  0
 62 63  2  0
 63 64  1  0
 64 65  2  0
 65 66  1  0
 66 67  2  0
 65 68  1  0
  3 69  1  0
 27  4  1  0
 44 41  1  0
 67 62  1  0
  1 70  1  0
  1 71  1  0
  1 72  1  0
  2 73  1  0
  2 74  1  0
  3 75  1  6
  4 76  1  1
  5 77  1  0
  8 78  1  6
  9 79  1  0
 12 80  1  0
 12 81  1  0
 13 82  1  0
 13 83  1  0
 16 84  1  0
 16 85  1  0
 17 86  1  6
 18 87  1  0
 21 88  1  6
 22 89  1  0
 25 90  1  1
 26 91  1  0
 29 92  1  0
 29 93  1  0
 30 94  1  0
 30 95  1  0
 33 96  1  0
 33 97  1  0
 34 98  1  0
 34 99  1  0
 37100  1  0
 37101  1  0
 41102  1  0
 42103  1  0
 42104  1  0
 43105  1  0
 43106  1  0
 44107  1  0
 44108  1  0
 45109  1  0
 45110  1  0
 48111  1  0
 49112  1  6
 52113  1  0
 53114  1  0
 53115  1  0
 56116  1  0
 56117  1  0
 57118  1  0
 57119  1  0
 58120  1  0
 59121  1  0
 59122  1  0
 59123  1  0
 60124  1  0
 60125  1  0
 60126  1  0
 61127  1  0
 61128  1  0
 63129  1  0
 64130  1  0
 66131  1  0
 67132  1  0
 68133  1  0
 69134  1  0
 69135  1  0
 69136  1  0
M  END
>  <Ligand ID>  (1) 
LIG0001628

>  <Ligand>  (1) 
CHEMBL3353932

>  <SMILES>  (1) 
CC[C@@H]([C@@H]1NC(=O)[C@@H](NC(=O)CCSSC[C@H](NC(=O)[C@@H](NC(=O)[C@@H](NC1=O)CCC(=O)N)CC(=O)N)C(=O)N(C1CCC1)CC(=O)N[C@H](C(=O)NCC(=O)N)CC(C)C)Cc1ccc(cc1)O)C

>  <CID>  (1) 
118719821.0

>  <ChEMBL ID>  (1) 
nan

>  <InChiKey>  (1) 
LVLKGQVXAXXSJJ-PBHNCVLYSA-N

>  <InChi>  (1) 
InChI=1S/C44H67N11O12S2/c1-5-24(4)38-43(66)51-28(13-14-33(45)57)40(63)52-31(19-34(46)58)41(64)53-32(22-69-68-16-15-36(60)49-30(42(65)54-38)18-25-9-11-27(56)12-10-25)44(67)55(26-7-6-8-26)21-37(61)50-29(17-23(2)3)39(62)48-20-35(47)59/h9-12,23-24,26,28-32,38,56H,5-8,13-22H2,1-4H3,(H2,45,57)(H2,46,58)(H2,47,59)(H,48,62)(H,49,60)(H,50,61)(H,51,66)(H,52,63)(H,53,64)(H,54,65)/t24-,28-,29-,30-,31-,32-,38-/m0/s1

>  <IUPAC Name>  (1) 
(4R,7S,10S,13S,16S)-7-(2-amino-2-oxoethyl)-N-[2-[[(2S)-1-[(2-amino-2-oxoethyl)amino]-4-methyl-1-oxopentan-2-yl]amino]-2-oxoethyl]-10-(3-amino-3-oxopropyl)-13-[(2S)-butan-2-yl]-N-cyclobutyl-16-[(4-hydroxyphenyl)methyl]-6,9,12,15,18-pentaoxo-1,2-dithia-5,8,11,14,17-pentazacycloicosane-4-carboxamide

$$$$
