
     RDKit          3D

 40 41  0  0  0  0  0  0  0  0999 V2000
   -2.3313   -2.6858   -1.3902 C   0  0  0  0  0  0  0  0  0  0  0  0
   -2.2243   -2.4009    0.1104 C   0  0  0  0  0  0  0  0  0  0  0  0
   -2.3021   -0.9804    0.4400 C   0  0  0  0  0  0  0  0  0  0  0  0
   -3.4782   -0.4697    0.9912 C   0  0  0  0  0  0  0  0  0  0  0  0
   -3.6157    0.8604    1.3267 C   0  0  0  0  0  0  0  0  0  0  0  0
   -2.5363    1.6778    1.0951 C   0  0  0  0  0  0  0  0  0  0  0  0
   -1.3529    1.2021    0.5486 C   0  0  0  0  0  0  0  0  0  0  0  0
   -1.2014   -0.1469    0.2037 C   0  0  0  0  0  0  0  0  0  0  0  0
   -0.0266   -0.5639   -0.3284 O   0  0  0  0  0  0  0  0  0  0  0  0
    1.1283   -1.0502    0.2634 C   0  0  0  0  0  0  0  0  0  0  0  0
    2.3323   -0.1898   -0.0537 C   0  0  0  0  0  0  0  0  0  0  0  0
    3.0779    0.4319    0.7616 N   0  0  0  0  0  0  0  0  0  0  0  0
    4.1480    1.1648    0.1136 C   0  0  0  0  0  0  0  0  0  0  0  0
    4.1054    0.6470   -1.2855 C   0  0  0  0  0  0  0  0  0  0  0  0
    2.8009    0.0391   -1.3769 N   0  0  0  0  0  0  0  0  0  0  0  0
    1.3610   -2.4534   -0.2608 C   0  0  0  0  0  0  0  0  0  0  0  0
   -0.2679    2.1936    0.3555 C   0  0  0  0  0  0  0  0  0  0  0  0
   -0.7069    3.6027    0.7350 C   0  0  0  0  0  0  0  0  0  0  0  0
   -1.6482   -2.0933   -1.9958 H   0  0  0  0  0  0  0  0  0  0  0  0
   -3.3634   -2.5132   -1.7149 H   0  0  0  0  0  0  0  0  0  0  0  0
   -2.1152   -3.7783   -1.4889 H   0  0  0  0  0  0  0  0  0  0  0  0
   -3.1200   -2.9324    0.5566 H   0  0  0  0  0  0  0  0  0  0  0  0
   -1.3692   -2.9555    0.4830 H   0  0  0  0  0  0  0  0  0  0  0  0
   -4.2930   -1.1643    1.1495 H   0  0  0  0  0  0  0  0  0  0  0  0
   -4.5478    1.1707    1.7433 H   0  0  0  0  0  0  0  0  0  0  0  0
   -2.6514    2.7335    1.3633 H   0  0  0  0  0  0  0  0  0  0  0  0
    1.0679   -1.1452    1.3765 H   0  0  0  0  0  0  0  0  0  0  0  0
    4.0082    2.2614    0.1508 H   0  0  0  0  0  0  0  0  0  0  0  0
    5.1235    0.8647    0.5921 H   0  0  0  0  0  0  0  0  0  0  0  0
    4.8955   -0.1071   -1.4383 H   0  0  0  0  0  0  0  0  0  0  0  0
    4.2403    1.4755   -2.0064 H   0  0  0  0  0  0  0  0  0  0  0  0
    2.2537   -0.2094   -2.2397 H   0  0  0  0  0  0  0  0  0  0  0  0
    2.2842   -2.4862   -0.9088 H   0  0  0  0  0  0  0  0  0  0  0  0
    1.4164   -3.2219    0.5371 H   0  0  0  0  0  0  0  0  0  0  0  0
    0.5448   -2.7626   -0.9431 H   0  0  0  0  0  0  0  0  0  0  0  0
    0.6479    1.9305    0.9219 H   0  0  0  0  0  0  0  0  0  0  0  0
    0.0190    2.2164   -0.7142 H   0  0  0  0  0  0  0  0  0  0  0  0
   -0.8901    3.6648    1.8093 H   0  0  0  0  0  0  0  0  0  0  0  0
    0.1463    4.2565    0.3998 H   0  0  0  0  0  0  0  0  0  0  0  0
   -1.5594    3.9172    0.1172 H   0  0  0  0  0  0  0  0  0  0  0  0
  1  2  1  0
  2  3  1  0
  3  4  2  0
  4  5  1  0
  5  6  2  0
  6  7  1  0
  7  8  2  0
  8  9  1  0
  9 10  1  0
 10 11  1  0
 11 12  2  0
 12 13  1  0
 13 14  1  0
 14 15  1  0
 10 16  1  0
  7 17  1  0
 17 18  1  0
  8  3  1  0
 15 11  1  0
  1 19  1  0
  1 20  1  0
  1 21  1  0
  2 22  1  0
  2 23  1  0
  4 24  1  0
  5 25  1  0
  6 26  1  0
 10 27  1  0
 13 28  1  0
 13 29  1  0
 14 30  1  0
 14 31  1  0
 15 32  1  0
 16 33  1  0
 16 34  1  0
 16 35  1  0
 17 36  1  0
 17 37  1  0
 18 38  1  0
 18 39  1  0
 18 40  1  0
M  END
>  <Ligand ID>  (1) 
LIG0004091

>  <Ligand>  (1) 
CHEMBL157955

>  <SMILES>  (1) 
CCc1cccc(c1OC(C1=NCCN1)C)CC

>  <CID>  (1) 
44371864.0

>  <ChEMBL ID>  (1) 
nan

>  <InChiKey>  (1) 
OXGCVSXSSWZTMU-UHFFFAOYSA-N

>  <InChi>  (1) 
InChI=1S/C15H22N2O/c1-4-12-7-6-8-13(5-2)14(12)18-11(3)15-16-9-10-17-15/h6-8,11H,4-5,9-10H2,1-3H3,(H,16,17)

>  <IUPAC Name>  (1) 
2-[1-(2,6-diethylphenoxy)ethyl]-4,5-dihydro-1H-imidazole

$$$$
