
     RDKit          3D

 83 85  0  0  0  0  0  0  0  0999 V2000
    4.9961   -1.4768   -0.5475 O   0  0  0  0  0  0  0  0  0  0  0  0
    4.1859   -0.6639   -0.0447 C   0  0  0  0  0  0  0  0  0  0  0  0
    3.2818   -0.9752    1.0017 N   0  0  0  0  0  0  0  0  0  0  0  0
    3.1156   -2.2242    1.6588 C   0  0  2  0  0  0  0  0  0  0  0  0
    1.6629   -2.5155    1.7085 C   0  0  0  0  0  0  0  0  0  0  0  0
    1.1873   -3.3828    2.4719 O   0  0  0  0  0  0  0  0  0  0  0  0
    0.8090   -1.7530    0.8284 N   0  0  0  0  0  0  0  0  0  0  0  0
   -0.6181   -2.0627    0.9312 C   0  0  1  0  0  0  0  0  0  0  0  0
   -1.4787   -1.1026    0.2579 C   0  0  0  0  0  0  0  0  0  0  0  0
   -1.0156   -0.4160   -0.6808 O   0  0  0  0  0  0  0  0  0  0  0  0
   -2.8367   -0.9147    0.6349 N   0  0  0  0  0  0  0  0  0  0  0  0
   -3.6388    0.0991   -0.1813 C   0  0  1  0  0  0  0  0  0  0  0  0
   -4.9981   -0.2851    0.2189 C   0  0  0  0  0  0  0  0  0  0  0  0
   -5.0256   -1.1832    1.1726 O   0  0  0  0  0  0  0  0  0  0  0  0
   -6.2602    0.1035   -0.2035 N   0  0  0  0  0  0  0  0  0  0  0  0
   -3.2648    1.4415    0.3349 C   0  0  0  0  0  0  0  0  0  0  0  0
   -3.7958    2.6026   -0.3874 C   0  0  0  0  0  0  0  0  0  0  0  0
   -5.2551    2.8089   -0.5537 C   0  0  0  0  0  0  0  0  0  0  0  0
   -5.4229    4.1363   -1.2441 N   0  0  0  0  0  0  0  0  0  0  0  0
   -6.2052    5.0406   -0.7398 C   0  0  0  0  0  0  0  0  0  0  0  0
   -6.9464    4.8824    0.4483 N   0  0  0  0  0  0  0  0  0  0  0  0
   -6.2823    6.2605   -1.4707 N   0  0  0  0  0  0  0  0  0  0  0  0
   -0.8105   -3.3874    0.1050 C   0  0  0  0  0  0  0  0  0  0  0  0
   -2.2317   -3.7309    0.1788 C   0  0  0  0  0  0  0  0  0  0  0  0
   -2.8124   -4.4903    1.1440 C   0  0  0  0  0  0  0  0  0  0  0  0
   -4.1455   -4.8147    1.1457 C   0  0  0  0  0  0  0  0  0  0  0  0
   -4.9836   -4.3645    0.1264 C   0  0  0  0  0  0  0  0  0  0  0  0
   -4.4030   -3.5801   -0.8772 C   0  0  0  0  0  0  0  0  0  0  0  0
   -3.0517   -3.2652   -0.8559 C   0  0  0  0  0  0  0  0  0  0  0  0
    3.7212   -2.4338    2.9831 C   0  0  0  0  0  0  0  0  0  0  0  0
    3.3229   -1.5723    4.0934 C   0  0  0  0  0  0  0  0  0  0  0  0
    3.8820   -1.7408    5.3441 N   0  0  0  0  0  0  0  0  0  0  0  0
    3.3603   -0.8450    6.1885 C   0  0  0  0  0  0  0  0  0  0  0  0
    2.4455   -0.0681    5.5126 N   0  0  0  0  0  0  0  0  0  0  0  0
    2.4454   -0.5397    4.2253 C   0  0  0  0  0  0  0  0  0  0  0  0
    4.1248    0.7563   -0.5429 C   0  0  0  0  0  0  0  0  0  0  0  0
    5.2315    1.1192   -1.4404 C   0  0  0  0  0  0  0  0  0  0  0  0
    5.1002    1.5413   -2.6784 C   0  0  0  0  0  0  0  0  0  0  0  0
    6.2301    1.8995   -3.5477 C   0  0  0  0  0  0  0  0  0  0  0  0
    6.0145    2.3557   -4.8285 C   0  0  0  0  0  0  0  0  0  0  0  0
    7.0659    2.7275   -5.6703 C   0  0  0  0  0  0  0  0  0  0  0  0
    8.3612    2.6345   -5.2014 C   0  0  0  0  0  0  0  0  0  0  0  0
    8.5729    2.1792   -3.9270 C   0  0  0  0  0  0  0  0  0  0  0  0
    7.5328    1.8031   -3.0715 C   0  0  0  0  0  0  0  0  0  0  0  0
    2.6456   -0.1826    1.3302 H   0  0  0  0  0  0  0  0  0  0  0  0
    3.6138   -3.0096    0.9887 H   0  0  0  0  0  0  0  0  0  0  0  0
    1.1804   -1.0307    0.1731 H   0  0  0  0  0  0  0  0  0  0  0  0
   -0.8459   -2.3936    1.9383 H   0  0  0  0  0  0  0  0  0  0  0  0
   -3.2365   -1.4245    1.4145 H   0  0  0  0  0  0  0  0  0  0  0  0
   -3.3732    0.0247   -1.2210 H   0  0  0  0  0  0  0  0  0  0  0  0
   -6.7056   -0.0673   -1.1284 H   0  0  0  0  0  0  0  0  0  0  0  0
   -6.8723    0.6430    0.4819 H   0  0  0  0  0  0  0  0  0  0  0  0
   -2.1307    1.5182    0.4089 H   0  0  0  0  0  0  0  0  0  0  0  0
   -3.5742    1.5363    1.4293 H   0  0  0  0  0  0  0  0  0  0  0  0
   -3.3681    2.6403   -1.4640 H   0  0  0  0  0  0  0  0  0  0  0  0
   -3.3487    3.5768    0.0242 H   0  0  0  0  0  0  0  0  0  0  0  0
   -5.6583    2.1381   -1.3740 H   0  0  0  0  0  0  0  0  0  0  0  0
   -5.8702    2.8396    0.3398 H   0  0  0  0  0  0  0  0  0  0  0  0
   -6.8340    5.6032    1.1874 H   0  0  0  0  0  0  0  0  0  0  0  0
   -7.5784    4.0569    0.5492 H   0  0  0  0  0  0  0  0  0  0  0  0
   -6.4125    6.2442   -2.5072 H   0  0  0  0  0  0  0  0  0  0  0  0
   -6.2082    7.1819   -0.9922 H   0  0  0  0  0  0  0  0  0  0  0  0
   -0.1645   -4.1489    0.5980 H   0  0  0  0  0  0  0  0  0  0  0  0
   -0.4688   -3.1925   -0.9247 H   0  0  0  0  0  0  0  0  0  0  0  0
   -2.2073   -4.8674    1.9627 H   0  0  0  0  0  0  0  0  0  0  0  0
   -4.5560   -5.4193    1.9405 H   0  0  0  0  0  0  0  0  0  0  0  0
   -6.0345   -4.5933    0.0861 H   0  0  0  0  0  0  0  0  0  0  0  0
   -5.0176   -3.2018   -1.7010 H   0  0  0  0  0  0  0  0  0  0  0  0
   -2.6423   -2.6546   -1.6418 H   0  0  0  0  0  0  0  0  0  0  0  0
    3.4023   -3.4823    3.2992 H   0  0  0  0  0  0  0  0  0  0  0  0
    4.8367   -2.5277    2.9676 H   0  0  0  0  0  0  0  0  0  0  0  0
    4.6128   -2.4760    5.5949 H   0  0  0  0  0  0  0  0  0  0  0  0
    3.6423   -0.7804    7.2243 H   0  0  0  0  0  0  0  0  0  0  0  0
    1.8139   -0.1083    3.4861 H   0  0  0  0  0  0  0  0  0  0  0  0
    3.1378    0.8900   -1.0257 H   0  0  0  0  0  0  0  0  0  0  0  0
    4.1669    1.4187    0.3501 H   0  0  0  0  0  0  0  0  0  0  0  0
    6.2345    1.0175   -1.0243 H   0  0  0  0  0  0  0  0  0  0  0  0
    4.0924    1.6238   -3.0638 H   0  0  0  0  0  0  0  0  0  0  0  0
    5.0205    2.4398   -5.2352 H   0  0  0  0  0  0  0  0  0  0  0  0
    6.9205    3.0922   -6.6719 H   0  0  0  0  0  0  0  0  0  0  0  0
    9.2355    2.9028   -5.7803 H   0  0  0  0  0  0  0  0  0  0  0  0
    9.5853    2.1054   -3.5460 H   0  0  0  0  0  0  0  0  0  0  0  0
    7.7995    1.4637   -2.1047 H   0  0  0  0  0  0  0  0  0  0  0  0
  1  2  2  0
  2  3  1  0
  3  4  1  0
  4  5  1  0
  5  6  2  0
  5  7  1  0
  7  8  1  0
  8  9  1  0
  9 10  2  0
  9 11  1  0
 11 12  1  0
 12 13  1  0
 13 14  2  0
 13 15  1  0
 12 16  1  0
 16 17  1  0
 17 18  1  0
 18 19  1  0
 19 20  2  3
 20 21  1  0
 20 22  1  0
  8 23  1  0
 23 24  1  0
 24 25  2  0
 25 26  1  0
 26 27  2  0
 27 28  1  0
 28 29  2  0
  4 30  1  0
 30 31  1  0
 31 32  1  0
 32 33  1  0
 33 34  2  0
 34 35  1  0
  2 36  1  0
 36 37  1  0
 37 38  2  0
 38 39  1  0
 39 40  2  0
 40 41  1  0
 41 42  2  0
 42 43  1  0
 43 44  2  0
 29 24  1  0
 35 31  2  0
 44 39  1  0
  3 45  1  0
  4 46  1  6
  7 47  1  0
  8 48  1  1
 11 49  1  0
 12 50  1  6
 15 51  1  0
 15 52  1  0
 16 53  1  0
 16 54  1  0
 17 55  1  0
 17 56  1  0
 18 57  1  0
 18 58  1  0
 21 59  1  0
 21 60  1  0
 22 61  1  0
 22 62  1  0
 23 63  1  0
 23 64  1  0
 25 65  1  0
 26 66  1  0
 27 67  1  0
 28 68  1  0
 29 69  1  0
 30 70  1  0
 30 71  1  0
 32 72  1  0
 33 73  1  0
 35 74  1  0
 36 75  1  0
 36 76  1  0
 37 77  1  0
 38 78  1  0
 40 79  1  0
 41 80  1  0
 42 81  1  0
 43 82  1  0
 44 83  1  0
M  END
>  <Ligand ID>  (1) 
LIG0001256

>  <Ligand>  (1) 
CHEMBL565688

>  <SMILES>  (1) 
O=C(N[C@H](C(=O)N[C@@H](C(=O)N[C@@H](C(=O)N)CCCN=C(N)N)Cc1ccccc1)Cc1[nH]cnc1)C/C=C/c1ccccc1

>  <CID>  (1) 
45487294.0

>  <ChEMBL ID>  (1) 
nan

>  <InChiKey>  (1) 
KVHVZQKGTVCTQW-SGNAOXBASA-N

>  <InChi>  (1) 
InChI=1S/C31H39N9O4/c32-28(42)24(14-8-16-36-31(33)34)39-29(43)25(17-22-11-5-2-6-12-22)40-30(44)26(18-23-19-35-20-37-23)38-27(41)15-7-13-21-9-3-1-4-10-21/h1-7,9-13,19-20,24-26H,8,14-18H2,(H2,32,42)(H,35,37)(H,38,41)(H,39,43)(H,40,44)(H4,33,34,36)/b13-7+/t24-,25-,26+/m1/s1

>  <IUPAC Name>  (1) 
(2R)-5-(diaminomethylideneamino)-2-[[(2R)-2-[[(2S)-3-(1H-imidazol-5-yl)-2-[[(E)-4-phenylbut-3-enoyl]amino]propanoyl]amino]-3-phenylpropanoyl]amino]pentanamide

$$$$
