
     RDKit          3D

 24 25  0  0  0  0  0  0  0  0999 V2000
   -3.2072   -1.1744   -0.9163 O   0  0  0  0  0  0  0  0  0  0  0  0
   -2.3923   -0.0808   -0.6508 C   0  0  0  0  0  0  0  0  0  0  0  0
   -2.3406    0.8143   -1.5516 O   0  0  0  0  0  0  0  0  0  0  0  0
   -1.6120    0.0633    0.6070 C   0  0  2  0  0  0  0  0  0  0  0  0
   -0.2565    0.2379    0.3895 C   0  0  0  0  0  0  0  0  0  0  0  0
    0.4641    1.3071   -0.3539 C   0  0  0  0  0  0  0  0  0  0  0  0
    1.5515    0.4068    0.0893 C   0  0  0  0  0  0  0  0  0  0  0  0
    0.6718   -0.7180   -0.3017 C   0  0  0  0  0  0  0  0  0  0  0  0
    0.8196    0.3582    1.4150 C   0  0  0  0  0  0  0  0  0  0  0  0
    2.8986    0.5537   -0.0930 C   0  0  0  0  0  0  0  0  0  0  0  0
    3.4295    1.5473   -0.7059 O   0  0  0  0  0  0  0  0  0  0  0  0
    3.8463   -0.3803    0.3786 O   0  0  0  0  0  0  0  0  0  0  0  0
   -1.8863   -1.1121    1.4145 N   0  0  0  0  0  0  0  0  0  0  0  0
   -4.0877   -1.0680   -1.4354 H   0  0  0  0  0  0  0  0  0  0  0  0
   -2.0883    0.9043    1.1512 H   0  0  0  0  0  0  0  0  0  0  0  0
    0.2585    1.2926   -1.4431 H   0  0  0  0  0  0  0  0  0  0  0  0
    0.3785    2.2925    0.1389 H   0  0  0  0  0  0  0  0  0  0  0  0
    0.8889   -1.6662    0.1985 H   0  0  0  0  0  0  0  0  0  0  0  0
    0.4887   -0.8062   -1.4116 H   0  0  0  0  0  0  0  0  0  0  0  0
    1.0659   -0.5697    1.9731 H   0  0  0  0  0  0  0  0  0  0  0  0
    0.8074    1.2962    2.0003 H   0  0  0  0  0  0  0  0  0  0  0  0
    4.7909   -0.4034   -0.0384 H   0  0  0  0  0  0  0  0  0  0  0  0
   -1.6286   -1.9822    0.9011 H   0  0  0  0  0  0  0  0  0  0  0  0
   -2.8608   -1.1129    1.7749 H   0  0  0  0  0  0  0  0  0  0  0  0
  1  2  1  0
  2  3  2  0
  2  4  1  0
  4  5  1  0
  5  6  1  0
  6  7  1  0
  7  8  1  0
  7  9  1  0
  7 10  1  0
 10 11  2  0
 10 12  1  0
  4 13  1  0
  8  5  1  0
  9  5  1  0
  1 14  1  0
  4 15  1  1
  6 16  1  0
  6 17  1  0
  8 18  1  0
  8 19  1  0
  9 20  1  0
  9 21  1  0
 12 22  1  0
 13 23  1  0
 13 24  1  0
M  END
>  <Ligand ID>  (1) 
LIG0000664

>  <Ligand>  (1) 
CBPG

>  <SMILES>  (1) 
OC(=O)[C@H](C12CC(C1)(C2)C(=O)O)N

>  <CID>  (1) 
5311040.0

>  <ChEMBL ID>  (1) 
nan

>  <InChiKey>  (1) 
KNSHLWJBSDBBRH-XOJFDHPMSA-N

>  <InChi>  (1) 
InChI=1S/C8H11NO4/c9-4(5(10)11)7-1-8(2-7,3-7)6(12)13/h4H,1-3,9H2,(H,10,11)(H,12,13)/t4-,7?,8?/m1/s1

>  <IUPAC Name>  (1) 
3-[(S)-amino(carboxy)methyl]bicyclo[1.1.1]pentane-1-carboxylic acid

$$$$
