
     RDKit          3D

 27 28  0  0  0  0  0  0  0  0999 V2000
   -1.2528   -2.3346    0.3727 C   0  0  0  0  0  0  0  0  0  0  0  0
   -1.0319   -0.8691    0.4676 C   0  0  0  0  0  0  0  0  0  0  0  0
   -1.9533   -0.1248   -0.4458 C   0  0  0  0  0  0  0  0  0  0  0  0
   -2.1895    1.1768    0.1596 N   0  0  0  0  0  0  0  0  0  0  0  0
   -1.2290    2.1341   -0.3230 C   0  0  0  0  0  0  0  0  0  0  0  0
    0.0756    2.1057    0.4532 C   0  0  0  0  0  0  0  0  0  0  0  0
    0.8283    0.8357    0.1610 C   0  0  0  0  0  0  0  0  0  0  0  0
    0.3600   -0.4575    0.1640 C   0  0  0  0  0  0  0  0  0  0  0  0
    1.2227   -1.4656   -0.1325 C   0  0  0  0  0  0  0  0  0  0  0  0
    2.5651   -1.2444   -0.4404 C   0  0  0  0  0  0  0  0  0  0  0  0
    3.6442   -2.5788   -0.8176 Cl  0  0  0  0  0  0  0  0  0  0  0  0
    3.0421    0.0573   -0.4448 C   0  0  0  0  0  0  0  0  0  0  0  0
    2.1653    1.0893   -0.1428 C   0  0  0  0  0  0  0  0  0  0  0  0
    4.3591    0.3151   -0.7433 F   0  0  0  0  0  0  0  0  0  0  0  0
   -1.1488   -2.7505   -0.6319 H   0  0  0  0  0  0  0  0  0  0  0  0
   -2.3140   -2.5197    0.6679 H   0  0  0  0  0  0  0  0  0  0  0  0
   -0.6626   -2.8779    1.1605 H   0  0  0  0  0  0  0  0  0  0  0  0
   -1.2338   -0.5546    1.5126 H   0  0  0  0  0  0  0  0  0  0  0  0
   -1.4702   -0.0405   -1.4389 H   0  0  0  0  0  0  0  0  0  0  0  0
   -2.9307   -0.6779   -0.5577 H   0  0  0  0  0  0  0  0  0  0  0  0
   -2.1556    1.0693    1.1991 H   0  0  0  0  0  0  0  0  0  0  0  0
   -1.6511    3.1430   -0.1729 H   0  0  0  0  0  0  0  0  0  0  0  0
   -0.9989    1.8882   -1.3750 H   0  0  0  0  0  0  0  0  0  0  0  0
    0.6931    2.9363    0.1004 H   0  0  0  0  0  0  0  0  0  0  0  0
   -0.1507    2.1267    1.5307 H   0  0  0  0  0  0  0  0  0  0  0  0
    0.8651   -2.4845   -0.1329 H   0  0  0  0  0  0  0  0  0  0  0  0
    2.5524    2.1030   -0.1500 H   0  0  0  0  0  0  0  0  0  0  0  0
  1  2  1  0
  2  3  1  0
  3  4  1  0
  4  5  1  0
  5  6  1  0
  6  7  1  0
  7  8  2  0
  8  9  1  0
  9 10  2  0
 10 11  1  0
 10 12  1  0
 12 13  2  0
 12 14  1  0
  8  2  1  0
 13  7  1  0
  1 15  1  0
  1 16  1  0
  1 17  1  0
  2 18  1  0
  3 19  1  0
  3 20  1  0
  4 21  1  0
  5 22  1  0
  5 23  1  0
  6 24  1  0
  6 25  1  0
  9 26  1  0
 13 27  1  0
M  END
>  <Ligand ID>  (1) 
LIG0004029

>  <Ligand>  (1) 
CHEMBL360492

>  <SMILES>  (1) 
CC1CNCCc2c1cc(Cl)c(c2)F

>  <CID>  (1) 
9990808.0

>  <ChEMBL ID>  (1) 
nan

>  <InChiKey>  (1) 
AELPHXGUKIVCSY-UHFFFAOYSA-N

>  <InChi>  (1) 
InChI=1S/C11H13ClFN/c1-7-6-14-3-2-8-4-11(13)10(12)5-9(7)8/h4-5,7,14H,2-3,6H2,1H3

>  <IUPAC Name>  (1) 
7-chloro-8-fluoro-5-methyl-2,3,4,5-tetrahydro-1H-3-benzazepine

$$$$
