
     RDKit          3D

 70 74  0  0  0  0  0  0  0  0999 V2000
    8.5990   -1.5635    1.1349 C   0  0  0  0  0  0  0  0  0  0  0  0
    7.6198   -1.7513    0.1646 O   0  0  0  0  0  0  0  0  0  0  0  0
    6.3907   -1.1274    0.1368 C   0  0  0  0  0  0  0  0  0  0  0  0
    5.4873   -1.3995   -0.8948 C   0  0  0  0  0  0  0  0  0  0  0  0
    4.2474   -0.7625   -0.9127 C   0  0  0  0  0  0  0  0  0  0  0  0
    3.8657    0.1339    0.0512 C   0  0  0  0  0  0  0  0  0  0  0  0
    4.7846    0.3917    1.0741 C   0  0  0  0  0  0  0  0  0  0  0  0
    6.0182   -0.2336    1.1033 C   0  0  0  0  0  0  0  0  0  0  0  0
    2.5857    0.8186    0.0929 C   0  0  0  0  0  0  0  0  0  0  0  0
    1.4171    0.2370   -0.1619 C   0  0  0  0  0  0  0  0  0  0  0  0
    1.2748   -1.1862   -0.5198 C   0  0  0  0  0  0  0  0  0  0  0  0
   -0.0112   -1.6861   -0.1130 N   0  0  0  0  0  0  0  0  0  0  0  0
   -1.0293   -0.8928    0.5805 C   0  0  0  0  0  0  0  0  0  0  0  0
   -0.9668    0.5411    0.3178 C   0  0  0  0  0  0  0  0  0  0  0  0
    0.2387    1.0847   -0.0688 C   0  0  0  0  0  0  0  0  0  0  0  0
    0.0474    2.3945   -0.2759 N   0  0  0  0  0  0  0  0  0  0  0  0
   -1.2184    2.6599   -0.0285 N   0  0  0  0  0  0  0  0  0  0  0  0
   -1.8962    1.5409    0.3463 C   0  0  0  0  0  0  0  0  0  0  0  0
   -3.2890    1.5750    0.7077 C   0  0  0  0  0  0  0  0  0  0  0  0
   -3.9826    2.6365    0.5096 O   0  0  0  0  0  0  0  0  0  0  0  0
   -4.0084    0.5008    1.2923 N   0  0  0  0  0  0  0  0  0  0  0  0
   -5.4288    0.6213    1.6271 C   0  0  1  0  0  0  0  0  0  0  0  0
   -6.1701   -0.2867    0.7067 C   0  0  0  0  0  0  0  0  0  0  0  0
   -7.3346    0.1340    0.0779 C   0  0  0  0  0  0  0  0  0  0  0  0
   -8.0555   -0.6619   -0.7804 C   0  0  0  0  0  0  0  0  0  0  0  0
   -7.6180   -1.9423   -1.0427 C   0  0  0  0  0  0  0  0  0  0  0  0
   -6.4656   -2.3649   -0.4234 C   0  0  0  0  0  0  0  0  0  0  0  0
   -5.7287   -1.5846    0.4392 C   0  0  0  0  0  0  0  0  0  0  0  0
   -5.6274    0.2754    3.0702 C   0  0  0  0  0  0  0  0  0  0  0  0
    0.9914    3.3749   -0.6918 C   0  0  0  0  0  0  0  0  0  0  0  0
    1.3542    4.4548    0.0924 C   0  0  0  0  0  0  0  0  0  0  0  0
    2.2774    5.3441   -0.4190 C   0  0  0  0  0  0  0  0  0  0  0  0
    2.8304    5.1714   -1.6778 C   0  0  0  0  0  0  0  0  0  0  0  0
    2.4608    4.0821   -2.4617 C   0  0  0  0  0  0  0  0  0  0  0  0
    1.5366    3.1794   -1.9662 C   0  0  0  0  0  0  0  0  0  0  0  0
    1.0623    1.7990   -2.9499 Cl  0  0  0  0  0  0  0  0  0  0  0  0
    4.0085    6.3038   -2.3341 Cl  0  0  0  0  0  0  0  0  0  0  0  0
   -0.3745   -3.0417   -0.3832 C   0  0  0  0  0  0  0  0  0  0  0  0
   -1.5219   -3.4978   -0.0106 O   0  0  0  0  0  0  0  0  0  0  0  0
    0.4745   -4.0278   -1.0837 C   0  0  0  0  0  0  0  0  0  0  0  0
    1.7478   -3.5527   -1.5136 N   0  0  0  0  0  0  0  0  0  0  0  0
    8.2480   -1.4884    2.1723 H   0  0  0  0  0  0  0  0  0  0  0  0
    9.2132   -0.6763    0.8287 H   0  0  0  0  0  0  0  0  0  0  0  0
    9.3135   -2.4343    1.0716 H   0  0  0  0  0  0  0  0  0  0  0  0
    5.7789   -2.1059   -1.6601 H   0  0  0  0  0  0  0  0  0  0  0  0
    3.6001   -1.0075   -1.7372 H   0  0  0  0  0  0  0  0  0  0  0  0
    4.4923    1.1071    1.8522 H   0  0  0  0  0  0  0  0  0  0  0  0
    6.6791    0.0226    1.9375 H   0  0  0  0  0  0  0  0  0  0  0  0
    2.6477    1.8888    0.3607 H   0  0  0  0  0  0  0  0  0  0  0  0
    2.1015   -1.7900   -0.0743 H   0  0  0  0  0  0  0  0  0  0  0  0
    1.2572   -1.2560   -1.6484 H   0  0  0  0  0  0  0  0  0  0  0  0
   -1.1437   -1.1797    1.6353 H   0  0  0  0  0  0  0  0  0  0  0  0
   -1.9924   -1.2387    0.0736 H   0  0  0  0  0  0  0  0  0  0  0  0
   -3.5609   -0.3909    1.5110 H   0  0  0  0  0  0  0  0  0  0  0  0
   -5.7627    1.6547    1.3757 H   0  0  0  0  0  0  0  0  0  0  0  0
   -7.6533    1.1541    0.3074 H   0  0  0  0  0  0  0  0  0  0  0  0
   -8.9469   -0.2372   -1.2149 H   0  0  0  0  0  0  0  0  0  0  0  0
   -8.1894   -2.5796   -1.7262 H   0  0  0  0  0  0  0  0  0  0  0  0
   -6.0770   -3.3739   -0.5993 H   0  0  0  0  0  0  0  0  0  0  0  0
   -4.8245   -1.9248    0.9213 H   0  0  0  0  0  0  0  0  0  0  0  0
   -5.8038   -0.8240    3.1323 H   0  0  0  0  0  0  0  0  0  0  0  0
   -4.7659    0.6180    3.6502 H   0  0  0  0  0  0  0  0  0  0  0  0
   -6.5666    0.7413    3.4574 H   0  0  0  0  0  0  0  0  0  0  0  0
    0.9034    4.5641    1.0777 H   0  0  0  0  0  0  0  0  0  0  0  0
    2.5728    6.2055    0.1942 H   0  0  0  0  0  0  0  0  0  0  0  0
    2.8718    3.9151   -3.4482 H   0  0  0  0  0  0  0  0  0  0  0  0
    0.6473   -4.8491   -0.3254 H   0  0  0  0  0  0  0  0  0  0  0  0
   -0.0776   -4.5185   -1.9241 H   0  0  0  0  0  0  0  0  0  0  0  0
    1.9457   -3.7060   -2.5199 H   0  0  0  0  0  0  0  0  0  0  0  0
    2.4992   -3.9819   -0.9583 H   0  0  0  0  0  0  0  0  0  0  0  0
  1  2  1  0
  2  3  1  0
  3  4  2  0
  4  5  1  0
  5  6  2  0
  6  7  1  0
  7  8  2  0
  6  9  1  0
  9 10  2  0
 10 11  1  0
 11 12  1  0
 12 13  1  0
 13 14  1  0
 14 15  2  0
 15 16  1  0
 16 17  1  0
 17 18  2  0
 18 19  1  0
 19 20  2  0
 19 21  1  0
 21 22  1  0
 22 23  1  0
 23 24  2  0
 24 25  1  0
 25 26  2  0
 26 27  1  0
 27 28  2  0
 22 29  1  0
 16 30  1  0
 30 31  2  0
 31 32  1  0
 32 33  2  0
 33 34  1  0
 34 35  2  0
 35 36  1  0
 33 37  1  0
 12 38  1  0
 38 39  2  0
 38 40  1  0
 40 41  1  0
  8  3  1  0
 15 10  1  0
 28 23  1  0
 35 30  1  0
 18 14  1  0
  1 42  1  0
  1 43  1  0
  1 44  1  0
  4 45  1  0
  5 46  1  0
  7 47  1  0
  8 48  1  0
  9 49  1  0
 11 50  1  0
 11 51  1  0
 13 52  1  0
 13 53  1  0
 21 54  1  0
 22 55  1  1
 24 56  1  0
 25 57  1  0
 26 58  1  0
 27 59  1  0
 28 60  1  0
 29 61  1  0
 29 62  1  0
 29 63  1  0
 31 64  1  0
 32 65  1  0
 34 66  1  0
 40 67  1  0
 40 68  1  0
 41 69  1  0
 41 70  1  0
M  END
>  <Ligand ID>  (1) 
LIG0005412

>  <Ligand>  (1) 
CHEMBL3902561

>  <SMILES>  (1) 
COc1ccc(cc1)/C=C/1\CN(Cc2c1n(nc2C(=O)N[C@@H](c1ccccc1)C)c1ccc(cc1Cl)Cl)C(=O)CN

>  <CID>  (1) 
134135104.0

>  <ChEMBL ID>  (1) 
nan

>  <InChiKey>  (1) 
WBBZGOJRCWGLHH-VZMFNRANSA-N

>  <InChi>  (1) 
InChI=1S/C31H29Cl2N5O3/c1-19(21-6-4-3-5-7-21)35-31(40)29-25-18-37(28(39)16-34)17-22(14-20-8-11-24(41-2)12-9-20)30(25)38(36-29)27-13-10-23(32)15-26(27)33/h3-15,19H,16-18,34H2,1-2H3,(H,35,40)/b22-14+/t19-/m1/s1

>  <IUPAC Name>  (1) 
(7E)-5-(2-aminoacetyl)-1-(2,4-dichlorophenyl)-7-[(4-methoxyphenyl)methylidene]-N-[(1R)-1-phenylethyl]-4,6-dihydropyrazolo[4,3-c]pyridine-3-carboxamide

$$$$
