
     RDKit          3D

 78 82  0  0  0  0  0  0  0  0999 V2000
    7.9263   -2.6191   -1.4457 C   0  0  0  0  0  0  0  0  0  0  0  0
    6.6630   -3.1272   -1.1127 O   0  0  0  0  0  0  0  0  0  0  0  0
    5.5697   -2.2880   -1.0718 C   0  0  0  0  0  0  0  0  0  0  0  0
    5.6264   -0.9345   -1.3448 C   0  0  0  0  0  0  0  0  0  0  0  0
    4.4674   -0.1630   -1.2784 C   0  0  0  0  0  0  0  0  0  0  0  0
    3.2722   -0.7601   -0.9400 C   0  0  0  0  0  0  0  0  0  0  0  0
    3.1814   -2.1287   -0.6577 C   0  0  0  0  0  0  0  0  0  0  0  0
    4.3539   -2.8477   -0.7367 C   0  0  0  0  0  0  0  0  0  0  0  0
    2.0399   -0.0434   -0.8520 N   0  0  0  0  0  0  0  0  0  0  0  0
    1.7556    0.5273    0.4428 C   0  0  0  0  0  0  0  0  0  0  0  0
    2.5994    0.3506    1.3532 O   0  0  0  0  0  0  0  0  0  0  0  0
    0.5587    1.2498    0.6296 N   0  0  0  0  0  0  0  0  0  0  0  0
    0.2092    1.8468    1.8769 C   0  0  2  0  0  0  0  0  0  0  0  0
   -0.9715    1.2486    2.5197 C   0  0  0  0  0  0  0  0  0  0  0  0
   -1.4332    1.6495    3.6262 O   0  0  0  0  0  0  0  0  0  0  0  0
   -1.5988    0.1538    1.8162 N   0  0  0  0  0  0  0  0  0  0  0  0
   -2.7557   -0.4473    2.4268 C   0  0  0  0  0  0  0  0  0  0  0  0
   -3.3625   -1.5733    1.6602 C   0  0  0  0  0  0  0  0  0  0  0  0
   -4.5524   -2.0579    2.4691 C   0  0  0  0  0  0  0  0  0  0  0  0
   -5.2241   -3.2462    1.8531 C   0  0  0  0  0  0  0  0  0  0  0  0
   -4.4566   -3.9126    0.7577 C   0  0  0  0  0  0  0  0  0  0  0  0
   -2.9759   -3.9271    0.9272 C   0  0  0  0  0  0  0  0  0  0  0  0
   -2.3905   -2.7309    1.5960 C   0  0  0  0  0  0  0  0  0  0  0  0
   -3.7437   -1.1833    0.2930 C   0  0  0  0  0  0  0  0  0  0  0  0
   -5.0058   -0.6780    0.0379 C   0  0  0  0  0  0  0  0  0  0  0  0
   -5.4253   -0.2962   -1.2188 C   0  0  0  0  0  0  0  0  0  0  0  0
   -4.5262   -0.4296   -2.2768 C   0  0  0  0  0  0  0  0  0  0  0  0
   -3.2643   -0.9387   -1.9992 C   0  0  0  0  0  0  0  0  0  0  0  0
   -2.8887   -1.3018   -0.7587 N   0  0  0  0  0  0  0  0  0  0  0  0
   -4.9077   -0.0585   -3.5520 O   0  0  0  0  0  0  0  0  0  0  0  0
   -4.1020   -0.1421   -4.6998 C   0  0  0  0  0  0  0  0  0  0  0  0
    0.2015    3.3213    1.7821 C   0  0  0  0  0  0  0  0  0  0  0  0
    1.4997    3.9218    1.4010 C   0  0  0  0  0  0  0  0  0  0  0  0
    2.3952    4.4740    2.3316 C   0  0  0  0  0  0  0  0  0  0  0  0
    3.4864    4.9160    1.7073 N   0  0  0  0  0  0  0  0  0  0  0  0
    3.3475    4.6771    0.3920 C   0  0  0  0  0  0  0  0  0  0  0  0
    2.1197    4.0627    0.2001 C   0  0  0  0  0  0  0  0  0  0  0  0
    1.7562    3.7299   -1.0628 C   0  0  0  0  0  0  0  0  0  0  0  0
    2.5553    3.9761   -2.1534 C   0  0  0  0  0  0  0  0  0  0  0  0
    3.7977    4.5935   -1.9832 C   0  0  0  0  0  0  0  0  0  0  0  0
    4.1379    4.9198   -0.6909 C   0  0  0  0  0  0  0  0  0  0  0  0
    7.8975   -1.9151   -2.2868 H   0  0  0  0  0  0  0  0  0  0  0  0
    8.5728   -3.5015   -1.7036 H   0  0  0  0  0  0  0  0  0  0  0  0
    8.3196   -2.1440   -0.5014 H   0  0  0  0  0  0  0  0  0  0  0  0
    6.5844   -0.4870   -1.6103 H   0  0  0  0  0  0  0  0  0  0  0  0
    4.4915    0.9135   -1.4919 H   0  0  0  0  0  0  0  0  0  0  0  0
    2.2216   -2.5852   -0.3904 H   0  0  0  0  0  0  0  0  0  0  0  0
    4.2784   -3.9223   -0.5146 H   0  0  0  0  0  0  0  0  0  0  0  0
    1.3835    0.0673   -1.6567 H   0  0  0  0  0  0  0  0  0  0  0  0
   -0.0893    1.3387   -0.1830 H   0  0  0  0  0  0  0  0  0  0  0  0
    1.0665    1.5793    2.5716 H   0  0  0  0  0  0  0  0  0  0  0  0
   -1.2340   -0.1923    0.9030 H   0  0  0  0  0  0  0  0  0  0  0  0
   -2.6079   -0.7692    3.4661 H   0  0  0  0  0  0  0  0  0  0  0  0
   -3.5301    0.3733    2.4656 H   0  0  0  0  0  0  0  0  0  0  0  0
   -5.2534   -1.2299    2.7173 H   0  0  0  0  0  0  0  0  0  0  0  0
   -4.1170   -2.3773    3.4601 H   0  0  0  0  0  0  0  0  0  0  0  0
   -6.1834   -2.8751    1.4153 H   0  0  0  0  0  0  0  0  0  0  0  0
   -5.5480   -3.9835    2.6400 H   0  0  0  0  0  0  0  0  0  0  0  0
   -4.7785   -4.9957    0.7520 H   0  0  0  0  0  0  0  0  0  0  0  0
   -4.7843   -3.5550   -0.2592 H   0  0  0  0  0  0  0  0  0  0  0  0
   -2.5343   -4.0461   -0.1052 H   0  0  0  0  0  0  0  0  0  0  0  0
   -2.6327   -4.8278    1.5077 H   0  0  0  0  0  0  0  0  0  0  0  0
   -1.9788   -2.9339    2.6144 H   0  0  0  0  0  0  0  0  0  0  0  0
   -1.5185   -2.3573    0.9929 H   0  0  0  0  0  0  0  0  0  0  0  0
   -5.7434   -0.5568    0.8415 H   0  0  0  0  0  0  0  0  0  0  0  0
   -6.3895    0.0950   -1.4408 H   0  0  0  0  0  0  0  0  0  0  0  0
   -2.5677   -1.0378   -2.8433 H   0  0  0  0  0  0  0  0  0  0  0  0
   -4.0534   -1.1972   -5.0737 H   0  0  0  0  0  0  0  0  0  0  0  0
   -3.0792    0.2713   -4.5529 H   0  0  0  0  0  0  0  0  0  0  0  0
   -4.5973    0.4744   -5.5017 H   0  0  0  0  0  0  0  0  0  0  0  0
   -0.5208    3.6767    0.9841 H   0  0  0  0  0  0  0  0  0  0  0  0
   -0.1449    3.8462    2.6934 H   0  0  0  0  0  0  0  0  0  0  0  0
    2.2535    4.5478    3.4111 H   0  0  0  0  0  0  0  0  0  0  0  0
    4.3094    5.3718    2.1686 H   0  0  0  0  0  0  0  0  0  0  0  0
    0.8089    3.2643   -1.2387 H   0  0  0  0  0  0  0  0  0  0  0  0
    2.2536    3.7038   -3.1650 H   0  0  0  0  0  0  0  0  0  0  0  0
    4.4086    4.7778   -2.8417 H   0  0  0  0  0  0  0  0  0  0  0  0
    5.1017    5.4055   -0.5079 H   0  0  0  0  0  0  0  0  0  0  0  0
  1  2  1  0
  2  3  1  0
  3  4  2  0
  4  5  1  0
  5  6  2  0
  6  7  1  0
  7  8  2  0
  6  9  1  0
  9 10  1  0
 10 11  2  0
 10 12  1  0
 12 13  1  0
 13 14  1  0
 14 15  2  0
 14 16  1  0
 16 17  1  0
 17 18  1  0
 18 19  1  0
 19 20  1  0
 20 21  1  0
 21 22  1  0
 22 23  1  0
 18 24  1  0
 24 25  2  0
 25 26  1  0
 26 27  2  0
 27 28  1  0
 28 29  2  0
 27 30  1  0
 30 31  1  0
 13 32  1  0
 32 33  1  0
 33 34  2  0
 34 35  1  0
 35 36  1  0
 36 37  2  0
 37 38  1  0
 38 39  2  0
 39 40  1  0
 40 41  2  0
  8  3  1  0
 23 18  1  0
 29 24  1  0
 37 33  1  0
 41 36  1  0
  1 42  1  0
  1 43  1  0
  1 44  1  0
  4 45  1  0
  5 46  1  0
  7 47  1  0
  8 48  1  0
  9 49  1  0
 12 50  1  0
 13 51  1  1
 16 52  1  0
 17 53  1  0
 17 54  1  0
 19 55  1  0
 19 56  1  0
 20 57  1  0
 20 58  1  0
 21 59  1  0
 21 60  1  0
 22 61  1  0
 22 62  1  0
 23 63  1  0
 23 64  1  0
 25 65  1  0
 26 66  1  0
 28 67  1  0
 31 68  1  0
 31 69  1  0
 31 70  1  0
 32 71  1  0
 32 72  1  0
 34 73  1  0
 35 74  1  0
 38 75  1  0
 39 76  1  0
 40 77  1  0
 41 78  1  0
M  END
>  <Ligand ID>  (1) 
LIG0004822

>  <Ligand>  (1) 
CHEMBL3588871

>  <SMILES>  (1) 
COc1ccc(cc1)NC(=O)N[C@H](C(=O)NCC1(CCCCC1)c1ccc(cn1)OC)Cc1c[nH]c2c1cccc2

>  <CID>  (1) 
122181231.0

>  <ChEMBL ID>  (1) 
nan

>  <InChiKey>  (1) 
JAXBSUHCBCRGPW-NDEPHWFRSA-N

>  <InChi>  (1) 
InChI=1S/C32H37N5O4/c1-40-24-12-10-23(11-13-24)36-31(39)37-28(18-22-19-33-27-9-5-4-8-26(22)27)30(38)35-21-32(16-6-3-7-17-32)29-15-14-25(41-2)20-34-29/h4-5,8-15,19-20,28,33H,3,6-7,16-18,21H2,1-2H3,(H,35,38)(H2,36,37,39)/t28-/m0/s1

>  <IUPAC Name>  (1) 
(2S)-3-(1H-indol-3-yl)-2-[(4-methoxyphenyl)carbamoylamino]-N-[[1-(5-methoxypyridin-2-yl)cyclohexyl]methyl]propanamide

$$$$
