
     RDKit          3D

129131  0  0  0  0  0  0  0  0999 V2000
  -10.1898    0.8581   -3.7390 C   0  0  0  0  0  0  0  0  0  0  0  0
   -8.3941    1.0158   -3.4715 S   0  0  0  0  0  0  0  0  0  0  0  0
   -7.7963    2.6103   -4.0240 C   0  0  0  0  0  0  0  0  0  0  0  0
   -6.3416    2.8449   -3.8523 C   0  0  0  0  0  0  0  0  0  0  0  0
   -5.8232    2.8244   -2.4430 C   0  0  1  0  0  0  0  0  0  0  0  0
   -6.4847    3.8558   -1.6049 C   0  0  0  0  0  0  0  0  0  0  0  0
   -6.9857    3.6965   -0.4925 O   0  0  0  0  0  0  0  0  0  0  0  0
   -6.5359    5.1842   -2.1751 N   0  0  0  0  0  0  0  0  0  0  0  0
   -5.8124    1.5133   -1.8974 N   0  0  0  0  0  0  0  0  0  0  0  0
   -4.5876    0.8878   -1.5949 C   0  0  0  0  0  0  0  0  0  0  0  0
   -3.5282    1.5822   -1.8404 O   0  0  0  0  0  0  0  0  0  0  0  0
   -4.3572   -0.4364   -1.0450 C   0  0  1  0  0  0  0  0  0  0  0  0
   -2.9366   -0.7516   -0.9231 N   0  0  0  0  0  0  0  0  0  0  0  0
   -2.3709   -1.5918    0.0478 C   0  0  0  0  0  0  0  0  0  0  0  0
   -3.0178   -2.1706    0.9748 O   0  0  0  0  0  0  0  0  0  0  0  0
   -0.8851   -1.8837    0.0882 C   0  0  0  0  0  0  0  0  0  0  0  0
   -0.5850   -2.5114    1.3325 N   0  0  0  0  0  0  0  0  0  0  0  0
   -0.6473   -3.9700    1.5453 C   0  0  0  0  0  0  0  0  0  0  0  0
    0.7717   -4.4386    1.3656 C   0  0  0  0  0  0  0  0  0  0  0  0
    0.9475   -5.9375    1.4625 C   0  0  0  0  0  0  0  0  0  0  0  0
    2.3449   -6.3077    1.4443 N   0  0  0  0  0  0  0  0  0  0  0  0
    3.2583   -5.9715    0.4104 C   0  0  0  0  0  0  0  0  0  0  0  0
    2.7737   -5.3096   -0.5233 O   0  0  0  0  0  0  0  0  0  0  0  0
    4.6742   -6.3337    0.3748 C   0  0  0  0  0  0  0  0  0  0  0  0
    5.4707   -5.4122   -0.5465 C   0  0  0  0  0  0  0  0  0  0  0  0
    5.3798   -4.0170   -0.0115 C   0  0  0  0  0  0  0  0  0  0  0  0
    4.8264   -3.8321    1.0705 O   0  0  0  0  0  0  0  0  0  0  0  0
    5.8948   -2.8718   -0.6797 N   0  0  0  0  0  0  0  0  0  0  0  0
    5.7245   -1.5677   -0.0088 C   0  0  2  0  0  0  0  0  0  0  0  0
    4.4310   -0.9762   -0.4076 C   0  0  0  0  0  0  0  0  0  0  0  0
    3.7396   -1.5966   -1.2411 O   0  0  0  0  0  0  0  0  0  0  0  0
    3.8725    0.2290    0.0570 N   0  0  0  0  0  0  0  0  0  0  0  0
    2.4923    0.6636   -0.4250 C   0  0  1  0  0  0  0  0  0  0  0  0
    1.7549    0.3312    0.7985 C   0  0  0  0  0  0  0  0  0  0  0  0
    2.4931   -0.0863    1.7662 O   0  0  0  0  0  0  0  0  0  0  0  0
    0.3804    0.3781    1.1306 N   0  0  0  0  0  0  0  0  0  0  0  0
   -0.0061   -0.1664    2.4101 C   0  0  2  0  0  0  0  0  0  0  0  0
   -0.2595   -1.6460    2.4074 C   0  0  0  0  0  0  0  0  0  0  0  0
   -0.1991   -2.2249    3.4770 O   0  0  0  0  0  0  0  0  0  0  0  0
   -1.1164    0.5553    3.0733 C   0  0  0  0  0  0  0  0  0  0  0  0
   -0.7904    1.9625    3.3355 C   0  0  0  0  0  0  0  0  0  0  0  0
   -1.1735    2.9372    2.4008 C   0  0  0  0  0  0  0  0  0  0  0  0
   -0.9138    4.2814    2.6068 C   0  0  0  0  0  0  0  0  0  0  0  0
   -0.2637    4.7300    3.7433 C   0  0  0  0  0  0  0  0  0  0  0  0
    0.1135    3.7744    4.6597 C   0  0  0  0  0  0  0  0  0  0  0  0
   -0.1440    2.4157    4.4609 C   0  0  0  0  0  0  0  0  0  0  0  0
    2.5510    2.0545   -0.8566 C   0  0  0  0  0  0  0  0  0  0  0  0
    1.2722    2.5416   -1.4042 C   0  0  0  0  0  0  0  0  0  0  0  0
    1.0265    2.1985   -2.7452 C   0  0  0  0  0  0  0  0  0  0  0  0
   -0.1191    2.6375   -3.3558 C   0  0  0  0  0  0  0  0  0  0  0  0
   -1.0185    3.4095   -2.6491 C   0  0  0  0  0  0  0  0  0  0  0  0
   -0.7890    3.7561   -1.3231 C   0  0  0  0  0  0  0  0  0  0  0  0
    0.3610    3.3108   -0.7266 C   0  0  0  0  0  0  0  0  0  0  0  0
    6.8851   -0.6690   -0.1156 C   0  0  0  0  0  0  0  0  0  0  0  0
    7.2986   -0.2865   -1.5147 C   0  0  0  0  0  0  0  0  0  0  0  0
    8.5213    0.6256   -1.3491 C   0  0  0  0  0  0  0  0  0  0  0  0
    9.5369   -0.1122   -0.6547 N   0  0  0  0  0  0  0  0  0  0  0  0
   10.0438    0.2382    0.4786 C   0  0  0  0  0  0  0  0  0  0  0  0
   11.0661   -0.5663    1.1104 N   0  0  0  0  0  0  0  0  0  0  0  0
    9.5935    1.4191    1.1063 N   0  0  0  0  0  0  0  0  0  0  0  0
   -5.1700   -0.8480    0.1107 C   0  0  0  0  0  0  0  0  0  0  0  0
   -5.1601   -0.1059    1.3921 C   0  0  0  0  0  0  0  0  0  0  0  0
   -5.6710    1.3158    1.2941 C   0  0  0  0  0  0  0  0  0  0  0  0
   -6.0477   -0.8254    2.4375 C   0  0  0  0  0  0  0  0  0  0  0  0
  -10.6731    1.8509   -3.5714 H   0  0  0  0  0  0  0  0  0  0  0  0
  -10.3485    0.4527   -4.7615 H   0  0  0  0  0  0  0  0  0  0  0  0
  -10.6347    0.1319   -3.0316 H   0  0  0  0  0  0  0  0  0  0  0  0
   -8.3946    3.4219   -3.5305 H   0  0  0  0  0  0  0  0  0  0  0  0
   -8.0105    2.6623   -5.1326 H   0  0  0  0  0  0  0  0  0  0  0  0
   -5.8234    2.0000   -4.3995 H   0  0  0  0  0  0  0  0  0  0  0  0
   -6.0233    3.7812   -4.3715 H   0  0  0  0  0  0  0  0  0  0  0  0
   -4.7366    3.1598   -2.5436 H   0  0  0  0  0  0  0  0  0  0  0  0
   -7.4301    5.7405   -2.1136 H   0  0  0  0  0  0  0  0  0  0  0  0
   -5.6751    5.5660   -2.6372 H   0  0  0  0  0  0  0  0  0  0  0  0
   -6.6833    0.9567   -1.6832 H   0  0  0  0  0  0  0  0  0  0  0  0
   -4.6750   -1.2115   -1.8465 H   0  0  0  0  0  0  0  0  0  0  0  0
   -2.2302   -0.3219   -1.5996 H   0  0  0  0  0  0  0  0  0  0  0  0
   -0.8429   -2.7883   -0.6762 H   0  0  0  0  0  0  0  0  0  0  0  0
   -0.3118   -1.1656   -0.3762 H   0  0  0  0  0  0  0  0  0  0  0  0
   -1.3378   -4.4461    0.8610 H   0  0  0  0  0  0  0  0  0  0  0  0
   -0.9428   -4.2016    2.5844 H   0  0  0  0  0  0  0  0  0  0  0  0
    1.3816   -3.9501    2.1709 H   0  0  0  0  0  0  0  0  0  0  0  0
    1.1415   -4.0301    0.3921 H   0  0  0  0  0  0  0  0  0  0  0  0
    0.4126   -6.4068    0.6084 H   0  0  0  0  0  0  0  0  0  0  0  0
    0.4628   -6.2773    2.3995 H   0  0  0  0  0  0  0  0  0  0  0  0
    2.7430   -6.8532    2.2198 H   0  0  0  0  0  0  0  0  0  0  0  0
    4.8831   -7.3474    0.0405 H   0  0  0  0  0  0  0  0  0  0  0  0
    5.1097   -6.2190    1.3781 H   0  0  0  0  0  0  0  0  0  0  0  0
    6.5206   -5.6791   -0.6165 H   0  0  0  0  0  0  0  0  0  0  0  0
    5.0067   -5.4417   -1.5297 H   0  0  0  0  0  0  0  0  0  0  0  0
    6.3414   -3.0242   -1.5695 H   0  0  0  0  0  0  0  0  0  0  0  0
    5.5999   -1.7832    1.1151 H   0  0  0  0  0  0  0  0  0  0  0  0
    4.4069    0.7869    0.7040 H   0  0  0  0  0  0  0  0  0  0  0  0
    2.2194   -0.0326   -1.2567 H   0  0  0  0  0  0  0  0  0  0  0  0
   -0.2420    0.8236    0.4768 H   0  0  0  0  0  0  0  0  0  0  0  0
    0.8918   -0.0954    3.1319 H   0  0  0  0  0  0  0  0  0  0  0  0
   -1.9783    0.5468    2.3566 H   0  0  0  0  0  0  0  0  0  0  0  0
   -1.4300    0.0380    4.0229 H   0  0  0  0  0  0  0  0  0  0  0  0
   -1.6865    2.5703    1.5006 H   0  0  0  0  0  0  0  0  0  0  0  0
   -1.2383    4.9860    1.8481 H   0  0  0  0  0  0  0  0  0  0  0  0
   -0.0819    5.7831    3.8836 H   0  0  0  0  0  0  0  0  0  0  0  0
    0.6241    4.1270    5.5583 H   0  0  0  0  0  0  0  0  0  0  0  0
    0.1576    1.6771    5.1816 H   0  0  0  0  0  0  0  0  0  0  0  0
    2.7160    2.7178    0.0639 H   0  0  0  0  0  0  0  0  0  0  0  0
    3.4144    2.3135   -1.5085 H   0  0  0  0  0  0  0  0  0  0  0  0
    1.7293    1.5919   -3.3056 H   0  0  0  0  0  0  0  0  0  0  0  0
   -0.2785    2.3479   -4.3975 H   0  0  0  0  0  0  0  0  0  0  0  0
   -1.9050    3.7275   -3.1585 H   0  0  0  0  0  0  0  0  0  0  0  0
   -1.4688    4.3588   -0.7367 H   0  0  0  0  0  0  0  0  0  0  0  0
    0.6267    3.5448    0.3071 H   0  0  0  0  0  0  0  0  0  0  0  0
    7.7527   -1.0078    0.4866 H   0  0  0  0  0  0  0  0  0  0  0  0
    6.5830    0.3029    0.3703 H   0  0  0  0  0  0  0  0  0  0  0  0
    7.5183   -1.1301   -2.1622 H   0  0  0  0  0  0  0  0  0  0  0  0
    6.5048    0.3447   -1.9499 H   0  0  0  0  0  0  0  0  0  0  0  0
    8.9030    0.9909   -2.3242 H   0  0  0  0  0  0  0  0  0  0  0  0
    8.2580    1.5159   -0.7507 H   0  0  0  0  0  0  0  0  0  0  0  0
   12.0401   -0.1727    1.2642 H   0  0  0  0  0  0  0  0  0  0  0  0
   10.8466   -1.5355    1.4219 H   0  0  0  0  0  0  0  0  0  0  0  0
   10.2138    2.2657    1.2465 H   0  0  0  0  0  0  0  0  0  0  0  0
    8.5990    1.4768    1.4543 H   0  0  0  0  0  0  0  0  0  0  0  0
   -5.1512   -1.9765    0.2708 H   0  0  0  0  0  0  0  0  0  0  0  0
   -6.2878   -0.7612   -0.2196 H   0  0  0  0  0  0  0  0  0  0  0  0
   -4.1491    0.0108    1.8559 H   0  0  0  0  0  0  0  0  0  0  0  0
   -4.9525    1.9977    0.8240 H   0  0  0  0  0  0  0  0  0  0  0  0
   -5.8825    1.7413    2.3065 H   0  0  0  0  0  0  0  0  0  0  0  0
   -6.6256    1.3611    0.7334 H   0  0  0  0  0  0  0  0  0  0  0  0
   -6.1175   -1.9010    2.1219 H   0  0  0  0  0  0  0  0  0  0  0  0
   -7.0818   -0.4273    2.4179 H   0  0  0  0  0  0  0  0  0  0  0  0
   -5.6557   -0.6998    3.4486 H   0  0  0  0  0  0  0  0  0  0  0  0
  1  2  1  0
  2  3  1  0
  3  4  1  0
  4  5  1  0
  5  6  1  0
  6  7  2  0
  6  8  1  0
  5  9  1  0
  9 10  1  0
 10 11  2  0
 10 12  1  0
 12 13  1  0
 13 14  1  0
 14 15  2  0
 14 16  1  0
 16 17  1  0
 17 18  1  0
 18 19  1  0
 19 20  1  0
 20 21  1  0
 21 22  1  0
 22 23  2  0
 22 24  1  0
 24 25  1  0
 25 26  1  0
 26 27  2  0
 26 28  1  0
 28 29  1  0
 29 30  1  0
 30 31  2  0
 30 32  1  0
 32 33  1  0
 33 34  1  0
 34 35  2  0
 34 36  1  0
 36 37  1  0
 37 38  1  0
 38 39  2  0
 37 40  1  0
 40 41  1  0
 41 42  2  0
 42 43  1  0
 43 44  2  0
 44 45  1  0
 45 46  2  0
 33 47  1  0
 47 48  1  0
 48 49  2  0
 49 50  1  0
 50 51  2  0
 51 52  1  0
 52 53  2  0
 29 54  1  0
 54 55  1  0
 55 56  1  0
 56 57  1  0
 57 58  2  3
 58 59  1  0
 58 60  1  0
 12 61  1  0
 61 62  1  0
 62 63  1  0
 62 64  1  0
 38 17  1  0
 46 41  1  0
 53 48  1  0
  1 65  1  0
  1 66  1  0
  1 67  1  0
  3 68  1  0
  3 69  1  0
  4 70  1  0
  4 71  1  0
  5 72  1  6
  8 73  1  0
  8 74  1  0
  9 75  1  0
 12 76  1  6
 13 77  1  0
 16 78  1  0
 16 79  1  0
 18 80  1  0
 18 81  1  0
 19 82  1  0
 19 83  1  0
 20 84  1  0
 20 85  1  0
 21 86  1  0
 24 87  1  0
 24 88  1  0
 25 89  1  0
 25 90  1  0
 28 91  1  0
 29 92  1  1
 32 93  1  0
 33 94  1  6
 36 95  1  0
 37 96  1  1
 40 97  1  0
 40 98  1  0
 42 99  1  0
 43100  1  0
 44101  1  0
 45102  1  0
 46103  1  0
 47104  1  0
 47105  1  0
 49106  1  0
 50107  1  0
 51108  1  0
 52109  1  0
 53110  1  0
 54111  1  0
 54112  1  0
 55113  1  0
 55114  1  0
 56115  1  0
 56116  1  0
 59117  1  0
 59118  1  0
 60119  1  0
 60120  1  0
 61121  1  0
 61122  1  0
 62123  1  0
 63124  1  0
 63125  1  0
 63126  1  0
 64127  1  0
 64128  1  0
 64129  1  0
M  END
>  <Ligand ID>  (1) 
LIG0003435

>  <Ligand>  (1) 
CHEMBL110177

>  <SMILES>  (1) 
CSCC[C@@H](C(=O)N)NC(=O)[C@@H](NC(=O)CN1CCCNC(=O)CCC(=O)N[C@H](C(=O)N[C@@H](C(=O)N[C@H](C1=O)Cc1ccccc1)Cc1ccccc1)CCCN=C(N)N)CC(C)C

>  <CID>  (1) 
44337787.0

>  <ChEMBL ID>  (1) 
nan

>  <InChiKey>  (1) 
ZFMPRZDNGINSND-ISWDJSIVSA-N

>  <InChi>  (1) 
InChI=1S/C44H65N11O8S/c1-28(2)24-33(41(61)52-31(39(45)59)19-23-64-3)51-38(58)27-55-22-11-21-48-36(56)17-18-37(57)50-32(16-10-20-49-44(46)47)40(60)53-34(25-29-12-6-4-7-13-29)42(62)54-35(43(55)63)26-30-14-8-5-9-15-30/h4-9,12-15,28,31-35H,10-11,16-27H2,1-3H3,(H2,45,59)(H,48,56)(H,50,57)(H,51,58)(H,52,61)(H,53,60)(H,54,62)(H4,46,47,49)/t31-,32-,33-,34+,35-/m0/s1

>  <IUPAC Name>  (1) 
(2S)-N-[(2S)-1-amino-4-methylsulfanyl-1-oxobutan-2-yl]-2-[[2-[(2S,5R,8S)-5,8-dibenzyl-2-[3-(diaminomethylideneamino)propyl]-3,6,9,15,18-pentaoxo-1,4,7,10,14-pentazacyclooctadec-10-yl]acetyl]amino]-4-methylpentanamide

$$$$
