
     RDKit          3D

 79 82  0  0  0  0  0  0  0  0999 V2000
   -3.1087    0.4391   -0.3490 C   0  0  0  0  0  0  0  0  0  0  0  0
   -1.6636    0.1711   -0.1331 C   0  0  0  0  0  0  0  0  0  0  0  0
   -1.1628   -0.2525    1.0935 C   0  0  0  0  0  0  0  0  0  0  0  0
    0.2077   -0.4902    1.2411 C   0  0  0  0  0  0  0  0  0  0  0  0
    1.0409   -0.2935    0.1425 C   0  0  0  0  0  0  0  0  0  0  0  0
    0.5573    0.1265   -1.0800 C   0  0  0  0  0  0  0  0  0  0  0  0
   -0.8123    0.3566   -1.2015 C   0  0  0  0  0  0  0  0  0  0  0  0
    2.7672   -0.5849    0.3006 S   0  0  0  0  0  0  0  0  0  0  0  0
    3.0075   -1.6293    1.3818 O   0  0  0  0  0  0  0  0  0  0  0  0
    3.3600   -1.1062   -0.9589 O   0  0  0  0  0  0  0  0  0  0  0  0
    3.5729    0.7933    0.7797 O   0  0  0  0  0  0  0  0  0  0  0  0
    7.6692    0.7764   -0.5303 N   0  0  0  0  0  0  0  0  0  0  0  0
    6.5303    0.3964    0.2529 C   0  0  0  0  0  0  0  0  0  0  0  0
    6.3867    0.9801    1.3787 N   0  0  0  0  0  0  0  0  0  0  0  0
    5.4617   -0.8484   -0.4198 S   0  0  0  0  0  0  0  0  0  0  0  0
    4.0084   -1.0654    0.6788 C   0  0  0  0  0  0  0  0  0  0  0  0
    3.1566   -2.2064    0.2013 C   0  0  0  0  0  0  0  0  0  0  0  0
    1.6898   -2.0040    0.2798 C   0  0  0  0  0  0  0  0  0  0  0  0
    1.2612   -0.7443   -0.4365 C   0  0  0  0  0  0  0  0  0  0  0  0
    2.0024    0.3658    0.1738 C   0  0  0  0  0  0  0  0  0  0  0  0
    1.4621    1.5759    0.1496 C   0  0  0  0  0  0  0  0  0  0  0  0
    0.1499    1.9046   -0.4526 C   0  0  0  0  0  0  0  0  0  0  0  0
   -0.5662    0.7220   -0.9899 C   0  0  0  0  0  0  0  0  0  0  0  0
   -0.2540   -0.5620   -0.2817 C   0  0  0  0  0  0  0  0  0  0  0  0
   -0.6820   -0.5758    1.1474 C   0  0  0  0  0  0  0  0  0  0  0  0
   -1.8516    0.2861    1.4718 C   0  0  0  0  0  0  0  0  0  0  0  0
   -2.7095    0.7088    0.3425 C   0  0  0  0  0  0  0  0  0  0  0  0
   -2.0512    0.9331   -0.9796 C   0  0  0  0  0  0  0  0  0  0  0  0
   -2.7705    0.0172   -1.9415 C   0  0  0  0  0  0  0  0  0  0  0  0
   -4.1815    0.0187   -1.3660 C   0  0  0  0  0  0  0  0  0  0  0  0
   -3.8194   -0.2913    0.0972 C   0  0  0  0  0  0  0  0  0  0  0  0
   -4.9776   -0.1453    1.0013 C   0  0  0  0  0  0  0  0  0  0  0  0
   -5.0777    0.6725    1.8933 O   0  0  0  0  0  0  0  0  0  0  0  0
   -6.1244   -1.0766    0.8091 C   0  0  0  0  0  0  0  0  0  0  0  0
   -3.3788    2.0251    0.7043 C   0  0  0  0  0  0  0  0  0  0  0  0
    3.3331    0.2398    0.8316 C   0  0  0  0  0  0  0  0  0  0  0  0
    1.4974   -0.8986   -1.9184 C   0  0  0  0  0  0  0  0  0  0  0  0
   -3.3151    1.5281   -0.5264 H   0  0  0  0  0  0  0  0  0  0  0  0
   -3.4151   -0.1884   -1.2312 H   0  0  0  0  0  0  0  0  0  0  0  0
   -3.7375    0.1092    0.4966 H   0  0  0  0  0  0  0  0  0  0  0  0
   -1.8487   -0.3950    1.9302 H   0  0  0  0  0  0  0  0  0  0  0  0
    0.6104   -0.8240    2.2036 H   0  0  0  0  0  0  0  0  0  0  0  0
    1.2045    0.2814   -1.9407 H   0  0  0  0  0  0  0  0  0  0  0  0
   -1.2236    0.6903   -2.1596 H   0  0  0  0  0  0  0  0  0  0  0  0
    3.9589    1.2684    0.0106 H   0  0  0  0  0  0  0  0  0  0  0  0
    8.3620    0.0888   -0.8887 H   0  0  0  0  0  0  0  0  0  0  0  0
    7.7565    1.8057   -0.7189 H   0  0  0  0  0  0  0  0  0  0  0  0
    5.6205    0.7998    2.0295 H   0  0  0  0  0  0  0  0  0  0  0  0
    4.4597   -1.3582    1.6703 H   0  0  0  0  0  0  0  0  0  0  0  0
    3.3788   -3.1358    0.8052 H   0  0  0  0  0  0  0  0  0  0  0  0
    3.5183   -2.4860   -0.8213 H   0  0  0  0  0  0  0  0  0  0  0  0
    1.2013   -2.8374   -0.2448 H   0  0  0  0  0  0  0  0  0  0  0  0
    1.3745   -2.0342    1.3234 H   0  0  0  0  0  0  0  0  0  0  0  0
    2.0032    2.4269    0.6038 H   0  0  0  0  0  0  0  0  0  0  0  0
    0.3559    2.6379   -1.2608 H   0  0  0  0  0  0  0  0  0  0  0  0
   -0.4175    2.4400    0.3527 H   0  0  0  0  0  0  0  0  0  0  0  0
   -0.2609    0.5955   -2.0498 H   0  0  0  0  0  0  0  0  0  0  0  0
   -0.7080   -1.4068   -0.8387 H   0  0  0  0  0  0  0  0  0  0  0  0
    0.2241   -0.2541    1.7319 H   0  0  0  0  0  0  0  0  0  0  0  0
   -0.8385   -1.6391    1.4332 H   0  0  0  0  0  0  0  0  0  0  0  0
   -1.5022    1.1551    2.0695 H   0  0  0  0  0  0  0  0  0  0  0  0
   -2.5056   -0.2930    2.1718 H   0  0  0  0  0  0  0  0  0  0  0  0
   -2.2143    1.9559   -1.3820 H   0  0  0  0  0  0  0  0  0  0  0  0
   -2.7469    0.3963   -2.9828 H   0  0  0  0  0  0  0  0  0  0  0  0
   -2.4234   -1.0361   -1.8794 H   0  0  0  0  0  0  0  0  0  0  0  0
   -4.7826   -0.7824   -1.8250 H   0  0  0  0  0  0  0  0  0  0  0  0
   -4.6422    1.0270   -1.4248 H   0  0  0  0  0  0  0  0  0  0  0  0
   -3.4427   -1.3357    0.1014 H   0  0  0  0  0  0  0  0  0  0  0  0
   -6.0227   -1.8398    1.6282 H   0  0  0  0  0  0  0  0  0  0  0  0
   -6.0853   -1.6193   -0.1540 H   0  0  0  0  0  0  0  0  0  0  0  0
   -7.1018   -0.5516    0.8458 H   0  0  0  0  0  0  0  0  0  0  0  0
   -2.7760    2.8798    0.2628 H   0  0  0  0  0  0  0  0  0  0  0  0
   -3.3538    2.2191    1.8025 H   0  0  0  0  0  0  0  0  0  0  0  0
   -4.3756    2.1553    0.2567 H   0  0  0  0  0  0  0  0  0  0  0  0
    3.2600    0.5277    1.9211 H   0  0  0  0  0  0  0  0  0  0  0  0
    3.9616    1.0586    0.3715 H   0  0  0  0  0  0  0  0  0  0  0  0
    1.7260    0.1053   -2.3831 H   0  0  0  0  0  0  0  0  0  0  0  0
    0.5675   -1.2450   -2.4509 H   0  0  0  0  0  0  0  0  0  0  0  0
    2.2656   -1.6245   -2.1794 H   0  0  0  0  0  0  0  0  0  0  0  0
  1  2  1  0
  2  3  2  0
  3  4  1  0
  4  5  2  0
  5  6  1  0
  6  7  2  0
  5  8  1  0
  8  9  2  0
  8 10  2  0
  8 11  1  0
 12 13  1  0
 13 14  2  3
 13 15  1  0
 15 16  1  0
 16 17  1  0
 17 18  1  0
 18 19  1  0
 19 20  1  0
 20 21  2  0
 21 22  1  0
 22 23  1  0
 23 24  1  0
 24 25  1  0
 25 26  1  0
 26 27  1  0
 27 28  1  0
 28 29  1  0
 29 30  1  0
 30 31  1  0
 31 32  1  0
 32 33  2  0
 32 34  1  0
 27 35  1  0
 20 36  1  0
 19 37  1  0
  7  2  1  0
 36 16  1  0
 24 19  1  0
 31 27  1  0
 28 23  1  0
  1 38  1  0
  1 39  1  0
  1 40  1  0
  3 41  1  0
  4 42  1  0
  6 43  1  0
  7 44  1  0
 11 45  1  0
 12 46  1  0
 12 47  1  0
 14 48  1  0
 16 49  1  0
 17 50  1  0
 17 51  1  0
 18 52  1  0
 18 53  1  0
 21 54  1  0
 22 55  1  0
 22 56  1  0
 23 57  1  0
 24 58  1  0
 25 59  1  0
 25 60  1  0
 26 61  1  0
 26 62  1  0
 28 63  1  0
 29 64  1  0
 29 65  1  0
 30 66  1  0
 30 67  1  0
 31 68  1  0
 34 69  1  0
 34 70  1  0
 34 71  1  0
 35 72  1  0
 35 73  1  0
 35 74  1  0
 36 75  1  0
 36 76  1  0
 37 77  1  0
 37 78  1  0
 37 79  1  0
M  END
>  <Ligand ID>  (1) 
LIG0003840

>  <Ligand>  (1) 
MLS002707305

>  <SMILES>  (1) 
Cc1ccc(cc1)S(=O)(=O)O.NC(=N)SC1CCC2(C(=CCC3C2CCC2(C3CCC2C(=O)C)C)C1)C

>  <CID>  (1) 
276191.0

>  <ChEMBL ID>  (1) 
nan

>  <InChiKey>  (1) 
WGDGAFGEBJZMBJ-UHFFFAOYSA-N

>  <InChi>  (1) 
InChI=1S/C22H34N2OS.C7H8O3S/c1-13(25)17-6-7-18-16-5-4-14-12-15(26-20(23)24)8-10-21(14,2)19(16)9-11-22(17,18)3;1-6-2-4-7(5-3-6)11(8,9)10/h4,15-19H,5-12H2,1-3H3,(H3,23,24);2-5H,1H3,(H,8,9,10)

>  <IUPAC Name>  (1) 
(17-acetyl-10,13-dimethyl-2,3,4,7,8,9,11,12,14,15,16,17-dodecahydro-1H-cyclopenta[a]phenanthren-3-yl) carbamimidothioate;4-methylbenzenesulfonic acid

$$$$
