
     RDKit          3D

 35 37  0  0  0  0  0  0  0  0999 V2000
    2.8572    1.4550    2.7827 C   0  0  0  0  0  0  0  0  0  0  0  0
    3.4208    0.2139    2.5755 C   0  0  0  0  0  0  0  0  0  0  0  0
    3.0545   -0.4670    1.4281 C   0  0  0  0  0  0  0  0  0  0  0  0
    2.1536    0.0751    0.5167 C   0  0  0  0  0  0  0  0  0  0  0  0
    1.5856    1.3279    0.7272 C   0  0  0  0  0  0  0  0  0  0  0  0
    1.9661    2.0013    1.8899 C   0  0  0  0  0  0  0  0  0  0  0  0
    1.8458   -0.7366   -0.6539 C   0  0  0  0  0  0  0  0  0  0  0  0
    2.9445   -1.3293   -1.2864 C   0  0  0  0  0  0  0  0  0  0  0  0
    2.7838   -2.1176   -2.4001 C   0  0  0  0  0  0  0  0  0  0  0  0
    1.4991   -2.3021   -2.8704 C   0  0  0  0  0  0  0  0  0  0  0  0
    0.4201   -1.7157   -2.2434 C   0  0  0  0  0  0  0  0  0  0  0  0
    0.5655   -0.9218   -1.1245 C   0  0  0  0  0  0  0  0  0  0  0  0
   -0.5037   -0.3191   -0.4733 O   0  0  0  0  0  0  0  0  0  0  0  0
   -1.7917   -0.5535   -1.0131 C   0  0  0  0  0  0  0  0  0  0  0  0
   -2.8793    0.1105   -0.2804 C   0  0  0  0  0  0  0  0  0  0  0  0
   -3.8715   -0.4787    0.2879 N   0  0  0  0  0  0  0  0  0  0  0  0
   -4.7706    0.4367    0.9244 C   0  0  0  0  0  0  0  0  0  0  0  0
   -4.2292    1.7818    0.5541 C   0  0  0  0  0  0  0  0  0  0  0  0
   -2.9760    1.5148   -0.1024 N   0  0  0  0  0  0  0  0  0  0  0  0
    3.1474    1.9869    3.6853 H   0  0  0  0  0  0  0  0  0  0  0  0
    4.1193   -0.2497    3.2449 H   0  0  0  0  0  0  0  0  0  0  0  0
    3.5041   -1.4580    1.2621 H   0  0  0  0  0  0  0  0  0  0  0  0
    0.8985    1.7289    0.0214 H   0  0  0  0  0  0  0  0  0  0  0  0
    1.5524    2.9862    2.1058 H   0  0  0  0  0  0  0  0  0  0  0  0
    3.9514   -1.1813   -0.9131 H   0  0  0  0  0  0  0  0  0  0  0  0
    3.6004   -2.5871   -2.9101 H   0  0  0  0  0  0  0  0  0  0  0  0
    1.3482   -2.9236   -3.7526 H   0  0  0  0  0  0  0  0  0  0  0  0
   -0.6017   -1.8524   -2.6036 H   0  0  0  0  0  0  0  0  0  0  0  0
   -1.8806   -0.2618   -2.0809 H   0  0  0  0  0  0  0  0  0  0  0  0
   -1.9083   -1.6631   -1.0169 H   0  0  0  0  0  0  0  0  0  0  0  0
   -4.7459    0.2205    2.0229 H   0  0  0  0  0  0  0  0  0  0  0  0
   -5.8233    0.3140    0.6037 H   0  0  0  0  0  0  0  0  0  0  0  0
   -4.0201    2.3069    1.5323 H   0  0  0  0  0  0  0  0  0  0  0  0
   -4.9139    2.3934   -0.0671 H   0  0  0  0  0  0  0  0  0  0  0  0
   -2.3023    2.2646   -0.3731 H   0  0  0  0  0  0  0  0  0  0  0  0
  1  2  2  0
  2  3  1  0
  3  4  2  0
  4  5  1  0
  5  6  2  0
  4  7  1  0
  7  8  2  0
  8  9  1  0
  9 10  2  0
 10 11  1  0
 11 12  2  0
 12 13  1  0
 13 14  1  0
 14 15  1  0
 15 16  2  0
 16 17  1  0
 17 18  1  0
 18 19  1  0
  6  1  1  0
 12  7  1  0
 19 15  1  0
  1 20  1  0
  2 21  1  0
  3 22  1  0
  5 23  1  0
  6 24  1  0
  8 25  1  0
  9 26  1  0
 10 27  1  0
 11 28  1  0
 14 29  1  0
 14 30  1  0
 17 31  1  0
 17 32  1  0
 18 33  1  0
 18 34  1  0
 19 35  1  0
M  END
>  <Ligand ID>  (1) 
LIG0003188

>  <Ligand>  (1) 
CHEMBL13789

>  <SMILES>  (1) 
c1ccc(cc1)c1ccccc1OCC1=NCCN1

>  <CID>  (1) 
44269124.0

>  <ChEMBL ID>  (1) 
nan

>  <InChiKey>  (1) 
BPRZPBVOIULUSI-UHFFFAOYSA-N

>  <InChi>  (1) 
InChI=1S/C16H16N2O/c1-2-6-13(7-3-1)14-8-4-5-9-15(14)19-12-16-17-10-11-18-16/h1-9H,10-12H2,(H,17,18)

>  <IUPAC Name>  (1) 
2-[(2-phenylphenoxy)methyl]-4,5-dihydro-1H-imidazole

$$$$
