
     RDKit          3D

 40 42  0  0  0  0  0  0  0  0999 V2000
   -6.4341    2.0982    0.4452 O   0  0  0  0  0  0  0  0  0  0  0  0
   -5.5210    1.3043   -0.2255 C   0  0  0  0  0  0  0  0  0  0  0  0
   -5.2081    1.6401   -1.4115 O   0  0  0  0  0  0  0  0  0  0  0  0
   -4.9166    0.0999    0.3982 C   0  0  0  0  0  0  0  0  0  0  0  0
   -3.9681   -0.5457   -0.5799 C   0  0  0  0  0  0  0  0  0  0  0  0
   -3.3206   -1.7688   -0.0172 C   0  0  0  0  0  0  0  0  0  0  0  0
   -2.4239   -2.3619   -0.9690 O   0  0  0  0  0  0  0  0  0  0  0  0
   -1.2037   -1.6701   -0.9139 C   0  0  0  0  0  0  0  0  0  0  0  0
   -1.1367   -1.0890    0.3480 C   0  0  0  0  0  0  0  0  0  0  0  0
   -2.3661   -1.4296    1.1188 C   0  0  0  0  0  0  0  0  0  0  0  0
   -0.0246   -0.3418    0.6686 C   0  0  0  0  0  0  0  0  0  0  0  0
    1.0111   -0.1652   -0.2366 C   0  0  0  0  0  0  0  0  0  0  0  0
    0.9002   -0.7622   -1.4798 C   0  0  0  0  0  0  0  0  0  0  0  0
   -0.1954   -1.5203   -1.8465 C   0  0  0  0  0  0  0  0  0  0  0  0
    2.1989    0.6024    0.0354 C   0  0  0  0  0  0  0  0  0  0  0  0
    3.4220    0.0657   -0.3255 C   0  0  0  0  0  0  0  0  0  0  0  0
    4.6177    0.7384   -0.1000 C   0  0  0  0  0  0  0  0  0  0  0  0
    4.5611    1.9839    0.5064 C   0  0  0  0  0  0  0  0  0  0  0  0
    3.3520    2.5615    0.8860 C   0  0  0  0  0  0  0  0  0  0  0  0
    2.1956    1.8439    0.6354 C   0  0  0  0  0  0  0  0  0  0  0  0
    0.9926    2.3973    1.0028 F   0  0  0  0  0  0  0  0  0  0  0  0
    5.8507    0.2055   -0.4599 O   0  0  0  0  0  0  0  0  0  0  0  0
    6.6000   -0.5999    0.4243 C   0  0  0  0  0  0  0  0  0  0  0  0
    6.9159    0.0754    1.5747 F   0  0  0  0  0  0  0  0  0  0  0  0
    5.9492   -1.7485    0.7690 F   0  0  0  0  0  0  0  0  0  0  0  0
    7.7713   -0.9280   -0.2367 F   0  0  0  0  0  0  0  0  0  0  0  0
   -6.6953    2.9979    0.0660 H   0  0  0  0  0  0  0  0  0  0  0  0
   -5.7253   -0.6225    0.6264 H   0  0  0  0  0  0  0  0  0  0  0  0
   -4.3890    0.4253    1.3003 H   0  0  0  0  0  0  0  0  0  0  0  0
   -3.1645    0.2092   -0.7740 H   0  0  0  0  0  0  0  0  0  0  0  0
   -4.4870   -0.8246   -1.5056 H   0  0  0  0  0  0  0  0  0  0  0  0
   -4.0929   -2.5014    0.2963 H   0  0  0  0  0  0  0  0  0  0  0  0
   -2.7141   -0.6370    1.7775 H   0  0  0  0  0  0  0  0  0  0  0  0
   -2.1594   -2.3896    1.6347 H   0  0  0  0  0  0  0  0  0  0  0  0
    0.0815    0.1345    1.6382 H   0  0  0  0  0  0  0  0  0  0  0  0
    1.6961   -0.6409   -2.2087 H   0  0  0  0  0  0  0  0  0  0  0  0
   -0.2588   -1.9779   -2.8268 H   0  0  0  0  0  0  0  0  0  0  0  0
    3.4702   -0.9157   -0.8036 H   0  0  0  0  0  0  0  0  0  0  0  0
    5.4956    2.5215    0.6884 H   0  0  0  0  0  0  0  0  0  0  0  0
    3.3234    3.5357    1.3590 H   0  0  0  0  0  0  0  0  0  0  0  0
  1  2  1  0
  2  3  2  0
  2  4  1  0
  4  5  1  0
  5  6  1  0
  6  7  1  0
  7  8  1  0
  8  9  2  0
  9 10  1  0
  9 11  1  0
 11 12  2  0
 12 13  1  0
 13 14  2  0
 12 15  1  0
 15 16  2  0
 16 17  1  0
 17 18  2  0
 18 19  1  0
 19 20  2  0
 20 21  1  0
 17 22  1  0
 22 23  1  0
 23 24  1  0
 23 25  1  0
 23 26  1  0
 10  6  1  0
 20 15  1  0
 14  8  1  0
  1 27  1  0
  4 28  1  0
  4 29  1  0
  5 30  1  0
  5 31  1  0
  6 32  1  0
 10 33  1  0
 10 34  1  0
 11 35  1  0
 13 36  1  0
 14 37  1  0
 16 38  1  0
 18 39  1  0
 19 40  1  0
M  END
>  <Ligand ID>  (1) 
LIG0002879

>  <Ligand>  (1) 
CHEMBL3939004

>  <SMILES>  (1) 
OC(=O)CCC1Oc2c(C1)cc(cc2)c1cc(ccc1F)OC(F)(F)F

>  <CID>  (1) 
134149615.0

>  <ChEMBL ID>  (1) 
nan

>  <InChiKey>  (1) 
MGYBBSHVDYKNTD-UHFFFAOYSA-N

>  <InChi>  (1) 
InChI=1S/C18H14F4O4/c19-15-4-2-13(26-18(20,21)22)9-14(15)10-1-5-16-11(7-10)8-12(25-16)3-6-17(23)24/h1-2,4-5,7,9,12H,3,6,8H2,(H,23,24)

>  <IUPAC Name>  (1) 
3-[5-[2-fluoro-5-(trifluoromethoxy)phenyl]-2,3-dihydro-1-benzofuran-2-yl]propanoic acid

$$$$
