
     RDKit          3D

 40 41  0  0  0  0  0  0  0  0999 V2000
    5.3526    0.2189   -2.4770 C   0  0  0  0  0  0  0  0  0  0  0  0
    4.2406   -0.6532   -2.3866 O   0  0  0  0  0  0  0  0  0  0  0  0
    3.3883   -0.5796   -1.2858 C   0  0  0  0  0  0  0  0  0  0  0  0
    2.2989   -1.4102   -1.1643 C   0  0  0  0  0  0  0  0  0  0  0  0
    1.4503   -1.3435   -0.0774 C   0  0  0  0  0  0  0  0  0  0  0  0
    1.6641   -0.4311    0.9407 C   0  0  0  0  0  0  0  0  0  0  0  0
    2.7642    0.3959    0.8016 C   0  0  0  0  0  0  0  0  0  0  0  0
    3.6182    0.3463   -0.2679 C   0  0  0  0  0  0  0  0  0  0  0  0
    0.6010   -0.3278    2.3297 S   0  0  0  0  0  0  0  0  0  0  0  0
    1.4651    0.1248    3.4705 O   0  0  0  0  0  0  0  0  0  0  0  0
    0.0666   -1.7204    2.5465 O   0  0  0  0  0  0  0  0  0  0  0  0
   -0.7066    0.7948    2.0644 N   0  0  0  0  0  0  0  0  0  0  0  0
   -1.5998    0.5044    0.9992 C   0  0  0  0  0  0  0  0  0  0  0  0
   -2.7238   -0.2612    1.2231 C   0  0  0  0  0  0  0  0  0  0  0  0
   -3.0590   -0.8150    2.5621 C   0  0  0  0  0  0  0  0  0  0  0  0
   -3.5960   -0.5474    0.1928 C   0  0  0  0  0  0  0  0  0  0  0  0
   -3.3815   -0.0794   -1.1077 C   0  0  0  0  0  0  0  0  0  0  0  0
   -2.2562    0.6858   -1.3268 C   0  0  0  0  0  0  0  0  0  0  0  0
   -1.3843    0.9714   -0.2954 C   0  0  0  0  0  0  0  0  0  0  0  0
   -0.1970    1.7926   -0.5804 C   0  0  0  0  0  0  0  0  0  0  0  0
   -4.3402   -0.4083   -2.1840 C   0  0  0  0  0  0  0  0  0  0  0  0
    4.9710    1.2245   -2.6647 H   0  0  0  0  0  0  0  0  0  0  0  0
    5.9173    0.2305   -1.5173 H   0  0  0  0  0  0  0  0  0  0  0  0
    5.9793   -0.1838   -3.3163 H   0  0  0  0  0  0  0  0  0  0  0  0
    2.1251   -2.1312   -1.9631 H   0  0  0  0  0  0  0  0  0  0  0  0
    0.6042   -2.0168   -0.0222 H   0  0  0  0  0  0  0  0  0  0  0  0
    2.9629    1.1293    1.5884 H   0  0  0  0  0  0  0  0  0  0  0  0
    4.4569    1.0121   -0.3247 H   0  0  0  0  0  0  0  0  0  0  0  0
   -0.8293    1.6465    2.6635 H   0  0  0  0  0  0  0  0  0  0  0  0
   -2.5513   -0.2967    3.3933 H   0  0  0  0  0  0  0  0  0  0  0  0
   -2.9577   -1.9131    2.5971 H   0  0  0  0  0  0  0  0  0  0  0  0
   -4.1579   -0.6323    2.7388 H   0  0  0  0  0  0  0  0  0  0  0  0
   -4.4899   -1.1482    0.3396 H   0  0  0  0  0  0  0  0  0  0  0  0
   -2.1016    1.0445   -2.3483 H   0  0  0  0  0  0  0  0  0  0  0  0
   -0.5522    2.7360   -1.0894 H   0  0  0  0  0  0  0  0  0  0  0  0
    0.5007    1.3279   -1.3101 H   0  0  0  0  0  0  0  0  0  0  0  0
    0.3134    2.1649    0.3199 H   0  0  0  0  0  0  0  0  0  0  0  0
   -3.8457   -0.5705   -3.1542 H   0  0  0  0  0  0  0  0  0  0  0  0
   -4.9241   -1.2943   -1.8823 H   0  0  0  0  0  0  0  0  0  0  0  0
   -5.0868    0.4127   -2.3681 H   0  0  0  0  0  0  0  0  0  0  0  0
  1  2  1  0
  2  3  1  0
  3  4  2  0
  4  5  1  0
  5  6  2  0
  6  7  1  0
  7  8  2  0
  6  9  1  0
  9 10  2  0
  9 11  2  0
  9 12  1  0
 12 13  1  0
 13 14  2  0
 14 15  1  0
 14 16  1  0
 16 17  2  0
 17 18  1  0
 18 19  2  0
 19 20  1  0
 17 21  1  0
  8  3  1  0
 19 13  1  0
  1 22  1  0
  1 23  1  0
  1 24  1  0
  4 25  1  0
  5 26  1  0
  7 27  1  0
  8 28  1  0
 12 29  1  0
 15 30  1  0
 15 31  1  0
 15 32  1  0
 16 33  1  0
 18 34  1  0
 20 35  1  0
 20 36  1  0
 20 37  1  0
 21 38  1  0
 21 39  1  0
 21 40  1  0
M  END
>  <Ligand ID>  (1) 
LIG0000226

>  <Ligand>  (1) 
CHEMBL3311308

>  <SMILES>  (1) 
COc1ccc(cc1)S(=O)(=O)Nc1c(C)cc(cc1C)C

>  <CID>  (1) 
743974.0

>  <ChEMBL ID>  (1) 
nan

>  <InChiKey>  (1) 
FQUAFMNPXPXOJE-UHFFFAOYSA-N

>  <InChi>  (1) 
InChI=1S/C16H19NO3S/c1-11-9-12(2)16(13(3)10-11)17-21(18,19)15-7-5-14(20-4)6-8-15/h5-10,17H,1-4H3

>  <IUPAC Name>  (1) 
4-methoxy-N-(2,4,6-trimethylphenyl)benzenesulfonamide

$$$$
