
     RDKit          3D

 31 33  0  0  0  0  0  0  0  0999 V2000
    2.2479    3.0696    0.3473 O   0  0  0  0  0  0  0  0  0  0  0  0
    1.5029    2.0395    0.3455 C   0  0  0  0  0  0  0  0  0  0  0  0
    0.1406    2.1179    0.7383 N   0  0  0  0  0  0  0  0  0  0  0  0
   -0.8184    1.0723    0.5721 C   0  0  0  0  0  0  0  0  0  0  0  0
   -1.7837    1.2717   -0.5612 C   0  0  0  0  0  0  0  0  0  0  0  0
   -3.0705    0.5606   -0.2229 C   0  0  0  0  0  0  0  0  0  0  0  0
   -2.9570   -0.8679   -0.1892 N   0  0  0  0  0  0  0  0  0  0  0  0
   -2.2594   -1.3857    0.9533 C   0  0  0  0  0  0  0  0  0  0  0  0
   -0.8005   -1.5371    0.5018 C   0  0  0  0  0  0  0  0  0  0  0  0
   -0.1967   -0.2307    0.3576 N   0  0  0  0  0  0  0  0  0  0  0  0
    1.1510   -0.3529   -0.0401 C   0  0  0  0  0  0  0  0  0  0  0  0
    2.0048    0.7333   -0.0571 C   0  0  0  0  0  0  0  0  0  0  0  0
    3.3276    0.6451   -0.4410 C   0  0  0  0  0  0  0  0  0  0  0  0
    4.3499    2.0710   -0.4361 Cl  0  0  0  0  0  0  0  0  0  0  0  0
    3.8598   -0.5630   -0.8322 C   0  0  0  0  0  0  0  0  0  0  0  0
    3.0321   -1.6689   -0.8264 C   0  0  0  0  0  0  0  0  0  0  0  0
    1.7125   -1.5677   -0.4407 C   0  0  0  0  0  0  0  0  0  0  0  0
   -0.1774    3.0105    1.1817 H   0  0  0  0  0  0  0  0  0  0  0  0
   -1.4247    1.0291    1.5161 H   0  0  0  0  0  0  0  0  0  0  0  0
   -1.9931    2.3313   -0.7117 H   0  0  0  0  0  0  0  0  0  0  0  0
   -1.3575    0.8103   -1.4900 H   0  0  0  0  0  0  0  0  0  0  0  0
   -3.4614    0.9300    0.7393 H   0  0  0  0  0  0  0  0  0  0  0  0
   -3.7899    0.8018   -1.0507 H   0  0  0  0  0  0  0  0  0  0  0  0
   -2.5830   -1.2602   -1.0648 H   0  0  0  0  0  0  0  0  0  0  0  0
   -2.3457   -0.7629    1.8555 H   0  0  0  0  0  0  0  0  0  0  0  0
   -2.6208   -2.3997    1.2406 H   0  0  0  0  0  0  0  0  0  0  0  0
   -0.8997   -2.0495   -0.4979 H   0  0  0  0  0  0  0  0  0  0  0  0
   -0.2478   -2.1390    1.2338 H   0  0  0  0  0  0  0  0  0  0  0  0
    4.8941   -0.6389   -1.1338 H   0  0  0  0  0  0  0  0  0  0  0  0
    3.4654   -2.6117   -1.1366 H   0  0  0  0  0  0  0  0  0  0  0  0
    1.0985   -2.4581   -0.4505 H   0  0  0  0  0  0  0  0  0  0  0  0
  1  2  2  0
  2  3  1  0
  3  4  1  0
  4  5  1  0
  5  6  1  0
  6  7  1  0
  7  8  1  0
  8  9  1  0
  9 10  1  0
 10 11  1  0
 11 12  2  0
 12 13  1  0
 13 14  1  0
 13 15  2  0
 15 16  1  0
 16 17  2  0
 12  2  1  0
 10  4  1  0
 17 11  1  0
  3 18  1  0
  4 19  1  0
  5 20  1  0
  5 21  1  0
  6 22  1  0
  6 23  1  0
  7 24  1  0
  8 25  1  0
  8 26  1  0
  9 27  1  0
  9 28  1  0
 15 29  1  0
 16 30  1  0
 17 31  1  0
M  END
>  <Ligand ID>  (1) 
LIG0003246

>  <Ligand>  (1) 
CHEMBL590483

>  <SMILES>  (1) 
O=C1NC2CCNCCN2c2c1c(Cl)ccc2

>  <CID>  (1) 
46230099.0

>  <ChEMBL ID>  (1) 
nan

>  <InChiKey>  (1) 
HWBGCKUNZQBLGD-UHFFFAOYSA-N

>  <InChi>  (1) 
InChI=1S/C12H14ClN3O/c13-8-2-1-3-9-11(8)12(17)15-10-4-5-14-6-7-16(9)10/h1-3,10,14H,4-7H2,(H,15,17)

>  <IUPAC Name>  (1) 
8-chloro-2,3,4,5,5a,6-hexahydro-1H-[1,4]diazepino[1,7-a]quinazolin-7-one

$$$$
