
     RDKit          3D

 52 54  0  0  0  0  0  0  0  0999 V2000
   -7.1047   -1.1473   -2.0679 C   0  0  0  0  0  0  0  0  0  0  0  0
   -6.5065   -0.3199   -1.1044 O   0  0  0  0  0  0  0  0  0  0  0  0
   -5.2090   -0.5625   -0.6912 C   0  0  0  0  0  0  0  0  0  0  0  0
   -4.4291   -1.5955   -1.1749 C   0  0  0  0  0  0  0  0  0  0  0  0
   -3.1259   -1.7758   -0.7089 C   0  0  0  0  0  0  0  0  0  0  0  0
   -2.5598   -0.9485    0.2393 C   0  0  0  0  0  0  0  0  0  0  0  0
   -3.3489    0.0892    0.7251 C   0  0  0  0  0  0  0  0  0  0  0  0
   -4.6438    0.2809    0.2719 C   0  0  0  0  0  0  0  0  0  0  0  0
   -5.4042    1.2995    0.7798 C   0  0  0  0  0  0  0  0  0  0  0  0
   -4.9507    2.1688    1.7411 C   0  0  0  0  0  0  0  0  0  0  0  0
   -3.6601    1.9903    2.2077 C   0  0  0  0  0  0  0  0  0  0  0  0
   -2.9002    0.9640    1.6921 C   0  0  0  0  0  0  0  0  0  0  0  0
   -1.1773   -1.1191    0.6664 C   0  0  0  0  0  0  0  0  0  0  0  0
   -0.1543   -0.3067   -0.0888 C   0  0  2  0  0  0  0  0  0  0  0  0
    1.1197   -0.6000    0.5053 N   0  0  0  0  0  0  0  0  0  0  0  0
    2.2518    0.0137   -0.1023 C   0  0  0  0  0  0  0  0  0  0  0  0
    3.4736   -0.4098    0.7053 C   0  0  1  0  0  0  0  0  0  0  0  0
    4.7487   -0.0808    0.0583 C   0  0  0  0  0  0  0  0  0  0  0  0
    5.3897    1.1308    0.1225 C   0  0  0  0  0  0  0  0  0  0  0  0
    6.5978    1.3358   -0.5399 C   0  0  0  0  0  0  0  0  0  0  0  0
    7.2696    2.5532   -0.4926 O   0  0  0  0  0  0  0  0  0  0  0  0
    7.2033    0.3368   -1.2872 C   0  0  0  0  0  0  0  0  0  0  0  0
    6.5590   -0.8800   -1.3511 C   0  0  0  0  0  0  0  0  0  0  0  0
    5.3689   -1.0796   -0.6979 C   0  0  0  0  0  0  0  0  0  0  0  0
    7.1120   -1.9245   -2.0836 O   0  0  0  0  0  0  0  0  0  0  0  0
    3.3182    0.0464    1.9937 O   0  0  0  0  0  0  0  0  0  0  0  0
   -0.4609    1.1255   -0.2982 C   0  0  0  0  0  0  0  0  0  0  0  0
   -6.8131   -0.8574   -3.1157 H   0  0  0  0  0  0  0  0  0  0  0  0
   -6.8597   -2.2199   -1.9557 H   0  0  0  0  0  0  0  0  0  0  0  0
   -8.2303   -1.0908   -2.0025 H   0  0  0  0  0  0  0  0  0  0  0  0
   -4.8356   -2.2659   -1.9204 H   0  0  0  0  0  0  0  0  0  0  0  0
   -2.5052   -2.5794   -1.0782 H   0  0  0  0  0  0  0  0  0  0  0  0
   -6.4144    1.4525    0.4251 H   0  0  0  0  0  0  0  0  0  0  0  0
   -5.5822    2.9681    2.1216 H   0  0  0  0  0  0  0  0  0  0  0  0
   -3.2413    2.6277    2.9556 H   0  0  0  0  0  0  0  0  0  0  0  0
   -1.9130    0.8404    2.0857 H   0  0  0  0  0  0  0  0  0  0  0  0
   -0.8950   -2.1945    0.4508 H   0  0  0  0  0  0  0  0  0  0  0  0
   -1.0312   -1.0572    1.7666 H   0  0  0  0  0  0  0  0  0  0  0  0
   -0.1446   -0.7743   -1.1264 H   0  0  0  0  0  0  0  0  0  0  0  0
    1.1135   -0.6632    1.5248 H   0  0  0  0  0  0  0  0  0  0  0  0
    2.2678    1.1053   -0.1180 H   0  0  0  0  0  0  0  0  0  0  0  0
    2.4251   -0.3516   -1.1384 H   0  0  0  0  0  0  0  0  0  0  0  0
    3.3829   -1.5457    0.8043 H   0  0  0  0  0  0  0  0  0  0  0  0
    4.9416    1.9092    0.6917 H   0  0  0  0  0  0  0  0  0  0  0  0
    7.4255    3.0119    0.3979 H   0  0  0  0  0  0  0  0  0  0  0  0
    8.1368    0.4642   -1.8095 H   0  0  0  0  0  0  0  0  0  0  0  0
    4.8849   -2.0542   -0.7694 H   0  0  0  0  0  0  0  0  0  0  0  0
    7.3660   -2.8079   -1.6826 H   0  0  0  0  0  0  0  0  0  0  0  0
    3.3321    1.0344    2.0717 H   0  0  0  0  0  0  0  0  0  0  0  0
    0.2375    1.4991   -1.0828 H   0  0  0  0  0  0  0  0  0  0  0  0
   -0.3576    1.7923    0.5576 H   0  0  0  0  0  0  0  0  0  0  0  0
   -1.4673    1.1716   -0.7996 H   0  0  0  0  0  0  0  0  0  0  0  0
  1  2  1  0
  2  3  1  0
  3  4  2  0
  4  5  1  0
  5  6  2  0
  6  7  1  0
  7  8  2  0
  8  9  1  0
  9 10  2  0
 10 11  1  0
 11 12  2  0
  6 13  1  0
 13 14  1  0
 14 15  1  0
 15 16  1  0
 16 17  1  0
 17 18  1  0
 18 19  2  0
 19 20  1  0
 20 21  1  0
 20 22  2  0
 22 23  1  0
 23 24  2  0
 23 25  1  0
 17 26  1  0
 14 27  1  0
  8  3  1  0
 24 18  1  0
 12  7  1  0
  1 28  1  0
  1 29  1  0
  1 30  1  0
  4 31  1  0
  5 32  1  0
  9 33  1  0
 10 34  1  0
 11 35  1  0
 12 36  1  0
 13 37  1  0
 13 38  1  0
 14 39  1  6
 15 40  1  0
 16 41  1  0
 16 42  1  0
 17 43  1  1
 19 44  1  0
 21 45  1  0
 22 46  1  0
 24 47  1  0
 25 48  1  0
 26 49  1  0
 27 50  1  0
 27 51  1  0
 27 52  1  0
M  END
>  <Ligand ID>  (1) 
LIG0005461

>  <Ligand>  (1) 
CHEMBL1800963

>  <SMILES>  (1) 
COc1ccc(c2c1cccc2)C[C@H](NC[C@@H](c1cc(O)cc(c1)O)O)C

>  <CID>  (1) 
53380558.0

>  <ChEMBL ID>  (1) 
nan

>  <InChiKey>  (1) 
MLQLUFQBFMFXJO-SZNDQCEHSA-N

>  <InChi>  (1) 
InChI=1S/C22H25NO4/c1-14(23-13-21(26)16-10-17(24)12-18(25)11-16)9-15-7-8-22(27-2)20-6-4-3-5-19(15)20/h3-8,10-12,14,21,23-26H,9,13H2,1-2H3/t14-,21+/m1/s1

>  <IUPAC Name>  (1) 
5-[(1R)-1-hydroxy-2-[[(2R)-1-(4-methoxynaphthalen-1-yl)propan-2-yl]amino]ethyl]benzene-1,3-diol

$$$$
