
     RDKit          3D

 29 28  0  0  0  0  0  0  0  0999 V2000
   -4.6583    0.8142   -0.4474 C   0  0  0  0  0  0  0  0  0  0  0  0
   -3.1641    0.6057   -0.2094 C   0  0  0  0  0  0  0  0  0  0  0  0
   -2.6716   -0.5898   -0.9801 C   0  0  0  0  0  0  0  0  0  0  0  0
   -1.2099   -0.7731   -0.7577 C   0  0  0  0  0  0  0  0  0  0  0  0
   -0.9256   -1.0008    0.6918 C   0  0  0  0  0  0  0  0  0  0  0  0
    0.4839   -1.1907    0.8291 O   0  0  0  0  0  0  0  0  0  0  0  0
    1.3848   -0.2244    0.4857 C   0  0  0  0  0  0  0  0  0  0  0  0
    1.1259    0.9086    0.0279 O   0  0  0  0  0  0  0  0  0  0  0  0
    2.8443   -0.5449    0.6736 C   0  0  0  0  0  0  0  0  0  0  0  0
    3.5897    0.6925    0.2171 C   0  0  0  0  0  0  0  0  0  0  0  0
    5.0704    0.4513    0.3746 C   0  0  0  0  0  0  0  0  0  0  0  0
   -4.8719    1.3300   -1.3837 H   0  0  0  0  0  0  0  0  0  0  0  0
   -5.1214   -0.1884   -0.3648 H   0  0  0  0  0  0  0  0  0  0  0  0
   -5.0836    1.4338    0.3772 H   0  0  0  0  0  0  0  0  0  0  0  0
   -3.0738    0.4973    0.8939 H   0  0  0  0  0  0  0  0  0  0  0  0
   -2.6065    1.5212   -0.4891 H   0  0  0  0  0  0  0  0  0  0  0  0
   -3.1642   -1.5342   -0.6302 H   0  0  0  0  0  0  0  0  0  0  0  0
   -2.9297   -0.4605   -2.0562 H   0  0  0  0  0  0  0  0  0  0  0  0
   -0.7039    0.1402   -1.1276 H   0  0  0  0  0  0  0  0  0  0  0  0
   -0.7995   -1.5970   -1.3941 H   0  0  0  0  0  0  0  0  0  0  0  0
   -1.3735   -1.9029    1.1038 H   0  0  0  0  0  0  0  0  0  0  0  0
   -1.2583   -0.1422    1.3199 H   0  0  0  0  0  0  0  0  0  0  0  0
    3.0974   -0.7552    1.7273 H   0  0  0  0  0  0  0  0  0  0  0  0
    3.1365   -1.3873    0.0408 H   0  0  0  0  0  0  0  0  0  0  0  0
    3.2627    1.5938    0.7660 H   0  0  0  0  0  0  0  0  0  0  0  0
    3.3253    0.8901   -0.8608 H   0  0  0  0  0  0  0  0  0  0  0  0
    5.4914    1.3036    0.9445 H   0  0  0  0  0  0  0  0  0  0  0  0
    5.2632   -0.5307    0.8614 H   0  0  0  0  0  0  0  0  0  0  0  0
    5.5402    0.3953   -0.6335 H   0  0  0  0  0  0  0  0  0  0  0  0
  1  2  1  0
  2  3  1  0
  3  4  1  0
  4  5  1  0
  5  6  1  0
  6  7  1  0
  7  8  2  0
  7  9  1  0
  9 10  1  0
 10 11  1  0
  1 12  1  0
  1 13  1  0
  1 14  1  0
  2 15  1  0
  2 16  1  0
  3 17  1  0
  3 18  1  0
  4 19  1  0
  4 20  1  0
  5 21  1  0
  5 22  1  0
  9 23  1  0
  9 24  1  0
 10 25  1  0
 10 26  1  0
 11 27  1  0
 11 28  1  0
 11 29  1  0
M  END
>  <Ligand ID>  (1) 
LIG0000143

>  <Ligand>  (1) 
Amyl butyrate

>  <SMILES>  (1) 
CCCCCOC(=O)CCC

>  <CID>  (1) 
10890.0

>  <ChEMBL ID>  (1) 
nan

>  <InChiKey>  (1) 
CFNJLPHOBMVMNS-UHFFFAOYSA-N

>  <InChi>  (1) 
InChI=1S/C9H18O2/c1-3-5-6-8-11-9(10)7-4-2/h3-8H2,1-2H3

>  <IUPAC Name>  (1) 
pentyl butanoate

$$$$
