
     RDKit          3D

159163  0  0  0  0  0  0  0  0999 V2000
  -13.5166   -2.7464   -0.0964 C   0  0  0  0  0  0  0  0  0  0  0  0
  -12.3494   -2.1165   -0.8524 C   0  0  0  0  0  0  0  0  0  0  0  0
  -11.1583   -1.9636    0.0938 C   0  0  0  0  0  0  0  0  0  0  0  0
  -11.5155   -1.0783    1.2568 C   0  0  0  0  0  0  0  0  0  0  0  0
  -10.3441   -0.9582    2.1799 C   0  0  1  0  0  0  0  0  0  0  0  0
  -10.0107   -2.3311    2.6572 C   0  0  0  0  0  0  0  0  0  0  0  0
  -10.8712   -2.9754    3.3172 O   0  0  0  0  0  0  0  0  0  0  0  0
   -8.7584   -2.9044    2.3796 O   0  0  0  0  0  0  0  0  0  0  0  0
   -9.2115   -0.4271    1.4516 N   0  0  0  0  0  0  0  0  0  0  0  0
   -8.5647    0.7376    1.9621 C   0  0  0  0  0  0  0  0  0  0  0  0
   -8.9844    1.2927    3.0315 O   0  0  0  0  0  0  0  0  0  0  0  0
   -7.3818    1.3552    1.2870 C   0  0  1  0  0  0  0  0  0  0  0  0
   -7.0142    0.6359    0.0753 N   0  0  0  0  0  0  0  0  0  0  0  0
   -5.9091   -0.2729    0.0610 C   0  0  0  0  0  0  0  0  0  0  0  0
   -5.2763   -0.4281    1.1562 O   0  0  0  0  0  0  0  0  0  0  0  0
   -5.5133   -1.0045   -1.1720 C   0  0  2  0  0  0  0  0  0  0  0  0
   -6.6343   -1.6797   -1.8775 C   0  0  0  0  0  0  0  0  0  0  0  0
   -7.2785   -2.7029   -0.9630 C   0  0  0  0  0  0  0  0  0  0  0  0
   -6.0685   -2.4417   -3.0576 C   0  0  0  0  0  0  0  0  0  0  0  0
   -4.4511   -1.9311   -0.9253 N   0  0  0  0  0  0  0  0  0  0  0  0
   -3.1014   -1.7655   -1.3121 C   0  0  0  0  0  0  0  0  0  0  0  0
   -2.7411   -0.7384   -1.9178 O   0  0  0  0  0  0  0  0  0  0  0  0
   -2.1570   -2.8607   -0.9633 C   0  0  0  0  0  0  0  0  0  0  0  0
   -0.7363   -2.5859   -1.3005 C   0  0  0  0  0  0  0  0  0  0  0  0
   -0.1625   -1.4362   -0.6211 N   0  0  0  0  0  0  0  0  0  0  0  0
   -0.1347   -1.4902    0.7987 C   0  0  0  0  0  0  0  0  0  0  0  0
   -0.5820   -2.4641    1.4619 O   0  0  0  0  0  0  0  0  0  0  0  0
    0.4442   -0.3698    1.6329 C   0  0  1  0  0  0  0  0  0  0  0  0
    0.9009    0.6943    0.7910 N   0  0  0  0  0  0  0  0  0  0  0  0
    2.3148    0.8109    0.5886 C   0  0  0  0  0  0  0  0  0  0  0  0
    3.0156   -0.0548    1.1795 O   0  0  0  0  0  0  0  0  0  0  0  0
    2.9257    1.8669   -0.2518 C   0  0  1  0  0  0  0  0  0  0  0  0
    4.3539    1.6103   -0.3659 N   0  0  0  0  0  0  0  0  0  0  0  0
    5.1108    1.2948   -1.4962 C   0  0  0  0  0  0  0  0  0  0  0  0
    4.6353    1.1800   -2.6802 O   0  0  0  0  0  0  0  0  0  0  0  0
    6.5742    1.0574   -1.4087 C   0  0  1  0  0  0  0  0  0  0  0  0
    7.1071    1.1218   -0.0629 N   0  0  0  0  0  0  0  0  0  0  0  0
    6.7840    0.2295    0.9758 C   0  0  0  0  0  0  0  0  0  0  0  0
    5.9517   -0.7026    0.6619 O   0  0  0  0  0  0  0  0  0  0  0  0
    7.2543    0.2192    2.3492 C   0  0  2  0  0  0  0  0  0  0  0  0
    6.4776    1.3016    3.1667 C   0  0  0  0  0  0  0  0  0  0  0  0
    7.2517    2.5798    2.8281 C   0  0  0  0  0  0  0  0  0  0  0  0
    8.6659    2.1086    2.6631 C   0  0  0  0  0  0  0  0  0  0  0  0
    8.5783    0.6460    2.6541 N   0  0  0  0  0  0  0  0  0  0  0  0
    9.7183   -0.1522    2.9484 C   0  0  0  0  0  0  0  0  0  0  0  0
   10.8037    0.4906    3.1344 O   0  0  0  0  0  0  0  0  0  0  0  0
    9.7338   -1.6187    3.0595 C   0  0  1  0  0  0  0  0  0  0  0  0
    9.4101   -2.3329    1.7912 C   0  0  0  0  0  0  0  0  0  0  0  0
   10.3507   -2.0724    0.6842 C   0  0  0  0  0  0  0  0  0  0  0  0
   11.4008   -2.9788    0.5431 C   0  0  0  0  0  0  0  0  0  0  0  0
   12.3462   -2.8567   -0.4540 C   0  0  0  0  0  0  0  0  0  0  0  0
   12.2276   -1.7956   -1.3263 C   0  0  0  0  0  0  0  0  0  0  0  0
   11.2077   -0.8830   -1.2179 C   0  0  0  0  0  0  0  0  0  0  0  0
   10.2727   -1.0382   -0.1998 C   0  0  0  0  0  0  0  0  0  0  0  0
   13.1692   -1.6639   -2.3294 O   0  0  0  0  0  0  0  0  0  0  0  0
   11.0609   -2.0643    3.5579 N   0  0  0  0  0  0  0  0  0  0  0  0
    6.9441   -0.2523   -2.0574 C   0  0  0  0  0  0  0  0  0  0  0  0
    6.6219   -0.3655   -3.4841 C   0  0  0  0  0  0  0  0  0  0  0  0
    7.5477    0.1822   -4.3818 C   0  0  0  0  0  0  0  0  0  0  0  0
    7.3824    0.1212   -5.7415 C   0  0  0  0  0  0  0  0  0  0  0  0
    6.2772   -0.4941   -6.2875 C   0  0  0  0  0  0  0  0  0  0  0  0
    5.3645   -1.0355   -5.3890 C   0  0  0  0  0  0  0  0  0  0  0  0
    5.5253   -0.9768   -4.0292 C   0  0  0  0  0  0  0  0  0  0  0  0
    2.2606    1.9375   -1.6259 C   0  0  0  0  0  0  0  0  0  0  0  0
    2.8522    3.0895   -2.3513 C   0  0  0  0  0  0  0  0  0  0  0  0
    3.7838    3.9829   -1.9315 N   0  0  0  0  0  0  0  0  0  0  0  0
    4.0378    4.8692   -2.9126 C   0  0  0  0  0  0  0  0  0  0  0  0
    3.2662    4.5479   -3.9732 N   0  0  0  0  0  0  0  0  0  0  0  0
    2.5267    3.4490   -3.6419 C   0  0  0  0  0  0  0  0  0  0  0  0
   -0.6141    0.0833    2.5666 C   0  0  0  0  0  0  0  0  0  0  0  0
   -0.2539    1.1925    3.4954 C   0  0  0  0  0  0  0  0  0  0  0  0
    0.8877    0.8987    4.4095 C   0  0  0  0  0  0  0  0  0  0  0  0
   -0.0596    2.5114    2.8091 C   0  0  0  0  0  0  0  0  0  0  0  0
   -7.5948    2.8108    1.0834 C   0  0  0  0  0  0  0  0  0  0  0  0
   -8.7636    3.1546    0.2484 C   0  0  0  0  0  0  0  0  0  0  0  0
  -10.0241    3.3944    0.7213 C   0  0  0  0  0  0  0  0  0  0  0  0
  -11.0599    3.7121   -0.1481 C   0  0  0  0  0  0  0  0  0  0  0  0
  -10.8797    3.8009   -1.5092 C   0  0  0  0  0  0  0  0  0  0  0  0
   -9.6040    3.5589   -1.9957 C   0  0  0  0  0  0  0  0  0  0  0  0
   -8.5861    3.2466   -1.1341 C   0  0  0  0  0  0  0  0  0  0  0  0
  -14.1569   -1.9611    0.3195 H   0  0  0  0  0  0  0  0  0  0  0  0
  -14.1246   -3.4000   -0.7315 H   0  0  0  0  0  0  0  0  0  0  0  0
  -13.1102   -3.3632    0.7552 H   0  0  0  0  0  0  0  0  0  0  0  0
  -12.6237   -1.1236   -1.2017 H   0  0  0  0  0  0  0  0  0  0  0  0
  -12.0165   -2.7624   -1.6688 H   0  0  0  0  0  0  0  0  0  0  0  0
  -10.8230   -2.9477    0.4342 H   0  0  0  0  0  0  0  0  0  0  0  0
  -10.3879   -1.4155   -0.5161 H   0  0  0  0  0  0  0  0  0  0  0  0
  -12.3903   -1.4693    1.8220 H   0  0  0  0  0  0  0  0  0  0  0  0
  -11.8299   -0.1011    0.8299 H   0  0  0  0  0  0  0  0  0  0  0  0
  -10.5467   -0.3048    3.0512 H   0  0  0  0  0  0  0  0  0  0  0  0
   -8.4833   -3.7517    2.8608 H   0  0  0  0  0  0  0  0  0  0  0  0
   -8.8235   -0.8257    0.5802 H   0  0  0  0  0  0  0  0  0  0  0  0
   -6.5311    1.2023    2.0151 H   0  0  0  0  0  0  0  0  0  0  0  0
   -7.5632    0.7727   -0.8173 H   0  0  0  0  0  0  0  0  0  0  0  0
   -5.0803   -0.2217   -1.8588 H   0  0  0  0  0  0  0  0  0  0  0  0
   -7.4110   -0.9454   -2.2237 H   0  0  0  0  0  0  0  0  0  0  0  0
   -6.9626   -3.7334   -1.2163 H   0  0  0  0  0  0  0  0  0  0  0  0
   -8.3769   -2.6485   -1.0724 H   0  0  0  0  0  0  0  0  0  0  0  0
   -7.0316   -2.4596    0.1058 H   0  0  0  0  0  0  0  0  0  0  0  0
   -6.7407   -3.2444   -3.3870 H   0  0  0  0  0  0  0  0  0  0  0  0
   -5.1162   -2.9094   -2.7210 H   0  0  0  0  0  0  0  0  0  0  0  0
   -5.8836   -1.7826   -3.9359 H   0  0  0  0  0  0  0  0  0  0  0  0
   -4.7229   -2.8209   -0.4030 H   0  0  0  0  0  0  0  0  0  0  0  0
   -2.4547   -3.7614   -1.5797 H   0  0  0  0  0  0  0  0  0  0  0  0
   -2.2978   -3.1911    0.0808 H   0  0  0  0  0  0  0  0  0  0  0  0
   -0.6025   -2.5078   -2.4015 H   0  0  0  0  0  0  0  0  0  0  0  0
   -0.1458   -3.4710   -0.9442 H   0  0  0  0  0  0  0  0  0  0  0  0
    0.2181   -0.6005   -1.1282 H   0  0  0  0  0  0  0  0  0  0  0  0
    1.2720   -0.8430    2.2140 H   0  0  0  0  0  0  0  0  0  0  0  0
    0.2775    1.3734    0.3272 H   0  0  0  0  0  0  0  0  0  0  0  0
    2.7762    2.8576    0.1647 H   0  0  0  0  0  0  0  0  0  0  0  0
    4.8723    1.7038    0.5611 H   0  0  0  0  0  0  0  0  0  0  0  0
    7.1354    1.8349   -2.0080 H   0  0  0  0  0  0  0  0  0  0  0  0
    7.7799    1.8765    0.1411 H   0  0  0  0  0  0  0  0  0  0  0  0
    7.0361   -0.7234    2.8926 H   0  0  0  0  0  0  0  0  0  0  0  0
    6.6782    1.0784    4.2187 H   0  0  0  0  0  0  0  0  0  0  0  0
    5.4458    1.3728    2.8527 H   0  0  0  0  0  0  0  0  0  0  0  0
    6.8776    3.0825    1.9322 H   0  0  0  0  0  0  0  0  0  0  0  0
    7.1564    3.3183    3.6587 H   0  0  0  0  0  0  0  0  0  0  0  0
    9.2178    2.4447    3.5808 H   0  0  0  0  0  0  0  0  0  0  0  0
    9.2150    2.4882    1.8240 H   0  0  0  0  0  0  0  0  0  0  0  0
    9.0377   -1.8917    3.8624 H   0  0  0  0  0  0  0  0  0  0  0  0
    9.3662   -3.4511    1.9782 H   0  0  0  0  0  0  0  0  0  0  0  0
    8.3994   -2.0461    1.4417 H   0  0  0  0  0  0  0  0  0  0  0  0
   11.4927   -3.8191    1.2328 H   0  0  0  0  0  0  0  0  0  0  0  0
   13.1325   -3.5960   -0.5043 H   0  0  0  0  0  0  0  0  0  0  0  0
   11.1379   -0.0659   -1.9128 H   0  0  0  0  0  0  0  0  0  0  0  0
    9.4710   -0.3357   -0.0878 H   0  0  0  0  0  0  0  0  0  0  0  0
   13.1596   -2.1851   -3.1966 H   0  0  0  0  0  0  0  0  0  0  0  0
   11.3533   -1.3454    4.2353 H   0  0  0  0  0  0  0  0  0  0  0  0
   10.9527   -2.9486    4.0985 H   0  0  0  0  0  0  0  0  0  0  0  0
    6.5121   -1.1192   -1.5002 H   0  0  0  0  0  0  0  0  0  0  0  0
    8.0486   -0.4001   -1.9741 H   0  0  0  0  0  0  0  0  0  0  0  0
    8.4484    0.6870   -3.9974 H   0  0  0  0  0  0  0  0  0  0  0  0
    8.1134    0.5509   -6.4110 H   0  0  0  0  0  0  0  0  0  0  0  0
    6.1533   -0.5386   -7.3579 H   0  0  0  0  0  0  0  0  0  0  0  0
    4.5007   -1.5173   -5.8551 H   0  0  0  0  0  0  0  0  0  0  0  0
    4.7832   -1.4268   -3.3552 H   0  0  0  0  0  0  0  0  0  0  0  0
    1.1876    2.1961   -1.4587 H   0  0  0  0  0  0  0  0  0  0  0  0
    2.3722    0.9969   -2.1800 H   0  0  0  0  0  0  0  0  0  0  0  0
    4.2380    3.9955   -0.9946 H   0  0  0  0  0  0  0  0  0  0  0  0
    4.7334    5.6848   -2.8534 H   0  0  0  0  0  0  0  0  0  0  0  0
    1.8046    2.9297   -4.2663 H   0  0  0  0  0  0  0  0  0  0  0  0
   -0.9283   -0.8083    3.1731 H   0  0  0  0  0  0  0  0  0  0  0  0
   -1.5513    0.4087    2.0417 H   0  0  0  0  0  0  0  0  0  0  0  0
   -1.1550    1.3329    4.1641 H   0  0  0  0  0  0  0  0  0  0  0  0
    1.8007    0.5446    3.9235 H   0  0  0  0  0  0  0  0  0  0  0  0
    1.1488    1.8565    4.9132 H   0  0  0  0  0  0  0  0  0  0  0  0
    0.6341    0.2022    5.2375 H   0  0  0  0  0  0  0  0  0  0  0  0
   -0.8157    2.6887    2.0065 H   0  0  0  0  0  0  0  0  0  0  0  0
    0.9588    2.6094    2.4072 H   0  0  0  0  0  0  0  0  0  0  0  0
   -0.2078    3.3765    3.5145 H   0  0  0  0  0  0  0  0  0  0  0  0
   -7.7811    3.2584    2.0994 H   0  0  0  0  0  0  0  0  0  0  0  0
   -6.6829    3.3197    0.6555 H   0  0  0  0  0  0  0  0  0  0  0  0
  -10.2296    3.3471    1.7635 H   0  0  0  0  0  0  0  0  0  0  0  0
  -12.0598    3.9029    0.2291 H   0  0  0  0  0  0  0  0  0  0  0  0
  -11.7138    4.0497   -2.1462 H   0  0  0  0  0  0  0  0  0  0  0  0
   -9.4051    3.6145   -3.0608 H   0  0  0  0  0  0  0  0  0  0  0  0
   -7.5904    3.0609   -1.5396 H   0  0  0  0  0  0  0  0  0  0  0  0
  1  2  1  0
  2  3  1  0
  3  4  1  0
  4  5  1  0
  5  6  1  0
  6  7  2  0
  6  8  1  0
  5  9  1  0
  9 10  1  0
 10 11  2  0
 10 12  1  0
 12 13  1  0
 13 14  1  0
 14 15  2  0
 14 16  1  0
 16 17  1  0
 17 18  1  0
 17 19  1  0
 16 20  1  0
 20 21  1  0
 21 22  2  0
 21 23  1  0
 23 24  1  0
 24 25  1  0
 25 26  1  0
 26 27  2  0
 26 28  1  0
 28 29  1  0
 29 30  1  0
 30 31  2  0
 30 32  1  0
 32 33  1  0
 33 34  1  0
 34 35  2  0
 34 36  1  0
 36 37  1  0
 37 38  1  0
 38 39  2  0
 38 40  1  0
 40 41  1  0
 41 42  1  0
 42 43  1  0
 43 44  1  0
 44 45  1  0
 45 46  2  0
 45 47  1  0
 47 48  1  0
 48 49  1  0
 49 50  2  0
 50 51  1  0
 51 52  2  0
 52 53  1  0
 53 54  2  0
 52 55  1  0
 47 56  1  0
 36 57  1  0
 57 58  1  0
 58 59  2  0
 59 60  1  0
 60 61  2  0
 61 62  1  0
 62 63  2  0
 32 64  1  0
 64 65  1  0
 65 66  1  0
 66 67  1  0
 67 68  2  0
 68 69  1  0
 28 70  1  0
 70 71  1  0
 71 72  1  0
 71 73  1  0
 12 74  1  0
 74 75  1  0
 75 76  2  0
 76 77  1  0
 77 78  2  0
 78 79  1  0
 79 80  2  0
 44 40  1  0
 54 49  1  0
 63 58  1  0
 69 65  2  0
 80 75  1  0
  1 81  1  0
  1 82  1  0
  1 83  1  0
  2 84  1  0
  2 85  1  0
  3 86  1  0
  3 87  1  0
  4 88  1  0
  4 89  1  0
  5 90  1  1
  8 91  1  0
  9 92  1  0
 12 93  1  1
 13 94  1  0
 16 95  1  6
 17 96  1  0
 18 97  1  0
 18 98  1  0
 18 99  1  0
 19100  1  0
 19101  1  0
 19102  1  0
 20103  1  0
 23104  1  0
 23105  1  0
 24106  1  0
 24107  1  0
 25108  1  0
 28109  1  1
 29110  1  0
 32111  1  1
 33112  1  0
 36113  1  6
 37114  1  0
 40115  1  1
 41116  1  0
 41117  1  0
 42118  1  0
 42119  1  0
 43120  1  0
 43121  1  0
 47122  1  1
 48123  1  0
 48124  1  0
 50125  1  0
 51126  1  0
 53127  1  0
 54128  1  0
 55129  1  0
 56130  1  0
 56131  1  0
 57132  1  0
 57133  1  0
 59134  1  0
 60135  1  0
 61136  1  0
 62137  1  0
 63138  1  0
 64139  1  0
 64140  1  0
 66141  1  0
 67142  1  0
 69143  1  0
 70144  1  0
 70145  1  0
 71146  1  0
 72147  1  0
 72148  1  0
 72149  1  0
 73150  1  0
 73151  1  0
 73152  1  0
 74153  1  0
 74154  1  0
 76155  1  0
 77156  1  0
 78157  1  0
 79158  1  0
 80159  1  0
M  END
>  <Ligand ID>  (1) 
LIG0004165

>  <Ligand>  (1) 
CHEMBL262992

>  <SMILES>  (1) 
CCCC[C@@H](C(=O)O)NC(=O)[C@@H](NC(=O)[C@H](C(C)C)NC(=O)CCNC(=O)[C@@H](NC(=O)[C@@H](NC(=O)[C@@H](NC(=O)[C@@H]1CCCN1C(=O)[C@@H](Cc1ccc(cc1)O)N)Cc1ccccc1)Cc1[nH]cnc1)CC(C)C)Cc1ccccc1

>  <CID>  (1) 
44300286.0

>  <ChEMBL ID>  (1) 
nan

>  <InChiKey>  (1) 
KXIGBLDYAYPKEM-IMAVANOCSA-N

>  <InChi>  (1) 
InChI=1S/C58H79N11O11/c1-6-7-19-43(58(79)80)63-52(73)46(31-38-17-12-9-13-18-38)67-56(77)50(36(4)5)68-49(71)25-26-61-51(72)44(28-35(2)3)64-54(75)47(32-40-33-60-34-62-40)65-53(74)45(30-37-15-10-8-11-16-37)66-55(76)48-20-14-27-69(48)57(78)42(59)29-39-21-23-41(70)24-22-39/h8-13,15-18,21-24,33-36,42-48,50,70H,6-7,14,19-20,25-32,59H2,1-5H3,(H,60,62)(H,61,72)(H,63,73)(H,64,75)(H,65,74)(H,66,76)(H,67,77)(H,68,71)(H,79,80)/t42-,43+,44+,45+,46+,47+,48+,50+/m1/s1

>  <IUPAC Name>  (1) 
(2S)-2-[[(2S)-2-[[(2S)-2-[3-[[(2S)-2-[[(2S)-2-[[(2S)-2-[[(2S)-1-[(2R)-2-amino-3-(4-hydroxyphenyl)propanoyl]pyrrolidine-2-carbonyl]amino]-3-phenylpropanoyl]amino]-3-(1H-imidazol-5-yl)propanoyl]amino]-4-methylpentanoyl]amino]propanoylamino]-3-methylbutanoyl]amino]-3-phenylpropanoyl]amino]hexanoic acid

$$$$
