
     RDKit          3D

 27 27  0  0  0  0  0  0  0  0999 V2000
    4.6290    1.0207   -0.4844 C   0  0  0  0  0  0  0  0  0  0  0  0
    3.3219    0.2983   -0.4307 C   0  0  0  0  0  0  0  0  0  0  0  0
    2.1791    0.9180   -0.1926 C   0  0  0  0  0  0  0  0  0  0  0  0
    0.8894    0.2459   -0.1333 C   0  0  0  0  0  0  0  0  0  0  0  0
    0.7466   -1.1112   -0.3226 C   0  0  0  0  0  0  0  0  0  0  0  0
   -0.4877   -1.7365   -0.2632 C   0  0  0  0  0  0  0  0  0  0  0  0
   -1.6140   -0.9762   -0.0057 C   0  0  0  0  0  0  0  0  0  0  0  0
   -1.5031    0.3892    0.1889 C   0  0  0  0  0  0  0  0  0  0  0  0
   -0.2515    0.9680    0.1202 C   0  0  0  0  0  0  0  0  0  0  0  0
   -2.6531    1.0934    0.4408 O   0  0  0  0  0  0  0  0  0  0  0  0
   -2.7717    2.4630    0.6648 C   0  0  0  0  0  0  0  0  0  0  0  0
   -2.8493   -1.5794    0.0572 O   0  0  0  0  0  0  0  0  0  0  0  0
   -3.0084   -2.9638   -0.1342 C   0  0  0  0  0  0  0  0  0  0  0  0
    5.4712    0.3652   -0.2222 H   0  0  0  0  0  0  0  0  0  0  0  0
    4.5987    1.9472    0.1536 H   0  0  0  0  0  0  0  0  0  0  0  0
    4.7621    1.3584   -1.5299 H   0  0  0  0  0  0  0  0  0  0  0  0
    3.3885   -0.7817   -0.6040 H   0  0  0  0  0  0  0  0  0  0  0  0
    2.2317    1.9859   -0.0361 H   0  0  0  0  0  0  0  0  0  0  0  0
    1.6018   -1.7397   -0.5259 H   0  0  0  0  0  0  0  0  0  0  0  0
   -0.5991   -2.8129   -0.4136 H   0  0  0  0  0  0  0  0  0  0  0  0
   -0.1672    2.0238    0.2708 H   0  0  0  0  0  0  0  0  0  0  0  0
   -2.7698    2.7585    1.7279 H   0  0  0  0  0  0  0  0  0  0  0  0
   -3.7893    2.7471    0.2655 H   0  0  0  0  0  0  0  0  0  0  0  0
   -2.0110    3.0745    0.1335 H   0  0  0  0  0  0  0  0  0  0  0  0
   -2.6017   -3.3344   -1.0780 H   0  0  0  0  0  0  0  0  0  0  0  0
   -2.6325   -3.4773    0.7678 H   0  0  0  0  0  0  0  0  0  0  0  0
   -4.1108   -3.1437   -0.1748 H   0  0  0  0  0  0  0  0  0  0  0  0
  1  2  1  0
  2  3  2  3
  3  4  1  0
  4  5  2  0
  5  6  1  0
  6  7  2  0
  7  8  1  0
  8  9  2  0
  8 10  1  0
 10 11  1  0
  7 12  1  0
 12 13  1  0
  9  4  1  0
  1 14  1  0
  1 15  1  0
  1 16  1  0
  2 17  1  0
  3 18  1  0
  5 19  1  0
  6 20  1  0
  9 21  1  0
 11 22  1  0
 11 23  1  0
 11 24  1  0
 13 25  1  0
 13 26  1  0
 13 27  1  0
M  END
>  <Ligand ID>  (1) 
LIG0000261

>  <Ligand>  (1) 
Benzene, 1,2-dimethoxy-4-(1Z)-1-propenyl-

>  <SMILES>  (1) 
CC=Cc1ccc(c(c1)OC)OC

>  <CID>  (1) 
7128.0

>  <ChEMBL ID>  (1) 
nan

>  <InChiKey>  (1) 
NNWHUJCUHAELCL-UHFFFAOYSA-N

>  <InChi>  (1) 
InChI=1S/C11H14O2/c1-4-5-9-6-7-10(12-2)11(8-9)13-3/h4-8H,1-3H3

>  <IUPAC Name>  (1) 
1,2-dimethoxy-4-prop-1-enylbenzene

$$$$
