
     RDKit          3D

 50 52  0  0  0  0  0  0  0  0999 V2000
   -5.2552    0.5851    3.5174 N   0  0  0  0  0  0  0  0  0  0  0  0
   -5.9883    0.4666    2.6101 C   0  0  0  0  0  0  0  0  0  0  0  0
   -6.8788    0.3473    1.5106 C   0  0  0  0  0  0  0  0  0  0  0  0
   -8.2456    0.1259    1.6857 C   0  0  0  0  0  0  0  0  0  0  0  0
   -9.0972    0.0116    0.6660 N   0  0  0  0  0  0  0  0  0  0  0  0
   -8.6400    0.1103   -0.5845 C   0  0  0  0  0  0  0  0  0  0  0  0
   -7.2948    0.3292   -0.8173 C   0  0  0  0  0  0  0  0  0  0  0  0
   -6.3763    0.4539    0.2276 C   0  0  0  0  0  0  0  0  0  0  0  0
   -4.9521    0.6881   -0.0630 C   0  0  0  0  0  0  0  0  0  0  0  0
   -4.1850   -0.4816    0.1203 O   0  0  0  0  0  0  0  0  0  0  0  0
   -2.8133   -0.5235   -0.0899 C   0  0  0  0  0  0  0  0  0  0  0  0
   -2.0588   -1.6667    0.0908 C   0  0  0  0  0  0  0  0  0  0  0  0
   -0.7505   -1.5833   -0.1424 N   0  0  0  0  0  0  0  0  0  0  0  0
   -0.0872   -0.4879   -0.5394 C   0  0  0  0  0  0  0  0  0  0  0  0
   -0.8424    0.6307   -0.7135 N   0  0  0  0  0  0  0  0  0  0  0  0
   -2.1791    0.6444   -0.5014 C   0  0  0  0  0  0  0  0  0  0  0  0
    1.3152   -0.4533   -0.7736 N   0  0  0  0  0  0  0  0  0  0  0  0
    1.9085    0.7892   -1.2401 C   0  0  0  0  0  0  0  0  0  0  0  0
    3.3993    0.6627   -1.4244 C   0  0  0  0  0  0  0  0  0  0  0  0
    3.9938   -0.0377   -0.2761 N   0  0  0  0  0  0  0  0  0  0  0  0
    3.3040   -1.1456    0.3548 C   0  0  0  0  0  0  0  0  0  0  0  0
    2.1738   -1.5745   -0.5741 C   0  0  1  0  0  0  0  0  0  0  0  0
    1.4889   -2.7957   -0.0196 C   0  0  0  0  0  0  0  0  0  0  0  0
    5.2769    0.3841    0.2279 C   0  0  0  0  0  0  0  0  0  0  0  0
    5.7872   -0.2142    1.2066 O   0  0  0  0  0  0  0  0  0  0  0  0
    5.9278    1.4344   -0.3662 O   0  0  0  0  0  0  0  0  0  0  0  0
    7.1629    1.9713   -0.0182 C   0  0  0  0  0  0  0  0  0  0  0  0
    8.3334    1.0507   -0.1089 C   0  0  0  0  0  0  0  0  0  0  0  0
    8.2835   -0.0620    0.6682 F   0  0  0  0  0  0  0  0  0  0  0  0
    9.4389    1.7863    0.3435 F   0  0  0  0  0  0  0  0  0  0  0  0
   -8.6332    0.0420    2.6960 H   0  0  0  0  0  0  0  0  0  0  0  0
   -9.2798    0.0277   -1.4553 H   0  0  0  0  0  0  0  0  0  0  0  0
   -6.9355    0.4084   -1.8359 H   0  0  0  0  0  0  0  0  0  0  0  0
   -4.8523    1.0511   -1.1061 H   0  0  0  0  0  0  0  0  0  0  0  0
   -4.5245    1.4988    0.5894 H   0  0  0  0  0  0  0  0  0  0  0  0
   -2.5385   -2.5860    0.4116 H   0  0  0  0  0  0  0  0  0  0  0  0
   -2.7770    1.5374   -0.6407 H   0  0  0  0  0  0  0  0  0  0  0  0
    1.7389    1.6112   -0.5164 H   0  0  0  0  0  0  0  0  0  0  0  0
    1.4858    1.1289   -2.2063 H   0  0  0  0  0  0  0  0  0  0  0  0
    3.6563    0.0576   -2.3231 H   0  0  0  0  0  0  0  0  0  0  0  0
    3.8610    1.6584   -1.4781 H   0  0  0  0  0  0  0  0  0  0  0  0
    2.7840   -0.7219    1.2580 H   0  0  0  0  0  0  0  0  0  0  0  0
    3.9783   -1.9854    0.6150 H   0  0  0  0  0  0  0  0  0  0  0  0
    2.6579   -1.8022   -1.5460 H   0  0  0  0  0  0  0  0  0  0  0  0
    2.3193   -3.5353    0.1628 H   0  0  0  0  0  0  0  0  0  0  0  0
    0.8121   -3.2810   -0.7149 H   0  0  0  0  0  0  0  0  0  0  0  0
    1.0585   -2.6210    0.9852 H   0  0  0  0  0  0  0  0  0  0  0  0
    7.3838    2.8423   -0.6780 H   0  0  0  0  0  0  0  0  0  0  0  0
    7.0756    2.3985    1.0063 H   0  0  0  0  0  0  0  0  0  0  0  0
    8.5799    0.8246   -1.1787 H   0  0  0  0  0  0  0  0  0  0  0  0
  1  2  3  0
  2  3  1  0
  3  4  2  0
  4  5  1  0
  5  6  2  0
  6  7  1  0
  7  8  2  0
  8  9  1  0
  9 10  1  0
 10 11  1  0
 11 12  2  0
 12 13  1  0
 13 14  2  0
 14 15  1  0
 15 16  2  0
 14 17  1  0
 17 18  1  0
 18 19  1  0
 19 20  1  0
 20 21  1  0
 21 22  1  0
 22 23  1  0
 20 24  1  0
 24 25  2  0
 24 26  1  0
 26 27  1  0
 27 28  1  0
 28 29  1  0
 28 30  1  0
  8  3  1  0
 16 11  1  0
 22 17  1  0
  4 31  1  0
  6 32  1  0
  7 33  1  0
  9 34  1  0
  9 35  1  0
 12 36  1  0
 16 37  1  0
 18 38  1  0
 18 39  1  0
 19 40  1  0
 19 41  1  0
 21 42  1  0
 21 43  1  0
 22 44  1  6
 23 45  1  0
 23 46  1  0
 23 47  1  0
 27 48  1  0
 27 49  1  0
 28 50  1  0
M  END
>  <Ligand ID>  (1) 
LIG0005302

>  <Ligand>  (1) 
CHEMBL2086688

>  <SMILES>  (1) 
N#Cc1cnccc1COc1cnc(nc1)N1CCN(C[C@H]1C)C(=O)OCC(F)F

>  <CID>  (1) 
60155461.0

>  <ChEMBL ID>  (1) 
nan

>  <InChiKey>  (1) 
REVHGAGSNKNWNB-CYBMUJFWSA-N

>  <InChi>  (1) 
InChI=1S/C19H20F2N6O3/c1-13-10-26(19(28)30-12-17(20)21)4-5-27(13)18-24-8-16(9-25-18)29-11-14-2-3-23-7-15(14)6-22/h2-3,7-9,13,17H,4-5,10-12H2,1H3/t13-/m1/s1

>  <IUPAC Name>  (1) 
2,2-difluoroethyl (3R)-4-[5-[(3-cyanopyridin-4-yl)methoxy]pyrimidin-2-yl]-3-methylpiperazine-1-carboxylate

$$$$
