
     RDKit          3D

 61 65  0  0  0  0  0  0  0  0999 V2000
   -0.3698   -3.6855    2.6989 C   0  0  0  0  0  0  0  0  0  0  0  0
   -1.2951   -4.4031    1.7806 C   0  0  0  0  0  0  0  0  0  0  0  0
   -2.5022   -3.7299    1.5442 O   0  0  0  0  0  0  0  0  0  0  0  0
   -2.6368   -2.4736    0.9868 C   0  0  0  0  0  0  0  0  0  0  0  0
   -1.5736   -1.6952    0.5786 C   0  0  0  0  0  0  0  0  0  0  0  0
   -1.8010   -0.4503    0.0315 C   0  0  0  0  0  0  0  0  0  0  0  0
   -3.0718    0.0517   -0.1246 C   0  0  0  0  0  0  0  0  0  0  0  0
   -4.1286   -0.7385    0.2886 C   0  0  0  0  0  0  0  0  0  0  0  0
   -3.9338   -1.9949    0.8427 C   0  0  0  0  0  0  0  0  0  0  0  0
   -5.0370   -2.7226    1.2302 O   0  0  0  0  0  0  0  0  0  0  0  0
   -6.3090   -2.1624    1.0482 C   0  0  0  0  0  0  0  0  0  0  0  0
   -3.2705    1.2850   -0.6687 N   0  0  0  0  0  0  0  0  0  0  0  0
   -2.2184    2.0359   -1.0645 C   0  0  0  0  0  0  0  0  0  0  0  0
   -0.9799    1.5338   -0.9065 N   0  0  0  0  0  0  0  0  0  0  0  0
   -0.7315    0.3118   -0.3702 C   0  0  0  0  0  0  0  0  0  0  0  0
    0.6220   -0.0851   -0.2636 N   0  0  0  0  0  0  0  0  0  0  0  0
    1.2830   -0.3918    0.9887 C   0  0  0  0  0  0  0  0  0  0  0  0
    2.5081    0.5004    1.1735 C   0  0  0  0  0  0  0  0  0  0  0  0
    3.3771    0.2937    0.0179 N   0  0  0  0  0  0  0  0  0  0  0  0
    2.7553    0.5562   -1.2765 C   0  0  0  0  0  0  0  0  0  0  0  0
    1.4618   -0.2084   -1.4652 C   0  0  0  0  0  0  0  0  0  0  0  0
    4.7361   -0.1156    0.1461 C   0  0  0  0  0  0  0  0  0  0  0  0
    5.4650   -0.6389   -0.9082 C   0  0  0  0  0  0  0  0  0  0  0  0
    6.7988   -1.0209   -0.7690 C   0  0  0  0  0  0  0  0  0  0  0  0
    7.4542   -0.8950    0.4269 C   0  0  0  0  0  0  0  0  0  0  0  0
    6.7457   -0.3763    1.4876 C   0  0  0  0  0  0  0  0  0  0  0  0
    5.4073    0.0071    1.3476 C   0  0  0  0  0  0  0  0  0  0  0  0
   -2.4445    3.3559   -1.6465 C   0  0  0  0  0  0  0  0  0  0  0  0
   -1.3558    4.1062   -2.0436 C   0  0  0  0  0  0  0  0  0  0  0  0
   -1.5716    5.3657   -2.5989 C   0  0  0  0  0  0  0  0  0  0  0  0
   -2.8707    5.8034   -2.7252 C   0  0  0  0  0  0  0  0  0  0  0  0
   -3.9444    5.0334   -2.3200 C   0  0  0  0  0  0  0  0  0  0  0  0
   -3.7479    3.7940   -1.7727 C   0  0  0  0  0  0  0  0  0  0  0  0
   -0.8308   -2.7539    3.1388 H   0  0  0  0  0  0  0  0  0  0  0  0
    0.6217   -3.4308    2.2590 H   0  0  0  0  0  0  0  0  0  0  0  0
   -0.1656   -4.3240    3.5806 H   0  0  0  0  0  0  0  0  0  0  0  0
   -1.5602   -5.3882    2.2120 H   0  0  0  0  0  0  0  0  0  0  0  0
   -0.8442   -4.6307    0.7934 H   0  0  0  0  0  0  0  0  0  0  0  0
   -0.5732   -2.0649    0.6891 H   0  0  0  0  0  0  0  0  0  0  0  0
   -5.1414   -0.3279    0.1594 H   0  0  0  0  0  0  0  0  0  0  0  0
   -6.3950   -1.1766    1.5288 H   0  0  0  0  0  0  0  0  0  0  0  0
   -6.5483   -2.0096   -0.0367 H   0  0  0  0  0  0  0  0  0  0  0  0
   -7.1025   -2.8261    1.4565 H   0  0  0  0  0  0  0  0  0  0  0  0
    0.6219   -0.3444    1.8566 H   0  0  0  0  0  0  0  0  0  0  0  0
    1.7210   -1.4259    0.8553 H   0  0  0  0  0  0  0  0  0  0  0  0
    3.0176    0.1057    2.0539 H   0  0  0  0  0  0  0  0  0  0  0  0
    2.2569    1.5545    1.3069 H   0  0  0  0  0  0  0  0  0  0  0  0
    2.5821    1.6617   -1.3556 H   0  0  0  0  0  0  0  0  0  0  0  0
    3.4151    0.3119   -2.1198 H   0  0  0  0  0  0  0  0  0  0  0  0
    1.7124   -1.2814   -1.5607 H   0  0  0  0  0  0  0  0  0  0  0  0
    0.9570    0.2260   -2.3363 H   0  0  0  0  0  0  0  0  0  0  0  0
    5.0427   -0.7809   -1.8819 H   0  0  0  0  0  0  0  0  0  0  0  0
    7.3543   -1.4338   -1.6234 H   0  0  0  0  0  0  0  0  0  0  0  0
    8.4760   -1.1793    0.5640 H   0  0  0  0  0  0  0  0  0  0  0  0
    7.2557   -0.2734    2.4363 H   0  0  0  0  0  0  0  0  0  0  0  0
    4.9603    0.4045    2.2478 H   0  0  0  0  0  0  0  0  0  0  0  0
   -0.3432    3.7601   -1.9430 H   0  0  0  0  0  0  0  0  0  0  0  0
   -0.7306    5.9588   -2.9117 H   0  0  0  0  0  0  0  0  0  0  0  0
   -3.0466    6.7946   -3.1618 H   0  0  0  0  0  0  0  0  0  0  0  0
   -4.9418    5.4326   -2.4454 H   0  0  0  0  0  0  0  0  0  0  0  0
   -4.5917    3.1949   -1.4569 H   0  0  0  0  0  0  0  0  0  0  0  0
  1  2  1  0
  2  3  1  0
  3  4  1  0
  4  5  2  0
  5  6  1  0
  6  7  2  0
  7  8  1  0
  8  9  2  0
  9 10  1  0
 10 11  1  0
  7 12  1  0
 12 13  2  0
 13 14  1  0
 14 15  2  0
 15 16  1  0
 16 17  1  0
 17 18  1  0
 18 19  1  0
 19 20  1  0
 20 21  1  0
 19 22  1  0
 22 23  2  0
 23 24  1  0
 24 25  2  0
 25 26  1  0
 26 27  2  0
 13 28  1  0
 28 29  2  0
 29 30  1  0
 30 31  2  0
 31 32  1  0
 32 33  2  0
  9  4  1  0
 21 16  1  0
 27 22  1  0
 33 28  1  0
 15  6  1  0
  1 34  1  0
  1 35  1  0
  1 36  1  0
  2 37  1  0
  2 38  1  0
  5 39  1  0
  8 40  1  0
 11 41  1  0
 11 42  1  0
 11 43  1  0
 17 44  1  0
 17 45  1  0
 18 46  1  0
 18 47  1  0
 20 48  1  0
 20 49  1  0
 21 50  1  0
 21 51  1  0
 23 52  1  0
 24 53  1  0
 25 54  1  0
 26 55  1  0
 27 56  1  0
 29 57  1  0
 30 58  1  0
 31 59  1  0
 32 60  1  0
 33 61  1  0
M  END
>  <Ligand ID>  (1) 
LIG0004468

>  <Ligand>  (1) 
CHEMBL2431139

>  <SMILES>  (1) 
CCOc1cc2c(cc1OC)nc(nc2N1CCN(CC1)c1ccccc1)c1ccccc1

>  <CID>  (1) 
73356948.0

>  <ChEMBL ID>  (1) 
nan

>  <InChiKey>  (1) 
UJZHLHQBLBGFDP-UHFFFAOYSA-N

>  <InChi>  (1) 
InChI=1S/C27H28N4O2/c1-3-33-25-18-22-23(19-24(25)32-2)28-26(20-10-6-4-7-11-20)29-27(22)31-16-14-30(15-17-31)21-12-8-5-9-13-21/h4-13,18-19H,3,14-17H2,1-2H3

>  <IUPAC Name>  (1) 
6-ethoxy-7-methoxy-2-phenyl-4-(4-phenylpiperazin-1-yl)quinazoline

$$$$
