
     RDKit          3D

 30 31  0  0  0  0  0  0  0  0999 V2000
   -1.1040   -2.2585    0.1531 C   0  0  0  0  0  0  0  0  0  0  0  0
   -1.2117   -0.9770   -0.6842 C   0  0  0  0  0  0  0  0  0  0  0  0
   -2.4979   -0.3351   -0.3132 C   0  0  0  0  0  0  0  0  0  0  0  0
   -2.6733    1.0213   -0.5829 N   0  0  0  0  0  0  0  0  0  0  0  0
   -1.9218    1.9633    0.1513 C   0  0  0  0  0  0  0  0  0  0  0  0
   -0.6867    2.2748   -0.6688 C   0  0  0  0  0  0  0  0  0  0  0  0
    0.2712    1.1647   -0.4569 C   0  0  0  0  0  0  0  0  0  0  0  0
    0.0011   -0.1879   -0.4732 C   0  0  0  0  0  0  0  0  0  0  0  0
    1.1036   -1.0204   -0.2414 C   0  0  0  0  0  0  0  0  0  0  0  0
    2.3644   -0.5043   -0.0143 C   0  0  0  0  0  0  0  0  0  0  0  0
    2.5870    0.8468   -0.0069 C   0  0  0  0  0  0  0  0  0  0  0  0
    1.5243    1.6813   -0.2313 C   0  0  0  0  0  0  0  0  0  0  0  0
    3.5345   -1.3959    0.2321 C   0  0  0  0  0  0  0  0  0  0  0  0
    3.1918   -2.6569    0.6070 F   0  0  0  0  0  0  0  0  0  0  0  0
    4.2943   -1.4702   -0.9272 F   0  0  0  0  0  0  0  0  0  0  0  0
    4.3179   -0.8161    1.2000 F   0  0  0  0  0  0  0  0  0  0  0  0
   -2.1273   -2.5887    0.4841 H   0  0  0  0  0  0  0  0  0  0  0  0
   -0.7389   -3.1098   -0.4570 H   0  0  0  0  0  0  0  0  0  0  0  0
   -0.5375   -2.0913    1.0898 H   0  0  0  0  0  0  0  0  0  0  0  0
   -1.2513   -1.2734   -1.7541 H   0  0  0  0  0  0  0  0  0  0  0  0
   -2.7359   -0.5427    0.7709 H   0  0  0  0  0  0  0  0  0  0  0  0
   -3.3046   -0.9009   -0.8574 H   0  0  0  0  0  0  0  0  0  0  0  0
   -3.3821    1.3266   -1.2359 H   0  0  0  0  0  0  0  0  0  0  0  0
   -1.5764    1.5383    1.1118 H   0  0  0  0  0  0  0  0  0  0  0  0
   -2.4503    2.9067    0.3908 H   0  0  0  0  0  0  0  0  0  0  0  0
   -0.9932    2.2528   -1.7540 H   0  0  0  0  0  0  0  0  0  0  0  0
   -0.2602    3.2604   -0.4300 H   0  0  0  0  0  0  0  0  0  0  0  0
    1.0161   -2.0980   -0.2303 H   0  0  0  0  0  0  0  0  0  0  0  0
    3.5794    1.2292    0.1724 H   0  0  0  0  0  0  0  0  0  0  0  0
    1.6675    2.7609   -0.2320 H   0  0  0  0  0  0  0  0  0  0  0  0
  1  2  1  0
  2  3  1  0
  3  4  1  0
  4  5  1  0
  5  6  1  0
  6  7  1  0
  7  8  2  0
  8  9  1  0
  9 10  2  0
 10 11  1  0
 11 12  2  0
 10 13  1  0
 13 14  1  0
 13 15  1  0
 13 16  1  0
  8  2  1  0
 12  7  1  0
  1 17  1  0
  1 18  1  0
  1 19  1  0
  2 20  1  0
  3 21  1  0
  3 22  1  0
  4 23  1  0
  5 24  1  0
  5 25  1  0
  6 26  1  0
  6 27  1  0
  9 28  1  0
 11 29  1  0
 12 30  1  0
M  END
>  <Ligand ID>  (1) 
LIG0004019

>  <Ligand>  (1) 
CHEMBL178124

>  <SMILES>  (1) 
CC1CNCCc2c1cc(cc2)C(F)(F)F

>  <CID>  (1) 
10105208.0

>  <ChEMBL ID>  (1) 
nan

>  <InChiKey>  (1) 
GBYLNYMTYZRQLE-UHFFFAOYSA-N

>  <InChi>  (1) 
InChI=1S/C12H14F3N/c1-8-7-16-5-4-9-2-3-10(6-11(8)9)12(13,14)15/h2-3,6,8,16H,4-5,7H2,1H3

>  <IUPAC Name>  (1) 
5-methyl-7-(trifluoromethyl)-2,3,4,5-tetrahydro-1H-3-benzazepine

$$$$
