
     RDKit          3D

 83 91  0  0  0  0  0  0  0  0999 V2000
   -6.3065   -5.3786   -1.2311 O   0  0  0  0  0  0  0  0  0  0  0  0
   -6.2027   -5.2682    0.1382 C   0  0  0  0  0  0  0  0  0  0  0  0
   -5.8788   -3.8247    0.5402 C   0  0  0  0  0  0  0  0  0  0  0  0
   -4.6575   -3.4092   -0.0301 O   0  0  0  0  0  0  0  0  0  0  0  0
   -4.2087   -2.1344    0.2288 C   0  0  0  0  0  0  0  0  0  0  0  0
   -4.9144   -1.2312    1.0338 C   0  0  0  0  0  0  0  0  0  0  0  0
   -4.4387    0.0620    1.2858 C   0  0  0  0  0  0  0  0  0  0  0  0
   -3.2168    0.4641    0.7124 C   0  0  0  0  0  0  0  0  0  0  0  0
   -2.6120   -0.4674   -0.0466 C   0  0  0  0  0  0  0  0  0  0  0  0
   -2.9982   -1.7313   -0.3374 C   0  0  0  0  0  0  0  0  0  0  0  0
   -2.0219   -2.2794   -1.1502 O   0  0  0  0  0  0  0  0  0  0  0  0
   -0.8371   -1.4988   -1.1789 C   0  0  1  0  0  0  0  0  0  0  0  0
   -1.3361   -0.1339   -0.7222 C   0  0  1  0  0  0  0  0  0  0  0  0
   -1.5820    0.7782   -1.8487 C   0  0  0  0  0  0  0  0  0  0  0  0
   -1.2133    2.1869   -1.6809 C   0  0  0  0  0  0  0  0  0  0  0  0
   -0.9107    2.6843   -0.4163 N   0  0  0  0  0  0  0  0  0  0  0  0
   -1.1376    1.7934    0.6872 C   0  0  1  0  0  0  0  0  0  0  0  0
   -2.6009    1.7772    0.9576 C   0  0  0  0  0  0  0  0  0  0  0  0
   -0.5149    0.4448    0.4080 C   0  0  1  0  0  0  0  0  0  0  0  0
   -0.6126   -0.4546    1.5964 C   0  0  0  0  0  0  0  0  0  0  0  0
   -0.3106   -1.8719    1.2038 C   0  0  0  0  0  0  0  0  0  0  0  0
    0.2485   -1.9284   -0.2588 C   0  0  1  0  0  0  0  0  0  0  0  0
    0.6182   -3.2282   -0.3974 O   0  0  0  0  0  0  0  0  0  0  0  0
    0.9060   -3.7083   -1.6330 C   0  0  0  0  0  0  0  0  0  0  0  0
    1.3768   -0.9560   -0.2480 C   0  0  1  0  0  0  0  0  0  0  0  0
    0.9053    0.4969   -0.0319 C   0  0  0  0  0  0  0  0  0  0  0  0
    2.4753   -1.2366    0.7193 C   0  0  0  0  0  0  0  0  0  0  0  0
    3.2047   -2.3720    0.5861 O   0  0  0  0  0  0  0  0  0  0  0  0
    4.0579   -2.3913   -0.5008 C   0  0  0  0  0  0  0  0  0  0  0  0
    5.0705   -1.3717   -0.4192 C   0  0  0  0  0  0  0  0  0  0  0  0
    5.1792   -0.0791   -0.8251 C   0  0  0  0  0  0  0  0  0  0  0  0
    6.2911    0.6155   -0.5849 C   0  0  0  0  0  0  0  0  0  0  0  0
    7.3279   -0.0133    0.0865 C   0  0  0  0  0  0  0  0  0  0  0  0
    6.7215   -1.6973    0.4131 S   0  0  0  0  0  0  0  0  0  0  0  0
    8.5228    0.5488    0.4101 C   0  0  0  0  0  0  0  0  0  0  0  0
    8.7887    1.8575    0.0677 C   0  0  0  0  0  0  0  0  0  0  0  0
    7.7763    2.5222   -0.6058 C   0  0  0  0  0  0  0  0  0  0  0  0
    6.5833    1.9565   -0.9272 C   0  0  0  0  0  0  0  0  0  0  0  0
   -0.6062    4.0157   -0.1796 C   0  0  0  0  0  0  0  0  0  0  0  0
   -1.8339    4.8822   -0.3962 C   0  0  0  0  0  0  0  0  0  0  0  0
   -1.7465    6.3499   -0.2015 C   0  0  0  0  0  0  0  0  0  0  0  0
   -2.4426    5.5261    0.8177 C   0  0  0  0  0  0  0  0  0  0  0  0
   -5.8373   -6.2282   -1.4810 H   0  0  0  0  0  0  0  0  0  0  0  0
   -5.4170   -5.9419    0.5603 H   0  0  0  0  0  0  0  0  0  0  0  0
   -7.1552   -5.5448    0.6236 H   0  0  0  0  0  0  0  0  0  0  0  0
   -5.8567   -3.7560    1.6525 H   0  0  0  0  0  0  0  0  0  0  0  0
   -6.6804   -3.1806    0.1272 H   0  0  0  0  0  0  0  0  0  0  0  0
   -5.8684   -1.5588    1.4749 H   0  0  0  0  0  0  0  0  0  0  0  0
   -4.9787    0.7619    1.9064 H   0  0  0  0  0  0  0  0  0  0  0  0
   -0.4496   -1.3508   -2.1922 H   0  0  0  0  0  0  0  0  0  0  0  0
   -2.7015    0.7454   -2.0614 H   0  0  0  0  0  0  0  0  0  0  0  0
   -1.1563    0.4153   -2.8232 H   0  0  0  0  0  0  0  0  0  0  0  0
   -0.3301    2.4202   -2.3579 H   0  0  0  0  0  0  0  0  0  0  0  0
   -2.0209    2.8374   -2.1564 H   0  0  0  0  0  0  0  0  0  0  0  0
   -0.6199    2.2117    1.5764 H   0  0  0  0  0  0  0  0  0  0  0  0
   -2.8333    2.1442    2.0021 H   0  0  0  0  0  0  0  0  0  0  0  0
   -3.1037    2.5150    0.2718 H   0  0  0  0  0  0  0  0  0  0  0  0
   -1.5901   -0.4805    2.1104 H   0  0  0  0  0  0  0  0  0  0  0  0
    0.0874   -0.0612    2.3825 H   0  0  0  0  0  0  0  0  0  0  0  0
    0.4772   -2.3055    1.8364 H   0  0  0  0  0  0  0  0  0  0  0  0
   -1.2174   -2.5283    1.1576 H   0  0  0  0  0  0  0  0  0  0  0  0
    1.6893   -3.2463   -2.2156 H   0  0  0  0  0  0  0  0  0  0  0  0
   -0.0289   -3.8933   -2.2543 H   0  0  0  0  0  0  0  0  0  0  0  0
    1.2672   -4.7753   -1.4676 H   0  0  0  0  0  0  0  0  0  0  0  0
    1.8421   -1.0261   -1.2815 H   0  0  0  0  0  0  0  0  0  0  0  0
    1.0039    1.0704   -0.9541 H   0  0  0  0  0  0  0  0  0  0  0  0
    1.4944    0.9287    0.8091 H   0  0  0  0  0  0  0  0  0  0  0  0
    3.1902   -0.3468    0.6358 H   0  0  0  0  0  0  0  0  0  0  0  0
    2.0936   -1.1047    1.7765 H   0  0  0  0  0  0  0  0  0  0  0  0
    4.5173   -3.3920   -0.5788 H   0  0  0  0  0  0  0  0  0  0  0  0
    3.4752   -2.2125   -1.4174 H   0  0  0  0  0  0  0  0  0  0  0  0
    4.2978    0.3691   -1.3664 H   0  0  0  0  0  0  0  0  0  0  0  0
    9.2547   -0.0384    0.9344 H   0  0  0  0  0  0  0  0  0  0  0  0
    9.7299    2.3204    0.3152 H   0  0  0  0  0  0  0  0  0  0  0  0
    7.9681    3.5471   -0.8809 H   0  0  0  0  0  0  0  0  0  0  0  0
    5.8652    2.5692   -1.4542 H   0  0  0  0  0  0  0  0  0  0  0  0
   -0.3310    4.1289    0.9130 H   0  0  0  0  0  0  0  0  0  0  0  0
    0.2687    4.4230   -0.7418 H   0  0  0  0  0  0  0  0  0  0  0  0
   -2.5730    4.4800   -1.1046 H   0  0  0  0  0  0  0  0  0  0  0  0
   -2.3992    6.9737   -0.8489 H   0  0  0  0  0  0  0  0  0  0  0  0
   -0.7788    6.8013    0.1017 H   0  0  0  0  0  0  0  0  0  0  0  0
   -1.9608    5.4114    1.8207 H   0  0  0  0  0  0  0  0  0  0  0  0
   -3.5467    5.6006    0.9253 H   0  0  0  0  0  0  0  0  0  0  0  0
  1  2  1  0
  2  3  1  0
  3  4  1  0
  4  5  1  0
  5  6  2  0
  6  7  1  0
  7  8  2  0
  8  9  1  0
  9 10  2  0
 10 11  1  0
 11 12  1  0
 12 13  1  0
 13 14  1  6
 14 15  1  0
 15 16  1  0
 16 17  1  0
 17 18  1  0
 17 19  1  0
 19 20  1  1
 20 21  1  0
 21 22  1  0
 22 23  1  6
 23 24  1  0
 22 25  1  0
 25 26  1  0
 25 27  1  0
 27 28  1  0
 28 29  1  0
 29 30  1  0
 30 31  2  0
 31 32  1  0
 32 33  2  0
 33 34  1  0
 33 35  1  0
 35 36  2  0
 36 37  1  0
 37 38  2  0
 16 39  1  0
 39 40  1  0
 40 41  1  0
 41 42  1  0
 10  5  1  0
 22 12  1  0
 34 30  1  0
 42 40  1  0
 18  8  1  0
 26 19  1  0
 38 32  1  0
 13  9  1  0
 19 13  1  0
  1 43  1  0
  2 44  1  0
  2 45  1  0
  3 46  1  0
  3 47  1  0
  6 48  1  0
  7 49  1  0
 12 50  1  6
 14 51  1  0
 14 52  1  0
 15 53  1  0
 15 54  1  0
 17 55  1  1
 18 56  1  0
 18 57  1  0
 20 58  1  0
 20 59  1  0
 21 60  1  0
 21 61  1  0
 24 62  1  0
 24 63  1  0
 24 64  1  0
 25 65  1  6
 26 66  1  0
 26 67  1  0
 27 68  1  0
 27 69  1  0
 29 70  1  0
 29 71  1  0
 31 72  1  0
 35 73  1  0
 36 74  1  0
 37 75  1  0
 38 76  1  0
 39 77  1  0
 39 78  1  0
 40 79  1  0
 41 80  1  0
 41 81  1  0
 42 82  1  0
 42 83  1  0
M  END
>  <Ligand ID>  (1) 
LIG0004704

>  <Ligand>  (1) 
CHEMBL3938649

>  <SMILES>  (1) 
OCCOc1ccc2c3c1O[C@H]1[C@]43CCN([C@@H](C2)[C@]24CC[C@]1(OC)[C@@H](C2)COCc1cc2c(s1)cccc2)CC1CC1

>  <CID>  (1) 
134149604.0

>  <ChEMBL ID>  (1) 
nan

>  <InChiKey>  (1) 
CLVRCDVMIOGLTN-NCPQIZPPSA-N

>  <InChi>  (1) 
InChI=1S/C35H41NO5S/c1-38-35-11-10-33(18-25(35)20-39-21-26-16-23-4-2-3-5-28(23)42-26)29-17-24-8-9-27(40-15-14-37)31-30(24)34(33,32(35)41-31)12-13-36(29)19-22-6-7-22/h2-5,8-9,16,22,25,29,32,37H,6-7,10-15,17-21H2,1H3/t25-,29-,32-,33-,34+,35-/m0/s1

>  <IUPAC Name>  (1) 
2-[[(1R,2R,6S,14S,15S,16S)-16-(1-benzothiophen-2-ylmethoxymethyl)-5-(cyclopropylmethyl)-15-methoxy-13-oxa-5-azahexacyclo[13.2.2.12,8.01,6.02,14.012,20]icosa-8(20),9,11-trien-11-yl]oxy]ethanol

$$$$
