
     RDKit          3D

 39 42  0  0  0  0  0  0  0  0999 V2000
    7.8339   -0.9602   -0.4667 C   0  0  0  0  0  0  0  0  0  0  0  0
    6.4221   -0.8335    0.0152 C   0  0  0  0  0  0  0  0  0  0  0  0
    6.2333   -0.5391    1.2235 O   0  0  0  0  0  0  0  0  0  0  0  0
    5.4243   -1.0495   -0.9037 O   0  0  0  0  0  0  0  0  0  0  0  0
    4.0715   -0.9852   -0.6773 C   0  0  0  0  0  0  0  0  0  0  0  0
    3.3674   -2.1202   -0.2771 C   0  0  0  0  0  0  0  0  0  0  0  0
    2.0072   -2.0000   -0.0629 C   0  0  0  0  0  0  0  0  0  0  0  0
    1.3874   -0.7837   -0.2459 C   0  0  0  0  0  0  0  0  0  0  0  0
    2.0761    0.3421   -0.6411 C   0  0  0  0  0  0  0  0  0  0  0  0
    3.4273    0.2251   -0.8545 C   0  0  0  0  0  0  0  0  0  0  0  0
    1.4251    1.4650   -0.7959 O   0  0  0  0  0  0  0  0  0  0  0  0
    0.1394    1.5857   -0.5951 C   0  0  0  0  0  0  0  0  0  0  0  0
   -0.3536    2.7338   -0.7843 O   0  0  0  0  0  0  0  0  0  0  0  0
   -0.6593    0.5060   -0.1914 C   0  0  0  0  0  0  0  0  0  0  0  0
    0.0080   -0.6780   -0.0247 C   0  0  0  0  0  0  0  0  0  0  0  0
   -2.0733    0.7188    0.0094 C   0  0  0  0  0  0  0  0  0  0  0  0
   -2.6556    1.9350   -0.1760 N   0  0  0  0  0  0  0  0  0  0  0  0
   -3.9684    1.8941    0.0668 C   0  0  0  0  0  0  0  0  0  0  0  0
   -4.2476    0.6009    0.4235 C   0  0  0  0  0  0  0  0  0  0  0  0
   -3.0683   -0.0899    0.3782 N   0  0  0  0  0  0  0  0  0  0  0  0
   -2.9748   -1.4762    0.6903 C   0  0  0  0  0  0  0  0  0  0  0  0
   -5.5450    0.2799    0.7302 C   0  0  0  0  0  0  0  0  0  0  0  0
   -6.5257    1.2588    0.6718 C   0  0  0  0  0  0  0  0  0  0  0  0
   -6.2110    2.5699    0.3046 C   0  0  0  0  0  0  0  0  0  0  0  0
   -4.9127    2.8977   -0.0039 C   0  0  0  0  0  0  0  0  0  0  0  0
    7.8967   -1.0615   -1.5505 H   0  0  0  0  0  0  0  0  0  0  0  0
    8.3534   -1.7763    0.0870 H   0  0  0  0  0  0  0  0  0  0  0  0
    8.3392   -0.0159   -0.1589 H   0  0  0  0  0  0  0  0  0  0  0  0
    3.8505   -3.0802   -0.1316 H   0  0  0  0  0  0  0  0  0  0  0  0
    1.4396   -2.8805    0.2514 H   0  0  0  0  0  0  0  0  0  0  0  0
    4.0096    1.1028   -1.1707 H   0  0  0  0  0  0  0  0  0  0  0  0
   -0.4858   -1.5580    0.2766 H   0  0  0  0  0  0  0  0  0  0  0  0
   -2.6829   -2.1216   -0.1605 H   0  0  0  0  0  0  0  0  0  0  0  0
   -2.3808   -1.7225    1.5889 H   0  0  0  0  0  0  0  0  0  0  0  0
   -4.0149   -1.8592    0.9460 H   0  0  0  0  0  0  0  0  0  0  0  0
   -5.7711   -0.7248    1.0089 H   0  0  0  0  0  0  0  0  0  0  0  0
   -7.5573    0.9874    0.9195 H   0  0  0  0  0  0  0  0  0  0  0  0
   -7.0017    3.3072    0.2698 H   0  0  0  0  0  0  0  0  0  0  0  0
   -4.6221    3.9058   -0.2949 H   0  0  0  0  0  0  0  0  0  0  0  0
  1  2  1  0
  2  3  2  0
  2  4  1  0
  4  5  1  0
  5  6  2  0
  6  7  1  0
  7  8  2  0
  8  9  1  0
  9 10  2  0
  9 11  1  0
 11 12  1  0
 12 13  2  0
 12 14  1  0
 14 15  2  0
 14 16  1  0
 16 17  2  0
 17 18  1  0
 18 19  2  0
 19 20  1  0
 20 21  1  0
 19 22  1  0
 22 23  2  0
 23 24  1  0
 24 25  2  0
 10  5  1  0
 20 16  1  0
 15  8  1  0
 25 18  1  0
  1 26  1  0
  1 27  1  0
  1 28  1  0
  6 29  1  0
  7 30  1  0
 10 31  1  0
 15 32  1  0
 21 33  1  0
 21 34  1  0
 21 35  1  0
 22 36  1  0
 23 37  1  0
 24 38  1  0
 25 39  1  0
M  END
>  <Ligand ID>  (1) 
LIG0001468

>  <Ligand>  (1) 
MLS000107096

>  <SMILES>  (1) 
CC(=O)Oc1ccc2c(c1)oc(=O)c(c2)c1nc2c(n1C)cccc2

>  <CID>  (1) 
708260.0

>  <ChEMBL ID>  (1) 
nan

>  <InChiKey>  (1) 
BTPRCGPGOMONJP-UHFFFAOYSA-N

>  <InChi>  (1) 
InChI=1S/C19H14N2O4/c1-11(22)24-13-8-7-12-9-14(19(23)25-17(12)10-13)18-20-15-5-3-4-6-16(15)21(18)2/h3-10H,1-2H3

>  <IUPAC Name>  (1) 
[3-(1-methylbenzimidazol-2-yl)-2-oxochromen-7-yl] acetate

$$$$
