
     RDKit          3D

 32 34  0  0  0  0  0  0  0  0999 V2000
    4.6011    4.0091   -0.1574 Cl  0  0  0  0  0  0  0  0  0  0  0  0
    3.8482    2.4382   -0.0770 C   0  0  0  0  0  0  0  0  0  0  0  0
    2.5878    2.3312    0.4826 C   0  0  0  0  0  0  0  0  0  0  0  0
    1.9719    1.1153    0.5595 C   0  0  0  0  0  0  0  0  0  0  0  0
    2.5411   -0.0446    0.1017 C   0  0  0  0  0  0  0  0  0  0  0  0
    3.8032    0.0486   -0.4599 C   0  0  0  0  0  0  0  0  0  0  0  0
    4.4286    1.2840   -0.5382 C   0  0  0  0  0  0  0  0  0  0  0  0
    4.4106   -1.0606   -0.9114 N   0  0  0  0  0  0  0  0  0  0  0  0
    3.7800   -2.2695   -0.8135 C   0  0  0  0  0  0  0  0  0  0  0  0
    2.5226   -2.3631   -0.2554 C   0  0  0  0  0  0  0  0  0  0  0  0
    1.8745   -1.2236    0.2184 C   0  0  0  0  0  0  0  0  0  0  0  0
    0.5759   -1.4071    0.7288 N   0  0  0  0  0  0  0  0  0  0  0  0
   -0.5296   -0.5890    0.4597 N   0  0  0  0  0  0  0  0  0  0  0  0
   -1.7029   -1.0605    0.6318 C   0  0  0  0  0  0  0  0  0  0  0  0
   -2.9575   -0.3929    0.4141 C   0  0  0  0  0  0  0  0  0  0  0  0
   -4.1618   -1.0688    0.6591 C   0  0  0  0  0  0  0  0  0  0  0  0
   -5.3888   -0.4821    0.4556 C   0  0  0  0  0  0  0  0  0  0  0  0
   -5.5083    0.8125   -0.0035 C   0  0  0  0  0  0  0  0  0  0  0  0
   -4.3374    1.4939   -0.2503 C   0  0  0  0  0  0  0  0  0  0  0  0
   -3.0987    0.8979   -0.0439 C   0  0  0  0  0  0  0  0  0  0  0  0
   -1.5591    1.9181   -0.4259 Br  0  0  0  0  0  0  0  0  0  0  0  0
    2.0719    3.2245    0.8685 H   0  0  0  0  0  0  0  0  0  0  0  0
    1.0014    1.0659    1.0089 H   0  0  0  0  0  0  0  0  0  0  0  0
    5.4175    1.3808   -0.9725 H   0  0  0  0  0  0  0  0  0  0  0  0
    4.3314   -3.1169   -1.1968 H   0  0  0  0  0  0  0  0  0  0  0  0
    2.0696   -3.3465   -0.2014 H   0  0  0  0  0  0  0  0  0  0  0  0
    0.4461   -2.2397    1.3715 H   0  0  0  0  0  0  0  0  0  0  0  0
   -1.7548   -2.1007    0.9899 H   0  0  0  0  0  0  0  0  0  0  0  0
   -4.1519   -2.0940    1.0242 H   0  0  0  0  0  0  0  0  0  0  0  0
   -6.3119   -1.0097    0.6471 H   0  0  0  0  0  0  0  0  0  0  0  0
   -6.4259    1.3197   -0.1804 H   0  0  0  0  0  0  0  0  0  0  0  0
   -4.3949    2.5293   -0.6186 H   0  0  0  0  0  0  0  0  0  0  0  0
  1  2  1  0
  2  3  2  0
  3  4  1  0
  4  5  2  0
  5  6  1  0
  6  7  2  0
  6  8  1  0
  8  9  2  0
  9 10  1  0
 10 11  2  0
 11 12  1  0
 12 13  1  0
 13 14  2  0
 14 15  1  0
 15 16  2  0
 16 17  1  0
 17 18  2  0
 18 19  1  0
 19 20  2  0
 20 21  1  0
  7  2  1  0
 20 15  1  0
 11  5  1  0
  3 22  1  0
  4 23  1  0
  7 24  1  0
  9 25  1  0
 10 26  1  0
 12 27  1  0
 14 28  1  0
 16 29  1  0
 17 30  1  0
 18 31  1  0
 19 32  1  0
M  END
>  <Ligand ID>  (1) 
LIG0002572

>  <Ligand>  (1) 
CHEMBL570399

>  <SMILES>  (1) 
Clc1ccc2c(c1)nccc2N/N=C/c1ccccc1Br

>  <CID>  (1) 
9663934.0

>  <ChEMBL ID>  (1) 
nan

>  <InChiKey>  (1) 
FEIPKKUNQNPRSR-KEBDBYFISA-N

>  <InChi>  (1) 
InChI=1S/C16H11BrClN3/c17-14-4-2-1-3-11(14)10-20-21-15-7-8-19-16-9-12(18)5-6-13(15)16/h1-10H,(H,19,21)/b20-10+

>  <IUPAC Name>  (1) 
N-[(E)-(2-bromophenyl)methylideneamino]-7-chloroquinolin-4-amine

$$$$
