
     RDKit          3D

 55 58  0  0  0  0  0  0  0  0999 V2000
   -8.8564   -1.8886    1.7102 N   0  0  0  0  0  0  0  0  0  0  0  0
   -8.4482   -0.8721    1.3490 C   0  0  0  0  0  0  0  0  0  0  0  0
   -7.9365    0.3862    0.9139 C   0  0  0  0  0  0  0  0  0  0  0  0
   -8.2948    1.6139    1.5303 C   0  0  0  0  0  0  0  0  0  0  0  0
   -7.8515    2.8022    1.0894 N   0  0  0  0  0  0  0  0  0  0  0  0
   -7.0221    2.9048    0.0128 C   0  0  0  0  0  0  0  0  0  0  0  0
   -6.6754    1.7298   -0.5897 C   0  0  0  0  0  0  0  0  0  0  0  0
   -7.1165    0.4809   -0.1590 C   0  0  0  0  0  0  0  0  0  0  0  0
   -6.4692   -0.6754   -0.8777 C   0  0  0  0  0  0  0  0  0  0  0  0
   -5.2122   -0.8323   -0.6545 O   0  0  0  0  0  0  0  0  0  0  0  0
   -3.9492   -0.9944   -0.4122 C   0  0  0  0  0  0  0  0  0  0  0  0
   -3.0850   -0.7497   -1.5298 C   0  0  0  0  0  0  0  0  0  0  0  0
   -1.7607   -0.8566   -1.4507 N   0  0  0  0  0  0  0  0  0  0  0  0
   -1.1965   -1.2158   -0.2541 C   0  0  0  0  0  0  0  0  0  0  0  0
   -2.0042   -1.4385    0.7417 N   0  0  0  0  0  0  0  0  0  0  0  0
   -3.3418   -1.3615    0.7916 C   0  0  0  0  0  0  0  0  0  0  0  0
    0.2172   -1.2103   -0.0465 N   0  0  0  0  0  0  0  0  0  0  0  0
    1.0212   -2.4038    0.0200 C   0  0  0  0  0  0  0  0  0  0  0  0
    2.4488   -2.2557    0.0657 C   0  0  0  0  0  0  0  0  0  0  0  0
    2.9667   -0.9006    0.1641 N   0  0  0  0  0  0  0  0  0  0  0  0
    2.1366    0.2584    0.4739 C   0  0  0  0  0  0  0  0  0  0  0  0
    0.7380    0.1469    0.0787 C   0  0  1  0  0  0  0  0  0  0  0  0
    0.4194    0.9220   -1.1700 C   0  0  0  0  0  0  0  0  0  0  0  0
    4.3695   -0.6371   -0.1360 C   0  0  0  0  0  0  0  0  0  0  0  0
    5.0399   -0.8089   -1.2814 N   0  0  0  0  0  0  0  0  0  0  0  0
    6.2876   -0.4236   -1.0762 O   0  0  0  0  0  0  0  0  0  0  0  0
    6.4734   -0.0162    0.1383 C   0  0  0  0  0  0  0  0  0  0  0  0
    5.2645   -0.1325    0.7832 N   0  0  0  0  0  0  0  0  0  0  0  0
    7.7204    0.4965    0.7671 C   0  0  0  0  0  0  0  0  0  0  0  0
    8.8726    0.5241   -0.1629 C   0  0  0  0  0  0  0  0  0  0  0  0
    7.4293    1.9154    1.3584 C   0  0  0  0  0  0  0  0  0  0  0  0
   -8.9592    1.6117    2.3870 H   0  0  0  0  0  0  0  0  0  0  0  0
   -6.6583    3.8586   -0.3306 H   0  0  0  0  0  0  0  0  0  0  0  0
   -5.9986    1.8146   -1.4615 H   0  0  0  0  0  0  0  0  0  0  0  0
   -7.0605   -1.5840   -0.5009 H   0  0  0  0  0  0  0  0  0  0  0  0
   -6.7581   -0.5492   -1.9762 H   0  0  0  0  0  0  0  0  0  0  0  0
   -3.5115   -0.4831   -2.4869 H   0  0  0  0  0  0  0  0  0  0  0  0
   -3.9368   -1.5350    1.6661 H   0  0  0  0  0  0  0  0  0  0  0  0
    0.7325   -3.0467   -0.8493 H   0  0  0  0  0  0  0  0  0  0  0  0
    0.6822   -2.9160    1.0125 H   0  0  0  0  0  0  0  0  0  0  0  0
    2.8861   -2.7463    0.9978 H   0  0  0  0  0  0  0  0  0  0  0  0
    2.9319   -2.8328   -0.7878 H   0  0  0  0  0  0  0  0  0  0  0  0
    2.5818    1.1225   -0.0427 H   0  0  0  0  0  0  0  0  0  0  0  0
    2.3094    0.4583    1.5618 H   0  0  0  0  0  0  0  0  0  0  0  0
    0.1245    0.5668    0.9346 H   0  0  0  0  0  0  0  0  0  0  0  0
    0.6332    0.3868   -2.1035 H   0  0  0  0  0  0  0  0  0  0  0  0
   -0.6197    1.3322   -1.0818 H   0  0  0  0  0  0  0  0  0  0  0  0
    1.0586    1.8477   -1.2415 H   0  0  0  0  0  0  0  0  0  0  0  0
    7.8808   -0.1117    1.6965 H   0  0  0  0  0  0  0  0  0  0  0  0
    8.9540    1.5628   -0.6057 H   0  0  0  0  0  0  0  0  0  0  0  0
    8.7755   -0.2127   -0.9596 H   0  0  0  0  0  0  0  0  0  0  0  0
    9.8119    0.3638    0.3952 H   0  0  0  0  0  0  0  0  0  0  0  0
    7.4510    2.6575    0.5685 H   0  0  0  0  0  0  0  0  0  0  0  0
    8.1329    2.1043    2.2046 H   0  0  0  0  0  0  0  0  0  0  0  0
    6.3714    1.8223    1.7521 H   0  0  0  0  0  0  0  0  0  0  0  0
  1  2  3  0
  2  3  1  0
  3  4  2  0
  4  5  1  0
  5  6  2  0
  6  7  1  0
  7  8  2  0
  8  9  1  0
  9 10  1  0
 10 11  1  0
 11 12  2  0
 12 13  1  0
 13 14  2  0
 14 15  1  0
 15 16  2  0
 14 17  1  0
 17 18  1  0
 18 19  1  0
 19 20  1  0
 20 21  1  0
 21 22  1  0
 22 23  1  0
 20 24  1  0
 24 25  2  0
 25 26  1  0
 26 27  1  0
 27 28  2  0
 27 29  1  0
 29 30  1  0
 29 31  1  0
  8  3  1  0
 16 11  1  0
 22 17  1  0
 28 24  1  0
  4 32  1  0
  6 33  1  0
  7 34  1  0
  9 35  1  0
  9 36  1  0
 12 37  1  0
 16 38  1  0
 18 39  1  0
 18 40  1  0
 19 41  1  0
 19 42  1  0
 21 43  1  0
 21 44  1  0
 22 45  1  1
 23 46  1  0
 23 47  1  0
 23 48  1  0
 29 49  1  0
 30 50  1  0
 30 51  1  0
 30 52  1  0
 31 53  1  0
 31 54  1  0
 31 55  1  0
M  END
>  <Ligand ID>  (1) 
LIG0005313

>  <Ligand>  (1) 
CHEMBL2086690

>  <SMILES>  (1) 
N#Cc1cnccc1COc1cnc(nc1)N1CCN(C[C@H]1C)c1noc(n1)C(C)C

>  <CID>  (1) 
51030711.0

>  <ChEMBL ID>  (1) 
nan

>  <InChiKey>  (1) 
UNGZTVLHLKAKQE-OAHLLOKOSA-N

>  <InChi>  (1) 
InChI=1S/C21H24N8O2/c1-14(2)19-26-21(27-31-19)28-6-7-29(15(3)12-28)20-24-10-18(11-25-20)30-13-16-4-5-23-9-17(16)8-22/h4-5,9-11,14-15H,6-7,12-13H2,1-3H3/t15-/m1/s1

>  <IUPAC Name>  (1) 
4-[[2-[(2R)-2-methyl-4-(5-propan-2-yl-1,2,4-oxadiazol-3-yl)piperazin-1-yl]pyrimidin-5-yl]oxymethyl]pyridine-3-carbonitrile

$$$$
