
     RDKit          3D

 56 58  0  0  0  0  0  0  0  0999 V2000
   -4.4413    3.3868    0.3634 C   0  0  0  0  0  0  0  0  0  0  0  0
   -3.6035    3.2440   -0.7204 O   0  0  0  0  0  0  0  0  0  0  0  0
   -3.1743    1.9358   -0.8807 C   0  0  0  0  0  0  0  0  0  0  0  0
   -2.4023    1.3989    0.2781 C   0  0  0  0  0  0  0  0  0  0  0  0
   -1.9480   -0.0279    0.0575 C   0  0  0  0  0  0  0  0  0  0  0  0
   -1.0711   -0.1664   -1.1493 C   0  0  0  0  0  0  0  0  0  0  0  0
    0.2757    0.4818   -0.8137 C   0  0  0  0  0  0  0  0  0  0  0  0
    1.0561   -0.3385    0.0583 N   0  0  0  0  0  0  0  0  0  0  0  0
    0.1390   -1.2178    0.7587 C   0  0  0  0  0  0  0  0  0  0  0  0
   -1.0940   -0.4887    1.2402 C   0  0  0  0  0  0  0  0  0  0  0  0
    1.8547    0.3522    1.0187 C   0  0  0  0  0  0  0  0  0  0  0  0
    2.8543    1.2596    0.4231 C   0  0  0  0  0  0  0  0  0  0  0  0
    2.6162    2.6343    0.4493 C   0  0  0  0  0  0  0  0  0  0  0  0
    3.5038    3.5451   -0.0843 C   0  0  0  0  0  0  0  0  0  0  0  0
    4.6552    3.0450   -0.6551 C   0  0  0  0  0  0  0  0  0  0  0  0
    4.9134    1.6894   -0.6935 C   0  0  0  0  0  0  0  0  0  0  0  0
    4.0148    0.7903   -0.1549 C   0  0  0  0  0  0  0  0  0  0  0  0
    4.3067   -0.6385   -0.2100 C   0  0  0  0  0  0  0  0  0  0  0  0
    5.4403   -1.2094   -0.7624 C   0  0  0  0  0  0  0  0  0  0  0  0
    5.3498   -2.5950   -0.6210 C   0  0  0  0  0  0  0  0  0  0  0  0
    4.1452   -2.7945    0.0207 C   0  0  0  0  0  0  0  0  0  0  0  0
    3.5880   -1.6402    0.2329 O   0  0  0  0  0  0  0  0  0  0  0  0
   -3.1363   -0.8944    0.0674 C   0  0  0  0  0  0  0  0  0  0  0  0
   -4.3141   -0.5147    0.2696 O   0  0  0  0  0  0  0  0  0  0  0  0
   -2.9482   -2.2506   -0.1659 O   0  0  0  0  0  0  0  0  0  0  0  0
   -4.0862   -3.0917   -0.1580 C   0  0  0  0  0  0  0  0  0  0  0  0
   -3.6342   -4.5078   -0.4324 C   0  0  0  0  0  0  0  0  0  0  0  0
   -5.3209    2.6995    0.2072 H   0  0  0  0  0  0  0  0  0  0  0  0
   -4.8493    4.4376    0.4260 H   0  0  0  0  0  0  0  0  0  0  0  0
   -3.9582    3.1118    1.3084 H   0  0  0  0  0  0  0  0  0  0  0  0
   -2.4601    1.9702   -1.7429 H   0  0  0  0  0  0  0  0  0  0  0  0
   -4.0451    1.2864   -1.1146 H   0  0  0  0  0  0  0  0  0  0  0  0
   -1.5968    2.0758    0.6234 H   0  0  0  0  0  0  0  0  0  0  0  0
   -3.1214    1.3564    1.1586 H   0  0  0  0  0  0  0  0  0  0  0  0
   -0.9202   -1.2386   -1.4255 H   0  0  0  0  0  0  0  0  0  0  0  0
   -1.4367    0.3181   -2.0635 H   0  0  0  0  0  0  0  0  0  0  0  0
    0.0434    1.4835   -0.4058 H   0  0  0  0  0  0  0  0  0  0  0  0
    0.7916    0.5622   -1.8140 H   0  0  0  0  0  0  0  0  0  0  0  0
   -0.0946   -2.1402    0.1944 H   0  0  0  0  0  0  0  0  0  0  0  0
    0.6778   -1.5965    1.6778 H   0  0  0  0  0  0  0  0  0  0  0  0
   -1.6215   -1.1731    1.9115 H   0  0  0  0  0  0  0  0  0  0  0  0
   -0.7876    0.3759    1.8288 H   0  0  0  0  0  0  0  0  0  0  0  0
    2.3015   -0.3868    1.7115 H   0  0  0  0  0  0  0  0  0  0  0  0
    1.1613    0.9524    1.6808 H   0  0  0  0  0  0  0  0  0  0  0  0
    1.6981    3.0214    0.9054 H   0  0  0  0  0  0  0  0  0  0  0  0
    3.3466    4.6152   -0.0787 H   0  0  0  0  0  0  0  0  0  0  0  0
    5.3974    3.6964   -1.0934 H   0  0  0  0  0  0  0  0  0  0  0  0
    5.8104    1.2836   -1.1369 H   0  0  0  0  0  0  0  0  0  0  0  0
    6.2798   -0.7403   -1.2319 H   0  0  0  0  0  0  0  0  0  0  0  0
    6.0408   -3.3565   -0.9298 H   0  0  0  0  0  0  0  0  0  0  0  0
    3.7313   -3.7525    0.3016 H   0  0  0  0  0  0  0  0  0  0  0  0
   -4.5883   -3.0540    0.8503 H   0  0  0  0  0  0  0  0  0  0  0  0
   -4.7895   -2.7206   -0.9238 H   0  0  0  0  0  0  0  0  0  0  0  0
   -4.5216   -5.0899   -0.7216 H   0  0  0  0  0  0  0  0  0  0  0  0
   -2.8796   -4.5003   -1.2472 H   0  0  0  0  0  0  0  0  0  0  0  0
   -3.1483   -4.8840    0.4799 H   0  0  0  0  0  0  0  0  0  0  0  0
  1  2  1  0
  2  3  1  0
  3  4  1  0
  4  5  1  0
  5  6  1  0
  6  7  1  0
  7  8  1  0
  8  9  1  0
  9 10  1  0
  8 11  1  0
 11 12  1  0
 12 13  2  0
 13 14  1  0
 14 15  2  0
 15 16  1  0
 16 17  2  0
 17 18  1  0
 18 19  2  0
 19 20  1  0
 20 21  2  0
 21 22  1  0
  5 23  1  0
 23 24  2  0
 23 25  1  0
 25 26  1  0
 26 27  1  0
 10  5  1  0
 17 12  1  0
 22 18  1  0
  1 28  1  0
  1 29  1  0
  1 30  1  0
  3 31  1  0
  3 32  1  0
  4 33  1  0
  4 34  1  0
  6 35  1  0
  6 36  1  0
  7 37  1  0
  7 38  1  0
  9 39  1  0
  9 40  1  0
 10 41  1  0
 10 42  1  0
 11 43  1  0
 11 44  1  0
 13 45  1  0
 14 46  1  0
 15 47  1  0
 16 48  1  0
 19 49  1  0
 20 50  1  0
 21 51  1  0
 26 52  1  0
 26 53  1  0
 27 54  1  0
 27 55  1  0
 27 56  1  0
M  END
>  <Ligand ID>  (1) 
LIG0004433

>  <Ligand>  (1) 
MLS000735291

>  <SMILES>  (1) 
COCCC1(CCN(CC1)Cc1ccccc1c1ccco1)C(=O)OCC

>  <CID>  (1) 
16187783.0

>  <ChEMBL ID>  (1) 
nan

>  <InChiKey>  (1) 
OASJVKVLPSVSCV-UHFFFAOYSA-N

>  <InChi>  (1) 
InChI=1S/C22H29NO4/c1-3-26-21(24)22(12-16-25-2)10-13-23(14-11-22)17-18-7-4-5-8-19(18)20-9-6-15-27-20/h4-9,15H,3,10-14,16-17H2,1-2H3

>  <IUPAC Name>  (1) 
ethyl 1-[[2-(furan-2-yl)phenyl]methyl]-4-(2-methoxyethyl)piperidine-4-carboxylate

$$$$
