
     RDKit          3D

 50 54  0  0  0  0  0  0  0  0999 V2000
    1.7852   -1.9647    1.5554 O   0  0  0  0  0  0  0  0  0  0  0  0
    1.9392   -1.1389    0.6211 C   0  0  0  0  0  0  0  0  0  0  0  0
    3.0415   -0.1280    0.7401 C   0  0  0  0  0  0  0  0  0  0  0  0
    3.3890    0.8433   -0.1370 C   0  0  0  0  0  0  0  0  0  0  0  0
    4.4240    1.6220    0.2076 C   0  0  0  0  0  0  0  0  0  0  0  0
    5.0173    1.3691    1.3837 C   0  0  0  0  0  0  0  0  0  0  0  0
    4.1551    0.0316    2.0600 S   0  0  0  0  0  0  0  0  0  0  0  0
    6.1241    2.1052    1.8845 C   0  0  0  0  0  0  0  0  0  0  0  0
    6.6572    3.1533    1.1530 C   0  0  0  0  0  0  0  0  0  0  0  0
    6.0375    3.4083   -0.0623 C   0  0  0  0  0  0  0  0  0  0  0  0
    4.9771    2.6991   -0.5366 C   0  0  0  0  0  0  0  0  0  0  0  0
    1.1019   -1.1582   -0.5100 N   0  0  0  0  0  0  0  0  0  0  0  0
    0.0736   -2.1722   -0.5252 C   0  0  0  0  0  0  0  0  0  0  0  0
    0.2205   -3.4079   -1.0465 N   0  0  0  0  0  0  0  0  0  0  0  0
   -0.9346   -4.1148   -0.8957 C   0  0  0  0  0  0  0  0  0  0  0  0
   -1.7973   -3.2486   -0.2550 C   0  0  0  0  0  0  0  0  0  0  0  0
   -1.1723   -2.0754   -0.0371 N   0  0  0  0  0  0  0  0  0  0  0  0
   -1.7578   -0.9157    0.6137 C   0  0  0  0  0  0  0  0  0  0  0  0
   -2.4308    0.0037   -0.4027 C   0  0  0  0  0  0  0  0  0  0  0  0
   -3.0127    1.1574    0.2594 N   0  0  0  0  0  0  0  0  0  0  0  0
   -2.0145    2.0400    0.8044 C   0  0  0  0  0  0  0  0  0  0  0  0
   -2.5541    3.4398    0.6970 C   0  0  0  0  0  0  0  0  0  0  0  0
   -3.6676    3.3670   -0.2901 C   0  0  0  0  0  0  0  0  0  0  0  0
   -3.8169    1.9199   -0.6507 C   0  0  0  0  0  0  0  0  0  0  0  0
   -3.0937   -3.6723    0.0558 C   0  0  0  0  0  0  0  0  0  0  0  0
   -3.4682   -4.9671   -0.2978 C   0  0  0  0  0  0  0  0  0  0  0  0
   -2.5931   -5.8285   -0.9414 C   0  0  0  0  0  0  0  0  0  0  0  0
   -1.2986   -5.4068   -1.2521 C   0  0  0  0  0  0  0  0  0  0  0  0
    2.8061    0.9490   -1.0925 H   0  0  0  0  0  0  0  0  0  0  0  0
    6.5482    1.8408    2.8429 H   0  0  0  0  0  0  0  0  0  0  0  0
    7.4859    3.6988    1.5364 H   0  0  0  0  0  0  0  0  0  0  0  0
    6.4412    4.2248   -0.6482 H   0  0  0  0  0  0  0  0  0  0  0  0
    4.5712    2.9816   -1.4946 H   0  0  0  0  0  0  0  0  0  0  0  0
    1.2186   -0.4865   -1.2794 H   0  0  0  0  0  0  0  0  0  0  0  0
   -1.0103   -0.3426    1.2035 H   0  0  0  0  0  0  0  0  0  0  0  0
   -2.5443   -1.2034    1.3417 H   0  0  0  0  0  0  0  0  0  0  0  0
   -3.2333   -0.5858   -0.8829 H   0  0  0  0  0  0  0  0  0  0  0  0
   -1.6912    0.4251   -1.1231 H   0  0  0  0  0  0  0  0  0  0  0  0
   -1.0532    1.8953    0.2687 H   0  0  0  0  0  0  0  0  0  0  0  0
   -1.8526    1.8210    1.8816 H   0  0  0  0  0  0  0  0  0  0  0  0
   -2.9251    3.8220    1.6932 H   0  0  0  0  0  0  0  0  0  0  0  0
   -1.7495    4.1165    0.2930 H   0  0  0  0  0  0  0  0  0  0  0  0
   -3.5219    4.0360   -1.1697 H   0  0  0  0  0  0  0  0  0  0  0  0
   -4.6136    3.7323    0.2038 H   0  0  0  0  0  0  0  0  0  0  0  0
   -4.8850    1.5918   -0.5413 H   0  0  0  0  0  0  0  0  0  0  0  0
   -3.5613    1.7270   -1.7334 H   0  0  0  0  0  0  0  0  0  0  0  0
   -3.7701   -2.9890    0.5598 H   0  0  0  0  0  0  0  0  0  0  0  0
   -4.4859   -5.2930   -0.0514 H   0  0  0  0  0  0  0  0  0  0  0  0
   -2.8867   -6.8499   -1.2210 H   0  0  0  0  0  0  0  0  0  0  0  0
   -0.6181   -6.0726   -1.7508 H   0  0  0  0  0  0  0  0  0  0  0  0
  1  2  2  0
  2  3  1  0
  3  4  2  0
  4  5  1  0
  5  6  2  0
  6  7  1  0
  6  8  1  0
  8  9  2  0
  9 10  1  0
 10 11  2  0
  2 12  1  0
 12 13  1  0
 13 14  2  0
 14 15  1  0
 15 16  2  0
 16 17  1  0
 17 18  1  0
 18 19  1  0
 19 20  1  0
 20 21  1  0
 21 22  1  0
 22 23  1  0
 23 24  1  0
 16 25  1  0
 25 26  2  0
 26 27  1  0
 27 28  2  0
  7  3  1  0
 17 13  1  0
 24 20  1  0
 11  5  1  0
 28 15  1  0
  4 29  1  0
  8 30  1  0
  9 31  1  0
 10 32  1  0
 11 33  1  0
 12 34  1  0
 18 35  1  0
 18 36  1  0
 19 37  1  0
 19 38  1  0
 21 39  1  0
 21 40  1  0
 22 41  1  0
 22 42  1  0
 23 43  1  0
 23 44  1  0
 24 45  1  0
 24 46  1  0
 25 47  1  0
 26 48  1  0
 27 49  1  0
 28 50  1  0
M  END
>  <Ligand ID>  (1) 
LIG0003089

>  <Ligand>  (1) 
CHEMBL3393998

>  <SMILES>  (1) 
O=C(c1cc2c(s1)cccc2)Nc1nc2c(n1CCN1CCCC1)cccc2

>  <CID>  (1) 
118725848.0

>  <ChEMBL ID>  (1) 
nan

>  <InChiKey>  (1) 
XCCZHGCDEGWFPR-UHFFFAOYSA-N

>  <InChi>  (1) 
InChI=1S/C22H22N4OS/c27-21(20-15-16-7-1-4-10-19(16)28-20)24-22-23-17-8-2-3-9-18(17)26(22)14-13-25-11-5-6-12-25/h1-4,7-10,15H,5-6,11-14H2,(H,23,24,27)

>  <IUPAC Name>  (1) 
N-[1-(2-pyrrolidin-1-ylethyl)benzimidazol-2-yl]-1-benzothiophene-2-carboxamide

$$$$
