
     RDKit          3D

 46 50  0  0  0  0  0  0  0  0999 V2000
    5.2231   -0.8086    0.5080 C   0  0  0  0  0  0  0  0  0  0  0  0
    3.9812   -1.0147   -0.0870 O   0  0  0  0  0  0  0  0  0  0  0  0
    2.8389   -0.2727    0.1829 C   0  0  0  0  0  0  0  0  0  0  0  0
    2.8188    0.7724    1.0928 C   0  0  0  0  0  0  0  0  0  0  0  0
    1.6537    1.5037    1.3459 C   0  0  0  0  0  0  0  0  0  0  0  0
    0.5137    1.1649    0.6684 C   0  0  0  0  0  0  0  0  0  0  0  0
    0.5634    0.1368   -0.2173 C   0  0  0  0  0  0  0  0  0  0  0  0
    1.6757   -0.5917   -0.4850 C   0  0  0  0  0  0  0  0  0  0  0  0
    1.2962   -1.5376   -1.4402 O   0  0  0  0  0  0  0  0  0  0  0  0
   -0.1317   -1.7141   -1.3552 C   0  0  2  0  0  0  0  0  0  0  0  0
   -0.6069   -0.3326   -1.0233 C   0  0  2  0  0  0  0  0  0  0  0  0
   -0.6918    0.4982   -2.2693 C   0  0  0  0  0  0  0  0  0  0  0  0
   -1.1856    1.8865   -1.9927 C   0  0  0  0  0  0  0  0  0  0  0  0
   -2.2881    1.8762   -1.0569 N   0  0  0  0  0  0  0  0  0  0  0  0
   -1.9408    1.2514    0.1989 C   0  0  2  0  0  0  0  0  0  0  0  0
   -0.7688    1.8746    0.8697 C   0  0  0  0  0  0  0  0  0  0  0  0
   -1.7773   -0.2302   -0.1186 C   0  0  2  0  0  0  0  0  0  0  0  0
   -1.5461   -1.0109    1.1247 C   0  0  0  0  0  0  0  0  0  0  0  0
   -0.8895   -2.3265    0.9710 C   0  0  2  0  0  0  0  0  0  0  0  0
   -0.5503   -2.7650   -0.4103 C   0  0  2  0  0  0  0  0  0  0  0  0
    0.4946   -3.7055   -0.3377 O   0  0  0  0  0  0  0  0  0  0  0  0
   -1.6981   -3.3392    1.5177 O   0  0  0  0  0  0  0  0  0  0  0  0
   -2.8730    3.1711   -0.9072 C   0  0  0  0  0  0  0  0  0  0  0  0
    5.2379   -0.8268    1.6066 H   0  0  0  0  0  0  0  0  0  0  0  0
    5.8753   -1.6692    0.1789 H   0  0  0  0  0  0  0  0  0  0  0  0
    5.7066    0.0978    0.0637 H   0  0  0  0  0  0  0  0  0  0  0  0
    3.7531    1.0071    1.6103 H   0  0  0  0  0  0  0  0  0  0  0  0
    1.6572    2.3157    2.0595 H   0  0  0  0  0  0  0  0  0  0  0  0
   -0.4690   -1.9545   -2.3842 H   0  0  0  0  0  0  0  0  0  0  0  0
    0.3255    0.5749   -2.6966 H   0  0  0  0  0  0  0  0  0  0  0  0
   -1.3901   -0.0296   -2.9556 H   0  0  0  0  0  0  0  0  0  0  0  0
   -0.3911    2.5964   -1.7148 H   0  0  0  0  0  0  0  0  0  0  0  0
   -1.6236    2.2687   -2.9578 H   0  0  0  0  0  0  0  0  0  0  0  0
   -2.8238    1.3559    0.8495 H   0  0  0  0  0  0  0  0  0  0  0  0
   -0.9752    2.0166    1.9626 H   0  0  0  0  0  0  0  0  0  0  0  0
   -0.6519    2.9151    0.4823 H   0  0  0  0  0  0  0  0  0  0  0  0
   -2.6962   -0.5309   -0.6612 H   0  0  0  0  0  0  0  0  0  0  0  0
   -2.5537   -1.1372    1.6185 H   0  0  0  0  0  0  0  0  0  0  0  0
   -0.9790   -0.3897    1.8640 H   0  0  0  0  0  0  0  0  0  0  0  0
    0.0534   -2.3752    1.5897 H   0  0  0  0  0  0  0  0  0  0  0  0
   -1.4116   -3.3273   -0.8596 H   0  0  0  0  0  0  0  0  0  0  0  0
    0.5576   -4.0619    0.5989 H   0  0  0  0  0  0  0  0  0  0  0  0
   -2.1213   -3.8980    0.8130 H   0  0  0  0  0  0  0  0  0  0  0  0
   -3.8794    3.1020   -0.4412 H   0  0  0  0  0  0  0  0  0  0  0  0
   -3.0471    3.5545   -1.9493 H   0  0  0  0  0  0  0  0  0  0  0  0
   -2.2649    3.9091   -0.3654 H   0  0  0  0  0  0  0  0  0  0  0  0
  1  2  1  0
  2  3  1  0
  3  4  2  0
  4  5  1  0
  5  6  2  0
  6  7  1  0
  7  8  2  0
  8  9  1  0
  9 10  1  0
 10 11  1  0
 11 12  1  6
 12 13  1  0
 13 14  1  0
 14 15  1  0
 15 16  1  0
 15 17  1  0
 17 18  1  0
 18 19  1  0
 19 20  1  0
 20 21  1  0
 19 22  1  0
 14 23  1  0
  8  3  1  0
 20 10  1  0
 16  6  1  0
 11  7  1  0
 17 11  1  0
  1 24  1  0
  1 25  1  0
  1 26  1  0
  4 27  1  0
  5 28  1  0
 10 29  1  6
 12 30  1  0
 12 31  1  0
 13 32  1  0
 13 33  1  0
 15 34  1  1
 16 35  1  0
 16 36  1  0
 17 37  1  6
 18 38  1  0
 18 39  1  0
 19 40  1  1
 20 41  1  6
 21 42  1  0
 22 43  1  0
 23 44  1  0
 23 45  1  0
 23 46  1  0
M  END
>  <Ligand ID>  (1) 
LIG0000991

>  <Ligand>  (1) 
CHEMBL2418741

>  <SMILES>  (1) 
COc1ccc2c3c1O[C@@H]1[C@@]43CCN([C@H](C2)[C@@H]4C[C@H]([C@@H]1O)O)C

>  <CID>  (1) 
71819403.0

>  <ChEMBL ID>  (1) 
nan

>  <InChiKey>  (1) 
BJQNUZBUEACKKM-UVYLXKOISA-N

>  <InChi>  (1) 
InChI=1S/C18H23NO4/c1-19-6-5-18-10-8-12(20)15(21)17(18)23-16-13(22-2)4-3-9(14(16)18)7-11(10)19/h3-4,10-12,15,17,20-21H,5-8H2,1-2H3/t10-,11+,12+,15-,17-,18-/m0/s1

>  <IUPAC Name>  (1) 
(4R,4aR,6R,7S,7aR,12bS)-9-methoxy-3-methyl-2,4,4a,5,6,7,7a,13-octahydro-1H-4,12-methanobenzofuro[3,2-e]isoquinoline-6,7-diol

$$$$
