
     RDKit          3D

 14 13  0  0  0  0  0  0  0  0999 V2000
    1.8268   -0.2431    0.1697 C   0  0  0  0  0  0  0  0  0  0  0  0
    0.7135    0.7312    0.1154 C   0  0  0  0  0  0  0  0  0  0  0  0
   -0.5059    0.2741   -0.0418 C   0  0  0  0  0  0  0  0  0  0  0  0
   -1.5948    1.2517   -0.0934 C   0  0  0  0  0  0  0  0  0  0  0  0
   -1.3022    2.4914    0.0168 O   0  0  0  0  0  0  0  0  0  0  0  0
   -0.8403   -1.1654   -0.1692 C   0  0  0  0  0  0  0  0  0  0  0  0
    2.8040    0.2190    0.3063 H   0  0  0  0  0  0  0  0  0  0  0  0
    1.8247   -0.7743   -0.8025 H   0  0  0  0  0  0  0  0  0  0  0  0
    1.6358   -0.8967    1.0436 H   0  0  0  0  0  0  0  0  0  0  0  0
    0.9633    1.7862    0.2092 H   0  0  0  0  0  0  0  0  0  0  0  0
   -2.6321    0.9792   -0.2197 H   0  0  0  0  0  0  0  0  0  0  0  0
   -0.1569   -1.8062    0.4445 H   0  0  0  0  0  0  0  0  0  0  0  0
   -0.8807   -1.4882   -1.2314 H   0  0  0  0  0  0  0  0  0  0  0  0
   -1.8553   -1.3587    0.2526 H   0  0  0  0  0  0  0  0  0  0  0  0
  1  2  1  0
  2  3  2  0
  3  4  1  0
  4  5  2  0
  3  6  1  0
  1  7  1  0
  1  8  1  0
  1  9  1  0
  2 10  1  0
  4 11  1  0
  6 12  1  0
  6 13  1  0
  6 14  1  0
M  END
>  <Ligand ID>  (1) 
LIG0000203

>  <Ligand>  (1) 
Tiglic aldehyde

>  <SMILES>  (1) 
C/C=C(/C=O)\C

>  <CID>  (1) 
5321950.0

>  <ChEMBL ID>  (1) 
nan

>  <InChiKey>  (1) 
ACWQBUSCFPJUPN-HWKANZROSA-N

>  <InChi>  (1) 
InChI=1S/C5H8O/c1-3-5(2)4-6/h3-4H,1-2H3/b5-3+

>  <IUPAC Name>  (1) 
(E)-2-methylbut-2-enal

$$$$
