
     RDKit          3D

 87 91  0  0  0  0  0  0  0  0999 V2000
   -8.3480    3.7543   -1.4076 C   0  0  0  0  0  0  0  0  0  0  0  0
   -7.3045    3.0538   -0.5462 C   0  0  0  0  0  0  0  0  0  0  0  0
   -7.8371    1.6976   -0.2365 C   0  0  0  0  0  0  0  0  0  0  0  0
   -6.8685    0.9469    0.6319 C   0  0  0  0  0  0  0  0  0  0  0  0
   -5.5092    0.7767   -0.0694 C   0  0  0  0  0  0  0  0  0  0  0  0
   -4.6624    0.0083    0.8796 C   0  0  0  0  0  0  0  0  0  0  0  0
   -3.2691   -0.3040    0.4926 C   0  0  0  0  0  0  0  0  0  0  0  0
   -2.4494    0.9215    0.1803 C   0  0  0  0  0  0  0  0  0  0  0  0
   -1.3150    1.1829    1.1385 C   0  0  0  0  0  0  0  0  0  0  0  0
   -0.5351   -0.0742    1.1017 N   0  0  0  0  0  0  0  0  0  0  0  0
   -1.2116   -1.2128    1.6700 C   0  0  0  0  0  0  0  0  0  0  0  0
   -2.6905   -0.9348    1.8207 C   0  0  0  0  0  0  0  0  0  0  0  0
    0.7312   -0.0112    0.5278 C   0  0  0  0  0  0  0  0  0  0  0  0
    1.0954    1.1443    0.0942 O   0  0  0  0  0  0  0  0  0  0  0  0
    1.7133   -1.0947    0.3484 C   0  0  2  0  0  0  0  0  0  0  0  0
    2.1183   -1.6500    1.6642 C   0  0  0  0  0  0  0  0  0  0  0  0
    3.1161   -2.7554    1.5467 C   0  0  0  0  0  0  0  0  0  0  0  0
    2.6927   -4.0774    1.3884 C   0  0  0  0  0  0  0  0  0  0  0  0
    3.6005   -5.1215    1.2840 C   0  0  0  0  0  0  0  0  0  0  0  0
    4.9644   -4.8754    1.3351 C   0  0  0  0  0  0  0  0  0  0  0  0
    5.3943   -3.5946    1.4889 C   0  0  0  0  0  0  0  0  0  0  0  0
    4.4736   -2.5604    1.5920 C   0  0  0  0  0  0  0  0  0  0  0  0
    6.1378   -6.1724    1.2061 Cl  0  0  0  0  0  0  0  0  0  0  0  0
    2.8874   -0.4592   -0.2703 N   0  0  0  0  0  0  0  0  0  0  0  0
    3.5929    0.6084    0.3412 C   0  0  0  0  0  0  0  0  0  0  0  0
    3.2568    1.0845    1.4798 O   0  0  0  0  0  0  0  0  0  0  0  0
    4.7680    1.2550   -0.2899 C   0  0  2  0  0  0  0  0  0  0  0  0
    5.0765    0.6362   -1.5326 N   0  0  0  0  0  0  0  0  0  0  0  0
    6.4852    0.3773   -1.7398 C   0  0  0  0  0  0  0  0  0  0  0  0
    7.2904    1.5314   -1.2669 C   0  0  0  0  0  0  0  0  0  0  0  0
    7.0095    2.0141    0.0132 C   0  0  0  0  0  0  0  0  0  0  0  0
    5.8979    1.2678    0.7174 C   0  0  0  0  0  0  0  0  0  0  0  0
    7.6665    3.0638    0.5811 C   0  0  0  0  0  0  0  0  0  0  0  0
    8.6646    3.6707   -0.1717 C   0  0  0  0  0  0  0  0  0  0  0  0
    8.9594    3.2038   -1.4505 C   0  0  0  0  0  0  0  0  0  0  0  0
    8.2770    2.1324   -2.0093 C   0  0  0  0  0  0  0  0  0  0  0  0
   -3.0131   -1.3610   -0.5179 C   0  0  0  0  0  0  0  0  0  0  0  0
   -3.5694   -1.2360   -1.8539 C   0  0  0  0  0  0  0  0  0  0  0  0
   -2.9820   -0.5886   -2.9051 N   0  0  0  0  0  0  0  0  0  0  0  0
   -3.7331   -0.7121   -3.9847 N   0  0  0  0  0  0  0  0  0  0  0  0
   -4.7907   -1.4187   -3.6742 N   0  0  0  0  0  0  0  0  0  0  0  0
   -4.7134   -1.7445   -2.3987 N   0  0  0  0  0  0  0  0  0  0  0  0
   -5.7015   -2.5337   -1.6962 C   0  0  0  0  0  0  0  0  0  0  0  0
   -8.3861    3.2283   -2.3676 H   0  0  0  0  0  0  0  0  0  0  0  0
   -9.3083    3.7267   -0.8749 H   0  0  0  0  0  0  0  0  0  0  0  0
   -8.0115    4.8235   -1.4856 H   0  0  0  0  0  0  0  0  0  0  0  0
   -6.4150    2.9601   -1.2083 H   0  0  0  0  0  0  0  0  0  0  0  0
   -7.0138    3.6501    0.3364 H   0  0  0  0  0  0  0  0  0  0  0  0
   -8.8179    1.7119    0.2779 H   0  0  0  0  0  0  0  0  0  0  0  0
   -7.8954    1.1386   -1.2082 H   0  0  0  0  0  0  0  0  0  0  0  0
   -6.7079    1.4806    1.6038 H   0  0  0  0  0  0  0  0  0  0  0  0
   -7.2697   -0.0590    0.9090 H   0  0  0  0  0  0  0  0  0  0  0  0
   -5.1379    1.8194   -0.2252 H   0  0  0  0  0  0  0  0  0  0  0  0
   -5.7305    0.2487   -0.9769 H   0  0  0  0  0  0  0  0  0  0  0  0
   -5.2593   -0.9238    1.1294 H   0  0  0  0  0  0  0  0  0  0  0  0
   -4.7204    0.5762    1.8596 H   0  0  0  0  0  0  0  0  0  0  0  0
   -3.0343    1.8569    0.0957 H   0  0  0  0  0  0  0  0  0  0  0  0
   -1.9497    0.8253   -0.8285 H   0  0  0  0  0  0  0  0  0  0  0  0
   -1.6300    1.3178    2.1787 H   0  0  0  0  0  0  0  0  0  0  0  0
   -0.7504    2.0340    0.7322 H   0  0  0  0  0  0  0  0  0  0  0  0
   -0.9837   -2.1774    1.2231 H   0  0  0  0  0  0  0  0  0  0  0  0
   -0.8397   -1.2519    2.7419 H   0  0  0  0  0  0  0  0  0  0  0  0
   -2.9075   -0.2107    2.6109 H   0  0  0  0  0  0  0  0  0  0  0  0
   -3.2288   -1.8589    1.9986 H   0  0  0  0  0  0  0  0  0  0  0  0
    1.3334   -1.8805   -0.3547 H   0  0  0  0  0  0  0  0  0  0  0  0
    2.4379   -0.8796    2.3662 H   0  0  0  0  0  0  0  0  0  0  0  0
    1.2221   -2.1512    2.1396 H   0  0  0  0  0  0  0  0  0  0  0  0
    1.6464   -4.3198    1.3424 H   0  0  0  0  0  0  0  0  0  0  0  0
    3.2332   -6.1342    1.1621 H   0  0  0  0  0  0  0  0  0  0  0  0
    6.4717   -3.4107    1.5283 H   0  0  0  0  0  0  0  0  0  0  0  0
    4.8734   -1.5746    1.7157 H   0  0  0  0  0  0  0  0  0  0  0  0
    3.2489   -0.7808   -1.2038 H   0  0  0  0  0  0  0  0  0  0  0  0
    4.4946    2.3238   -0.4999 H   0  0  0  0  0  0  0  0  0  0  0  0
    4.6729    1.1233   -2.3648 H   0  0  0  0  0  0  0  0  0  0  0  0
    6.6724    0.1448   -2.7990 H   0  0  0  0  0  0  0  0  0  0  0  0
    6.7600   -0.5048   -1.0928 H   0  0  0  0  0  0  0  0  0  0  0  0
    5.5489    1.8010    1.6072 H   0  0  0  0  0  0  0  0  0  0  0  0
    6.1949    0.2376    0.9216 H   0  0  0  0  0  0  0  0  0  0  0  0
    7.4027    3.3887    1.5760 H   0  0  0  0  0  0  0  0  0  0  0  0
    9.2092    4.5125    0.2532 H   0  0  0  0  0  0  0  0  0  0  0  0
    9.7287    3.6615   -2.0442 H   0  0  0  0  0  0  0  0  0  0  0  0
    8.4944    1.7553   -3.0045 H   0  0  0  0  0  0  0  0  0  0  0  0
   -1.8874   -1.4993   -0.6821 H   0  0  0  0  0  0  0  0  0  0  0  0
   -3.2680   -2.4006   -0.0977 H   0  0  0  0  0  0  0  0  0  0  0  0
   -5.2879   -2.8064   -0.7142 H   0  0  0  0  0  0  0  0  0  0  0  0
   -5.9523   -3.4464   -2.2768 H   0  0  0  0  0  0  0  0  0  0  0  0
   -6.6187   -1.9145   -1.5022 H   0  0  0  0  0  0  0  0  0  0  0  0
  1  2  1  0
  2  3  1  0
  3  4  1  0
  4  5  1  0
  5  6  1  0
  6  7  1  0
  7  8  1  0
  8  9  1  0
  9 10  1  0
 10 11  1  0
 11 12  1  0
 10 13  1  0
 13 14  2  0
 13 15  1  0
 15 16  1  0
 16 17  1  0
 17 18  2  0
 18 19  1  0
 19 20  2  0
 20 21  1  0
 21 22  2  0
 20 23  1  0
 15 24  1  0
 24 25  1  0
 25 26  2  0
 25 27  1  0
 27 28  1  0
 28 29  1  0
 29 30  1  0
 30 31  2  0
 31 32  1  0
 31 33  1  0
 33 34  2  0
 34 35  1  0
 35 36  2  0
  7 37  1  0
 37 38  1  0
 38 39  2  0
 39 40  1  0
 40 41  2  0
 41 42  1  0
 42 43  1  0
 12  7  1  0
 22 17  1  0
 32 27  1  0
 42 38  1  0
 36 30  1  0
  1 44  1  0
  1 45  1  0
  1 46  1  0
  2 47  1  0
  2 48  1  0
  3 49  1  0
  3 50  1  0
  4 51  1  0
  4 52  1  0
  5 53  1  0
  5 54  1  0
  6 55  1  0
  6 56  1  0
  8 57  1  0
  8 58  1  0
  9 59  1  0
  9 60  1  0
 11 61  1  0
 11 62  1  0
 12 63  1  0
 12 64  1  0
 15 65  1  6
 16 66  1  0
 16 67  1  0
 18 68  1  0
 19 69  1  0
 21 70  1  0
 22 71  1  0
 24 72  1  0
 27 73  1  6
 28 74  1  0
 29 75  1  0
 29 76  1  0
 32 77  1  0
 32 78  1  0
 33 79  1  0
 34 80  1  0
 35 81  1  0
 36 82  1  0
 37 83  1  0
 37 84  1  0
 43 85  1  0
 43 86  1  0
 43 87  1  0
M  END
>  <Ligand ID>  (1) 
LIG0004211

>  <Ligand>  (1) 
CHEMBL249277

>  <SMILES>  (1) 
CCCCCCC1(CCN(CC1)C(=O)[C@H](Cc1ccc(cc1)Cl)NC(=O)[C@@H]1NCc2c(C1)cccc2)Cc1nnnn1C

>  <CID>  (1) 
44441645.0

>  <ChEMBL ID>  (1) 
nan

>  <InChiKey>  (1) 
AZJWJBAXGKDQCY-WDYNHAJCSA-N

>  <InChi>  (1) 
InChI=1S/C33H44ClN7O2/c1-3-4-5-8-15-33(22-30-37-38-39-40(30)2)16-18-41(19-17-33)32(43)29(20-24-11-13-27(34)14-12-24)36-31(42)28-21-25-9-6-7-10-26(25)23-35-28/h6-7,9-14,28-29,35H,3-5,8,15-23H2,1-2H3,(H,36,42)/t28-,29+/m1/s1

>  <IUPAC Name>  (1) 
(3R)-N-[(2S)-3-(4-chlorophenyl)-1-[4-hexyl-4-[(1-methyltetrazol-5-yl)methyl]piperidin-1-yl]-1-oxopropan-2-yl]-1,2,3,4-tetrahydroisoquinoline-3-carboxamide

$$$$
