
     RDKit          3D

 49 52  0  0  0  0  0  0  0  0999 V2000
   -5.6705    2.3177    0.3559 O   0  0  0  0  0  0  0  0  0  0  0  0
   -4.4534    1.7623    0.7420 C   0  0  0  0  0  0  0  0  0  0  0  0
   -3.9499    2.0979    1.9920 C   0  0  0  0  0  0  0  0  0  0  0  0
   -2.7448    1.5624    2.4022 C   0  0  0  0  0  0  0  0  0  0  0  0
   -2.0596    0.7013    1.5619 C   0  0  0  0  0  0  0  0  0  0  0  0
   -2.5297    0.3433    0.3110 C   0  0  0  0  0  0  0  0  0  0  0  0
   -3.7524    0.9051   -0.0702 C   0  0  0  0  0  0  0  0  0  0  0  0
   -1.8401   -0.5925   -0.6146 C   0  0  1  0  0  0  0  0  0  0  0  0
   -2.8009   -1.4208   -1.4115 C   0  0  0  0  0  0  0  0  0  0  0  0
   -0.7355    0.0177   -1.4583 C   0  0  0  0  0  0  0  0  0  0  0  0
    0.6838   -0.4436   -1.2006 C   0  0  0  0  0  0  0  0  0  0  0  0
    1.0185   -0.6102    0.2279 N   0  0  0  0  0  0  0  0  0  0  0  0
   -0.1337   -0.2445    0.8537 C   0  0  2  0  0  0  0  0  0  0  0  0
   -0.7150    0.1645    2.0715 C   0  0  0  0  0  0  0  0  0  0  0  0
   -1.0584   -1.3541    0.3903 C   0  0  2  0  0  0  0  0  0  0  0  0
   -0.3891   -2.5996   -0.0940 C   0  0  0  0  0  0  0  0  0  0  0  0
    2.1704    0.0732    0.6632 C   0  0  0  0  0  0  0  0  0  0  0  0
    3.4374   -0.5015    0.0906 C   0  0  2  0  0  0  0  0  0  0  0  0
    4.5867    0.3469    0.5836 C   0  0  0  0  0  0  0  0  0  0  0  0
    4.9152    1.1397   -0.6610 C   0  0  0  0  0  0  0  0  0  0  0  0
    4.5528    0.1382   -1.7534 C   0  0  0  0  0  0  0  0  0  0  0  0
    3.3982   -0.4242   -1.2729 O   0  0  0  0  0  0  0  0  0  0  0  0
   -6.1487    1.9330   -0.4308 H   0  0  0  0  0  0  0  0  0  0  0  0
   -4.4775    2.7742    2.6635 H   0  0  0  0  0  0  0  0  0  0  0  0
   -2.3218    1.8016    3.3714 H   0  0  0  0  0  0  0  0  0  0  0  0
   -4.2034    0.6839   -1.0361 H   0  0  0  0  0  0  0  0  0  0  0  0
   -2.2390   -2.1454   -1.9957 H   0  0  0  0  0  0  0  0  0  0  0  0
   -3.3022   -0.7588   -2.1431 H   0  0  0  0  0  0  0  0  0  0  0  0
   -3.4700   -1.9227   -0.7172 H   0  0  0  0  0  0  0  0  0  0  0  0
   -0.9435   -0.3533   -2.5048 H   0  0  0  0  0  0  0  0  0  0  0  0
   -0.8424    1.1169   -1.5598 H   0  0  0  0  0  0  0  0  0  0  0  0
    1.2867    0.4788   -1.4741 H   0  0  0  0  0  0  0  0  0  0  0  0
    1.0779   -1.1973   -1.8583 H   0  0  0  0  0  0  0  0  0  0  0  0
   -0.2172    0.7787    0.3446 H   0  0  0  0  0  0  0  0  0  0  0  0
   -0.9870   -0.5920    2.8510 H   0  0  0  0  0  0  0  0  0  0  0  0
   -0.1592    0.9481    2.5960 H   0  0  0  0  0  0  0  0  0  0  0  0
   -1.7804   -1.7198    1.1659 H   0  0  0  0  0  0  0  0  0  0  0  0
   -0.7502   -3.5237    0.4061 H   0  0  0  0  0  0  0  0  0  0  0  0
    0.6996   -2.5889    0.1953 H   0  0  0  0  0  0  0  0  0  0  0  0
   -0.5259   -2.8223   -1.1704 H   0  0  0  0  0  0  0  0  0  0  0  0
    2.1293    1.1627    0.4557 H   0  0  0  0  0  0  0  0  0  0  0  0
    2.1721    0.0115    1.7902 H   0  0  0  0  0  0  0  0  0  0  0  0
    3.5065   -1.5484    0.4582 H   0  0  0  0  0  0  0  0  0  0  0  0
    4.2717    0.9947    1.4368 H   0  0  0  0  0  0  0  0  0  0  0  0
    5.4180   -0.3246    0.8101 H   0  0  0  0  0  0  0  0  0  0  0  0
    5.9826    1.4069   -0.7094 H   0  0  0  0  0  0  0  0  0  0  0  0
    4.2188    1.9970   -0.7100 H   0  0  0  0  0  0  0  0  0  0  0  0
    5.3433   -0.6209   -1.8337 H   0  0  0  0  0  0  0  0  0  0  0  0
    4.3318    0.6506   -2.7076 H   0  0  0  0  0  0  0  0  0  0  0  0
  1  2  1  0
  2  3  2  0
  3  4  1  0
  4  5  2  0
  5  6  1  0
  6  7  2  0
  6  8  1  0
  8  9  1  6
  8 10  1  0
 10 11  1  0
 11 12  1  0
 12 13  1  0
 13 14  1  0
 13 15  1  0
 15 16  1  0
 12 17  1  0
 17 18  1  0
 18 19  1  0
 19 20  1  0
 20 21  1  0
 21 22  1  0
  7  2  1  0
 15  8  1  0
 22 18  1  0
 14  5  1  0
  1 23  1  0
  3 24  1  0
  4 25  1  0
  7 26  1  0
  9 27  1  0
  9 28  1  0
  9 29  1  0
 10 30  1  0
 10 31  1  0
 11 32  1  0
 11 33  1  0
 13 34  1  6
 14 35  1  0
 14 36  1  0
 15 37  1  1
 16 38  1  0
 16 39  1  0
 16 40  1  0
 17 41  1  0
 17 42  1  0
 18 43  1  6
 19 44  1  0
 19 45  1  0
 20 46  1  0
 20 47  1  0
 21 48  1  0
 21 49  1  0
M  END
>  <Ligand ID>  (1) 
LIG0005484

>  <Ligand>  (1) 
MR-2034

>  <SMILES>  (1) 
Oc1ccc2c(c1)[C@@]1(C)CCN([C@H](C2)[C@@H]1C)C[C@@H]1CCCO1

>  <CID>  (1) 
68196155.0

>  <ChEMBL ID>  (1) 
nan

>  <InChiKey>  (1) 
NLKLXMMOJZHSCB-IVJVFBROSA-N

>  <InChi>  (1) 
InChI=1S/C19H27NO2/c1-13-18-10-14-5-6-15(21)11-17(14)19(13,2)7-8-20(18)12-16-4-3-9-22-16/h5-6,11,13,16,18,21H,3-4,7-10,12H2,1-2H3/t13-,16-,18+,19-/m0/s1

>  <IUPAC Name>  (1) 
(1S,9R,13R)-1,13-dimethyl-10-[[(2S)-oxolan-2-yl]methyl]-10-azatricyclo[7.3.1.02,7]trideca-2(7),3,5-trien-4-ol

$$$$
