
     RDKit          3D

 35 37  0  0  0  0  0  0  0  0999 V2000
    4.7882    0.0666   -0.9481 C   0  0  0  0  0  0  0  0  0  0  0  0
    4.3364   -0.3477    0.4432 C   0  0  0  0  0  0  0  0  0  0  0  0
    2.9009    0.0284    0.5603 C   0  0  0  0  0  0  0  0  0  0  0  0
    2.6148    1.2806    1.0397 C   0  0  0  0  0  0  0  0  0  0  0  0
    1.2948    1.6495    1.1563 C   0  0  0  0  0  0  0  0  0  0  0  0
    0.2949    0.7551    0.7898 C   0  0  0  0  0  0  0  0  0  0  0  0
    0.5684   -0.5035    0.3077 C   0  0  0  0  0  0  0  0  0  0  0  0
    1.8983   -0.8560    0.1977 C   0  0  0  0  0  0  0  0  0  0  0  0
   -0.4416   -1.4892   -0.0942 C   0  0  0  0  0  0  0  0  0  0  0  0
   -1.8432   -1.0338   -0.0585 C   0  0  1  0  0  0  0  0  0  0  0  0
   -2.0915    0.2385    0.5421 N   0  0  0  0  0  0  0  0  0  0  0  0
   -1.0830    1.1573    0.9182 C   0  0  0  0  0  0  0  0  0  0  0  0
   -1.3555    2.2977    1.3545 O   0  0  0  0  0  0  0  0  0  0  0  0
   -3.4687    0.6244    0.7873 C   0  0  0  0  0  0  0  0  0  0  0  0
   -4.3339    0.2140   -0.3742 C   0  0  0  0  0  0  0  0  0  0  0  0
   -3.6662   -0.2600   -1.5170 N   0  0  0  0  0  0  0  0  0  0  0  0
   -2.5012   -1.0284   -1.4106 C   0  0  0  0  0  0  0  0  0  0  0  0
    5.6449   -0.5901   -1.2211 H   0  0  0  0  0  0  0  0  0  0  0  0
    3.9377   -0.0118   -1.6565 H   0  0  0  0  0  0  0  0  0  0  0  0
    5.0685    1.1497   -0.9029 H   0  0  0  0  0  0  0  0  0  0  0  0
    4.9271    0.1162    1.2399 H   0  0  0  0  0  0  0  0  0  0  0  0
    4.3896   -1.4535    0.5651 H   0  0  0  0  0  0  0  0  0  0  0  0
    3.4180    1.9568    1.3176 H   0  0  0  0  0  0  0  0  0  0  0  0
    1.0407    2.6417    1.5356 H   0  0  0  0  0  0  0  0  0  0  0  0
    2.2079   -1.8340   -0.1751 H   0  0  0  0  0  0  0  0  0  0  0  0
   -0.2815   -2.4351    0.4911 H   0  0  0  0  0  0  0  0  0  0  0  0
   -0.1866   -1.7815   -1.1528 H   0  0  0  0  0  0  0  0  0  0  0  0
   -2.4372   -1.7757    0.5529 H   0  0  0  0  0  0  0  0  0  0  0  0
   -3.8046    0.0290    1.6739 H   0  0  0  0  0  0  0  0  0  0  0  0
   -3.5646    1.6832    1.0625 H   0  0  0  0  0  0  0  0  0  0  0  0
   -4.8858    1.1458   -0.6850 H   0  0  0  0  0  0  0  0  0  0  0  0
   -5.1256   -0.5066   -0.0740 H   0  0  0  0  0  0  0  0  0  0  0  0
   -3.8372    0.2245   -2.4158 H   0  0  0  0  0  0  0  0  0  0  0  0
   -1.7422   -0.6709   -2.1417 H   0  0  0  0  0  0  0  0  0  0  0  0
   -2.6811   -2.1024   -1.7079 H   0  0  0  0  0  0  0  0  0  0  0  0
  1  2  1  0
  2  3  1  0
  3  4  2  0
  4  5  1  0
  5  6  2  0
  6  7  1  0
  7  8  2  0
  7  9  1  0
  9 10  1  0
 10 11  1  0
 11 12  1  0
 12 13  2  0
 11 14  1  0
 14 15  1  0
 15 16  1  0
 16 17  1  0
  8  3  1  0
 17 10  1  0
 12  6  1  0
  1 18  1  0
  1 19  1  0
  1 20  1  0
  2 21  1  0
  2 22  1  0
  4 23  1  0
  5 24  1  0
  8 25  1  0
  9 26  1  0
  9 27  1  0
 10 28  1  1
 14 29  1  0
 14 30  1  0
 15 31  1  0
 15 32  1  0
 16 33  1  0
 17 34  1  0
 17 35  1  0
M  END
>  <Ligand ID>  (1) 
LIG0004120

>  <Ligand>  (1) 
SCHEMBL3557766

>  <SMILES>  (1) 
CCc1ccc2c(c1)C[C@H]1N(C2=O)CCNC1

>  <CID>  (1) 
24826870.0

>  <ChEMBL ID>  (1) 
nan

>  <InChiKey>  (1) 
UBBZCPBZRDCZAF-GFCCVEGCSA-N

>  <InChi>  (1) 
InChI=1S/C14H18N2O/c1-2-10-3-4-13-11(7-10)8-12-9-15-5-6-16(12)14(13)17/h3-4,7,12,15H,2,5-6,8-9H2,1H3/t12-/m1/s1

>  <IUPAC Name>  (1) 
(11aR)-9-ethyl-1,2,3,4,11,11a-hexahydropyrazino[1,2-b]isoquinolin-6-one

$$$$
