
     RDKit          3D

103104  0  0  0  0  0  0  0  0999 V2000
    7.6896    3.4774   -2.6839 C   0  0  0  0  0  0  0  0  0  0  0  0
    9.1149    2.3832   -2.5066 S   0  0  0  0  0  0  0  0  0  0  0  0
    8.5579    0.7944   -1.7925 C   0  0  0  0  0  0  0  0  0  0  0  0
    7.6675    0.1026   -2.7987 C   0  0  0  0  0  0  0  0  0  0  0  0
    7.1649   -1.2229   -2.2590 C   0  0  1  0  0  0  0  0  0  0  0  0
    8.3640   -2.0587   -1.9759 C   0  0  0  0  0  0  0  0  0  0  0  0
    8.6103   -2.5304   -0.8257 O   0  0  0  0  0  0  0  0  0  0  0  0
    9.2325   -2.2999   -3.0948 N   0  0  0  0  0  0  0  0  0  0  0  0
    6.4177   -1.0846   -1.0360 N   0  0  0  0  0  0  0  0  0  0  0  0
    5.0804   -1.5667   -0.8719 C   0  0  0  0  0  0  0  0  0  0  0  0
    4.4458   -2.1559   -1.7772 O   0  0  0  0  0  0  0  0  0  0  0  0
    4.4802   -1.3103    0.4893 C   0  0  1  0  0  0  0  0  0  0  0  0
    3.1336   -1.8315    0.5977 N   0  0  0  0  0  0  0  0  0  0  0  0
    2.0795   -0.9325    0.7666 C   0  0  0  0  0  0  0  0  0  0  0  0
    2.3682    0.3128    0.8036 O   0  0  0  0  0  0  0  0  0  0  0  0
    0.6484   -1.2908    0.9081 C   0  0  2  0  0  0  0  0  0  0  0  0
   -0.1782   -0.0850    0.9765 N   0  0  0  0  0  0  0  0  0  0  0  0
   -1.4468    0.0183    0.3793 C   0  0  0  0  0  0  0  0  0  0  0  0
   -1.8591   -1.0250   -0.2397 O   0  0  0  0  0  0  0  0  0  0  0  0
   -2.3301    1.1756    0.3848 C   0  0  2  0  0  0  0  0  0  0  0  0
   -2.9591    1.3879    1.7327 C   0  0  0  0  0  0  0  0  0  0  0  0
   -1.9698    1.5952    2.7779 C   0  0  0  0  0  0  0  0  0  0  0  0
   -1.5242    0.5969    3.6528 C   0  0  0  0  0  0  0  0  0  0  0  0
   -0.5783    0.9254    4.5928 C   0  0  0  0  0  0  0  0  0  0  0  0
   -0.0475    2.1864    4.7177 C   0  0  0  0  0  0  0  0  0  0  0  0
   -0.4827    3.1886    3.8532 C   0  0  0  0  0  0  0  0  0  0  0  0
   -1.4191    2.8740    2.9182 C   0  0  0  0  0  0  0  0  0  0  0  0
   -3.5119    0.9173   -0.4931 N   0  0  0  0  0  0  0  0  0  0  0  0
   -3.8101    1.7627   -1.5863 C   0  0  0  0  0  0  0  0  0  0  0  0
   -3.1136    2.7728   -1.9017 O   0  0  0  0  0  0  0  0  0  0  0  0
   -5.0222    1.4356   -2.4103 C   0  0  2  0  0  0  0  0  0  0  0  0
   -5.9945    2.5997   -2.2338 C   0  0  0  0  0  0  0  0  0  0  0  0
   -6.4039    2.8073   -0.8350 C   0  0  0  0  0  0  0  0  0  0  0  0
   -5.6985    3.6508    0.0338 C   0  0  0  0  0  0  0  0  0  0  0  0
   -6.1121    3.8280    1.3470 C   0  0  0  0  0  0  0  0  0  0  0  0
   -7.2260    3.1825    1.8386 C   0  0  0  0  0  0  0  0  0  0  0  0
   -7.9357    2.3446    0.9937 C   0  0  0  0  0  0  0  0  0  0  0  0
   -7.5250    2.1669   -0.3150 C   0  0  0  0  0  0  0  0  0  0  0  0
   -5.7270    0.2730   -1.9175 N   0  0  0  0  0  0  0  0  0  0  0  0
   -6.0888   -0.8297   -2.7786 C   0  0  0  0  0  0  0  0  0  0  0  0
   -5.7872   -0.7867   -3.9917 O   0  0  0  0  0  0  0  0  0  0  0  0
   -6.8072   -1.9405   -2.1194 C   0  0  0  0  0  0  0  0  0  0  0  0
   -7.2095   -3.0531   -3.0336 C   0  0  0  0  0  0  0  0  0  0  0  0
   -8.1256   -2.6688   -4.1446 C   0  0  0  0  0  0  0  0  0  0  0  0
   -8.4250   -3.8636   -4.9333 N   0  0  0  0  0  0  0  0  0  0  0  0
    0.5353   -1.8966    2.3279 C   0  0  0  0  0  0  0  0  0  0  0  0
    5.3225   -2.0851    1.4743 C   0  0  0  0  0  0  0  0  0  0  0  0
    4.8489   -1.9406    2.9036 C   0  0  0  0  0  0  0  0  0  0  0  0
    5.7803   -2.7666    3.7681 C   0  0  0  0  0  0  0  0  0  0  0  0
    5.0330   -0.4623    3.2740 C   0  0  0  0  0  0  0  0  0  0  0  0
    7.8733    4.4651   -2.2104 H   0  0  0  0  0  0  0  0  0  0  0  0
    6.7787    2.9626   -2.3161 H   0  0  0  0  0  0  0  0  0  0  0  0
    7.5259    3.6561   -3.7653 H   0  0  0  0  0  0  0  0  0  0  0  0
    8.1105    0.9372   -0.8052 H   0  0  0  0  0  0  0  0  0  0  0  0
    9.4941    0.1698   -1.7104 H   0  0  0  0  0  0  0  0  0  0  0  0
    6.8622    0.7251   -3.1945 H   0  0  0  0  0  0  0  0  0  0  0  0
    8.3130   -0.1556   -3.6769 H   0  0  0  0  0  0  0  0  0  0  0  0
    6.5671   -1.7356   -3.0429 H   0  0  0  0  0  0  0  0  0  0  0  0
   10.1180   -1.7552   -3.1153 H   0  0  0  0  0  0  0  0  0  0  0  0
    8.9129   -2.9881   -3.7818 H   0  0  0  0  0  0  0  0  0  0  0  0
    6.9174   -0.5978   -0.2403 H   0  0  0  0  0  0  0  0  0  0  0  0
    4.5059   -0.2167    0.6961 H   0  0  0  0  0  0  0  0  0  0  0  0
    2.9255   -2.8487    0.5533 H   0  0  0  0  0  0  0  0  0  0  0  0
    0.2669   -2.0009    0.1835 H   0  0  0  0  0  0  0  0  0  0  0  0
    0.2111    0.7366    1.4780 H   0  0  0  0  0  0  0  0  0  0  0  0
   -1.8505    2.0771   -0.0141 H   0  0  0  0  0  0  0  0  0  0  0  0
   -3.6922    0.5827    1.9777 H   0  0  0  0  0  0  0  0  0  0  0  0
   -3.6025    2.3259    1.7305 H   0  0  0  0  0  0  0  0  0  0  0  0
   -1.9622   -0.3808    3.5337 H   0  0  0  0  0  0  0  0  0  0  0  0
   -0.2460    0.1507    5.2579 H   0  0  0  0  0  0  0  0  0  0  0  0
    0.7085    2.4455    5.4713 H   0  0  0  0  0  0  0  0  0  0  0  0
   -0.1023    4.1918    3.9035 H   0  0  0  0  0  0  0  0  0  0  0  0
   -1.7535    3.6534    2.2495 H   0  0  0  0  0  0  0  0  0  0  0  0
   -4.0658    0.0781   -0.2185 H   0  0  0  0  0  0  0  0  0  0  0  0
   -4.7883    1.3752   -3.4802 H   0  0  0  0  0  0  0  0  0  0  0  0
   -5.4859    3.4830   -2.6311 H   0  0  0  0  0  0  0  0  0  0  0  0
   -6.9329    2.3884   -2.8226 H   0  0  0  0  0  0  0  0  0  0  0  0
   -4.8320    4.1757   -0.2875 H   0  0  0  0  0  0  0  0  0  0  0  0
   -5.5575    4.4893    2.0236 H   0  0  0  0  0  0  0  0  0  0  0  0
   -7.5553    3.3203    2.8731 H   0  0  0  0  0  0  0  0  0  0  0  0
   -8.8170    1.8425    1.4041 H   0  0  0  0  0  0  0  0  0  0  0  0
   -8.1289    1.4965   -0.9167 H   0  0  0  0  0  0  0  0  0  0  0  0
   -5.9680    0.2645   -0.8995 H   0  0  0  0  0  0  0  0  0  0  0  0
   -6.1560   -2.3746   -1.2995 H   0  0  0  0  0  0  0  0  0  0  0  0
   -7.7190   -1.5974   -1.5709 H   0  0  0  0  0  0  0  0  0  0  0  0
   -6.2823   -3.5607   -3.4305 H   0  0  0  0  0  0  0  0  0  0  0  0
   -7.7216   -3.8572   -2.4555 H   0  0  0  0  0  0  0  0  0  0  0  0
   -9.0697   -2.3025   -3.6879 H   0  0  0  0  0  0  0  0  0  0  0  0
   -7.6868   -1.8761   -4.7505 H   0  0  0  0  0  0  0  0  0  0  0  0
   -9.3769   -3.8423   -5.3535 H   0  0  0  0  0  0  0  0  0  0  0  0
   -8.3894   -4.6697   -4.2655 H   0  0  0  0  0  0  0  0  0  0  0  0
    1.0208   -1.1637    3.0015 H   0  0  0  0  0  0  0  0  0  0  0  0
   -0.5005   -2.0253    2.6441 H   0  0  0  0  0  0  0  0  0  0  0  0
    1.1033   -2.8424    2.3804 H   0  0  0  0  0  0  0  0  0  0  0  0
    5.2747   -3.1524    1.1298 H   0  0  0  0  0  0  0  0  0  0  0  0
    6.3606   -1.6965    1.4285 H   0  0  0  0  0  0  0  0  0  0  0  0
    3.8119   -2.2842    3.0505 H   0  0  0  0  0  0  0  0  0  0  0  0
    5.2166   -3.5055    4.3911 H   0  0  0  0  0  0  0  0  0  0  0  0
    6.5413   -3.2903    3.1857 H   0  0  0  0  0  0  0  0  0  0  0  0
    6.3013   -2.1240    4.5254 H   0  0  0  0  0  0  0  0  0  0  0  0
    5.5692   -0.3644    4.2377 H   0  0  0  0  0  0  0  0  0  0  0  0
    5.6487    0.0797    2.5269 H   0  0  0  0  0  0  0  0  0  0  0  0
    4.0474    0.0640    3.3568 H   0  0  0  0  0  0  0  0  0  0  0  0
  1  2  1  0
  2  3  1  0
  3  4  1  0
  4  5  1  0
  5  6  1  0
  6  7  2  0
  6  8  1  0
  5  9  1  0
  9 10  1  0
 10 11  2  0
 10 12  1  0
 12 13  1  0
 13 14  1  0
 14 15  2  0
 14 16  1  0
 16 17  1  0
 17 18  1  0
 18 19  2  0
 18 20  1  0
 20 21  1  0
 21 22  1  0
 22 23  2  0
 23 24  1  0
 24 25  2  0
 25 26  1  0
 26 27  2  0
 20 28  1  0
 28 29  1  0
 29 30  2  0
 29 31  1  0
 31 32  1  0
 32 33  1  0
 33 34  2  0
 34 35  1  0
 35 36  2  0
 36 37  1  0
 37 38  2  0
 31 39  1  0
 39 40  1  0
 40 41  2  0
 40 42  1  0
 42 43  1  0
 43 44  1  0
 44 45  1  0
 16 46  1  0
 12 47  1  0
 47 48  1  0
 48 49  1  0
 48 50  1  0
 27 22  1  0
 38 33  1  0
  1 51  1  0
  1 52  1  0
  1 53  1  0
  3 54  1  0
  3 55  1  0
  4 56  1  0
  4 57  1  0
  5 58  1  6
  8 59  1  0
  8 60  1  0
  9 61  1  0
 12 62  1  1
 13 63  1  0
 16 64  1  6
 17 65  1  0
 20 66  1  6
 21 67  1  0
 21 68  1  0
 23 69  1  0
 24 70  1  0
 25 71  1  0
 26 72  1  0
 27 73  1  0
 28 74  1  0
 31 75  1  6
 32 76  1  0
 32 77  1  0
 34 78  1  0
 35 79  1  0
 36 80  1  0
 37 81  1  0
 38 82  1  0
 39 83  1  0
 42 84  1  0
 42 85  1  0
 43 86  1  0
 43 87  1  0
 44 88  1  0
 44 89  1  0
 45 90  1  0
 45 91  1  0
 46 92  1  0
 46 93  1  0
 46 94  1  0
 47 95  1  0
 47 96  1  0
 48 97  1  0
 49 98  1  0
 49 99  1  0
 49100  1  0
 50101  1  0
 50102  1  0
 50103  1  0
M  END
>  <Ligand ID>  (1) 
LIG0005363

>  <Ligand>  (1) 
CHEMBL291903

>  <SMILES>  (1) 
CSCC[C@@H](C(=O)N)NC(=O)[C@@H](NC(=O)[C@H](NC(=O)[C@H](Cc1ccccc1)NC(=O)[C@H](Cc1ccccc1)NC(=O)CCCN)C)CC(C)C

>  <CID>  (1) 
44297675.0

>  <ChEMBL ID>  (1) 
nan

>  <InChiKey>  (1) 
LJNVNRGOILXPRJ-HKBLMNGLSA-N

>  <InChi>  (1) 
InChI=1S/C36H53N7O6S/c1-23(2)20-28(35(48)41-27(32(38)45)17-19-50-4)42-33(46)24(3)39-34(47)30(22-26-14-9-6-10-15-26)43-36(49)29(40-31(44)16-11-18-37)21-25-12-7-5-8-13-25/h5-10,12-15,23-24,27-30H,11,16-22,37H2,1-4H3,(H2,38,45)(H,39,47)(H,40,44)(H,41,48)(H,42,46)(H,43,49)/t24-,27+,28+,29+,30+/m1/s1

>  <IUPAC Name>  (1) 
(2S)-2-[[(2R)-2-[[(2S)-2-[[(2S)-2-(4-aminobutanoylamino)-3-phenylpropanoyl]amino]-3-phenylpropanoyl]amino]propanoyl]amino]-N-[(2S)-1-amino-4-methylsulfanyl-1-oxobutan-2-yl]-4-methylpentanamide

$$$$
