
     RDKit          3D

 45 44  0  0  0  0  0  0  0  0999 V2000
    5.2154   -2.2050    0.6928 C   0  0  0  0  0  0  0  0  0  0  0  0
    5.8049   -1.2832   -0.3593 C   0  0  0  0  0  0  0  0  0  0  0  0
    4.8215   -0.1535   -0.6634 C   0  0  0  0  0  0  0  0  0  0  0  0
    3.5263   -0.7739   -1.1803 C   0  0  0  0  0  0  0  0  0  0  0  0
    2.5772    0.3192   -1.4735 C   0  0  0  0  0  0  0  0  0  0  0  0
    2.9731    1.5059   -1.2604 O   0  0  0  0  0  0  0  0  0  0  0  0
    1.3028    0.1039   -1.9601 O   0  0  0  0  0  0  0  0  0  0  0  0
    0.3679    1.0877   -2.2540 C   0  0  0  0  0  0  0  0  0  0  0  0
   -0.0492    1.9682   -1.1279 C   0  0  0  0  0  0  0  0  0  0  0  0
   -0.6833    1.2556    0.0360 C   0  0  0  0  0  0  0  0  0  0  0  0
   -1.9259    0.5116   -0.3431 C   0  0  0  0  0  0  0  0  0  0  0  0
   -2.4844   -0.1716    0.9079 C   0  0  0  0  0  0  0  0  0  0  0  0
   -3.7404   -0.9287    0.5498 C   0  0  0  0  0  0  0  0  0  0  0  0
   -4.9072   -0.6633    1.1049 C   0  0  0  0  0  0  0  0  0  0  0  0
   -6.1092   -1.4551    0.7005 C   0  0  0  0  0  0  0  0  0  0  0  0
   -5.0356    0.4125    2.1252 C   0  0  0  0  0  0  0  0  0  0  0  0
    0.2384    0.3864    0.8213 C   0  0  0  0  0  0  0  0  0  0  0  0
    4.6706   -2.9987    0.1676 H   0  0  0  0  0  0  0  0  0  0  0  0
    6.0054   -2.5702    1.3882 H   0  0  0  0  0  0  0  0  0  0  0  0
    4.4895   -1.5951    1.2831 H   0  0  0  0  0  0  0  0  0  0  0  0
    6.0005   -1.8554   -1.2918 H   0  0  0  0  0  0  0  0  0  0  0  0
    6.7632   -0.8766    0.0064 H   0  0  0  0  0  0  0  0  0  0  0  0
    5.3156    0.4415   -1.4584 H   0  0  0  0  0  0  0  0  0  0  0  0
    4.6658    0.4683    0.2184 H   0  0  0  0  0  0  0  0  0  0  0  0
    3.8082   -1.3375   -2.1119 H   0  0  0  0  0  0  0  0  0  0  0  0
    3.1550   -1.5299   -0.4762 H   0  0  0  0  0  0  0  0  0  0  0  0
   -0.5171    0.5491   -2.7049 H   0  0  0  0  0  0  0  0  0  0  0  0
    0.6982    1.7630   -3.0789 H   0  0  0  0  0  0  0  0  0  0  0  0
   -0.8524    2.6343   -1.5388 H   0  0  0  0  0  0  0  0  0  0  0  0
    0.7634    2.6376   -0.8438 H   0  0  0  0  0  0  0  0  0  0  0  0
   -1.0283    2.0794    0.7283 H   0  0  0  0  0  0  0  0  0  0  0  0
   -2.7023    1.1480   -0.7937 H   0  0  0  0  0  0  0  0  0  0  0  0
   -1.6774   -0.3380   -1.0316 H   0  0  0  0  0  0  0  0  0  0  0  0
   -2.6965    0.5335    1.7243 H   0  0  0  0  0  0  0  0  0  0  0  0
   -1.7775   -0.9325    1.2901 H   0  0  0  0  0  0  0  0  0  0  0  0
   -3.6382   -1.7068   -0.1907 H   0  0  0  0  0  0  0  0  0  0  0  0
   -6.6390   -1.7808    1.6370 H   0  0  0  0  0  0  0  0  0  0  0  0
   -6.8191   -0.8013    0.1597 H   0  0  0  0  0  0  0  0  0  0  0  0
   -5.8401   -2.3830    0.1837 H   0  0  0  0  0  0  0  0  0  0  0  0
   -6.1017    0.5804    2.3433 H   0  0  0  0  0  0  0  0  0  0  0  0
   -4.6470    1.3732    1.7116 H   0  0  0  0  0  0  0  0  0  0  0  0
   -4.5559    0.1260    3.0673 H   0  0  0  0  0  0  0  0  0  0  0  0
   -0.2380    0.2852    1.8414 H   0  0  0  0  0  0  0  0  0  0  0  0
    1.2139    0.8513    1.0285 H   0  0  0  0  0  0  0  0  0  0  0  0
    0.2889   -0.6480    0.4254 H   0  0  0  0  0  0  0  0  0  0  0  0
  1  2  1  0
  2  3  1  0
  3  4  1  0
  4  5  1  0
  5  6  2  0
  5  7  1  0
  7  8  1  0
  8  9  1  0
  9 10  1  0
 10 11  1  0
 11 12  1  0
 12 13  1  0
 13 14  2  3
 14 15  1  0
 14 16  1  0
 10 17  1  0
  1 18  1  0
  1 19  1  0
  1 20  1  0
  2 21  1  0
  2 22  1  0
  3 23  1  0
  3 24  1  0
  4 25  1  0
  4 26  1  0
  8 27  1  0
  8 28  1  0
  9 29  1  0
  9 30  1  0
 10 31  1  0
 11 32  1  0
 11 33  1  0
 12 34  1  0
 12 35  1  0
 13 36  1  0
 15 37  1  0
 15 38  1  0
 15 39  1  0
 16 40  1  0
 16 41  1  0
 16 42  1  0
 17 43  1  0
 17 44  1  0
 17 45  1  0
M  END
>  <Ligand ID>  (1) 
LIG0001045

>  <Ligand>  (1) 
Citronellyl valerate

>  <SMILES>  (1) 
CCCCC(=O)OCCC(CCC=C(C)C)C

>  <CID>  (1) 
61416.0

>  <ChEMBL ID>  (1) 
nan

>  <InChiKey>  (1) 
PFOJEJPZUVQHEH-UHFFFAOYSA-N

>  <InChi>  (1) 
InChI=1S/C15H28O2/c1-5-6-10-15(16)17-12-11-14(4)9-7-8-13(2)3/h8,14H,5-7,9-12H2,1-4H3

>  <IUPAC Name>  (1) 
3,7-dimethyloct-6-enyl pentanoate

$$$$
