
     RDKit          3D

 49 50  0  0  0  0  0  0  0  0999 V2000
   -2.8309   -0.4043    3.1772 O   0  0  0  0  0  0  0  0  0  0  0  0
   -2.5520    0.9251    2.9957 C   0  0  0  0  0  0  0  0  0  0  0  0
   -3.6532    1.5941    2.2062 C   0  0  0  0  0  0  0  0  0  0  0  0
   -3.9504    1.1443    0.9775 O   0  0  0  0  0  0  0  0  0  0  0  0
   -4.4222    0.0856    0.3179 C   0  0  0  0  0  0  0  0  0  0  0  0
   -4.8636   -1.1173    0.8169 C   0  0  0  0  0  0  0  0  0  0  0  0
   -5.3308   -2.1500    0.0164 C   0  0  0  0  0  0  0  0  0  0  0  0
   -5.3598   -1.9762   -1.3398 C   0  0  0  0  0  0  0  0  0  0  0  0
   -4.9328   -0.7982   -1.8935 C   0  0  0  0  0  0  0  0  0  0  0  0
   -4.4818    0.1928   -1.0897 C   0  0  0  0  0  0  0  0  0  0  0  0
   -5.8275   -3.0149   -2.1209 O   0  0  0  0  0  0  0  0  0  0  0  0
   -1.1773    1.1411    2.4009 C   0  0  0  0  0  0  0  0  0  0  0  0
   -1.0822    0.5110    1.1152 N   0  0  0  0  0  0  0  0  0  0  0  0
    0.2591    0.6949    0.5370 C   0  0  0  0  0  0  0  0  0  0  0  0
    1.3152   -0.0648    1.2771 C   0  0  0  0  0  0  0  0  0  0  0  0
    2.6039    0.1629    0.6657 N   0  0  0  0  0  0  0  0  0  0  0  0
    2.9366   -0.1625   -0.6676 C   0  0  0  0  0  0  0  0  0  0  0  0
    2.0285   -0.7018   -1.3928 O   0  0  0  0  0  0  0  0  0  0  0  0
    4.2437    0.0903   -1.2265 N   0  0  0  0  0  0  0  0  0  0  0  0
    5.3101    0.6839   -0.4469 C   0  0  0  0  0  0  0  0  0  0  0  0
    6.6032    0.1005   -1.0352 C   0  0  0  0  0  0  0  0  0  0  0  0
    6.6811    0.5718   -2.3304 O   0  0  0  0  0  0  0  0  0  0  0  0
    5.7506    0.0206   -3.1825 C   0  0  0  0  0  0  0  0  0  0  0  0
    4.4310   -0.2742   -2.6106 C   0  0  0  0  0  0  0  0  0  0  0  0
   -2.3507   -1.0147    2.5899 H   0  0  0  0  0  0  0  0  0  0  0  0
   -2.5568    1.4060    4.0321 H   0  0  0  0  0  0  0  0  0  0  0  0
   -4.5867    1.6175    2.8686 H   0  0  0  0  0  0  0  0  0  0  0  0
   -3.3779    2.6988    2.1915 H   0  0  0  0  0  0  0  0  0  0  0  0
   -4.8806   -1.2977    1.8695 H   0  0  0  0  0  0  0  0  0  0  0  0
   -5.6677   -3.0819    0.4715 H   0  0  0  0  0  0  0  0  0  0  0  0
   -4.9714   -0.7009   -2.9619 H   0  0  0  0  0  0  0  0  0  0  0  0
   -4.1495    1.1200   -1.5783 H   0  0  0  0  0  0  0  0  0  0  0  0
   -6.7726   -3.0589   -2.4528 H   0  0  0  0  0  0  0  0  0  0  0  0
   -0.9097    2.2172    2.3622 H   0  0  0  0  0  0  0  0  0  0  0  0
   -0.4687    0.7018    3.1448 H   0  0  0  0  0  0  0  0  0  0  0  0
   -1.7082    1.0686    0.4600 H   0  0  0  0  0  0  0  0  0  0  0  0
    0.4856    1.7924    0.5148 H   0  0  0  0  0  0  0  0  0  0  0  0
    0.2193    0.3821   -0.5076 H   0  0  0  0  0  0  0  0  0  0  0  0
    1.1358   -1.1774    1.2294 H   0  0  0  0  0  0  0  0  0  0  0  0
    1.3214    0.1964    2.3506 H   0  0  0  0  0  0  0  0  0  0  0  0
    3.3365    0.6094    1.2844 H   0  0  0  0  0  0  0  0  0  0  0  0
    5.2373    0.4343    0.6301 H   0  0  0  0  0  0  0  0  0  0  0  0
    5.3667    1.7753   -0.6334 H   0  0  0  0  0  0  0  0  0  0  0  0
    6.4598   -0.9957   -0.9776 H   0  0  0  0  0  0  0  0  0  0  0  0
    7.4820    0.4359   -0.4827 H   0  0  0  0  0  0  0  0  0  0  0  0
    5.6566    0.7074   -4.0643 H   0  0  0  0  0  0  0  0  0  0  0  0
    6.2231   -0.9097   -3.6161 H   0  0  0  0  0  0  0  0  0  0  0  0
    3.6304    0.3030   -3.1662 H   0  0  0  0  0  0  0  0  0  0  0  0
    4.1474   -1.3411   -2.7257 H   0  0  0  0  0  0  0  0  0  0  0  0
  1  2  1  0
  2  3  1  0
  3  4  1  0
  4  5  1  0
  5  6  2  0
  6  7  1  0
  7  8  2  0
  8  9  1  0
  9 10  2  0
  8 11  1  0
  2 12  1  0
 12 13  1  0
 13 14  1  0
 14 15  1  0
 15 16  1  0
 16 17  1  0
 17 18  2  0
 17 19  1  0
 19 20  1  0
 20 21  1  0
 21 22  1  0
 22 23  1  0
 23 24  1  0
 10  5  1  0
 24 19  1  0
  1 25  1  0
  2 26  1  0
  3 27  1  0
  3 28  1  0
  6 29  1  0
  7 30  1  0
  9 31  1  0
 10 32  1  0
 11 33  1  0
 12 34  1  0
 12 35  1  0
 13 36  1  0
 14 37  1  0
 14 38  1  0
 15 39  1  0
 15 40  1  0
 16 41  1  0
 20 42  1  0
 20 43  1  0
 21 44  1  0
 21 45  1  0
 23 46  1  0
 23 47  1  0
 24 48  1  0
 24 49  1  0
M  END
>  <Ligand ID>  (1) 
LIG0003250

>  <Ligand>  (1) 
Xamoterol

>  <SMILES>  (1) 
OC(COc1ccc(cc1)O)CNCCNC(=O)N1CCOCC1

>  <CID>  (1) 
155774.0

>  <ChEMBL ID>  (1) 
nan

>  <InChiKey>  (1) 
DXPOSRCHIDYWHW-UHFFFAOYSA-N

>  <InChi>  (1) 
InChI=1S/C16H25N3O5/c20-13-1-3-15(4-2-13)24-12-14(21)11-17-5-6-18-16(22)19-7-9-23-10-8-19/h1-4,14,17,20-21H,5-12H2,(H,18,22)

>  <IUPAC Name>  (1) 
N-[2-[[2-hydroxy-3-(4-hydroxyphenoxy)propyl]amino]ethyl]morpholine-4-carboxamide

$$$$
