
     RDKit          3D

 44 47  0  0  0  0  0  0  0  0999 V2000
    5.0664    3.3760   -0.4644 C   0  0  0  0  0  0  0  0  0  0  0  0
    3.7436    2.7710   -0.5131 N   0  0  0  0  0  0  0  0  0  0  0  0
    3.3165    1.9714    0.5964 C   0  0  0  0  0  0  0  0  0  0  0  0
    4.0283    1.7738    1.6117 O   0  0  0  0  0  0  0  0  0  0  0  0
    1.9668    1.3875    0.4562 C   0  0  0  0  0  0  0  0  0  0  0  0
    0.8298    2.1597    0.4267 C   0  0  0  0  0  0  0  0  0  0  0  0
   -0.3739    1.5239    0.2728 C   0  0  0  0  0  0  0  0  0  0  0  0
   -0.4071    0.1431    0.1537 C   0  0  0  0  0  0  0  0  0  0  0  0
    0.7058   -0.6183    0.1825 N   0  0  0  0  0  0  0  0  0  0  0  0
    1.9121   -0.0125    0.3339 C   0  0  0  0  0  0  0  0  0  0  0  0
    3.0262   -0.6172    0.3729 N   0  0  0  0  0  0  0  0  0  0  0  0
    0.5972   -2.0182    0.0527 C   0  0  0  0  0  0  0  0  0  0  0  0
    0.0163   -2.5304   -1.2415 C   0  0  0  0  0  0  0  0  0  0  0  0
    0.0271   -4.0334   -0.9596 C   0  0  0  0  0  0  0  0  0  0  0  0
   -0.0991   -4.1617    0.5610 C   0  0  0  0  0  0  0  0  0  0  0  0
   -0.2639   -2.7235    1.0718 C   0  0  0  0  0  0  0  0  0  0  0  0
   -1.6308   -0.4040    0.0012 N   0  0  0  0  0  0  0  0  0  0  0  0
   -2.7431    0.3527   -0.0341 C   0  0  0  0  0  0  0  0  0  0  0  0
   -2.6979    1.6969    0.0816 N   0  0  0  0  0  0  0  0  0  0  0  0
   -1.5042    2.3108    0.2383 C   0  0  0  0  0  0  0  0  0  0  0  0
   -1.4634    3.5768    0.3467 O   0  0  0  0  0  0  0  0  0  0  0  0
   -3.8187    2.4598    0.0435 C   0  0  0  0  0  0  0  0  0  0  0  0
   -5.0680    1.9136   -0.1168 C   0  0  0  0  0  0  0  0  0  0  0  0
   -5.1506    0.5370   -0.2407 C   0  0  0  0  0  0  0  0  0  0  0  0
   -3.9937   -0.2413   -0.1992 C   0  0  0  0  0  0  0  0  0  0  0  0
    5.1657    3.9372    0.4821 H   0  0  0  0  0  0  0  0  0  0  0  0
    5.7826    2.5027   -0.5250 H   0  0  0  0  0  0  0  0  0  0  0  0
    5.1931    4.0498   -1.3436 H   0  0  0  0  0  0  0  0  0  0  0  0
    3.1227    2.9286   -1.3593 H   0  0  0  0  0  0  0  0  0  0  0  0
    0.9214    3.2350    0.5277 H   0  0  0  0  0  0  0  0  0  0  0  0
    3.2981   -1.5862    0.3142 H   0  0  0  0  0  0  0  0  0  0  0  0
    1.5952   -2.5252    0.1330 H   0  0  0  0  0  0  0  0  0  0  0  0
   -1.0124   -2.2521   -1.4418 H   0  0  0  0  0  0  0  0  0  0  0  0
    0.7260   -2.2535   -2.0463 H   0  0  0  0  0  0  0  0  0  0  0  0
    1.0296   -4.4022   -1.2938 H   0  0  0  0  0  0  0  0  0  0  0  0
   -0.7480   -4.5775   -1.5040 H   0  0  0  0  0  0  0  0  0  0  0  0
   -0.9065   -4.8237    0.8647 H   0  0  0  0  0  0  0  0  0  0  0  0
    0.8839   -4.4878    0.9596 H   0  0  0  0  0  0  0  0  0  0  0  0
   -1.3259   -2.5036    1.0185 H   0  0  0  0  0  0  0  0  0  0  0  0
    0.1700   -2.6450    2.1069 H   0  0  0  0  0  0  0  0  0  0  0  0
   -3.7331    3.5476    0.1472 H   0  0  0  0  0  0  0  0  0  0  0  0
   -5.9725    2.5108   -0.1508 H   0  0  0  0  0  0  0  0  0  0  0  0
   -6.1286    0.0740   -0.3740 H   0  0  0  0  0  0  0  0  0  0  0  0
   -4.0829   -1.3222   -0.2984 H   0  0  0  0  0  0  0  0  0  0  0  0
  1  2  1  0
  2  3  1  0
  3  4  2  0
  3  5  1  0
  5  6  2  0
  6  7  1  0
  7  8  2  0
  8  9  1  0
  9 10  1  0
 10 11  2  3
  9 12  1  0
 12 13  1  0
 13 14  1  0
 14 15  1  0
 15 16  1  0
  8 17  1  0
 17 18  2  0
 18 19  1  0
 19 20  1  0
 20 21  2  0
 19 22  1  0
 22 23  2  0
 23 24  1  0
 24 25  2  0
 10  5  1  0
 16 12  1  0
 25 18  1  0
 20  7  1  0
  1 26  1  0
  1 27  1  0
  1 28  1  0
  2 29  1  0
  6 30  1  0
 11 31  1  0
 12 32  1  0
 13 33  1  0
 13 34  1  0
 14 35  1  0
 14 36  1  0
 15 37  1  0
 15 38  1  0
 16 39  1  0
 16 40  1  0
 22 41  1  0
 23 42  1  0
 24 43  1  0
 25 44  1  0
M  END
>  <Ligand ID>  (1) 
LIG0004653

>  <Ligand>  (1) 
MLS-0437141.0001

>  <SMILES>  (1) 
CNC(=O)c1cc2c(n(c1=N)C1CCCC1)nc1n(c2=O)cccc1

>  <CID>  (1) 
706463.0

>  <ChEMBL ID>  (1) 
nan

>  <InChiKey>  (1) 
TZLMVQBDEXRXIT-UHFFFAOYSA-N

>  <InChi>  (1) 
InChI=1S/C18H19N5O2/c1-20-17(24)12-10-13-16(23(15(12)19)11-6-2-3-7-11)21-14-8-4-5-9-22(14)18(13)25/h4-5,8-11,19H,2-3,6-7H2,1H3,(H,20,24)

>  <IUPAC Name>  (1) 
7-cyclopentyl-6-imino-N-methyl-2-oxo-1,7,9-triazatricyclo[8.4.0.03,8]tetradeca-3(8),4,9,11,13-pentaene-5-carboxamide

$$$$
