
     RDKit          3D

 29 31  0  0  0  0  0  0  0  0999 V2000
    0.6142    0.9882   -2.4698 O   0  0  0  0  0  0  0  0  0  0  0  0
    0.2763    0.6333   -1.3124 C   0  0  0  0  0  0  0  0  0  0  0  0
   -1.0462    0.5400   -0.7986 N   0  0  0  0  0  0  0  0  0  0  0  0
   -2.3699    0.7913   -1.3525 C   0  0  0  0  0  0  0  0  0  0  0  0
   -3.3722    0.2829   -0.3324 C   0  0  0  0  0  0  0  0  0  0  0  0
   -3.0600   -1.0675    0.0381 N   0  0  0  0  0  0  0  0  0  0  0  0
   -1.8598   -1.0975    0.8360 C   0  0  0  0  0  0  0  0  0  0  0  0
   -0.9939    0.0913    0.5830 C   0  0  1  0  0  0  0  0  0  0  0  0
    0.4278   -0.0889    0.8995 C   0  0  0  0  0  0  0  0  0  0  0  0
    1.1722    0.2362   -0.2341 C   0  0  0  0  0  0  0  0  0  0  0  0
    2.5627    0.1468   -0.1936 C   0  0  0  0  0  0  0  0  0  0  0  0
    3.1951   -0.2652    0.9758 C   0  0  0  0  0  0  0  0  0  0  0  0
    2.4205   -0.5817    2.0881 C   0  0  0  0  0  0  0  0  0  0  0  0
    1.0464   -0.4928    2.0462 C   0  0  0  0  0  0  0  0  0  0  0  0
    3.3403    0.5006   -1.4220 C   0  0  0  0  0  0  0  0  0  0  0  0
    4.6815    0.3350   -1.1367 F   0  0  0  0  0  0  0  0  0  0  0  0
    2.9408   -0.3123   -2.4440 F   0  0  0  0  0  0  0  0  0  0  0  0
    3.1879    1.8538   -1.7184 F   0  0  0  0  0  0  0  0  0  0  0  0
   -2.5212    0.2259   -2.3006 H   0  0  0  0  0  0  0  0  0  0  0  0
   -2.5726    1.8575   -1.5299 H   0  0  0  0  0  0  0  0  0  0  0  0
   -4.3879    0.3222   -0.8034 H   0  0  0  0  0  0  0  0  0  0  0  0
   -3.4151    0.9120    0.5606 H   0  0  0  0  0  0  0  0  0  0  0  0
   -3.0623   -1.7093   -0.7596 H   0  0  0  0  0  0  0  0  0  0  0  0
   -2.2201   -1.0219    1.9040 H   0  0  0  0  0  0  0  0  0  0  0  0
   -1.3422   -2.0749    0.7979 H   0  0  0  0  0  0  0  0  0  0  0  0
   -1.3748    0.9702    1.1809 H   0  0  0  0  0  0  0  0  0  0  0  0
    4.2752   -0.3259    0.9804 H   0  0  0  0  0  0  0  0  0  0  0  0
    2.9525   -0.9028    2.9931 H   0  0  0  0  0  0  0  0  0  0  0  0
    0.5047   -0.7465    2.9245 H   0  0  0  0  0  0  0  0  0  0  0  0
  1  2  2  0
  2  3  1  0
  3  4  1  0
  4  5  1  0
  5  6  1  0
  6  7  1  0
  7  8  1  0
  8  9  1  0
  9 10  2  0
 10 11  1  0
 11 12  2  0
 12 13  1  0
 13 14  2  0
 11 15  1  0
 15 16  1  0
 15 17  1  0
 15 18  1  0
 10  2  1  0
  8  3  1  0
 14  9  1  0
  4 19  1  0
  4 20  1  0
  5 21  1  0
  5 22  1  0
  6 23  1  0
  7 24  1  0
  7 25  1  0
  8 26  1  1
 12 27  1  0
 13 28  1  0
 14 29  1  0
M  END
>  <Ligand ID>  (1) 
LIG0003209

>  <Ligand>  (1) 
CHEMBL222514

>  <SMILES>  (1) 
O=C1N2CCNC[C@H]2c2c1c(ccc2)C(F)(F)F

>  <CID>  (1) 
11221167.0

>  <ChEMBL ID>  (1) 
nan

>  <InChiKey>  (1) 
MYJCTHLPBPJBRB-VIFPVBQESA-N

>  <InChi>  (1) 
InChI=1S/C12H11F3N2O/c13-12(14,15)8-3-1-2-7-9-6-16-4-5-17(9)11(18)10(7)8/h1-3,9,16H,4-6H2/t9-/m0/s1

>  <IUPAC Name>  (1) 
(10bR)-7-(trifluoromethyl)-2,3,4,10b-tetrahydro-1H-pyrazino[1,2-b]isoindol-6-one

$$$$
