
     RDKit          3D

 29 29  0  0  0  0  0  0  0  0999 V2000
    4.0937   -0.0984   -0.1340 N   0  0  0  0  0  0  0  0  0  0  0  0
    3.0156   -0.2027    0.7857 C   0  0  0  0  0  0  0  0  0  0  0  0
    1.7419    0.5303    0.3399 C   0  0  1  0  0  0  0  0  0  0  0  0
    1.2389   -0.0208   -0.9726 C   0  0  0  0  0  0  0  0  0  0  0  0
    0.5112   -0.2490    0.3783 C   0  0  2  0  0  0  0  0  0  0  0  0
   -0.8577    0.2478    0.3336 C   0  0  0  0  0  0  0  0  0  0  0  0
   -1.8194   -0.5764   -0.2630 C   0  0  0  0  0  0  0  0  0  0  0  0
   -1.3954   -1.9086   -0.8268 C   0  0  0  0  0  0  0  0  0  0  0  0
   -3.1443   -0.2103   -0.3528 C   0  0  0  0  0  0  0  0  0  0  0  0
   -3.5827    0.9974    0.1474 C   0  0  0  0  0  0  0  0  0  0  0  0
   -2.6454    1.8161    0.7367 C   0  0  0  0  0  0  0  0  0  0  0  0
   -1.3143    1.4434    0.8247 C   0  0  0  0  0  0  0  0  0  0  0  0
   -0.2206    2.5445    1.6000 Cl  0  0  0  0  0  0  0  0  0  0  0  0
    0.6895    0.0000    0.0000 Cl  0  0  0  0  0  0  0  0  0  0  0  0
    4.4772    0.8350   -0.2827 H   0  0  0  0  0  0  0  0  0  0  0  0
    4.1239   -0.7642   -0.9046 H   0  0  0  0  0  0  0  0  0  0  0  0
    2.8022   -1.2883    0.9462 H   0  0  0  0  0  0  0  0  0  0  0  0
    3.3699    0.1959    1.7714 H   0  0  0  0  0  0  0  0  0  0  0  0
    1.7803    1.6095    0.4722 H   0  0  0  0  0  0  0  0  0  0  0  0
    0.8386    0.7469   -1.6566 H   0  0  0  0  0  0  0  0  0  0  0  0
    1.6448   -0.9282   -1.4070 H   0  0  0  0  0  0  0  0  0  0  0  0
    0.5833   -1.2832    0.7960 H   0  0  0  0  0  0  0  0  0  0  0  0
   -0.8864   -2.4610    0.0143 H   0  0  0  0  0  0  0  0  0  0  0  0
   -0.6271   -1.7593   -1.6028 H   0  0  0  0  0  0  0  0  0  0  0  0
   -2.2627   -2.4700   -1.1680 H   0  0  0  0  0  0  0  0  0  0  0  0
   -3.8865   -0.8492   -0.8146 H   0  0  0  0  0  0  0  0  0  0  0  0
   -4.6095    1.3330    0.1029 H   0  0  0  0  0  0  0  0  0  0  0  0
   -2.9697    2.7697    1.1360 H   0  0  0  0  0  0  0  0  0  0  0  0
   -0.6895    0.0000    0.0000 H   0  0  0  0  0  0  0  0  0  0  0  0
  1  2  1  0
  2  3  1  0
  3  4  1  0
  4  5  1  0
  5  6  1  0
  6  7  2  0
  7  8  1  0
  7  9  1  0
  9 10  2  0
 10 11  1  0
 11 12  2  0
 12 13  1  0
  5  3  1  0
 12  6  1  0
  1 15  1  0
  1 16  1  0
  2 17  1  0
  2 18  1  0
  3 19  1  6
  4 20  1  0
  4 21  1  0
  5 22  1  1
  8 23  1  0
  8 24  1  0
  8 25  1  0
  9 26  1  0
 10 27  1  0
 11 28  1  0
 14 29  1  0
M  END
>  <Ligand ID>  (1) 
LIG0003587

>  <Ligand>  (1) 
CHEMBL474634

>  <SMILES>  (1) 
NC[C@H]1C[C@@H]1c1c(C)cccc1Cl.Cl

>  <CID>  (1) 
44572173.0

>  <ChEMBL ID>  (1) 
nan

>  <InChiKey>  (1) 
OPJBTTOGYLUOHP-RJUBDTSPSA-N

>  <InChi>  (1) 
InChI=1S/C11H14ClN.ClH/c1-7-3-2-4-10(12)11(7)9-5-8(9)6-13;/h2-4,8-9H,5-6,13H2,1H3;1H/t8-,9+;/m1./s1

>  <IUPAC Name>  (1) 
[(1S,2S)-2-(2-chloro-6-methylphenyl)cyclopropyl]methanamine;hydrochloride

$$$$
