
     RDKit          3D

 44 44  0  0  0  0  0  0  0  0999 V2000
    7.2691    0.2058    0.4326 O   0  0  0  0  0  0  0  0  0  0  0  0
    6.7117   -1.0607    0.3168 C   0  0  0  0  0  0  0  0  0  0  0  0
    7.4509   -2.0917    0.3382 O   0  0  0  0  0  0  0  0  0  0  0  0
    5.2373   -1.2763    0.1635 C   0  0  0  0  0  0  0  0  0  0  0  0
    4.5610   -0.0257    0.1589 O   0  0  0  0  0  0  0  0  0  0  0  0
    3.1794    0.0407    0.0283 C   0  0  0  0  0  0  0  0  0  0  0  0
    2.3807   -1.0745   -0.1035 C   0  0  0  0  0  0  0  0  0  0  0  0
    0.9939   -0.9729   -0.2329 C   0  0  0  0  0  0  0  0  0  0  0  0
    0.4314    0.2815   -0.2263 C   0  0  0  0  0  0  0  0  0  0  0  0
    1.2540    1.4013   -0.0919 C   0  0  0  0  0  0  0  0  0  0  0  0
    2.6114    1.3176    0.0355 C   0  0  0  0  0  0  0  0  0  0  0  0
    3.4725    2.5083    0.1771 C   0  0  0  0  0  0  0  0  0  0  0  0
    2.6504    3.6338    0.1523 F   0  0  0  0  0  0  0  0  0  0  0  0
    4.1252    2.4741    1.3823 F   0  0  0  0  0  0  0  0  0  0  0  0
    4.3498    2.6540   -0.8747 F   0  0  0  0  0  0  0  0  0  0  0  0
   -1.0195    0.5480   -0.3558 C   0  0  0  0  0  0  0  0  0  0  0  0
   -1.8417   -0.9328   -0.9140 P   0  0  0  0  0  0  0  0  0  0  0  0
   -1.8819   -1.9341    0.2173 O   0  0  0  0  0  0  0  0  0  0  0  0
   -3.5388   -0.6365   -1.4601 C   0  0  0  0  0  0  0  0  0  0  0  0
   -4.5415   -0.9537   -0.3726 C   0  0  0  0  0  0  0  0  0  0  0  0
   -4.3305   -0.1236    0.8514 C   0  0  2  0  0  0  0  0  0  0  0  0
   -5.3645   -0.4995    1.8815 C   0  0  0  0  0  0  0  0  0  0  0  0
   -5.4847   -1.6905    2.2698 O   0  0  0  0  0  0  0  0  0  0  0  0
   -6.2082    0.4890    2.4187 O   0  0  0  0  0  0  0  0  0  0  0  0
   -4.4051    1.3008    0.5859 N   0  0  0  0  0  0  0  0  0  0  0  0
   -0.9737   -1.5771   -2.2083 O   0  0  0  0  0  0  0  0  0  0  0  0
   -1.1384    1.6102   -1.2529 O   0  0  0  0  0  0  0  0  0  0  0  0
    8.2736    0.3605    0.4945 H   0  0  0  0  0  0  0  0  0  0  0  0
    5.0015   -1.8918   -0.7310 H   0  0  0  0  0  0  0  0  0  0  0  0
    4.9223   -1.8635    1.0639 H   0  0  0  0  0  0  0  0  0  0  0  0
    2.8608   -2.0331   -0.1037 H   0  0  0  0  0  0  0  0  0  0  0  0
    0.3706   -1.8475   -0.3348 H   0  0  0  0  0  0  0  0  0  0  0  0
    0.8189    2.4067   -0.0851 H   0  0  0  0  0  0  0  0  0  0  0  0
   -1.4108    0.8813    0.6361 H   0  0  0  0  0  0  0  0  0  0  0  0
   -3.6877    0.3633   -1.8897 H   0  0  0  0  0  0  0  0  0  0  0  0
   -3.7501   -1.3579   -2.2759 H   0  0  0  0  0  0  0  0  0  0  0  0
   -5.5757   -0.7770   -0.7287 H   0  0  0  0  0  0  0  0  0  0  0  0
   -4.4012   -2.0200   -0.1088 H   0  0  0  0  0  0  0  0  0  0  0  0
   -3.3670   -0.3215    1.3267 H   0  0  0  0  0  0  0  0  0  0  0  0
   -7.1171    0.2398    2.8152 H   0  0  0  0  0  0  0  0  0  0  0  0
   -3.9974    1.7823    1.4304 H   0  0  0  0  0  0  0  0  0  0  0  0
   -3.7511    1.5049   -0.2021 H   0  0  0  0  0  0  0  0  0  0  0  0
   -0.8146   -0.8600   -2.8747 H   0  0  0  0  0  0  0  0  0  0  0  0
   -0.3251    1.8180   -1.7492 H   0  0  0  0  0  0  0  0  0  0  0  0
  1  2  1  0
  2  3  2  0
  2  4  1  0
  4  5  1  0
  5  6  1  0
  6  7  2  0
  7  8  1  0
  8  9  2  0
  9 10  1  0
 10 11  2  0
 11 12  1  0
 12 13  1  0
 12 14  1  0
 12 15  1  0
  9 16  1  0
 16 17  1  0
 17 18  2  0
 17 19  1  0
 19 20  1  0
 20 21  1  0
 21 22  1  0
 22 23  2  0
 22 24  1  0
 21 25  1  0
 17 26  1  0
 16 27  1  0
 11  6  1  0
  1 28  1  0
  4 29  1  0
  4 30  1  0
  7 31  1  0
  8 32  1  0
 10 33  1  0
 16 34  1  0
 19 35  1  0
 19 36  1  0
 20 37  1  0
 20 38  1  0
 21 39  1  1
 24 40  1  0
 25 41  1  0
 25 42  1  0
 26 43  1  0
 27 44  1  0
M  END
>  <Ligand ID>  (1) 
LIG0002477

>  <Ligand>  (1) 
US9212196, Derivative 21

>  <SMILES>  (1) 
OC(=O)COc1ccc(cc1C(F)(F)F)C(P(=O)(CC[C@H](C(=O)O)N)O)O

>  <CID>  (1) 
122197951.0

>  <ChEMBL ID>  (1) 
nan

>  <InChiKey>  (1) 
UBMMJJHZNWYYJF-CGCSKFHYSA-N

>  <InChi>  (1) 
InChI=1S/C14H17F3NO8P/c15-14(16,17)8-5-7(1-2-10(8)26-6-11(19)20)13(23)27(24,25)4-3-9(18)12(21)22/h1-2,5,9,13,23H,3-4,6,18H2,(H,19,20)(H,21,22)(H,24,25)/t9-,13?/m1/s1

>  <IUPAC Name>  (1) 
(2R)-2-amino-4-[[[4-(carboxymethoxy)-3-(trifluoromethyl)phenyl]-hydroxymethyl]-hydroxyphosphoryl]butanoic acid

$$$$
