
     RDKit          3D

 27 27  0  0  0  0  0  0  0  0999 V2000
   -2.2614    2.2105   -0.0188 C   0  0  0  0  0  0  0  0  0  0  0  0
   -1.6980    0.8360    0.3150 C   0  0  0  0  0  0  0  0  0  0  0  0
   -0.7914    0.3821   -0.7860 C   0  0  0  0  0  0  0  0  0  0  0  0
   -0.1699   -0.9231   -0.6073 C   0  0  0  0  0  0  0  0  0  0  0  0
   -0.7270   -2.0598   -1.1270 N   0  0  0  0  0  0  0  0  0  0  0  0
   -1.8801   -2.1389   -1.8789 O   0  0  0  0  0  0  0  0  0  0  0  0
   -0.0085   -3.1104   -0.8170 N   0  0  0  0  0  0  0  0  0  0  0  0
    1.0351   -2.7100   -0.0913 C   0  0  0  0  0  0  0  0  0  0  0  0
    0.9658   -1.3165    0.0630 C   0  0  0  0  0  0  0  0  0  0  0  0
    1.9827   -0.5318    0.7945 C   0  0  0  0  0  0  0  0  0  0  0  0
    1.4743    0.4504    1.7419 C   0  0  0  0  0  0  0  0  0  0  0  0
    0.8223    0.0351    2.7604 O   0  0  0  0  0  0  0  0  0  0  0  0
    1.6862    1.8289    1.5560 O   0  0  0  0  0  0  0  0  0  0  0  0
    2.8744    0.1249   -0.2067 N   0  0  0  0  0  0  0  0  0  0  0  0
   -3.3482    2.1724    0.1751 H   0  0  0  0  0  0  0  0  0  0  0  0
   -1.8611    3.0086    0.6544 H   0  0  0  0  0  0  0  0  0  0  0  0
   -2.1091    2.4873   -1.0743 H   0  0  0  0  0  0  0  0  0  0  0  0
   -1.2374    0.9462    1.3018 H   0  0  0  0  0  0  0  0  0  0  0  0
   -2.6074    0.1540    0.3833 H   0  0  0  0  0  0  0  0  0  0  0  0
    0.0354    1.1531   -0.8320 H   0  0  0  0  0  0  0  0  0  0  0  0
   -1.3298    0.4855   -1.7555 H   0  0  0  0  0  0  0  0  0  0  0  0
   -1.9439   -1.8811   -2.8389 H   0  0  0  0  0  0  0  0  0  0  0  0
    1.7889   -3.3829    0.2956 H   0  0  0  0  0  0  0  0  0  0  0  0
    2.6781   -1.2581    1.2857 H   0  0  0  0  0  0  0  0  0  0  0  0
    1.3942    2.5078    2.2179 H   0  0  0  0  0  0  0  0  0  0  0  0
    2.3838    1.0109   -0.4554 H   0  0  0  0  0  0  0  0  0  0  0  0
    2.8519   -0.4812   -1.0555 H   0  0  0  0  0  0  0  0  0  0  0  0
  1  2  1  0
  2  3  1  0
  3  4  1  0
  4  5  1  0
  5  6  1  0
  5  7  1  0
  7  8  2  0
  8  9  1  0
  9 10  1  0
 10 11  1  0
 11 12  2  0
 11 13  1  0
 10 14  1  0
  9  4  2  0
  1 15  1  0
  1 16  1  0
  1 17  1  0
  2 18  1  0
  2 19  1  0
  3 20  1  0
  3 21  1  0
  6 22  1  0
  8 23  1  0
 10 24  1  0
 13 25  1  0
 14 26  1  0
 14 27  1  0
M  END
>  <Ligand ID>  (1) 
LIG0001851

>  <Ligand>  (1) 
CHEMBL389585

>  <SMILES>  (1) 
CCCc1n(O)ncc1C(C(=O)O)N

>  <CID>  (1) 
44428731.0

>  <ChEMBL ID>  (1) 
nan

>  <InChiKey>  (1) 
DFMICROCHBNKJA-UHFFFAOYSA-N

>  <InChi>  (1) 
InChI=1S/C8H13N3O3/c1-2-3-6-5(4-10-11(6)14)7(9)8(12)13/h4,7,14H,2-3,9H2,1H3,(H,12,13)

>  <IUPAC Name>  (1) 
2-amino-2-(1-hydroxy-5-propylpyrazol-4-yl)acetic acid

$$$$
