
     RDKit          3D

 77 81  0  0  0  0  0  0  0  0999 V2000
   -6.3098   -2.7146   -0.2706 O   0  0  0  0  0  0  0  0  0  0  0  0
   -6.7644   -1.5853    0.4045 C   0  0  2  0  0  0  0  0  0  0  0  0
   -7.8449   -1.0167   -0.4552 C   0  0  0  0  0  0  0  0  0  0  0  0
   -7.8701   -1.2711   -1.8174 C   0  0  0  0  0  0  0  0  0  0  0  0
   -8.8551   -0.7607   -2.6505 C   0  0  0  0  0  0  0  0  0  0  0  0
   -9.8447    0.0311   -2.0869 C   0  0  0  0  0  0  0  0  0  0  0  0
   -9.8233    0.2867   -0.7319 C   0  0  0  0  0  0  0  0  0  0  0  0
   -8.8311   -0.2331    0.0783 C   0  0  0  0  0  0  0  0  0  0  0  0
   -8.8845    0.0741    1.4203 C   0  0  0  0  0  0  0  0  0  0  0  0
   -9.8703    0.8658    1.9813 C   0  0  0  0  0  0  0  0  0  0  0  0
  -10.8383    1.3587    1.1187 C   0  0  0  0  0  0  0  0  0  0  0  0
  -11.7827    2.0974    1.5570 O   0  0  0  0  0  0  0  0  0  0  0  0
  -10.7732    1.0508   -0.1857 N   0  0  0  0  0  0  0  0  0  0  0  0
  -10.8602    0.5739   -2.8617 O   0  0  0  0  0  0  0  0  0  0  0  0
   -5.6225   -0.6132    0.5116 C   0  0  0  0  0  0  0  0  0  0  0  0
   -4.4758   -1.0577    1.2092 N   0  0  0  0  0  0  0  0  0  0  0  0
   -3.6933   -2.0867    0.6195 C   0  0  0  0  0  0  0  0  0  0  0  0
   -2.9867   -1.6593   -0.6431 C   0  0  0  0  0  0  0  0  0  0  0  0
   -2.0522   -0.5437   -0.4703 C   0  0  0  0  0  0  0  0  0  0  0  0
   -0.7415   -0.8389   -0.1526 C   0  0  0  0  0  0  0  0  0  0  0  0
    0.2046    0.1772    0.0218 C   0  0  0  0  0  0  0  0  0  0  0  0
   -0.1561    1.5011   -0.1211 C   0  0  0  0  0  0  0  0  0  0  0  0
   -1.4579    1.8147   -0.4377 C   0  0  0  0  0  0  0  0  0  0  0  0
   -2.3878    0.7869   -0.6074 C   0  0  0  0  0  0  0  0  0  0  0  0
    0.8539    2.5171    0.0639 N   0  0  0  0  0  0  0  0  0  0  0  0
    2.1327    1.9992    0.4814 C   0  0  0  0  0  0  0  0  0  0  0  0
    2.3239    1.7484    1.8195 C   0  0  0  0  0  0  0  0  0  0  0  0
    3.5152    1.2334    2.2648 C   0  0  0  0  0  0  0  0  0  0  0  0
    4.5814    0.9403    1.3941 C   0  0  0  0  0  0  0  0  0  0  0  0
    4.3525    1.2025    0.0726 C   0  0  0  0  0  0  0  0  0  0  0  0
    3.1470    1.7291   -0.4068 C   0  0  0  0  0  0  0  0  0  0  0  0
    5.6989    0.4306    1.9661 O   0  0  0  0  0  0  0  0  0  0  0  0
    6.8667    0.1012    1.3024 C   0  0  0  0  0  0  0  0  0  0  0  0
    7.5315    1.3067    0.7239 C   0  0  0  0  0  0  0  0  0  0  0  0
    8.7399    0.8347    0.0389 N   0  0  0  0  0  0  0  0  0  0  0  0
    9.7955    0.1716    0.7101 C   0  0  0  0  0  0  0  0  0  0  0  0
    9.7974   -0.0663    1.9441 O   0  0  0  0  0  0  0  0  0  0  0  0
   10.9867   -0.2902   -0.0381 C   0  0  0  0  0  0  0  0  0  0  0  0
   11.1320   -0.0928   -1.3860 C   0  0  0  0  0  0  0  0  0  0  0  0
   12.2546   -0.5301   -2.0951 C   0  0  0  0  0  0  0  0  0  0  0  0
   13.2337   -1.1771   -1.3994 C   0  0  0  0  0  0  0  0  0  0  0  0
   13.1457   -1.4014   -0.0631 C   0  0  0  0  0  0  0  0  0  0  0  0
   12.0193   -0.9550    0.6099 C   0  0  0  0  0  0  0  0  0  0  0  0
   -6.5956   -3.5347    0.1655 H   0  0  0  0  0  0  0  0  0  0  0  0
   -7.1276   -1.9305    1.3927 H   0  0  0  0  0  0  0  0  0  0  0  0
   -7.0731   -1.9033   -2.2393 H   0  0  0  0  0  0  0  0  0  0  0  0
   -8.8747   -0.9589   -3.7137 H   0  0  0  0  0  0  0  0  0  0  0  0
   -8.1270   -0.3111    2.0893 H   0  0  0  0  0  0  0  0  0  0  0  0
   -9.9219    1.1129    3.0266 H   0  0  0  0  0  0  0  0  0  0  0  0
  -11.5406    1.4593   -0.7903 H   0  0  0  0  0  0  0  0  0  0  0  0
  -10.9842    0.2053   -3.8165 H   0  0  0  0  0  0  0  0  0  0  0  0
   -6.0282    0.2724    1.0853 H   0  0  0  0  0  0  0  0  0  0  0  0
   -5.4199   -0.2333   -0.5139 H   0  0  0  0  0  0  0  0  0  0  0  0
   -4.8097   -1.4319    2.1456 H   0  0  0  0  0  0  0  0  0  0  0  0
   -2.8498   -2.3149    1.3495 H   0  0  0  0  0  0  0  0  0  0  0  0
   -4.1659   -3.0522    0.4481 H   0  0  0  0  0  0  0  0  0  0  0  0
   -3.7274   -1.4198   -1.4499 H   0  0  0  0  0  0  0  0  0  0  0  0
   -2.4284   -2.5341   -1.0274 H   0  0  0  0  0  0  0  0  0  0  0  0
   -0.4261   -1.8885   -0.0317 H   0  0  0  0  0  0  0  0  0  0  0  0
    1.2025   -0.1557    0.2682 H   0  0  0  0  0  0  0  0  0  0  0  0
   -1.7722    2.8408   -0.5560 H   0  0  0  0  0  0  0  0  0  0  0  0
   -3.4064    1.0456   -0.8569 H   0  0  0  0  0  0  0  0  0  0  0  0
    0.6731    3.5231   -0.0872 H   0  0  0  0  0  0  0  0  0  0  0  0
    1.5207    1.9622    2.5241 H   0  0  0  0  0  0  0  0  0  0  0  0
    3.6151    1.0525    3.3425 H   0  0  0  0  0  0  0  0  0  0  0  0
    5.0868    0.9945   -0.6826 H   0  0  0  0  0  0  0  0  0  0  0  0
    2.9877    1.9298   -1.4580 H   0  0  0  0  0  0  0  0  0  0  0  0
    7.5403   -0.4567    1.9971 H   0  0  0  0  0  0  0  0  0  0  0  0
    6.6207   -0.5973    0.4419 H   0  0  0  0  0  0  0  0  0  0  0  0
    6.9322    1.9650    0.1111 H   0  0  0  0  0  0  0  0  0  0  0  0
    7.9701    1.9472    1.5671 H   0  0  0  0  0  0  0  0  0  0  0  0
    8.7633    1.0238   -0.9836 H   0  0  0  0  0  0  0  0  0  0  0  0
   10.3882    0.4088   -1.9645 H   0  0  0  0  0  0  0  0  0  0  0  0
   12.3683   -0.3719   -3.1542 H   0  0  0  0  0  0  0  0  0  0  0  0
   14.1077   -1.5155   -1.9611 H   0  0  0  0  0  0  0  0  0  0  0  0
   13.9323   -1.9209    0.5007 H   0  0  0  0  0  0  0  0  0  0  0  0
   11.9831   -1.1513    1.6774 H   0  0  0  0  0  0  0  0  0  0  0  0
  1  2  1  0
  2  3  1  0
  3  4  2  0
  4  5  1  0
  5  6  2  0
  6  7  1  0
  7  8  2  0
  8  9  1  0
  9 10  2  0
 10 11  1  0
 11 12  2  0
 11 13  1  0
  6 14  1  0
  2 15  1  0
 15 16  1  0
 16 17  1  0
 17 18  1  0
 18 19  1  0
 19 20  2  0
 20 21  1  0
 21 22  2  0
 22 23  1  0
 23 24  2  0
 22 25  1  0
 25 26  1  0
 26 27  2  0
 27 28  1  0
 28 29  2  0
 29 30  1  0
 30 31  2  0
 29 32  1  0
 32 33  1  0
 33 34  1  0
 34 35  1  0
 35 36  1  0
 36 37  2  0
 36 38  1  0
 38 39  2  0
 39 40  1  0
 40 41  2  0
 41 42  1  0
 42 43  2  0
  8  3  1  0
 24 19  1  0
 31 26  1  0
 43 38  1  0
 13  7  1  0
  1 44  1  0
  2 45  1  1
  4 46  1  0
  5 47  1  0
  9 48  1  0
 10 49  1  0
 13 50  1  0
 14 51  1  0
 15 52  1  0
 15 53  1  0
 16 54  1  0
 17 55  1  0
 17 56  1  0
 18 57  1  0
 18 58  1  0
 20 59  1  0
 21 60  1  0
 23 61  1  0
 24 62  1  0
 25 63  1  0
 27 64  1  0
 28 65  1  0
 30 66  1  0
 31 67  1  0
 33 68  1  0
 33 69  1  0
 34 70  1  0
 34 71  1  0
 35 72  1  0
 39 73  1  0
 40 74  1  0
 41 75  1  0
 42 76  1  0
 43 77  1  0
M  END
>  <Ligand ID>  (1) 
LIG0002604

>  <Ligand>  (1) 
CHEMBL3298762

>  <SMILES>  (1) 
O[C@H](c1ccc(c2c1ccc(=O)[nH]2)O)CNCCc1ccc(cc1)Nc1ccc(cc1)OCCNC(=O)c1ccccc1

>  <CID>  (1) 
90645346.0

>  <ChEMBL ID>  (1) 
nan

>  <InChiKey>  (1) 
MAGFMLFJHURCEK-HKBQPEDESA-N

>  <InChi>  (1) 
InChI=1S/C34H34N4O5/c39-30-16-14-28(29-15-17-32(41)38-33(29)30)31(40)22-35-19-18-23-6-8-25(9-7-23)37-26-10-12-27(13-11-26)43-21-20-36-34(42)24-4-2-1-3-5-24/h1-17,31,35,37,39-40H,18-22H2,(H,36,42)(H,38,41)/t31-/m0/s1

>  <IUPAC Name>  (1) 
N-[2-[4-[4-[2-[[(2R)-2-hydroxy-2-(8-hydroxy-2-oxo-1H-quinolin-5-yl)ethyl]amino]ethyl]anilino]phenoxy]ethyl]benzamide

$$$$
