
     RDKit          3D

 30 29  0  0  0  0  0  0  0  0999 V2000
    3.4428    1.7999    0.1031 N   0  0  0  0  0  0  0  0  0  0  0  0
    2.5128    0.8091   -0.3224 C   0  0  0  0  0  0  0  0  0  0  0  0
    2.2273   -0.2508    0.6869 C   0  0  0  0  0  0  0  0  0  0  0  0
    1.2451   -1.2256    0.1169 C   0  0  0  0  0  0  0  0  0  0  0  0
   -0.0808   -0.6186   -0.2731 C   0  0  1  0  0  0  0  0  0  0  0  0
   -0.8826   -1.7802   -0.8077 C   0  0  0  0  0  0  0  0  0  0  0  0
   -1.3210   -1.7909   -1.9879 O   0  0  0  0  0  0  0  0  0  0  0  0
   -1.1709   -2.8874   -0.0207 O   0  0  0  0  0  0  0  0  0  0  0  0
   -0.7385   -0.0121    0.9208 C   0  0  0  0  0  0  0  0  0  0  0  0
   -2.0683    0.6289    0.6554 C   0  0  1  0  0  0  0  0  0  0  0  0
   -1.9682    1.7333   -0.3406 C   0  0  0  0  0  0  0  0  0  0  0  0
   -1.0852    2.6177   -0.1667 O   0  0  0  0  0  0  0  0  0  0  0  0
   -2.8367    1.7631   -1.4219 O   0  0  0  0  0  0  0  0  0  0  0  0
   -3.1167   -0.2717    0.2977 N   0  0  0  0  0  0  0  0  0  0  0  0
    3.1380    2.4399    0.8249 H   0  0  0  0  0  0  0  0  0  0  0  0
    4.4266    1.6632   -0.0901 H   0  0  0  0  0  0  0  0  0  0  0  0
    2.8823    0.3292   -1.2513 H   0  0  0  0  0  0  0  0  0  0  0  0
    1.5485    1.3242   -0.5767 H   0  0  0  0  0  0  0  0  0  0  0  0
    3.1901   -0.8219    0.8359 H   0  0  0  0  0  0  0  0  0  0  0  0
    1.9367    0.1436    1.6643 H   0  0  0  0  0  0  0  0  0  0  0  0
    1.6202   -1.7289   -0.7979 H   0  0  0  0  0  0  0  0  0  0  0  0
    1.0234   -2.0659    0.8247 H   0  0  0  0  0  0  0  0  0  0  0  0
    0.0205    0.1057   -1.1042 H   0  0  0  0  0  0  0  0  0  0  0  0
   -1.5220   -3.7640   -0.3881 H   0  0  0  0  0  0  0  0  0  0  0  0
   -0.0285    0.6823    1.3868 H   0  0  0  0  0  0  0  0  0  0  0  0
   -0.9365   -0.8355    1.6644 H   0  0  0  0  0  0  0  0  0  0  0  0
   -2.3795    1.0889    1.6401 H   0  0  0  0  0  0  0  0  0  0  0  0
   -2.6883    2.4143   -2.1681 H   0  0  0  0  0  0  0  0  0  0  0  0
   -3.2657   -0.3322   -0.7199 H   0  0  0  0  0  0  0  0  0  0  0  0
   -3.1248   -1.1572    0.8153 H   0  0  0  0  0  0  0  0  0  0  0  0
  1  2  1  0
  2  3  1  0
  3  4  1  0
  4  5  1  0
  5  6  1  0
  6  7  2  0
  6  8  1  0
  5  9  1  0
  9 10  1  0
 10 11  1  0
 11 12  2  0
 11 13  1  0
 10 14  1  0
  1 15  1  0
  1 16  1  0
  2 17  1  0
  2 18  1  0
  3 19  1  0
  3 20  1  0
  4 21  1  0
  4 22  1  0
  5 23  1  6
  8 24  1  0
  9 25  1  0
  9 26  1  0
 10 27  1  1
 13 28  1  0
 14 29  1  0
 14 30  1  0
M  END
>  <Ligand ID>  (1) 
LIG0000787

>  <Ligand>  (1) 
CHEMBL2312685

>  <SMILES>  (1) 
NCCC[C@@H](C(=O)O)C[C@@H](C(=O)O)N

>  <CID>  (1) 
71574840.0

>  <ChEMBL ID>  (1) 
nan

>  <InChiKey>  (1) 
APZMCUMLPRUVCO-RITPCOANSA-N

>  <InChi>  (1) 
InChI=1S/C8H16N2O4/c9-3-1-2-5(7(11)12)4-6(10)8(13)14/h5-6H,1-4,9-10H2,(H,11,12)(H,13,14)/t5-,6+/m1/s1

>  <IUPAC Name>  (1) 
(2S,4R)-2-amino-4-(3-aminopropyl)pentanedioic acid

$$$$
