
     RDKit          3D

 32 33  0  0  0  0  0  0  0  0999 V2000
   -0.3919    1.9064    1.5716 O   0  0  0  0  0  0  0  0  0  0  0  0
   -0.1208    1.0042    0.7370 C   0  0  0  0  0  0  0  0  0  0  0  0
   -1.2477    0.2934    0.1209 C   0  0  0  0  0  0  0  0  0  0  0  0
   -2.4878    0.5944    0.4349 C   0  0  0  0  0  0  0  0  0  0  0  0
   -3.6629   -0.0551   -0.1234 C   0  0  0  0  0  0  0  0  0  0  0  0
   -4.9513    0.3291    0.2684 C   0  0  0  0  0  0  0  0  0  0  0  0
   -6.0799   -0.2643   -0.2401 C   0  0  0  0  0  0  0  0  0  0  0  0
   -5.9759   -1.2722   -1.1664 C   0  0  0  0  0  0  0  0  0  0  0  0
   -4.7280   -1.6812   -1.5798 C   0  0  0  0  0  0  0  0  0  0  0  0
   -3.6073   -1.0699   -1.0546 C   0  0  0  0  0  0  0  0  0  0  0  0
    1.1742    0.6768    0.3969 O   0  0  0  0  0  0  0  0  0  0  0  0
    2.2388    1.3815    1.0094 C   0  0  0  0  0  0  0  0  0  0  0  0
    3.5758    0.9274    0.5520 C   0  0  0  0  0  0  0  0  0  0  0  0
    4.1813    1.5139   -0.5393 C   0  0  0  0  0  0  0  0  0  0  0  0
    5.4201    1.1303   -1.0045 C   0  0  0  0  0  0  0  0  0  0  0  0
    6.1153    0.1074   -0.3641 C   0  0  0  0  0  0  0  0  0  0  0  0
    5.5091   -0.4843    0.7335 C   0  0  0  0  0  0  0  0  0  0  0  0
    4.2682   -0.0996    1.1990 C   0  0  0  0  0  0  0  0  0  0  0  0
   -1.0590   -0.4874   -0.6001 H   0  0  0  0  0  0  0  0  0  0  0  0
   -2.6359    1.3812    1.1601 H   0  0  0  0  0  0  0  0  0  0  0  0
   -5.0126    1.1359    1.0093 H   0  0  0  0  0  0  0  0  0  0  0  0
   -7.0588    0.0524    0.0804 H   0  0  0  0  0  0  0  0  0  0  0  0
   -6.8783   -1.7393   -1.5663 H   0  0  0  0  0  0  0  0  0  0  0  0
   -4.6424   -2.4731   -2.3077 H   0  0  0  0  0  0  0  0  0  0  0  0
   -2.6536   -1.4295   -1.4136 H   0  0  0  0  0  0  0  0  0  0  0  0
    2.1923    1.1606    2.0938 H   0  0  0  0  0  0  0  0  0  0  0  0
    2.1151    2.4953    0.9423 H   0  0  0  0  0  0  0  0  0  0  0  0
    3.6176    2.3156   -1.0276 H   0  0  0  0  0  0  0  0  0  0  0  0
    5.8121    1.6507   -1.8680 H   0  0  0  0  0  0  0  0  0  0  0  0
    7.0889   -0.1973   -0.7261 H   0  0  0  0  0  0  0  0  0  0  0  0
    6.0666   -1.2816    1.2214 H   0  0  0  0  0  0  0  0  0  0  0  0
    3.8185   -0.5724    2.0509 H   0  0  0  0  0  0  0  0  0  0  0  0
  1  2  2  0
  2  3  1  0
  3  4  2  0
  4  5  1  0
  5  6  2  0
  6  7  1  0
  7  8  2  0
  8  9  1  0
  9 10  2  0
  2 11  1  0
 11 12  1  0
 12 13  1  0
 13 14  2  0
 14 15  1  0
 15 16  2  0
 16 17  1  0
 17 18  2  0
 10  5  1  0
 18 13  1  0
  3 19  1  0
  4 20  1  0
  6 21  1  0
  7 22  1  0
  8 23  1  0
  9 24  1  0
 10 25  1  0
 12 26  1  0
 12 27  1  0
 14 28  1  0
 15 29  1  0
 16 30  1  0
 17 31  1  0
 18 32  1  0
M  END
>  <Ligand ID>  (1) 
LIG0000336

>  <Ligand>  (1) 
Benzyl Cinnamate

>  <SMILES>  (1) 
O=C(/C=C/c1ccccc1)OCc1ccccc1

>  <CID>  (1) 
5273469.0

>  <ChEMBL ID>  (1) 
nan

>  <InChiKey>  (1) 
NGHOLYJTSCBCGC-VAWYXSNFSA-N

>  <InChi>  (1) 
InChI=1S/C16H14O2/c17-16(12-11-14-7-3-1-4-8-14)18-13-15-9-5-2-6-10-15/h1-12H,13H2/b12-11+

>  <IUPAC Name>  (1) 
benzyl (E)-3-phenylprop-2-enoate

$$$$
