
     RDKit          3D

 45 47  0  0  0  0  0  0  0  0999 V2000
    7.0135    0.9650   -2.3271 C   0  0  0  0  0  0  0  0  0  0  0  0
    6.8156   -0.0914   -1.4239 O   0  0  0  0  0  0  0  0  0  0  0  0
    5.6392   -0.2010   -0.7109 C   0  0  0  0  0  0  0  0  0  0  0  0
    5.5631   -1.2983    0.1587 C   0  0  0  0  0  0  0  0  0  0  0  0
    4.4444   -1.5300    0.9365 C   0  0  0  0  0  0  0  0  0  0  0  0
    3.3696   -0.6488    0.8496 C   0  0  0  0  0  0  0  0  0  0  0  0
    3.4550    0.4296   -0.0124 C   0  0  0  0  0  0  0  0  0  0  0  0
    4.5809    0.6661   -0.7982 C   0  0  0  0  0  0  0  0  0  0  0  0
    2.2735    1.3475   -0.0288 C   0  0  0  0  0  0  0  0  0  0  0  0
    1.1687    0.7318    0.7106 C   0  0  0  0  0  0  0  0  0  0  0  0
    0.9503    1.1838    2.0103 C   0  0  0  0  0  0  0  0  0  0  0  0
   -0.0650    0.6319    2.7567 C   0  0  0  0  0  0  0  0  0  0  0  0
   -0.8297   -0.3345    2.2200 N   0  0  0  0  0  0  0  0  0  0  0  0
   -0.6556   -0.7861    1.0013 N   0  0  0  0  0  0  0  0  0  0  0  0
    0.3384   -0.2526    0.2575 C   0  0  0  0  0  0  0  0  0  0  0  0
    0.5196   -0.6803   -0.9251 O   0  0  0  0  0  0  0  0  0  0  0  0
   -1.5476   -1.8136    0.5269 C   0  0  0  0  0  0  0  0  0  0  0  0
   -2.7412   -1.1577   -0.0823 C   0  0  0  0  0  0  0  0  0  0  0  0
   -2.7535   -0.7668   -1.2903 O   0  0  0  0  0  0  0  0  0  0  0  0
   -3.8827   -0.9871    0.7582 N   0  0  0  0  0  0  0  0  0  0  0  0
   -5.0892   -0.3772    0.3169 C   0  0  0  0  0  0  0  0  0  0  0  0
   -6.1099   -1.0934   -0.2601 C   0  0  0  0  0  0  0  0  0  0  0  0
   -7.2912   -0.5194   -0.6931 C   0  0  0  0  0  0  0  0  0  0  0  0
   -7.4783    0.8426   -0.5493 C   0  0  0  0  0  0  0  0  0  0  0  0
   -6.4659    1.5801    0.0272 C   0  0  0  0  0  0  0  0  0  0  0  0
   -5.2748    0.9948    0.4634 C   0  0  0  0  0  0  0  0  0  0  0  0
   -9.0821    1.6874   -1.1259 Br  0  0  0  0  0  0  0  0  0  0  0  0
    6.4842    1.8940   -2.1061 H   0  0  0  0  0  0  0  0  0  0  0  0
    8.0902    1.2451   -2.4130 H   0  0  0  0  0  0  0  0  0  0  0  0
    6.6602    0.6244   -3.3465 H   0  0  0  0  0  0  0  0  0  0  0  0
    6.3979   -1.9957    0.2356 H   0  0  0  0  0  0  0  0  0  0  0  0
    4.3924   -2.3931    1.6167 H   0  0  0  0  0  0  0  0  0  0  0  0
    2.5130   -0.8585    1.4708 H   0  0  0  0  0  0  0  0  0  0  0  0
    4.6222    1.4982   -1.4547 H   0  0  0  0  0  0  0  0  0  0  0  0
    2.6044    2.2939    0.4194 H   0  0  0  0  0  0  0  0  0  0  0  0
    1.9910    1.4196   -1.1037 H   0  0  0  0  0  0  0  0  0  0  0  0
    1.5870    1.9742    2.4346 H   0  0  0  0  0  0  0  0  0  0  0  0
   -0.2408    0.9711    3.7535 H   0  0  0  0  0  0  0  0  0  0  0  0
   -1.8104   -2.4383    1.3806 H   0  0  0  0  0  0  0  0  0  0  0  0
   -1.0541   -2.4204   -0.2577 H   0  0  0  0  0  0  0  0  0  0  0  0
   -3.8879   -1.3115    1.7692 H   0  0  0  0  0  0  0  0  0  0  0  0
   -5.9511   -2.1728   -0.3681 H   0  0  0  0  0  0  0  0  0  0  0  0
   -8.0837   -1.1166   -1.1495 H   0  0  0  0  0  0  0  0  0  0  0  0
   -6.6460    2.6446    0.1230 H   0  0  0  0  0  0  0  0  0  0  0  0
   -4.5332    1.6192    0.9025 H   0  0  0  0  0  0  0  0  0  0  0  0
  1  2  1  0
  2  3  1  0
  3  4  2  0
  4  5  1  0
  5  6  2  0
  6  7  1  0
  7  8  2  0
  7  9  1  0
  9 10  1  0
 10 11  2  0
 11 12  1  0
 12 13  2  0
 13 14  1  0
 14 15  1  0
 15 16  2  0
 14 17  1  0
 17 18  1  0
 18 19  2  0
 18 20  1  0
 20 21  1  0
 21 22  2  0
 22 23  1  0
 23 24  2  0
 24 25  1  0
 25 26  2  0
 24 27  1  0
  8  3  1  0
 15 10  1  0
 26 21  1  0
  1 28  1  0
  1 29  1  0
  1 30  1  0
  4 31  1  0
  5 32  1  0
  6 33  1  0
  8 34  1  0
  9 35  1  0
  9 36  1  0
 11 37  1  0
 12 38  1  0
 17 39  1  0
 17 40  1  0
 20 41  1  0
 22 42  1  0
 23 43  1  0
 25 44  1  0
 26 45  1  0
M  END
>  <Ligand ID>  (1) 
LIG0004850

>  <Ligand>  (1) 
CHEMBL2391254

>  <SMILES>  (1) 
COc1cccc(c1)Cc1ccnn(c1=O)CC(=O)Nc1ccc(cc1)Br

>  <CID>  (1) 
71698527.0

>  <ChEMBL ID>  (1) 
nan

>  <InChiKey>  (1) 
KQXIVNGFJGYBKE-UHFFFAOYSA-N

>  <InChi>  (1) 
InChI=1S/C20H18BrN3O3/c1-27-18-4-2-3-14(12-18)11-15-9-10-22-24(20(15)26)13-19(25)23-17-7-5-16(21)6-8-17/h2-10,12H,11,13H2,1H3,(H,23,25)

>  <IUPAC Name>  (1) 
N-(4-bromophenyl)-2-[5-[(3-methoxyphenyl)methyl]-6-oxopyridazin-1-yl]acetamide

$$$$
