
     RDKit          3D

 71 78  0  0  0  0  0  0  0  0999 V2000
   -4.4003   -3.5724   -0.4205 C   0  0  0  0  0  0  0  0  0  0  0  0
   -4.2339   -2.9144    0.9098 C   0  0  0  0  0  0  0  0  0  0  0  0
   -3.9721   -1.4367    0.8843 C   0  0  0  0  0  0  0  0  0  0  0  0
   -2.8111   -0.9920    0.2155 N   0  0  0  0  0  0  0  0  0  0  0  0
   -2.7183   -1.0593   -1.1762 C   0  0  0  0  0  0  0  0  0  0  0  0
   -1.7908   -0.0866   -1.8327 C   0  0  0  0  0  0  0  0  0  0  0  0
   -0.6611    0.4346   -1.0414 C   0  0  2  0  0  0  0  0  0  0  0  0
   -0.6779   -0.0462    0.3952 C   0  0  1  0  0  0  0  0  0  0  0  0
   -2.0976    0.1034    0.8357 C   0  0  1  0  0  0  0  0  0  0  0  0
   -2.7907    1.3504    0.3720 C   0  0  0  0  0  0  0  0  0  0  0  0
   -1.8886    2.3527   -0.2160 C   0  0  0  0  0  0  0  0  0  0  0  0
   -0.7313    1.9310   -0.9226 C   0  0  0  0  0  0  0  0  0  0  0  0
    0.0940    2.9616   -1.3985 C   0  0  0  0  0  0  0  0  0  0  0  0
    1.3053    2.9826   -2.1180 O   0  0  0  0  0  0  0  0  0  0  0  0
    2.5562    2.3522   -2.0342 C   0  0  0  0  0  0  0  0  0  0  0  0
    2.4924    1.0813   -1.7800 O   0  0  0  0  0  0  0  0  0  0  0  0
    1.8414    0.3918   -0.8535 C   0  0  1  0  0  0  0  0  0  0  0  0
    0.6051   -0.1600   -1.4787 C   0  0  1  0  0  0  0  0  0  0  0  0
    0.4758   -1.5197   -0.8200 C   0  0  2  0  0  0  0  0  0  0  0  0
   -0.2893   -1.3727    0.3069 O   0  0  0  0  0  0  0  0  0  0  0  0
    1.8485   -1.9515   -0.5185 C   0  0  0  0  0  0  0  0  0  0  0  0
    2.2076   -3.0902   -0.1417 O   0  0  0  0  0  0  0  0  0  0  0  0
    2.6730   -0.8357   -0.7371 N   0  0  0  0  0  0  0  0  0  0  0  0
    4.1270   -0.8982   -0.8260 C   0  0  0  0  0  0  0  0  0  0  0  0
    4.8213   -0.7170    0.4512 C   0  0  0  0  0  0  0  0  0  0  0  0
    5.0780   -1.8557    1.2230 C   0  0  0  0  0  0  0  0  0  0  0  0
    5.7262   -1.7808    2.4328 C   0  0  0  0  0  0  0  0  0  0  0  0
    6.1355   -0.5322    2.8954 C   0  0  0  0  0  0  0  0  0  0  0  0
    5.8815    0.5891    2.1332 C   0  0  0  0  0  0  0  0  0  0  0  0
    5.2309    0.5294    0.9150 C   0  0  0  0  0  0  0  0  0  0  0  0
    1.6548    0.9047    0.5259 C   0  0  0  0  0  0  0  0  0  0  0  0
    0.3041    0.7778    1.1414 C   0  0  0  0  0  0  0  0  0  0  0  0
   -0.2430    4.3019   -1.1732 C   0  0  0  0  0  0  0  0  0  0  0  0
   -1.3755    4.6574   -0.4863 C   0  0  0  0  0  0  0  0  0  0  0  0
   -2.1792    3.6763   -0.0186 C   0  0  0  0  0  0  0  0  0  0  0  0
    0.5593    5.3439   -1.6387 O   0  0  0  0  0  0  0  0  0  0  0  0
   -5.4791   -3.2255    1.7508 C   0  0  0  0  0  0  0  0  0  0  0  0
   -4.7552   -2.9021   -1.2065 H   0  0  0  0  0  0  0  0  0  0  0  0
   -5.1545   -4.4064   -0.2954 H   0  0  0  0  0  0  0  0  0  0  0  0
   -3.4633   -4.1033   -0.7045 H   0  0  0  0  0  0  0  0  0  0  0  0
   -3.3825   -3.3964    1.4607 H   0  0  0  0  0  0  0  0  0  0  0  0
   -3.9847   -1.1254    1.9769 H   0  0  0  0  0  0  0  0  0  0  0  0
   -4.8757   -0.9114    0.4217 H   0  0  0  0  0  0  0  0  0  0  0  0
   -2.5199   -2.1106   -1.5002 H   0  0  0  0  0  0  0  0  0  0  0  0
   -3.7446   -0.8245   -1.5950 H   0  0  0  0  0  0  0  0  0  0  0  0
   -1.3786   -0.6321   -2.7379 H   0  0  0  0  0  0  0  0  0  0  0  0
   -2.3667    0.7469   -2.2761 H   0  0  0  0  0  0  0  0  0  0  0  0
   -2.1524   -0.0243    1.9264 H   0  0  0  0  0  0  0  0  0  0  0  0
   -3.6256    1.1845   -0.3269 H   0  0  0  0  0  0  0  0  0  0  0  0
   -3.2838    1.8118    1.2802 H   0  0  0  0  0  0  0  0  0  0  0  0
    3.3185    2.9721   -1.5062 H   0  0  0  0  0  0  0  0  0  0  0  0
    2.9426    2.4491   -3.1144 H   0  0  0  0  0  0  0  0  0  0  0  0
    0.7328   -0.2489   -2.5781 H   0  0  0  0  0  0  0  0  0  0  0  0
    0.0607   -2.2684   -1.5370 H   0  0  0  0  0  0  0  0  0  0  0  0
    4.4041   -0.1038   -1.5799 H   0  0  0  0  0  0  0  0  0  0  0  0
    4.3814   -1.8468   -1.3359 H   0  0  0  0  0  0  0  0  0  0  0  0
    4.7750   -2.8443    0.8928 H   0  0  0  0  0  0  0  0  0  0  0  0
    5.9245   -2.6608    3.0277 H   0  0  0  0  0  0  0  0  0  0  0  0
    6.6490   -0.4607    3.8493 H   0  0  0  0  0  0  0  0  0  0  0  0
    6.2016    1.5737    2.4940 H   0  0  0  0  0  0  0  0  0  0  0  0
    5.0247    1.4012    0.3053 H   0  0  0  0  0  0  0  0  0  0  0  0
    2.3690    0.4044    1.2522 H   0  0  0  0  0  0  0  0  0  0  0  0
    1.9700    1.9817    0.6437 H   0  0  0  0  0  0  0  0  0  0  0  0
   -0.1138    1.7845    1.3558 H   0  0  0  0  0  0  0  0  0  0  0  0
    0.3557    0.3139    2.1803 H   0  0  0  0  0  0  0  0  0  0  0  0
   -1.6418    5.6855   -0.3098 H   0  0  0  0  0  0  0  0  0  0  0  0
   -3.0851    3.9604    0.5315 H   0  0  0  0  0  0  0  0  0  0  0  0
    0.4778    5.7334   -2.5507 H   0  0  0  0  0  0  0  0  0  0  0  0
   -6.3113   -2.5572    1.4173 H   0  0  0  0  0  0  0  0  0  0  0  0
   -5.2454   -2.9798    2.7932 H   0  0  0  0  0  0  0  0  0  0  0  0
   -5.7811   -4.2714    1.5899 H   0  0  0  0  0  0  0  0  0  0  0  0
  1  2  1  0
  2  3  1  0
  3  4  1  0
  4  5  1  0
  5  6  1  0
  7  6  1  6
  7  8  1  0
  8  9  1  0
  9 10  1  0
 10 11  1  0
 11 12  2  0
 12 13  1  0
 13 14  1  0
 14 15  1  0
 15 16  1  0
 17 16  1  6
 17 18  1  0
 18 19  1  0
 19 20  1  0
 19 21  1  0
 21 22  2  0
 21 23  1  0
 23 24  1  0
 24 25  1  0
 25 26  2  0
 26 27  1  0
 27 28  2  0
 28 29  1  0
 29 30  2  0
 17 31  1  0
 31 32  1  0
 13 33  2  0
 33 34  1  0
 34 35  2  0
 33 36  1  0
  2 37  1  0
  9  4  1  0
 35 11  1  0
 12  7  1  0
 23 17  1  0
 30 25  1  0
 18  7  1  0
 32  8  1  0
  8 20  1  6
  1 38  1  0
  1 39  1  0
  1 40  1  0
  2 41  1  0
  3 42  1  0
  3 43  1  0
  5 44  1  0
  5 45  1  0
  6 46  1  0
  6 47  1  0
  9 48  1  1
 10 49  1  0
 10 50  1  0
 15 51  1  0
 15 52  1  0
 18 53  1  6
 19 54  1  6
 24 55  1  0
 24 56  1  0
 26 57  1  0
 27 58  1  0
 28 59  1  0
 29 60  1  0
 30 61  1  0
 31 62  1  0
 31 63  1  0
 32 64  1  0
 32 65  1  0
 34 66  1  0
 35 67  1  0
 36 68  1  0
 37 69  1  0
 37 70  1  0
 37 71  1  0
M  END
>  <Ligand ID>  (1) 
LIG0003469

>  <Ligand>  (1) 
CHEMBL3264744

>  <SMILES>  (1) 
CC(CN1CC[C@]23[C@]45[C@H]1Cc1c2c(OCO[C@]2([C@H]3[C@H](O5)C(=O)N2Cc2ccccc2)CC4)c(cc1)O)C

>  <CID>  (1) 
90655825.0

>  <ChEMBL ID>  (1) 
nan

>  <InChiKey>  (1) 
UPAZZKNYLSZQFB-HJGLZJKISA-N

>  <InChi>  (1) 
InChI=1S/C30H34N2O5/c1-18(2)15-31-13-12-28-23-20-8-9-21(33)24(23)35-17-36-30-11-10-29(28,22(31)14-20)37-25(26(28)30)27(34)32(30)16-19-6-4-3-5-7-19/h3-9,18,22,25-26,33H,10-17H2,1-2H3/t22-,25+,26+,28+,29-,30+/m1/s1

>  <IUPAC Name>  (1) 
(1S,11R,15R,16R,17S,19S)-22-benzyl-6-hydroxy-12-(2-methylpropyl)-2,4,18-trioxa-12,22-diazaheptacyclo[15.4.2.15,9.01,16.011,19.015,19.015,24]tetracosa-5,7,9(24)-trien-23-one

$$$$
