
     RDKit          3D

 77 80  0  0  0  0  0  0  0  0999 V2000
    7.2057    3.4578   -0.0985 O   0  0  0  0  0  0  0  0  0  0  0  0
    7.3501    2.0964   -0.2955 C   0  0  2  0  0  0  0  0  0  0  0  0
    7.0754    1.2991    0.9340 C   0  0  1  0  0  0  0  0  0  0  0  0
    5.5882    0.9529    1.0402 C   0  0  0  0  0  0  0  0  0  0  0  0
    5.3441    0.0778    2.0708 O   0  0  0  0  0  0  0  0  0  0  0  0
    3.7100   -0.3218    2.2113 P   0  0  0  0  0  0  0  0  0  0  0  0
    3.5832   -1.2149    3.4198 O   0  0  0  0  0  0  0  0  0  0  0  0
    3.1536   -1.1700    0.8605 O   0  0  0  0  0  0  0  0  0  0  0  0
    1.6279   -0.6643    0.3601 P   0  0  0  0  0  0  0  0  0  0  0  0
    1.0492   -1.7642   -0.4778 O   0  0  0  0  0  0  0  0  0  0  0  0
    0.5046   -0.3730    1.7487 C   0  0  0  0  0  0  0  0  0  0  0  0
   -1.1132   -1.1797    1.4740 P   0  0  0  0  0  0  0  0  0  0  0  0
   -1.0911   -2.5420    2.1549 O   0  0  0  0  0  0  0  0  0  0  0  0
   -2.3783   -0.3050    2.1317 O   0  0  0  0  0  0  0  0  0  0  0  0
   -3.2363    0.4663    0.8979 P   0  0  0  0  0  0  0  0  0  0  0  0
   -2.2543    0.8481   -0.1875 O   0  0  0  0  0  0  0  0  0  0  0  0
   -4.3602   -0.5962    0.2202 O   0  0  0  0  0  0  0  0  0  0  0  0
   -5.6425   -0.3161    0.7173 C   0  0  0  0  0  0  0  0  0  0  0  0
   -6.6386   -1.2847    0.0933 C   0  0  1  0  0  0  0  0  0  0  0  0
   -7.8919   -1.0128    0.5777 O   0  0  0  0  0  0  0  0  0  0  0  0
   -8.7472   -0.8223   -0.4827 C   0  0  2  0  0  0  0  0  0  0  0  0
   -7.8630   -0.1132   -1.4978 C   0  0  1  0  0  0  0  0  0  0  0  0
   -6.6374   -1.0254   -1.3861 C   0  0  2  0  0  0  0  0  0  0  0  0
   -6.9636   -2.1958   -2.0382 O   0  0  0  0  0  0  0  0  0  0  0  0
   -8.4087   -0.0954   -2.7557 O   0  0  0  0  0  0  0  0  0  0  0  0
   -9.9151   -0.0590   -0.1393 N   0  0  0  0  0  0  0  0  0  0  0  0
   -9.7832    1.2208    0.2441 C   0  0  0  0  0  0  0  0  0  0  0  0
  -10.9305    1.9222    0.5665 C   0  0  0  0  0  0  0  0  0  0  0  0
  -12.1911    1.3290    0.4993 C   0  0  0  0  0  0  0  0  0  0  0  0
  -13.2299    1.9829    0.7970 O   0  0  0  0  0  0  0  0  0  0  0  0
  -12.2229    0.0457    0.1056 N   0  0  0  0  0  0  0  0  0  0  0  0
  -11.1340   -0.6678   -0.2152 C   0  0  0  0  0  0  0  0  0  0  0  0
  -11.2206   -1.8842   -0.5831 O   0  0  0  0  0  0  0  0  0  0  0  0
   -3.9868    1.8842    1.4397 O   0  0  0  0  0  0  0  0  0  0  0  0
   -1.3493   -1.4289   -0.1865 O   0  0  0  0  0  0  0  0  0  0  0  0
    0.2194    0.9909    1.8216 F   0  0  0  0  0  0  0  0  0  0  0  0
    1.0540   -0.8481    2.9212 F   0  0  0  0  0  0  0  0  0  0  0  0
    1.8367    0.7141   -0.5794 O   0  0  0  0  0  0  0  0  0  0  0  0
    2.7472    1.0521    2.3939 O   0  0  0  0  0  0  0  0  0  0  0  0
    7.7465    0.1042    0.7076 O   0  0  0  0  0  0  0  0  0  0  0  0
    8.9991    0.4763    0.1656 C   0  0  2  0  0  0  0  0  0  0  0  0
    8.8228    1.7476   -0.5484 C   0  0  2  0  0  0  0  0  0  0  0  0
    9.5537    2.7865    0.0263 O   0  0  0  0  0  0  0  0  0  0  0  0
    9.5118   -0.6343   -0.5416 N   0  0  0  0  0  0  0  0  0  0  0  0
   10.3636   -0.4290   -1.5632 C   0  0  0  0  0  0  0  0  0  0  0  0
   10.9111   -1.4576   -2.3066 C   0  0  0  0  0  0  0  0  0  0  0  0
   10.5617   -2.7580   -1.9785 C   0  0  0  0  0  0  0  0  0  0  0  0
   11.0456   -3.7315   -2.6403 O   0  0  0  0  0  0  0  0  0  0  0  0
    9.7117   -2.9370   -0.9570 N   0  0  0  0  0  0  0  0  0  0  0  0
    9.1880   -1.9130   -0.2430 C   0  0  0  0  0  0  0  0  0  0  0  0
    8.3940   -2.1414    0.7065 O   0  0  0  0  0  0  0  0  0  0  0  0
    6.5526    3.8018   -0.7616 H   0  0  0  0  0  0  0  0  0  0  0  0
    6.7589    1.7463   -1.1740 H   0  0  0  0  0  0  0  0  0  0  0  0
    7.4196    1.8597    1.8002 H   0  0  0  0  0  0  0  0  0  0  0  0
    4.9619    1.8558    1.0815 H   0  0  0  0  0  0  0  0  0  0  0  0
    5.3396    0.4462    0.0908 H   0  0  0  0  0  0  0  0  0  0  0  0
   -5.9345    0.7400    0.5273 H   0  0  0  0  0  0  0  0  0  0  0  0
   -5.5619   -0.4975    1.8185 H   0  0  0  0  0  0  0  0  0  0  0  0
   -6.3103   -2.3013    0.3544 H   0  0  0  0  0  0  0  0  0  0  0  0
   -9.0293   -1.7927   -0.9572 H   0  0  0  0  0  0  0  0  0  0  0  0
   -7.5323    0.8829   -1.1407 H   0  0  0  0  0  0  0  0  0  0  0  0
   -5.7188   -0.5392   -1.7570 H   0  0  0  0  0  0  0  0  0  0  0  0
   -6.3305   -2.9377   -1.8908 H   0  0  0  0  0  0  0  0  0  0  0  0
   -8.0704    0.7419   -3.1939 H   0  0  0  0  0  0  0  0  0  0  0  0
   -8.8171    1.7062    0.3051 H   0  0  0  0  0  0  0  0  0  0  0  0
  -10.8661    2.9495    0.8781 H   0  0  0  0  0  0  0  0  0  0  0  0
  -13.1810   -0.3933    0.0582 H   0  0  0  0  0  0  0  0  0  0  0  0
   -3.6410    2.7017    1.0005 H   0  0  0  0  0  0  0  0  0  0  0  0
   -2.0637   -2.0824   -0.3396 H   0  0  0  0  0  0  0  0  0  0  0  0
    1.9010    0.4293   -1.5288 H   0  0  0  0  0  0  0  0  0  0  0  0
    2.9265    1.6270    1.5967 H   0  0  0  0  0  0  0  0  0  0  0  0
    9.6565    0.6497    1.0453 H   0  0  0  0  0  0  0  0  0  0  0  0
    8.9762    1.7830   -1.6158 H   0  0  0  0  0  0  0  0  0  0  0  0
    9.1753    3.6718   -0.1454 H   0  0  0  0  0  0  0  0  0  0  0  0
   10.6626    0.5768   -1.8520 H   0  0  0  0  0  0  0  0  0  0  0  0
   11.5945   -1.2586   -3.1237 H   0  0  0  0  0  0  0  0  0  0  0  0
    9.4625   -3.9350   -0.7284 H   0  0  0  0  0  0  0  0  0  0  0  0
  1  2  1  0
  2  3  1  0
  3  4  1  0
  4  5  1  0
  5  6  1  0
  6  7  2  0
  6  8  1  0
  8  9  1  0
  9 10  2  0
  9 11  1  0
 11 12  1  0
 12 13  2  0
 12 14  1  0
 14 15  1  0
 15 16  2  0
 15 17  1  0
 17 18  1  0
 18 19  1  0
 19 20  1  0
 20 21  1  0
 21 22  1  0
 22 23  1  0
 23 24  1  0
 22 25  1  0
 21 26  1  0
 26 27  1  0
 27 28  2  0
 28 29  1  0
 29 30  2  0
 29 31  1  0
 31 32  1  0
 32 33  2  0
 15 34  1  0
 12 35  1  0
 11 36  1  0
 11 37  1  0
  9 38  1  0
  6 39  1  0
  3 40  1  0
 40 41  1  0
 41 42  1  0
 42 43  1  0
 41 44  1  0
 44 45  1  0
 45 46  2  0
 46 47  1  0
 47 48  2  0
 47 49  1  0
 49 50  1  0
 50 51  2  0
 42  2  1  0
 50 44  1  0
 23 19  1  0
 32 26  1  0
  1 52  1  0
  2 53  1  6
  3 54  1  1
  4 55  1  0
  4 56  1  0
 18 57  1  0
 18 58  1  0
 19 59  1  6
 21 60  1  6
 22 61  1  1
 23 62  1  6
 24 63  1  0
 25 64  1  0
 27 65  1  0
 28 66  1  0
 31 67  1  0
 34 68  1  0
 35 69  1  0
 38 70  1  0
 39 71  1  0
 41 72  1  1
 42 73  1  6
 43 74  1  0
 45 75  1  0
 46 76  1  0
 49 77  1  0
M  END
>  <Ligand ID>  (1) 
LIG0002812

>  <Ligand>  (1) 
CHEMBL502712

>  <SMILES>  (1) 
O[C@@H]1[C@@H](COP(=O)(OP(=O)(C(P(=O)(OP(=O)(OC[C@H]2O[C@H]([C@@H]([C@@H]2O)O)n2ccc(=O)[nH]c2=O)O)O)(F)F)O)O)O[C@H]([C@@H]1O)n1ccc(=O)[nH]c1=O

>  <CID>  (1) 
10234467.0

>  <ChEMBL ID>  (1) 
nan

>  <InChiKey>  (1) 
YQQXUGVEZWDLKO-NCOIDOBVSA-N

>  <InChi>  (1) 
InChI=1S/C19H26F2N4O22P4/c20-19(21,48(34,35)46-50(38,39)42-5-7-11(28)13(30)15(44-7)24-3-1-9(26)22-17(24)32)49(36,37)47-51(40,41)43-6-8-12(29)14(31)16(45-8)25-4-2-10(27)23-18(25)33/h1-4,7-8,11-16,28-31H,5-6H2,(H,34,35)(H,36,37)(H,38,39)(H,40,41)(H,22,26,32)(H,23,27,33)/t7-,8-,11-,12-,13-,14-,15-,16-/m1/s1

>  <IUPAC Name>  (1) 
[[(2R,3S,4R,5R)-5-(2,4-dioxopyrimidin-1-yl)-3,4-dihydroxyoxolan-2-yl]methoxy-hydroxyphosphoryl]oxy-[[[[(2R,3S,4R,5R)-5-(2,4-dioxopyrimidin-1-yl)-3,4-dihydroxyoxolan-2-yl]methoxy-hydroxyphosphoryl]oxy-hydroxyphosphoryl]-difluoromethyl]phosphinic acid

$$$$
