
     RDKit          3D

 28 29  0  0  0  0  0  0  0  0999 V2000
    3.3476    2.4590   -1.1480 Cl  0  0  0  0  0  0  0  0  0  0  0  0
    2.6136    0.9008   -0.7487 C   0  0  0  0  0  0  0  0  0  0  0  0
    3.3866   -0.2180   -0.6393 C   0  0  0  0  0  0  0  0  0  0  0  0
    2.7694   -1.4052   -0.3271 C   0  0  0  0  0  0  0  0  0  0  0  0
    1.4128   -1.5324   -0.1179 C   0  0  0  0  0  0  0  0  0  0  0  0
    0.6214   -0.3914   -0.2292 C   0  0  0  0  0  0  0  0  0  0  0  0
    1.2530    0.8194   -0.5474 C   0  0  0  0  0  0  0  0  0  0  0  0
    0.4191    2.0215   -0.6495 C   0  0  0  0  0  0  0  0  0  0  0  0
    0.8813    3.1553   -0.9304 O   0  0  0  0  0  0  0  0  0  0  0  0
   -0.9920    1.8138   -0.4021 N   0  0  0  0  0  0  0  0  0  0  0  0
   -1.3154    0.8047    0.5610 C   0  0  2  0  0  0  0  0  0  0  0  0
   -0.8110   -0.5281   -0.0224 C   0  0  2  0  0  0  0  0  0  0  0  0
   -1.2798   -1.3814    1.0985 C   0  0  0  0  0  0  0  0  0  0  0  0
   -2.6936   -0.9713    1.1781 N   0  0  0  0  0  0  0  0  0  0  0  0
   -2.7341    0.4290    0.7208 C   0  0  0  0  0  0  0  0  0  0  0  0
    0.6860    0.0000    0.0000 Cl  0  0  0  0  0  0  0  0  0  0  0  0
    4.4657   -0.1492   -0.7997 H   0  0  0  0  0  0  0  0  0  0  0  0
    3.3553   -2.3178   -0.2317 H   0  0  0  0  0  0  0  0  0  0  0  0
    0.9803   -2.4985    0.1267 H   0  0  0  0  0  0  0  0  0  0  0  0
   -1.6763    2.4000   -0.9270 H   0  0  0  0  0  0  0  0  0  0  0  0
   -0.8457    0.9270    1.5408 H   0  0  0  0  0  0  0  0  0  0  0  0
   -1.3813   -0.7639   -0.9477 H   0  0  0  0  0  0  0  0  0  0  0  0
   -1.1901   -2.4535    0.9444 H   0  0  0  0  0  0  0  0  0  0  0  0
   -0.8242   -1.0114    2.0457 H   0  0  0  0  0  0  0  0  0  0  0  0
   -3.1813   -1.5932    0.4727 H   0  0  0  0  0  0  0  0  0  0  0  0
   -3.2327    0.9733    1.5673 H   0  0  0  0  0  0  0  0  0  0  0  0
   -3.3486    0.5115   -0.1916 H   0  0  0  0  0  0  0  0  0  0  0  0
   -0.6860    0.0000    0.0000 H   0  0  0  0  0  0  0  0  0  0  0  0
  1  2  1  0
  2  3  2  0
  3  4  1  0
  4  5  2  0
  5  6  1  0
  6  7  2  0
  7  8  1  0
  8  9  2  0
  8 10  1  0
 10 11  1  0
 11 12  1  0
 12 13  1  0
 13 14  1  0
 14 15  1  0
  7  2  1  0
 15 11  1  0
 12  6  1  0
  3 17  1  0
  4 18  1  0
  5 19  1  0
 10 20  1  0
 11 21  1  1
 12 22  1  6
 13 23  1  0
 13 24  1  0
 14 25  1  0
 15 26  1  0
 15 27  1  0
 16 28  1  0
M  END
>  <Ligand ID>  (1) 
LIG0002444

>  <Ligand>  (1) 
CHEMBL2337493

>  <SMILES>  (1) 
Clc1cccc2c1C(=O)N[C@@H]1[C@@H]2CNC1.Cl

>  <CID>  (1) 
69055626.0

>  <ChEMBL ID>  (1) 
nan

>  <InChiKey>  (1) 
QNXFKNOHBYRJEY-JXLXBRSFSA-N

>  <InChi>  (1) 
InChI=1S/C11H11ClN2O.ClH/c12-8-3-1-2-6-7-4-13-5-9(7)14-11(15)10(6)8;/h1-3,7,9,13H,4-5H2,(H,14,15);1H/t7-,9+;/m1./s1

>  <IUPAC Name>  (1) 
(3aR,9bS)-6-chloro-1,2,3,3a,4,9b-hexahydropyrrolo[3,4-c]isoquinolin-5-one;hydrochloride

$$$$
