
     RDKit          3D

103107  0  0  0  0  0  0  0  0999 V2000
   -4.5411    6.2133   -0.4632 N   0  0  0  0  0  0  0  0  0  0  0  0
   -5.3444    5.2280   -1.0734 C   0  0  0  0  0  0  0  0  0  0  0  0
   -4.8650    4.1555   -1.5756 N   0  0  0  0  0  0  0  0  0  0  0  0
   -3.4802    3.8558   -1.5661 C   0  0  0  0  0  0  0  0  0  0  0  0
   -3.1495    2.6908   -0.6346 C   0  0  0  0  0  0  0  0  0  0  0  0
   -1.7088    2.3583   -0.6471 C   0  0  0  0  0  0  0  0  0  0  0  0
   -1.4219    1.1967    0.3432 C   0  0  1  0  0  0  0  0  0  0  0  0
   -2.1989    0.0212   -0.0168 C   0  0  0  0  0  0  0  0  0  0  0  0
   -1.7517   -0.9720   -0.6751 O   0  0  0  0  0  0  0  0  0  0  0  0
   -3.5609   -0.0527    0.3852 N   0  0  0  0  0  0  0  0  0  0  0  0
   -4.4265   -1.1877    0.0251 C   0  0  2  0  0  0  0  0  0  0  0  0
   -5.8192   -0.8620   -0.1262 C   0  0  0  0  0  0  0  0  0  0  0  0
   -6.7353   -1.6147   -0.5801 O   0  0  0  0  0  0  0  0  0  0  0  0
   -6.2746    0.4487    0.2669 N   0  0  0  0  0  0  0  0  0  0  0  0
   -4.0660   -2.3637    0.9006 C   0  0  0  0  0  0  0  0  0  0  0  0
   -4.9108   -3.5396    0.6496 C   0  0  0  0  0  0  0  0  0  0  0  0
   -4.6544   -4.6006   -0.2293 C   0  0  0  0  0  0  0  0  0  0  0  0
   -5.7001   -5.4594   -0.1972 N   0  0  0  0  0  0  0  0  0  0  0  0
   -6.6393   -5.0132    0.6664 C   0  0  0  0  0  0  0  0  0  0  0  0
   -6.1697   -3.8174    1.2068 C   0  0  0  0  0  0  0  0  0  0  0  0
   -6.9509   -3.1460    2.1531 C   0  0  0  0  0  0  0  0  0  0  0  0
   -8.1717   -3.6118    2.5785 C   0  0  0  0  0  0  0  0  0  0  0  0
   -8.6367   -4.8124    2.0289 C   0  0  0  0  0  0  0  0  0  0  0  0
   -7.8756   -5.4880    1.0936 C   0  0  0  0  0  0  0  0  0  0  0  0
    0.0376    0.9646    0.2461 N   0  0  0  0  0  0  0  0  0  0  0  0
    0.8388    1.8060    1.0306 C   0  0  0  0  0  0  0  0  0  0  0  0
    0.2072    2.6902    1.7270 O   0  0  0  0  0  0  0  0  0  0  0  0
    2.2951    1.8139    1.1620 C   0  0  1  0  0  0  0  0  0  0  0  0
    2.9722    0.6896    0.5317 N   0  0  0  0  0  0  0  0  0  0  0  0
    3.7836   -0.1189    1.3648 C   0  0  0  0  0  0  0  0  0  0  0  0
    3.8458    0.2002    2.6099 O   0  0  0  0  0  0  0  0  0  0  0  0
    4.5622   -1.2817    0.9604 C   0  0  1  0  0  0  0  0  0  0  0  0
    4.5507   -1.6444   -0.4147 N   0  0  0  0  0  0  0  0  0  0  0  0
    4.4320   -2.9856   -0.7892 C   0  0  0  0  0  0  0  0  0  0  0  0
    4.3350   -3.8435    0.1585 O   0  0  0  0  0  0  0  0  0  0  0  0
    4.4081   -3.5272   -2.1542 C   0  0  0  0  0  0  0  0  0  0  0  0
    5.4694   -4.5305   -2.3913 C   0  0  0  0  0  0  0  0  0  0  0  0
    5.3365   -5.8740   -1.9971 C   0  0  0  0  0  0  0  0  0  0  0  0
    6.3546   -6.7844   -2.2349 C   0  0  0  0  0  0  0  0  0  0  0  0
    7.5410   -6.4281   -2.8620 C   0  0  0  0  0  0  0  0  0  0  0  0
    7.6789   -5.0846   -3.2574 C   0  0  0  0  0  0  0  0  0  0  0  0
    6.6739   -4.2365   -3.0112 C   0  0  0  0  0  0  0  0  0  0  0  0
    6.0181   -1.0299    1.4389 C   0  0  0  0  0  0  0  0  0  0  0  0
    6.4614    0.2106    0.7652 C   0  0  0  0  0  0  0  0  0  0  0  0
    7.0624    0.2737   -0.4403 N   0  0  0  0  0  0  0  0  0  0  0  0
    7.3446    1.5628   -0.7466 C   0  0  0  0  0  0  0  0  0  0  0  0
    6.9096    2.3442    0.2964 N   0  0  0  0  0  0  0  0  0  0  0  0
    6.3787    1.5054    1.2010 C   0  0  0  0  0  0  0  0  0  0  0  0
    2.8853    3.0529    0.4634 C   0  0  0  0  0  0  0  0  0  0  0  0
    2.3856    4.3187    1.0207 C   0  0  0  0  0  0  0  0  0  0  0  0
    3.0916    4.8507    2.1062 C   0  0  0  0  0  0  0  0  0  0  0  0
    2.6522    6.0653    2.6523 C   0  0  0  0  0  0  0  0  0  0  0  0
    1.5730    6.7364    2.1634 C   0  0  0  0  0  0  0  0  0  0  0  0
    0.8889    6.2019    1.0961 C   0  0  0  0  0  0  0  0  0  0  0  0
    1.2866    5.0041    0.5256 C   0  0  0  0  0  0  0  0  0  0  0  0
   -6.7815    5.3654   -1.1837 N   0  0  0  0  0  0  0  0  0  0  0  0
   -4.5217    6.3742    0.5842 H   0  0  0  0  0  0  0  0  0  0  0  0
   -3.9098    6.8516   -1.0015 H   0  0  0  0  0  0  0  0  0  0  0  0
   -3.1176    3.6149   -2.5858 H   0  0  0  0  0  0  0  0  0  0  0  0
   -2.9169    4.7490   -1.2004 H   0  0  0  0  0  0  0  0  0  0  0  0
   -3.7661    1.8222   -1.0261 H   0  0  0  0  0  0  0  0  0  0  0  0
   -3.5634    2.9469    0.3511 H   0  0  0  0  0  0  0  0  0  0  0  0
   -1.2812    2.1366   -1.6198 H   0  0  0  0  0  0  0  0  0  0  0  0
   -1.1486    3.2077   -0.2165 H   0  0  0  0  0  0  0  0  0  0  0  0
   -1.6556    1.5842    1.3269 H   0  0  0  0  0  0  0  0  0  0  0  0
   -4.0390    0.6785    0.9713 H   0  0  0  0  0  0  0  0  0  0  0  0
   -4.0122   -1.5121   -0.9939 H   0  0  0  0  0  0  0  0  0  0  0  0
   -6.5205    1.1443   -0.4629 H   0  0  0  0  0  0  0  0  0  0  0  0
   -6.3390    0.6484    1.3060 H   0  0  0  0  0  0  0  0  0  0  0  0
   -2.9952   -2.6267    0.6416 H   0  0  0  0  0  0  0  0  0  0  0  0
   -4.1443   -2.1454    1.9952 H   0  0  0  0  0  0  0  0  0  0  0  0
   -3.7546   -4.7261   -0.8489 H   0  0  0  0  0  0  0  0  0  0  0  0
   -5.8185   -6.3485   -0.7385 H   0  0  0  0  0  0  0  0  0  0  0  0
   -6.5876   -2.2009    2.5893 H   0  0  0  0  0  0  0  0  0  0  0  0
   -8.7406   -3.0596    3.3121 H   0  0  0  0  0  0  0  0  0  0  0  0
   -9.5873   -5.2191    2.3251 H   0  0  0  0  0  0  0  0  0  0  0  0
   -8.1866   -6.4229    0.6353 H   0  0  0  0  0  0  0  0  0  0  0  0
    0.4575    0.2369   -0.3556 H   0  0  0  0  0  0  0  0  0  0  0  0
    2.5900    1.9342    2.2436 H   0  0  0  0  0  0  0  0  0  0  0  0
    2.8995    0.4510   -0.4717 H   0  0  0  0  0  0  0  0  0  0  0  0
    4.2065   -2.1699    1.5465 H   0  0  0  0  0  0  0  0  0  0  0  0
    4.6290   -0.9084   -1.1383 H   0  0  0  0  0  0  0  0  0  0  0  0
    3.4404   -4.0700   -2.3300 H   0  0  0  0  0  0  0  0  0  0  0  0
    4.5072   -2.7114   -2.8912 H   0  0  0  0  0  0  0  0  0  0  0  0
    4.4375   -6.2073   -1.5058 H   0  0  0  0  0  0  0  0  0  0  0  0
    6.2572   -7.8265   -1.9320 H   0  0  0  0  0  0  0  0  0  0  0  0
    8.3275   -7.1491   -3.0401 H   0  0  0  0  0  0  0  0  0  0  0  0
    8.6125   -4.8172   -3.7475 H   0  0  0  0  0  0  0  0  0  0  0  0
    6.7793   -3.1835   -3.3231 H   0  0  0  0  0  0  0  0  0  0  0  0
    5.9954   -0.8716    2.5383 H   0  0  0  0  0  0  0  0  0  0  0  0
    6.6621   -1.8486    1.0970 H   0  0  0  0  0  0  0  0  0  0  0  0
    7.2740   -0.5782   -1.0452 H   0  0  0  0  0  0  0  0  0  0  0  0
    7.8314    1.9141   -1.6591 H   0  0  0  0  0  0  0  0  0  0  0  0
    5.9611    1.8616    2.1329 H   0  0  0  0  0  0  0  0  0  0  0  0
    2.7170    2.9526   -0.6265 H   0  0  0  0  0  0  0  0  0  0  0  0
    4.0025    3.0393    0.5865 H   0  0  0  0  0  0  0  0  0  0  0  0
    3.9648    4.3318    2.5178 H   0  0  0  0  0  0  0  0  0  0  0  0
    3.2576    6.4092    3.4922 H   0  0  0  0  0  0  0  0  0  0  0  0
    1.2464    7.6680    2.5919 H   0  0  0  0  0  0  0  0  0  0  0  0
    0.0201    6.7677    0.7262 H   0  0  0  0  0  0  0  0  0  0  0  0
    0.7537    4.5912   -0.3150 H   0  0  0  0  0  0  0  0  0  0  0  0
   -7.3312    6.0670   -0.6832 H   0  0  0  0  0  0  0  0  0  0  0  0
   -7.3185    4.7055   -1.8183 H   0  0  0  0  0  0  0  0  0  0  0  0
  1  2  1  0
  2  3  2  3
  3  4  1  0
  4  5  1  0
  5  6  1  0
  6  7  1  0
  7  8  1  0
  8  9  2  0
  8 10  1  0
 10 11  1  0
 11 12  1  0
 12 13  2  0
 12 14  1  0
 11 15  1  0
 15 16  1  0
 16 17  2  0
 17 18  1  0
 18 19  1  0
 19 20  2  0
 20 21  1  0
 21 22  2  0
 22 23  1  0
 23 24  2  0
  7 25  1  0
 25 26  1  0
 26 27  2  0
 26 28  1  0
 28 29  1  0
 29 30  1  0
 30 31  2  0
 30 32  1  0
 32 33  1  0
 33 34  1  0
 34 35  2  0
 34 36  1  0
 36 37  1  0
 37 38  2  0
 38 39  1  0
 39 40  2  0
 40 41  1  0
 41 42  2  0
 32 43  1  0
 43 44  1  0
 44 45  1  0
 45 46  1  0
 46 47  2  0
 47 48  1  0
 28 49  1  0
 49 50  1  0
 50 51  2  0
 51 52  1  0
 52 53  2  0
 53 54  1  0
 54 55  2  0
  2 56  1  0
 20 16  1  0
 42 37  1  0
 48 44  2  0
 55 50  1  0
 24 19  1  0
  1 57  1  0
  1 58  1  0
  4 59  1  0
  4 60  1  0
  5 61  1  0
  5 62  1  0
  6 63  1  0
  6 64  1  0
  7 65  1  1
 10 66  1  0
 11 67  1  6
 14 68  1  0
 14 69  1  0
 15 70  1  0
 15 71  1  0
 17 72  1  0
 18 73  1  0
 21 74  1  0
 22 75  1  0
 23 76  1  0
 24 77  1  0
 25 78  1  0
 28 79  1  1
 29 80  1  0
 32 81  1  1
 33 82  1  0
 36 83  1  0
 36 84  1  0
 38 85  1  0
 39 86  1  0
 40 87  1  0
 41 88  1  0
 42 89  1  0
 43 90  1  0
 43 91  1  0
 45 92  1  0
 46 93  1  0
 48 94  1  0
 49 95  1  0
 49 96  1  0
 51 97  1  0
 52 98  1  0
 53 99  1  0
 54100  1  0
 55101  1  0
 56102  1  0
 56103  1  0
M  END
>  <Ligand ID>  (1) 
LIG0002644

>  <Ligand>  (1) 
CHEMBL89004

>  <SMILES>  (1) 
NC(=NCCC[C@@H](C(=O)N[C@H](C(=O)N)Cc1c[nH]c2c1cccc2)NC(=O)[C@@H](NC(=O)[C@@H](NC(=O)Cc1ccccc1)Cc1[nH]cnc1)Cc1ccccc1)N

>  <CID>  (1) 
44323032.0

>  <ChEMBL ID>  (1) 
nan

>  <InChiKey>  (1) 
VLXDEFRTAJLNNA-CUPIEXAXSA-N

>  <InChi>  (1) 
InChI=1S/C40H47N11O5/c41-36(53)32(20-27-22-46-30-15-8-7-14-29(27)30)50-37(54)31(16-9-17-45-40(42)43)49-38(55)33(18-25-10-3-1-4-11-25)51-39(56)34(21-28-23-44-24-47-28)48-35(52)19-26-12-5-2-6-13-26/h1-8,10-15,22-24,31-34,46H,9,16-21H2,(H2,41,53)(H,44,47)(H,48,52)(H,49,55)(H,50,54)(H,51,56)(H4,42,43,45)/t31-,32-,33-,34-/m0/s1

>  <IUPAC Name>  (1) 
(2S)-N-[(2S)-1-amino-3-(1H-indol-3-yl)-1-oxopropan-2-yl]-5-(diaminomethylideneamino)-2-[[(2S)-2-[[(2S)-3-(1H-imidazol-5-yl)-2-[(2-phenylacetyl)amino]propanoyl]amino]-3-phenylpropanoyl]amino]pentanamide

$$$$
