
     RDKit          3D

 60 65  0  0  0  0  0  0  0  0999 V2000
   -6.0899    2.2738   -1.3889 C   0  0  0  0  0  0  0  0  0  0  0  0
   -4.7577    1.9200   -1.7025 O   0  0  0  0  0  0  0  0  0  0  0  0
   -3.9798    1.1846   -0.8147 C   0  0  0  0  0  0  0  0  0  0  0  0
   -4.5359    0.8050    0.3870 C   0  0  0  0  0  0  0  0  0  0  0  0
   -3.7378    0.0780    1.2409 C   0  0  0  0  0  0  0  0  0  0  0  0
   -2.4295   -0.2648    0.9204 C   0  0  0  0  0  0  0  0  0  0  0  0
   -1.8569    0.1185   -0.2986 C   0  0  0  0  0  0  0  0  0  0  0  0
   -2.6806    0.8447   -1.1340 C   0  0  0  0  0  0  0  0  0  0  0  0
   -2.2201    1.2759   -2.3760 O   0  0  0  0  0  0  0  0  0  0  0  0
   -0.4836   -0.2508   -0.6237 C   0  0  2  0  0  0  0  0  0  0  0  0
   -0.5189   -1.5857   -1.3240 C   0  0  0  0  0  0  0  0  0  0  0  0
   -0.7146   -2.7470   -0.4201 C   0  0  0  0  0  0  0  0  0  0  0  0
   -0.1109   -2.6466    0.8567 N   0  0  0  0  0  0  0  0  0  0  0  0
   -0.2971   -1.4080    1.5447 C   0  0  0  0  0  0  0  0  0  0  0  0
   -1.7008   -1.0710    1.9260 C   0  0  0  0  0  0  0  0  0  0  0  0
    0.2768   -0.3157    0.6830 C   0  0  2  0  0  0  0  0  0  0  0  0
    0.3267    0.9832    1.4245 C   0  0  0  0  0  0  0  0  0  0  0  0
   -0.1860    2.1666    0.6804 C   0  0  0  0  0  0  0  0  0  0  0  0
    0.0517    2.0825   -0.7857 C   0  0  0  0  0  0  0  0  0  0  0  0
   -0.0211    3.1091   -1.4196 O   0  0  0  0  0  0  0  0  0  0  0  0
    0.3606    0.7470   -1.3477 C   0  0  1  0  0  0  0  0  0  0  0  0
    1.7813    0.4667   -0.8715 C   0  0  0  0  0  0  0  0  0  0  0  0
    2.8810    1.0904   -1.2607 C   0  0  0  0  0  0  0  0  0  0  0  0
    4.1868    0.7275   -0.7286 C   0  0  0  0  0  0  0  0  0  0  0  0
    5.0564    1.7903   -0.4555 C   0  0  0  0  0  0  0  0  0  0  0  0
    6.3291    1.5438    0.0531 C   0  0  0  0  0  0  0  0  0  0  0  0
    6.7405    0.2512    0.2910 C   0  0  0  0  0  0  0  0  0  0  0  0
    5.8743   -0.8021    0.0189 C   0  0  0  0  0  0  0  0  0  0  0  0
    4.6114   -0.5402   -0.4870 C   0  0  0  0  0  0  0  0  0  0  0  0
    1.6521   -0.6476    0.1327 C   0  0  0  0  0  0  0  0  0  0  0  0
   -0.5393   -3.7738    1.6667 C   0  0  0  0  0  0  0  0  0  0  0  0
   -6.4329    3.0202   -2.1290 H   0  0  0  0  0  0  0  0  0  0  0  0
   -6.1625    2.7121   -0.3743 H   0  0  0  0  0  0  0  0  0  0  0  0
   -6.7400    1.3589   -1.4849 H   0  0  0  0  0  0  0  0  0  0  0  0
   -5.5437    1.0424    0.6907 H   0  0  0  0  0  0  0  0  0  0  0  0
   -4.1776   -0.2292    2.2027 H   0  0  0  0  0  0  0  0  0  0  0  0
   -2.4501    0.6791   -3.1748 H   0  0  0  0  0  0  0  0  0  0  0  0
    0.3854   -1.6687   -1.9528 H   0  0  0  0  0  0  0  0  0  0  0  0
   -1.3838   -1.5489   -2.0244 H   0  0  0  0  0  0  0  0  0  0  0  0
   -1.8136   -2.9394   -0.2450 H   0  0  0  0  0  0  0  0  0  0  0  0
   -0.3575   -3.6672   -0.9226 H   0  0  0  0  0  0  0  0  0  0  0  0
    0.3732   -1.4394    2.4568 H   0  0  0  0  0  0  0  0  0  0  0  0
   -2.2485   -2.0167    2.1196 H   0  0  0  0  0  0  0  0  0  0  0  0
   -1.6687   -0.5034    2.8920 H   0  0  0  0  0  0  0  0  0  0  0  0
    1.3798    1.1407    1.7474 H   0  0  0  0  0  0  0  0  0  0  0  0
   -0.2646    0.8671    2.3558 H   0  0  0  0  0  0  0  0  0  0  0  0
   -1.2557    2.3716    0.8516 H   0  0  0  0  0  0  0  0  0  0  0  0
    0.3616    3.0689    1.0376 H   0  0  0  0  0  0  0  0  0  0  0  0
    0.2982    0.6950   -2.4404 H   0  0  0  0  0  0  0  0  0  0  0  0
    2.7575    1.8760   -1.9865 H   0  0  0  0  0  0  0  0  0  0  0  0
    4.7526    2.8062   -0.6337 H   0  0  0  0  0  0  0  0  0  0  0  0
    6.9488    2.3937    0.2424 H   0  0  0  0  0  0  0  0  0  0  0  0
    7.7292    0.0734    0.6863 H   0  0  0  0  0  0  0  0  0  0  0  0
    6.2051   -1.8032    0.2060 H   0  0  0  0  0  0  0  0  0  0  0  0
    3.9633   -1.3721   -0.6916 H   0  0  0  0  0  0  0  0  0  0  0  0
    2.4001   -0.5805    0.9403 H   0  0  0  0  0  0  0  0  0  0  0  0
    1.6214   -1.6291   -0.3549 H   0  0  0  0  0  0  0  0  0  0  0  0
    0.2650   -4.5221    1.6634 H   0  0  0  0  0  0  0  0  0  0  0  0
   -1.4714   -4.1947    1.2428 H   0  0  0  0  0  0  0  0  0  0  0  0
   -0.7386   -3.3961    2.6925 H   0  0  0  0  0  0  0  0  0  0  0  0
  1  2  1  0
  2  3  1  0
  3  4  2  0
  4  5  1  0
  5  6  2  0
  6  7  1  0
  7  8  2  0
  8  9  1  0
  7 10  1  0
 10 11  1  6
 11 12  1  0
 12 13  1  0
 13 14  1  0
 14 15  1  0
 14 16  1  0
 16 17  1  1
 17 18  1  0
 18 19  1  0
 19 20  2  0
 19 21  1  0
 21 22  1  0
 22 23  2  0
 23 24  1  0
 24 25  2  0
 25 26  1  0
 26 27  2  0
 27 28  1  0
 28 29  2  0
 22 30  1  0
 13 31  1  0
  8  3  1  0
 21 10  1  0
 29 24  1  0
 15  6  1  0
 30 16  1  0
 16 10  1  0
  1 32  1  0
  1 33  1  0
  1 34  1  0
  4 35  1  0
  5 36  1  0
  9 37  1  0
 11 38  1  0
 11 39  1  0
 12 40  1  0
 12 41  1  0
 14 42  1  0
 15 43  1  0
 15 44  1  0
 17 45  1  0
 17 46  1  0
 18 47  1  0
 18 48  1  0
 21 49  1  6
 23 50  1  0
 25 51  1  0
 26 52  1  0
 27 53  1  0
 28 54  1  0
 29 55  1  0
 30 56  1  0
 30 57  1  0
 31 58  1  0
 31 59  1  0
 31 60  1  0
M  END
>  <Ligand ID>  (1) 
LIG0004615

>  <Ligand>  (1) 
CHEMBL109040

>  <SMILES>  (1) 
COc1ccc2c(c1O)[C@@]13CCN(C(C2)[C@@]23CCC(=O)[C@H]1/C(=C/c1ccccc1)/C2)C

>  <CID>  (1) 
44337613.0

>  <ChEMBL ID>  (1) 
nan

>  <InChiKey>  (1) 
RNXZIQREMYDCBE-YOCRKOMBSA-N

>  <InChi>  (1) 
InChI=1S/C27H29NO3/c1-28-13-12-27-23-19(14-17-6-4-3-5-7-17)16-26(27,11-10-20(23)29)22(28)15-18-8-9-21(31-2)25(30)24(18)27/h3-9,14,22-23,30H,10-13,15-16H2,1-2H3/b19-14+/t22?,23-,26-,27-/m1/s1

>  <IUPAC Name>  (1) 
(1S,10S,14S,18E)-18-benzylidene-3-hydroxy-4-methoxy-17-methyl-17-azapentacyclo[7.5.3.210,14.01,10.02,7]nonadeca-2(7),3,5-trien-13-one

$$$$
