
     RDKit          3D

144146  0  0  0  0  0  0  0  0999 V2000
    8.6083   -1.0137    4.1611 N   0  0  0  0  0  0  0  0  0  0  0  0
    8.8061   -0.2883    2.8905 C   0  0  0  0  0  0  0  0  0  0  0  0
    7.4875    0.2234    2.3945 C   0  0  0  0  0  0  0  0  0  0  0  0
    7.4978    0.9917    1.1275 C   0  0  0  0  0  0  0  0  0  0  0  0
    7.9958    0.3342   -0.0929 C   0  0  1  0  0  0  0  0  0  0  0  0
    9.4136   -0.1310   -0.0674 C   0  0  0  0  0  0  0  0  0  0  0  0
    9.7649   -1.2903   -0.4411 O   0  0  0  0  0  0  0  0  0  0  0  0
   10.3625    0.8324    0.4102 N   0  0  0  0  0  0  0  0  0  0  0  0
   11.8003    0.5111    0.4697 C   0  0  0  0  0  0  0  0  0  0  0  0
   12.5528    1.6879    0.9890 C   0  0  0  0  0  0  0  0  0  0  0  0
   13.8198    1.6526    1.1428 O   0  0  0  0  0  0  0  0  0  0  0  0
   11.8435    2.8710    1.3146 N   0  0  0  0  0  0  0  0  0  0  0  0
    7.1040   -0.6904   -0.6013 N   0  0  0  0  0  0  0  0  0  0  0  0
    6.9610   -0.9321   -1.9994 C   0  0  0  0  0  0  0  0  0  0  0  0
    7.6683   -0.2254   -2.7643 O   0  0  0  0  0  0  0  0  0  0  0  0
    6.0122   -1.9678   -2.4694 C   0  0  2  0  0  0  0  0  0  0  0  0
    6.1632   -2.3415   -3.9176 C   0  0  0  0  0  0  0  0  0  0  0  0
    5.6949   -1.0870   -4.6406 C   0  0  0  0  0  0  0  0  0  0  0  0
    4.5221   -0.6331   -3.7727 C   0  0  0  0  0  0  0  0  0  0  0  0
    4.6550   -1.3659   -2.5076 N   0  0  0  0  0  0  0  0  0  0  0  0
    3.7599   -1.4924   -1.4327 C   0  0  0  0  0  0  0  0  0  0  0  0
    4.1469   -2.3036   -0.4906 O   0  0  0  0  0  0  0  0  0  0  0  0
    2.4813   -0.8669   -1.1979 C   0  0  2  0  0  0  0  0  0  0  0  0
    1.3848   -1.9847   -1.2690 C   0  0  0  0  0  0  0  0  0  0  0  0
    1.6220   -3.2777   -0.0916 S   0  0  0  0  0  0  0  0  0  0  0  0
    1.4481   -2.8483    1.8948 S   0  0  0  0  0  0  0  0  0  0  0  0
   -0.0543   -3.0311    2.7807 C   0  0  0  0  0  0  0  0  0  0  0  0
   -1.2084   -2.1368    2.4688 C   0  0  2  0  0  0  0  0  0  0  0  0
   -2.2525   -2.2936    3.5383 N   0  0  0  0  0  0  0  0  0  0  0  0
   -1.9442   -2.4856    1.2220 C   0  0  0  0  0  0  0  0  0  0  0  0
   -1.4397   -2.6898    0.1182 O   0  0  0  0  0  0  0  0  0  0  0  0
   -3.4048   -2.6178    1.2120 N   0  0  0  0  0  0  0  0  0  0  0  0
   -4.0867   -2.8915   -0.0408 C   0  0  1  0  0  0  0  0  0  0  0  0
   -5.0186   -4.0514    0.0496 C   0  0  0  0  0  0  0  0  0  0  0  0
   -4.3226   -5.3187    0.4184 C   0  0  0  0  0  0  0  0  0  0  0  0
   -4.1764   -5.6858    1.7471 C   0  0  0  0  0  0  0  0  0  0  0  0
   -3.5058   -6.8883    2.0113 C   0  0  0  0  0  0  0  0  0  0  0  0
   -3.0054   -7.6860    1.0222 C   0  0  0  0  0  0  0  0  0  0  0  0
   -3.1584   -7.3061   -0.3144 C   0  0  0  0  0  0  0  0  0  0  0  0
   -3.8232   -6.1142   -0.5970 C   0  0  0  0  0  0  0  0  0  0  0  0
   -4.9115   -1.6689   -0.3599 C   0  0  0  0  0  0  0  0  0  0  0  0
   -5.1916   -0.8010    0.4716 O   0  0  0  0  0  0  0  0  0  0  0  0
   -5.4239   -1.4477   -1.6913 N   0  0  0  0  0  0  0  0  0  0  0  0
   -6.1038   -0.2802   -2.1315 C   0  0  2  0  0  0  0  0  0  0  0  0
   -5.3328    0.9936   -2.0355 C   0  0  0  0  0  0  0  0  0  0  0  0
   -5.8643    2.0195   -2.4645 O   0  0  0  0  0  0  0  0  0  0  0  0
   -4.0476    1.1024   -1.4937 N   0  0  0  0  0  0  0  0  0  0  0  0
   -3.2225    2.2799   -1.3387 C   0  0  2  0  0  0  0  0  0  0  0  0
   -1.8675    1.9826   -1.9096 C   0  0  0  0  0  0  0  0  0  0  0  0
   -1.7693    0.9634   -2.6055 O   0  0  0  0  0  0  0  0  0  0  0  0
   -0.6989    2.7483   -1.7156 N   0  0  0  0  0  0  0  0  0  0  0  0
    0.5098    2.2216   -2.3825 C   0  0  2  0  0  0  0  0  0  0  0  0
    1.0668    1.1092   -1.5223 C   0  0  0  0  0  0  0  0  0  0  0  0
    0.7409    0.9085   -0.3563 O   0  0  0  0  0  0  0  0  0  0  0  0
    2.0437    0.1890   -2.0705 N   0  0  0  0  0  0  0  0  0  0  0  0
    1.5057    3.3172   -2.4730 C   0  0  0  0  0  0  0  0  0  0  0  0
    2.7882    2.9036   -3.1067 C   0  0  0  0  0  0  0  0  0  0  0  0
    3.7438    2.6612   -2.3564 O   0  0  0  0  0  0  0  0  0  0  0  0
    2.8099    2.8205   -4.5217 N   0  0  0  0  0  0  0  0  0  0  0  0
   -3.1234    2.8893    0.0081 C   0  0  0  0  0  0  0  0  0  0  0  0
   -4.3657    3.3780    0.6290 C   0  0  0  0  0  0  0  0  0  0  0  0
   -5.5300    3.1440    0.2453 O   0  0  0  0  0  0  0  0  0  0  0  0
   -4.2279    4.2134    1.7867 N   0  0  0  0  0  0  0  0  0  0  0  0
   -5.4862    4.7063    2.3775 C   0  0  0  0  0  0  0  0  0  0  0  0
   -5.2704    5.5885    3.5565 C   0  0  0  0  0  0  0  0  0  0  0  0
   -6.4647    6.0376    4.0660 O   0  0  0  0  0  0  0  0  0  0  0  0
   -7.2625    4.9956    4.4830 C   0  0  0  0  0  0  0  0  0  0  0  0
   -8.5422    5.6678    5.0313 C   0  0  0  0  0  0  0  0  0  0  0  0
   -9.0840    6.3804    3.9584 O   0  0  0  0  0  0  0  0  0  0  0  0
   -7.5523   -0.1810   -1.8848 C   0  0  2  0  0  0  0  0  0  0  0  0
   -8.0395   -0.2343   -0.4767 C   0  0  0  0  0  0  0  0  0  0  0  0
   -9.5550   -0.1157   -0.5031 C   0  0  0  0  0  0  0  0  0  0  0  0
   -8.3047   -1.1495   -2.7482 C   0  0  0  0  0  0  0  0  0  0  0  0
    7.8806   -0.5242    4.7163 H   0  0  0  0  0  0  0  0  0  0  0  0
    8.4617   -2.0283    4.0171 H   0  0  0  0  0  0  0  0  0  0  0  0
    9.2649   -1.0276    2.2067 H   0  0  0  0  0  0  0  0  0  0  0  0
    9.4575    0.5612    3.1561 H   0  0  0  0  0  0  0  0  0  0  0  0
    7.1321    0.9418    3.2049 H   0  0  0  0  0  0  0  0  0  0  0  0
    6.6945   -0.5640    2.4090 H   0  0  0  0  0  0  0  0  0  0  0  0
    6.4365    1.2998    0.9271 H   0  0  0  0  0  0  0  0  0  0  0  0
    8.0446    1.9514    1.2811 H   0  0  0  0  0  0  0  0  0  0  0  0
    8.0195    1.1058   -0.9264 H   0  0  0  0  0  0  0  0  0  0  0  0
   10.0392    1.7875    0.7397 H   0  0  0  0  0  0  0  0  0  0  0  0
   12.0300   -0.3479    1.1062 H   0  0  0  0  0  0  0  0  0  0  0  0
   12.1743    0.3127   -0.5584 H   0  0  0  0  0  0  0  0  0  0  0  0
   11.9509    3.7824    0.7830 H   0  0  0  0  0  0  0  0  0  0  0  0
   11.1586    2.9234    2.1165 H   0  0  0  0  0  0  0  0  0  0  0  0
    6.5655   -1.2222    0.1354 H   0  0  0  0  0  0  0  0  0  0  0  0
    6.0473   -2.8609   -1.8587 H   0  0  0  0  0  0  0  0  0  0  0  0
    7.1495   -2.6338   -4.2322 H   0  0  0  0  0  0  0  0  0  0  0  0
    5.4555   -3.1901   -4.1471 H   0  0  0  0  0  0  0  0  0  0  0  0
    6.4609   -0.3267   -4.7438 H   0  0  0  0  0  0  0  0  0  0  0  0
    5.3723   -1.3942   -5.6652 H   0  0  0  0  0  0  0  0  0  0  0  0
    4.5584    0.4395   -3.6432 H   0  0  0  0  0  0  0  0  0  0  0  0
    3.6185   -0.9549   -4.3416 H   0  0  0  0  0  0  0  0  0  0  0  0
    2.4055   -0.5202   -0.1280 H   0  0  0  0  0  0  0  0  0  0  0  0
    0.4379   -1.4441   -1.1365 H   0  0  0  0  0  0  0  0  0  0  0  0
    1.3459   -2.3930   -2.3114 H   0  0  0  0  0  0  0  0  0  0  0  0
    0.1902   -2.8274    3.8869 H   0  0  0  0  0  0  0  0  0  0  0  0
   -0.4054   -4.1083    2.8469 H   0  0  0  0  0  0  0  0  0  0  0  0
   -0.8735   -1.1051    2.5367 H   0  0  0  0  0  0  0  0  0  0  0  0
   -2.4600   -1.3303    3.8566 H   0  0  0  0  0  0  0  0  0  0  0  0
   -1.7646   -2.7803    4.3412 H   0  0  0  0  0  0  0  0  0  0  0  0
   -3.8262   -2.5039    2.1212 H   0  0  0  0  0  0  0  0  0  0  0  0
   -3.3656   -3.0041   -0.8852 H   0  0  0  0  0  0  0  0  0  0  0  0
   -5.8240   -3.8694    0.7910 H   0  0  0  0  0  0  0  0  0  0  0  0
   -5.5363   -4.1518   -0.9520 H   0  0  0  0  0  0  0  0  0  0  0  0
   -4.5678   -5.0667    2.5685 H   0  0  0  0  0  0  0  0  0  0  0  0
   -3.4035   -7.1522    3.0648 H   0  0  0  0  0  0  0  0  0  0  0  0
   -2.4886   -8.5996    1.2526 H   0  0  0  0  0  0  0  0  0  0  0  0
   -2.7599   -7.9449   -1.0716 H   0  0  0  0  0  0  0  0  0  0  0  0
   -3.9191   -5.8748   -1.6466 H   0  0  0  0  0  0  0  0  0  0  0  0
   -5.2402   -2.2602   -2.3162 H   0  0  0  0  0  0  0  0  0  0  0  0
   -6.0627   -0.4108   -3.2837 H   0  0  0  0  0  0  0  0  0  0  0  0
   -3.6083    0.2154   -1.1954 H   0  0  0  0  0  0  0  0  0  0  0  0
   -3.6246    3.1200   -1.9989 H   0  0  0  0  0  0  0  0  0  0  0  0
   -0.7475    3.5752   -1.1522 H   0  0  0  0  0  0  0  0  0  0  0  0
    0.2201    1.7570   -3.3557 H   0  0  0  0  0  0  0  0  0  0  0  0
    2.3084    0.3990   -3.0209 H   0  0  0  0  0  0  0  0  0  0  0  0
    1.7162    3.7863   -1.4880 H   0  0  0  0  0  0  0  0  0  0  0  0
    1.1416    4.1767   -3.1045 H   0  0  0  0  0  0  0  0  0  0  0  0
    2.7799    1.8516   -4.9178 H   0  0  0  0  0  0  0  0  0  0  0  0
    2.8581    3.6913   -5.1035 H   0  0  0  0  0  0  0  0  0  0  0  0
   -2.4553    3.7866   -0.0903 H   0  0  0  0  0  0  0  0  0  0  0  0
   -2.6308    2.2288    0.7617 H   0  0  0  0  0  0  0  0  0  0  0  0
   -3.3058    4.4674    2.1972 H   0  0  0  0  0  0  0  0  0  0  0  0
   -5.9531    5.3096    1.5707 H   0  0  0  0  0  0  0  0  0  0  0  0
   -6.1536    3.8404    2.5408 H   0  0  0  0  0  0  0  0  0  0  0  0
   -4.6530    5.1096    4.3521 H   0  0  0  0  0  0  0  0  0  0  0  0
   -4.7004    6.5070    3.2113 H   0  0  0  0  0  0  0  0  0  0  0  0
   -7.6372    4.3517    3.6746 H   0  0  0  0  0  0  0  0  0  0  0  0
   -6.8487    4.4520    5.3516 H   0  0  0  0  0  0  0  0  0  0  0  0
   -8.1887    6.3331    5.8581 H   0  0  0  0  0  0  0  0  0  0  0  0
   -9.1935    4.8417    5.3698 H   0  0  0  0  0  0  0  0  0  0  0  0
   -8.5904    7.2433    3.8947 H   0  0  0  0  0  0  0  0  0  0  0  0
   -7.8562    0.8439   -2.2678 H   0  0  0  0  0  0  0  0  0  0  0  0
   -7.8567   -1.2279    0.0187 H   0  0  0  0  0  0  0  0  0  0  0  0
   -7.6982    0.6076    0.1324 H   0  0  0  0  0  0  0  0  0  0  0  0
   -9.9153    0.6108   -1.2603 H   0  0  0  0  0  0  0  0  0  0  0  0
   -9.9587   -1.1159   -0.7799 H   0  0  0  0  0  0  0  0  0  0  0  0
   -9.9556    0.1000    0.5062 H   0  0  0  0  0  0  0  0  0  0  0  0
   -9.2883   -0.6943   -3.0874 H   0  0  0  0  0  0  0  0  0  0  0  0
   -7.7381   -1.2542   -3.7203 H   0  0  0  0  0  0  0  0  0  0  0  0
   -8.4635   -2.1073   -2.2551 H   0  0  0  0  0  0  0  0  0  0  0  0
  1  2  1  0
  2  3  1  0
  3  4  1  0
  4  5  1  0
  5  6  1  0
  6  7  2  0
  6  8  1  0
  8  9  1  0
  9 10  1  0
 10 11  2  0
 10 12  1  0
  5 13  1  0
 13 14  1  0
 14 15  2  0
 14 16  1  0
 16 17  1  0
 17 18  1  0
 18 19  1  0
 19 20  1  0
 20 21  1  0
 21 22  2  0
 21 23  1  0
 23 24  1  0
 24 25  1  0
 25 26  1  0
 26 27  1  0
 27 28  1  0
 28 29  1  0
 28 30  1  0
 30 31  2  0
 30 32  1  0
 32 33  1  0
 33 34  1  0
 34 35  1  0
 35 36  2  0
 36 37  1  0
 37 38  2  0
 38 39  1  0
 39 40  2  0
 33 41  1  0
 41 42  2  0
 41 43  1  0
 43 44  1  0
 44 45  1  0
 45 46  2  0
 45 47  1  0
 47 48  1  0
 48 49  1  0
 49 50  2  0
 49 51  1  0
 51 52  1  0
 52 53  1  0
 53 54  2  0
 53 55  1  0
 52 56  1  0
 56 57  1  0
 57 58  2  0
 57 59  1  0
 48 60  1  0
 60 61  1  0
 61 62  2  0
 61 63  1  0
 63 64  1  0
 64 65  1  0
 65 66  1  0
 66 67  1  0
 67 68  1  0
 68 69  1  0
 44 70  1  0
 70 71  1  0
 71 72  1  0
 70 73  1  0
 20 16  1  0
 55 23  1  0
 40 35  1  0
  1 74  1  0
  1 75  1  0
  2 76  1  0
  2 77  1  0
  3 78  1  0
  3 79  1  0
  4 80  1  0
  4 81  1  0
  5 82  1  6
  8 83  1  0
  9 84  1  0
  9 85  1  0
 12 86  1  0
 12 87  1  0
 13 88  1  0
 16 89  1  1
 17 90  1  0
 17 91  1  0
 18 92  1  0
 18 93  1  0
 19 94  1  0
 19 95  1  0
 23 96  1  1
 24 97  1  0
 24 98  1  0
 27 99  1  0
 27100  1  0
 28101  1  6
 29102  1  0
 29103  1  0
 32104  1  0
 33105  1  6
 34106  1  0
 34107  1  0
 36108  1  0
 37109  1  0
 38110  1  0
 39111  1  0
 40112  1  0
 43113  1  0
 44114  1  6
 47115  1  0
 48116  1  6
 51117  1  0
 52118  1  6
 55119  1  0
 56120  1  0
 56121  1  0
 59122  1  0
 59123  1  0
 60124  1  0
 60125  1  0
 63126  1  0
 64127  1  0
 64128  1  0
 65129  1  0
 65130  1  0
 67131  1  0
 67132  1  0
 68133  1  0
 68134  1  0
 69135  1  0
 70136  1  6
 71137  1  0
 71138  1  0
 72139  1  0
 72140  1  0
 72141  1  0
 73142  1  0
 73143  1  0
 73144  1  0
M  END
>  <Ligand ID>  (1) 
LIG0001592

>  <Ligand>  (1) 
CHEMBL1817701

>  <SMILES>  (1) 
NCCC[C@@H](C(=O)NCC(=O)N)NC(=O)[C@@H]1CCCN1C(=O)[C@@H]1CSSC[C@H](N)C(=O)N[C@@H](Cc2ccccc2)C(=O)N[C@H](C(=O)N[C@H](C(=O)N[C@H](C(=O)N1)CC(=O)N)CC(=O)NCCOCCO)[C@H](CC)C

>  <CID>  (1) 
53362369.0

>  <ChEMBL ID>  (1) 
nan

>  <InChiKey>  (1) 
ZSJMMGZUABBAPA-HOHGFJJGSA-N

>  <InChi>  (1) 
InChI=1S/C45H71N13O13S2/c1-3-25(2)37-44(69)55-31(21-36(62)50-14-17-71-18-16-59)41(66)54-30(20-34(48)60)40(65)56-32(24-73-72-23-27(47)38(63)53-29(42(67)57-37)19-26-9-5-4-6-10-26)45(70)58-15-8-12-33(58)43(68)52-28(11-7-13-46)39(64)51-22-35(49)61/h4-6,9-10,25,27-33,37,59H,3,7-8,11-24,46-47H2,1-2H3,(H2,48,60)(H2,49,61)(H,50,62)(H,51,64)(H,52,68)(H,53,63)(H,54,66)(H,55,69)(H,56,65)(H,57,67)/t25-,27-,28-,29-,30-,31-,32-,33-,37-/m0/s1

>  <IUPAC Name>  (1) 
(2S)-N-[(2S)-5-amino-1-[(2-amino-2-oxoethyl)amino]-1-oxopentan-2-yl]-1-[(4R,7S,10S,13S,16S,19R)-19-amino-7-(2-amino-2-oxoethyl)-16-benzyl-13-[(2S)-butan-2-yl]-10-[2-[2-(2-hydroxyethoxy)ethylamino]-2-oxoethyl]-6,9,12,15,18-pentaoxo-1,2-dithia-5,8,11,14,17-pentazacycloicosane-4-carbonyl]pyrrolidine-2-carboxamide

$$$$
