
     RDKit          3D

 87 91  0  0  0  0  0  0  0  0999 V2000
   -1.7474   -1.1008    2.3736 O   0  0  0  0  0  0  0  0  0  0  0  0
   -1.7713   -1.0448    1.0971 C   0  0  0  0  0  0  0  0  0  0  0  0
   -1.8673   -2.3085    0.3704 C   0  0  0  0  0  0  0  0  0  0  0  0
   -3.0347   -2.3754   -0.5509 C   0  0  0  0  0  0  0  0  0  0  0  0
   -4.1704   -3.1059    0.1603 C   0  0  0  0  0  0  0  0  0  0  0  0
   -3.7277   -4.5606    0.2355 C   0  0  0  0  0  0  0  0  0  0  0  0
   -2.3104   -4.6448    0.7657 C   0  0  0  0  0  0  0  0  0  0  0  0
   -1.8900   -3.3826    1.3424 N   0  0  0  0  0  0  0  0  0  0  0  0
   -1.6998    0.2446    0.4479 N   0  0  0  0  0  0  0  0  0  0  0  0
   -1.5941    1.4580    1.1745 C   0  0  1  0  0  0  0  0  0  0  0  0
   -0.4089    2.2827    0.9920 C   0  0  0  0  0  0  0  0  0  0  0  0
   -0.4352    3.4211    1.5973 O   0  0  0  0  0  0  0  0  0  0  0  0
    0.7514    2.0123    0.2522 N   0  0  0  0  0  0  0  0  0  0  0  0
    1.1211    0.7811   -0.4887 C   0  0  0  0  0  0  0  0  0  0  0  0
    2.5134    0.5500    0.0817 C   0  0  2  0  0  0  0  0  0  0  0  0
    3.0859    1.9210    0.1553 C   0  0  0  0  0  0  0  0  0  0  0  0
    1.9232    2.8528   -0.0215 C   0  0  1  0  0  0  0  0  0  0  0  0
    1.8695    3.4224   -1.4222 C   0  0  0  0  0  0  0  0  0  0  0  0
    0.6596    4.2968   -1.5659 C   0  0  0  0  0  0  0  0  0  0  0  0
    0.7633    5.5001   -0.6718 C   0  0  0  0  0  0  0  0  0  0  0  0
   -0.4151    6.3515   -0.7807 N   0  0  0  0  0  0  0  0  0  0  0  0
   -0.4458    7.5556   -0.3284 C   0  0  0  0  0  0  0  0  0  0  0  0
    0.7288    8.0797    0.3108 N   0  0  0  0  0  0  0  0  0  0  0  0
   -1.6329    8.3125   -0.4804 N   0  0  0  0  0  0  0  0  0  0  0  0
    3.2496   -0.3821   -0.6323 O   0  0  0  0  0  0  0  0  0  0  0  0
    3.5302   -1.4040    0.3092 C   0  0  0  0  0  0  0  0  0  0  0  0
    4.2861   -2.5240   -0.2499 C   0  0  0  0  0  0  0  0  0  0  0  0
    5.6703   -2.5870   -0.2958 C   0  0  0  0  0  0  0  0  0  0  0  0
    6.2469   -3.7099   -0.8439 C   0  0  0  0  0  0  0  0  0  0  0  0
    5.5420   -4.7701   -1.3489 C   0  0  0  0  0  0  0  0  0  0  0  0
    4.1639   -4.7091   -1.3052 C   0  0  0  0  0  0  0  0  0  0  0  0
    3.5670   -3.5964   -0.7610 C   0  0  0  0  0  0  0  0  0  0  0  0
    3.3454   -5.7143   -1.7827 C   0  0  0  0  0  0  0  0  0  0  0  0
    3.9429   -6.8425   -2.3345 C   0  0  0  0  0  0  0  0  0  0  0  0
    5.3275   -6.9390   -2.3948 C   0  0  0  0  0  0  0  0  0  0  0  0
    6.1109   -5.8929   -1.8971 C   0  0  0  0  0  0  0  0  0  0  0  0
   -2.8535    2.2898    0.9458 C   0  0  0  0  0  0  0  0  0  0  0  0
   -4.0381    1.5429    1.4051 C   0  0  0  0  0  0  0  0  0  0  0  0
   -4.4101    1.6530    2.7379 C   0  0  0  0  0  0  0  0  0  0  0  0
   -5.5148    0.9969    3.2550 C   0  0  0  0  0  0  0  0  0  0  0  0
   -6.2543    0.2120    2.3941 C   0  0  0  0  0  0  0  0  0  0  0  0
   -5.8979    0.0953    1.0810 C   0  0  0  0  0  0  0  0  0  0  0  0
   -4.8094    0.7429    0.5723 C   0  0  0  0  0  0  0  0  0  0  0  0
   -0.9196   -2.4216   -0.2123 H   0  0  0  0  0  0  0  0  0  0  0  0
   -3.3230   -1.3495   -0.8345 H   0  0  0  0  0  0  0  0  0  0  0  0
   -2.7980   -2.9848   -1.4509 H   0  0  0  0  0  0  0  0  0  0  0  0
   -5.1355   -3.0030   -0.3500 H   0  0  0  0  0  0  0  0  0  0  0  0
   -4.2136   -2.6743    1.1863 H   0  0  0  0  0  0  0  0  0  0  0  0
   -3.7338   -4.9472   -0.8063 H   0  0  0  0  0  0  0  0  0  0  0  0
   -4.4563   -5.1089    0.8310 H   0  0  0  0  0  0  0  0  0  0  0  0
   -1.6170   -4.9481   -0.0173 H   0  0  0  0  0  0  0  0  0  0  0  0
   -2.3308   -5.3712    1.5987 H   0  0  0  0  0  0  0  0  0  0  0  0
   -2.3999   -3.1231    2.2068 H   0  0  0  0  0  0  0  0  0  0  0  0
   -1.7374    0.2989   -0.6117 H   0  0  0  0  0  0  0  0  0  0  0  0
   -1.6290    1.2513    2.3002 H   0  0  0  0  0  0  0  0  0  0  0  0
    1.1140    0.9548   -1.5746 H   0  0  0  0  0  0  0  0  0  0  0  0
    0.5340   -0.0840   -0.2172 H   0  0  0  0  0  0  0  0  0  0  0  0
    2.3543    0.2149    1.1438 H   0  0  0  0  0  0  0  0  0  0  0  0
    3.8166    2.0527   -0.7112 H   0  0  0  0  0  0  0  0  0  0  0  0
    3.6296    2.1072    1.1147 H   0  0  0  0  0  0  0  0  0  0  0  0
    2.0265    3.6393    0.7401 H   0  0  0  0  0  0  0  0  0  0  0  0
    1.8889    2.6839   -2.2214 H   0  0  0  0  0  0  0  0  0  0  0  0
    2.7503    4.0962   -1.6089 H   0  0  0  0  0  0  0  0  0  0  0  0
    0.4842    4.6022   -2.6298 H   0  0  0  0  0  0  0  0  0  0  0  0
   -0.2857    3.7535   -1.2690 H   0  0  0  0  0  0  0  0  0  0  0  0
    0.9442    5.2838    0.3796 H   0  0  0  0  0  0  0  0  0  0  0  0
    1.6125    6.1184   -1.1041 H   0  0  0  0  0  0  0  0  0  0  0  0
    1.5763    8.1396   -0.3135 H   0  0  0  0  0  0  0  0  0  0  0  0
    0.7383    8.3771    1.3136 H   0  0  0  0  0  0  0  0  0  0  0  0
   -2.5387    7.8287   -0.6380 H   0  0  0  0  0  0  0  0  0  0  0  0
   -1.5437    9.3691   -0.4250 H   0  0  0  0  0  0  0  0  0  0  0  0
    4.0769   -0.8711    1.1233 H   0  0  0  0  0  0  0  0  0  0  0  0
    2.5501   -1.7055    0.7318 H   0  0  0  0  0  0  0  0  0  0  0  0
    6.2185   -1.7639    0.0972 H   0  0  0  0  0  0  0  0  0  0  0  0
    7.3362   -3.7766   -0.8843 H   0  0  0  0  0  0  0  0  0  0  0  0
    2.4660   -3.5597   -0.7291 H   0  0  0  0  0  0  0  0  0  0  0  0
    2.2618   -5.6541   -1.7418 H   0  0  0  0  0  0  0  0  0  0  0  0
    3.3109   -7.6483   -2.7171 H   0  0  0  0  0  0  0  0  0  0  0  0
    5.7765   -7.8168   -2.8239 H   0  0  0  0  0  0  0  0  0  0  0  0
    7.1940   -5.9391   -1.9300 H   0  0  0  0  0  0  0  0  0  0  0  0
   -2.9923    2.5766   -0.0997 H   0  0  0  0  0  0  0  0  0  0  0  0
   -2.7603    3.2165    1.5815 H   0  0  0  0  0  0  0  0  0  0  0  0
   -3.8258    2.2703    3.4036 H   0  0  0  0  0  0  0  0  0  0  0  0
   -5.8033    1.0888    4.3070 H   0  0  0  0  0  0  0  0  0  0  0  0
   -7.1319   -0.3235    2.7514 H   0  0  0  0  0  0  0  0  0  0  0  0
   -6.4738   -0.5235    0.3893 H   0  0  0  0  0  0  0  0  0  0  0  0
   -4.4809    0.6938   -0.4577 H   0  0  0  0  0  0  0  0  0  0  0  0
  1  2  2  0
  2  3  1  0
  3  4  1  0
  4  5  1  0
  5  6  1  0
  6  7  1  0
  7  8  1  0
  2  9  1  0
  9 10  1  0
 10 11  1  0
 11 12  2  0
 11 13  1  0
 13 14  1  0
 14 15  1  0
 15 16  1  0
 16 17  1  0
 17 18  1  0
 18 19  1  0
 19 20  1  0
 20 21  1  0
 21 22  2  3
 22 23  1  0
 22 24  1  0
 15 25  1  0
 25 26  1  0
 26 27  1  0
 27 28  2  0
 28 29  1  0
 29 30  2  0
 30 31  1  0
 31 32  2  0
 31 33  1  0
 33 34  2  0
 34 35  1  0
 35 36  2  0
 10 37  1  0
 37 38  1  0
 38 39  2  0
 39 40  1  0
 40 41  2  0
 41 42  1  0
 42 43  2  0
  8  3  1  0
 17 13  1  0
 32 27  1  0
 43 38  1  0
 36 30  1  0
  3 44  1  0
  4 45  1  0
  4 46  1  0
  5 47  1  0
  5 48  1  0
  6 49  1  0
  6 50  1  0
  7 51  1  0
  7 52  1  0
  8 53  1  0
  9 54  1  0
 10 55  1  1
 14 56  1  0
 14 57  1  0
 15 58  1  1
 16 59  1  0
 16 60  1  0
 17 61  1  1
 18 62  1  0
 18 63  1  0
 19 64  1  0
 19 65  1  0
 20 66  1  0
 20 67  1  0
 23 68  1  0
 23 69  1  0
 24 70  1  0
 24 71  1  0
 26 72  1  0
 26 73  1  0
 28 74  1  0
 29 75  1  0
 32 76  1  0
 33 77  1  0
 34 78  1  0
 35 79  1  0
 36 80  1  0
 37 81  1  0
 37 82  1  0
 39 83  1  0
 40 84  1  0
 41 85  1  0
 42 86  1  0
 43 87  1  0
M  END
>  <Ligand ID>  (1) 
LIG0003117

>  <Ligand>  (1) 
CHEMBL210009

>  <SMILES>  (1) 
O=C(C1CCCCN1)N[C@@H](C(=O)N1C[C@H](C[C@H]1CCCN=C(N)N)OCc1ccc2c(c1)cccc2)Cc1ccccc1

>  <CID>  (1) 
44413832.0

>  <ChEMBL ID>  (1) 
nan

>  <InChiKey>  (1) 
AIBOPTDBFGOAQA-VHBSPPJTSA-N

>  <InChi>  (1) 
InChI=1S/C34H44N6O3/c35-34(36)38-18-8-13-28-21-29(43-23-25-15-16-26-11-4-5-12-27(26)19-25)22-40(28)33(42)31(20-24-9-2-1-3-10-24)39-32(41)30-14-6-7-17-37-30/h1-5,9-12,15-16,19,28-31,37H,6-8,13-14,17-18,20-23H2,(H,39,41)(H4,35,36,38)/t28-,29+,30?,31-/m1/s1

>  <IUPAC Name>  (1) 
N-[(2R)-1-[(2R,4S)-2-[3-(diaminomethylideneamino)propyl]-4-(naphthalen-2-ylmethoxy)pyrrolidin-1-yl]-1-oxo-3-phenylpropan-2-yl]piperidine-2-carboxamide

$$$$
