
     RDKit          3D

 94 98  0  0  0  0  0  0  0  0999 V2000
   -1.1233    6.9944   -0.7957 N   0  0  0  0  0  0  0  0  0  0  0  0
   -1.6153    5.7017   -0.4383 C   0  0  0  0  0  0  0  0  0  0  0  0
   -1.1577    4.6928   -1.0782 N   0  0  0  0  0  0  0  0  0  0  0  0
   -1.5579    3.3204   -0.8321 C   0  0  0  0  0  0  0  0  0  0  0  0
   -1.2405    2.4382   -2.0208 C   0  0  0  0  0  0  0  0  0  0  0  0
   -1.6318    0.9971   -1.8163 C   0  0  0  0  0  0  0  0  0  0  0  0
   -0.9573    0.3573   -0.6622 C   0  0  1  0  0  0  0  0  0  0  0  0
   -1.3513   -1.0816   -0.4779 C   0  0  0  0  0  0  0  0  0  0  0  0
   -0.3745   -1.8750   -0.2683 O   0  0  0  0  0  0  0  0  0  0  0  0
   -2.6941   -1.5210   -0.5305 N   0  0  0  0  0  0  0  0  0  0  0  0
   -2.9792   -2.9637   -0.3214 C   0  0  2  0  0  0  0  0  0  0  0  0
   -3.5225   -3.4815   -1.5812 C   0  0  0  0  0  0  0  0  0  0  0  0
   -3.7736   -4.7007   -1.7920 O   0  0  0  0  0  0  0  0  0  0  0  0
   -3.8168   -2.6094   -2.6964 N   0  0  0  0  0  0  0  0  0  0  0  0
   -3.8555   -3.1297    0.8747 C   0  0  0  0  0  0  0  0  0  0  0  0
   -5.1261   -2.4039    0.7019 C   0  0  0  0  0  0  0  0  0  0  0  0
   -5.2970   -1.0956    1.1598 C   0  0  0  0  0  0  0  0  0  0  0  0
   -6.5173   -0.6877    0.8127 N   0  0  0  0  0  0  0  0  0  0  0  0
   -7.1919   -1.6385    0.1462 C   0  0  0  0  0  0  0  0  0  0  0  0
   -6.3053   -2.7135    0.0845 C   0  0  0  0  0  0  0  0  0  0  0  0
   -6.7354   -3.8430   -0.5338 C   0  0  0  0  0  0  0  0  0  0  0  0
   -7.9850   -3.9300   -1.0807 C   0  0  0  0  0  0  0  0  0  0  0  0
   -8.8722   -2.8714   -1.0294 C   0  0  0  0  0  0  0  0  0  0  0  0
   -8.4649   -1.7086   -0.4041 C   0  0  0  0  0  0  0  0  0  0  0  0
    0.4647    0.5066   -0.6034 N   0  0  0  0  0  0  0  0  0  0  0  0
    1.1916    0.7448    0.6193 C   0  0  0  0  0  0  0  0  0  0  0  0
    0.6257    0.8282    1.7317 O   0  0  0  0  0  0  0  0  0  0  0  0
    2.6760    0.8812    0.4404 C   0  0  0  0  0  0  0  0  0  0  0  0
    2.9178    2.3279    0.0103 C   0  0  0  0  0  0  0  0  0  0  0  0
    2.7619    3.2763    1.1196 C   0  0  0  0  0  0  0  0  0  0  0  0
    2.5058    4.6041    0.8594 C   0  0  0  0  0  0  0  0  0  0  0  0
    2.3485    5.5487    1.8801 C   0  0  0  0  0  0  0  0  0  0  0  0
    2.4517    5.1477    3.2002 C   0  0  0  0  0  0  0  0  0  0  0  0
    2.7074    3.8250    3.4763 C   0  0  0  0  0  0  0  0  0  0  0  0
    2.8617    2.8934    2.4387 C   0  0  0  0  0  0  0  0  0  0  0  0
    3.1362    1.5020    2.8755 C   0  0  0  0  0  0  0  0  0  0  0  0
    3.3908    0.7188    1.6843 N   0  0  0  0  0  0  0  0  0  0  0  0
    4.4379   -0.2476    1.7802 C   0  0  0  0  0  0  0  0  0  0  0  0
    5.0964   -0.3325    2.8479 O   0  0  0  0  0  0  0  0  0  0  0  0
    4.8052   -1.1689    0.6849 C   0  0  2  0  0  0  0  0  0  0  0  0
    3.7422   -2.2814    0.6725 C   0  0  0  0  0  0  0  0  0  0  0  0
    4.0706   -3.2235   -0.4204 C   0  0  0  0  0  0  0  0  0  0  0  0
    4.8279   -4.3330   -0.4193 N   0  0  0  0  0  0  0  0  0  0  0  0
    4.8225   -4.8459   -1.6621 C   0  0  0  0  0  0  0  0  0  0  0  0
    4.0772   -4.0855   -2.4540 N   0  0  0  0  0  0  0  0  0  0  0  0
    3.5900   -3.0662   -1.7265 C   0  0  0  0  0  0  0  0  0  0  0  0
    6.0624   -1.8710    1.0084 N   0  0  0  0  0  0  0  0  0  0  0  0
    7.0462   -1.8631   -0.0237 C   0  0  0  0  0  0  0  0  0  0  0  0
    6.8033   -1.2850   -1.1154 O   0  0  0  0  0  0  0  0  0  0  0  0
    8.3706   -2.5089    0.1118 C   0  0  0  0  0  0  0  0  0  0  0  0
   -2.5739    5.4807    0.5801 N   0  0  0  0  0  0  0  0  0  0  0  0
   -1.7989    7.6497   -1.2612 H   0  0  0  0  0  0  0  0  0  0  0  0
   -0.1410    7.2030   -0.5765 H   0  0  0  0  0  0  0  0  0  0  0  0
   -1.0257    2.9286    0.0775 H   0  0  0  0  0  0  0  0  0  0  0  0
   -2.6347    3.3017   -0.6463 H   0  0  0  0  0  0  0  0  0  0  0  0
   -0.2159    2.5732   -2.4057 H   0  0  0  0  0  0  0  0  0  0  0  0
   -1.9221    2.8126   -2.8412 H   0  0  0  0  0  0  0  0  0  0  0  0
   -2.7436    1.0210   -1.6272 H   0  0  0  0  0  0  0  0  0  0  0  0
   -1.5280    0.4379   -2.7596 H   0  0  0  0  0  0  0  0  0  0  0  0
   -1.3434    0.8354    0.2928 H   0  0  0  0  0  0  0  0  0  0  0  0
   -3.4553   -0.8416   -0.7147 H   0  0  0  0  0  0  0  0  0  0  0  0
   -1.9648   -3.3958   -0.0924 H   0  0  0  0  0  0  0  0  0  0  0  0
   -4.7526   -2.5516   -3.1291 H   0  0  0  0  0  0  0  0  0  0  0  0
   -2.9785   -2.0437   -3.0175 H   0  0  0  0  0  0  0  0  0  0  0  0
   -4.0545   -4.2312    1.0226 H   0  0  0  0  0  0  0  0  0  0  0  0
   -3.2898   -2.7267    1.7478 H   0  0  0  0  0  0  0  0  0  0  0  0
   -4.5795   -0.4920    1.7051 H   0  0  0  0  0  0  0  0  0  0  0  0
   -6.9323    0.2479    1.0163 H   0  0  0  0  0  0  0  0  0  0  0  0
   -6.0961   -4.6919   -0.5821 H   0  0  0  0  0  0  0  0  0  0  0  0
   -8.2743   -4.8558   -1.5625 H   0  0  0  0  0  0  0  0  0  0  0  0
   -9.8616   -2.8944   -1.4448 H   0  0  0  0  0  0  0  0  0  0  0  0
   -9.1245   -0.8268   -0.3300 H   0  0  0  0  0  0  0  0  0  0  0  0
    0.9868    0.4298   -1.5186 H   0  0  0  0  0  0  0  0  0  0  0  0
    3.0717    0.2156   -0.3457 H   0  0  0  0  0  0  0  0  0  0  0  0
    3.9105    2.3427   -0.4832 H   0  0  0  0  0  0  0  0  0  0  0  0
    2.1703    2.4973   -0.8140 H   0  0  0  0  0  0  0  0  0  0  0  0
    2.4271    4.8998   -0.1975 H   0  0  0  0  0  0  0  0  0  0  0  0
    2.1458    6.6027    1.6425 H   0  0  0  0  0  0  0  0  0  0  0  0
    2.3416    5.8226    4.0395 H   0  0  0  0  0  0  0  0  0  0  0  0
    2.7895    3.5090    4.5262 H   0  0  0  0  0  0  0  0  0  0  0  0
    3.9846    1.4521    3.5914 H   0  0  0  0  0  0  0  0  0  0  0  0
    2.2573    1.0388    3.3956 H   0  0  0  0  0  0  0  0  0  0  0  0
    4.8437   -0.7530   -0.3072 H   0  0  0  0  0  0  0  0  0  0  0  0
    2.7268   -1.8858    0.5473 H   0  0  0  0  0  0  0  0  0  0  0  0
    3.7956   -2.8481    1.6353 H   0  0  0  0  0  0  0  0  0  0  0  0
    5.3236   -4.6999    0.4386 H   0  0  0  0  0  0  0  0  0  0  0  0
    5.3404   -5.7519   -2.0107 H   0  0  0  0  0  0  0  0  0  0  0  0
    2.9434   -2.2769   -2.1053 H   0  0  0  0  0  0  0  0  0  0  0  0
    6.2188   -2.3390    1.9231 H   0  0  0  0  0  0  0  0  0  0  0  0
    9.1275   -1.7050   -0.1371 H   0  0  0  0  0  0  0  0  0  0  0  0
    8.4903   -3.3581   -0.5961 H   0  0  0  0  0  0  0  0  0  0  0  0
    8.6095   -2.8634    1.1190 H   0  0  0  0  0  0  0  0  0  0  0  0
   -2.3273    5.6351    1.5747 H   0  0  0  0  0  0  0  0  0  0  0  0
   -3.5323    5.1565    0.2615 H   0  0  0  0  0  0  0  0  0  0  0  0
  1  2  1  0
  2  3  2  3
  3  4  1  0
  4  5  1  0
  5  6  1  0
  6  7  1  0
  7  8  1  0
  8  9  2  0
  8 10  1  0
 10 11  1  0
 11 12  1  0
 12 13  2  0
 12 14  1  0
 11 15  1  0
 15 16  1  0
 16 17  2  0
 17 18  1  0
 18 19  1  0
 19 20  2  0
 20 21  1  0
 21 22  2  0
 22 23  1  0
 23 24  2  0
  7 25  1  0
 25 26  1  0
 26 27  2  0
 26 28  1  0
 28 29  1  0
 29 30  1  0
 30 31  2  0
 31 32  1  0
 32 33  2  0
 33 34  1  0
 34 35  2  0
 35 36  1  0
 36 37  1  0
 37 38  1  0
 38 39  2  0
 38 40  1  0
 40 41  1  0
 41 42  1  0
 42 43  1  0
 43 44  1  0
 44 45  2  0
 45 46  1  0
 40 47  1  0
 47 48  1  0
 48 49  2  0
 48 50  1  0
  2 51  1  0
 20 16  1  0
 37 28  1  0
 46 42  2  0
 24 19  1  0
 35 30  1  0
  1 52  1  0
  1 53  1  0
  4 54  1  0
  4 55  1  0
  5 56  1  0
  5 57  1  0
  6 58  1  0
  6 59  1  0
  7 60  1  1
 10 61  1  0
 11 62  1  1
 14 63  1  0
 14 64  1  0
 15 65  1  0
 15 66  1  0
 17 67  1  0
 18 68  1  0
 21 69  1  0
 22 70  1  0
 23 71  1  0
 24 72  1  0
 25 73  1  0
 28 74  1  0
 29 75  1  0
 29 76  1  0
 31 77  1  0
 32 78  1  0
 33 79  1  0
 34 80  1  0
 36 81  1  0
 36 82  1  0
 40 83  1  6
 41 84  1  0
 41 85  1  0
 43 86  1  0
 44 87  1  0
 46 88  1  0
 47 89  1  0
 50 90  1  0
 50 91  1  0
 50 92  1  0
 51 93  1  0
 51 94  1  0
M  END
>  <Ligand ID>  (1) 
LIG0001445

>  <Ligand>  (1) 
BDBM50115367

>  <SMILES>  (1) 
NC(=NCCC[C@@H](C(=O)N[C@H](C(=O)N)Cc1c[nH]c2c1cccc2)NC(=O)C1Cc2ccccc2CN1C(=O)[C@H](Cc1[nH]cnc1)NC(=O)C)N

>  <CID>  (1) 
44334946.0

>  <ChEMBL ID>  (1) 
nan

>  <InChiKey>  (1) 
DOONUQVQAZPUIE-UNVCSADESA-N

>  <InChi>  (1) 
InChI=1S/C35H43N11O5/c1-20(47)43-29(15-24-17-39-19-42-24)34(51)46-18-22-8-3-2-7-21(22)14-30(46)33(50)44-27(11-6-12-40-35(37)38)32(49)45-28(31(36)48)13-23-16-41-26-10-5-4-9-25(23)26/h2-5,7-10,16-17,19,27-30,41H,6,11-15,18H2,1H3,(H2,36,48)(H,39,42)(H,43,47)(H,44,50)(H,45,49)(H4,37,38,40)/t27-,28-,29-,30?/m0/s1

>  <IUPAC Name>  (1) 
2-[(2S)-2-acetamido-3-(1H-imidazol-5-yl)propanoyl]-N-[(2S)-1-[[(2S)-1-amino-3-(1H-indol-3-yl)-1-oxopropan-2-yl]amino]-5-(diaminomethylideneamino)-1-oxopentan-2-yl]-3,4-dihydro-1H-isoquinoline-3-carboxamide

$$$$
