
     RDKit          3D

 37 39  0  0  0  0  0  0  0  0999 V2000
    0.3859   -2.9923    0.2606 O   0  0  0  0  0  0  0  0  0  0  0  0
   -0.0251   -1.7121    0.5725 C   0  0  2  0  0  0  0  0  0  0  0  0
   -1.5278   -1.6272    0.4731 C   0  0  2  0  0  0  0  0  0  0  0  0
   -2.0962   -2.8404    0.0939 O   0  0  0  0  0  0  0  0  0  0  0  0
   -1.8042   -0.5532   -0.5617 C   0  0  2  0  0  0  0  0  0  0  0  0
   -0.6785    0.2307   -0.4963 O   0  0  0  0  0  0  0  0  0  0  0  0
    0.3905   -0.6810   -0.4689 C   0  0  1  0  0  0  0  0  0  0  0  0
    1.5962   -0.0065   -0.0251 N   0  0  0  0  0  0  0  0  0  0  0  0
    1.5609    0.9505    0.9403 C   0  0  0  0  0  0  0  0  0  0  0  0
    2.8239    1.3962    1.1439 N   0  0  0  0  0  0  0  0  0  0  0  0
    3.6341    0.7189    0.3098 C   0  0  0  0  0  0  0  0  0  0  0  0
    2.8606   -0.1662   -0.4280 C   0  0  0  0  0  0  0  0  0  0  0  0
    3.4092   -0.9794   -1.3479 N   0  0  0  0  0  0  0  0  0  0  0  0
    4.7549   -0.9025   -1.5296 C   0  0  0  0  0  0  0  0  0  0  0  0
    5.5176   -0.0399   -0.8121 N   0  0  0  0  0  0  0  0  0  0  0  0
    4.9941    0.7755    0.1051 C   0  0  0  0  0  0  0  0  0  0  0  0
    5.7402    1.6958    0.8835 N   0  0  0  0  0  0  0  0  0  0  0  0
   -3.0625    0.1475   -0.1437 C   0  0  0  0  0  0  0  0  0  0  0  0
   -3.3673    1.2564   -0.9067 O   0  0  0  0  0  0  0  0  0  0  0  0
   -4.8207    1.8640   -0.2377 P   0  0  0  0  0  0  0  0  0  0  0  0
   -4.5207    2.2461    1.2047 O   0  0  0  0  0  0  0  0  0  0  0  0
   -6.0108    0.6628   -0.2515 O   0  0  0  0  0  0  0  0  0  0  0  0
   -5.3828    3.2088   -1.0697 O   0  0  0  0  0  0  0  0  0  0  0  0
    1.3709   -3.0243    0.4372 H   0  0  0  0  0  0  0  0  0  0  0  0
    0.3435   -1.3608    1.5576 H   0  0  0  0  0  0  0  0  0  0  0  0
   -1.9077   -1.2720    1.4393 H   0  0  0  0  0  0  0  0  0  0  0  0
   -3.0731   -2.6925    0.0268 H   0  0  0  0  0  0  0  0  0  0  0  0
   -1.8884   -0.9670   -1.5760 H   0  0  0  0  0  0  0  0  0  0  0  0
    0.5551   -1.1919   -1.4279 H   0  0  0  0  0  0  0  0  0  0  0  0
    0.6950    1.3204    1.4772 H   0  0  0  0  0  0  0  0  0  0  0  0
    5.2403   -1.5332   -2.2545 H   0  0  0  0  0  0  0  0  0  0  0  0
    5.9809    2.6060    0.4678 H   0  0  0  0  0  0  0  0  0  0  0  0
    6.0531    1.4744    1.8700 H   0  0  0  0  0  0  0  0  0  0  0  0
   -3.9005   -0.5672   -0.2289 H   0  0  0  0  0  0  0  0  0  0  0  0
   -2.9593    0.5112    0.8998 H   0  0  0  0  0  0  0  0  0  0  0  0
   -5.9036    0.0311    0.4903 H   0  0  0  0  0  0  0  0  0  0  0  0
   -4.9778    4.0132   -0.6534 H   0  0  0  0  0  0  0  0  0  0  0  0
  1  2  1  0
  2  3  1  0
  3  4  1  0
  3  5  1  0
  5  6  1  0
  6  7  1  0
  7  8  1  0
  8  9  1  0
  9 10  2  0
 10 11  1  0
 11 12  2  0
 12 13  1  0
 13 14  2  0
 14 15  1  0
 15 16  2  0
 16 17  1  0
  5 18  1  0
 18 19  1  0
 19 20  1  0
 20 21  2  0
 20 22  1  0
 20 23  1  0
  7  2  1  0
 12  8  1  0
 16 11  1  0
  1 24  1  0
  2 25  1  1
  3 26  1  1
  4 27  1  0
  5 28  1  6
  7 29  1  6
  9 30  1  0
 14 31  1  0
 17 32  1  0
 17 33  1  0
 18 34  1  0
 18 35  1  0
 22 36  1  0
 23 37  1  0
M  END
>  <Ligand ID>  (1) 
LIG0002848

>  <Ligand>  (1) 
adenosine 5'-monophosphate

>  <SMILES>  (1) 
O[C@@H]1[C@H](O)[C@H](O[C@H]1n1cnc2c1ncnc2N)COP(=O)(O)O

>  <CID>  (1) 
6083.0

>  <ChEMBL ID>  (1) 
nan

>  <InChiKey>  (1) 
UDMBCSSLTHHNCD-KQYNXXCUSA-N

>  <InChi>  (1) 
InChI=1S/C10H14N5O7P/c11-8-5-9(13-2-12-8)15(3-14-5)10-7(17)6(16)4(22-10)1-21-23(18,19)20/h2-4,6-7,10,16-17H,1H2,(H2,11,12,13)(H2,18,19,20)/t4-,6-,7-,10-/m1/s1

>  <IUPAC Name>  (1) 
[(2R,3S,4R,5R)-5-(6-aminopurin-9-yl)-3,4-dihydroxyoxolan-2-yl]methyl dihydrogen phosphate

$$$$
