
     RDKit          3D

 44 47  0  0  0  0  0  0  0  0999 V2000
   -2.6027    1.3602   -0.5743 C   0  0  0  0  0  0  0  0  0  0  0  0
   -3.7190    0.4687   -0.2275 C   0  0  0  0  0  0  0  0  0  0  0  0
   -4.8499    0.9965    0.3549 C   0  0  0  0  0  0  0  0  0  0  0  0
   -5.9358    0.2372    0.6818 C   0  0  0  0  0  0  0  0  0  0  0  0
   -5.9227   -1.1206    0.4275 C   0  0  0  0  0  0  0  0  0  0  0  0
   -4.7934   -1.6528   -0.1543 C   0  0  0  0  0  0  0  0  0  0  0  0
   -3.6835   -0.8805   -0.4887 C   0  0  0  0  0  0  0  0  0  0  0  0
   -2.5182   -1.5846   -1.0736 C   0  0  0  0  0  0  0  0  0  0  0  0
   -1.2322   -1.9548    0.1047 S   0  0  0  0  0  0  0  0  0  0  0  0
   -0.3815   -0.5744    0.7772 C   0  0  0  0  0  0  0  0  0  0  0  0
   -0.6527    0.1631    1.8651 N   0  0  0  0  0  0  0  0  0  0  0  0
    0.2724    1.1027    2.0030 N   0  0  0  0  0  0  0  0  0  0  0  0
    1.1727    0.9933    0.9959 C   0  0  0  0  0  0  0  0  0  0  0  0
    0.7537   -0.0440    0.2512 N   0  0  0  0  0  0  0  0  0  0  0  0
    1.3988   -0.5603   -0.9584 C   0  0  0  0  0  0  0  0  0  0  0  0
    2.3884   -1.6185   -0.5589 C   0  0  0  0  0  0  0  0  0  0  0  0
    2.1992   -2.9507   -0.3595 C   0  0  0  0  0  0  0  0  0  0  0  0
    3.4357   -3.4907   -0.0019 C   0  0  0  0  0  0  0  0  0  0  0  0
    4.3106   -2.4195   -0.0099 C   0  0  0  0  0  0  0  0  0  0  0  0
    3.6502   -1.3251   -0.3459 O   0  0  0  0  0  0  0  0  0  0  0  0
    2.3596    1.8280    0.7747 C   0  0  0  0  0  0  0  0  0  0  0  0
    3.5235    1.4458    1.4019 C   0  0  0  0  0  0  0  0  0  0  0  0
    4.6726    2.1916    1.2375 C   0  0  0  0  0  0  0  0  0  0  0  0
    4.6470    3.3161    0.4452 C   0  0  0  0  0  0  0  0  0  0  0  0
    3.4552    3.6826   -0.1799 C   0  0  0  0  0  0  0  0  0  0  0  0
    2.3693    2.9249    0.0124 N   0  0  0  0  0  0  0  0  0  0  0  0
   -2.2124    1.8795    0.3265 H   0  0  0  0  0  0  0  0  0  0  0  0
   -3.0226    2.2076   -1.1973 H   0  0  0  0  0  0  0  0  0  0  0  0
   -1.8228    0.9108   -1.1974 H   0  0  0  0  0  0  0  0  0  0  0  0
   -4.8957    2.0605    0.5704 H   0  0  0  0  0  0  0  0  0  0  0  0
   -6.8387    0.6591    1.1461 H   0  0  0  0  0  0  0  0  0  0  0  0
   -6.7405   -1.7868    0.6554 H   0  0  0  0  0  0  0  0  0  0  0  0
   -4.7767   -2.7238   -0.3578 H   0  0  0  0  0  0  0  0  0  0  0  0
   -2.8751   -2.5707   -1.4831 H   0  0  0  0  0  0  0  0  0  0  0  0
   -2.0617   -0.9701   -1.8844 H   0  0  0  0  0  0  0  0  0  0  0  0
    1.8913    0.2875   -1.4562 H   0  0  0  0  0  0  0  0  0  0  0  0
    0.6966   -0.9916   -1.6684 H   0  0  0  0  0  0  0  0  0  0  0  0
    1.2698   -3.4889   -0.4600 H   0  0  0  0  0  0  0  0  0  0  0  0
    3.6196   -4.5282    0.2232 H   0  0  0  0  0  0  0  0  0  0  0  0
    5.3826   -2.4633    0.2247 H   0  0  0  0  0  0  0  0  0  0  0  0
    3.5551    0.5480    2.0374 H   0  0  0  0  0  0  0  0  0  0  0  0
    5.6106    1.9155    1.7202 H   0  0  0  0  0  0  0  0  0  0  0  0
    5.5064    3.9495    0.2693 H   0  0  0  0  0  0  0  0  0  0  0  0
    3.3968    4.5708   -0.8177 H   0  0  0  0  0  0  0  0  0  0  0  0
  1  2  1  0
  2  3  2  0
  3  4  1  0
  4  5  2  0
  5  6  1  0
  6  7  2  0
  7  8  1  0
  8  9  1  0
  9 10  1  0
 10 11  2  0
 11 12  1  0
 12 13  2  0
 13 14  1  0
 14 15  1  0
 15 16  1  0
 16 17  2  0
 17 18  1  0
 18 19  2  0
 19 20  1  0
 13 21  1  0
 21 22  2  0
 22 23  1  0
 23 24  2  0
 24 25  1  0
 25 26  2  0
  7  2  1  0
 14 10  1  0
 20 16  1  0
 26 21  1  0
  1 27  1  0
  1 28  1  0
  1 29  1  0
  3 30  1  0
  4 31  1  0
  5 32  1  0
  6 33  1  0
  8 34  1  0
  8 35  1  0
 15 36  1  0
 15 37  1  0
 17 38  1  0
 18 39  1  0
 19 40  1  0
 22 41  1  0
 23 42  1  0
 24 43  1  0
 25 44  1  0
M  END
>  <Ligand ID>  (1) 
LIG0003867

>  <Ligand>  (1) 
KUC104182N

>  <SMILES>  (1) 
Cc1ccccc1CSc1nnc(n1Cc1ccco1)c1ccccn1

>  <CID>  (1) 
16447357.0

>  <ChEMBL ID>  (1) 
nan

>  <InChiKey>  (1) 
HTONSDMOSIUVSB-UHFFFAOYSA-N

>  <InChi>  (1) 
InChI=1S/C20H18N4OS/c1-15-7-2-3-8-16(15)14-26-20-23-22-19(18-10-4-5-11-21-18)24(20)13-17-9-6-12-25-17/h2-12H,13-14H2,1H3

>  <IUPAC Name>  (1) 
2-[4-(furan-2-ylmethyl)-5-[(2-methylphenyl)methylsulfanyl]-1,2,4-triazol-3-yl]pyridine

$$$$
