
     RDKit          3D

 91 94  0  0  0  0  0  0  0  0999 V2000
    7.0947   -3.7410   -3.8854 F   0  0  0  0  0  0  0  0  0  0  0  0
    6.6271   -2.6945   -3.1974 C   0  0  0  0  0  0  0  0  0  0  0  0
    7.0542   -1.3962   -3.3441 C   0  0  0  0  0  0  0  0  0  0  0  0
    6.5277   -0.3505   -2.5971 C   0  0  0  0  0  0  0  0  0  0  0  0
    5.5281   -0.5717   -1.6509 C   0  0  0  0  0  0  0  0  0  0  0  0
    5.1029   -1.8789   -1.5081 C   0  0  0  0  0  0  0  0  0  0  0  0
    5.6349   -2.9190   -2.2592 C   0  0  0  0  0  0  0  0  0  0  0  0
    4.1503   -2.1816   -0.6250 F   0  0  0  0  0  0  0  0  0  0  0  0
    5.0080    0.5408   -0.8969 C   0  0  2  0  0  0  0  0  0  0  0  0
    5.7382    0.8125    0.4245 C   0  0  0  0  0  0  0  0  0  0  0  0
    4.8478    1.6791    1.1259 N   0  0  0  0  0  0  0  0  0  0  0  0
    3.6459    1.8169    0.3799 C   0  0  0  0  0  0  0  0  0  0  0  0
    3.6050    0.4803   -0.3896 C   0  0  1  0  0  0  0  0  0  0  0  0
    2.5917    0.4840   -1.4585 C   0  0  0  0  0  0  0  0  0  0  0  0
    3.0401    0.7438   -2.6370 O   0  0  0  0  0  0  0  0  0  0  0  0
    1.2062    0.2241   -1.2570 N   0  0  0  0  0  0  0  0  0  0  0  0
    0.6349   -0.1110    0.0274 C   0  0  0  0  0  0  0  0  0  0  0  0
   -0.8324    0.3236    0.1447 C   0  0  0  0  0  0  0  0  0  0  0  0
   -1.5275   -0.1651   -0.9726 N   0  0  0  0  0  0  0  0  0  0  0  0
   -1.0858    0.5588   -2.1381 C   0  0  0  0  0  0  0  0  0  0  0  0
    0.3523    0.3079   -2.4282 C   0  0  0  0  0  0  0  0  0  0  0  0
   -2.9147   -0.4416   -0.9072 C   0  0  0  0  0  0  0  0  0  0  0  0
   -3.2075   -1.7452   -0.2731 C   0  0  0  0  0  0  0  0  0  0  0  0
   -4.6821   -2.0920   -0.1872 C   0  0  0  0  0  0  0  0  0  0  0  0
   -4.7564   -3.6090   -0.0830 C   0  0  0  0  0  0  0  0  0  0  0  0
   -4.2835   -3.9030    1.3509 C   0  0  0  0  0  0  0  0  0  0  0  0
   -2.8507   -3.5131    1.4000 C   0  0  0  0  0  0  0  0  0  0  0  0
   -2.5626   -2.0708    1.0223 C   0  0  0  0  0  0  0  0  0  0  0  0
   -3.7120    0.7324   -0.3827 C   0  0  0  0  0  0  0  0  0  0  0  0
   -5.1373    0.5293   -0.3005 N   0  0  0  0  0  0  0  0  0  0  0  0
   -5.8801    1.0221   -1.8098 S   0  0  0  0  0  0  0  0  0  0  0  0
   -5.2168    0.2712   -2.9132 O   0  0  0  0  0  0  0  0  0  0  0  0
   -7.3523    0.7903   -1.7695 O   0  0  0  0  0  0  0  0  0  0  0  0
   -5.5960    2.7450   -2.1055 C   0  0  0  0  0  0  0  0  0  0  0  0
   -5.7311    1.3719    0.7325 C   0  0  0  0  0  0  0  0  0  0  0  0
   -4.7617    2.2742    1.4139 C   0  0  0  0  0  0  0  0  0  0  0  0
   -6.6161    0.6163    1.6921 C   0  0  0  0  0  0  0  0  0  0  0  0
    4.7711    1.5440    2.5228 C   0  0  0  0  0  0  0  0  0  0  0  0
    6.1828    1.8061    3.0719 C   0  0  0  0  0  0  0  0  0  0  0  0
    4.3606    0.2282    3.0856 C   0  0  0  0  0  0  0  0  0  0  0  0
    3.9323    2.6810    3.0761 C   0  0  0  0  0  0  0  0  0  0  0  0
    7.8410   -1.2132   -4.0876 H   0  0  0  0  0  0  0  0  0  0  0  0
    6.9304    0.6371   -2.7874 H   0  0  0  0  0  0  0  0  0  0  0  0
    5.2645   -3.9283   -2.1074 H   0  0  0  0  0  0  0  0  0  0  0  0
    5.1185    1.4760   -1.4767 H   0  0  0  0  0  0  0  0  0  0  0  0
    6.7054    1.3054    0.1862 H   0  0  0  0  0  0  0  0  0  0  0  0
    5.8644   -0.1801    0.8920 H   0  0  0  0  0  0  0  0  0  0  0  0
    2.7463    2.0634    0.9050 H   0  0  0  0  0  0  0  0  0  0  0  0
    3.8507    2.5789   -0.4284 H   0  0  0  0  0  0  0  0  0  0  0  0
    3.3745   -0.2659    0.3576 H   0  0  0  0  0  0  0  0  0  0  0  0
    0.6294   -1.2294    0.1798 H   0  0  0  0  0  0  0  0  0  0  0  0
    1.1832    0.3259    0.8749 H   0  0  0  0  0  0  0  0  0  0  0  0
   -1.2133    0.1700    1.1429 H   0  0  0  0  0  0  0  0  0  0  0  0
   -0.7760    1.4657    0.0129 H   0  0  0  0  0  0  0  0  0  0  0  0
   -1.2086    1.6475   -1.8736 H   0  0  0  0  0  0  0  0  0  0  0  0
   -1.7304    0.3842   -3.0126 H   0  0  0  0  0  0  0  0  0  0  0  0
    0.7760    1.1231   -3.0891 H   0  0  0  0  0  0  0  0  0  0  0  0
    0.4181   -0.6024   -3.0767 H   0  0  0  0  0  0  0  0  0  0  0  0
   -3.2591   -0.5432   -1.9871 H   0  0  0  0  0  0  0  0  0  0  0  0
   -2.8058   -2.5288   -1.0088 H   0  0  0  0  0  0  0  0  0  0  0  0
   -5.1989   -1.7836   -1.1018 H   0  0  0  0  0  0  0  0  0  0  0  0
   -5.1815   -1.6177    0.6766 H   0  0  0  0  0  0  0  0  0  0  0  0
   -5.7598   -3.9790   -0.2870 H   0  0  0  0  0  0  0  0  0  0  0  0
   -3.9690   -4.0069   -0.7567 H   0  0  0  0  0  0  0  0  0  0  0  0
   -4.9089   -3.2950    2.0392 H   0  0  0  0  0  0  0  0  0  0  0  0
   -4.3613   -4.9699    1.5604 H   0  0  0  0  0  0  0  0  0  0  0  0
   -2.3078   -4.1483    0.6455 H   0  0  0  0  0  0  0  0  0  0  0  0
   -2.4252   -3.7005    2.4212 H   0  0  0  0  0  0  0  0  0  0  0  0
   -1.4481   -2.0838    0.8183 H   0  0  0  0  0  0  0  0  0  0  0  0
   -2.8293   -1.4022    1.8488 H   0  0  0  0  0  0  0  0  0  0  0  0
   -3.2771    0.9635    0.6290 H   0  0  0  0  0  0  0  0  0  0  0  0
   -3.5434    1.6439   -0.9854 H   0  0  0  0  0  0  0  0  0  0  0  0
   -4.5810    2.8395   -2.5437 H   0  0  0  0  0  0  0  0  0  0  0  0
   -6.3049    3.1598   -2.8542 H   0  0  0  0  0  0  0  0  0  0  0  0
   -5.5858    3.3572   -1.1700 H   0  0  0  0  0  0  0  0  0  0  0  0
   -6.4545    2.0393    0.1733 H   0  0  0  0  0  0  0  0  0  0  0  0
   -5.3346    3.1045    1.9232 H   0  0  0  0  0  0  0  0  0  0  0  0
   -4.1489    2.7934    0.6575 H   0  0  0  0  0  0  0  0  0  0  0  0
   -4.1858    1.8069    2.2378 H   0  0  0  0  0  0  0  0  0  0  0  0
   -7.2333   -0.1382    1.1645 H   0  0  0  0  0  0  0  0  0  0  0  0
   -6.0278    0.1624    2.5186 H   0  0  0  0  0  0  0  0  0  0  0  0
   -7.3421    1.3588    2.1260 H   0  0  0  0  0  0  0  0  0  0  0  0
    6.8997    1.1363    2.5238 H   0  0  0  0  0  0  0  0  0  0  0  0
    6.4656    2.8638    3.0019 H   0  0  0  0  0  0  0  0  0  0  0  0
    6.2039    1.4400    4.1205 H   0  0  0  0  0  0  0  0  0  0  0  0
    5.0809   -0.5581    2.7837 H   0  0  0  0  0  0  0  0  0  0  0  0
    4.5050    0.3162    4.2026 H   0  0  0  0  0  0  0  0  0  0  0  0
    3.3094   -0.0281    2.9567 H   0  0  0  0  0  0  0  0  0  0  0  0
    2.8648    2.3914    3.0114 H   0  0  0  0  0  0  0  0  0  0  0  0
    4.2713    2.8697    4.1117 H   0  0  0  0  0  0  0  0  0  0  0  0
    4.1693    3.5789    2.4371 H   0  0  0  0  0  0  0  0  0  0  0  0
  1  2  1  0
  2  3  2  0
  3  4  1  0
  4  5  2  0
  5  6  1  0
  6  7  2  0
  6  8  1  0
  5  9  1  0
  9 10  1  0
 10 11  1  0
 11 12  1  0
 12 13  1  0
 13 14  1  0
 14 15  2  0
 14 16  1  0
 16 17  1  0
 17 18  1  0
 18 19  1  0
 19 20  1  0
 20 21  1  0
 19 22  1  0
 22 23  1  0
 23 24  1  0
 24 25  1  0
 25 26  1  0
 26 27  1  0
 27 28  1  0
 22 29  1  0
 29 30  1  0
 30 31  1  0
 31 32  2  0
 31 33  2  0
 31 34  1  0
 30 35  1  0
 35 36  1  0
 35 37  1  0
 11 38  1  0
 38 39  1  0
 38 40  1  0
 38 41  1  0
  7  2  1  0
 13  9  1  0
 21 16  1  0
 28 23  1  0
  3 42  1  0
  4 43  1  0
  7 44  1  0
  9 45  1  6
 10 46  1  0
 10 47  1  0
 12 48  1  0
 12 49  1  0
 13 50  1  1
 17 51  1  0
 17 52  1  0
 18 53  1  0
 18 54  1  0
 20 55  1  0
 20 56  1  0
 21 57  1  0
 21 58  1  0
 22 59  1  0
 23 60  1  0
 24 61  1  0
 24 62  1  0
 25 63  1  0
 25 64  1  0
 26 65  1  0
 26 66  1  0
 27 67  1  0
 27 68  1  0
 28 69  1  0
 28 70  1  0
 29 71  1  0
 29 72  1  0
 34 73  1  0
 34 74  1  0
 34 75  1  0
 35 76  1  0
 36 77  1  0
 36 78  1  0
 36 79  1  0
 37 80  1  0
 37 81  1  0
 37 82  1  0
 39 83  1  0
 39 84  1  0
 39 85  1  0
 40 86  1  0
 40 87  1  0
 40 88  1  0
 41 89  1  0
 41 90  1  0
 41 91  1  0
M  END
>  <Ligand ID>  (1) 
LIG0001518

>  <Ligand>  (1) 
CHEMBL1209253

>  <SMILES>  (1) 
Fc1ccc(c(c1)F)[C@@H]1CN(C[C@H]1C(=O)N1CCN(CC1)C(C1CCCCC1)CN(S(=O)(=O)C)C(C)C)C(C)(C)C

>  <CID>  (1) 
10077258.0

>  <ChEMBL ID>  (1) 
nan

>  <InChiKey>  (1) 
VJHTXZAEBALHDW-ZDCXKQOISA-N

>  <InChi>  (1) 
InChI=1S/C31H50F2N4O3S/c1-22(2)37(41(6,39)40)21-29(23-10-8-7-9-11-23)34-14-16-35(17-15-34)30(38)27-20-36(31(3,4)5)19-26(27)25-13-12-24(32)18-28(25)33/h12-13,18,22-23,26-27,29H,7-11,14-17,19-21H2,1-6H3/t26-,27+,29?/m0/s1

>  <IUPAC Name>  (1) 
N-[2-[4-[(3S,4R)-1-tert-butyl-4-(2,4-difluorophenyl)pyrrolidine-3-carbonyl]piperazin-1-yl]-2-cyclohexylethyl]-N-propan-2-ylmethanesulfonamide

$$$$
