
     RDKit          3D

 22 23  0  0  0  0  0  0  0  0999 V2000
   -3.5654   -0.9526   -1.7972 F   0  0  0  0  0  0  0  0  0  0  0  0
   -2.7367   -0.3516   -0.8900 C   0  0  0  0  0  0  0  0  0  0  0  0
   -3.2396    0.7698   -0.2598 C   0  0  0  0  0  0  0  0  0  0  0  0
   -2.4166    1.4080    0.6741 C   0  0  0  0  0  0  0  0  0  0  0  0
   -1.1462    0.9080    0.9354 C   0  0  0  0  0  0  0  0  0  0  0  0
   -0.6645   -0.2147    0.2931 C   0  0  0  0  0  0  0  0  0  0  0  0
   -1.4692   -0.8375   -0.6190 C   0  0  0  0  0  0  0  0  0  0  0  0
    0.7052   -0.6720    0.6399 C   0  0  1  0  0  0  0  0  0  0  0  0
    1.3030   -1.5551   -0.3959 C   0  0  0  0  0  0  0  0  0  0  0  0
    2.6824   -1.1506   -0.3186 O   0  0  0  0  0  0  0  0  0  0  0  0
    2.6838    0.1870    0.1183 C   0  0  0  0  0  0  0  0  0  0  0  0
    1.5635    0.4797    0.6681 N   0  0  0  0  0  0  0  0  0  0  0  0
    3.7678    1.1078   -0.0200 N   0  0  0  0  0  0  0  0  0  0  0  0
   -4.2255    1.1414   -0.4756 H   0  0  0  0  0  0  0  0  0  0  0  0
   -2.7712    2.2845    1.1866 H   0  0  0  0  0  0  0  0  0  0  0  0
   -0.5422    1.4407    1.6718 H   0  0  0  0  0  0  0  0  0  0  0  0
   -1.1070   -1.7110   -1.1252 H   0  0  0  0  0  0  0  0  0  0  0  0
    0.7336   -1.1388    1.6503 H   0  0  0  0  0  0  0  0  0  0  0  0
    1.2112   -2.6277   -0.1387 H   0  0  0  0  0  0  0  0  0  0  0  0
    0.9156   -1.3938   -1.4087 H   0  0  0  0  0  0  0  0  0  0  0  0
    4.1262    1.4292   -0.9495 H   0  0  0  0  0  0  0  0  0  0  0  0
    4.1918    1.4496    0.8845 H   0  0  0  0  0  0  0  0  0  0  0  0
  1  2  1  0
  2  3  2  0
  3  4  1  0
  4  5  2  0
  5  6  1  0
  6  7  2  0
  6  8  1  0
  8  9  1  0
  9 10  1  0
 10 11  1  0
 11 12  2  0
 11 13  1  0
  7  2  1  0
 12  8  1  0
  3 14  1  0
  4 15  1  0
  5 16  1  0
  7 17  1  0
  8 18  1  1
  9 19  1  0
  9 20  1  0
 13 21  1  0
 13 22  1  0
M  END
>  <Ligand ID>  (1) 
LIG0005697

>  <Ligand>  (1) 
SCHEMBL3616827

>  <SMILES>  (1) 
Fc1cccc(c1)[C@H]1COC(=N1)N

>  <CID>  (1) 
59323617.0

>  <ChEMBL ID>  (1) 
nan

>  <InChiKey>  (1) 
JKVQLTDZPQITFF-MRVPVSSYSA-N

>  <InChi>  (1) 
InChI=1S/C9H9FN2O/c10-7-3-1-2-6(4-7)8-5-13-9(11)12-8/h1-4,8H,5H2,(H2,11,12)/t8-/m1/s1

>  <IUPAC Name>  (1) 
(4S)-4-(3-fluorophenyl)-4,5-dihydro-1,3-oxazol-2-amine

$$$$
