
     RDKit          3D

 75 78  0  0  0  0  0  0  0  0999 V2000
  -10.4435    3.0830    0.6378 C   0  0  0  0  0  0  0  0  0  0  0  0
  -10.9823    2.5929    1.8319 O   0  0  0  0  0  0  0  0  0  0  0  0
  -10.5670    1.2981    1.9413 N   0  0  0  0  0  0  0  0  0  0  0  0
   -9.4775    0.8007    1.1385 C   0  0  0  0  0  0  0  0  0  0  0  0
   -9.7938    0.2480   -0.0999 C   0  0  0  0  0  0  0  0  0  0  0  0
   -8.7465   -0.2308   -0.8725 C   0  0  0  0  0  0  0  0  0  0  0  0
   -7.5010   -0.1520   -0.4229 N   0  0  0  0  0  0  0  0  0  0  0  0
   -7.2376    0.3956    0.7929 C   0  0  0  0  0  0  0  0  0  0  0  0
   -6.0303    0.4617    1.2072 O   0  0  0  0  0  0  0  0  0  0  0  0
   -8.2127    0.8773    1.5879 N   0  0  0  0  0  0  0  0  0  0  0  0
   -6.3892   -0.6310   -1.1798 C   0  0  2  0  0  0  0  0  0  0  0  0
   -5.2273   -0.7532   -0.3815 O   0  0  0  0  0  0  0  0  0  0  0  0
   -4.3318   -1.2066   -1.3495 C   0  0  1  0  0  0  0  0  0  0  0  0
   -4.5222   -0.3316   -2.5560 C   0  0  2  0  0  0  0  0  0  0  0  0
   -5.8976    0.2817   -2.2546 C   0  0  1  0  0  0  0  0  0  0  0  0
   -6.6986    0.2599   -3.3954 O   0  0  0  0  0  0  0  0  0  0  0  0
   -4.7138   -1.1367   -3.6905 O   0  0  0  0  0  0  0  0  0  0  0  0
   -2.9053   -1.1721   -0.8388 C   0  0  0  0  0  0  0  0  0  0  0  0
   -2.7946   -1.9869    0.2847 O   0  0  0  0  0  0  0  0  0  0  0  0
   -1.2044   -1.9863    0.8624 P   0  0  0  0  0  0  0  0  0  0  0  0
   -1.0494   -3.0123    1.9753 O   0  0  0  0  0  0  0  0  0  0  0  0
   -0.7477   -0.4889    1.5011 O   0  0  0  0  0  0  0  0  0  0  0  0
    0.9628   -0.4739    1.5371 P   0  0  0  0  0  0  0  0  0  0  0  0
    1.3315    0.8564    2.1817 O   0  0  0  0  0  0  0  0  0  0  0  0
    1.4942   -0.5021   -0.0458 O   0  0  0  0  0  0  0  0  0  0  0  0
    2.8463   -1.4408   -0.3178 P   0  0  0  0  0  0  0  0  0  0  0  0
    2.7963   -2.8109    0.2683 O   0  0  0  0  0  0  0  0  0  0  0  0
    4.2892   -0.7130    0.1818 O   0  0  0  0  0  0  0  0  0  0  0  0
    4.8730   -1.4257    1.2212 C   0  0  0  0  0  0  0  0  0  0  0  0
    6.1793   -0.7601    1.5946 C   0  0  1  0  0  0  0  0  0  0  0  0
    7.0831   -0.7158    0.5392 O   0  0  0  0  0  0  0  0  0  0  0  0
    7.8772    0.4079    0.8315 C   0  0  2  0  0  0  0  0  0  0  0  0
    6.8390    1.4344    1.0771 C   0  0  1  0  0  0  0  0  0  0  0  0
    5.8938    0.6497    2.0015 C   0  0  2  0  0  0  0  0  0  0  0  0
    6.3397    0.8071    3.3261 O   0  0  0  0  0  0  0  0  0  0  0  0
    7.2812    2.5079    1.8453 O   0  0  0  0  0  0  0  0  0  0  0  0
    8.8846    0.6846   -0.1168 N   0  0  0  0  0  0  0  0  0  0  0  0
   10.1812    0.4052    0.2009 C   0  0  0  0  0  0  0  0  0  0  0  0
   11.2186    0.6489   -0.6757 C   0  0  0  0  0  0  0  0  0  0  0  0
   10.9396    1.1930   -1.9151 C   0  0  0  0  0  0  0  0  0  0  0  0
   11.8927    1.4136   -2.7123 O   0  0  0  0  0  0  0  0  0  0  0  0
    9.6537    1.4622   -2.2114 N   0  0  0  0  0  0  0  0  0  0  0  0
    8.6517    1.2089   -1.3216 C   0  0  0  0  0  0  0  0  0  0  0  0
    7.5028    1.4909   -1.6862 O   0  0  0  0  0  0  0  0  0  0  0  0
    2.9912   -1.6332   -2.0110 O   0  0  0  0  0  0  0  0  0  0  0  0
    1.5063   -1.7629    2.4526 O   0  0  0  0  0  0  0  0  0  0  0  0
   -0.1810   -2.3134   -0.4474 O   0  0  0  0  0  0  0  0  0  0  0  0
  -10.5295    4.1809    0.5431 H   0  0  0  0  0  0  0  0  0  0  0  0
   -9.3797    2.7435    0.5501 H   0  0  0  0  0  0  0  0  0  0  0  0
  -11.0075    2.6339   -0.2121 H   0  0  0  0  0  0  0  0  0  0  0  0
  -11.0676    0.6964    2.6216 H   0  0  0  0  0  0  0  0  0  0  0  0
  -10.8176    0.1928   -0.4481 H   0  0  0  0  0  0  0  0  0  0  0  0
   -8.9755   -0.6566   -1.8237 H   0  0  0  0  0  0  0  0  0  0  0  0
   -6.5611   -1.6223   -1.6464 H   0  0  0  0  0  0  0  0  0  0  0  0
   -4.6374   -2.2547   -1.5896 H   0  0  0  0  0  0  0  0  0  0  0  0
   -3.7508    0.4270   -2.7035 H   0  0  0  0  0  0  0  0  0  0  0  0
   -5.6988    1.3186   -1.9153 H   0  0  0  0  0  0  0  0  0  0  0  0
   -6.0862    0.1515   -4.1626 H   0  0  0  0  0  0  0  0  0  0  0  0
   -3.9853   -1.7731   -3.7984 H   0  0  0  0  0  0  0  0  0  0  0  0
   -2.7180   -0.1109   -0.5138 H   0  0  0  0  0  0  0  0  0  0  0  0
   -2.1821   -1.4022   -1.6256 H   0  0  0  0  0  0  0  0  0  0  0  0
    5.0150   -2.5003    0.9672 H   0  0  0  0  0  0  0  0  0  0  0  0
    4.1917   -1.3141    2.0953 H   0  0  0  0  0  0  0  0  0  0  0  0
    6.6106   -1.3674    2.4242 H   0  0  0  0  0  0  0  0  0  0  0  0
    8.3221    0.1629    1.8401 H   0  0  0  0  0  0  0  0  0  0  0  0
    6.2091    1.7269    0.2393 H   0  0  0  0  0  0  0  0  0  0  0  0
    4.8578    0.9822    1.8764 H   0  0  0  0  0  0  0  0  0  0  0  0
    5.5474    0.9737    3.9305 H   0  0  0  0  0  0  0  0  0  0  0  0
    6.6664    3.2559    1.6828 H   0  0  0  0  0  0  0  0  0  0  0  0
   10.4006   -0.0280    1.1891 H   0  0  0  0  0  0  0  0  0  0  0  0
   12.2166    0.3977   -0.3434 H   0  0  0  0  0  0  0  0  0  0  0  0
    9.4260    1.8807   -3.1593 H   0  0  0  0  0  0  0  0  0  0  0  0
    3.3202   -0.7508   -2.3563 H   0  0  0  0  0  0  0  0  0  0  0  0
    1.2441   -2.5998    1.9955 H   0  0  0  0  0  0  0  0  0  0  0  0
   -0.4841   -3.1740   -0.8458 H   0  0  0  0  0  0  0  0  0  0  0  0
  1  2  1  0
  2  3  1  0
  3  4  1  0
  4  5  1  0
  5  6  2  0
  6  7  1  0
  7  8  1  0
  8  9  2  0
  8 10  1  0
  7 11  1  0
 11 12  1  0
 12 13  1  0
 13 14  1  0
 14 15  1  0
 15 16  1  0
 14 17  1  0
 13 18  1  0
 18 19  1  0
 19 20  1  0
 20 21  2  0
 20 22  1  0
 22 23  1  0
 23 24  2  0
 23 25  1  0
 25 26  1  0
 26 27  2  0
 26 28  1  0
 28 29  1  0
 29 30  1  0
 30 31  1  0
 31 32  1  0
 32 33  1  0
 33 34  1  0
 34 35  1  0
 33 36  1  0
 32 37  1  0
 37 38  1  0
 38 39  2  0
 39 40  1  0
 40 41  2  0
 40 42  1  0
 42 43  1  0
 43 44  2  0
 26 45  1  0
 23 46  1  0
 20 47  1  0
 10  4  2  0
 15 11  1  0
 34 30  1  0
 43 37  1  0
  1 48  1  0
  1 49  1  0
  1 50  1  0
  3 51  1  0
  5 52  1  0
  6 53  1  0
 11 54  1  6
 13 55  1  6
 14 56  1  6
 15 57  1  1
 16 58  1  0
 17 59  1  0
 18 60  1  0
 18 61  1  0
 29 62  1  0
 29 63  1  0
 30 64  1  1
 32 65  1  1
 33 66  1  6
 34 67  1  1
 35 68  1  0
 36 69  1  0
 38 70  1  0
 39 71  1  0
 42 72  1  0
 45 73  1  0
 46 74  1  0
 47 75  1  0
M  END
>  <Ligand ID>  (1) 
LIG0004908

>  <Ligand>  (1) 
CHEMBL1083256

>  <SMILES>  (1) 
CONc1ccn(c(=O)n1)[C@@H]1O[C@@H]([C@H]([C@H]1O)O)COP(=O)(OP(=O)(OP(=O)(OC[C@H]1O[C@H]([C@@H]([C@@H]1O)O)n1ccc(=O)[nH]c1=O)O)O)O

>  <CID>  (1) 
46830491.0

>  <ChEMBL ID>  (1) 
nan

>  <InChiKey>  (1) 
SIKKMGJHOOQSAP-RTGFKBDUSA-N

>  <InChi>  (1) 
InChI=1S/C19H28N5O20P3/c1-38-22-10-2-4-23(18(30)20-10)16-14(28)12(26)8(41-16)6-39-45(32,33)43-47(36,37)44-46(34,35)40-7-9-13(27)15(29)17(42-9)24-5-3-11(25)21-19(24)31/h2-5,8-9,12-17,26-29H,6-7H2,1H3,(H,32,33)(H,34,35)(H,36,37)(H,20,22,30)(H,21,25,31)/t8-,9-,12-,13-,14-,15-,16-,17-/m1/s1

>  <IUPAC Name>  (1) 
[[(2R,3S,4R,5R)-3,4-dihydroxy-5-[4-(methoxyamino)-2-oxopyrimidin-1-yl]oxolan-2-yl]methoxy-hydroxyphosphoryl] [[(2R,3S,4R,5R)-5-(2,4-dioxopyrimidin-1-yl)-3,4-dihydroxyoxolan-2-yl]methoxy-hydroxyphosphoryl] hydrogen phosphate

$$$$
