
     RDKit          3D

 31 32  0  0  0  0  0  0  0  0999 V2000
    3.0921   -0.1845    1.2890 C   0  0  0  0  0  0  0  0  0  0  0  0
    2.6053   -0.3763   -0.0418 N   0  0  0  0  0  0  0  0  0  0  0  0
    2.0022    0.7406   -0.6703 C   0  0  0  0  0  0  0  0  0  0  0  0
    0.6747    1.1707   -0.1008 C   0  0  0  0  0  0  0  0  0  0  0  0
   -0.3423    0.0970   -0.1467 C   0  0  0  0  0  0  0  0  0  0  0  0
   -0.1284   -1.2433   -0.3756 C   0  0  0  0  0  0  0  0  0  0  0  0
   -1.3072   -1.9113   -0.3165 N   0  0  0  0  0  0  0  0  0  0  0  0
   -2.2901   -1.0166   -0.0510 C   0  0  0  0  0  0  0  0  0  0  0  0
   -1.7167    0.2501    0.0597 C   0  0  0  0  0  0  0  0  0  0  0  0
   -2.5079    1.3471    0.3292 C   0  0  0  0  0  0  0  0  0  0  0  0
   -1.9271    2.6133    0.4360 O   0  0  0  0  0  0  0  0  0  0  0  0
   -3.8776    1.1774    0.4904 C   0  0  0  0  0  0  0  0  0  0  0  0
   -4.4589   -0.0639    0.3859 C   0  0  0  0  0  0  0  0  0  0  0  0
   -3.6612   -1.1565    0.1149 C   0  0  0  0  0  0  0  0  0  0  0  0
    3.6062   -1.0263   -0.8452 C   0  0  0  0  0  0  0  0  0  0  0  0
    3.8138   -1.0066    1.5700 H   0  0  0  0  0  0  0  0  0  0  0  0
    3.6642    0.7428    1.4527 H   0  0  0  0  0  0  0  0  0  0  0  0
    2.2345   -0.2928    1.9916 H   0  0  0  0  0  0  0  0  0  0  0  0
    2.6963    1.6325   -0.5441 H   0  0  0  0  0  0  0  0  0  0  0  0
    1.9218    0.6196   -1.7737 H   0  0  0  0  0  0  0  0  0  0  0  0
    0.7770    1.5071    0.9429 H   0  0  0  0  0  0  0  0  0  0  0  0
    0.2864    2.0094   -0.7106 H   0  0  0  0  0  0  0  0  0  0  0  0
    0.7967   -1.7707   -0.5787 H   0  0  0  0  0  0  0  0  0  0  0  0
   -1.4893   -2.9125   -0.4407 H   0  0  0  0  0  0  0  0  0  0  0  0
   -1.7923    3.2039   -0.3875 H   0  0  0  0  0  0  0  0  0  0  0  0
   -4.4984    2.0438    0.7003 H   0  0  0  0  0  0  0  0  0  0  0  0
   -5.5244   -0.2431    0.5090 H   0  0  0  0  0  0  0  0  0  0  0  0
   -4.0989   -2.1551    0.0271 H   0  0  0  0  0  0  0  0  0  0  0  0
    4.5818   -1.1555   -0.3865 H   0  0  0  0  0  0  0  0  0  0  0  0
    3.6808   -0.5778   -1.8776 H   0  0  0  0  0  0  0  0  0  0  0  0
    3.1866   -2.0625   -1.0513 H   0  0  0  0  0  0  0  0  0  0  0  0
  1  2  1  0
  2  3  1  0
  3  4  1  0
  4  5  1  0
  5  6  2  0
  6  7  1  0
  7  8  1  0
  8  9  2  0
  9 10  1  0
 10 11  1  0
 10 12  2  0
 12 13  1  0
 13 14  2  0
  2 15  1  0
  9  5  1  0
 14  8  1  0
  1 16  1  0
  1 17  1  0
  1 18  1  0
  3 19  1  0
  3 20  1  0
  4 21  1  0
  4 22  1  0
  6 23  1  0
  7 24  1  0
 11 25  1  0
 12 26  1  0
 13 27  1  0
 14 28  1  0
 15 29  1  0
 15 30  1  0
 15 31  1  0
M  END
>  <Ligand ID>  (1) 
LIG0001962

>  <Ligand>  (1) 
psilocin

>  <SMILES>  (1) 
CN(CCc1c[nH]c2c1c(O)ccc2)C

>  <CID>  (1) 
4980.0

>  <ChEMBL ID>  (1) 
nan

>  <InChiKey>  (1) 
SPCIYGNTAMCTRO-UHFFFAOYSA-N

>  <InChi>  (1) 
InChI=1S/C12H16N2O/c1-14(2)7-6-9-8-13-10-4-3-5-11(15)12(9)10/h3-5,8,13,15H,6-7H2,1-2H3

>  <IUPAC Name>  (1) 
3-[2-(dimethylamino)ethyl]-1H-indol-4-ol

$$$$
