
     RDKit          3D

 70 69  0  0  0  0  0  0  0  0999 V2000
   -7.8008    2.8790    1.3945 C   0  0  0  0  0  0  0  0  0  0  0  0
   -8.6098    1.7019    1.8523 C   0  0  0  0  0  0  0  0  0  0  0  0
   -8.7454    0.6791    0.7452 C   0  0  0  0  0  0  0  0  0  0  0  0
   -7.3463    0.2353    0.3783 C   0  0  0  0  0  0  0  0  0  0  0  0
   -7.3729   -0.8079   -0.7432 C   0  0  0  0  0  0  0  0  0  0  0  0
   -5.9068   -1.1576   -1.0035 C   0  0  0  0  0  0  0  0  0  0  0  0
   -5.7593   -2.1751   -2.0841 C   0  0  0  0  0  0  0  0  0  0  0  0
   -4.2735   -2.4631   -2.2760 C   0  0  0  0  0  0  0  0  0  0  0  0
   -3.5011   -1.2641   -2.6591 C   0  0  0  0  0  0  0  0  0  0  0  0
   -2.4971   -0.7538   -1.9631 C   0  0  0  0  0  0  0  0  0  0  0  0
   -1.9746   -1.2801   -0.6983 C   0  0  0  0  0  0  0  0  0  0  0  0
   -0.4971   -1.6806   -0.7838 C   0  0  0  0  0  0  0  0  0  0  0  0
    0.3847   -0.5075   -1.1554 C   0  0  0  0  0  0  0  0  0  0  0  0
    1.8422   -0.8947   -1.2416 C   0  0  0  0  0  0  0  0  0  0  0  0
    2.3646   -1.4327    0.0676 C   0  0  0  0  0  0  0  0  0  0  0  0
    2.2660   -0.4648    1.1901 C   0  0  0  0  0  0  0  0  0  0  0  0
    2.9942    0.8166    1.0290 C   0  0  0  0  0  0  0  0  0  0  0  0
    4.4414    0.6364    0.8841 C   0  0  0  0  0  0  0  0  0  0  0  0
    5.0041   -0.4739    0.9336 O   0  0  0  0  0  0  0  0  0  0  0  0
    5.2217    1.7528    0.6827 O   0  0  0  0  0  0  0  0  0  0  0  0
    6.6085    1.6494    0.5411 C   0  0  0  0  0  0  0  0  0  0  0  0
    7.2603    1.0816    1.7646 C   0  0  0  0  0  0  0  0  0  0  0  0
    8.7782    1.1991    1.5337 C   0  0  0  0  0  0  0  0  0  0  0  0
    9.1306    0.4249    0.4554 O   0  0  0  0  0  0  0  0  0  0  0  0
   10.7816    0.4628    0.1010 P   0  0  0  0  0  0  0  0  0  0  0  0
   11.3867    1.6875    0.7490 O   0  0  0  0  0  0  0  0  0  0  0  0
   11.4549   -0.9572    0.7599 O   0  0  0  0  0  0  0  0  0  0  0  0
   11.0867    0.4906   -1.5480 O   0  0  0  0  0  0  0  0  0  0  0  0
    6.9930    1.9029    2.8818 O   0  0  0  0  0  0  0  0  0  0  0  0
   -6.7804    2.8801    1.8581 H   0  0  0  0  0  0  0  0  0  0  0  0
   -7.6703    2.8527    0.3119 H   0  0  0  0  0  0  0  0  0  0  0  0
   -8.2666    3.8448    1.6882 H   0  0  0  0  0  0  0  0  0  0  0  0
   -8.0386    1.1997    2.6803 H   0  0  0  0  0  0  0  0  0  0  0  0
   -9.5816    1.9922    2.2957 H   0  0  0  0  0  0  0  0  0  0  0  0
   -9.3250    1.0210   -0.1093 H   0  0  0  0  0  0  0  0  0  0  0  0
   -9.2211   -0.2115    1.2286 H   0  0  0  0  0  0  0  0  0  0  0  0
   -6.8387   -0.2604    1.2174 H   0  0  0  0  0  0  0  0  0  0  0  0
   -6.6961    1.0536    0.0235 H   0  0  0  0  0  0  0  0  0  0  0  0
   -7.8259   -0.4118   -1.6734 H   0  0  0  0  0  0  0  0  0  0  0  0
   -7.8814   -1.7362   -0.3817 H   0  0  0  0  0  0  0  0  0  0  0  0
   -5.3060   -0.2526   -1.1342 H   0  0  0  0  0  0  0  0  0  0  0  0
   -5.5526   -1.6204   -0.0442 H   0  0  0  0  0  0  0  0  0  0  0  0
   -6.2591   -1.9379   -3.0212 H   0  0  0  0  0  0  0  0  0  0  0  0
   -6.2009   -3.1352   -1.7243 H   0  0  0  0  0  0  0  0  0  0  0  0
   -3.8529   -3.0585   -1.4651 H   0  0  0  0  0  0  0  0  0  0  0  0
   -4.2459   -3.1413   -3.1806 H   0  0  0  0  0  0  0  0  0  0  0  0
   -3.8051   -0.7761   -3.6023 H   0  0  0  0  0  0  0  0  0  0  0  0
   -2.0220    0.1379   -2.3746 H   0  0  0  0  0  0  0  0  0  0  0  0
   -2.0948   -0.4567    0.0569 H   0  0  0  0  0  0  0  0  0  0  0  0
   -2.4861   -2.1436   -0.2791 H   0  0  0  0  0  0  0  0  0  0  0  0
   -0.2339   -2.0621    0.2223 H   0  0  0  0  0  0  0  0  0  0  0  0
   -0.3514   -2.4993   -1.5013 H   0  0  0  0  0  0  0  0  0  0  0  0
    0.1982    0.2842   -0.4218 H   0  0  0  0  0  0  0  0  0  0  0  0
    0.0952   -0.0998   -2.1449 H   0  0  0  0  0  0  0  0  0  0  0  0
    2.4078   -0.0273   -1.5819 H   0  0  0  0  0  0  0  0  0  0  0  0
    1.9049   -1.7222   -1.9819 H   0  0  0  0  0  0  0  0  0  0  0  0
    1.7826   -2.3381    0.3479 H   0  0  0  0  0  0  0  0  0  0  0  0
    3.4097   -1.7421   -0.0773 H   0  0  0  0  0  0  0  0  0  0  0  0
    2.7289   -0.9818    2.0850 H   0  0  0  0  0  0  0  0  0  0  0  0
    1.2154   -0.2856    1.5160 H   0  0  0  0  0  0  0  0  0  0  0  0
    2.8404    1.4069    1.9721 H   0  0  0  0  0  0  0  0  0  0  0  0
    2.6479    1.4198    0.1620 H   0  0  0  0  0  0  0  0  0  0  0  0
    7.0614    2.6449    0.3122 H   0  0  0  0  0  0  0  0  0  0  0  0
    6.7833    0.9395   -0.3081 H   0  0  0  0  0  0  0  0  0  0  0  0
    6.9823    0.0437    1.9456 H   0  0  0  0  0  0  0  0  0  0  0  0
    8.9595    2.2654    1.2543 H   0  0  0  0  0  0  0  0  0  0  0  0
    9.2736    0.9422    2.4699 H   0  0  0  0  0  0  0  0  0  0  0  0
   11.6896   -1.6233    0.0760 H   0  0  0  0  0  0  0  0  0  0  0  0
   10.4205    1.0149   -2.0269 H   0  0  0  0  0  0  0  0  0  0  0  0
    6.4205    1.4126    3.5227 H   0  0  0  0  0  0  0  0  0  0  0  0
  1  2  1  0
  2  3  1  0
  3  4  1  0
  4  5  1  0
  5  6  1  0
  6  7  1  0
  7  8  1  0
  8  9  1  0
  9 10  2  0
 10 11  1  0
 11 12  1  0
 12 13  1  0
 13 14  1  0
 14 15  1  0
 15 16  1  0
 16 17  1  0
 17 18  1  0
 18 19  2  0
 18 20  1  0
 20 21  1  0
 21 22  1  0
 22 23  1  0
 23 24  1  0
 24 25  1  0
 25 26  2  0
 25 27  1  0
 25 28  1  0
 22 29  1  0
  1 30  1  0
  1 31  1  0
  1 32  1  0
  2 33  1  0
  2 34  1  0
  3 35  1  0
  3 36  1  0
  4 37  1  0
  4 38  1  0
  5 39  1  0
  5 40  1  0
  6 41  1  0
  6 42  1  0
  7 43  1  0
  7 44  1  0
  8 45  1  0
  8 46  1  0
  9 47  1  0
 10 48  1  0
 11 49  1  0
 11 50  1  0
 12 51  1  0
 12 52  1  0
 13 53  1  0
 13 54  1  0
 14 55  1  0
 14 56  1  0
 15 57  1  0
 15 58  1  0
 16 59  1  0
 16 60  1  0
 17 61  1  0
 17 62  1  0
 21 63  1  0
 21 64  1  0
 22 65  1  0
 23 66  1  0
 23 67  1  0
 27 68  1  0
 28 69  1  0
 29 70  1  0
M  END
>  <Ligand ID>  (1) 
LIG0000514

>  <Ligand>  (1) 
LPA

>  <SMILES>  (1) 
CCCCCCCC/C=C\CCCCCCCC(=O)OCC(COP(=O)(O)O)O

>  <CID>  (1) 
5497152.0

>  <ChEMBL ID>  (1) 
nan

>  <InChiKey>  (1) 
WRGQSWVCFNIUNZ-KTKRTIGZSA-N

>  <InChi>  (1) 
InChI=1S/C21H41O7P/c1-2-3-4-5-6-7-8-9-10-11-12-13-14-15-16-17-21(23)27-18-20(22)19-28-29(24,25)26/h9-10,20,22H,2-8,11-19H2,1H3,(H2,24,25,26)/b10-9-

>  <IUPAC Name>  (1) 
(2-hydroxy-3-phosphonooxypropyl) (Z)-octadec-9-enoate

$$$$
