
     RDKit          3D

 23 23  0  0  0  0  0  0  0  0999 V2000
    3.5791   -0.2656   -0.4002 O   0  0  0  0  0  0  0  0  0  0  0  0
    2.4707    0.5341   -0.6473 C   0  0  0  0  0  0  0  0  0  0  0  0
    2.7072    1.7524   -0.9142 O   0  0  0  0  0  0  0  0  0  0  0  0
    1.0823   -0.0084   -0.6016 C   0  0  2  0  0  0  0  0  0  0  0  0
    0.2918    0.7067    0.4792 C   0  0  0  0  0  0  0  0  0  0  0  0
   -1.0627    0.2433    0.5919 N   0  0  0  0  0  0  0  0  0  0  0  0
   -1.4764   -0.7334    1.3605 O   0  0  0  0  0  0  0  0  0  0  0  0
   -2.7728   -0.8855    1.2122 C   0  0  0  0  0  0  0  0  0  0  0  0
   -3.5520   -1.7079    1.7657 O   0  0  0  0  0  0  0  0  0  0  0  0
   -3.2240    0.0269    0.3120 N   0  0  0  0  0  0  0  0  0  0  0  0
   -2.1513    0.7266   -0.0698 C   0  0  0  0  0  0  0  0  0  0  0  0
   -2.1931    1.6643   -0.9031 O   0  0  0  0  0  0  0  0  0  0  0  0
    1.1447   -1.3785   -0.2829 N   0  0  0  0  0  0  0  0  0  0  0  0
    0.4020    0.1067   -1.9485 C   0  0  0  0  0  0  0  0  0  0  0  0
    4.5101    0.1057   -0.2709 H   0  0  0  0  0  0  0  0  0  0  0  0
    0.2584    1.8057    0.2434 H   0  0  0  0  0  0  0  0  0  0  0  0
    0.8134    0.6400    1.4550 H   0  0  0  0  0  0  0  0  0  0  0  0
   -4.2115    0.1690   -0.0277 H   0  0  0  0  0  0  0  0  0  0  0  0
    1.1550   -1.6513    0.7009 H   0  0  0  0  0  0  0  0  0  0  0  0
    1.4898   -2.0400   -0.9796 H   0  0  0  0  0  0  0  0  0  0  0  0
    0.1435    1.1222   -2.2489 H   0  0  0  0  0  0  0  0  0  0  0  0
   -0.4891   -0.5660   -1.9149 H   0  0  0  0  0  0  0  0  0  0  0  0
    1.0848   -0.3668   -2.6878 H   0  0  0  0  0  0  0  0  0  0  0  0
  1  2  1  0
  2  3  2  0
  2  4  1  0
  4  5  1  0
  5  6  1  0
  6  7  1  0
  7  8  1  0
  8  9  2  0
  8 10  1  0
 10 11  1  0
 11 12  2  0
  4 13  1  1
  4 14  1  0
 11  6  1  0
  1 15  1  0
  5 16  1  0
  5 17  1  0
 10 18  1  0
 13 19  1  0
 13 20  1  0
 14 21  1  0
 14 22  1  0
 14 23  1  0
M  END
>  <Ligand ID>  (1) 
LIG0001085

>  <Ligand>  (1) 
CHEMBL138515

>  <SMILES>  (1) 
OC(=O)[C@](Cn1oc(=O)[nH]c1=O)(N)C

>  <CID>  (1) 
10465471.0

>  <ChEMBL ID>  (1) 
nan

>  <InChiKey>  (1) 
ZEGMVXGYZWETPS-LURJTMIESA-N

>  <InChi>  (1) 
InChI=1S/C6H9N3O5/c1-6(7,3(10)11)2-9-4(12)8-5(13)14-9/h2,7H2,1H3,(H,10,11)(H,8,12,13)/t6-/m0/s1

>  <IUPAC Name>  (1) 
(2S)-2-amino-3-(3,5-dioxo-1,2,4-oxadiazolidin-2-yl)-2-methylpropanoic acid

$$$$
