
     RDKit          2D

142145  0  0  0  0  0  0  0  0999 V2000
   38.5249   14.4252    0.0000 C   0  0  0  0  0  0  0  0  0  0  0  0
   37.0577   14.1134    0.0000 C   0  0  0  0  0  0  0  0  0  0  0  0
   35.5905   13.8015    0.0000 C   0  0  0  0  0  0  0  0  0  0  0  0
   34.1232   13.4896    0.0000 C   0  0  0  0  0  0  0  0  0  0  0  0
   32.6560   13.1778    0.0000 C   0  0  0  0  0  0  0  0  0  0  0  0
   31.1888   12.8659    0.0000 C   0  0  0  0  0  0  0  0  0  0  0  0
   29.7216   12.5540    0.0000 C   0  0  0  0  0  0  0  0  0  0  0  0
   28.2544   12.2421    0.0000 C   0  0  0  0  0  0  0  0  0  0  0  0
   26.7871   11.9303    0.0000 C   0  0  0  0  0  0  0  0  0  0  0  0
   25.3199   11.6184    0.0000 C   0  0  0  0  0  0  0  0  0  0  0  0
   23.8527   11.3065    0.0000 C   0  0  0  0  0  0  0  0  0  0  0  0
   22.3855   10.9947    0.0000 C   0  0  0  0  0  0  0  0  0  0  0  0
   20.9182   10.6828    0.0000 C   0  0  0  0  0  0  0  0  0  0  0  0
   19.4510   10.3709    0.0000 C   0  0  0  0  0  0  0  0  0  0  0  0
   17.9838   10.0591    0.0000 C   0  0  0  0  0  0  0  0  0  0  0  0
   16.5166    9.7472    0.0000 C   0  0  0  0  0  0  0  0  0  0  0  0
   15.0494    9.4353    0.0000 C   0  0  0  0  0  0  0  0  0  0  0  0
   13.5821    9.1235    0.0000 C   0  0  0  0  0  0  0  0  0  0  0  0
   12.1149    8.8116    0.0000 N   0  0  0  0  0  0  0  0  0  0  0  0
   11.6514    7.3850    0.0000 C   0  0  0  0  0  0  0  0  0  0  0  0
   10.2248    7.8485    0.0000 C   0  0  0  0  0  0  0  0  0  0  0  0
   10.0407    8.7149    0.0000 O   0  0  0  0  0  0  0  0  0  0  0  0
    9.1101    6.8449    0.0000 N   0  0  0  0  0  0  0  0  0  0  0  0
    7.6835    7.3084    0.0000 C   0  0  0  0  0  0  0  0  0  0  0  0
    7.2200    5.8818    0.0000 C   0  0  0  0  0  0  0  0  0  0  0  0
    8.0453    5.1644    0.0000 O   0  0  0  0  0  0  0  0  0  0  0  0
    5.7528    5.5699    0.0000 N   0  0  0  0  0  0  0  0  0  0  0  0
    5.2892    4.1433    0.0000 C   0  0  0  0  0  0  0  0  0  0  0  0
    3.8627    4.6069    0.0000 C   0  0  0  0  0  0  0  0  0  0  0  0
    3.7674    5.6962    0.0000 O   0  0  0  0  0  0  0  0  0  0  0  0
    2.7479    3.6032    0.0000 N   0  0  0  0  0  0  0  0  0  0  0  0
    1.3213    4.0667    0.0000 C   0  0  0  0  0  0  0  0  0  0  0  0
    1.7849    5.4933    0.0000 C   0  0  0  0  0  0  0  0  0  0  0  0
    2.8188    5.8493    0.0000 O   0  0  0  0  0  0  0  0  0  0  0  0
    0.7812    6.6080    0.0000 N   0  0  0  0  0  0  0  0  0  0  0  0
    0.8578    2.6401    0.0000 C   0  0  0  0  0  0  0  0  0  0  0  0
    0.3943    1.2135    0.0000 C   0  0  0  0  0  0  0  0  0  0  0  0
    1.2760    0.0000    0.0000 C   0  0  0  0  0  0  0  0  0  0  0  0
    0.3943   -1.2135    0.0000 N   0  0  0  0  0  0  0  0  0  0  0  0
   -1.0323   -0.7500    0.0000 C   0  0  0  0  0  0  0  0  0  0  0  0
   -1.0323    0.7500    0.0000 C   0  0  0  0  0  0  0  0  0  0  0  0
   -2.3313    1.5000    0.0000 C   0  0  0  0  0  0  0  0  0  0  0  0
   -3.6304    0.7500    0.0000 C   0  0  0  0  0  0  0  0  0  0  0  0
   -3.6304   -0.7500    0.0000 C   0  0  0  0  0  0  0  0  0  0  0  0
   -2.3313   -1.5000    0.0000 C   0  0  0  0  0  0  0  0  0  0  0  0
    6.7158    3.6798    0.0000 C   0  0  0  0  0  0  0  0  0  0  0  0
    8.1424    3.2163    0.0000 C   0  0  0  0  0  0  0  0  0  0  0  0
    9.5690    2.7528    0.0000 C   0  0  0  0  0  0  0  0  0  0  0  0
   10.9956    2.2892    0.0000 N   0  0  0  0  0  0  0  0  0  0  0  0
   12.1103    3.2929    0.0000 C   0  0  0  0  0  0  0  0  0  0  0  0
   13.5369    2.8294    0.0000 N   0  0  0  0  0  0  0  0  0  0  0  0
   11.7984    4.7602    0.0000 N   0  0  0  0  0  0  0  0  0  0  0  0
    8.1470    8.7350    0.0000 C   0  0  0  0  0  0  0  0  0  0  0  0
    8.6106   10.1615    0.0000 C   0  0  0  0  0  0  0  0  0  0  0  0
   10.0778   10.4734    0.0000 C   0  0  0  0  0  0  0  0  0  0  0  0
   10.5413   11.9000    0.0000 C   0  0  0  0  0  0  0  0  0  0  0  0
    9.5376   13.0147    0.0000 C   0  0  0  0  0  0  0  0  0  0  0  0
    8.0704   12.7028    0.0000 C   0  0  0  0  0  0  0  0  0  0  0  0
    7.6069   11.2763    0.0000 C   0  0  0  0  0  0  0  0  0  0  0  0
   13.0780    6.9215    0.0000 C   0  0  0  0  0  0  0  0  0  0  0  0
   14.5046    6.4580    0.0000 C   0  0  0  0  0  0  0  0  0  0  0  0
   15.7181    7.3396    0.0000 N   0  0  0  0  0  0  0  0  0  0  0  0
   16.9316    6.4580    0.0000 C   0  0  0  0  0  0  0  0  0  0  0  0
   16.4681    5.0314    0.0000 N   0  0  0  0  0  0  0  0  0  0  0  0
   14.9681    5.0314    0.0000 C   0  0  0  0  0  0  0  0  0  0  0  0
   39.9921   14.7371    0.0000 H   0  0  0  0  0  0  0  0  0  0  0  0
   38.8368   12.9580    0.0000 H   0  0  0  0  0  0  0  0  0  0  0  0
   38.2130   15.8924    0.0000 H   0  0  0  0  0  0  0  0  0  0  0  0
   37.3696   12.6461    0.0000 H   0  0  0  0  0  0  0  0  0  0  0  0
   36.7458   15.5806    0.0000 H   0  0  0  0  0  0  0  0  0  0  0  0
   35.2786   15.2687    0.0000 H   0  0  0  0  0  0  0  0  0  0  0  0
   35.9023   12.3343    0.0000 H   0  0  0  0  0  0  0  0  0  0  0  0
   34.4351   12.0224    0.0000 H   0  0  0  0  0  0  0  0  0  0  0  0
   33.8114   14.9568    0.0000 H   0  0  0  0  0  0  0  0  0  0  0  0
   32.3442   14.6450    0.0000 H   0  0  0  0  0  0  0  0  0  0  0  0
   32.9679   11.7105    0.0000 H   0  0  0  0  0  0  0  0  0  0  0  0
   31.5007   11.3987    0.0000 H   0  0  0  0  0  0  0  0  0  0  0  0
   30.8769   14.3331    0.0000 H   0  0  0  0  0  0  0  0  0  0  0  0
   29.4097   14.0212    0.0000 H   0  0  0  0  0  0  0  0  0  0  0  0
   30.0334   11.0868    0.0000 H   0  0  0  0  0  0  0  0  0  0  0  0
   28.5662   10.7749    0.0000 H   0  0  0  0  0  0  0  0  0  0  0  0
   27.9425   13.7094    0.0000 H   0  0  0  0  0  0  0  0  0  0  0  0
   26.4753   13.3975    0.0000 H   0  0  0  0  0  0  0  0  0  0  0  0
   27.0990   10.4631    0.0000 H   0  0  0  0  0  0  0  0  0  0  0  0
   25.6318   10.1512    0.0000 H   0  0  0  0  0  0  0  0  0  0  0  0
   25.0080   13.0856    0.0000 H   0  0  0  0  0  0  0  0  0  0  0  0
   23.5408   12.7738    0.0000 H   0  0  0  0  0  0  0  0  0  0  0  0
   24.1646    9.8393    0.0000 H   0  0  0  0  0  0  0  0  0  0  0  0
   22.6973    9.5275    0.0000 H   0  0  0  0  0  0  0  0  0  0  0  0
   22.0736   12.4619    0.0000 H   0  0  0  0  0  0  0  0  0  0  0  0
   20.6064   12.1500    0.0000 H   0  0  0  0  0  0  0  0  0  0  0  0
   21.2301    9.2156    0.0000 H   0  0  0  0  0  0  0  0  0  0  0  0
   19.7629    8.9037    0.0000 H   0  0  0  0  0  0  0  0  0  0  0  0
   19.1392   11.8382    0.0000 H   0  0  0  0  0  0  0  0  0  0  0  0
   17.6719   11.5263    0.0000 H   0  0  0  0  0  0  0  0  0  0  0  0
   18.2957    8.5919    0.0000 H   0  0  0  0  0  0  0  0  0  0  0  0
   16.8285    8.2800    0.0000 H   0  0  0  0  0  0  0  0  0  0  0  0
   16.2047   11.2144    0.0000 H   0  0  0  0  0  0  0  0  0  0  0  0
   15.5820    8.3433    0.0000 H   0  0  0  0  0  0  0  0  0  0  0  0
   14.7375   10.9026    0.0000 H   0  0  0  0  0  0  0  0  0  0  0  0
   14.0705    7.7052    0.0000 H   0  0  0  0  0  0  0  0  0  0  0  0
   13.2703   10.5907    0.0000 H   0  0  0  0  0  0  0  0  0  0  0  0
   11.1979    9.6087    0.0000 H   0  0  0  0  0  0  0  0  0  0  0  0
   11.1879    5.9584    0.0000 H   0  0  0  0  0  0  0  0  0  0  0  0
    9.4220    5.3776    0.0000 H   0  0  0  0  0  0  0  0  0  0  0  0
    6.2569    7.7719    0.0000 H   0  0  0  0  0  0  0  0  0  0  0  0
    4.7491    6.6846    0.0000 H   0  0  0  0  0  0  0  0  0  0  0  0
    4.8257    2.7168    0.0000 H   0  0  0  0  0  0  0  0  0  0  0  0
    3.2363    2.1849    0.0000 H   0  0  0  0  0  0  0  0  0  0  0  0
   -0.1052    4.5302    0.0000 H   0  0  0  0  0  0  0  0  0  0  0  0
    1.2447    8.0346    0.0000 H   0  0  0  0  0  0  0  0  0  0  0  0
   -0.6860    6.2961    0.0000 H   0  0  0  0  0  0  0  0  0  0  0  0
    2.2173    2.0061    0.0000 H   0  0  0  0  0  0  0  0  0  0  0  0
   -0.5688    3.1036    0.0000 H   0  0  0  0  0  0  0  0  0  0  0  0
    2.7760    0.0000    0.0000 H   0  0  0  0  0  0  0  0  0  0  0  0
    0.8578   -2.6401    0.0000 H   0  0  0  0  0  0  0  0  0  0  0  0
   -2.3313    3.0000    0.0000 H   0  0  0  0  0  0  0  0  0  0  0  0
   -4.9294    1.5000    0.0000 H   0  0  0  0  0  0  0  0  0  0  0  0
   -4.9294   -1.5000    0.0000 H   0  0  0  0  0  0  0  0  0  0  0  0
   -2.3313   -3.0000    0.0000 H   0  0  0  0  0  0  0  0  0  0  0  0
    6.2523    2.2532    0.0000 H   0  0  0  0  0  0  0  0  0  0  0  0
    7.2953    4.6071    0.0000 H   0  0  0  0  0  0  0  0  0  0  0  0
    7.6789    1.7897    0.0000 H   0  0  0  0  0  0  0  0  0  0  0  0
    8.7764    4.5757    0.0000 H   0  0  0  0  0  0  0  0  0  0  0  0
    9.1055    1.3262    0.0000 H   0  0  0  0  0  0  0  0  0  0  0  0
   10.0325    4.1793    0.0000 H   0  0  0  0  0  0  0  0  0  0  0  0
   14.5209    3.9615    0.0000 H   0  0  0  0  0  0  0  0  0  0  0  0
   13.8487    1.3622    0.0000 H   0  0  0  0  0  0  0  0  0  0  0  0
   13.0272    5.6205    0.0000 H   0  0  0  0  0  0  0  0  0  0  0  0
   10.3718    5.2237    0.0000 H   0  0  0  0  0  0  0  0  0  0  0  0
    9.0306    8.6732    0.0000 H   0  0  0  0  0  0  0  0  0  0  0  0
    6.7204    9.1985    0.0000 H   0  0  0  0  0  0  0  0  0  0  0  0
   10.7746    9.4781    0.0000 H   0  0  0  0  0  0  0  0  0  0  0  0
   12.0085   12.2119    0.0000 H   0  0  0  0  0  0  0  0  0  0  0  0
   10.0011   14.4413    0.0000 H   0  0  0  0  0  0  0  0  0  0  0  0
    7.0667   13.8176    0.0000 H   0  0  0  0  0  0  0  0  0  0  0  0
    6.1396   10.9644    0.0000 H   0  0  0  0  0  0  0  0  0  0  0  0
   12.7918    5.4490    0.0000 H   0  0  0  0  0  0  0  0  0  0  0  0
   14.0221    8.0871    0.0000 H   0  0  0  0  0  0  0  0  0  0  0  0
   15.7181    8.8396    0.0000 H   0  0  0  0  0  0  0  0  0  0  0  0
   18.3582    6.9215    0.0000 H   0  0  0  0  0  0  0  0  0  0  0  0
   13.9451    3.9344    0.0000 H   0  0  0  0  0  0  0  0  0  0  0  0
  1  2  1  0
  2  3  1  0
  3  4  1  0
  4  5  1  0
  5  6  1  0
  6  7  1  0
  7  8  1  0
  8  9  1  0
  9 10  1  0
 10 11  1  0
 11 12  1  0
 12 13  1  0
 13 14  1  0
 14 15  1  0
 15 16  1  0
 16 17  1  0
 17 18  1  0
 18 19  1  0
 19 20  1  0
 20 21  1  0
 21 22  2  0
 21 23  1  0
 23 24  1  0
 24 25  1  0
 25 26  2  0
 25 27  1  0
 27 28  1  0
 28 29  1  0
 29 30  2  0
 29 31  1  0
 31 32  1  0
 32 33  1  0
 33 34  2  0
 33 35  1  0
 32 36  1  0
 36 37  1  0
 37 38  2  0
 38 39  1  0
 39 40  1  0
 40 41  2  0
 41 42  1  0
 42 43  2  0
 43 44  1  0
 44 45  2  0
 28 46  1  0
 46 47  1  0
 47 48  1  0
 48 49  1  0
 49 50  2  3
 50 51  1  0
 50 52  1  0
 24 53  1  0
 53 54  1  0
 54 55  2  0
 55 56  1  0
 56 57  2  0
 57 58  1  0
 58 59  2  0
 20 60  1  0
 60 61  1  0
 61 62  1  0
 62 63  1  0
 63 64  2  0
 64 65  1  0
 41 37  1  0
 59 54  1  0
 65 61  2  0
 45 40  1  0
  1 66  1  0
  1 67  1  0
  1 68  1  0
  2 69  1  0
  2 70  1  0
  3 71  1  0
  3 72  1  0
  4 73  1  0
  4 74  1  0
  5 75  1  0
  5 76  1  0
  6 77  1  0
  6 78  1  0
  7 79  1  0
  7 80  1  0
  8 81  1  0
  8 82  1  0
  9 83  1  0
  9 84  1  0
 10 85  1  0
 10 86  1  0
 11 87  1  0
 11 88  1  0
 12 89  1  0
 12 90  1  0
 13 91  1  0
 13 92  1  0
 14 93  1  0
 14 94  1  0
 15 95  1  0
 15 96  1  0
 16 97  1  0
 16 98  1  0
 17 99  1  0
 17100  1  0
 18101  1  0
 18102  1  0
 19103  1  0
 20104  1  6
 23105  1  0
 24106  1  6
 27107  1  0
 28108  1  6
 31109  1  0
 32110  1  6
 35111  1  0
 35112  1  0
 36113  1  0
 36114  1  0
 38115  1  0
 39116  1  0
 42117  1  0
 43118  1  0
 44119  1  0
 45120  1  0
 46121  1  0
 46122  1  0
 47123  1  0
 47124  1  0
 48125  1  0
 48126  1  0
 51127  1  0
 51128  1  0
 52129  1  0
 52130  1  0
 53131  1  0
 53132  1  0
 55133  1  0
 56134  1  0
 57135  1  0
 58136  1  0
 59137  1  0
 60138  1  0
 60139  1  0
 62140  1  0
 63141  1  0
 65142  1  0
M  END
>  <Ligand ID>  (1) 
LIG0001891

>  <Ligand>  (1) 
CHEMBL364726

>  <SMILES>  (1) 
CCCCCCCCCCCCCCCCCCN[C@H](C(=O)N[C@@H](C(=O)N[C@H](C(=O)N[C@H](C(=O)N)Cc1c[nH]c2c1cccc2)CCCN=C(N)N)Cc1ccccc1)Cc1[nH]cnc1

>  <CID>  (1) 
44400428.0

>  <ChEMBL ID>  (1) 
nan

>  <InChiKey>  (1) 
KLMXUFZOBSDDIW-RCFLWTTFSA-N

>  <InChi>  (1) 
InChI=1S/C50H77N11O4/c1-2-3-4-5-6-7-8-9-10-11-12-13-14-15-16-22-29-55-44(33-39-35-54-36-58-39)48(64)61-45(31-37-24-18-17-19-25-37)49(65)59-42(28-23-30-56-50(52)53)47(63)60-43(46(51)62)32-38-34-57-41-27-21-20-26-40(38)41/h17-21,24-27,34-36,42-45,55,57H,2-16,22-23,28-33H2,1H3,(H2,51,62)(H,54,58)(H,59,65)(H,60,63)(H,61,64)(H4,52,53,56)/t42-,43-,44-,45+/m0/s1

>  <IUPAC Name>  (1) 
(2S)-N-[(2S)-1-amino-3-(1H-indol-3-yl)-1-oxopropan-2-yl]-5-(diaminomethylideneamino)-2-[[(2R)-2-[[(2S)-3-(1H-imidazol-5-yl)-2-(octadecylamino)propanoyl]amino]-3-phenylpropanoyl]amino]pentanamide

$$$$
