
     RDKit          3D

 32 34  0  0  0  0  0  0  0  0999 V2000
    0.3702    2.9923    0.5900 O   0  0  0  0  0  0  0  0  0  0  0  0
    0.3528    1.7639    0.3128 C   0  0  0  0  0  0  0  0  0  0  0  0
   -0.8716    1.0571    0.0467 N   0  0  0  0  0  0  0  0  0  0  0  0
   -1.9885    1.8134   -0.4871 C   0  0  0  0  0  0  0  0  0  0  0  0
   -3.2977    1.1132   -0.4229 C   0  0  0  0  0  0  0  0  0  0  0  0
   -3.0752   -0.2561   -0.8266 N   0  0  0  0  0  0  0  0  0  0  0  0
   -2.2166   -0.9672    0.1008 C   0  0  0  0  0  0  0  0  0  0  0  0
   -0.8910   -0.3415    0.3328 C   0  0  1  0  0  0  0  0  0  0  0  0
    0.2728   -1.0846   -0.3381 C   0  0  1  0  0  0  0  0  0  0  0  0
    1.5303   -0.4062   -0.0722 C   0  0  0  0  0  0  0  0  0  0  0  0
    1.5763    0.9534    0.2379 C   0  0  0  0  0  0  0  0  0  0  0  0
    2.7587    1.6154    0.4907 C   0  0  0  0  0  0  0  0  0  0  0  0
    3.9560    0.9574    0.4476 C   0  0  0  0  0  0  0  0  0  0  0  0
    3.9515   -0.3762    0.1470 C   0  0  0  0  0  0  0  0  0  0  0  0
    2.7630   -1.0422   -0.1072 C   0  0  0  0  0  0  0  0  0  0  0  0
    0.1966   -2.5337   -0.0669 C   0  0  0  0  0  0  0  0  0  0  0  0
   -1.7352    2.0482   -1.5479 H   0  0  0  0  0  0  0  0  0  0  0  0
   -2.0272    2.8137    0.0231 H   0  0  0  0  0  0  0  0  0  0  0  0
   -3.8161    1.2180    0.5493 H   0  0  0  0  0  0  0  0  0  0  0  0
   -3.9735    1.5599   -1.1887 H   0  0  0  0  0  0  0  0  0  0  0  0
   -3.9869   -0.7762   -0.8190 H   0  0  0  0  0  0  0  0  0  0  0  0
   -2.8251   -1.0307    1.0517 H   0  0  0  0  0  0  0  0  0  0  0  0
   -2.2124   -2.0056   -0.2756 H   0  0  0  0  0  0  0  0  0  0  0  0
   -0.6829   -0.4530    1.4401 H   0  0  0  0  0  0  0  0  0  0  0  0
    0.0606   -0.9405   -1.4391 H   0  0  0  0  0  0  0  0  0  0  0  0
    2.7820    2.6792    0.7321 H   0  0  0  0  0  0  0  0  0  0  0  0
    4.8899    1.4641    0.6437 H   0  0  0  0  0  0  0  0  0  0  0  0
    4.8991   -0.8951    0.1133 H   0  0  0  0  0  0  0  0  0  0  0  0
    2.8561   -2.0936   -0.3379 H   0  0  0  0  0  0  0  0  0  0  0  0
   -0.5356   -3.0340   -0.7702 H   0  0  0  0  0  0  0  0  0  0  0  0
   -0.2033   -2.7325    0.9517 H   0  0  0  0  0  0  0  0  0  0  0  0
    1.1228   -3.0802   -0.2483 H   0  0  0  0  0  0  0  0  0  0  0  0
  1  2  2  0
  2  3  1  0
  3  4  1  0
  4  5  1  0
  5  6  1  0
  6  7  1  0
  7  8  1  0
  8  9  1  0
  9 10  1  0
 10 11  2  0
 11 12  1  0
 12 13  2  0
 13 14  1  0
 14 15  2  0
  9 16  1  0
 11  2  1  0
  8  3  1  0
 15 10  1  0
  4 17  1  0
  4 18  1  0
  5 19  1  0
  5 20  1  0
  6 21  1  0
  7 22  1  0
  7 23  1  0
  8 24  1  1
  9 25  1  6
 12 26  1  0
 13 27  1  0
 14 28  1  0
 15 29  1  0
 16 30  1  0
 16 31  1  0
 16 32  1  0
M  END
>  <Ligand ID>  (1) 
LIG0002269

>  <Ligand>  (1) 
SCHEMBL3559287

>  <SMILES>  (1) 
O=C1N2CCNC[C@H]2[C@@H](c2c1cccc2)C

>  <CID>  (1) 
11171955.0

>  <ChEMBL ID>  (1) 
nan

>  <InChiKey>  (1) 
OYBHRGMWPCZYQN-SKDRFNHKSA-N

>  <InChi>  (1) 
InChI=1S/C13H16N2O/c1-9-10-4-2-3-5-11(10)13(16)15-7-6-14-8-12(9)15/h2-5,9,12,14H,6-8H2,1H3/t9-,12+/m1/s1

>  <IUPAC Name>  (1) 
(11R,11aR)-11-methyl-1,2,3,4,11,11a-hexahydropyrazino[1,2-b]isoquinolin-6-one

$$$$
