
     RDKit          3D

 50 51  0  0  0  0  0  0  0  0999 V2000
    0.0543   -0.5927   -0.8798 O   0  0  0  0  0  0  0  0  0  0  0  0
    0.0940   -0.3397    0.3514 C   0  0  0  0  0  0  0  0  0  0  0  0
    1.2548    0.2475    1.0455 C   0  0  0  0  0  0  0  0  0  0  0  0
    2.3598    0.4829    0.0419 C   0  0  0  0  0  0  0  0  0  0  0  0
    3.4931    1.0761    0.8194 C   0  0  0  0  0  0  0  0  0  0  0  0
    3.8245    2.4159    0.6949 C   0  0  0  0  0  0  0  0  0  0  0  0
    4.8692    2.9582    1.4128 C   0  0  0  0  0  0  0  0  0  0  0  0
    5.5858    2.1414    2.2638 C   0  0  0  0  0  0  0  0  0  0  0  0
    5.2902    0.8005    2.4187 C   0  0  0  0  0  0  0  0  0  0  0  0
    4.2370    0.3079    1.6786 C   0  0  0  0  0  0  0  0  0  0  0  0
    2.7170   -0.7780   -0.5406 N   0  0  0  0  0  0  0  0  0  0  0  0
    2.7283   -1.0704   -1.9190 C   0  0  0  0  0  0  0  0  0  0  0  0
    2.4267   -0.2629   -2.8291 O   0  0  0  0  0  0  0  0  0  0  0  0
    3.1277   -2.4442   -2.3544 C   0  0  0  0  0  0  0  0  0  0  0  0
   -1.0572   -0.6388    1.1306 N   0  0  0  0  0  0  0  0  0  0  0  0
   -2.2661   -1.2169    0.5771 C   0  0  0  0  0  0  0  0  0  0  0  0
   -2.9020   -0.3688   -0.4791 C   0  0  0  0  0  0  0  0  0  0  0  0
   -4.1349   -1.0289   -0.9959 C   0  0  0  0  0  0  0  0  0  0  0  0
   -4.2909   -1.8361   -2.1052 C   0  0  0  0  0  0  0  0  0  0  0  0
   -5.6246   -2.1994   -2.1583 C   0  0  0  0  0  0  0  0  0  0  0  0
   -6.2153   -1.5792   -1.0549 C   0  0  0  0  0  0  0  0  0  0  0  0
   -5.2974   -0.8964   -0.3943 O   0  0  0  0  0  0  0  0  0  0  0  0
   -3.1227    0.9806   -0.1106 N   0  0  0  0  0  0  0  0  0  0  0  0
   -3.9602    1.2356    1.0062 C   0  0  0  0  0  0  0  0  0  0  0  0
   -2.1159    1.9267   -0.3805 C   0  0  0  0  0  0  0  0  0  0  0  0
    1.6862   -0.5031    1.7717 H   0  0  0  0  0  0  0  0  0  0  0  0
    0.9976    1.1689    1.6089 H   0  0  0  0  0  0  0  0  0  0  0  0
    2.0405    1.2278   -0.6894 H   0  0  0  0  0  0  0  0  0  0  0  0
    3.2146    3.0023    0.0035 H   0  0  0  0  0  0  0  0  0  0  0  0
    5.0942    4.0113    1.2851 H   0  0  0  0  0  0  0  0  0  0  0  0
    6.4013    2.5901    2.8164 H   0  0  0  0  0  0  0  0  0  0  0  0
    5.8400    0.1538    3.0776 H   0  0  0  0  0  0  0  0  0  0  0  0
    4.0066   -0.7539    1.8044 H   0  0  0  0  0  0  0  0  0  0  0  0
    2.9944   -1.5468    0.1394 H   0  0  0  0  0  0  0  0  0  0  0  0
    3.3317   -2.5059   -3.4419 H   0  0  0  0  0  0  0  0  0  0  0  0
    3.9834   -2.7482   -1.7362 H   0  0  0  0  0  0  0  0  0  0  0  0
    2.2980   -3.1367   -2.1450 H   0  0  0  0  0  0  0  0  0  0  0  0
   -1.0655   -0.4445    2.1578 H   0  0  0  0  0  0  0  0  0  0  0  0
   -2.9537   -1.5835    1.3407 H   0  0  0  0  0  0  0  0  0  0  0  0
   -1.9059   -2.1493    0.0473 H   0  0  0  0  0  0  0  0  0  0  0  0
   -2.2130   -0.3434   -1.3504 H   0  0  0  0  0  0  0  0  0  0  0  0
   -3.4970   -2.1145   -2.7872 H   0  0  0  0  0  0  0  0  0  0  0  0
   -6.1090   -2.8243   -2.8885 H   0  0  0  0  0  0  0  0  0  0  0  0
   -7.2707   -1.6301   -0.7556 H   0  0  0  0  0  0  0  0  0  0  0  0
   -4.0286    0.4092    1.7355 H   0  0  0  0  0  0  0  0  0  0  0  0
   -3.4665    2.0705    1.5852 H   0  0  0  0  0  0  0  0  0  0  0  0
   -4.9348    1.6576    0.6910 H   0  0  0  0  0  0  0  0  0  0  0  0
   -1.5485    1.6058   -1.2758 H   0  0  0  0  0  0  0  0  0  0  0  0
   -1.3911    2.1503    0.4143 H   0  0  0  0  0  0  0  0  0  0  0  0
   -2.5795    2.9156   -0.6477 H   0  0  0  0  0  0  0  0  0  0  0  0
  1  2  2  0
  2  3  1  0
  3  4  1  0
  4  5  1  0
  5  6  2  0
  6  7  1  0
  7  8  2  0
  8  9  1  0
  9 10  2  0
  4 11  1  0
 11 12  1  0
 12 13  2  0
 12 14  1  0
  2 15  1  0
 15 16  1  0
 16 17  1  0
 17 18  1  0
 18 19  2  0
 19 20  1  0
 20 21  2  0
 21 22  1  0
 17 23  1  0
 23 24  1  0
 23 25  1  0
 10  5  1  0
 22 18  1  0
  3 26  1  0
  3 27  1  0
  4 28  1  0
  6 29  1  0
  7 30  1  0
  8 31  1  0
  9 32  1  0
 10 33  1  0
 11 34  1  0
 14 35  1  0
 14 36  1  0
 14 37  1  0
 15 38  1  0
 16 39  1  0
 16 40  1  0
 17 41  1  0
 19 42  1  0
 20 43  1  0
 21 44  1  0
 24 45  1  0
 24 46  1  0
 24 47  1  0
 25 48  1  0
 25 49  1  0
 25 50  1  0
M  END
>  <Ligand ID>  (1) 
LIG0003324

>  <Ligand>  (1) 
SMR000064602

>  <SMILES>  (1) 
O=C(CC(c1ccccc1)NC(=O)C)NCC(c1ccco1)N(C)C

>  <CID>  (1) 
2999792.0

>  <ChEMBL ID>  (1) 
nan

>  <InChiKey>  (1) 
INGNDLJQKMEYPE-UHFFFAOYSA-N

>  <InChi>  (1) 
InChI=1S/C19H25N3O3/c1-14(23)21-16(15-8-5-4-6-9-15)12-19(24)20-13-17(22(2)3)18-10-7-11-25-18/h4-11,16-17H,12-13H2,1-3H3,(H,20,24)(H,21,23)

>  <IUPAC Name>  (1) 
3-acetamido-N-[2-(dimethylamino)-2-(furan-2-yl)ethyl]-3-phenylpropanamide

$$$$
