
     RDKit          3D

 29 29  0  0  0  0  0  0  0  0999 V2000
   -0.4000   -0.1609   -1.1063 O   0  0  0  0  0  0  0  0  0  0  0  0
   -0.4120    0.0466    0.1250 C   0  0  0  0  0  0  0  0  0  0  0  0
   -1.6184    0.1356    0.9338 C   0  0  0  0  0  0  0  0  0  0  0  0
   -2.9332   -0.0689    0.2980 C   0  0  0  0  0  0  0  0  0  0  0  0
   -3.1808   -1.3932   -0.3491 C   0  0  0  0  0  0  0  0  0  0  0  0
   -4.4878   -1.3645   -0.8694 F   0  0  0  0  0  0  0  0  0  0  0  0
   -3.1846   -2.4363    0.5598 F   0  0  0  0  0  0  0  0  0  0  0  0
   -2.3772   -1.6367   -1.4241 F   0  0  0  0  0  0  0  0  0  0  0  0
   -3.3595    1.0208   -0.6609 C   0  0  0  0  0  0  0  0  0  0  0  0
   -4.6024    0.6812   -1.1565 F   0  0  0  0  0  0  0  0  0  0  0  0
   -3.4971    2.2381   -0.0294 F   0  0  0  0  0  0  0  0  0  0  0  0
   -2.5183    1.0820   -1.7437 F   0  0  0  0  0  0  0  0  0  0  0  0
   -3.8902    0.0401    1.3633 O   0  0  0  0  0  0  0  0  0  0  0  0
    0.8407    0.2058    0.7752 N   0  0  0  0  0  0  0  0  0  0  0  0
    2.1105    0.1569    0.1905 C   0  0  0  0  0  0  0  0  0  0  0  0
    2.4062   -0.0542   -1.1309 C   0  0  0  0  0  0  0  0  0  0  0  0
    3.7154   -0.0852   -1.6173 C   0  0  0  0  0  0  0  0  0  0  0  0
    4.7940    0.0986   -0.7760 C   0  0  0  0  0  0  0  0  0  0  0  0
    4.5068    0.3119    0.5559 C   0  0  0  0  0  0  0  0  0  0  0  0
    3.2266    0.3412    1.0258 C   0  0  0  0  0  0  0  0  0  0  0  0
    5.8618    0.5511    1.6621 Cl  0  0  0  0  0  0  0  0  0  0  0  0
    6.4284    0.0675   -1.3380 Cl  0  0  0  0  0  0  0  0  0  0  0  0
   -1.6821    1.0731    1.5395 H   0  0  0  0  0  0  0  0  0  0  0  0
   -1.5290   -0.6634    1.7363 H   0  0  0  0  0  0  0  0  0  0  0  0
   -3.6538   -0.6181    2.0737 H   0  0  0  0  0  0  0  0  0  0  0  0
    0.7907    0.3787    1.8097 H   0  0  0  0  0  0  0  0  0  0  0  0
    1.6418   -0.2072   -1.8621 H   0  0  0  0  0  0  0  0  0  0  0  0
    3.9021   -0.2572   -2.6809 H   0  0  0  0  0  0  0  0  0  0  0  0
    3.1012    0.5166    2.0958 H   0  0  0  0  0  0  0  0  0  0  0  0
  1  2  2  0
  2  3  1  0
  3  4  1  0
  4  5  1  0
  5  6  1  0
  5  7  1  0
  5  8  1  0
  4  9  1  0
  9 10  1  0
  9 11  1  0
  9 12  1  0
  4 13  1  0
  2 14  1  0
 14 15  1  0
 15 16  2  0
 16 17  1  0
 17 18  2  0
 18 19  1  0
 19 20  2  0
 19 21  1  0
 18 22  1  0
 20 15  1  0
  3 23  1  0
  3 24  1  0
 13 25  1  0
 14 26  1  0
 16 27  1  0
 17 28  1  0
 20 29  1  0
M  END
>  <Ligand ID>  (1) 
LIG0005795

>  <Ligand>  (1) 
MLS000537020

>  <SMILES>  (1) 
O=C(CC(C(F)(F)F)(C(F)(F)F)O)Nc1ccc(c(c1)Cl)Cl

>  <CID>  (1) 
2167979.0

>  <ChEMBL ID>  (1) 
nan

>  <InChiKey>  (1) 
OPKJUDPAICUZRP-UHFFFAOYSA-N

>  <InChi>  (1) 
InChI=1S/C11H7Cl2F6NO2/c12-6-2-1-5(3-7(6)13)20-8(21)4-9(22,10(14,15)16)11(17,18)19/h1-3,22H,4H2,(H,20,21)

>  <IUPAC Name>  (1) 
N-(3,4-dichlorophenyl)-4,4,4-trifluoro-3-hydroxy-3-(trifluoromethyl)butanamide

$$$$
