
     RDKit          3D

 22 21  0  0  0  0  0  0  0  0999 V2000
   -3.6941   -0.3953   -0.2789 C   0  0  0  0  0  0  0  0  0  0  0  0
   -2.2996    0.2387   -0.3639 C   0  0  0  0  0  0  0  0  0  0  0  0
   -2.1208    0.9852    0.9479 C   0  0  0  0  0  0  0  0  0  0  0  0
   -0.5567    1.8164    1.1266 S   0  0  0  0  0  0  0  0  0  0  0  0
    1.0249    0.3982    1.2566 S   0  0  0  0  0  0  0  0  0  0  0  0
    1.5832    0.1068   -0.4474 C   0  0  0  0  0  0  0  0  0  0  0  0
    2.7194   -0.8981   -0.4857 C   0  0  0  0  0  0  0  0  0  0  0  0
    3.8968   -0.3745    0.3398 C   0  0  0  0  0  0  0  0  0  0  0  0
   -4.3503    0.1014   -1.0184 H   0  0  0  0  0  0  0  0  0  0  0  0
   -4.1566   -0.2669    0.7012 H   0  0  0  0  0  0  0  0  0  0  0  0
   -3.6296   -1.4712   -0.5471 H   0  0  0  0  0  0  0  0  0  0  0  0
   -2.2999    0.9785   -1.2168 H   0  0  0  0  0  0  0  0  0  0  0  0
   -1.5694   -0.5704   -0.5204 H   0  0  0  0  0  0  0  0  0  0  0  0
   -2.9164    1.7697    0.9337 H   0  0  0  0  0  0  0  0  0  0  0  0
   -2.3722    0.3170    1.7872 H   0  0  0  0  0  0  0  0  0  0  0  0
    2.0196    1.0646   -0.8416 H   0  0  0  0  0  0  0  0  0  0  0  0
    0.7462   -0.2162   -1.0865 H   0  0  0  0  0  0  0  0  0  0  0  0
    3.0385   -0.9566   -1.5469 H   0  0  0  0  0  0  0  0  0  0  0  0
    2.4138   -1.8864   -0.1131 H   0  0  0  0  0  0  0  0  0  0  0  0
    3.7703    0.7138    0.5129 H   0  0  0  0  0  0  0  0  0  0  0  0
    4.8513   -0.5769   -0.1567 H   0  0  0  0  0  0  0  0  0  0  0  0
    3.9014   -0.8780    1.3149 H   0  0  0  0  0  0  0  0  0  0  0  0
  1  2  1  0
  2  3  1  0
  3  4  1  0
  4  5  1  0
  5  6  1  0
  6  7  1  0
  7  8  1  0
  1  9  1  0
  1 10  1  0
  1 11  1  0
  2 12  1  0
  2 13  1  0
  3 14  1  0
  3 15  1  0
  6 16  1  0
  6 17  1  0
  7 18  1  0
  7 19  1  0
  8 20  1  0
  8 21  1  0
  8 22  1  0
M  END
>  <Ligand ID>  (1) 
LIG0000349

>  <Ligand>  (1) 
Dipropyl disulfide

>  <SMILES>  (1) 
CCCSSCCC

>  <CID>  (1) 
12377.0

>  <ChEMBL ID>  (1) 
nan

>  <InChiKey>  (1) 
ALVPFGSHPUPROW-UHFFFAOYSA-N

>  <InChi>  (1) 
InChI=1S/C6H14S2/c1-3-5-7-8-6-4-2/h3-6H2,1-2H3

>  <IUPAC Name>  (1) 
1-(propyldisulfanyl)propane

$$$$
