
     RDKit          3D

 54 58  0  0  0  0  0  0  0  0999 V2000
    2.7474   -0.1652   -2.1392 O   0  0  0  0  0  0  0  0  0  0  0  0
    2.2706   -0.5658   -1.0665 C   0  0  0  0  0  0  0  0  0  0  0  0
    0.8502   -0.2621   -0.8049 C   0  0  0  0  0  0  0  0  0  0  0  0
    0.4882    1.0660   -0.7829 C   0  0  0  0  0  0  0  0  0  0  0  0
   -0.8231    1.3712   -0.5368 C   0  0  0  0  0  0  0  0  0  0  0  0
   -1.7451    0.3472   -0.3177 C   0  0  0  0  0  0  0  0  0  0  0  0
   -1.4021   -0.9500   -0.3367 N   0  0  0  0  0  0  0  0  0  0  0  0
   -0.0871   -1.2188   -0.5857 C   0  0  0  0  0  0  0  0  0  0  0  0
    0.2612   -2.4756   -0.6203 N   0  0  0  0  0  0  0  0  0  0  0  0
   -2.3122   -2.0098   -0.1070 C   0  0  0  0  0  0  0  0  0  0  0  0
   -3.1853   -1.9031    1.1099 C   0  0  0  0  0  0  0  0  0  0  0  0
   -4.0107   -3.1806    0.9777 C   0  0  0  0  0  0  0  0  0  0  0  0
   -4.0453   -3.4832   -0.5234 C   0  0  0  0  0  0  0  0  0  0  0  0
   -3.2925   -2.3199   -1.1836 C   0  0  0  0  0  0  0  0  0  0  0  0
   -3.0000    0.7132   -0.0859 N   0  0  0  0  0  0  0  0  0  0  0  0
   -3.3497    2.0083   -0.0666 C   0  0  0  0  0  0  0  0  0  0  0  0
   -2.4717    3.0022   -0.2758 N   0  0  0  0  0  0  0  0  0  0  0  0
   -1.2016    2.6755   -0.5121 C   0  0  0  0  0  0  0  0  0  0  0  0
   -0.3422    3.5696   -0.7141 O   0  0  0  0  0  0  0  0  0  0  0  0
   -2.8239    4.2974   -0.2558 C   0  0  0  0  0  0  0  0  0  0  0  0
   -4.1257    4.6852   -0.0169 C   0  0  0  0  0  0  0  0  0  0  0  0
   -5.0520    3.6805    0.2015 C   0  0  0  0  0  0  0  0  0  0  0  0
   -4.6719    2.3422    0.1787 C   0  0  0  0  0  0  0  0  0  0  0  0
    3.0411   -1.2925   -0.1090 N   0  0  0  0  0  0  0  0  0  0  0  0
    4.4215   -1.6376   -0.2663 C   0  0  0  0  0  0  0  0  0  0  0  0
    5.3199   -0.5229    0.0296 C   0  0  0  0  0  0  0  0  0  0  0  0
    5.7868   -0.4213    1.3476 C   0  0  0  0  0  0  0  0  0  0  0  0
    6.6417    0.5787    1.7500 C   0  0  0  0  0  0  0  0  0  0  0  0
    7.0692    1.5225    0.8521 C   0  0  0  0  0  0  0  0  0  0  0  0
    6.6215    1.4469   -0.4651 C   0  0  0  0  0  0  0  0  0  0  0  0
    5.7527    0.4248   -0.8603 C   0  0  0  0  0  0  0  0  0  0  0  0
    1.1992    1.8485   -0.9523 H   0  0  0  0  0  0  0  0  0  0  0  0
    1.2375   -2.7576   -0.8115 H   0  0  0  0  0  0  0  0  0  0  0  0
   -1.7250   -2.9639    0.0561 H   0  0  0  0  0  0  0  0  0  0  0  0
   -2.5990   -1.8636    2.0456 H   0  0  0  0  0  0  0  0  0  0  0  0
   -3.9062   -1.0911    1.1194 H   0  0  0  0  0  0  0  0  0  0  0  0
   -5.0402   -3.0188    1.3838 H   0  0  0  0  0  0  0  0  0  0  0  0
   -3.4753   -3.9457    1.5573 H   0  0  0  0  0  0  0  0  0  0  0  0
   -3.4011   -4.3871   -0.6568 H   0  0  0  0  0  0  0  0  0  0  0  0
   -5.0669   -3.5938   -0.9103 H   0  0  0  0  0  0  0  0  0  0  0  0
   -4.0232   -1.5094   -1.2668 H   0  0  0  0  0  0  0  0  0  0  0  0
   -2.8379   -2.6434   -2.1407 H   0  0  0  0  0  0  0  0  0  0  0  0
   -2.0679    5.0388   -0.4303 H   0  0  0  0  0  0  0  0  0  0  0  0
   -4.4074    5.7295   -0.0014 H   0  0  0  0  0  0  0  0  0  0  0  0
   -6.0709    3.9875    0.3897 H   0  0  0  0  0  0  0  0  0  0  0  0
   -5.4352    1.6142    0.3562 H   0  0  0  0  0  0  0  0  0  0  0  0
    2.5408   -1.5833    0.7737 H   0  0  0  0  0  0  0  0  0  0  0  0
    4.6280   -2.5430    0.3470 H   0  0  0  0  0  0  0  0  0  0  0  0
    4.5362   -2.0112   -1.3266 H   0  0  0  0  0  0  0  0  0  0  0  0
    5.4667   -1.1572    2.0928 H   0  0  0  0  0  0  0  0  0  0  0  0
    6.9847    0.6261    2.7763 H   0  0  0  0  0  0  0  0  0  0  0  0
    7.7508    2.3278    1.1422 H   0  0  0  0  0  0  0  0  0  0  0  0
    6.9665    2.1970   -1.1566 H   0  0  0  0  0  0  0  0  0  0  0  0
    5.4159    0.3767   -1.8754 H   0  0  0  0  0  0  0  0  0  0  0  0
  1  2  2  0
  2  3  1  0
  3  4  2  0
  4  5  1  0
  5  6  2  0
  6  7  1  0
  7  8  1  0
  8  9  2  3
  7 10  1  0
 10 11  1  0
 11 12  1  0
 12 13  1  0
 13 14  1  0
  6 15  1  0
 15 16  2  0
 16 17  1  0
 17 18  1  0
 18 19  2  0
 17 20  1  0
 20 21  2  0
 21 22  1  0
 22 23  2  0
  2 24  1  0
 24 25  1  0
 25 26  1  0
 26 27  2  0
 27 28  1  0
 28 29  2  0
 29 30  1  0
 30 31  2  0
  8  3  1  0
 14 10  1  0
 23 16  1  0
 31 26  1  0
 18  5  1  0
  4 32  1  0
  9 33  1  0
 10 34  1  0
 11 35  1  0
 11 36  1  0
 12 37  1  0
 12 38  1  0
 13 39  1  0
 13 40  1  0
 14 41  1  0
 14 42  1  0
 20 43  1  0
 21 44  1  0
 22 45  1  0
 23 46  1  0
 24 47  1  0
 25 48  1  0
 25 49  1  0
 27 50  1  0
 28 51  1  0
 29 52  1  0
 30 53  1  0
 31 54  1  0
M  END
>  <Ligand ID>  (1) 
LIG0003029

>  <Ligand>  (1) 
MLS-0437144.0001

>  <SMILES>  (1) 
O=C(c1cc2c(n(c1=N)C1CCCC1)nc1n(c2=O)cccc1)NCc1ccccc1

>  <CID>  (1) 
1077539.0

>  <ChEMBL ID>  (1) 
nan

>  <InChiKey>  (1) 
OEAHGZLUGWRQPD-UHFFFAOYSA-N

>  <InChi>  (1) 
InChI=1S/C24H23N5O2/c25-21-18(23(30)26-15-16-8-2-1-3-9-16)14-19-22(29(21)17-10-4-5-11-17)27-20-12-6-7-13-28(20)24(19)31/h1-3,6-9,12-14,17,25H,4-5,10-11,15H2,(H,26,30)

>  <IUPAC Name>  (1) 
N-benzyl-7-cyclopentyl-6-imino-2-oxo-1,7,9-triazatricyclo[8.4.0.03,8]tetradeca-3(8),4,9,11,13-pentaene-5-carboxamide

$$$$
