
     RDKit          3D

 62 66  0  0  0  0  0  0  0  0999 V2000
    4.8661    1.7107   -2.0190 C   0  0  0  0  0  0  0  0  0  0  0  0
    5.2435    0.5141   -1.1543 C   0  0  2  0  0  0  0  0  0  0  0  0
    4.0534   -0.3935   -1.0696 C   0  0  0  0  0  0  0  0  0  0  0  0
    2.9812    0.2239   -0.2786 N   0  0  0  0  0  0  0  0  0  0  0  0
    3.2325    1.1694    0.6466 C   0  0  0  0  0  0  0  0  0  0  0  0
    4.6064    1.6433    0.9203 C   0  0  0  0  0  0  0  0  0  0  0  0
    4.8621    2.5163    1.7714 O   0  0  0  0  0  0  0  0  0  0  0  0
    5.6489    1.0273    0.1336 N   0  0  0  0  0  0  0  0  0  0  0  0
    6.9790    0.9690    0.6618 C   0  0  0  0  0  0  0  0  0  0  0  0
    7.2796   -0.2561    1.4699 C   0  0  0  0  0  0  0  0  0  0  0  0
    7.1882   -1.6227    0.8934 C   0  0  0  0  0  0  0  0  0  0  0  0
    8.5394   -0.9905    1.0428 C   0  0  0  0  0  0  0  0  0  0  0  0
    2.0101    1.5435    1.2123 C   0  0  0  0  0  0  0  0  0  0  0  0
    1.0054    0.7931    0.5997 C   0  0  0  0  0  0  0  0  0  0  0  0
    1.6507    0.0015   -0.3041 C   0  0  0  0  0  0  0  0  0  0  0  0
    0.9088   -0.8717   -1.0819 C   0  0  0  0  0  0  0  0  0  0  0  0
   -0.4638   -0.9268   -0.9310 C   0  0  0  0  0  0  0  0  0  0  0  0
   -1.1340   -0.1417   -0.0300 C   0  0  0  0  0  0  0  0  0  0  0  0
   -0.3676    0.7244    0.7368 C   0  0  0  0  0  0  0  0  0  0  0  0
   -2.4893   -0.1346    0.1814 O   0  0  0  0  0  0  0  0  0  0  0  0
   -3.4614   -0.9137   -0.4641 C   0  0  0  0  0  0  0  0  0  0  0  0
   -4.1942   -1.8272    0.4843 C   0  0  0  0  0  0  0  0  0  0  0  0
   -5.3493   -1.2342    1.1948 C   0  0  0  0  0  0  0  0  0  0  0  0
   -5.8505   -0.0476    0.5703 N   0  0  0  0  0  0  0  0  0  0  0  0
   -5.8458   -0.2922   -0.8622 C   0  0  0  0  0  0  0  0  0  0  0  0
   -4.4094   -0.0708   -1.2918 C   0  0  0  0  0  0  0  0  0  0  0  0
   -7.1484    0.3484    1.0514 C   0  0  0  0  0  0  0  0  0  0  0  0
   -8.2157   -0.6728    0.8422 C   0  0  0  0  0  0  0  0  0  0  0  0
   -7.4880    1.6824    0.4094 C   0  0  0  0  0  0  0  0  0  0  0  0
    5.2403    2.6588   -1.5964 H   0  0  0  0  0  0  0  0  0  0  0  0
    5.2987    1.6091   -3.0433 H   0  0  0  0  0  0  0  0  0  0  0  0
    3.7691    1.7864   -2.1345 H   0  0  0  0  0  0  0  0  0  0  0  0
    6.0706   -0.0308   -1.6463 H   0  0  0  0  0  0  0  0  0  0  0  0
    4.3141   -1.3955   -0.6604 H   0  0  0  0  0  0  0  0  0  0  0  0
    3.6503   -0.5477   -2.0916 H   0  0  0  0  0  0  0  0  0  0  0  0
    7.6821    1.0865   -0.1931 H   0  0  0  0  0  0  0  0  0  0  0  0
    7.1170    1.8693    1.3015 H   0  0  0  0  0  0  0  0  0  0  0  0
    7.2172   -0.1127    2.5753 H   0  0  0  0  0  0  0  0  0  0  0  0
    7.0022   -2.4394    1.6292 H   0  0  0  0  0  0  0  0  0  0  0  0
    6.7182   -1.7205   -0.0844 H   0  0  0  0  0  0  0  0  0  0  0  0
    9.0718   -0.6314    0.1266 H   0  0  0  0  0  0  0  0  0  0  0  0
    9.2304   -1.3520    1.8147 H   0  0  0  0  0  0  0  0  0  0  0  0
    1.8757    2.2771    1.9801 H   0  0  0  0  0  0  0  0  0  0  0  0
    1.3928   -1.5269   -1.8227 H   0  0  0  0  0  0  0  0  0  0  0  0
   -0.9907   -1.6212   -1.5586 H   0  0  0  0  0  0  0  0  0  0  0  0
   -0.8607    1.3719    1.4707 H   0  0  0  0  0  0  0  0  0  0  0  0
   -2.9504   -1.5695   -1.1932 H   0  0  0  0  0  0  0  0  0  0  0  0
   -3.4332   -2.0961    1.2753 H   0  0  0  0  0  0  0  0  0  0  0  0
   -4.4413   -2.7808   -0.0228 H   0  0  0  0  0  0  0  0  0  0  0  0
   -6.1825   -1.9961    1.1760 H   0  0  0  0  0  0  0  0  0  0  0  0
   -5.1915   -1.0614    2.2929 H   0  0  0  0  0  0  0  0  0  0  0  0
   -6.0838   -1.3636   -1.0851 H   0  0  0  0  0  0  0  0  0  0  0  0
   -6.5168    0.3604   -1.4189 H   0  0  0  0  0  0  0  0  0  0  0  0
   -4.2512   -0.1560   -2.3773 H   0  0  0  0  0  0  0  0  0  0  0  0
   -4.1798    0.9977   -1.0413 H   0  0  0  0  0  0  0  0  0  0  0  0
   -7.0495    0.5404    2.1394 H   0  0  0  0  0  0  0  0  0  0  0  0
   -8.1169   -1.4716    1.5799 H   0  0  0  0  0  0  0  0  0  0  0  0
   -9.1955   -0.1623    1.0613 H   0  0  0  0  0  0  0  0  0  0  0  0
   -8.2195   -1.1163   -0.1710 H   0  0  0  0  0  0  0  0  0  0  0  0
   -7.9273    1.5729   -0.5843 H   0  0  0  0  0  0  0  0  0  0  0  0
   -8.1571    2.2623    1.0795 H   0  0  0  0  0  0  0  0  0  0  0  0
   -6.5403    2.2882    0.3586 H   0  0  0  0  0  0  0  0  0  0  0  0
  1  2  1  0
  2  3  1  0
  3  4  1  0
  4  5  1  0
  5  6  1  0
  6  7  2  0
  6  8  1  0
  8  9  1  0
  9 10  1  0
 10 11  1  0
 11 12  1  0
  5 13  2  0
 13 14  1  0
 14 15  2  0
 15 16  1  0
 16 17  2  0
 17 18  1  0
 18 19  2  0
 18 20  1  0
 20 21  1  0
 21 22  1  0
 22 23  1  0
 23 24  1  0
 24 25  1  0
 25 26  1  0
 24 27  1  0
 27 28  1  0
 27 29  1  0
  8  2  1  0
 12 10  1  0
 19 14  1  0
 26 21  1  0
 15  4  1  0
  1 30  1  0
  1 31  1  0
  1 32  1  0
  2 33  1  6
  3 34  1  0
  3 35  1  0
  9 36  1  0
  9 37  1  0
 10 38  1  0
 11 39  1  0
 11 40  1  0
 12 41  1  0
 12 42  1  0
 13 43  1  0
 16 44  1  0
 17 45  1  0
 19 46  1  0
 21 47  1  0
 22 48  1  0
 22 49  1  0
 23 50  1  0
 23 51  1  0
 25 52  1  0
 25 53  1  0
 26 54  1  0
 26 55  1  0
 27 56  1  0
 28 57  1  0
 28 58  1  0
 28 59  1  0
 29 60  1  0
 29 61  1  0
 29 62  1  0
M  END
>  <Ligand ID>  (1) 
LIG0005327

>  <Ligand>  (1) 
CHEMBL1257965

>  <SMILES>  (1) 
C[C@@H]1Cn2c(C(=O)N1CC1CC1)cc1c2ccc(c1)OC1CCN(CC1)C(C)C

>  <CID>  (1) 
46945057.0

>  <ChEMBL ID>  (1) 
nan

>  <InChiKey>  (1) 
MYTSILBAQHYOET-QGZVFWFLSA-N

>  <InChi>  (1) 
InChI=1S/C24H33N3O2/c1-16(2)25-10-8-20(9-11-25)29-21-6-7-22-19(12-21)13-23-24(28)26(15-18-4-5-18)17(3)14-27(22)23/h6-7,12-13,16-18,20H,4-5,8-11,14-15H2,1-3H3/t17-/m1/s1

>  <IUPAC Name>  (1) 
(3R)-2-(cyclopropylmethyl)-3-methyl-8-(1-propan-2-ylpiperidin-4-yl)oxy-3,4-dihydropyrazino[1,2-a]indol-1-one

$$$$
