
     RDKit          3D

 30 32  0  0  0  0  0  0  0  0999 V2000
    3.5497    2.5242    1.9977 N   0  0  0  0  0  0  0  0  0  0  0  0
    3.2546    1.6258    1.3030 C   0  0  0  0  0  0  0  0  0  0  0  0
    2.8833    0.5076    0.4594 C   0  0  0  0  0  0  0  0  0  0  0  0
    3.8549   -0.2703   -0.1324 C   0  0  0  0  0  0  0  0  0  0  0  0
    3.4904   -1.3342   -0.9349 C   0  0  0  0  0  0  0  0  0  0  0  0
    2.1459   -1.6288   -1.1522 C   0  0  0  0  0  0  0  0  0  0  0  0
    1.1581   -0.8486   -0.5586 C   0  0  0  0  0  0  0  0  0  0  0  0
    1.5797    0.1917    0.2261 C   0  0  0  0  0  0  0  0  0  0  0  0
    0.5533    1.0141    0.8587 C   0  0  0  0  0  0  0  0  0  0  0  0
    0.8076    1.9959    1.5993 O   0  0  0  0  0  0  0  0  0  0  0  0
   -0.8125    0.6575    0.6018 N   0  0  0  0  0  0  0  0  0  0  0  0
   -1.0909   -0.7571    0.3637 C   0  0  2  0  0  0  0  0  0  0  0  0
   -0.2637   -1.1851   -0.8137 C   0  0  0  0  0  0  0  0  0  0  0  0
   -2.5325   -1.0562    0.2470 C   0  0  0  0  0  0  0  0  0  0  0  0
   -3.3785   -0.0427   -0.2793 N   0  0  0  0  0  0  0  0  0  0  0  0
   -2.8326    1.2511   -0.4746 C   0  0  0  0  0  0  0  0  0  0  0  0
   -1.8404    1.6718    0.5870 C   0  0  0  0  0  0  0  0  0  0  0  0
    4.9138   -0.0462    0.0326 H   0  0  0  0  0  0  0  0  0  0  0  0
    4.2313   -1.9778   -1.4243 H   0  0  0  0  0  0  0  0  0  0  0  0
    1.8578   -2.4599   -1.7791 H   0  0  0  0  0  0  0  0  0  0  0  0
   -0.6978   -1.3695    1.2292 H   0  0  0  0  0  0  0  0  0  0  0  0
   -0.3978   -2.2679   -1.0071 H   0  0  0  0  0  0  0  0  0  0  0  0
   -0.5533   -0.6693   -1.7523 H   0  0  0  0  0  0  0  0  0  0  0  0
   -2.6359   -1.9511   -0.4183 H   0  0  0  0  0  0  0  0  0  0  0  0
   -2.9462   -1.3323    1.2412 H   0  0  0  0  0  0  0  0  0  0  0  0
   -4.3515   -0.0565    0.0940 H   0  0  0  0  0  0  0  0  0  0  0  0
   -3.6752    1.9887   -0.3864 H   0  0  0  0  0  0  0  0  0  0  0  0
   -2.4451    1.3511   -1.5051 H   0  0  0  0  0  0  0  0  0  0  0  0
   -1.4588    2.6574    0.2490 H   0  0  0  0  0  0  0  0  0  0  0  0
   -2.3678    1.8169    1.5286 H   0  0  0  0  0  0  0  0  0  0  0  0
  1  2  3  0
  2  3  1  0
  3  4  2  0
  4  5  1  0
  5  6  2  0
  6  7  1  0
  7  8  2  0
  8  9  1  0
  9 10  2  0
  9 11  1  0
 11 12  1  0
 12 13  1  0
 12 14  1  0
 14 15  1  0
 15 16  1  0
 16 17  1  0
  8  3  1  0
 17 11  1  0
 13  7  1  0
  4 18  1  0
  5 19  1  0
  6 20  1  0
 12 21  1  1
 13 22  1  0
 13 23  1  0
 14 24  1  0
 14 25  1  0
 15 26  1  0
 16 27  1  0
 16 28  1  0
 17 29  1  0
 17 30  1  0
M  END
>  <Ligand ID>  (1) 
LIG0003218

>  <Ligand>  (1) 
CHEMBL2397895

>  <SMILES>  (1) 
N#Cc1cccc2c1C(=O)N1[C@H](C2)CNCC1

>  <CID>  (1) 
58911644.0

>  <ChEMBL ID>  (1) 
nan

>  <InChiKey>  (1) 
JXSIQDNOWJXKMJ-LLVKDONJSA-N

>  <InChi>  (1) 
InChI=1S/C13H13N3O/c14-7-10-3-1-2-9-6-11-8-15-4-5-16(11)13(17)12(9)10/h1-3,11,15H,4-6,8H2/t11-/m1/s1

>  <IUPAC Name>  (1) 
(11aR)-6-oxo-1,2,3,4,11,11a-hexahydropyrazino[1,2-b]isoquinoline-7-carbonitrile

$$$$
