
     RDKit          3D

 86 91  0  0  0  0  0  0  0  0999 V2000
    3.7962   -0.0355   -1.1040 O   0  0  0  0  0  0  0  0  0  0  0  0
    3.9379   -0.8819   -0.1531 C   0  0  0  0  0  0  0  0  0  0  0  0
    5.3674   -0.9946    0.3192 C   0  0  2  0  0  0  0  0  0  0  0  0
    5.4607   -1.8599    1.4596 N   0  0  0  0  0  0  0  0  0  0  0  0
    5.1085   -1.1756    2.6711 C   0  0  0  0  0  0  0  0  0  0  0  0
    6.2309   -0.1981    2.9263 C   0  0  0  0  0  0  0  0  0  0  0  0
    6.6176    0.5515    1.8396 C   0  0  0  0  0  0  0  0  0  0  0  0
    5.9520    0.3677    0.5367 C   0  0  0  0  0  0  0  0  0  0  0  0
    7.6411    1.4782    1.9891 C   0  0  0  0  0  0  0  0  0  0  0  0
    8.2230    1.6008    3.2277 C   0  0  0  0  0  0  0  0  0  0  0  0
    7.8358    0.8459    4.3301 C   0  0  0  0  0  0  0  0  0  0  0  0
    6.8164   -0.0646    4.1474 C   0  0  0  0  0  0  0  0  0  0  0  0
    2.8831   -1.6223    0.3899 N   0  0  0  0  0  0  0  0  0  0  0  0
    1.4955   -1.5786    0.0274 C   0  0  1  0  0  0  0  0  0  0  0  0
    0.9282   -0.2088   -0.1319 C   0  0  0  0  0  0  0  0  0  0  0  0
    1.6744    0.8353   -0.1298 O   0  0  0  0  0  0  0  0  0  0  0  0
   -0.4515    0.0650   -0.2929 N   0  0  0  0  0  0  0  0  0  0  0  0
   -0.7886    1.4882   -0.4991 C   0  0  0  0  0  0  0  0  0  0  0  0
   -2.1775    1.4897   -1.0906 C   0  0  0  0  0  0  0  0  0  0  0  0
   -3.2001    1.0615   -0.0742 C   0  0  0  0  0  0  0  0  0  0  0  0
   -2.6206   -0.1654    0.6033 C   0  0  0  0  0  0  0  0  0  0  0  0
   -1.5346   -0.8479   -0.2463 C   0  0  0  0  0  0  0  0  0  0  0  0
   -3.3656    2.1741    0.9305 C   0  0  0  0  0  0  0  0  0  0  0  0
   -4.3250    1.9139    1.9642 N   0  0  0  0  0  0  0  0  0  0  0  0
   -4.1698    1.3038    3.2822 C   0  0  0  0  0  0  0  0  0  0  0  0
   -5.4005    0.3830    3.2573 C   0  0  0  0  0  0  0  0  0  0  0  0
   -6.3708    1.2832    2.7216 O   0  0  0  0  0  0  0  0  0  0  0  0
   -5.7425    2.2223    1.9298 C   0  0  0  0  0  0  0  0  0  0  0  0
   -6.2913    3.1722    1.2948 O   0  0  0  0  0  0  0  0  0  0  0  0
   -4.4936    0.7367   -0.7528 C   0  0  0  0  0  0  0  0  0  0  0  0
   -5.0342    1.8802   -1.5751 C   0  0  0  0  0  0  0  0  0  0  0  0
   -6.5222    1.6582   -1.7987 C   0  0  0  0  0  0  0  0  0  0  0  0
   -6.8888    0.2028   -1.6108 C   0  0  0  0  0  0  0  0  0  0  0  0
   -5.8264   -0.6194   -2.2880 C   0  0  0  0  0  0  0  0  0  0  0  0
   -4.4561   -0.4707   -1.6273 C   0  0  0  0  0  0  0  0  0  0  0  0
    1.1667   -2.5186   -1.0901 C   0  0  0  0  0  0  0  0  0  0  0  0
    1.9677   -2.2096   -2.3310 C   0  0  0  0  0  0  0  0  0  0  0  0
    3.1887   -2.8383   -2.5628 C   0  0  0  0  0  0  0  0  0  0  0  0
    3.9030   -2.5312   -3.7031 C   0  0  0  0  0  0  0  0  0  0  0  0
    3.4333   -1.6083   -4.6265 C   0  0  0  0  0  0  0  0  0  0  0  0
    2.2426   -0.9873   -4.4122 C   0  0  0  0  0  0  0  0  0  0  0  0
    1.5237   -1.2960   -3.2656 C   0  0  0  0  0  0  0  0  0  0  0  0
    4.3730   -1.2444   -6.0731 Cl  0  0  0  0  0  0  0  0  0  0  0  0
    5.9565   -1.5186   -0.4980 H   0  0  0  0  0  0  0  0  0  0  0  0
    5.0737   -2.7800    1.2970 H   0  0  0  0  0  0  0  0  0  0  0  0
    4.1611   -0.6217    2.4933 H   0  0  0  0  0  0  0  0  0  0  0  0
    4.9903   -1.8656    3.5195 H   0  0  0  0  0  0  0  0  0  0  0  0
    5.1254    1.1224    0.4585 H   0  0  0  0  0  0  0  0  0  0  0  0
    6.6627    0.6339   -0.2874 H   0  0  0  0  0  0  0  0  0  0  0  0
    7.9447    2.0709    1.1328 H   0  0  0  0  0  0  0  0  0  0  0  0
    9.0281    2.3340    3.3232 H   0  0  0  0  0  0  0  0  0  0  0  0
    8.3445    1.0009    5.2754 H   0  0  0  0  0  0  0  0  0  0  0  0
    6.4907   -0.6686    4.9937 H   0  0  0  0  0  0  0  0  0  0  0  0
    3.1411   -2.3108    1.1662 H   0  0  0  0  0  0  0  0  0  0  0  0
    0.9248   -1.9417    0.9418 H   0  0  0  0  0  0  0  0  0  0  0  0
   -0.7259    2.0004    0.4497 H   0  0  0  0  0  0  0  0  0  0  0  0
   -0.0717    1.9435   -1.2172 H   0  0  0  0  0  0  0  0  0  0  0  0
   -2.3936    2.5726   -1.3314 H   0  0  0  0  0  0  0  0  0  0  0  0
   -2.1951    0.8947   -2.0276 H   0  0  0  0  0  0  0  0  0  0  0  0
   -2.0732    0.1923    1.5063 H   0  0  0  0  0  0  0  0  0  0  0  0
   -3.3586   -0.8959    0.9182 H   0  0  0  0  0  0  0  0  0  0  0  0
   -1.3525   -1.7980    0.3018 H   0  0  0  0  0  0  0  0  0  0  0  0
   -1.8578   -1.0915   -1.2505 H   0  0  0  0  0  0  0  0  0  0  0  0
   -2.3983    2.3634    1.4716 H   0  0  0  0  0  0  0  0  0  0  0  0
   -3.5608    3.1205    0.3911 H   0  0  0  0  0  0  0  0  0  0  0  0
   -3.2709    0.7307    3.4326 H   0  0  0  0  0  0  0  0  0  0  0  0
   -4.3609    2.0442    4.0889 H   0  0  0  0  0  0  0  0  0  0  0  0
   -5.6784    0.0097    4.2400 H   0  0  0  0  0  0  0  0  0  0  0  0
   -5.2860   -0.3951    2.4697 H   0  0  0  0  0  0  0  0  0  0  0  0
   -5.2950    0.5329    0.0144 H   0  0  0  0  0  0  0  0  0  0  0  0
   -4.9350    2.8276   -1.0295 H   0  0  0  0  0  0  0  0  0  0  0  0
   -4.5303    1.9340   -2.5807 H   0  0  0  0  0  0  0  0  0  0  0  0
   -7.1599    2.2764   -1.1526 H   0  0  0  0  0  0  0  0  0  0  0  0
   -6.7686    1.9078   -2.8514 H   0  0  0  0  0  0  0  0  0  0  0  0
   -7.1280   -0.0784   -0.5870 H   0  0  0  0  0  0  0  0  0  0  0  0
   -7.8240    0.0329   -2.2108 H   0  0  0  0  0  0  0  0  0  0  0  0
   -5.7952   -0.2657   -3.3490 H   0  0  0  0  0  0  0  0  0  0  0  0
   -6.1685   -1.6683   -2.3176 H   0  0  0  0  0  0  0  0  0  0  0  0
   -4.2886   -1.4125   -1.0808 H   0  0  0  0  0  0  0  0  0  0  0  0
   -3.7415   -0.3191   -2.4628 H   0  0  0  0  0  0  0  0  0  0  0  0
    1.3311   -3.5711   -0.7890 H   0  0  0  0  0  0  0  0  0  0  0  0
    0.0944   -2.4518   -1.3334 H   0  0  0  0  0  0  0  0  0  0  0  0
    3.5265   -3.5497   -1.8341 H   0  0  0  0  0  0  0  0  0  0  0  0
    4.8616   -3.0376   -3.8656 H   0  0  0  0  0  0  0  0  0  0  0  0
    1.8882   -0.2689   -5.1353 H   0  0  0  0  0  0  0  0  0  0  0  0
    0.5652   -0.7923   -3.1029 H   0  0  0  0  0  0  0  0  0  0  0  0
  1  2  2  0
  2  3  1  0
  3  4  1  0
  4  5  1  0
  5  6  1  0
  6  7  2  0
  7  8  1  0
  7  9  1  0
  9 10  2  0
 10 11  1  0
 11 12  2  0
  2 13  1  0
 13 14  1  0
 14 15  1  0
 15 16  2  0
 15 17  1  0
 17 18  1  0
 18 19  1  0
 19 20  1  0
 20 21  1  0
 21 22  1  0
 20 23  1  0
 23 24  1  0
 24 25  1  0
 25 26  1  0
 26 27  1  0
 27 28  1  0
 28 29  2  0
 20 30  1  0
 30 31  1  0
 31 32  1  0
 32 33  1  0
 33 34  1  0
 34 35  1  0
 14 36  1  0
 36 37  1  0
 37 38  2  0
 38 39  1  0
 39 40  2  0
 40 41  1  0
 41 42  2  0
 40 43  1  0
  8  3  1  0
 22 17  1  0
 28 24  1  0
 35 30  1  0
 42 37  1  0
 12  6  1  0
  3 44  1  6
  4 45  1  0
  5 46  1  0
  5 47  1  0
  8 48  1  0
  8 49  1  0
  9 50  1  0
 10 51  1  0
 11 52  1  0
 12 53  1  0
 13 54  1  0
 14 55  1  1
 18 56  1  0
 18 57  1  0
 19 58  1  0
 19 59  1  0
 21 60  1  0
 21 61  1  0
 22 62  1  0
 22 63  1  0
 23 64  1  0
 23 65  1  0
 25 66  1  0
 25 67  1  0
 26 68  1  0
 26 69  1  0
 30 70  1  0
 31 71  1  0
 31 72  1  0
 32 73  1  0
 32 74  1  0
 33 75  1  0
 33 76  1  0
 34 77  1  0
 34 78  1  0
 35 79  1  0
 35 80  1  0
 36 81  1  0
 36 82  1  0
 38 83  1  0
 39 84  1  0
 41 85  1  0
 42 86  1  0
M  END
>  <Ligand ID>  (1) 
LIG0003053

>  <Ligand>  (1) 
CHEMBL265985

>  <SMILES>  (1) 
O=C([C@@H]1NCc2c(C1)cccc2)N[C@@H](C(=O)N1CCC(CC1)(CN1CCOC1=O)C1CCCCC1)Cc1ccc(cc1)Cl

>  <CID>  (1) 
44408190.0

>  <ChEMBL ID>  (1) 
nan

>  <InChiKey>  (1) 
NTMXDNFEFWCVSA-LOYHVIPDSA-N

>  <InChi>  (1) 
InChI=1S/C34H43ClN4O4/c35-28-12-10-24(11-13-28)20-30(37-31(40)29-21-25-6-4-5-7-26(25)22-36-29)32(41)38-16-14-34(15-17-38,27-8-2-1-3-9-27)23-39-18-19-43-33(39)42/h4-7,10-13,27,29-30,36H,1-3,8-9,14-23H2,(H,37,40)/t29-,30-/m1/s1

>  <IUPAC Name>  (1) 
(3R)-N-[(2R)-3-(4-chlorophenyl)-1-[4-cyclohexyl-4-[(2-oxo-1,3-oxazolidin-3-yl)methyl]piperidin-1-yl]-1-oxopropan-2-yl]-1,2,3,4-tetrahydroisoquinoline-3-carboxamide

$$$$
