
     RDKit          3D

 61 65  0  0  0  0  0  0  0  0999 V2000
   -0.5055    4.2891   -0.6899 C   0  0  0  0  0  0  0  0  0  0  0  0
   -1.9023    4.0903   -0.5159 O   0  0  0  0  0  0  0  0  0  0  0  0
   -2.2910    2.7785   -0.2476 C   0  0  0  0  0  0  0  0  0  0  0  0
   -1.3581    1.7665   -0.1634 C   0  0  0  0  0  0  0  0  0  0  0  0
   -1.8253    0.4989    0.1051 C   0  0  0  0  0  0  0  0  0  0  0  0
   -3.1634    0.2142    0.2880 C   0  0  0  0  0  0  0  0  0  0  0  0
   -4.0994    1.2216    0.2048 C   0  0  0  0  0  0  0  0  0  0  0  0
   -3.6345    2.4961   -0.0644 C   0  0  0  0  0  0  0  0  0  0  0  0
   -4.5292    3.5393   -0.1579 O   0  0  0  0  0  0  0  0  0  0  0  0
   -5.9227    3.3968    0.0057 C   0  0  0  0  0  0  0  0  0  0  0  0
   -3.6134   -1.0279    0.5469 N   0  0  0  0  0  0  0  0  0  0  0  0
   -2.7196   -2.0501    0.6336 C   0  0  0  0  0  0  0  0  0  0  0  0
   -1.4056   -1.7904    0.4577 N   0  0  0  0  0  0  0  0  0  0  0  0
   -0.9371   -0.5489    0.1972 C   0  0  0  0  0  0  0  0  0  0  0  0
    0.4663   -0.4187    0.0468 N   0  0  0  0  0  0  0  0  0  0  0  0
    1.3097    0.3519    0.9384 C   0  0  0  0  0  0  0  0  0  0  0  0
    2.4182    0.9731    0.1213 C   0  0  0  0  0  0  0  0  0  0  0  0
    3.2281   -0.1508   -0.3511 N   0  0  0  0  0  0  0  0  0  0  0  0
    2.5713   -1.3350   -0.8735 C   0  0  0  0  0  0  0  0  0  0  0  0
    1.0962   -1.0961   -1.0641 C   0  0  0  0  0  0  0  0  0  0  0  0
    4.6441   -0.1395   -0.3233 C   0  0  0  0  0  0  0  0  0  0  0  0
    5.2726   -1.1317    0.4315 C   0  0  0  0  0  0  0  0  0  0  0  0
    6.6618   -1.1783    0.5015 C   0  0  0  0  0  0  0  0  0  0  0  0
    7.4485   -0.2706   -0.1545 C   0  0  0  0  0  0  0  0  0  0  0  0
    6.8037    0.7065   -0.8986 C   0  0  0  0  0  0  0  0  0  0  0  0
    5.4251    0.7738   -0.9836 C   0  0  0  0  0  0  0  0  0  0  0  0
    4.7777    1.8306   -1.7872 C   0  0  0  0  0  0  0  0  0  0  0  0
   -3.1325   -3.4443    0.9148 C   0  0  0  0  0  0  0  0  0  0  0  0
   -4.0294   -3.5858    2.1445 C   0  0  0  0  0  0  0  0  0  0  0  0
   -4.7760   -4.6635    1.3661 C   0  0  0  0  0  0  0  0  0  0  0  0
   -4.2984   -3.9469    0.1048 C   0  0  0  0  0  0  0  0  0  0  0  0
   -0.0173    3.9194    0.2585 H   0  0  0  0  0  0  0  0  0  0  0  0
   -0.2041    3.5943   -1.5004 H   0  0  0  0  0  0  0  0  0  0  0  0
   -0.2572    5.3492   -0.8789 H   0  0  0  0  0  0  0  0  0  0  0  0
   -0.3229    1.9408   -0.3006 H   0  0  0  0  0  0  0  0  0  0  0  0
   -5.1605    1.0117    0.3470 H   0  0  0  0  0  0  0  0  0  0  0  0
   -6.4041    2.9075   -0.8476 H   0  0  0  0  0  0  0  0  0  0  0  0
   -6.0857    2.7698    0.9292 H   0  0  0  0  0  0  0  0  0  0  0  0
   -6.3879    4.3769    0.2357 H   0  0  0  0  0  0  0  0  0  0  0  0
    1.8331   -0.4342    1.5673 H   0  0  0  0  0  0  0  0  0  0  0  0
    0.7788    1.0395    1.5986 H   0  0  0  0  0  0  0  0  0  0  0  0
    3.0450    1.6423    0.7647 H   0  0  0  0  0  0  0  0  0  0  0  0
    2.0010    1.5554   -0.6978 H   0  0  0  0  0  0  0  0  0  0  0  0
    3.0124   -1.5319   -1.8712 H   0  0  0  0  0  0  0  0  0  0  0  0
    2.7917   -2.2258   -0.2451 H   0  0  0  0  0  0  0  0  0  0  0  0
    0.6048   -2.0835   -1.2404 H   0  0  0  0  0  0  0  0  0  0  0  0
    0.9851   -0.5445   -2.0185 H   0  0  0  0  0  0  0  0  0  0  0  0
    4.6811   -1.8701    0.9663 H   0  0  0  0  0  0  0  0  0  0  0  0
    7.1249   -1.9528    1.0901 H   0  0  0  0  0  0  0  0  0  0  0  0
    8.5184   -0.3328   -0.0810 H   0  0  0  0  0  0  0  0  0  0  0  0
    7.4232    1.4249   -1.4179 H   0  0  0  0  0  0  0  0  0  0  0  0
    4.1349    1.3369   -2.5710 H   0  0  0  0  0  0  0  0  0  0  0  0
    4.1542    2.5008   -1.1810 H   0  0  0  0  0  0  0  0  0  0  0  0
    5.5417    2.4214   -2.3444 H   0  0  0  0  0  0  0  0  0  0  0  0
   -2.3406   -4.1947    0.9645 H   0  0  0  0  0  0  0  0  0  0  0  0
   -4.7304   -2.7308    2.2927 H   0  0  0  0  0  0  0  0  0  0  0  0
   -3.4812   -3.9468    3.0165 H   0  0  0  0  0  0  0  0  0  0  0  0
   -4.2661   -5.6299    1.5714 H   0  0  0  0  0  0  0  0  0  0  0  0
   -5.8804   -4.6663    1.5101 H   0  0  0  0  0  0  0  0  0  0  0  0
   -5.0213   -3.1523   -0.1596 H   0  0  0  0  0  0  0  0  0  0  0  0
   -4.0505   -4.6428   -0.7315 H   0  0  0  0  0  0  0  0  0  0  0  0
  1  2  1  0
  2  3  1  0
  3  4  2  0
  4  5  1  0
  5  6  2  0
  6  7  1  0
  7  8  2  0
  8  9  1  0
  9 10  1  0
  6 11  1  0
 11 12  2  0
 12 13  1  0
 13 14  2  0
 14 15  1  0
 15 16  1  0
 16 17  1  0
 17 18  1  0
 18 19  1  0
 19 20  1  0
 18 21  1  0
 21 22  2  0
 22 23  1  0
 23 24  2  0
 24 25  1  0
 25 26  2  0
 26 27  1  0
 12 28  1  0
 28 29  1  0
 29 30  1  0
 30 31  1  0
  8  3  1  0
 20 15  1  0
 26 21  1  0
 31 28  1  0
 14  5  1  0
  1 32  1  0
  1 33  1  0
  1 34  1  0
  4 35  1  0
  7 36  1  0
 10 37  1  0
 10 38  1  0
 10 39  1  0
 16 40  1  0
 16 41  1  0
 17 42  1  0
 17 43  1  0
 19 44  1  0
 19 45  1  0
 20 46  1  0
 20 47  1  0
 22 48  1  0
 23 49  1  0
 24 50  1  0
 25 51  1  0
 27 52  1  0
 27 53  1  0
 27 54  1  0
 28 55  1  0
 29 56  1  0
 29 57  1  0
 30 58  1  0
 30 59  1  0
 31 60  1  0
 31 61  1  0
M  END
>  <Ligand ID>  (1) 
LIG0003874

>  <Ligand>  (1) 
CHEMBL2431232

>  <SMILES>  (1) 
COc1cc2c(cc1OC)nc(nc2N1CCN(CC1)c1ccccc1C)C1CCC1

>  <CID>  (1) 
51035373.0

>  <ChEMBL ID>  (1) 
nan

>  <InChiKey>  (1) 
QAHFFKCDOYHKTJ-UHFFFAOYSA-N

>  <InChi>  (1) 
InChI=1S/C25H30N4O2/c1-17-7-4-5-10-21(17)28-11-13-29(14-12-28)25-19-15-22(30-2)23(31-3)16-20(19)26-24(27-25)18-8-6-9-18/h4-5,7,10,15-16,18H,6,8-9,11-14H2,1-3H3

>  <IUPAC Name>  (1) 
2-cyclobutyl-6,7-dimethoxy-4-[4-(2-methylphenyl)piperazin-1-yl]quinazoline

$$$$
