
     RDKit          3D

 30 29  0  0  0  0  0  0  0  0999 V2000
    4.9559   -0.0569    0.2733 C   0  0  0  0  0  0  0  0  0  0  0  0
    3.7182    0.0667   -0.5719 C   0  0  0  0  0  0  0  0  0  0  0  0
    2.4687   -0.0073    0.3012 C   0  0  0  0  0  0  0  0  0  0  0  0
    1.2747    0.1203   -0.5862 C   0  0  0  0  0  0  0  0  0  0  0  0
   -0.0341    0.0614    0.1682 C   0  0  0  0  0  0  0  0  0  0  0  0
   -1.1307    0.1994   -0.8284 C   0  0  0  0  0  0  0  0  0  0  0  0
   -0.7655    0.3271   -2.0061 O   0  0  0  0  0  0  0  0  0  0  0  0
   -2.5603    0.1881   -0.4664 C   0  0  0  0  0  0  0  0  0  0  0  0
   -2.9486   -1.0892    0.1981 C   0  0  0  0  0  0  0  0  0  0  0  0
   -2.1648   -2.0006    0.4070 O   0  0  0  0  0  0  0  0  0  0  0  0
   -4.3968   -1.1972    0.6082 C   0  0  0  0  0  0  0  0  0  0  0  0
   -2.8628    1.3971    0.3894 C   0  0  0  0  0  0  0  0  0  0  0  0
    5.8137    0.1605   -0.3947 H   0  0  0  0  0  0  0  0  0  0  0  0
    5.1102   -1.0800    0.6674 H   0  0  0  0  0  0  0  0  0  0  0  0
    4.8907    0.6816    1.0891 H   0  0  0  0  0  0  0  0  0  0  0  0
    3.6163   -0.7594   -1.2971 H   0  0  0  0  0  0  0  0  0  0  0  0
    3.7133    1.0526   -1.0456 H   0  0  0  0  0  0  0  0  0  0  0  0
    2.4878   -1.0051    0.7848 H   0  0  0  0  0  0  0  0  0  0  0  0
    2.5235    0.7349    1.1016 H   0  0  0  0  0  0  0  0  0  0  0  0
    1.3307   -0.6746   -1.3572 H   0  0  0  0  0  0  0  0  0  0  0  0
    1.2832    1.1065   -1.0979 H   0  0  0  0  0  0  0  0  0  0  0  0
   -0.1453   -0.8740    0.7464 H   0  0  0  0  0  0  0  0  0  0  0  0
   -0.0614    0.9034    0.8849 H   0  0  0  0  0  0  0  0  0  0  0  0
   -3.1559    0.3101   -1.3898 H   0  0  0  0  0  0  0  0  0  0  0  0
   -4.9683   -1.4312   -0.3184 H   0  0  0  0  0  0  0  0  0  0  0  0
   -4.4660   -2.0639    1.2990 H   0  0  0  0  0  0  0  0  0  0  0  0
   -4.7546   -0.2786    1.1008 H   0  0  0  0  0  0  0  0  0  0  0  0
   -3.2793    1.1055    1.3634 H   0  0  0  0  0  0  0  0  0  0  0  0
   -3.5685    2.1047   -0.0892 H   0  0  0  0  0  0  0  0  0  0  0  0
   -1.9240    1.9981    0.5633 H   0  0  0  0  0  0  0  0  0  0  0  0
  1  2  1  0
  2  3  1  0
  3  4  1  0
  4  5  1  0
  5  6  1  0
  6  7  2  0
  6  8  1  0
  8  9  1  0
  9 10  2  0
  9 11  1  0
  8 12  1  0
  1 13  1  0
  1 14  1  0
  1 15  1  0
  2 16  1  0
  2 17  1  0
  3 18  1  0
  3 19  1  0
  4 20  1  0
  4 21  1  0
  5 22  1  0
  5 23  1  0
  8 24  1  0
 11 25  1  0
 11 26  1  0
 11 27  1  0
 12 28  1  0
 12 29  1  0
 12 30  1  0
M  END
>  <Ligand ID>  (1) 
LIG0000060

>  <Ligand>  (1) 
3-methylnonane-2,4-dione

>  <SMILES>  (1) 
CCCCCC(=O)C(C(=O)C)C

>  <CID>  (1) 
529481.0

>  <ChEMBL ID>  (1) 
nan

>  <InChiKey>  (1) 
BGVBGAIWXAXBLP-UHFFFAOYSA-N

>  <InChi>  (1) 
InChI=1S/C10H18O2/c1-4-5-6-7-10(12)8(2)9(3)11/h8H,4-7H2,1-3H3

>  <IUPAC Name>  (1) 
3-methylnonane-2,4-dione

$$$$
