
     RDKit          3D

 52 52  0  0  0  0  0  0  0  0999 V2000
    6.8287    1.7688    0.3587 C   0  0  0  0  0  0  0  0  0  0  0  0
    6.1737    0.4039    0.2787 C   0  0  0  0  0  0  0  0  0  0  0  0
    4.9036    0.6033   -0.5141 C   0  0  0  0  0  0  0  0  0  0  0  0
    5.0410    0.6690   -1.7487 O   0  0  0  0  0  0  0  0  0  0  0  0
    3.7494    0.6948    0.1168 O   0  0  0  0  0  0  0  0  0  0  0  0
    2.4238    0.8537   -0.1134 C   0  0  0  0  0  0  0  0  0  0  0  0
    1.6490   -0.2138   -0.8339 C   0  0  0  0  0  0  0  0  0  0  0  0
    0.3503    0.2271   -0.8689 O   0  0  0  0  0  0  0  0  0  0  0  0
   -0.5727   -0.5631   -1.4716 C   0  0  0  0  0  0  0  0  0  0  0  0
   -1.6884   -0.8183   -0.4472 C   0  0  0  0  0  0  0  0  0  0  0  0
   -2.7105   -1.6863   -1.0951 C   0  0  0  0  0  0  0  0  0  0  0  0
   -4.0570   -1.7087   -0.4740 C   0  0  0  0  0  0  0  0  0  0  0  0
   -4.5500   -0.2999   -0.2536 C   0  0  0  0  0  0  0  0  0  0  0  0
   -3.5831    0.4250    0.6514 C   0  0  0  0  0  0  0  0  0  0  0  0
   -2.1892    0.4635    0.1303 C   0  0  0  0  0  0  0  0  0  0  0  0
   -3.7246   -0.1131    2.0484 C   0  0  0  0  0  0  0  0  0  0  0  0
   -4.0825    1.8744    0.7158 C   0  0  0  0  0  0  0  0  0  0  0  0
   -1.1659    0.2155   -2.6364 C   0  0  0  0  0  0  0  0  0  0  0  0
    1.7341   -1.4700    0.0283 C   0  0  0  0  0  0  0  0  0  0  0  0
    2.2613   -0.5449   -2.1293 C   0  0  0  0  0  0  0  0  0  0  0  0
    7.2677    1.9014    1.3858 H   0  0  0  0  0  0  0  0  0  0  0  0
    6.0657    2.5673    0.2514 H   0  0  0  0  0  0  0  0  0  0  0  0
    7.6236    1.8907   -0.4019 H   0  0  0  0  0  0  0  0  0  0  0  0
    5.9522   -0.0143    1.2695 H   0  0  0  0  0  0  0  0  0  0  0  0
    6.8597   -0.2517   -0.3134 H   0  0  0  0  0  0  0  0  0  0  0  0
    1.9470    1.0849    0.8894 H   0  0  0  0  0  0  0  0  0  0  0  0
    2.2424    1.8639   -0.6469 H   0  0  0  0  0  0  0  0  0  0  0  0
   -0.2376   -1.5071   -1.8893 H   0  0  0  0  0  0  0  0  0  0  0  0
   -1.2704   -1.4237    0.4062 H   0  0  0  0  0  0  0  0  0  0  0  0
   -2.3179   -2.7458   -1.0804 H   0  0  0  0  0  0  0  0  0  0  0  0
   -2.7986   -1.4274   -2.1818 H   0  0  0  0  0  0  0  0  0  0  0  0
   -4.0903   -2.2563    0.4801 H   0  0  0  0  0  0  0  0  0  0  0  0
   -4.7578   -2.1818   -1.1929 H   0  0  0  0  0  0  0  0  0  0  0  0
   -4.7464    0.2378   -1.1902 H   0  0  0  0  0  0  0  0  0  0  0  0
   -5.5171   -0.3682    0.2858 H   0  0  0  0  0  0  0  0  0  0  0  0
   -1.5412    0.7141    1.0221 H   0  0  0  0  0  0  0  0  0  0  0  0
   -2.1443    1.3153   -0.6102 H   0  0  0  0  0  0  0  0  0  0  0  0
   -3.3708   -1.1312    2.2010 H   0  0  0  0  0  0  0  0  0  0  0  0
   -3.3131    0.6337    2.7618 H   0  0  0  0  0  0  0  0  0  0  0  0
   -4.8368   -0.1262    2.2514 H   0  0  0  0  0  0  0  0  0  0  0  0
   -4.9074    1.9634    1.4499 H   0  0  0  0  0  0  0  0  0  0  0  0
   -3.2536    2.5741    0.9031 H   0  0  0  0  0  0  0  0  0  0  0  0
   -4.5196    2.1323   -0.2722 H   0  0  0  0  0  0  0  0  0  0  0  0
   -0.5319    1.0938   -2.8967 H   0  0  0  0  0  0  0  0  0  0  0  0
   -2.2244    0.5021   -2.4702 H   0  0  0  0  0  0  0  0  0  0  0  0
   -1.1841   -0.3731   -3.5802 H   0  0  0  0  0  0  0  0  0  0  0  0
    2.8344   -1.7108    0.0905 H   0  0  0  0  0  0  0  0  0  0  0  0
    1.2996   -2.3185   -0.5509 H   0  0  0  0  0  0  0  0  0  0  0  0
    1.3086   -1.3267    1.0189 H   0  0  0  0  0  0  0  0  0  0  0  0
    1.6154   -1.2101   -2.7731 H   0  0  0  0  0  0  0  0  0  0  0  0
    3.1469   -1.1881   -1.9561 H   0  0  0  0  0  0  0  0  0  0  0  0
    2.6092    0.3056   -2.7500 H   0  0  0  0  0  0  0  0  0  0  0  0
  1  2  1  0
  2  3  1  0
  3  4  2  0
  3  5  1  0
  5  6  1  0
  6  7  1  0
  7  8  1  0
  8  9  1  0
  9 10  1  0
 10 11  1  0
 11 12  1  0
 12 13  1  0
 13 14  1  0
 14 15  1  0
 14 16  1  0
 14 17  1  0
  9 18  1  0
  7 19  1  0
  7 20  1  0
 15 10  1  0
  1 21  1  0
  1 22  1  0
  1 23  1  0
  2 24  1  0
  2 25  1  0
  6 26  1  0
  6 27  1  0
  9 28  1  0
 10 29  1  0
 11 30  1  0
 11 31  1  0
 12 32  1  0
 12 33  1  0
 13 34  1  0
 13 35  1  0
 15 36  1  0
 15 37  1  0
 16 38  1  0
 16 39  1  0
 16 40  1  0
 17 41  1  0
 17 42  1  0
 17 43  1  0
 18 44  1  0
 18 45  1  0
 18 46  1  0
 19 47  1  0
 19 48  1  0
 19 49  1  0
 20 50  1  0
 20 51  1  0
 20 52  1  0
M  END
>  <Ligand ID>  (1) 
LIG0000460

>  <Ligand>  (1) 
[2-[1-(3,3-dimethylcyclohexyl)ethoxy]-2-methylpropyl] propanoate

>  <SMILES>  (1) 
CCC(=O)OCC(OC(C1CCCC(C1)(C)C)C)(C)C

>  <CID>  (1) 
16063567.0

>  <ChEMBL ID>  (1) 
nan

>  <InChiKey>  (1) 
LSTSBZKIQFOPHA-UHFFFAOYSA-N

>  <InChi>  (1) 
InChI=1S/C17H32O3/c1-7-15(18)19-12-17(5,6)20-13(2)14-9-8-10-16(3,4)11-14/h13-14H,7-12H2,1-6H3

>  <IUPAC Name>  (1) 
[2-[1-(3,3-dimethylcyclohexyl)ethoxy]-2-methylpropyl] propanoate

$$$$
