
     RDKit          3D

 67 66  0  0  0  0  0  0  0  0999 V2000
    5.4386    3.2896    1.3505 C   0  0  0  0  0  0  0  0  0  0  0  0
    6.3813    2.1493    1.0100 C   0  0  0  0  0  0  0  0  0  0  0  0
    5.9218    1.4513   -0.2585 C   0  0  0  0  0  0  0  0  0  0  0  0
    6.8424    0.3403   -0.6294 C   0  0  0  0  0  0  0  0  0  0  0  0
    6.9829   -0.7591    0.3225 C   0  0  0  0  0  0  0  0  0  0  0  0
    6.0293   -1.7291    0.7246 C   0  0  0  0  0  0  0  0  0  0  0  0
    4.8318   -2.0451    0.3223 C   0  0  0  0  0  0  0  0  0  0  0  0
    4.0588   -1.4535   -0.7598 C   0  0  0  0  0  0  0  0  0  0  0  0
    3.6252   -2.4816   -1.7628 C   0  0  0  0  0  0  0  0  0  0  0  0
    2.3257   -2.6321   -1.8931 C   0  0  0  0  0  0  0  0  0  0  0  0
    1.3613   -1.8706   -1.1288 C   0  0  0  0  0  0  0  0  0  0  0  0
    0.0680   -2.1530   -1.3911 C   0  0  0  0  0  0  0  0  0  0  0  0
   -0.9859   -1.4243   -0.6580 C   0  0  0  0  0  0  0  0  0  0  0  0
   -2.2348   -1.7008   -0.9143 C   0  0  0  0  0  0  0  0  0  0  0  0
   -3.3694   -0.9830   -0.1904 C   0  0  2  0  0  0  0  0  0  0  0  0
   -4.4160   -2.0377   -0.0020 C   0  0  2  0  0  0  0  0  0  0  0  0
   -5.6529   -1.6354    0.7372 C   0  0  0  0  0  0  0  0  0  0  0  0
   -6.4122   -0.5193    0.1029 C   0  0  0  0  0  0  0  0  0  0  0  0
   -7.6874   -0.2385    0.9076 C   0  0  0  0  0  0  0  0  0  0  0  0
   -7.4217    0.1808    2.2741 C   0  0  0  0  0  0  0  0  0  0  0  0
   -6.3064    0.3738    2.8064 O   0  0  0  0  0  0  0  0  0  0  0  0
   -8.5337    0.3998    3.1098 O   0  0  0  0  0  0  0  0  0  0  0  0
   -3.8423   -3.1650    0.6506 O   0  0  0  0  0  0  0  0  0  0  0  0
   -3.9966    0.2444   -1.3841 S   0  0  0  0  0  0  0  0  0  0  0  0
   -2.7240    1.5004   -1.7020 C   0  0  0  0  0  0  0  0  0  0  0  0
   -2.4707    2.3067   -0.4480 C   0  0  1  0  0  0  0  0  0  0  0  0
   -1.4146    3.3097   -0.8032 C   0  0  0  0  0  0  0  0  0  0  0  0
   -1.5989    4.5462   -0.7269 O   0  0  0  0  0  0  0  0  0  0  0  0
   -0.1666    2.8849   -1.2392 O   0  0  0  0  0  0  0  0  0  0  0  0
   -3.6333    3.0397   -0.0419 N   0  0  0  0  0  0  0  0  0  0  0  0
    6.0356    4.0412    1.9162 H   0  0  0  0  0  0  0  0  0  0  0  0
    4.6123    2.9271    1.9977 H   0  0  0  0  0  0  0  0  0  0  0  0
    5.1066    3.7603    0.4106 H   0  0  0  0  0  0  0  0  0  0  0  0
    6.4651    1.4261    1.8156 H   0  0  0  0  0  0  0  0  0  0  0  0
    7.3769    2.5817    0.8038 H   0  0  0  0  0  0  0  0  0  0  0  0
    5.9598    2.2452   -1.0598 H   0  0  0  0  0  0  0  0  0  0  0  0
    4.8645    1.1820   -0.1329 H   0  0  0  0  0  0  0  0  0  0  0  0
    7.8789    0.8929   -0.6855 H   0  0  0  0  0  0  0  0  0  0  0  0
    6.7862    0.0436   -1.7251 H   0  0  0  0  0  0  0  0  0  0  0  0
    8.0178   -1.3013    0.1050 H   0  0  0  0  0  0  0  0  0  0  0  0
    7.3503   -0.2405    1.2965 H   0  0  0  0  0  0  0  0  0  0  0  0
    6.3780   -2.3917    1.5981 H   0  0  0  0  0  0  0  0  0  0  0  0
    4.3149   -2.8789    0.8700 H   0  0  0  0  0  0  0  0  0  0  0  0
    3.2353   -0.8648   -0.4266 H   0  0  0  0  0  0  0  0  0  0  0  0
    4.6988   -0.7105   -1.3515 H   0  0  0  0  0  0  0  0  0  0  0  0
    4.3682   -3.0393   -2.3198 H   0  0  0  0  0  0  0  0  0  0  0  0
    2.0160   -3.3863   -2.6325 H   0  0  0  0  0  0  0  0  0  0  0  0
    1.5086   -1.1353   -0.3968 H   0  0  0  0  0  0  0  0  0  0  0  0
   -0.1939   -2.9001   -2.1259 H   0  0  0  0  0  0  0  0  0  0  0  0
   -0.7255   -0.6820    0.0711 H   0  0  0  0  0  0  0  0  0  0  0  0
   -2.4430   -2.4554   -1.6556 H   0  0  0  0  0  0  0  0  0  0  0  0
   -3.0598   -0.5662    0.7580 H   0  0  0  0  0  0  0  0  0  0  0  0
   -4.7064   -2.4444   -1.0078 H   0  0  0  0  0  0  0  0  0  0  0  0
   -6.3142   -2.5434    0.8082 H   0  0  0  0  0  0  0  0  0  0  0  0
   -5.3054   -1.3692    1.7764 H   0  0  0  0  0  0  0  0  0  0  0  0
   -5.8274    0.4400    0.1462 H   0  0  0  0  0  0  0  0  0  0  0  0
   -6.6911   -0.7435   -0.9373 H   0  0  0  0  0  0  0  0  0  0  0  0
   -8.2932   -1.1744    0.9064 H   0  0  0  0  0  0  0  0  0  0  0  0
   -8.2225    0.5772    0.3888 H   0  0  0  0  0  0  0  0  0  0  0  0
   -8.4540    0.3790    4.1204 H   0  0  0  0  0  0  0  0  0  0  0  0
   -3.0939   -2.8219    1.1805 H   0  0  0  0  0  0  0  0  0  0  0  0
   -1.7787    1.0315   -1.9959 H   0  0  0  0  0  0  0  0  0  0  0  0
   -3.1364    2.1632   -2.4821 H   0  0  0  0  0  0  0  0  0  0  0  0
   -2.0730    1.6526    0.3639 H   0  0  0  0  0  0  0  0  0  0  0  0
    0.6877    3.3639   -0.9617 H   0  0  0  0  0  0  0  0  0  0  0  0
   -4.3335    2.9885   -0.8086 H   0  0  0  0  0  0  0  0  0  0  0  0
   -4.0092    2.7645    0.8812 H   0  0  0  0  0  0  0  0  0  0  0  0
  1  2  1  0
  2  3  1  0
  3  4  1  0
  4  5  1  0
  5  6  1  0
  6  7  2  0
  7  8  1  0
  8  9  1  0
  9 10  2  0
 10 11  1  0
 11 12  2  0
 12 13  1  0
 13 14  2  0
 14 15  1  0
 15 16  1  0
 16 17  1  0
 17 18  1  0
 18 19  1  0
 19 20  1  0
 20 21  2  0
 20 22  1  0
 16 23  1  0
 15 24  1  0
 24 25  1  0
 25 26  1  0
 26 27  1  0
 27 28  2  0
 27 29  1  0
 26 30  1  0
  1 31  1  0
  1 32  1  0
  1 33  1  0
  2 34  1  0
  2 35  1  0
  3 36  1  0
  3 37  1  0
  4 38  1  0
  4 39  1  0
  5 40  1  0
  5 41  1  0
  6 42  1  0
  7 43  1  0
  8 44  1  0
  8 45  1  0
  9 46  1  0
 10 47  1  0
 11 48  1  0
 12 49  1  0
 13 50  1  0
 14 51  1  0
 15 52  1  1
 16 53  1  6
 17 54  1  0
 17 55  1  0
 18 56  1  0
 18 57  1  0
 19 58  1  0
 19 59  1  0
 22 60  1  0
 23 61  1  0
 25 62  1  0
 25 63  1  0
 26 64  1  1
 29 65  1  0
 30 66  1  0
 30 67  1  0
M  END
>  <Ligand ID>  (1) 
LIG0001865

>  <Ligand>  (1) 
LTE4

>  <SMILES>  (1) 
CCCCC/C=C\C/C=C\C=C\C=C\[C@H]([C@H](CCCC(=O)O)O)SC[C@@H](C(=O)O)N

>  <CID>  (1) 
5280879.0

>  <ChEMBL ID>  (1) 
nan

>  <InChiKey>  (1) 
OTZRAYGBFWZKMX-FRFVZSDQSA-N

>  <InChi>  (1) 
InChI=1S/C23H37NO5S/c1-2-3-4-5-6-7-8-9-10-11-12-13-16-21(30-18-19(24)23(28)29)20(25)15-14-17-22(26)27/h6-7,9-13,16,19-21,25H,2-5,8,14-15,17-18,24H2,1H3,(H,26,27)(H,28,29)/b7-6-,10-9-,12-11+,16-13+/t19-,20-,21+/m0/s1

>  <IUPAC Name>  (1) 
(5S,6R,7E,9E,11Z,14Z)-6-[(2R)-2-amino-2-carboxyethyl]sulfanyl-5-hydroxyicosa-7,9,11,14-tetraenoic acid

$$$$
