
     RDKit          3D

 34 33  0  0  0  0  0  0  0  0999 V2000
   -5.1200    0.8744    0.7342 C   0  0  0  0  0  0  0  0  0  0  0  0
   -3.6250    0.6331    0.6150 C   0  0  0  0  0  0  0  0  0  0  0  0
   -3.3246   -0.7915    0.2833 C   0  0  0  0  0  0  0  0  0  0  0  0
   -1.8178   -0.9798    0.1806 C   0  0  0  0  0  0  0  0  0  0  0  0
   -1.1981   -0.1222   -0.8792 C   0  0  0  0  0  0  0  0  0  0  0  0
    0.2946   -0.2928   -1.0168 C   0  0  0  0  0  0  0  0  0  0  0  0
    0.9426    0.0626    0.2753 C   0  0  0  0  0  0  0  0  0  0  0  0
    2.4466   -0.0639    0.2548 C   0  0  0  0  0  0  0  0  0  0  0  0
    3.1268    0.8005   -0.7538 C   0  0  0  0  0  0  0  0  0  0  0  0
    4.6004    0.5756   -0.6644 C   0  0  0  0  0  0  0  0  0  0  0  0
    5.3605    1.1890   -1.4088 O   0  0  0  0  0  0  0  0  0  0  0  0
    5.1689   -0.3971    0.3302 C   0  0  0  0  0  0  0  0  0  0  0  0
   -5.4076    0.7700    1.7949 H   0  0  0  0  0  0  0  0  0  0  0  0
   -5.4010    1.9115    0.4208 H   0  0  0  0  0  0  0  0  0  0  0  0
   -5.6399    0.1157    0.1043 H   0  0  0  0  0  0  0  0  0  0  0  0
   -3.2937    1.3052   -0.2162 H   0  0  0  0  0  0  0  0  0  0  0  0
   -3.0962    0.9663    1.5334 H   0  0  0  0  0  0  0  0  0  0  0  0
   -3.7048   -1.4440    1.0697 H   0  0  0  0  0  0  0  0  0  0  0  0
   -3.7778   -1.0091   -0.7208 H   0  0  0  0  0  0  0  0  0  0  0  0
   -1.6063   -2.0330   -0.0472 H   0  0  0  0  0  0  0  0  0  0  0  0
   -1.4054   -0.7196    1.1926 H   0  0  0  0  0  0  0  0  0  0  0  0
   -1.7250   -0.1599   -1.8413 H   0  0  0  0  0  0  0  0  0  0  0  0
   -1.3256    0.9473   -0.5292 H   0  0  0  0  0  0  0  0  0  0  0  0
    0.6244    0.4338   -1.7899 H   0  0  0  0  0  0  0  0  0  0  0  0
    0.4718   -1.3448   -1.3285 H   0  0  0  0  0  0  0  0  0  0  0  0
    0.6067   -0.6874    1.0514 H   0  0  0  0  0  0  0  0  0  0  0  0
    0.6342    1.0892    0.5453 H   0  0  0  0  0  0  0  0  0  0  0  0
    2.7498   -1.1065    0.1560 H   0  0  0  0  0  0  0  0  0  0  0  0
    2.7868    0.2715    1.2594 H   0  0  0  0  0  0  0  0  0  0  0  0
    2.8497    0.5488   -1.8029 H   0  0  0  0  0  0  0  0  0  0  0  0
    2.9302    1.8612   -0.5627 H   0  0  0  0  0  0  0  0  0  0  0  0
    4.8484   -1.4280    0.0483 H   0  0  0  0  0  0  0  0  0  0  0  0
    4.7719   -0.2250    1.3540 H   0  0  0  0  0  0  0  0  0  0  0  0
    6.2545   -0.2977    0.3581 H   0  0  0  0  0  0  0  0  0  0  0  0
  1  2  1  0
  2  3  1  0
  3  4  1  0
  4  5  1  0
  5  6  1  0
  6  7  1  0
  7  8  1  0
  8  9  1  0
  9 10  1  0
 10 11  2  0
 10 12  1  0
  1 13  1  0
  1 14  1  0
  1 15  1  0
  2 16  1  0
  2 17  1  0
  3 18  1  0
  3 19  1  0
  4 20  1  0
  4 21  1  0
  5 22  1  0
  5 23  1  0
  6 24  1  0
  6 25  1  0
  7 26  1  0
  7 27  1  0
  8 28  1  0
  8 29  1  0
  9 30  1  0
  9 31  1  0
 12 32  1  0
 12 33  1  0
 12 34  1  0
M  END
>  <Ligand ID>  (1) 
LIG0005030

>  <Ligand>  (1) 
undecan-2-one

>  <SMILES>  (1) 
CCCCCCCCCC(=O)C

>  <CID>  (1) 
8163.0

>  <ChEMBL ID>  (1) 
nan

>  <InChiKey>  (1) 
KYWIYKKSMDLRDC-UHFFFAOYSA-N

>  <InChi>  (1) 
InChI=1S/C11H22O/c1-3-4-5-6-7-8-9-10-11(2)12/h3-10H2,1-2H3

>  <IUPAC Name>  (1) 
undecan-2-one

$$$$
