
     RDKit          3D

 46 50  0  0  0  0  0  0  0  0999 V2000
    8.5275   -0.4049   -0.4940 F   0  0  0  0  0  0  0  0  0  0  0  0
    7.2124   -0.2933   -0.1326 C   0  0  0  0  0  0  0  0  0  0  0  0
    6.8408   -0.2354    1.1706 C   0  0  0  0  0  0  0  0  0  0  0  0
    5.5106   -0.1232    1.5736 C   0  0  0  0  0  0  0  0  0  0  0  0
    4.5167   -0.0673    0.6060 C   0  0  0  0  0  0  0  0  0  0  0  0
    4.8908   -0.1258   -0.7197 C   0  0  0  0  0  0  0  0  0  0  0  0
    6.2117   -0.2371   -1.1082 C   0  0  0  0  0  0  0  0  0  0  0  0
    3.2148    0.0448    1.0436 O   0  0  0  0  0  0  0  0  0  0  0  0
    2.0588    0.1216    0.2845 C   0  0  0  0  0  0  0  0  0  0  0  0
    1.0844    1.2025    0.6202 C   0  0  0  0  0  0  0  0  0  0  0  0
   -0.0042    0.2564    0.3026 N   0  0  0  0  0  0  0  0  0  0  0  0
    0.9086   -0.7810    0.6950 C   0  0  0  0  0  0  0  0  0  0  0  0
   -1.2970    0.5314   -0.2040 C   0  0  0  0  0  0  0  0  0  0  0  0
   -2.3294   -0.3739   -0.2721 C   0  0  0  0  0  0  0  0  0  0  0  0
   -2.0282   -1.6729    0.3628 C   0  0  0  0  0  0  0  0  0  0  0  0
   -3.1850   -1.8925    1.3699 C   0  0  0  0  0  0  0  0  0  0  0  0
   -4.2825   -2.4982    0.6548 N   0  0  0  0  0  0  0  0  0  0  0  0
   -5.2260   -1.4837    0.2063 C   0  0  0  0  0  0  0  0  0  0  0  0
   -4.7912   -0.8542   -1.0708 C   0  0  0  0  0  0  0  0  0  0  0  0
   -3.5638   -0.0576   -0.8513 C   0  0  0  0  0  0  0  0  0  0  0  0
   -3.7505    1.1740   -1.3556 N   0  0  0  0  0  0  0  0  0  0  0  0
   -2.7565    2.0594   -1.2914 C   0  0  0  0  0  0  0  0  0  0  0  0
   -1.5717    1.7632   -0.7405 N   0  0  0  0  0  0  0  0  0  0  0  0
   -0.8505    2.8625   -0.8530 N   0  0  0  0  0  0  0  0  0  0  0  0
   -1.5118    3.8575   -1.4514 C   0  0  0  0  0  0  0  0  0  0  0  0
   -2.7635    3.3746   -1.7549 C   0  0  0  0  0  0  0  0  0  0  0  0
    7.5683   -0.2737    1.9823 H   0  0  0  0  0  0  0  0  0  0  0  0
    5.2489   -0.0793    2.6424 H   0  0  0  0  0  0  0  0  0  0  0  0
    4.1346   -0.0852   -1.4908 H   0  0  0  0  0  0  0  0  0  0  0  0
    6.5270   -0.2843   -2.1456 H   0  0  0  0  0  0  0  0  0  0  0  0
    2.2298    0.0712   -0.8058 H   0  0  0  0  0  0  0  0  0  0  0  0
    1.0862    1.5717    1.6561 H   0  0  0  0  0  0  0  0  0  0  0  0
    1.1725    2.0354   -0.1019 H   0  0  0  0  0  0  0  0  0  0  0  0
    0.9217   -0.9188    1.7866 H   0  0  0  0  0  0  0  0  0  0  0  0
    0.9666   -1.6886    0.0588 H   0  0  0  0  0  0  0  0  0  0  0  0
   -1.1470   -1.7282    0.9790 H   0  0  0  0  0  0  0  0  0  0  0  0
   -2.1289   -2.5246   -0.3625 H   0  0  0  0  0  0  0  0  0  0  0  0
   -3.5067   -0.8994    1.7631 H   0  0  0  0  0  0  0  0  0  0  0  0
   -2.8284   -2.4920    2.2038 H   0  0  0  0  0  0  0  0  0  0  0  0
   -4.8226   -3.0973    1.3304 H   0  0  0  0  0  0  0  0  0  0  0  0
   -5.3462   -0.6825    0.9842 H   0  0  0  0  0  0  0  0  0  0  0  0
   -6.2128   -1.9680    0.0829 H   0  0  0  0  0  0  0  0  0  0  0  0
   -5.5981   -0.1887   -1.4189 H   0  0  0  0  0  0  0  0  0  0  0  0
   -4.6034   -1.6510   -1.8308 H   0  0  0  0  0  0  0  0  0  0  0  0
   -1.1374    4.8502   -1.6578 H   0  0  0  0  0  0  0  0  0  0  0  0
   -3.5891    3.8864   -2.2459 H   0  0  0  0  0  0  0  0  0  0  0  0
  1  2  1  0
  2  3  2  0
  3  4  1  0
  4  5  2  0
  5  6  1  0
  6  7  2  0
  5  8  1  0
  8  9  1  0
  9 10  1  0
 10 11  1  0
 11 12  1  0
 11 13  1  0
 13 14  2  0
 14 15  1  0
 15 16  1  0
 16 17  1  0
 17 18  1  0
 18 19  1  0
 19 20  1  0
 20 21  2  0
 21 22  1  0
 22 23  1  0
 23 24  1  0
 24 25  2  0
 25 26  1  0
  7  2  1  0
 12  9  1  0
 23 13  1  0
 20 14  1  0
 26 22  2  0
  3 27  1  0
  4 28  1  0
  6 29  1  0
  7 30  1  0
  9 31  1  0
 10 32  1  0
 10 33  1  0
 12 34  1  0
 12 35  1  0
 15 36  1  0
 15 37  1  0
 16 38  1  0
 16 39  1  0
 17 40  1  0
 18 41  1  0
 18 42  1  0
 19 43  1  0
 19 44  1  0
 25 45  1  0
 26 46  1  0
M  END
>  <Ligand ID>  (1) 
LIG0003239

>  <Ligand>  (1) 
CHEMBL1643678

>  <SMILES>  (1) 
Fc1ccc(cc1)OC1CN(C1)c1c2CCNCCc2nc2n1ncc2

>  <CID>  (1) 
53325937.0

>  <ChEMBL ID>  (1) 
nan

>  <InChiKey>  (1) 
NQECMVQSEVFPOF-UHFFFAOYSA-N

>  <InChi>  (1) 
InChI=1S/C19H20FN5O/c20-13-1-3-14(4-2-13)26-15-11-24(12-15)19-16-5-8-21-9-6-17(16)23-18-7-10-22-25(18)19/h1-4,7,10,15,21H,5-6,8-9,11-12H2

>  <IUPAC Name>  (1) 
8-[3-(4-fluorophenoxy)azetidin-1-yl]-2,6,7,12-tetrazatricyclo[7.5.0.03,7]tetradeca-1,3,5,8-tetraene

$$$$
