
     RDKit          3D

 43 44  0  0  0  0  0  0  0  0999 V2000
   -6.7915    0.7198   -1.0402 C   0  0  0  0  0  0  0  0  0  0  0  0
   -6.0235    0.4234    0.0876 O   0  0  0  0  0  0  0  0  0  0  0  0
   -4.6568    0.3065    0.1126 C   0  0  0  0  0  0  0  0  0  0  0  0
   -3.8494    0.4688   -0.9901 C   0  0  0  0  0  0  0  0  0  0  0  0
   -2.4734    0.3410   -0.9183 C   0  0  0  0  0  0  0  0  0  0  0  0
   -1.8187    0.0381    0.2829 C   0  0  0  0  0  0  0  0  0  0  0  0
   -2.6449   -0.1195    1.3745 C   0  0  0  0  0  0  0  0  0  0  0  0
   -4.0302    0.0089    1.3020 C   0  0  0  0  0  0  0  0  0  0  0  0
   -0.3437   -0.0666    0.3360 C   0  0  0  0  0  0  0  0  0  0  0  0
    0.0930   -1.3027    0.7891 N   0  0  0  0  0  0  0  0  0  0  0  0
   -0.1531   -1.8001    2.0746 C   0  0  0  0  0  0  0  0  0  0  0  0
    0.9755   -2.0765   -0.0130 C   0  0  0  0  0  0  0  0  0  0  0  0
    0.1935    0.3274   -1.0254 C   0  0  0  0  0  0  0  0  0  0  0  0
    1.6413    0.2657   -1.0694 N   0  0  0  0  0  0  0  0  0  0  0  0
    2.4857    1.0392   -0.2267 C   0  0  0  0  0  0  0  0  0  0  0  0
    1.9521    1.8211    0.6027 O   0  0  0  0  0  0  0  0  0  0  0  0
    3.9321    0.9883   -0.2578 C   0  0  0  0  0  0  0  0  0  0  0  0
    4.6199    1.8019    0.6252 C   0  0  0  0  0  0  0  0  0  0  0  0
    5.9841    1.8211    0.6679 N   0  0  0  0  0  0  0  0  0  0  0  0
    6.6625    1.0358   -0.1623 C   0  0  0  0  0  0  0  0  0  0  0  0
    6.0520    0.1972   -1.0707 C   0  0  0  0  0  0  0  0  0  0  0  0
    4.6737    0.1996   -1.0906 C   0  0  0  0  0  0  0  0  0  0  0  0
    7.0544   -0.9142   -2.2452 Br  0  0  0  0  0  0  0  0  0  0  0  0
   -6.5119    0.0924   -1.9036 H   0  0  0  0  0  0  0  0  0  0  0  0
   -7.8533    0.4837   -0.7950 H   0  0  0  0  0  0  0  0  0  0  0  0
   -6.7823    1.8064   -1.3034 H   0  0  0  0  0  0  0  0  0  0  0  0
   -4.3343    0.7044   -1.9347 H   0  0  0  0  0  0  0  0  0  0  0  0
   -1.9441    0.4929   -1.8448 H   0  0  0  0  0  0  0  0  0  0  0  0
   -2.2611   -0.3349    2.3567 H   0  0  0  0  0  0  0  0  0  0  0  0
   -4.6457   -0.1232    2.1833 H   0  0  0  0  0  0  0  0  0  0  0  0
   -0.0375    0.7224    1.0890 H   0  0  0  0  0  0  0  0  0  0  0  0
    0.6527   -2.5300    2.4212 H   0  0  0  0  0  0  0  0  0  0  0  0
   -0.1098   -0.9979    2.8645 H   0  0  0  0  0  0  0  0  0  0  0  0
   -1.1206   -2.3345    2.1288 H   0  0  0  0  0  0  0  0  0  0  0  0
    0.6520   -2.1183   -1.0629 H   0  0  0  0  0  0  0  0  0  0  0  0
    0.8766   -3.1423    0.3500 H   0  0  0  0  0  0  0  0  0  0  0  0
    2.0547   -1.8564    0.1357 H   0  0  0  0  0  0  0  0  0  0  0  0
   -0.2038    1.3291   -1.2514 H   0  0  0  0  0  0  0  0  0  0  0  0
   -0.1855   -0.3845   -1.7567 H   0  0  0  0  0  0  0  0  0  0  0  0
    2.1502   -0.3740   -1.7484 H   0  0  0  0  0  0  0  0  0  0  0  0
    4.1335    2.4639    1.3264 H   0  0  0  0  0  0  0  0  0  0  0  0
    7.7584    1.0216   -0.1596 H   0  0  0  0  0  0  0  0  0  0  0  0
    4.1774   -0.4451   -1.7895 H   0  0  0  0  0  0  0  0  0  0  0  0
  1  2  1  0
  2  3  1  0
  3  4  2  0
  4  5  1  0
  5  6  2  0
  6  7  1  0
  7  8  2  0
  6  9  1  0
  9 10  1  0
 10 11  1  0
 10 12  1  0
  9 13  1  0
 13 14  1  0
 14 15  1  0
 15 16  2  0
 15 17  1  0
 17 18  2  0
 18 19  1  0
 19 20  2  0
 20 21  1  0
 21 22  2  0
 21 23  1  0
  8  3  1  0
 22 17  1  0
  1 24  1  0
  1 25  1  0
  1 26  1  0
  4 27  1  0
  5 28  1  0
  7 29  1  0
  8 30  1  0
  9 31  1  0
 11 32  1  0
 11 33  1  0
 11 34  1  0
 12 35  1  0
 12 36  1  0
 12 37  1  0
 13 38  1  0
 13 39  1  0
 14 40  1  0
 18 41  1  0
 20 42  1  0
 22 43  1  0
M  END
>  <Ligand ID>  (1) 
LIG0004513

>  <Ligand>  (1) 
MLS000772002

>  <SMILES>  (1) 
COc1ccc(cc1)C(N(C)C)CNC(=O)c1cncc(c1)Br

>  <CID>  (1) 
4881395.0

>  <ChEMBL ID>  (1) 
nan

>  <InChiKey>  (1) 
OKLINPZPAOUHLX-UHFFFAOYSA-N

>  <InChi>  (1) 
InChI=1S/C17H20BrN3O2/c1-21(2)16(12-4-6-15(23-3)7-5-12)11-20-17(22)13-8-14(18)10-19-9-13/h4-10,16H,11H2,1-3H3,(H,20,22)

>  <IUPAC Name>  (1) 
5-bromo-N-[2-(dimethylamino)-2-(4-methoxyphenyl)ethyl]pyridine-3-carboxamide

$$$$
