
     RDKit          3D

143148  0  0  0  0  0  0  0  0999 V2000
   -3.6929    5.3947   -4.3573 N   0  0  0  0  0  0  0  0  0  0  0  0
   -4.4250    4.2328   -3.8893 C   0  0  0  0  0  0  0  0  0  0  0  0
   -3.5572    3.0007   -3.8261 C   0  0  0  0  0  0  0  0  0  0  0  0
   -2.3845    3.0957   -2.9164 C   0  0  0  0  0  0  0  0  0  0  0  0
   -2.7333    3.3324   -1.4832 C   0  0  2  0  0  0  0  0  0  0  0  0
   -1.5324    3.4298   -0.6425 N   0  0  0  0  0  0  0  0  0  0  0  0
   -1.2874    4.6115    0.1576 C   0  0  0  0  0  0  0  0  0  0  0  0
   -2.2149    5.4399    0.1042 O   0  0  0  0  0  0  0  0  0  0  0  0
   -0.1157    4.8899    0.9690 C   0  0  2  0  0  0  0  0  0  0  0  0
    0.4216    6.2848    0.7489 C   0  0  0  0  0  0  0  0  0  0  0  0
    0.8697    6.6707   -0.5630 C   0  0  0  0  0  0  0  0  0  0  0  0
    2.2396    6.5718   -0.8552 C   0  0  0  0  0  0  0  0  0  0  0  0
    2.7329    6.9216   -2.1072 C   0  0  0  0  0  0  0  0  0  0  0  0
    1.9070    7.3812   -3.1201 C   0  0  0  0  0  0  0  0  0  0  0  0
    0.5554    7.4817   -2.8406 C   0  0  0  0  0  0  0  0  0  0  0  0
    0.0846    7.1328   -1.5987 C   0  0  0  0  0  0  0  0  0  0  0  0
    0.8919    3.8568    1.0325 N   0  0  0  0  0  0  0  0  0  0  0  0
    1.8555    3.7813    2.1162 C   0  0  0  0  0  0  0  0  0  0  0  0
    1.7710    4.7412    2.8995 O   0  0  0  0  0  0  0  0  0  0  0  0
    2.8346    2.7513    2.3122 C   0  0  2  0  0  0  0  0  0  0  0  0
    4.2292    3.2549    2.0569 C   0  0  0  0  0  0  0  0  0  0  0  0
    4.6134    3.7203    0.7516 C   0  0  0  0  0  0  0  0  0  0  0  0
    5.9241    4.2336    0.5270 C   0  0  0  0  0  0  0  0  0  0  0  0
    6.0129    4.5911   -0.7386 N   0  0  0  0  0  0  0  0  0  0  0  0
    4.8503    4.3486   -1.3611 C   0  0  0  0  0  0  0  0  0  0  0  0
    4.0425    3.8299   -0.4434 N   0  0  0  0  0  0  0  0  0  0  0  0
    2.5558    1.5199    1.5882 N   0  0  0  0  0  0  0  0  0  0  0  0
    3.3498    0.3321    1.7367 C   0  0  0  0  0  0  0  0  0  0  0  0
    4.3809    0.4579    2.3999 O   0  0  0  0  0  0  0  0  0  0  0  0
    2.9820   -0.9665    1.1229 C   0  0  1  0  0  0  0  0  0  0  0  0
    4.2415   -1.7059    0.9145 N   0  0  0  0  0  0  0  0  0  0  0  0
    4.5203   -2.1362   -0.4069 C   0  0  0  0  0  0  0  0  0  0  0  0
    3.7325   -1.9052   -1.3804 O   0  0  0  0  0  0  0  0  0  0  0  0
    5.7645   -2.8886   -0.7162 C   0  0  1  0  0  0  0  0  0  0  0  0
    5.8693   -4.1563    0.0835 C   0  0  0  0  0  0  0  0  0  0  0  0
    7.1354   -4.8481   -0.2818 C   0  0  0  0  0  0  0  0  0  0  0  0
    8.2591   -4.4872    0.4709 C   0  0  0  0  0  0  0  0  0  0  0  0
    9.4939   -5.0868    0.1949 C   0  0  0  0  0  0  0  0  0  0  0  0
    9.5560   -6.0108   -0.8099 C   0  0  0  0  0  0  0  0  0  0  0  0
    8.4473   -6.3803   -1.5683 C   0  0  0  0  0  0  0  0  0  0  0  0
    7.2118   -5.7849   -1.2970 C   0  0  0  0  0  0  0  0  0  0  0  0
    5.8200   -3.2243   -2.1262 N   0  0  0  0  0  0  0  0  0  0  0  0
    2.2510   -1.8145    2.1824 C   0  0  0  0  0  0  0  0  0  0  0  0
    1.6894   -3.3371    1.3787 S   0  0  0  0  0  0  0  0  0  0  0  0
   -0.0745   -2.8511    0.2302 S   0  0  0  0  0  0  0  0  0  0  0  0
   -1.5273   -3.1491    1.2931 C   0  0  0  0  0  0  0  0  0  0  0  0
   -2.7648   -2.7198    0.6651 C   0  0  1  0  0  0  0  0  0  0  0  0
   -2.9764   -1.3026    0.4633 N   0  0  0  0  0  0  0  0  0  0  0  0
   -4.2591   -0.7128    0.8034 C   0  0  0  0  0  0  0  0  0  0  0  0
   -5.0835   -1.5306    1.2445 O   0  0  0  0  0  0  0  0  0  0  0  0
   -4.6213    0.6783    0.6632 C   0  0  2  0  0  0  0  0  0  0  0  0
   -3.5391    1.5565    0.1941 N   0  0  0  0  0  0  0  0  0  0  0  0
   -3.7320    2.3803   -0.9835 C   0  0  0  0  0  0  0  0  0  0  0  0
   -4.8390    2.1903   -1.5235 O   0  0  0  0  0  0  0  0  0  0  0  0
   -5.1035    1.3081    1.9280 C   0  0  0  0  0  0  0  0  0  0  0  0
   -6.2739    0.6781    2.5531 C   0  0  0  0  0  0  0  0  0  0  0  0
   -7.5902    0.9331    2.1408 C   0  0  0  0  0  0  0  0  0  0  0  0
   -8.3899    0.0989    2.8589 N   0  0  0  0  0  0  0  0  0  0  0  0
   -7.6524   -0.6532    3.6886 C   0  0  0  0  0  0  0  0  0  0  0  0
   -6.3457   -0.3244    3.5311 C   0  0  0  0  0  0  0  0  0  0  0  0
   -5.3354   -0.9295    4.2940 C   0  0  0  0  0  0  0  0  0  0  0  0
   -5.6279   -1.8964    5.2449 C   0  0  0  0  0  0  0  0  0  0  0  0
   -6.9730   -2.2226    5.3889 C   0  0  0  0  0  0  0  0  0  0  0  0
   -7.9692   -1.6261    4.6385 C   0  0  0  0  0  0  0  0  0  0  0  0
   -2.9782   -3.4636   -0.6203 C   0  0  0  0  0  0  0  0  0  0  0  0
   -3.3786   -2.7800   -1.6209 O   0  0  0  0  0  0  0  0  0  0  0  0
   -2.7655   -4.8447   -0.7759 N   0  0  0  0  0  0  0  0  0  0  0  0
   -3.0454   -5.3866   -2.1210 C   0  0  2  0  0  0  0  0  0  0  0  0
   -4.0284   -6.5058   -1.8966 C   0  0  0  0  0  0  0  0  0  0  0  0
   -4.4072   -6.8121   -0.7523 O   0  0  0  0  0  0  0  0  0  0  0  0
   -4.5545   -7.2524   -3.0048 N   0  0  0  0  0  0  0  0  0  0  0  0
   -1.7567   -5.9095   -2.7040 C   0  0  2  0  0  0  0  0  0  0  0  0
   -0.8850   -4.7955   -2.7366 O   0  0  0  0  0  0  0  0  0  0  0  0
   -2.0161   -6.3926   -4.1151 C   0  0  0  0  0  0  0  0  0  0  0  0
    1.0593   -0.9989    2.6611 C   0  0  0  0  0  0  0  0  0  0  0  0
    3.1008   -2.1595    3.3494 C   0  0  0  0  0  0  0  0  0  0  0  0
   -2.6887    5.2191   -4.4993 H   0  0  0  0  0  0  0  0  0  0  0  0
   -3.9423    6.2248   -3.7826 H   0  0  0  0  0  0  0  0  0  0  0  0
   -4.9855    4.4559   -2.9599 H   0  0  0  0  0  0  0  0  0  0  0  0
   -5.2112    4.0185   -4.6444 H   0  0  0  0  0  0  0  0  0  0  0  0
   -4.2035    2.1269   -3.7094 H   0  0  0  0  0  0  0  0  0  0  0  0
   -3.1410    2.8907   -4.8778 H   0  0  0  0  0  0  0  0  0  0  0  0
   -1.6917    3.8321   -3.3156 H   0  0  0  0  0  0  0  0  0  0  0  0
   -1.8484    2.1058   -2.9869 H   0  0  0  0  0  0  0  0  0  0  0  0
   -3.2413    4.3452   -1.4341 H   0  0  0  0  0  0  0  0  0  0  0  0
   -0.8173    2.7172   -0.5522 H   0  0  0  0  0  0  0  0  0  0  0  0
   -0.4612    4.9667    2.0544 H   0  0  0  0  0  0  0  0  0  0  0  0
   -0.4743    6.9473    0.9802 H   0  0  0  0  0  0  0  0  0  0  0  0
    1.1123    6.5022    1.5745 H   0  0  0  0  0  0  0  0  0  0  0  0
    2.8788    6.2301   -0.0654 H   0  0  0  0  0  0  0  0  0  0  0  0
    3.7675    6.8461   -2.3268 H   0  0  0  0  0  0  0  0  0  0  0  0
    2.2593    7.6564   -4.0858 H   0  0  0  0  0  0  0  0  0  0  0  0
   -0.1356    7.8300   -3.5875 H   0  0  0  0  0  0  0  0  0  0  0  0
   -0.9864    7.2484   -1.4444 H   0  0  0  0  0  0  0  0  0  0  0  0
    0.9970    3.1154    0.3415 H   0  0  0  0  0  0  0  0  0  0  0  0
    2.9305    2.4125    3.3831 H   0  0  0  0  0  0  0  0  0  0  0  0
    5.0180    2.6297    2.5787 H   0  0  0  0  0  0  0  0  0  0  0  0
    4.2681    4.1916    2.7198 H   0  0  0  0  0  0  0  0  0  0  0  0
    6.7110    4.3229    1.2492 H   0  0  0  0  0  0  0  0  0  0  0  0
    4.6713    4.5675   -2.4226 H   0  0  0  0  0  0  0  0  0  0  0  0
    3.0661    3.5353   -0.6441 H   0  0  0  0  0  0  0  0  0  0  0  0
    1.7828    1.4111    0.9270 H   0  0  0  0  0  0  0  0  0  0  0  0
    2.4607   -0.8958    0.1906 H   0  0  0  0  0  0  0  0  0  0  0  0
    4.8923   -1.8955    1.7312 H   0  0  0  0  0  0  0  0  0  0  0  0
    6.6387   -2.2385   -0.5076 H   0  0  0  0  0  0  0  0  0  0  0  0
    5.0003   -4.8028   -0.2141 H   0  0  0  0  0  0  0  0  0  0  0  0
    5.8009   -3.9826    1.1720 H   0  0  0  0  0  0  0  0  0  0  0  0
    8.1954   -3.7553    1.2604 H   0  0  0  0  0  0  0  0  0  0  0  0
   10.3195   -4.7683    0.8095 H   0  0  0  0  0  0  0  0  0  0  0  0
   10.5378   -6.4689   -1.0090 H   0  0  0  0  0  0  0  0  0  0  0  0
    8.5210   -7.1125   -2.3565 H   0  0  0  0  0  0  0  0  0  0  0  0
    6.3157   -6.0492   -1.8749 H   0  0  0  0  0  0  0  0  0  0  0  0
    5.0644   -2.7440   -2.6919 H   0  0  0  0  0  0  0  0  0  0  0  0
    6.7527   -3.1698   -2.5490 H   0  0  0  0  0  0  0  0  0  0  0  0
   -1.2938   -2.6376    2.2728 H   0  0  0  0  0  0  0  0  0  0  0  0
   -1.5611   -4.2383    1.5853 H   0  0  0  0  0  0  0  0  0  0  0  0
   -3.6382   -3.0802    1.3042 H   0  0  0  0  0  0  0  0  0  0  0  0
   -2.3129   -0.6277    0.0908 H   0  0  0  0  0  0  0  0  0  0  0  0
   -5.4548    0.7100   -0.1175 H   0  0  0  0  0  0  0  0  0  0  0  0
   -2.6289    1.6460    0.6284 H   0  0  0  0  0  0  0  0  0  0  0  0
   -4.2344    1.3316    2.6304 H   0  0  0  0  0  0  0  0  0  0  0  0
   -5.4169    2.3717    1.7040 H   0  0  0  0  0  0  0  0  0  0  0  0
   -7.9160    1.6594    1.3903 H   0  0  0  0  0  0  0  0  0  0  0  0
   -9.4290    0.0227    2.8034 H   0  0  0  0  0  0  0  0  0  0  0  0
   -4.3133   -0.6192    4.1243 H   0  0  0  0  0  0  0  0  0  0  0  0
   -4.8539   -2.3724    5.8501 H   0  0  0  0  0  0  0  0  0  0  0  0
   -7.1947   -2.9736    6.1194 H   0  0  0  0  0  0  0  0  0  0  0  0
   -9.0130   -1.9314    4.7957 H   0  0  0  0  0  0  0  0  0  0  0  0
   -2.4330   -5.4217    0.0046 H   0  0  0  0  0  0  0  0  0  0  0  0
   -3.4382   -4.6366   -2.7959 H   0  0  0  0  0  0  0  0  0  0  0  0
   -5.3549   -6.8481   -3.5763 H   0  0  0  0  0  0  0  0  0  0  0  0
   -4.1447   -8.1723   -3.2233 H   0  0  0  0  0  0  0  0  0  0  0  0
   -1.3355   -6.7317   -2.0769 H   0  0  0  0  0  0  0  0  0  0  0  0
   -0.8301   -4.4329   -3.6355 H   0  0  0  0  0  0  0  0  0  0  0  0
   -3.0428   -6.0821   -4.3936 H   0  0  0  0  0  0  0  0  0  0  0  0
   -1.2846   -5.9666   -4.8457 H   0  0  0  0  0  0  0  0  0  0  0  0
   -1.9807   -7.4928   -4.0948 H   0  0  0  0  0  0  0  0  0  0  0  0
    0.3651   -0.7404    1.8336 H   0  0  0  0  0  0  0  0  0  0  0  0
    1.4796   -0.0513    3.0828 H   0  0  0  0  0  0  0  0  0  0  0  0
    0.5258   -1.5153    3.5043 H   0  0  0  0  0  0  0  0  0  0  0  0
    2.3867   -2.3737    4.2036 H   0  0  0  0  0  0  0  0  0  0  0  0
    3.7159   -1.3188    3.7465 H   0  0  0  0  0  0  0  0  0  0  0  0
    3.6792   -3.1052    3.2558 H   0  0  0  0  0  0  0  0  0  0  0  0
  1  2  1  0
  2  3  1  0
  3  4  1  0
  4  5  1  0
  5  6  1  0
  6  7  1  0
  7  8  2  0
  7  9  1  0
  9 10  1  0
 10 11  1  0
 11 12  2  0
 12 13  1  0
 13 14  2  0
 14 15  1  0
 15 16  2  0
  9 17  1  0
 17 18  1  0
 18 19  2  0
 18 20  1  0
 20 21  1  0
 21 22  1  0
 22 23  2  0
 23 24  1  0
 24 25  2  0
 25 26  1  0
 20 27  1  0
 27 28  1  0
 28 29  2  0
 28 30  1  0
 30 31  1  0
 31 32  1  0
 32 33  2  0
 32 34  1  0
 34 35  1  0
 35 36  1  0
 36 37  2  0
 37 38  1  0
 38 39  2  0
 39 40  1  0
 40 41  2  0
 34 42  1  0
 30 43  1  0
 43 44  1  0
 44 45  1  0
 45 46  1  0
 46 47  1  0
 47 48  1  0
 48 49  1  0
 49 50  2  0
 49 51  1  0
 51 52  1  0
 52 53  1  0
 53 54  2  0
 51 55  1  0
 55 56  1  0
 56 57  2  0
 57 58  1  0
 58 59  1  0
 59 60  2  0
 60 61  1  0
 61 62  2  0
 62 63  1  0
 63 64  2  0
 47 65  1  0
 65 66  2  0
 65 67  1  0
 67 68  1  0
 68 69  1  0
 69 70  2  0
 69 71  1  0
 68 72  1  0
 72 73  1  0
 72 74  1  0
 43 75  1  0
 43 76  1  0
 53  5  1  0
 60 56  1  0
 16 11  1  0
 26 22  1  0
 41 36  1  0
 64 59  1  0
  1 77  1  0
  1 78  1  0
  2 79  1  0
  2 80  1  0
  3 81  1  0
  3 82  1  0
  4 83  1  0
  4 84  1  0
  5 85  1  6
  6 86  1  0
  9 87  1  1
 10 88  1  0
 10 89  1  0
 12 90  1  0
 13 91  1  0
 14 92  1  0
 15 93  1  0
 16 94  1  0
 17 95  1  0
 20 96  1  1
 21 97  1  0
 21 98  1  0
 23 99  1  0
 25100  1  0
 26101  1  0
 27102  1  0
 30103  1  6
 31104  1  0
 34105  1  1
 35106  1  0
 35107  1  0
 37108  1  0
 38109  1  0
 39110  1  0
 40111  1  0
 41112  1  0
 42113  1  0
 42114  1  0
 46115  1  0
 46116  1  0
 47117  1  1
 48118  1  0
 51119  1  6
 52120  1  0
 55121  1  0
 55122  1  0
 57123  1  0
 58124  1  0
 61125  1  0
 62126  1  0
 63127  1  0
 64128  1  0
 67129  1  0
 68130  1  6
 71131  1  0
 71132  1  0
 72133  1  1
 73134  1  0
 74135  1  0
 74136  1  0
 74137  1  0
 75138  1  0
 75139  1  0
 75140  1  0
 76141  1  0
 76142  1  0
 76143  1  0
M  END
>  <Ligand ID>  (1) 
LIG0002188

>  <Ligand>  (1) 
CHEMBL2372365

>  <SMILES>  (1) 
NCCC[C@@H]1NC(=O)[C@H](Cc2ccccc2)NC(=O)[C@H](Cc2cnc[nH]2)NC(=O)[C@@H](NC(=O)[C@@H](Cc2ccccc2)N)C(SSC[C@@H](NC(=O)[C@H](NC1=O)Cc1c[nH]c2c1cccc2)C(=O)N[C@H](C(=O)N)[C@H](O)C)(C)C

>  <CID>  (1) 
73345669.0

>  <ChEMBL ID>  (1) 
nan

>  <InChiKey>  (1) 
MWKMCIFWZIUKLZ-GQVYTNTCSA-N

>  <InChi>  (1) 
InChI=1S/C52H67N13O9S2/c1-29(66)42(44(55)67)64-50(73)41-27-75-76-52(2,3)43(65-45(68)35(54)21-30-13-6-4-7-14-30)51(74)62-40(24-33-26-56-28-58-33)49(72)60-38(22-31-15-8-5-9-16-31)47(70)59-37(19-12-20-53)46(69)61-39(48(71)63-41)23-32-25-57-36-18-11-10-17-34(32)36/h4-11,13-18,25-26,28-29,35,37-43,57,66H,12,19-24,27,53-54H2,1-3H3,(H2,55,67)(H,56,58)(H,59,70)(H,60,72)(H,61,69)(H,62,74)(H,63,71)(H,64,73)(H,65,68)/t29-,35-,37+,38+,39-,40+,41-,42+,43-/m1/s1

>  <IUPAC Name>  (1) 
(4S,7R,10S,13S,16S,19R)-N-[(2S,3R)-1-amino-3-hydroxy-1-oxobutan-2-yl]-19-[[(2R)-2-amino-3-phenylpropanoyl]amino]-10-(3-aminopropyl)-13-benzyl-16-(1H-imidazol-5-ylmethyl)-7-(1H-indol-3-ylmethyl)-20,20-dimethyl-6,9,12,15,18-pentaoxo-1,2-dithia-5,8,11,14,17-pentazacycloicosane-4-carboxamide

$$$$
