
     RDKit          3D

 34 34  0  0  0  0  0  0  0  0999 V2000
   -4.0187    0.9141   -1.4041 C   0  0  0  0  0  0  0  0  0  0  0  0
   -2.7659    1.2774   -1.3056 C   0  0  0  0  0  0  0  0  0  0  0  0
   -2.0289    1.5320   -0.0478 C   0  0  0  0  0  0  0  0  0  0  0  0
   -0.9124    0.7399    0.1746 O   0  0  0  0  0  0  0  0  0  0  0  0
   -0.8304   -0.6066    0.3151 C   0  0  0  0  0  0  0  0  0  0  0  0
   -1.8705   -1.5009    0.2769 C   0  0  0  0  0  0  0  0  0  0  0  0
   -1.7294   -2.8634    0.4284 C   0  0  0  0  0  0  0  0  0  0  0  0
   -0.4769   -3.3946    0.6333 C   0  0  0  0  0  0  0  0  0  0  0  0
    0.5986   -2.5375    0.6796 C   0  0  0  0  0  0  0  0  0  0  0  0
    0.4359   -1.1544    0.5231 C   0  0  0  0  0  0  0  0  0  0  0  0
    1.6797   -0.3557    0.5846 C   0  0  0  0  0  0  0  0  0  0  0  0
    2.4364   -0.3719   -0.7725 C   0  0  0  0  0  0  0  0  0  0  0  0
    1.8978    0.9060   -0.1117 C   0  0  0  0  0  0  0  0  0  0  0  0
    3.0235    1.7963    0.3730 C   0  0  0  0  0  0  0  0  0  0  0  0
    2.8404    2.1945    1.7530 N   0  0  0  0  0  0  0  0  0  0  0  0
    2.1939   -3.2356    0.9429 Cl  0  0  0  0  0  0  0  0  0  0  0  0
   -0.3757   -4.7371    0.7781 F   0  0  0  0  0  0  0  0  0  0  0  0
    0.6835    0.0000    0.0000 Cl  0  0  0  0  0  0  0  0  0  0  0  0
   -4.6164    0.7730   -0.5043 H   0  0  0  0  0  0  0  0  0  0  0  0
   -4.5061    0.7417   -2.3538 H   0  0  0  0  0  0  0  0  0  0  0  0
   -2.2057    1.4068   -2.2322 H   0  0  0  0  0  0  0  0  0  0  0  0
   -2.7947    1.4463    0.7676 H   0  0  0  0  0  0  0  0  0  0  0  0
   -1.7423    2.6306   -0.0598 H   0  0  0  0  0  0  0  0  0  0  0  0
   -2.8732   -1.1385    0.1279 H   0  0  0  0  0  0  0  0  0  0  0  0
   -2.5844   -3.5178    0.3888 H   0  0  0  0  0  0  0  0  0  0  0  0
    2.3271   -0.5218    1.4823 H   0  0  0  0  0  0  0  0  0  0  0  0
    1.8955   -0.7003   -1.6691 H   0  0  0  0  0  0  0  0  0  0  0  0
    3.4979   -0.6137   -0.7090 H   0  0  0  0  0  0  0  0  0  0  0  0
    1.0891    1.4264   -0.6454 H   0  0  0  0  0  0  0  0  0  0  0  0
    4.0244    1.3341    0.2970 H   0  0  0  0  0  0  0  0  0  0  0  0
    3.0576    2.6889   -0.2787 H   0  0  0  0  0  0  0  0  0  0  0  0
    3.4996    2.9684    1.9422 H   0  0  0  0  0  0  0  0  0  0  0  0
    1.8342    2.4734    1.8447 H   0  0  0  0  0  0  0  0  0  0  0  0
   -0.6835    0.0000    0.0000 H   0  0  0  0  0  0  0  0  0  0  0  0
  1  2  2  0
  2  3  1  0
  3  4  1  0
  4  5  1  0
  5  6  2  0
  6  7  1  0
  7  8  2  0
  8  9  1  0
  9 10  2  0
 10 11  1  0
 11 12  1  0
 12 13  1  0
 13 14  1  0
 14 15  1  0
  9 16  1  0
  8 17  1  0
 10  5  1  0
 13 11  1  0
  1 19  1  0
  1 20  1  0
  2 21  1  0
  3 22  1  0
  3 23  1  0
  6 24  1  0
  7 25  1  0
 11 26  1  0
 12 27  1  0
 12 28  1  0
 13 29  1  0
 14 30  1  0
 14 31  1  0
 15 32  1  0
 15 33  1  0
 18 34  1  0
M  END
>  <Ligand ID>  (1) 
LIG0005649

>  <Ligand>  (1) 
CHEMBL3769704

>  <SMILES>  (1) 
C=CCOc1ccc(c(c1C1CC1CN)Cl)F.Cl

>  <CID>  (1) 
127026867.0

>  <ChEMBL ID>  (1) 
nan

>  <InChiKey>  (1) 
LRBSQHMAQKLHOS-UHFFFAOYSA-N

>  <InChi>  (1) 
InChI=1S/C13H15ClFNO.ClH/c1-2-5-17-11-4-3-10(15)13(14)12(11)9-6-8(9)7-16;/h2-4,8-9H,1,5-7,16H2;1H

>  <IUPAC Name>  (1) 
[2-(2-chloro-3-fluoro-6-prop-2-enoxyphenyl)cyclopropyl]methanamine;hydrochloride

$$$$
