
     RDKit          3D

112116  0  0  0  0  0  0  0  0999 V2000
    5.5857   -0.7730   -2.5188 O   0  0  0  0  0  0  0  0  0  0  0  0
    5.6629   -0.2539   -1.3657 C   0  0  0  0  0  0  0  0  0  0  0  0
    4.9879   -0.8050   -0.2376 N   0  0  0  0  0  0  0  0  0  0  0  0
    4.1775   -2.0084   -0.3998 C   0  0  2  0  0  0  0  0  0  0  0  0
    2.8128   -1.8250    0.1088 C   0  0  0  0  0  0  0  0  0  0  0  0
    2.5519   -0.6678    0.5743 O   0  0  0  0  0  0  0  0  0  0  0  0
    1.7894   -2.7851    0.1176 N   0  0  0  0  0  0  0  0  0  0  0  0
    0.4497   -2.6962    0.5196 C   0  0  2  0  0  0  0  0  0  0  0  0
   -0.1889   -1.4480   -0.0844 C   0  0  0  0  0  0  0  0  0  0  0  0
    0.4541   -0.6141   -0.7496 O   0  0  0  0  0  0  0  0  0  0  0  0
   -1.5695   -1.2188    0.1058 N   0  0  0  0  0  0  0  0  0  0  0  0
   -2.2687   -0.0335   -0.4502 C   0  0  2  0  0  0  0  0  0  0  0  0
   -3.1426    0.4541    0.6070 C   0  0  0  0  0  0  0  0  0  0  0  0
   -3.1706   -0.2124    1.6993 O   0  0  0  0  0  0  0  0  0  0  0  0
   -3.9749    1.5952    0.5657 N   0  0  0  0  0  0  0  0  0  0  0  0
   -4.8243    1.9853    1.7134 C   0  0  2  0  0  0  0  0  0  0  0  0
   -6.1653    1.3822    1.6023 C   0  0  0  0  0  0  0  0  0  0  0  0
   -6.9861    1.4571    2.5445 O   0  0  0  0  0  0  0  0  0  0  0  0
   -6.5553    0.7007    0.4162 N   0  0  0  0  0  0  0  0  0  0  0  0
   -4.9002    3.4672    1.8145 C   0  0  0  0  0  0  0  0  0  0  0  0
   -5.4381    4.0988    0.6091 C   0  0  0  0  0  0  0  0  0  0  0  0
   -4.6069    4.5777   -0.4126 C   0  0  0  0  0  0  0  0  0  0  0  0
   -5.3573    5.0520   -1.4202 N   0  0  0  0  0  0  0  0  0  0  0  0
   -6.6468    4.9083   -1.1083 C   0  0  0  0  0  0  0  0  0  0  0  0
   -6.7048    4.3221    0.1420 C   0  0  0  0  0  0  0  0  0  0  0  0
   -7.9432    4.0854    0.6778 C   0  0  0  0  0  0  0  0  0  0  0  0
   -9.0967    4.4025    0.0230 C   0  0  0  0  0  0  0  0  0  0  0  0
   -9.0607    4.9841   -1.2232 C   0  0  0  0  0  0  0  0  0  0  0  0
   -7.8027    5.2218   -1.7558 C   0  0  0  0  0  0  0  0  0  0  0  0
   -3.0227   -0.4789   -1.6701 C   0  0  0  0  0  0  0  0  0  0  0  0
   -3.8284    0.5207   -2.3923 C   0  0  0  0  0  0  0  0  0  0  0  0
   -4.4027   -0.2044   -3.6335 C   0  0  0  0  0  0  0  0  0  0  0  0
   -5.2163   -1.3463   -3.2209 N   0  0  0  0  0  0  0  0  0  0  0  0
   -4.8104   -2.5588   -3.4279 C   0  0  0  0  0  0  0  0  0  0  0  0
   -5.6561   -3.6150   -2.9980 N   0  0  0  0  0  0  0  0  0  0  0  0
   -3.5706   -2.8409   -4.0640 N   0  0  0  0  0  0  0  0  0  0  0  0
   -0.0102   -2.9267    1.8878 C   0  0  0  0  0  0  0  0  0  0  0  0
    0.2327   -4.2631    2.4760 C   0  0  0  0  0  0  0  0  0  0  0  0
   -0.6529   -5.2932    2.1192 C   0  0  0  0  0  0  0  0  0  0  0  0
   -0.4553   -6.5302    2.6962 C   0  0  0  0  0  0  0  0  0  0  0  0
    0.5477   -6.8140    3.5921 C   0  0  0  0  0  0  0  0  0  0  0  0
    1.4219   -5.7867    3.9407 C   0  0  0  0  0  0  0  0  0  0  0  0
    1.2290   -4.5563    3.3701 C   0  0  0  0  0  0  0  0  0  0  0  0
    4.9726   -3.1383    0.1679 C   0  0  0  0  0  0  0  0  0  0  0  0
    5.3500   -3.0236    1.5770 C   0  0  0  0  0  0  0  0  0  0  0  0
    4.6462   -3.5907    2.6221 C   0  0  0  0  0  0  0  0  0  0  0  0
    5.0287   -3.4406    3.9370 C   0  0  0  0  0  0  0  0  0  0  0  0
    6.1640   -2.6954    4.2609 C   0  0  0  0  0  0  0  0  0  0  0  0
    6.8630   -2.1318    3.2099 C   0  0  0  0  0  0  0  0  0  0  0  0
    6.4872   -2.2764    1.8902 C   0  0  0  0  0  0  0  0  0  0  0  0
    6.6880   -2.4728    5.9040 Cl  0  0  0  0  0  0  0  0  0  0  0  0
    6.4712    0.9711   -1.1194 C   0  0  0  0  0  0  0  0  0  0  0  0
    7.2113    1.4268   -2.3504 C   0  0  0  0  0  0  0  0  0  0  0  0
    8.0342    2.6766   -2.0300 C   0  0  0  0  0  0  0  0  0  0  0  0
    7.1291    3.7589   -1.5807 C   0  0  0  0  0  0  0  0  0  0  0  0
    6.6187    4.5957   -2.5540 C   0  0  0  0  0  0  0  0  0  0  0  0
    5.7615    5.6449   -2.1998 C   0  0  0  0  0  0  0  0  0  0  0  0
    5.4697    5.7818   -0.8464 C   0  0  0  0  0  0  0  0  0  0  0  0
    5.9822    4.9439    0.1169 C   0  0  0  0  0  0  0  0  0  0  0  0
    6.8123    3.9330   -0.2591 C   0  0  0  0  0  0  0  0  0  0  0  0
    5.0531   -0.3690    0.7292 H   0  0  0  0  0  0  0  0  0  0  0  0
    4.1224   -2.2025   -1.5278 H   0  0  0  0  0  0  0  0  0  0  0  0
    2.1113   -3.7583   -0.2520 H   0  0  0  0  0  0  0  0  0  0  0  0
   -0.1682   -3.4658   -0.1174 H   0  0  0  0  0  0  0  0  0  0  0  0
   -2.2127   -1.8564    0.6370 H   0  0  0  0  0  0  0  0  0  0  0  0
   -1.4579    0.6588   -0.7734 H   0  0  0  0  0  0  0  0  0  0  0  0
   -3.9930    2.2009   -0.2655 H   0  0  0  0  0  0  0  0  0  0  0  0
   -4.3914    1.5251    2.6502 H   0  0  0  0  0  0  0  0  0  0  0  0
   -6.5480   -0.3533    0.4080 H   0  0  0  0  0  0  0  0  0  0  0  0
   -6.8375    1.2790   -0.4092 H   0  0  0  0  0  0  0  0  0  0  0  0
   -3.8875    3.8948    2.0615 H   0  0  0  0  0  0  0  0  0  0  0  0
   -5.5340    3.7964    2.6835 H   0  0  0  0  0  0  0  0  0  0  0  0
   -3.5294    4.5793   -0.4205 H   0  0  0  0  0  0  0  0  0  0  0  0
   -4.9895    5.4630   -2.2984 H   0  0  0  0  0  0  0  0  0  0  0  0
   -8.0062    3.6549    1.6485 H   0  0  0  0  0  0  0  0  0  0  0  0
  -10.0739    4.2024    0.4729 H   0  0  0  0  0  0  0  0  0  0  0  0
   -9.9690    5.2474   -1.7709 H   0  0  0  0  0  0  0  0  0  0  0  0
   -7.7863    5.6835   -2.7452 H   0  0  0  0  0  0  0  0  0  0  0  0
   -2.3398   -0.9677   -2.4097 H   0  0  0  0  0  0  0  0  0  0  0  0
   -3.7155   -1.3030   -1.3307 H   0  0  0  0  0  0  0  0  0  0  0  0
   -4.7564    0.7536   -1.8120 H   0  0  0  0  0  0  0  0  0  0  0  0
   -3.2350    1.3850   -2.6783 H   0  0  0  0  0  0  0  0  0  0  0  0
   -3.6156   -0.5423   -4.3138 H   0  0  0  0  0  0  0  0  0  0  0  0
   -5.0832    0.4970   -4.1222 H   0  0  0  0  0  0  0  0  0  0  0  0
   -5.9062   -4.3397   -3.7083 H   0  0  0  0  0  0  0  0  0  0  0  0
   -6.0133   -3.6588   -2.0014 H   0  0  0  0  0  0  0  0  0  0  0  0
   -3.4760   -2.4795   -5.0585 H   0  0  0  0  0  0  0  0  0  0  0  0
   -2.7862   -3.3619   -3.6190 H   0  0  0  0  0  0  0  0  0  0  0  0
   -1.1381   -2.8277    1.9081 H   0  0  0  0  0  0  0  0  0  0  0  0
    0.2807   -2.1129    2.6122 H   0  0  0  0  0  0  0  0  0  0  0  0
   -1.4538   -5.0897    1.4121 H   0  0  0  0  0  0  0  0  0  0  0  0
   -1.1671   -7.3146    2.3952 H   0  0  0  0  0  0  0  0  0  0  0  0
    0.6673   -7.8144    4.0247 H   0  0  0  0  0  0  0  0  0  0  0  0
    2.2065   -6.0221    4.6445 H   0  0  0  0  0  0  0  0  0  0  0  0
    1.8940   -3.7642    3.6502 H   0  0  0  0  0  0  0  0  0  0  0  0
    5.9214   -3.2411   -0.4462 H   0  0  0  0  0  0  0  0  0  0  0  0
    4.4511   -4.1229   -0.0289 H   0  0  0  0  0  0  0  0  0  0  0  0
    3.7798   -4.1752    2.3162 H   0  0  0  0  0  0  0  0  0  0  0  0
    4.4750   -3.8833    4.7267 H   0  0  0  0  0  0  0  0  0  0  0  0
    7.7703   -1.5281    3.3729 H   0  0  0  0  0  0  0  0  0  0  0  0
    7.0716   -1.8125    1.0855 H   0  0  0  0  0  0  0  0  0  0  0  0
    5.7511    1.7979   -0.8562 H   0  0  0  0  0  0  0  0  0  0  0  0
    7.1468    0.8885   -0.2537 H   0  0  0  0  0  0  0  0  0  0  0  0
    7.8885    0.6308   -2.7354 H   0  0  0  0  0  0  0  0  0  0  0  0
    6.5073    1.6697   -3.1780 H   0  0  0  0  0  0  0  0  0  0  0  0
    8.6017    2.9303   -2.9425 H   0  0  0  0  0  0  0  0  0  0  0  0
    8.7478    2.4001   -1.2227 H   0  0  0  0  0  0  0  0  0  0  0  0
    6.8967    4.4231   -3.6012 H   0  0  0  0  0  0  0  0  0  0  0  0
    5.3788    6.2782   -2.9613 H   0  0  0  0  0  0  0  0  0  0  0  0
    4.8142    6.5828   -0.5665 H   0  0  0  0  0  0  0  0  0  0  0  0
    5.7550    5.0489    1.1817 H   0  0  0  0  0  0  0  0  0  0  0  0
    7.2147    3.2734    0.4957 H   0  0  0  0  0  0  0  0  0  0  0  0
  1  2  2  0
  2  3  1  0
  3  4  1  0
  4  5  1  0
  5  6  2  0
  5  7  1  0
  7  8  1  0
  8  9  1  0
  9 10  2  0
  9 11  1  0
 11 12  1  0
 12 13  1  0
 13 14  2  0
 13 15  1  0
 15 16  1  0
 16 17  1  0
 17 18  2  0
 17 19  1  0
 16 20  1  0
 20 21  1  0
 21 22  2  0
 22 23  1  0
 23 24  1  0
 24 25  2  0
 25 26  1  0
 26 27  2  0
 27 28  1  0
 28 29  2  0
 12 30  1  0
 30 31  1  0
 31 32  1  0
 32 33  1  0
 33 34  2  3
 34 35  1  0
 34 36  1  0
  8 37  1  0
 37 38  1  0
 38 39  2  0
 39 40  1  0
 40 41  2  0
 41 42  1  0
 42 43  2  0
  4 44  1  0
 44 45  1  0
 45 46  2  0
 46 47  1  0
 47 48  2  0
 48 49  1  0
 49 50  2  0
 48 51  1  0
  2 52  1  0
 52 53  1  0
 53 54  1  0
 54 55  1  0
 55 56  2  0
 56 57  1  0
 57 58  2  0
 58 59  1  0
 59 60  2  0
 25 21  1  0
 43 38  1  0
 50 45  1  0
 60 55  1  0
 29 24  1  0
  3 61  1  0
  4 62  1  6
  7 63  1  0
  8 64  1  6
 11 65  1  0
 12 66  1  6
 15 67  1  0
 16 68  1  1
 19 69  1  0
 19 70  1  0
 20 71  1  0
 20 72  1  0
 22 73  1  0
 23 74  1  0
 26 75  1  0
 27 76  1  0
 28 77  1  0
 29 78  1  0
 30 79  1  0
 30 80  1  0
 31 81  1  0
 31 82  1  0
 32 83  1  0
 32 84  1  0
 35 85  1  0
 35 86  1  0
 36 87  1  0
 36 88  1  0
 37 89  1  0
 37 90  1  0
 39 91  1  0
 40 92  1  0
 41 93  1  0
 42 94  1  0
 43 95  1  0
 44 96  1  0
 44 97  1  0
 46 98  1  0
 47 99  1  0
 49100  1  0
 50101  1  0
 52102  1  0
 52103  1  0
 53104  1  0
 53105  1  0
 54106  1  0
 54107  1  0
 56108  1  0
 57109  1  0
 58110  1  0
 59111  1  0
 60112  1  0
M  END
>  <Ligand ID>  (1) 
LIG0002673

>  <Ligand>  (1) 
CHEMBL361253

>  <SMILES>  (1) 
O=C(N[C@H](C(=O)N[C@H](C(=O)N[C@H](C(=O)N[C@H](C(=O)N)Cc1c[nH]c2c1cccc2)CCCN=C(N)N)Cc1ccccc1)Cc1ccc(cc1)Cl)CCCc1ccccc1

>  <CID>  (1) 
44394695.0

>  <ChEMBL ID>  (1) 
nan

>  <InChiKey>  (1) 
HHAVPEXIKLXKCJ-GTKRZRNESA-N

>  <InChi>  (1) 
InChI=1S/C45H52ClN9O5/c46-33-22-20-31(21-23-33)26-38(52-40(56)19-9-15-29-11-3-1-4-12-29)43(59)55-39(25-30-13-5-2-6-14-30)44(60)53-36(18-10-24-50-45(48)49)42(58)54-37(41(47)57)27-32-28-51-35-17-8-7-16-34(32)35/h1-8,11-14,16-17,20-23,28,36-39,51H,9-10,15,18-19,24-27H2,(H2,47,57)(H,52,56)(H,53,60)(H,54,58)(H,55,59)(H4,48,49,50)/t36-,37-,38-,39-/m0/s1

>  <IUPAC Name>  (1) 
(2S)-N-[(2S)-1-amino-3-(1H-indol-3-yl)-1-oxopropan-2-yl]-2-[[(2S)-2-[[(2S)-3-(4-chlorophenyl)-2-(4-phenylbutanoylamino)propanoyl]amino]-3-phenylpropanoyl]amino]-5-(diaminomethylideneamino)pentanamide

$$$$
