
     RDKit          3D

 76 80  0  0  0  0  0  0  0  0999 V2000
   -6.3612    1.0212   -2.1495 O   0  0  0  0  0  0  0  0  0  0  0  0
   -6.3484    0.1032   -1.1001 C   0  0  2  0  0  0  0  0  0  0  0  0
   -7.4868    0.4764   -0.2176 C   0  0  0  0  0  0  0  0  0  0  0  0
   -7.9034    1.7985   -0.1702 C   0  0  0  0  0  0  0  0  0  0  0  0
   -8.9579    2.2200    0.6106 C   0  0  0  0  0  0  0  0  0  0  0  0
   -9.6246    1.3010    1.3721 C   0  0  0  0  0  0  0  0  0  0  0  0
   -9.2523   -0.0310    1.3644 C   0  0  0  0  0  0  0  0  0  0  0  0
   -8.1790   -0.4150    0.5596 C   0  0  0  0  0  0  0  0  0  0  0  0
   -7.8338   -1.7277    0.5737 C   0  0  0  0  0  0  0  0  0  0  0  0
   -8.5309   -2.6217    1.3582 C   0  0  0  0  0  0  0  0  0  0  0  0
   -9.5879   -2.2196    2.1447 C   0  0  0  0  0  0  0  0  0  0  0  0
  -10.2160   -3.0428    2.8554 O   0  0  0  0  0  0  0  0  0  0  0  0
   -9.9229   -0.9128    2.1238 N   0  0  0  0  0  0  0  0  0  0  0  0
  -10.6833    1.7238    2.1556 O   0  0  0  0  0  0  0  0  0  0  0  0
   -5.0587    0.0952   -0.3524 C   0  0  0  0  0  0  0  0  0  0  0  0
   -3.9394   -0.2659   -1.1360 N   0  0  0  0  0  0  0  0  0  0  0  0
   -3.5630    0.6990   -2.1147 C   0  0  0  0  0  0  0  0  0  0  0  0
   -2.3132    0.1407   -2.8219 C   0  0  0  0  0  0  0  0  0  0  0  0
   -1.2710   -0.0333   -1.7860 C   0  0  0  0  0  0  0  0  0  0  0  0
   -1.1532   -1.2254   -1.0887 C   0  0  0  0  0  0  0  0  0  0  0  0
   -0.1698   -1.3861   -0.1368 C   0  0  0  0  0  0  0  0  0  0  0  0
    0.7445   -0.3931    0.1801 C   0  0  0  0  0  0  0  0  0  0  0  0
    0.6167    0.7934   -0.5213 C   0  0  0  0  0  0  0  0  0  0  0  0
   -0.3709    0.9650   -1.4826 C   0  0  0  0  0  0  0  0  0  0  0  0
    1.7378   -0.5882    1.1730 N   0  0  0  0  0  0  0  0  0  0  0  0
    3.0025    0.0357    1.1898 C   0  0  0  0  0  0  0  0  0  0  0  0
    3.6911    0.1850    2.3704 C   0  0  0  0  0  0  0  0  0  0  0  0
    4.9353    0.7705    2.4214 C   0  0  0  0  0  0  0  0  0  0  0  0
    5.5734    1.2503    1.2634 C   0  0  0  0  0  0  0  0  0  0  0  0
    4.8590    1.0865    0.0996 C   0  0  0  0  0  0  0  0  0  0  0  0
    3.6112    0.4992    0.0446 C   0  0  0  0  0  0  0  0  0  0  0  0
    6.7857    1.8075    1.4139 O   0  0  0  0  0  0  0  0  0  0  0  0
    7.6709    2.3466    0.5208 C   0  0  0  0  0  0  0  0  0  0  0  0
    8.2741    1.4711   -0.5224 C   0  0  0  0  0  0  0  0  0  0  0  0
    9.0615    0.3681   -0.0189 N   0  0  0  0  0  0  0  0  0  0  0  0
    8.2187   -0.5900    0.6045 C   0  0  0  0  0  0  0  0  0  0  0  0
    8.8240   -1.9830    0.6736 C   0  0  0  0  0  0  0  0  0  0  0  0
   10.1831   -1.8636    0.5150 O   0  0  0  0  0  0  0  0  0  0  0  0
   10.5400   -1.4342   -0.7638 C   0  0  0  0  0  0  0  0  0  0  0  0
    9.8511   -0.1380   -1.1210 C   0  0  0  0  0  0  0  0  0  0  0  0
   -6.7006    0.6225   -2.9773 H   0  0  0  0  0  0  0  0  0  0  0  0
   -6.5085   -0.9274   -1.5108 H   0  0  0  0  0  0  0  0  0  0  0  0
   -7.3720    2.5396   -0.7786 H   0  0  0  0  0  0  0  0  0  0  0  0
   -9.2076    3.2743    0.5791 H   0  0  0  0  0  0  0  0  0  0  0  0
   -7.0250   -2.1077   -0.0078 H   0  0  0  0  0  0  0  0  0  0  0  0
   -8.2641   -3.6662    1.3758 H   0  0  0  0  0  0  0  0  0  0  0  0
  -10.7247   -0.5861    2.7153 H   0  0  0  0  0  0  0  0  0  0  0  0
  -10.7133    1.6807    3.1655 H   0  0  0  0  0  0  0  0  0  0  0  0
   -5.1732   -0.6667    0.4671 H   0  0  0  0  0  0  0  0  0  0  0  0
   -4.8442    1.0848    0.1320 H   0  0  0  0  0  0  0  0  0  0  0  0
   -4.0395   -1.1889   -1.6027 H   0  0  0  0  0  0  0  0  0  0  0  0
   -3.3211    1.6989   -1.6645 H   0  0  0  0  0  0  0  0  0  0  0  0
   -4.3046    0.8727   -2.9027 H   0  0  0  0  0  0  0  0  0  0  0  0
   -2.0191    0.8710   -3.6042 H   0  0  0  0  0  0  0  0  0  0  0  0
   -2.5952   -0.8223   -3.2497 H   0  0  0  0  0  0  0  0  0  0  0  0
   -1.8260   -2.0530   -1.2735 H   0  0  0  0  0  0  0  0  0  0  0  0
   -0.1208   -2.3403    0.3805 H   0  0  0  0  0  0  0  0  0  0  0  0
    1.2587    1.6384   -0.3521 H   0  0  0  0  0  0  0  0  0  0  0  0
   -0.4825    1.8939   -2.0425 H   0  0  0  0  0  0  0  0  0  0  0  0
    1.5158   -1.2550    1.9640 H   0  0  0  0  0  0  0  0  0  0  0  0
    3.2418   -0.1717    3.3068 H   0  0  0  0  0  0  0  0  0  0  0  0
    5.4262    0.8563    3.3982 H   0  0  0  0  0  0  0  0  0  0  0  0
    5.2705    1.4391   -0.8308 H   0  0  0  0  0  0  0  0  0  0  0  0
    3.1378    0.4074   -0.9424 H   0  0  0  0  0  0  0  0  0  0  0  0
    8.5046    2.8831    1.0455 H   0  0  0  0  0  0  0  0  0  0  0  0
    7.0897    3.1369   -0.0662 H   0  0  0  0  0  0  0  0  0  0  0  0
    7.4999    0.9897   -1.1743 H   0  0  0  0  0  0  0  0  0  0  0  0
    8.8922    2.0686   -1.2436 H   0  0  0  0  0  0  0  0  0  0  0  0
    7.9864   -0.2718    1.6377 H   0  0  0  0  0  0  0  0  0  0  0  0
    7.2414   -0.7253    0.0824 H   0  0  0  0  0  0  0  0  0  0  0  0
    8.6359   -2.3733    1.6931 H   0  0  0  0  0  0  0  0  0  0  0  0
    8.3793   -2.6481   -0.1057 H   0  0  0  0  0  0  0  0  0  0  0  0
   10.1819   -2.2045   -1.4732 H   0  0  0  0  0  0  0  0  0  0  0  0
   11.6389   -1.3897   -0.8506 H   0  0  0  0  0  0  0  0  0  0  0  0
   10.6415    0.6096   -1.3313 H   0  0  0  0  0  0  0  0  0  0  0  0
    9.2469   -0.2398   -2.0430 H   0  0  0  0  0  0  0  0  0  0  0  0
  1  2  1  0
  2  3  1  0
  3  4  2  0
  4  5  1  0
  5  6  2  0
  6  7  1  0
  7  8  2  0
  8  9  1  0
  9 10  2  0
 10 11  1  0
 11 12  2  0
 11 13  1  0
  6 14  1  0
  2 15  1  0
 15 16  1  0
 16 17  1  0
 17 18  1  0
 18 19  1  0
 19 20  2  0
 20 21  1  0
 21 22  2  0
 22 23  1  0
 23 24  2  0
 22 25  1  0
 25 26  1  0
 26 27  2  0
 27 28  1  0
 28 29  2  0
 29 30  1  0
 30 31  2  0
 29 32  1  0
 32 33  1  0
 33 34  1  0
 34 35  1  0
 35 36  1  0
 36 37  1  0
 37 38  1  0
 38 39  1  0
 39 40  1  0
  8  3  1  0
 24 19  1  0
 31 26  1  0
 40 35  1  0
 13  7  1  0
  1 41  1  0
  2 42  1  6
  4 43  1  0
  5 44  1  0
  9 45  1  0
 10 46  1  0
 13 47  1  0
 14 48  1  0
 15 49  1  0
 15 50  1  0
 16 51  1  0
 17 52  1  0
 17 53  1  0
 18 54  1  0
 18 55  1  0
 20 56  1  0
 21 57  1  0
 23 58  1  0
 24 59  1  0
 25 60  1  0
 27 61  1  0
 28 62  1  0
 30 63  1  0
 31 64  1  0
 33 65  1  0
 33 66  1  0
 34 67  1  0
 34 68  1  0
 36 69  1  0
 36 70  1  0
 37 71  1  0
 37 72  1  0
 39 73  1  0
 39 74  1  0
 40 75  1  0
 40 76  1  0
M  END
>  <Ligand ID>  (1) 
LIG0003251

>  <Ligand>  (1) 
CHEMBL3298831

>  <SMILES>  (1) 
O[C@H](c1ccc(c2c1ccc(=O)[nH]2)O)CNCCc1ccc(cc1)Nc1ccc(cc1)OCCN1CCOCC1

>  <CID>  (1) 
56943485.0

>  <ChEMBL ID>  (1) 
nan

>  <InChiKey>  (1) 
GPANSMBREMKPKY-LJAQVGFWSA-N

>  <InChi>  (1) 
InChI=1S/C31H36N4O5/c36-28-11-9-26(27-10-12-30(38)34-31(27)28)29(37)21-32-14-13-22-1-3-23(4-2-22)33-24-5-7-25(8-6-24)40-20-17-35-15-18-39-19-16-35/h1-12,29,32-33,36-37H,13-21H2,(H,34,38)/t29-/m0/s1

>  <IUPAC Name>  (1) 
8-hydroxy-5-[(1R)-1-hydroxy-2-[2-[4-[4-(2-morpholin-4-ylethoxy)anilino]phenyl]ethylamino]ethyl]-1H-quinolin-2-one

$$$$
