
     RDKit          3D

 34 34  0  0  0  0  0  0  0  0999 V2000
    4.8343   -0.4306    0.3832 C   0  0  0  0  0  0  0  0  0  0  0  0
    3.5035   -0.4719   -0.2702 C   0  0  0  0  0  0  0  0  0  0  0  0
    2.3773   -0.0965    0.3929 C   0  0  0  0  0  0  0  0  0  0  0  0
    1.1696   -0.1927   -0.3742 C   0  0  0  0  0  0  0  0  0  0  0  0
    1.3818   -0.6286   -1.5752 O   0  0  0  0  0  0  0  0  0  0  0  0
   -0.1963    0.1004   -0.0624 C   0  0  0  0  0  0  0  0  0  0  0  0
   -0.6271    0.5746    1.1110 C   0  0  0  0  0  0  0  0  0  0  0  0
    0.2822    0.8552    2.2460 C   0  0  0  0  0  0  0  0  0  0  0  0
   -2.0887    0.8692    1.3488 C   0  0  0  0  0  0  0  0  0  0  0  0
   -2.7998   -0.4038    0.9647 C   0  0  0  0  0  0  0  0  0  0  0  0
   -2.3679   -0.9342   -0.3622 C   0  0  0  0  0  0  0  0  0  0  0  0
   -1.3046   -0.1110   -1.0652 C   0  0  0  0  0  0  0  0  0  0  0  0
   -0.8341   -0.9293   -2.2753 C   0  0  0  0  0  0  0  0  0  0  0  0
   -1.7743    1.2108   -1.5629 C   0  0  0  0  0  0  0  0  0  0  0  0
    5.4925   -1.2095   -0.0568 H   0  0  0  0  0  0  0  0  0  0  0  0
    4.7322   -0.5887    1.4824 H   0  0  0  0  0  0  0  0  0  0  0  0
    5.2487    0.5851    0.1677 H   0  0  0  0  0  0  0  0  0  0  0  0
    3.4743   -0.8127   -1.2923 H   0  0  0  0  0  0  0  0  0  0  0  0
    2.5513    0.2125    1.3846 H   0  0  0  0  0  0  0  0  0  0  0  0
   -0.3785    1.3077    3.0623 H   0  0  0  0  0  0  0  0  0  0  0  0
    1.0040    1.6682    2.0431 H   0  0  0  0  0  0  0  0  0  0  0  0
    0.7557   -0.0190    2.6907 H   0  0  0  0  0  0  0  0  0  0  0  0
   -2.4628    1.7213    0.7959 H   0  0  0  0  0  0  0  0  0  0  0  0
   -2.2717    0.9960    2.4444 H   0  0  0  0  0  0  0  0  0  0  0  0
   -3.9022   -0.2943    0.9878 H   0  0  0  0  0  0  0  0  0  0  0  0
   -2.5506   -1.1379    1.7880 H   0  0  0  0  0  0  0  0  0  0  0  0
   -3.2330   -1.1350   -1.0313 H   0  0  0  0  0  0  0  0  0  0  0  0
   -1.8824   -1.9288   -0.2084 H   0  0  0  0  0  0  0  0  0  0  0  0
   -0.2890   -0.3479   -3.0089 H   0  0  0  0  0  0  0  0  0  0  0  0
   -0.4085   -1.8850   -1.9408 H   0  0  0  0  0  0  0  0  0  0  0  0
   -1.7745   -1.2583   -2.8497 H   0  0  0  0  0  0  0  0  0  0  0  0
   -1.2183    2.0940   -1.1766 H   0  0  0  0  0  0  0  0  0  0  0  0
   -1.5614    1.2514   -2.6735 H   0  0  0  0  0  0  0  0  0  0  0  0
   -2.8818    1.3694   -1.5073 H   0  0  0  0  0  0  0  0  0  0  0  0
  1  2  1  0
  2  3  2  3
  3  4  1  0
  4  5  2  0
  4  6  1  0
  6  7  2  0
  7  8  1  0
  7  9  1  0
  9 10  1  0
 10 11  1  0
 11 12  1  0
 12 13  1  0
 12 14  1  0
 12  6  1  0
  1 15  1  0
  1 16  1  0
  1 17  1  0
  2 18  1  0
  3 19  1  0
  8 20  1  0
  8 21  1  0
  8 22  1  0
  9 23  1  0
  9 24  1  0
 10 25  1  0
 10 26  1  0
 11 27  1  0
 11 28  1  0
 13 29  1  0
 13 30  1  0
 13 31  1  0
 14 32  1  0
 14 33  1  0
 14 34  1  0
M  END
>  <Ligand ID>  (1) 
LIG0000127

>  <Ligand>  (1) 
1-(2,6,6-trimethylcyclohexen-1-yl)but-2-en-1-one

>  <SMILES>  (1) 
CC=CC(=O)C1=C(C)CCCC1(C)C

>  <CID>  (1) 
32052.0

>  <ChEMBL ID>  (1) 
nan

>  <InChiKey>  (1) 
BGTBFNDXYDYBEY-UHFFFAOYSA-N

>  <InChi>  (1) 
InChI=1S/C13H20O/c1-5-7-11(14)12-10(2)8-6-9-13(12,3)4/h5,7H,6,8-9H2,1-4H3

>  <IUPAC Name>  (1) 
1-(2,6,6-trimethylcyclohexen-1-yl)but-2-en-1-one

$$$$
