
     RDKit          3D

 67 69  0  0  0  0  0  0  0  0999 V2000
   -5.6219   -0.3890   -3.1721 C   0  0  0  0  0  0  0  0  0  0  0  0
   -5.0529   -0.9372   -1.8530 C   0  0  0  0  0  0  0  0  0  0  0  0
   -5.2992   -0.0739   -0.7955 O   0  0  0  0  0  0  0  0  0  0  0  0
   -4.3563    0.4641    0.0245 C   0  0  0  0  0  0  0  0  0  0  0  0
   -3.0026    0.1814   -0.1155 C   0  0  0  0  0  0  0  0  0  0  0  0
   -2.0364    0.7163    0.7059 C   0  0  0  0  0  0  0  0  0  0  0  0
   -2.4324    1.5659    1.7059 C   0  0  0  0  0  0  0  0  0  0  0  0
   -3.7653    1.8487    1.8489 C   0  0  0  0  0  0  0  0  0  0  0  0
   -4.7582    1.3160    1.0254 C   0  0  0  0  0  0  0  0  0  0  0  0
   -6.1125    1.7277    1.3106 C   0  0  0  0  0  0  0  0  0  0  0  0
   -6.3344    2.5286    2.2747 O   0  0  0  0  0  0  0  0  0  0  0  0
   -7.2711    1.3206    0.6027 N   0  0  0  0  0  0  0  0  0  0  0  0
   -8.8655    1.8816    1.0261 S   0  0  0  0  0  0  0  0  0  0  0  0
   -9.7659    0.7362    1.4206 O   0  0  0  0  0  0  0  0  0  0  0  0
   -9.4360    2.6299   -0.1386 O   0  0  0  0  0  0  0  0  0  0  0  0
   -8.8262    2.9880    2.4049 C   0  0  0  0  0  0  0  0  0  0  0  0
   -0.6113    0.4344    0.5670 C   0  0  0  0  0  0  0  0  0  0  0  0
   -0.0517    0.1940   -0.6726 C   0  0  0  0  0  0  0  0  0  0  0  0
    1.2987   -0.0731   -0.7840 C   0  0  0  0  0  0  0  0  0  0  0  0
    2.0868   -0.0961    0.3756 C   0  0  0  0  0  0  0  0  0  0  0  0
    1.5362    0.1428    1.6175 C   0  0  0  0  0  0  0  0  0  0  0  0
    0.1817    0.4084    1.7075 C   0  0  0  0  0  0  0  0  0  0  0  0
    3.5606   -0.3843    0.2062 C   0  0  0  0  0  0  0  0  0  0  0  0
    3.8804   -1.8355    0.2618 C   0  0  0  0  0  0  0  0  0  0  0  0
    5.2974   -2.0300    0.0818 N   0  0  0  0  0  0  0  0  0  0  0  0
    5.9898   -1.5241    1.2453 C   0  0  0  0  0  0  0  0  0  0  0  0
    7.4826   -1.7808    0.9698 C   0  0  1  0  0  0  0  0  0  0  0  0
    7.7785   -0.9910   -0.2585 C   0  0  0  0  0  0  0  0  0  0  0  0
    7.8318    0.3971   -0.0760 C   0  0  0  0  0  0  0  0  0  0  0  0
    8.1020    1.2358   -1.1644 C   0  0  0  0  0  0  0  0  0  0  0  0
    8.3131    0.6593   -2.4158 C   0  0  0  0  0  0  0  0  0  0  0  0
    8.2549   -0.7255   -2.5729 C   0  0  0  0  0  0  0  0  0  0  0  0
    7.9867   -1.5642   -1.4934 C   0  0  0  0  0  0  0  0  0  0  0  0
    8.2396   -1.3232    2.0537 O   0  0  0  0  0  0  0  0  0  0  0  0
   -5.6807   -2.3231   -1.5970 C   0  0  0  0  0  0  0  0  0  0  0  0
   -5.6724    0.6995   -3.1187 H   0  0  0  0  0  0  0  0  0  0  0  0
   -6.6257   -0.8657   -3.3364 H   0  0  0  0  0  0  0  0  0  0  0  0
   -4.9897   -0.6839   -4.0278 H   0  0  0  0  0  0  0  0  0  0  0  0
   -3.9954   -1.1463   -2.0799 H   0  0  0  0  0  0  0  0  0  0  0  0
   -2.6243   -0.4882   -0.8922 H   0  0  0  0  0  0  0  0  0  0  0  0
   -1.7116    2.0036    2.3670 H   0  0  0  0  0  0  0  0  0  0  0  0
   -4.0173    2.5369    2.6703 H   0  0  0  0  0  0  0  0  0  0  0  0
   -7.2154    0.6768   -0.1898 H   0  0  0  0  0  0  0  0  0  0  0  0
   -9.8588    3.3171    2.6691 H   0  0  0  0  0  0  0  0  0  0  0  0
   -8.4069    2.5342    3.3228 H   0  0  0  0  0  0  0  0  0  0  0  0
   -8.2197    3.8848    2.1148 H   0  0  0  0  0  0  0  0  0  0  0  0
   -0.6586    0.2130   -1.5553 H   0  0  0  0  0  0  0  0  0  0  0  0
    1.7066   -0.2557   -1.7591 H   0  0  0  0  0  0  0  0  0  0  0  0
    2.1638    0.1194    2.5000 H   0  0  0  0  0  0  0  0  0  0  0  0
   -0.2313    0.5949    2.7036 H   0  0  0  0  0  0  0  0  0  0  0  0
    3.8829    0.0184   -0.7901 H   0  0  0  0  0  0  0  0  0  0  0  0
    4.0505    0.2448    0.9491 H   0  0  0  0  0  0  0  0  0  0  0  0
    3.6025   -2.3003    1.2314 H   0  0  0  0  0  0  0  0  0  0  0  0
    3.3506   -2.3950   -0.5558 H   0  0  0  0  0  0  0  0  0  0  0  0
    5.5720   -1.4831   -0.7726 H   0  0  0  0  0  0  0  0  0  0  0  0
    5.6789   -2.0565    2.1651 H   0  0  0  0  0  0  0  0  0  0  0  0
    5.8673   -0.4338    1.3670 H   0  0  0  0  0  0  0  0  0  0  0  0
    7.5933   -2.8585    0.8363 H   0  0  0  0  0  0  0  0  0  0  0  0
    7.6615    0.8315    0.9226 H   0  0  0  0  0  0  0  0  0  0  0  0
    8.1453    2.3251   -1.0269 H   0  0  0  0  0  0  0  0  0  0  0  0
    8.5239    1.3124   -3.2667 H   0  0  0  0  0  0  0  0  0  0  0  0
    8.4240   -1.1618   -3.5655 H   0  0  0  0  0  0  0  0  0  0  0  0
    7.9383   -2.6456   -1.5985 H   0  0  0  0  0  0  0  0  0  0  0  0
    8.9891   -1.9479    2.2223 H   0  0  0  0  0  0  0  0  0  0  0  0
   -6.7510   -2.1514   -1.3497 H   0  0  0  0  0  0  0  0  0  0  0  0
   -5.1773   -2.8028   -0.7373 H   0  0  0  0  0  0  0  0  0  0  0  0
   -5.5355   -2.9614   -2.4835 H   0  0  0  0  0  0  0  0  0  0  0  0
  1  2  1  0
  2  3  1  0
  3  4  1  0
  4  5  2  0
  5  6  1  0
  6  7  2  0
  7  8  1  0
  8  9  2  0
  9 10  1  0
 10 11  2  0
 10 12  1  0
 12 13  1  0
 13 14  2  0
 13 15  2  0
 13 16  1  0
  6 17  1  0
 17 18  2  0
 18 19  1  0
 19 20  2  0
 20 21  1  0
 21 22  2  0
 20 23  1  0
 23 24  1  0
 24 25  1  0
 25 26  1  0
 26 27  1  0
 27 28  1  0
 28 29  2  0
 29 30  1  0
 30 31  2  0
 31 32  1  0
 32 33  2  0
 27 34  1  0
  2 35  1  0
  9  4  1  0
 22 17  1  0
 33 28  1  0
  1 36  1  0
  1 37  1  0
  1 38  1  0
  2 39  1  0
  5 40  1  0
  7 41  1  0
  8 42  1  0
 12 43  1  0
 16 44  1  0
 16 45  1  0
 16 46  1  0
 18 47  1  0
 19 48  1  0
 21 49  1  0
 22 50  1  0
 23 51  1  0
 23 52  1  0
 24 53  1  0
 24 54  1  0
 25 55  1  0
 26 56  1  0
 26 57  1  0
 27 58  1  6
 29 59  1  0
 30 60  1  0
 31 61  1  0
 32 62  1  0
 33 63  1  0
 34 64  1  0
 35 65  1  0
 35 66  1  0
 35 67  1  0
M  END
>  <Ligand ID>  (1) 
LIG0003498

>  <Ligand>  (1) 
CHEMBL515397

>  <SMILES>  (1) 
CC(Oc1cc(ccc1C(=O)NS(=O)(=O)C)c1ccc(cc1)CCNC[C@@H](c1ccccc1)O)C

>  <CID>  (1) 
42639133.0

>  <ChEMBL ID>  (1) 
nan

>  <InChiKey>  (1) 
RJTZTNJDJLXFEL-VWLOTQADSA-N

>  <InChi>  (1) 
InChI=1S/C27H32N2O5S/c1-19(2)34-26-17-23(13-14-24(26)27(31)29-35(3,32)33)21-11-9-20(10-12-21)15-16-28-18-25(30)22-7-5-4-6-8-22/h4-14,17,19,25,28,30H,15-16,18H2,1-3H3,(H,29,31)/t25-/m0/s1

>  <IUPAC Name>  (1) 
4-[4-[2-[[(2R)-2-hydroxy-2-phenylethyl]amino]ethyl]phenyl]-N-methylsulfonyl-2-propan-2-yloxybenzamide

$$$$
