
     RDKit          3D

 50 53  0  0  0  0  0  0  0  0999 V2000
    7.3347   -1.1224    0.8993 C   0  0  0  0  0  0  0  0  0  0  0  0
    6.4997   -0.2184    0.1436 N   0  0  0  0  0  0  0  0  0  0  0  0
    5.0930   -0.4557    0.0639 C   0  0  0  0  0  0  0  0  0  0  0  0
    4.6089   -1.4703    0.6690 O   0  0  0  0  0  0  0  0  0  0  0  0
    4.2780    0.4861   -0.7140 C   0  0  1  0  0  0  0  0  0  0  0  0
    2.9661    0.0719   -0.6575 O   0  0  0  0  0  0  0  0  0  0  0  0
    2.1766    1.1508   -0.3362 C   0  0  2  0  0  0  0  0  0  0  0  0
    3.0670    2.0631    0.4823 C   0  0  1  0  0  0  0  0  0  0  0  0
    4.3600    1.9098   -0.2944 C   0  0  2  0  0  0  0  0  0  0  0  0
    4.2496    2.7016   -1.4404 O   0  0  0  0  0  0  0  0  0  0  0  0
    2.6140    3.3730    0.4921 O   0  0  0  0  0  0  0  0  0  0  0  0
    0.9838    0.7797    0.4045 N   0  0  0  0  0  0  0  0  0  0  0  0
    0.6639    1.0529    1.6740 C   0  0  0  0  0  0  0  0  0  0  0  0
   -0.5261    0.5174    1.9381 N   0  0  0  0  0  0  0  0  0  0  0  0
   -0.9658   -0.0976    0.8368 C   0  0  0  0  0  0  0  0  0  0  0  0
   -0.0149    0.0657   -0.1343 C   0  0  0  0  0  0  0  0  0  0  0  0
   -0.2221   -0.4708   -1.3618 N   0  0  0  0  0  0  0  0  0  0  0  0
   -1.3745   -1.1619   -1.6022 C   0  0  0  0  0  0  0  0  0  0  0  0
   -1.6323   -1.7423   -2.8793 N   0  0  0  0  0  0  0  0  0  0  0  0
   -2.2896   -1.3058   -0.6293 N   0  0  0  0  0  0  0  0  0  0  0  0
   -2.1579   -0.8049    0.6105 C   0  0  0  0  0  0  0  0  0  0  0  0
   -3.1123   -0.9553    1.6297 N   0  0  0  0  0  0  0  0  0  0  0  0
   -4.3600   -1.6412    1.5464 C   0  0  0  0  0  0  0  0  0  0  0  0
   -5.2919   -1.0929    0.5463 C   0  0  0  0  0  0  0  0  0  0  0  0
   -5.4096   -1.5289   -0.7471 C   0  0  0  0  0  0  0  0  0  0  0  0
   -6.3012   -0.9642   -1.6437 C   0  0  0  0  0  0  0  0  0  0  0  0
   -7.1061    0.0835   -1.2139 C   0  0  0  0  0  0  0  0  0  0  0  0
   -7.0174    0.5521    0.0843 C   0  0  0  0  0  0  0  0  0  0  0  0
   -6.1126   -0.0469    0.9337 C   0  0  0  0  0  0  0  0  0  0  0  0
   -8.0252    1.8670    0.6303 Cl  0  0  0  0  0  0  0  0  0  0  0  0
    6.8706   -2.1300    1.0460 H   0  0  0  0  0  0  0  0  0  0  0  0
    7.6236   -0.7290    1.8995 H   0  0  0  0  0  0  0  0  0  0  0  0
    8.2928   -1.2828    0.3527 H   0  0  0  0  0  0  0  0  0  0  0  0
    6.9647    0.5891   -0.3243 H   0  0  0  0  0  0  0  0  0  0  0  0
    4.6275    0.3876   -1.7808 H   0  0  0  0  0  0  0  0  0  0  0  0
    1.9158    1.7174   -1.2764 H   0  0  0  0  0  0  0  0  0  0  0  0
    3.1353    1.6210    1.4917 H   0  0  0  0  0  0  0  0  0  0  0  0
    5.2480    2.1709    0.3030 H   0  0  0  0  0  0  0  0  0  0  0  0
    4.6441    2.2337   -2.2406 H   0  0  0  0  0  0  0  0  0  0  0  0
    2.9128    3.7786    1.3378 H   0  0  0  0  0  0  0  0  0  0  0  0
    1.2562    1.6123    2.3842 H   0  0  0  0  0  0  0  0  0  0  0  0
   -2.1520   -2.6500   -2.9664 H   0  0  0  0  0  0  0  0  0  0  0  0
   -1.3111   -1.2800   -3.7609 H   0  0  0  0  0  0  0  0  0  0  0  0
   -2.8755   -0.5069    2.5662 H   0  0  0  0  0  0  0  0  0  0  0  0
   -4.1651   -2.7265    1.3271 H   0  0  0  0  0  0  0  0  0  0  0  0
   -4.9004   -1.6240    2.5257 H   0  0  0  0  0  0  0  0  0  0  0  0
   -4.8059   -2.3371   -1.0964 H   0  0  0  0  0  0  0  0  0  0  0  0
   -6.3967   -1.3076   -2.6700 H   0  0  0  0  0  0  0  0  0  0  0  0
   -7.8131    0.5399   -1.9050 H   0  0  0  0  0  0  0  0  0  0  0  0
   -6.0476    0.3283    1.9585 H   0  0  0  0  0  0  0  0  0  0  0  0
  1  2  1  0
  2  3  1  0
  3  4  2  0
  3  5  1  0
  5  6  1  0
  6  7  1  0
  7  8  1  0
  8  9  1  0
  9 10  1  0
  8 11  1  0
  7 12  1  0
 12 13  1  0
 13 14  2  0
 14 15  1  0
 15 16  2  0
 16 17  1  0
 17 18  2  0
 18 19  1  0
 18 20  1  0
 20 21  2  0
 21 22  1  0
 22 23  1  0
 23 24  1  0
 24 25  2  0
 25 26  1  0
 26 27  2  0
 27 28  1  0
 28 29  2  0
 28 30  1  0
  9  5  1  0
 16 12  1  0
 29 24  1  0
 21 15  1  0
  1 31  1  0
  1 32  1  0
  1 33  1  0
  2 34  1  0
  5 35  1  6
  7 36  1  6
  8 37  1  1
  9 38  1  1
 10 39  1  0
 11 40  1  0
 13 41  1  0
 19 42  1  0
 19 43  1  0
 22 44  1  0
 23 45  1  0
 23 46  1  0
 25 47  1  0
 26 48  1  0
 27 49  1  0
 29 50  1  0
M  END
>  <Ligand ID>  (1) 
LIG0001981

>  <Ligand>  (1) 
CHEMBL3133161

>  <SMILES>  (1) 
CNC(=O)[C@H]1O[C@H]([C@@H]([C@@H]1O)O)n1cnc2c1nc(N)nc2NCc1cccc(c1)Cl

>  <CID>  (1) 
76336527.0

>  <ChEMBL ID>  (1) 
nan

>  <InChiKey>  (1) 
COWISZMOCNTFLF-PFHKOEEOSA-N

>  <InChi>  (1) 
InChI=1S/C18H20ClN7O4/c1-21-16(29)13-11(27)12(28)17(30-13)26-7-23-10-14(24-18(20)25-15(10)26)22-6-8-3-2-4-9(19)5-8/h2-5,7,11-13,17,27-28H,6H2,1H3,(H,21,29)(H3,20,22,24,25)/t11-,12+,13-,17+/m0/s1

>  <IUPAC Name>  (1) 
(2S,3S,4R,5R)-5-[2-amino-6-[(3-chlorophenyl)methylamino]purin-9-yl]-3,4-dihydroxy-N-methyloxolane-2-carboxamide

$$$$
