
     RDKit          3D

153158  0  0  0  0  0  0  0  0999 V2000
   11.3942   -2.9412   -2.6944 C   0  0  0  0  0  0  0  0  0  0  0  0
    9.9466   -2.9890   -3.0883 C   0  0  0  0  0  0  0  0  0  0  0  0
    9.1644   -1.8592   -2.3835 C   0  0  0  0  0  0  0  0  0  0  0  0
    9.2954   -2.0864   -0.9224 C   0  0  0  0  0  0  0  0  0  0  0  0
    8.5670   -0.9832   -0.0787 C   0  0  1  0  0  0  0  0  0  0  0  0
    7.1602   -0.9860   -0.3959 C   0  0  0  0  0  0  0  0  0  0  0  0
    6.8067   -0.6198   -1.5670 O   0  0  0  0  0  0  0  0  0  0  0  0
    6.0851   -1.3658    0.4514 N   0  0  0  0  0  0  0  0  0  0  0  0
    4.6929   -1.4019   -0.0034 C   0  0  1  0  0  0  0  0  0  0  0  0
    4.1909   -2.7931    0.2125 C   0  0  0  0  0  0  0  0  0  0  0  0
    2.8593   -3.0892   -0.3341 C   0  0  0  0  0  0  0  0  0  0  0  0
    2.1571   -2.3642   -1.0485 O   0  0  0  0  0  0  0  0  0  0  0  0
    2.1910   -4.3702   -0.0607 N   0  0  0  0  0  0  0  0  0  0  0  0
    0.8873   -4.4700   -0.6786 C   0  0  0  0  0  0  0  0  0  0  0  0
    0.3005   -5.8282   -0.3084 C   0  0  0  0  0  0  0  0  0  0  0  0
   -1.0932   -5.9509   -0.9369 C   0  0  0  0  0  0  0  0  0  0  0  0
   -2.0391   -4.9536   -0.3450 C   0  0  0  0  0  0  0  0  0  0  0  0
   -3.3001   -4.9175   -1.2064 C   0  0  2  0  0  0  0  0  0  0  0  0
   -4.2346   -3.9390   -0.6280 N   0  0  0  0  0  0  0  0  0  0  0  0
   -4.0077   -2.5255   -0.7671 C   0  0  0  0  0  0  0  0  0  0  0  0
   -2.9225   -2.2495   -1.3142 O   0  0  0  0  0  0  0  0  0  0  0  0
   -4.9507   -1.4917   -0.3006 C   0  0  1  0  0  0  0  0  0  0  0  0
   -4.2104   -0.2140   -0.2462 N   0  0  0  0  0  0  0  0  0  0  0  0
   -4.4145    0.5947    0.8976 C   0  0  0  0  0  0  0  0  0  0  0  0
   -5.2159    0.1546    1.7427 O   0  0  0  0  0  0  0  0  0  0  0  0
   -3.7754    1.9026    1.1796 C   0  0  1  0  0  0  0  0  0  0  0  0
   -2.7652    2.2722    0.2601 N   0  0  0  0  0  0  0  0  0  0  0  0
   -1.3960    2.3737    0.7199 C   0  0  0  0  0  0  0  0  0  0  0  0
   -1.2568    2.1302    1.9325 O   0  0  0  0  0  0  0  0  0  0  0  0
   -0.2204    2.7150   -0.0653 C   0  0  2  0  0  0  0  0  0  0  0  0
    0.8910    2.6069    0.9144 N   0  0  0  0  0  0  0  0  0  0  0  0
    2.1782    2.0766    0.5054 C   0  0  0  0  0  0  0  0  0  0  0  0
    2.2322    1.8101   -0.7036 O   0  0  0  0  0  0  0  0  0  0  0  0
    3.2791    1.8995    1.4835 C   0  0  1  0  0  0  0  0  0  0  0  0
    4.2726    0.9067    1.0745 N   0  0  0  0  0  0  0  0  0  0  0  0
    3.8409   -0.3216    0.4821 C   0  0  0  0  0  0  0  0  0  0  0  0
    2.6094   -0.4151    0.3952 O   0  0  0  0  0  0  0  0  0  0  0  0
    5.5983    1.3424    1.3404 C   0  0  0  0  0  0  0  0  0  0  0  0
    5.3909    2.6363    2.1492 C   0  0  1  0  0  0  0  0  0  0  0  0
    4.0295    3.1551    1.7615 C   0  0  0  0  0  0  0  0  0  0  0  0
    5.4021    2.3793    3.5571 N   0  0  0  0  0  0  0  0  0  0  0  0
    5.6251    3.3427    4.3754 C   0  0  0  0  0  0  0  0  0  0  0  0
    5.8707    4.6858    3.9953 N   0  0  0  0  0  0  0  0  0  0  0  0
    5.6229    2.9937    5.7699 N   0  0  0  0  0  0  0  0  0  0  0  0
   -0.2368    4.1290   -0.5381 C   0  0  0  0  0  0  0  0  0  0  0  0
   -1.3231    4.5602   -1.3840 C   0  0  0  0  0  0  0  0  0  0  0  0
   -1.2770    4.2917   -2.7315 C   0  0  0  0  0  0  0  0  0  0  0  0
   -2.2304    4.6984   -3.6437 C   0  0  0  0  0  0  0  0  0  0  0  0
   -3.3227    5.4339   -3.2032 C   0  0  0  0  0  0  0  0  0  0  0  0
   -3.3622    5.7014   -1.8459 C   0  0  0  0  0  0  0  0  0  0  0  0
   -2.4281    5.3000   -0.9506 C   0  0  0  0  0  0  0  0  0  0  0  0
   -4.4543    6.4567   -1.3890 C   0  0  0  0  0  0  0  0  0  0  0  0
   -5.4393    6.9134   -2.2341 C   0  0  0  0  0  0  0  0  0  0  0  0
   -5.3812    6.6369   -3.5810 C   0  0  0  0  0  0  0  0  0  0  0  0
   -4.3100    5.8972   -4.0212 C   0  0  0  0  0  0  0  0  0  0  0  0
   -4.8965    2.8858    1.4199 C   0  0  0  0  0  0  0  0  0  0  0  0
   -5.8168    3.0146    0.2433 C   0  0  0  0  0  0  0  0  0  0  0  0
   -6.9757    3.9575    0.4992 C   0  0  0  0  0  0  0  0  0  0  0  0
   -6.5763    5.2988    0.8152 N   0  0  0  0  0  0  0  0  0  0  0  0
   -6.4956    5.7915    2.0020 C   0  0  0  0  0  0  0  0  0  0  0  0
   -6.7974    5.0577    3.1808 N   0  0  0  0  0  0  0  0  0  0  0  0
   -6.0761    7.1477    2.1459 N   0  0  0  0  0  0  0  0  0  0  0  0
   -6.0352   -1.3559   -1.3732 C   0  0  0  0  0  0  0  0  0  0  0  0
   -6.7076   -2.6613   -1.5145 C   0  0  0  0  0  0  0  0  0  0  0  0
   -6.4228   -3.5561   -2.5579 C   0  0  0  0  0  0  0  0  0  0  0  0
   -7.2024   -4.6394   -2.3781 N   0  0  0  0  0  0  0  0  0  0  0  0
   -7.9711   -4.4777   -1.2690 C   0  0  0  0  0  0  0  0  0  0  0  0
   -7.6685   -3.2323   -0.7143 C   0  0  0  0  0  0  0  0  0  0  0  0
   -8.3206   -2.8151    0.4243 C   0  0  0  0  0  0  0  0  0  0  0  0
   -9.2740   -3.6588    0.9955 C   0  0  0  0  0  0  0  0  0  0  0  0
   -9.5632   -4.8785    0.4454 C   0  0  0  0  0  0  0  0  0  0  0  0
   -8.9159   -5.3127   -0.7007 C   0  0  0  0  0  0  0  0  0  0  0  0
   -3.9361   -6.2203   -1.2129 C   0  0  0  0  0  0  0  0  0  0  0  0
   -5.1018   -6.3125   -0.7190 O   0  0  0  0  0  0  0  0  0  0  0  0
   -3.3897   -7.4279   -1.7193 N   0  0  0  0  0  0  0  0  0  0  0  0
    8.8458   -1.4248    1.2747 N   0  0  0  0  0  0  0  0  0  0  0  0
   10.0817   -1.2283    1.9299 C   0  0  0  0  0  0  0  0  0  0  0  0
   11.0778   -0.6334    1.3598 O   0  0  0  0  0  0  0  0  0  0  0  0
   10.3619   -1.6876    3.3330 C   0  0  0  0  0  0  0  0  0  0  0  0
   11.5993   -3.6479   -1.8721 H   0  0  0  0  0  0  0  0  0  0  0  0
   11.6527   -1.9204   -2.3340 H   0  0  0  0  0  0  0  0  0  0  0  0
   12.0209   -3.2464   -3.5539 H   0  0  0  0  0  0  0  0  0  0  0  0
    9.7356   -3.0339   -4.1512 H   0  0  0  0  0  0  0  0  0  0  0  0
    9.5170   -3.9386   -2.6553 H   0  0  0  0  0  0  0  0  0  0  0  0
    8.0953   -2.0770   -2.6830 H   0  0  0  0  0  0  0  0  0  0  0  0
    9.5202   -0.8898   -2.7527 H   0  0  0  0  0  0  0  0  0  0  0  0
   10.3461   -2.0117   -0.6151 H   0  0  0  0  0  0  0  0  0  0  0  0
    8.9020   -3.0613   -0.6463 H   0  0  0  0  0  0  0  0  0  0  0  0
    9.0860   -0.0877   -0.3832 H   0  0  0  0  0  0  0  0  0  0  0  0
    6.2371   -1.6468    1.4373 H   0  0  0  0  0  0  0  0  0  0  0  0
    4.7604   -1.2953   -1.1390 H   0  0  0  0  0  0  0  0  0  0  0  0
    4.1136   -2.9213    1.3298 H   0  0  0  0  0  0  0  0  0  0  0  0
    4.9356   -3.5583   -0.1124 H   0  0  0  0  0  0  0  0  0  0  0  0
    2.7060   -5.0013    0.5032 H   0  0  0  0  0  0  0  0  0  0  0  0
    0.9637   -4.4981   -1.7938 H   0  0  0  0  0  0  0  0  0  0  0  0
    0.2448   -3.6267   -0.3955 H   0  0  0  0  0  0  0  0  0  0  0  0
    0.8942   -6.6623   -0.6606 H   0  0  0  0  0  0  0  0  0  0  0  0
    0.1403   -5.9395    0.7856 H   0  0  0  0  0  0  0  0  0  0  0  0
   -1.4262   -6.9674   -0.6006 H   0  0  0  0  0  0  0  0  0  0  0  0
   -1.0452   -5.9640   -2.0251 H   0  0  0  0  0  0  0  0  0  0  0  0
   -2.4251   -5.3231    0.6598 H   0  0  0  0  0  0  0  0  0  0  0  0
   -1.6446   -3.9635   -0.1478 H   0  0  0  0  0  0  0  0  0  0  0  0
   -2.9466   -4.5077   -2.1861 H   0  0  0  0  0  0  0  0  0  0  0  0
   -5.0622   -4.1935   -0.1032 H   0  0  0  0  0  0  0  0  0  0  0  0
   -5.4524   -1.7398    0.6184 H   0  0  0  0  0  0  0  0  0  0  0  0
   -3.5768    0.1241   -0.9486 H   0  0  0  0  0  0  0  0  0  0  0  0
   -3.3431    1.7522    2.2252 H   0  0  0  0  0  0  0  0  0  0  0  0
   -2.8722    2.4846   -0.7340 H   0  0  0  0  0  0  0  0  0  0  0  0
    0.0301    2.0142   -0.9006 H   0  0  0  0  0  0  0  0  0  0  0  0
    0.8298    2.8794    1.8796 H   0  0  0  0  0  0  0  0  0  0  0  0
    2.8122    1.4810    2.4168 H   0  0  0  0  0  0  0  0  0  0  0  0
    6.2104    0.6636    1.9714 H   0  0  0  0  0  0  0  0  0  0  0  0
    6.1492    1.6669    0.4275 H   0  0  0  0  0  0  0  0  0  0  0  0
    6.1234    3.3807    1.8688 H   0  0  0  0  0  0  0  0  0  0  0  0
    4.0529    3.8226    0.8702 H   0  0  0  0  0  0  0  0  0  0  0  0
    3.5190    3.6751    2.5787 H   0  0  0  0  0  0  0  0  0  0  0  0
    5.1081    5.2694    3.5491 H   0  0  0  0  0  0  0  0  0  0  0  0
    6.8060    5.1654    4.1265 H   0  0  0  0  0  0  0  0  0  0  0  0
    5.5457    2.0093    6.1023 H   0  0  0  0  0  0  0  0  0  0  0  0
    5.7002    3.7350    6.4822 H   0  0  0  0  0  0  0  0  0  0  0  0
   -0.2732    4.7661    0.4020 H   0  0  0  0  0  0  0  0  0  0  0  0
    0.7171    4.4367   -1.0269 H   0  0  0  0  0  0  0  0  0  0  0  0
   -0.4480    3.7150   -3.1424 H   0  0  0  0  0  0  0  0  0  0  0  0
   -2.1407    4.4516   -4.6984 H   0  0  0  0  0  0  0  0  0  0  0  0
   -2.4943    5.5399    0.1023 H   0  0  0  0  0  0  0  0  0  0  0  0
   -4.4774    6.6647   -0.3479 H   0  0  0  0  0  0  0  0  0  0  0  0
   -6.2880    7.5074   -1.8750 H   0  0  0  0  0  0  0  0  0  0  0  0
   -6.1533    6.9890   -4.2594 H   0  0  0  0  0  0  0  0  0  0  0  0
   -4.2465    5.6685   -5.0710 H   0  0  0  0  0  0  0  0  0  0  0  0
   -5.4994    2.4511    2.2579 H   0  0  0  0  0  0  0  0  0  0  0  0
   -4.5307    3.8584    1.7902 H   0  0  0  0  0  0  0  0  0  0  0  0
   -5.2752    3.4279   -0.6443 H   0  0  0  0  0  0  0  0  0  0  0  0
   -6.1913    2.0137   -0.1059 H   0  0  0  0  0  0  0  0  0  0  0  0
   -7.7242    3.9106   -0.3219 H   0  0  0  0  0  0  0  0  0  0  0  0
   -7.4748    3.5482    1.4319 H   0  0  0  0  0  0  0  0  0  0  0  0
   -7.7671    4.9203    3.5493 H   0  0  0  0  0  0  0  0  0  0  0  0
   -6.0115    4.6167    3.7357 H   0  0  0  0  0  0  0  0  0  0  0  0
   -5.1531    7.4318    2.5344 H   0  0  0  0  0  0  0  0  0  0  0  0
   -6.7743    7.8674    1.8271 H   0  0  0  0  0  0  0  0  0  0  0  0
   -6.7363   -0.5777   -0.9956 H   0  0  0  0  0  0  0  0  0  0  0  0
   -5.5523   -1.0571   -2.3171 H   0  0  0  0  0  0  0  0  0  0  0  0
   -5.7035   -3.3954   -3.3601 H   0  0  0  0  0  0  0  0  0  0  0  0
   -7.2453   -5.5008   -2.9794 H   0  0  0  0  0  0  0  0  0  0  0  0
   -8.0859   -1.8616    0.8361 H   0  0  0  0  0  0  0  0  0  0  0  0
   -9.7778   -3.3115    1.8873 H   0  0  0  0  0  0  0  0  0  0  0  0
  -10.3204   -5.4947    0.9374 H   0  0  0  0  0  0  0  0  0  0  0  0
   -9.1381   -6.2847   -1.1540 H   0  0  0  0  0  0  0  0  0  0  0  0
   -2.9506   -7.5230   -2.6639 H   0  0  0  0  0  0  0  0  0  0  0  0
   -3.4477   -8.2590   -1.0804 H   0  0  0  0  0  0  0  0  0  0  0  0
    8.1108   -1.9373    1.8495 H   0  0  0  0  0  0  0  0  0  0  0  0
   11.0677   -0.9859    3.7757 H   0  0  0  0  0  0  0  0  0  0  0  0
    9.3976   -1.7971    3.8589 H   0  0  0  0  0  0  0  0  0  0  0  0
   10.8265   -2.7018    3.3186 H   0  0  0  0  0  0  0  0  0  0  0  0
  1  2  1  0
  2  3  1  0
  3  4  1  0
  4  5  1  0
  5  6  1  0
  6  7  2  0
  6  8  1  0
  8  9  1  0
  9 10  1  0
 10 11  1  0
 11 12  2  0
 11 13  1  0
 13 14  1  0
 14 15  1  0
 15 16  1  0
 16 17  1  0
 17 18  1  0
 18 19  1  0
 19 20  1  0
 20 21  2  0
 20 22  1  0
 22 23  1  0
 23 24  1  0
 24 25  2  0
 24 26  1  0
 26 27  1  0
 27 28  1  0
 28 29  2  0
 28 30  1  0
 30 31  1  0
 31 32  1  0
 32 33  2  0
 32 34  1  0
 34 35  1  0
 35 36  1  0
 36 37  2  0
 35 38  1  0
 38 39  1  0
 39 40  1  0
 39 41  1  0
 41 42  2  3
 42 43  1  0
 42 44  1  0
 30 45  1  0
 45 46  1  0
 46 47  2  0
 47 48  1  0
 48 49  2  0
 49 50  1  0
 50 51  2  0
 50 52  1  0
 52 53  2  0
 53 54  1  0
 54 55  2  0
 26 56  1  0
 56 57  1  0
 57 58  1  0
 58 59  1  0
 59 60  2  3
 60 61  1  0
 60 62  1  0
 22 63  1  0
 63 64  1  0
 64 65  2  0
 65 66  1  0
 66 67  1  0
 67 68  2  0
 68 69  1  0
 69 70  2  0
 70 71  1  0
 71 72  2  0
 18 73  1  0
 73 74  2  0
 73 75  1  0
  5 76  1  0
 76 77  1  0
 77 78  2  0
 77 79  1  0
 36  9  1  0
 51 46  1  0
 68 64  1  0
 40 34  1  0
 55 49  1  0
 72 67  1  0
  1 80  1  0
  1 81  1  0
  1 82  1  0
  2 83  1  0
  2 84  1  0
  3 85  1  0
  3 86  1  0
  4 87  1  0
  4 88  1  0
  5 89  1  1
  8 90  1  0
  9 91  1  6
 10 92  1  0
 10 93  1  0
 13 94  1  0
 14 95  1  0
 14 96  1  0
 15 97  1  0
 15 98  1  0
 16 99  1  0
 16100  1  0
 17101  1  0
 17102  1  0
 18103  1  6
 19104  1  0
 22105  1  1
 23106  1  0
 26107  1  1
 27108  1  0
 30109  1  6
 31110  1  0
 34111  1  1
 38112  1  0
 38113  1  0
 39114  1  1
 40115  1  0
 40116  1  0
 43117  1  0
 43118  1  0
 44119  1  0
 44120  1  0
 45121  1  0
 45122  1  0
 47123  1  0
 48124  1  0
 51125  1  0
 52126  1  0
 53127  1  0
 54128  1  0
 55129  1  0
 56130  1  0
 56131  1  0
 57132  1  0
 57133  1  0
 58134  1  0
 58135  1  0
 61136  1  0
 61137  1  0
 62138  1  0
 62139  1  0
 63140  1  0
 63141  1  0
 65142  1  0
 66143  1  0
 69144  1  0
 70145  1  0
 71146  1  0
 72147  1  0
 75148  1  0
 75149  1  0
 76150  1  0
 79151  1  0
 79152  1  0
 79153  1  0
M  END
>  <Ligand ID>  (1) 
LIG0001779

>  <Ligand>  (1) 
CHEMBL501592

>  <SMILES>  (1) 
CCCC[C@@H](C(=O)N[C@H]1CC(=O)NCCCC[C@H](NC(=O)[C@@H](NC(=O)[C@@H](NC(=O)[C@H](NC(=O)[C@H]2N(C1=O)C[C@@H](C2)N=C(N)N)Cc1ccc2c(c1)cccc2)CCCN=C(N)N)Cc1c[nH]c2c1cccc2)C(=O)N)NC(=O)C

>  <CID>  (1) 
44158337.0

>  <ChEMBL ID>  (1) 
nan

>  <InChiKey>  (1) 
REMHNXQVRVXAGT-ZYVZXDBOSA-N

>  <InChi>  (1) 
InChI=1S/C54H74N16O9/c1-3-4-15-39(63-30(2)71)47(74)69-43-27-45(72)60-21-10-9-17-38(46(55)73)65-50(77)42(25-34-28-62-37-16-8-7-14-36(34)37)67-48(75)40(18-11-22-61-53(56)57)66-49(76)41(24-31-19-20-32-12-5-6-13-33(32)23-31)68-51(78)44-26-35(64-54(58)59)29-70(44)52(43)79/h5-8,12-14,16,19-20,23,28,35,38-44,62H,3-4,9-11,15,17-18,21-22,24-27,29H2,1-2H3,(H2,55,73)(H,60,72)(H,63,71)(H,65,77)(H,66,76)(H,67,75)(H,68,78)(H,69,74)(H4,56,57,61)(H4,58,59,64)/t35-,38+,39+,40+,41-,42+,43+,44+/m1/s1

>  <IUPAC Name>  (1) 
(3S,11S,14S,17S,20R,23S,25R)-3-[[(2S)-2-acetamidohexanoyl]amino]-25-(diaminomethylideneamino)-17-[3-(diaminomethylideneamino)propyl]-14-(1H-indol-3-ylmethyl)-20-(naphthalen-2-ylmethyl)-2,5,13,16,19,22-hexaoxo-1,6,12,15,18,21-hexazabicyclo[21.3.0]hexacosane-11-carboxamide

$$$$
