
     RDKit          3D

 65 67  0  0  0  0  0  0  0  0999 V2000
    9.5737   -1.3176   -0.0489 C   0  0  0  0  0  0  0  0  0  0  0  0
    8.0844   -1.4292    0.1191 C   0  0  0  0  0  0  0  0  0  0  0  0
    7.4606   -0.9806    1.1796 C   0  0  0  0  0  0  0  0  0  0  0  0
    6.0443   -1.0084    1.4902 C   0  0  0  0  0  0  0  0  0  0  0  0
    5.0835   -1.5538    0.5214 C   0  0  0  0  0  0  0  0  0  0  0  0
    4.9190   -0.8734   -0.7805 C   0  0  0  0  0  0  0  0  0  0  0  0
    4.4706    0.5628   -0.6713 C   0  0  0  0  0  0  0  0  0  0  0  0
    3.1392    0.6189    0.0196 C   0  0  1  0  0  0  0  0  0  0  0  0
    2.7318    2.0875    0.1117 C   0  0  0  0  0  0  0  0  0  0  0  0
    1.5214    2.1741    1.0531 C   0  0  0  0  0  0  0  0  0  0  0  0
    0.4653    1.3659    0.3442 C   0  0  0  0  0  0  0  0  0  0  0  0
    0.7752    0.3104   -0.4740 C   0  0  0  0  0  0  0  0  0  0  0  0
    2.1366   -0.1779   -0.7679 C   0  0  0  0  0  0  0  0  0  0  0  0
   -0.2757   -0.3770   -1.0905 C   0  0  0  0  0  0  0  0  0  0  0  0
   -1.5806    0.0136   -0.8668 C   0  0  0  0  0  0  0  0  0  0  0  0
   -1.9062    1.0785   -0.0421 C   0  0  0  0  0  0  0  0  0  0  0  0
   -0.8590    1.7400    0.5534 C   0  0  0  0  0  0  0  0  0  0  0  0
   -3.3275    1.4753    0.1787 C   0  0  1  0  0  0  0  0  0  0  0  0
   -4.0639    1.6580   -1.1103 C   0  0  0  0  0  0  0  0  0  0  0  0
   -5.3624    0.9239   -1.0389 C   0  0  0  0  0  0  0  0  0  0  0  0
   -5.1693   -0.1079    0.0331 C   0  0  2  0  0  0  0  0  0  0  0  0
   -4.0267    0.3278    0.8918 C   0  0  0  0  0  0  0  0  0  0  0  0
   -4.8997   -1.3942   -0.5742 N   0  0  0  0  0  0  0  0  0  0  0  0
   -6.4815   -0.1567    0.8177 C   0  0  0  0  0  0  0  0  0  0  0  0
   -7.5114   -0.4819   -0.0619 O   0  0  0  0  0  0  0  0  0  0  0  0
   -8.9833   -0.5511    0.7439 P   0  0  0  0  0  0  0  0  0  0  0  0
   -9.3761    0.7992    1.3220 O   0  0  0  0  0  0  0  0  0  0  0  0
   -8.9674   -1.7134    1.9622 O   0  0  0  0  0  0  0  0  0  0  0  0
  -10.1819   -0.9929   -0.3796 O   0  0  0  0  0  0  0  0  0  0  0  0
    9.8379   -1.3023   -1.1140 H   0  0  0  0  0  0  0  0  0  0  0  0
    9.9946   -2.2613    0.3859 H   0  0  0  0  0  0  0  0  0  0  0  0
    9.9839   -0.4803    0.5504 H   0  0  0  0  0  0  0  0  0  0  0  0
    7.5547   -1.9183   -0.6754 H   0  0  0  0  0  0  0  0  0  0  0  0
    8.1240   -0.5122    1.9463 H   0  0  0  0  0  0  0  0  0  0  0  0
    5.7047   -0.0015    1.8518 H   0  0  0  0  0  0  0  0  0  0  0  0
    5.9383   -1.6481    2.4287 H   0  0  0  0  0  0  0  0  0  0  0  0
    4.0787   -1.5727    1.0264 H   0  0  0  0  0  0  0  0  0  0  0  0
    5.2846   -2.6346    0.3183 H   0  0  0  0  0  0  0  0  0  0  0  0
    5.7203   -0.9026   -1.5039 H   0  0  0  0  0  0  0  0  0  0  0  0
    4.0530   -1.4016   -1.2979 H   0  0  0  0  0  0  0  0  0  0  0  0
    4.3560    0.9480   -1.7082 H   0  0  0  0  0  0  0  0  0  0  0  0
    5.2289    1.2145   -0.2003 H   0  0  0  0  0  0  0  0  0  0  0  0
    3.2387    0.2662    1.0539 H   0  0  0  0  0  0  0  0  0  0  0  0
    3.5957    2.6445    0.4725 H   0  0  0  0  0  0  0  0  0  0  0  0
    2.3856    2.3620   -0.9032 H   0  0  0  0  0  0  0  0  0  0  0  0
    1.2494    3.2414    1.1065 H   0  0  0  0  0  0  0  0  0  0  0  0
    1.8088    1.7183    2.0154 H   0  0  0  0  0  0  0  0  0  0  0  0
    2.2344   -1.2556   -0.4415 H   0  0  0  0  0  0  0  0  0  0  0  0
    2.3525   -0.1325   -1.8729 H   0  0  0  0  0  0  0  0  0  0  0  0
   -0.0705   -1.2153   -1.7431 H   0  0  0  0  0  0  0  0  0  0  0  0
   -2.3494   -0.5571   -1.3717 H   0  0  0  0  0  0  0  0  0  0  0  0
   -1.0725    2.5789    1.2060 H   0  0  0  0  0  0  0  0  0  0  0  0
   -3.3882    2.3496    0.8691 H   0  0  0  0  0  0  0  0  0  0  0  0
   -3.4439    1.4316   -1.9984 H   0  0  0  0  0  0  0  0  0  0  0  0
   -4.3293    2.7516   -1.1754 H   0  0  0  0  0  0  0  0  0  0  0  0
   -5.6260    0.3996   -1.9786 H   0  0  0  0  0  0  0  0  0  0  0  0
   -6.2398    1.6042   -0.8327 H   0  0  0  0  0  0  0  0  0  0  0  0
   -3.3408   -0.5461    1.0312 H   0  0  0  0  0  0  0  0  0  0  0  0
   -4.3396    0.5954    1.9288 H   0  0  0  0  0  0  0  0  0  0  0  0
   -5.2956   -1.4091   -1.5542 H   0  0  0  0  0  0  0  0  0  0  0  0
   -5.4117   -2.1095   -0.0162 H   0  0  0  0  0  0  0  0  0  0  0  0
   -6.3463   -0.8923    1.6302 H   0  0  0  0  0  0  0  0  0  0  0  0
   -6.7322    0.8203    1.2434 H   0  0  0  0  0  0  0  0  0  0  0  0
   -8.1961   -2.3137    1.9370 H   0  0  0  0  0  0  0  0  0  0  0  0
   -9.9762   -1.8797   -0.7722 H   0  0  0  0  0  0  0  0  0  0  0  0
  1  2  1  0
  2  3  2  0
  3  4  1  0
  4  5  1  0
  5  6  1  0
  6  7  1  0
  7  8  1  0
  8  9  1  0
  9 10  1  0
 10 11  1  0
 11 12  2  0
 12 13  1  0
 12 14  1  0
 14 15  2  0
 15 16  1  0
 16 17  2  0
 16 18  1  0
 18 19  1  0
 19 20  1  0
 20 21  1  0
 21 22  1  0
 21 23  1  6
 21 24  1  0
 24 25  1  0
 25 26  1  0
 26 27  2  0
 26 28  1  0
 26 29  1  0
 13  8  1  0
 22 18  1  0
 17 11  1  0
  1 30  1  0
  1 31  1  0
  1 32  1  0
  2 33  1  0
  3 34  1  0
  4 35  1  0
  4 36  1  0
  5 37  1  0
  5 38  1  0
  6 39  1  0
  6 40  1  0
  7 41  1  0
  7 42  1  0
  8 43  1  1
  9 44  1  0
  9 45  1  0
 10 46  1  0
 10 47  1  0
 13 48  1  0
 13 49  1  0
 14 50  1  0
 15 51  1  0
 17 52  1  0
 18 53  1  1
 19 54  1  0
 19 55  1  0
 20 56  1  0
 20 57  1  0
 22 58  1  0
 22 59  1  0
 23 60  1  0
 23 61  1  0
 24 62  1  0
 24 63  1  0
 28 64  1  0
 29 65  1  0
M  END
>  <Ligand ID>  (1) 
LIG0005587

>  <Ligand>  (1) 
BDBM65351

>  <SMILES>  (1) 
C/C=C/CCCC[C@H]1CCc2c(C1)ccc(c2)[C@H]1CC[C@](C1)(N)COP(=O)(O)O

>  <CID>  (1) 
131953782.0

>  <ChEMBL ID>  (1) 
nan

>  <InChiKey>  (1) 
FKTSGAYZGSDVPR-HVIHUHGJSA-N

>  <InChi>  (1) 
InChI=1S/C23H36NO4P/c1-2-3-4-5-6-7-18-8-9-20-15-21(11-10-19(20)14-18)22-12-13-23(24,16-22)17-28-29(25,26)27/h2-3,10-11,15,18,22H,4-9,12-14,16-17,24H2,1H3,(H2,25,26,27)/b3-2+/t18-,22-,23+/m0/s1

>  <IUPAC Name>  (1) 
[(1R,3S)-1-amino-3-[(6S)-6-[(E)-hept-5-enyl]-5,6,7,8-tetrahydronaphthalen-2-yl]cyclopentyl]methyl dihydrogen phosphate

$$$$
