
     RDKit          3D

 51 55  0  0  0  0  0  0  0  0999 V2000
    0.0921    0.7197    0.0442 O   0  0  0  0  0  0  0  0  0  0  0  0
   -0.5001   -0.3891   -0.1207 C   0  0  0  0  0  0  0  0  0  0  0  0
   -1.9224   -0.3225   -0.4353 C   0  0  0  0  0  0  0  0  0  0  0  0
   -2.7517    0.3116    0.4818 C   0  0  0  0  0  0  0  0  0  0  0  0
   -4.1071    0.4136    0.2535 C   0  0  0  0  0  0  0  0  0  0  0  0
   -4.6168   -0.1114   -0.8738 N   0  0  0  0  0  0  0  0  0  0  0  0
   -3.8363   -0.7342   -1.7852 C   0  0  0  0  0  0  0  0  0  0  0  0
   -2.4620   -0.8564   -1.5883 C   0  0  0  0  0  0  0  0  0  0  0  0
   -1.6409   -1.4864   -2.5006 C   0  0  0  0  0  0  0  0  0  0  0  0
   -2.2407   -1.9996   -3.6340 C   0  0  0  0  0  0  0  0  0  0  0  0
   -3.6000   -1.8982   -3.8647 C   0  0  0  0  0  0  0  0  0  0  0  0
   -4.4013   -1.2634   -2.9375 C   0  0  0  0  0  0  0  0  0  0  0  0
   -5.0326    1.0637    1.1703 C   0  0  0  0  0  0  0  0  0  0  0  0
   -6.3602    1.1087    0.8458 C   0  0  0  0  0  0  0  0  0  0  0  0
   -7.2541    1.7226    1.7042 C   0  0  0  0  0  0  0  0  0  0  0  0
   -6.8627    2.2879    2.8673 N   0  0  0  0  0  0  0  0  0  0  0  0
   -5.5431    2.2486    3.1998 C   0  0  0  0  0  0  0  0  0  0  0  0
   -4.6466    1.6442    2.3599 C   0  0  0  0  0  0  0  0  0  0  0  0
    0.2375   -1.5716    0.0083 N   0  0  0  0  0  0  0  0  0  0  0  0
    1.6295   -1.4629    0.3213 C   0  0  0  0  0  0  0  0  0  0  0  0
    1.9332   -1.4536    1.6829 C   0  0  0  0  0  0  0  0  0  0  0  0
    3.2632   -1.3506    2.0323 C   0  0  0  0  0  0  0  0  0  0  0  0
    4.2791   -1.2585    1.1015 C   0  0  0  0  0  0  0  0  0  0  0  0
    3.9204   -1.2727   -0.2225 C   0  0  0  0  0  0  0  0  0  0  0  0
    2.6071   -1.3736   -0.6457 C   0  0  0  0  0  0  0  0  0  0  0  0
    5.9141   -1.1332    1.6693 S   0  0  0  0  0  0  0  0  0  0  0  0
    6.0890   -1.9447    2.9159 O   0  0  0  0  0  0  0  0  0  0  0  0
    6.8178   -1.7011    0.6096 O   0  0  0  0  0  0  0  0  0  0  0  0
    6.3376    0.5079    1.8784 N   0  0  0  0  0  0  0  0  0  0  0  0
    6.3190    1.3554    0.7483 C   0  0  0  0  0  0  0  0  0  0  0  0
    6.1030    1.3716   -0.3981 N   0  0  0  0  0  0  0  0  0  0  0  0
    6.1632    2.3511   -1.2759 C   0  0  0  0  0  0  0  0  0  0  0  0
    6.5526    3.5647   -0.7205 C   0  0  0  0  0  0  0  0  0  0  0  0
    6.8100    3.1890    1.0794 S   0  0  0  0  0  0  0  0  0  0  0  0
   -2.3230    0.7250    1.3778 H   0  0  0  0  0  0  0  0  0  0  0  0
   -0.5833   -1.5629   -2.3168 H   0  0  0  0  0  0  0  0  0  0  0  0
   -1.6538   -2.5071   -4.3916 H   0  0  0  0  0  0  0  0  0  0  0  0
   -4.0813   -2.2991   -4.7533 H   0  0  0  0  0  0  0  0  0  0  0  0
   -5.4697   -1.1440   -3.0453 H   0  0  0  0  0  0  0  0  0  0  0  0
   -6.7305    0.6763   -0.0652 H   0  0  0  0  0  0  0  0  0  0  0  0
   -8.3240    1.7860    1.4926 H   0  0  0  0  0  0  0  0  0  0  0  0
   -5.1987    2.6923    4.1242 H   0  0  0  0  0  0  0  0  0  0  0  0
   -3.6126    1.6327    2.6560 H   0  0  0  0  0  0  0  0  0  0  0  0
   -0.2439   -2.4871   -0.1261 H   0  0  0  0  0  0  0  0  0  0  0  0
    1.1443   -1.5254    2.4343 H   0  0  0  0  0  0  0  0  0  0  0  0
    3.4965   -1.3433    3.0824 H   0  0  0  0  0  0  0  0  0  0  0  0
    4.7195   -1.2002   -0.9770 H   0  0  0  0  0  0  0  0  0  0  0  0
    2.3255   -1.3845   -1.6835 H   0  0  0  0  0  0  0  0  0  0  0  0
    6.5961    0.8231    2.8430 H   0  0  0  0  0  0  0  0  0  0  0  0
    5.9413    2.2659   -2.3294 H   0  0  0  0  0  0  0  0  0  0  0  0
    6.7079    4.5756   -1.1400 H   0  0  0  0  0  0  0  0  0  0  0  0
  1  2  2  0
  2  3  1  0
  3  4  2  0
  4  5  1  0
  5  6  2  0
  6  7  1  0
  7  8  2  0
  8  9  1  0
  9 10  2  0
 10 11  1  0
 11 12  2  0
  5 13  1  0
 13 14  2  0
 14 15  1  0
 15 16  2  0
 16 17  1  0
 17 18  2  0
  2 19  1  0
 19 20  1  0
 20 21  2  0
 21 22  1  0
 22 23  2  0
 23 24  1  0
 24 25  2  0
 23 26  1  0
 26 27  2  0
 26 28  2  0
 26 29  1  0
 29 30  1  0
 30 31  2  0
 31 32  1  0
 32 33  2  0
 33 34  1  0
  8  3  1  0
 18 13  1  0
 25 20  1  0
 34 30  1  0
 12  7  1  0
  4 35  1  0
  9 36  1  0
 10 37  1  0
 11 38  1  0
 12 39  1  0
 14 40  1  0
 15 41  1  0
 17 42  1  0
 18 43  1  0
 19 44  1  0
 21 45  1  0
 22 46  1  0
 24 47  1  0
 25 48  1  0
 29 49  1  0
 32 50  1  0
 33 51  1  0
M  END
>  <Ligand ID>  (1) 
LIG0002736

>  <Ligand>  (1) 
MLS000759793

>  <SMILES>  (1) 
O=C(c1cc(nc2c1cccc2)c1ccncc1)Nc1ccc(cc1)S(=O)(=O)Nc1nccs1

>  <CID>  (1) 
2385808.0

>  <ChEMBL ID>  (1) 
nan

>  <InChiKey>  (1) 
VBLSKDCBYBLTKM-UHFFFAOYSA-N

>  <InChi>  (1) 
InChI=1S/C24H17N5O3S2/c30-23(27-17-5-7-18(8-6-17)34(31,32)29-24-26-13-14-33-24)20-15-22(16-9-11-25-12-10-16)28-21-4-2-1-3-19(20)21/h1-15H,(H,26,29)(H,27,30)

>  <IUPAC Name>  (1) 
2-pyridin-4-yl-N-[4-(1,3-thiazol-2-ylsulfamoyl)phenyl]quinoline-4-carboxamide

$$$$
