
     RDKit          3D

 66 68  0  0  0  0  0  0  0  0999 V2000
    5.9680   -3.3645   -0.5192 C   0  0  0  0  0  0  0  0  0  0  0  0
    6.0126   -1.8432   -0.6074 C   0  0  0  0  0  0  0  0  0  0  0  0
    5.5315   -1.3208    0.7572 C   0  0  0  0  0  0  0  0  0  0  0  0
    5.5459    0.1946    0.7538 C   0  0  0  0  0  0  0  0  0  0  0  0
    4.6816    0.8332   -0.2514 C   0  0  0  0  0  0  0  0  0  0  0  0
    3.2279    0.6571   -0.2205 C   0  0  0  0  0  0  0  0  0  0  0  0
    2.4327    1.1768    0.9068 C   0  0  0  0  0  0  0  0  0  0  0  0
    0.9893    0.8160    0.5985 C   0  0  0  0  0  0  0  0  0  0  0  0
    0.4863   -0.3889    1.0418 C   0  0  0  0  0  0  0  0  0  0  0  0
   -0.8421   -0.7374    0.7660 C   0  0  0  0  0  0  0  0  0  0  0  0
   -1.2435   -1.9717    1.2601 O   0  0  0  0  0  0  0  0  0  0  0  0
   -1.6694    0.1035    0.0540 C   0  0  0  0  0  0  0  0  0  0  0  0
   -1.1448    1.3039   -0.3791 C   0  0  0  0  0  0  0  0  0  0  0  0
    0.1791    1.6718   -0.1149 C   0  0  0  0  0  0  0  0  0  0  0  0
   -1.9940    2.1380   -1.0933 O   0  0  0  0  0  0  0  0  0  0  0  0
   -3.3849    2.0885   -0.7939 C   0  0  0  0  0  0  0  0  0  0  0  0
   -3.8205    0.6969   -1.0592 C   0  0  1  0  0  0  0  0  0  0  0  0
   -3.0495   -0.2833   -0.2259 C   0  0  1  0  0  0  0  0  0  0  0  0
   -3.1891   -1.6122   -0.9593 C   0  0  0  0  0  0  0  0  0  0  0  0
   -4.6464   -1.9673   -0.7870 C   0  0  0  0  0  0  0  0  0  0  0  0
   -5.5763   -1.0222   -0.7480 C   0  0  0  0  0  0  0  0  0  0  0  0
   -5.2916    0.4282   -0.8653 C   0  0  0  0  0  0  0  0  0  0  0  0
   -4.9468   -3.4212   -0.6679 C   0  0  0  0  0  0  0  0  0  0  0  0
   -6.2863   -3.6784   -0.5137 O   0  0  0  0  0  0  0  0  0  0  0  0
   -3.5545    2.5235    0.6334 C   0  0  0  0  0  0  0  0  0  0  0  0
   -4.1555    3.0748   -1.6434 C   0  0  0  0  0  0  0  0  0  0  0  0
    2.8336    0.6645    2.2347 C   0  0  0  0  0  0  0  0  0  0  0  0
    2.4180    2.6955    0.9812 C   0  0  0  0  0  0  0  0  0  0  0  0
    5.2579   -3.6787    0.2777 H   0  0  0  0  0  0  0  0  0  0  0  0
    6.9709   -3.7415   -0.2203 H   0  0  0  0  0  0  0  0  0  0  0  0
    5.6212   -3.8089   -1.4710 H   0  0  0  0  0  0  0  0  0  0  0  0
    7.0039   -1.4534   -0.8588 H   0  0  0  0  0  0  0  0  0  0  0  0
    5.2410   -1.5745   -1.3692 H   0  0  0  0  0  0  0  0  0  0  0  0
    4.5815   -1.7831    1.0037 H   0  0  0  0  0  0  0  0  0  0  0  0
    6.2779   -1.6373    1.5158 H   0  0  0  0  0  0  0  0  0  0  0  0
    6.6139    0.4412    0.4383 H   0  0  0  0  0  0  0  0  0  0  0  0
    5.4900    0.5333    1.7834 H   0  0  0  0  0  0  0  0  0  0  0  0
    5.0353    0.4568   -1.2634 H   0  0  0  0  0  0  0  0  0  0  0  0
    4.9593    1.9163   -0.2825 H   0  0  0  0  0  0  0  0  0  0  0  0
    2.9723   -0.4448   -0.3468 H   0  0  0  0  0  0  0  0  0  0  0  0
    2.8377    1.0775   -1.2065 H   0  0  0  0  0  0  0  0  0  0  0  0
    1.1435   -1.0458    1.6016 H   0  0  0  0  0  0  0  0  0  0  0  0
   -1.6686   -2.0394    2.1658 H   0  0  0  0  0  0  0  0  0  0  0  0
    0.5397    2.6231   -0.4773 H   0  0  0  0  0  0  0  0  0  0  0  0
   -3.5637    0.4689   -2.1328 H   0  0  0  0  0  0  0  0  0  0  0  0
   -3.5507   -0.4636    0.7678 H   0  0  0  0  0  0  0  0  0  0  0  0
   -2.5199   -2.3921   -0.6202 H   0  0  0  0  0  0  0  0  0  0  0  0
   -3.0727   -1.3779   -2.0553 H   0  0  0  0  0  0  0  0  0  0  0  0
   -6.6138   -1.3121   -0.6230 H   0  0  0  0  0  0  0  0  0  0  0  0
   -5.7491    1.0239   -0.0500 H   0  0  0  0  0  0  0  0  0  0  0  0
   -5.8024    0.7536   -1.8120 H   0  0  0  0  0  0  0  0  0  0  0  0
   -4.5111   -3.9856   -1.5143 H   0  0  0  0  0  0  0  0  0  0  0  0
   -4.4206   -3.7628    0.2605 H   0  0  0  0  0  0  0  0  0  0  0  0
   -6.6168   -3.2617    0.3129 H   0  0  0  0  0  0  0  0  0  0  0  0
   -4.5558    2.9600    0.8331 H   0  0  0  0  0  0  0  0  0  0  0  0
   -2.8159    3.3349    0.8064 H   0  0  0  0  0  0  0  0  0  0  0  0
   -3.3057    1.7316    1.3618 H   0  0  0  0  0  0  0  0  0  0  0  0
   -5.1752    3.1503   -1.1633 H   0  0  0  0  0  0  0  0  0  0  0  0
   -3.7107    4.0767   -1.5253 H   0  0  0  0  0  0  0  0  0  0  0  0
   -4.2722    2.7765   -2.6888 H   0  0  0  0  0  0  0  0  0  0  0  0
    3.3127   -0.3218    2.2764 H   0  0  0  0  0  0  0  0  0  0  0  0
    3.5287    1.3811    2.7667 H   0  0  0  0  0  0  0  0  0  0  0  0
    1.9159    0.6715    2.9186 H   0  0  0  0  0  0  0  0  0  0  0  0
    3.2068    3.0940    1.6493 H   0  0  0  0  0  0  0  0  0  0  0  0
    2.4404    3.1703   -0.0189 H   0  0  0  0  0  0  0  0  0  0  0  0
    1.4633    2.9877    1.4583 H   0  0  0  0  0  0  0  0  0  0  0  0
  1  2  1  0
  2  3  1  0
  3  4  1  0
  4  5  1  0
  5  6  1  0
  6  7  1  0
  7  8  1  0
  8  9  2  0
  9 10  1  0
 10 11  1  0
 10 12  2  0
 12 13  1  0
 13 14  2  0
 13 15  1  0
 15 16  1  0
 16 17  1  0
 17 18  1  0
 18 19  1  0
 19 20  1  0
 20 21  2  0
 21 22  1  0
 20 23  1  0
 23 24  1  0
 16 25  1  0
 16 26  1  0
  7 27  1  0
  7 28  1  0
 14  8  1  0
 22 17  1  0
 18 12  1  0
  1 29  1  0
  1 30  1  0
  1 31  1  0
  2 32  1  0
  2 33  1  0
  3 34  1  0
  3 35  1  0
  4 36  1  0
  4 37  1  0
  5 38  1  0
  5 39  1  0
  6 40  1  0
  6 41  1  0
  9 42  1  0
 11 43  1  0
 14 44  1  0
 17 45  1  6
 18 46  1  1
 19 47  1  0
 19 48  1  0
 21 49  1  0
 22 50  1  0
 22 51  1  0
 23 52  1  0
 23 53  1  0
 24 54  1  0
 25 55  1  0
 25 56  1  0
 25 57  1  0
 26 58  1  0
 26 59  1  0
 26 60  1  0
 27 61  1  0
 27 62  1  0
 27 63  1  0
 28 64  1  0
 28 65  1  0
 28 66  1  0
M  END
>  <Ligand ID>  (1) 
LIG0001875

>  <Ligand>  (1) 
HU-210

>  <SMILES>  (1) 
CCCCCCC(c1cc(O)c2c(c1)OC([C@H]1[C@H]2CC(=CC1)CO)(C)C)(C)C

>  <CID>  (1) 
9821569.0

>  <ChEMBL ID>  (1) 
nan

>  <InChiKey>  (1) 
SSQJFGMEZBFMNV-WOJBJXKFSA-N

>  <InChi>  (1) 
InChI=1S/C25H38O3/c1-6-7-8-9-12-24(2,3)18-14-21(27)23-19-13-17(16-26)10-11-20(19)25(4,5)28-22(23)15-18/h10,14-15,19-20,26-27H,6-9,11-13,16H2,1-5H3/t19-,20-/m1/s1

>  <IUPAC Name>  (1) 
(6aR,10aR)-9-(hydroxymethyl)-6,6-dimethyl-3-(2-methyloctan-2-yl)-6a,7,10,10a-tetrahydrobenzo[c]chromen-1-ol

$$$$
