
     RDKit          3D

221227  0  0  0  0  0  0  0  0999 V2000
    7.0990   -2.0721   -4.1128 C   0  0  0  0  0  0  0  0  0  0  0  0
    6.3180   -1.1733   -3.1658 C   0  0  0  0  0  0  0  0  0  0  0  0
    5.5843   -2.0566   -2.2056 C   0  0  0  0  0  0  0  0  0  0  0  0
    4.8191   -1.3567   -1.1583 C   0  0  0  0  0  0  0  0  0  0  0  0
    5.4705   -0.3167   -0.3279 C   0  0  1  0  0  0  0  0  0  0  0  0
    4.5271    0.2227    0.6335 C   0  0  0  0  0  0  0  0  0  0  0  0
    4.6855    0.4027    1.8585 O   0  0  0  0  0  0  0  0  0  0  0  0
    3.2150    0.6299    0.1397 N   0  0  0  0  0  0  0  0  0  0  0  0
    2.3685    1.1564    1.2240 C   0  0  2  0  0  0  0  0  0  0  0  0
    0.9826    1.1622    0.6979 C   0  0  0  0  0  0  0  0  0  0  0  0
    0.3442   -0.4129    0.1834 S   0  0  0  0  0  0  0  0  0  0  0  0
   -0.0909   -1.7627    1.7740 S   0  0  0  0  0  0  0  0  0  0  0  0
   -1.7725   -1.3698    2.3050 C   0  0  0  0  0  0  0  0  0  0  0  0
   -2.8032   -1.5793    1.1740 C   0  0  2  0  0  0  0  0  0  0  0  0
   -4.0070   -0.7964    1.6205 N   0  0  0  0  0  0  0  0  0  0  0  0
   -4.0410    0.6253    1.2116 C   0  0  0  0  0  0  0  0  0  0  0  0
   -3.1455    0.9290    0.4851 O   0  0  0  0  0  0  0  0  0  0  0  0
   -5.1919    1.3563    1.8004 C   0  0  1  0  0  0  0  0  0  0  0  0
   -5.2445    2.7594    1.6110 N   0  0  0  0  0  0  0  0  0  0  0  0
   -4.4918    3.6249    0.8153 C   0  0  0  0  0  0  0  0  0  0  0  0
   -3.7288    3.1889   -0.0216 O   0  0  0  0  0  0  0  0  0  0  0  0
   -4.5836    5.1407    0.9325 C   0  0  1  0  0  0  0  0  0  0  0  0
   -3.8507    5.8273   -0.0737 N   0  0  0  0  0  0  0  0  0  0  0  0
   -2.4138    5.7392   -0.2371 C   0  0  0  0  0  0  0  0  0  0  0  0
   -1.8679    4.9238    0.5001 O   0  0  0  0  0  0  0  0  0  0  0  0
   -1.7767    6.5936   -1.2436 C   0  0  2  0  0  0  0  0  0  0  0  0
   -0.4250    6.1331   -1.5711 N   0  0  0  0  0  0  0  0  0  0  0  0
    0.1049    6.4256   -2.9438 C   0  0  0  0  0  0  0  0  0  0  0  0
   -0.6977    7.0117   -3.6255 O   0  0  0  0  0  0  0  0  0  0  0  0
    1.4976    5.9659   -3.2193 C   0  0  1  0  0  0  0  0  0  0  0  0
    1.9250    5.1309   -2.1054 N   0  0  0  0  0  0  0  0  0  0  0  0
    2.6999    5.6352   -1.0239 C   0  0  0  0  0  0  0  0  0  0  0  0
    3.0352    6.8283   -1.1672 O   0  0  0  0  0  0  0  0  0  0  0  0
    3.0842    4.8763    0.1834 C   0  0  0  0  0  0  0  0  0  0  0  0
    2.7068    3.4881    0.1938 N   0  0  0  0  0  0  0  0  0  0  0  0
    2.7588    2.6436    1.3410 C   0  0  0  0  0  0  0  0  0  0  0  0
    3.1129    3.1574    2.3965 O   0  0  0  0  0  0  0  0  0  0  0  0
    1.6304    5.3923   -4.5677 C   0  0  0  0  0  0  0  0  0  0  0  0
    1.2628    6.4471   -5.5842 C   0  0  0  0  0  0  0  0  0  0  0  0
    2.1606    7.3633   -6.0069 C   0  0  0  0  0  0  0  0  0  0  0  0
    1.4252    8.1773   -6.8888 N   0  0  0  0  0  0  0  0  0  0  0  0
    0.1527    7.6956   -6.9237 C   0  0  0  0  0  0  0  0  0  0  0  0
    0.0399    6.6119   -6.1112 N   0  0  0  0  0  0  0  0  0  0  0  0
   -1.6557    8.0381   -0.7522 C   0  0  0  0  0  0  0  0  0  0  0  0
   -0.8118    8.2968    0.3829 C   0  0  0  0  0  0  0  0  0  0  0  0
   -1.0587    8.2505    1.7206 C   0  0  0  0  0  0  0  0  0  0  0  0
   -0.1895    8.5823    2.7130 C   0  0  0  0  0  0  0  0  0  0  0  0
    1.1328    9.0334    2.4370 C   0  0  0  0  0  0  0  0  0  0  0  0
    1.3858    9.0756    1.0585 C   0  0  0  0  0  0  0  0  0  0  0  0
    0.5237    8.7470    0.0840 C   0  0  0  0  0  0  0  0  0  0  0  0
   -5.9747    5.5281    1.1560 C   0  0  0  0  0  0  0  0  0  0  0  0
   -6.2042    7.0147    1.2224 C   0  0  0  0  0  0  0  0  0  0  0  0
   -5.4524    7.7570    2.2649 C   0  0  0  0  0  0  0  0  0  0  0  0
   -5.7715    7.3533    3.5847 N   0  0  0  0  0  0  0  0  0  0  0  0
   -4.9986    6.8678    4.4864 C   0  0  0  0  0  0  0  0  0  0  0  0
   -3.6104    6.6283    4.3448 N   0  0  0  0  0  0  0  0  0  0  0  0
   -5.6109    6.5793    5.7509 N   0  0  0  0  0  0  0  0  0  0  0  0
   -6.4716    0.6066    1.6638 C   0  0  0  0  0  0  0  0  0  0  0  0
   -6.8306    0.3444    0.2502 C   0  0  0  0  0  0  0  0  0  0  0  0
   -6.5929   -0.8061   -0.5083 C   0  0  0  0  0  0  0  0  0  0  0  0
   -7.0517   -0.5870   -1.7821 N   0  0  0  0  0  0  0  0  0  0  0  0
   -7.5690    0.6484   -1.8712 C   0  0  0  0  0  0  0  0  0  0  0  0
   -7.4381    1.2298   -0.6198 C   0  0  0  0  0  0  0  0  0  0  0  0
   -7.8917    2.5163   -0.3677 C   0  0  0  0  0  0  0  0  0  0  0  0
   -8.4891    3.2772   -1.3462 C   0  0  0  0  0  0  0  0  0  0  0  0
   -8.6019    2.6656   -2.6022 C   0  0  0  0  0  0  0  0  0  0  0  0
   -8.1661    1.4027   -2.8833 C   0  0  0  0  0  0  0  0  0  0  0  0
   -3.2260   -2.9806    1.1882 C   0  0  0  0  0  0  0  0  0  0  0  0
   -4.4843   -3.1387    1.4536 O   0  0  0  0  0  0  0  0  0  0  0  0
   -2.4124   -4.1011    0.9468 N   0  0  0  0  0  0  0  0  0  0  0  0
   -2.8627   -5.4567    0.9827 C   0  0  2  0  0  0  0  0  0  0  0  0
   -3.9375   -5.8592    0.0884 C   0  0  0  0  0  0  0  0  0  0  0  0
   -4.2991   -7.0902    0.1716 O   0  0  0  0  0  0  0  0  0  0  0  0
   -4.6367   -5.0905   -0.8590 N   0  0  0  0  0  0  0  0  0  0  0  0
   -5.6863   -5.7569   -1.6505 C   0  0  2  0  0  0  0  0  0  0  0  0
   -6.7783   -6.2922   -0.8358 C   0  0  0  0  0  0  0  0  0  0  0  0
   -7.6856   -6.9662   -1.4133 O   0  0  0  0  0  0  0  0  0  0  0  0
   -6.9362   -6.1279    0.5710 N   0  0  0  0  0  0  0  0  0  0  0  0
   -8.0905   -6.7060    1.2362 C   0  0  0  0  0  0  0  0  0  0  0  0
   -8.1911   -8.1501    1.0252 C   0  0  0  0  0  0  0  0  0  0  0  0
   -9.2094   -8.7305    1.5362 O   0  0  0  0  0  0  0  0  0  0  0  0
   -7.2935   -8.9785    0.3280 N   0  0  0  0  0  0  0  0  0  0  0  0
   -5.1052   -6.7567   -2.5947 C   0  0  0  0  0  0  0  0  0  0  0  0
   -6.0697   -7.4974   -3.4173 C   0  0  0  0  0  0  0  0  0  0  0  0
   -6.5782   -7.0079   -4.6099 C   0  0  0  0  0  0  0  0  0  0  0  0
   -7.4713   -7.7638   -5.3672 C   0  0  0  0  0  0  0  0  0  0  0  0
   -7.8922   -9.0049   -4.9904 C   0  0  0  0  0  0  0  0  0  0  0  0
   -7.3633   -9.4903   -3.7768 C   0  0  0  0  0  0  0  0  0  0  0  0
   -6.4864   -8.7449   -3.0317 C   0  0  0  0  0  0  0  0  0  0  0  0
   -2.9273   -6.0666    2.3726 C   0  0  0  0  0  0  0  0  0  0  0  0
   -3.8077   -5.3445    3.3371 C   0  0  0  0  0  0  0  0  0  0  0  0
   -3.8466   -6.1199    4.6883 C   0  0  0  0  0  0  0  0  0  0  0  0
   -4.4774   -7.4067    4.4204 N   0  0  0  0  0  0  0  0  0  0  0  0
   -5.7714   -7.4399    4.6536 C   0  0  0  0  0  0  0  0  0  0  0  0
   -6.3629   -8.7290    4.3732 N   0  0  0  0  0  0  0  0  0  0  0  0
   -6.5088   -6.3396    5.1291 N   0  0  0  0  0  0  0  0  0  0  0  0
    6.7499   -0.4254    0.2364 N   0  0  0  0  0  0  0  0  0  0  0  0
    7.8185   -1.2732    0.0221 C   0  0  0  0  0  0  0  0  0  0  0  0
    7.8345   -2.2758   -0.7472 O   0  0  0  0  0  0  0  0  0  0  0  0
    9.1988   -1.0971    0.6739 C   0  0  2  0  0  0  0  0  0  0  0  0
    9.6091    0.3240    0.3288 C   0  0  0  0  0  0  0  0  0  0  0  0
   10.9073    0.6922    0.9315 C   0  0  0  0  0  0  0  0  0  0  0  0
    9.6131    0.5737   -1.1471 C   0  0  0  0  0  0  0  0  0  0  0  0
    9.9669   -2.1285    0.0390 N   0  0  0  0  0  0  0  0  0  0  0  0
   11.2468   -2.2100   -0.4790 C   0  0  0  0  0  0  0  0  0  0  0  0
   12.1351   -1.3451   -0.5316 O   0  0  0  0  0  0  0  0  0  0  0  0
   11.6431   -3.5503   -1.0850 C   0  0  2  0  0  0  0  0  0  0  0  0
   11.8352   -4.5449    0.0189 C   0  0  0  0  0  0  0  0  0  0  0  0
   12.9353   -4.1653    0.9526 C   0  0  0  0  0  0  0  0  0  0  0  0
   12.7644   -3.3300    2.0345 C   0  0  0  0  0  0  0  0  0  0  0  0
   13.8861   -3.0862    2.8280 C   0  0  0  0  0  0  0  0  0  0  0  0
   15.1222   -3.6496    2.5570 C   0  0  0  0  0  0  0  0  0  0  0  0
   15.2902   -4.4841    1.4764 C   0  0  0  0  0  0  0  0  0  0  0  0
   14.1669   -4.7126    0.7000 C   0  0  0  0  0  0  0  0  0  0  0  0
   16.2467   -3.3963    3.3635 O   0  0  0  0  0  0  0  0  0  0  0  0
   12.8513   -3.2741   -1.8026 N   0  0  0  0  0  0  0  0  0  0  0  0
    6.5258   -2.9056   -4.5136 H   0  0  0  0  0  0  0  0  0  0  0  0
    7.7014   -1.4922   -4.8347 H   0  0  0  0  0  0  0  0  0  0  0  0
    7.8976   -2.5850   -3.4707 H   0  0  0  0  0  0  0  0  0  0  0  0
    5.6525   -0.5566   -3.8010 H   0  0  0  0  0  0  0  0  0  0  0  0
    7.0824   -0.5255   -2.6833 H   0  0  0  0  0  0  0  0  0  0  0  0
    6.0261   -3.0325   -2.0117 H   0  0  0  0  0  0  0  0  0  0  0  0
    4.7067   -2.4489   -2.9485 H   0  0  0  0  0  0  0  0  0  0  0  0
    4.2814   -2.1290   -0.5357 H   0  0  0  0  0  0  0  0  0  0  0  0
    3.9519   -0.8502   -1.6865 H   0  0  0  0  0  0  0  0  0  0  0  0
    5.5986    0.5334   -1.1643 H   0  0  0  0  0  0  0  0  0  0  0  0
    2.9346    0.5621   -0.8275 H   0  0  0  0  0  0  0  0  0  0  0  0
    2.5137    0.6805    2.1486 H   0  0  0  0  0  0  0  0  0  0  0  0
    0.9050    1.8468   -0.2236 H   0  0  0  0  0  0  0  0  0  0  0  0
    0.2760    1.6722    1.4320 H   0  0  0  0  0  0  0  0  0  0  0  0
   -1.8119   -0.2997    2.5708 H   0  0  0  0  0  0  0  0  0  0  0  0
   -2.0620   -1.9325    3.2076 H   0  0  0  0  0  0  0  0  0  0  0  0
   -2.3452   -1.2292    0.2987 H   0  0  0  0  0  0  0  0  0  0  0  0
   -4.7423   -1.1930    2.1630 H   0  0  0  0  0  0  0  0  0  0  0  0
   -4.9057    1.2552    2.9470 H   0  0  0  0  0  0  0  0  0  0  0  0
   -6.0021    3.2533    2.1741 H   0  0  0  0  0  0  0  0  0  0  0  0
   -3.9437    5.3285    1.8850 H   0  0  0  0  0  0  0  0  0  0  0  0
   -4.3228    6.4303   -0.7495 H   0  0  0  0  0  0  0  0  0  0  0  0
   -2.3538    6.6584   -2.1513 H   0  0  0  0  0  0  0  0  0  0  0  0
    0.2072    5.6381   -0.9953 H   0  0  0  0  0  0  0  0  0  0  0  0
    2.1656    6.8877   -3.2036 H   0  0  0  0  0  0  0  0  0  0  0  0
    1.6767    4.1594   -2.0686 H   0  0  0  0  0  0  0  0  0  0  0  0
    2.8537    5.4118    1.1160 H   0  0  0  0  0  0  0  0  0  0  0  0
    4.2314    4.8470    0.1036 H   0  0  0  0  0  0  0  0  0  0  0  0
    2.3917    3.0425   -0.6582 H   0  0  0  0  0  0  0  0  0  0  0  0
    0.9884    4.4864   -4.7315 H   0  0  0  0  0  0  0  0  0  0  0  0
    2.7088    5.1100   -4.7418 H   0  0  0  0  0  0  0  0  0  0  0  0
    3.2054    7.5101   -5.7857 H   0  0  0  0  0  0  0  0  0  0  0  0
    1.8179    9.0084   -7.3981 H   0  0  0  0  0  0  0  0  0  0  0  0
   -0.6820    8.1045   -7.5149 H   0  0  0  0  0  0  0  0  0  0  0  0
   -1.3651    8.6302   -1.6560 H   0  0  0  0  0  0  0  0  0  0  0  0
   -2.7261    8.3668   -0.5699 H   0  0  0  0  0  0  0  0  0  0  0  0
   -2.0482    7.9052    2.0051 H   0  0  0  0  0  0  0  0  0  0  0  0
   -0.4084    8.5431    3.7729 H   0  0  0  0  0  0  0  0  0  0  0  0
    1.8149    9.2958    3.1979 H   0  0  0  0  0  0  0  0  0  0  0  0
    2.3951    9.4165    0.8191 H   0  0  0  0  0  0  0  0  0  0  0  0
    0.8367    8.8099   -0.9456 H   0  0  0  0  0  0  0  0  0  0  0  0
   -6.2859    5.1608    2.1763 H   0  0  0  0  0  0  0  0  0  0  0  0
   -6.6557    5.1429    0.3775 H   0  0  0  0  0  0  0  0  0  0  0  0
   -6.1411    7.4817    0.2061 H   0  0  0  0  0  0  0  0  0  0  0  0
   -7.3065    7.1256    1.4810 H   0  0  0  0  0  0  0  0  0  0  0  0
   -5.8501    8.8441    2.2053 H   0  0  0  0  0  0  0  0  0  0  0  0
   -4.3610    7.7959    2.0577 H   0  0  0  0  0  0  0  0  0  0  0  0
   -3.1771    5.7525    4.0171 H   0  0  0  0  0  0  0  0  0  0  0  0
   -2.9807    7.4364    4.6195 H   0  0  0  0  0  0  0  0  0  0  0  0
   -5.4367    7.2786    6.5023 H   0  0  0  0  0  0  0  0  0  0  0  0
   -6.1737    5.7142    5.8413 H   0  0  0  0  0  0  0  0  0  0  0  0
   -6.5701   -0.2971    2.2726 H   0  0  0  0  0  0  0  0  0  0  0  0
   -7.2852    1.2930    2.0599 H   0  0  0  0  0  0  0  0  0  0  0  0
   -6.1403   -1.7053   -0.1625 H   0  0  0  0  0  0  0  0  0  0  0  0
   -7.0151   -1.2431   -2.5807 H   0  0  0  0  0  0  0  0  0  0  0  0
   -7.8065    3.0038    0.6051 H   0  0  0  0  0  0  0  0  0  0  0  0
   -8.8657    4.2904   -1.1843 H   0  0  0  0  0  0  0  0  0  0  0  0
   -9.0716    3.2833   -3.3829 H   0  0  0  0  0  0  0  0  0  0  0  0
   -8.2603    0.9310   -3.8451 H   0  0  0  0  0  0  0  0  0  0  0  0
   -1.3884   -3.8704    0.7191 H   0  0  0  0  0  0  0  0  0  0  0  0
   -1.9634   -6.0708    0.5279 H   0  0  0  0  0  0  0  0  0  0  0  0
   -4.3779   -4.1012   -0.9768 H   0  0  0  0  0  0  0  0  0  0  0  0
   -6.1632   -4.9079   -2.2402 H   0  0  0  0  0  0  0  0  0  0  0  0
   -6.2010   -5.5541    1.0683 H   0  0  0  0  0  0  0  0  0  0  0  0
   -9.0242   -6.1486    1.0741 H   0  0  0  0  0  0  0  0  0  0  0  0
   -7.8354   -6.5931    2.3500 H   0  0  0  0  0  0  0  0  0  0  0  0
   -6.2690   -8.8851    0.4844 H   0  0  0  0  0  0  0  0  0  0  0  0
   -7.5840   -9.7058   -0.3691 H   0  0  0  0  0  0  0  0  0  0  0  0
   -4.4820   -7.5094   -2.0555 H   0  0  0  0  0  0  0  0  0  0  0  0
   -4.3403   -6.2197   -3.2469 H   0  0  0  0  0  0  0  0  0  0  0  0
   -6.2705   -6.0316   -4.9386 H   0  0  0  0  0  0  0  0  0  0  0  0
   -7.8677   -7.3671   -6.3056 H   0  0  0  0  0  0  0  0  0  0  0  0
   -8.5782   -9.6181   -5.5648 H   0  0  0  0  0  0  0  0  0  0  0  0
   -7.6725  -10.4664   -3.4423 H   0  0  0  0  0  0  0  0  0  0  0  0
   -6.0925   -9.1421   -2.1203 H   0  0  0  0  0  0  0  0  0  0  0  0
   -1.8463   -6.0469    2.7266 H   0  0  0  0  0  0  0  0  0  0  0  0
   -3.1929   -7.1288    2.3340 H   0  0  0  0  0  0  0  0  0  0  0  0
   -3.3929   -4.3668    3.5764 H   0  0  0  0  0  0  0  0  0  0  0  0
   -4.8481   -5.2279    2.9826 H   0  0  0  0  0  0  0  0  0  0  0  0
   -4.3871   -5.5909    5.4556 H   0  0  0  0  0  0  0  0  0  0  0  0
   -2.7890   -6.2934    4.9378 H   0  0  0  0  0  0  0  0  0  0  0  0
   -7.1508   -8.8007    3.6429 H   0  0  0  0  0  0  0  0  0  0  0  0
   -6.0612   -9.6120    4.8663 H   0  0  0  0  0  0  0  0  0  0  0  0
   -6.2693   -5.7597    5.9553 H   0  0  0  0  0  0  0  0  0  0  0  0
   -7.4045   -6.0310    4.6436 H   0  0  0  0  0  0  0  0  0  0  0  0
    6.9510    0.3126    1.0318 H   0  0  0  0  0  0  0  0  0  0  0  0
    9.1637   -1.1626    1.7109 H   0  0  0  0  0  0  0  0  0  0  0  0
    8.8322    1.0215    0.7619 H   0  0  0  0  0  0  0  0  0  0  0  0
   10.7826    1.6576    1.5828 H   0  0  0  0  0  0  0  0  0  0  0  0
   11.4020   -0.0280    1.5691 H   0  0  0  0  0  0  0  0  0  0  0  0
   11.6143    1.1023    0.1432 H   0  0  0  0  0  0  0  0  0  0  0  0
    8.7893    1.2210   -1.4791 H   0  0  0  0  0  0  0  0  0  0  0  0
   10.5618    1.0136   -1.4999 H   0  0  0  0  0  0  0  0  0  0  0  0
    9.5181   -0.3901   -1.7084 H   0  0  0  0  0  0  0  0  0  0  0  0
    9.3989   -3.0726   -0.0293 H   0  0  0  0  0  0  0  0  0  0  0  0
   10.8319   -3.8603   -1.7303 H   0  0  0  0  0  0  0  0  0  0  0  0
   12.0387   -5.5256   -0.4507 H   0  0  0  0  0  0  0  0  0  0  0  0
   10.8772   -4.6494    0.5407 H   0  0  0  0  0  0  0  0  0  0  0  0
   11.7986   -2.8793    2.2535 H   0  0  0  0  0  0  0  0  0  0  0  0
   13.8422   -2.4509    3.6895 H   0  0  0  0  0  0  0  0  0  0  0  0
   16.2442   -4.9568    1.2210 H   0  0  0  0  0  0  0  0  0  0  0  0
   14.3155   -5.3786   -0.1477 H   0  0  0  0  0  0  0  0  0  0  0  0
   16.6700   -4.2582    3.7377 H   0  0  0  0  0  0  0  0  0  0  0  0
   12.9376   -3.7474   -2.7198 H   0  0  0  0  0  0  0  0  0  0  0  0
   13.7351   -3.3458   -1.3069 H   0  0  0  0  0  0  0  0  0  0  0  0
  1  2  1  0
  2  3  1  0
  3  4  1  0
  4  5  1  0
  5  6  1  0
  6  7  2  0
  6  8  1  0
  8  9  1  0
  9 10  1  0
 10 11  1  0
 11 12  1  0
 12 13  1  0
 13 14  1  0
 14 15  1  0
 15 16  1  0
 16 17  2  0
 16 18  1  0
 18 19  1  0
 19 20  1  0
 20 21  2  0
 20 22  1  0
 22 23  1  0
 23 24  1  0
 24 25  2  0
 24 26  1  0
 26 27  1  0
 27 28  1  0
 28 29  2  0
 28 30  1  0
 30 31  1  0
 31 32  1  0
 32 33  2  0
 32 34  1  0
 34 35  1  0
 35 36  1  0
 36 37  2  0
 30 38  1  0
 38 39  1  0
 39 40  2  0
 40 41  1  0
 41 42  1  0
 42 43  2  0
 26 44  1  0
 44 45  1  0
 45 46  2  0
 46 47  1  0
 47 48  2  0
 48 49  1  0
 49 50  2  0
 22 51  1  0
 51 52  1  0
 52 53  1  0
 53 54  1  0
 54 55  2  3
 55 56  1  0
 55 57  1  0
 18 58  1  0
 58 59  1  0
 59 60  2  0
 60 61  1  0
 61 62  1  0
 62 63  2  0
 63 64  1  0
 64 65  2  0
 65 66  1  0
 66 67  2  0
 14 68  1  0
 68 69  2  0
 68 70  1  0
 70 71  1  0
 71 72  1  0
 72 73  2  0
 72 74  1  0
 74 75  1  0
 75 76  1  0
 76 77  2  0
 76 78  1  0
 78 79  1  0
 79 80  1  0
 80 81  2  0
 80 82  1  0
 75 83  1  0
 83 84  1  0
 84 85  2  0
 85 86  1  0
 86 87  2  0
 87 88  1  0
 88 89  2  0
 71 90  1  0
 90 91  1  0
 91 92  1  0
 92 93  1  0
 93 94  2  3
 94 95  1  0
 94 96  1  0
  5 97  1  0
 97 98  1  0
 98 99  2  0
 98100  1  0
100101  1  0
101102  1  0
101103  1  0
100104  1  0
104105  1  0
105106  2  0
105107  1  0
107108  1  0
108109  1  0
109110  2  0
110111  1  0
111112  2  0
112113  1  0
113114  2  0
112115  1  0
107116  1  0
 36  9  1  0
 43 39  1  0
 50 45  1  0
 63 59  1  0
 89 84  1  0
114109  1  0
 67 62  1  0
  1117  1  0
  1118  1  0
  1119  1  0
  2120  1  0
  2121  1  0
  3122  1  0
  3123  1  0
  4124  1  0
  4125  1  0
  5126  1  6
  8127  1  0
  9128  1  1
 10129  1  0
 10130  1  0
 13131  1  0
 13132  1  0
 14133  1  6
 15134  1  0
 18135  1  1
 19136  1  0
 22137  1  1
 23138  1  0
 26139  1  6
 27140  1  0
 30141  1  6
 31142  1  0
 34143  1  0
 34144  1  0
 35145  1  0
 38146  1  0
 38147  1  0
 40148  1  0
 41149  1  0
 42150  1  0
 44151  1  0
 44152  1  0
 46153  1  0
 47154  1  0
 48155  1  0
 49156  1  0
 50157  1  0
 51158  1  0
 51159  1  0
 52160  1  0
 52161  1  0
 53162  1  0
 53163  1  0
 56164  1  0
 56165  1  0
 57166  1  0
 57167  1  0
 58168  1  0
 58169  1  0
 60170  1  0
 61171  1  0
 64172  1  0
 65173  1  0
 66174  1  0
 67175  1  0
 70176  1  0
 71177  1  6
 74178  1  0
 75179  1  6
 78180  1  0
 79181  1  0
 79182  1  0
 82183  1  0
 82184  1  0
 83185  1  0
 83186  1  0
 85187  1  0
 86188  1  0
 87189  1  0
 88190  1  0
 89191  1  0
 90192  1  0
 90193  1  0
 91194  1  0
 91195  1  0
 92196  1  0
 92197  1  0
 95198  1  0
 95199  1  0
 96200  1  0
 96201  1  0
 97202  1  0
100203  1  1
101204  1  0
102205  1  0
102206  1  0
102207  1  0
103208  1  0
103209  1  0
103210  1  0
104211  1  0
107212  1  6
108213  1  0
108214  1  0
110215  1  0
111216  1  0
113217  1  0
114218  1  0
115219  1  0
116220  1  0
116221  1  0
M  END
>  <Ligand ID>  (1) 
LIG0004154

>  <Ligand>  (1) 
CID 44363976

>  <SMILES>  (1) 
CCCC[C@@H](C(=O)N[C@@H]1CSSC[C@H](NC(=O)[C@@H](NC(=O)[C@@H](NC(=O)[C@H](NC(=O)[C@@H](NC(=O)CNC1=O)Cc1c[nH]cn1)Cc1ccccc1)CCCN=C(N)N)Cc1c[nH]c2c1cccc2)C(=O)N[C@H](C(=O)N[C@H](C(=O)NCC(=O)N)Cc1ccccc1)CCCN=C(N)N)NC(=O)[C@H](C(C)C)NC(=O)[C@H](Cc1ccc(cc1)O)N

>  <CID>  (1) 
44363976.0

>  <ChEMBL ID>  (1) 
nan

>  <InChiKey>  (1) 
UKCAJRRGLXHDRO-JWYNWKQLSA-N

>  <InChi>  (1) 
InChI=1S/C77H105N23O14S2/c1-4-5-21-53(94-75(114)64(43(2)3)100-65(104)51(78)31-46-25-27-49(101)28-26-46)70(109)98-60-40-115-116-41-61(74(113)93-55(24-15-30-86-77(82)83)68(107)95-56(66(105)88-38-62(79)102)32-44-16-8-6-9-17-44)99-72(111)58(34-47-36-87-52-22-13-12-20-50(47)52)97-69(108)54(23-14-29-85-76(80)81)92-71(110)57(33-45-18-10-7-11-19-45)96-73(112)59(35-48-37-84-42-90-48)91-63(103)39-89-67(60)106/h6-13,16-20,22,25-28,36-37,42-43,51,53-61,64,87,101H,4-5,14-15,21,23-24,29-35,38-41,78H2,1-3H3,(H2,79,102)(H,84,90)(H,88,105)(H,89,106)(H,91,103)(H,92,110)(H,93,113)(H,94,114)(H,95,107)(H,96,112)(H,97,108)(H,98,109)(H,99,111)(H,100,104)(H4,80,81,85)(H4,82,83,86)/t51-,53-,54-,55-,56-,57+,58-,59-,60+,61-,64-/m0/s1

>  <IUPAC Name>  (1) 
(4R,7S,10S,13R,16S,22S)-22-[[(2S)-2-[[(2S)-2-[[(2S)-2-amino-3-(4-hydroxyphenyl)propanoyl]amino]-3-methylbutanoyl]amino]hexanoyl]amino]-N-[(2S)-1-[[(2S)-1-[(2-amino-2-oxoethyl)amino]-1-oxo-3-phenylpropan-2-yl]amino]-5-(diaminomethylideneamino)-1-oxopentan-2-yl]-13-benzyl-10-[3-(diaminomethylideneamino)propyl]-16-(1H-imidazol-4-ylmethyl)-7-(1H-indol-3-ylmethyl)-6,9,12,15,18,21-hexaoxo-1,2-dithia-5,8,11,14,17,20-hexazacyclotricosane-4-carboxamide

$$$$
