
     RDKit          3D

 70 72  0  0  0  0  0  0  0  0999 V2000
   -8.9581    2.6260   -0.2985 O   0  0  0  0  0  0  0  0  0  0  0  0
   -9.0075    1.2601   -0.5739 C   0  0  0  0  0  0  0  0  0  0  0  0
   -7.9186    0.9257   -1.5669 C   0  0  1  0  0  0  0  0  0  0  0  0
   -6.6920    1.2442   -1.0452 O   0  0  0  0  0  0  0  0  0  0  0  0
   -6.1729    0.3176   -0.1712 C   0  0  2  0  0  0  0  0  0  0  0  0
   -4.8341    0.6926    0.0808 O   0  0  0  0  0  0  0  0  0  0  0  0
   -4.6030    0.9237    1.7592 P   0  0  0  0  0  0  0  0  0  0  0  0
   -5.8402    1.5449    2.3939 O   0  0  0  0  0  0  0  0  0  0  0  0
   -3.3143    1.9735    1.9535 O   0  0  0  0  0  0  0  0  0  0  0  0
   -2.1412    1.7257    0.7621 P   0  0  0  0  0  0  0  0  0  0  0  0
   -2.3580    2.7936   -0.3051 O   0  0  0  0  0  0  0  0  0  0  0  0
   -0.6395    1.9944    1.4824 O   0  0  0  0  0  0  0  0  0  0  0  0
    0.0133    0.6355    2.2004 P   0  0  0  0  0  0  0  0  0  0  0  0
    0.2895    0.9449    3.6664 O   0  0  0  0  0  0  0  0  0  0  0  0
    1.4959    0.2961    1.4589 O   0  0  0  0  0  0  0  0  0  0  0  0
    2.0994   -1.1954    1.9483 P   0  0  0  0  0  0  0  0  0  0  0  0
    2.1242   -1.1868    3.4766 O   0  0  0  0  0  0  0  0  0  0  0  0
    3.6342   -1.4106    1.3097 O   0  0  0  0  0  0  0  0  0  0  0  0
    4.5093   -0.6089    2.0159 C   0  0  0  0  0  0  0  0  0  0  0  0
    5.8807   -0.7975    1.4496 C   0  0  1  0  0  0  0  0  0  0  0  0
    5.8631   -0.4310    0.1033 O   0  0  0  0  0  0  0  0  0  0  0  0
    7.2317   -0.6055   -0.2071 C   0  0  2  0  0  0  0  0  0  0  0  0
    7.9586    0.1250    0.8805 C   0  0  1  0  0  0  0  0  0  0  0  0
    6.9017    0.1842    1.9910 C   0  0  2  0  0  0  0  0  0  0  0  0
    7.4083   -0.2139    3.2154 O   0  0  0  0  0  0  0  0  0  0  0  0
    9.0100   -0.6727    1.3187 O   0  0  0  0  0  0  0  0  0  0  0  0
    7.4348   -0.1049   -1.5278 N   0  0  0  0  0  0  0  0  0  0  0  0
    6.4559    0.4879   -2.2610 C   0  0  0  0  0  0  0  0  0  0  0  0
    6.7789    0.9316   -3.5290 C   0  0  0  0  0  0  0  0  0  0  0  0
    8.0424    0.7938   -4.0643 C   0  0  0  0  0  0  0  0  0  0  0  0
    8.3422    1.1997   -5.2273 O   0  0  0  0  0  0  0  0  0  0  0  0
    8.9883    0.1940   -3.2920 N   0  0  0  0  0  0  0  0  0  0  0  0
    8.6732   -0.2343   -2.0659 C   0  0  0  0  0  0  0  0  0  0  0  0
    9.5915   -0.7828   -1.3962 O   0  0  0  0  0  0  0  0  0  0  0  0
    1.0411   -2.4416    1.4640 O   0  0  0  0  0  0  0  0  0  0  0  0
   -1.0101   -0.7018    2.1822 O   0  0  0  0  0  0  0  0  0  0  0  0
   -2.2960    0.1799    0.1159 O   0  0  0  0  0  0  0  0  0  0  0  0
   -4.3756   -0.5680    2.5056 O   0  0  0  0  0  0  0  0  0  0  0  0
   -6.2206   -1.1080   -0.6872 C   0  0  2  0  0  0  0  0  0  0  0  0
   -6.6396   -1.0680   -2.1452 C   0  0  2  0  0  0  0  0  0  0  0  0
   -8.0406   -0.4464   -2.1438 C   0  0  2  0  0  0  0  0  0  0  0  0
   -8.4944   -0.4606   -3.4649 O   0  0  0  0  0  0  0  0  0  0  0  0
   -6.6654   -2.3765   -2.6290 O   0  0  0  0  0  0  0  0  0  0  0  0
   -7.2136   -1.8475   -0.0255 O   0  0  0  0  0  0  0  0  0  0  0  0
   -9.0087    2.8313    0.6667 H   0  0  0  0  0  0  0  0  0  0  0  0
   -9.9898    1.0066   -1.0216 H   0  0  0  0  0  0  0  0  0  0  0  0
   -8.8176    0.6836    0.3588 H   0  0  0  0  0  0  0  0  0  0  0  0
   -8.0792    1.6379   -2.4287 H   0  0  0  0  0  0  0  0  0  0  0  0
   -6.6543    0.2934    0.8250 H   0  0  0  0  0  0  0  0  0  0  0  0
    4.4810   -0.9327    3.0914 H   0  0  0  0  0  0  0  0  0  0  0  0
    4.2082    0.4420    1.8833 H   0  0  0  0  0  0  0  0  0  0  0  0
    6.2396   -1.8323    1.4837 H   0  0  0  0  0  0  0  0  0  0  0  0
    7.4292   -1.6903   -0.1168 H   0  0  0  0  0  0  0  0  0  0  0  0
    8.2345    1.1578    0.6593 H   0  0  0  0  0  0  0  0  0  0  0  0
    6.4377    1.1766    2.0779 H   0  0  0  0  0  0  0  0  0  0  0  0
    6.9863   -1.0374    3.5800 H   0  0  0  0  0  0  0  0  0  0  0  0
    8.7266   -1.3136    2.0334 H   0  0  0  0  0  0  0  0  0  0  0  0
    5.4626    0.5959   -1.8394 H   0  0  0  0  0  0  0  0  0  0  0  0
    6.0227    1.4122   -4.1489 H   0  0  0  0  0  0  0  0  0  0  0  0
    9.9363    0.1018   -3.7201 H   0  0  0  0  0  0  0  0  0  0  0  0
    1.2844   -2.7497    0.5545 H   0  0  0  0  0  0  0  0  0  0  0  0
   -0.6854   -1.3255    2.9073 H   0  0  0  0  0  0  0  0  0  0  0  0
   -2.8315   -0.3819    0.7278 H   0  0  0  0  0  0  0  0  0  0  0  0
   -4.1913   -0.4190    3.4495 H   0  0  0  0  0  0  0  0  0  0  0  0
   -5.2368   -1.6131   -0.5980 H   0  0  0  0  0  0  0  0  0  0  0  0
   -5.9292   -0.4999   -2.7632 H   0  0  0  0  0  0  0  0  0  0  0  0
   -8.6425   -1.0572   -1.4647 H   0  0  0  0  0  0  0  0  0  0  0  0
   -7.9784    0.2649   -3.9323 H   0  0  0  0  0  0  0  0  0  0  0  0
   -6.9051   -2.3702   -3.5786 H   0  0  0  0  0  0  0  0  0  0  0  0
   -6.8321   -2.7221    0.2062 H   0  0  0  0  0  0  0  0  0  0  0  0
  1  2  1  0
  2  3  1  0
  3  4  1  0
  4  5  1  0
  5  6  1  0
  6  7  1  0
  7  8  2  0
  7  9  1  0
  9 10  1  0
 10 11  2  0
 10 12  1  0
 12 13  1  0
 13 14  2  0
 13 15  1  0
 15 16  1  0
 16 17  2  0
 16 18  1  0
 18 19  1  0
 19 20  1  0
 20 21  1  0
 21 22  1  0
 22 23  1  0
 23 24  1  0
 24 25  1  0
 23 26  1  0
 22 27  1  0
 27 28  1  0
 28 29  2  0
 29 30  1  0
 30 31  2  0
 30 32  1  0
 32 33  1  0
 33 34  2  0
 16 35  1  0
 13 36  1  0
 10 37  1  0
  7 38  1  0
  5 39  1  0
 39 40  1  0
 40 41  1  0
 41 42  1  0
 40 43  1  0
 39 44  1  0
 41  3  1  0
 24 20  1  0
 33 27  1  0
  1 45  1  0
  2 46  1  0
  2 47  1  0
  3 48  1  6
  5 49  1  1
 19 50  1  0
 19 51  1  0
 20 52  1  6
 22 53  1  6
 23 54  1  6
 24 55  1  1
 25 56  1  0
 26 57  1  0
 28 58  1  0
 29 59  1  0
 32 60  1  0
 35 61  1  0
 36 62  1  0
 37 63  1  0
 38 64  1  0
 39 65  1  6
 40 66  1  6
 41 67  1  1
 42 68  1  0
 43 69  1  0
 44 70  1  0
M  END
>  <Ligand ID>  (1) 
LIG0002826

>  <Ligand>  (1) 
CHEMBL1784886

>  <SMILES>  (1) 
OC[C@H]1O[C@H](OP(=O)(OP(=O)(OP(=O)(OP(=O)(OC[C@H]2O[C@H]([C@@H]([C@@H]2O)O)n2ccc(=O)[nH]c2=O)O)O)O)O)[C@H]([C@H]([C@@H]1O)O)O

>  <CID>  (1) 
53309245.0

>  <ChEMBL ID>  (1) 
nan

>  <InChiKey>  (1) 
AJLLTXOUJGYGAA-NYYOCOOHSA-N

>  <InChi>  (1) 
InChI=1S/C15H26N2O23P4/c18-3-5-8(20)10(22)12(24)14(36-5)37-42(28,29)39-44(32,33)40-43(30,31)38-41(26,27)34-4-6-9(21)11(23)13(35-6)17-2-1-7(19)16-15(17)25/h1-2,5-6,8-14,18,20-24H,3-4H2,(H,26,27)(H,28,29)(H,30,31)(H,32,33)(H,16,19,25)/t5-,6-,8-,9-,10+,11-,12+,13-,14-/m1/s1

>  <IUPAC Name>  (1) 
[[(2R,3S,4R,5R)-5-(2,4-dioxopyrimidin-1-yl)-3,4-dihydroxyoxolan-2-yl]methoxy-hydroxyphosphoryl] [hydroxy-[hydroxy-[(2R,3S,4S,5S,6R)-3,4,5-trihydroxy-6-(hydroxymethyl)oxan-2-yl]oxyphosphoryl]oxyphosphoryl] hydrogen phosphate

$$$$
