
     RDKit          3D

145147  0  0  0  0  0  0  0  0999 V2000
   -9.4324    6.7606   -0.5527 C   0  0  0  0  0  0  0  0  0  0  0  0
   -9.2052    6.0214   -1.8509 C   0  0  0  0  0  0  0  0  0  0  0  0
   -9.5056    4.6558   -1.7208 O   0  0  0  0  0  0  0  0  0  0  0  0
   -8.8334    3.8440   -0.8408 C   0  0  0  0  0  0  0  0  0  0  0  0
   -9.2379    2.5086   -0.7996 C   0  0  0  0  0  0  0  0  0  0  0  0
   -8.6151    1.6344    0.0560 C   0  0  0  0  0  0  0  0  0  0  0  0
   -7.5673    2.0357    0.9068 C   0  0  0  0  0  0  0  0  0  0  0  0
   -7.1760    3.3508    0.8571 C   0  0  0  0  0  0  0  0  0  0  0  0
   -7.8095    4.2392   -0.0118 C   0  0  0  0  0  0  0  0  0  0  0  0
   -7.0241    1.0060    1.7860 C   0  0  0  0  0  0  0  0  0  0  0  0
   -5.9025    0.1817    1.2893 C   0  0  2  0  0  0  0  0  0  0  0  0
   -4.6913    0.9574    0.9519 N   0  0  0  0  0  0  0  0  0  0  0  0
   -3.5594    1.0333    1.8637 C   0  0  0  0  0  0  0  0  0  0  0  0
   -3.7993    0.4980    2.9587 O   0  0  0  0  0  0  0  0  0  0  0  0
   -2.2823    1.6959    1.4827 C   0  0  0  0  0  0  0  0  0  0  0  0
   -1.2882    1.6125    2.6196 C   0  0  0  0  0  0  0  0  0  0  0  0
   -0.9049    0.1911    2.8541 C   0  0  0  0  0  0  0  0  0  0  0  0
    0.2419   -0.4397    1.6501 S   0  0  0  0  0  0  0  0  0  0  0  0
    1.9500   -0.1426    1.9637 C   0  0  0  0  0  0  0  0  0  0  0  0
    2.8587   -0.7357    0.8584 C   0  0  2  0  0  0  0  0  0  0  0  0
    2.2632   -2.0752    0.4966 N   0  0  0  0  0  0  0  0  0  0  0  0
    1.2837   -2.0384   -0.4820 C   0  0  0  0  0  0  0  0  0  0  0  0
    0.9563   -0.9260   -0.9392 O   0  0  0  0  0  0  0  0  0  0  0  0
    0.5076   -3.2036   -1.0939 C   0  0  1  0  0  0  0  0  0  0  0  0
   -0.8475   -2.7559   -1.1525 N   0  0  0  0  0  0  0  0  0  0  0  0
   -2.0853   -3.4972   -1.0602 C   0  0  0  0  0  0  0  0  0  0  0  0
   -2.0126   -4.6890   -1.2443 O   0  0  0  0  0  0  0  0  0  0  0  0
   -3.2289   -2.6242   -0.7583 C   0  0  1  0  0  0  0  0  0  0  0  0
   -4.5846   -2.8979   -0.7478 N   0  0  0  0  0  0  0  0  0  0  0  0
   -5.5164   -2.4154   -1.7733 C   0  0  0  0  0  0  0  0  0  0  0  0
   -5.0084   -2.0794   -2.8199 O   0  0  0  0  0  0  0  0  0  0  0  0
   -6.9769   -2.4154   -1.4227 C   0  0  1  0  0  0  0  0  0  0  0  0
   -7.0815   -1.6890   -0.1151 N   0  0  0  0  0  0  0  0  0  0  0  0
   -6.1465   -0.6420    0.1090 C   0  0  0  0  0  0  0  0  0  0  0  0
   -5.4136   -0.3948   -0.8947 O   0  0  0  0  0  0  0  0  0  0  0  0
   -7.9098   -1.9859   -2.4411 C   0  0  2  0  0  0  0  0  0  0  0  0
   -9.3342   -2.0806   -1.8655 C   0  0  0  0  0  0  0  0  0  0  0  0
   -9.6360   -3.5120   -1.4658 C   0  0  0  0  0  0  0  0  0  0  0  0
   -7.8313   -2.7873   -3.6929 C   0  0  0  0  0  0  0  0  0  0  0  0
   -2.9707   -2.2746    0.7961 C   0  0  0  0  0  0  0  0  0  0  0  0
   -2.9594   -3.6490    1.4359 C   0  0  0  0  0  0  0  0  0  0  0  0
   -2.7906   -3.6602    2.8901 C   0  0  0  0  0  0  0  0  0  0  0  0
   -2.7896   -2.6874    3.6672 O   0  0  0  0  0  0  0  0  0  0  0  0
   -2.6003   -4.9515    3.5118 N   0  0  0  0  0  0  0  0  0  0  0  0
    1.0967   -3.4694   -2.4730 C   0  0  0  0  0  0  0  0  0  0  0  0
    0.4335   -4.5665   -3.1774 C   0  0  0  0  0  0  0  0  0  0  0  0
   -0.5744   -4.3053   -3.8883 O   0  0  0  0  0  0  0  0  0  0  0  0
    0.8369   -5.9307   -3.1294 N   0  0  0  0  0  0  0  0  0  0  0  0
    4.1755   -0.9965    1.4205 C   0  0  0  0  0  0  0  0  0  0  0  0
    4.3902   -2.2777    1.6432 O   0  0  0  0  0  0  0  0  0  0  0  0
    5.2407   -0.1917    1.7686 N   0  0  0  0  0  0  0  0  0  0  0  0
    6.4525   -0.7729    2.4164 C   0  0  0  0  0  0  0  0  0  0  0  0
    6.8897    0.2736    3.4084 C   0  0  2  0  0  0  0  0  0  0  0  0
    6.3955    1.5896    2.8313 C   0  0  0  0  0  0  0  0  0  0  0  0
    5.6018    1.2102    1.6454 C   0  0  1  0  0  0  0  0  0  0  0  0
    6.3467    1.4056    0.3882 C   0  0  0  0  0  0  0  0  0  0  0  0
    5.9097    0.7870   -0.6278 O   0  0  0  0  0  0  0  0  0  0  0  0
    7.4941    2.2017    0.2058 N   0  0  0  0  0  0  0  0  0  0  0  0
    8.1323    2.2904   -1.1619 C   0  0  2  0  0  0  0  0  0  0  0  0
    9.1085    1.2147   -1.1594 C   0  0  0  0  0  0  0  0  0  0  0  0
    9.8285    0.8626   -2.1551 O   0  0  0  0  0  0  0  0  0  0  0  0
    9.3790    0.3963    0.0133 N   0  0  0  0  0  0  0  0  0  0  0  0
   10.3613   -0.6749   -0.0381 C   0  0  0  0  0  0  0  0  0  0  0  0
   11.7239   -0.1940   -0.3582 C   0  0  0  0  0  0  0  0  0  0  0  0
   12.6515   -1.0593   -0.4375 O   0  0  0  0  0  0  0  0  0  0  0  0
   12.0730    1.1400   -0.5803 N   0  0  0  0  0  0  0  0  0  0  0  0
    8.5112    3.6828   -1.4077 C   0  0  0  0  0  0  0  0  0  0  0  0
    9.1443    4.0886   -2.6857 C   0  0  0  0  0  0  0  0  0  0  0  0
   10.4600    3.5046   -3.0275 C   0  0  0  0  0  0  0  0  0  0  0  0
    8.1712    3.8454   -3.8596 C   0  0  0  0  0  0  0  0  0  0  0  0
    8.2684    0.3566    3.5113 O   0  0  0  0  0  0  0  0  0  0  0  0
    8.6757    0.2764    4.8510 C   0  0  0  0  0  0  0  0  0  0  0  0
   -9.7106    6.0160    0.2311 H   0  0  0  0  0  0  0  0  0  0  0  0
   -8.5491    7.3622   -0.3206 H   0  0  0  0  0  0  0  0  0  0  0  0
  -10.2985    7.4488   -0.6649 H   0  0  0  0  0  0  0  0  0  0  0  0
   -9.8718    6.4709   -2.6349 H   0  0  0  0  0  0  0  0  0  0  0  0
   -8.1658    6.1968   -2.1792 H   0  0  0  0  0  0  0  0  0  0  0  0
  -10.0340    2.1241   -1.4217 H   0  0  0  0  0  0  0  0  0  0  0  0
   -8.9504    0.6073    0.0724 H   0  0  0  0  0  0  0  0  0  0  0  0
   -6.3732    3.6683    1.5052 H   0  0  0  0  0  0  0  0  0  0  0  0
   -7.4727    5.2461   -0.0248 H   0  0  0  0  0  0  0  0  0  0  0  0
   -7.8679    0.3338    2.1385 H   0  0  0  0  0  0  0  0  0  0  0  0
   -6.6707    1.4582    2.7665 H   0  0  0  0  0  0  0  0  0  0  0  0
   -5.5658   -0.4526    2.1457 H   0  0  0  0  0  0  0  0  0  0  0  0
   -4.5645    1.4771    0.0935 H   0  0  0  0  0  0  0  0  0  0  0  0
   -2.5153    2.7417    1.1997 H   0  0  0  0  0  0  0  0  0  0  0  0
   -1.9210    1.2058    0.5709 H   0  0  0  0  0  0  0  0  0  0  0  0
   -1.7069    2.1054    3.5337 H   0  0  0  0  0  0  0  0  0  0  0  0
   -0.3885    2.1879    2.2596 H   0  0  0  0  0  0  0  0  0  0  0  0
   -1.8578   -0.4099    2.7624 H   0  0  0  0  0  0  0  0  0  0  0  0
   -0.5147    0.0677    3.9141 H   0  0  0  0  0  0  0  0  0  0  0  0
    2.2842   -0.5407    2.9255 H   0  0  0  0  0  0  0  0  0  0  0  0
    2.1188    0.9596    1.9911 H   0  0  0  0  0  0  0  0  0  0  0  0
    2.7719   -0.1075    0.0052 H   0  0  0  0  0  0  0  0  0  0  0  0
    2.5392   -2.9366    0.9197 H   0  0  0  0  0  0  0  0  0  0  0  0
    0.6394   -4.1014   -0.5236 H   0  0  0  0  0  0  0  0  0  0  0  0
   -0.9998   -1.7350   -1.3017 H   0  0  0  0  0  0  0  0  0  0  0  0
   -2.9996   -1.6180   -1.2449 H   0  0  0  0  0  0  0  0  0  0  0  0
   -5.0653   -3.4662   -0.0437 H   0  0  0  0  0  0  0  0  0  0  0  0
   -7.1484   -3.4767   -1.1207 H   0  0  0  0  0  0  0  0  0  0  0  0
   -7.7521   -1.8856    0.5972 H   0  0  0  0  0  0  0  0  0  0  0  0
   -7.8315   -0.9151   -2.7511 H   0  0  0  0  0  0  0  0  0  0  0  0
  -10.0781   -1.7107   -2.5977 H   0  0  0  0  0  0  0  0  0  0  0  0
   -9.4402   -1.4818   -0.9490 H   0  0  0  0  0  0  0  0  0  0  0  0
   -9.1790   -4.2613   -2.1214 H   0  0  0  0  0  0  0  0  0  0  0  0
   -9.2612   -3.7364   -0.4301 H   0  0  0  0  0  0  0  0  0  0  0  0
  -10.7291   -3.6777   -1.4132 H   0  0  0  0  0  0  0  0  0  0  0  0
   -8.7152   -2.5279   -4.3306 H   0  0  0  0  0  0  0  0  0  0  0  0
   -6.9398   -2.4090   -4.2578 H   0  0  0  0  0  0  0  0  0  0  0  0
   -7.7909   -3.8851   -3.5496 H   0  0  0  0  0  0  0  0  0  0  0  0
   -3.8198   -1.6922    1.0774 H   0  0  0  0  0  0  0  0  0  0  0  0
   -1.9945   -1.8336    0.8467 H   0  0  0  0  0  0  0  0  0  0  0  0
   -3.8121   -4.2752    1.1442 H   0  0  0  0  0  0  0  0  0  0  0  0
   -2.0673   -4.1715    0.9519 H   0  0  0  0  0  0  0  0  0  0  0  0
   -2.1618   -5.7310    2.9719 H   0  0  0  0  0  0  0  0  0  0  0  0
   -2.8894   -5.1397    4.4962 H   0  0  0  0  0  0  0  0  0  0  0  0
    1.2026   -2.5396   -3.0667 H   0  0  0  0  0  0  0  0  0  0  0  0
    2.1571   -3.7834   -2.2660 H   0  0  0  0  0  0  0  0  0  0  0  0
    0.0823   -6.6162   -2.8361 H   0  0  0  0  0  0  0  0  0  0  0  0
    1.8043   -6.2420   -3.3665 H   0  0  0  0  0  0  0  0  0  0  0  0
    7.2448   -0.9814    1.6920 H   0  0  0  0  0  0  0  0  0  0  0  0
    6.2097   -1.7100    2.9481 H   0  0  0  0  0  0  0  0  0  0  0  0
    6.4272    0.1562    4.3916 H   0  0  0  0  0  0  0  0  0  0  0  0
    7.2123    2.3051    2.6544 H   0  0  0  0  0  0  0  0  0  0  0  0
    5.7429    2.1178    3.6015 H   0  0  0  0  0  0  0  0  0  0  0  0
    4.7004    1.8582    1.5851 H   0  0  0  0  0  0  0  0  0  0  0  0
    7.9617    2.7535    0.9454 H   0  0  0  0  0  0  0  0  0  0  0  0
    7.2802    1.9842   -1.8228 H   0  0  0  0  0  0  0  0  0  0  0  0
    8.8423    0.6141    0.8746 H   0  0  0  0  0  0  0  0  0  0  0  0
   10.0341   -1.4820   -0.7324 H   0  0  0  0  0  0  0  0  0  0  0  0
   10.3986   -1.1184    0.9806 H   0  0  0  0  0  0  0  0  0  0  0  0
   12.8280    1.4751   -1.2132 H   0  0  0  0  0  0  0  0  0  0  0  0
   11.5360    1.8882   -0.0696 H   0  0  0  0  0  0  0  0  0  0  0  0
    7.6243    4.3857   -1.2718 H   0  0  0  0  0  0  0  0  0  0  0  0
    9.2199    4.0788   -0.5913 H   0  0  0  0  0  0  0  0  0  0  0  0
    9.2604    5.2095   -2.6432 H   0  0  0  0  0  0  0  0  0  0  0  0
   10.3993    2.7481   -3.8405 H   0  0  0  0  0  0  0  0  0  0  0  0
   11.0376    4.3511   -3.5648 H   0  0  0  0  0  0  0  0  0  0  0  0
   11.0498    3.2095   -2.1418 H   0  0  0  0  0  0  0  0  0  0  0  0
    8.0359    2.7671   -3.9814 H   0  0  0  0  0  0  0  0  0  0  0  0
    7.2156    4.2955   -3.5556 H   0  0  0  0  0  0  0  0  0  0  0  0
    8.6363    4.3536   -4.7233 H   0  0  0  0  0  0  0  0  0  0  0  0
    9.8003    0.3551    4.8838 H   0  0  0  0  0  0  0  0  0  0  0  0
    8.2855    1.1137    5.4538 H   0  0  0  0  0  0  0  0  0  0  0  0
    8.4103   -0.7094    5.2413 H   0  0  0  0  0  0  0  0  0  0  0  0
  1  2  1  0
  2  3  1  0
  3  4  1  0
  4  5  2  0
  5  6  1  0
  6  7  2  0
  7  8  1  0
  8  9  2  0
  7 10  1  0
 10 11  1  0
 11 12  1  0
 12 13  1  0
 13 14  2  0
 13 15  1  0
 15 16  1  0
 16 17  1  0
 17 18  1  0
 18 19  1  0
 19 20  1  0
 20 21  1  0
 21 22  1  0
 22 23  2  0
 22 24  1  0
 24 25  1  0
 25 26  1  0
 26 27  2  0
 26 28  1  0
 28 29  1  0
 29 30  1  0
 30 31  2  0
 30 32  1  0
 32 33  1  0
 33 34  1  0
 34 35  2  0
 32 36  1  0
 36 37  1  0
 37 38  1  0
 36 39  1  0
 28 40  1  0
 40 41  1  0
 41 42  1  0
 42 43  2  0
 42 44  1  0
 24 45  1  0
 45 46  1  0
 46 47  2  0
 46 48  1  0
 20 49  1  0
 49 50  2  0
 49 51  1  0
 51 52  1  0
 52 53  1  0
 53 54  1  0
 54 55  1  0
 55 56  1  0
 56 57  2  0
 56 58  1  0
 58 59  1  0
 59 60  1  0
 60 61  2  0
 60 62  1  0
 62 63  1  0
 63 64  1  0
 64 65  2  0
 64 66  1  0
 59 67  1  0
 67 68  1  0
 68 69  1  0
 68 70  1  0
 53 71  1  0
 71 72  1  0
  9  4  1  0
 34 11  1  0
 55 51  1  0
  1 73  1  0
  1 74  1  0
  1 75  1  0
  2 76  1  0
  2 77  1  0
  5 78  1  0
  6 79  1  0
  8 80  1  0
  9 81  1  0
 10 82  1  0
 10 83  1  0
 11 84  1  1
 12 85  1  0
 15 86  1  0
 15 87  1  0
 16 88  1  0
 16 89  1  0
 17 90  1  0
 17 91  1  0
 19 92  1  0
 19 93  1  0
 20 94  1  6
 21 95  1  0
 24 96  1  1
 25 97  1  0
 28 98  1  6
 29 99  1  0
 32100  1  1
 33101  1  0
 36102  1  6
 37103  1  0
 37104  1  0
 38105  1  0
 38106  1  0
 38107  1  0
 39108  1  0
 39109  1  0
 39110  1  0
 40111  1  0
 40112  1  0
 41113  1  0
 41114  1  0
 44115  1  0
 44116  1  0
 45117  1  0
 45118  1  0
 48119  1  0
 48120  1  0
 52121  1  0
 52122  1  0
 53123  1  1
 54124  1  0
 54125  1  0
 55126  1  6
 58127  1  0
 59128  1  6
 62129  1  0
 63130  1  0
 63131  1  0
 66132  1  0
 66133  1  0
 67134  1  0
 67135  1  0
 68136  1  0
 69137  1  0
 69138  1  0
 69139  1  0
 70140  1  0
 70141  1  0
 70142  1  0
 72143  1  0
 72144  1  0
 72145  1  0
M  END
>  <Ligand ID>  (1) 
LIG0001580

>  <Ligand>  (1) 
CHEMBL3353936

>  <SMILES>  (1) 
CCOc1ccc(cc1)C[C@@H]1NC(=O)CCCSC[C@H](NC(=O)[C@@H](NC(=O)[C@@H](NC(=O)[C@@H](NC1=O)[C@H](CC)C)CCC(=O)N)CC(=O)N)C(=O)N1C[C@H](C[C@H]1C(=O)N[C@H](C(=O)NCC(=O)N)CC(C)C)OC

>  <CID>  (1) 
118719825.0

>  <ChEMBL ID>  (1) 
nan

>  <InChiKey>  (1) 
FHJTUNPAVOIOKG-VGTQXBBOSA-N

>  <InChi>  (1) 
InChI=1S/C47H73N11O13S/c1-7-26(5)40-46(68)53-30(15-16-36(48)59)42(64)54-33(21-37(49)60)43(65)56-34(24-72-17-9-10-39(62)52-32(44(66)57-40)19-27-11-13-28(14-12-27)71-8-2)47(69)58-23-29(70-6)20-35(58)45(67)55-31(18-25(3)4)41(63)51-22-38(50)61/h11-14,25-26,29-35,40H,7-10,15-24H2,1-6H3,(H2,48,59)(H2,49,60)(H2,50,61)(H,51,63)(H,52,62)(H,53,68)(H,54,64)(H,55,67)(H,56,65)(H,57,66)/t26-,29-,30-,31-,32-,33-,34-,35-,40-/m0/s1

>  <IUPAC Name>  (1) 
(2S,4S)-N-[(2S)-1-[(2-amino-2-oxoethyl)amino]-4-methyl-1-oxopentan-2-yl]-1-[(3R,6S,9S,12S,15S)-6-(2-amino-2-oxoethyl)-9-(3-amino-3-oxopropyl)-12-[(2S)-butan-2-yl]-15-[(4-ethoxyphenyl)methyl]-5,8,11,14,17-pentaoxo-1-thia-4,7,10,13,16-pentazacycloicosane-3-carbonyl]-4-methoxypyrrolidine-2-carboxamide

$$$$
