
     RDKit          3D

 28 30  0  0  0  0  0  0  0  0999 V2000
   -3.4485    1.6301   -0.0878 C   0  0  0  0  0  0  0  0  0  0  0  0
   -2.7608    0.2981   -0.0405 C   0  0  0  0  0  0  0  0  0  0  0  0
   -3.4990   -0.8752    0.0489 C   0  0  0  0  0  0  0  0  0  0  0  0
   -2.8519   -2.0801    0.0908 C   0  0  0  0  0  0  0  0  0  0  0  0
   -1.5074   -2.0997    0.0441 N   0  0  0  0  0  0  0  0  0  0  0  0
   -0.7590   -0.9829   -0.0426 C   0  0  0  0  0  0  0  0  0  0  0  0
   -1.3812    0.2625   -0.0876 C   0  0  0  0  0  0  0  0  0  0  0  0
   -0.5997    1.3976   -0.1765 C   0  0  0  0  0  0  0  0  0  0  0  0
    0.7804    1.3620   -0.2235 C   0  0  0  0  0  0  0  0  0  0  0  0
    1.4003    0.1072   -0.1780 C   0  0  0  0  0  0  0  0  0  0  0  0
    0.6259   -1.0501   -0.0882 C   0  0  0  0  0  0  0  0  0  0  0  0
    1.2533   -2.2355   -0.0466 N   0  0  0  0  0  0  0  0  0  0  0  0
    2.6056   -2.3455   -0.0887 C   0  0  0  0  0  0  0  0  0  0  0  0
    3.4132   -1.2239   -0.1778 C   0  0  0  0  0  0  0  0  0  0  0  0
    2.7846    0.0063   -0.2217 C   0  0  0  0  0  0  0  0  0  0  0  0
    3.5819    1.2369   -0.3163 C   0  0  0  0  0  0  0  0  0  0  0  0
   -3.0743    2.3198    0.6706 H   0  0  0  0  0  0  0  0  0  0  0  0
   -3.2197    2.0546   -1.0903 H   0  0  0  0  0  0  0  0  0  0  0  0
   -4.5249    1.4597    0.0360 H   0  0  0  0  0  0  0  0  0  0  0  0
   -4.5864   -0.8269    0.0849 H   0  0  0  0  0  0  0  0  0  0  0  0
   -3.4023   -3.0193    0.1609 H   0  0  0  0  0  0  0  0  0  0  0  0
   -1.0917    2.3391   -0.2097 H   0  0  0  0  0  0  0  0  0  0  0  0
    1.3560    2.2741   -0.2931 H   0  0  0  0  0  0  0  0  0  0  0  0
    3.0392   -3.3506   -0.0500 H   0  0  0  0  0  0  0  0  0  0  0  0
    4.4829   -1.3543   -0.2088 H   0  0  0  0  0  0  0  0  0  0  0  0
    3.5342    1.7628    0.6817 H   0  0  0  0  0  0  0  0  0  0  0  0
    3.2099    1.9384   -1.1049 H   0  0  0  0  0  0  0  0  0  0  0  0
    4.6394    0.9948   -0.4612 H   0  0  0  0  0  0  0  0  0  0  0  0
  1  2  1  0
  2  3  2  0
  3  4  1  0
  4  5  2  0
  5  6  1  0
  6  7  2  0
  7  8  1  0
  8  9  2  0
  9 10  1  0
 10 11  2  0
 11 12  1  0
 12 13  2  0
 13 14  1  0
 14 15  2  0
 15 16  1  0
  7  2  1  0
 15 10  1  0
 11  6  1  0
  1 17  1  0
  1 18  1  0
  1 19  1  0
  3 20  1  0
  4 21  1  0
  8 22  1  0
  9 23  1  0
 13 24  1  0
 14 25  1  0
 16 26  1  0
 16 27  1  0
 16 28  1  0
M  END
>  <Ligand ID>  (1) 
LIG0003695

>  <Ligand>  (1) 
4,7-Dimethyl-1,10-phenanthroline

>  <SMILES>  (1) 
Cc1ccnc2c1ccc1c2nccc1C

>  <CID>  (1) 
72792.0

>  <ChEMBL ID>  (1) 
nan

>  <InChiKey>  (1) 
JIVLDFFWTQYGSR-UHFFFAOYSA-N

>  <InChi>  (1) 
InChI=1S/C14H12N2/c1-9-5-7-15-13-11(9)3-4-12-10(2)6-8-16-14(12)13/h3-8H,1-2H3

>  <IUPAC Name>  (1) 
4,7-dimethyl-1,10-phenanthroline

$$$$
