
     RDKit          3D

 42 44  0  0  0  0  0  0  0  0999 V2000
   -4.2236    2.3179   -1.4422 C   0  0  0  0  0  0  0  0  0  0  0  0
   -3.2571    1.4451   -0.7304 C   0  0  0  0  0  0  0  0  0  0  0  0
   -3.5133    0.0922   -0.6519 C   0  0  0  0  0  0  0  0  0  0  0  0
   -2.6535   -0.7711   -0.0040 C   0  0  0  0  0  0  0  0  0  0  0  0
   -1.4820   -0.3155    0.6033 C   0  0  0  0  0  0  0  0  0  0  0  0
   -1.2502    1.0404    0.5100 C   0  0  0  0  0  0  0  0  0  0  0  0
   -2.1046    1.9133   -0.1363 C   0  0  0  0  0  0  0  0  0  0  0  0
   -0.5587   -1.2561    1.2936 C   0  0  0  0  0  0  0  0  0  0  0  0
   -1.1726   -2.0170    2.2720 O   0  0  0  0  0  0  0  0  0  0  0  0
    0.6057   -0.5563    1.9592 C   0  0  0  0  0  0  0  0  0  0  0  0
    1.4946   -0.4079    0.8149 N   0  0  0  0  0  0  0  0  0  0  0  0
    1.2716   -1.5904    0.0533 C   0  0  0  0  0  0  0  0  0  0  0  0
    0.1334   -2.1058    0.2876 N   0  0  0  0  0  0  0  0  0  0  0  0
   -0.1574   -3.3055   -0.4243 C   0  0  0  0  0  0  0  0  0  0  0  0
    0.5801   -3.4094   -1.7057 C   0  0  0  0  0  0  0  0  0  0  0  0
    2.1521   -2.5848   -1.1885 S   0  0  0  0  0  0  0  0  0  0  0  0
    2.3820    0.6643    0.5209 C   0  0  0  0  0  0  0  0  0  0  0  0
    2.4906    1.7302    1.3597 C   0  0  0  0  0  0  0  0  0  0  0  0
    3.3634    2.7442    1.0326 C   0  0  0  0  0  0  0  0  0  0  0  0
    4.1270    2.7191   -0.1076 C   0  0  0  0  0  0  0  0  0  0  0  0
    4.0109    1.6251   -0.9619 C   0  0  0  0  0  0  0  0  0  0  0  0
    3.1291    0.5954   -0.6361 C   0  0  0  0  0  0  0  0  0  0  0  0
    0.0000    0.0000    0.0000 Br  0  0  0  0  0  0  0  0  0  0  0  0
   -3.6876    3.1665   -1.9144 H   0  0  0  0  0  0  0  0  0  0  0  0
   -4.7887    1.7174   -2.1761 H   0  0  0  0  0  0  0  0  0  0  0  0
   -4.9801    2.7272   -0.7267 H   0  0  0  0  0  0  0  0  0  0  0  0
   -4.4068   -0.2817   -1.1107 H   0  0  0  0  0  0  0  0  0  0  0  0
   -2.9329   -1.8087    0.0115 H   0  0  0  0  0  0  0  0  0  0  0  0
   -0.3669    1.4782    0.9502 H   0  0  0  0  0  0  0  0  0  0  0  0
   -1.8791    2.9731   -0.1832 H   0  0  0  0  0  0  0  0  0  0  0  0
   -1.3640   -2.9111    1.8495 H   0  0  0  0  0  0  0  0  0  0  0  0
    1.0754   -1.2990    2.6493 H   0  0  0  0  0  0  0  0  0  0  0  0
    0.3596    0.3710    2.4704 H   0  0  0  0  0  0  0  0  0  0  0  0
   -1.2503   -3.3339   -0.6930 H   0  0  0  0  0  0  0  0  0  0  0  0
   -0.0414   -4.2255    0.2224 H   0  0  0  0  0  0  0  0  0  0  0  0
    0.1231   -2.9259   -2.5611 H   0  0  0  0  0  0  0  0  0  0  0  0
    0.8849   -4.4720   -1.8616 H   0  0  0  0  0  0  0  0  0  0  0  0
    1.8976    1.7654    2.2599 H   0  0  0  0  0  0  0  0  0  0  0  0
    3.4721    3.6108    1.6848 H   0  0  0  0  0  0  0  0  0  0  0  0
    4.8217    3.4969   -0.3955 H   0  0  0  0  0  0  0  0  0  0  0  0
    4.6077    1.6030   -1.8554 H   0  0  0  0  0  0  0  0  0  0  0  0
    3.0881   -0.2190   -1.3386 H   0  0  0  0  0  0  0  0  0  0  0  0
  1  2  1  0
  2  3  2  0
  3  4  1  0
  4  5  2  0
  5  6  1  0
  6  7  2  0
  5  8  1  0
  8  9  1  0
  8 10  1  0
 10 11  1  0
 11 12  1  0
 12 13  2  0
 13 14  1  0
 14 15  1  0
 15 16  1  0
 11 17  1  0
 17 18  2  0
 18 19  1  0
 19 20  2  0
 20 21  1  0
 21 22  2  0
  7  2  1  0
 13  8  1  0
 22 17  1  0
 16 12  1  0
  1 24  1  0
  1 25  1  0
  1 26  1  0
  3 27  1  0
  4 28  1  0
  6 29  1  0
  7 30  1  0
  9 31  1  0
 10 32  1  0
 10 33  1  0
 14 34  1  0
 14 35  1  0
 15 36  1  0
 15 37  1  0
 18 38  1  0
 19 39  1  0
 20 40  1  0
 21 41  1  0
 22 42  1  0
M  CHG  2  13   1  23  -1
M  END
>  <Ligand ID>  (1) 
LIG0003802

>  <Ligand>  (1) 
SMR000236033

>  <SMILES>  (1) 
Cc1ccc(cc1)C1(O)CN(C2=[N+]1CCS2)c1ccccc1.[Br-]

>  <CID>  (1) 
12006111.0

>  <ChEMBL ID>  (1) 
nan

>  <InChiKey>  (1) 
XGPFBRJDZGGMMP-UHFFFAOYSA-M

>  <InChi>  (1) 
InChI=1S/C18H19N2OS.BrH/c1-14-7-9-15(10-8-14)18(21)13-19(16-5-3-2-4-6-16)17-20(18)11-12-22-17;/h2-10,21H,11-13H2,1H3;1H/q+1;/p-1

>  <IUPAC Name>  (1) 
5-(4-methylphenyl)-7-phenyl-3,6-dihydro-2H-imidazo[2,1-b][1,3]thiazol-4-ium-5-ol;bromide

$$$$
