
     RDKit          3D

 54 56  0  0  0  0  0  0  0  0999 V2000
   -8.7332    3.1432   -3.3810 C   0  0  0  0  0  0  0  0  0  0  0  0
   -7.5055    2.6918   -2.8409 O   0  0  0  0  0  0  0  0  0  0  0  0
   -6.3287    3.3863   -2.8385 C   0  0  0  0  0  0  0  0  0  0  0  0
   -6.3337    4.5436   -3.3690 O   0  0  0  0  0  0  0  0  0  0  0  0
   -5.1167    2.8222   -2.2510 C   0  0  0  0  0  0  0  0  0  0  0  0
   -5.1593    1.5741   -1.6923 C   0  0  0  0  0  0  0  0  0  0  0  0
   -4.0737    0.9561   -1.1143 C   0  0  0  0  0  0  0  0  0  0  0  0
   -2.8833    1.6821   -1.1219 C   0  0  0  0  0  0  0  0  0  0  0  0
   -2.8290    2.9329   -1.6787 C   0  0  0  0  0  0  0  0  0  0  0  0
   -3.9333    3.5400   -2.2568 C   0  0  0  0  0  0  0  0  0  0  0  0
   -1.7406    1.0472   -0.5202 N   0  0  0  0  0  0  0  0  0  0  0  0
   -0.8221    0.3330   -1.1801 C   0  0  0  0  0  0  0  0  0  0  0  0
   -0.8049    0.0606   -2.6443 C   0  0  0  0  0  0  0  0  0  0  0  0
    0.0860   -0.0875   -0.2311 C   0  0  0  0  0  0  0  0  0  0  0  0
   -0.2769    0.3702    1.0138 C   0  0  0  0  0  0  0  0  0  0  0  0
   -1.4404    1.0897    0.8108 C   0  0  0  0  0  0  0  0  0  0  0  0
   -2.2805    1.8131    1.8072 C   0  0  0  0  0  0  0  0  0  0  0  0
    0.3368    0.2039    2.3120 C   0  0  0  0  0  0  0  0  0  0  0  0
   -0.2343    0.7511    3.2953 O   0  0  0  0  0  0  0  0  0  0  0  0
    1.5732   -0.5501    2.5890 C   0  0  0  0  0  0  0  0  0  0  0  0
    2.1319   -1.1184    1.4510 O   0  0  0  0  0  0  0  0  0  0  0  0
    3.3009   -1.8789    1.4503 C   0  0  0  0  0  0  0  0  0  0  0  0
    3.9319   -2.0714    2.6600 C   0  0  0  0  0  0  0  0  0  0  0  0
    5.0911   -2.8181    2.7003 C   0  0  0  0  0  0  0  0  0  0  0  0
    5.5677   -3.3414    1.5165 C   0  0  0  0  0  0  0  0  0  0  0  0
    4.9363   -3.1489    0.3049 C   0  0  0  0  0  0  0  0  0  0  0  0
    3.7652   -2.3956    0.2585 C   0  0  0  0  0  0  0  0  0  0  0  0
    6.7543   -4.0939    1.6237 O   0  0  0  0  0  0  0  0  0  0  0  0
    7.9856   -3.4647    1.4955 C   0  0  0  0  0  0  0  0  0  0  0  0
    8.1017   -2.2236    1.2827 O   0  0  0  0  0  0  0  0  0  0  0  0
    9.2097   -4.2785    1.6125 C   0  0  0  0  0  0  0  0  0  0  0  0
   -8.6938    3.3688   -4.4484 H   0  0  0  0  0  0  0  0  0  0  0  0
   -9.0460    4.0644   -2.8481 H   0  0  0  0  0  0  0  0  0  0  0  0
   -9.4930    2.3712   -3.1215 H   0  0  0  0  0  0  0  0  0  0  0  0
   -6.0952    1.0291   -1.6980 H   0  0  0  0  0  0  0  0  0  0  0  0
   -4.1503   -0.0308   -0.6842 H   0  0  0  0  0  0  0  0  0  0  0  0
   -1.8942    3.4827   -1.6753 H   0  0  0  0  0  0  0  0  0  0  0  0
   -3.8748    4.5279   -2.6923 H   0  0  0  0  0  0  0  0  0  0  0  0
   -0.3463    0.9074   -3.2128 H   0  0  0  0  0  0  0  0  0  0  0  0
   -1.8350   -0.1692   -3.0099 H   0  0  0  0  0  0  0  0  0  0  0  0
   -0.1890   -0.8522   -2.8061 H   0  0  0  0  0  0  0  0  0  0  0  0
    0.9465   -0.6897   -0.4742 H   0  0  0  0  0  0  0  0  0  0  0  0
   -1.7916    2.7357    2.1675 H   0  0  0  0  0  0  0  0  0  0  0  0
   -2.4566    1.1170    2.6766 H   0  0  0  0  0  0  0  0  0  0  0  0
   -3.2672    2.0202    1.3971 H   0  0  0  0  0  0  0  0  0  0  0  0
    2.2822    0.0973    3.1562 H   0  0  0  0  0  0  0  0  0  0  0  0
    1.2552   -1.4186    3.2377 H   0  0  0  0  0  0  0  0  0  0  0  0
    3.5462   -1.6565    3.5706 H   0  0  0  0  0  0  0  0  0  0  0  0
    5.5823   -2.9680    3.6421 H   0  0  0  0  0  0  0  0  0  0  0  0
    5.3793   -3.5952   -0.5729 H   0  0  0  0  0  0  0  0  0  0  0  0
    3.2818   -2.2517   -0.6881 H   0  0  0  0  0  0  0  0  0  0  0  0
   10.1266   -3.6652    1.6966 H   0  0  0  0  0  0  0  0  0  0  0  0
    9.2546   -4.9509    0.7265 H   0  0  0  0  0  0  0  0  0  0  0  0
    9.2021   -4.9438    2.5003 H   0  0  0  0  0  0  0  0  0  0  0  0
  1  2  1  0
  2  3  1  0
  3  4  2  0
  3  5  1  0
  5  6  2  0
  6  7  1  0
  7  8  2  0
  8  9  1  0
  9 10  2  0
  8 11  1  0
 11 12  1  0
 12 13  1  0
 12 14  2  0
 14 15  1  0
 15 16  2  0
 16 17  1  0
 15 18  1  0
 18 19  2  0
 18 20  1  0
 20 21  1  0
 21 22  1  0
 22 23  2  0
 23 24  1  0
 24 25  2  0
 25 26  1  0
 26 27  2  0
 25 28  1  0
 28 29  1  0
 29 30  2  0
 29 31  1  0
 10  5  1  0
 16 11  1  0
 27 22  1  0
  1 32  1  0
  1 33  1  0
  1 34  1  0
  6 35  1  0
  7 36  1  0
  9 37  1  0
 10 38  1  0
 13 39  1  0
 13 40  1  0
 13 41  1  0
 14 42  1  0
 17 43  1  0
 17 44  1  0
 17 45  1  0
 20 46  1  0
 20 47  1  0
 23 48  1  0
 24 49  1  0
 26 50  1  0
 27 51  1  0
 31 52  1  0
 31 53  1  0
 31 54  1  0
M  END
>  <Ligand ID>  (1) 
LIG0003720

>  <Ligand>  (1) 
CHEMBL3560922

>  <SMILES>  (1) 
COC(=O)c1ccc(cc1)n1c(C)cc(c1C)C(=O)COc1ccc(cc1)OC(=O)C

>  <CID>  (1) 
73058514.0

>  <ChEMBL ID>  (1) 
nan

>  <InChiKey>  (1) 
GGXSBLZHGCKJOF-UHFFFAOYSA-N

>  <InChi>  (1) 
InChI=1S/C24H23NO6/c1-15-13-22(16(2)25(15)19-7-5-18(6-8-19)24(28)29-4)23(27)14-30-20-9-11-21(12-10-20)31-17(3)26/h5-13H,14H2,1-4H3

>  <IUPAC Name>  (1) 
methyl 4-[3-[2-(4-acetyloxyphenoxy)acetyl]-2,5-dimethylpyrrol-1-yl]benzoate

$$$$
