
     RDKit          3D

 24 23  0  0  0  0  0  0  0  0999 V2000
   -3.9818   -0.0598    0.0375 C   0  0  0  0  0  0  0  0  0  0  0  0
   -2.6235    0.2181    0.5912 C   0  0  0  0  0  0  0  0  0  0  0  0
   -1.4908   -0.2414   -0.2933 C   0  0  0  0  0  0  0  0  0  0  0  0
   -0.2189    0.1407    0.4626 C   0  0  0  0  0  0  0  0  0  0  0  0
    0.9720   -0.2916   -0.3684 C   0  0  0  0  0  0  0  0  0  0  0  0
    2.2366    0.0977    0.4017 C   0  0  0  0  0  0  0  0  0  0  0  0
    3.4037   -0.3419   -0.4435 C   0  0  0  0  0  0  0  0  0  0  0  0
    4.9898    0.0525    0.3394 S   0  0  0  0  0  0  0  0  0  0  0  0
   -4.0245   -0.0916   -1.0615 H   0  0  0  0  0  0  0  0  0  0  0  0
   -4.4426   -0.9669    0.4773 H   0  0  0  0  0  0  0  0  0  0  0  0
   -4.6629    0.7774    0.3521 H   0  0  0  0  0  0  0  0  0  0  0  0
   -2.5120   -0.2669    1.5808 H   0  0  0  0  0  0  0  0  0  0  0  0
   -2.4832    1.3322    0.7007 H   0  0  0  0  0  0  0  0  0  0  0  0
   -1.4824   -1.3396   -0.4409 H   0  0  0  0  0  0  0  0  0  0  0  0
   -1.4716    0.2700   -1.2626 H   0  0  0  0  0  0  0  0  0  0  0  0
   -0.2102    1.2544    0.5616 H   0  0  0  0  0  0  0  0  0  0  0  0
   -0.2047   -0.3235    1.4590 H   0  0  0  0  0  0  0  0  0  0  0  0
    0.9707    0.2374   -1.3389 H   0  0  0  0  0  0  0  0  0  0  0  0
    0.9223   -1.3740   -0.5547 H   0  0  0  0  0  0  0  0  0  0  0  0
    2.1898    1.1963    0.5301 H   0  0  0  0  0  0  0  0  0  0  0  0
    2.2777   -0.4181    1.3693 H   0  0  0  0  0  0  0  0  0  0  0  0
    3.3506   -1.4490   -0.5256 H   0  0  0  0  0  0  0  0  0  0  0  0
    3.3472    0.1544   -1.4314 H   0  0  0  0  0  0  0  0  0  0  0  0
    5.1488    1.4331    0.5382 H   0  0  0  0  0  0  0  0  0  0  0  0
  1  2  1  0
  2  3  1  0
  3  4  1  0
  4  5  1  0
  5  6  1  0
  6  7  1  0
  7  8  1  0
  1  9  1  0
  1 10  1  0
  1 11  1  0
  2 12  1  0
  2 13  1  0
  3 14  1  0
  3 15  1  0
  4 16  1  0
  4 17  1  0
  5 18  1  0
  5 19  1  0
  6 20  1  0
  6 21  1  0
  7 22  1  0
  7 23  1  0
  8 24  1  0
M  END
>  <Ligand ID>  (1) 
LIG0001056

>  <Ligand>  (1) 
1-Heptanethiol

>  <SMILES>  (1) 
CCCCCCCS

>  <CID>  (1) 
15422.0

>  <ChEMBL ID>  (1) 
nan

>  <InChiKey>  (1) 
VPIAKHNXCOTPAY-UHFFFAOYSA-N

>  <InChi>  (1) 
InChI=1S/C7H16S/c1-2-3-4-5-6-7-8/h8H,2-7H2,1H3

>  <IUPAC Name>  (1) 
heptane-1-thiol

$$$$
