
     RDKit          3D

 56 60  0  0  0  0  0  0  0  0999 V2000
    3.7569    2.4188   -1.4447 C   0  0  0  0  0  0  0  0  0  0  0  0
    3.0222    1.2464   -1.2842 O   0  0  0  0  0  0  0  0  0  0  0  0
    1.8075    1.0707   -0.7145 C   0  0  0  0  0  0  0  0  0  0  0  0
    1.1718    2.2145   -0.2071 C   0  0  0  0  0  0  0  0  0  0  0  0
   -0.0632    2.1554    0.3876 C   0  0  0  0  0  0  0  0  0  0  0  0
   -0.6526    0.9002    0.4611 C   0  0  0  0  0  0  0  0  0  0  0  0
   -0.0269   -0.2167   -0.0364 C   0  0  0  0  0  0  0  0  0  0  0  0
    1.2414   -0.1589   -0.6469 C   0  0  0  0  0  0  0  0  0  0  0  0
    1.7889   -1.4500   -1.0988 C   0  0  0  0  0  0  0  0  0  0  0  0
    2.9083   -2.2754   -0.0217 S   0  0  0  0  0  0  0  0  0  0  0  0
    4.5606   -1.7412    0.1202 C   0  0  0  0  0  0  0  0  0  0  0  0
    5.2624   -0.9347   -0.7360 C   0  0  0  0  0  0  0  0  0  0  0  0
    6.5667   -0.5270   -0.5239 C   0  0  0  0  0  0  0  0  0  0  0  0
    7.2282   -0.9425    0.6092 C   0  0  0  0  0  0  0  0  0  0  0  0
    6.5177   -1.7585    1.4726 C   0  0  0  0  0  0  0  0  0  0  0  0
    5.2528   -2.1378    1.2415 N   0  0  0  0  0  0  0  0  0  0  0  0
   -2.0020    0.8585    1.1076 C   0  0  0  0  0  0  0  0  0  0  0  0
   -2.7689    1.9657    0.5091 N   0  0  0  0  0  0  0  0  0  0  0  0
   -3.1309    1.7564   -0.8692 C   0  0  0  0  0  0  0  0  0  0  0  0
   -3.3319    2.8757   -1.6664 C   0  0  0  0  0  0  0  0  0  0  0  0
   -3.6836    2.6724   -3.0023 C   0  0  0  0  0  0  0  0  0  0  0  0
   -3.8189    1.3758   -3.4827 C   0  0  0  0  0  0  0  0  0  0  0  0
   -3.6134    0.2678   -2.6681 C   0  0  0  0  0  0  0  0  0  0  0  0
   -3.2653    0.4679   -1.3457 C   0  0  0  0  0  0  0  0  0  0  0  0
   -3.0476   -0.6869   -0.4754 C   0  0  0  0  0  0  0  0  0  0  0  0
   -3.1570   -1.8760   -0.8610 O   0  0  0  0  0  0  0  0  0  0  0  0
   -2.6901   -0.3917    0.8907 N   0  0  0  0  0  0  0  0  0  0  0  0
   -3.0254   -1.3075    1.9206 C   0  0  0  0  0  0  0  0  0  0  0  0
   -4.2716   -1.1198    2.5223 C   0  0  0  0  0  0  0  0  0  0  0  0
   -4.6948   -1.9594    3.5381 C   0  0  0  0  0  0  0  0  0  0  0  0
   -3.8557   -2.9985    3.9528 C   0  0  0  0  0  0  0  0  0  0  0  0
   -2.6220   -3.1916    3.3638 C   0  0  0  0  0  0  0  0  0  0  0  0
   -2.2224   -2.3318    2.3444 C   0  0  0  0  0  0  0  0  0  0  0  0
   -4.2885   -3.8223    4.9603 F   0  0  0  0  0  0  0  0  0  0  0  0
    4.5845    2.1815   -2.1603 H   0  0  0  0  0  0  0  0  0  0  0  0
    4.2736    2.5952   -0.4600 H   0  0  0  0  0  0  0  0  0  0  0  0
    3.1625    3.2944   -1.7536 H   0  0  0  0  0  0  0  0  0  0  0  0
    1.6586    3.1761   -0.2810 H   0  0  0  0  0  0  0  0  0  0  0  0
   -0.5329    3.0267    0.7672 H   0  0  0  0  0  0  0  0  0  0  0  0
   -0.5481   -1.1588    0.0552 H   0  0  0  0  0  0  0  0  0  0  0  0
    2.1993   -1.3182   -2.1484 H   0  0  0  0  0  0  0  0  0  0  0  0
    0.9038   -2.1429   -1.2701 H   0  0  0  0  0  0  0  0  0  0  0  0
    4.7928   -0.6195   -1.6315 H   0  0  0  0  0  0  0  0  0  0  0  0
    7.0805    0.1226   -1.2464 H   0  0  0  0  0  0  0  0  0  0  0  0
    8.2488   -0.6317    0.7878 H   0  0  0  0  0  0  0  0  0  0  0  0
    7.0059   -2.1152    2.3906 H   0  0  0  0  0  0  0  0  0  0  0  0
   -1.9262    1.0918    2.1897 H   0  0  0  0  0  0  0  0  0  0  0  0
   -3.0233    2.8194    1.0355 H   0  0  0  0  0  0  0  0  0  0  0  0
   -3.2146    3.8641   -1.2432 H   0  0  0  0  0  0  0  0  0  0  0  0
   -3.8385    3.5475   -3.6170 H   0  0  0  0  0  0  0  0  0  0  0  0
   -4.0938    1.2152   -4.5281 H   0  0  0  0  0  0  0  0  0  0  0  0
   -3.7248   -0.7412   -3.0654 H   0  0  0  0  0  0  0  0  0  0  0  0
   -4.9192   -0.3173    2.2017 H   0  0  0  0  0  0  0  0  0  0  0  0
   -5.6687   -1.8141    4.0093 H   0  0  0  0  0  0  0  0  0  0  0  0
   -1.9993   -4.0067    3.7112 H   0  0  0  0  0  0  0  0  0  0  0  0
   -1.2734   -2.4873    1.8977 H   0  0  0  0  0  0  0  0  0  0  0  0
  1  2  1  0
  2  3  1  0
  3  4  2  0
  4  5  1  0
  5  6  2  0
  6  7  1  0
  7  8  2  0
  8  9  1  0
  9 10  1  0
 10 11  1  0
 11 12  2  0
 12 13  1  0
 13 14  2  0
 14 15  1  0
 15 16  2  0
  6 17  1  0
 17 18  1  0
 18 19  1  0
 19 20  2  0
 20 21  1  0
 21 22  2  0
 22 23  1  0
 23 24  2  0
 24 25  1  0
 25 26  2  0
 25 27  1  0
 27 28  1  0
 28 29  2  0
 29 30  1  0
 30 31  2  0
 31 32  1  0
 32 33  2  0
 31 34  1  0
  8  3  1  0
 16 11  1  0
 27 17  1  0
 33 28  1  0
 24 19  1  0
  1 35  1  0
  1 36  1  0
  1 37  1  0
  4 38  1  0
  5 39  1  0
  7 40  1  0
  9 41  1  0
  9 42  1  0
 12 43  1  0
 13 44  1  0
 14 45  1  0
 15 46  1  0
 17 47  1  0
 18 48  1  0
 20 49  1  0
 21 50  1  0
 22 51  1  0
 23 52  1  0
 29 53  1  0
 30 54  1  0
 32 55  1  0
 33 56  1  0
M  END
>  <Ligand ID>  (1) 
LIG0004732

>  <Ligand>  (1) 
SMR000212615

>  <SMILES>  (1) 
COc1ccc(cc1CSc1ccccn1)C1Nc2ccccc2C(=O)N1c1ccc(cc1)F

>  <CID>  (1) 
3763981.0

>  <ChEMBL ID>  (1) 
nan

>  <InChiKey>  (1) 
UTKZKGGRJXHSHT-UHFFFAOYSA-N

>  <InChi>  (1) 
InChI=1S/C27H22FN3O2S/c1-33-24-14-9-18(16-19(24)17-34-25-8-4-5-15-29-25)26-30-23-7-3-2-6-22(23)27(32)31(26)21-12-10-20(28)11-13-21/h2-16,26,30H,17H2,1H3

>  <IUPAC Name>  (1) 
3-(4-fluorophenyl)-2-[4-methoxy-3-(pyridin-2-ylsulfanylmethyl)phenyl]-1,2-dihydroquinazolin-4-one

$$$$
