
     RDKit          3D

 13 13  0  0  0  0  0  0  0  0999 V2000
   -2.6576    0.4052    0.9831 S   0  0  0  0  0  0  0  0  0  0  0  0
   -1.7925   -0.2616   -0.4659 C   0  0  0  0  0  0  0  0  0  0  0  0
   -0.3672   -0.1210   -0.2767 C   0  0  0  0  0  0  0  0  0  0  0  0
    0.6115   -0.9037    0.2847 C   0  0  0  0  0  0  0  0  0  0  0  0
    1.8678   -0.4809    0.2999 C   0  0  0  0  0  0  0  0  0  0  0  0
    2.1082    0.7822   -0.2815 C   0  0  0  0  0  0  0  0  0  0  0  0
    0.5955    1.3835   -0.8485 S   0  0  0  0  0  0  0  0  0  0  0  0
   -2.2782    1.7429    1.1546 H   0  0  0  0  0  0  0  0  0  0  0  0
   -2.1344    0.3703   -1.3167 H   0  0  0  0  0  0  0  0  0  0  0  0
   -2.1380   -1.2753   -0.6348 H   0  0  0  0  0  0  0  0  0  0  0  0
    0.3105   -1.8921    0.7195 H   0  0  0  0  0  0  0  0  0  0  0  0
    2.7197   -1.0263    0.7214 H   0  0  0  0  0  0  0  0  0  0  0  0
    3.1546    1.2766   -0.3392 H   0  0  0  0  0  0  0  0  0  0  0  0
  1  2  1  0
  2  3  1  0
  3  4  2  0
  4  5  1  0
  5  6  2  0
  6  7  1  0
  7  3  1  0
  1  8  1  0
  2  9  1  0
  2 10  1  0
  4 11  1  0
  5 12  1  0
  6 13  1  0
M  END
>  <Ligand ID>  (1) 
LIG0000574

>  <Ligand>  (1) 
Thenyl mercaptan

>  <SMILES>  (1) 
SCc1cccs1

>  <CID>  (1) 
80408.0

>  <ChEMBL ID>  (1) 
nan

>  <InChiKey>  (1) 
GCZQHDFWKVMZOE-UHFFFAOYSA-N

>  <InChi>  (1) 
InChI=1S/C5H6S2/c6-4-5-2-1-3-7-5/h1-3,6H,4H2

>  <IUPAC Name>  (1) 
thiophen-2-ylmethanethiol

$$$$
