
     RDKit          3D

 65 67  0  0  0  0  0  0  0  0999 V2000
   -1.6037    2.3313    0.6528 C   0  0  0  0  0  0  0  0  0  0  0  0
   -2.4505    1.3490   -0.0897 C   0  0  2  0  0  0  0  0  0  0  0  0
   -3.5054    0.8079    0.8771 C   0  0  0  0  0  0  0  0  0  0  0  0
   -4.1163   -0.4157    0.3980 N   0  0  0  0  0  0  0  0  0  0  0  0
   -3.2647   -1.4767   -0.1677 C   0  0  0  0  0  0  0  0  0  0  0  0
   -2.5308   -0.7786   -1.3164 C   0  0  1  0  0  0  0  0  0  0  0  0
   -1.7070    0.2293   -0.6462 N   0  0  0  0  0  0  0  0  0  0  0  0
   -0.2932    0.1091   -0.5419 C   0  0  0  0  0  0  0  0  0  0  0  0
    0.3501   -1.0228   -0.9041 N   0  0  0  0  0  0  0  0  0  0  0  0
    1.6814   -1.1906   -0.8334 C   0  0  0  0  0  0  0  0  0  0  0  0
    2.4711   -0.1621   -0.3659 C   0  0  0  0  0  0  0  0  0  0  0  0
    1.8289    0.9997    0.0079 C   0  0  0  0  0  0  0  0  0  0  0  0
    0.4916    1.1037   -0.0875 N   0  0  0  0  0  0  0  0  0  0  0  0
    3.8472   -0.2346   -0.2551 O   0  0  0  0  0  0  0  0  0  0  0  0
    4.6299   -1.3316   -0.5905 C   0  0  0  0  0  0  0  0  0  0  0  0
    6.0402   -0.9944   -0.3233 C   0  0  0  0  0  0  0  0  0  0  0  0
    6.6936   -1.2037    0.8538 C   0  0  0  0  0  0  0  0  0  0  0  0
    8.0374   -0.8344    0.9706 C   0  0  0  0  0  0  0  0  0  0  0  0
    8.7288   -0.2608   -0.0746 C   0  0  0  0  0  0  0  0  0  0  0  0
    8.0687   -0.0534   -1.2523 C   0  0  0  0  0  0  0  0  0  0  0  0
    6.7507   -0.4117   -1.3779 C   0  0  0  0  0  0  0  0  0  0  0  0
   10.4090    0.2125    0.0369 S   0  0  0  0  0  0  0  0  0  0  0  0
   11.0440    0.1960   -1.3319 O   0  0  0  0  0  0  0  0  0  0  0  0
   11.1311   -0.6711    0.9890 O   0  0  0  0  0  0  0  0  0  0  0  0
   10.4372    1.8924    0.6063 C   0  0  0  0  0  0  0  0  0  0  0  0
   -1.7788   -1.7031   -2.1979 C   0  0  0  0  0  0  0  0  0  0  0  0
   -5.5339   -0.6380    0.4515 C   0  0  0  0  0  0  0  0  0  0  0  0
   -6.0393   -1.7147    0.0275 O   0  0  0  0  0  0  0  0  0  0  0  0
   -6.3617    0.3200    0.9660 O   0  0  0  0  0  0  0  0  0  0  0  0
   -7.7646    0.2306    1.0765 C   0  0  0  0  0  0  0  0  0  0  0  0
   -8.4366    0.0451   -0.2645 C   0  0  0  0  0  0  0  0  0  0  0  0
   -8.2503   -0.8392    1.9985 C   0  0  0  0  0  0  0  0  0  0  0  0
   -8.2434    1.5839    1.6052 C   0  0  0  0  0  0  0  0  0  0  0  0
   -2.3154    3.0859    1.0981 H   0  0  0  0  0  0  0  0  0  0  0  0
   -1.0282    1.9072    1.5004 H   0  0  0  0  0  0  0  0  0  0  0  0
   -1.0041    2.9051   -0.0694 H   0  0  0  0  0  0  0  0  0  0  0  0
   -2.9314    1.9093   -0.9219 H   0  0  0  0  0  0  0  0  0  0  0  0
   -2.9628    0.6279    1.8513 H   0  0  0  0  0  0  0  0  0  0  0  0
   -4.2390    1.6245    0.9830 H   0  0  0  0  0  0  0  0  0  0  0  0
   -3.8715   -2.2767   -0.5950 H   0  0  0  0  0  0  0  0  0  0  0  0
   -2.5098   -1.7628    0.5659 H   0  0  0  0  0  0  0  0  0  0  0  0
   -3.2868   -0.1853   -1.9156 H   0  0  0  0  0  0  0  0  0  0  0  0
    2.1528   -2.1114   -1.1333 H   0  0  0  0  0  0  0  0  0  0  0  0
    2.3539    1.8662    0.3876 H   0  0  0  0  0  0  0  0  0  0  0  0
    4.4439   -1.7431   -1.5981 H   0  0  0  0  0  0  0  0  0  0  0  0
    4.3782   -2.1681    0.1173 H   0  0  0  0  0  0  0  0  0  0  0  0
    6.1473   -1.6538    1.6711 H   0  0  0  0  0  0  0  0  0  0  0  0
    8.5583   -0.9926    1.8832 H   0  0  0  0  0  0  0  0  0  0  0  0
    8.5746    0.3945   -2.0979 H   0  0  0  0  0  0  0  0  0  0  0  0
    6.2669   -0.2237   -2.3444 H   0  0  0  0  0  0  0  0  0  0  0  0
   11.4550    2.2052    0.8885 H   0  0  0  0  0  0  0  0  0  0  0  0
   10.0179    2.5419   -0.1954 H   0  0  0  0  0  0  0  0  0  0  0  0
    9.7642    2.0165    1.4686 H   0  0  0  0  0  0  0  0  0  0  0  0
   -2.5003   -2.1022   -2.9523 H   0  0  0  0  0  0  0  0  0  0  0  0
   -1.0397   -1.1417   -2.7831 H   0  0  0  0  0  0  0  0  0  0  0  0
   -1.2977   -2.5206   -1.6268 H   0  0  0  0  0  0  0  0  0  0  0  0
   -8.8781   -0.9714   -0.3542 H   0  0  0  0  0  0  0  0  0  0  0  0
   -7.6241    0.0754   -1.0418 H   0  0  0  0  0  0  0  0  0  0  0  0
   -9.1195    0.8600   -0.5299 H   0  0  0  0  0  0  0  0  0  0  0  0
   -8.2600   -0.5834    3.0637 H   0  0  0  0  0  0  0  0  0  0  0  0
   -7.7510   -1.8146    1.7925 H   0  0  0  0  0  0  0  0  0  0  0  0
   -9.3289   -1.0291    1.7264 H   0  0  0  0  0  0  0  0  0  0  0  0
   -8.0645    1.6409    2.6986 H   0  0  0  0  0  0  0  0  0  0  0  0
   -9.2947    1.7927    1.3181 H   0  0  0  0  0  0  0  0  0  0  0  0
   -7.5663    2.3541    1.1646 H   0  0  0  0  0  0  0  0  0  0  0  0
  1  2  1  0
  2  3  1  0
  3  4  1  0
  4  5  1  0
  5  6  1  0
  6  7  1  0
  7  8  1  0
  8  9  2  0
  9 10  1  0
 10 11  2  0
 11 12  1  0
 12 13  2  0
 11 14  1  0
 14 15  1  0
 15 16  1  0
 16 17  2  0
 17 18  1  0
 18 19  2  0
 19 20  1  0
 20 21  2  0
 19 22  1  0
 22 23  2  0
 22 24  2  0
 22 25  1  0
  6 26  1  0
  4 27  1  0
 27 28  2  0
 27 29  1  0
 29 30  1  0
 30 31  1  0
 30 32  1  0
 30 33  1  0
  7  2  1  0
 13  8  1  0
 21 16  1  0
  1 34  1  0
  1 35  1  0
  1 36  1  0
  2 37  1  6
  3 38  1  0
  3 39  1  0
  5 40  1  0
  5 41  1  0
  6 42  1  6
 10 43  1  0
 12 44  1  0
 15 45  1  0
 15 46  1  0
 17 47  1  0
 18 48  1  0
 20 49  1  0
 21 50  1  0
 25 51  1  0
 25 52  1  0
 25 53  1  0
 26 54  1  0
 26 55  1  0
 26 56  1  0
 31 57  1  0
 31 58  1  0
 31 59  1  0
 32 60  1  0
 32 61  1  0
 32 62  1  0
 33 63  1  0
 33 64  1  0
 33 65  1  0
M  END
>  <Ligand ID>  (1) 
LIG0005260

>  <Ligand>  (1) 
CHEMBL2086664

>  <SMILES>  (1) 
C[C@@H]1CN(C[C@@H](N1c1ncc(cn1)OCc1ccc(cc1)S(=O)(=O)C)C)C(=O)OC(C)(C)C

>  <CID>  (1) 
58190343.0

>  <ChEMBL ID>  (1) 
nan

>  <InChiKey>  (1) 
RKLGJSYZCKSOIU-CALCHBBNSA-N

>  <InChi>  (1) 
InChI=1S/C23H32N4O5S/c1-16-13-26(22(28)32-23(3,4)5)14-17(2)27(16)21-24-11-19(12-25-21)31-15-18-7-9-20(10-8-18)33(6,29)30/h7-12,16-17H,13-15H2,1-6H3/t16-,17+

>  <IUPAC Name>  (1) 
tert-butyl (3S,5R)-3,5-dimethyl-4-[5-[(4-methylsulfonylphenyl)methoxy]pyrimidin-2-yl]piperazine-1-carboxylate

$$$$
