
     RDKit          3D

 20 20  0  0  0  0  0  0  0  0999 V2000
    2.6059   -0.8880    0.6125 C   0  0  0  0  0  0  0  0  0  0  0  0
    1.1924   -1.1650    0.2145 C   0  0  0  0  0  0  0  0  0  0  0  0
    0.8303   -2.3286    0.0114 O   0  0  0  0  0  0  0  0  0  0  0  0
    0.2755   -0.0431    0.0767 C   0  0  0  0  0  0  0  0  0  0  0  0
    0.6860    1.2522    0.3048 C   0  0  0  0  0  0  0  0  0  0  0  0
   -0.1790    2.3211    0.1758 C   0  0  0  0  0  0  0  0  0  0  0  0
   -1.4904    2.0994   -0.1902 C   0  0  0  0  0  0  0  0  0  0  0  0
   -1.9035    0.8012   -0.4193 C   0  0  0  0  0  0  0  0  0  0  0  0
   -1.0451   -0.2862   -0.2937 C   0  0  0  0  0  0  0  0  0  0  0  0
   -1.5086   -1.6770   -0.5446 C   0  0  0  0  0  0  0  0  0  0  0  0
    3.2270   -1.7926    0.5755 H   0  0  0  0  0  0  0  0  0  0  0  0
    2.9735   -0.1512   -0.1615 H   0  0  0  0  0  0  0  0  0  0  0  0
    2.6901   -0.3597    1.5650 H   0  0  0  0  0  0  0  0  0  0  0  0
    1.7134    1.4261    0.5916 H   0  0  0  0  0  0  0  0  0  0  0  0
    0.1721    3.3406    0.3627 H   0  0  0  0  0  0  0  0  0  0  0  0
   -2.2097    2.8956   -0.3061 H   0  0  0  0  0  0  0  0  0  0  0  0
   -2.9496    0.6468   -0.7092 H   0  0  0  0  0  0  0  0  0  0  0  0
   -2.5875   -1.6231   -0.8151 H   0  0  0  0  0  0  0  0  0  0  0  0
   -1.0127   -2.1521   -1.4154 H   0  0  0  0  0  0  0  0  0  0  0  0
   -1.4800   -2.3166    0.3646 H   0  0  0  0  0  0  0  0  0  0  0  0
  1  2  1  0
  2  3  2  0
  2  4  1  0
  4  5  2  0
  5  6  1  0
  6  7  2  0
  7  8  1  0
  8  9  2  0
  9 10  1  0
  9  4  1  0
  1 11  1  0
  1 12  1  0
  1 13  1  0
  5 14  1  0
  6 15  1  0
  7 16  1  0
  8 17  1  0
 10 18  1  0
 10 19  1  0
 10 20  1  0
M  END
>  <Ligand ID>  (1) 
LIG0004989

>  <Ligand>  (1) 
1-(2-methylphenyl)ethanone

>  <SMILES>  (1) 
CC(=O)c1ccccc1C

>  <CID>  (1) 
11340.0

>  <ChEMBL ID>  (1) 
nan

>  <InChiKey>  (1) 
YXWWHNCQZBVZPV-UHFFFAOYSA-N

>  <InChi>  (1) 
InChI=1S/C9H10O/c1-7-5-3-4-6-9(7)8(2)10/h3-6H,1-2H3

>  <IUPAC Name>  (1) 
1-(2-methylphenyl)ethanone

$$$$
