
     RDKit          3D

 52 55  0  0  0  0  0  0  0  0999 V2000
   -8.5304   -0.7112    0.5234 C   0  0  0  0  0  0  0  0  0  0  0  0
   -7.1879   -0.9465    1.1950 C   0  0  0  0  0  0  0  0  0  0  0  0
   -6.1900   -0.2400    0.4205 N   0  0  0  0  0  0  0  0  0  0  0  0
   -4.8529   -0.3033    0.8421 C   0  0  0  0  0  0  0  0  0  0  0  0
   -4.5656   -0.9768    1.8864 O   0  0  0  0  0  0  0  0  0  0  0  0
   -3.8268    0.4144    0.0583 C   0  0  1  0  0  0  0  0  0  0  0  0
   -2.5444    0.2547    0.6059 O   0  0  0  0  0  0  0  0  0  0  0  0
   -1.8293    0.9383   -0.4006 C   0  0  2  0  0  0  0  0  0  0  0  0
   -2.1720    0.0849   -1.5897 C   0  0  1  0  0  0  0  0  0  0  0  0
   -3.6771   -0.1149   -1.3577 C   0  0  2  0  0  0  0  0  0  0  0  0
   -4.3317    0.7467   -2.2119 O   0  0  0  0  0  0  0  0  0  0  0  0
   -1.9337    0.7392   -2.7904 O   0  0  0  0  0  0  0  0  0  0  0  0
   -0.4369    1.0576   -0.1357 N   0  0  0  0  0  0  0  0  0  0  0  0
    0.1142    2.0476    0.5990 C   0  0  0  0  0  0  0  0  0  0  0  0
    1.4430    1.8599    0.6505 N   0  0  0  0  0  0  0  0  0  0  0  0
    1.7534    0.7681   -0.0376 C   0  0  0  0  0  0  0  0  0  0  0  0
    0.5766    0.2527   -0.5385 C   0  0  0  0  0  0  0  0  0  0  0  0
    0.6296   -0.8507   -1.2685 N   0  0  0  0  0  0  0  0  0  0  0  0
    1.8196   -1.4363   -1.5014 C   0  0  0  0  0  0  0  0  0  0  0  0
    2.9840   -0.9391   -1.0143 N   0  0  0  0  0  0  0  0  0  0  0  0
    2.9883    0.1909   -0.2589 C   0  0  0  0  0  0  0  0  0  0  0  0
    4.1925    0.7379    0.2668 N   0  0  0  0  0  0  0  0  0  0  0  0
    5.4328    0.0565   -0.0233 C   0  0  2  0  0  0  0  0  0  0  0  0
    5.3330   -1.3413    0.5341 C   0  0  0  0  0  0  0  0  0  0  0  0
    6.4547   -1.4465    1.5506 C   0  0  0  0  0  0  0  0  0  0  0  0
    6.6888   -0.0015    1.9686 C   0  0  0  0  0  0  0  0  0  0  0  0
    6.6082    0.7018    0.6343 C   0  0  1  0  0  0  0  0  0  0  0  0
    7.7663    0.4042   -0.0833 O   0  0  0  0  0  0  0  0  0  0  0  0
   -8.5695   -1.3347   -0.3914 H   0  0  0  0  0  0  0  0  0  0  0  0
   -9.3568   -0.9379    1.2296 H   0  0  0  0  0  0  0  0  0  0  0  0
   -8.5820    0.3557    0.1712 H   0  0  0  0  0  0  0  0  0  0  0  0
   -7.2390   -0.5805    2.2405 H   0  0  0  0  0  0  0  0  0  0  0  0
   -7.0194   -2.0443    1.2221 H   0  0  0  0  0  0  0  0  0  0  0  0
   -6.4304    0.3202   -0.4486 H   0  0  0  0  0  0  0  0  0  0  0  0
   -3.9937    1.5172    0.0192 H   0  0  0  0  0  0  0  0  0  0  0  0
   -2.3545    1.9037   -0.5378 H   0  0  0  0  0  0  0  0  0  0  0  0
   -1.7337   -0.9325   -1.5393 H   0  0  0  0  0  0  0  0  0  0  0  0
   -3.9815   -1.1649   -1.4480 H   0  0  0  0  0  0  0  0  0  0  0  0
   -4.3064    1.6649   -1.8362 H   0  0  0  0  0  0  0  0  0  0  0  0
   -1.4403    1.5612   -2.5709 H   0  0  0  0  0  0  0  0  0  0  0  0
   -0.4228    2.8549    1.0669 H   0  0  0  0  0  0  0  0  0  0  0  0
    1.9066   -2.3352   -2.0903 H   0  0  0  0  0  0  0  0  0  0  0  0
    4.1171    1.5971    0.8308 H   0  0  0  0  0  0  0  0  0  0  0  0
    5.6161    0.0504   -1.1191 H   0  0  0  0  0  0  0  0  0  0  0  0
    4.3487   -1.5213    1.0381 H   0  0  0  0  0  0  0  0  0  0  0  0
    5.4185   -2.0429   -0.3010 H   0  0  0  0  0  0  0  0  0  0  0  0
    6.1945   -2.0909    2.4133 H   0  0  0  0  0  0  0  0  0  0  0  0
    7.3519   -1.8007    1.0096 H   0  0  0  0  0  0  0  0  0  0  0  0
    5.8497    0.3552    2.5891 H   0  0  0  0  0  0  0  0  0  0  0  0
    7.6896    0.1255    2.4298 H   0  0  0  0  0  0  0  0  0  0  0  0
    6.5048    1.7977    0.7472 H   0  0  0  0  0  0  0  0  0  0  0  0
    7.7256    0.7349   -1.0186 H   0  0  0  0  0  0  0  0  0  0  0  0
  1  2  1  0
  2  3  1  0
  3  4  1  0
  4  5  2  0
  4  6  1  0
  6  7  1  0
  7  8  1  0
  8  9  1  0
  9 10  1  0
 10 11  1  0
  9 12  1  0
  8 13  1  0
 13 14  1  0
 14 15  2  0
 15 16  1  0
 16 17  2  0
 17 18  1  0
 18 19  2  0
 19 20  1  0
 20 21  2  0
 21 22  1  0
 22 23  1  0
 23 24  1  0
 24 25  1  0
 25 26  1  0
 26 27  1  0
 27 28  1  0
 10  6  1  0
 17 13  1  0
 27 23  1  0
 21 16  1  0
  1 29  1  0
  1 30  1  0
  1 31  1  0
  2 32  1  0
  2 33  1  0
  3 34  1  0
  6 35  1  6
  8 36  1  6
  9 37  1  6
 10 38  1  1
 11 39  1  0
 12 40  1  0
 14 41  1  0
 19 42  1  0
 22 43  1  0
 23 44  1  6
 24 45  1  0
 24 46  1  0
 25 47  1  0
 25 48  1  0
 26 49  1  0
 26 50  1  0
 27 51  1  1
 28 52  1  0
M  END
>  <Ligand ID>  (1) 
LIG0004411

>  <Ligand>  (1) 
CHEMBL3770310

>  <SMILES>  (1) 
CCNC(=O)[C@H]1O[C@H]([C@@H]([C@@H]1O)O)n1cnc2c1ncnc2N[C@@H]1CCC[C@H]1O

>  <CID>  (1) 
127026257.0

>  <ChEMBL ID>  (1) 
nan

>  <InChiKey>  (1) 
UTIVUGWIKOLRER-OPMQXOKZSA-N

>  <InChi>  (1) 
InChI=1S/C17H24N6O5/c1-2-18-16(27)13-11(25)12(26)17(28-13)23-7-21-10-14(19-6-20-15(10)23)22-8-4-3-5-9(8)24/h6-9,11-13,17,24-26H,2-5H2,1H3,(H,18,27)(H,19,20,22)/t8-,9-,11+,12-,13+,17-/m1/s1

>  <IUPAC Name>  (1) 
(2S,3S,4R,5R)-N-ethyl-3,4-dihydroxy-5-[6-[[(1R,2R)-2-hydroxycyclopentyl]amino]purin-9-yl]oxolane-2-carboxamide

$$$$
