
     RDKit          3D

 58 60  0  0  0  0  0  0  0  0999 V2000
   -7.8796    0.6723   -0.2234 C   0  0  0  0  0  0  0  0  0  0  0  0
   -7.3198    0.7164   -1.4606 O   0  0  0  0  0  0  0  0  0  0  0  0
   -5.9227    0.7397   -1.5131 C   0  0  0  0  0  0  0  0  0  0  0  0
   -5.3755   -0.4926   -0.8883 C   0  0  0  0  0  0  0  0  0  0  0  0
   -3.9334   -0.7370   -0.8657 C   0  0  0  0  0  0  0  0  0  0  0  0
   -2.9633    0.1220   -0.1954 C   0  0  0  0  0  0  0  0  0  0  0  0
   -3.1446    0.3415    1.2914 C   0  0  0  0  0  0  0  0  0  0  0  0
   -3.4860    1.8007    0.9614 C   0  0  0  0  0  0  0  0  0  0  0  0
   -2.8276    1.5711   -0.3858 C   0  0  0  0  0  0  0  0  0  0  0  0
   -1.5785   -0.5954   -0.3798 C   0  0  1  0  0  0  0  0  0  0  0  0
   -0.4827    0.1332    0.2373 C   0  0  0  0  0  0  0  0  0  0  0  0
    0.0215   -0.3196    1.4079 C   0  0  0  0  0  0  0  0  0  0  0  0
    1.1474    0.3910    2.0846 C   0  0  1  0  0  0  0  0  0  0  0  0
    1.1845   -0.1223    3.5303 C   0  0  0  0  0  0  0  0  0  0  0  0
    1.5282   -1.4945    3.2879 O   0  0  0  0  0  0  0  0  0  0  0  0
    2.4603   -1.4712    2.2336 C   0  0  0  0  0  0  0  0  0  0  0  0
    3.2380   -2.4263    1.8923 O   0  0  0  0  0  0  0  0  0  0  0  0
    2.3934   -0.1793    1.5948 N   0  0  0  0  0  0  0  0  0  0  0  0
    3.3701    0.3629    0.6893 C   0  0  0  0  0  0  0  0  0  0  0  0
    3.0935    0.0218   -0.7514 C   0  0  0  0  0  0  0  0  0  0  0  0
    4.3797    0.7471   -1.8365 S   0  0  0  0  0  0  0  0  0  0  0  0
    5.9462    0.0029   -1.5467 C   0  0  0  0  0  0  0  0  0  0  0  0
    6.1632   -1.3684   -0.2507 S   0  0  0  0  0  0  0  0  0  0  0  0
    7.9394   -1.5236   -0.6055 C   0  0  0  0  0  0  0  0  0  0  0  0
    8.1432   -0.5746   -1.6038 C   0  0  0  0  0  0  0  0  0  0  0  0
    7.1131    0.1032   -1.9801 N   0  0  0  0  0  0  0  0  0  0  0  0
    9.5058   -0.3969   -2.1702 C   0  0  0  0  0  0  0  0  0  0  0  0
   10.4179   -1.1148   -1.7201 O   0  0  0  0  0  0  0  0  0  0  0  0
    9.7627    0.5316   -3.1639 O   0  0  0  0  0  0  0  0  0  0  0  0
   -1.7756   -1.8653    0.1124 O   0  0  0  0  0  0  0  0  0  0  0  0
   -7.5667    1.5528    0.3909 H   0  0  0  0  0  0  0  0  0  0  0  0
   -9.0043    0.7615   -0.3984 H   0  0  0  0  0  0  0  0  0  0  0  0
   -7.7668   -0.2209    0.3763 H   0  0  0  0  0  0  0  0  0  0  0  0
   -5.5402    1.7001   -1.1388 H   0  0  0  0  0  0  0  0  0  0  0  0
   -5.6900    0.7276   -2.6163 H   0  0  0  0  0  0  0  0  0  0  0  0
   -5.8236   -1.3481   -1.5033 H   0  0  0  0  0  0  0  0  0  0  0  0
   -5.8678   -0.6696    0.1121 H   0  0  0  0  0  0  0  0  0  0  0  0
   -3.5993   -0.8040   -1.9608 H   0  0  0  0  0  0  0  0  0  0  0  0
   -3.7055   -1.8068   -0.5128 H   0  0  0  0  0  0  0  0  0  0  0  0
   -2.2692    0.3208    1.9277 H   0  0  0  0  0  0  0  0  0  0  0  0
   -4.0088   -0.1264    1.7644 H   0  0  0  0  0  0  0  0  0  0  0  0
   -4.5543    2.0437    0.9666 H   0  0  0  0  0  0  0  0  0  0  0  0
   -2.9565    2.5344    1.6056 H   0  0  0  0  0  0  0  0  0  0  0  0
   -3.3705    2.0870   -1.1821 H   0  0  0  0  0  0  0  0  0  0  0  0
   -1.7480    1.9531   -0.3701 H   0  0  0  0  0  0  0  0  0  0  0  0
   -1.4909   -0.6926   -1.4947 H   0  0  0  0  0  0  0  0  0  0  0  0
    0.0036    1.0243   -0.1411 H   0  0  0  0  0  0  0  0  0  0  0  0
   -0.4280   -1.2297    1.8426 H   0  0  0  0  0  0  0  0  0  0  0  0
    1.0842    1.4744    2.0130 H   0  0  0  0  0  0  0  0  0  0  0  0
    1.9485    0.3991    4.1226 H   0  0  0  0  0  0  0  0  0  0  0  0
    0.1611   -0.0976    3.9792 H   0  0  0  0  0  0  0  0  0  0  0  0
    3.4122    1.4804    0.7596 H   0  0  0  0  0  0  0  0  0  0  0  0
    4.3533   -0.0589    0.9700 H   0  0  0  0  0  0  0  0  0  0  0  0
    2.1341    0.4494   -1.0812 H   0  0  0  0  0  0  0  0  0  0  0  0
    3.1540   -1.0718   -0.9427 H   0  0  0  0  0  0  0  0  0  0  0  0
    8.5604   -2.1953   -0.1180 H   0  0  0  0  0  0  0  0  0  0  0  0
   10.7187    0.8117   -3.3732 H   0  0  0  0  0  0  0  0  0  0  0  0
   -1.2582   -2.5745   -0.3278 H   0  0  0  0  0  0  0  0  0  0  0  0
  1  2  1  0
  2  3  1  0
  3  4  1  0
  4  5  1  0
  5  6  1  0
  6  7  1  0
  7  8  1  0
  8  9  1  0
  6 10  1  0
 10 11  1  0
 11 12  2  0
 12 13  1  0
 13 14  1  0
 14 15  1  0
 15 16  1  0
 16 17  2  0
 16 18  1  0
 18 19  1  0
 19 20  1  0
 20 21  1  0
 21 22  1  0
 22 23  1  0
 23 24  1  0
 24 25  2  0
 25 26  1  0
 25 27  1  0
 27 28  2  0
 27 29  1  0
 10 30  1  0
  9  6  1  0
 18 13  1  0
 26 22  2  0
  1 31  1  0
  1 32  1  0
  1 33  1  0
  3 34  1  0
  3 35  1  0
  4 36  1  0
  4 37  1  0
  5 38  1  0
  5 39  1  0
  7 40  1  0
  7 41  1  0
  8 42  1  0
  8 43  1  0
  9 44  1  0
  9 45  1  0
 10 46  1  6
 11 47  1  0
 12 48  1  0
 13 49  1  1
 14 50  1  0
 14 51  1  0
 19 52  1  0
 19 53  1  0
 20 54  1  0
 20 55  1  0
 24 56  1  0
 29 57  1  0
 30 58  1  0
M  END
>  <Ligand ID>  (1) 
LIG0004899

>  <Ligand>  (1) 
CHEMBL3753788

>  <SMILES>  (1) 
COCCCC1(CCC1)[C@@H](/C=C/[C@H]1COC(=O)N1CCSc1scc(n1)C(=O)O)O

>  <CID>  (1) 
11328569.0

>  <ChEMBL ID>  (1) 
nan

>  <InChiKey>  (1) 
FEYUNKQIAFSCKX-WIJLQKJISA-N

>  <InChi>  (1) 
InChI=1S/C20H28N2O6S2/c1-27-10-3-8-20(6-2-7-20)16(23)5-4-14-12-28-19(26)22(14)9-11-29-18-21-15(13-30-18)17(24)25/h4-5,13-14,16,23H,2-3,6-12H2,1H3,(H,24,25)/b5-4+/t14-,16+/m0/s1

>  <IUPAC Name>  (1) 
2-[2-[(4S)-4-[(E,3R)-3-hydroxy-3-[1-(3-methoxypropyl)cyclobutyl]prop-1-enyl]-2-oxo-1,3-oxazolidin-3-yl]ethylsulfanyl]-1,3-thiazole-4-carboxylic acid

$$$$
