
     RDKit          3D

 55 57  0  0  0  0  0  0  0  0999 V2000
    9.5559   -0.3891   -0.1251 C   0  0  0  0  0  0  0  0  0  0  0  0
    8.1603   -0.7569    0.0874 N   0  0  0  0  0  0  0  0  0  0  0  0
    7.1359    0.2338    0.0853 C   0  0  0  0  0  0  0  0  0  0  0  0
    7.5341    1.4314   -0.1124 O   0  0  0  0  0  0  0  0  0  0  0  0
    5.7275   -0.0748    0.2922 C   0  0  0  0  0  0  0  0  0  0  0  0
    5.2826   -1.3428    0.5041 N   0  0  0  0  0  0  0  0  0  0  0  0
    3.9506   -1.5755    0.6935 C   0  0  0  0  0  0  0  0  0  0  0  0
    3.0431   -0.5272    0.6717 C   0  0  0  0  0  0  0  0  0  0  0  0
    3.4578    0.7809    0.4580 C   0  0  0  0  0  0  0  0  0  0  0  0
    4.8287    0.9432    0.2728 C   0  0  0  0  0  0  0  0  0  0  0  0
    2.5106    1.9262    0.4225 C   0  0  0  0  0  0  0  0  0  0  0  0
    1.5238    1.9454   -1.1105 S   0  0  0  0  0  0  0  0  0  0  0  0
    0.4482    0.5272   -1.1357 C   0  0  0  0  0  0  0  0  0  0  0  0
    0.8296   -0.6667   -1.6777 N   0  0  0  0  0  0  0  0  0  0  0  0
    0.0125   -1.7250   -1.6957 C   0  0  0  0  0  0  0  0  0  0  0  0
    0.4885   -2.9390   -2.2829 N   0  0  0  0  0  0  0  0  0  0  0  0
   -1.2620   -1.6800   -1.1708 C   0  0  0  0  0  0  0  0  0  0  0  0
   -1.6717   -0.4890   -0.6186 C   0  0  0  0  0  0  0  0  0  0  0  0
   -0.8322    0.6297   -0.5898 C   0  0  0  0  0  0  0  0  0  0  0  0
   -1.2872    1.8667   -0.0063 C   0  0  0  0  0  0  0  0  0  0  0  0
   -1.6504    2.8442    0.4501 N   0  0  0  0  0  0  0  0  0  0  0  0
   -3.0002   -0.3059   -0.0322 C   0  0  0  0  0  0  0  0  0  0  0  0
   -3.2758   -0.5467    1.2961 C   0  0  0  0  0  0  0  0  0  0  0  0
   -4.5891   -0.3316    1.7290 C   0  0  0  0  0  0  0  0  0  0  0  0
   -5.5752    0.1051    0.8620 C   0  0  0  0  0  0  0  0  0  0  0  0
   -5.2720    0.3382   -0.4622 C   0  0  0  0  0  0  0  0  0  0  0  0
   -3.9869    0.1357   -0.9203 C   0  0  0  0  0  0  0  0  0  0  0  0
   -6.8862    0.3292    1.2540 O   0  0  0  0  0  0  0  0  0  0  0  0
   -7.8886    0.7748    0.3659 C   0  0  0  0  0  0  0  0  0  0  0  0
   -9.1868    0.9129    1.1202 C   0  0  0  0  0  0  0  0  0  0  0  0
   -9.0693    1.8240    2.1546 F   0  0  0  0  0  0  0  0  0  0  0  0
   -9.5523   -0.3345    1.5697 F   0  0  0  0  0  0  0  0  0  0  0  0
  -10.1824    1.3968    0.2689 F   0  0  0  0  0  0  0  0  0  0  0  0
   -2.1445   -2.7969   -1.1807 C   0  0  0  0  0  0  0  0  0  0  0  0
   -2.8754   -3.6962   -1.1961 N   0  0  0  0  0  0  0  0  0  0  0  0
    1.6133    1.9203    1.6176 C   0  0  0  0  0  0  0  0  0  0  0  0
   10.1512   -1.0089    0.5562 H   0  0  0  0  0  0  0  0  0  0  0  0
    9.7850   -0.6848   -1.1701 H   0  0  0  0  0  0  0  0  0  0  0  0
    9.6501    0.6905    0.0646 H   0  0  0  0  0  0  0  0  0  0  0  0
    7.8815   -1.7382    0.2432 H   0  0  0  0  0  0  0  0  0  0  0  0
    3.5897   -2.5694    0.8616 H   0  0  0  0  0  0  0  0  0  0  0  0
    2.0102   -0.7506    0.8290 H   0  0  0  0  0  0  0  0  0  0  0  0
    5.1698    1.9544    0.1053 H   0  0  0  0  0  0  0  0  0  0  0  0
    3.1662    2.8359    0.4529 H   0  0  0  0  0  0  0  0  0  0  0  0
    0.9148   -2.9815   -3.2313 H   0  0  0  0  0  0  0  0  0  0  0  0
    0.3990   -3.7972   -1.7337 H   0  0  0  0  0  0  0  0  0  0  0  0
   -2.4960   -0.8855    1.9547 H   0  0  0  0  0  0  0  0  0  0  0  0
   -4.8450   -0.5104    2.7710 H   0  0  0  0  0  0  0  0  0  0  0  0
   -6.0449    0.6844   -1.1597 H   0  0  0  0  0  0  0  0  0  0  0  0
   -3.7643    0.3233   -1.9628 H   0  0  0  0  0  0  0  0  0  0  0  0
   -8.0161    0.1322   -0.5054 H   0  0  0  0  0  0  0  0  0  0  0  0
   -7.5639    1.7829   -0.0192 H   0  0  0  0  0  0  0  0  0  0  0  0
    0.9617    2.8175    1.5517 H   0  0  0  0  0  0  0  0  0  0  0  0
    0.9775    0.9954    1.5754 H   0  0  0  0  0  0  0  0  0  0  0  0
    2.1584    2.0222    2.5661 H   0  0  0  0  0  0  0  0  0  0  0  0
  1  2  1  0
  2  3  1  0
  3  4  2  0
  3  5  1  0
  5  6  2  0
  6  7  1  0
  7  8  2  0
  8  9  1  0
  9 10  2  0
  9 11  1  0
 11 12  1  0
 12 13  1  0
 13 14  2  0
 14 15  1  0
 15 16  1  0
 15 17  2  0
 17 18  1  0
 18 19  2  0
 19 20  1  0
 20 21  3  0
 18 22  1  0
 22 23  2  0
 23 24  1  0
 24 25  2  0
 25 26  1  0
 26 27  2  0
 25 28  1  0
 28 29  1  0
 29 30  1  0
 30 31  1  0
 30 32  1  0
 30 33  1  0
 17 34  1  0
 34 35  3  0
 11 36  1  0
 10  5  1  0
 19 13  1  0
 27 22  1  0
  1 37  1  0
  1 38  1  0
  1 39  1  0
  2 40  1  0
  7 41  1  0
  8 42  1  0
 10 43  1  0
 11 44  1  0
 16 45  1  0
 16 46  1  0
 23 47  1  0
 24 48  1  0
 26 49  1  0
 27 50  1  0
 29 51  1  0
 29 52  1  0
 36 53  1  0
 36 54  1  0
 36 55  1  0
M  END
>  <Ligand ID>  (1) 
LIG0003505

>  <Ligand>  (1) 
SCHEMBL245421

>  <SMILES>  (1) 
CNC(=O)c1nccc(c1)C(Sc1nc(N)c(c(c1C#N)c1ccc(cc1)OCC(F)(F)F)C#N)C

>  <CID>  (1) 
56592178.0

>  <ChEMBL ID>  (1) 
nan

>  <InChiKey>  (1) 
SDZLWPSMPSPGFW-UHFFFAOYSA-N

>  <InChi>  (1) 
InChI=1S/C24H19F3N6O2S/c1-13(15-7-8-32-19(9-15)22(34)31-2)36-23-18(11-29)20(17(10-28)21(30)33-23)14-3-5-16(6-4-14)35-12-24(25,26)27/h3-9,13H,12H2,1-2H3,(H2,30,33)(H,31,34)

>  <IUPAC Name>  (1) 
4-[1-[6-amino-3,5-dicyano-4-[4-(2,2,2-trifluoroethoxy)phenyl]pyridin-2-yl]sulfanylethyl]-N-methylpyridine-2-carboxamide

$$$$
