
     RDKit          3D

209217  0  0  0  0  0  0  0  0999 V2000
  -11.8069   -2.6056   -1.8458 N   0  0  0  0  0  0  0  0  0  0  0  0
  -11.1301   -1.3803   -1.5827 C   0  0  0  0  0  0  0  0  0  0  0  0
  -11.7496   -0.4339   -1.0028 N   0  0  0  0  0  0  0  0  0  0  0  0
   -9.7710   -1.1999   -1.9582 N   0  0  0  0  0  0  0  0  0  0  0  0
   -8.8927   -0.2525   -1.2458 C   0  0  0  0  0  0  0  0  0  0  0  0
   -8.6625   -0.7861    0.1125 C   0  0  0  0  0  0  0  0  0  0  0  0
   -7.8758    0.0273    1.0572 C   0  0  0  0  0  0  0  0  0  0  0  0
   -6.5171    0.4522    0.7959 C   0  0  2  0  0  0  0  0  0  0  0  0
   -6.2474    1.3252   -0.3233 N   0  0  0  0  0  0  0  0  0  0  0  0
   -5.1143    2.2654   -0.2518 C   0  0  0  0  0  0  0  0  0  0  0  0
   -4.5104    2.2486    0.8292 O   0  0  0  0  0  0  0  0  0  0  0  0
   -4.9050    3.0400   -1.4566 C   0  0  1  0  0  0  0  0  0  0  0  0
   -6.0345    4.0009   -1.6454 C   0  0  0  0  0  0  0  0  0  0  0  0
   -6.3521    5.0343   -0.7025 C   0  0  0  0  0  0  0  0  0  0  0  0
   -6.0234    6.3872   -0.8191 C   0  0  0  0  0  0  0  0  0  0  0  0
   -6.3421    7.3227    0.1377 C   0  0  0  0  0  0  0  0  0  0  0  0
   -7.0109    6.9384    1.2625 C   0  0  0  0  0  0  0  0  0  0  0  0
   -7.3640    5.6193    1.4388 C   0  0  0  0  0  0  0  0  0  0  0  0
   -7.0440    4.6916    0.4798 C   0  0  0  0  0  0  0  0  0  0  0  0
   -3.5470    3.6342   -1.6931 N   0  0  0  0  0  0  0  0  0  0  0  0
   -3.2059    4.5901   -0.6839 C   0  0  0  0  0  0  0  0  0  0  0  0
   -2.1197    4.0913    0.2548 C   0  0  2  0  0  0  0  0  0  0  0  0
   -2.0455    4.9588    1.4983 C   0  0  0  0  0  0  0  0  0  0  0  0
   -1.7010    6.3513    1.1551 C   0  0  0  0  0  0  0  0  0  0  0  0
   -2.5032    7.4271    0.8157 C   0  0  0  0  0  0  0  0  0  0  0  0
   -1.7571    8.5064    0.5489 N   0  0  0  0  0  0  0  0  0  0  0  0
   -0.4498    8.1428    0.7123 C   0  0  0  0  0  0  0  0  0  0  0  0
   -0.4341    6.8525    1.0752 N   0  0  0  0  0  0  0  0  0  0  0  0
   -0.9032    4.4686   -0.5404 N   0  0  0  0  0  0  0  0  0  0  0  0
    0.3064    3.7207   -0.4316 C   0  0  0  0  0  0  0  0  0  0  0  0
    0.3900    2.7158    0.3095 O   0  0  0  0  0  0  0  0  0  0  0  0
    1.4045    4.2643   -1.2601 C   0  0  2  0  0  0  0  0  0  0  0  0
    1.1451    3.9585   -2.7082 C   0  0  0  0  0  0  0  0  0  0  0  0
   -0.2715    4.2894   -3.5868 S   0  0  0  0  0  0  0  0  0  0  0  0
   -1.7306    3.4117   -3.7210 C   0  0  0  0  0  0  0  0  0  0  0  0
   -2.8279    3.2875   -2.8400 C   0  0  0  0  0  0  0  0  0  0  0  0
   -3.6293    2.3174   -3.3539 O   0  0  0  0  0  0  0  0  0  0  0  0
    2.7116    3.6330   -0.9290 N   0  0  0  0  0  0  0  0  0  0  0  0
    3.8395    4.4657   -0.6280 C   0  0  0  0  0  0  0  0  0  0  0  0
    3.7449    5.6895   -0.5277 O   0  0  0  0  0  0  0  0  0  0  0  0
    5.1347    3.6874   -0.4492 C   0  0  2  0  0  0  0  0  0  0  0  0
    4.9721    2.7806    0.6965 C   0  0  0  0  0  0  0  0  0  0  0  0
    6.1821    1.3863    0.6154 S   0  0  0  0  0  0  0  0  0  0  0  0
    5.5634    0.1929   -1.1089 S   0  0  0  0  0  0  0  0  0  0  0  0
    4.3671   -1.0056   -0.5499 C   0  0  0  0  0  0  0  0  0  0  0  0
    4.8609   -2.2082    0.1736 C   0  0  2  0  0  0  0  0  0  0  0  0
    3.7076   -2.7309    0.9075 N   0  0  0  0  0  0  0  0  0  0  0  0
    2.7634   -3.5969    0.2878 C   0  0  0  0  0  0  0  0  0  0  0  0
    2.9811   -3.8844   -0.9188 O   0  0  0  0  0  0  0  0  0  0  0  0
    1.5818   -4.1167    1.0509 C   0  0  1  0  0  0  0  0  0  0  0  0
    0.6510   -4.8537    0.2713 N   0  0  0  0  0  0  0  0  0  0  0  0
    0.8932   -5.7827   -0.7455 C   0  0  0  0  0  0  0  0  0  0  0  0
    2.0622   -6.1779   -0.9813 O   0  0  0  0  0  0  0  0  0  0  0  0
   -0.1738   -6.3635   -1.6018 C   0  0  1  0  0  0  0  0  0  0  0  0
   -1.4623   -5.7716   -1.3759 N   0  0  0  0  0  0  0  0  0  0  0  0
   -2.7125   -6.4172   -1.4251 C   0  0  0  0  0  0  0  0  0  0  0  0
   -2.6928   -7.6509   -1.7621 O   0  0  0  0  0  0  0  0  0  0  0  0
   -3.9552   -5.6944   -1.1172 C   0  0  1  0  0  0  0  0  0  0  0  0
   -3.7885   -4.5609   -0.2358 N   0  0  0  0  0  0  0  0  0  0  0  0
   -4.8945   -3.9160    0.4178 C   0  0  0  0  0  0  0  0  0  0  0  0
   -6.0777   -4.2901    0.1484 O   0  0  0  0  0  0  0  0  0  0  0  0
   -4.5678   -2.8351    1.3604 C   0  0  1  0  0  0  0  0  0  0  0  0
   -5.6589   -1.8653    1.5544 N   0  0  0  0  0  0  0  0  0  0  0  0
   -5.5358   -0.7142    0.6909 C   0  0  0  0  0  0  0  0  0  0  0  0
   -4.6411   -0.6189   -0.1759 O   0  0  0  0  0  0  0  0  0  0  0  0
   -4.0951   -3.3313    2.7211 C   0  0  0  0  0  0  0  0  0  0  0  0
   -5.1352   -4.1563    3.3871 C   0  0  0  0  0  0  0  0  0  0  0  0
   -6.0203   -3.6315    4.3386 C   0  0  0  0  0  0  0  0  0  0  0  0
   -6.8681   -4.5996    4.7352 N   0  0  0  0  0  0  0  0  0  0  0  0
   -6.5637   -5.7516    4.0732 C   0  0  0  0  0  0  0  0  0  0  0  0
   -5.4925   -5.4657    3.2420 C   0  0  0  0  0  0  0  0  0  0  0  0
   -4.9818   -6.4729    2.4613 C   0  0  0  0  0  0  0  0  0  0  0  0
   -5.5481   -7.7369    2.5221 C   0  0  0  0  0  0  0  0  0  0  0  0
   -6.6073   -8.0254    3.3398 C   0  0  0  0  0  0  0  0  0  0  0  0
   -7.1298   -7.0263    4.1317 C   0  0  0  0  0  0  0  0  0  0  0  0
   -4.5598   -5.1683   -2.4520 C   0  0  0  0  0  0  0  0  0  0  0  0
   -4.8155   -6.3482   -3.2932 C   0  0  0  0  0  0  0  0  0  0  0  0
   -3.8549   -6.8435   -3.9618 O   0  0  0  0  0  0  0  0  0  0  0  0
   -6.0624   -6.9949   -3.4243 N   0  0  0  0  0  0  0  0  0  0  0  0
    0.2721   -6.1507   -3.0584 C   0  0  0  0  0  0  0  0  0  0  0  0
    1.9041   -4.7693    2.3334 C   0  0  0  0  0  0  0  0  0  0  0  0
    2.7877   -5.9577    2.2164 C   0  0  0  0  0  0  0  0  0  0  0  0
    4.1598   -5.8630    2.2408 C   0  0  0  0  0  0  0  0  0  0  0  0
    4.9146   -7.0233    2.1121 C   0  0  0  0  0  0  0  0  0  0  0  0
    4.3421   -8.2679    1.9621 C   0  0  0  0  0  0  0  0  0  0  0  0
    2.9700   -8.3355    1.9406 C   0  0  0  0  0  0  0  0  0  0  0  0
    2.1674   -7.2069    2.0638 C   0  0  0  0  0  0  0  0  0  0  0  0
    6.0878   -2.1494    0.9251 C   0  0  0  0  0  0  0  0  0  0  0  0
    6.1528   -2.3800    2.1849 O   0  0  0  0  0  0  0  0  0  0  0  0
    7.2900   -1.8259    0.1957 N   0  0  0  0  0  0  0  0  0  0  0  0
    8.6038   -1.7610    0.8066 C   0  0  2  0  0  0  0  0  0  0  0  0
    9.4486   -0.6487    0.3582 C   0  0  0  0  0  0  0  0  0  0  0  0
   10.5817   -0.4494    0.8963 O   0  0  0  0  0  0  0  0  0  0  0  0
    9.1008    0.2749   -0.6747 N   0  0  0  0  0  0  0  0  0  0  0  0
    9.3009   -3.0668    0.3344 C   0  0  0  0  0  0  0  0  0  0  0  0
   10.6744   -3.2098    0.7965 C   0  0  0  0  0  0  0  0  0  0  0  0
   11.6843   -2.7362   -0.0429 C   0  0  0  0  0  0  0  0  0  0  0  0
   13.0145   -2.8258    0.2514 C   0  0  0  0  0  0  0  0  0  0  0  0
   13.4030   -3.3981    1.4132 C   0  0  0  0  0  0  0  0  0  0  0  0
   12.4454   -3.8890    2.3000 C   0  0  0  0  0  0  0  0  0  0  0  0
   11.0841   -3.7884    1.9788 C   0  0  0  0  0  0  0  0  0  0  0  0
   14.7344   -3.5462    1.8178 O   0  0  0  0  0  0  0  0  0  0  0  0
    6.1773    4.6873   -0.1212 N   0  0  0  0  0  0  0  0  0  0  0  0
    6.8118    5.4221   -1.1574 C   0  0  0  0  0  0  0  0  0  0  0  0
    6.4225    5.1800   -2.3457 O   0  0  0  0  0  0  0  0  0  0  0  0
    7.8565    6.4223   -0.9801 C   0  0  2  0  0  0  0  0  0  0  0  0
    7.7728    7.3483    0.1729 C   0  0  0  0  0  0  0  0  0  0  0  0
    6.5493    8.1949    0.2165 C   0  0  0  0  0  0  0  0  0  0  0  0
    6.4758    9.3751   -0.4893 C   0  0  0  0  0  0  0  0  0  0  0  0
    5.3182   10.1470   -0.4169 C   0  0  0  0  0  0  0  0  0  0  0  0
    4.2355    9.7661    0.3413 C   0  0  0  0  0  0  0  0  0  0  0  0
    4.3566    8.5640    1.0381 C   0  0  0  0  0  0  0  0  0  0  0  0
    5.4866    7.7872    0.9841 C   0  0  0  0  0  0  0  0  0  0  0  0
    3.0646   10.4957    0.4459 O   0  0  0  0  0  0  0  0  0  0  0  0
    8.0714    7.1255   -2.2384 N   0  0  0  0  0  0  0  0  0  0  0  0
  -11.9659   -3.2506   -1.0225 H   0  0  0  0  0  0  0  0  0  0  0  0
  -12.1310   -2.8439   -2.8065 H   0  0  0  0  0  0  0  0  0  0  0  0
  -11.3724    0.4893   -0.7611 H   0  0  0  0  0  0  0  0  0  0  0  0
   -9.4309   -1.7746   -2.7693 H   0  0  0  0  0  0  0  0  0  0  0  0
   -9.2907    0.7514   -1.3126 H   0  0  0  0  0  0  0  0  0  0  0  0
   -7.9521   -0.2988   -1.8609 H   0  0  0  0  0  0  0  0  0  0  0  0
   -8.3387   -1.8619    0.0796 H   0  0  0  0  0  0  0  0  0  0  0  0
   -9.7023   -0.8807    0.5873 H   0  0  0  0  0  0  0  0  0  0  0  0
   -7.8689   -0.5077    2.0596 H   0  0  0  0  0  0  0  0  0  0  0  0
   -8.4803    0.9533    1.3192 H   0  0  0  0  0  0  0  0  0  0  0  0
   -6.0964    0.9802    1.7190 H   0  0  0  0  0  0  0  0  0  0  0  0
   -6.7822    1.3833   -1.1975 H   0  0  0  0  0  0  0  0  0  0  0  0
   -5.1243    2.3315   -2.3225 H   0  0  0  0  0  0  0  0  0  0  0  0
   -6.9464    3.3596   -1.6739 H   0  0  0  0  0  0  0  0  0  0  0  0
   -6.0054    4.3723   -2.7291 H   0  0  0  0  0  0  0  0  0  0  0  0
   -5.4895    6.7154   -1.7150 H   0  0  0  0  0  0  0  0  0  0  0  0
   -6.0412    8.3658   -0.0387 H   0  0  0  0  0  0  0  0  0  0  0  0
   -7.2794    7.6610    2.0467 H   0  0  0  0  0  0  0  0  0  0  0  0
   -7.8944    5.3628    2.3551 H   0  0  0  0  0  0  0  0  0  0  0  0
   -7.3549    3.6716    0.6688 H   0  0  0  0  0  0  0  0  0  0  0  0
   -3.0519    5.6204   -1.0281 H   0  0  0  0  0  0  0  0  0  0  0  0
   -4.0544    4.6911    0.0620 H   0  0  0  0  0  0  0  0  0  0  0  0
   -2.1611    3.0761    0.5005 H   0  0  0  0  0  0  0  0  0  0  0  0
   -3.0096    4.8656    2.0277 H   0  0  0  0  0  0  0  0  0  0  0  0
   -1.2589    4.5130    2.1418 H   0  0  0  0  0  0  0  0  0  0  0  0
   -3.5721    7.3476    0.7925 H   0  0  0  0  0  0  0  0  0  0  0  0
   -2.0900    9.4730    0.2630 H   0  0  0  0  0  0  0  0  0  0  0  0
    0.4302    8.7804    0.5745 H   0  0  0  0  0  0  0  0  0  0  0  0
   -0.9646    5.3060   -1.1816 H   0  0  0  0  0  0  0  0  0  0  0  0
    1.5445    5.3648   -1.1754 H   0  0  0  0  0  0  0  0  0  0  0  0
    1.4492    2.8276   -2.8331 H   0  0  0  0  0  0  0  0  0  0  0  0
    2.0504    4.4354   -3.2364 H   0  0  0  0  0  0  0  0  0  0  0  0
   -1.4208    2.3160   -4.1021 H   0  0  0  0  0  0  0  0  0  0  0  0
   -2.1495    3.7234   -4.8088 H   0  0  0  0  0  0  0  0  0  0  0  0
    2.7497    2.5952   -0.9313 H   0  0  0  0  0  0  0  0  0  0  0  0
    5.3415    3.1797   -1.3870 H   0  0  0  0  0  0  0  0  0  0  0  0
    3.9740    2.2741    0.7811 H   0  0  0  0  0  0  0  0  0  0  0  0
    5.1664    3.2610    1.6748 H   0  0  0  0  0  0  0  0  0  0  0  0
    3.7592   -1.3380   -1.4457 H   0  0  0  0  0  0  0  0  0  0  0  0
    3.5874   -0.4683    0.0701 H   0  0  0  0  0  0  0  0  0  0  0  0
    4.9673   -3.0301   -0.6607 H   0  0  0  0  0  0  0  0  0  0  0  0
    3.6290   -2.4216    1.9140 H   0  0  0  0  0  0  0  0  0  0  0  0
    1.0581   -3.1243    1.3179 H   0  0  0  0  0  0  0  0  0  0  0  0
   -0.3886   -4.6825    0.4956 H   0  0  0  0  0  0  0  0  0  0  0  0
   -0.2224   -7.4444   -1.4661 H   0  0  0  0  0  0  0  0  0  0  0  0
   -1.4244   -4.7188   -1.1761 H   0  0  0  0  0  0  0  0  0  0  0  0
   -4.7323   -6.3432   -0.7408 H   0  0  0  0  0  0  0  0  0  0  0  0
   -2.8455   -4.1791   -0.0471 H   0  0  0  0  0  0  0  0  0  0  0  0
   -3.7394   -2.2785    0.9073 H   0  0  0  0  0  0  0  0  0  0  0  0
   -6.4263   -1.9897    2.2306 H   0  0  0  0  0  0  0  0  0  0  0  0
   -3.7988   -2.4556    3.3012 H   0  0  0  0  0  0  0  0  0  0  0  0
   -3.1976   -3.9528    2.5470 H   0  0  0  0  0  0  0  0  0  0  0  0
   -6.0402   -2.6192    4.7054 H   0  0  0  0  0  0  0  0  0  0  0  0
   -7.6532   -4.5729    5.4261 H   0  0  0  0  0  0  0  0  0  0  0  0
   -4.1496   -6.2976    1.8153 H   0  0  0  0  0  0  0  0  0  0  0  0
   -5.1133   -8.5163    1.8735 H   0  0  0  0  0  0  0  0  0  0  0  0
   -7.0582   -9.0181    3.3866 H   0  0  0  0  0  0  0  0  0  0  0  0
   -7.9721   -7.2440    4.7903 H   0  0  0  0  0  0  0  0  0  0  0  0
   -5.5250   -4.7477   -2.1429 H   0  0  0  0  0  0  0  0  0  0  0  0
   -3.8717   -4.5006   -2.9667 H   0  0  0  0  0  0  0  0  0  0  0  0
   -6.4564   -7.6550   -2.6988 H   0  0  0  0  0  0  0  0  0  0  0  0
   -6.6977   -6.8627   -4.2670 H   0  0  0  0  0  0  0  0  0  0  0  0
   -0.2230   -6.9368   -3.6572 H   0  0  0  0  0  0  0  0  0  0  0  0
   -0.0518   -5.1725   -3.4109 H   0  0  0  0  0  0  0  0  0  0  0  0
    1.3487   -6.3571   -3.0765 H   0  0  0  0  0  0  0  0  0  0  0  0
    2.4079   -4.0714    3.0667 H   0  0  0  0  0  0  0  0  0  0  0  0
    0.9911   -5.0941    2.8797 H   0  0  0  0  0  0  0  0  0  0  0  0
    4.6436   -4.8848    2.3663 H   0  0  0  0  0  0  0  0  0  0  0  0
    5.9969   -6.9681    2.1288 H   0  0  0  0  0  0  0  0  0  0  0  0
    4.9393   -9.1632    1.8612 H   0  0  0  0  0  0  0  0  0  0  0  0
    2.5321   -9.3324    1.8148 H   0  0  0  0  0  0  0  0  0  0  0  0
    1.0992   -7.3121    2.0477 H   0  0  0  0  0  0  0  0  0  0  0  0
    7.2655   -1.6187   -0.8373 H   0  0  0  0  0  0  0  0  0  0  0  0
    8.5632   -1.8884    1.9071 H   0  0  0  0  0  0  0  0  0  0  0  0
    8.9142    1.2836   -0.4951 H   0  0  0  0  0  0  0  0  0  0  0  0
    9.0145   -0.0316   -1.6723 H   0  0  0  0  0  0  0  0  0  0  0  0
    9.2009   -3.0420   -0.7788 H   0  0  0  0  0  0  0  0  0  0  0  0
    8.6490   -3.9017    0.6929 H   0  0  0  0  0  0  0  0  0  0  0  0
   11.4078   -2.2583   -0.9932 H   0  0  0  0  0  0  0  0  0  0  0  0
   13.7566   -2.4344   -0.4530 H   0  0  0  0  0  0  0  0  0  0  0  0
   12.7576   -4.3480    3.2390 H   0  0  0  0  0  0  0  0  0  0  0  0
   10.3361   -4.1576    2.6366 H   0  0  0  0  0  0  0  0  0  0  0  0
   15.3253   -4.2429    1.3561 H   0  0  0  0  0  0  0  0  0  0  0  0
    6.4740    4.8554    0.8618 H   0  0  0  0  0  0  0  0  0  0  0  0
    8.8305    5.8359   -0.8339 H   0  0  0  0  0  0  0  0  0  0  0  0
    8.0104    6.8667    1.1492 H   0  0  0  0  0  0  0  0  0  0  0  0
    8.6210    8.0906    0.0247 H   0  0  0  0  0  0  0  0  0  0  0  0
    7.2910    9.7308   -1.1132 H   0  0  0  0  0  0  0  0  0  0  0  0
    5.2490   11.1001   -0.9704 H   0  0  0  0  0  0  0  0  0  0  0  0
    3.5075    8.2387    1.6469 H   0  0  0  0  0  0  0  0  0  0  0  0
    5.4833    6.8705    1.5726 H   0  0  0  0  0  0  0  0  0  0  0  0
    2.9326   11.2018    1.1429 H   0  0  0  0  0  0  0  0  0  0  0  0
    8.5947    8.0085   -2.1261 H   0  0  0  0  0  0  0  0  0  0  0  0
    8.4057    6.5123   -2.9850 H   0  0  0  0  0  0  0  0  0  0  0  0
  1  2  1  0
  2  3  2  3
  2  4  1  0
  4  5  1  0
  5  6  1  0
  6  7  1  0
  7  8  1  0
  8  9  1  0
  9 10  1  0
 10 11  2  0
 10 12  1  0
 12 13  1  0
 13 14  1  0
 14 15  2  0
 15 16  1  0
 16 17  2  0
 17 18  1  0
 18 19  2  0
 12 20  1  0
 20 21  1  0
 21 22  1  0
 22 23  1  0
 23 24  1  0
 24 25  2  0
 25 26  1  0
 26 27  1  0
 27 28  2  0
 22 29  1  0
 29 30  1  0
 30 31  2  0
 30 32  1  0
 32 33  1  0
 33 34  1  0
 34 35  1  0
 35 36  1  0
 36 37  2  0
 32 38  1  0
 38 39  1  0
 39 40  2  0
 39 41  1  0
 41 42  1  0
 42 43  1  0
 43 44  1  0
 44 45  1  0
 45 46  1  0
 46 47  1  0
 47 48  1  0
 48 49  2  0
 48 50  1  0
 50 51  1  0
 51 52  1  0
 52 53  2  0
 52 54  1  0
 54 55  1  0
 55 56  1  0
 56 57  2  0
 56 58  1  0
 58 59  1  0
 59 60  1  0
 60 61  2  0
 60 62  1  0
 62 63  1  0
 63 64  1  0
 64 65  2  0
 62 66  1  0
 66 67  1  0
 67 68  2  0
 68 69  1  0
 69 70  1  0
 70 71  2  0
 71 72  1  0
 72 73  2  0
 73 74  1  0
 74 75  2  0
 58 76  1  0
 76 77  1  0
 77 78  2  0
 77 79  1  0
 54 80  1  0
 50 81  1  0
 81 82  1  0
 82 83  2  0
 83 84  1  0
 84 85  2  0
 85 86  1  0
 86 87  2  0
 46 88  1  0
 88 89  2  0
 88 90  1  0
 90 91  1  0
 91 92  1  0
 92 93  2  0
 92 94  1  0
 91 95  1  0
 95 96  1  0
 96 97  2  0
 97 98  1  0
 98 99  2  0
 99100  1  0
100101  2  0
 99102  1  0
 41103  1  0
103104  1  0
104105  2  0
104106  1  0
106107  1  0
107108  1  0
108109  2  0
109110  1  0
110111  2  0
111112  1  0
112113  2  0
111114  1  0
106115  1  0
 64  8  1  0
 71 67  1  0
 87 82  1  0
101 96  1  0
113108  1  0
 19 14  1  0
 36 20  1  0
 75 70  1  0
 28 24  1  0
  1116  1  0
  1117  1  0
  3118  1  0
  4119  1  0
  5120  1  0
  5121  1  0
  6122  1  0
  6123  1  0
  7124  1  0
  7125  1  0
  8126  1  1
  9127  1  0
 12128  1  6
 13129  1  0
 13130  1  0
 15131  1  0
 16132  1  0
 17133  1  0
 18134  1  0
 19135  1  0
 21136  1  0
 21137  1  0
 22138  1  1
 23139  1  0
 23140  1  0
 25141  1  0
 26142  1  0
 27143  1  0
 29144  1  0
 32145  1  6
 33146  1  0
 33147  1  0
 35148  1  0
 35149  1  0
 38150  1  0
 41151  1  6
 42152  1  0
 42153  1  0
 45154  1  0
 45155  1  0
 46156  1  6
 47157  1  0
 50158  1  1
 51159  1  0
 54160  1  1
 55161  1  0
 58162  1  1
 59163  1  0
 62164  1  6
 63165  1  0
 66166  1  0
 66167  1  0
 68168  1  0
 69169  1  0
 72170  1  0
 73171  1  0
 74172  1  0
 75173  1  0
 76174  1  0
 76175  1  0
 79176  1  0
 79177  1  0
 80178  1  0
 80179  1  0
 80180  1  0
 81181  1  0
 81182  1  0
 83183  1  0
 84184  1  0
 85185  1  0
 86186  1  0
 87187  1  0
 90188  1  0
 91189  1  1
 94190  1  0
 94191  1  0
 95192  1  0
 95193  1  0
 97194  1  0
 98195  1  0
100196  1  0
101197  1  0
102198  1  0
103199  1  0
106200  1  1
107201  1  0
107202  1  0
109203  1  0
110204  1  0
112205  1  0
113206  1  0
114207  1  0
115208  1  0
115209  1  0
M  END
>  <Ligand ID>  (1) 
LIG0001152

>  <Ligand>  (1) 
CID 51350673

>  <SMILES>  (1) 
NC(=N)NCCC[C@@H]1NC(=O)[C@@H](Cc2ccccc2)N2C[C@H](Cc3c[nH]cn3)NC(=O)[C@H](CSCC2=O)NC(=O)[C@H](CSSC[C@H](NC(=O)[C@@H](NC(=O)[C@@H](NC(=O)[C@@H](NC(=O)[C@@H](NC1=O)Cc1c[nH]c2c1cccc2)CC(=O)N)C)Cc1ccccc1)C(=O)N[C@H](C(=O)N)Cc1ccc(cc1)O)NC(=O)[C@H](Cc1ccc(cc1)O)N

>  <CID>  (1) 
51350673.0

>  <ChEMBL ID>  (1) 
nan

>  <InChiKey>  (1) 
LJABAIOSDNQOHO-FBOVWTABSA-N

>  <InChi>  (1) 
InChI=1S/C77H94N20O15S3/c1-42-67(103)91-57(29-43-11-4-2-5-12-43)71(107)96-62(74(110)90-56(66(80)102)28-46-20-24-51(99)25-21-46)39-115-114-38-61(94-68(104)53(78)27-45-18-22-50(98)23-19-45)75(111)95-60-37-113-40-65(101)97(36-49(88-73(60)109)32-48-35-83-41-86-48)63(30-44-13-6-3-7-14-44)76(112)89-55(17-10-26-84-77(81)82)69(105)92-58(31-47-34-85-54-16-9-8-15-52(47)54)72(108)93-59(33-64(79)100)70(106)87-42/h2-9,11-16,18-25,34-35,41-42,49,53,55-63,85,98-99H,10,17,26-33,36-40,78H2,1H3,(H2,79,100)(H2,80,102)(H,83,86)(H,87,106)(H,88,109)(H,89,112)(H,90,110)(H,91,103)(H,92,105)(H,93,108)(H,94,104)(H,95,111)(H,96,107)(H4,81,82,84)/t42-,49-,53-,55-,56-,57-,58-,59-,60-,61-,62-,63+/m0/s1

>  <IUPAC Name>  (1) 
(2R,5S,8S,11S,14S,17S,20R,25R,28R,34S)-N-[(2S)-1-amino-3-(4-hydroxyphenyl)-1-oxopropan-2-yl]-25-[[(2S)-2-amino-3-(4-hydroxyphenyl)propanoyl]amino]-11-(2-amino-2-oxoethyl)-2,17-dibenzyl-5-(3-carbamimidamidopropyl)-34-(1H-imidazol-4-ylmethyl)-8-(1H-indol-3-ylmethyl)-14-methyl-3,6,9,12,15,18,26,32,36-nonaoxo-22,23,30-trithia-1,4,7,10,13,16,19,27,35-nonazabicyclo[26.4.4]hexatriacontane-20-carboxamide

$$$$
