
     RDKit          3D

 83 85  0  0  0  0  0  0  0  0999 V2000
    3.3824    3.3112    1.8791 O   0  0  0  0  0  0  0  0  0  0  0  0
    2.6672    2.7362    1.0362 C   0  0  0  0  0  0  0  0  0  0  0  0
    1.4665    3.3818    0.5122 C   0  0  0  0  0  0  0  0  0  0  0  0
    0.6218    2.6954   -0.4001 N   0  0  0  0  0  0  0  0  0  0  0  0
   -0.2192    1.5496   -0.1010 C   0  0  0  0  0  0  0  0  0  0  0  0
   -0.1649    1.1841    1.0717 O   0  0  0  0  0  0  0  0  0  0  0  0
   -1.0364    0.9722   -1.1790 C   0  0  2  0  0  0  0  0  0  0  0  0
   -2.3924    0.6462   -0.6061 N   0  0  0  0  0  0  0  0  0  0  0  0
   -3.5403    1.1990   -1.2902 C   0  0  0  0  0  0  0  0  0  0  0  0
   -3.3842    1.9317   -2.2945 O   0  0  0  0  0  0  0  0  0  0  0  0
   -4.9086    0.8569   -0.7613 C   0  0  2  0  0  0  0  0  0  0  0  0
   -5.8835    1.5685   -1.6279 C   0  0  0  0  0  0  0  0  0  0  0  0
   -7.3077    1.3359   -1.2894 C   0  0  0  0  0  0  0  0  0  0  0  0
   -7.9494    0.2778   -1.9163 C   0  0  0  0  0  0  0  0  0  0  0  0
   -9.2465   -0.0672   -1.7236 C   0  0  0  0  0  0  0  0  0  0  0  0
   -9.9725    0.7071   -0.8252 C   0  0  0  0  0  0  0  0  0  0  0  0
   -9.3851    1.7865   -0.1584 C   0  0  0  0  0  0  0  0  0  0  0  0
   -8.0295    2.1011   -0.3996 C   0  0  0  0  0  0  0  0  0  0  0  0
  -11.3242    0.4314   -0.5513 O   0  0  0  0  0  0  0  0  0  0  0  0
   -5.0079    1.0273    0.6348 N   0  0  0  0  0  0  0  0  0  0  0  0
   -0.5636   -0.3409   -1.7720 C   0  0  0  0  0  0  0  0  0  0  0  0
   -1.3831   -0.5846   -3.0889 C   0  0  0  0  0  0  0  0  0  0  0  0
    0.8399   -0.4364   -2.1846 C   0  0  0  0  0  0  0  0  0  0  0  0
   -1.0360   -1.6742   -0.6517 S   0  0  0  0  0  0  0  0  0  0  0  0
   -0.0099   -1.6858    1.1277 S   0  0  0  0  0  0  0  0  0  0  0  0
    1.4280   -2.7331    1.2636 C   0  0  0  0  0  0  0  0  0  0  0  0
    2.3227   -2.1655    2.3839 C   0  0  1  0  0  0  0  0  0  0  0  0
    2.7226   -0.8745    1.8875 N   0  0  0  0  0  0  0  0  0  0  0  0
    4.1070   -0.4389    1.8368 C   0  0  0  0  0  0  0  0  0  0  0  0
    4.8995   -1.2356    2.3364 O   0  0  0  0  0  0  0  0  0  0  0  0
    4.3840    0.8672    1.2197 C   0  0  2  0  0  0  0  0  0  0  0  0
    3.1468    1.4455    0.6633 N   0  0  0  0  0  0  0  0  0  0  0  0
    5.3141    0.7192    0.0216 C   0  0  0  0  0  0  0  0  0  0  0  0
    6.6144    0.1296    0.3566 C   0  0  0  0  0  0  0  0  0  0  0  0
    7.6703    0.8859    0.7310 C   0  0  0  0  0  0  0  0  0  0  0  0
    8.9189    0.4146    1.0714 C   0  0  0  0  0  0  0  0  0  0  0  0
    9.0712   -0.9736    1.0127 C   0  0  0  0  0  0  0  0  0  0  0  0
    8.0133   -1.7290    0.6373 C   0  0  0  0  0  0  0  0  0  0  0  0
    6.7591   -1.2787    0.2943 C   0  0  0  0  0  0  0  0  0  0  0  0
    1.5167   -2.0450    3.6339 C   0  0  0  0  0  0  0  0  0  0  0  0
    1.0981   -3.0945    4.1775 O   0  0  0  0  0  0  0  0  0  0  0  0
    1.2602   -0.7789    4.1461 O   0  0  0  0  0  0  0  0  0  0  0  0
    2.2828   -2.8166    0.0291 C   0  0  0  0  0  0  0  0  0  0  0  0
    1.0712   -4.1435    1.7417 C   0  0  0  0  0  0  0  0  0  0  0  0
    0.8364    3.7863    1.3957 H   0  0  0  0  0  0  0  0  0  0  0  0
    1.7667    4.3587    0.0121 H   0  0  0  0  0  0  0  0  0  0  0  0
    0.5544    3.0046   -1.3739 H   0  0  0  0  0  0  0  0  0  0  0  0
   -1.1925    1.6870   -1.9636 H   0  0  0  0  0  0  0  0  0  0  0  0
   -2.4627    0.0554    0.2416 H   0  0  0  0  0  0  0  0  0  0  0  0
   -5.0282   -0.2564   -1.0035 H   0  0  0  0  0  0  0  0  0  0  0  0
   -5.7592    1.2009   -2.6976 H   0  0  0  0  0  0  0  0  0  0  0  0
   -5.7274    2.6694   -1.6670 H   0  0  0  0  0  0  0  0  0  0  0  0
   -7.3717   -0.3313   -2.6151 H   0  0  0  0  0  0  0  0  0  0  0  0
   -9.6810   -0.9036   -2.2505 H   0  0  0  0  0  0  0  0  0  0  0  0
   -9.9643    2.3952    0.5542 H   0  0  0  0  0  0  0  0  0  0  0  0
   -7.5411    2.9246    0.0872 H   0  0  0  0  0  0  0  0  0  0  0  0
  -12.0353    1.1468   -0.4617 H   0  0  0  0  0  0  0  0  0  0  0  0
   -5.3631    0.1655    1.0937 H   0  0  0  0  0  0  0  0  0  0  0  0
   -4.1104    1.2877    1.0900 H   0  0  0  0  0  0  0  0  0  0  0  0
   -2.4402   -0.5014   -2.8237 H   0  0  0  0  0  0  0  0  0  0  0  0
   -1.2160   -1.6331   -3.4091 H   0  0  0  0  0  0  0  0  0  0  0  0
   -0.9986    0.0640   -3.8708 H   0  0  0  0  0  0  0  0  0  0  0  0
    1.1346    0.3473   -2.9423 H   0  0  0  0  0  0  0  0  0  0  0  0
    0.9981   -1.4504   -2.6929 H   0  0  0  0  0  0  0  0  0  0  0  0
    1.5210   -0.4799   -1.3274 H   0  0  0  0  0  0  0  0  0  0  0  0
    3.1112   -2.8757    2.5853 H   0  0  0  0  0  0  0  0  0  0  0  0
    2.0522   -0.2087    1.5550 H   0  0  0  0  0  0  0  0  0  0  0  0
    4.8179    1.5471    1.9764 H   0  0  0  0  0  0  0  0  0  0  0  0
    2.5715    0.9587   -0.0154 H   0  0  0  0  0  0  0  0  0  0  0  0
    5.4167    1.7309   -0.4043 H   0  0  0  0  0  0  0  0  0  0  0  0
    4.7998    0.0719   -0.7363 H   0  0  0  0  0  0  0  0  0  0  0  0
    7.5391    1.9687    0.7699 H   0  0  0  0  0  0  0  0  0  0  0  0
    9.7499    1.0270    1.3624 H   0  0  0  0  0  0  0  0  0  0  0  0
   10.0369   -1.3726    1.2762 H   0  0  0  0  0  0  0  0  0  0  0  0
    8.1752   -2.8220    0.6030 H   0  0  0  0  0  0  0  0  0  0  0  0
    5.9788   -1.9349   -0.0005 H   0  0  0  0  0  0  0  0  0  0  0  0
    0.5161   -0.6385    4.8301 H   0  0  0  0  0  0  0  0  0  0  0  0
    2.8566   -3.7686    0.0646 H   0  0  0  0  0  0  0  0  0  0  0  0
    2.9396   -1.9610   -0.0880 H   0  0  0  0  0  0  0  0  0  0  0  0
    1.5635   -2.8317   -0.8442 H   0  0  0  0  0  0  0  0  0  0  0  0
    1.0724   -4.7650    0.8314 H   0  0  0  0  0  0  0  0  0  0  0  0
    0.1569   -4.1794    2.3439 H   0  0  0  0  0  0  0  0  0  0  0  0
    1.8925   -4.5486    2.3720 H   0  0  0  0  0  0  0  0  0  0  0  0
  1  2  2  0
  2  3  1  0
  3  4  1  0
  4  5  1  0
  5  6  2  0
  5  7  1  0
  7  8  1  0
  8  9  1  0
  9 10  2  0
  9 11  1  0
 11 12  1  0
 12 13  1  0
 13 14  2  0
 14 15  1  0
 15 16  2  0
 16 17  1  0
 17 18  2  0
 16 19  1  0
 11 20  1  0
  7 21  1  0
 21 22  1  0
 21 23  1  0
 21 24  1  0
 24 25  1  0
 25 26  1  0
 26 27  1  0
 27 28  1  0
 28 29  1  0
 29 30  2  0
 29 31  1  0
 31 32  1  0
 31 33  1  0
 33 34  1  0
 34 35  2  0
 35 36  1  0
 36 37  2  0
 37 38  1  0
 38 39  2  0
 27 40  1  0
 40 41  2  0
 40 42  1  0
 26 43  1  0
 26 44  1  0
 32  2  1  0
 39 34  1  0
 18 13  1  0
  3 45  1  0
  3 46  1  0
  4 47  1  0
  7 48  1  6
  8 49  1  0
 11 50  1  1
 12 51  1  0
 12 52  1  0
 14 53  1  0
 15 54  1  0
 17 55  1  0
 18 56  1  0
 19 57  1  0
 20 58  1  0
 20 59  1  0
 22 60  1  0
 22 61  1  0
 22 62  1  0
 23 63  1  0
 23 64  1  0
 23 65  1  0
 27 66  1  1
 28 67  1  0
 31 68  1  1
 32 69  1  0
 33 70  1  0
 33 71  1  0
 35 72  1  0
 36 73  1  0
 37 74  1  0
 38 75  1  0
 39 76  1  0
 42 77  1  0
 43 78  1  0
 43 79  1  0
 43 80  1  0
 44 81  1  0
 44 82  1  0
 44 83  1  0
M  END
>  <Ligand ID>  (1) 
LIG0001655

>  <Ligand>  (1) 
CHEMBL294616

>  <SMILES>  (1) 
O=C1CNC(=O)[C@H](NC(=O)[C@H](Cc2ccc(cc2)O)N)C(C)(C)SSC([C@@H](NC(=O)[C@H](N1)Cc1ccccc1)C(=O)O)(C)C

>  <CID>  (1) 
44299404.0

>  <ChEMBL ID>  (1) 
nan

>  <InChiKey>  (1) 
MCMMCRYPQBNCPH-DVKRWUGUSA-N

>  <InChi>  (1) 
InChI=1S/C30H39N5O7S2/c1-29(2)23(34-25(38)20(31)14-18-10-12-19(36)13-11-18)27(40)32-16-22(37)33-21(15-17-8-6-5-7-9-17)26(39)35-24(28(41)42)30(3,4)44-43-29/h5-13,20-21,23-24,36H,14-16,31H2,1-4H3,(H,32,40)(H,33,37)(H,34,38)(H,35,39)(H,41,42)/t20-,21+,23-,24-/m0/s1

>  <IUPAC Name>  (1) 
(4S,7R,13S)-13-[[(2S)-2-amino-3-(4-hydroxyphenyl)propanoyl]amino]-7-benzyl-3,3,14,14-tetramethyl-6,9,12-trioxo-1,2-dithia-5,8,11-triazacyclotetradecane-4-carboxylic acid

$$$$
