
     RDKit          3D

 40 43  0  0  0  0  0  0  0  0999 V2000
    6.3458   -2.5495    0.0410 C   0  0  0  0  0  0  0  0  0  0  0  0
    5.1607   -2.5469   -0.6952 O   0  0  0  0  0  0  0  0  0  0  0  0
    4.1738   -1.6013   -0.5866 C   0  0  0  0  0  0  0  0  0  0  0  0
    3.0231   -1.6921   -1.3727 C   0  0  0  0  0  0  0  0  0  0  0  0
    2.0106   -0.7357   -1.2719 C   0  0  0  0  0  0  0  0  0  0  0  0
    2.1568    0.3079   -0.3824 C   0  0  0  0  0  0  0  0  0  0  0  0
    3.3095    0.4014    0.4070 C   0  0  0  0  0  0  0  0  0  0  0  0
    4.2910   -0.5571    0.2851 C   0  0  0  0  0  0  0  0  0  0  0  0
    1.1701    1.3545   -0.1919 C   0  0  0  0  0  0  0  0  0  0  0  0
    1.6030    2.6380   -0.1439 N   0  0  0  0  0  0  0  0  0  0  0  0
    0.7930    3.6601    0.0263 N   0  0  0  0  0  0  0  0  0  0  0  0
   -0.5410    3.4786    0.1650 C   0  0  0  0  0  0  0  0  0  0  0  0
   -1.0302    2.1924    0.1234 C   0  0  0  0  0  0  0  0  0  0  0  0
   -0.1819    1.1230   -0.0548 C   0  0  0  0  0  0  0  0  0  0  0  0
   -0.9107   -0.0429   -0.0582 C   0  0  0  0  0  0  0  0  0  0  0  0
   -2.1907    0.3319    0.1174 N   0  0  0  0  0  0  0  0  0  0  0  0
   -2.2579    1.6680    0.2254 N   0  0  0  0  0  0  0  0  0  0  0  0
   -3.3517   -0.4884    0.1895 C   0  0  0  0  0  0  0  0  0  0  0  0
   -4.3958   -0.1053    1.0344 C   0  0  0  0  0  0  0  0  0  0  0  0
   -5.5518   -0.8614    1.1485 C   0  0  0  0  0  0  0  0  0  0  0  0
   -5.6971   -2.0293    0.4161 C   0  0  0  0  0  0  0  0  0  0  0  0
   -4.6668   -2.4048   -0.4159 C   0  0  0  0  0  0  0  0  0  0  0  0
   -3.5017   -1.6516   -0.5370 C   0  0  0  0  0  0  0  0  0  0  0  0
   -7.1471   -3.0099    0.5367 Cl  0  0  0  0  0  0  0  0  0  0  0  0
   -1.4610    4.6266    0.3572 C   0  0  0  0  0  0  0  0  0  0  0  0
    6.2704   -2.1355    1.0581 H   0  0  0  0  0  0  0  0  0  0  0  0
    7.1171   -1.9689   -0.5034 H   0  0  0  0  0  0  0  0  0  0  0  0
    6.6521   -3.6111    0.1688 H   0  0  0  0  0  0  0  0  0  0  0  0
    2.9444   -2.5237   -2.0579 H   0  0  0  0  0  0  0  0  0  0  0  0
    1.1197   -0.7988   -1.8782 H   0  0  0  0  0  0  0  0  0  0  0  0
    3.4281    1.2216    1.1082 H   0  0  0  0  0  0  0  0  0  0  0  0
    5.1650   -0.4258    0.9298 H   0  0  0  0  0  0  0  0  0  0  0  0
   -0.5359   -1.0283   -0.1740 H   0  0  0  0  0  0  0  0  0  0  0  0
   -4.3365    0.8022    1.6333 H   0  0  0  0  0  0  0  0  0  0  0  0
   -6.3616   -0.5381    1.8221 H   0  0  0  0  0  0  0  0  0  0  0  0
   -4.7994   -3.3316   -0.9876 H   0  0  0  0  0  0  0  0  0  0  0  0
   -2.6995   -1.9538   -1.1918 H   0  0  0  0  0  0  0  0  0  0  0  0
   -2.2849    4.3721    1.0603 H   0  0  0  0  0  0  0  0  0  0  0  0
   -0.9239    5.4856    0.8129 H   0  0  0  0  0  0  0  0  0  0  0  0
   -1.9072    4.9281   -0.6053 H   0  0  0  0  0  0  0  0  0  0  0  0
  1  2  1  0
  2  3  1  0
  3  4  2  0
  4  5  1  0
  5  6  2  0
  6  7  1  0
  7  8  2  0
  6  9  1  0
  9 10  2  0
 10 11  1  0
 11 12  2  0
 12 13  1  0
 13 14  1  0
 14 15  2  0
 15 16  1  0
 16 17  1  0
 16 18  1  0
 18 19  2  0
 19 20  1  0
 20 21  2  0
 21 22  1  0
 22 23  2  0
 21 24  1  0
 12 25  1  0
  8  3  1  0
 14  9  1  0
 23 18  1  0
 17 13  2  0
  1 26  1  0
  1 27  1  0
  1 28  1  0
  4 29  1  0
  5 30  1  0
  7 31  1  0
  8 32  1  0
 15 33  1  0
 19 34  1  0
 20 35  1  0
 22 36  1  0
 23 37  1  0
 25 38  1  0
 25 39  1  0
 25 40  1  0
M  END
>  <Ligand ID>  (1) 
LIG0003980

>  <Ligand>  (1) 
MLS-0437173.0001

>  <SMILES>  (1) 
COc1ccc(cc1)c1nnc(c2c1cn(n2)c1ccc(cc1)Cl)C

>  <CID>  (1) 
3392313.0

>  <ChEMBL ID>  (1) 
nan

>  <InChiKey>  (1) 
OYCDXZAUSBGNEU-UHFFFAOYSA-N

>  <InChi>  (1) 
InChI=1S/C19H15ClN4O/c1-12-18-17(11-24(23-18)15-7-5-14(20)6-8-15)19(22-21-12)13-3-9-16(25-2)10-4-13/h3-11H,1-2H3

>  <IUPAC Name>  (1) 
2-(4-chlorophenyl)-4-(4-methoxyphenyl)-7-methylpyrazolo[3,4-d]pyridazine

$$$$
