
     RDKit          3D

 24 25  0  0  0  0  0  0  0  0999 V2000
    3.4150    0.5920    0.2893 O   0  0  0  0  0  0  0  0  0  0  0  0
    2.7280    0.2407   -0.8559 C   0  0  0  0  0  0  0  0  0  0  0  0
    3.2999    0.3505   -1.9662 O   0  0  0  0  0  0  0  0  0  0  0  0
    1.3303   -0.2679   -0.8565 C   0  0  1  0  0  0  0  0  0  0  0  0
    0.9458   -1.0889    0.3139 C   0  0  1  0  0  0  0  0  0  0  0  0
    0.4469    0.3605    0.1460 C   0  0  2  0  0  0  0  0  0  0  0  0
   -1.0549    0.2779    0.0777 C   0  0  2  0  0  0  0  0  0  0  0  0
   -1.3449   -0.9852    0.8217 C   0  0  0  0  0  0  0  0  0  0  0  0
   -0.3053   -1.9350    0.2772 C   0  0  0  0  0  0  0  0  0  0  0  0
   -1.4981    0.2728   -1.2924 N   0  0  0  0  0  0  0  0  0  0  0  0
   -1.6302    1.4639    0.7466 C   0  0  0  0  0  0  0  0  0  0  0  0
   -1.4007    1.7204    1.9765 O   0  0  0  0  0  0  0  0  0  0  0  0
   -2.4578    2.3816    0.0911 O   0  0  0  0  0  0  0  0  0  0  0  0
    4.1947    1.2399    0.2980 H   0  0  0  0  0  0  0  0  0  0  0  0
    0.9585   -0.4926   -1.8673 H   0  0  0  0  0  0  0  0  0  0  0  0
    1.6651   -1.2841    1.1279 H   0  0  0  0  0  0  0  0  0  0  0  0
    0.8651    1.0699    0.8892 H   0  0  0  0  0  0  0  0  0  0  0  0
   -1.0622   -0.7973    1.8854 H   0  0  0  0  0  0  0  0  0  0  0  0
   -2.3738   -1.3680    0.7172 H   0  0  0  0  0  0  0  0  0  0  0  0
   -0.2034   -2.8446    0.9034 H   0  0  0  0  0  0  0  0  0  0  0  0
   -0.5118   -2.2182   -0.7751 H   0  0  0  0  0  0  0  0  0  0  0  0
   -2.5307    0.3813   -1.3561 H   0  0  0  0  0  0  0  0  0  0  0  0
   -1.0885   -0.4564   -1.8858 H   0  0  0  0  0  0  0  0  0  0  0  0
   -2.3868    3.3868    0.2942 H   0  0  0  0  0  0  0  0  0  0  0  0
  1  2  1  0
  2  3  2  0
  2  4  1  0
  4  5  1  0
  5  6  1  0
  6  7  1  0
  7  8  1  0
  8  9  1  0
  7 10  1  6
  7 11  1  0
 11 12  2  0
 11 13  1  0
  6  4  1  0
  9  5  1  0
  1 14  1  0
  4 15  1  6
  5 16  1  1
  6 17  1  1
  8 18  1  0
  8 19  1  0
  9 20  1  0
  9 21  1  0
 10 22  1  0
 10 23  1  0
 13 24  1  0
M  END
>  <Ligand ID>  (1) 
LIG0000393

>  <Ligand>  (1) 
eglumegad

>  <SMILES>  (1) 
OC(=O)[C@H]1[C@H]2[C@@H]1[C@](CC2)(N)C(=O)O

>  <CID>  (1) 
213056.0

>  <ChEMBL ID>  (1) 
nan

>  <InChiKey>  (1) 
VTAARTQTOOYTES-RGDLXGNYSA-N

>  <InChi>  (1) 
InChI=1S/C8H11NO4/c9-8(7(12)13)2-1-3-4(5(3)8)6(10)11/h3-5H,1-2,9H2,(H,10,11)(H,12,13)/t3-,4-,5-,8-/m0/s1

>  <IUPAC Name>  (1) 
(1S,2S,5R,6S)-2-aminobicyclo[3.1.0]hexane-2,6-dicarboxylic acid

$$$$
