
     RDKit          3D

 55 58  0  0  0  0  0  0  0  0999 V2000
   10.1137   -0.0286   -1.5682 O   0  0  0  0  0  0  0  0  0  0  0  0
    9.4675   -1.2264   -1.2829 C   0  0  0  0  0  0  0  0  0  0  0  0
   10.1017   -2.3299   -1.3907 O   0  0  0  0  0  0  0  0  0  0  0  0
    8.0546   -1.3082   -0.8509 C   0  0  0  0  0  0  0  0  0  0  0  0
    7.5040    0.0992   -0.7911 C   0  0  0  0  0  0  0  0  0  0  0  0
    6.0876    0.1254   -0.3661 C   0  0  0  0  0  0  0  0  0  0  0  0
    5.8113    0.2253    0.9938 C   0  0  0  0  0  0  0  0  0  0  0  0
    4.4883    0.2540    1.4471 C   0  0  0  0  0  0  0  0  0  0  0  0
    3.4294    0.1836    0.5523 C   0  0  0  0  0  0  0  0  0  0  0  0
    3.7248    0.0864   -0.7722 C   0  0  0  0  0  0  0  0  0  0  0  0
    5.0234    0.0564   -1.2420 C   0  0  0  0  0  0  0  0  0  0  0  0
    2.5943    0.0102   -1.7417 C   0  0  0  0  0  0  0  0  0  0  0  0
    2.0843    0.2191    1.0981 C   0  0  0  0  0  0  0  0  0  0  0  0
    1.8150    0.3156    2.4127 N   0  0  0  0  0  0  0  0  0  0  0  0
    0.5196    0.3244    2.5964 O   0  0  0  0  0  0  0  0  0  0  0  0
   -0.0522    0.2345    1.4130 C   0  0  0  0  0  0  0  0  0  0  0  0
    0.9000    0.1678    0.4672 N   0  0  0  0  0  0  0  0  0  0  0  0
   -1.4987    0.2152    1.2273 C   0  0  0  0  0  0  0  0  0  0  0  0
   -2.3110    0.2948    2.3408 C   0  0  0  0  0  0  0  0  0  0  0  0
   -3.6859    0.2797    2.2070 C   0  0  0  0  0  0  0  0  0  0  0  0
   -4.2662    0.1849    0.9582 C   0  0  0  0  0  0  0  0  0  0  0  0
   -3.4481    0.1057   -0.1518 C   0  0  0  0  0  0  0  0  0  0  0  0
   -2.0634    0.1200   -0.0283 C   0  0  0  0  0  0  0  0  0  0  0  0
   -5.7520    0.1727    0.8683 C   0  0  0  0  0  0  0  0  0  0  0  0
   -6.1919   -1.1099    0.2805 C   0  0  0  0  0  0  0  0  0  0  0  0
   -7.4565   -1.0588   -0.5282 C   0  0  0  0  0  0  0  0  0  0  0  0
   -8.2488    0.2100   -0.2057 C   0  0  0  0  0  0  0  0  0  0  0  0
   -7.3347    1.3055   -0.7507 C   0  0  0  0  0  0  0  0  0  0  0  0
   -6.1810    1.4203    0.1774 C   0  0  0  0  0  0  0  0  0  0  0  0
   11.1307   -0.0060   -1.7310 H   0  0  0  0  0  0  0  0  0  0  0  0
    7.5114   -1.9612   -1.5432 H   0  0  0  0  0  0  0  0  0  0  0  0
    8.0291   -1.7929    0.1404 H   0  0  0  0  0  0  0  0  0  0  0  0
    7.5963    0.5288   -1.8118 H   0  0  0  0  0  0  0  0  0  0  0  0
    8.1267    0.6492   -0.0392 H   0  0  0  0  0  0  0  0  0  0  0  0
    6.6307    0.2822    1.7191 H   0  0  0  0  0  0  0  0  0  0  0  0
    4.3540    0.3326    2.5125 H   0  0  0  0  0  0  0  0  0  0  0  0
    5.2614   -0.0205   -2.2911 H   0  0  0  0  0  0  0  0  0  0  0  0
    2.1163    1.0130   -1.7646 H   0  0  0  0  0  0  0  0  0  0  0  0
    2.9946   -0.2978   -2.7512 H   0  0  0  0  0  0  0  0  0  0  0  0
    1.8805   -0.8046   -1.4713 H   0  0  0  0  0  0  0  0  0  0  0  0
   -1.8971    0.3705    3.3399 H   0  0  0  0  0  0  0  0  0  0  0  0
   -4.2867    0.3441    3.1047 H   0  0  0  0  0  0  0  0  0  0  0  0
   -3.9132    0.0315   -1.1286 H   0  0  0  0  0  0  0  0  0  0  0  0
   -1.4125    0.0595   -0.8773 H   0  0  0  0  0  0  0  0  0  0  0  0
   -6.1348    0.2486    1.9116 H   0  0  0  0  0  0  0  0  0  0  0  0
   -6.3551   -1.8931    1.0618 H   0  0  0  0  0  0  0  0  0  0  0  0
   -5.4112   -1.5641   -0.3781 H   0  0  0  0  0  0  0  0  0  0  0  0
   -8.1181   -1.9165   -0.3882 H   0  0  0  0  0  0  0  0  0  0  0  0
   -7.2026   -0.9554   -1.6043 H   0  0  0  0  0  0  0  0  0  0  0  0
   -8.3195    0.2837    0.8871 H   0  0  0  0  0  0  0  0  0  0  0  0
   -9.2222    0.1833   -0.6891 H   0  0  0  0  0  0  0  0  0  0  0  0
   -7.8907    2.2397   -0.8014 H   0  0  0  0  0  0  0  0  0  0  0  0
   -6.9568    0.9931   -1.7574 H   0  0  0  0  0  0  0  0  0  0  0  0
   -5.3289    1.8580   -0.4240 H   0  0  0  0  0  0  0  0  0  0  0  0
   -6.4114    2.2453    0.9001 H   0  0  0  0  0  0  0  0  0  0  0  0
  1  2  1  0
  2  3  2  0
  2  4  1  0
  4  5  1  0
  5  6  1  0
  6  7  2  0
  7  8  1  0
  8  9  2  0
  9 10  1  0
 10 11  2  0
 10 12  1  0
  9 13  1  0
 13 14  2  0
 14 15  1  0
 15 16  1  0
 16 17  2  0
 16 18  1  0
 18 19  2  0
 19 20  1  0
 20 21  2  0
 21 22  1  0
 22 23  2  0
 21 24  1  0
 24 25  1  0
 25 26  1  0
 26 27  1  0
 27 28  1  0
 28 29  1  0
 11  6  1  0
 17 13  1  0
 23 18  1  0
 29 24  1  0
  1 30  1  0
  4 31  1  0
  4 32  1  0
  5 33  1  0
  5 34  1  0
  7 35  1  0
  8 36  1  0
 11 37  1  0
 12 38  1  0
 12 39  1  0
 12 40  1  0
 19 41  1  0
 20 42  1  0
 22 43  1  0
 23 44  1  0
 24 45  1  0
 25 46  1  0
 25 47  1  0
 26 48  1  0
 26 49  1  0
 27 50  1  0
 27 51  1  0
 28 52  1  0
 28 53  1  0
 29 54  1  0
 29 55  1  0
M  END
>  <Ligand ID>  (1) 
LIG0001690

>  <Ligand>  (1) 
CHEMBL208168

>  <SMILES>  (1) 
OC(=O)CCc1ccc(c(c1)C)c1noc(n1)c1ccc(cc1)C1CCCCC1

>  <CID>  (1) 
44412882.0

>  <ChEMBL ID>  (1) 
nan

>  <InChiKey>  (1) 
VQPXDLUPXBLILC-UHFFFAOYSA-N

>  <InChi>  (1) 
InChI=1S/C24H26N2O3/c1-16-15-17(8-14-22(27)28)7-13-21(16)23-25-24(29-26-23)20-11-9-19(10-12-20)18-5-3-2-4-6-18/h7,9-13,15,18H,2-6,8,14H2,1H3,(H,27,28)

>  <IUPAC Name>  (1) 
3-[4-[5-(4-cyclohexylphenyl)-1,2,4-oxadiazol-3-yl]-3-methylphenyl]propanoic acid

$$$$
