
     RDKit          3D

 14 14  0  0  0  0  0  0  0  0999 V2000
   -2.6330    0.8598   -0.1481 O   0  0  0  0  0  0  0  0  0  0  0  0
   -1.8926   -0.3251   -0.1211 C   0  0  0  0  0  0  0  0  0  0  0  0
   -2.4832   -1.4378   -0.1532 O   0  0  0  0  0  0  0  0  0  0  0  0
   -0.4218   -0.2271   -0.0549 C   0  0  0  0  0  0  0  0  0  0  0  0
    0.2152    1.0094   -0.0201 C   0  0  0  0  0  0  0  0  0  0  0  0
    1.5934    0.9948    0.0414 C   0  0  0  0  0  0  0  0  0  0  0  0
    2.3081   -0.2033    0.0671 C   0  0  0  0  0  0  0  0  0  0  0  0
    1.6591   -1.4008    0.0320 N   0  0  0  0  0  0  0  0  0  0  0  0
    0.3032   -1.4125   -0.0286 C   0  0  0  0  0  0  0  0  0  0  0  0
   -3.5596    0.8134    0.2990 H   0  0  0  0  0  0  0  0  0  0  0  0
   -0.3719    1.9185   -0.0417 H   0  0  0  0  0  0  0  0  0  0  0  0
    2.1344    1.9477    0.0704 H   0  0  0  0  0  0  0  0  0  0  0  0
    3.4050   -0.1768    0.1163 H   0  0  0  0  0  0  0  0  0  0  0  0
   -0.2564   -2.3601   -0.0584 H   0  0  0  0  0  0  0  0  0  0  0  0
  1  2  1  0
  2  3  2  0
  2  4  1  0
  4  5  2  0
  5  6  1  0
  6  7  2  0
  7  8  1  0
  8  9  2  0
  9  4  1  0
  1 10  1  0
  5 11  1  0
  6 12  1  0
  7 13  1  0
  9 14  1  0
M  END
>  <Ligand ID>  (1) 
LIG0005974

>  <Ligand>  (1) 
nicotinic acid

>  <SMILES>  (1) 
OC(=O)c1cccnc1

>  <CID>  (1) 
938.0

>  <ChEMBL ID>  (1) 
nan

>  <InChiKey>  (1) 
PVNIIMVLHYAWGP-UHFFFAOYSA-N

>  <InChi>  (1) 
InChI=1S/C6H5NO2/c8-6(9)5-2-1-3-7-4-5/h1-4H,(H,8,9)

>  <IUPAC Name>  (1) 
pyridine-3-carboxylic acid

$$$$
