
     RDKit          3D

 58 59  0  0  0  0  0  0  0  0999 V2000
   -6.3933   -2.0314   -1.1771 N   0  0  0  0  0  0  0  0  0  0  0  0
   -6.0490   -3.3597   -0.7252 C   0  0  0  0  0  0  0  0  0  0  0  0
   -5.1904   -3.3115    0.5338 C   0  0  0  0  0  0  0  0  0  0  0  0
   -3.9097   -2.5545    0.2458 C   0  0  0  0  0  0  0  0  0  0  0  0
   -3.0153   -2.4702    1.4496 C   0  0  0  0  0  0  0  0  0  0  0  0
   -1.8041   -1.7494    1.1785 N   0  0  0  0  0  0  0  0  0  0  0  0
   -1.8769   -0.4002    0.7705 C   0  0  0  0  0  0  0  0  0  0  0  0
   -2.9677    0.2358    0.6266 O   0  0  0  0  0  0  0  0  0  0  0  0
   -0.6461    0.4255    0.4613 C   0  0  1  0  0  0  0  0  0  0  0  0
    0.4972   -0.4069    0.6481 N   0  0  0  0  0  0  0  0  0  0  0  0
    1.5370   -0.8159   -0.1698 C   0  0  0  0  0  0  0  0  0  0  0  0
    1.7240   -0.5551   -1.3768 O   0  0  0  0  0  0  0  0  0  0  0  0
    2.5759   -1.6630    0.3979 N   0  0  0  0  0  0  0  0  0  0  0  0
    3.6986   -2.1284   -0.3683 C   0  0  0  0  0  0  0  0  0  0  0  0
    4.7238   -1.0829   -0.4768 C   0  0  0  0  0  0  0  0  0  0  0  0
    4.8605   -0.1690   -1.4716 C   0  0  0  0  0  0  0  0  0  0  0  0
    5.8734    0.7690   -1.4555 C   0  0  0  0  0  0  0  0  0  0  0  0
    6.7829    0.8138   -0.4322 C   0  0  0  0  0  0  0  0  0  0  0  0
    6.6725   -0.0943    0.5859 C   0  0  0  0  0  0  0  0  0  0  0  0
    5.6616   -1.0239    0.5623 C   0  0  0  0  0  0  0  0  0  0  0  0
   -0.9169    1.0383   -0.8608 C   0  0  0  0  0  0  0  0  0  0  0  0
    0.0607    2.0345   -1.3924 C   0  0  0  0  0  0  0  0  0  0  0  0
    0.1136    3.2047   -0.4098 C   0  0  0  0  0  0  0  0  0  0  0  0
    1.0216    3.1915    0.6343 C   0  0  0  0  0  0  0  0  0  0  0  0
    1.0491    4.2716    1.5271 C   0  0  0  0  0  0  0  0  0  0  0  0
    0.1665    5.3384    1.3515 C   0  0  0  0  0  0  0  0  0  0  0  0
   -0.7368    5.3525    0.3140 C   0  0  0  0  0  0  0  0  0  0  0  0
   -0.7357    4.2760   -0.5428 C   0  0  0  0  0  0  0  0  0  0  0  0
   -6.3158   -1.3004   -0.4550 H   0  0  0  0  0  0  0  0  0  0  0  0
   -7.2808   -2.0099   -1.7256 H   0  0  0  0  0  0  0  0  0  0  0  0
   -7.0073   -3.8842   -0.4539 H   0  0  0  0  0  0  0  0  0  0  0  0
   -5.6021   -3.9817   -1.5262 H   0  0  0  0  0  0  0  0  0  0  0  0
   -5.7881   -2.8149    1.3177 H   0  0  0  0  0  0  0  0  0  0  0  0
   -4.9912   -4.3452    0.8737 H   0  0  0  0  0  0  0  0  0  0  0  0
   -4.1976   -1.5615   -0.1146 H   0  0  0  0  0  0  0  0  0  0  0  0
   -3.3267   -3.0515   -0.5686 H   0  0  0  0  0  0  0  0  0  0  0  0
   -3.6171   -1.9757    2.2620 H   0  0  0  0  0  0  0  0  0  0  0  0
   -2.7844   -3.5058    1.8022 H   0  0  0  0  0  0  0  0  0  0  0  0
   -0.8580   -2.2184    1.2791 H   0  0  0  0  0  0  0  0  0  0  0  0
   -0.5894    1.2700    1.1653 H   0  0  0  0  0  0  0  0  0  0  0  0
    0.5419   -0.7966    1.6740 H   0  0  0  0  0  0  0  0  0  0  0  0
    2.5339   -1.9626    1.4018 H   0  0  0  0  0  0  0  0  0  0  0  0
    4.1231   -3.0539    0.1063 H   0  0  0  0  0  0  0  0  0  0  0  0
    3.3650   -2.4575   -1.3841 H   0  0  0  0  0  0  0  0  0  0  0  0
    4.1933   -0.1522   -2.3057 H   0  0  0  0  0  0  0  0  0  0  0  0
    5.9905    1.5043   -2.2459 H   0  0  0  0  0  0  0  0  0  0  0  0
    7.5999    1.5282   -0.3675 H   0  0  0  0  0  0  0  0  0  0  0  0
    7.3679   -0.0985    1.4155 H   0  0  0  0  0  0  0  0  0  0  0  0
    5.6112   -1.7296    1.3953 H   0  0  0  0  0  0  0  0  0  0  0  0
   -1.2347    0.2972   -1.6372 H   0  0  0  0  0  0  0  0  0  0  0  0
   -1.8752    1.6318   -0.7102 H   0  0  0  0  0  0  0  0  0  0  0  0
   -0.4508    2.5015   -2.2955 H   0  0  0  0  0  0  0  0  0  0  0  0
    1.0710    1.7698   -1.5885 H   0  0  0  0  0  0  0  0  0  0  0  0
    1.7126    2.3625    0.7760 H   0  0  0  0  0  0  0  0  0  0  0  0
    1.7440    4.3046    2.3596 H   0  0  0  0  0  0  0  0  0  0  0  0
    0.1616    6.1855    2.0216 H   0  0  0  0  0  0  0  0  0  0  0  0
   -1.4438    6.1609    0.1381 H   0  0  0  0  0  0  0  0  0  0  0  0
   -1.4296    4.2484   -1.3705 H   0  0  0  0  0  0  0  0  0  0  0  0
  1  2  1  0
  2  3  1  0
  3  4  1  0
  4  5  1  0
  5  6  1  0
  6  7  1  0
  7  8  2  0
  7  9  1  0
  9 10  1  0
 10 11  1  0
 11 12  2  0
 11 13  1  0
 13 14  1  0
 14 15  1  0
 15 16  2  0
 16 17  1  0
 17 18  2  0
 18 19  1  0
 19 20  2  0
  9 21  1  0
 21 22  1  0
 22 23  1  0
 23 24  2  0
 24 25  1  0
 25 26  2  0
 26 27  1  0
 27 28  2  0
 20 15  1  0
 28 23  1  0
  1 29  1  0
  1 30  1  0
  2 31  1  0
  2 32  1  0
  3 33  1  0
  3 34  1  0
  4 35  1  0
  4 36  1  0
  5 37  1  0
  5 38  1  0
  6 39  1  0
  9 40  1  1
 10 41  1  0
 13 42  1  0
 14 43  1  0
 14 44  1  0
 16 45  1  0
 17 46  1  0
 18 47  1  0
 19 48  1  0
 20 49  1  0
 21 50  1  0
 21 51  1  0
 22 52  1  0
 22 53  1  0
 24 54  1  0
 25 55  1  0
 26 56  1  0
 27 57  1  0
 28 58  1  0
M  END
>  <Ligand ID>  (1) 
LIG0001258

>  <Ligand>  (1) 
CHEMBL291870

>  <SMILES>  (1) 
NCCCCNC(=O)[C@@H](NC(=O)NCc1ccccc1)CCc1ccccc1

>  <CID>  (1) 
44305844.0

>  <ChEMBL ID>  (1) 
nan

>  <InChiKey>  (1) 
ZYEKZRBOJZGNEJ-FQEVSTJZSA-N

>  <InChi>  (1) 
InChI=1S/C22H30N4O2/c23-15-7-8-16-24-21(27)20(14-13-18-9-3-1-4-10-18)26-22(28)25-17-19-11-5-2-6-12-19/h1-6,9-12,20H,7-8,13-17,23H2,(H,24,27)(H2,25,26,28)/t20-/m0/s1

>  <IUPAC Name>  (1) 
(2S)-N-(4-aminobutyl)-2-(benzylcarbamoylamino)-4-phenylbutanamide

$$$$
