
     RDKit          3D

 66 69  0  0  0  0  0  0  0  0999 V2000
    2.6455    0.9944   -2.2289 C   0  0  0  0  0  0  0  0  0  0  0  0
    2.7334   -0.2258   -1.3789 C   0  0  0  0  0  0  0  0  0  0  0  0
    1.9343    0.0029   -0.1307 C   0  0  0  0  0  0  0  0  0  0  0  0
    2.5591   -0.1875    0.9507 O   0  0  0  0  0  0  0  0  0  0  0  0
    0.5801    0.4030   -0.1358 N   0  0  0  0  0  0  0  0  0  0  0  0
   -0.1035    0.5937    1.1174 C   0  0  0  0  0  0  0  0  0  0  0  0
   -1.3581   -0.1346    1.2662 C   0  0  0  0  0  0  0  0  0  0  0  0
   -2.0212    0.0011    2.3514 O   0  0  0  0  0  0  0  0  0  0  0  0
   -1.9328   -1.0017    0.3028 N   0  0  0  0  0  0  0  0  0  0  0  0
   -3.2069   -1.6239    0.6736 C   0  0  0  0  0  0  0  0  0  0  0  0
   -3.7563   -2.5249   -0.3806 C   0  0  0  0  0  0  0  0  0  0  0  0
   -5.0484   -3.0763    0.1207 C   0  0  0  0  0  0  0  0  0  0  0  0
   -6.2085   -2.3846   -0.1497 C   0  0  0  0  0  0  0  0  0  0  0  0
   -7.4575   -2.7909    0.2583 C   0  0  0  0  0  0  0  0  0  0  0  0
   -7.5516   -3.9656    0.9840 C   0  0  0  0  0  0  0  0  0  0  0  0
   -6.3998   -4.6637    1.2591 C   0  0  0  0  0  0  0  0  0  0  0  0
   -5.1405   -4.2450    0.8425 C   0  0  0  0  0  0  0  0  0  0  0  0
   -0.2566    2.0460    1.4937 C   0  0  0  0  0  0  0  0  0  0  0  0
   -1.0251    2.8496    0.5334 C   0  0  0  0  0  0  0  0  0  0  0  0
   -1.8125    2.5246   -0.5346 C   0  0  0  0  0  0  0  0  0  0  0  0
   -2.3320    3.6126   -1.1258 N   0  0  0  0  0  0  0  0  0  0  0  0
   -1.8742    4.6639   -0.4296 C   0  0  0  0  0  0  0  0  0  0  0  0
   -1.0682    4.2470    0.5981 C   0  0  0  0  0  0  0  0  0  0  0  0
   -0.5087    5.1959    1.4202 C   0  0  0  0  0  0  0  0  0  0  0  0
   -0.7185    6.5457    1.2612 C   0  0  0  0  0  0  0  0  0  0  0  0
   -1.5298    6.9608    0.2260 C   0  0  0  0  0  0  0  0  0  0  0  0
   -2.1085    6.0092   -0.6212 C   0  0  0  0  0  0  0  0  0  0  0  0
    4.0829   -0.5554   -0.9701 N   0  0  0  0  0  0  0  0  0  0  0  0
    4.6974   -1.8153   -1.1824 C   0  0  0  0  0  0  0  0  0  0  0  0
    4.0692   -2.7404   -1.7572 O   0  0  0  0  0  0  0  0  0  0  0  0
    6.0568   -2.1042   -0.7585 C   0  0  0  0  0  0  0  0  0  0  0  0
    6.5952   -3.3624   -0.9749 C   0  0  0  0  0  0  0  0  0  0  0  0
    7.8825   -3.6915   -0.5934 C   0  0  0  0  0  0  0  0  0  0  0  0
    8.6436   -2.6993    0.0301 C   0  0  0  0  0  0  0  0  0  0  0  0
    8.1563   -1.4373    0.2670 C   0  0  0  0  0  0  0  0  0  0  0  0
    6.8597   -1.1471   -0.1309 C   0  0  0  0  0  0  0  0  0  0  0  0
    3.3037    1.7995   -1.8102 H   0  0  0  0  0  0  0  0  0  0  0  0
    1.6201    1.3974   -2.1728 H   0  0  0  0  0  0  0  0  0  0  0  0
    2.9334    0.7980   -3.2673 H   0  0  0  0  0  0  0  0  0  0  0  0
    2.3335   -1.1039   -1.9396 H   0  0  0  0  0  0  0  0  0  0  0  0
    0.1376    0.5412   -1.0787 H   0  0  0  0  0  0  0  0  0  0  0  0
    0.6166    0.1855    1.8993 H   0  0  0  0  0  0  0  0  0  0  0  0
   -1.4515   -1.1540   -0.5863 H   0  0  0  0  0  0  0  0  0  0  0  0
   -3.9242   -0.8453    0.9475 H   0  0  0  0  0  0  0  0  0  0  0  0
   -2.9345   -2.2800    1.5515 H   0  0  0  0  0  0  0  0  0  0  0  0
   -3.9877   -1.9392   -1.2998 H   0  0  0  0  0  0  0  0  0  0  0  0
   -3.0650   -3.3245   -0.6896 H   0  0  0  0  0  0  0  0  0  0  0  0
   -6.1312   -1.4648   -0.7176 H   0  0  0  0  0  0  0  0  0  0  0  0
   -8.3541   -2.2059    0.0170 H   0  0  0  0  0  0  0  0  0  0  0  0
   -8.5400   -4.2653    1.2943 H   0  0  0  0  0  0  0  0  0  0  0  0
   -6.4766   -5.5992    1.8351 H   0  0  0  0  0  0  0  0  0  0  0  0
   -4.2375   -4.8128    1.0732 H   0  0  0  0  0  0  0  0  0  0  0  0
   -0.7855    2.1068    2.4781 H   0  0  0  0  0  0  0  0  0  0  0  0
    0.7243    2.5355    1.6807 H   0  0  0  0  0  0  0  0  0  0  0  0
   -2.0124    1.5231   -0.8814 H   0  0  0  0  0  0  0  0  0  0  0  0
   -2.9667    3.6302   -1.9627 H   0  0  0  0  0  0  0  0  0  0  0  0
    0.1352    4.8548    2.2398 H   0  0  0  0  0  0  0  0  0  0  0  0
   -0.2962    7.3109    1.8850 H   0  0  0  0  0  0  0  0  0  0  0  0
   -1.7531    8.0075    0.0233 H   0  0  0  0  0  0  0  0  0  0  0  0
   -2.7380    6.3607   -1.4235 H   0  0  0  0  0  0  0  0  0  0  0  0
    4.6061    0.2343   -0.4828 H   0  0  0  0  0  0  0  0  0  0  0  0
    5.9902   -4.1238   -1.4608 H   0  0  0  0  0  0  0  0  0  0  0  0
    8.2762   -4.6838   -0.7755 H   0  0  0  0  0  0  0  0  0  0  0  0
    9.6403   -2.9327    0.3322 H   0  0  0  0  0  0  0  0  0  0  0  0
    8.7519   -0.6632    0.7532 H   0  0  0  0  0  0  0  0  0  0  0  0
    6.5082   -0.1595    0.0651 H   0  0  0  0  0  0  0  0  0  0  0  0
  1  2  1  0
  2  3  1  0
  3  4  2  0
  3  5  1  0
  5  6  1  0
  6  7  1  0
  7  8  2  0
  7  9  1  0
  9 10  1  0
 10 11  1  0
 11 12  1  0
 12 13  2  0
 13 14  1  0
 14 15  2  0
 15 16  1  0
 16 17  2  0
  6 18  1  0
 18 19  1  0
 19 20  2  0
 20 21  1  0
 21 22  1  0
 22 23  2  0
 23 24  1  0
 24 25  2  0
 25 26  1  0
 26 27  2  0
  2 28  1  0
 28 29  1  0
 29 30  2  0
 29 31  1  0
 31 32  2  0
 32 33  1  0
 33 34  2  0
 34 35  1  0
 35 36  2  0
 17 12  1  0
 23 19  1  0
 36 31  1  0
 27 22  1  0
  1 37  1  0
  1 38  1  0
  1 39  1  0
  2 40  1  0
  5 41  1  0
  6 42  1  0
  9 43  1  0
 10 44  1  0
 10 45  1  0
 11 46  1  0
 11 47  1  0
 13 48  1  0
 14 49  1  0
 15 50  1  0
 16 51  1  0
 17 52  1  0
 18 53  1  0
 18 54  1  0
 20 55  1  0
 21 56  1  0
 24 57  1  0
 25 58  1  0
 26 59  1  0
 27 60  1  0
 28 61  1  0
 32 62  1  0
 33 63  1  0
 34 64  1  0
 35 65  1  0
 36 66  1  0
M  END
>  <Ligand ID>  (1) 
LIG0003369

>  <Ligand>  (1) 
phenylacetyl-Ala,DTrp-phenthylamide

>  <SMILES>  (1) 
CC(C(=O)NC(C(=O)NCCc1ccccc1)Cc1c[nH]c2c1cccc2)NC(=O)c1ccccc1

>  <CID>  (1) 
73755184.0

>  <ChEMBL ID>  (1) 
nan

>  <InChiKey>  (1) 
OXMOOJYZUSQLNA-UHFFFAOYSA-N

>  <InChi>  (1) 
InChI=1S/C29H30N4O3/c1-20(32-28(35)22-12-6-3-7-13-22)27(34)33-26(18-23-19-31-25-15-9-8-14-24(23)25)29(36)30-17-16-21-10-4-2-5-11-21/h2-15,19-20,26,31H,16-18H2,1H3,(H,30,36)(H,32,35)(H,33,34)

>  <IUPAC Name>  (1) 
N-[1-[[3-(1H-indol-3-yl)-1-oxo-1-(2-phenylethylamino)propan-2-yl]amino]-1-oxopropan-2-yl]benzamide

$$$$
