
     RDKit          3D

 52 53  0  0  0  0  0  0  0  0999 V2000
    7.8538   -3.2566    0.8764 C   0  0  0  0  0  0  0  0  0  0  0  0
    6.6945   -2.8883    0.0094 C   0  0  0  0  0  0  0  0  0  0  0  0
    5.5070   -2.6688    0.7023 O   0  0  0  0  0  0  0  0  0  0  0  0
    4.5053   -2.3373   -0.1755 N   0  0  0  0  0  0  0  0  0  0  0  0
    3.7340   -1.1529    0.1136 C   0  0  0  0  0  0  0  0  0  0  0  0
    4.1589    0.0725   -0.3956 C   0  0  0  0  0  0  0  0  0  0  0  0
    3.4077    1.1940   -0.1081 C   0  0  0  0  0  0  0  0  0  0  0  0
    2.2893    1.0871    0.6510 N   0  0  0  0  0  0  0  0  0  0  0  0
    1.8957   -0.1073    1.1338 C   0  0  0  0  0  0  0  0  0  0  0  0
    0.8486   -0.1486    1.8336 O   0  0  0  0  0  0  0  0  0  0  0  0
    2.6184   -1.2294    0.8652 N   0  0  0  0  0  0  0  0  0  0  0  0
    1.5635    2.3193    0.9011 C   0  0  2  0  0  0  0  0  0  0  0  0
    0.3448    1.9960    1.4431 O   0  0  0  0  0  0  0  0  0  0  0  0
   -0.6313    2.7343    0.8269 C   0  0  1  0  0  0  0  0  0  0  0  0
   -0.1341    2.7918   -0.6062 C   0  0  2  0  0  0  0  0  0  0  0  0
    1.3266    3.1377   -0.3367 C   0  0  1  0  0  0  0  0  0  0  0  0
    1.3563    4.4789    0.0425 O   0  0  0  0  0  0  0  0  0  0  0  0
   -0.7575    3.7510   -1.3736 O   0  0  0  0  0  0  0  0  0  0  0  0
   -1.9974    2.0906    0.8934 C   0  0  0  0  0  0  0  0  0  0  0  0
   -2.0047    0.8483    0.2839 O   0  0  0  0  0  0  0  0  0  0  0  0
   -3.5690    0.1692    0.3896 P   0  0  0  0  0  0  0  0  0  0  0  0
   -4.5596    1.3192    0.3992 O   0  0  0  0  0  0  0  0  0  0  0  0
   -3.8862   -0.8640   -0.9043 O   0  0  0  0  0  0  0  0  0  0  0  0
   -5.4413   -0.5604   -1.4789 P   0  0  0  0  0  0  0  0  0  0  0  0
   -6.2152    0.1632   -0.4120 O   0  0  0  0  0  0  0  0  0  0  0  0
   -6.2255   -1.9950   -1.9454 O   0  0  0  0  0  0  0  0  0  0  0  0
   -7.2584   -2.5457   -0.7289 P   0  0  0  0  0  0  0  0  0  0  0  0
   -8.6603   -1.9859   -0.9774 O   0  0  0  0  0  0  0  0  0  0  0  0
   -6.7227   -2.0569    0.7991 O   0  0  0  0  0  0  0  0  0  0  0  0
   -7.3280   -4.2378   -0.8400 O   0  0  0  0  0  0  0  0  0  0  0  0
   -5.3936    0.4085   -2.8794 O   0  0  0  0  0  0  0  0  0  0  0  0
   -3.6237   -0.7052    1.8301 O   0  0  0  0  0  0  0  0  0  0  0  0
    8.3200   -4.2321    0.5699 H   0  0  0  0  0  0  0  0  0  0  0  0
    7.5211   -3.3919    1.9291 H   0  0  0  0  0  0  0  0  0  0  0  0
    8.6349   -2.4498    0.8490 H   0  0  0  0  0  0  0  0  0  0  0  0
    6.8798   -1.9933   -0.6222 H   0  0  0  0  0  0  0  0  0  0  0  0
    6.4932   -3.7360   -0.6791 H   0  0  0  0  0  0  0  0  0  0  0  0
    4.3264   -2.9273   -1.0066 H   0  0  0  0  0  0  0  0  0  0  0  0
    5.0671    0.1083   -1.0026 H   0  0  0  0  0  0  0  0  0  0  0  0
    3.7406    2.1602   -0.5082 H   0  0  0  0  0  0  0  0  0  0  0  0
    2.1087    2.9126    1.6880 H   0  0  0  0  0  0  0  0  0  0  0  0
   -0.6343    3.7631    1.2169 H   0  0  0  0  0  0  0  0  0  0  0  0
   -0.1200    1.7907   -1.0644 H   0  0  0  0  0  0  0  0  0  0  0  0
    1.9626    2.9056   -1.1881 H   0  0  0  0  0  0  0  0  0  0  0  0
    2.1916    4.7355    0.4786 H   0  0  0  0  0  0  0  0  0  0  0  0
   -1.6335    3.3888   -1.6491 H   0  0  0  0  0  0  0  0  0  0  0  0
   -2.3534    2.0992    1.9338 H   0  0  0  0  0  0  0  0  0  0  0  0
   -2.6954    2.7613    0.3237 H   0  0  0  0  0  0  0  0  0  0  0  0
   -6.1334   -2.7600    1.1746 H   0  0  0  0  0  0  0  0  0  0  0  0
   -8.1455   -4.5935   -0.3996 H   0  0  0  0  0  0  0  0  0  0  0  0
   -5.7657    1.2911   -2.6813 H   0  0  0  0  0  0  0  0  0  0  0  0
   -3.4605   -1.6539    1.6094 H   0  0  0  0  0  0  0  0  0  0  0  0
  1  2  1  0
  2  3  1  0
  3  4  1  0
  4  5  1  0
  5  6  1  0
  6  7  2  0
  7  8  1  0
  8  9  1  0
  9 10  2  0
  9 11  1  0
  8 12  1  0
 12 13  1  0
 13 14  1  0
 14 15  1  0
 15 16  1  0
 16 17  1  0
 15 18  1  0
 14 19  1  0
 19 20  1  0
 20 21  1  0
 21 22  2  0
 21 23  1  0
 23 24  1  0
 24 25  2  0
 24 26  1  0
 26 27  1  0
 27 28  2  0
 27 29  1  0
 27 30  1  0
 24 31  1  0
 21 32  1  0
 11  5  2  0
 16 12  1  0
  1 33  1  0
  1 34  1  0
  1 35  1  0
  2 36  1  0
  2 37  1  0
  4 38  1  0
  6 39  1  0
  7 40  1  0
 12 41  1  1
 14 42  1  1
 15 43  1  6
 16 44  1  6
 17 45  1  0
 18 46  1  0
 19 47  1  0
 19 48  1  0
 29 49  1  0
 30 50  1  0
 31 51  1  0
 32 52  1  0
M  END
>  <Ligand ID>  (1) 
LIG0004496

>  <Ligand>  (1) 
CHEMBL1784890

>  <SMILES>  (1) 
CCONc1ccn(c(=O)n1)[C@@H]1O[C@@H]([C@H]([C@H]1O)O)COP(=O)(OP(=O)(OP(=O)(O)O)O)O

>  <CID>  (1) 
53308826.0

>  <ChEMBL ID>  (1) 
nan

>  <InChiKey>  (1) 
NXRKGUXDYPFZFP-PEBGCTIMSA-N

>  <InChi>  (1) 
InChI=1S/C11H20N3O15P3/c1-2-25-13-7-3-4-14(11(17)12-7)10-9(16)8(15)6(27-10)5-26-31(21,22)29-32(23,24)28-30(18,19)20/h3-4,6,8-10,15-16H,2,5H2,1H3,(H,21,22)(H,23,24)(H,12,13,17)(H2,18,19,20)/t6-,8-,9-,10-/m1/s1

>  <IUPAC Name>  (1) 
[[(2R,3S,4R,5R)-5-[4-(ethoxyamino)-2-oxopyrimidin-1-yl]-3,4-dihydroxyoxolan-2-yl]methoxy-hydroxyphosphoryl] phosphono hydrogen phosphate

$$$$
