
     RDKit          3D

 76 83  0  0  0  0  0  0  0  0999 V2000
   -1.8804    6.6671    0.7190 C   0  0  0  0  0  0  0  0  0  0  0  0
   -1.1782    5.5725    0.1737 O   0  0  0  0  0  0  0  0  0  0  0  0
   -1.6828    4.3043    0.3246 C   0  0  0  0  0  0  0  0  0  0  0  0
   -2.8770    4.0332    0.9999 C   0  0  0  0  0  0  0  0  0  0  0  0
   -3.3736    2.7354    1.1447 C   0  0  0  0  0  0  0  0  0  0  0  0
   -2.6496    1.6746    0.5927 C   0  0  0  0  0  0  0  0  0  0  0  0
   -1.5099    2.0124   -0.0477 C   0  0  0  0  0  0  0  0  0  0  0  0
   -0.9653    3.2432   -0.2231 C   0  0  0  0  0  0  0  0  0  0  0  0
    0.2135    3.0611   -0.9285 O   0  0  0  0  0  0  0  0  0  0  0  0
    0.5629    1.7053   -0.9869 C   0  0  2  0  0  0  0  0  0  0  0  0
   -0.7241    0.9445   -0.7089 C   0  0  2  0  0  0  0  0  0  0  0  0
   -1.3417    0.4646   -1.9573 C   0  0  0  0  0  0  0  0  0  0  0  0
   -2.5397   -0.3918   -1.7831 C   0  0  0  0  0  0  0  0  0  0  0  0
   -2.3024   -1.4446   -0.8211 N   0  0  0  0  0  0  0  0  0  0  0  0
   -1.9809   -0.7570    0.4280 C   0  0  2  0  0  0  0  0  0  0  0  0
   -3.0258    0.2537    0.7583 C   0  0  0  0  0  0  0  0  0  0  0  0
   -0.6042   -0.1409    0.3190 C   0  0  2  0  0  0  0  0  0  0  0  0
   -0.1907    0.4184    1.6682 C   0  0  0  0  0  0  0  0  0  0  0  0
    0.9525    1.3385    1.4143 C   0  0  0  0  0  0  0  0  0  0  0  0
    1.5394    1.1955    0.0358 C   0  0  2  0  0  0  0  0  0  0  0  0
    2.7179    1.8896   -0.0479 O   0  0  0  0  0  0  0  0  0  0  0  0
    3.6713    1.4362    0.8193 C   0  0  0  0  0  0  0  0  0  0  0  0
    3.6024    0.1324    1.1632 O   0  0  0  0  0  0  0  0  0  0  0  0
    2.9903   -0.7581    0.3245 C   0  0  2  0  0  0  0  0  0  0  0  0
    1.7419   -0.2858   -0.3235 C   0  0  1  0  0  0  0  0  0  0  0  0
    0.4916   -1.0804   -0.0649 C   0  0  0  0  0  0  0  0  0  0  0  0
    2.7169   -1.9815    1.1852 C   0  0  0  0  0  0  0  0  0  0  0  0
    4.0332   -1.2347   -0.6628 C   0  0  0  0  0  0  0  0  0  0  0  0
    5.1499   -1.8781    0.1266 C   0  0  0  0  0  0  0  0  0  0  0  0
    4.6129   -0.2376   -1.5743 C   0  0  0  0  0  0  0  0  0  0  0  0
    3.4417   -2.3763   -1.5081 C   0  0  0  0  0  0  0  0  0  0  0  0
   -3.3992   -2.3294   -0.6332 C   0  0  0  0  0  0  0  0  0  0  0  0
   -3.1758   -3.4881    0.2783 C   0  0  0  0  0  0  0  0  0  0  0  0
   -4.3196   -4.4865    0.5295 C   0  0  0  0  0  0  0  0  0  0  0  0
   -3.2711   -4.8619   -0.4202 C   0  0  0  0  0  0  0  0  0  0  0  0
   -2.7432    6.8877    0.0506 H   0  0  0  0  0  0  0  0  0  0  0  0
   -2.2273    6.4625    1.7501 H   0  0  0  0  0  0  0  0  0  0  0  0
   -1.2189    7.5650    0.7676 H   0  0  0  0  0  0  0  0  0  0  0  0
   -3.4470    4.8622    1.4322 H   0  0  0  0  0  0  0  0  0  0  0  0
   -4.2918    2.5216    1.6647 H   0  0  0  0  0  0  0  0  0  0  0  0
    0.9329    1.3924   -1.9894 H   0  0  0  0  0  0  0  0  0  0  0  0
   -1.7020    1.3897   -2.5174 H   0  0  0  0  0  0  0  0  0  0  0  0
   -0.6010    0.0341   -2.6837 H   0  0  0  0  0  0  0  0  0  0  0  0
   -3.4020    0.2416   -1.6023 H   0  0  0  0  0  0  0  0  0  0  0  0
   -2.7372   -0.8493   -2.8117 H   0  0  0  0  0  0  0  0  0  0  0  0
   -1.8885   -1.5465    1.2023 H   0  0  0  0  0  0  0  0  0  0  0  0
   -4.0030    0.1270    0.2429 H   0  0  0  0  0  0  0  0  0  0  0  0
   -3.2352    0.0898    1.8798 H   0  0  0  0  0  0  0  0  0  0  0  0
   -1.0201    0.8765    2.2377 H   0  0  0  0  0  0  0  0  0  0  0  0
    0.1496   -0.4326    2.2808 H   0  0  0  0  0  0  0  0  0  0  0  0
    0.5803    2.3917    1.4964 H   0  0  0  0  0  0  0  0  0  0  0  0
    1.6979    1.2334    2.2277 H   0  0  0  0  0  0  0  0  0  0  0  0
    4.6851    1.8015    0.4864 H   0  0  0  0  0  0  0  0  0  0  0  0
    3.5163    2.0320    1.7692 H   0  0  0  0  0  0  0  0  0  0  0  0
    1.8419   -0.2657   -1.4519 H   0  0  0  0  0  0  0  0  0  0  0  0
    0.1507   -1.6611   -0.9761 H   0  0  0  0  0  0  0  0  0  0  0  0
    0.5599   -1.8356    0.7231 H   0  0  0  0  0  0  0  0  0  0  0  0
    2.3678   -2.8556    0.6025 H   0  0  0  0  0  0  0  0  0  0  0  0
    2.0744   -1.7662    2.0631 H   0  0  0  0  0  0  0  0  0  0  0  0
    3.6901   -2.2728    1.6364 H   0  0  0  0  0  0  0  0  0  0  0  0
    6.1199   -1.8330   -0.4545 H   0  0  0  0  0  0  0  0  0  0  0  0
    5.3865   -1.3709    1.0755 H   0  0  0  0  0  0  0  0  0  0  0  0
    5.0078   -2.9645    0.3012 H   0  0  0  0  0  0  0  0  0  0  0  0
    5.5104    0.2957   -1.1785 H   0  0  0  0  0  0  0  0  0  0  0  0
    3.9496    0.4905   -2.0504 H   0  0  0  0  0  0  0  0  0  0  0  0
    5.0465   -0.8208   -2.4457 H   0  0  0  0  0  0  0  0  0  0  0  0
    3.5140   -3.3499   -1.0079 H   0  0  0  0  0  0  0  0  0  0  0  0
    2.4632   -2.1435   -1.9204 H   0  0  0  0  0  0  0  0  0  0  0  0
    4.1346   -2.4559   -2.3964 H   0  0  0  0  0  0  0  0  0  0  0  0
   -3.7467   -2.7350   -1.6304 H   0  0  0  0  0  0  0  0  0  0  0  0
   -4.3173   -1.8066   -0.2310 H   0  0  0  0  0  0  0  0  0  0  0  0
   -2.4562   -3.4407    1.1251 H   0  0  0  0  0  0  0  0  0  0  0  0
   -4.4046   -4.9263    1.5433 H   0  0  0  0  0  0  0  0  0  0  0  0
   -5.3154   -4.2097    0.1122 H   0  0  0  0  0  0  0  0  0  0  0  0
   -3.5146   -4.8678   -1.5087 H   0  0  0  0  0  0  0  0  0  0  0  0
   -2.5539   -5.6353   -0.1283 H   0  0  0  0  0  0  0  0  0  0  0  0
  1  2  1  0
  2  3  1  0
  3  4  2  0
  4  5  1  0
  5  6  2  0
  6  7  1  0
  7  8  2  0
  8  9  1  0
  9 10  1  0
 10 11  1  0
 11 12  1  6
 12 13  1  0
 13 14  1  0
 14 15  1  0
 15 16  1  0
 15 17  1  0
 17 18  1  1
 18 19  1  0
 19 20  1  0
 20 21  1  1
 21 22  1  0
 22 23  1  0
 23 24  1  0
 24 25  1  0
 25 26  1  0
 24 27  1  1
 24 28  1  0
 28 29  1  0
 28 30  1  0
 28 31  1  0
 14 32  1  0
 32 33  1  0
 33 34  1  0
 34 35  1  0
  8  3  1  0
 20 10  1  0
 35 33  1  0
 16  6  1  0
 26 17  1  0
 11  7  1  0
 25 20  1  0
 17 11  1  0
  1 36  1  0
  1 37  1  0
  1 38  1  0
  4 39  1  0
  5 40  1  0
 10 41  1  6
 12 42  1  0
 12 43  1  0
 13 44  1  0
 13 45  1  0
 15 46  1  1
 16 47  1  0
 16 48  1  0
 18 49  1  0
 18 50  1  0
 19 51  1  0
 19 52  1  0
 22 53  1  0
 22 54  1  0
 25 55  1  6
 26 56  1  0
 26 57  1  0
 27 58  1  0
 27 59  1  0
 27 60  1  0
 29 61  1  0
 29 62  1  0
 29 63  1  0
 30 64  1  0
 30 65  1  0
 30 66  1  0
 31 67  1  0
 31 68  1  0
 31 69  1  0
 32 70  1  0
 32 71  1  0
 33 72  1  0
 34 73  1  0
 34 74  1  0
 35 75  1  0
 35 76  1  0
M  END
>  <Ligand ID>  (1) 
LIG0005112

>  <Ligand>  (1) 
SCHEMBL15493852

>  <SMILES>  (1) 
COc1ccc2c3c1O[C@@H]1[C@@]43CCN([C@H](C2)[C@@]24CC[C@@]31OCO[C@]([C@H]3C2)(C)C(C)(C)C)CC1CC1

>  <CID>  (1) 
89985177.0

>  <ChEMBL ID>  (1) 
nan

>  <InChiKey>  (1) 
WFFVPEDSMPEKNY-VQWWACLZSA-N

>  <InChi>  (1) 
InChI=1S/C30H41NO4/c1-26(2,3)27(4)21-15-28-10-11-30(21,34-17-33-27)25-29(28)12-13-31(16-18-6-7-18)22(28)14-19-8-9-20(32-5)24(35-25)23(19)29/h8-9,18,21-22,25H,6-7,10-17H2,1-5H3/t21-,22-,25-,27+,28-,29+,30-/m1/s1

>  <IUPAC Name>  (1) 
(1S,2S,6R,14R,15R,19S,20R)-19-tert-butyl-5-(cyclopropylmethyl)-11-methoxy-19-methyl-13,16,18-trioxa-5-azaheptacyclo[13.6.2.12,8.01,6.02,14.015,20.012,24]tetracosa-8(24),9,11-triene

$$$$
