
     RDKit          3D

 59 62  0  0  0  0  0  0  0  0999 V2000
   -4.0706   -2.5559    0.2640 C   0  0  0  0  0  0  0  0  0  0  0  0
   -3.6645   -1.7583    1.4660 C   0  0  0  0  0  0  0  0  0  0  0  0
   -3.5606   -0.3472    1.2725 N   0  0  0  0  0  0  0  0  0  0  0  0
   -2.3968    0.3694    0.9088 C   0  0  0  0  0  0  0  0  0  0  0  0
   -2.4669    1.6498    0.7803 O   0  0  0  0  0  0  0  0  0  0  0  0
   -1.0650   -0.2057    0.6564 C   0  0  0  0  0  0  0  0  0  0  0  0
   -0.0862    0.9605    0.5595 C   0  0  0  0  0  0  0  0  0  0  0  0
    1.0644    0.7219   -0.3437 C   0  0  0  0  0  0  0  0  0  0  0  0
    1.4429   -0.6232   -0.5947 N   0  0  0  0  0  0  0  0  0  0  0  0
    0.4102   -1.5971   -0.6400 C   0  0  0  0  0  0  0  0  0  0  0  0
   -0.9400   -0.9001   -0.6953 C   0  0  0  0  0  0  0  0  0  0  0  0
    2.6072   -1.0945    0.5888 S   0  0  0  0  0  0  0  0  0  0  0  0
    2.0297   -0.9614    1.9903 O   0  0  0  0  0  0  0  0  0  0  0  0
    2.9644   -2.5677    0.4643 O   0  0  0  0  0  0  0  0  0  0  0  0
    4.0623   -0.1381    0.5324 C   0  0  0  0  0  0  0  0  0  0  0  0
    4.1555    1.0273    1.3000 C   0  0  0  0  0  0  0  0  0  0  0  0
    5.3158    1.7818    1.2495 C   0  0  0  0  0  0  0  0  0  0  0  0
    6.3577    1.3711    0.4439 C   0  0  0  0  0  0  0  0  0  0  0  0
    6.2858    0.2419   -0.3090 C   0  0  0  0  0  0  0  0  0  0  0  0
    5.1238   -0.5257   -0.2667 C   0  0  0  0  0  0  0  0  0  0  0  0
    7.3698   -0.1330   -1.1105 O   0  0  0  0  0  0  0  0  0  0  0  0
    8.6601    0.2437   -0.6077 C   0  0  0  0  0  0  0  0  0  0  0  0
    8.6090    1.7657   -0.4621 C   0  0  0  0  0  0  0  0  0  0  0  0
    7.5249    2.1349    0.3964 O   0  0  0  0  0  0  0  0  0  0  0  0
   -4.7900    0.4274    1.4713 C   0  0  0  0  0  0  0  0  0  0  0  0
   -5.5949    0.5402    0.2326 C   0  0  0  0  0  0  0  0  0  0  0  0
   -6.5482   -0.4456   -0.0352 C   0  0  0  0  0  0  0  0  0  0  0  0
   -7.3299   -0.3823   -1.1835 C   0  0  0  0  0  0  0  0  0  0  0  0
   -7.1977    0.6433   -2.0936 C   0  0  0  0  0  0  0  0  0  0  0  0
   -6.2546    1.6113   -1.8208 C   0  0  0  0  0  0  0  0  0  0  0  0
   -5.4832    1.5449   -0.6834 C   0  0  0  0  0  0  0  0  0  0  0  0
   -4.0982   -1.8777   -0.6125 H   0  0  0  0  0  0  0  0  0  0  0  0
   -3.3454   -3.3907    0.0774 H   0  0  0  0  0  0  0  0  0  0  0  0
   -5.0430   -3.0709    0.4297 H   0  0  0  0  0  0  0  0  0  0  0  0
   -2.6861   -2.1337    1.8511 H   0  0  0  0  0  0  0  0  0  0  0  0
   -4.3724   -1.9425    2.3180 H   0  0  0  0  0  0  0  0  0  0  0  0
   -0.7350   -0.9121    1.4444 H   0  0  0  0  0  0  0  0  0  0  0  0
   -0.6233    1.8901    0.3384 H   0  0  0  0  0  0  0  0  0  0  0  0
    0.3353    1.0734    1.5933 H   0  0  0  0  0  0  0  0  0  0  0  0
    1.9836    1.3032   -0.0367 H   0  0  0  0  0  0  0  0  0  0  0  0
    0.7991    1.1822   -1.3376 H   0  0  0  0  0  0  0  0  0  0  0  0
    0.5220   -2.1577   -1.5929 H   0  0  0  0  0  0  0  0  0  0  0  0
    0.4880   -2.2641    0.2335 H   0  0  0  0  0  0  0  0  0  0  0  0
   -1.7465   -1.5684   -0.9504 H   0  0  0  0  0  0  0  0  0  0  0  0
   -0.8234   -0.0713   -1.4557 H   0  0  0  0  0  0  0  0  0  0  0  0
    3.3481    1.3631    1.9365 H   0  0  0  0  0  0  0  0  0  0  0  0
    5.3622    2.6675    1.8450 H   0  0  0  0  0  0  0  0  0  0  0  0
    5.0778   -1.4338   -0.8781 H   0  0  0  0  0  0  0  0  0  0  0  0
    8.8641   -0.2339    0.3740 H   0  0  0  0  0  0  0  0  0  0  0  0
    9.4765    0.0084   -1.2896 H   0  0  0  0  0  0  0  0  0  0  0  0
    9.5389    2.1642   -0.0357 H   0  0  0  0  0  0  0  0  0  0  0  0
    8.4585    2.1533   -1.5049 H   0  0  0  0  0  0  0  0  0  0  0  0
   -4.5029    1.4167    1.8629 H   0  0  0  0  0  0  0  0  0  0  0  0
   -5.4171   -0.0516    2.2532 H   0  0  0  0  0  0  0  0  0  0  0  0
   -6.6563   -1.2512    0.6737 H   0  0  0  0  0  0  0  0  0  0  0  0
   -8.0713   -1.1655   -1.3742 H   0  0  0  0  0  0  0  0  0  0  0  0
   -7.7754    0.7329   -2.9879 H   0  0  0  0  0  0  0  0  0  0  0  0
   -6.1260    2.4385   -2.5244 H   0  0  0  0  0  0  0  0  0  0  0  0
   -4.7662    2.3324   -0.5272 H   0  0  0  0  0  0  0  0  0  0  0  0
  1  2  1  0
  2  3  1  0
  3  4  1  0
  4  5  2  0
  4  6  1  0
  6  7  1  0
  7  8  1  0
  8  9  1  0
  9 10  1  0
 10 11  1  0
  9 12  1  0
 12 13  2  0
 12 14  2  0
 12 15  1  0
 15 16  2  0
 16 17  1  0
 17 18  2  0
 18 19  1  0
 19 20  2  0
 19 21  1  0
 21 22  1  0
 22 23  1  0
 23 24  1  0
  3 25  1  0
 25 26  1  0
 26 27  2  0
 27 28  1  0
 28 29  2  0
 29 30  1  0
 30 31  2  0
 11  6  1  0
 20 15  1  0
 31 26  1  0
 24 18  1  0
  1 32  1  0
  1 33  1  0
  1 34  1  0
  2 35  1  0
  2 36  1  0
  6 37  1  0
  7 38  1  0
  7 39  1  0
  8 40  1  0
  8 41  1  0
 10 42  1  0
 10 43  1  0
 11 44  1  0
 11 45  1  0
 16 46  1  0
 17 47  1  0
 20 48  1  0
 22 49  1  0
 22 50  1  0
 23 51  1  0
 23 52  1  0
 25 53  1  0
 25 54  1  0
 27 55  1  0
 28 56  1  0
 29 57  1  0
 30 58  1  0
 31 59  1  0
M  END
>  <Ligand ID>  (1) 
LIG0000982

>  <Ligand>  (1) 
CHEMBL1602658

>  <SMILES>  (1) 
CCN(C(=O)C1CCN(CC1)S(=O)(=O)c1ccc2c(c1)OCCO2)Cc1ccccc1

>  <CID>  (1) 
17516658.0

>  <ChEMBL ID>  (1) 
nan

>  <InChiKey>  (1) 
AAJHOEQMTSTUJP-UHFFFAOYSA-N

>  <InChi>  (1) 
InChI=1S/C23H28N2O5S/c1-2-24(17-18-6-4-3-5-7-18)23(26)19-10-12-25(13-11-19)31(27,28)20-8-9-21-22(16-20)30-15-14-29-21/h3-9,16,19H,2,10-15,17H2,1H3

>  <IUPAC Name>  (1) 
N-benzyl-1-(2,3-dihydro-1,4-benzodioxin-6-ylsulfonyl)-N-ethylpiperidine-4-carboxamide

$$$$
