
     RDKit          3D

 60 62  0  0  0  0  0  0  0  0999 V2000
   -4.2503   -2.8713   -0.1739 C   0  0  0  0  0  0  0  0  0  0  0  0
   -2.8967   -3.1613    0.4467 C   0  0  0  0  0  0  0  0  0  0  0  0
   -2.1443   -2.0189    0.7167 O   0  0  0  0  0  0  0  0  0  0  0  0
   -1.7588   -1.1314   -0.2778 C   0  0  0  0  0  0  0  0  0  0  0  0
   -2.0764   -1.3232   -1.4752 O   0  0  0  0  0  0  0  0  0  0  0  0
   -0.9576    0.0502    0.1347 C   0  0  0  0  0  0  0  0  0  0  0  0
   -0.6606    0.8511   -1.1023 C   0  0  0  0  0  0  0  0  0  0  0  0
    0.3937    0.1002   -1.8925 C   0  0  0  0  0  0  0  0  0  0  0  0
    1.5940    0.1742   -1.0421 N   0  0  0  0  0  0  0  0  0  0  0  0
    1.4004   -0.8476   -0.0355 C   0  0  0  0  0  0  0  0  0  0  0  0
    0.2662   -0.4551    0.8489 C   0  0  0  0  0  0  0  0  0  0  0  0
    2.7308   -0.0900   -1.8876 C   0  0  0  0  0  0  0  0  0  0  0  0
    3.9664   -0.0277   -1.1028 C   0  0  0  0  0  0  0  0  0  0  0  0
    4.6917   -1.1169   -0.6820 C   0  0  0  0  0  0  0  0  0  0  0  0
    5.8625   -0.9574    0.0639 C   0  0  0  0  0  0  0  0  0  0  0  0
    6.3186    0.2985    0.3958 C   0  0  0  0  0  0  0  0  0  0  0  0
    5.5927    1.3944   -0.0251 C   0  0  0  0  0  0  0  0  0  0  0  0
    4.4356    1.2469   -0.7617 C   0  0  0  0  0  0  0  0  0  0  0  0
    3.7500    2.3527   -1.1574 F   0  0  0  0  0  0  0  0  0  0  0  0
    7.4698    0.5319    1.1316 O   0  0  0  0  0  0  0  0  0  0  0  0
    8.2264   -0.5795    1.5712 C   0  0  0  0  0  0  0  0  0  0  0  0
   -1.7177    0.8654    1.1674 C   0  0  0  0  0  0  0  0  0  0  0  0
   -3.0371    1.3856    0.6804 C   0  0  0  0  0  0  0  0  0  0  0  0
   -3.7432    2.1966    1.7727 C   0  0  0  0  0  0  0  0  0  0  0  0
   -5.2079    2.2479    1.3885 C   0  0  0  0  0  0  0  0  0  0  0  0
   -5.3534    2.0580   -0.1152 C   0  0  0  0  0  0  0  0  0  0  0  0
   -4.8116    0.7214   -0.5661 C   0  0  0  0  0  0  0  0  0  0  0  0
   -3.8642    0.3074    0.3725 O   0  0  0  0  0  0  0  0  0  0  0  0
   -4.7750   -3.8057   -0.4335 H   0  0  0  0  0  0  0  0  0  0  0  0
   -4.1578   -2.3052   -1.1193 H   0  0  0  0  0  0  0  0  0  0  0  0
   -4.8703   -2.2476    0.5132 H   0  0  0  0  0  0  0  0  0  0  0  0
   -3.0850   -3.7111    1.3972 H   0  0  0  0  0  0  0  0  0  0  0  0
   -2.3735   -3.8724   -0.2273 H   0  0  0  0  0  0  0  0  0  0  0  0
   -0.1814    1.8354   -0.8712 H   0  0  0  0  0  0  0  0  0  0  0  0
   -1.5558    0.9323   -1.7133 H   0  0  0  0  0  0  0  0  0  0  0  0
    0.6574    0.7098   -2.7838 H   0  0  0  0  0  0  0  0  0  0  0  0
    0.1343   -0.9375   -2.1187 H   0  0  0  0  0  0  0  0  0  0  0  0
    2.2866   -0.9888    0.6061 H   0  0  0  0  0  0  0  0  0  0  0  0
    1.1987   -1.8225   -0.5348 H   0  0  0  0  0  0  0  0  0  0  0  0
   -0.0617   -1.3532    1.4166 H   0  0  0  0  0  0  0  0  0  0  0  0
    0.6006    0.2755    1.6335 H   0  0  0  0  0  0  0  0  0  0  0  0
    2.7446    0.7377   -2.6457 H   0  0  0  0  0  0  0  0  0  0  0  0
    2.5550   -1.0445   -2.4168 H   0  0  0  0  0  0  0  0  0  0  0  0
    4.3283   -2.1172   -0.9467 H   0  0  0  0  0  0  0  0  0  0  0  0
    6.4026   -1.8229    0.3758 H   0  0  0  0  0  0  0  0  0  0  0  0
    5.9005    2.4038    0.2047 H   0  0  0  0  0  0  0  0  0  0  0  0
    7.8118   -1.0283    2.5194 H   0  0  0  0  0  0  0  0  0  0  0  0
    8.3425   -1.3396    0.7676 H   0  0  0  0  0  0  0  0  0  0  0  0
    9.2878   -0.2399    1.7647 H   0  0  0  0  0  0  0  0  0  0  0  0
   -1.1212    1.7299    1.5203 H   0  0  0  0  0  0  0  0  0  0  0  0
   -1.8629    0.1976    2.0406 H   0  0  0  0  0  0  0  0  0  0  0  0
   -2.9734    2.0272   -0.1936 H   0  0  0  0  0  0  0  0  0  0  0  0
   -3.3846    3.2595    1.7712 H   0  0  0  0  0  0  0  0  0  0  0  0
   -3.5737    1.7670    2.7796 H   0  0  0  0  0  0  0  0  0  0  0  0
   -5.7107    1.4461    1.9719 H   0  0  0  0  0  0  0  0  0  0  0  0
   -5.6577    3.2393    1.6070 H   0  0  0  0  0  0  0  0  0  0  0  0
   -4.8339    2.9146   -0.5762 H   0  0  0  0  0  0  0  0  0  0  0  0
   -6.4448    2.1232   -0.3285 H   0  0  0  0  0  0  0  0  0  0  0  0
   -4.2355    0.8670   -1.5131 H   0  0  0  0  0  0  0  0  0  0  0  0
   -5.6111   -0.0313   -0.7033 H   0  0  0  0  0  0  0  0  0  0  0  0
  1  2  1  0
  2  3  1  0
  3  4  1  0
  4  5  2  0
  4  6  1  0
  6  7  1  0
  7  8  1  0
  8  9  1  0
  9 10  1  0
 10 11  1  0
  9 12  1  0
 12 13  1  0
 13 14  2  0
 14 15  1  0
 15 16  2  0
 16 17  1  0
 17 18  2  0
 18 19  1  0
 16 20  1  0
 20 21  1  0
  6 22  1  0
 22 23  1  0
 23 24  1  0
 24 25  1  0
 25 26  1  0
 26 27  1  0
 27 28  1  0
 11  6  1  0
 18 13  1  0
 28 23  1  0
  1 29  1  0
  1 30  1  0
  1 31  1  0
  2 32  1  0
  2 33  1  0
  7 34  1  0
  7 35  1  0
  8 36  1  0
  8 37  1  0
 10 38  1  0
 10 39  1  0
 11 40  1  0
 11 41  1  0
 12 42  1  0
 12 43  1  0
 14 44  1  0
 15 45  1  0
 17 46  1  0
 21 47  1  0
 21 48  1  0
 21 49  1  0
 22 50  1  0
 22 51  1  0
 23 52  1  0
 24 53  1  0
 24 54  1  0
 25 55  1  0
 25 56  1  0
 26 57  1  0
 26 58  1  0
 27 59  1  0
 27 60  1  0
M  END
>  <Ligand ID>  (1) 
LIG0004427

>  <Ligand>  (1) 
MLS000735281

>  <SMILES>  (1) 
CCOC(=O)C1(CCN(CC1)Cc1ccc(cc1F)OC)CC1CCCCO1

>  <CID>  (1) 
16187210.0

>  <ChEMBL ID>  (1) 
nan

>  <InChiKey>  (1) 
QMOMYIRVYSPAKB-UHFFFAOYSA-N

>  <InChi>  (1) 
InChI=1S/C22H32FNO4/c1-3-27-21(25)22(15-19-6-4-5-13-28-19)9-11-24(12-10-22)16-17-7-8-18(26-2)14-20(17)23/h7-8,14,19H,3-6,9-13,15-16H2,1-2H3

>  <IUPAC Name>  (1) 
ethyl 1-[(2-fluoro-4-methoxyphenyl)methyl]-4-(oxan-2-ylmethyl)piperidine-4-carboxylate

$$$$
