
     RDKit          3D

 30 29  0  0  0  0  0  0  0  0999 V2000
    3.2516    0.1039    1.8649 C   0  0  0  0  0  0  0  0  0  0  0  0
    2.9818   -0.8350    0.7114 C   0  0  0  0  0  0  0  0  0  0  0  0
    2.2912   -0.0358   -0.3744 C   0  0  0  0  0  0  0  0  0  0  0  0
    0.9886    0.5623    0.0959 C   0  0  0  0  0  0  0  0  0  0  0  0
    0.0925   -0.5840    0.5154 C   0  0  0  0  0  0  0  0  0  0  0  0
   -1.2475   -0.0981    1.0024 C   0  0  0  0  0  0  0  0  0  0  0  0
   -2.0224    0.6678   -0.0037 C   0  0  0  0  0  0  0  0  0  0  0  0
   -2.3404   -0.1029   -1.2554 C   0  0  0  0  0  0  0  0  0  0  0  0
   -3.0902   -1.2391   -1.0160 O   0  0  0  0  0  0  0  0  0  0  0  0
   -3.1307    0.7754   -2.2032 C   0  0  0  0  0  0  0  0  0  0  0  0
    2.3166    0.3507    2.4031 H   0  0  0  0  0  0  0  0  0  0  0  0
    3.7247    1.0205    1.4568 H   0  0  0  0  0  0  0  0  0  0  0  0
    3.9646   -0.3507    2.5962 H   0  0  0  0  0  0  0  0  0  0  0  0
    3.9918   -1.1557    0.3163 H   0  0  0  0  0  0  0  0  0  0  0  0
    2.4697   -1.7551    0.9958 H   0  0  0  0  0  0  0  0  0  0  0  0
    2.0036   -0.7666   -1.1798 H   0  0  0  0  0  0  0  0  0  0  0  0
    2.9664    0.6722   -0.8606 H   0  0  0  0  0  0  0  0  0  0  0  0
    1.1633    1.2439    0.9747 H   0  0  0  0  0  0  0  0  0  0  0  0
    0.5545    1.1162   -0.7566 H   0  0  0  0  0  0  0  0  0  0  0  0
    0.6061   -1.0672    1.3962 H   0  0  0  0  0  0  0  0  0  0  0  0
    0.0291   -1.2810   -0.3196 H   0  0  0  0  0  0  0  0  0  0  0  0
   -1.8274   -0.9686    1.3667 H   0  0  0  0  0  0  0  0  0  0  0  0
   -1.0917    0.5621    1.8800 H   0  0  0  0  0  0  0  0  0  0  0  0
   -1.5565    1.6059   -0.2950 H   0  0  0  0  0  0  0  0  0  0  0  0
   -2.9909    0.9357    0.4729 H   0  0  0  0  0  0  0  0  0  0  0  0
   -1.3856   -0.3301   -1.7713 H   0  0  0  0  0  0  0  0  0  0  0  0
   -2.5961   -2.0053   -0.6809 H   0  0  0  0  0  0  0  0  0  0  0  0
   -4.0573    1.1312   -1.6730 H   0  0  0  0  0  0  0  0  0  0  0  0
   -2.5445    1.6619   -2.5553 H   0  0  0  0  0  0  0  0  0  0  0  0
   -3.5149    0.1655   -3.0600 H   0  0  0  0  0  0  0  0  0  0  0  0
  1  2  1  0
  2  3  1  0
  3  4  1  0
  4  5  1  0
  5  6  1  0
  6  7  1  0
  7  8  1  0
  8  9  1  0
  8 10  1  0
  1 11  1  0
  1 12  1  0
  1 13  1  0
  2 14  1  0
  2 15  1  0
  3 16  1  0
  3 17  1  0
  4 18  1  0
  4 19  1  0
  5 20  1  0
  5 21  1  0
  6 22  1  0
  6 23  1  0
  7 24  1  0
  7 25  1  0
  8 26  1  0
  9 27  1  0
 10 28  1  0
 10 29  1  0
 10 30  1  0
M  END
>  <Ligand ID>  (1) 
LIG0000378

>  <Ligand>  (1) 
2-Nonanol

>  <SMILES>  (1) 
CCCCCCCC(O)C

>  <CID>  (1) 
12367.0

>  <ChEMBL ID>  (1) 
nan

>  <InChiKey>  (1) 
NGDNVOAEIVQRFH-UHFFFAOYSA-N

>  <InChi>  (1) 
InChI=1S/C9H20O/c1-3-4-5-6-7-8-9(2)10/h9-10H,3-8H2,1-2H3

>  <IUPAC Name>  (1) 
nonan-2-ol

$$$$
