
     RDKit          3D

 63 66  0  0  0  0  0  0  0  0999 V2000
   -8.3761   -1.1000    3.4332 Cl  0  0  0  0  0  0  0  0  0  0  0  0
   -8.2975   -0.5250    1.7834 C   0  0  0  0  0  0  0  0  0  0  0  0
   -9.4546   -0.3089    1.0966 C   0  0  0  0  0  0  0  0  0  0  0  0
   -9.3937    0.1447   -0.2050 C   0  0  0  0  0  0  0  0  0  0  0  0
   -8.1631    0.3729   -0.7927 C   0  0  0  0  0  0  0  0  0  0  0  0
   -6.9770    0.1597   -0.1129 C   0  0  0  0  0  0  0  0  0  0  0  0
   -7.0837   -0.2931    1.1840 C   0  0  0  0  0  0  0  0  0  0  0  0
   -5.7224    0.4284   -0.8139 C   0  0  2  0  0  0  0  0  0  0  0  0
   -4.5120    0.4318    0.0848 C   0  0  0  0  0  0  0  0  0  0  0  0
   -3.3201    0.6668   -0.7031 N   0  0  0  0  0  0  0  0  0  0  0  0
   -2.1076    0.6969    0.0691 C   0  0  1  0  0  0  0  0  0  0  0  0
   -1.8449   -0.6014    0.7976 C   0  0  0  0  0  0  0  0  0  0  0  0
   -1.4775   -1.6988   -0.1881 C   0  0  0  0  0  0  0  0  0  0  0  0
   -0.1228   -1.3059   -0.7136 C   0  0  0  0  0  0  0  0  0  0  0  0
    0.0776    0.0363   -0.9552 C   0  0  0  0  0  0  0  0  0  0  0  0
   -0.9181    1.0887   -0.7411 C   0  0  0  0  0  0  0  0  0  0  0  0
    1.3193    0.4025   -1.4365 C   0  0  0  0  0  0  0  0  0  0  0  0
    2.3243   -0.5199   -1.6702 C   0  0  0  0  0  0  0  0  0  0  0  0
    2.0782   -1.8693   -1.4116 C   0  0  0  0  0  0  0  0  0  0  0  0
    0.8474   -2.2672   -0.9303 C   0  0  0  0  0  0  0  0  0  0  0  0
    3.5743   -0.0985   -2.1613 O   0  0  0  0  0  0  0  0  0  0  0  0
    4.5128    0.2368   -1.1798 C   0  0  0  0  0  0  0  0  0  0  0  0
    5.3868   -0.6838   -0.6413 C   0  0  0  0  0  0  0  0  0  0  0  0
    6.2826   -0.2534    0.3292 C   0  0  0  0  0  0  0  0  0  0  0  0
    6.2684    1.0747    0.7204 C   0  0  0  0  0  0  0  0  0  0  0  0
    5.4020    1.9788    0.1839 C   0  0  0  0  0  0  0  0  0  0  0  0
    4.5084    1.5657   -0.7792 C   0  0  0  0  0  0  0  0  0  0  0  0
    5.3983    3.3579    0.6007 C   0  0  0  0  0  0  0  0  0  0  0  0
    6.2219    3.7409    1.4898 O   0  0  0  0  0  0  0  0  0  0  0  0
    4.5411    4.3041    0.0853 O   0  0  0  0  0  0  0  0  0  0  0  0
    7.2141   -1.1480    0.9299 N   0  0  0  0  0  0  0  0  0  0  0  0
    8.1583   -0.7215    1.9443 C   0  0  0  0  0  0  0  0  0  0  0  0
    7.2227   -2.5429    0.5136 C   0  0  0  0  0  0  0  0  0  0  0  0
   -5.8536    1.6630   -1.4781 O   0  0  0  0  0  0  0  0  0  0  0  0
  -10.4026   -0.5036    1.6040 H   0  0  0  0  0  0  0  0  0  0  0  0
  -10.3365    0.3018   -0.7103 H   0  0  0  0  0  0  0  0  0  0  0  0
   -8.1416    0.7333   -1.8288 H   0  0  0  0  0  0  0  0  0  0  0  0
   -6.2026   -0.4703    1.7442 H   0  0  0  0  0  0  0  0  0  0  0  0
   -5.5834   -0.3328   -1.6101 H   0  0  0  0  0  0  0  0  0  0  0  0
   -4.4440   -0.4412    0.7285 H   0  0  0  0  0  0  0  0  0  0  0  0
   -4.6148    1.3083    0.7649 H   0  0  0  0  0  0  0  0  0  0  0  0
   -3.2833    0.0010   -1.4810 H   0  0  0  0  0  0  0  0  0  0  0  0
   -2.2309    1.4869    0.8656 H   0  0  0  0  0  0  0  0  0  0  0  0
   -0.8943   -0.4147    1.3802 H   0  0  0  0  0  0  0  0  0  0  0  0
   -2.6227   -0.8889    1.5009 H   0  0  0  0  0  0  0  0  0  0  0  0
   -1.4655   -2.6572    0.3348 H   0  0  0  0  0  0  0  0  0  0  0  0
   -2.1435   -1.7500   -1.0606 H   0  0  0  0  0  0  0  0  0  0  0  0
   -1.3158    1.5047   -1.7101 H   0  0  0  0  0  0  0  0  0  0  0  0
   -0.3562    1.9633   -0.3006 H   0  0  0  0  0  0  0  0  0  0  0  0
    1.5570    1.4460   -1.6529 H   0  0  0  0  0  0  0  0  0  0  0  0
    2.8860   -2.5468   -1.6076 H   0  0  0  0  0  0  0  0  0  0  0  0
    0.6546   -3.3118   -0.7295 H   0  0  0  0  0  0  0  0  0  0  0  0
    5.3678   -1.7097   -0.9717 H   0  0  0  0  0  0  0  0  0  0  0  0
    6.9602    1.4592    1.4860 H   0  0  0  0  0  0  0  0  0  0  0  0
    3.8128    2.2841   -1.2121 H   0  0  0  0  0  0  0  0  0  0  0  0
    4.2973    5.1079    0.6777 H   0  0  0  0  0  0  0  0  0  0  0  0
    7.7201   -0.6908    2.9589 H   0  0  0  0  0  0  0  0  0  0  0  0
    8.5951    0.2705    1.7564 H   0  0  0  0  0  0  0  0  0  0  0  0
    9.0126   -1.4442    1.9662 H   0  0  0  0  0  0  0  0  0  0  0  0
    7.5190   -2.5444   -0.5533 H   0  0  0  0  0  0  0  0  0  0  0  0
    6.2012   -2.9850    0.6253 H   0  0  0  0  0  0  0  0  0  0  0  0
    7.9529   -3.1214    1.0955 H   0  0  0  0  0  0  0  0  0  0  0  0
   -6.2125    1.5327   -2.3923 H   0  0  0  0  0  0  0  0  0  0  0  0
  1  2  1  0
  2  3  2  0
  3  4  1  0
  4  5  2  0
  5  6  1  0
  6  7  2  0
  6  8  1  0
  8  9  1  0
  9 10  1  0
 10 11  1  0
 11 12  1  0
 12 13  1  0
 13 14  1  0
 14 15  2  0
 15 16  1  0
 15 17  1  0
 17 18  2  0
 18 19  1  0
 19 20  2  0
 18 21  1  0
 21 22  1  0
 22 23  2  0
 23 24  1  0
 24 25  2  0
 25 26  1  0
 26 27  2  0
 26 28  1  0
 28 29  2  0
 28 30  1  0
 24 31  1  0
 31 32  1  0
 31 33  1  0
  8 34  1  0
  7  2  1  0
 16 11  1  0
 27 22  1  0
 20 14  1  0
  3 35  1  0
  4 36  1  0
  5 37  1  0
  7 38  1  0
  8 39  1  6
  9 40  1  0
  9 41  1  0
 10 42  1  0
 11 43  1  1
 12 44  1  0
 12 45  1  0
 13 46  1  0
 13 47  1  0
 16 48  1  0
 16 49  1  0
 17 50  1  0
 19 51  1  0
 20 52  1  0
 23 53  1  0
 25 54  1  0
 27 55  1  0
 30 56  1  0
 32 57  1  0
 32 58  1  0
 32 59  1  0
 33 60  1  0
 33 61  1  0
 33 62  1  0
 34 63  1  0
M  END
>  <Ligand ID>  (1) 
LIG0004536

>  <Ligand>  (1) 
CHEMBL497113

>  <SMILES>  (1) 
Clc1cccc(c1)[C@H](CN[C@H]1CCc2c(C1)cc(cc2)Oc1cc(cc(c1)C(=O)O)N(C)C)O

>  <CID>  (1) 
24950061.0

>  <ChEMBL ID>  (1) 
nan

>  <InChiKey>  (1) 
KUTUYKMEQJYEPW-NVQXNPDNSA-N

>  <InChi>  (1) 
InChI=1S/C27H29ClN2O4/c1-30(2)23-12-20(27(32)33)14-25(15-23)34-24-9-7-17-6-8-22(11-19(17)13-24)29-16-26(31)18-4-3-5-21(28)10-18/h3-5,7,9-10,12-15,22,26,29,31H,6,8,11,16H2,1-2H3,(H,32,33)/t22-,26-/m0/s1

>  <IUPAC Name>  (1) 
3-[[(7S)-7-[[(2R)-2-(3-chlorophenyl)-2-hydroxyethyl]amino]-5,6,7,8-tetrahydronaphthalen-2-yl]oxy]-5-(dimethylamino)benzoic acid

$$$$
