
     RDKit          3D

 31 32  0  0  0  0  0  0  0  0999 V2000
    4.4387   -0.2019    0.1528 C   0  0  0  0  0  0  0  0  0  0  0  0
    3.6315    0.9616    0.1754 O   0  0  0  0  0  0  0  0  0  0  0  0
    2.2641    0.7821    0.0163 C   0  0  0  0  0  0  0  0  0  0  0  0
    1.6817   -0.4556   -0.1580 C   0  0  0  0  0  0  0  0  0  0  0  0
    0.3253   -0.5478   -0.3079 C   0  0  0  0  0  0  0  0  0  0  0  0
   -0.0619   -1.9774   -0.4795 C   0  0  0  0  0  0  0  0  0  0  0  0
   -1.3207   -2.1801    0.3553 C   0  0  0  0  0  0  0  0  0  0  0  0
   -1.5695   -1.0893    1.2431 N   0  0  0  0  0  0  0  0  0  0  0  0
   -2.5354   -0.1253    0.7611 C   0  0  0  0  0  0  0  0  0  0  0  0
   -1.9544    0.5684   -0.4433 C   0  0  2  0  0  0  0  0  0  0  0  0
   -0.4991    0.5602   -0.2923 C   0  0  0  0  0  0  0  0  0  0  0  0
    0.0928    1.7936   -0.1173 C   0  0  0  0  0  0  0  0  0  0  0  0
    1.4686    1.9077    0.0366 C   0  0  0  0  0  0  0  0  0  0  0  0
    2.1812    3.5016    0.2572 Cl  0  0  0  0  0  0  0  0  0  0  0  0
   -2.5602    1.8770   -0.7558 C   0  0  0  0  0  0  0  0  0  0  0  0
    4.0493   -0.9768    0.8627 H   0  0  0  0  0  0  0  0  0  0  0  0
    4.4614   -0.6316   -0.8698 H   0  0  0  0  0  0  0  0  0  0  0  0
    5.4760    0.0241    0.5129 H   0  0  0  0  0  0  0  0  0  0  0  0
    2.3156   -1.3518   -0.1741 H   0  0  0  0  0  0  0  0  0  0  0  0
    0.7585   -2.6475   -0.2070 H   0  0  0  0  0  0  0  0  0  0  0  0
   -0.3919   -2.0754   -1.5535 H   0  0  0  0  0  0  0  0  0  0  0  0
   -2.1941   -2.4723   -0.2543 H   0  0  0  0  0  0  0  0  0  0  0  0
   -1.0973   -3.0708    1.0091 H   0  0  0  0  0  0  0  0  0  0  0  0
   -1.7032   -1.3571    2.2339 H   0  0  0  0  0  0  0  0  0  0  0  0
   -2.6330    0.6455    1.5540 H   0  0  0  0  0  0  0  0  0  0  0  0
   -3.5051   -0.5782    0.4748 H   0  0  0  0  0  0  0  0  0  0  0  0
   -2.1937   -0.0985   -1.3184 H   0  0  0  0  0  0  0  0  0  0  0  0
   -0.5326    2.6734   -0.1018 H   0  0  0  0  0  0  0  0  0  0  0  0
   -3.6554    1.6773   -0.9456 H   0  0  0  0  0  0  0  0  0  0  0  0
   -2.5667    2.6315    0.0476 H   0  0  0  0  0  0  0  0  0  0  0  0
   -2.1707    2.2336   -1.7144 H   0  0  0  0  0  0  0  0  0  0  0  0
  1  2  1  0
  2  3  1  0
  3  4  2  0
  4  5  1  0
  5  6  1  0
  6  7  1  0
  7  8  1  0
  8  9  1  0
  9 10  1  0
 10 11  1  0
 11 12  1  0
 12 13  2  0
 13 14  1  0
 10 15  1  0
 13  3  1  0
 11  5  2  0
  1 16  1  0
  1 17  1  0
  1 18  1  0
  4 19  1  0
  6 20  1  0
  6 21  1  0
  7 22  1  0
  7 23  1  0
  8 24  1  0
  9 25  1  0
  9 26  1  0
 10 27  1  6
 12 28  1  0
 15 29  1  0
 15 30  1  0
 15 31  1  0
M  END
>  <Ligand ID>  (1) 
LIG0002185

>  <Ligand>  (1) 
CHEMBL400600

>  <SMILES>  (1) 
COc1cc2CCNC[C@H](c2cc1Cl)C

>  <CID>  (1) 
24773651.0

>  <ChEMBL ID>  (1) 
nan

>  <InChiKey>  (1) 
SJJIKXOJEDKQRJ-MRVPVSSYSA-N

>  <InChi>  (1) 
InChI=1S/C12H16ClNO/c1-8-7-14-4-3-9-5-12(15-2)11(13)6-10(8)9/h5-6,8,14H,3-4,7H2,1-2H3/t8-/m1/s1

>  <IUPAC Name>  (1) 
(5S)-7-chloro-8-methoxy-5-methyl-2,3,4,5-tetrahydro-1H-3-benzazepine

$$$$
