
     RDKit          3D

 14 14  0  0  0  0  0  0  0  0999 V2000
    0.7846   -0.8822    0.5376 C   0  0  0  0  0  0  0  0  0  0  0  0
    1.0148    0.3171   -0.3780 C   0  0  0  0  0  0  0  0  0  0  0  0
   -0.2010    1.1367    0.0086 C   0  0  0  0  0  0  0  0  0  0  0  0
   -1.2647    0.0519   -0.0202 C   0  0  0  0  0  0  0  0  0  0  0  0
   -0.5836   -1.2114    0.1407 N   0  0  0  0  0  0  0  0  0  0  0  0
    0.7941   -0.5476    1.5833 H   0  0  0  0  0  0  0  0  0  0  0  0
    1.4718   -1.6982    0.3321 H   0  0  0  0  0  0  0  0  0  0  0  0
    0.8369   -0.0170   -1.4104 H   0  0  0  0  0  0  0  0  0  0  0  0
    1.9676    0.8095   -0.1967 H   0  0  0  0  0  0  0  0  0  0  0  0
   -0.4056    1.9660   -0.6753 H   0  0  0  0  0  0  0  0  0  0  0  0
   -0.0846    1.4287    1.0642 H   0  0  0  0  0  0  0  0  0  0  0  0
   -1.8649    0.0920   -0.9683 H   0  0  0  0  0  0  0  0  0  0  0  0
   -1.9775    0.1442    0.8222 H   0  0  0  0  0  0  0  0  0  0  0  0
   -0.4880   -1.5895   -0.8397 H   0  0  0  0  0  0  0  0  0  0  0  0
  1  2  1  0
  2  3  1  0
  3  4  1  0
  4  5  1  0
  5  1  1  0
  1  6  1  0
  1  7  1  0
  2  8  1  0
  2  9  1  0
  3 10  1  0
  3 11  1  0
  4 12  1  0
  4 13  1  0
  5 14  1  0
M  END
>  <Ligand ID>  (1) 
LIG0000276

>  <Ligand>  (1) 
pyrrolidine

>  <SMILES>  (1) 
C1CCCN1

>  <CID>  (1) 
31268.0

>  <ChEMBL ID>  (1) 
nan

>  <InChiKey>  (1) 
RWRDLPDLKQPQOW-UHFFFAOYSA-N

>  <InChi>  (1) 
InChI=1S/C4H9N/c1-2-4-5-3-1/h5H,1-4H2

>  <IUPAC Name>  (1) 
pyrrolidine

$$$$
