
     RDKit          3D

 59 59  0  0  0  0  0  0  0  0999 V2000
    4.4868   -2.5684   -2.0946 C   0  0  0  0  0  0  0  0  0  0  0  0
    4.5038   -2.5664   -0.5808 C   0  0  0  0  0  0  0  0  0  0  0  0
    5.3297   -1.3866   -0.1152 C   0  0  0  0  0  0  0  0  0  0  0  0
    4.7916   -0.0816   -0.5762 C   0  0  0  0  0  0  0  0  0  0  0  0
    3.3965    0.2553   -0.1417 C   0  0  0  0  0  0  0  0  0  0  0  0
    3.2543    0.3249    1.3329 C   0  0  1  0  0  0  0  0  0  0  0  0
    1.8640    0.6706    1.7650 C   0  0  0  0  0  0  0  0  0  0  0  0
    1.2577    1.6977    1.2255 C   0  0  0  0  0  0  0  0  0  0  0  0
   -0.1159    2.1524    1.5586 C   0  0  1  0  0  0  0  0  0  0  0  0
   -0.1526    3.6412    1.8603 C   0  0  2  0  0  0  0  0  0  0  0  0
    0.2441    3.9081    3.1653 O   0  0  0  0  0  0  0  0  0  0  0  0
   -1.5997    4.0217    1.6165 C   0  0  0  0  0  0  0  0  0  0  0  0
   -2.1937    2.8386    0.8890 C   0  0  0  0  0  0  0  0  0  0  0  0
   -3.3825    2.6068    0.8275 O   0  0  0  0  0  0  0  0  0  0  0  0
   -1.0207    2.1192    0.3312 C   0  0  2  0  0  0  0  0  0  0  0  0
   -1.2968    0.7318   -0.1310 C   0  0  0  0  0  0  0  0  0  0  0  0
   -2.1866    0.7879   -1.3493 C   0  0  0  0  0  0  0  0  0  0  0  0
   -2.5260   -0.5808   -1.9020 C   0  0  0  0  0  0  0  0  0  0  0  0
   -3.2583   -1.4342   -0.8740 C   0  0  0  0  0  0  0  0  0  0  0  0
   -4.5389   -0.8145   -0.4359 C   0  0  0  0  0  0  0  0  0  0  0  0
   -5.2223   -1.6781    0.5838 C   0  0  0  0  0  0  0  0  0  0  0  0
   -5.5795   -2.9940    0.0450 C   0  0  0  0  0  0  0  0  0  0  0  0
   -5.4288   -3.3974   -1.1244 O   0  0  0  0  0  0  0  0  0  0  0  0
   -6.1583   -3.9109    0.9433 O   0  0  0  0  0  0  0  0  0  0  0  0
    3.6168   -0.8523    1.9732 O   0  0  0  0  0  0  0  0  0  0  0  0
    5.4008   -2.0509   -2.4373 H   0  0  0  0  0  0  0  0  0  0  0  0
    3.5829   -2.0398   -2.4120 H   0  0  0  0  0  0  0  0  0  0  0  0
    4.4842   -3.6244   -2.4690 H   0  0  0  0  0  0  0  0  0  0  0  0
    3.5050   -2.5912   -0.1431 H   0  0  0  0  0  0  0  0  0  0  0  0
    5.0405   -3.4892   -0.2695 H   0  0  0  0  0  0  0  0  0  0  0  0
    6.3379   -1.4951   -0.6266 H   0  0  0  0  0  0  0  0  0  0  0  0
    5.5434   -1.5049    0.9409 H   0  0  0  0  0  0  0  0  0  0  0  0
    5.4452    0.7247   -0.1741 H   0  0  0  0  0  0  0  0  0  0  0  0
    4.8709   -0.0716   -1.6947 H   0  0  0  0  0  0  0  0  0  0  0  0
    2.6942   -0.5603   -0.4901 H   0  0  0  0  0  0  0  0  0  0  0  0
    3.1456    1.2160   -0.6550 H   0  0  0  0  0  0  0  0  0  0  0  0
    3.9105    1.1408    1.7174 H   0  0  0  0  0  0  0  0  0  0  0  0
    1.3263    0.0981    2.5187 H   0  0  0  0  0  0  0  0  0  0  0  0
    1.7927    2.2682    0.4750 H   0  0  0  0  0  0  0  0  0  0  0  0
   -0.5306    1.6194    2.4114 H   0  0  0  0  0  0  0  0  0  0  0  0
    0.4960    4.1373    1.1076 H   0  0  0  0  0  0  0  0  0  0  0  0
    0.9593    3.2206    3.3577 H   0  0  0  0  0  0  0  0  0  0  0  0
   -2.1145    4.2022    2.5759 H   0  0  0  0  0  0  0  0  0  0  0  0
   -1.6776    4.8585    0.8898 H   0  0  0  0  0  0  0  0  0  0  0  0
   -0.5148    2.6643   -0.4703 H   0  0  0  0  0  0  0  0  0  0  0  0
   -0.3316    0.3102   -0.4804 H   0  0  0  0  0  0  0  0  0  0  0  0
   -1.7009    0.0678    0.6409 H   0  0  0  0  0  0  0  0  0  0  0  0
   -1.6729    1.3624   -2.1651 H   0  0  0  0  0  0  0  0  0  0  0  0
   -3.0746    1.3733   -1.1002 H   0  0  0  0  0  0  0  0  0  0  0  0
   -1.6460   -1.1217   -2.2452 H   0  0  0  0  0  0  0  0  0  0  0  0
   -3.2281   -0.4158   -2.7383 H   0  0  0  0  0  0  0  0  0  0  0  0
   -3.4419   -2.3955   -1.3855 H   0  0  0  0  0  0  0  0  0  0  0  0
   -2.5670   -1.6439   -0.0210 H   0  0  0  0  0  0  0  0  0  0  0  0
   -4.4273    0.2352   -0.0898 H   0  0  0  0  0  0  0  0  0  0  0  0
   -5.2608   -0.7308   -1.3022 H   0  0  0  0  0  0  0  0  0  0  0  0
   -4.5207   -1.8436    1.4597 H   0  0  0  0  0  0  0  0  0  0  0  0
   -6.1370   -1.1860    1.0003 H   0  0  0  0  0  0  0  0  0  0  0  0
   -6.6542   -4.7000    0.5662 H   0  0  0  0  0  0  0  0  0  0  0  0
    2.8806   -1.5254    1.9694 H   0  0  0  0  0  0  0  0  0  0  0  0
  1  2  1  0
  2  3  1  0
  3  4  1  0
  4  5  1  0
  5  6  1  0
  6  7  1  0
  7  8  2  0
  8  9  1  0
  9 10  1  0
 10 11  1  0
 10 12  1  0
 12 13  1  0
 13 14  2  0
 13 15  1  0
 15 16  1  0
 16 17  1  0
 17 18  1  0
 18 19  1  0
 19 20  1  0
 20 21  1  0
 21 22  1  0
 22 23  2  0
 22 24  1  0
  6 25  1  0
 15  9  1  0
  1 26  1  0
  1 27  1  0
  1 28  1  0
  2 29  1  0
  2 30  1  0
  3 31  1  0
  3 32  1  0
  4 33  1  0
  4 34  1  0
  5 35  1  0
  5 36  1  0
  6 37  1  1
  7 38  1  0
  8 39  1  0
  9 40  1  1
 10 41  1  6
 11 42  1  0
 12 43  1  0
 12 44  1  0
 15 45  1  6
 16 46  1  0
 16 47  1  0
 17 48  1  0
 17 49  1  0
 18 50  1  0
 18 51  1  0
 19 52  1  0
 19 53  1  0
 20 54  1  0
 20 55  1  0
 21 56  1  0
 21 57  1  0
 24 58  1  0
 25 59  1  0
M  END
>  <Ligand ID>  (1) 
LIG0000974

>  <Ligand>  (1) 
PGE1

>  <SMILES>  (1) 
CCCCC[C@@H](/C=C/[C@H]1[C@H](O)CC(=O)[C@@H]1CCCCCCC(=O)O)O

>  <CID>  (1) 
5280723.0

>  <ChEMBL ID>  (1) 
nan

>  <InChiKey>  (1) 
GMVPRGQOIOIIMI-DWKJAMRDSA-N

>  <InChi>  (1) 
InChI=1S/C20H34O5/c1-2-3-6-9-15(21)12-13-17-16(18(22)14-19(17)23)10-7-4-5-8-11-20(24)25/h12-13,15-17,19,21,23H,2-11,14H2,1H3,(H,24,25)/b13-12+/t15-,16+,17+,19+/m0/s1

>  <IUPAC Name>  (1) 
7-[(1R,2R,3R)-3-hydroxy-2-[(E,3S)-3-hydroxyoct-1-enyl]-5-oxocyclopentyl]heptanoic acid

$$$$
