
     RDKit          3D

 97100  0  0  0  0  0  0  0  0999 V2000
    1.0761    5.0358    3.9578 N   0  0  0  0  0  0  0  0  0  0  0  0
    0.7525    5.1891    2.5826 C   0  0  0  0  0  0  0  0  0  0  0  0
    0.4990    4.1657    1.8413 N   0  0  0  0  0  0  0  0  0  0  0  0
    0.1631    4.2596    0.4369 C   0  0  0  0  0  0  0  0  0  0  0  0
    1.3555    4.4114   -0.4533 C   0  0  0  0  0  0  0  0  0  0  0  0
    2.3564    3.3306   -0.3735 C   0  0  0  0  0  0  0  0  0  0  0  0
    1.9570    1.9451   -0.7334 C   0  0  1  0  0  0  0  0  0  0  0  0
    3.1904    1.0471   -0.5759 C   0  0  0  0  0  0  0  0  0  0  0  0
    3.1166    0.2002    0.3316 O   0  0  0  0  0  0  0  0  0  0  0  0
    4.3158    1.1828   -1.4067 N   0  0  0  0  0  0  0  0  0  0  0  0
    5.4313    0.2607   -1.1485 C   0  0  2  0  0  0  0  0  0  0  0  0
    6.7093    0.9808   -1.0836 C   0  0  0  0  0  0  0  0  0  0  0  0
    7.8013    0.3950   -0.8733 O   0  0  0  0  0  0  0  0  0  0  0  0
    6.7083    2.4130   -1.2686 N   0  0  0  0  0  0  0  0  0  0  0  0
    5.4219   -0.7994   -2.2419 C   0  0  0  0  0  0  0  0  0  0  0  0
    6.5112   -1.7939   -2.0812 C   0  0  0  0  0  0  0  0  0  0  0  0
    7.7041   -1.9082   -2.7778 C   0  0  0  0  0  0  0  0  0  0  0  0
    8.3650   -2.9581   -2.2765 N   0  0  0  0  0  0  0  0  0  0  0  0
    7.6442   -3.5310   -1.2784 C   0  0  0  0  0  0  0  0  0  0  0  0
    6.4814   -2.8086   -1.1492 C   0  0  0  0  0  0  0  0  0  0  0  0
    5.5360   -3.1703   -0.1909 C   0  0  0  0  0  0  0  0  0  0  0  0
    5.7701   -4.2650    0.6368 C   0  0  0  0  0  0  0  0  0  0  0  0
    6.9375   -5.0022    0.5181 C   0  0  0  0  0  0  0  0  0  0  0  0
    7.8641   -4.6121   -0.4535 C   0  0  0  0  0  0  0  0  0  0  0  0
    0.9950    1.3421    0.1778 N   0  0  0  0  0  0  0  0  0  0  0  0
   -0.2302    0.7382   -0.3026 C   0  0  0  0  0  0  0  0  0  0  0  0
   -0.3952    0.7871   -1.5516 O   0  0  0  0  0  0  0  0  0  0  0  0
   -1.1223    0.1580    0.6731 C   0  0  1  0  0  0  0  0  0  0  0  0
   -2.4499   -0.1569    0.1006 N   0  0  0  0  0  0  0  0  0  0  0  0
   -3.5781    0.0627    0.9340 C   0  0  0  0  0  0  0  0  0  0  0  0
   -3.3881    0.5118    2.1171 O   0  0  0  0  0  0  0  0  0  0  0  0
   -4.9701   -0.1909    0.5444 C   0  0  1  0  0  0  0  0  0  0  0  0
   -5.8400    0.0443    1.7121 N   0  0  0  0  0  0  0  0  0  0  0  0
   -6.6972   -0.9863    2.2048 C   0  0  0  0  0  0  0  0  0  0  0  0
   -6.6614   -2.0839    1.5858 O   0  0  0  0  0  0  0  0  0  0  0  0
   -7.5721   -0.7747    3.3736 C   0  0  0  0  0  0  0  0  0  0  0  0
   -7.6172    0.3202    3.9791 O   0  0  0  0  0  0  0  0  0  0  0  0
   -8.3719   -1.9093    3.7747 N   0  0  0  0  0  0  0  0  0  0  0  0
   -5.5049    0.7452   -0.5194 C   0  0  0  0  0  0  0  0  0  0  0  0
   -6.9273    0.2895   -0.7420 C   0  0  0  0  0  0  0  0  0  0  0  0
   -7.2427   -0.6556   -1.6916 C   0  0  0  0  0  0  0  0  0  0  0  0
   -8.5657   -1.0174   -1.8206 C   0  0  0  0  0  0  0  0  0  0  0  0
   -9.5435   -0.4465   -1.0197 C   0  0  0  0  0  0  0  0  0  0  0  0
   -9.2509    0.5026   -0.0624 C   0  0  0  0  0  0  0  0  0  0  0  0
   -7.9012    0.8507    0.0470 C   0  0  0  0  0  0  0  0  0  0  0  0
  -11.2047   -0.9505   -1.2291 Cl  0  0  0  0  0  0  0  0  0  0  0  0
   -0.5497   -1.1597    1.2167 C   0  0  0  0  0  0  0  0  0  0  0  0
   -0.3962   -2.1822    0.1870 C   0  0  0  0  0  0  0  0  0  0  0  0
    0.7013   -2.4196   -0.5959 C   0  0  0  0  0  0  0  0  0  0  0  0
    0.7306   -3.4056   -1.5380 C   0  0  0  0  0  0  0  0  0  0  0  0
   -0.3437   -4.2213   -1.7572 C   0  0  0  0  0  0  0  0  0  0  0  0
   -1.4829   -4.0196   -0.9859 C   0  0  0  0  0  0  0  0  0  0  0  0
   -1.4972   -3.0193   -0.0382 C   0  0  0  0  0  0  0  0  0  0  0  0
    0.7089    6.4969    2.0045 N   0  0  0  0  0  0  0  0  0  0  0  0
    1.6120    4.1964    4.3006 H   0  0  0  0  0  0  0  0  0  0  0  0
    0.7821    5.7661    4.6660 H   0  0  0  0  0  0  0  0  0  0  0  0
   -0.5136    3.4373    0.1788 H   0  0  0  0  0  0  0  0  0  0  0  0
   -0.4179    5.2496    0.3559 H   0  0  0  0  0  0  0  0  0  0  0  0
    1.8612    5.4052   -0.2239 H   0  0  0  0  0  0  0  0  0  0  0  0
    1.0147    4.5747   -1.5220 H   0  0  0  0  0  0  0  0  0  0  0  0
    3.2735    3.6043   -0.9822 H   0  0  0  0  0  0  0  0  0  0  0  0
    2.7639    3.2982    0.6735 H   0  0  0  0  0  0  0  0  0  0  0  0
    1.6861    1.8778   -1.7891 H   0  0  0  0  0  0  0  0  0  0  0  0
    4.3482    1.9000   -2.1600 H   0  0  0  0  0  0  0  0  0  0  0  0
    5.1953   -0.2792   -0.2138 H   0  0  0  0  0  0  0  0  0  0  0  0
    6.8533    2.7395   -2.2509 H   0  0  0  0  0  0  0  0  0  0  0  0
    6.5715    3.0725   -0.4680 H   0  0  0  0  0  0  0  0  0  0  0  0
    4.4739   -1.3670   -2.2288 H   0  0  0  0  0  0  0  0  0  0  0  0
    5.5058   -0.3068   -3.2419 H   0  0  0  0  0  0  0  0  0  0  0  0
    8.0022   -1.2284   -3.5906 H   0  0  0  0  0  0  0  0  0  0  0  0
    9.3140   -3.3178   -2.5911 H   0  0  0  0  0  0  0  0  0  0  0  0
    4.6311   -2.6008   -0.1017 H   0  0  0  0  0  0  0  0  0  0  0  0
    5.0570   -4.5745    1.3902 H   0  0  0  0  0  0  0  0  0  0  0  0
    7.0932   -5.8427    1.1700 H   0  0  0  0  0  0  0  0  0  0  0  0
    8.7703   -5.2106   -0.5224 H   0  0  0  0  0  0  0  0  0  0  0  0
    1.2369    1.3692    1.1907 H   0  0  0  0  0  0  0  0  0  0  0  0
   -1.2826    0.7881    1.5399 H   0  0  0  0  0  0  0  0  0  0  0  0
   -2.5661   -0.5210   -0.8647 H   0  0  0  0  0  0  0  0  0  0  0  0
   -5.1771   -1.2193    0.2085 H   0  0  0  0  0  0  0  0  0  0  0  0
   -5.8378    0.9818    2.2024 H   0  0  0  0  0  0  0  0  0  0  0  0
   -7.8478   -2.6538    4.2879 H   0  0  0  0  0  0  0  0  0  0  0  0
   -9.3731   -1.9943    3.5795 H   0  0  0  0  0  0  0  0  0  0  0  0
   -5.4365    1.8035   -0.2676 H   0  0  0  0  0  0  0  0  0  0  0  0
   -5.0105    0.5771   -1.5041 H   0  0  0  0  0  0  0  0  0  0  0  0
   -6.4721   -1.1015   -2.3192 H   0  0  0  0  0  0  0  0  0  0  0  0
   -8.8915   -1.7658   -2.5583 H   0  0  0  0  0  0  0  0  0  0  0  0
   -9.9870    0.9670    0.5754 H   0  0  0  0  0  0  0  0  0  0  0  0
   -7.6817    1.5989    0.8025 H   0  0  0  0  0  0  0  0  0  0  0  0
    0.4415   -0.9401    1.6656 H   0  0  0  0  0  0  0  0  0  0  0  0
   -1.1980   -1.5247    2.0439 H   0  0  0  0  0  0  0  0  0  0  0  0
    1.5701   -1.8084   -0.4627 H   0  0  0  0  0  0  0  0  0  0  0  0
    1.6526   -3.5292   -2.1241 H   0  0  0  0  0  0  0  0  0  0  0  0
   -0.2693   -4.9858   -2.5146 H   0  0  0  0  0  0  0  0  0  0  0  0
   -2.3087   -4.6711   -1.1780 H   0  0  0  0  0  0  0  0  0  0  0  0
   -2.4157   -2.9135    0.5312 H   0  0  0  0  0  0  0  0  0  0  0  0
   -0.1693    6.9757    1.7272 H   0  0  0  0  0  0  0  0  0  0  0  0
    1.6462    6.9554    1.8733 H   0  0  0  0  0  0  0  0  0  0  0  0
  1  2  1  0
  2  3  2  3
  3  4  1  0
  4  5  1  0
  5  6  1  0
  6  7  1  0
  7  8  1  0
  8  9  2  0
  8 10  1  0
 10 11  1  0
 11 12  1  0
 12 13  2  0
 12 14  1  0
 11 15  1  0
 15 16  1  0
 16 17  2  0
 17 18  1  0
 18 19  1  0
 19 20  2  0
 20 21  1  0
 21 22  2  0
 22 23  1  0
 23 24  2  0
  7 25  1  0
 25 26  1  0
 26 27  2  0
 26 28  1  0
 28 29  1  0
 29 30  1  0
 30 31  2  0
 30 32  1  0
 32 33  1  0
 33 34  1  0
 34 35  2  0
 34 36  1  0
 36 37  2  0
 36 38  1  0
 32 39  1  0
 39 40  1  0
 40 41  2  0
 41 42  1  0
 42 43  2  0
 43 44  1  0
 44 45  2  0
 43 46  1  0
 28 47  1  0
 47 48  1  0
 48 49  2  0
 49 50  1  0
 50 51  2  0
 51 52  1  0
 52 53  2  0
  2 54  1  0
 20 16  1  0
 45 40  1  0
 53 48  1  0
 24 19  1  0
  1 55  1  0
  1 56  1  0
  4 57  1  0
  4 58  1  0
  5 59  1  0
  5 60  1  0
  6 61  1  0
  6 62  1  0
  7 63  1  6
 10 64  1  0
 11 65  1  1
 14 66  1  0
 14 67  1  0
 15 68  1  0
 15 69  1  0
 17 70  1  0
 18 71  1  0
 21 72  1  0
 22 73  1  0
 23 74  1  0
 24 75  1  0
 25 76  1  0
 28 77  1  1
 29 78  1  0
 32 79  1  6
 33 80  1  0
 38 81  1  0
 38 82  1  0
 39 83  1  0
 39 84  1  0
 41 85  1  0
 42 86  1  0
 44 87  1  0
 45 88  1  0
 47 89  1  0
 47 90  1  0
 49 91  1  0
 50 92  1  0
 51 93  1  0
 52 94  1  0
 53 95  1  0
 54 96  1  0
 54 97  1  0
M  END
>  <Ligand ID>  (1) 
LIG0002617

>  <Ligand>  (1) 
CHEMBL434329

>  <SMILES>  (1) 
NC(=NCCC[C@@H](C(=O)N[C@H](C(=O)N)Cc1c[nH]c2c1cccc2)NC(=O)[C@@H](NC(=O)[C@@H](NC(=O)C(=O)N)Cc1ccc(cc1)Cl)Cc1ccccc1)N

>  <CID>  (1) 
44394658.0

>  <ChEMBL ID>  (1) 
nan

>  <InChiKey>  (1) 
VPNRVMBMPDIABM-KRCBVYEFSA-N

>  <InChi>  (1) 
InChI=1S/C37H43ClN10O6/c38-24-14-12-22(13-15-24)18-30(48-36(54)32(40)50)35(53)47-29(17-21-7-2-1-3-8-21)34(52)45-27(11-6-16-43-37(41)42)33(51)46-28(31(39)49)19-23-20-44-26-10-5-4-9-25(23)26/h1-5,7-10,12-15,20,27-30,44H,6,11,16-19H2,(H2,39,49)(H2,40,50)(H,45,52)(H,46,51)(H,47,53)(H,48,54)(H4,41,42,43)/t27-,28-,29-,30-/m0/s1

>  <IUPAC Name>  (1) 
N'-[(2S)-1-[[(2S)-1-[[(2S)-1-[[(2S)-1-amino-3-(1H-indol-3-yl)-1-oxopropan-2-yl]amino]-5-(diaminomethylideneamino)-1-oxopentan-2-yl]amino]-1-oxo-3-phenylpropan-2-yl]amino]-3-(4-chlorophenyl)-1-oxopropan-2-yl]oxamide

$$$$
