
     RDKit          3D

 66 72  0  0  0  0  0  0  0  0999 V2000
   -4.7000    4.1199   -2.1514 C   0  0  0  0  0  0  0  0  0  0  0  0
   -3.5358    3.5820   -1.5575 O   0  0  0  0  0  0  0  0  0  0  0  0
   -3.6097    2.3018   -1.0372 C   0  0  0  0  0  0  0  0  0  0  0  0
   -4.7842    1.5436   -1.0840 C   0  0  0  0  0  0  0  0  0  0  0  0
   -4.8353    0.2513   -0.5517 C   0  0  0  0  0  0  0  0  0  0  0  0
   -3.7161   -0.2750    0.0231 C   0  0  0  0  0  0  0  0  0  0  0  0
   -2.5877    0.5015    0.0488 C   0  0  0  0  0  0  0  0  0  0  0  0
   -2.4683    1.7564   -0.4474 C   0  0  0  0  0  0  0  0  0  0  0  0
   -1.1720    2.1606   -0.2147 O   0  0  0  0  0  0  0  0  0  0  0  0
   -0.3774    1.0569    0.2473 C   0  0  1  0  0  0  0  0  0  0  0  0
   -1.3623   -0.0077    0.6666 C   0  0  1  0  0  0  0  0  0  0  0  0
   -1.5299   -0.1075    2.1308 C   0  0  0  0  0  0  0  0  0  0  0  0
   -1.5666   -1.4556    2.7443 C   0  0  0  0  0  0  0  0  0  0  0  0
   -1.7318   -2.5761    1.8695 N   0  0  0  0  0  0  0  0  0  0  0  0
   -2.2411   -2.2225    0.5642 C   0  0  1  0  0  0  0  0  0  0  0  0
   -3.6136   -1.6368    0.6084 C   0  0  0  0  0  0  0  0  0  0  0  0
   -1.1748   -1.3327   -0.0343 C   0  0  1  0  0  0  0  0  0  0  0  0
   -1.3120   -1.1536   -1.5258 C   0  0  0  0  0  0  0  0  0  0  0  0
   -0.2692   -0.1411   -1.9486 C   0  0  0  0  0  0  0  0  0  0  0  0
    0.4842    0.4334   -0.7939 C   0  0  1  0  0  0  0  0  0  0  0  0
    1.5093    1.2319   -1.2748 O   0  0  0  0  0  0  0  0  0  0  0  0
    1.1221    2.4015   -1.8658 C   0  0  0  0  0  0  0  0  0  0  0  0
    1.1814   -0.7314   -0.0845 C   0  0  1  0  0  0  0  0  0  0  0  0
    0.1946   -1.8751    0.1938 C   0  0  0  0  0  0  0  0  0  0  0  0
    2.3889   -1.2258   -0.8234 C   0  0  0  0  0  0  0  0  0  0  0  0
    3.0177   -2.2737   -0.1744 O   0  0  0  0  0  0  0  0  0  0  0  0
    3.5384   -1.9714    1.0663 C   0  0  0  0  0  0  0  0  0  0  0  0
    4.5870   -0.9538    0.9183 C   0  0  0  0  0  0  0  0  0  0  0  0
    4.4278    0.3944    0.9887 C   0  0  0  0  0  0  0  0  0  0  0  0
    5.4975    1.2786    0.8276 C   0  0  0  0  0  0  0  0  0  0  0  0
    6.7674    0.8050    0.5887 C   0  0  0  0  0  0  0  0  0  0  0  0
    6.9476   -0.5605    0.5142 C   0  0  0  0  0  0  0  0  0  0  0  0
    5.8846   -1.4176    0.6749 C   0  0  0  0  0  0  0  0  0  0  0  0
   -4.5309    5.2228   -2.2575 H   0  0  0  0  0  0  0  0  0  0  0  0
   -4.8839    3.7264   -3.1757 H   0  0  0  0  0  0  0  0  0  0  0  0
   -5.6092    4.0002   -1.5179 H   0  0  0  0  0  0  0  0  0  0  0  0
   -5.6748    1.9574   -1.5389 H   0  0  0  0  0  0  0  0  0  0  0  0
   -5.7305   -0.3497   -0.5778 H   0  0  0  0  0  0  0  0  0  0  0  0
    0.2701    1.3942    1.0788 H   0  0  0  0  0  0  0  0  0  0  0  0
   -0.7088    0.5172    2.5957 H   0  0  0  0  0  0  0  0  0  0  0  0
   -2.4471    0.4395    2.4378 H   0  0  0  0  0  0  0  0  0  0  0  0
   -0.6207   -1.6172    3.3138 H   0  0  0  0  0  0  0  0  0  0  0  0
   -2.3589   -1.5265    3.5340 H   0  0  0  0  0  0  0  0  0  0  0  0
   -2.3431   -3.2976    2.2976 H   0  0  0  0  0  0  0  0  0  0  0  0
   -2.2703   -3.1464   -0.0412 H   0  0  0  0  0  0  0  0  0  0  0  0
   -4.3765   -2.3178    0.1295 H   0  0  0  0  0  0  0  0  0  0  0  0
   -3.9244   -1.5540    1.6711 H   0  0  0  0  0  0  0  0  0  0  0  0
   -2.2809   -0.8143   -1.8765 H   0  0  0  0  0  0  0  0  0  0  0  0
   -1.1306   -2.1548   -2.0199 H   0  0  0  0  0  0  0  0  0  0  0  0
   -0.7224    0.6325   -2.6038 H   0  0  0  0  0  0  0  0  0  0  0  0
    0.4579   -0.6791   -2.6053 H   0  0  0  0  0  0  0  0  0  0  0  0
    0.4613    2.2905   -2.7463 H   0  0  0  0  0  0  0  0  0  0  0  0
    2.0681    2.8767   -2.2627 H   0  0  0  0  0  0  0  0  0  0  0  0
    0.6889    3.1642   -1.1974 H   0  0  0  0  0  0  0  0  0  0  0  0
    1.4835   -0.3798    0.9013 H   0  0  0  0  0  0  0  0  0  0  0  0
    0.3139   -2.2791    1.2073 H   0  0  0  0  0  0  0  0  0  0  0  0
    0.4570   -2.6564   -0.5792 H   0  0  0  0  0  0  0  0  0  0  0  0
    2.0961   -1.5934   -1.8324 H   0  0  0  0  0  0  0  0  0  0  0  0
    3.0793   -0.3415   -0.9380 H   0  0  0  0  0  0  0  0  0  0  0  0
    2.7592   -1.6776    1.8017 H   0  0  0  0  0  0  0  0  0  0  0  0
    4.0060   -2.9080    1.4884 H   0  0  0  0  0  0  0  0  0  0  0  0
    3.4743    0.8235    1.1734 H   0  0  0  0  0  0  0  0  0  0  0  0
    5.3694    2.3498    0.8837 H   0  0  0  0  0  0  0  0  0  0  0  0
    7.6318    1.4393    0.4559 H   0  0  0  0  0  0  0  0  0  0  0  0
    7.9556   -0.9480    0.3242 H   0  0  0  0  0  0  0  0  0  0  0  0
    6.0796   -2.4939    0.6068 H   0  0  0  0  0  0  0  0  0  0  0  0
  1  2  1  0
  2  3  1  0
  3  4  2  0
  4  5  1  0
  5  6  2  0
  6  7  1  0
  7  8  2  0
  8  9  1  0
  9 10  1  0
 10 11  1  0
 11 12  1  1
 12 13  1  0
 13 14  1  0
 14 15  1  0
 15 16  1  0
 15 17  1  0
 17 18  1  6
 18 19  1  0
 19 20  1  0
 20 21  1  6
 21 22  1  0
 20 23  1  0
 23 24  1  0
 23 25  1  0
 25 26  1  0
 26 27  1  0
 27 28  1  0
 28 29  2  0
 29 30  1  0
 30 31  2  0
 31 32  1  0
 32 33  2  0
  8  3  1  0
 20 10  1  0
 33 28  1  0
 16  6  1  0
 24 17  1  0
 11  7  1  0
 17 11  1  0
  1 34  1  0
  1 35  1  0
  1 36  1  0
  4 37  1  0
  5 38  1  0
 10 39  1  1
 12 40  1  0
 12 41  1  0
 13 42  1  0
 13 43  1  0
 14 44  1  0
 15 45  1  6
 16 46  1  0
 16 47  1  0
 18 48  1  0
 18 49  1  0
 19 50  1  0
 19 51  1  0
 22 52  1  0
 22 53  1  0
 22 54  1  0
 23 55  1  1
 24 56  1  0
 24 57  1  0
 25 58  1  0
 25 59  1  0
 27 60  1  0
 27 61  1  0
 29 62  1  0
 30 63  1  0
 31 64  1  0
 32 65  1  0
 33 66  1  0
M  END
>  <Ligand ID>  (1) 
LIG0004775

>  <Ligand>  (1) 
CHEMBL3933635

>  <SMILES>  (1) 
COc1ccc2c3c1O[C@H]1[C@]43CCN[C@@H](C2)[C@]24CC[C@]1(OC)[C@@H](C2)COCc1ccccc1

>  <CID>  (1) 
134139001.0

>  <ChEMBL ID>  (1) 
nan

>  <InChiKey>  (1) 
FDYCYWQDIVTVDR-XKNGQPLFSA-N

>  <InChi>  (1) 
InChI=1S/C28H33NO4/c1-30-21-9-8-19-14-22-26-10-11-28(31-2,20(15-26)17-32-16-18-6-4-3-5-7-18)25-27(26,12-13-29-22)23(19)24(21)33-25/h3-9,20,22,25,29H,10-17H2,1-2H3/t20-,22-,25-,26-,27+,28-/m0/s1

>  <IUPAC Name>  (1) 
(1R,2R,6S,14S,15S,16S)-11,15-dimethoxy-16-(phenylmethoxymethyl)-13-oxa-5-azahexacyclo[13.2.2.12,8.01,6.02,14.012,20]icosa-8(20),9,11-triene

$$$$
