
     RDKit          3D

 66 68  0  0  0  0  0  0  0  0999 V2000
   -5.5657    1.5336    0.9138 O   0  0  0  0  0  0  0  0  0  0  0  0
   -5.6305    0.3722    0.3870 C   0  0  0  0  0  0  0  0  0  0  0  0
   -6.9255   -0.2301    0.0513 C   0  0  2  0  0  0  0  0  0  0  0  0
   -6.8951   -0.5156   -1.4546 C   0  0  0  0  0  0  0  0  0  0  0  0
   -8.0562   -1.1432   -1.8498 O   0  0  0  0  0  0  0  0  0  0  0  0
   -8.0686   -1.4651   -3.5062 P   0  0  0  0  0  0  0  0  0  0  0  0
   -6.6735   -1.6531   -4.0049 O   0  0  0  0  0  0  0  0  0  0  0  0
   -8.9496   -2.8856   -3.8381 O   0  0  0  0  0  0  0  0  0  0  0  0
   -8.8780   -0.2141   -4.3019 O   0  0  0  0  0  0  0  0  0  0  0  0
   -8.0429    0.6262    0.3869 N   0  0  0  0  0  0  0  0  0  0  0  0
   -7.1625   -1.5696    0.7148 C   0  0  0  0  0  0  0  0  0  0  0  0
   -4.4518   -0.3740    0.1091 N   0  0  0  0  0  0  0  0  0  0  0  0
   -3.2094    0.2598    0.4563 C   0  0  0  0  0  0  0  0  0  0  0  0
   -2.5244    1.0614   -0.4353 C   0  0  0  0  0  0  0  0  0  0  0  0
   -1.3260    1.6333   -0.0057 C   0  0  0  0  0  0  0  0  0  0  0  0
   -0.8493    1.4001    1.2689 C   0  0  0  0  0  0  0  0  0  0  0  0
   -1.5429    0.5874    2.1740 C   0  0  0  0  0  0  0  0  0  0  0  0
   -2.7278    0.0278    1.7352 C   0  0  0  0  0  0  0  0  0  0  0  0
    0.3579    1.9676    1.7220 O   0  0  0  0  0  0  0  0  0  0  0  0
    0.8537    1.7403    3.0118 C   0  0  0  0  0  0  0  0  0  0  0  0
    2.1586    2.4990    3.1517 C   0  0  0  0  0  0  0  0  0  0  0  0
    3.1438    2.0141    2.1240 C   0  0  0  0  0  0  0  0  0  0  0  0
    3.4714    0.5479    2.2435 C   0  0  0  0  0  0  0  0  0  0  0  0
    4.4659    0.1437    1.1837 C   0  0  0  0  0  0  0  0  0  0  0  0
    4.0681   -0.3065   -0.0531 C   0  0  0  0  0  0  0  0  0  0  0  0
    5.0571   -0.6558   -0.9644 C   0  0  0  0  0  0  0  0  0  0  0  0
    6.3993   -0.5627   -0.6618 C   0  0  0  0  0  0  0  0  0  0  0  0
    6.8066   -0.1081    0.5874 C   0  0  0  0  0  0  0  0  0  0  0  0
    5.8143    0.2340    1.4789 C   0  0  0  0  0  0  0  0  0  0  0  0
    7.4563   -0.9209   -1.5947 C   0  0  0  0  0  0  0  0  0  0  0  0
    8.6689   -0.2675   -1.5551 C   0  0  0  0  0  0  0  0  0  0  0  0
    9.7118   -0.5678   -2.4203 C   0  0  0  0  0  0  0  0  0  0  0  0
    9.5542   -1.5616   -3.3733 C   0  0  0  0  0  0  0  0  0  0  0  0
    8.3429   -2.2185   -3.4171 C   0  0  0  0  0  0  0  0  0  0  0  0
    7.3095   -1.9099   -2.5482 C   0  0  0  0  0  0  0  0  0  0  0  0
   -6.0600   -1.2227   -1.6157 H   0  0  0  0  0  0  0  0  0  0  0  0
   -6.6780    0.4185   -1.9863 H   0  0  0  0  0  0  0  0  0  0  0  0
   -9.9148   -2.6332   -3.7855 H   0  0  0  0  0  0  0  0  0  0  0  0
   -8.4244    0.6645   -4.1639 H   0  0  0  0  0  0  0  0  0  0  0  0
   -7.8168    1.1095    1.2953 H   0  0  0  0  0  0  0  0  0  0  0  0
   -8.2047    1.3772   -0.3253 H   0  0  0  0  0  0  0  0  0  0  0  0
   -6.4499   -2.3417    0.3563 H   0  0  0  0  0  0  0  0  0  0  0  0
   -8.2084   -1.8612    0.4431 H   0  0  0  0  0  0  0  0  0  0  0  0
   -7.0153   -1.4840    1.7925 H   0  0  0  0  0  0  0  0  0  0  0  0
   -4.4882   -1.3104   -0.3148 H   0  0  0  0  0  0  0  0  0  0  0  0
   -2.9126    1.2309   -1.4248 H   0  0  0  0  0  0  0  0  0  0  0  0
   -0.7763    2.2660   -0.6958 H   0  0  0  0  0  0  0  0  0  0  0  0
   -1.1492    0.4219    3.1617 H   0  0  0  0  0  0  0  0  0  0  0  0
   -3.2969   -0.6150    2.4205 H   0  0  0  0  0  0  0  0  0  0  0  0
    0.0762    2.1664    3.7133 H   0  0  0  0  0  0  0  0  0  0  0  0
    0.9803    0.6679    3.1678 H   0  0  0  0  0  0  0  0  0  0  0  0
    2.0174    3.5842    2.9739 H   0  0  0  0  0  0  0  0  0  0  0  0
    2.5584    2.4160    4.1831 H   0  0  0  0  0  0  0  0  0  0  0  0
    2.7551    2.2594    1.1114 H   0  0  0  0  0  0  0  0  0  0  0  0
    4.0760    2.6343    2.2245 H   0  0  0  0  0  0  0  0  0  0  0  0
    3.9478    0.3470    3.2167 H   0  0  0  0  0  0  0  0  0  0  0  0
    2.5528   -0.0482    2.1200 H   0  0  0  0  0  0  0  0  0  0  0  0
    3.0149   -0.3739   -0.2754 H   0  0  0  0  0  0  0  0  0  0  0  0
    4.7611   -1.0069   -1.9284 H   0  0  0  0  0  0  0  0  0  0  0  0
    7.8486   -0.0202    0.8649 H   0  0  0  0  0  0  0  0  0  0  0  0
    6.1548    0.5888    2.4545 H   0  0  0  0  0  0  0  0  0  0  0  0
    8.8536    0.5200   -0.8317 H   0  0  0  0  0  0  0  0  0  0  0  0
   10.6637   -0.0321   -2.3654 H   0  0  0  0  0  0  0  0  0  0  0  0
   10.3659   -1.7982   -4.0497 H   0  0  0  0  0  0  0  0  0  0  0  0
    8.2300   -2.9908   -4.1625 H   0  0  0  0  0  0  0  0  0  0  0  0
    6.3786   -2.4531   -2.6220 H   0  0  0  0  0  0  0  0  0  0  0  0
  1  2  2  0
  2  3  1  0
  3  4  1  0
  4  5  1  0
  5  6  1  0
  6  7  2  0
  6  8  1  0
  6  9  1  0
  3 10  1  6
  3 11  1  0
  2 12  1  0
 12 13  1  0
 13 14  2  0
 14 15  1  0
 15 16  2  0
 16 17  1  0
 17 18  2  0
 16 19  1  0
 19 20  1  0
 20 21  1  0
 21 22  1  0
 22 23  1  0
 23 24  1  0
 24 25  2  0
 25 26  1  0
 26 27  2  0
 27 28  1  0
 28 29  2  0
 27 30  1  0
 30 31  2  0
 31 32  1  0
 32 33  2  0
 33 34  1  0
 34 35  2  0
 18 13  1  0
 29 24  1  0
 35 30  1  0
  4 36  1  0
  4 37  1  0
  8 38  1  0
  9 39  1  0
 10 40  1  0
 10 41  1  0
 11 42  1  0
 11 43  1  0
 11 44  1  0
 12 45  1  0
 14 46  1  0
 15 47  1  0
 17 48  1  0
 18 49  1  0
 20 50  1  0
 20 51  1  0
 21 52  1  0
 21 53  1  0
 22 54  1  0
 22 55  1  0
 23 56  1  0
 23 57  1  0
 25 58  1  0
 26 59  1  0
 28 60  1  0
 29 61  1  0
 31 62  1  0
 32 63  1  0
 33 64  1  0
 34 65  1  0
 35 66  1  0
M  END
>  <Ligand ID>  (1) 
LIG0005098

>  <Ligand>  (1) 
CHEMBL475253

>  <SMILES>  (1) 
O=C([C@](COP(=O)(O)O)(N)C)Nc1ccc(cc1)OCCCCc1ccc(cc1)c1ccccc1

>  <CID>  (1) 
44565715.0

>  <ChEMBL ID>  (1) 
nan

>  <InChiKey>  (1) 
XGFCNYXSOCFJIR-SANMLTNESA-N

>  <InChi>  (1) 
InChI=1S/C26H31N2O6P/c1-26(27,19-34-35(30,31)32)25(29)28-23-14-16-24(17-15-23)33-18-6-5-7-20-10-12-22(13-11-20)21-8-3-2-4-9-21/h2-4,8-17H,5-7,18-19,27H2,1H3,(H,28,29)(H2,30,31,32)/t26-/m0/s1

>  <IUPAC Name>  (1) 
[(2S)-2-amino-2-methyl-3-oxo-3-[4-[4-(4-phenylphenyl)butoxy]anilino]propyl] dihydrogen phosphate

$$$$
