
     RDKit          3D

 54 56  0  0  0  0  0  0  0  0999 V2000
    9.3946    1.3805    1.6412 O   0  0  0  0  0  0  0  0  0  0  0  0
    8.5681    0.7202    0.7628 C   0  0  0  0  0  0  0  0  0  0  0  0
    8.0342    1.3822   -0.1608 O   0  0  0  0  0  0  0  0  0  0  0  0
    8.3249   -0.7160    0.9122 C   0  0  0  0  0  0  0  0  0  0  0  0
    7.4249   -1.2694   -0.0100 O   0  0  0  0  0  0  0  0  0  0  0  0
    6.0988   -0.9209   -0.1493 C   0  0  0  0  0  0  0  0  0  0  0  0
    5.4553    0.0272    0.6116 C   0  0  0  0  0  0  0  0  0  0  0  0
    4.1190    0.2829    0.3715 C   0  0  0  0  0  0  0  0  0  0  0  0
    3.3885   -0.3593   -0.5904 C   0  0  0  0  0  0  0  0  0  0  0  0
    4.0248   -1.3092   -1.3563 C   0  0  0  0  0  0  0  0  0  0  0  0
    5.3731   -1.5874   -1.1357 C   0  0  0  0  0  0  0  0  0  0  0  0
    1.9807   -0.0080   -0.7410 C   0  0  0  0  0  0  0  0  0  0  0  0
    1.0509   -0.9607   -1.1650 C   0  0  0  0  0  0  0  0  0  0  0  0
   -0.2716   -0.6366   -1.2882 C   0  0  0  0  0  0  0  0  0  0  0  0
   -0.7006    0.6369   -0.9939 C   0  0  0  0  0  0  0  0  0  0  0  0
    0.2206    1.5652   -0.5794 C   0  0  0  0  0  0  0  0  0  0  0  0
    1.5693    1.2793   -0.4412 C   0  0  0  0  0  0  0  0  0  0  0  0
   -2.1512    1.0392   -1.0718 C   0  0  0  0  0  0  0  0  0  0  0  0
   -2.7398    0.8325    0.3444 C   0  0  0  0  0  0  0  0  0  0  0  0
   -2.6460   -0.5084    0.7610 N   0  0  0  0  0  0  0  0  0  0  0  0
   -3.4361   -1.5052    0.1679 C   0  0  0  0  0  0  0  0  0  0  0  0
   -4.8861   -1.5714    0.4613 C   0  0  1  0  0  0  0  0  0  0  0  0
   -5.6584   -0.3589    0.2058 C   0  0  0  0  0  0  0  0  0  0  0  0
   -5.9429    0.1028   -1.0676 C   0  0  0  0  0  0  0  0  0  0  0  0
   -6.7048    1.2481   -1.2000 C   0  0  0  0  0  0  0  0  0  0  0  0
   -7.1800    1.9290   -0.0815 C   0  0  0  0  0  0  0  0  0  0  0  0
   -6.9020    1.4763    1.1964 C   0  0  0  0  0  0  0  0  0  0  0  0
   -6.1405    0.3311    1.3316 C   0  0  0  0  0  0  0  0  0  0  0  0
   -7.4889    2.3156    2.6312 Cl  0  0  0  0  0  0  0  0  0  0  0  0
   -5.3812   -2.6643   -0.3094 O   0  0  0  0  0  0  0  0  0  0  0  0
    9.4188    2.3818    1.7780 H   0  0  0  0  0  0  0  0  0  0  0  0
    9.2575   -1.3182    0.9466 H   0  0  0  0  0  0  0  0  0  0  0  0
    7.8775   -0.8598    1.9405 H   0  0  0  0  0  0  0  0  0  0  0  0
    5.9694    0.5556    1.3807 H   0  0  0  0  0  0  0  0  0  0  0  0
    3.6325    1.0341    0.9821 H   0  0  0  0  0  0  0  0  0  0  0  0
    3.4539   -1.8185   -2.1189 H   0  0  0  0  0  0  0  0  0  0  0  0
    5.8881   -2.3470   -1.7450 H   0  0  0  0  0  0  0  0  0  0  0  0
    1.3671   -1.9619   -1.4002 H   0  0  0  0  0  0  0  0  0  0  0  0
   -0.9758   -1.3860   -1.6233 H   0  0  0  0  0  0  0  0  0  0  0  0
   -0.1121    2.5811   -0.3437 H   0  0  0  0  0  0  0  0  0  0  0  0
    2.2417    2.0572   -0.1096 H   0  0  0  0  0  0  0  0  0  0  0  0
   -2.6376    0.3399   -1.7721 H   0  0  0  0  0  0  0  0  0  0  0  0
   -2.2238    2.0706   -1.4079 H   0  0  0  0  0  0  0  0  0  0  0  0
   -2.0424    1.4626    0.9860 H   0  0  0  0  0  0  0  0  0  0  0  0
   -3.7286    1.2802    0.3287 H   0  0  0  0  0  0  0  0  0  0  0  0
   -1.7504   -0.8165    1.1440 H   0  0  0  0  0  0  0  0  0  0  0  0
   -3.2428   -1.5320   -0.9442 H   0  0  0  0  0  0  0  0  0  0  0  0
   -3.0073   -2.5049    0.5060 H   0  0  0  0  0  0  0  0  0  0  0  0
   -4.9956   -1.9186    1.5204 H   0  0  0  0  0  0  0  0  0  0  0  0
   -5.5738   -0.4247   -1.9346 H   0  0  0  0  0  0  0  0  0  0  0  0
   -6.9663    1.6634   -2.1824 H   0  0  0  0  0  0  0  0  0  0  0  0
   -7.7861    2.8398   -0.1984 H   0  0  0  0  0  0  0  0  0  0  0  0
   -5.9079   -0.0473    2.3318 H   0  0  0  0  0  0  0  0  0  0  0  0
   -4.9533   -3.5039   -0.0103 H   0  0  0  0  0  0  0  0  0  0  0  0
  1  2  1  0
  2  3  2  0
  2  4  1  0
  4  5  1  0
  5  6  1  0
  6  7  2  0
  7  8  1  0
  8  9  2  0
  9 10  1  0
 10 11  2  0
  9 12  1  0
 12 13  2  0
 13 14  1  0
 14 15  2  0
 15 16  1  0
 16 17  2  0
 15 18  1  0
 18 19  1  0
 19 20  1  0
 20 21  1  0
 21 22  1  0
 22 23  1  0
 23 24  2  0
 24 25  1  0
 25 26  2  0
 26 27  1  0
 27 28  2  0
 27 29  1  0
 22 30  1  0
 11  6  1  0
 17 12  1  0
 28 23  1  0
  1 31  1  0
  4 32  1  0
  4 33  1  0
  7 34  1  0
  8 35  1  0
 10 36  1  0
 11 37  1  0
 13 38  1  0
 14 39  1  0
 16 40  1  0
 17 41  1  0
 18 42  1  0
 18 43  1  0
 19 44  1  0
 19 45  1  0
 20 46  1  0
 21 47  1  0
 21 48  1  0
 22 49  1  1
 24 50  1  0
 25 51  1  0
 26 52  1  0
 28 53  1  0
 30 54  1  0
M  END
>  <Ligand ID>  (1) 
LIG0005824

>  <Ligand>  (1) 
CHEMBL270025

>  <SMILES>  (1) 
OC(=O)COc1ccc(cc1)c1ccc(cc1)CCNC[C@@H](c1cccc(c1)Cl)O

>  <CID>  (1) 
24823470.0

>  <ChEMBL ID>  (1) 
nan

>  <InChiKey>  (1) 
YETRMICVZUENOQ-QHCPKHFHSA-N

>  <InChi>  (1) 
InChI=1S/C24H24ClNO4/c25-21-3-1-2-20(14-21)23(27)15-26-13-12-17-4-6-18(7-5-17)19-8-10-22(11-9-19)30-16-24(28)29/h1-11,14,23,26-27H,12-13,15-16H2,(H,28,29)/t23-/m0/s1

>  <IUPAC Name>  (1) 
2-[4-[4-[2-[[(2R)-2-(3-chlorophenyl)-2-hydroxyethyl]amino]ethyl]phenyl]phenoxy]acetic acid

$$$$
