
     RDKit          3D

 42 42  0  0  0  0  0  0  0  0999 V2000
   -5.1766    0.6782    2.0170 O   0  0  0  0  0  0  0  0  0  0  0  0
   -6.0858   -0.0864    1.3110 C   0  0  0  0  0  0  0  0  0  0  0  0
   -7.2869    0.3030    1.3276 O   0  0  0  0  0  0  0  0  0  0  0  0
   -5.7709   -1.3003    0.5540 C   0  0  0  0  0  0  0  0  0  0  0  0
   -4.4094   -1.5804    0.6044 O   0  0  0  0  0  0  0  0  0  0  0  0
   -3.3799   -0.7911    0.1464 C   0  0  0  0  0  0  0  0  0  0  0  0
   -3.5323    0.4303   -0.4606 C   0  0  0  0  0  0  0  0  0  0  0  0
   -2.4397    1.1538   -0.8879 C   0  0  0  0  0  0  0  0  0  0  0  0
   -1.1440    0.6781   -0.7224 C   0  0  0  0  0  0  0  0  0  0  0  0
   -1.0068   -0.5399   -0.1165 C   0  0  0  0  0  0  0  0  0  0  0  0
   -2.0901   -1.2774    0.3174 C   0  0  0  0  0  0  0  0  0  0  0  0
   -1.8430   -2.5122    0.9255 O   0  0  0  0  0  0  0  0  0  0  0  0
   -0.0416    1.5195   -1.2110 C   0  0  0  0  0  0  0  0  0  0  0  0
    1.5538    1.0412   -0.5225 P   0  0  0  0  0  0  0  0  0  0  0  0
    2.5074    2.2421   -0.5028 O   0  0  0  0  0  0  0  0  0  0  0  0
    2.3387   -0.2633   -1.4768 C   0  0  0  0  0  0  0  0  0  0  0  0
    3.8503   -0.0314   -1.4918 C   0  0  0  0  0  0  0  0  0  0  0  0
    4.4145   -0.0443   -0.1067 C   0  0  2  0  0  0  0  0  0  0  0  0
    5.8789    0.1773   -0.0755 C   0  0  0  0  0  0  0  0  0  0  0  0
    6.3306    1.2718   -0.4914 O   0  0  0  0  0  0  0  0  0  0  0  0
    6.7886   -0.7619    0.3906 O   0  0  0  0  0  0  0  0  0  0  0  0
    4.1966   -1.3956    0.4350 N   0  0  0  0  0  0  0  0  0  0  0  0
    1.3591    0.6068    1.1007 O   0  0  0  0  0  0  0  0  0  0  0  0
   -0.3203    2.8338   -0.8037 O   0  0  0  0  0  0  0  0  0  0  0  0
   -5.3954    1.5468    2.4639 H   0  0  0  0  0  0  0  0  0  0  0  0
   -6.0750   -1.1542   -0.5211 H   0  0  0  0  0  0  0  0  0  0  0  0
   -6.3204   -2.1862    0.9446 H   0  0  0  0  0  0  0  0  0  0  0  0
   -4.5107    0.8348   -0.6143 H   0  0  0  0  0  0  0  0  0  0  0  0
   -2.6179    2.1127   -1.3610 H   0  0  0  0  0  0  0  0  0  0  0  0
   -0.0138   -0.9402    0.0276 H   0  0  0  0  0  0  0  0  0  0  0  0
   -2.4112   -3.3179    0.7237 H   0  0  0  0  0  0  0  0  0  0  0  0
   -0.0056    1.4739   -2.3363 H   0  0  0  0  0  0  0  0  0  0  0  0
    2.1166   -1.2383   -1.0213 H   0  0  0  0  0  0  0  0  0  0  0  0
    1.9607   -0.2526   -2.5058 H   0  0  0  0  0  0  0  0  0  0  0  0
    4.0346    0.9084   -2.0338 H   0  0  0  0  0  0  0  0  0  0  0  0
    4.2551   -0.8603   -2.1081 H   0  0  0  0  0  0  0  0  0  0  0  0
    3.8463    0.6429    0.5477 H   0  0  0  0  0  0  0  0  0  0  0  0
    7.7514   -0.7889    0.1294 H   0  0  0  0  0  0  0  0  0  0  0  0
    4.3367   -2.0458   -0.3683 H   0  0  0  0  0  0  0  0  0  0  0  0
    3.2502   -1.4462    0.8417 H   0  0  0  0  0  0  0  0  0  0  0  0
    1.0660    1.4145    1.5896 H   0  0  0  0  0  0  0  0  0  0  0  0
    0.0411    2.9448    0.1154 H   0  0  0  0  0  0  0  0  0  0  0  0
  1  2  1  0
  2  3  2  0
  2  4  1  0
  4  5  1  0
  5  6  1  0
  6  7  2  0
  7  8  1  0
  8  9  2  0
  9 10  1  0
 10 11  2  0
 11 12  1  0
  9 13  1  0
 13 14  1  0
 14 15  2  0
 14 16  1  0
 16 17  1  0
 17 18  1  0
 18 19  1  0
 19 20  2  0
 19 21  1  0
 18 22  1  0
 14 23  1  0
 13 24  1  0
 11  6  1  0
  1 25  1  0
  4 26  1  0
  4 27  1  0
  7 28  1  0
  8 29  1  0
 10 30  1  0
 12 31  1  0
 13 32  1  0
 16 33  1  0
 16 34  1  0
 17 35  1  0
 17 36  1  0
 18 37  1  1
 21 38  1  0
 22 39  1  0
 22 40  1  0
 23 41  1  0
 24 42  1  0
M  END
>  <Ligand ID>  (1) 
LIG0002478

>  <Ligand>  (1) 
US9212196, Derivative 22

>  <SMILES>  (1) 
OC(=O)COc1ccc(cc1O)C(P(=O)(CC[C@H](C(=O)O)N)O)O

>  <CID>  (1) 
122197952.0

>  <ChEMBL ID>  (1) 
nan

>  <InChiKey>  (1) 
USSOEGIWLJVUKK-UOGPZTOASA-N

>  <InChi>  (1) 
InChI=1S/C13H18NO9P/c14-8(12(18)19)3-4-24(21,22)13(20)7-1-2-10(9(15)5-7)23-6-11(16)17/h1-2,5,8,13,15,20H,3-4,6,14H2,(H,16,17)(H,18,19)(H,21,22)/t8-,13?/m1/s1

>  <IUPAC Name>  (1) 
(2R)-2-amino-4-[[[4-(carboxymethoxy)-3-hydroxyphenyl]-hydroxymethyl]-hydroxyphosphoryl]butanoic acid

$$$$
