
     RDKit          3D

 43 46  0  0  0  0  0  0  0  0999 V2000
   -4.5364   -0.6513    1.3916 C   0  0  0  0  0  0  0  0  0  0  0  0
   -3.6221    0.5546    1.2972 C   0  0  2  0  0  0  0  0  0  0  0  0
   -4.4768    1.7089    0.8169 C   0  0  0  0  0  0  0  0  0  0  0  0
   -4.6565    1.3811   -0.6415 C   0  0  0  0  0  0  0  0  0  0  0  0
   -3.3807    0.6650   -1.0081 C   0  0  1  0  0  0  0  0  0  0  0  0
   -2.6680    0.4376    0.2341 N   0  0  0  0  0  0  0  0  0  0  0  0
   -1.2768    0.1559    0.2994 C   0  0  0  0  0  0  0  0  0  0  0  0
   -0.5261    0.0872   -0.8548 C   0  0  0  0  0  0  0  0  0  0  0  0
    0.8536   -0.1925   -0.7843 C   0  0  0  0  0  0  0  0  0  0  0  0
    1.4693   -0.3975    0.4247 C   0  0  0  0  0  0  0  0  0  0  0  0
    0.6682   -0.3157    1.5173 N   0  0  0  0  0  0  0  0  0  0  0  0
   -0.6212   -0.0554    1.4535 N   0  0  0  0  0  0  0  0  0  0  0  0
    2.8363   -0.7702    0.6532 C   0  0  0  0  0  0  0  0  0  0  0  0
    3.0676   -1.6746    1.7082 C   0  0  0  0  0  0  0  0  0  0  0  0
    4.2925   -2.0881    2.0354 N   0  0  0  0  0  0  0  0  0  0  0  0
    5.3823   -1.6780    1.3923 C   0  0  0  0  0  0  0  0  0  0  0  0
    5.2088   -0.7835    0.3460 C   0  0  0  0  0  0  0  0  0  0  0  0
    3.9478   -0.3442   -0.0056 C   0  0  0  0  0  0  0  0  0  0  0  0
    3.8520    0.5669   -1.0144 C   0  0  0  0  0  0  0  0  0  0  0  0
    4.9995    0.9992   -1.6352 C   0  0  0  0  0  0  0  0  0  0  0  0
    6.2633    0.5740   -1.3069 C   0  0  0  0  0  0  0  0  0  0  0  0
    6.3606   -0.3495   -0.2784 C   0  0  0  0  0  0  0  0  0  0  0  0
   -3.6417   -0.6216   -1.7509 C   0  0  0  0  0  0  0  0  0  0  0  0
   -5.1266   -0.5216    2.3160 H   0  0  0  0  0  0  0  0  0  0  0  0
   -5.2721   -0.6883    0.5684 H   0  0  0  0  0  0  0  0  0  0  0  0
   -4.0121   -1.6078    1.4438 H   0  0  0  0  0  0  0  0  0  0  0  0
   -3.1698    0.7193    2.2847 H   0  0  0  0  0  0  0  0  0  0  0  0
   -3.8451    2.6132    0.9009 H   0  0  0  0  0  0  0  0  0  0  0  0
   -5.4305    1.7716    1.3682 H   0  0  0  0  0  0  0  0  0  0  0  0
   -5.5658    0.8093   -0.8675 H   0  0  0  0  0  0  0  0  0  0  0  0
   -4.7504    2.3707   -1.1752 H   0  0  0  0  0  0  0  0  0  0  0  0
   -2.7952    1.3446   -1.6608 H   0  0  0  0  0  0  0  0  0  0  0  0
   -1.0137    0.2501   -1.7938 H   0  0  0  0  0  0  0  0  0  0  0  0
    1.3276   -0.2701   -1.7389 H   0  0  0  0  0  0  0  0  0  0  0  0
    2.2394   -2.0645    2.2916 H   0  0  0  0  0  0  0  0  0  0  0  0
    6.3811   -2.0236    1.6665 H   0  0  0  0  0  0  0  0  0  0  0  0
    2.9300    0.9931   -1.3220 H   0  0  0  0  0  0  0  0  0  0  0  0
    4.9250    1.7231   -2.4393 H   0  0  0  0  0  0  0  0  0  0  0  0
    7.1416    0.9293   -1.8117 H   0  0  0  0  0  0  0  0  0  0  0  0
    7.3235   -0.7092    0.0134 H   0  0  0  0  0  0  0  0  0  0  0  0
   -4.7169   -0.6914   -2.0259 H   0  0  0  0  0  0  0  0  0  0  0  0
   -3.3126   -1.5113   -1.1618 H   0  0  0  0  0  0  0  0  0  0  0  0
   -3.0524   -0.6451   -2.6888 H   0  0  0  0  0  0  0  0  0  0  0  0
  1  2  1  0
  2  3  1  0
  3  4  1  0
  4  5  1  0
  5  6  1  0
  6  7  1  0
  7  8  2  0
  8  9  1  0
  9 10  2  0
 10 11  1  0
 11 12  2  0
 10 13  1  0
 13 14  2  0
 14 15  1  0
 15 16  2  0
 16 17  1  0
 17 18  2  0
 18 19  1  0
 19 20  2  0
 20 21  1  0
 21 22  2  0
  5 23  1  0
  6  2  1  0
 12  7  1  0
 18 13  1  0
 22 17  1  0
  1 24  1  0
  1 25  1  0
  1 26  1  0
  2 27  1  1
  3 28  1  0
  3 29  1  0
  4 30  1  0
  4 31  1  0
  5 32  1  6
  8 33  1  0
  9 34  1  0
 14 35  1  0
 16 36  1  0
 19 37  1  0
 20 38  1  0
 21 39  1  0
 22 40  1  0
 23 41  1  0
 23 42  1  0
 23 43  1  0
M  END
>  <Ligand ID>  (1) 
LIG0005239

>  <Ligand>  (1) 
CHEMBL611620

>  <SMILES>  (1) 
C[C@@H]1CC[C@@H](N1c1ccc(nn1)c1cncc2c1cccc2)C

>  <CID>  (1) 
15953828.0

>  <ChEMBL ID>  (1) 
nan

>  <InChiKey>  (1) 
LAVIXOKYHRWFDZ-OKILXGFUSA-N

>  <InChi>  (1) 
InChI=1S/C19H20N4/c1-13-7-8-14(2)23(13)19-10-9-18(21-22-19)17-12-20-11-15-5-3-4-6-16(15)17/h3-6,9-14H,7-8H2,1-2H3/t13-,14+

>  <IUPAC Name>  (1) 
4-[6-[(2S,5R)-2,5-dimethylpyrrolidin-1-yl]pyridazin-3-yl]isoquinoline

$$$$
