
     RDKit          3D

 45 46  0  0  0  0  0  0  0  0999 V2000
   -0.1875   -0.5642    1.7371 O   0  0  0  0  0  0  0  0  0  0  0  0
   -0.4510   -0.9237    0.5413 C   0  0  0  0  0  0  0  0  0  0  0  0
   -1.7684   -1.4581    0.1960 C   0  0  1  0  0  0  0  0  0  0  0  0
   -2.5749   -1.4684    1.3980 N   0  0  0  0  0  0  0  0  0  0  0  0
   -3.3787   -0.2455    1.2784 C   0  0  0  0  0  0  0  0  0  0  0  0
   -3.8184   -0.3447   -0.1557 C   0  0  2  0  0  0  0  0  0  0  0  0
   -2.5061   -0.6640   -0.8416 C   0  0  0  0  0  0  0  0  0  0  0  0
   -4.4226    0.8528   -0.6804 N   0  0  0  0  0  0  0  0  0  0  0  0
   -5.6320    1.1974   -0.5174 C   0  0  0  0  0  0  0  0  0  0  0  0
   -6.1748    2.3957   -1.0614 N   0  0  0  0  0  0  0  0  0  0  0  0
   -6.5328    0.3769    0.2413 N   0  0  0  0  0  0  0  0  0  0  0  0
    0.5451   -0.8047   -0.4680 N   0  0  0  0  0  0  0  0  0  0  0  0
    1.8701   -0.2821   -0.1869 C   0  0  2  0  0  0  0  0  0  0  0  0
    2.0872    0.9996   -0.8764 C   0  0  0  0  0  0  0  0  0  0  0  0
    3.0999    1.7253   -0.7820 O   0  0  0  0  0  0  0  0  0  0  0  0
    1.0492    1.4776   -1.7430 N   0  0  0  0  0  0  0  0  0  0  0  0
    2.9649   -1.2317   -0.4001 C   0  0  0  0  0  0  0  0  0  0  0  0
    4.2697   -0.6190   -0.0910 C   0  0  0  0  0  0  0  0  0  0  0  0
    5.0995   -0.0293   -1.0208 C   0  0  0  0  0  0  0  0  0  0  0  0
    6.2987    0.5176   -0.6250 C   0  0  0  0  0  0  0  0  0  0  0  0
    6.7297    0.5085    0.6875 C   0  0  0  0  0  0  0  0  0  0  0  0
    5.8975   -0.0850    1.6309 C   0  0  0  0  0  0  0  0  0  0  0  0
    4.6973   -0.6299    1.2216 C   0  0  0  0  0  0  0  0  0  0  0  0
   -1.7465   -2.5085   -0.1691 H   0  0  0  0  0  0  0  0  0  0  0  0
   -2.0048   -1.4535    2.2679 H   0  0  0  0  0  0  0  0  0  0  0  0
   -4.2263   -0.2587    1.9901 H   0  0  0  0  0  0  0  0  0  0  0  0
   -2.6681    0.5981    1.4358 H   0  0  0  0  0  0  0  0  0  0  0  0
   -4.4938   -1.2266   -0.2344 H   0  0  0  0  0  0  0  0  0  0  0  0
   -2.7078   -1.2174   -1.7799 H   0  0  0  0  0  0  0  0  0  0  0  0
   -1.9664    0.2874   -1.0324 H   0  0  0  0  0  0  0  0  0  0  0  0
   -6.6340    2.4224   -2.0156 H   0  0  0  0  0  0  0  0  0  0  0  0
   -6.1481    3.3143   -0.5455 H   0  0  0  0  0  0  0  0  0  0  0  0
   -6.8671   -0.5441   -0.0575 H   0  0  0  0  0  0  0  0  0  0  0  0
   -6.8562    0.7695    1.1610 H   0  0  0  0  0  0  0  0  0  0  0  0
    0.3624   -1.0925   -1.4684 H   0  0  0  0  0  0  0  0  0  0  0  0
    1.8561   -0.0388    0.9116 H   0  0  0  0  0  0  0  0  0  0  0  0
    0.6976    2.4533   -1.6772 H   0  0  0  0  0  0  0  0  0  0  0  0
    0.6664    0.7961   -2.4416 H   0  0  0  0  0  0  0  0  0  0  0  0
    2.8157   -2.1021    0.3099 H   0  0  0  0  0  0  0  0  0  0  0  0
    3.0671   -1.6121   -1.4412 H   0  0  0  0  0  0  0  0  0  0  0  0
    4.7803   -0.0122   -2.0677 H   0  0  0  0  0  0  0  0  0  0  0  0
    6.9405    0.9772   -1.3638 H   0  0  0  0  0  0  0  0  0  0  0  0
    7.6555    0.9280    1.0079 H   0  0  0  0  0  0  0  0  0  0  0  0
    6.2222   -0.1010    2.6721 H   0  0  0  0  0  0  0  0  0  0  0  0
    4.0934   -1.0800    2.0165 H   0  0  0  0  0  0  0  0  0  0  0  0
  1  2  2  0
  2  3  1  0
  3  4  1  0
  4  5  1  0
  5  6  1  0
  6  7  1  0
  6  8  1  0
  8  9  2  3
  9 10  1  0
  9 11  1  0
  2 12  1  0
 12 13  1  0
 13 14  1  0
 14 15  2  0
 14 16  1  0
 13 17  1  0
 17 18  1  0
 18 19  2  0
 19 20  1  0
 20 21  2  0
 21 22  1  0
 22 23  2  0
  7  3  1  0
 23 18  1  0
  3 24  1  6
  4 25  1  0
  5 26  1  0
  5 27  1  0
  6 28  1  1
  7 29  1  0
  7 30  1  0
 10 31  1  0
 10 32  1  0
 11 33  1  0
 11 34  1  0
 12 35  1  0
 13 36  1  1
 16 37  1  0
 16 38  1  0
 17 39  1  0
 17 40  1  0
 19 41  1  0
 20 42  1  0
 21 43  1  0
 22 44  1  0
 23 45  1  0
M  END
>  <Ligand ID>  (1) 
LIG0002405

>  <Ligand>  (1) 
CHEMBL3343987

>  <SMILES>  (1) 
O=C([C@H]1NC[C@H](C1)N=C(N)N)N[C@H](C(=O)N)Cc1ccccc1

>  <CID>  (1) 
118717463.0

>  <ChEMBL ID>  (1) 
nan

>  <InChiKey>  (1) 
YYVXAXFBIPVEPU-SRVKXCTJSA-N

>  <InChi>  (1) 
InChI=1S/C15H22N6O2/c16-13(22)11(6-9-4-2-1-3-5-9)21-14(23)12-7-10(8-19-12)20-15(17)18/h1-5,10-12,19H,6-8H2,(H2,16,22)(H,21,23)(H4,17,18,20)/t10-,11-,12-/m0/s1

>  <IUPAC Name>  (1) 
(2S,4S)-N-[(2S)-1-amino-1-oxo-3-phenylpropan-2-yl]-4-(diaminomethylideneamino)pyrrolidine-2-carboxamide

$$$$
