
     RDKit          3D

 52 54  0  0  0  0  0  0  0  0999 V2000
    6.2978    2.6419   -1.0487 N   0  0  0  0  0  0  0  0  0  0  0  0
    5.9545    1.3541   -0.5080 C   0  0  0  0  0  0  0  0  0  0  0  0
    6.8906    0.7109    0.0134 O   0  0  0  0  0  0  0  0  0  0  0  0
    4.5571    0.9324   -0.6228 C   0  0  0  0  0  0  0  0  0  0  0  0
    4.2180   -0.4143   -0.1007 C   0  0  0  0  0  0  0  0  0  0  0  0
    2.7765   -0.6689   -0.2829 N   0  0  0  0  0  0  0  0  0  0  0  0
    1.7768    0.1230    0.3280 C   0  0  0  0  0  0  0  0  0  0  0  0
    2.0010    1.1049    1.0768 O   0  0  0  0  0  0  0  0  0  0  0  0
    0.3713   -0.2388    0.0598 C   0  0  0  0  0  0  0  0  0  0  0  0
    0.0428   -1.2747   -0.7280 N   0  0  0  0  0  0  0  0  0  0  0  0
   -1.2270   -1.6226   -0.9859 C   0  0  0  0  0  0  0  0  0  0  0  0
   -2.2988   -0.9368   -0.4571 C   0  0  0  0  0  0  0  0  0  0  0  0
   -2.0107    0.1642    0.3802 C   0  0  0  0  0  0  0  0  0  0  0  0
   -0.6569    0.4807    0.6140 C   0  0  0  0  0  0  0  0  0  0  0  0
   -2.9454    0.8608    0.9155 O   0  0  0  0  0  0  0  0  0  0  0  0
   -3.9466    1.5205    1.4226 C   0  0  2  0  0  0  0  0  0  0  0  0
   -4.0071    2.9777    0.9021 C   0  0  0  0  0  0  0  0  0  0  0  0
   -4.1487    2.9646   -0.4716 F   0  0  0  0  0  0  0  0  0  0  0  0
   -2.8240    3.6402    1.1954 F   0  0  0  0  0  0  0  0  0  0  0  0
   -5.0706    3.6467    1.4603 F   0  0  0  0  0  0  0  0  0  0  0  0
   -4.0455    1.5595    2.9494 C   0  0  0  0  0  0  0  0  0  0  0  0
   -3.7022   -1.2459   -0.6661 C   0  0  0  0  0  0  0  0  0  0  0  0
   -4.3807   -1.4701    0.5250 F   0  0  0  0  0  0  0  0  0  0  0  0
   -3.9359   -2.4187   -1.5776 C   0  0  0  0  0  0  0  0  0  0  0  0
   -5.1292   -1.6922   -2.2077 C   0  0  0  0  0  0  0  0  0  0  0  0
   -4.4792   -0.4062   -1.6575 C   0  0  0  0  0  0  0  0  0  0  0  0
    4.5597   -0.6567    1.3524 C   0  0  0  0  0  0  0  0  0  0  0  0
    4.6018   -2.3859    1.0152 S   0  0  0  0  0  0  0  0  0  0  0  0
    5.6987   -3.1110    1.7065 O   0  0  0  0  0  0  0  0  0  0  0  0
    3.2849   -3.0744    0.9635 O   0  0  0  0  0  0  0  0  0  0  0  0
    5.0617   -1.5842   -0.5125 C   0  0  0  0  0  0  0  0  0  0  0  0
    6.6338    3.4205   -0.4419 H   0  0  0  0  0  0  0  0  0  0  0  0
    6.2084    2.8065   -2.0859 H   0  0  0  0  0  0  0  0  0  0  0  0
    3.8658    1.6757   -0.1265 H   0  0  0  0  0  0  0  0  0  0  0  0
    4.2576    1.0265   -1.7118 H   0  0  0  0  0  0  0  0  0  0  0  0
    2.5049   -1.4716   -0.8918 H   0  0  0  0  0  0  0  0  0  0  0  0
   -1.3701   -2.4757   -1.6297 H   0  0  0  0  0  0  0  0  0  0  0  0
   -0.3929    1.3261    1.2568 H   0  0  0  0  0  0  0  0  0  0  0  0
   -4.9408    1.0887    1.0679 H   0  0  0  0  0  0  0  0  0  0  0  0
   -4.3273    0.5589    3.2735 H   0  0  0  0  0  0  0  0  0  0  0  0
   -3.1021    1.9558    3.3534 H   0  0  0  0  0  0  0  0  0  0  0  0
   -4.8626    2.2685    3.1646 H   0  0  0  0  0  0  0  0  0  0  0  0
   -3.1870   -2.6402   -2.3315 H   0  0  0  0  0  0  0  0  0  0  0  0
   -4.2765   -3.3568   -1.0896 H   0  0  0  0  0  0  0  0  0  0  0  0
   -6.0839   -1.9561   -1.7285 H   0  0  0  0  0  0  0  0  0  0  0  0
   -5.1264   -1.7794   -3.2983 H   0  0  0  0  0  0  0  0  0  0  0  0
   -5.2475    0.1851   -1.1341 H   0  0  0  0  0  0  0  0  0  0  0  0
   -3.8929    0.0632   -2.4447 H   0  0  0  0  0  0  0  0  0  0  0  0
    3.7012   -0.4322    2.0395 H   0  0  0  0  0  0  0  0  0  0  0  0
    5.5293   -0.2644    1.6875 H   0  0  0  0  0  0  0  0  0  0  0  0
    6.1129   -1.3494   -0.5689 H   0  0  0  0  0  0  0  0  0  0  0  0
    4.7113   -2.1307   -1.4129 H   0  0  0  0  0  0  0  0  0  0  0  0
  1  2  1  0
  2  3  2  0
  2  4  1  0
  4  5  1  0
  5  6  1  0
  6  7  1  0
  7  8  2  0
  7  9  1  0
  9 10  2  0
 10 11  1  0
 11 12  2  0
 12 13  1  0
 13 14  2  0
 13 15  1  0
 15 16  1  0
 16 17  1  0
 17 18  1  0
 17 19  1  0
 17 20  1  0
 16 21  1  0
 12 22  1  0
 22 23  1  0
 22 24  1  0
 24 25  1  0
 25 26  1  0
  5 27  1  0
 27 28  1  0
 28 29  2  0
 28 30  2  0
 28 31  1  0
 31  5  1  0
 14  9  1  0
 26 22  1  0
  1 32  1  0
  1 33  1  0
  4 34  1  0
  4 35  1  0
  6 36  1  0
 11 37  1  0
 14 38  1  0
 16 39  1  6
 21 40  1  0
 21 41  1  0
 21 42  1  0
 24 43  1  0
 24 44  1  0
 25 45  1  0
 25 46  1  0
 26 47  1  0
 26 48  1  0
 27 49  1  0
 27 50  1  0
 31 51  1  0
 31 52  1  0
M  END
>  <Ligand ID>  (1) 
LIG0005173

>  <Ligand>  (1) 
CHEMBL3904362

>  <SMILES>  (1) 
NC(=O)CC1(NC(=O)c2ncc(c(c2)O[C@H](C(F)(F)F)C)C2(F)CCC2)CS(=O)(=O)C1

>  <CID>  (1) 
90214954.0

>  <ChEMBL ID>  (1) 
nan

>  <InChiKey>  (1) 
YIUDDACEMXESNZ-JTQLQIEISA-N

>  <InChi>  (1) 
InChI=1S/C18H21F4N3O5S/c1-10(18(20,21)22)30-13-5-12(24-7-11(13)17(19)3-2-4-17)15(27)25-16(6-14(23)26)8-31(28,29)9-16/h5,7,10H,2-4,6,8-9H2,1H3,(H2,23,26)(H,25,27)/t10-/m0/s1

>  <IUPAC Name>  (1) 
N-[3-(2-amino-2-oxoethyl)-1,1-dioxothietan-3-yl]-5-(1-fluorocyclobutyl)-4-[(2S)-1,1,1-trifluoropropan-2-yl]oxypyridine-2-carboxamide

$$$$
