
     RDKit          3D

 27 26  0  0  0  0  0  0  0  0999 V2000
   -4.8522   -0.0505    0.5142 C   0  0  0  0  0  0  0  0  0  0  0  0
   -3.4639   -0.1777    1.1062 C   0  0  0  0  0  0  0  0  0  0  0  0
   -2.4765   -0.2348   -0.0196 C   0  0  0  0  0  0  0  0  0  0  0  0
   -1.0504   -0.3622    0.4360 C   0  0  0  0  0  0  0  0  0  0  0  0
   -0.1697   -0.4080   -0.8140 C   0  0  0  0  0  0  0  0  0  0  0  0
    1.2547   -0.5346   -0.3983 C   0  0  0  0  0  0  0  0  0  0  0  0
    2.1813    0.3566   -0.7063 C   0  0  0  0  0  0  0  0  0  0  0  0
    3.5506    0.1769   -0.2723 C   0  0  0  0  0  0  0  0  0  0  0  0
    4.5285    1.0402   -0.5514 C   0  0  0  0  0  0  0  0  0  0  0  0
    5.8850    0.8047   -0.0873 C   0  0  0  0  0  0  0  0  0  0  0  0
    6.8469    1.5819   -0.3191 O   0  0  0  0  0  0  0  0  0  0  0  0
   -4.8329   -0.5170   -0.4922 H   0  0  0  0  0  0  0  0  0  0  0  0
   -5.6091   -0.5639    1.1561 H   0  0  0  0  0  0  0  0  0  0  0  0
   -5.1300    1.0369    0.3898 H   0  0  0  0  0  0  0  0  0  0  0  0
   -3.2322    0.6660    1.7918 H   0  0  0  0  0  0  0  0  0  0  0  0
   -3.4591   -1.1312    1.6964 H   0  0  0  0  0  0  0  0  0  0  0  0
   -2.5538    0.7314   -0.5695 H   0  0  0  0  0  0  0  0  0  0  0  0
   -2.7464   -1.1004   -0.6705 H   0  0  0  0  0  0  0  0  0  0  0  0
   -0.8646   -1.2524    1.0678 H   0  0  0  0  0  0  0  0  0  0  0  0
   -0.7643    0.5512    1.0039 H   0  0  0  0  0  0  0  0  0  0  0  0
   -0.2443    0.5554   -1.3580 H   0  0  0  0  0  0  0  0  0  0  0  0
   -0.4579   -1.2430   -1.4719 H   0  0  0  0  0  0  0  0  0  0  0  0
    1.5255   -1.4182    0.1913 H   0  0  0  0  0  0  0  0  0  0  0  0
    1.9015    1.2293   -1.2916 H   0  0  0  0  0  0  0  0  0  0  0  0
    3.8285   -0.6877    0.3077 H   0  0  0  0  0  0  0  0  0  0  0  0
    4.3049    1.9240   -1.1298 H   0  0  0  0  0  0  0  0  0  0  0  0
    6.1002   -0.0815    0.4906 H   0  0  0  0  0  0  0  0  0  0  0  0
  1  2  1  0
  2  3  1  0
  3  4  1  0
  4  5  1  0
  5  6  1  0
  6  7  2  0
  7  8  1  0
  8  9  2  0
  9 10  1  0
 10 11  2  0
  1 12  1  0
  1 13  1  0
  1 14  1  0
  2 15  1  0
  2 16  1  0
  3 17  1  0
  3 18  1  0
  4 19  1  0
  4 20  1  0
  5 21  1  0
  5 22  1  0
  6 23  1  0
  7 24  1  0
  8 25  1  0
  9 26  1  0
 10 27  1  0
M  END
>  <Ligand ID>  (1) 
LIG0000266

>  <Ligand>  (1) 
(2E,4E)-deca-2,4-dienal

>  <SMILES>  (1) 
CCCCC/C=C/C=C/C=O

>  <CID>  (1) 
5283349.0

>  <ChEMBL ID>  (1) 
nan

>  <InChiKey>  (1) 
JZQKTMZYLHNFPL-BLHCBFLLSA-N

>  <InChi>  (1) 
InChI=1S/C10H16O/c1-2-3-4-5-6-7-8-9-10-11/h6-10H,2-5H2,1H3/b7-6+,9-8+

>  <IUPAC Name>  (1) 
(2E,4E)-deca-2,4-dienal

$$$$
