
     RDKit          3D

 30 31  0  0  0  0  0  0  0  0999 V2000
    0.8461   -2.0350    0.5120 C   0  0  0  0  0  0  0  0  0  0  0  0
    1.5228   -0.7566    0.2826 C   0  0  0  0  0  0  0  0  0  0  0  0
    2.8870   -0.6910   -0.0236 C   0  0  0  0  0  0  0  0  0  0  0  0
    3.6239   -1.8663   -0.1250 O   0  0  0  0  0  0  0  0  0  0  0  0
    3.5486    0.4891   -0.2328 C   0  0  0  0  0  0  0  0  0  0  0  0
    2.8704    1.6845   -0.1455 C   0  0  0  0  0  0  0  0  0  0  0  0
    1.5258    1.6146    0.1565 C   0  0  0  0  0  0  0  0  0  0  0  0
    0.8514    0.4379    0.3680 C   0  0  0  0  0  0  0  0  0  0  0  0
   -0.4100    0.7491    0.6341 N   0  0  0  0  0  0  0  0  0  0  0  0
   -1.5380   -0.1104    0.9116 C   0  0  0  0  0  0  0  0  0  0  0  0
   -2.2464   -0.4053   -0.4117 C   0  0  1  0  0  0  0  0  0  0  0  0
   -3.3644   -1.2726   -0.0924 N   0  0  0  0  0  0  0  0  0  0  0  0
   -2.8897    0.8906   -0.9168 C   0  0  0  0  0  0  0  0  0  0  0  0
   -0.5513    2.0863    0.5976 N   0  0  0  0  0  0  0  0  0  0  0  0
    0.6268    2.6374    0.3056 C   0  0  0  0  0  0  0  0  0  0  0  0
    1.5992   -2.8311    0.2069 H   0  0  0  0  0  0  0  0  0  0  0  0
    0.0001   -2.2181   -0.1636 H   0  0  0  0  0  0  0  0  0  0  0  0
    0.6625   -2.2843    1.5784 H   0  0  0  0  0  0  0  0  0  0  0  0
    3.3749   -2.5590   -0.8290 H   0  0  0  0  0  0  0  0  0  0  0  0
    4.5944    0.5044   -0.4658 H   0  0  0  0  0  0  0  0  0  0  0  0
    3.3720    2.6379   -0.3070 H   0  0  0  0  0  0  0  0  0  0  0  0
   -1.3164   -1.0557    1.3918 H   0  0  0  0  0  0  0  0  0  0  0  0
   -2.3354    0.4648    1.4880 H   0  0  0  0  0  0  0  0  0  0  0  0
   -1.5807   -0.8048   -1.1690 H   0  0  0  0  0  0  0  0  0  0  0  0
   -4.1486   -0.7305    0.3248 H   0  0  0  0  0  0  0  0  0  0  0  0
   -3.0871   -2.0094    0.5645 H   0  0  0  0  0  0  0  0  0  0  0  0
   -3.1156    1.5927   -0.0852 H   0  0  0  0  0  0  0  0  0  0  0  0
   -2.2451    1.4303   -1.6264 H   0  0  0  0  0  0  0  0  0  0  0  0
   -3.8638    0.7008   -1.4189 H   0  0  0  0  0  0  0  0  0  0  0  0
    0.7866    3.7095    0.2151 H   0  0  0  0  0  0  0  0  0  0  0  0
  1  2  1  0
  2  3  2  0
  3  4  1  0
  3  5  1  0
  5  6  2  0
  6  7  1  0
  7  8  2  0
  8  9  1  0
  9 10  1  0
 10 11  1  0
 11 12  1  0
 11 13  1  0
  9 14  1  0
 14 15  2  0
  8  2  1  0
 15  7  1  0
  1 16  1  0
  1 17  1  0
  1 18  1  0
  4 19  1  0
  5 20  1  0
  6 21  1  0
 10 22  1  0
 10 23  1  0
 11 24  1  6
 12 25  1  0
 12 26  1  0
 13 27  1  0
 13 28  1  0
 13 29  1  0
 15 30  1  0
M  END
>  <Ligand ID>  (1) 
LIG0003661

>  <Ligand>  (1) 
CHEMBL200104

>  <SMILES>  (1) 
Cc1c(O)ccc2c1n(C[C@@H](N)C)nc2

>  <CID>  (1) 
135414348.0

>  <ChEMBL ID>  (1) 
nan

>  <InChiKey>  (1) 
UFWMKRXWOOOKPI-ZETCQYMHSA-N

>  <InChi>  (1) 
InChI=1S/C11H15N3O/c1-7(12)6-14-11-8(2)10(15)4-3-9(11)5-13-14/h3-5,7,15H,6,12H2,1-2H3/t7-/m0/s1

>  <IUPAC Name>  (1) 
1-[(2S)-2-aminopropyl]-7-methylindazol-6-ol

$$$$
