
     RDKit          3D

 32 35  0  0  0  0  0  0  0  0999 V2000
   -2.1058    4.0636    0.9742 F   0  0  0  0  0  0  0  0  0  0  0  0
   -1.5259    2.8525    0.8316 C   0  0  0  0  0  0  0  0  0  0  0  0
   -0.2170    2.6936    1.2076 C   0  0  0  0  0  0  0  0  0  0  0  0
    0.3636    1.4499    1.0566 C   0  0  0  0  0  0  0  0  0  0  0  0
   -0.3449    0.3621    0.5353 C   0  0  0  0  0  0  0  0  0  0  0  0
   -1.6430    0.5180    0.1614 C   0  0  0  0  0  0  0  0  0  0  0  0
   -2.2049    1.7784    0.3231 C   0  0  0  0  0  0  0  0  0  0  0  0
   -2.4604   -0.5626   -0.4083 C   0  0  0  0  0  0  0  0  0  0  0  0
   -2.1255   -1.8313   -0.6767 N   0  0  0  0  0  0  0  0  0  0  0  0
   -3.2057   -2.4373   -1.1895 C   0  0  0  0  0  0  0  0  0  0  0  0
   -4.2186   -1.5028   -1.2294 C   0  0  0  0  0  0  0  0  0  0  0  0
   -3.7164   -0.4115   -0.7535 O   0  0  0  0  0  0  0  0  0  0  0  0
    0.3506   -0.9098    0.4277 C   0  0  0  0  0  0  0  0  0  0  0  0
    0.9165   -1.0941   -0.9752 C   0  0  0  0  0  0  0  0  0  0  0  0
    2.2536   -0.4474   -0.9032 C   0  0  0  0  0  0  0  0  0  0  0  0
    2.6404   -0.3982    0.3786 N   0  0  0  0  0  0  0  0  0  0  0  0
    1.6311   -0.9850    1.2252 C   0  0  0  0  0  0  0  0  0  0  0  0
    3.8597    0.1981    0.3831 C   0  0  0  0  0  0  0  0  0  0  0  0
    4.2353    0.5226   -0.9040 C   0  0  0  0  0  0  0  0  0  0  0  0
    3.2203    0.1115   -1.6879 N   0  0  0  0  0  0  0  0  0  0  0  0
    0.3135    3.5479    1.6087 H   0  0  0  0  0  0  0  0  0  0  0  0
    1.3974    1.3686    1.3648 H   0  0  0  0  0  0  0  0  0  0  0  0
   -3.2452    1.9474    0.0359 H   0  0  0  0  0  0  0  0  0  0  0  0
   -3.2171   -3.4763   -1.4979 H   0  0  0  0  0  0  0  0  0  0  0  0
   -5.2239   -1.7246   -1.6063 H   0  0  0  0  0  0  0  0  0  0  0  0
   -0.2632   -1.7860    0.6986 H   0  0  0  0  0  0  0  0  0  0  0  0
    1.0682   -2.1619   -1.2318 H   0  0  0  0  0  0  0  0  0  0  0  0
    0.3389   -0.5581   -1.7383 H   0  0  0  0  0  0  0  0  0  0  0  0
    1.6320   -0.4747    2.1788 H   0  0  0  0  0  0  0  0  0  0  0  0
    1.8493   -2.0770    1.4197 H   0  0  0  0  0  0  0  0  0  0  0  0
    4.4971    0.4165    1.2387 H   0  0  0  0  0  0  0  0  0  0  0  0
    5.1499    1.0078   -1.2472 H   0  0  0  0  0  0  0  0  0  0  0  0
  1  2  1  0
  2  3  2  0
  3  4  1  0
  4  5  2  0
  5  6  1  0
  6  7  2  0
  6  8  1  0
  8  9  2  0
  9 10  1  0
 10 11  2  0
 11 12  1  0
  5 13  1  0
 13 14  1  0
 14 15  1  0
 15 16  1  0
 16 17  1  0
 16 18  1  0
 18 19  2  0
 19 20  1  0
  7  2  1  0
 12  8  1  0
 17 13  1  0
 20 15  2  0
  3 21  1  0
  4 22  1  0
  7 23  1  0
 10 24  1  0
 11 25  1  0
 13 26  1  0
 14 27  1  0
 14 28  1  0
 17 29  1  0
 17 30  1  0
 18 31  1  0
 19 32  1  0
M  END
>  <Ligand ID>  (1) 
LIG0002865

>  <Ligand>  (1) 
CHEMBL501404

>  <SMILES>  (1) 
Fc1ccc(c(c1)c1ncco1)C1Cc2n(C1)ccn2

>  <CID>  (1) 
44574133.0

>  <ChEMBL ID>  (1) 
nan

>  <InChiKey>  (1) 
BFDKAMOCQFIESP-UHFFFAOYSA-N

>  <InChi>  (1) 
InChI=1S/C15H12FN3O/c16-11-1-2-12(13(8-11)15-18-4-6-20-15)10-7-14-17-3-5-19(14)9-10/h1-6,8,10H,7,9H2

>  <IUPAC Name>  (1) 
2-[2-(6,7-dihydro-5H-pyrrolo[1,2-a]imidazol-6-yl)-5-fluorophenyl]-1,3-oxazole

$$$$
