
     RDKit          3D

 46 50  0  0  0  0  0  0  0  0999 V2000
    0.3798    0.2142   -1.9638 O   0  0  0  0  0  0  0  0  0  0  0  0
    0.7860    0.3648   -0.7624 C   0  0  0  0  0  0  0  0  0  0  0  0
    2.1626    0.6495   -0.4760 N   0  0  0  0  0  0  0  0  0  0  0  0
    2.7581    0.8434    0.8347 C   0  0  0  0  0  0  0  0  0  0  0  0
    4.1592    0.4059    0.6050 C   0  0  0  0  0  0  0  0  0  0  0  0
    4.4162    0.3717   -0.7550 C   0  0  0  0  0  0  0  0  0  0  0  0
    3.1844    0.7886   -1.4751 C   0  0  0  0  0  0  0  0  0  0  0  0
    5.6406   -0.0001   -1.2600 C   0  0  0  0  0  0  0  0  0  0  0  0
    6.6558   -0.3539   -0.3762 C   0  0  0  0  0  0  0  0  0  0  0  0
    6.4276   -0.3292    0.9958 C   0  0  0  0  0  0  0  0  0  0  0  0
    5.1855    0.0494    1.4638 C   0  0  0  0  0  0  0  0  0  0  0  0
   -0.1615    0.2452    0.3193 N   0  0  0  0  0  0  0  0  0  0  0  0
   -1.5441   -0.0381    0.0765 C   0  0  0  0  0  0  0  0  0  0  0  0
   -1.7936   -1.3362   -0.6318 C   0  0  0  0  0  0  0  0  0  0  0  0
   -3.2930   -1.5238   -0.7198 C   0  0  0  0  0  0  0  0  0  0  0  0
   -3.9684   -1.5896    0.6174 C   0  0  0  0  0  0  0  0  0  0  0  0
   -3.7005   -0.3081    1.3484 C   0  0  0  0  0  0  0  0  0  0  0  0
   -2.2245   -0.1077    1.4392 C   0  0  0  0  0  0  0  0  0  0  0  0
   -4.2915    0.8416    0.5827 C   0  0  0  0  0  0  0  0  0  0  0  0
   -3.6650    0.9010   -0.7751 C   0  0  0  0  0  0  0  0  0  0  0  0
   -2.1599    1.0917   -0.6981 C   0  0  0  0  0  0  0  0  0  0  0  0
   -3.8881   -0.3970   -1.5126 C   0  0  0  0  0  0  0  0  0  0  0  0
    2.7586    1.9198    1.0800 H   0  0  0  0  0  0  0  0  0  0  0  0
    2.2604    0.2640    1.6344 H   0  0  0  0  0  0  0  0  0  0  0  0
    3.2602    1.8269   -1.8559 H   0  0  0  0  0  0  0  0  0  0  0  0
    2.9709    0.0592   -2.2878 H   0  0  0  0  0  0  0  0  0  0  0  0
    5.8524   -0.0298   -2.3367 H   0  0  0  0  0  0  0  0  0  0  0  0
    7.6377   -0.6524   -0.7706 H   0  0  0  0  0  0  0  0  0  0  0  0
    7.2115   -0.6033    1.7010 H   0  0  0  0  0  0  0  0  0  0  0  0
    5.0336    0.0599    2.5451 H   0  0  0  0  0  0  0  0  0  0  0  0
    0.2533    0.3837    1.2893 H   0  0  0  0  0  0  0  0  0  0  0  0
   -1.3060   -2.1642   -0.1206 H   0  0  0  0  0  0  0  0  0  0  0  0
   -1.4851   -1.2322   -1.7063 H   0  0  0  0  0  0  0  0  0  0  0  0
   -3.5049   -2.5001   -1.2271 H   0  0  0  0  0  0  0  0  0  0  0  0
   -3.6511   -2.4875    1.1504 H   0  0  0  0  0  0  0  0  0  0  0  0
   -5.0483   -1.6427    0.4298 H   0  0  0  0  0  0  0  0  0  0  0  0
   -4.0903   -0.3921    2.3615 H   0  0  0  0  0  0  0  0  0  0  0  0
   -1.7604   -0.8886    2.0677 H   0  0  0  0  0  0  0  0  0  0  0  0
   -1.9549    0.8606    1.9405 H   0  0  0  0  0  0  0  0  0  0  0  0
   -5.3723    0.7492    0.4823 H   0  0  0  0  0  0  0  0  0  0  0  0
   -4.0799    1.7703    1.1465 H   0  0  0  0  0  0  0  0  0  0  0  0
   -4.0999    1.7641   -1.2993 H   0  0  0  0  0  0  0  0  0  0  0  0
   -1.8061    1.0136   -1.7582 H   0  0  0  0  0  0  0  0  0  0  0  0
   -1.8703    2.0484   -0.2437 H   0  0  0  0  0  0  0  0  0  0  0  0
   -4.9487   -0.5702   -1.7652 H   0  0  0  0  0  0  0  0  0  0  0  0
   -3.3263   -0.3395   -2.4716 H   0  0  0  0  0  0  0  0  0  0  0  0
  1  2  2  0
  2  3  1  0
  3  4  1  0
  4  5  1  0
  5  6  2  0
  6  7  1  0
  6  8  1  0
  8  9  2  0
  9 10  1  0
 10 11  2  0
  2 12  1  0
 12 13  1  0
 13 14  1  0
 14 15  1  0
 15 16  1  0
 16 17  1  0
 17 18  1  0
 17 19  1  0
 19 20  1  0
 20 21  1  0
 20 22  1  0
  7  3  1  0
 21 13  1  0
 11  5  1  0
 18 13  1  0
 22 15  1  0
  4 23  1  0
  4 24  1  0
  7 25  1  0
  7 26  1  0
  8 27  1  0
  9 28  1  0
 10 29  1  0
 11 30  1  0
 12 31  1  0
 14 32  1  0
 14 33  1  0
 15 34  1  0
 16 35  1  0
 16 36  1  0
 17 37  1  0
 18 38  1  0
 18 39  1  0
 19 40  1  0
 19 41  1  0
 20 42  1  0
 21 43  1  0
 21 44  1  0
 22 45  1  0
 22 46  1  0
M  END
>  <Ligand ID>  (1) 
LIG0001313

>  <Ligand>  (1) 
CHEMBL2338186

>  <SMILES>  (1) 
O=C(N1Cc2c(C1)cccc2)NC12CC3CC(C2)CC(C1)C3

>  <CID>  (1) 
71559639.0

>  <ChEMBL ID>  (1) 
nan

>  <InChiKey>  (1) 
VFPXTPUNANYVKT-UHFFFAOYSA-N

>  <InChi>  (1) 
InChI=1S/C19H24N2O/c22-18(21-11-16-3-1-2-4-17(16)12-21)20-19-8-13-5-14(9-19)7-15(6-13)10-19/h1-4,13-15H,5-12H2,(H,20,22)

>  <IUPAC Name>  (1) 
N-(1-adamantyl)-1,3-dihydroisoindole-2-carboxamide

$$$$
