
     RDKit          3D

 38 39  0  0  0  0  0  0  0  0999 V2000
   -4.1252    0.2489   -1.1648 C   0  0  0  0  0  0  0  0  0  0  0  0
   -3.4115    1.0179   -0.0944 C   0  0  0  0  0  0  0  0  0  0  0  0
   -1.6508    0.6785   -0.0597 S   0  0  0  0  0  0  0  0  0  0  0  0
   -1.0025    1.2642   -1.2435 O   0  0  0  0  0  0  0  0  0  0  0  0
   -1.1286    1.4198    1.1646 O   0  0  0  0  0  0  0  0  0  0  0  0
   -1.3364   -0.9929    0.2305 C   0  0  0  0  0  0  0  0  0  0  0  0
   -2.3178   -1.9451    0.4124 C   0  0  0  0  0  0  0  0  0  0  0  0
   -2.0478   -3.2759    0.6432 C   0  0  0  0  0  0  0  0  0  0  0  0
   -0.7301   -3.6816    0.6959 C   0  0  0  0  0  0  0  0  0  0  0  0
    0.2790   -2.7702    0.5208 C   0  0  0  0  0  0  0  0  0  0  0  0
   -0.0213   -1.4307    0.2889 C   0  0  0  0  0  0  0  0  0  0  0  0
    1.0814   -0.5315    0.1147 N   0  0  0  0  0  0  0  0  0  0  0  0
    2.4657   -0.9944    0.1765 C   0  0  0  0  0  0  0  0  0  0  0  0
    3.4323    0.1215   -0.0335 C   0  0  0  0  0  0  0  0  0  0  0  0
    4.3274    0.2520   -0.9554 N   0  0  0  0  0  0  0  0  0  0  0  0
    5.0574    1.4688   -0.8125 C   0  0  0  0  0  0  0  0  0  0  0  0
    4.6824    2.0294    0.5200 C   0  0  0  0  0  0  0  0  0  0  0  0
    3.4887    1.2721    0.8290 N   0  0  0  0  0  0  0  0  0  0  0  0
   -3.6545    2.5032   -0.2410 C   0  0  0  0  0  0  0  0  0  0  0  0
   -4.9959   -0.3262   -0.7810 H   0  0  0  0  0  0  0  0  0  0  0  0
   -4.5458    0.9203   -1.9599 H   0  0  0  0  0  0  0  0  0  0  0  0
   -3.4079   -0.4179   -1.6892 H   0  0  0  0  0  0  0  0  0  0  0  0
   -3.8788    0.7410    0.8851 H   0  0  0  0  0  0  0  0  0  0  0  0
   -3.3550   -1.6442    0.3742 H   0  0  0  0  0  0  0  0  0  0  0  0
   -2.8596   -3.9890    0.7806 H   0  0  0  0  0  0  0  0  0  0  0  0
   -0.5319   -4.7381    0.8794 H   0  0  0  0  0  0  0  0  0  0  0  0
    1.3000   -3.0818    0.5612 H   0  0  0  0  0  0  0  0  0  0  0  0
    0.8845    0.4829   -0.0613 H   0  0  0  0  0  0  0  0  0  0  0  0
    2.6172   -1.7056   -0.6623 H   0  0  0  0  0  0  0  0  0  0  0  0
    2.7194   -1.4318    1.1573 H   0  0  0  0  0  0  0  0  0  0  0  0
    4.8929    2.1815   -1.6460 H   0  0  0  0  0  0  0  0  0  0  0  0
    6.1509    1.2027   -0.8903 H   0  0  0  0  0  0  0  0  0  0  0  0
    5.4973    1.8388    1.2468 H   0  0  0  0  0  0  0  0  0  0  0  0
    4.4993    3.1138    0.3964 H   0  0  0  0  0  0  0  0  0  0  0  0
    2.7950    1.5461    1.5704 H   0  0  0  0  0  0  0  0  0  0  0  0
   -2.8470    3.0580    0.2774 H   0  0  0  0  0  0  0  0  0  0  0  0
   -4.6353    2.7925    0.1879 H   0  0  0  0  0  0  0  0  0  0  0  0
   -3.6869    2.8031   -1.3095 H   0  0  0  0  0  0  0  0  0  0  0  0
  1  2  1  0
  2  3  1  0
  3  4  2  0
  3  5  2  0
  3  6  1  0
  6  7  2  0
  7  8  1  0
  8  9  2  0
  9 10  1  0
 10 11  2  0
 11 12  1  0
 12 13  1  0
 13 14  1  0
 14 15  2  0
 15 16  1  0
 16 17  1  0
 17 18  1  0
  2 19  1  0
 11  6  1  0
 18 14  1  0
  1 20  1  0
  1 21  1  0
  1 22  1  0
  2 23  1  0
  7 24  1  0
  8 25  1  0
  9 26  1  0
 10 27  1  0
 12 28  1  0
 13 29  1  0
 13 30  1  0
 16 31  1  0
 16 32  1  0
 17 33  1  0
 17 34  1  0
 18 35  1  0
 19 36  1  0
 19 37  1  0
 19 38  1  0
M  END
>  <Ligand ID>  (1) 
LIG0000913

>  <Ligand>  (1) 
CHEMBL74071

>  <SMILES>  (1) 
CC(S(=O)(=O)c1ccccc1NCC1=NCCN1)C

>  <CID>  (1) 
11811395.0

>  <ChEMBL ID>  (1) 
nan

>  <InChiKey>  (1) 
XDUYFOWMTMCCEI-UHFFFAOYSA-N

>  <InChi>  (1) 
InChI=1S/C13H19N3O2S/c1-10(2)19(17,18)12-6-4-3-5-11(12)16-9-13-14-7-8-15-13/h3-6,10,16H,7-9H2,1-2H3,(H,14,15)

>  <IUPAC Name>  (1) 
N-(4,5-dihydro-1H-imidazol-2-ylmethyl)-2-propan-2-ylsulfonylaniline

$$$$
