
     RDKit          3D

 29 28  0  0  0  0  0  0  0  0999 V2000
    4.2070   -1.4694   -0.5686 O   0  0  0  0  0  0  0  0  0  0  0  0
    3.5791   -0.7101    0.4358 C   0  0  0  0  0  0  0  0  0  0  0  0
    3.0311    0.5686   -0.0706 C   0  0  0  0  0  0  0  0  0  0  0  0
    1.7646    0.9213   -0.0238 C   0  0  0  0  0  0  0  0  0  0  0  0
    0.6657    0.1194    0.5349 C   0  0  0  0  0  0  0  0  0  0  0  0
   -0.3683   -0.1616   -0.5426 C   0  0  0  0  0  0  0  0  0  0  0  0
   -1.4572   -0.9710    0.0607 C   0  0  0  0  0  0  0  0  0  0  0  0
   -2.7217   -0.5917    0.1167 C   0  0  0  0  0  0  0  0  0  0  0  0
   -3.7395   -1.4995    0.7545 C   0  0  0  0  0  0  0  0  0  0  0  0
   -3.1243    0.7145   -0.4447 C   0  0  0  0  0  0  0  0  0  0  0  0
    1.4050    2.2682   -0.5936 C   0  0  0  0  0  0  0  0  0  0  0  0
    3.8202   -2.3798   -0.4914 H   0  0  0  0  0  0  0  0  0  0  0  0
    4.4341   -0.4124    1.1132 H   0  0  0  0  0  0  0  0  0  0  0  0
    2.9111   -1.2899    1.0717 H   0  0  0  0  0  0  0  0  0  0  0  0
    3.7690    1.2594   -0.5170 H   0  0  0  0  0  0  0  0  0  0  0  0
    0.9318   -0.8402    0.9659 H   0  0  0  0  0  0  0  0  0  0  0  0
    0.1415    0.7255    1.3273 H   0  0  0  0  0  0  0  0  0  0  0  0
    0.1251   -0.7707   -1.3467 H   0  0  0  0  0  0  0  0  0  0  0  0
   -0.7176    0.7432   -1.0394 H   0  0  0  0  0  0  0  0  0  0  0  0
   -1.1530   -1.9431    0.4776 H   0  0  0  0  0  0  0  0  0  0  0  0
   -4.2349   -2.0861   -0.0565 H   0  0  0  0  0  0  0  0  0  0  0  0
   -3.2776   -2.1930    1.4854 H   0  0  0  0  0  0  0  0  0  0  0  0
   -4.4782   -0.8497    1.2751 H   0  0  0  0  0  0  0  0  0  0  0  0
   -4.2368    0.7293   -0.5207 H   0  0  0  0  0  0  0  0  0  0  0  0
   -2.7085    0.8386   -1.4736 H   0  0  0  0  0  0  0  0  0  0  0  0
   -2.7451    1.5239    0.2264 H   0  0  0  0  0  0  0  0  0  0  0  0
    1.8975    2.3086   -1.5907 H   0  0  0  0  0  0  0  0  0  0  0  0
    1.9541    3.0044    0.0472 H   0  0  0  0  0  0  0  0  0  0  0  0
    0.3258    2.4434   -0.6124 H   0  0  0  0  0  0  0  0  0  0  0  0
  1  2  1  0
  2  3  1  0
  3  4  2  0
  4  5  1  0
  5  6  1  0
  6  7  1  0
  7  8  2  3
  8  9  1  0
  8 10  1  0
  4 11  1  0
  1 12  1  0
  2 13  1  0
  2 14  1  0
  3 15  1  0
  5 16  1  0
  5 17  1  0
  6 18  1  0
  6 19  1  0
  7 20  1  0
  9 21  1  0
  9 22  1  0
  9 23  1  0
 10 24  1  0
 10 25  1  0
 10 26  1  0
 11 27  1  0
 11 28  1  0
 11 29  1  0
M  END
>  <Ligand ID>  (1) 
LIG0000778

>  <Ligand>  (1) 
nerol

>  <SMILES>  (1) 
OC/C=C(\CCC=C(C)C)/C

>  <CID>  (1) 
643820.0

>  <ChEMBL ID>  (1) 
nan

>  <InChiKey>  (1) 
GLZPCOQZEFWAFX-YFHOEESVSA-N

>  <InChi>  (1) 
InChI=1S/C10H18O/c1-9(2)5-4-6-10(3)7-8-11/h5,7,11H,4,6,8H2,1-3H3/b10-7-

>  <IUPAC Name>  (1) 
(2Z)-3,7-dimethylocta-2,6-dien-1-ol

$$$$
