
     RDKit          3D

 19 20  0  0  0  0  0  0  0  0999 V2000
    2.5790   -0.8145    0.0776 C   0  0  0  0  0  0  0  0  0  0  0  0
    1.4112    0.1218    0.0098 C   0  0  0  0  0  0  0  0  0  0  0  0
    1.4469    1.5090   -0.0716 C   0  0  0  0  0  0  0  0  0  0  0  0
    0.1921    1.9886   -0.1134 N   0  0  0  0  0  0  0  0  0  0  0  0
   -0.6534    0.9323   -0.0603 C   0  0  0  0  0  0  0  0  0  0  0  0
    0.0803   -0.2327    0.0163 C   0  0  0  0  0  0  0  0  0  0  0  0
   -0.5591   -1.4546    0.0814 C   0  0  0  0  0  0  0  0  0  0  0  0
   -1.9400   -1.4635    0.0670 C   0  0  0  0  0  0  0  0  0  0  0  0
   -2.6697   -0.2953   -0.0097 C   0  0  0  0  0  0  0  0  0  0  0  0
   -2.0293    0.9246   -0.0747 C   0  0  0  0  0  0  0  0  0  0  0  0
    3.4691   -0.3340   -0.3792 H   0  0  0  0  0  0  0  0  0  0  0  0
    2.7715   -1.0583    1.1371 H   0  0  0  0  0  0  0  0  0  0  0  0
    2.3571   -1.7284   -0.5085 H   0  0  0  0  0  0  0  0  0  0  0  0
    2.3470    2.1320   -0.0986 H   0  0  0  0  0  0  0  0  0  0  0  0
   -0.0301    3.0071   -0.1758 H   0  0  0  0  0  0  0  0  0  0  0  0
    0.0473   -2.3370    0.1400 H   0  0  0  0  0  0  0  0  0  0  0  0
   -2.4669   -2.4071    0.1169 H   0  0  0  0  0  0  0  0  0  0  0  0
   -3.7512   -0.3432   -0.0186 H   0  0  0  0  0  0  0  0  0  0  0  0
   -2.6017    1.8533   -0.1356 H   0  0  0  0  0  0  0  0  0  0  0  0
  1  2  1  0
  2  3  2  0
  3  4  1  0
  4  5  1  0
  5  6  2  0
  6  7  1  0
  7  8  2  0
  8  9  1  0
  9 10  2  0
  6  2  1  0
 10  5  1  0
  1 11  1  0
  1 12  1  0
  1 13  1  0
  3 14  1  0
  4 15  1  0
  7 16  1  0
  8 17  1  0
  9 18  1  0
 10 19  1  0
M  END
>  <Ligand ID>  (1) 
LIG0000249

>  <Ligand>  (1) 
Skatole

>  <SMILES>  (1) 
Cc1c[nH]c2c1cccc2

>  <CID>  (1) 
6736.0

>  <ChEMBL ID>  (1) 
nan

>  <InChiKey>  (1) 
ZFRKQXVRDFCRJG-UHFFFAOYSA-N

>  <InChi>  (1) 
InChI=1S/C9H9N/c1-7-6-10-9-5-3-2-4-8(7)9/h2-6,10H,1H3

>  <IUPAC Name>  (1) 
3-methyl-1H-indole

$$$$
