
     RDKit          3D

 49 52  0  0  0  0  0  0  0  0999 V2000
    0.9420    0.6374   -4.3064 C   0  0  0  0  0  0  0  0  0  0  0  0
    1.0096    0.2588   -2.9668 O   0  0  0  0  0  0  0  0  0  0  0  0
   -0.0136   -0.2793   -2.2424 C   0  0  0  0  0  0  0  0  0  0  0  0
   -1.2223   -0.4563   -2.9301 C   0  0  0  0  0  0  0  0  0  0  0  0
   -2.2996   -0.9859   -2.2998 C   0  0  0  0  0  0  0  0  0  0  0  0
   -2.1597   -1.3380   -0.9752 C   0  0  0  0  0  0  0  0  0  0  0  0
   -0.9817   -1.1639   -0.3100 C   0  0  0  0  0  0  0  0  0  0  0  0
    0.1577   -0.6174   -0.9297 C   0  0  0  0  0  0  0  0  0  0  0  0
    1.3063   -0.5013   -0.1495 N   0  0  0  0  0  0  0  0  0  0  0  0
    2.5376    0.1085   -0.4250 C   0  0  0  0  0  0  0  0  0  0  0  0
    2.7406    0.6654   -1.4998 O   0  0  0  0  0  0  0  0  0  0  0  0
    3.6557    0.1216    0.5445 C   0  0  0  0  0  0  0  0  0  0  0  0
    3.5810   -0.4556    1.7800 C   0  0  0  0  0  0  0  0  0  0  0  0
    4.6680   -0.4152    2.6602 C   0  0  0  0  0  0  0  0  0  0  0  0
    5.8325    0.1966    2.3205 C   0  0  0  0  0  0  0  0  0  0  0  0
    5.9306    0.7852    1.0805 C   0  0  0  0  0  0  0  0  0  0  0  0
    4.8566    0.7423    0.2175 C   0  0  0  0  0  0  0  0  0  0  0  0
    7.2003    1.3337    0.9777 O   0  0  0  0  0  0  0  0  0  0  0  0
    7.9714    0.9802    2.1105 C   0  0  0  0  0  0  0  0  0  0  0  0
    7.0384    0.3837    2.9759 O   0  0  0  0  0  0  0  0  0  0  0  0
   -3.5279   -2.0220   -0.1342 S   0  0  0  0  0  0  0  0  0  0  0  0
   -4.3694   -2.8746   -1.0320 O   0  0  0  0  0  0  0  0  0  0  0  0
   -3.0429   -2.9555    0.9670 O   0  0  0  0  0  0  0  0  0  0  0  0
   -4.5186   -0.8599    0.6245 N   0  0  0  0  0  0  0  0  0  0  0  0
   -3.8264   -0.1015    1.6384 C   0  0  0  0  0  0  0  0  0  0  0  0
   -4.8510    0.7389    2.3701 C   0  0  0  0  0  0  0  0  0  0  0  0
   -6.1171    0.5738    1.8336 O   0  0  0  0  0  0  0  0  0  0  0  0
   -6.1637    0.8562    0.4819 C   0  0  0  0  0  0  0  0  0  0  0  0
   -5.1363    0.0642   -0.2998 C   0  0  0  0  0  0  0  0  0  0  0  0
    0.0323    1.2363   -4.5470 H   0  0  0  0  0  0  0  0  0  0  0  0
    1.8056    1.2111   -4.6571 H   0  0  0  0  0  0  0  0  0  0  0  0
    0.8751   -0.2680   -4.9768 H   0  0  0  0  0  0  0  0  0  0  0  0
   -1.3169   -0.1766   -3.9651 H   0  0  0  0  0  0  0  0  0  0  0  0
   -3.2517   -1.1457   -2.7729 H   0  0  0  0  0  0  0  0  0  0  0  0
   -0.9608   -1.4696    0.7359 H   0  0  0  0  0  0  0  0  0  0  0  0
    1.2623   -0.9524    0.8241 H   0  0  0  0  0  0  0  0  0  0  0  0
    2.7105   -0.9659    2.1535 H   0  0  0  0  0  0  0  0  0  0  0  0
    4.6034   -0.8743    3.6383 H   0  0  0  0  0  0  0  0  0  0  0  0
    4.9520    1.2125   -0.7582 H   0  0  0  0  0  0  0  0  0  0  0  0
    8.8306    0.3243    1.8699 H   0  0  0  0  0  0  0  0  0  0  0  0
    8.3040    1.9400    2.5639 H   0  0  0  0  0  0  0  0  0  0  0  0
   -3.2531   -0.7541    2.3321 H   0  0  0  0  0  0  0  0  0  0  0  0
   -3.1001    0.6266    1.1832 H   0  0  0  0  0  0  0  0  0  0  0  0
   -4.9028    0.3348    3.4170 H   0  0  0  0  0  0  0  0  0  0  0  0
   -4.6039    1.8197    2.3667 H   0  0  0  0  0  0  0  0  0  0  0  0
   -7.1645    0.5416    0.1220 H   0  0  0  0  0  0  0  0  0  0  0  0
   -6.0170    1.9367    0.2676 H   0  0  0  0  0  0  0  0  0  0  0  0
   -4.3898    0.7439   -0.7637 H   0  0  0  0  0  0  0  0  0  0  0  0
   -5.6136   -0.5388   -1.1153 H   0  0  0  0  0  0  0  0  0  0  0  0
  1  2  1  0
  2  3  1  0
  3  4  2  0
  4  5  1  0
  5  6  2  0
  6  7  1  0
  7  8  2  0
  8  9  1  0
  9 10  1  0
 10 11  2  0
 10 12  1  0
 12 13  2  0
 13 14  1  0
 14 15  2  0
 15 16  1  0
 16 17  2  0
 16 18  1  0
 18 19  1  0
 19 20  1  0
  6 21  1  0
 21 22  2  0
 21 23  2  0
 21 24  1  0
 24 25  1  0
 25 26  1  0
 26 27  1  0
 27 28  1  0
 28 29  1  0
  8  3  1  0
 17 12  1  0
 29 24  1  0
 20 15  1  0
  1 30  1  0
  1 31  1  0
  1 32  1  0
  4 33  1  0
  5 34  1  0
  7 35  1  0
  9 36  1  0
 13 37  1  0
 14 38  1  0
 17 39  1  0
 19 40  1  0
 19 41  1  0
 25 42  1  0
 25 43  1  0
 26 44  1  0
 26 45  1  0
 28 46  1  0
 28 47  1  0
 29 48  1  0
 29 49  1  0
M  END
>  <Ligand ID>  (1) 
LIG0001998

>  <Ligand>  (1) 
MLS-0413566.0001

>  <SMILES>  (1) 
COc1ccc(cc1NC(=O)c1ccc2c(c1)OCO2)S(=O)(=O)N1CCOCC1

>  <CID>  (1) 
3921758.0

>  <ChEMBL ID>  (1) 
nan

>  <InChiKey>  (1) 
BMMHBSOMJGUCFZ-UHFFFAOYSA-N

>  <InChi>  (1) 
InChI=1S/C19H20N2O7S/c1-25-16-5-3-14(29(23,24)21-6-8-26-9-7-21)11-15(16)20-19(22)13-2-4-17-18(10-13)28-12-27-17/h2-5,10-11H,6-9,12H2,1H3,(H,20,22)

>  <IUPAC Name>  (1) 
N-(2-methoxy-5-morpholin-4-ylsulfonylphenyl)-1,3-benzodioxole-5-carboxamide

$$$$
