
     RDKit          3D

 63 67  0  0  0  0  0  0  0  0999 V2000
   -2.2158   -4.9931   -0.1515 C   0  0  0  0  0  0  0  0  0  0  0  0
   -2.9953   -3.7296   -0.0867 C   0  0  0  0  0  0  0  0  0  0  0  0
   -4.3757   -3.8444   -0.0043 C   0  0  0  0  0  0  0  0  0  0  0  0
   -5.1006   -2.6720    0.0567 C   0  0  0  0  0  0  0  0  0  0  0  0
   -6.5787   -2.7539    0.1474 C   0  0  0  0  0  0  0  0  0  0  0  0
   -4.4451   -1.4695    0.0345 C   0  0  0  0  0  0  0  0  0  0  0  0
   -3.0659   -1.3425   -0.0468 C   0  0  0  0  0  0  0  0  0  0  0  0
   -2.3506   -2.5138   -0.1082 C   0  0  0  0  0  0  0  0  0  0  0  0
   -2.4236   -0.1252   -0.0712 C   0  0  0  0  0  0  0  0  0  0  0  0
   -3.2700    0.9918   -0.0109 C   0  0  0  0  0  0  0  0  0  0  0  0
   -4.6433    0.8583    0.0671 C   0  0  0  0  0  0  0  0  0  0  0  0
   -5.1871   -0.3524    0.0886 N   0  0  0  0  0  0  0  0  0  0  0  0
   -5.5049    2.0528    0.0961 C   0  0  0  0  0  0  0  0  0  0  0  0
   -6.8747    1.8762    0.1639 C   0  0  0  0  0  0  0  0  0  0  0  0
   -7.6774    2.9796    0.1760 C   0  0  0  0  0  0  0  0  0  0  0  0
   -7.1269    4.2454    0.1209 C   0  0  0  0  0  0  0  0  0  0  0  0
   -5.7648    4.3337    0.0555 C   0  0  0  0  0  0  0  0  0  0  0  0
   -4.9313    3.2801    0.0417 N   0  0  0  0  0  0  0  0  0  0  0  0
   -0.9901    0.0483   -0.1469 C   0  0  0  0  0  0  0  0  0  0  0  0
   -0.1142   -0.8095    0.0917 O   0  0  0  0  0  0  0  0  0  0  0  0
   -0.4527    1.3378   -0.5375 N   0  0  0  0  0  0  0  0  0  0  0  0
    0.9488    1.5476   -0.6359 C   0  0  0  0  0  0  0  0  0  0  0  0
    1.4917    1.3930   -1.9138 C   0  0  0  0  0  0  0  0  0  0  0  0
    2.8307    1.5581   -2.1328 C   0  0  0  0  0  0  0  0  0  0  0  0
    3.6725    1.8827   -1.0809 C   0  0  0  0  0  0  0  0  0  0  0  0
    3.1283    2.0284    0.1513 C   0  0  0  0  0  0  0  0  0  0  0  0
    1.7654    1.8688    0.4180 C   0  0  0  0  0  0  0  0  0  0  0  0
    5.3645    2.0853   -1.4669 S   0  0  0  0  0  0  0  0  0  0  0  0
    5.9547    2.9272   -0.3612 O   0  0  0  0  0  0  0  0  0  0  0  0
    5.4297    2.8534   -2.7405 O   0  0  0  0  0  0  0  0  0  0  0  0
    6.2067    0.5949   -1.5565 N   0  0  0  0  0  0  0  0  0  0  0  0
    6.3567   -0.3123   -0.4784 C   0  0  0  0  0  0  0  0  0  0  0  0
    5.5098   -1.2608   -0.2100 O   0  0  0  0  0  0  0  0  0  0  0  0
    5.9533   -1.9063    0.8425 N   0  0  0  0  0  0  0  0  0  0  0  0
    7.1066   -1.3871    1.2843 C   0  0  0  0  0  0  0  0  0  0  0  0
    7.3897   -0.3405    0.4323 C   0  0  0  0  0  0  0  0  0  0  0  0
    8.5584    0.5647    0.4754 C   0  0  0  0  0  0  0  0  0  0  0  0
    7.9023   -1.8560    2.4487 C   0  0  0  0  0  0  0  0  0  0  0  0
   -2.8232   -5.8184   -0.6050 H   0  0  0  0  0  0  0  0  0  0  0  0
   -1.3056   -4.8799   -0.7751 H   0  0  0  0  0  0  0  0  0  0  0  0
   -1.8884   -5.3239    0.8683 H   0  0  0  0  0  0  0  0  0  0  0  0
   -4.8299   -4.8313    0.0103 H   0  0  0  0  0  0  0  0  0  0  0  0
   -7.0575   -3.0000   -0.8241 H   0  0  0  0  0  0  0  0  0  0  0  0
   -7.0322   -1.8024    0.4923 H   0  0  0  0  0  0  0  0  0  0  0  0
   -6.8911   -3.5312    0.8973 H   0  0  0  0  0  0  0  0  0  0  0  0
   -1.2796   -2.5369   -0.1831 H   0  0  0  0  0  0  0  0  0  0  0  0
   -2.8956    2.0020   -0.0205 H   0  0  0  0  0  0  0  0  0  0  0  0
   -7.2520    0.8610    0.2033 H   0  0  0  0  0  0  0  0  0  0  0  0
   -8.7511    2.8478    0.2296 H   0  0  0  0  0  0  0  0  0  0  0  0
   -7.7832    5.1233    0.1293 H   0  0  0  0  0  0  0  0  0  0  0  0
   -5.3502    5.3495    0.0137 H   0  0  0  0  0  0  0  0  0  0  0  0
   -1.0627    2.1467   -0.7587 H   0  0  0  0  0  0  0  0  0  0  0  0
    0.8488    1.1372   -2.7675 H   0  0  0  0  0  0  0  0  0  0  0  0
    3.1952    1.4288   -3.1341 H   0  0  0  0  0  0  0  0  0  0  0  0
    3.8064    2.2849    0.9708 H   0  0  0  0  0  0  0  0  0  0  0  0
    1.3476    1.9893    1.4058 H   0  0  0  0  0  0  0  0  0  0  0  0
    6.6402    0.3573   -2.5022 H   0  0  0  0  0  0  0  0  0  0  0  0
    8.7799    0.8680    1.5187 H   0  0  0  0  0  0  0  0  0  0  0  0
    8.3745    1.4608   -0.1631 H   0  0  0  0  0  0  0  0  0  0  0  0
    9.4833    0.0741    0.0483 H   0  0  0  0  0  0  0  0  0  0  0  0
    7.6197   -2.9008    2.6616 H   0  0  0  0  0  0  0  0  0  0  0  0
    7.6378   -1.2367    3.3539 H   0  0  0  0  0  0  0  0  0  0  0  0
    8.9876   -1.7085    2.2943 H   0  0  0  0  0  0  0  0  0  0  0  0
  1  2  1  0
  2  3  2  0
  3  4  1  0
  4  5  1  0
  4  6  2  0
  6  7  1  0
  7  8  2  0
  7  9  1  0
  9 10  2  0
 10 11  1  0
 11 12  2  0
 11 13  1  0
 13 14  2  0
 14 15  1  0
 15 16  2  0
 16 17  1  0
 17 18  2  0
  9 19  1  0
 19 20  2  0
 19 21  1  0
 21 22  1  0
 22 23  2  0
 23 24  1  0
 24 25  2  0
 25 26  1  0
 26 27  2  0
 25 28  1  0
 28 29  2  0
 28 30  2  0
 28 31  1  0
 31 32  1  0
 32 33  1  0
 33 34  1  0
 34 35  2  0
 35 36  1  0
 36 37  1  0
 35 38  1  0
  8  2  1  0
 18 13  1  0
 27 22  1  0
 36 32  2  0
 12  6  1  0
  1 39  1  0
  1 40  1  0
  1 41  1  0
  3 42  1  0
  5 43  1  0
  5 44  1  0
  5 45  1  0
  8 46  1  0
 10 47  1  0
 14 48  1  0
 15 49  1  0
 16 50  1  0
 17 51  1  0
 21 52  1  0
 23 53  1  0
 24 54  1  0
 26 55  1  0
 27 56  1  0
 31 57  1  0
 37 58  1  0
 37 59  1  0
 37 60  1  0
 38 61  1  0
 38 62  1  0
 38 63  1  0
M  END
>  <Ligand ID>  (1) 
LIG0003739

>  <Ligand>  (1) 
ML193

>  <SMILES>  (1) 
Cc1cc(C)c2c(c1)c(cc(n2)c1ccccn1)C(=O)Nc1ccc(cc1)S(=O)(=O)Nc1onc(c1C)C

>  <CID>  (1) 
1261822.0

>  <ChEMBL ID>  (1) 
nan

>  <InChiKey>  (1) 
HTSLEZOTMYUPLU-UHFFFAOYSA-N

>  <InChi>  (1) 
InChI=1S/C28H25N5O4S/c1-16-13-17(2)26-22(14-16)23(15-25(31-26)24-7-5-6-12-29-24)27(34)30-20-8-10-21(11-9-20)38(35,36)33-28-18(3)19(4)32-37-28/h5-15,33H,1-4H3,(H,30,34)

>  <IUPAC Name>  (1) 
N-[4-[(3,4-dimethyl-1,2-oxazol-5-yl)sulfamoyl]phenyl]-6,8-dimethyl-2-pyridin-2-ylquinoline-4-carboxamide

$$$$
