
     RDKit          3D

 57 58  0  0  0  0  0  0  0  0999 V2000
   -7.9908    1.8526    0.2951 C   0  0  0  0  0  0  0  0  0  0  0  0
   -7.2784    0.5228    0.1365 C   0  0  0  0  0  0  0  0  0  0  0  0
   -7.2116   -0.0750    1.5259 C   0  0  0  0  0  0  0  0  0  0  0  0
   -6.5353   -1.4011    1.5614 C   0  0  0  0  0  0  0  0  0  0  0  0
   -5.1024   -1.3897    1.0800 C   0  0  0  0  0  0  0  0  0  0  0  0
   -4.2251   -0.4943    1.8851 C   0  0  0  0  0  0  0  0  0  0  0  0
   -2.8190   -0.5438    1.3500 C   0  0  0  0  0  0  0  0  0  0  0  0
   -2.6718   -0.1083   -0.0729 C   0  0  0  0  0  0  0  0  0  0  0  0
   -1.2027   -0.2303   -0.3967 C   0  0  0  0  0  0  0  0  0  0  0  0
   -0.3290    0.8175   -0.1962 C   0  0  0  0  0  0  0  0  0  0  0  0
    1.0052    0.6205   -0.5195 C   0  0  0  0  0  0  0  0  0  0  0  0
    1.4847   -0.5681   -1.0273 C   0  0  0  0  0  0  0  0  0  0  0  0
    0.5751   -1.5870   -1.2108 C   0  0  0  0  0  0  0  0  0  0  0  0
   -0.7575   -1.4456   -0.9072 C   0  0  0  0  0  0  0  0  0  0  0  0
    2.8883   -0.7698   -1.3649 C   0  0  0  0  0  0  0  0  0  0  0  0
    3.4383   -1.9074   -1.8692 C   0  0  0  0  0  0  0  0  0  0  0  0
    4.7527   -1.6813   -2.0397 N   0  0  0  0  0  0  0  0  0  0  0  0
    5.0491   -0.4285   -1.6560 C   0  0  0  0  0  0  0  0  0  0  0  0
    3.8909    0.1155   -1.2445 N   0  0  0  0  0  0  0  0  0  0  0  0
    6.4130    0.1802   -1.7019 C   0  0  2  0  0  0  0  0  0  0  0  0
    6.8921    0.2994   -0.2657 C   0  0  0  0  0  0  0  0  0  0  0  0
    8.1210    0.9615   -0.2166 O   0  0  0  0  0  0  0  0  0  0  0  0
    8.7286    1.1445    1.3286 P   0  0  0  0  0  0  0  0  0  0  0  0
   10.1801    0.6633    1.3257 O   0  0  0  0  0  0  0  0  0  0  0  0
    8.7063    2.7698    1.7987 O   0  0  0  0  0  0  0  0  0  0  0  0
    7.8450    0.2643    2.4734 O   0  0  0  0  0  0  0  0  0  0  0  0
    6.2621    1.5126   -2.2618 N   0  0  0  0  0  0  0  0  0  0  0  0
   -9.0872    1.6018    0.3989 H   0  0  0  0  0  0  0  0  0  0  0  0
   -7.8805    2.5058   -0.5785 H   0  0  0  0  0  0  0  0  0  0  0  0
   -7.7326    2.3254    1.2681 H   0  0  0  0  0  0  0  0  0  0  0  0
   -7.9210   -0.0872   -0.5298 H   0  0  0  0  0  0  0  0  0  0  0  0
   -6.3069    0.6139   -0.3456 H   0  0  0  0  0  0  0  0  0  0  0  0
   -6.8061    0.6488    2.2612 H   0  0  0  0  0  0  0  0  0  0  0  0
   -8.2657   -0.2379    1.8325 H   0  0  0  0  0  0  0  0  0  0  0  0
   -6.5440   -1.7544    2.6082 H   0  0  0  0  0  0  0  0  0  0  0  0
   -7.0850   -2.1176    0.9434 H   0  0  0  0  0  0  0  0  0  0  0  0
   -5.0181   -1.1725    0.0168 H   0  0  0  0  0  0  0  0  0  0  0  0
   -4.7288   -2.4380    1.2416 H   0  0  0  0  0  0  0  0  0  0  0  0
   -4.1654   -0.7791    2.9529 H   0  0  0  0  0  0  0  0  0  0  0  0
   -4.5476    0.5663    1.8792 H   0  0  0  0  0  0  0  0  0  0  0  0
   -2.4496   -1.6094    1.3869 H   0  0  0  0  0  0  0  0  0  0  0  0
   -2.1115    0.0398    1.9937 H   0  0  0  0  0  0  0  0  0  0  0  0
   -3.2105   -0.7674   -0.7827 H   0  0  0  0  0  0  0  0  0  0  0  0
   -3.0262    0.9175   -0.2599 H   0  0  0  0  0  0  0  0  0  0  0  0
   -0.6939    1.7648    0.2053 H   0  0  0  0  0  0  0  0  0  0  0  0
    1.7279    1.4330   -0.3726 H   0  0  0  0  0  0  0  0  0  0  0  0
    0.9512   -2.5290   -1.6125 H   0  0  0  0  0  0  0  0  0  0  0  0
   -1.4041   -2.2876   -1.0788 H   0  0  0  0  0  0  0  0  0  0  0  0
    2.9100   -2.8420   -2.0971 H   0  0  0  0  0  0  0  0  0  0  0  0
    3.7718    1.0853   -0.8810 H   0  0  0  0  0  0  0  0  0  0  0  0
    7.0742   -0.4447   -2.3069 H   0  0  0  0  0  0  0  0  0  0  0  0
    6.9672   -0.7114    0.1892 H   0  0  0  0  0  0  0  0  0  0  0  0
    6.1803    0.8764    0.3536 H   0  0  0  0  0  0  0  0  0  0  0  0
    9.4791    3.2641    1.4560 H   0  0  0  0  0  0  0  0  0  0  0  0
    8.3721   -0.5436    2.7272 H   0  0  0  0  0  0  0  0  0  0  0  0
    5.6245    1.4510   -3.0873 H   0  0  0  0  0  0  0  0  0  0  0  0
    5.8176    2.1335   -1.5502 H   0  0  0  0  0  0  0  0  0  0  0  0
  1  2  1  0
  2  3  1  0
  3  4  1  0
  4  5  1  0
  5  6  1  0
  6  7  1  0
  7  8  1  0
  8  9  1  0
  9 10  2  0
 10 11  1  0
 11 12  2  0
 12 13  1  0
 13 14  2  0
 12 15  1  0
 15 16  2  0
 16 17  1  0
 17 18  2  0
 18 19  1  0
 18 20  1  0
 20 21  1  0
 21 22  1  0
 22 23  1  0
 23 24  2  0
 23 25  1  0
 23 26  1  0
 20 27  1  0
 14  9  1  0
 19 15  1  0
  1 28  1  0
  1 29  1  0
  1 30  1  0
  2 31  1  0
  2 32  1  0
  3 33  1  0
  3 34  1  0
  4 35  1  0
  4 36  1  0
  5 37  1  0
  5 38  1  0
  6 39  1  0
  6 40  1  0
  7 41  1  0
  7 42  1  0
  8 43  1  0
  8 44  1  0
 10 45  1  0
 11 46  1  0
 13 47  1  0
 14 48  1  0
 16 49  1  0
 19 50  1  0
 20 51  1  6
 21 52  1  0
 21 53  1  0
 25 54  1  0
 26 55  1  0
 27 56  1  0
 27 57  1  0
M  END
>  <Ligand ID>  (1) 
LIG0004239

>  <Ligand>  (1) 
CHEMBL190865

>  <SMILES>  (1) 
CCCCCCCCc1ccc(cc1)c1cnc([nH]1)[C@H](COP(=O)(O)O)N

>  <CID>  (1) 
11682677.0

>  <ChEMBL ID>  (1) 
nan

>  <InChiKey>  (1) 
MRXCOXFHDGXOMV-KRWDZBQOSA-N

>  <InChi>  (1) 
InChI=1S/C19H30N3O4P/c1-2-3-4-5-6-7-8-15-9-11-16(12-10-15)18-13-21-19(22-18)17(20)14-26-27(23,24)25/h9-13,17H,2-8,14,20H2,1H3,(H,21,22)(H2,23,24,25)/t17-/m0/s1

>  <IUPAC Name>  (1) 
[(2R)-2-amino-2-[5-(4-octylphenyl)-1H-imidazol-2-yl]ethyl] dihydrogen phosphate

$$$$
