
     RDKit          3D

 47 49  0  0  0  0  0  0  0  0999 V2000
   -3.8718   -2.8825   -0.5370 O   0  0  0  0  0  0  0  0  0  0  0  0
   -3.5171   -1.5525   -0.5615 C   0  0  1  0  0  0  0  0  0  0  0  0
   -3.3228   -0.9279    0.8044 C   0  0  2  0  0  0  0  0  0  0  0  0
   -3.7911    0.4124    0.7024 N   0  0  0  0  0  0  0  0  0  0  0  0
   -5.0861    0.5864    0.2970 C   0  0  0  0  0  0  0  0  0  0  0  0
   -5.6131    1.8575    0.1738 C   0  0  0  0  0  0  0  0  0  0  0  0
   -4.8610    2.9962    0.4525 C   0  0  0  0  0  0  0  0  0  0  0  0
   -5.3573    4.1375    0.3346 O   0  0  0  0  0  0  0  0  0  0  0  0
   -3.5899    2.7691    0.8486 N   0  0  0  0  0  0  0  0  0  0  0  0
   -3.1043    1.5194    0.9593 C   0  0  0  0  0  0  0  0  0  0  0  0
   -1.9127    1.4041    1.3341 O   0  0  0  0  0  0  0  0  0  0  0  0
   -1.8731   -1.0927    1.1021 C   0  0  2  0  0  0  0  0  0  0  0  0
   -1.1598   -1.2205   -0.1548 C   0  0  2  0  0  0  0  0  0  0  0  0
   -2.2170   -1.2436   -1.2457 C   0  0  1  0  0  0  0  0  0  0  0  0
   -1.8968   -2.1255   -2.2621 O   0  0  0  0  0  0  0  0  0  0  0  0
   -1.2082   -2.4248    0.7072 C   0  0  0  0  0  0  0  0  0  0  0  0
    0.1381   -0.5574   -0.4907 C   0  0  0  0  0  0  0  0  0  0  0  0
    1.1569   -0.9210    0.3666 O   0  0  0  0  0  0  0  0  0  0  0  0
    2.6306   -0.1985    0.0230 P   0  0  0  0  0  0  0  0  0  0  0  0
    3.2261   -0.6126   -1.2817 O   0  0  0  0  0  0  0  0  0  0  0  0
    3.6909   -0.5860    1.3032 O   0  0  0  0  0  0  0  0  0  0  0  0
    5.3051   -0.3824    0.8750 P   0  0  0  0  0  0  0  0  0  0  0  0
    6.1286   -1.1924    1.8433 O   0  0  0  0  0  0  0  0  0  0  0  0
    5.7655    1.2496    0.9849 O   0  0  0  0  0  0  0  0  0  0  0  0
    7.1394    1.5316    0.0273 P   0  0  0  0  0  0  0  0  0  0  0  0
    8.1077    2.3817    0.8188 O   0  0  0  0  0  0  0  0  0  0  0  0
    7.8216    0.0180   -0.3369 O   0  0  0  0  0  0  0  0  0  0  0  0
    6.6208    2.2951   -1.3741 O   0  0  0  0  0  0  0  0  0  0  0  0
    5.5400   -0.9476   -0.6889 O   0  0  0  0  0  0  0  0  0  0  0  0
    2.5014    1.4992   -0.0161 O   0  0  0  0  0  0  0  0  0  0  0  0
   -4.3707   -3.1559    0.2541 H   0  0  0  0  0  0  0  0  0  0  0  0
   -4.3074   -1.0394   -1.1597 H   0  0  0  0  0  0  0  0  0  0  0  0
   -3.9394   -1.4671    1.5703 H   0  0  0  0  0  0  0  0  0  0  0  0
   -5.7298   -0.2504    0.0639 H   0  0  0  0  0  0  0  0  0  0  0  0
   -6.6478    1.9585   -0.1515 H   0  0  0  0  0  0  0  0  0  0  0  0
   -2.9960    3.6219    1.0671 H   0  0  0  0  0  0  0  0  0  0  0  0
   -1.4950   -0.7648    2.0693 H   0  0  0  0  0  0  0  0  0  0  0  0
   -2.2657   -0.2144   -1.6529 H   0  0  0  0  0  0  0  0  0  0  0  0
   -2.6707   -2.5004   -2.7233 H   0  0  0  0  0  0  0  0  0  0  0  0
   -1.8294   -3.3038    0.5176 H   0  0  0  0  0  0  0  0  0  0  0  0
   -0.2401   -2.6929    1.1614 H   0  0  0  0  0  0  0  0  0  0  0  0
    0.0088    0.5408   -0.4231 H   0  0  0  0  0  0  0  0  0  0  0  0
    0.4020   -0.7491   -1.5581 H   0  0  0  0  0  0  0  0  0  0  0  0
    8.0887   -0.3866    0.5352 H   0  0  0  0  0  0  0  0  0  0  0  0
    5.8689    2.9061   -1.1281 H   0  0  0  0  0  0  0  0  0  0  0  0
    5.5864   -0.1918   -1.3148 H   0  0  0  0  0  0  0  0  0  0  0  0
    3.1464    1.8992   -0.6414 H   0  0  0  0  0  0  0  0  0  0  0  0
  1  2  1  0
  2  3  1  0
  3  4  1  0
  4  5  1  0
  5  6  2  0
  6  7  1  0
  7  8  2  0
  7  9  1  0
  9 10  1  0
 10 11  2  0
  3 12  1  0
 12 13  1  0
 13 14  1  0
 14 15  1  0
 13 16  1  0
 13 17  1  6
 17 18  1  0
 18 19  1  0
 19 20  2  0
 19 21  1  0
 21 22  1  0
 22 23  2  0
 22 24  1  0
 24 25  1  0
 25 26  2  0
 25 27  1  0
 25 28  1  0
 22 29  1  0
 19 30  1  0
 14  2  1  0
 10  4  1  0
 16 12  1  0
  1 31  1  0
  2 32  1  6
  3 33  1  1
  5 34  1  0
  6 35  1  0
  9 36  1  0
 12 37  1  1
 14 38  1  6
 15 39  1  0
 16 40  1  0
 16 41  1  0
 17 42  1  0
 17 43  1  0
 27 44  1  0
 28 45  1  0
 29 46  1  0
 30 47  1  0
M  END
>  <Ligand ID>  (1) 
LIG0005730

>  <Ligand>  (1) 
CHEMBL606210

>  <SMILES>  (1) 
O[C@H]1[C@H](n2ccc(=O)[nH]c2=O)[C@@H]2[C@]([C@H]1O)(C2)COP(=O)(OP(=O)(OP(=O)(O)O)O)O

>  <CID>  (1) 
10929115.0

>  <ChEMBL ID>  (1) 
nan

>  <InChiKey>  (1) 
XWFVJTIKQWQNID-KAACBLBJSA-N

>  <InChi>  (1) 
InChI=1S/C11H17N2O14P3/c14-6-1-2-13(10(17)12-6)7-5-3-11(5,9(16)8(7)15)4-25-29(21,22)27-30(23,24)26-28(18,19)20/h1-2,5,7-9,15-16H,3-4H2,(H,21,22)(H,23,24)(H,12,14,17)(H2,18,19,20)/t5-,7-,8+,9+,11+/m1/s1

>  <IUPAC Name>  (1) 
[[(1R,2R,3S,4R,5S)-4-(2,4-dioxopyrimidin-1-yl)-2,3-dihydroxy-1-bicyclo[3.1.0]hexanyl]methoxy-hydroxyphosphoryl] phosphono hydrogen phosphate

$$$$
