
     RDKit          3D

 76 83  0  0  0  0  0  0  0  0999 V2000
    2.2639    3.7454    0.2094 C   0  0  0  0  0  0  0  0  0  0  0  0
    2.2561    2.4120   -0.0686 O   0  0  0  0  0  0  0  0  0  0  0  0
    1.0598    1.7532    0.0315 C   0  0  2  0  0  0  0  0  0  0  0  0
    0.4593    1.8273    1.4068 C   0  0  0  0  0  0  0  0  0  0  0  0
   -0.5899    0.7717    1.6088 C   0  0  0  0  0  0  0  0  0  0  0  0
   -0.9736    0.1610    0.2577 C   0  0  2  0  0  0  0  0  0  0  0  0
    0.2435   -0.6433   -0.0983 C   0  0  0  0  0  0  0  0  0  0  0  0
    1.3675    0.3064   -0.4002 C   0  0  2  0  0  0  0  0  0  0  0  0
    2.7246   -0.1800   -0.0482 C   0  0  1  0  0  0  0  0  0  0  0  0
    2.7968   -1.6211   -0.5695 C   0  0  0  0  0  0  0  0  0  0  0  0
    4.1064   -2.2136   -0.2726 C   0  0  0  0  0  0  0  0  0  0  0  0
    4.3680   -2.9494    0.8689 C   0  0  0  0  0  0  0  0  0  0  0  0
    5.6408   -3.4816    1.0796 C   0  0  0  0  0  0  0  0  0  0  0  0
    6.6679   -3.3060    0.1894 C   0  0  0  0  0  0  0  0  0  0  0  0
    6.4096   -2.5655   -0.9623 C   0  0  0  0  0  0  0  0  0  0  0  0
    5.1467   -2.0474   -1.1537 C   0  0  0  0  0  0  0  0  0  0  0  0
    3.6899    0.5047   -0.7980 O   0  0  0  0  0  0  0  0  0  0  0  0
    3.1010   -0.1968    1.3849 C   0  0  0  0  0  0  0  0  0  0  0  0
   -1.1991    1.2751   -0.7095 C   0  0  2  0  0  0  0  0  0  0  0  0
    0.0020    2.1784   -0.9492 C   0  0  1  0  0  0  0  0  0  0  0  0
   -0.4849    3.4878   -0.8332 O   0  0  0  0  0  0  0  0  0  0  0  0
   -1.6777    3.5136   -0.1029 C   0  0  0  0  0  0  0  0  0  0  0  0
   -2.0785    2.2183    0.0207 C   0  0  0  0  0  0  0  0  0  0  0  0
   -3.1623    1.7369    0.6573 C   0  0  0  0  0  0  0  0  0  0  0  0
   -3.3944    0.2955    0.7614 C   0  0  0  0  0  0  0  0  0  0  0  0
   -2.2574   -0.6169    0.3871 C   0  0  1  0  0  0  0  0  0  0  0  0
   -2.6477   -1.2076   -0.8555 N   0  0  0  0  0  0  0  0  0  0  0  0
   -2.7552   -0.2806   -1.9223 C   0  0  0  0  0  0  0  0  0  0  0  0
   -1.7512    0.8003   -1.9917 C   0  0  0  0  0  0  0  0  0  0  0  0
   -2.5844   -2.5602   -1.0920 C   0  0  0  0  0  0  0  0  0  0  0  0
   -3.4887   -3.5104   -0.3832 C   0  0  0  0  0  0  0  0  0  0  0  0
   -4.9945   -3.2443   -0.6416 C   0  0  0  0  0  0  0  0  0  0  0  0
   -4.3343   -3.2617    0.7539 C   0  0  0  0  0  0  0  0  0  0  0  0
   -3.9852    2.6985    1.2618 C   0  0  0  0  0  0  0  0  0  0  0  0
   -3.6277    4.0483    1.1639 C   0  0  0  0  0  0  0  0  0  0  0  0
   -2.4824    4.4646    0.4883 C   0  0  0  0  0  0  0  0  0  0  0  0
   -2.1155    5.7931    0.3841 O   0  0  0  0  0  0  0  0  0  0  0  0
    1.6225    4.3462   -0.4292 H   0  0  0  0  0  0  0  0  0  0  0  0
    2.1347    3.9333    1.2966 H   0  0  0  0  0  0  0  0  0  0  0  0
    3.3133    4.1018   -0.0087 H   0  0  0  0  0  0  0  0  0  0  0  0
   -0.0420    2.8208    1.4830 H   0  0  0  0  0  0  0  0  0  0  0  0
    1.1990    1.8531    2.2359 H   0  0  0  0  0  0  0  0  0  0  0  0
   -1.4150    1.1271    2.2045 H   0  0  0  0  0  0  0  0  0  0  0  0
   -0.0928   -0.0638    2.1862 H   0  0  0  0  0  0  0  0  0  0  0  0
    0.4914   -1.2437    0.8277 H   0  0  0  0  0  0  0  0  0  0  0  0
    0.1491   -1.3234   -0.9369 H   0  0  0  0  0  0  0  0  0  0  0  0
    1.4105    0.4098   -1.5414 H   0  0  0  0  0  0  0  0  0  0  0  0
    2.0396   -2.2190   -0.0402 H   0  0  0  0  0  0  0  0  0  0  0  0
    2.6469   -1.6356   -1.6745 H   0  0  0  0  0  0  0  0  0  0  0  0
    3.5760   -3.1017    1.5856 H   0  0  0  0  0  0  0  0  0  0  0  0
    5.7495   -4.0435    2.0043 H   0  0  0  0  0  0  0  0  0  0  0  0
    7.6405   -3.7283    0.3780 H   0  0  0  0  0  0  0  0  0  0  0  0
    7.2126   -2.4156   -1.6795 H   0  0  0  0  0  0  0  0  0  0  0  0
    5.0094   -1.4748   -2.0786 H   0  0  0  0  0  0  0  0  0  0  0  0
    3.2440    0.7350   -1.6702 H   0  0  0  0  0  0  0  0  0  0  0  0
    2.4320   -0.7823    2.0289 H   0  0  0  0  0  0  0  0  0  0  0  0
    4.1446   -0.6396    1.4330 H   0  0  0  0  0  0  0  0  0  0  0  0
    3.2255    0.8037    1.8456 H   0  0  0  0  0  0  0  0  0  0  0  0
    0.3611    2.0829   -2.0065 H   0  0  0  0  0  0  0  0  0  0  0  0
   -4.2792    0.0964    0.0806 H   0  0  0  0  0  0  0  0  0  0  0  0
   -3.8284    0.0105    1.7627 H   0  0  0  0  0  0  0  0  0  0  0  0
   -2.1334   -1.4157    1.1313 H   0  0  0  0  0  0  0  0  0  0  0  0
   -2.6448   -0.8850   -2.8736 H   0  0  0  0  0  0  0  0  0  0  0  0
   -3.7896    0.1339   -1.9359 H   0  0  0  0  0  0  0  0  0  0  0  0
   -0.9196    0.5858   -2.7139 H   0  0  0  0  0  0  0  0  0  0  0  0
   -2.2755    1.6929   -2.4651 H   0  0  0  0  0  0  0  0  0  0  0  0
   -2.8194   -2.7106   -2.1929 H   0  0  0  0  0  0  0  0  0  0  0  0
   -1.5362   -2.9880   -1.0534 H   0  0  0  0  0  0  0  0  0  0  0  0
   -3.2363   -4.5851   -0.6135 H   0  0  0  0  0  0  0  0  0  0  0  0
   -5.2766   -2.2630   -1.0716 H   0  0  0  0  0  0  0  0  0  0  0  0
   -5.6508   -4.0748   -0.8916 H   0  0  0  0  0  0  0  0  0  0  0  0
   -4.4825   -2.3310    1.2854 H   0  0  0  0  0  0  0  0  0  0  0  0
   -4.6249   -4.1426    1.3863 H   0  0  0  0  0  0  0  0  0  0  0  0
   -4.8734    2.3759    1.7877 H   0  0  0  0  0  0  0  0  0  0  0  0
   -4.2580    4.8160    1.6277 H   0  0  0  0  0  0  0  0  0  0  0  0
   -1.1432    6.0365    0.2438 H   0  0  0  0  0  0  0  0  0  0  0  0
  1  2  1  0
  3  2  1  1
  3  4  1  0
  4  5  1  0
  6  5  1  1
  6  7  1  0
  7  8  1  0
  8  9  1  0
  9 10  1  0
 10 11  1  0
 11 12  2  0
 12 13  1  0
 13 14  2  0
 14 15  1  0
 15 16  2  0
  9 17  1  6
  9 18  1  0
  6 19  1  0
 19 20  1  0
 20 21  1  0
 21 22  1  0
 22 23  2  0
 23 24  1  0
 24 25  1  0
 25 26  1  0
 26 27  1  0
 27 28  1  0
 28 29  1  0
 27 30  1  0
 30 31  1  0
 31 32  1  0
 32 33  1  0
 24 34  2  0
 34 35  1  0
 35 36  2  0
 36 37  1  0
  8  3  1  0
 16 11  1  0
 19 29  1  6
 33 31  1  0
 20  3  1  0
 36 22  1  0
 26  6  1  0
 23 19  1  0
  1 38  1  0
  1 39  1  0
  1 40  1  0
  4 41  1  0
  4 42  1  0
  5 43  1  0
  5 44  1  0
  7 45  1  0
  7 46  1  0
  8 47  1  6
 10 48  1  0
 10 49  1  0
 12 50  1  0
 13 51  1  0
 14 52  1  0
 15 53  1  0
 16 54  1  0
 17 55  1  0
 18 56  1  0
 18 57  1  0
 18 58  1  0
 20 59  1  6
 25 60  1  0
 25 61  1  0
 26 62  1  1
 28 63  1  0
 28 64  1  0
 29 65  1  0
 29 66  1  0
 30 67  1  0
 30 68  1  0
 31 69  1  0
 32 70  1  0
 32 71  1  0
 33 72  1  0
 33 73  1  0
 34 74  1  0
 35 75  1  0
 37 76  1  0
M  END
>  <Ligand ID>  (1) 
LIG0005126

>  <Ligand>  (1) 
CHEMBL2338752

>  <SMILES>  (1) 
CO[C@]12CC[C@]3(C[C@@H]1[C@@](Cc1ccccc1)(O)C)[C@@]14[C@H]2Oc2c4c(C[C@H]3N(CC1)CC1CC1)ccc2O

>  <CID>  (1) 
71624662.0

>  <ChEMBL ID>  (1) 
nan

>  <InChiKey>  (1) 
AGFBWCLIEGGCOZ-PPMCTTEPSA-N

>  <InChi>  (1) 
InChI=1S/C32H39NO4/c1-29(35,17-20-6-4-3-5-7-20)24-18-30-12-13-32(24,36-2)28-31(30)14-15-33(19-21-8-9-21)25(30)16-22-10-11-23(34)27(37-28)26(22)31/h3-7,10-11,21,24-25,28,34-35H,8-9,12-19H2,1-2H3/t24-,25-,28-,29-,30-,31+,32-/m1/s1

>  <IUPAC Name>  (1) 
(1S,2S,6R,14R,15R,16R)-5-(cyclopropylmethyl)-16-[(2R)-2-hydroxy-1-phenylpropan-2-yl]-15-methoxy-13-oxa-5-azahexacyclo[13.2.2.12,8.01,6.02,14.012,20]icosa-8(20),9,11-trien-11-ol

$$$$
