
     RDKit          3D

 36 36  0  0  0  0  0  0  0  0999 V2000
    5.3400   -0.2264   -0.8854 F   0  0  0  0  0  0  0  0  0  0  0  0
    4.9186   -1.0089    0.1699 C   0  0  0  0  0  0  0  0  0  0  0  0
    3.4086   -1.0751    0.1093 C   0  0  0  0  0  0  0  0  0  0  0  0
    2.8194    0.3087    0.2223 C   0  0  0  0  0  0  0  0  0  0  0  0
    1.4277    0.1857    0.1605 O   0  0  0  0  0  0  0  0  0  0  0  0
    0.5071    1.1992    0.2257 C   0  0  0  0  0  0  0  0  0  0  0  0
    0.9581    2.4914    0.3670 C   0  0  0  0  0  0  0  0  0  0  0  0
    0.0004    3.5026    0.4307 C   0  0  0  0  0  0  0  0  0  0  0  0
   -1.3473    3.2122    0.3543 C   0  0  0  0  0  0  0  0  0  0  0  0
   -1.7555    1.9013    0.2127 C   0  0  0  0  0  0  0  0  0  0  0  0
   -0.8280    0.8706    0.1461 C   0  0  0  0  0  0  0  0  0  0  0  0
   -1.2358   -0.5374   -0.0049 C   0  0  2  0  0  0  0  0  0  0  0  0
   -1.3708   -1.0377   -1.4006 C   0  0  0  0  0  0  0  0  0  0  0  0
   -2.5864   -0.8806   -0.5295 C   0  0  1  0  0  0  0  0  0  0  0  0
   -3.2499   -2.1425   -0.0594 C   0  0  0  0  0  0  0  0  0  0  0  0
   -4.5578   -2.3317   -0.6626 N   0  0  0  0  0  0  0  0  0  0  0  0
   -2.5456    4.4862    0.4348 Cl  0  0  0  0  0  0  0  0  0  0  0  0
    0.6925    0.0000    0.0000 Cl  0  0  0  0  0  0  0  0  0  0  0  0
    5.2565   -0.6401    1.1583 H   0  0  0  0  0  0  0  0  0  0  0  0
    5.3248   -2.0400    0.0627 H   0  0  0  0  0  0  0  0  0  0  0  0
    3.0447   -1.6798    0.9657 H   0  0  0  0  0  0  0  0  0  0  0  0
    3.1496   -1.5413   -0.8610 H   0  0  0  0  0  0  0  0  0  0  0  0
    3.1994    0.9501   -0.6170 H   0  0  0  0  0  0  0  0  0  0  0  0
    3.1759    0.7689    1.1582 H   0  0  0  0  0  0  0  0  0  0  0  0
    2.0111    2.7482    0.4296 H   0  0  0  0  0  0  0  0  0  0  0  0
    0.2630    4.5462    0.5412 H   0  0  0  0  0  0  0  0  0  0  0  0
   -2.8010    1.7131    0.1570 H   0  0  0  0  0  0  0  0  0  0  0  0
   -0.7701   -1.2532    0.7254 H   0  0  0  0  0  0  0  0  0  0  0  0
   -0.9973   -2.0509   -1.6525 H   0  0  0  0  0  0  0  0  0  0  0  0
   -1.3316   -0.3105   -2.2522 H   0  0  0  0  0  0  0  0  0  0  0  0
   -3.2994   -0.0527   -0.7345 H   0  0  0  0  0  0  0  0  0  0  0  0
   -2.6297   -3.0369   -0.2377 H   0  0  0  0  0  0  0  0  0  0  0  0
   -3.3938   -2.0533    1.0275 H   0  0  0  0  0  0  0  0  0  0  0  0
   -5.2589   -1.6558   -0.3463 H   0  0  0  0  0  0  0  0  0  0  0  0
   -4.8458   -3.3298   -0.6746 H   0  0  0  0  0  0  0  0  0  0  0  0
   -0.6925    0.0000    0.0000 H   0  0  0  0  0  0  0  0  0  0  0  0
  1  2  1  0
  2  3  1  0
  3  4  1  0
  4  5  1  0
  5  6  1  0
  6  7  2  0
  7  8  1  0
  8  9  2  0
  9 10  1  0
 10 11  2  0
 11 12  1  0
 12 13  1  0
 13 14  1  0
 14 15  1  0
 15 16  1  0
  9 17  1  0
 11  6  1  0
 14 12  1  0
  2 19  1  0
  2 20  1  0
  3 21  1  0
  3 22  1  0
  4 23  1  0
  4 24  1  0
  7 25  1  0
  8 26  1  0
 10 27  1  0
 12 28  1  1
 13 29  1  0
 13 30  1  0
 14 31  1  6
 15 32  1  0
 15 33  1  0
 16 34  1  0
 16 35  1  0
 18 36  1  0
M  END
>  <Ligand ID>  (1) 
LIG0005714

>  <Ligand>  (1) 
CHEMBL3416058

>  <SMILES>  (1) 
FCCCOc1ccc(cc1[C@@H]1C[C@H]1CN)Cl.Cl

>  <CID>  (1) 
118733811.0

>  <ChEMBL ID>  (1) 
nan

>  <InChiKey>  (1) 
YORIIIZOEWGFIW-QLSWKGBWSA-N

>  <InChi>  (1) 
InChI=1S/C13H17ClFNO.ClH/c14-10-2-3-13(17-5-1-4-15)12(7-10)11-6-9(11)8-16;/h2-3,7,9,11H,1,4-6,8,16H2;1H/t9-,11+;/m0./s1

>  <IUPAC Name>  (1) 
[(1R,2R)-2-[5-chloro-2-(3-fluoropropoxy)phenyl]cyclopropyl]methanamine;hydrochloride

$$$$
