
     RDKit          3D

 73 77  0  0  0  0  0  0  0  0999 V2000
   -6.2640    4.9899   -0.8313 C   0  0  0  0  0  0  0  0  0  0  0  0
   -4.7374    5.0630   -0.8310 C   0  0  0  0  0  0  0  0  0  0  0  0
   -4.2378    3.8414   -0.1863 C   0  0  0  0  0  0  0  0  0  0  0  0
   -4.0123    3.7426    1.1779 C   0  0  0  0  0  0  0  0  0  0  0  0
   -3.5544    2.6394    1.8135 C   0  0  0  0  0  0  0  0  0  0  0  0
   -3.2714    1.4817    1.0846 C   0  0  0  0  0  0  0  0  0  0  0  0
   -3.4911    1.5558   -0.2979 C   0  0  0  0  0  0  0  0  0  0  0  0
   -3.9584    2.6924   -0.9209 C   0  0  0  0  0  0  0  0  0  0  0  0
   -3.0344   -0.0644   -0.8592 S   0  0  0  0  0  0  0  0  0  0  0  0
   -2.5922   -0.6755    0.8624 C   0  0  0  0  0  0  0  0  0  0  0  0
   -2.8320    0.3233    1.4955 N   0  0  0  0  0  0  0  0  0  0  0  0
   -2.1469   -1.9711    1.1358 N   0  0  0  0  0  0  0  0  0  0  0  0
   -0.7631   -2.3667    1.0009 C   0  0  0  0  0  0  0  0  0  0  0  0
   -0.3923   -3.5541    1.2995 O   0  0  0  0  0  0  0  0  0  0  0  0
    0.2779   -1.4803    0.5321 C   0  0  0  0  0  0  0  0  0  0  0  0
    1.0857   -1.9711   -0.4981 C   0  0  0  0  0  0  0  0  0  0  0  0
    2.1154   -1.2264   -1.0292 C   0  0  0  0  0  0  0  0  0  0  0  0
    2.3668    0.0351   -0.5427 C   0  0  0  0  0  0  0  0  0  0  0  0
    1.5837    0.5447    0.4745 C   0  0  0  0  0  0  0  0  0  0  0  0
    0.5378   -0.2230    1.0078 C   0  0  0  0  0  0  0  0  0  0  0  0
    3.6962    0.9161   -1.2611 S   0  0  0  0  0  0  0  0  0  0  0  0
    3.8924    0.4952   -2.7117 O   0  0  0  0  0  0  0  0  0  0  0  0
    3.3248    2.3855   -1.3404 O   0  0  0  0  0  0  0  0  0  0  0  0
    5.1639    0.7806   -0.4798 N   0  0  0  0  0  0  0  0  0  0  0  0
    5.7667   -0.4860   -0.3600 C   0  0  0  0  0  0  0  0  0  0  0  0
    6.9584   -0.4424    0.5681 C   0  0  0  0  0  0  0  0  0  0  0  0
    7.8447    0.7233    0.2266 C   0  0  0  0  0  0  0  0  0  0  0  0
    7.1594    1.9282    0.0450 C   0  0  0  0  0  0  0  0  0  0  0  0
    5.6871    1.8770    0.2247 C   0  0  0  0  0  0  0  0  0  0  0  0
    7.8411    3.0852   -0.2782 C   0  0  0  0  0  0  0  0  0  0  0  0
    9.2187    2.9722   -0.4066 C   0  0  0  0  0  0  0  0  0  0  0  0
    9.8906    1.7815   -0.2262 C   0  0  0  0  0  0  0  0  0  0  0  0
    9.2038    0.6186    0.0987 C   0  0  0  0  0  0  0  0  0  0  0  0
   -3.0276   -2.9897    1.6614 C   0  0  0  0  0  0  0  0  0  0  0  0
   -3.6526   -3.9300    0.7181 C   0  0  0  0  0  0  0  0  0  0  0  0
   -4.5258   -3.3516   -0.3590 C   0  0  0  0  0  0  0  0  0  0  0  0
   -5.0769   -4.4478   -1.1594 N   0  0  0  0  0  0  0  0  0  0  0  0
   -5.9019   -3.9181   -2.2277 C   0  0  0  0  0  0  0  0  0  0  0  0
   -5.8360   -5.3755   -0.3587 C   0  0  0  0  0  0  0  0  0  0  0  0
   -6.7127    5.8449   -1.3441 H   0  0  0  0  0  0  0  0  0  0  0  0
   -6.5474    4.9314    0.2380 H   0  0  0  0  0  0  0  0  0  0  0  0
   -6.5162    4.0236   -1.3087 H   0  0  0  0  0  0  0  0  0  0  0  0
   -4.4600    5.0403   -1.9232 H   0  0  0  0  0  0  0  0  0  0  0  0
   -4.3509    6.0010   -0.4314 H   0  0  0  0  0  0  0  0  0  0  0  0
   -4.2368    4.6537    1.7547 H   0  0  0  0  0  0  0  0  0  0  0  0
   -3.4155    2.6739    2.8791 H   0  0  0  0  0  0  0  0  0  0  0  0
   -4.0992    2.6572   -1.9929 H   0  0  0  0  0  0  0  0  0  0  0  0
    0.9157   -2.9565   -0.9021 H   0  0  0  0  0  0  0  0  0  0  0  0
    2.7180   -1.6441   -1.8265 H   0  0  0  0  0  0  0  0  0  0  0  0
    1.7868    1.5390    0.8510 H   0  0  0  0  0  0  0  0  0  0  0  0
   -0.0739    0.1592    1.8006 H   0  0  0  0  0  0  0  0  0  0  0  0
    5.1172   -1.3186   -0.0489 H   0  0  0  0  0  0  0  0  0  0  0  0
    6.1634   -0.7961   -1.3693 H   0  0  0  0  0  0  0  0  0  0  0  0
    6.6508   -0.3824    1.6276 H   0  0  0  0  0  0  0  0  0  0  0  0
    7.5841   -1.3444    0.4705 H   0  0  0  0  0  0  0  0  0  0  0  0
    5.4869    1.8791    1.3161 H   0  0  0  0  0  0  0  0  0  0  0  0
    5.2587    2.8079   -0.2035 H   0  0  0  0  0  0  0  0  0  0  0  0
    7.3086    3.9956   -0.4166 H   0  0  0  0  0  0  0  0  0  0  0  0
    9.8134    3.8398   -0.6546 H   0  0  0  0  0  0  0  0  0  0  0  0
   10.9504    1.7538   -0.3390 H   0  0  0  0  0  0  0  0  0  0  0  0
    9.6870   -0.3260    0.2500 H   0  0  0  0  0  0  0  0  0  0  0  0
   -3.8754   -2.4672    2.2131 H   0  0  0  0  0  0  0  0  0  0  0  0
   -2.5233   -3.5557    2.4987 H   0  0  0  0  0  0  0  0  0  0  0  0
   -2.8643   -4.5579    0.2271 H   0  0  0  0  0  0  0  0  0  0  0  0
   -4.2561   -4.7089    1.2836 H   0  0  0  0  0  0  0  0  0  0  0  0
   -3.8914   -2.7741   -1.0757 H   0  0  0  0  0  0  0  0  0  0  0  0
   -5.3028   -2.6732    0.0185 H   0  0  0  0  0  0  0  0  0  0  0  0
   -5.7783   -2.8348   -2.3845 H   0  0  0  0  0  0  0  0  0  0  0  0
   -6.9566   -4.1561   -1.9801 H   0  0  0  0  0  0  0  0  0  0  0  0
   -5.6817   -4.4608   -3.1880 H   0  0  0  0  0  0  0  0  0  0  0  0
   -6.1607   -4.9125    0.5869 H   0  0  0  0  0  0  0  0  0  0  0  0
   -5.2664   -6.3077   -0.2387 H   0  0  0  0  0  0  0  0  0  0  0  0
   -6.7784   -5.6223   -0.9228 H   0  0  0  0  0  0  0  0  0  0  0  0
  1  2  1  0
  2  3  1  0
  3  4  2  0
  4  5  1  0
  5  6  2  0
  6  7  1  0
  7  8  2  0
  7  9  1  0
  9 10  1  0
 10 11  2  0
 10 12  1  0
 12 13  1  0
 13 14  2  0
 13 15  1  0
 15 16  2  0
 16 17  1  0
 17 18  2  0
 18 19  1  0
 19 20  2  0
 18 21  1  0
 21 22  2  0
 21 23  2  0
 21 24  1  0
 24 25  1  0
 25 26  1  0
 26 27  1  0
 27 28  2  0
 28 29  1  0
 28 30  1  0
 30 31  2  0
 31 32  1  0
 32 33  2  0
 12 34  1  0
 34 35  1  0
 35 36  1  0
 36 37  1  0
 37 38  1  0
 37 39  1  0
  8  3  1  0
 20 15  1  0
 29 24  1  0
 11  6  1  0
 33 27  1  0
  1 40  1  0
  1 41  1  0
  1 42  1  0
  2 43  1  0
  2 44  1  0
  4 45  1  0
  5 46  1  0
  8 47  1  0
 16 48  1  0
 17 49  1  0
 19 50  1  0
 20 51  1  0
 25 52  1  0
 25 53  1  0
 26 54  1  0
 26 55  1  0
 29 56  1  0
 29 57  1  0
 30 58  1  0
 31 59  1  0
 32 60  1  0
 33 61  1  0
 34 62  1  0
 34 63  1  0
 35 64  1  0
 35 65  1  0
 36 66  1  0
 36 67  1  0
 38 68  1  0
 38 69  1  0
 38 70  1  0
 39 71  1  0
 39 72  1  0
 39 73  1  0
M  END
>  <Ligand ID>  (1) 
LIG0004122

>  <Ligand>  (1) 
MLS001239341

>  <SMILES>  (1) 
CCc1ccc2c(c1)sc(n2)N(C(=O)c1ccc(cc1)S(=O)(=O)N1CCc2c(C1)cccc2)CCCN(C)C

>  <CID>  (1) 
24892560.0

>  <ChEMBL ID>  (1) 
nan

>  <InChiKey>  (1) 
YLRRAAAQNUKZCI-UHFFFAOYSA-N

>  <InChi>  (1) 
InChI=1S/C30H34N4O3S2/c1-4-22-10-15-27-28(20-22)38-30(31-27)34(18-7-17-32(2)3)29(35)24-11-13-26(14-12-24)39(36,37)33-19-16-23-8-5-6-9-25(23)21-33/h5-6,8-15,20H,4,7,16-19,21H2,1-3H3

>  <IUPAC Name>  (1) 
4-(3,4-dihydro-1H-isoquinolin-2-ylsulfonyl)-N-[3-(dimethylamino)propyl]-N-(6-ethyl-1,3-benzothiazol-2-yl)benzamide

$$$$
