
     RDKit          3D

 48 48  0  0  0  0  0  0  0  0999 V2000
   -4.2797    2.6760    1.8373 C   0  0  0  0  0  0  0  0  0  0  0  0
   -4.4648    1.2827    2.4004 C   0  0  0  0  0  0  0  0  0  0  0  0
   -4.2812    0.3626    1.3831 O   0  0  0  0  0  0  0  0  0  0  0  0
   -3.1454    0.1639    0.6164 C   0  0  0  0  0  0  0  0  0  0  0  0
   -1.9825    0.8896    0.7704 C   0  0  0  0  0  0  0  0  0  0  0  0
   -0.8538    0.6918    0.0077 C   0  0  0  0  0  0  0  0  0  0  0  0
   -0.8997   -0.2816   -0.9536 C   0  0  0  0  0  0  0  0  0  0  0  0
   -2.0627   -1.0210   -1.1215 C   0  0  0  0  0  0  0  0  0  0  0  0
   -3.1920   -0.8280   -0.3629 C   0  0  0  0  0  0  0  0  0  0  0  0
   -4.3621   -1.5525   -0.5100 O   0  0  0  0  0  0  0  0  0  0  0  0
   -4.5018   -2.5838   -1.4589 C   0  0  0  0  0  0  0  0  0  0  0  0
   -3.5637   -3.7122   -1.2550 C   0  0  0  0  0  0  0  0  0  0  0  0
   -3.5934   -4.6614   -2.0848 O   0  0  0  0  0  0  0  0  0  0  0  0
   -2.6577   -3.7904   -0.2101 O   0  0  0  0  0  0  0  0  0  0  0  0
    0.3835    1.4936    0.2008 C   0  0  0  0  0  0  0  0  0  0  0  0
    1.5278    0.5180    1.1973 P   0  0  0  0  0  0  0  0  0  0  0  0
    1.2104    0.8130    2.6446 O   0  0  0  0  0  0  0  0  0  0  0  0
    3.2421    0.9207    0.8732 C   0  0  0  0  0  0  0  0  0  0  0  0
    3.8929   -0.0900   -0.0480 C   0  0  0  0  0  0  0  0  0  0  0  0
    5.3318    0.2882   -0.2928 C   0  0  1  0  0  0  0  0  0  0  0  0
    5.9216   -0.7338   -1.2004 C   0  0  0  0  0  0  0  0  0  0  0  0
    5.9521   -1.9291   -0.7535 O   0  0  0  0  0  0  0  0  0  0  0  0
    6.4155   -0.4234   -2.4650 O   0  0  0  0  0  0  0  0  0  0  0  0
    5.3854    1.5876   -0.9698 N   0  0  0  0  0  0  0  0  0  0  0  0
    1.2338   -1.1166    0.8211 O   0  0  0  0  0  0  0  0  0  0  0  0
    0.8822    1.8916   -1.0143 O   0  0  0  0  0  0  0  0  0  0  0  0
   -3.5020    3.2337    2.4064 H   0  0  0  0  0  0  0  0  0  0  0  0
   -5.2542    3.2110    1.8418 H   0  0  0  0  0  0  0  0  0  0  0  0
   -3.9569    2.6833    0.7750 H   0  0  0  0  0  0  0  0  0  0  0  0
   -5.4890    1.1870    2.8044 H   0  0  0  0  0  0  0  0  0  0  0  0
   -3.7440    1.1583    3.2492 H   0  0  0  0  0  0  0  0  0  0  0  0
   -1.9264    1.6613    1.5251 H   0  0  0  0  0  0  0  0  0  0  0  0
   -0.0430   -0.4688   -1.5701 H   0  0  0  0  0  0  0  0  0  0  0  0
   -2.0421   -1.7646   -1.8955 H   0  0  0  0  0  0  0  0  0  0  0  0
   -4.3301   -2.1875   -2.5027 H   0  0  0  0  0  0  0  0  0  0  0  0
   -5.5605   -2.9236   -1.4704 H   0  0  0  0  0  0  0  0  0  0  0  0
   -1.7228   -4.1641   -0.3639 H   0  0  0  0  0  0  0  0  0  0  0  0
    0.0916    2.4382    0.7416 H   0  0  0  0  0  0  0  0  0  0  0  0
    3.3010    1.9096    0.3773 H   0  0  0  0  0  0  0  0  0  0  0  0
    3.7901    0.9411    1.8358 H   0  0  0  0  0  0  0  0  0  0  0  0
    3.3716   -0.1216   -1.0158 H   0  0  0  0  0  0  0  0  0  0  0  0
    3.8691   -1.1067    0.3905 H   0  0  0  0  0  0  0  0  0  0  0  0
    5.9334    0.3587    0.6142 H   0  0  0  0  0  0  0  0  0  0  0  0
    7.0291   -1.0903   -2.9461 H   0  0  0  0  0  0  0  0  0  0  0  0
    4.8355    1.4660   -1.8667 H   0  0  0  0  0  0  0  0  0  0  0  0
    6.3678    1.7573   -1.2799 H   0  0  0  0  0  0  0  0  0  0  0  0
    1.1457   -1.6675    1.6341 H   0  0  0  0  0  0  0  0  0  0  0  0
    0.2976    2.6339   -1.3359 H   0  0  0  0  0  0  0  0  0  0  0  0
  1  2  1  0
  2  3  1  0
  3  4  1  0
  4  5  2  0
  5  6  1  0
  6  7  2  0
  7  8  1  0
  8  9  2  0
  9 10  1  0
 10 11  1  0
 11 12  1  0
 12 13  2  0
 12 14  1  0
  6 15  1  0
 15 16  1  0
 16 17  2  0
 16 18  1  0
 18 19  1  0
 19 20  1  0
 20 21  1  0
 21 22  2  0
 21 23  1  0
 20 24  1  0
 16 25  1  0
 15 26  1  0
  9  4  1  0
  1 27  1  0
  1 28  1  0
  1 29  1  0
  2 30  1  0
  2 31  1  0
  5 32  1  0
  7 33  1  0
  8 34  1  0
 11 35  1  0
 11 36  1  0
 14 37  1  0
 15 38  1  0
 18 39  1  0
 18 40  1  0
 19 41  1  0
 19 42  1  0
 20 43  1  1
 23 44  1  0
 24 45  1  0
 24 46  1  0
 25 47  1  0
 26 48  1  0
M  END
>  <Ligand ID>  (1) 
LIG0004473

>  <Ligand>  (1) 
CHEMBL3941586

>  <SMILES>  (1) 
CCOc1cc(ccc1OCC(=O)O)C(P(=O)(CC[C@@H](C(=O)O)N)O)O

>  <CID>  (1) 
71041747.0

>  <ChEMBL ID>  (1) 
nan

>  <InChiKey>  (1) 
DUVRKQMGYBQIIA-MYHCZTBNSA-N

>  <InChi>  (1) 
InChI=1S/C15H22NO9P/c1-2-24-12-7-9(3-4-11(12)25-8-13(17)18)15(21)26(22,23)6-5-10(16)14(19)20/h3-4,7,10,15,21H,2,5-6,8,16H2,1H3,(H,17,18)(H,19,20)(H,22,23)/t10-,15?/m0/s1

>  <IUPAC Name>  (1) 
(2S)-2-amino-4-[[[4-(carboxymethoxy)-3-ethoxyphenyl]-hydroxymethyl]-hydroxyphosphoryl]butanoic acid

$$$$
