
     RDKit          3D

 62 61  0  0  0  0  0  0  0  0999 V2000
   -8.6330   -0.8687   -2.3971 C   0  0  0  0  0  0  0  0  0  0  0  0
   -8.8058   -1.5417   -1.0770 C   0  0  0  0  0  0  0  0  0  0  0  0
   -7.5123   -1.6920   -0.3156 C   0  0  0  0  0  0  0  0  0  0  0  0
   -6.8563   -0.3556   -0.0217 C   0  0  0  0  0  0  0  0  0  0  0  0
   -5.5754   -0.7149    0.7462 C   0  0  0  0  0  0  0  0  0  0  0  0
   -4.7977    0.5037    1.1184 C   0  0  0  0  0  0  0  0  0  0  0  0
   -3.5565    0.0755    1.8712 C   0  0  0  0  0  0  0  0  0  0  0  0
   -2.6613   -0.8301    1.0470 C   0  0  0  0  0  0  0  0  0  0  0  0
   -2.2678   -0.0653   -0.1535 C   0  0  0  0  0  0  0  0  0  0  0  0
   -1.0403    0.2450   -0.5103 C   0  0  0  0  0  0  0  0  0  0  0  0
    0.1945   -0.1135    0.2250 C   0  0  0  0  0  0  0  0  0  0  0  0
    0.9730    1.0916    0.6552 C   0  0  0  0  0  0  0  0  0  0  0  0
    2.2001    0.6631    1.4102 C   0  0  0  0  0  0  0  0  0  0  0  0
    3.0884   -0.2016    0.5720 C   0  0  0  0  0  0  0  0  0  0  0  0
    3.5140    0.5373   -0.6678 C   0  0  0  0  0  0  0  0  0  0  0  0
    4.2475    1.7820   -0.3000 C   0  0  0  0  0  0  0  0  0  0  0  0
    5.4735    1.5429    0.5146 C   0  0  0  0  0  0  0  0  0  0  0  0
    6.5040    0.7144   -0.1535 C   0  0  0  0  0  0  0  0  0  0  0  0
    6.3358    0.3077   -1.3281 O   0  0  0  0  0  0  0  0  0  0  0  0
    7.6860    0.3877    0.5573 N   0  0  0  0  0  0  0  0  0  0  0  0
    8.7715   -0.3969    0.0495 C   0  0  0  0  0  0  0  0  0  0  0  0
    9.4732    0.1447   -1.1459 C   0  0  0  0  0  0  0  0  0  0  0  0
    8.7246    0.3287   -2.2716 O   0  0  0  0  0  0  0  0  0  0  0  0
   -8.0684   -1.5134   -3.0691 H   0  0  0  0  0  0  0  0  0  0  0  0
   -8.1852    0.1341   -2.2483 H   0  0  0  0  0  0  0  0  0  0  0  0
   -9.6525   -0.6755   -2.7978 H   0  0  0  0  0  0  0  0  0  0  0  0
   -9.1551   -2.5802   -1.2814 H   0  0  0  0  0  0  0  0  0  0  0  0
   -9.5734   -1.0884   -0.4231 H   0  0  0  0  0  0  0  0  0  0  0  0
   -6.7790   -2.2498   -0.9390 H   0  0  0  0  0  0  0  0  0  0  0  0
   -7.6915   -2.1823    0.6458 H   0  0  0  0  0  0  0  0  0  0  0  0
   -6.5106    0.1679   -0.9325 H   0  0  0  0  0  0  0  0  0  0  0  0
   -7.4985    0.2808    0.6170 H   0  0  0  0  0  0  0  0  0  0  0  0
   -5.0456   -1.4257    0.0885 H   0  0  0  0  0  0  0  0  0  0  0  0
   -5.9435   -1.1888    1.6793 H   0  0  0  0  0  0  0  0  0  0  0  0
   -5.4371    1.0672    1.8562 H   0  0  0  0  0  0  0  0  0  0  0  0
   -4.5493    1.1650    0.2767 H   0  0  0  0  0  0  0  0  0  0  0  0
   -2.9408    1.0071    2.0442 H   0  0  0  0  0  0  0  0  0  0  0  0
   -3.8048   -0.3726    2.8479 H   0  0  0  0  0  0  0  0  0  0  0  0
   -3.1736   -1.7816    0.7844 H   0  0  0  0  0  0  0  0  0  0  0  0
   -1.8290   -1.1151    1.7104 H   0  0  0  0  0  0  0  0  0  0  0  0
   -3.0780    0.2726   -0.8058 H   0  0  0  0  0  0  0  0  0  0  0  0
   -0.8891    0.8247   -1.4381 H   0  0  0  0  0  0  0  0  0  0  0  0
    0.0460   -0.8030    1.0681 H   0  0  0  0  0  0  0  0  0  0  0  0
    0.8565   -0.6723   -0.5008 H   0  0  0  0  0  0  0  0  0  0  0  0
    1.2260    1.6901   -0.2400 H   0  0  0  0  0  0  0  0  0  0  0  0
    0.3406    1.7876    1.2757 H   0  0  0  0  0  0  0  0  0  0  0  0
    2.7418    1.5140    1.8784 H   0  0  0  0  0  0  0  0  0  0  0  0
    1.9021    0.0100    2.2892 H   0  0  0  0  0  0  0  0  0  0  0  0
    2.5794   -1.1797    0.3379 H   0  0  0  0  0  0  0  0  0  0  0  0
    4.0002   -0.5338    1.1435 H   0  0  0  0  0  0  0  0  0  0  0  0
    4.1023   -0.1910   -1.2723 H   0  0  0  0  0  0  0  0  0  0  0  0
    2.6376    0.7901   -1.3164 H   0  0  0  0  0  0  0  0  0  0  0  0
    4.4873    2.3747   -1.2293 H   0  0  0  0  0  0  0  0  0  0  0  0
    3.5594    2.4194    0.2941 H   0  0  0  0  0  0  0  0  0  0  0  0
    5.1582    1.0931    1.4898 H   0  0  0  0  0  0  0  0  0  0  0  0
    5.9496    2.5231    0.8009 H   0  0  0  0  0  0  0  0  0  0  0  0
    7.7408    0.7734    1.5505 H   0  0  0  0  0  0  0  0  0  0  0  0
    8.4763   -1.4626   -0.1146 H   0  0  0  0  0  0  0  0  0  0  0  0
    9.5530   -0.4622    0.8627 H   0  0  0  0  0  0  0  0  0  0  0  0
   10.3024   -0.5692   -1.3903 H   0  0  0  0  0  0  0  0  0  0  0  0
    9.9714    1.0996   -0.8628 H   0  0  0  0  0  0  0  0  0  0  0  0
    8.6942   -0.4914   -2.8283 H   0  0  0  0  0  0  0  0  0  0  0  0
  1  2  1  0
  2  3  1  0
  3  4  1  0
  4  5  1  0
  5  6  1  0
  6  7  1  0
  7  8  1  0
  8  9  1  0
  9 10  2  0
 10 11  1  0
 11 12  1  0
 12 13  1  0
 13 14  1  0
 14 15  1  0
 15 16  1  0
 16 17  1  0
 17 18  1  0
 18 19  2  0
 18 20  1  0
 20 21  1  0
 21 22  1  0
 22 23  1  0
  1 24  1  0
  1 25  1  0
  1 26  1  0
  2 27  1  0
  2 28  1  0
  3 29  1  0
  3 30  1  0
  4 31  1  0
  4 32  1  0
  5 33  1  0
  5 34  1  0
  6 35  1  0
  6 36  1  0
  7 37  1  0
  7 38  1  0
  8 39  1  0
  8 40  1  0
  9 41  1  0
 10 42  1  0
 11 43  1  0
 11 44  1  0
 12 45  1  0
 12 46  1  0
 13 47  1  0
 13 48  1  0
 14 49  1  0
 14 50  1  0
 15 51  1  0
 15 52  1  0
 16 53  1  0
 16 54  1  0
 17 55  1  0
 17 56  1  0
 20 57  1  0
 21 58  1  0
 21 59  1  0
 22 60  1  0
 22 61  1  0
 23 62  1  0
M  END
>  <Ligand ID>  (1) 
LIG0004223

>  <Ligand>  (1) 
N-oleoylethanolamide

>  <SMILES>  (1) 
CCCCCCCC/C=C\CCCCCCCC(=O)NCCO

>  <CID>  (1) 
5283454.0

>  <ChEMBL ID>  (1) 
nan

>  <InChiKey>  (1) 
BOWVQLFMWHZBEF-KTKRTIGZSA-N

>  <InChi>  (1) 
InChI=1S/C20H39NO2/c1-2-3-4-5-6-7-8-9-10-11-12-13-14-15-16-17-20(23)21-18-19-22/h9-10,22H,2-8,11-19H2,1H3,(H,21,23)/b10-9-

>  <IUPAC Name>  (1) 
(Z)-N-(2-hydroxyethyl)octadec-9-enamide

$$$$
