
     RDKit          3D

 25 25  0  0  0  0  0  0  0  0999 V2000
    4.1259    0.9071    0.1020 O   0  0  0  0  0  0  0  0  0  0  0  0
    2.7598    1.1274    0.2192 C   0  0  0  0  0  0  0  0  0  0  0  0
    2.3360    1.6314    1.3026 O   0  0  0  0  0  0  0  0  0  0  0  0
    1.8059    0.7813   -0.9000 C   0  0  0  0  0  0  0  0  0  0  0  0
    1.4036   -0.5812   -0.6854 N   0  0  0  0  0  0  0  0  0  0  0  0
    2.1000   -1.6111   -1.1967 N   0  0  0  0  0  0  0  0  0  0  0  0
    1.5501   -2.7625   -0.8519 N   0  0  0  0  0  0  0  0  0  0  0  0
    0.4836   -2.5023   -0.1087 C   0  0  0  0  0  0  0  0  0  0  0  0
    0.3922   -1.1134   -0.0045 C   0  0  0  0  0  0  0  0  0  0  0  0
   -0.6707   -0.4269    0.7258 C   0  0  0  0  0  0  0  0  0  0  0  0
   -1.8905   -0.1636   -0.1001 C   0  0  1  0  0  0  0  0  0  0  0  0
   -2.8880    0.5423    0.7624 C   0  0  0  0  0  0  0  0  0  0  0  0
   -3.2998    0.0794    1.8491 O   0  0  0  0  0  0  0  0  0  0  0  0
   -3.3910    1.7801    0.3438 O   0  0  0  0  0  0  0  0  0  0  0  0
   -1.5590    0.5337   -1.2816 N   0  0  0  0  0  0  0  0  0  0  0  0
    4.6856    0.6946    0.9196 H   0  0  0  0  0  0  0  0  0  0  0  0
    0.9881    1.4959   -0.9605 H   0  0  0  0  0  0  0  0  0  0  0  0
    2.4383    0.8867   -1.8250 H   0  0  0  0  0  0  0  0  0  0  0  0
   -0.2167   -3.2138    0.3534 H   0  0  0  0  0  0  0  0  0  0  0  0
   -1.0023   -1.0850    1.5829 H   0  0  0  0  0  0  0  0  0  0  0  0
   -0.2869    0.4875    1.2201 H   0  0  0  0  0  0  0  0  0  0  0  0
   -2.3953   -1.1245   -0.3768 H   0  0  0  0  0  0  0  0  0  0  0  0
   -4.2884    2.0910    0.7224 H   0  0  0  0  0  0  0  0  0  0  0  0
   -1.7621    1.5348   -1.3327 H   0  0  0  0  0  0  0  0  0  0  0  0
   -1.4187    0.0112   -2.1436 H   0  0  0  0  0  0  0  0  0  0  0  0
  1  2  1  0
  2  3  2  0
  2  4  1  0
  4  5  1  0
  5  6  1  0
  6  7  2  0
  7  8  1  0
  8  9  2  0
  9 10  1  0
 10 11  1  0
 11 12  1  0
 12 13  2  0
 12 14  1  0
 11 15  1  0
  9  5  1  0
  1 16  1  0
  4 17  1  0
  4 18  1  0
  8 19  1  0
 10 20  1  0
 10 21  1  0
 11 22  1  6
 14 23  1  0
 15 24  1  0
 15 25  1  0
M  END
>  <Ligand ID>  (1) 
LIG0005754

>  <Ligand>  (1) 
CHEMBL1288491

>  <SMILES>  (1) 
OC(=O)Cn1nncc1C[C@@H](C(=O)O)N

>  <CID>  (1) 
52947499.0

>  <ChEMBL ID>  (1) 
nan

>  <InChiKey>  (1) 
ITTZODMSXFGBDQ-YFKPBYRVSA-N

>  <InChi>  (1) 
InChI=1S/C7H10N4O4/c8-5(7(14)15)1-4-2-9-10-11(4)3-6(12)13/h2,5H,1,3,8H2,(H,12,13)(H,14,15)/t5-/m0/s1

>  <IUPAC Name>  (1) 
(2S)-2-amino-3-[3-(carboxymethyl)triazol-4-yl]propanoic acid

$$$$
