
     RDKit          3D

 90 96  0  0  0  0  0  0  0  0999 V2000
   -3.6172    0.3163   -1.5845 O   0  0  0  0  0  0  0  0  0  0  0  0
   -4.0193    0.6101   -0.4139 C   0  0  0  0  0  0  0  0  0  0  0  0
   -5.4073    1.1260   -0.3052 C   0  0  2  0  0  0  0  0  0  0  0  0
   -5.8470    1.4148    1.0088 N   0  0  0  0  0  0  0  0  0  0  0  0
   -7.2473    1.5940    1.1182 C   0  0  0  0  0  0  0  0  0  0  0  0
   -8.0059    1.8002   -0.1161 C   0  0  0  0  0  0  0  0  0  0  0  0
   -7.5956    1.0785   -1.2371 C   0  0  0  0  0  0  0  0  0  0  0  0
   -6.3964    0.1977   -0.9825 C   0  0  0  0  0  0  0  0  0  0  0  0
   -8.2094    1.1608   -2.4567 C   0  0  0  0  0  0  0  0  0  0  0  0
   -9.2973    2.0130   -2.5657 C   0  0  0  0  0  0  0  0  0  0  0  0
   -9.7447    2.7559   -1.4728 C   0  0  0  0  0  0  0  0  0  0  0  0
   -9.0900    2.6435   -0.2443 C   0  0  0  0  0  0  0  0  0  0  0  0
   -3.1377    0.4264    0.6549 N   0  0  0  0  0  0  0  0  0  0  0  0
   -1.7750   -0.0968    0.4555 C   0  0  1  0  0  0  0  0  0  0  0  0
   -0.7741    0.7829    1.0624 C   0  0  0  0  0  0  0  0  0  0  0  0
   -1.1804    1.7875    1.7102 O   0  0  0  0  0  0  0  0  0  0  0  0
    0.6309    0.5949    0.9778 N   0  0  0  0  0  0  0  0  0  0  0  0
    1.5473    1.5188    1.6279 C   0  0  0  0  0  0  0  0  0  0  0  0
    2.7008    1.9269    0.7970 C   0  0  0  0  0  0  0  0  0  0  0  0
    3.4217    0.7428    0.0929 C   0  0  0  0  0  0  0  0  0  0  0  0
    2.3309    0.0075   -0.6258 C   0  0  0  0  0  0  0  0  0  0  0  0
    1.2456   -0.5025    0.2505 C   0  0  0  0  0  0  0  0  0  0  0  0
    4.3170    1.4486   -0.8571 C   0  0  0  0  0  0  0  0  0  0  0  0
    5.1489    0.7476   -1.7500 N   0  0  0  0  0  0  0  0  0  0  0  0
    4.6424    0.3032   -3.0609 C   0  0  0  0  0  0  0  0  0  0  0  0
    3.7310    0.8958   -3.7230 O   0  0  0  0  0  0  0  0  0  0  0  0
    5.3512   -0.8428   -3.3793 O   0  0  0  0  0  0  0  0  0  0  0  0
    6.6275   -0.7966   -2.7916 C   0  0  0  0  0  0  0  0  0  0  0  0
    6.5225    0.3244   -1.8038 C   0  0  0  0  0  0  0  0  0  0  0  0
    7.3829    0.1793   -0.5829 C   0  0  0  0  0  0  0  0  0  0  0  0
    7.6352    1.2687   -1.5931 C   0  0  0  0  0  0  0  0  0  0  0  0
    3.9894   -0.0439    1.2171 C   0  0  0  0  0  0  0  0  0  0  0  0
    4.6389   -1.3339    0.9000 C   0  0  0  0  0  0  0  0  0  0  0  0
    5.7361   -1.8545    1.7145 C   0  0  0  0  0  0  0  0  0  0  0  0
    6.3132   -1.0356    2.8010 C   0  0  0  0  0  0  0  0  0  0  0  0
    5.2945   -0.1061    3.3503 C   0  0  0  0  0  0  0  0  0  0  0  0
    4.7184    0.7658    2.2643 C   0  0  0  0  0  0  0  0  0  0  0  0
   -1.8033   -1.4370    1.2073 C   0  0  0  0  0  0  0  0  0  0  0  0
   -2.8168   -2.3502    0.6506 C   0  0  0  0  0  0  0  0  0  0  0  0
   -2.4122   -3.2010   -0.3653 C   0  0  0  0  0  0  0  0  0  0  0  0
   -3.2872   -4.0840   -0.9437 C   0  0  0  0  0  0  0  0  0  0  0  0
   -4.5891   -4.1581   -0.5416 C   0  0  0  0  0  0  0  0  0  0  0  0
   -5.0191   -3.3139    0.4772 C   0  0  0  0  0  0  0  0  0  0  0  0
   -4.1225   -2.4179    1.0615 C   0  0  0  0  0  0  0  0  0  0  0  0
   -5.7035   -5.2978   -1.2910 Cl  0  0  0  0  0  0  0  0  0  0  0  0
   -5.4789    2.1003   -0.8803 H   0  0  0  0  0  0  0  0  0  0  0  0
   -5.4506    0.8008    1.7516 H   0  0  0  0  0  0  0  0  0  0  0  0
   -7.4520    2.4886    1.7693 H   0  0  0  0  0  0  0  0  0  0  0  0
   -7.7544    0.7495    1.6587 H   0  0  0  0  0  0  0  0  0  0  0  0
   -6.0318   -0.2551   -1.9043 H   0  0  0  0  0  0  0  0  0  0  0  0
   -6.7953   -0.5865   -0.2922 H   0  0  0  0  0  0  0  0  0  0  0  0
   -7.8374    0.5724   -3.2860 H   0  0  0  0  0  0  0  0  0  0  0  0
   -9.7931    2.0880   -3.5220 H   0  0  0  0  0  0  0  0  0  0  0  0
  -10.5894    3.4206   -1.5440 H   0  0  0  0  0  0  0  0  0  0  0  0
   -9.4038    3.2022    0.6280 H   0  0  0  0  0  0  0  0  0  0  0  0
   -3.4385    0.6635    1.6207 H   0  0  0  0  0  0  0  0  0  0  0  0
   -1.6033   -0.3198   -0.6018 H   0  0  0  0  0  0  0  0  0  0  0  0
    0.9378    2.4647    1.7933 H   0  0  0  0  0  0  0  0  0  0  0  0
    1.7736    1.1914    2.6642 H   0  0  0  0  0  0  0  0  0  0  0  0
    2.2701    2.5167   -0.0757 H   0  0  0  0  0  0  0  0  0  0  0  0
    3.3803    2.5897    1.3128 H   0  0  0  0  0  0  0  0  0  0  0  0
    1.8414    0.7864   -1.2863 H   0  0  0  0  0  0  0  0  0  0  0  0
    2.6775   -0.7563   -1.3474 H   0  0  0  0  0  0  0  0  0  0  0  0
    0.4332   -0.8778   -0.4461 H   0  0  0  0  0  0  0  0  0  0  0  0
    1.4874   -1.3172    0.9252 H   0  0  0  0  0  0  0  0  0  0  0  0
    4.8701    2.2351   -0.2599 H   0  0  0  0  0  0  0  0  0  0  0  0
    3.6168    2.1093   -1.4642 H   0  0  0  0  0  0  0  0  0  0  0  0
    6.9180   -1.7632   -2.2984 H   0  0  0  0  0  0  0  0  0  0  0  0
    7.4191   -0.5163   -3.5363 H   0  0  0  0  0  0  0  0  0  0  0  0
    8.2000   -0.6052   -0.6090 H   0  0  0  0  0  0  0  0  0  0  0  0
    7.0291    0.4204    0.4104 H   0  0  0  0  0  0  0  0  0  0  0  0
    8.5227    1.2189   -2.2612 H   0  0  0  0  0  0  0  0  0  0  0  0
    7.4351    2.2860   -1.2130 H   0  0  0  0  0  0  0  0  0  0  0  0
    3.0353   -0.3384    1.7859 H   0  0  0  0  0  0  0  0  0  0  0  0
    3.8405   -2.1620    0.8807 H   0  0  0  0  0  0  0  0  0  0  0  0
    4.9441   -1.3334   -0.1855 H   0  0  0  0  0  0  0  0  0  0  0  0
    6.6199   -2.1416    1.0527 H   0  0  0  0  0  0  0  0  0  0  0  0
    5.4837   -2.8681    2.1669 H   0  0  0  0  0  0  0  0  0  0  0  0
    6.6113   -1.7058    3.6729 H   0  0  0  0  0  0  0  0  0  0  0  0
    7.2843   -0.5408    2.5514 H   0  0  0  0  0  0  0  0  0  0  0  0
    4.5352   -0.6868    3.9065 H   0  0  0  0  0  0  0  0  0  0  0  0
    5.8426    0.5771    4.0622 H   0  0  0  0  0  0  0  0  0  0  0  0
    5.5261    1.4061    1.8797 H   0  0  0  0  0  0  0  0  0  0  0  0
    4.0593    1.4821    2.8209 H   0  0  0  0  0  0  0  0  0  0  0  0
   -2.1329   -1.2168    2.2528 H   0  0  0  0  0  0  0  0  0  0  0  0
   -0.7999   -1.8774    1.3105 H   0  0  0  0  0  0  0  0  0  0  0  0
   -1.3851   -3.1791   -0.7196 H   0  0  0  0  0  0  0  0  0  0  0  0
   -2.9702   -4.7524   -1.7399 H   0  0  0  0  0  0  0  0  0  0  0  0
   -6.0534   -3.3680    0.8023 H   0  0  0  0  0  0  0  0  0  0  0  0
   -4.4530   -1.7610    1.8541 H   0  0  0  0  0  0  0  0  0  0  0  0
  1  2  2  0
  2  3  1  0
  3  4  1  0
  4  5  1  0
  5  6  1  0
  6  7  2  0
  7  8  1  0
  7  9  1  0
  9 10  2  0
 10 11  1  0
 11 12  2  0
  2 13  1  0
 13 14  1  0
 14 15  1  0
 15 16  2  0
 15 17  1  0
 17 18  1  0
 18 19  1  0
 19 20  1  0
 20 21  1  0
 21 22  1  0
 20 23  1  0
 23 24  1  0
 24 25  1  0
 25 26  2  0
 25 27  1  0
 27 28  1  0
 28 29  1  0
 29 30  1  0
 30 31  1  0
 20 32  1  0
 32 33  1  0
 33 34  1  0
 34 35  1  0
 35 36  1  0
 36 37  1  0
 14 38  1  0
 38 39  1  0
 39 40  2  0
 40 41  1  0
 41 42  2  0
 42 43  1  0
 43 44  2  0
 42 45  1  0
  8  3  1  0
 22 17  1  0
 29 24  1  0
 37 32  1  0
 44 39  1  0
 12  6  1  0
 31 29  1  0
  3 46  1  6
  4 47  1  0
  5 48  1  0
  5 49  1  0
  8 50  1  0
  8 51  1  0
  9 52  1  0
 10 53  1  0
 11 54  1  0
 12 55  1  0
 13 56  1  0
 14 57  1  6
 18 58  1  0
 18 59  1  0
 19 60  1  0
 19 61  1  0
 21 62  1  0
 21 63  1  0
 22 64  1  0
 22 65  1  0
 23 66  1  0
 23 67  1  0
 28 68  1  0
 28 69  1  0
 30 70  1  0
 30 71  1  0
 31 72  1  0
 31 73  1  0
 32 74  1  0
 33 75  1  0
 33 76  1  0
 34 77  1  0
 34 78  1  0
 35 79  1  0
 35 80  1  0
 36 81  1  0
 36 82  1  0
 37 83  1  0
 37 84  1  0
 38 85  1  0
 38 86  1  0
 40 87  1  0
 41 88  1  0
 43 89  1  0
 44 90  1  0
M  END
>  <Ligand ID>  (1) 
LIG0001355

>  <Ligand>  (1) 
CHEMBL204308

>  <SMILES>  (1) 
O=C([C@@H]1NCc2c(C1)cccc2)N[C@@H](C(=O)N1CCC(CC1)(CN1C(=O)OCC21CC2)C1CCCCC1)Cc1ccc(cc1)Cl

>  <CID>  (1) 
44408276.0

>  <ChEMBL ID>  (1) 
nan

>  <InChiKey>  (1) 
LDHOENQCWMSQTE-FIRIVFDPSA-N

>  <InChi>  (1) 
InChI=1S/C36H45ClN4O4/c37-29-12-10-25(11-13-29)20-31(39-32(42)30-21-26-6-4-5-7-27(26)22-38-30)33(43)40-18-16-35(17-19-40,28-8-2-1-3-9-28)23-41-34(44)45-24-36(41)14-15-36/h4-7,10-13,28,30-31,38H,1-3,8-9,14-24H2,(H,39,42)/t30-,31-/m1/s1

>  <IUPAC Name>  (1) 
(3R)-N-[(2R)-3-(4-chlorophenyl)-1-[4-cyclohexyl-4-[(5-oxo-6-oxa-4-azaspiro[2.4]heptan-4-yl)methyl]piperidin-1-yl]-1-oxopropan-2-yl]-1,2,3,4-tetrahydroisoquinoline-3-carboxamide

$$$$
