
     RDKit          3D

 53 57  0  0  0  0  0  0  0  0999 V2000
    3.6289    0.4083   -2.6281 O   0  0  0  0  0  0  0  0  0  0  0  0
    3.3865    0.4758   -1.3750 C   0  0  0  0  0  0  0  0  0  0  0  0
    2.1305    0.0432   -0.9454 N   0  0  0  0  0  0  0  0  0  0  0  0
    1.2090   -0.4416   -1.9924 C   0  0  0  0  0  0  0  0  0  0  0  0
   -0.1464    0.1919   -1.6066 C   0  0  0  0  0  0  0  0  0  0  0  0
   -0.5023   -0.5667   -0.3874 N   0  0  0  0  0  0  0  0  0  0  0  0
    0.4078   -0.5108    0.7392 C   0  0  0  0  0  0  0  0  0  0  0  0
    1.7464    0.0664    0.4490 C   0  0  0  0  0  0  0  0  0  0  0  0
   -1.6781   -1.3451   -0.3100 C   0  0  0  0  0  0  0  0  0  0  0  0
   -1.4759   -2.6913   -0.4449 N   0  0  0  0  0  0  0  0  0  0  0  0
   -2.4414   -3.6024   -0.4670 C   0  0  0  0  0  0  0  0  0  0  0  0
   -2.1431   -5.0467   -0.6167 C   0  0  0  0  0  0  0  0  0  0  0  0
   -3.7103   -3.1339   -0.3450 N   0  0  0  0  0  0  0  0  0  0  0  0
   -3.9580   -1.8068   -0.2078 C   0  0  0  0  0  0  0  0  0  0  0  0
   -2.9776   -0.8376   -0.1799 C   0  0  0  0  0  0  0  0  0  0  0  0
   -3.4114    0.4180   -0.0326 C   0  0  0  0  0  0  0  0  0  0  0  0
   -2.6313    1.7291    0.0945 C   0  0  0  0  0  0  0  0  0  0  0  0
   -3.1704    2.4663    1.3338 C   0  0  0  0  0  0  0  0  0  0  0  0
   -4.6405    2.6393    1.3507 C   0  0  0  0  0  0  0  0  0  0  0  0
   -5.3761    1.9871    0.2150 C   0  0  0  0  0  0  0  0  0  0  0  0
   -4.7672    0.5965    0.0668 C   0  0  0  0  0  0  0  0  0  0  0  0
   -5.4727   -0.9388   -0.0331 S   0  0  0  0  0  0  0  0  0  0  0  0
    4.4736    1.0075   -0.5307 C   0  0  0  0  0  0  0  0  0  0  0  0
    5.6483    0.0527   -0.5217 C   0  0  0  0  0  0  0  0  0  0  0  0
    6.3980    0.5011    0.7098 C   0  0  0  0  0  0  0  0  0  0  0  0
    5.2722    1.0217    1.5708 C   0  0  0  0  0  0  0  0  0  0  0  0
    4.1410    1.0612    0.7977 O   0  0  0  0  0  0  0  0  0  0  0  0
    1.5354   -0.1441   -2.9864 H   0  0  0  0  0  0  0  0  0  0  0  0
    1.1816   -1.5426   -1.8638 H   0  0  0  0  0  0  0  0  0  0  0  0
   -0.8783    0.0466   -2.3976 H   0  0  0  0  0  0  0  0  0  0  0  0
    0.0629    1.2122   -1.2929 H   0  0  0  0  0  0  0  0  0  0  0  0
    0.4938   -1.5103    1.2248 H   0  0  0  0  0  0  0  0  0  0  0  0
   -0.0859    0.1395    1.5206 H   0  0  0  0  0  0  0  0  0  0  0  0
    1.8090    1.1204    0.8137 H   0  0  0  0  0  0  0  0  0  0  0  0
    2.4967   -0.5539    0.9932 H   0  0  0  0  0  0  0  0  0  0  0  0
   -1.0814   -5.2229   -0.3462 H   0  0  0  0  0  0  0  0  0  0  0  0
   -2.2680   -5.3359   -1.6936 H   0  0  0  0  0  0  0  0  0  0  0  0
   -2.8169   -5.7040   -0.0240 H   0  0  0  0  0  0  0  0  0  0  0  0
   -1.5836    1.5541    0.3379 H   0  0  0  0  0  0  0  0  0  0  0  0
   -2.7919    2.3532   -0.8010 H   0  0  0  0  0  0  0  0  0  0  0  0
   -2.7012    3.4788    1.3171 H   0  0  0  0  0  0  0  0  0  0  0  0
   -2.7705    1.8966    2.2228 H   0  0  0  0  0  0  0  0  0  0  0  0
   -5.0124    2.1174    2.2830 H   0  0  0  0  0  0  0  0  0  0  0  0
   -4.9666    3.6965    1.5039 H   0  0  0  0  0  0  0  0  0  0  0  0
   -6.4349    1.8633    0.4917 H   0  0  0  0  0  0  0  0  0  0  0  0
   -5.2579    2.5356   -0.7422 H   0  0  0  0  0  0  0  0  0  0  0  0
    4.8680    1.9783   -0.9205 H   0  0  0  0  0  0  0  0  0  0  0  0
    6.2282    0.0879   -1.4464 H   0  0  0  0  0  0  0  0  0  0  0  0
    5.2629   -0.9812   -0.3119 H   0  0  0  0  0  0  0  0  0  0  0  0
    7.1554    1.2929    0.4631 H   0  0  0  0  0  0  0  0  0  0  0  0
    6.9749   -0.3027    1.1938 H   0  0  0  0  0  0  0  0  0  0  0  0
    5.5401    1.9345    2.1001 H   0  0  0  0  0  0  0  0  0  0  0  0
    5.1011    0.2452    2.3720 H   0  0  0  0  0  0  0  0  0  0  0  0
  1  2  2  0
  2  3  1  0
  3  4  1  0
  4  5  1  0
  5  6  1  0
  6  7  1  0
  7  8  1  0
  6  9  1  0
  9 10  2  0
 10 11  1  0
 11 12  1  0
 11 13  2  0
 13 14  1  0
 14 15  2  0
 15 16  1  0
 16 17  1  0
 17 18  1  0
 18 19  1  0
 19 20  1  0
 20 21  1  0
 21 22  1  0
  2 23  1  0
 23 24  1  0
 24 25  1  0
 25 26  1  0
 26 27  1  0
  8  3  1  0
 15  9  1  0
 21 16  2  0
 27 23  1  0
 22 14  1  0
  4 28  1  0
  4 29  1  0
  5 30  1  0
  5 31  1  0
  7 32  1  0
  7 33  1  0
  8 34  1  0
  8 35  1  0
 12 36  1  0
 12 37  1  0
 12 38  1  0
 17 39  1  0
 17 40  1  0
 18 41  1  0
 18 42  1  0
 19 43  1  0
 19 44  1  0
 20 45  1  0
 20 46  1  0
 23 47  1  0
 24 48  1  0
 24 49  1  0
 25 50  1  0
 25 51  1  0
 26 52  1  0
 26 53  1  0
M  END
>  <Ligand ID>  (1) 
LIG0003919

>  <Ligand>  (1) 
MLS-0437224.0001

>  <SMILES>  (1) 
O=C(N1CCN(CC1)c1nc(C)nc2c1c1CCCCc1s2)C1CCCO1

>  <CID>  (1) 
4877555.0

>  <ChEMBL ID>  (1) 
nan

>  <InChiKey>  (1) 
NDZDTDOQWRSSOX-UHFFFAOYSA-N

>  <InChi>  (1) 
InChI=1S/C20H26N4O2S/c1-13-21-18(17-14-5-2-3-7-16(14)27-19(17)22-13)23-8-10-24(11-9-23)20(25)15-6-4-12-26-15/h15H,2-12H2,1H3

>  <IUPAC Name>  (1) 
[4-(2-methyl-5,6,7,8-tetrahydro-[1]benzothiolo[2,3-d]pyrimidin-4-yl)piperazin-1-yl]-(oxolan-2-yl)methanone

$$$$
