
     RDKit          3D

 46 48  0  0  0  0  0  0  0  0999 V2000
    8.2450    1.8185    2.2443 O   0  0  0  0  0  0  0  0  0  0  0  0
    7.2521    1.2958    1.4331 C   0  0  0  0  0  0  0  0  0  0  0  0
    6.7281    1.9814    0.5278 O   0  0  0  0  0  0  0  0  0  0  0  0
    6.7668   -0.0998    1.6023 C   0  0  0  0  0  0  0  0  0  0  0  0
    5.6903   -0.3420    0.5616 C   0  0  0  0  0  0  0  0  0  0  0  0
    5.1360   -1.7337    0.6546 C   0  0  0  0  0  0  0  0  0  0  0  0
    4.1475   -2.0422   -0.2590 O   0  0  0  0  0  0  0  0  0  0  0  0
    2.9138   -1.5570   -0.4835 C   0  0  0  0  0  0  0  0  0  0  0  0
    2.1851   -2.1188   -1.5407 C   0  0  0  0  0  0  0  0  0  0  0  0
    0.9181   -1.7054   -1.8612 C   0  0  0  0  0  0  0  0  0  0  0  0
    0.2906   -0.7064   -1.1528 C   0  0  0  0  0  0  0  0  0  0  0  0
    0.9781   -0.1364   -0.1113 C   0  0  0  0  0  0  0  0  0  0  0  0
    2.2645   -0.5627    0.2074 C   0  0  0  0  0  0  0  0  0  0  0  0
   -1.0504   -0.3189   -1.5473 C   0  0  0  0  0  0  0  0  0  0  0  0
   -2.0488   -0.1255   -0.6398 C   0  0  0  0  0  0  0  0  0  0  0  0
   -3.3626    0.2533   -1.0157 C   0  0  0  0  0  0  0  0  0  0  0  0
   -3.5387    0.4074   -2.3735 C   0  0  0  0  0  0  0  0  0  0  0  0
   -2.5511    0.2193   -3.3121 C   0  0  0  0  0  0  0  0  0  0  0  0
   -1.3008   -0.1467   -2.8850 C   0  0  0  0  0  0  0  0  0  0  0  0
   -0.3378   -0.3301   -3.7999 F   0  0  0  0  0  0  0  0  0  0  0  0
   -4.2324    0.4072   -0.0400 O   0  0  0  0  0  0  0  0  0  0  0  0
   -5.4679    0.7088    0.2976 C   0  0  0  0  0  0  0  0  0  0  0  0
   -6.5306    1.0551   -0.5080 C   0  0  0  0  0  0  0  0  0  0  0  0
   -7.7922    1.3535   -0.0415 C   0  0  0  0  0  0  0  0  0  0  0  0
   -8.0193    1.3067    1.3098 C   0  0  0  0  0  0  0  0  0  0  0  0
   -7.0087    0.9696    2.1724 C   0  0  0  0  0  0  0  0  0  0  0  0
   -5.7726    0.6800    1.6819 C   0  0  0  0  0  0  0  0  0  0  0  0
   -7.2634    0.9314    3.5083 F   0  0  0  0  0  0  0  0  0  0  0  0
    8.5528    2.7814    2.1614 H   0  0  0  0  0  0  0  0  0  0  0  0
    6.3936   -0.2796    2.6214 H   0  0  0  0  0  0  0  0  0  0  0  0
    7.6366   -0.7933    1.4124 H   0  0  0  0  0  0  0  0  0  0  0  0
    4.9415    0.4353    0.6922 H   0  0  0  0  0  0  0  0  0  0  0  0
    6.2057   -0.1932   -0.4219 H   0  0  0  0  0  0  0  0  0  0  0  0
    4.8187   -1.8903    1.7201 H   0  0  0  0  0  0  0  0  0  0  0  0
    5.9898   -2.4391    0.4776 H   0  0  0  0  0  0  0  0  0  0  0  0
    2.6382   -2.9212   -2.1407 H   0  0  0  0  0  0  0  0  0  0  0  0
    0.4192   -2.1991   -2.7041 H   0  0  0  0  0  0  0  0  0  0  0  0
    0.4974    0.6490    0.4534 H   0  0  0  0  0  0  0  0  0  0  0  0
    2.7254   -0.0742    1.0425 H   0  0  0  0  0  0  0  0  0  0  0  0
   -1.8030   -0.2736    0.4084 H   0  0  0  0  0  0  0  0  0  0  0  0
   -4.5052    0.6942   -2.7540 H   0  0  0  0  0  0  0  0  0  0  0  0
   -2.7483    0.3557   -4.3751 H   0  0  0  0  0  0  0  0  0  0  0  0
   -6.3956    1.1036   -1.5719 H   0  0  0  0  0  0  0  0  0  0  0  0
   -8.5922    1.6211   -0.7345 H   0  0  0  0  0  0  0  0  0  0  0  0
   -9.0130    1.5436    1.6529 H   0  0  0  0  0  0  0  0  0  0  0  0
   -5.0001    0.4174    2.4036 H   0  0  0  0  0  0  0  0  0  0  0  0
  1  2  1  0
  2  3  2  0
  2  4  1  0
  4  5  1  0
  5  6  1  0
  6  7  1  0
  7  8  1  0
  8  9  2  0
  9 10  1  0
 10 11  2  0
 11 12  1  0
 12 13  2  0
 11 14  1  0
 14 15  2  0
 15 16  1  0
 16 17  2  0
 17 18  1  0
 18 19  2  0
 19 20  1  0
 16 21  1  0
 21 22  1  0
 22 23  2  0
 23 24  1  0
 24 25  2  0
 25 26  1  0
 26 27  2  0
 26 28  1  0
 13  8  1  0
 19 14  1  0
 27 22  1  0
  1 29  1  0
  4 30  1  0
  4 31  1  0
  5 32  1  0
  5 33  1  0
  6 34  1  0
  6 35  1  0
  9 36  1  0
 10 37  1  0
 12 38  1  0
 13 39  1  0
 15 40  1  0
 17 41  1  0
 18 42  1  0
 23 43  1  0
 24 44  1  0
 25 45  1  0
 27 46  1  0
M  END
>  <Ligand ID>  (1) 
LIG0002509

>  <Ligand>  (1) 
CHEMBL3953203

>  <SMILES>  (1) 
OC(=O)CCCOc1ccc(cc1)c1cc(ccc1F)Oc1cccc(c1)F

>  <CID>  (1) 
134144214.0

>  <ChEMBL ID>  (1) 
nan

>  <InChiKey>  (1) 
FLVULLQRNLFPKX-UHFFFAOYSA-N

>  <InChi>  (1) 
InChI=1S/C22H18F2O4/c23-16-3-1-4-18(13-16)28-19-10-11-21(24)20(14-19)15-6-8-17(9-7-15)27-12-2-5-22(25)26/h1,3-4,6-11,13-14H,2,5,12H2,(H,25,26)

>  <IUPAC Name>  (1) 
4-[4-[2-fluoro-5-(3-fluorophenoxy)phenyl]phenoxy]butanoic acid

$$$$
