
     RDKit          3D

 82 86  0  0  0  0  0  0  0  0999 V2000
    6.0364    1.5299    2.4083 C   0  0  0  0  0  0  0  0  0  0  0  0
    4.8058    0.7306    1.9583 C   0  0  0  0  0  0  0  0  0  0  0  0
    5.3243   -0.4281    1.1751 C   0  0  0  0  0  0  0  0  0  0  0  0
    6.1036   -0.0427   -0.0076 C   0  0  0  0  0  0  0  0  0  0  0  0
    5.6862    0.9149   -0.9295 C   0  0  0  0  0  0  0  0  0  0  0  0
    6.4304    1.2521   -2.0358 C   0  0  0  0  0  0  0  0  0  0  0  0
    7.6449    0.6561   -2.2988 C   0  0  0  0  0  0  0  0  0  0  0  0
    8.0790   -0.2952   -1.3995 C   0  0  0  0  0  0  0  0  0  0  0  0
    7.3414   -0.6280   -0.3051 C   0  0  0  0  0  0  0  0  0  0  0  0
    4.3121   -1.4470    0.8296 C   0  0  0  0  0  0  0  0  0  0  0  0
    4.3008   -2.6138    1.3604 O   0  0  0  0  0  0  0  0  0  0  0  0
    3.2597   -1.2296   -0.1200 N   0  0  0  0  0  0  0  0  0  0  0  0
    2.3582   -2.3441   -0.3329 C   0  0  0  0  0  0  0  0  0  0  0  0
    1.2892   -1.9953   -1.3510 C   0  0  0  0  0  0  0  0  0  0  0  0
    0.4927   -0.8415   -0.8570 C   0  0  0  0  0  0  0  0  0  0  0  0
   -0.6098   -0.3680   -1.7636 C   0  0  1  0  0  0  0  0  0  0  0  0
   -1.6190   -1.4287   -2.0181 C   0  0  0  0  0  0  0  0  0  0  0  0
   -2.4814   -1.4560   -0.8241 N   0  0  0  0  0  0  0  0  0  0  0  0
   -2.1508   -0.2982   -0.0765 C   0  0  0  0  0  0  0  0  0  0  0  0
   -2.6177   -0.4020    1.1126 N   0  0  0  0  0  0  0  0  0  0  0  0
   -3.3157   -1.6420    1.3065 C   0  0  0  0  0  0  0  0  0  0  0  0
   -3.5166   -2.1455   -0.0926 C   0  0  2  0  0  0  0  0  0  0  0  0
   -3.3136   -3.6353   -0.2118 C   0  0  0  0  0  0  0  0  0  0  0  0
   -4.3404   -4.3817    0.5145 C   0  0  0  0  0  0  0  0  0  0  0  0
   -4.2517   -4.7779    1.8319 C   0  0  0  0  0  0  0  0  0  0  0  0
   -5.2379   -5.4801    2.4861 C   0  0  0  0  0  0  0  0  0  0  0  0
   -6.3930   -5.8163    1.7952 C   0  0  0  0  0  0  0  0  0  0  0  0
   -6.5059   -5.4312    0.4752 C   0  0  0  0  0  0  0  0  0  0  0  0
   -5.5027   -4.7199   -0.1811 C   0  0  0  0  0  0  0  0  0  0  0  0
   -7.3610   -6.5197    2.4795 O   0  0  0  0  0  0  0  0  0  0  0  0
   -1.3968    0.5722   -0.9424 N   0  0  0  0  0  0  0  0  0  0  0  0
   -1.4013    2.0165   -0.9971 C   0  0  0  0  0  0  0  0  0  0  0  0
   -2.3595    2.6166    0.0242 C   0  0  0  0  0  0  0  0  0  0  0  0
   -2.3418    4.1084   -0.0573 C   0  0  0  0  0  0  0  0  0  0  0  0
   -3.2326    4.7348   -0.9163 C   0  0  0  0  0  0  0  0  0  0  0  0
   -3.2589    6.1168   -1.0305 C   0  0  0  0  0  0  0  0  0  0  0  0
   -2.3774    6.8391   -0.2681 C   0  0  0  0  0  0  0  0  0  0  0  0
   -1.4799    6.2328    0.5957 C   0  0  0  0  0  0  0  0  0  0  0  0
   -1.4615    4.8480    0.7028 C   0  0  0  0  0  0  0  0  0  0  0  0
   -2.3804    8.3109   -0.3668 C   0  0  0  0  0  0  0  0  0  0  0  0
    6.6018    0.8410    3.0923 H   0  0  0  0  0  0  0  0  0  0  0  0
    6.7120    1.7435    1.5570 H   0  0  0  0  0  0  0  0  0  0  0  0
    5.7722    2.4578    2.9221 H   0  0  0  0  0  0  0  0  0  0  0  0
    4.3306    0.4098    2.9069 H   0  0  0  0  0  0  0  0  0  0  0  0
    4.0762    1.3464    1.4358 H   0  0  0  0  0  0  0  0  0  0  0  0
    6.0571   -0.9753    1.8485 H   0  0  0  0  0  0  0  0  0  0  0  0
    4.7527    1.4323   -0.7931 H   0  0  0  0  0  0  0  0  0  0  0  0
    6.0699    2.0070   -2.7356 H   0  0  0  0  0  0  0  0  0  0  0  0
    8.2216    0.9172   -3.1551 H   0  0  0  0  0  0  0  0  0  0  0  0
    9.0247   -0.7775   -1.5789 H   0  0  0  0  0  0  0  0  0  0  0  0
    7.7258   -1.3900    0.3829 H   0  0  0  0  0  0  0  0  0  0  0  0
    3.1838   -0.3183   -0.6039 H   0  0  0  0  0  0  0  0  0  0  0  0
    1.9157   -2.6234    0.6443 H   0  0  0  0  0  0  0  0  0  0  0  0
    2.9045   -3.2482   -0.6896 H   0  0  0  0  0  0  0  0  0  0  0  0
    0.6822   -2.8808   -1.5666 H   0  0  0  0  0  0  0  0  0  0  0  0
    1.8329   -1.6325   -2.2720 H   0  0  0  0  0  0  0  0  0  0  0  0
    0.0749   -1.0013    0.1661 H   0  0  0  0  0  0  0  0  0  0  0  0
    1.2029    0.0275   -0.7081 H   0  0  0  0  0  0  0  0  0  0  0  0
   -0.2351    0.1312   -2.6749 H   0  0  0  0  0  0  0  0  0  0  0  0
   -1.1228   -2.3963   -2.2007 H   0  0  0  0  0  0  0  0  0  0  0  0
   -2.2507   -1.1896   -2.9223 H   0  0  0  0  0  0  0  0  0  0  0  0
   -2.6114   -2.3294    1.8218 H   0  0  0  0  0  0  0  0  0  0  0  0
   -4.2661   -1.5221    1.8640 H   0  0  0  0  0  0  0  0  0  0  0  0
   -4.4750   -1.8120   -0.5381 H   0  0  0  0  0  0  0  0  0  0  0  0
   -2.2848   -3.8190    0.2134 H   0  0  0  0  0  0  0  0  0  0  0  0
   -3.2467   -3.8790   -1.2798 H   0  0  0  0  0  0  0  0  0  0  0  0
   -3.3718   -4.5311    2.3838 H   0  0  0  0  0  0  0  0  0  0  0  0
   -5.0878   -5.7552    3.5314 H   0  0  0  0  0  0  0  0  0  0  0  0
   -7.4251   -5.7082   -0.0458 H   0  0  0  0  0  0  0  0  0  0  0  0
   -5.6778   -4.4659   -1.1994 H   0  0  0  0  0  0  0  0  0  0  0  0
   -7.5981   -7.4825    2.2104 H   0  0  0  0  0  0  0  0  0  0  0  0
   -1.6684    2.3186   -2.0183 H   0  0  0  0  0  0  0  0  0  0  0  0
   -0.3740    2.3618   -0.7671 H   0  0  0  0  0  0  0  0  0  0  0  0
   -3.3910    2.2617   -0.1732 H   0  0  0  0  0  0  0  0  0  0  0  0
   -2.0303    2.3527    1.0388 H   0  0  0  0  0  0  0  0  0  0  0  0
   -3.9406    4.1757   -1.5296 H   0  0  0  0  0  0  0  0  0  0  0  0
   -3.9490    6.6245   -1.6978 H   0  0  0  0  0  0  0  0  0  0  0  0
   -0.7799    6.8225    1.1999 H   0  0  0  0  0  0  0  0  0  0  0  0
   -0.7676    4.3344    1.3729 H   0  0  0  0  0  0  0  0  0  0  0  0
   -1.3552    8.7185   -0.3461 H   0  0  0  0  0  0  0  0  0  0  0  0
   -2.9334    8.6838    0.5378 H   0  0  0  0  0  0  0  0  0  0  0  0
   -2.8564    8.6580   -1.3064 H   0  0  0  0  0  0  0  0  0  0  0  0
  1  2  1  0
  2  3  1  0
  3  4  1  0
  4  5  2  0
  5  6  1  0
  6  7  2  0
  7  8  1  0
  8  9  2  0
  3 10  1  0
 10 11  2  0
 10 12  1  0
 12 13  1  0
 13 14  1  0
 14 15  1  0
 15 16  1  0
 16 17  1  0
 17 18  1  0
 18 19  1  0
 19 20  2  0
 20 21  1  0
 21 22  1  0
 22 23  1  0
 23 24  1  0
 24 25  2  0
 25 26  1  0
 26 27  2  0
 27 28  1  0
 28 29  2  0
 27 30  1  0
 19 31  1  0
 31 32  1  0
 32 33  1  0
 33 34  1  0
 34 35  2  0
 35 36  1  0
 36 37  2  0
 37 38  1  0
 38 39  2  0
 37 40  1  0
  9  4  1  0
 31 16  1  0
 39 34  1  0
 22 18  1  0
 29 24  1  0
  1 41  1  0
  1 42  1  0
  1 43  1  0
  2 44  1  0
  2 45  1  0
  3 46  1  0
  5 47  1  0
  6 48  1  0
  7 49  1  0
  8 50  1  0
  9 51  1  0
 12 52  1  0
 13 53  1  0
 13 54  1  0
 14 55  1  0
 14 56  1  0
 15 57  1  0
 15 58  1  0
 16 59  1  6
 17 60  1  0
 17 61  1  0
 21 62  1  0
 21 63  1  0
 22 64  1  6
 23 65  1  0
 23 66  1  0
 25 67  1  0
 26 68  1  0
 28 69  1  0
 29 70  1  0
 30 71  1  0
 32 72  1  0
 32 73  1  0
 33 74  1  0
 33 75  1  0
 35 76  1  0
 36 77  1  0
 38 78  1  0
 39 79  1  0
 40 80  1  0
 40 81  1  0
 40 82  1  0
M  END
>  <Ligand ID>  (1) 
LIG0004060

>  <Ligand>  (1) 
MLS000697925

>  <SMILES>  (1) 
CCC(c1ccccc1)C(=O)NCCC[C@H]1CN2C(=NC[C@@H]2Cc2ccc(cc2)O)N1CCc1ccc(cc1)C

>  <CID>  (1) 
16195672.0

>  <ChEMBL ID>  (1) 
nan

>  <InChiKey>  (1) 
WMJNZKXMNBGMRL-XNVRKLAPSA-N

>  <InChi>  (1) 
InChI=1S/C34H42N4O2/c1-3-32(28-8-5-4-6-9-28)33(40)35-20-7-10-29-24-38-30(22-27-15-17-31(39)18-16-27)23-36-34(38)37(29)21-19-26-13-11-25(2)12-14-26/h4-6,8-9,11-18,29-30,32,39H,3,7,10,19-24H2,1-2H3,(H,35,40)/t29-,30-,32?/m0/s1

>  <IUPAC Name>  (1) 
N-[3-[(3S,6S)-3-[(4-hydroxyphenyl)methyl]-7-[2-(4-methylphenyl)ethyl]-2,3,5,6-tetrahydroimidazo[1,2-a]imidazol-6-yl]propyl]-2-phenylbutanamide

$$$$
