
     RDKit          3D

 30 32  0  0  0  0  0  0  0  0999 V2000
    3.6102    0.6794   -1.5481 N   0  0  0  0  0  0  0  0  0  0  0  0
    3.6972   -0.2943   -0.4714 C   0  0  0  0  0  0  0  0  0  0  0  0
    2.3566   -0.9583   -0.3115 C   0  0  1  0  0  0  0  0  0  0  0  0
    2.0764   -2.0029    0.6903 C   0  0  0  0  0  0  0  0  0  0  0  0
    1.6731   -0.6534    1.0424 C   0  0  2  0  0  0  0  0  0  0  0  0
    0.3294   -0.0915    0.8652 C   0  0  0  0  0  0  0  0  0  0  0  0
   -0.0478    1.0157    1.6237 C   0  0  0  0  0  0  0  0  0  0  0  0
   -1.3246    1.5355    1.4435 C   0  0  0  0  0  0  0  0  0  0  0  0
   -2.2032    0.9752    0.5381 C   0  0  0  0  0  0  0  0  0  0  0  0
   -1.7870   -0.1301   -0.1998 C   0  0  0  0  0  0  0  0  0  0  0  0
   -0.5217   -0.6750   -0.0465 C   0  0  0  0  0  0  0  0  0  0  0  0
   -2.6234   -0.7318   -1.1199 C   0  0  0  0  0  0  0  0  0  0  0  0
   -3.9044   -0.2011   -1.2929 C   0  0  0  0  0  0  0  0  0  0  0  0
   -4.3239    0.9066   -0.5546 C   0  0  0  0  0  0  0  0  0  0  0  0
   -3.4594    1.4947    0.3676 C   0  0  0  0  0  0  0  0  0  0  0  0
    4.1265    1.5454   -1.3298 H   0  0  0  0  0  0  0  0  0  0  0  0
    2.6331    0.9147   -1.8164 H   0  0  0  0  0  0  0  0  0  0  0  0
    4.5090   -0.9904   -0.7008 H   0  0  0  0  0  0  0  0  0  0  0  0
    4.0051    0.2508    0.4606 H   0  0  0  0  0  0  0  0  0  0  0  0
    1.7497   -0.9872   -1.2147 H   0  0  0  0  0  0  0  0  0  0  0  0
    2.9577   -2.4234    1.2162 H   0  0  0  0  0  0  0  0  0  0  0  0
    1.3536   -2.8127    0.4322 H   0  0  0  0  0  0  0  0  0  0  0  0
    2.2747   -0.1052    1.8033 H   0  0  0  0  0  0  0  0  0  0  0  0
    0.6243    1.4744    2.3420 H   0  0  0  0  0  0  0  0  0  0  0  0
   -1.5836    2.4011    2.0539 H   0  0  0  0  0  0  0  0  0  0  0  0
   -0.2376   -1.5334   -0.6387 H   0  0  0  0  0  0  0  0  0  0  0  0
   -2.3461   -1.5877   -1.7132 H   0  0  0  0  0  0  0  0  0  0  0  0
   -4.5553   -0.6831   -2.0206 H   0  0  0  0  0  0  0  0  0  0  0  0
   -5.3083    1.3094   -0.6919 H   0  0  0  0  0  0  0  0  0  0  0  0
   -3.7504    2.3587    0.9610 H   0  0  0  0  0  0  0  0  0  0  0  0
  1  2  1  0
  2  3  1  0
  3  4  1  0
  4  5  1  0
  5  6  1  0
  6  7  2  0
  7  8  1  0
  8  9  2  0
  9 10  1  0
 10 11  2  0
 10 12  1  0
 12 13  2  0
 13 14  1  0
 14 15  2  0
  5  3  1  0
 11  6  1  0
 15  9  1  0
  1 16  1  0
  1 17  1  0
  2 18  1  0
  2 19  1  0
  3 20  1  6
  4 21  1  0
  4 22  1  0
  5 23  1  1
  7 24  1  0
  8 25  1  0
 11 26  1  0
 12 27  1  0
 13 28  1  0
 14 29  1  0
 15 30  1  0
M  END
>  <Ligand ID>  (1) 
LIG0005684

>  <Ligand>  (1) 
CHEMBL474885

>  <SMILES>  (1) 
NC[C@H]1C[C@@H]1c1ccc2c(c1)cccc2

>  <CID>  (1) 
44572698.0

>  <ChEMBL ID>  (1) 
nan

>  <InChiKey>  (1) 
XNUCTOJBURGYIE-ZIAGYGMSSA-N

>  <InChi>  (1) 
InChI=1S/C14H15N/c15-9-13-8-14(13)12-6-5-10-3-1-2-4-11(10)7-12/h1-7,13-14H,8-9,15H2/t13-,14-/m1/s1

>  <IUPAC Name>  (1) 
[(1S,2S)-2-naphthalen-2-ylcyclopropyl]methanamine

$$$$
