
     RDKit          3D

 93 96  0  0  0  0  0  0  0  0999 V2000
    0.6369    6.2910    2.2923 N   0  0  0  0  0  0  0  0  0  0  0  0
    1.9716    6.2629    1.8034 C   0  0  0  0  0  0  0  0  0  0  0  0
    2.6911    5.2063    1.9536 N   0  0  0  0  0  0  0  0  0  0  0  0
    2.1322    4.0728    2.6136 C   0  0  0  0  0  0  0  0  0  0  0  0
    1.9539    2.8557    1.7466 C   0  0  0  0  0  0  0  0  0  0  0  0
    1.0474    3.1387    0.5971 C   0  0  0  0  0  0  0  0  0  0  0  0
    0.8219    1.9535   -0.3159 C   0  0  1  0  0  0  0  0  0  0  0  0
    2.0755    1.4608   -0.9147 C   0  0  0  0  0  0  0  0  0  0  0  0
    2.7490    2.2992   -1.6032 O   0  0  0  0  0  0  0  0  0  0  0  0
    2.5122    0.1226   -0.7345 N   0  0  0  0  0  0  0  0  0  0  0  0
    3.7780   -0.3623   -1.3423 C   0  0  2  0  0  0  0  0  0  0  0  0
    3.5277   -1.4880   -2.2060 C   0  0  0  0  0  0  0  0  0  0  0  0
    2.3578   -2.0115   -2.1867 O   0  0  0  0  0  0  0  0  0  0  0  0
    4.4414   -2.0994   -3.1034 N   0  0  0  0  0  0  0  0  0  0  0  0
    4.7865   -0.5894   -0.2819 C   0  0  0  0  0  0  0  0  0  0  0  0
    6.0646   -1.1014   -0.7683 C   0  0  0  0  0  0  0  0  0  0  0  0
    7.1568   -0.3258   -1.1571 C   0  0  0  0  0  0  0  0  0  0  0  0
    8.1539   -1.1185   -1.5877 N   0  0  0  0  0  0  0  0  0  0  0  0
    7.7708   -2.4099   -1.5019 C   0  0  0  0  0  0  0  0  0  0  0  0
    6.4920   -2.4077   -1.0004 C   0  0  0  0  0  0  0  0  0  0  0  0
    5.8965   -3.6449   -0.8048 C   0  0  0  0  0  0  0  0  0  0  0  0
    6.5501   -4.8203   -1.0989 C   0  0  0  0  0  0  0  0  0  0  0  0
    7.8434   -4.8105   -1.6074 C   0  0  0  0  0  0  0  0  0  0  0  0
    8.4374   -3.5805   -1.8018 C   0  0  0  0  0  0  0  0  0  0  0  0
    0.1947    0.8504    0.3975 N   0  0  0  0  0  0  0  0  0  0  0  0
   -1.1168    0.4738    0.0011 C   0  0  0  0  0  0  0  0  0  0  0  0
   -1.6930    1.1065   -0.9480 O   0  0  0  0  0  0  0  0  0  0  0  0
   -1.8888   -0.6221    0.6144 C   0  0  2  0  0  0  0  0  0  0  0  0
   -3.1770   -0.6391   -0.0942 N   0  0  0  0  0  0  0  0  0  0  0  0
   -3.6082   -1.7654   -0.8459 C   0  0  0  0  0  0  0  0  0  0  0  0
   -2.8298   -2.7533   -0.8790 O   0  0  0  0  0  0  0  0  0  0  0  0
   -4.9096   -1.6934   -1.5180 C   0  0  2  0  0  0  0  0  0  0  0  0
   -5.9770   -1.2470   -0.5951 C   0  0  0  0  0  0  0  0  0  0  0  0
   -6.2315   -2.0758    0.5777 C   0  0  0  0  0  0  0  0  0  0  0  0
   -5.6897   -3.2129    1.0261 N   0  0  0  0  0  0  0  0  0  0  0  0
   -6.2453   -3.6205    2.1700 C   0  0  0  0  0  0  0  0  0  0  0  0
   -7.1808   -2.7132    2.4712 N   0  0  0  0  0  0  0  0  0  0  0  0
   -7.2072   -1.7555    1.5300 C   0  0  0  0  0  0  0  0  0  0  0  0
   -5.2400   -2.8905   -2.2614 N   0  0  0  0  0  0  0  0  0  0  0  0
   -5.3759   -2.7858   -3.6712 C   0  0  0  0  0  0  0  0  0  0  0  0
   -5.2189   -1.6901   -4.2972 O   0  0  0  0  0  0  0  0  0  0  0  0
   -5.7173   -3.9700   -4.5337 C   0  0  0  0  0  0  0  0  0  0  0  0
   -2.1114   -0.4043    2.0852 C   0  0  0  0  0  0  0  0  0  0  0  0
   -2.8624    0.8544    2.3215 C   0  0  0  0  0  0  0  0  0  0  0  0
   -2.2501    2.0756    2.5229 C   0  0  0  0  0  0  0  0  0  0  0  0
   -2.9855    3.2426    2.7388 C   0  0  0  0  0  0  0  0  0  0  0  0
   -4.3804    3.2057    2.7572 C   0  0  0  0  0  0  0  0  0  0  0  0
   -4.9938    1.9776    2.5547 C   0  0  0  0  0  0  0  0  0  0  0  0
   -4.2472    0.8235    2.3408 C   0  0  0  0  0  0  0  0  0  0  0  0
   -5.3218    4.6557    3.0256 Cl  0  0  0  0  0  0  0  0  0  0  0  0
    2.4962    7.4126    1.1503 N   0  0  0  0  0  0  0  0  0  0  0  0
   -0.0943    5.6001    2.0268 H   0  0  0  0  0  0  0  0  0  0  0  0
    0.4200    7.0809    2.9646 H   0  0  0  0  0  0  0  0  0  0  0  0
    1.1886    4.3625    3.1171 H   0  0  0  0  0  0  0  0  0  0  0  0
    2.8300    3.8348    3.4709 H   0  0  0  0  0  0  0  0  0  0  0  0
    1.4691    2.0939    2.3885 H   0  0  0  0  0  0  0  0  0  0  0  0
    2.9595    2.5630    1.3799 H   0  0  0  0  0  0  0  0  0  0  0  0
    1.4127    4.0033   -0.0004 H   0  0  0  0  0  0  0  0  0  0  0  0
    0.0585    3.4488    0.9814 H   0  0  0  0  0  0  0  0  0  0  0  0
    0.1493    2.3063   -1.1150 H   0  0  0  0  0  0  0  0  0  0  0  0
    1.9386   -0.5316   -0.1679 H   0  0  0  0  0  0  0  0  0  0  0  0
    4.1194    0.5522   -1.9259 H   0  0  0  0  0  0  0  0  0  0  0  0
    4.4311   -3.1389   -3.2518 H   0  0  0  0  0  0  0  0  0  0  0  0
    5.1540   -1.5748   -3.6510 H   0  0  0  0  0  0  0  0  0  0  0  0
    5.0109    0.3832    0.2408 H   0  0  0  0  0  0  0  0  0  0  0  0
    4.4111   -1.3012    0.5075 H   0  0  0  0  0  0  0  0  0  0  0  0
    7.2207    0.7730   -1.1264 H   0  0  0  0  0  0  0  0  0  0  0  0
    9.0879   -0.7991   -1.9386 H   0  0  0  0  0  0  0  0  0  0  0  0
    4.8906   -3.6240   -0.4079 H   0  0  0  0  0  0  0  0  0  0  0  0
    6.0417   -5.7400   -0.9279 H   0  0  0  0  0  0  0  0  0  0  0  0
    8.3341   -5.7544   -1.8306 H   0  0  0  0  0  0  0  0  0  0  0  0
    9.4393   -3.5743   -2.1956 H   0  0  0  0  0  0  0  0  0  0  0  0
    0.6563    0.3388    1.1670 H   0  0  0  0  0  0  0  0  0  0  0  0
   -1.3867   -1.6123    0.4862 H   0  0  0  0  0  0  0  0  0  0  0  0
   -3.7354    0.2420    0.0048 H   0  0  0  0  0  0  0  0  0  0  0  0
   -4.8023   -0.8730   -2.2905 H   0  0  0  0  0  0  0  0  0  0  0  0
   -5.6977   -0.2306   -0.2151 H   0  0  0  0  0  0  0  0  0  0  0  0
   -6.9230   -1.0746   -1.1684 H   0  0  0  0  0  0  0  0  0  0  0  0
   -4.9256   -3.7340    0.5516 H   0  0  0  0  0  0  0  0  0  0  0  0
   -6.0122   -4.4980    2.7589 H   0  0  0  0  0  0  0  0  0  0  0  0
   -7.8726   -0.8972    1.5276 H   0  0  0  0  0  0  0  0  0  0  0  0
   -5.3855   -3.8291   -1.8283 H   0  0  0  0  0  0  0  0  0  0  0  0
   -4.8656   -4.2663   -5.1846 H   0  0  0  0  0  0  0  0  0  0  0  0
   -6.5870   -3.6942   -5.1953 H   0  0  0  0  0  0  0  0  0  0  0  0
   -6.0785   -4.7957   -3.8881 H   0  0  0  0  0  0  0  0  0  0  0  0
   -1.1256   -0.3378    2.5903 H   0  0  0  0  0  0  0  0  0  0  0  0
   -2.6514   -1.2165    2.5730 H   0  0  0  0  0  0  0  0  0  0  0  0
   -1.1701    2.0758    2.5056 H   0  0  0  0  0  0  0  0  0  0  0  0
   -2.4764    4.1884    2.8943 H   0  0  0  0  0  0  0  0  0  0  0  0
   -6.0746    1.8946    2.5596 H   0  0  0  0  0  0  0  0  0  0  0  0
   -4.7925   -0.0991    2.1902 H   0  0  0  0  0  0  0  0  0  0  0  0
    1.8393    8.1273    0.7696 H   0  0  0  0  0  0  0  0  0  0  0  0
    3.5138    7.5949    1.0225 H   0  0  0  0  0  0  0  0  0  0  0  0
  1  2  1  0
  2  3  2  3
  3  4  1  0
  4  5  1  0
  5  6  1  0
  6  7  1  0
  7  8  1  0
  8  9  2  0
  8 10  1  0
 10 11  1  0
 11 12  1  0
 12 13  2  0
 12 14  1  0
 11 15  1  0
 15 16  1  0
 16 17  2  0
 17 18  1  0
 18 19  1  0
 19 20  2  0
 20 21  1  0
 21 22  2  0
 22 23  1  0
 23 24  2  0
  7 25  1  0
 25 26  1  0
 26 27  2  0
 26 28  1  0
 28 29  1  0
 29 30  1  0
 30 31  2  0
 30 32  1  0
 32 33  1  0
 33 34  1  0
 34 35  1  0
 35 36  1  0
 36 37  2  0
 37 38  1  0
 32 39  1  0
 39 40  1  0
 40 41  2  0
 40 42  1  0
 28 43  1  0
 43 44  1  0
 44 45  2  0
 45 46  1  0
 46 47  2  0
 47 48  1  0
 48 49  2  0
 47 50  1  0
  2 51  1  0
 20 16  1  0
 38 34  2  0
 49 44  1  0
 24 19  1  0
  1 52  1  0
  1 53  1  0
  4 54  1  0
  4 55  1  0
  5 56  1  0
  5 57  1  0
  6 58  1  0
  6 59  1  0
  7 60  1  6
 10 61  1  0
 11 62  1  6
 14 63  1  0
 14 64  1  0
 15 65  1  0
 15 66  1  0
 17 67  1  0
 18 68  1  0
 21 69  1  0
 22 70  1  0
 23 71  1  0
 24 72  1  0
 25 73  1  0
 28 74  1  1
 29 75  1  0
 32 76  1  6
 33 77  1  0
 33 78  1  0
 35 79  1  0
 36 80  1  0
 38 81  1  0
 39 82  1  0
 42 83  1  0
 42 84  1  0
 42 85  1  0
 43 86  1  0
 43 87  1  0
 45 88  1  0
 46 89  1  0
 48 90  1  0
 49 91  1  0
 51 92  1  0
 51 93  1  0
M  END
>  <Ligand ID>  (1) 
LIG0000884

>  <Ligand>  (1) 
CHEMBL491870

>  <SMILES>  (1) 
NC(=NCCC[C@@H](C(=O)N[C@H](C(=O)N)Cc1c[nH]c2c1cccc2)NC(=O)[C@H](NC(=O)[C@H](Cc1[nH]cnc1)NC(=O)C)Cc1ccc(cc1)Cl)N

>  <CID>  (1) 
25108215.0

>  <ChEMBL ID>  (1) 
nan

>  <InChiKey>  (1) 
ZUBCUEXAMNVTMP-FKWFRFQNSA-N

>  <InChi>  (1) 
InChI=1S/C34H42ClN11O5/c1-19(47)43-29(15-23-17-39-18-42-23)33(51)46-28(13-20-8-10-22(35)11-9-20)32(50)44-26(7-4-12-40-34(37)38)31(49)45-27(30(36)48)14-21-16-41-25-6-3-2-5-24(21)25/h2-3,5-6,8-11,16-18,26-29,41H,4,7,12-15H2,1H3,(H2,36,48)(H,39,42)(H,43,47)(H,44,50)(H,45,49)(H,46,51)(H4,37,38,40)/t26-,27-,28+,29-/m0/s1

>  <IUPAC Name>  (1) 
(2S)-2-[[(2R)-2-[[(2S)-2-acetamido-3-(1H-imidazol-5-yl)propanoyl]amino]-3-(4-chlorophenyl)propanoyl]amino]-N-[(2S)-1-amino-3-(1H-indol-3-yl)-1-oxopropan-2-yl]-5-(diaminomethylideneamino)pentanamide

$$$$
