
     RDKit          3D

 39 40  0  0  0  0  0  0  0  0999 V2000
   -0.3448    0.6030    0.1927 O   0  0  0  0  0  0  0  0  0  0  0  0
   -0.8524   -0.4002   -0.3093 C   0  0  0  0  0  0  0  0  0  0  0  0
   -0.1935   -1.5235   -0.8310 N   0  0  0  0  0  0  0  0  0  0  0  0
    1.2373   -1.7074   -0.8728 C   0  0  0  0  0  0  0  0  0  0  0  0
    1.6783   -3.1514   -1.5568 S   0  0  0  0  0  0  0  0  0  0  0  0
    2.1567   -0.7717   -0.3899 N   0  0  0  0  0  0  0  0  0  0  0  0
    3.5628   -0.8247   -0.3693 C   0  0  0  0  0  0  0  0  0  0  0  0
    4.3502   -1.8440   -0.8366 C   0  0  0  0  0  0  0  0  0  0  0  0
    5.7454   -1.8144   -0.7763 C   0  0  0  0  0  0  0  0  0  0  0  0
    6.3642   -0.7211   -0.2269 C   0  0  0  0  0  0  0  0  0  0  0  0
    5.6196    0.3229    0.2538 C   0  0  0  0  0  0  0  0  0  0  0  0
    4.2558    0.2624    0.1796 C   0  0  0  0  0  0  0  0  0  0  0  0
    6.3018    1.5124    0.8519 C   0  0  0  0  0  0  0  0  0  0  0  0
   -2.3656   -0.4087   -0.3632 C   0  0  0  0  0  0  0  0  0  0  0  0
   -2.9009    0.8816    0.2433 C   0  0  0  0  0  0  0  0  0  0  0  0
   -4.3656    0.9297    0.2183 C   0  0  0  0  0  0  0  0  0  0  0  0
   -5.0613    0.4218    1.3018 C   0  0  0  0  0  0  0  0  0  0  0  0
   -6.4441    0.4261    1.3628 C   0  0  0  0  0  0  0  0  0  0  0  0
   -7.1527    0.9597    0.2975 C   0  0  0  0  0  0  0  0  0  0  0  0
   -6.4747    1.4757   -0.8018 C   0  0  0  0  0  0  0  0  0  0  0  0
   -5.0863    1.4615   -0.8428 C   0  0  0  0  0  0  0  0  0  0  0  0
   -0.8242   -2.2887   -1.2218 H   0  0  0  0  0  0  0  0  0  0  0  0
    1.7350    0.1068    0.0212 H   0  0  0  0  0  0  0  0  0  0  0  0
    3.9364   -2.7203   -1.2743 H   0  0  0  0  0  0  0  0  0  0  0  0
    6.3332   -2.6426   -1.1577 H   0  0  0  0  0  0  0  0  0  0  0  0
    7.4421   -0.7266   -0.1941 H   0  0  0  0  0  0  0  0  0  0  0  0
    3.7177    1.1308    0.5821 H   0  0  0  0  0  0  0  0  0  0  0  0
    6.2691    2.3959    0.1945 H   0  0  0  0  0  0  0  0  0  0  0  0
    5.8366    1.6989    1.8582 H   0  0  0  0  0  0  0  0  0  0  0  0
    7.3694    1.2453    1.0485 H   0  0  0  0  0  0  0  0  0  0  0  0
   -2.7604   -1.2373    0.2437 H   0  0  0  0  0  0  0  0  0  0  0  0
   -2.7175   -0.5089   -1.4090 H   0  0  0  0  0  0  0  0  0  0  0  0
   -2.4569    0.9938    1.2329 H   0  0  0  0  0  0  0  0  0  0  0  0
   -2.5186    1.6924   -0.4212 H   0  0  0  0  0  0  0  0  0  0  0  0
   -4.5051    0.0063    2.1311 H   0  0  0  0  0  0  0  0  0  0  0  0
   -7.0104    0.0394    2.1896 H   0  0  0  0  0  0  0  0  0  0  0  0
   -8.2463    0.9722    0.3271 H   0  0  0  0  0  0  0  0  0  0  0  0
   -7.0683    1.8871   -1.6207 H   0  0  0  0  0  0  0  0  0  0  0  0
   -4.5622    1.8657   -1.7036 H   0  0  0  0  0  0  0  0  0  0  0  0
  1  2  2  0
  2  3  1  0
  3  4  1  0
  4  5  2  0
  4  6  1  0
  6  7  1  0
  7  8  2  0
  8  9  1  0
  9 10  2  0
 10 11  1  0
 11 12  2  0
 11 13  1  0
  2 14  1  0
 14 15  1  0
 15 16  1  0
 16 17  2  0
 17 18  1  0
 18 19  2  0
 19 20  1  0
 20 21  2  0
 12  7  1  0
 21 16  1  0
  3 22  1  0
  6 23  1  0
  8 24  1  0
  9 25  1  0
 10 26  1  0
 12 27  1  0
 13 28  1  0
 13 29  1  0
 13 30  1  0
 14 31  1  0
 14 32  1  0
 15 33  1  0
 15 34  1  0
 17 35  1  0
 18 36  1  0
 19 37  1  0
 20 38  1  0
 21 39  1  0
M  END
>  <Ligand ID>  (1) 
LIG0003775

>  <Ligand>  (1) 
N-[(3-methylphenyl)carbamothioyl]-3-phenylpropanamide

>  <SMILES>  (1) 
O=C(NC(=S)Nc1cccc(c1)C)CCc1ccccc1

>  <CID>  (1) 
833601.0

>  <ChEMBL ID>  (1) 
nan

>  <InChiKey>  (1) 
LDUQIFNJWMVMQZ-UHFFFAOYSA-N

>  <InChi>  (1) 
InChI=1S/C17H18N2OS/c1-13-6-5-9-15(12-13)18-17(21)19-16(20)11-10-14-7-3-2-4-8-14/h2-9,12H,10-11H2,1H3,(H2,18,19,20,21)

>  <IUPAC Name>  (1) 
N-[(3-methylphenyl)carbamothioyl]-3-phenylpropanamide

$$$$
