
     RDKit          3D

 26 27  0  0  0  0  0  0  0  0999 V2000
   -0.4399   -2.4903   -1.6109 N   0  0  0  0  0  0  0  0  0  0  0  0
   -0.0802   -1.1020   -1.3625 C   0  0  1  0  0  0  0  0  0  0  0  0
   -1.2957   -0.2605   -1.0423 C   0  0  0  0  0  0  0  0  0  0  0  0
   -0.9995    0.4969    0.2195 C   0  0  1  0  0  0  0  0  0  0  0  0
    0.2735   -0.0771    0.7847 C   0  0  1  0  0  0  0  0  0  0  0  0
    0.8738   -0.9807   -0.2166 C   0  0  2  0  0  0  0  0  0  0  0  0
    1.5175    0.3263    0.0036 C   0  0  2  0  0  0  0  0  0  0  0  0
    2.7902    0.4665    0.7585 C   0  0  0  0  0  0  0  0  0  0  0  0
    3.0487   -0.3173    1.7345 O   0  0  0  0  0  0  0  0  0  0  0  0
    3.7436    1.4461    0.4384 O   0  0  0  0  0  0  0  0  0  0  0  0
   -0.8158    1.9010   -0.1164 N   0  0  0  0  0  0  0  0  0  0  0  0
   -2.1536    0.3759    1.1311 C   0  0  0  0  0  0  0  0  0  0  0  0
   -2.5453   -0.7267    1.5869 O   0  0  0  0  0  0  0  0  0  0  0  0
   -2.8749    1.5011    1.5352 O   0  0  0  0  0  0  0  0  0  0  0  0
    0.3867   -3.0709   -1.3984 H   0  0  0  0  0  0  0  0  0  0  0  0
   -1.2114   -2.8121   -0.9616 H   0  0  0  0  0  0  0  0  0  0  0  0
    0.4230   -0.7282   -2.2751 H   0  0  0  0  0  0  0  0  0  0  0  0
   -1.4810    0.4182   -1.8942 H   0  0  0  0  0  0  0  0  0  0  0  0
   -2.1965   -0.9092   -0.9517 H   0  0  0  0  0  0  0  0  0  0  0  0
    0.3646   -0.2862    1.8508 H   0  0  0  0  0  0  0  0  0  0  0  0
    1.3817   -1.9249    0.0651 H   0  0  0  0  0  0  0  0  0  0  0  0
    1.4142    1.0666   -0.8187 H   0  0  0  0  0  0  0  0  0  0  0  0
    4.3759    1.7555    1.1735 H   0  0  0  0  0  0  0  0  0  0  0  0
   -0.2232    2.4021    0.5721 H   0  0  0  0  0  0  0  0  0  0  0  0
   -0.4733    2.0255   -1.0950 H   0  0  0  0  0  0  0  0  0  0  0  0
   -3.8033    1.5043    1.8893 H   0  0  0  0  0  0  0  0  0  0  0  0
  1  2  1  0
  2  3  1  0
  3  4  1  0
  4  5  1  0
  5  6  1  0
  6  7  1  0
  7  8  1  0
  8  9  2  0
  8 10  1  0
  4 11  1  6
  4 12  1  0
 12 13  2  0
 12 14  1  0
  6  2  1  0
  7  5  1  0
  1 15  1  0
  1 16  1  0
  2 17  1  6
  3 18  1  0
  3 19  1  0
  5 20  1  1
  6 21  1  1
  7 22  1  6
 10 23  1  0
 11 24  1  0
 11 25  1  0
 14 26  1  0
M  END
>  <Ligand ID>  (1) 
LIG0001188

>  <Ligand>  (1) 
CHEMBL2381647

>  <SMILES>  (1) 
N[C@H]1C[C@@]([C@H]2[C@@H]1[C@@H]2C(=O)O)(N)C(=O)O

>  <CID>  (1) 
11275666.0

>  <ChEMBL ID>  (1) 
nan

>  <InChiKey>  (1) 
BIHSLTSGYFDSHV-FJNNMDBYSA-N

>  <InChi>  (1) 
InChI=1S/C8H12N2O4/c9-2-1-8(10,7(13)14)5-3(2)4(5)6(11)12/h2-5H,1,9-10H2,(H,11,12)(H,13,14)/t2-,3-,4-,5-,8-/m0/s1

>  <IUPAC Name>  (1) 
(1S,2S,4S,5R,6S)-2,4-diaminobicyclo[3.1.0]hexane-2,6-dicarboxylic acid

$$$$
