
     RDKit          3D

 32 33  0  0  0  0  0  0  0  0999 V2000
   -3.9966   -0.5215    0.0670 O   0  0  0  0  0  0  0  0  0  0  0  0
   -3.0332   -1.4804    0.3419 C   0  0  0  0  0  0  0  0  0  0  0  0
   -3.1654   -2.0965    1.4500 O   0  0  0  0  0  0  0  0  0  0  0  0
   -1.9186   -1.7743   -0.5916 C   0  0  0  0  0  0  0  0  0  0  0  0
   -0.9509   -0.6400   -0.7742 C   0  0  2  0  0  0  0  0  0  0  0  0
   -0.2633   -0.1808    0.4296 C   0  0  2  0  0  0  0  0  0  0  0  0
   -1.1663    0.7317   -0.2986 C   0  0  1  0  0  0  0  0  0  0  0  0
   -0.5619    2.0737   -1.3164 P   0  0  0  0  0  0  0  0  0  0  0  0
   -0.4011    1.6454   -2.7673 O   0  0  0  0  0  0  0  0  0  0  0  0
   -1.7210    3.3061   -1.3340 O   0  0  0  0  0  0  0  0  0  0  0  0
    0.9068    2.7042   -0.7609 O   0  0  0  0  0  0  0  0  0  0  0  0
    1.2060   -0.0180    0.4922 C   0  0  0  0  0  0  0  0  0  0  0  0
    1.8421   -0.0463    1.7250 C   0  0  0  0  0  0  0  0  0  0  0  0
    3.2303    0.0976    1.8235 C   0  0  0  0  0  0  0  0  0  0  0  0
    4.0159    0.2727    0.6987 C   0  0  0  0  0  0  0  0  0  0  0  0
    3.3842    0.2996   -0.5123 C   0  0  0  0  0  0  0  0  0  0  0  0
    2.0107    0.1573   -0.6122 C   0  0  0  0  0  0  0  0  0  0  0  0
   -1.0927   -2.8692   -0.0523 N   0  0  0  0  0  0  0  0  0  0  0  0
   -4.7109   -0.2284    0.7262 H   0  0  0  0  0  0  0  0  0  0  0  0
   -2.2980   -2.1440   -1.5760 H   0  0  0  0  0  0  0  0  0  0  0  0
   -0.4000   -0.7508   -1.7553 H   0  0  0  0  0  0  0  0  0  0  0  0
   -0.6883   -0.4835    1.4330 H   0  0  0  0  0  0  0  0  0  0  0  0
   -2.1896    0.9291    0.1377 H   0  0  0  0  0  0  0  0  0  0  0  0
   -2.0517    3.5131   -0.4035 H   0  0  0  0  0  0  0  0  0  0  0  0
    0.7329    3.4143   -0.0782 H   0  0  0  0  0  0  0  0  0  0  0  0
    1.3110   -0.1784    2.6589 H   0  0  0  0  0  0  0  0  0  0  0  0
    3.7051    0.0719    2.8011 H   0  0  0  0  0  0  0  0  0  0  0  0
    5.0713    0.3768    0.8421 H   0  0  0  0  0  0  0  0  0  0  0  0
    4.0060    0.4373   -1.3916 H   0  0  0  0  0  0  0  0  0  0  0  0
    1.5843    0.1832   -1.5821 H   0  0  0  0  0  0  0  0  0  0  0  0
   -1.4243   -3.1552    0.8923 H   0  0  0  0  0  0  0  0  0  0  0  0
   -0.9724   -3.6465   -0.7127 H   0  0  0  0  0  0  0  0  0  0  0  0
  1  2  1  0
  2  3  2  0
  2  4  1  0
  4  5  1  0
  5  6  1  0
  6  7  1  0
  7  8  1  0
  8  9  2  0
  8 10  1  0
  8 11  1  0
  6 12  1  0
 12 13  2  0
 13 14  1  0
 14 15  2  0
 15 16  1  0
 16 17  2  0
  4 18  1  0
  7  5  1  0
 17 12  1  0
  1 19  1  0
  4 20  1  0
  5 21  1  6
  6 22  1  1
  7 23  1  1
 10 24  1  0
 11 25  1  0
 13 26  1  0
 14 27  1  0
 15 28  1  0
 16 29  1  0
 17 30  1  0
 18 31  1  0
 18 32  1  0
M  END
>  <Ligand ID>  (1) 
LIG0000826

>  <Ligand>  (1) 
CHEMBL392419

>  <SMILES>  (1) 
OC(=O)C([C@@H]1[C@H]([C@H]1P(=O)(O)O)c1ccccc1)N

>  <CID>  (1) 
44429217.0

>  <ChEMBL ID>  (1) 
nan

>  <InChiKey>  (1) 
DLDXPEVIBANPLO-URJDPWSZSA-N

>  <InChi>  (1) 
InChI=1S/C11H14NO5P/c12-9(11(13)14)8-7(10(8)18(15,16)17)6-4-2-1-3-5-6/h1-5,7-10H,12H2,(H,13,14)(H2,15,16,17)/t7-,8+,9?,10-/m1/s1

>  <IUPAC Name>  (1) 
2-amino-2-[(1S,2S,3R)-2-phenyl-3-phosphonocyclopropyl]acetic acid

$$$$
