
     RDKit          3D

195202  0  0  0  0  0  0  0  0999 V2000
    8.7599   -4.8606   -0.8203 N   0  0  0  0  0  0  0  0  0  0  0  0
    7.4712   -5.3069   -0.8132 C   0  0  0  0  0  0  0  0  0  0  0  0
    6.5263   -4.5267   -0.0941 N   0  0  0  0  0  0  0  0  0  0  0  0
    7.3236   -3.3614    0.4473 C   0  0  0  0  0  0  0  0  0  0  0  0
    6.3988   -2.1592    0.1976 C   0  0  0  0  0  0  0  0  0  0  0  0
    5.2402   -2.1932    1.1350 C   0  0  0  0  0  0  0  0  0  0  0  0
    4.2875   -1.0087    0.8868 C   0  0  2  0  0  0  0  0  0  0  0  0
    3.7048   -1.1728   -0.4589 N   0  0  0  0  0  0  0  0  0  0  0  0
    2.4744   -1.7019   -0.7454 C   0  0  0  0  0  0  0  0  0  0  0  0
    1.8164   -2.1220    0.2982 O   0  0  0  0  0  0  0  0  0  0  0  0
    1.7097   -1.8959   -2.0096 C   0  0  1  0  0  0  0  0  0  0  0  0
    2.4708   -2.7195   -3.0163 C   0  0  0  0  0  0  0  0  0  0  0  0
    2.6631   -4.1345   -2.6102 C   0  0  0  0  0  0  0  0  0  0  0  0
    1.8418   -5.1568   -3.1722 C   0  0  0  0  0  0  0  0  0  0  0  0
    1.9694   -6.4661   -2.7606 C   0  0  0  0  0  0  0  0  0  0  0  0
    2.9138   -6.7982   -1.7796 C   0  0  0  0  0  0  0  0  0  0  0  0
    3.7126   -5.8268   -1.2166 C   0  0  0  0  0  0  0  0  0  0  0  0
    3.5320   -4.5606   -1.6702 C   0  0  0  0  0  0  0  0  0  0  0  0
    0.5519   -2.7435   -1.6419 N   0  0  0  0  0  0  0  0  0  0  0  0
   -0.7419   -2.3391   -1.2927 C   0  0  0  0  0  0  0  0  0  0  0  0
   -0.9568   -1.1480   -1.1503 O   0  0  0  0  0  0  0  0  0  0  0  0
   -1.7507   -3.4478   -1.1087 C   0  0  2  0  0  0  0  0  0  0  0  0
   -2.0438   -3.8884   -2.5455 C   0  0  0  0  0  0  0  0  0  0  0  0
   -3.0040   -5.0258   -2.6096 C   0  0  0  0  0  0  0  0  0  0  0  0
   -4.3226   -4.8793   -2.7111 N   0  0  0  0  0  0  0  0  0  0  0  0
   -4.9682   -6.0429   -2.7426 C   0  0  0  0  0  0  0  0  0  0  0  0
   -3.9879   -6.9859   -2.6575 N   0  0  0  0  0  0  0  0  0  0  0  0
   -2.7749   -6.3798   -2.5730 C   0  0  0  0  0  0  0  0  0  0  0  0
   -2.9508   -3.0276   -0.4493 N   0  0  0  0  0  0  0  0  0  0  0  0
   -3.8315   -2.0136   -0.8797 C   0  0  0  0  0  0  0  0  0  0  0  0
   -3.4433   -1.3601   -1.8620 O   0  0  0  0  0  0  0  0  0  0  0  0
   -5.1288   -1.6439   -0.2992 C   0  0  1  0  0  0  0  0  0  0  0  0
   -5.5633   -2.6470    0.6834 N   0  0  0  0  0  0  0  0  0  0  0  0
   -6.7446   -3.3145    0.7672 C   0  0  0  0  0  0  0  0  0  0  0  0
   -7.6520   -3.0442   -0.1524 O   0  0  0  0  0  0  0  0  0  0  0  0
   -7.2226   -4.3144    1.7343 C   0  0  2  0  0  0  0  0  0  0  0  0
   -6.5707   -5.6796    1.5533 C   0  0  0  0  0  0  0  0  0  0  0  0
   -7.1035   -6.5879    2.5804 C   0  0  0  0  0  0  0  0  0  0  0  0
   -6.5736   -6.5184    3.8302 C   0  0  0  0  0  0  0  0  0  0  0  0
   -6.9669   -7.2973    4.8992 C   0  0  0  0  0  0  0  0  0  0  0  0
   -7.9747   -8.2100    4.6451 C   0  0  0  0  0  0  0  0  0  0  0  0
   -8.5729   -8.3515    3.3756 C   0  0  0  0  0  0  0  0  0  0  0  0
   -8.1125   -7.5275    2.3895 C   0  0  0  0  0  0  0  0  0  0  0  0
   -8.4149   -9.0318    5.7122 O   0  0  0  0  0  0  0  0  0  0  0  0
   -8.6600   -4.4723    1.6720 N   0  0  0  0  0  0  0  0  0  0  0  0
   -5.1411   -0.3200    0.4397 C   0  0  0  0  0  0  0  0  0  0  0  0
   -4.4371    0.8117   -0.0554 C   0  0  0  0  0  0  0  0  0  0  0  0
   -3.2522    0.9875    0.4714 O   0  0  0  0  0  0  0  0  0  0  0  0
   -4.5952    1.8564   -0.9673 N   0  0  0  0  0  0  0  0  0  0  0  0
   -5.7372    2.0576   -1.7771 C   0  0  2  0  0  0  0  0  0  0  0  0
   -6.8238    2.6878   -0.9017 C   0  0  0  0  0  0  0  0  0  0  0  0
   -7.9382    2.9916   -1.2655 O   0  0  0  0  0  0  0  0  0  0  0  0
   -6.5024    2.9618    0.4852 N   0  0  0  0  0  0  0  0  0  0  0  0
   -6.3191    0.7986   -2.3148 C   0  0  0  0  0  0  0  0  0  0  0  0
   -7.4227    1.1008   -3.2410 C   0  0  0  0  0  0  0  0  0  0  0  0
   -8.7463    1.0270   -2.9110 C   0  0  0  0  0  0  0  0  0  0  0  0
   -9.6796    1.3859   -3.8503 C   0  0  0  0  0  0  0  0  0  0  0  0
   -9.2454    1.7947   -5.0831 C   0  0  0  0  0  0  0  0  0  0  0  0
   -7.9254    1.8720   -5.4496 C   0  0  0  0  0  0  0  0  0  0  0  0
   -6.9913    1.5246   -4.5200 C   0  0  0  0  0  0  0  0  0  0  0  0
  -10.1594    2.1774   -6.0966 O   0  0  0  0  0  0  0  0  0  0  0  0
   -3.4961    2.8413   -1.1093 C   0  0  2  0  0  0  0  0  0  0  0  0
   -2.2134    2.0476   -1.3947 C   0  0  0  0  0  0  0  0  0  0  0  0
   -3.3194    3.6205    0.1426 N   0  0  0  0  0  0  0  0  0  0  0  0
   -2.2134    4.4593    0.1566 C   0  0  0  0  0  0  0  0  0  0  0  0
   -1.6155    4.3653   -1.0433 O   0  0  0  0  0  0  0  0  0  0  0  0
   -1.5041    5.3601    1.0154 C   0  0  1  0  0  0  0  0  0  0  0  0
   -0.3532    5.9851    0.3442 N   0  0  0  0  0  0  0  0  0  0  0  0
    0.9806    5.5574    0.4102 C   0  0  0  0  0  0  0  0  0  0  0  0
    1.1644    4.4670    1.0227 O   0  0  0  0  0  0  0  0  0  0  0  0
    2.1586    6.2035   -0.1532 C   0  0  1  0  0  0  0  0  0  0  0  0
    3.2912    5.2884   -0.2373 N   0  0  0  0  0  0  0  0  0  0  0  0
    4.5289    5.5844   -0.8502 C   0  0  0  0  0  0  0  0  0  0  0  0
    4.6262    6.7495   -1.2846 O   0  0  0  0  0  0  0  0  0  0  0  0
    5.6751    4.6785   -1.0301 C   0  0  1  0  0  0  0  0  0  0  0  0
    5.4824    3.4890   -0.1676 N   0  0  0  0  0  0  0  0  0  0  0  0
    6.4375    2.9849    0.6901 C   0  0  0  0  0  0  0  0  0  0  0  0
    7.5790    3.7374    0.4801 O   0  0  0  0  0  0  0  0  0  0  0  0
    6.7006    2.0133    1.6908 C   0  0  1  0  0  0  0  0  0  0  0  0
    5.7929    0.8705    1.8281 N   0  0  0  0  0  0  0  0  0  0  0  0
    5.1483    0.2194    0.7047 C   0  0  0  0  0  0  0  0  0  0  0  0
    5.3535    0.7363   -0.3820 O   0  0  0  0  0  0  0  0  0  0  0  0
    8.1525    1.4730    1.6914 C   0  0  0  0  0  0  0  0  0  0  0  0
    8.2718    0.6928    2.9276 C   0  0  0  0  0  0  0  0  0  0  0  0
    7.9502   -0.6543    3.2756 C   0  0  0  0  0  0  0  0  0  0  0  0
    8.1246   -0.6339    4.5645 N   0  0  0  0  0  0  0  0  0  0  0  0
    8.4879    0.4222    5.1783 C   0  0  0  0  0  0  0  0  0  0  0  0
    8.6155    1.3615    4.1427 C   0  0  0  0  0  0  0  0  0  0  0  0
    9.0312    2.6891    4.3717 C   0  0  0  0  0  0  0  0  0  0  0  0
    9.2998    3.0270    5.7194 C   0  0  0  0  0  0  0  0  0  0  0  0
    9.1505    2.0766    6.7081 C   0  0  0  0  0  0  0  0  0  0  0  0
    8.7618    0.8027    6.4947 C   0  0  0  0  0  0  0  0  0  0  0  0
    5.7172    4.1736   -2.4888 C   0  0  0  0  0  0  0  0  0  0  0  0
    5.8728    5.2776   -3.4504 C   0  0  0  0  0  0  0  0  0  0  0  0
    4.8651    5.9726   -3.7603 O   0  0  0  0  0  0  0  0  0  0  0  0
    7.1134    5.6157   -4.0552 N   0  0  0  0  0  0  0  0  0  0  0  0
    1.9224    6.9526   -1.4584 C   0  0  0  0  0  0  0  0  0  0  0  0
   -2.2157    6.4336    1.7687 C   0  0  0  0  0  0  0  0  0  0  0  0
   -1.2379    7.2856    2.5388 C   0  0  0  0  0  0  0  0  0  0  0  0
   -0.7719    7.0249    3.7602 C   0  0  0  0  0  0  0  0  0  0  0  0
    0.1163    7.7678    4.5223 C   0  0  0  0  0  0  0  0  0  0  0  0
    0.5204    8.9620    3.8042 C   0  0  0  0  0  0  0  0  0  0  0  0
    0.0608    9.2278    2.5948 C   0  0  0  0  0  0  0  0  0  0  0  0
   -0.8209    8.4603    1.8644 C   0  0  0  0  0  0  0  0  0  0  0  0
   -3.6954    3.7904   -2.1978 C   0  0  0  0  0  0  0  0  0  0  0  0
   -3.9087    5.0140   -2.0379 O   0  0  0  0  0  0  0  0  0  0  0  0
   -3.6531    3.3249   -3.5108 O   0  0  0  0  0  0  0  0  0  0  0  0
    6.9392   -6.4510   -1.4831 N   0  0  0  0  0  0  0  0  0  0  0  0
    9.0836   -4.2206   -1.6129 H   0  0  0  0  0  0  0  0  0  0  0  0
    9.5333   -5.0458   -0.1297 H   0  0  0  0  0  0  0  0  0  0  0  0
    7.3454   -3.5305    1.5358 H   0  0  0  0  0  0  0  0  0  0  0  0
    8.2900   -3.2641    0.0070 H   0  0  0  0  0  0  0  0  0  0  0  0
    6.9658   -1.2327    0.1719 H   0  0  0  0  0  0  0  0  0  0  0  0
    6.0677   -2.3386   -0.8704 H   0  0  0  0  0  0  0  0  0  0  0  0
    5.5225   -2.1331    2.1809 H   0  0  0  0  0  0  0  0  0  0  0  0
    4.6301   -3.1089    0.9841 H   0  0  0  0  0  0  0  0  0  0  0  0
    3.5657   -1.0075    1.6466 H   0  0  0  0  0  0  0  0  0  0  0  0
    4.2917   -0.8603   -1.2508 H   0  0  0  0  0  0  0  0  0  0  0  0
    1.4493   -0.9143   -2.3675 H   0  0  0  0  0  0  0  0  0  0  0  0
    2.0297   -2.6552   -4.0288 H   0  0  0  0  0  0  0  0  0  0  0  0
    3.5036   -2.2482   -3.1046 H   0  0  0  0  0  0  0  0  0  0  0  0
    1.1053   -4.9124   -3.9276 H   0  0  0  0  0  0  0  0  0  0  0  0
    1.3749   -7.2684   -3.1682 H   0  0  0  0  0  0  0  0  0  0  0  0
    3.0466   -7.8247   -1.4555 H   0  0  0  0  0  0  0  0  0  0  0  0
    4.3786   -6.1591   -0.4404 H   0  0  0  0  0  0  0  0  0  0  0  0
    4.1752   -3.7762   -1.2360 H   0  0  0  0  0  0  0  0  0  0  0  0
    0.7571   -3.7407   -1.6084 H   0  0  0  0  0  0  0  0  0  0  0  0
   -1.3301   -4.3253   -0.5768 H   0  0  0  0  0  0  0  0  0  0  0  0
   -2.4686   -3.0035   -3.0667 H   0  0  0  0  0  0  0  0  0  0  0  0
   -1.1220   -4.1394   -3.0831 H   0  0  0  0  0  0  0  0  0  0  0  0
   -6.0306   -6.1478   -2.8143 H   0  0  0  0  0  0  0  0  0  0  0  0
   -4.1771   -8.0262   -2.6571 H   0  0  0  0  0  0  0  0  0  0  0  0
   -1.8038   -6.8984   -2.4847 H   0  0  0  0  0  0  0  0  0  0  0  0
   -3.1963   -3.4876    0.4377 H   0  0  0  0  0  0  0  0  0  0  0  0
   -5.8908   -1.6743   -1.0779 H   0  0  0  0  0  0  0  0  0  0  0  0
   -4.8252   -2.8620    1.4426 H   0  0  0  0  0  0  0  0  0  0  0  0
   -6.9498   -4.0020    2.7875 H   0  0  0  0  0  0  0  0  0  0  0  0
   -5.4822   -5.5817    1.7064 H   0  0  0  0  0  0  0  0  0  0  0  0
   -6.8052   -6.0414    0.5267 H   0  0  0  0  0  0  0  0  0  0  0  0
   -5.7734   -5.8020    4.0454 H   0  0  0  0  0  0  0  0  0  0  0  0
   -6.5204   -7.2124    5.8634 H   0  0  0  0  0  0  0  0  0  0  0  0
   -9.3361   -9.0901    3.2933 H   0  0  0  0  0  0  0  0  0  0  0  0
   -8.5623   -7.6159    1.3976 H   0  0  0  0  0  0  0  0  0  0  0  0
   -8.7902   -8.5239    6.5285 H   0  0  0  0  0  0  0  0  0  0  0  0
   -9.0374   -5.2888    2.1549 H   0  0  0  0  0  0  0  0  0  0  0  0
   -9.1122   -3.5481    1.9464 H   0  0  0  0  0  0  0  0  0  0  0  0
   -4.6599   -0.6173    1.4441 H   0  0  0  0  0  0  0  0  0  0  0  0
   -6.2159   -0.1255    0.6863 H   0  0  0  0  0  0  0  0  0  0  0  0
   -5.6194    2.8296   -2.5376 H   0  0  0  0  0  0  0  0  0  0  0  0
   -6.3928    3.9755    0.8011 H   0  0  0  0  0  0  0  0  0  0  0  0
   -6.3638    2.1970    1.1697 H   0  0  0  0  0  0  0  0  0  0  0  0
   -5.6177    0.1352   -2.8247 H   0  0  0  0  0  0  0  0  0  0  0  0
   -6.8675    0.2567   -1.4626 H   0  0  0  0  0  0  0  0  0  0  0  0
   -9.0591    0.6696   -1.9180 H   0  0  0  0  0  0  0  0  0  0  0  0
  -10.7025    1.3120   -3.5987 H   0  0  0  0  0  0  0  0  0  0  0  0
   -7.6013    2.1888   -6.4535 H   0  0  0  0  0  0  0  0  0  0  0  0
   -5.9321    1.5700   -4.7633 H   0  0  0  0  0  0  0  0  0  0  0  0
   -9.9272    3.1130   -6.4836 H   0  0  0  0  0  0  0  0  0  0  0  0
   -1.7318    2.4639   -2.3087 H   0  0  0  0  0  0  0  0  0  0  0  0
   -1.5202    2.1170   -0.5601 H   0  0  0  0  0  0  0  0  0  0  0  0
   -2.5393    1.0367   -1.6941 H   0  0  0  0  0  0  0  0  0  0  0  0
   -3.9345    3.5827    0.9466 H   0  0  0  0  0  0  0  0  0  0  0  0
   -0.9877    4.6533    1.7855 H   0  0  0  0  0  0  0  0  0  0  0  0
   -0.5570    6.7873   -0.2391 H   0  0  0  0  0  0  0  0  0  0  0  0
    2.5109    7.0308    0.5409 H   0  0  0  0  0  0  0  0  0  0  0  0
    3.1991    4.3717    0.2039 H   0  0  0  0  0  0  0  0  0  0  0  0
    6.6087    5.1850   -0.8713 H   0  0  0  0  0  0  0  0  0  0  0  0
    4.5633    3.0795   -0.2462 H   0  0  0  0  0  0  0  0  0  0  0  0
    6.6048    2.5211    2.7019 H   0  0  0  0  0  0  0  0  0  0  0  0
    5.5422    0.4529    2.7272 H   0  0  0  0  0  0  0  0  0  0  0  0
    8.3418    0.9019    0.7766 H   0  0  0  0  0  0  0  0  0  0  0  0
    8.7963    2.3512    1.7252 H   0  0  0  0  0  0  0  0  0  0  0  0
    7.6769   -1.3366    2.5192 H   0  0  0  0  0  0  0  0  0  0  0  0
    7.9621   -1.5744    5.1228 H   0  0  0  0  0  0  0  0  0  0  0  0
    9.1673    3.4001    3.5909 H   0  0  0  0  0  0  0  0  0  0  0  0
    9.6209    4.0288    5.9737 H   0  0  0  0  0  0  0  0  0  0  0  0
    9.3731    2.4501    7.7272 H   0  0  0  0  0  0  0  0  0  0  0  0
    8.6704    0.1233    7.2813 H   0  0  0  0  0  0  0  0  0  0  0  0
    6.4952    3.3866   -2.6006 H   0  0  0  0  0  0  0  0  0  0  0  0
    4.7215    3.6771   -2.6292 H   0  0  0  0  0  0  0  0  0  0  0  0
    7.3105    6.4742   -4.5852 H   0  0  0  0  0  0  0  0  0  0  0  0
    7.9156    4.9259   -3.9647 H   0  0  0  0  0  0  0  0  0  0  0  0
    2.1479    6.3085   -2.3297 H   0  0  0  0  0  0  0  0  0  0  0  0
    0.8912    7.2814   -1.5169 H   0  0  0  0  0  0  0  0  0  0  0  0
    2.5847    7.8480   -1.4575 H   0  0  0  0  0  0  0  0  0  0  0  0
   -2.8390    5.9064    2.5664 H   0  0  0  0  0  0  0  0  0  0  0  0
   -2.9570    7.0219    1.2099 H   0  0  0  0  0  0  0  0  0  0  0  0
   -1.1129    6.1040    4.2824 H   0  0  0  0  0  0  0  0  0  0  0  0
    0.4849    7.5511    5.4808 H   0  0  0  0  0  0  0  0  0  0  0  0
    1.2152    9.5561    4.4132 H   0  0  0  0  0  0  0  0  0  0  0  0
    0.3903   10.1527    2.0828 H   0  0  0  0  0  0  0  0  0  0  0  0
   -1.1677    8.7186    0.8886 H   0  0  0  0  0  0  0  0  0  0  0  0
   -3.1842    3.9757   -4.1775 H   0  0  0  0  0  0  0  0  0  0  0  0
    6.4858   -7.1585   -0.8561 H   0  0  0  0  0  0  0  0  0  0  0  0
    7.0195   -6.5178   -2.5101 H   0  0  0  0  0  0  0  0  0  0  0  0
  1  2  1  0
  2  3  2  3
  3  4  1  0
  4  5  1  0
  5  6  1  0
  6  7  1  0
  7  8  1  0
  8  9  1  0
  9 10  2  0
  9 11  1  0
 11 12  1  0
 12 13  1  0
 13 14  2  0
 14 15  1  0
 15 16  2  0
 16 17  1  0
 17 18  2  0
 11 19  1  0
 19 20  1  0
 20 21  2  0
 20 22  1  0
 22 23  1  0
 23 24  1  0
 24 25  1  0
 25 26  2  0
 26 27  1  0
 27 28  1  0
 22 29  1  0
 29 30  1  0
 30 31  2  0
 30 32  1  0
 32 33  1  0
 33 34  1  0
 34 35  2  0
 34 36  1  0
 36 37  1  0
 37 38  1  0
 38 39  2  0
 39 40  1  0
 40 41  2  0
 41 42  1  0
 42 43  2  0
 41 44  1  0
 36 45  1  0
 32 46  1  0
 46 47  1  0
 47 48  2  0
 47 49  1  0
 49 50  1  0
 50 51  1  0
 51 52  2  0
 51 53  1  0
 50 54  1  0
 54 55  1  0
 55 56  2  0
 56 57  1  0
 57 58  2  0
 58 59  1  0
 59 60  2  0
 58 61  1  0
 49 62  1  0
 62 63  1  6
 62 64  1  0
 64 65  1  0
 65 66  2  0
 65 67  1  0
 67 68  1  0
 68 69  1  0
 69 70  2  0
 69 71  1  0
 71 72  1  0
 72 73  1  0
 73 74  2  0
 73 75  1  0
 75 76  1  0
 76 77  1  0
 77 78  2  0
 77 79  1  0
 79 80  1  0
 80 81  1  0
 81 82  2  0
 79 83  1  0
 83 84  1  0
 84 85  2  0
 85 86  1  0
 86 87  1  0
 87 88  2  0
 88 89  1  0
 89 90  2  0
 90 91  1  0
 91 92  2  0
 75 93  1  0
 93 94  1  0
 94 95  2  0
 94 96  1  0
 71 97  1  0
 67 98  1  0
 98 99  1  0
 99100  2  0
100101  1  0
101102  2  0
102103  1  0
103104  2  0
 62105  1  0
105106  2  0
105107  1  0
  2108  1  0
 81  7  1  0
 88 84  1  0
104 99  1  0
 18 13  1  0
 28 24  2  0
 43 38  1  0
 60 55  1  0
 92 87  1  0
  1109  1  0
  1110  1  0
  4111  1  0
  4112  1  0
  5113  1  0
  5114  1  0
  6115  1  0
  6116  1  0
  7117  1  1
  8118  1  0
 11119  1  6
 12120  1  0
 12121  1  0
 14122  1  0
 15123  1  0
 16124  1  0
 17125  1  0
 18126  1  0
 19127  1  0
 22128  1  1
 23129  1  0
 23130  1  0
 26131  1  0
 27132  1  0
 28133  1  0
 29134  1  0
 32135  1  6
 33136  1  0
 36137  1  1
 37138  1  0
 37139  1  0
 39140  1  0
 40141  1  0
 42142  1  0
 43143  1  0
 44144  1  0
 45145  1  0
 45146  1  0
 46147  1  0
 46148  1  0
 50149  1  6
 53150  1  0
 53151  1  0
 54152  1  0
 54153  1  0
 56154  1  0
 57155  1  0
 59156  1  0
 60157  1  0
 61158  1  0
 63159  1  0
 63160  1  0
 63161  1  0
 64162  1  0
 67163  1  1
 68164  1  0
 71165  1  1
 72166  1  0
 75167  1  1
 76168  1  0
 79169  1  1
 80170  1  0
 83171  1  0
 83172  1  0
 85173  1  0
 86174  1  0
 89175  1  0
 90176  1  0
 91177  1  0
 92178  1  0
 93179  1  0
 93180  1  0
 96181  1  0
 96182  1  0
 97183  1  0
 97184  1  0
 97185  1  0
 98186  1  0
 98187  1  0
100188  1  0
101189  1  0
102190  1  0
103191  1  0
104192  1  0
107193  1  0
108194  1  0
108195  1  0
M  END
>  <Ligand ID>  (1) 
LIG0001129

>  <Ligand>  (1) 
CHEMBL2369959

>  <SMILES>  (1) 
NC(=NCCC[C@@H]1NC(=O)[C@@H](Cc2ccccc2)NC(=O)[C@H](Cc2nc[nH]c2)NC(=O)[C@@H](NC(=O)[C@H](Cc2ccc(cc2)O)N)CC(=O)N([C@H](C(=O)N)Cc2ccc(cc2)O)[C@](C)(NC(=O)[C@@H](NC(=O)[C@@H](NC(=O)[C@@H](NC(=O)[C@@H](NC1=O)Cc1c[nH]c2c1cccc2)CC(=O)N)C)Cc1ccccc1)C(=O)O)N

>  <CID>  (1) 
73348446.0

>  <ChEMBL ID>  (1) 
nan

>  <InChiKey>  (1) 
VQYHLIUSSLKEAO-LLIMDFGESA-N

>  <InChi>  (1) 
InChI=1S/C73H87N19O16/c1-39-62(98)85-53(30-41-14-7-4-8-15-41)70(106)91-73(2,71(107)108)92(58(61(76)97)31-43-21-25-47(94)26-22-43)60(96)35-57(86-63(99)49(74)28-42-19-23-46(93)24-20-42)69(105)89-55(33-45-37-79-38-82-45)68(104)87-52(29-40-12-5-3-6-13-40)66(102)84-51(18-11-27-80-72(77)78)64(100)88-54(32-44-36-81-50-17-10-9-16-48(44)50)67(103)90-56(34-59(75)95)65(101)83-39/h3-10,12-17,19-26,36-39,49,51-58,81,93-94H,11,18,27-35,74H2,1-2H3,(H2,75,95)(H2,76,97)(H,79,82)(H,83,101)(H,84,102)(H,85,98)(H,86,99)(H,87,104)(H,88,100)(H,89,105)(H,90,103)(H,91,106)(H,107,108)(H4,77,78,80)/t39-,49-,51-,52+,53-,54-,55-,56-,57-,58-,73-/m0/s1

>  <IUPAC Name>  (1) 
(2S,5S,8S,11S,14S,17S,20R,23S,26S)-1-[(2S)-1-amino-3-(4-hydroxyphenyl)-1-oxopropan-2-yl]-26-[[(2S)-2-amino-3-(4-hydroxyphenyl)propanoyl]amino]-11-(2-amino-2-oxoethyl)-5,20-dibenzyl-17-[3-(diaminomethylideneamino)propyl]-23-(1H-imidazol-4-ylmethyl)-14-(1H-indol-3-ylmethyl)-2,8-dimethyl-4,7,10,13,16,19,22,25,28-nonaoxo-1,3,6,9,12,15,18,21,24-nonazacyclooctacosane-2-carboxylic acid

$$$$
