
     RDKit          3D

 42 43  0  0  0  0  0  0  0  0999 V2000
    3.3594   -1.1924    2.1472 C   0  0  0  0  0  0  0  0  0  0  0  0
    2.3393   -0.3027    1.6141 N   0  0  0  0  0  0  0  0  0  0  0  0
    2.9474    0.3902    0.5124 C   0  0  0  0  0  0  0  0  0  0  0  0
    1.9844    1.4413   -0.0745 C   0  0  0  0  0  0  0  0  0  0  0  0
    0.7222    0.7277   -0.1554 N   0  0  0  0  0  0  0  0  0  0  0  0
    0.7840   -0.7420   -0.1916 C   0  0  0  0  0  0  0  0  0  0  0  0
    1.2481   -1.1630    1.1923 C   0  0  0  0  0  0  0  0  0  0  0  0
   -0.4921   -1.3593   -0.5533 C   0  0  0  0  0  0  0  0  0  0  0  0
   -0.2548   -2.4459   -1.3927 C   0  0  0  0  0  0  0  0  0  0  0  0
   -1.2843   -3.2220   -1.8944 C   0  0  0  0  0  0  0  0  0  0  0  0
   -2.6056   -2.9549   -1.5849 C   0  0  0  0  0  0  0  0  0  0  0  0
   -2.8499   -1.8782   -0.7523 C   0  0  0  0  0  0  0  0  0  0  0  0
   -1.8121   -1.1045   -0.2532 C   0  0  0  0  0  0  0  0  0  0  0  0
   -2.2856    0.0122    0.6283 C   0  0  0  0  0  0  0  0  0  0  0  0
   -1.7280    1.2883    0.1436 C   0  0  0  0  0  0  0  0  0  0  0  0
   -0.4229    1.5715   -0.1884 C   0  0  0  0  0  0  0  0  0  0  0  0
   -0.0483    2.8226   -0.6309 C   0  0  0  0  0  0  0  0  0  0  0  0
   -0.9891    3.8388   -0.7538 C   0  0  0  0  0  0  0  0  0  0  0  0
   -2.2968    3.5542   -0.4208 C   0  0  0  0  0  0  0  0  0  0  0  0
   -2.6805    2.2957    0.0256 C   0  0  0  0  0  0  0  0  0  0  0  0
    0.0000    0.0000    0.0000 Cl  0  0  0  0  0  0  0  0  0  0  0  0
    0.0000    0.0000    0.0000 H   0  0  0  0  0 15  0  0  0  0  0  0
    4.3270   -0.6778    2.0546 H   0  0  0  0  0  0  0  0  0  0  0  0
    3.0946   -1.4233    3.2017 H   0  0  0  0  0  0  0  0  0  0  0  0
    3.3501   -2.1312    1.5248 H   0  0  0  0  0  0  0  0  0  0  0  0
    3.8345    0.9304    0.9027 H   0  0  0  0  0  0  0  0  0  0  0  0
    3.3479   -0.2743   -0.2817 H   0  0  0  0  0  0  0  0  0  0  0  0
    2.0193    2.2384    0.6667 H   0  0  0  0  0  0  0  0  0  0  0  0
    2.4536    1.6460   -1.0532 H   0  0  0  0  0  0  0  0  0  0  0  0
    1.5601   -0.9778   -0.9660 H   0  0  0  0  0  0  0  0  0  0  0  0
    0.3980   -0.9077    1.8721 H   0  0  0  0  0  0  0  0  0  0  0  0
    1.4541   -2.2280    1.2881 H   0  0  0  0  0  0  0  0  0  0  0  0
    0.7634   -2.7039   -1.6707 H   0  0  0  0  0  0  0  0  0  0  0  0
   -1.1159   -4.0741   -2.5513 H   0  0  0  0  0  0  0  0  0  0  0  0
   -3.3984   -3.5512   -1.9701 H   0  0  0  0  0  0  0  0  0  0  0  0
   -3.8495   -1.5905   -0.4535 H   0  0  0  0  0  0  0  0  0  0  0  0
   -3.3910    0.0344    0.5466 H   0  0  0  0  0  0  0  0  0  0  0  0
   -2.0089   -0.1289    1.6781 H   0  0  0  0  0  0  0  0  0  0  0  0
    0.9738    3.0152   -0.8824 H   0  0  0  0  0  0  0  0  0  0  0  0
   -0.6624    4.7954   -1.0998 H   0  0  0  0  0  0  0  0  0  0  0  0
   -3.0654    4.3279   -0.5044 H   0  0  0  0  0  0  0  0  0  0  0  0
   -3.7201    2.1033    0.2803 H   0  0  0  0  0  0  0  0  0  0  0  0
  1  2  1  0
  2  3  1  0
  3  4  1  0
  4  5  1  0
  5  6  1  0
  6  7  1  0
  6  8  1  0
  8  9  2  0
  9 10  1  0
 10 11  2  0
 11 12  1  0
 12 13  2  0
 13 14  1  0
 14 15  1  0
 15 16  2  0
 16 17  1  0
 17 18  2  0
 18 19  1  0
 19 20  2  0
  7  2  1  0
 13  8  1  0
 20 15  1  0
 16  5  1  0
  1 23  1  0
  1 24  1  0
  1 25  1  0
  3 26  1  0
  3 27  1  0
  4 28  1  0
  4 29  1  0
  6 30  1  0
  7 31  1  0
  7 32  1  0
  9 33  1  0
 10 34  1  0
 11 35  1  0
 12 36  1  0
 14 37  1  0
 14 38  1  0
 17 39  1  0
 18 40  1  0
 19 41  1  0
 20 42  1  0
M  CHG  2  21  -1  22   1
M  END
>  <Ligand ID>  (1) 
LIG0002111

>  <Ligand>  (1) 
CHEBI:31843

>  <SMILES>  (1) 
CN1CCN2C(C1)c1ccccc1Cc1c2cccc1.[Cl-].[H+]

>  <CID>  (1) 
657192.0

>  <ChEMBL ID>  (1) 
nan

>  <InChiKey>  (1) 
YNPFMWCWRVTGKJ-UHFFFAOYSA-N

>  <InChi>  (1) 
InChI=1S/C18H20N2.ClH/c1-19-10-11-20-17-9-5-3-7-15(17)12-14-6-2-4-8-16(14)18(20)13-19;/h2-9,18H,10-13H2,1H3;1H

>  <IUPAC Name>  (1) 
hydron;5-methyl-2,5-diazatetracyclo[13.4.0.02,7.08,13]nonadeca-1(19),8,10,12,15,17-hexaene;chloride

$$$$
