
     RDKit          3D

 76 74  0  0  0  0  0  0  0  0999 V2000
    1.4236    0.0129   -0.8081 O   0  0  0  0  0  0  0  0  0  0  0  0
    0.5073    0.0817    0.2364 C   0  0  0  0  0  0  0  0  0  0  0  0
    0.9734    0.1596    1.4171 O   0  0  0  0  0  0  0  0  0  0  0  0
   -0.9477    0.0657   -0.0023 C   0  0  0  0  0  0  0  0  0  0  0  0
   -1.3244   -1.1008   -0.6454 F   0  0  0  0  0  0  0  0  0  0  0  0
   -1.6081    0.1520    1.1991 F   0  0  0  0  0  0  0  0  0  0  0  0
   -1.3339    1.0913   -0.8144 F   0  0  0  0  0  0  0  0  0  0  0  0
    9.1248   -0.3273    0.1035 C   0  0  0  0  0  0  0  0  0  0  0  0
    8.7334   -1.4156    1.0731 C   0  0  0  0  0  0  0  0  0  0  0  0
    7.2088   -1.5816    1.1549 C   0  0  0  0  0  0  0  0  0  0  0  0
    6.5612   -0.3001    1.6089 C   0  0  0  0  0  0  0  0  0  0  0  0
    5.0793   -0.3660    1.7195 C   0  0  0  0  0  0  0  0  0  0  0  0
    4.3623   -0.6991    0.4602 C   0  0  0  0  0  0  0  0  0  0  0  0
    4.5972    0.2872   -0.6729 C   0  0  0  0  0  0  0  0  0  0  0  0
    3.8237   -0.1741   -1.8480 C   0  0  0  0  0  0  0  0  0  0  0  0
    2.3860   -0.3707   -1.8277 C   0  0  0  0  0  0  0  0  0  0  0  0
    1.5028    0.7955   -1.5893 C   0  0  0  0  0  0  0  0  0  0  0  0
    1.5779    1.5015   -0.3075 C   0  0  0  0  0  0  0  0  0  0  0  0
    0.6111    2.6224   -0.1181 C   0  0  0  0  0  0  0  0  0  0  0  0
   -0.8112    2.3401   -0.0066 C   0  0  0  0  0  0  0  0  0  0  0  0
   -1.5702    1.6302   -1.0508 C   0  0  0  0  0  0  0  0  0  0  0  0
   -3.0540    1.6649   -0.5616 C   0  0  0  0  0  0  0  0  0  0  0  0
   -3.8316    0.9346   -1.6350 C   0  0  0  0  0  0  0  0  0  0  0  0
   -5.2262    0.9358   -1.2381 N   0  0  0  0  0  0  0  0  0  0  0  0
   -5.7001    0.3465   -0.0372 C   0  0  0  0  0  0  0  0  0  0  0  0
   -4.9124   -0.2323    0.7826 O   0  0  0  0  0  0  0  0  0  0  0  0
   -7.1345    0.3575    0.3543 C   0  0  2  0  0  0  0  0  0  0  0  0
   -7.6042   -1.0589    0.6194 C   0  0  0  0  0  0  0  0  0  0  0  0
   -8.9284   -1.0629    1.0209 O   0  0  0  0  0  0  0  0  0  0  0  0
   -9.4532   -2.6371    1.3480 P   0  0  0  0  0  0  0  0  0  0  0  0
   -9.7893   -3.3274    0.0586 O   0  0  0  0  0  0  0  0  0  0  0  0
   -8.2305   -3.4679    2.1797 O   0  0  0  0  0  0  0  0  0  0  0  0
  -10.8558   -2.5826    2.2766 O   0  0  0  0  0  0  0  0  0  0  0  0
   -7.8778    1.0280   -0.6671 N   0  0  0  0  0  0  0  0  0  0  0  0
    2.3098   -0.4624   -0.5825 H   0  0  0  0  0  0  0  0  0  0  0  0
    8.2131    0.0008   -0.4538 H   0  0  0  0  0  0  0  0  0  0  0  0
    9.5443    0.5066    0.7111 H   0  0  0  0  0  0  0  0  0  0  0  0
    9.8444   -0.6909   -0.6557 H   0  0  0  0  0  0  0  0  0  0  0  0
    9.1350   -1.2219    2.0944 H   0  0  0  0  0  0  0  0  0  0  0  0
    9.1964   -2.3590    0.7207 H   0  0  0  0  0  0  0  0  0  0  0  0
    6.8564   -1.7718    0.1105 H   0  0  0  0  0  0  0  0  0  0  0  0
    7.0351   -2.4219    1.8214 H   0  0  0  0  0  0  0  0  0  0  0  0
    6.8674    0.5683    1.0231 H   0  0  0  0  0  0  0  0  0  0  0  0
    6.9464   -0.1361    2.6588 H   0  0  0  0  0  0  0  0  0  0  0  0
    4.7286    0.6396    2.0494 H   0  0  0  0  0  0  0  0  0  0  0  0
    4.8013   -1.0895    2.4957 H   0  0  0  0  0  0  0  0  0  0  0  0
    3.2787   -0.7666    0.6744 H   0  0  0  0  0  0  0  0  0  0  0  0
    4.6350   -1.6896    0.0383 H   0  0  0  0  0  0  0  0  0  0  0  0
    4.5994    1.3226   -0.3906 H   0  0  0  0  0  0  0  0  0  0  0  0
    5.7101    0.0450   -0.9720 H   0  0  0  0  0  0  0  0  0  0  0  0
    4.2828   -1.1943   -2.1196 H   0  0  0  0  0  0  0  0  0  0  0  0
    4.0591    0.4664   -2.7665 H   0  0  0  0  0  0  0  0  0  0  0  0
    2.0529   -1.1634   -1.0790 H   0  0  0  0  0  0  0  0  0  0  0  0
    2.1078   -0.8830   -2.8046 H   0  0  0  0  0  0  0  0  0  0  0  0
    1.7662    1.6223   -2.3845 H   0  0  0  0  0  0  0  0  0  0  0  0
    0.4976    0.5034   -1.9592 H   0  0  0  0  0  0  0  0  0  0  0  0
    1.4998    0.8106    0.5894 H   0  0  0  0  0  0  0  0  0  0  0  0
    2.5981    1.9659   -0.1484 H   0  0  0  0  0  0  0  0  0  0  0  0
    0.7935    3.3780   -0.9637 H   0  0  0  0  0  0  0  0  0  0  0  0
    0.9079    3.2362    0.7819 H   0  0  0  0  0  0  0  0  0  0  0  0
   -1.3699    3.3115    0.1932 H   0  0  0  0  0  0  0  0  0  0  0  0
   -0.9576    1.7324    0.9470 H   0  0  0  0  0  0  0  0  0  0  0  0
   -1.4001    0.5038   -1.0026 H   0  0  0  0  0  0  0  0  0  0  0  0
   -1.5505    2.0298   -2.0617 H   0  0  0  0  0  0  0  0  0  0  0  0
   -3.0673    1.1212    0.3918 H   0  0  0  0  0  0  0  0  0  0  0  0
   -3.3681    2.7041   -0.4592 H   0  0  0  0  0  0  0  0  0  0  0  0
   -3.5160   -0.1488   -1.6294 H   0  0  0  0  0  0  0  0  0  0  0  0
   -3.6740    1.3548   -2.6281 H   0  0  0  0  0  0  0  0  0  0  0  0
   -5.9339    1.3879   -1.8526 H   0  0  0  0  0  0  0  0  0  0  0  0
   -7.1782    0.9375    1.3037 H   0  0  0  0  0  0  0  0  0  0  0  0
   -7.0083   -1.4869    1.4452 H   0  0  0  0  0  0  0  0  0  0  0  0
   -7.4749   -1.7160   -0.2406 H   0  0  0  0  0  0  0  0  0  0  0  0
   -7.8258   -2.8268    2.8352 H   0  0  0  0  0  0  0  0  0  0  0  0
  -11.3325   -1.7196    2.1345 H   0  0  0  0  0  0  0  0  0  0  0  0
   -8.8189    1.2655   -0.2343 H   0  0  0  0  0  0  0  0  0  0  0  0
   -8.0707    0.3082   -1.4142 H   0  0  0  0  0  0  0  0  0  0  0  0
  1  2  1  0
  2  3  2  0
  2  4  1  0
  4  5  1  0
  4  6  1  0
  4  7  1  0
  8  9  1  0
  9 10  1  0
 10 11  1  0
 11 12  1  0
 12 13  1  0
 13 14  1  0
 14 15  1  0
 15 16  1  0
 16 17  1  0
 17 18  1  0
 18 19  1  0
 19 20  1  0
 20 21  1  0
 21 22  1  0
 22 23  1  0
 23 24  1  0
 24 25  1  0
 25 26  2  0
 25 27  1  0
 27 28  1  0
 28 29  1  0
 29 30  1  0
 30 31  2  0
 30 32  1  0
 30 33  1  0
 27 34  1  0
  1 35  1  0
  8 36  1  0
  8 37  1  0
  8 38  1  0
  9 39  1  0
  9 40  1  0
 10 41  1  0
 10 42  1  0
 11 43  1  0
 11 44  1  0
 12 45  1  0
 12 46  1  0
 13 47  1  0
 13 48  1  0
 14 49  1  0
 14 50  1  0
 15 51  1  0
 15 52  1  0
 16 53  1  0
 16 54  1  0
 17 55  1  0
 17 56  1  0
 18 57  1  0
 18 58  1  0
 19 59  1  0
 19 60  1  0
 20 61  1  0
 20 62  1  0
 21 63  1  0
 21 64  1  0
 22 65  1  0
 22 66  1  0
 23 67  1  0
 23 68  1  0
 24 69  1  0
 27 70  1  1
 28 71  1  0
 28 72  1  0
 32 73  1  0
 33 74  1  0
 34 75  1  0
 34 76  1  0
M  END
>  <Ligand ID>  (1) 
LIG0004268

>  <Ligand>  (1) 
CHEMBL325408

>  <SMILES>  (1) 
OC(=O)C(F)(F)F.CCCCCCCCCCCCCCCCNC(=O)[C@H](COP(=O)(O)O)N

>  <CID>  (1) 
44342230.0

>  <ChEMBL ID>  (1) 
nan

>  <InChiKey>  (1) 
XGYCMNDXIOZMGJ-FERBBOLQSA-N

>  <InChi>  (1) 
InChI=1S/C19H41N2O5P.C2HF3O2/c1-2-3-4-5-6-7-8-9-10-11-12-13-14-15-16-21-19(22)18(20)17-26-27(23,24)25;3-2(4,5)1(6)7/h18H,2-17,20H2,1H3,(H,21,22)(H2,23,24,25);(H,6,7)/t18-;/m0./s1

>  <IUPAC Name>  (1) 
[(2S)-2-amino-3-(hexadecylamino)-3-oxopropyl] dihydrogen phosphate;2,2,2-trifluoroacetic acid

$$$$
