
     RDKit          3D

 33 34  0  0  0  0  0  0  0  0999 V2000
   -6.9070   -1.0907    0.2894 O   0  0  0  0  0  0  0  0  0  0  0  0
   -6.1644    0.0774    0.1696 C   0  0  0  0  0  0  0  0  0  0  0  0
   -6.7818    1.1511    0.1050 O   0  0  0  0  0  0  0  0  0  0  0  0
   -4.6972   -0.0492    0.1289 C   0  0  0  0  0  0  0  0  0  0  0  0
   -4.0108    1.3178    0.0043 C   0  0  0  0  0  0  0  0  0  0  0  0
   -2.5328    1.0220   -0.0229 C   0  0  0  0  0  0  0  0  0  0  0  0
   -1.8052    1.2544    1.1234 C   0  0  0  0  0  0  0  0  0  0  0  0
   -0.4480    0.9781    1.1131 C   0  0  0  0  0  0  0  0  0  0  0  0
    0.0844    0.4852   -0.0556 C   0  0  0  0  0  0  0  0  0  0  0  0
   -0.6488    0.2551   -1.1987 C   0  0  0  0  0  0  0  0  0  0  0  0
   -2.0067    0.5337   -1.1813 C   0  0  0  0  0  0  0  0  0  0  0  0
   -2.7602    0.3183   -2.2968 F   0  0  0  0  0  0  0  0  0  0  0  0
    1.4881    0.1926   -0.0855 C   0  0  0  0  0  0  0  0  0  0  0  0
    2.6652   -0.0743   -0.1080 C   0  0  0  0  0  0  0  0  0  0  0  0
    4.0613   -0.4124   -0.1212 C   0  0  0  0  0  0  0  0  0  0  0  0
    4.3703   -1.7655   -0.2481 C   0  0  0  0  0  0  0  0  0  0  0  0
    5.6733   -2.2175   -0.2756 C   0  0  0  0  0  0  0  0  0  0  0  0
    5.9910   -3.9306   -0.4370 Cl  0  0  0  0  0  0  0  0  0  0  0  0
    6.6778   -1.2856   -0.1734 C   0  0  0  0  0  0  0  0  0  0  0  0
    6.3711    0.0521   -0.0481 C   0  0  0  0  0  0  0  0  0  0  0  0
    5.0679    0.5260   -0.0183 C   0  0  0  0  0  0  0  0  0  0  0  0
    7.6550    1.2249    0.0813 Cl  0  0  0  0  0  0  0  0  0  0  0  0
   -7.8123   -1.0823    0.7557 H   0  0  0  0  0  0  0  0  0  0  0  0
   -4.3065   -0.7558   -0.6179 H   0  0  0  0  0  0  0  0  0  0  0  0
   -4.3895   -0.4500    1.1346 H   0  0  0  0  0  0  0  0  0  0  0  0
   -4.3296    1.8076   -0.9447 H   0  0  0  0  0  0  0  0  0  0  0  0
   -4.3028    1.8851    0.9131 H   0  0  0  0  0  0  0  0  0  0  0  0
   -2.2456    1.6390    2.0205 H   0  0  0  0  0  0  0  0  0  0  0  0
    0.1567    1.1522    2.0090 H   0  0  0  0  0  0  0  0  0  0  0  0
   -0.1963   -0.1334   -2.1004 H   0  0  0  0  0  0  0  0  0  0  0  0
    3.5838   -2.5139   -0.3290 H   0  0  0  0  0  0  0  0  0  0  0  0
    7.6950   -1.6681   -0.1986 H   0  0  0  0  0  0  0  0  0  0  0  0
    4.8044    1.5566    0.0781 H   0  0  0  0  0  0  0  0  0  0  0  0
  1  2  1  0
  2  3  2  0
  2  4  1  0
  4  5  1  0
  5  6  1  0
  6  7  2  0
  7  8  1  0
  8  9  2  0
  9 10  1  0
 10 11  2  0
 11 12  1  0
  9 13  1  0
 13 14  3  0
 14 15  1  0
 15 16  2  0
 16 17  1  0
 17 18  1  0
 17 19  2  0
 19 20  1  0
 20 21  2  0
 20 22  1  0
 11  6  1  0
 21 15  1  0
  1 23  1  0
  4 24  1  0
  4 25  1  0
  5 26  1  0
  5 27  1  0
  7 28  1  0
  8 29  1  0
 10 30  1  0
 16 31  1  0
 19 32  1  0
 21 33  1  0
M  END
>  <Ligand ID>  (1) 
LIG0005785

>  <Ligand>  (1) 
CHEMBL2386365

>  <SMILES>  (1) 
OC(=O)CCc1ccc(cc1F)C#Cc1cc(Cl)cc(c1)Cl

>  <CID>  (1) 
66562392.0

>  <ChEMBL ID>  (1) 
nan

>  <InChiKey>  (1) 
XGXBPJNMEMVRKQ-UHFFFAOYSA-N

>  <InChi>  (1) 
InChI=1S/C17H11Cl2FO2/c18-14-7-12(8-15(19)10-14)2-1-11-3-4-13(16(20)9-11)5-6-17(21)22/h3-4,7-10H,5-6H2,(H,21,22)

>  <IUPAC Name>  (1) 
3-[4-[2-(3,5-dichlorophenyl)ethynyl]-2-fluorophenyl]propanoic acid

$$$$
