
     RDKit          3D

 33 35  0  0  0  0  0  0  0  0999 V2000
    7.7654   -0.6528    0.5581 C   0  0  0  0  0  0  0  0  0  0  0  0
    6.6774   -1.2533   -0.7330 S   0  0  0  0  0  0  0  0  0  0  0  0
    4.9724   -0.6576   -0.4315 C   0  0  0  0  0  0  0  0  0  0  0  0
    4.2761   -0.0635    0.2223 N   0  0  0  0  0  0  0  0  0  0  0  0
    2.9745    0.1715    0.1200 C   0  0  0  0  0  0  0  0  0  0  0  0
    2.3900   -0.4059   -0.9590 C   0  0  0  0  0  0  0  0  0  0  0  0
    3.7419   -1.2584   -1.7731 S   0  0  0  0  0  0  0  0  0  0  0  0
    1.0426   -0.3072   -1.2836 C   0  0  0  0  0  0  0  0  0  0  0  0
    0.2057    0.4368   -0.4523 C   0  0  0  0  0  0  0  0  0  0  0  0
    0.8045    1.0195    0.6397 C   0  0  0  0  0  0  0  0  0  0  0  0
    2.1351    0.9188    0.9554 C   0  0  0  0  0  0  0  0  0  0  0  0
   -1.1751    0.5551   -0.7590 N   0  0  0  0  0  0  0  0  0  0  0  0
   -2.0737   -0.4088   -0.2309 C   0  0  0  0  0  0  0  0  0  0  0  0
   -1.6048   -1.3150    0.4787 O   0  0  0  0  0  0  0  0  0  0  0  0
   -3.5068   -0.3145   -0.5292 C   0  0  0  0  0  0  0  0  0  0  0  0
   -4.1096    0.9832   -0.0618 C   0  0  0  0  0  0  0  0  0  0  0  0
   -5.5540    0.5718    0.1305 C   0  0  0  0  0  0  0  0  0  0  0  0
   -5.3881   -0.8717    0.5549 C   0  0  0  0  0  0  0  0  0  0  0  0
   -4.1983   -1.3400    0.0758 O   0  0  0  0  0  0  0  0  0  0  0  0
    7.1662   -0.1069    1.3272 H   0  0  0  0  0  0  0  0  0  0  0  0
    8.2246   -1.5150    1.1028 H   0  0  0  0  0  0  0  0  0  0  0  0
    8.5409    0.0445    0.1845 H   0  0  0  0  0  0  0  0  0  0  0  0
    0.6688   -0.8076   -2.1719 H   0  0  0  0  0  0  0  0  0  0  0  0
    0.1565    1.6057    1.2985 H   0  0  0  0  0  0  0  0  0  0  0  0
    2.4874    1.4223    1.8408 H   0  0  0  0  0  0  0  0  0  0  0  0
   -1.4889    1.3589   -1.3718 H   0  0  0  0  0  0  0  0  0  0  0  0
   -3.7068   -0.3840   -1.6293 H   0  0  0  0  0  0  0  0  0  0  0  0
   -3.7242    1.3365    0.9127 H   0  0  0  0  0  0  0  0  0  0  0  0
   -3.9982    1.7611   -0.8412 H   0  0  0  0  0  0  0  0  0  0  0  0
   -6.0624    0.6268   -0.8620 H   0  0  0  0  0  0  0  0  0  0  0  0
   -6.0531    1.1979    0.8953 H   0  0  0  0  0  0  0  0  0  0  0  0
   -6.2548   -1.4863    0.2377 H   0  0  0  0  0  0  0  0  0  0  0  0
   -5.3314   -0.8618    1.6825 H   0  0  0  0  0  0  0  0  0  0  0  0
  1  2  1  0
  2  3  1  0
  3  4  2  0
  4  5  1  0
  5  6  2  0
  6  7  1  0
  6  8  1  0
  8  9  2  0
  9 10  1  0
 10 11  2  0
  9 12  1  0
 12 13  1  0
 13 14  2  0
 13 15  1  0
 15 16  1  0
 16 17  1  0
 17 18  1  0
 18 19  1  0
  7  3  1  0
 19 15  1  0
 11  5  1  0
  1 20  1  0
  1 21  1  0
  1 22  1  0
  8 23  1  0
 10 24  1  0
 11 25  1  0
 12 26  1  0
 15 27  1  0
 16 28  1  0
 16 29  1  0
 17 30  1  0
 17 31  1  0
 18 32  1  0
 18 33  1  0
M  END
>  <Ligand ID>  (1) 
LIG0004966

>  <Ligand>  (1) 
MLS000056121

>  <SMILES>  (1) 
CSc1nc2c(s1)cc(cc2)NC(=O)C1CCCO1

>  <CID>  (1) 
2999993.0

>  <ChEMBL ID>  (1) 
nan

>  <InChiKey>  (1) 
YKZWLXILOSBAQA-UHFFFAOYSA-N

>  <InChi>  (1) 
InChI=1S/C13H14N2O2S2/c1-18-13-15-9-5-4-8(7-11(9)19-13)14-12(16)10-3-2-6-17-10/h4-5,7,10H,2-3,6H2,1H3,(H,14,16)

>  <IUPAC Name>  (1) 
N-(2-methylsulfanyl-1,3-benzothiazol-6-yl)oxolane-2-carboxamide

$$$$
