
     RDKit          3D

 54 57  0  0  0  0  0  0  0  0999 V2000
   -7.8041    1.0500    1.5614 C   0  0  0  0  0  0  0  0  0  0  0  0
   -6.5890    0.5371    0.8772 C   0  0  0  0  0  0  0  0  0  0  0  0
   -5.3942    1.2230    0.8552 C   0  0  0  0  0  0  0  0  0  0  0  0
   -4.2770    0.7237    0.2108 C   0  0  0  0  0  0  0  0  0  0  0  0
   -4.2953   -0.4761   -0.4384 C   0  0  0  0  0  0  0  0  0  0  0  0
   -5.5096   -1.1745   -0.4171 C   0  0  0  0  0  0  0  0  0  0  0  0
   -6.6238   -0.6766    0.2251 C   0  0  0  0  0  0  0  0  0  0  0  0
   -3.1618   -1.1113   -1.1405 C   0  0  0  0  0  0  0  0  0  0  0  0
   -2.0873   -0.2004   -1.5009 C   0  0  0  0  0  0  0  0  0  0  0  0
   -2.0049    0.1401   -2.7417 O   0  0  0  0  0  0  0  0  0  0  0  0
   -1.1164    0.3572   -0.6583 N   0  0  0  0  0  0  0  0  0  0  0  0
   -0.1421    1.2894   -1.2589 C   0  0  0  0  0  0  0  0  0  0  0  0
    1.1522    0.5097   -1.2896 C   0  0  0  0  0  0  0  0  0  0  0  0
    1.2698   -0.5519   -0.2598 C   0  0  0  0  0  0  0  0  0  0  0  0
    0.4797   -0.3488    0.9996 C   0  0  0  0  0  0  0  0  0  0  0  0
   -0.9450    0.0953    0.7434 C   0  0  0  0  0  0  0  0  0  0  0  0
    2.6663   -0.6756    0.1182 N   0  0  0  0  0  0  0  0  0  0  0  0
    3.6629    0.1786   -0.0479 N   0  0  0  0  0  0  0  0  0  0  0  0
    4.8018   -0.3288    0.4482 C   0  0  0  0  0  0  0  0  0  0  0  0
    4.4987   -1.5060    0.9229 O   0  0  0  0  0  0  0  0  0  0  0  0
    3.2219   -1.7441    0.7398 C   0  0  0  0  0  0  0  0  0  0  0  0
    2.5812   -2.7846    1.0737 O   0  0  0  0  0  0  0  0  0  0  0  0
    6.1197    0.2844    0.4674 C   0  0  0  0  0  0  0  0  0  0  0  0
    7.1831   -0.3791    1.0183 C   0  0  0  0  0  0  0  0  0  0  0  0
    8.4384    0.2171    1.0310 C   0  0  0  0  0  0  0  0  0  0  0  0
    8.6311    1.4847    0.4893 C   0  0  0  0  0  0  0  0  0  0  0  0
    7.5374    2.1464   -0.0678 C   0  0  0  0  0  0  0  0  0  0  0  0
    6.3117    1.5408   -0.0693 C   0  0  0  0  0  0  0  0  0  0  0  0
   -2.6417   -2.3136   -0.3399 C   0  0  0  0  0  0  0  0  0  0  0  0
   -8.7390    0.7280    1.0332 H   0  0  0  0  0  0  0  0  0  0  0  0
   -7.8710    0.5535    2.5696 H   0  0  0  0  0  0  0  0  0  0  0  0
   -7.7563    2.1421    1.7282 H   0  0  0  0  0  0  0  0  0  0  0  0
   -5.3528    2.1871    1.3685 H   0  0  0  0  0  0  0  0  0  0  0  0
   -3.3953    1.3356    0.2365 H   0  0  0  0  0  0  0  0  0  0  0  0
   -5.5802   -2.1348   -0.9187 H   0  0  0  0  0  0  0  0  0  0  0  0
   -7.5315   -1.2863    0.1931 H   0  0  0  0  0  0  0  0  0  0  0  0
   -3.6014   -1.5805   -2.0460 H   0  0  0  0  0  0  0  0  0  0  0  0
   -0.0491    2.1753   -0.5632 H   0  0  0  0  0  0  0  0  0  0  0  0
   -0.4780    1.5778   -2.2513 H   0  0  0  0  0  0  0  0  0  0  0  0
    1.1840    0.0240   -2.3092 H   0  0  0  0  0  0  0  0  0  0  0  0
    2.0314    1.2036   -1.3074 H   0  0  0  0  0  0  0  0  0  0  0  0
    0.9733   -1.5452   -0.6719 H   0  0  0  0  0  0  0  0  0  0  0  0
    0.4135   -1.3361    1.5054 H   0  0  0  0  0  0  0  0  0  0  0  0
    1.0411    0.3243    1.6738 H   0  0  0  0  0  0  0  0  0  0  0  0
   -1.0239    1.1119    1.2270 H   0  0  0  0  0  0  0  0  0  0  0  0
   -1.7128   -0.5008    1.2243 H   0  0  0  0  0  0  0  0  0  0  0  0
    7.0786   -1.3815    1.4578 H   0  0  0  0  0  0  0  0  0  0  0  0
    9.3005   -0.2790    1.4583 H   0  0  0  0  0  0  0  0  0  0  0  0
    9.5983    1.9743    0.4850 H   0  0  0  0  0  0  0  0  0  0  0  0
    7.6194    3.1332   -0.5052 H   0  0  0  0  0  0  0  0  0  0  0  0
    5.4401    2.0287   -0.4950 H   0  0  0  0  0  0  0  0  0  0  0  0
   -3.1037   -2.3692    0.6711 H   0  0  0  0  0  0  0  0  0  0  0  0
   -1.5327   -2.3168   -0.3290 H   0  0  0  0  0  0  0  0  0  0  0  0
   -2.9165   -3.2754   -0.8162 H   0  0  0  0  0  0  0  0  0  0  0  0
  1  2  1  0
  2  3  2  0
  3  4  1  0
  4  5  2  0
  5  6  1  0
  6  7  2  0
  5  8  1  0
  8  9  1  0
  9 10  2  0
  9 11  1  0
 11 12  1  0
 12 13  1  0
 13 14  1  0
 14 15  1  0
 15 16  1  0
 14 17  1  0
 17 18  1  0
 18 19  2  0
 19 20  1  0
 20 21  1  0
 21 22  2  0
 19 23  1  0
 23 24  2  0
 24 25  1  0
 25 26  2  0
 26 27  1  0
 27 28  2  0
  8 29  1  0
  7  2  1  0
 16 11  1  0
 21 17  1  0
 28 23  1  0
  1 30  1  0
  1 31  1  0
  1 32  1  0
  3 33  1  0
  4 34  1  0
  6 35  1  0
  7 36  1  0
  8 37  1  0
 12 38  1  0
 12 39  1  0
 13 40  1  0
 13 41  1  0
 14 42  1  0
 15 43  1  0
 15 44  1  0
 16 45  1  0
 16 46  1  0
 24 47  1  0
 25 48  1  0
 26 49  1  0
 27 50  1  0
 28 51  1  0
 29 52  1  0
 29 53  1  0
 29 54  1  0
M  END
>  <Ligand ID>  (1) 
LIG0003800

>  <Ligand>  (1) 
MLS-0437149.0001

>  <SMILES>  (1) 
Cc1ccc(cc1)C(C(=O)N1CCC(CC1)n1nc(oc1=O)c1ccccc1)C

>  <CID>  (1) 
23612541.0

>  <ChEMBL ID>  (1) 
nan

>  <InChiKey>  (1) 
YAFPZDPJHSGEQG-UHFFFAOYSA-N

>  <InChi>  (1) 
InChI=1S/C23H25N3O3/c1-16-8-10-18(11-9-16)17(2)22(27)25-14-12-20(13-15-25)26-23(28)29-21(24-26)19-6-4-3-5-7-19/h3-11,17,20H,12-15H2,1-2H3

>  <IUPAC Name>  (1) 
3-[1-[2-(4-methylphenyl)propanoyl]piperidin-4-yl]-5-phenyl-1,3,4-oxadiazol-2-one

$$$$
