
     RDKit          3D

 50 49  0  0  0  0  0  0  0  0999 V2000
   -7.1399   -2.4306    0.1342 C   0  0  0  0  0  0  0  0  0  0  0  0
   -5.6782   -1.9592    0.0283 C   0  0  0  0  0  0  0  0  0  0  0  0
   -5.6786   -0.5479    0.5416 C   0  0  0  0  0  0  0  0  0  0  0  0
   -4.2563   -0.0140    0.4830 C   0  0  0  0  0  0  0  0  0  0  0  0
   -3.7461   -0.0180   -0.9206 C   0  0  0  0  0  0  0  0  0  0  0  0
   -2.2937    0.4924   -0.9128 C   0  0  0  0  0  0  0  0  0  0  0  0
   -2.2962    1.8712   -0.3684 C   0  0  0  0  0  0  0  0  0  0  0  0
   -1.0224    2.6328   -0.3515 C   0  0  0  0  0  0  0  0  0  0  0  0
    0.0655    2.1331    0.3237 O   0  0  0  0  0  0  0  0  0  0  0  0
    0.8322    1.0348    0.0214 C   0  0  0  0  0  0  0  0  0  0  0  0
    0.6584    0.2934   -0.9716 O   0  0  0  0  0  0  0  0  0  0  0  0
    1.9494    0.6984    0.9360 C   0  0  0  0  0  0  0  0  0  0  0  0
    2.7502   -0.4914    0.5414 C   0  0  0  0  0  0  0  0  0  0  0  0
    3.4330   -0.4197   -0.7781 C   0  0  0  0  0  0  0  0  0  0  0  0
    4.4020    0.7197   -0.8715 C   0  0  0  0  0  0  0  0  0  0  0  0
    5.4680    0.5820    0.1855 C   0  0  0  0  0  0  0  0  0  0  0  0
    6.2768   -0.6736    0.0899 C   0  0  0  0  0  0  0  0  0  0  0  0
    7.3263   -0.6878    1.2109 C   0  0  0  0  0  0  0  0  0  0  0  0
   -7.5225   -2.0175    1.0854 H   0  0  0  0  0  0  0  0  0  0  0  0
   -7.6666   -1.9653   -0.7225 H   0  0  0  0  0  0  0  0  0  0  0  0
   -7.1389   -3.5400    0.1194 H   0  0  0  0  0  0  0  0  0  0  0  0
   -5.4382   -2.0448   -1.0535 H   0  0  0  0  0  0  0  0  0  0  0  0
   -4.9914   -2.6031    0.5942 H   0  0  0  0  0  0  0  0  0  0  0  0
   -6.2926    0.1328   -0.0617 H   0  0  0  0  0  0  0  0  0  0  0  0
   -6.0283   -0.5770    1.5893 H   0  0  0  0  0  0  0  0  0  0  0  0
   -4.3429    1.0540    0.8499 H   0  0  0  0  0  0  0  0  0  0  0  0
   -3.6302   -0.6035    1.1786 H   0  0  0  0  0  0  0  0  0  0  0  0
   -3.8092   -0.9771   -1.4419 H   0  0  0  0  0  0  0  0  0  0  0  0
   -4.2797    0.7548   -1.5505 H   0  0  0  0  0  0  0  0  0  0  0  0
   -1.9071    0.3655   -1.9236 H   0  0  0  0  0  0  0  0  0  0  0  0
   -1.7529   -0.1685   -0.1458 H   0  0  0  0  0  0  0  0  0  0  0  0
   -2.5917    1.7784    0.7258 H   0  0  0  0  0  0  0  0  0  0  0  0
   -3.1215    2.4198   -0.8934 H   0  0  0  0  0  0  0  0  0  0  0  0
   -1.1904    3.6963    0.0043 H   0  0  0  0  0  0  0  0  0  0  0  0
   -0.7818    2.8225   -1.4568 H   0  0  0  0  0  0  0  0  0  0  0  0
    1.4612    0.4369    1.9107 H   0  0  0  0  0  0  0  0  0  0  0  0
    2.5607    1.6011    1.1432 H   0  0  0  0  0  0  0  0  0  0  0  0
    3.5098   -0.6483    1.3277 H   0  0  0  0  0  0  0  0  0  0  0  0
    2.0934   -1.3870    0.5776 H   0  0  0  0  0  0  0  0  0  0  0  0
    2.7393   -0.4563   -1.6533 H   0  0  0  0  0  0  0  0  0  0  0  0
    4.0295   -1.3701   -0.8886 H   0  0  0  0  0  0  0  0  0  0  0  0
    3.9035    1.7044   -0.8329 H   0  0  0  0  0  0  0  0  0  0  0  0
    4.8680    0.6897   -1.8996 H   0  0  0  0  0  0  0  0  0  0  0  0
    6.1472    1.4694    0.0780 H   0  0  0  0  0  0  0  0  0  0  0  0
    5.0633    0.6484    1.2005 H   0  0  0  0  0  0  0  0  0  0  0  0
    6.7697   -0.7826   -0.8967 H   0  0  0  0  0  0  0  0  0  0  0  0
    5.6683   -1.5841    0.2585 H   0  0  0  0  0  0  0  0  0  0  0  0
    6.7354   -0.7045    2.1562 H   0  0  0  0  0  0  0  0  0  0  0  0
    7.9632   -1.5901    1.1260 H   0  0  0  0  0  0  0  0  0  0  0  0
    7.9231    0.2302    1.1074 H   0  0  0  0  0  0  0  0  0  0  0  0
  1  2  1  0
  2  3  1  0
  3  4  1  0
  4  5  1  0
  5  6  1  0
  6  7  1  0
  7  8  1  0
  8  9  1  0
  9 10  1  0
 10 11  2  0
 10 12  1  0
 12 13  1  0
 13 14  1  0
 14 15  1  0
 15 16  1  0
 16 17  1  0
 17 18  1  0
  1 19  1  0
  1 20  1  0
  1 21  1  0
  2 22  1  0
  2 23  1  0
  3 24  1  0
  3 25  1  0
  4 26  1  0
  4 27  1  0
  5 28  1  0
  5 29  1  0
  6 30  1  0
  6 31  1  0
  7 32  1  0
  7 33  1  0
  8 34  1  0
  8 35  1  0
 12 36  1  0
 12 37  1  0
 13 38  1  0
 13 39  1  0
 14 40  1  0
 14 41  1  0
 15 42  1  0
 15 43  1  0
 16 44  1  0
 16 45  1  0
 17 46  1  0
 17 47  1  0
 18 48  1  0
 18 49  1  0
 18 50  1  0
M  END
>  <Ligand ID>  (1) 
LIG0000125

>  <Ligand>  (1) 
octyl octanoate

>  <SMILES>  (1) 
CCCCCCCCOC(=O)CCCCCCC

>  <CID>  (1) 
61294.0

>  <ChEMBL ID>  (1) 
nan

>  <InChiKey>  (1) 
DJNTZVRUYMHBTD-UHFFFAOYSA-N

>  <InChi>  (1) 
InChI=1S/C16H32O2/c1-3-5-7-9-11-13-15-18-16(17)14-12-10-8-6-4-2/h3-15H2,1-2H3

>  <IUPAC Name>  (1) 
octyl octanoate

$$$$
