
     RDKit          3D

 29 28  0  0  0  0  0  0  0  0999 V2000
   -2.9879    2.7556   -0.8379 O   0  0  0  0  0  0  0  0  0  0  0  0
   -3.1345    1.7674    0.1535 C   0  0  0  0  0  0  0  0  0  0  0  0
   -4.1962    1.6865    0.8395 O   0  0  0  0  0  0  0  0  0  0  0  0
   -2.0639    0.7798    0.4430 C   0  0  0  0  0  0  0  0  0  0  0  0
   -2.3698   -0.5722   -0.1492 C   0  0  0  0  0  0  0  0  0  0  0  0
   -1.0236   -1.6859    0.2551 P   0  0  0  0  0  0  0  0  0  0  0  0
   -1.3892   -2.3593    1.5805 O   0  0  0  0  0  0  0  0  0  0  0  0
    0.5456   -0.8569    0.5095 C   0  0  0  0  0  0  0  0  0  0  0  0
    1.3851   -0.7399   -0.7482 C   0  0  0  0  0  0  0  0  0  0  0  0
    2.6961   -0.0299   -0.4629 C   0  0  0  0  0  0  0  0  0  0  0  0
    2.4663    1.3348    0.0533 C   0  0  0  0  0  0  0  0  0  0  0  0
    2.9934    1.6146    1.1799 O   0  0  0  0  0  0  0  0  0  0  0  0
    1.7293    2.2821   -0.6153 O   0  0  0  0  0  0  0  0  0  0  0  0
    3.5025   -0.7284    0.4958 N   0  0  0  0  0  0  0  0  0  0  0  0
   -0.8399   -2.9009   -0.9152 O   0  0  0  0  0  0  0  0  0  0  0  0
   -3.8406    3.0984   -1.3041 H   0  0  0  0  0  0  0  0  0  0  0  0
   -1.0832    1.0863    0.0204 H   0  0  0  0  0  0  0  0  0  0  0  0
   -1.9336    0.6480    1.5266 H   0  0  0  0  0  0  0  0  0  0  0  0
   -3.3507   -0.9423    0.2439 H   0  0  0  0  0  0  0  0  0  0  0  0
   -2.4736   -0.5260   -1.2559 H   0  0  0  0  0  0  0  0  0  0  0  0
    1.1810   -1.4779    1.2038 H   0  0  0  0  0  0  0  0  0  0  0  0
    0.4189    0.1006    1.0208 H   0  0  0  0  0  0  0  0  0  0  0  0
    1.5863   -1.7004   -1.2156 H   0  0  0  0  0  0  0  0  0  0  0  0
    0.8107   -0.1030   -1.4550 H   0  0  0  0  0  0  0  0  0  0  0  0
    3.2738    0.0620   -1.4049 H   0  0  0  0  0  0  0  0  0  0  0  0
    2.0468    3.2620   -0.5556 H   0  0  0  0  0  0  0  0  0  0  0  0
    3.5334   -0.3015    1.4315 H   0  0  0  0  0  0  0  0  0  0  0  0
    3.4495   -1.7511    0.4634 H   0  0  0  0  0  0  0  0  0  0  0  0
   -0.9321   -3.8024   -0.5006 H   0  0  0  0  0  0  0  0  0  0  0  0
  1  2  1  0
  2  3  2  0
  2  4  1  0
  4  5  1  0
  5  6  1  0
  6  7  2  0
  6  8  1  0
  8  9  1  0
  9 10  1  0
 10 11  1  0
 11 12  2  0
 11 13  1  0
 10 14  1  0
  6 15  1  0
  1 16  1  0
  4 17  1  0
  4 18  1  0
  5 19  1  0
  5 20  1  0
  8 21  1  0
  8 22  1  0
  9 23  1  0
  9 24  1  0
 10 25  1  0
 13 26  1  0
 14 27  1  0
 14 28  1  0
 15 29  1  0
M  END
>  <Ligand ID>  (1) 
LIG0001082

>  <Ligand>  (1) 
AC1MWWXC

>  <SMILES>  (1) 
OC(=O)CCP(=O)(CCC(C(=O)O)N)O

>  <CID>  (1) 
3756397.0

>  <ChEMBL ID>  (1) 
nan

>  <InChiKey>  (1) 
CIOKCIBFBZYLCA-UHFFFAOYSA-N

>  <InChi>  (1) 
InChI=1S/C7H14NO6P/c8-5(7(11)12)1-3-15(13,14)4-2-6(9)10/h5H,1-4,8H2,(H,9,10)(H,11,12)(H,13,14)

>  <IUPAC Name>  (1) 
2-amino-4-[2-carboxyethyl(hydroxy)phosphoryl]butanoic acid

$$$$
