
     RDKit          3D

 97100  0  0  0  0  0  0  0  0999 V2000
    5.3873    7.1980   -1.3208 N   0  0  0  0  0  0  0  0  0  0  0  0
    5.0098    5.9484   -1.8400 C   0  0  0  0  0  0  0  0  0  0  0  0
    3.8185    5.6703   -2.2368 N   0  0  0  0  0  0  0  0  0  0  0  0
    3.4195    4.3898   -2.7709 C   0  0  0  0  0  0  0  0  0  0  0  0
    2.8918    3.5015   -1.6599 C   0  0  0  0  0  0  0  0  0  0  0  0
    2.4676    2.1762   -2.2418 C   0  0  0  0  0  0  0  0  0  0  0  0
    1.9265    1.2069   -1.2455 C   0  0  1  0  0  0  0  0  0  0  0  0
    2.8629    0.8111   -0.1669 C   0  0  0  0  0  0  0  0  0  0  0  0
    2.4266    0.7863    1.0223 O   0  0  0  0  0  0  0  0  0  0  0  0
    4.2163    0.4540   -0.3744 N   0  0  0  0  0  0  0  0  0  0  0  0
    4.9773    0.0689    0.8031 C   0  0  2  0  0  0  0  0  0  0  0  0
    5.7542    1.2896    1.2592 C   0  0  0  0  0  0  0  0  0  0  0  0
    5.6880    2.3805    0.6798 O   0  0  0  0  0  0  0  0  0  0  0  0
    6.5765    1.1071    2.4084 N   0  0  0  0  0  0  0  0  0  0  0  0
    5.9276   -1.0499    0.5222 C   0  0  0  0  0  0  0  0  0  0  0  0
    5.3027   -2.2945    0.0436 C   0  0  0  0  0  0  0  0  0  0  0  0
    5.2803   -2.7287   -1.2879 C   0  0  0  0  0  0  0  0  0  0  0  0
    4.6274   -3.8984   -1.3741 N   0  0  0  0  0  0  0  0  0  0  0  0
    4.2264   -4.2353   -0.1399 C   0  0  0  0  0  0  0  0  0  0  0  0
    4.6231   -3.2752    0.7496 C   0  0  0  0  0  0  0  0  0  0  0  0
    4.3143   -3.4359    2.0714 C   0  0  0  0  0  0  0  0  0  0  0  0
    3.6102   -4.5561    2.4962 C   0  0  0  0  0  0  0  0  0  0  0  0
    3.2069   -5.5357    1.5816 C   0  0  0  0  0  0  0  0  0  0  0  0
    3.5186   -5.3748    0.2431 C   0  0  0  0  0  0  0  0  0  0  0  0
    0.6390    1.6119   -0.6665 N   0  0  0  0  0  0  0  0  0  0  0  0
   -0.4786    0.7505   -0.6103 C   0  0  0  0  0  0  0  0  0  0  0  0
   -0.3994   -0.4147   -1.0658 O   0  0  0  0  0  0  0  0  0  0  0  0
   -1.7638    1.2285    0.0009 C   0  0  1  0  0  0  0  0  0  0  0  0
   -2.7051    0.1526    0.1030 N   0  0  0  0  0  0  0  0  0  0  0  0
   -4.0408    0.1820   -0.4333 C   0  0  0  0  0  0  0  0  0  0  0  0
   -4.5074    1.1730   -1.0372 O   0  0  0  0  0  0  0  0  0  0  0  0
   -4.8178   -1.0812   -0.2016 C   0  0  1  0  0  0  0  0  0  0  0  0
   -6.1590   -1.0416   -0.6458 N   0  0  0  0  0  0  0  0  0  0  0  0
   -7.3600   -1.3521    0.5115 S   0  0  0  0  0  0  0  0  0  0  0  0
   -7.2637   -2.7276    1.1164 O   0  0  0  0  0  0  0  0  0  0  0  0
   -8.7104   -1.2416   -0.1367 O   0  0  0  0  0  0  0  0  0  0  0  0
   -7.2900   -0.1271    1.8006 C   0  0  0  0  0  0  0  0  0  0  0  0
   -4.1024   -2.2128   -0.9276 C   0  0  0  0  0  0  0  0  0  0  0  0
   -4.7340   -3.5236   -0.7879 C   0  0  0  0  0  0  0  0  0  0  0  0
   -5.6963   -4.0120   -1.6769 C   0  0  0  0  0  0  0  0  0  0  0  0
   -6.2441   -5.2736   -1.4823 C   0  0  0  0  0  0  0  0  0  0  0  0
   -5.8321   -6.0419   -0.4047 C   0  0  0  0  0  0  0  0  0  0  0  0
   -4.8806   -5.5468    0.4664 C   0  0  0  0  0  0  0  0  0  0  0  0
   -4.3209   -4.3055    0.3008 C   0  0  0  0  0  0  0  0  0  0  0  0
   -6.4628   -7.6381   -0.0776 Cl  0  0  0  0  0  0  0  0  0  0  0  0
   -1.4874    1.8843    1.3462 C   0  0  0  0  0  0  0  0  0  0  0  0
   -2.7770    2.3501    1.9032 C   0  0  0  0  0  0  0  0  0  0  0  0
   -3.1808    3.6322    1.5466 C   0  0  0  0  0  0  0  0  0  0  0  0
   -4.3462    4.1988    2.0015 C   0  0  0  0  0  0  0  0  0  0  0  0
   -5.1448    3.4663    2.8447 C   0  0  0  0  0  0  0  0  0  0  0  0
   -4.7358    2.2020    3.1897 C   0  0  0  0  0  0  0  0  0  0  0  0
   -3.5725    1.6119    2.7464 C   0  0  0  0  0  0  0  0  0  0  0  0
    5.9842    4.9343   -1.9317 N   0  0  0  0  0  0  0  0  0  0  0  0
    6.3574    7.4341   -1.0518 H   0  0  0  0  0  0  0  0  0  0  0  0
    4.6341    7.9198   -1.2071 H   0  0  0  0  0  0  0  0  0  0  0  0
    4.2930    3.8810   -3.2210 H   0  0  0  0  0  0  0  0  0  0  0  0
    2.6433    4.5040   -3.5792 H   0  0  0  0  0  0  0  0  0  0  0  0
    3.7147    3.3387   -0.9626 H   0  0  0  0  0  0  0  0  0  0  0  0
    2.0431    4.0236   -1.1807 H   0  0  0  0  0  0  0  0  0  0  0  0
    3.3168    1.7110   -2.8148 H   0  0  0  0  0  0  0  0  0  0  0  0
    1.7102    2.3792   -3.0579 H   0  0  0  0  0  0  0  0  0  0  0  0
    1.6551    0.2564   -1.8121 H   0  0  0  0  0  0  0  0  0  0  0  0
    4.6085    0.4749   -1.3273 H   0  0  0  0  0  0  0  0  0  0  0  0
    4.3214   -0.1808    1.6582 H   0  0  0  0  0  0  0  0  0  0  0  0
    7.3569    1.7963    2.5449 H   0  0  0  0  0  0  0  0  0  0  0  0
    6.4504    0.3481    3.1056 H   0  0  0  0  0  0  0  0  0  0  0  0
    6.6612   -0.6980   -0.2652 H   0  0  0  0  0  0  0  0  0  0  0  0
    6.5871   -1.2692    1.4118 H   0  0  0  0  0  0  0  0  0  0  0  0
    5.7260   -2.1923   -2.1187 H   0  0  0  0  0  0  0  0  0  0  0  0
    4.4888   -4.4108   -2.2897 H   0  0  0  0  0  0  0  0  0  0  0  0
    4.6327   -2.6714    2.7619 H   0  0  0  0  0  0  0  0  0  0  0  0
    3.3559   -4.6991    3.5506 H   0  0  0  0  0  0  0  0  0  0  0  0
    2.6574   -6.4170    1.8907 H   0  0  0  0  0  0  0  0  0  0  0  0
    3.2057   -6.1316   -0.4544 H   0  0  0  0  0  0  0  0  0  0  0  0
    0.6308    2.6050   -0.2970 H   0  0  0  0  0  0  0  0  0  0  0  0
   -2.1605    2.0433   -0.6396 H   0  0  0  0  0  0  0  0  0  0  0  0
   -2.3538   -0.7139    0.6229 H   0  0  0  0  0  0  0  0  0  0  0  0
   -4.7574   -1.3000    0.8790 H   0  0  0  0  0  0  0  0  0  0  0  0
   -6.3738   -1.2418   -1.6150 H   0  0  0  0  0  0  0  0  0  0  0  0
   -7.8049   -0.4829    2.7368 H   0  0  0  0  0  0  0  0  0  0  0  0
   -7.7352    0.8284    1.5205 H   0  0  0  0  0  0  0  0  0  0  0  0
   -6.2349    0.0225    2.0967 H   0  0  0  0  0  0  0  0  0  0  0  0
   -3.0251   -2.2732   -0.6434 H   0  0  0  0  0  0  0  0  0  0  0  0
   -4.0693   -1.8739   -2.0034 H   0  0  0  0  0  0  0  0  0  0  0  0
   -6.0160   -3.4149   -2.5163 H   0  0  0  0  0  0  0  0  0  0  0  0
   -6.9830   -5.6633   -2.1561 H   0  0  0  0  0  0  0  0  0  0  0  0
   -4.5311   -6.1348    1.3298 H   0  0  0  0  0  0  0  0  0  0  0  0
   -3.5609   -3.9209    1.0016 H   0  0  0  0  0  0  0  0  0  0  0  0
   -1.0077    1.1884    2.0712 H   0  0  0  0  0  0  0  0  0  0  0  0
   -0.7859    2.7337    1.1851 H   0  0  0  0  0  0  0  0  0  0  0  0
   -2.5715    4.2344    0.8825 H   0  0  0  0  0  0  0  0  0  0  0  0
   -4.6534    5.2173    1.7083 H   0  0  0  0  0  0  0  0  0  0  0  0
   -6.0849    3.8922    3.2242 H   0  0  0  0  0  0  0  0  0  0  0  0
   -5.3949    1.6413    3.8682 H   0  0  0  0  0  0  0  0  0  0  0  0
   -3.2564    0.6129    3.0211 H   0  0  0  0  0  0  0  0  0  0  0  0
    6.4232    4.7499   -2.8401 H   0  0  0  0  0  0  0  0  0  0  0  0
    6.2169    4.4115   -1.0618 H   0  0  0  0  0  0  0  0  0  0  0  0
  1  2  1  0
  2  3  2  3
  3  4  1  0
  4  5  1  0
  5  6  1  0
  6  7  1  0
  7  8  1  0
  8  9  2  0
  8 10  1  0
 10 11  1  0
 11 12  1  0
 12 13  2  0
 12 14  1  0
 11 15  1  0
 15 16  1  0
 16 17  2  0
 17 18  1  0
 18 19  1  0
 19 20  2  0
 20 21  1  0
 21 22  2  0
 22 23  1  0
 23 24  2  0
  7 25  1  0
 25 26  1  0
 26 27  2  0
 26 28  1  0
 28 29  1  0
 29 30  1  0
 30 31  2  0
 30 32  1  0
 32 33  1  0
 33 34  1  0
 34 35  2  0
 34 36  2  0
 34 37  1  0
 32 38  1  0
 38 39  1  0
 39 40  2  0
 40 41  1  0
 41 42  2  0
 42 43  1  0
 43 44  2  0
 42 45  1  0
 28 46  1  0
 46 47  1  0
 47 48  2  0
 48 49  1  0
 49 50  2  0
 50 51  1  0
 51 52  2  0
  2 53  1  0
 20 16  1  0
 44 39  1  0
 52 47  1  0
 24 19  1  0
  1 54  1  0
  1 55  1  0
  4 56  1  0
  4 57  1  0
  5 58  1  0
  5 59  1  0
  6 60  1  0
  6 61  1  0
  7 62  1  6
 10 63  1  0
 11 64  1  1
 14 65  1  0
 14 66  1  0
 15 67  1  0
 15 68  1  0
 17 69  1  0
 18 70  1  0
 21 71  1  0
 22 72  1  0
 23 73  1  0
 24 74  1  0
 25 75  1  0
 28 76  1  6
 29 77  1  0
 32 78  1  1
 33 79  1  0
 37 80  1  0
 37 81  1  0
 37 82  1  0
 38 83  1  0
 38 84  1  0
 40 85  1  0
 41 86  1  0
 43 87  1  0
 44 88  1  0
 46 89  1  0
 46 90  1  0
 48 91  1  0
 49 92  1  0
 50 93  1  0
 51 94  1  0
 52 95  1  0
 53 96  1  0
 53 97  1  0
M  END
>  <Ligand ID>  (1) 
LIG0004920

>  <Ligand>  (1) 
CHEMBL184644

>  <SMILES>  (1) 
NC(=NCCC[C@@H](C(=O)N[C@H](C(=O)N)Cc1c[nH]c2c1cccc2)NC(=O)[C@@H](NC(=O)[C@@H](NS(=O)(=O)C)Cc1ccc(cc1)Cl)Cc1ccccc1)N

>  <CID>  (1) 
44394789.0

>  <ChEMBL ID>  (1) 
nan

>  <InChiKey>  (1) 
KVHFKBGMAZEGMM-ORYMTKCHSA-N

>  <InChi>  (1) 
InChI=1S/C36H44ClN9O6S/c1-53(51,52)46-31(19-23-13-15-25(37)16-14-23)35(50)45-30(18-22-8-3-2-4-9-22)34(49)43-28(12-7-17-41-36(39)40)33(48)44-29(32(38)47)20-24-21-42-27-11-6-5-10-26(24)27/h2-6,8-11,13-16,21,28-31,42,46H,7,12,17-20H2,1H3,(H2,38,47)(H,43,49)(H,44,48)(H,45,50)(H4,39,40,41)/t28-,29-,30-,31-/m0/s1

>  <IUPAC Name>  (1) 
(2S)-N-[(2S)-1-amino-3-(1H-indol-3-yl)-1-oxopropan-2-yl]-2-[[(2S)-2-[[(2S)-3-(4-chlorophenyl)-2-(methanesulfonamido)propanoyl]amino]-3-phenylpropanoyl]amino]-5-(diaminomethylideneamino)pentanamide

$$$$
