
     RDKit          3D

 47 49  0  0  0  0  0  0  0  0999 V2000
    5.9301    1.0622    1.0136 C   0  0  0  0  0  0  0  0  0  0  0  0
    5.0935    0.0146    0.6578 O   0  0  0  0  0  0  0  0  0  0  0  0
    3.8317    0.2299    1.2658 C   0  0  0  0  0  0  0  0  0  0  0  0
    2.9875   -0.9431    0.8348 C   0  0  0  0  0  0  0  0  0  0  0  0
    2.8773   -0.9824   -0.5043 O   0  0  0  0  0  0  0  0  0  0  0  0
    2.2348    0.0109   -1.1178 C   0  0  0  0  0  0  0  0  0  0  0  0
    0.8076    0.2199   -0.8626 C   0  0  0  0  0  0  0  0  0  0  0  0
    0.2484    0.8466    0.2199 C   0  0  0  0  0  0  0  0  0  0  0  0
    0.8218    1.4563    1.3352 O   0  0  0  0  0  0  0  0  0  0  0  0
   -0.1308    1.2964    2.4040 C   0  0  0  0  0  0  0  0  0  0  0  0
   -1.3758    1.7432    1.6193 C   0  0  0  0  0  0  0  0  0  0  0  0
   -1.1465    0.9782    0.3736 C   0  0  0  0  0  0  0  0  0  0  0  0
   -2.0175    0.4842   -0.5524 C   0  0  0  0  0  0  0  0  0  0  0  0
   -1.4482   -0.1553   -1.6591 C   0  0  0  0  0  0  0  0  0  0  0  0
   -0.0845   -0.2839   -1.8109 C   0  0  0  0  0  0  0  0  0  0  0  0
    0.1861   -1.0083   -3.0735 C   0  0  0  0  0  0  0  0  0  0  0  0
   -1.0987   -0.7897   -3.8345 C   0  0  0  0  0  0  0  0  0  0  0  0
   -2.0438   -0.7636   -2.7770 O   0  0  0  0  0  0  0  0  0  0  0  0
   -3.4823    0.5135   -0.4869 C   0  0  0  0  0  0  0  0  0  0  0  0
   -4.1363   -0.5643    0.2962 C   0  0  2  0  0  0  0  0  0  0  0  0
   -3.7532   -0.6048    1.6583 N   0  0  0  0  0  0  0  0  0  0  0  0
   -3.8615   -1.9356   -0.3076 C   0  0  0  0  0  0  0  0  0  0  0  0
    6.0215    1.0651    2.1359 H   0  0  0  0  0  0  0  0  0  0  0  0
    6.9218    0.9292    0.5620 H   0  0  0  0  0  0  0  0  0  0  0  0
    5.4538    2.0073    0.6784 H   0  0  0  0  0  0  0  0  0  0  0  0
    3.4114    1.1587    0.8921 H   0  0  0  0  0  0  0  0  0  0  0  0
    3.9443    0.2055    2.3810 H   0  0  0  0  0  0  0  0  0  0  0  0
    1.9904   -0.9631    1.3364 H   0  0  0  0  0  0  0  0  0  0  0  0
    3.5367   -1.9041    1.1382 H   0  0  0  0  0  0  0  0  0  0  0  0
    2.3875   -0.1399   -2.2416 H   0  0  0  0  0  0  0  0  0  0  0  0
    2.7560    1.0036   -0.9657 H   0  0  0  0  0  0  0  0  0  0  0  0
   -0.2379    0.2284    2.5969 H   0  0  0  0  0  0  0  0  0  0  0  0
    0.0996    1.9387    3.2482 H   0  0  0  0  0  0  0  0  0  0  0  0
   -1.2046    2.8196    1.3418 H   0  0  0  0  0  0  0  0  0  0  0  0
   -2.3012    1.5945    2.1396 H   0  0  0  0  0  0  0  0  0  0  0  0
    0.3108   -2.0992   -2.8779 H   0  0  0  0  0  0  0  0  0  0  0  0
    1.0029   -0.5786   -3.6664 H   0  0  0  0  0  0  0  0  0  0  0  0
   -1.0071    0.2038   -4.3424 H   0  0  0  0  0  0  0  0  0  0  0  0
   -1.3058   -1.6030   -4.5569 H   0  0  0  0  0  0  0  0  0  0  0  0
   -3.8631    1.5056   -0.1364 H   0  0  0  0  0  0  0  0  0  0  0  0
   -3.9063    0.4416   -1.5345 H   0  0  0  0  0  0  0  0  0  0  0  0
   -5.2341   -0.3712    0.2636 H   0  0  0  0  0  0  0  0  0  0  0  0
   -3.5975   -1.5380    2.0672 H   0  0  0  0  0  0  0  0  0  0  0  0
   -4.2816    0.0528    2.2586 H   0  0  0  0  0  0  0  0  0  0  0  0
   -2.7657   -2.1089   -0.2617 H   0  0  0  0  0  0  0  0  0  0  0  0
   -4.3505   -2.6840    0.3376 H   0  0  0  0  0  0  0  0  0  0  0  0
   -4.2210   -1.9895   -1.3478 H   0  0  0  0  0  0  0  0  0  0  0  0
  1  2  1  0
  2  3  1  0
  3  4  1  0
  4  5  1  0
  5  6  1  0
  6  7  1  0
  7  8  2  0
  8  9  1  0
  9 10  1  0
 10 11  1  0
 11 12  1  0
 12 13  2  0
 13 14  1  0
 14 15  2  0
 15 16  1  0
 16 17  1  0
 17 18  1  0
 13 19  1  0
 19 20  1  0
 20 21  1  0
 20 22  1  0
 15  7  1  0
 12  8  1  0
 18 14  1  0
  1 23  1  0
  1 24  1  0
  1 25  1  0
  3 26  1  0
  3 27  1  0
  4 28  1  0
  4 29  1  0
  6 30  1  0
  6 31  1  0
 10 32  1  0
 10 33  1  0
 11 34  1  0
 11 35  1  0
 16 36  1  0
 16 37  1  0
 17 38  1  0
 17 39  1  0
 19 40  1  0
 19 41  1  0
 20 42  1  1
 21 43  1  0
 21 44  1  0
 22 45  1  0
 22 46  1  0
 22 47  1  0
M  END
>  <Ligand ID>  (1) 
LIG0002201

>  <Ligand>  (1) 
CHEMBL397321

>  <SMILES>  (1) 
COCCOCc1c2OCCc2c(c2c1CCO2)C[C@H](N)C

>  <CID>  (1) 
44431688.0

>  <ChEMBL ID>  (1) 
nan

>  <InChiKey>  (1) 
LSJOUYHVPXKFHU-LLVKDONJSA-N

>  <InChi>  (1) 
InChI=1S/C17H25NO4/c1-11(18)9-14-12-3-5-22-17(12)15(10-20-8-7-19-2)13-4-6-21-16(13)14/h11H,3-10,18H2,1-2H3/t11-/m1/s1

>  <IUPAC Name>  (1) 
(2R)-1-[4-(2-methoxyethoxymethyl)-2,3,6,7-tetrahydrofuro[2,3-f][1]benzofuran-8-yl]propan-2-amine

$$$$
