
     RDKit          3D

 21 20  0  0  0  0  0  0  0  0999 V2000
    2.6162    0.4258    0.7589 C   0  0  0  0  0  0  0  0  0  0  0  0
    1.4829   -0.5019    0.3031 C   0  0  0  0  0  0  0  0  0  0  0  0
    0.6752    0.2843   -0.6692 C   0  0  0  0  0  0  0  0  0  0  0  0
   -0.5055   -0.4617   -1.2427 C   0  0  0  0  0  0  0  0  0  0  0  0
   -1.4777   -0.9045   -0.2113 C   0  0  0  0  0  0  0  0  0  0  0  0
   -2.0806    0.2115    0.5878 C   0  0  0  0  0  0  0  0  0  0  0  0
   -2.7741    1.1282   -0.1559 O   0  0  0  0  0  0  0  0  0  0  0  0
    2.2083    1.2661    1.3380 H   0  0  0  0  0  0  0  0  0  0  0  0
    3.3409   -0.1647    1.3293 H   0  0  0  0  0  0  0  0  0  0  0  0
    3.0741    0.8044   -0.1750 H   0  0  0  0  0  0  0  0  0  0  0  0
    0.9213   -0.7378    1.2372 H   0  0  0  0  0  0  0  0  0  0  0  0
    1.9729   -1.3911   -0.1300 H   0  0  0  0  0  0  0  0  0  0  0  0
    1.3429    0.5915   -1.4998 H   0  0  0  0  0  0  0  0  0  0  0  0
    0.3100    1.1958   -0.1700 H   0  0  0  0  0  0  0  0  0  0  0  0
   -0.1913   -1.3407   -1.8319 H   0  0  0  0  0  0  0  0  0  0  0  0
   -1.0004    0.2143   -1.9627 H   0  0  0  0  0  0  0  0  0  0  0  0
   -0.9813   -1.6086    0.4817 H   0  0  0  0  0  0  0  0  0  0  0  0
   -2.2652   -1.4944   -0.7371 H   0  0  0  0  0  0  0  0  0  0  0  0
   -2.7197   -0.2819    1.3722 H   0  0  0  0  0  0  0  0  0  0  0  0
   -1.2662    0.7395    1.1238 H   0  0  0  0  0  0  0  0  0  0  0  0
   -2.6829    2.0260    0.2537 H   0  0  0  0  0  0  0  0  0  0  0  0
  1  2  1  0
  2  3  1  0
  3  4  1  0
  4  5  1  0
  5  6  1  0
  6  7  1  0
  1  8  1  0
  1  9  1  0
  1 10  1  0
  2 11  1  0
  2 12  1  0
  3 13  1  0
  3 14  1  0
  4 15  1  0
  4 16  1  0
  5 17  1  0
  5 18  1  0
  6 19  1  0
  6 20  1  0
  7 21  1  0
M  END
>  <Ligand ID>  (1) 
LIG0000084

>  <Ligand>  (1) 
1-Hexanol

>  <SMILES>  (1) 
CCCCCCO

>  <CID>  (1) 
8103.0

>  <ChEMBL ID>  (1) 
nan

>  <InChiKey>  (1) 
ZSIAUFGUXNUGDI-UHFFFAOYSA-N

>  <InChi>  (1) 
InChI=1S/C6H14O/c1-2-3-4-5-6-7/h7H,2-6H2,1H3

>  <IUPAC Name>  (1) 
hexan-1-ol

$$$$
