
     RDKit          3D

 28 28  0  0  0  0  0  0  0  0999 V2000
   -4.2961    0.1217   -0.5485 C   0  0  0  0  0  0  0  0  0  0  0  0
   -2.9334    0.7815   -0.6123 C   0  0  0  0  0  0  0  0  0  0  0  0
   -2.2405    0.5326    0.6676 C   0  0  0  0  0  0  0  0  0  0  0  0
   -1.0989   -0.0976    0.8281 C   0  0  0  0  0  0  0  0  0  0  0  0
   -0.2619   -0.6924   -0.2265 C   0  0  0  0  0  0  0  0  0  0  0  0
    1.0990   -0.0981   -0.2802 C   0  0  0  0  0  0  0  0  0  0  0  0
    2.2488   -0.7355   -0.1132 C   0  0  0  0  0  0  0  0  0  0  0  0
    2.2860   -2.2073    0.1628 C   0  0  0  0  0  0  0  0  0  0  0  0
    3.3937    0.2044   -0.2404 C   0  0  0  0  0  0  0  0  0  0  0  0
    2.7947    1.5799   -0.0308 C   0  0  0  0  0  0  0  0  0  0  0  0
    1.3975    1.3128   -0.5304 C   0  0  0  0  0  0  0  0  0  0  0  0
    0.6278    2.1766   -1.0722 O   0  0  0  0  0  0  0  0  0  0  0  0
   -4.5481   -0.3268   -1.5376 H   0  0  0  0  0  0  0  0  0  0  0  0
   -4.2877   -0.6860    0.2011 H   0  0  0  0  0  0  0  0  0  0  0  0
   -5.0844    0.8479   -0.2561 H   0  0  0  0  0  0  0  0  0  0  0  0
   -3.0874    1.8841   -0.6832 H   0  0  0  0  0  0  0  0  0  0  0  0
   -2.4054    0.3717   -1.4711 H   0  0  0  0  0  0  0  0  0  0  0  0
   -2.7515    0.9249    1.5697 H   0  0  0  0  0  0  0  0  0  0  0  0
   -0.7280   -0.1917    1.8584 H   0  0  0  0  0  0  0  0  0  0  0  0
   -0.7354   -0.6008   -1.2189 H   0  0  0  0  0  0  0  0  0  0  0  0
   -0.1536   -1.7969   -0.0347 H   0  0  0  0  0  0  0  0  0  0  0  0
    1.5170   -2.3769    0.9723 H   0  0  0  0  0  0  0  0  0  0  0  0
    3.2854   -2.5264    0.5113 H   0  0  0  0  0  0  0  0  0  0  0  0
    1.9336   -2.7531   -0.7288 H   0  0  0  0  0  0  0  0  0  0  0  0
    4.0911   -0.0292    0.6139 H   0  0  0  0  0  0  0  0  0  0  0  0
    3.9199    0.1438   -1.1985 H   0  0  0  0  0  0  0  0  0  0  0  0
    3.2564    2.3528   -0.6916 H   0  0  0  0  0  0  0  0  0  0  0  0
    2.7614    1.8840    1.0360 H   0  0  0  0  0  0  0  0  0  0  0  0
  1  2  1  0
  2  3  1  0
  3  4  2  0
  4  5  1  0
  5  6  1  0
  6  7  2  0
  7  8  1  0
  7  9  1  0
  9 10  1  0
 10 11  1  0
 11 12  2  0
 11  6  1  0
  1 13  1  0
  1 14  1  0
  1 15  1  0
  2 16  1  0
  2 17  1  0
  3 18  1  0
  4 19  1  0
  5 20  1  0
  5 21  1  0
  8 22  1  0
  8 23  1  0
  8 24  1  0
  9 25  1  0
  9 26  1  0
 10 27  1  0
 10 28  1  0
M  END
>  <Ligand ID>  (1) 
LIG0000370

>  <Ligand>  (1) 
Jasmone

>  <SMILES>  (1) 
CC/C=C\CC1=C(C)CCC1=O

>  <CID>  (1) 
1549018.0

>  <ChEMBL ID>  (1) 
nan

>  <InChiKey>  (1) 
XMLSXPIVAXONDL-PLNGDYQASA-N

>  <InChi>  (1) 
InChI=1S/C11H16O/c1-3-4-5-6-10-9(2)7-8-11(10)12/h4-5H,3,6-8H2,1-2H3/b5-4-

>  <IUPAC Name>  (1) 
3-methyl-2-[(Z)-pent-2-enyl]cyclopent-2-en-1-one

$$$$
