
     RDKit          3D

 94 97  0  0  0  0  0  0  0  0999 V2000
   -4.5308    4.5226   -4.1064 N   0  0  0  0  0  0  0  0  0  0  0  0
   -3.3253    3.8043   -4.0744 C   0  0  0  0  0  0  0  0  0  0  0  0
   -2.4541    3.8255   -3.1431 N   0  0  0  0  0  0  0  0  0  0  0  0
   -2.6420    4.6494   -1.9545 C   0  0  0  0  0  0  0  0  0  0  0  0
   -2.6193    3.7168   -0.7406 C   0  0  0  0  0  0  0  0  0  0  0  0
   -1.2996    3.0046   -0.6773 C   0  0  0  0  0  0  0  0  0  0  0  0
   -1.2234    2.1051    0.5092 C   0  0  1  0  0  0  0  0  0  0  0  0
   -2.2280    1.0287    0.5549 C   0  0  0  0  0  0  0  0  0  0  0  0
   -3.4668    1.2027    0.4015 O   0  0  0  0  0  0  0  0  0  0  0  0
   -1.8472   -0.3505    0.7849 N   0  0  0  0  0  0  0  0  0  0  0  0
   -2.8963   -1.3499    0.7986 C   0  0  2  0  0  0  0  0  0  0  0  0
   -3.1062   -1.9116    2.1617 C   0  0  0  0  0  0  0  0  0  0  0  0
   -4.0233   -2.7958    2.2913 O   0  0  0  0  0  0  0  0  0  0  0  0
   -2.3639   -1.5321    3.3001 N   0  0  0  0  0  0  0  0  0  0  0  0
   -2.4705   -2.4567   -0.1610 C   0  0  0  0  0  0  0  0  0  0  0  0
   -3.5044   -3.5101   -0.2388 C   0  0  0  0  0  0  0  0  0  0  0  0
   -3.5965   -4.7548    0.3182 C   0  0  0  0  0  0  0  0  0  0  0  0
   -4.7788   -5.3185   -0.0635 N   0  0  0  0  0  0  0  0  0  0  0  0
   -5.4472   -4.4490   -0.8602 C   0  0  0  0  0  0  0  0  0  0  0  0
   -4.6767   -3.3208   -0.9833 C   0  0  0  0  0  0  0  0  0  0  0  0
   -5.1188   -2.2642   -1.7450 C   0  0  0  0  0  0  0  0  0  0  0  0
   -6.3365   -2.3073   -2.4004 C   0  0  0  0  0  0  0  0  0  0  0  0
   -7.1261   -3.4291   -2.2905 C   0  0  0  0  0  0  0  0  0  0  0  0
   -6.6551   -4.4695   -1.5207 C   0  0  0  0  0  0  0  0  0  0  0  0
    0.1354    1.5925    0.7004 N   0  0  0  0  0  0  0  0  0  0  0  0
    0.8983    1.8789    1.8615 C   0  0  0  0  0  0  0  0  0  0  0  0
    0.3576    2.5855    2.7569 O   0  0  0  0  0  0  0  0  0  0  0  0
    2.2764    1.4234    2.1020 C   0  0  1  0  0  0  0  0  0  0  0  0
    2.7361    0.6246    0.9836 N   0  0  0  0  0  0  0  0  0  0  0  0
    3.5179   -0.5442    1.1922 C   0  0  0  0  0  0  0  0  0  0  0  0
    3.8124   -0.8925    2.3674 O   0  0  0  0  0  0  0  0  0  0  0  0
    3.9777   -1.3284    0.0366 C   0  0  1  0  0  0  0  0  0  0  0  0
    4.9269   -2.3659    0.4448 N   0  0  0  0  0  0  0  0  0  0  0  0
    6.1753   -2.4139   -0.2505 C   0  0  0  0  0  0  0  0  0  0  0  0
    6.3799   -1.5573   -1.1688 O   0  0  0  0  0  0  0  0  0  0  0  0
    7.1999   -3.4164    0.0742 C   0  0  0  0  0  0  0  0  0  0  0  0
    7.0129   -4.2844    0.9850 O   0  0  0  0  0  0  0  0  0  0  0  0
    8.4202   -3.4006   -0.6568 N   0  0  0  0  0  0  0  0  0  0  0  0
    2.8213   -2.1195   -0.6142 C   0  0  0  0  0  0  0  0  0  0  0  0
    3.3698   -2.8874   -1.7767 C   0  0  0  0  0  0  0  0  0  0  0  0
    3.8838   -4.1203   -1.8227 N   0  0  0  0  0  0  0  0  0  0  0  0
    4.2580   -4.4242   -3.0745 C   0  0  0  0  0  0  0  0  0  0  0  0
    3.9685   -3.3498   -3.8266 N   0  0  0  0  0  0  0  0  0  0  0  0
    3.4218   -2.3935   -3.0509 C   0  0  0  0  0  0  0  0  0  0  0  0
    3.2290    2.6231    2.1099 C   0  0  0  0  0  0  0  0  0  0  0  0
    2.9375    3.6150    3.1402 C   0  0  0  0  0  0  0  0  0  0  0  0
    3.5635    3.4443    4.3812 C   0  0  0  0  0  0  0  0  0  0  0  0
    3.3719    4.3211    5.4260 C   0  0  0  0  0  0  0  0  0  0  0  0
    2.5434    5.4109    5.2781 C   0  0  0  0  0  0  0  0  0  0  0  0
    1.9248    5.5831    4.0573 C   0  0  0  0  0  0  0  0  0  0  0  0
    2.1081    4.7071    2.9925 C   0  0  0  0  0  0  0  0  0  0  0  0
   -3.0426    2.9690   -5.2128 N   0  0  0  0  0  0  0  0  0  0  0  0
   -4.6118    5.5386   -4.2604 H   0  0  0  0  0  0  0  0  0  0  0  0
   -5.4417    4.0070   -3.9652 H   0  0  0  0  0  0  0  0  0  0  0  0
   -3.6267    5.1151   -2.0365 H   0  0  0  0  0  0  0  0  0  0  0  0
   -1.8394    5.4047   -1.9030 H   0  0  0  0  0  0  0  0  0  0  0  0
   -3.4506    3.0017   -0.8909 H   0  0  0  0  0  0  0  0  0  0  0  0
   -2.8015    4.3449    0.1423 H   0  0  0  0  0  0  0  0  0  0  0  0
   -0.4801    3.7489   -0.5697 H   0  0  0  0  0  0  0  0  0  0  0  0
   -1.1051    2.4049   -1.5974 H   0  0  0  0  0  0  0  0  0  0  0  0
   -1.4635    2.7581    1.4088 H   0  0  0  0  0  0  0  0  0  0  0  0
   -0.8299   -0.6067    0.9362 H   0  0  0  0  0  0  0  0  0  0  0  0
   -3.8378   -0.8818    0.4971 H   0  0  0  0  0  0  0  0  0  0  0  0
   -1.7044   -0.7401    3.2602 H   0  0  0  0  0  0  0  0  0  0  0  0
   -2.4713   -2.0476    4.1971 H   0  0  0  0  0  0  0  0  0  0  0  0
   -1.5533   -2.9412    0.2718 H   0  0  0  0  0  0  0  0  0  0  0  0
   -2.1881   -2.0608   -1.1492 H   0  0  0  0  0  0  0  0  0  0  0  0
   -2.8285   -5.1886    0.9605 H   0  0  0  0  0  0  0  0  0  0  0  0
   -5.1288   -6.2716    0.2086 H   0  0  0  0  0  0  0  0  0  0  0  0
   -4.5444   -1.3516   -1.8750 H   0  0  0  0  0  0  0  0  0  0  0  0
   -6.7038   -1.4860   -3.0059 H   0  0  0  0  0  0  0  0  0  0  0  0
   -8.0822   -3.4483   -2.8112 H   0  0  0  0  0  0  0  0  0  0  0  0
   -7.3139   -5.3518   -1.4510 H   0  0  0  0  0  0  0  0  0  0  0  0
    0.5153    1.0085   -0.0492 H   0  0  0  0  0  0  0  0  0  0  0  0
    2.4222    0.8260    3.0251 H   0  0  0  0  0  0  0  0  0  0  0  0
    2.5213    0.8701   -0.0232 H   0  0  0  0  0  0  0  0  0  0  0  0
    4.3903   -0.7145   -0.7717 H   0  0  0  0  0  0  0  0  0  0  0  0
    4.7322   -3.0505    1.2014 H   0  0  0  0  0  0  0  0  0  0  0  0
    9.1857   -2.7957   -0.3175 H   0  0  0  0  0  0  0  0  0  0  0  0
    8.6048   -3.9569   -1.5135 H   0  0  0  0  0  0  0  0  0  0  0  0
    2.0188   -1.4575   -0.9580 H   0  0  0  0  0  0  0  0  0  0  0  0
    2.5146   -2.8627    0.1628 H   0  0  0  0  0  0  0  0  0  0  0  0
    3.9818   -4.7626   -0.9813 H   0  0  0  0  0  0  0  0  0  0  0  0
    4.7034   -5.3774   -3.3579 H   0  0  0  0  0  0  0  0  0  0  0  0
    3.0967   -1.4184   -3.4188 H   0  0  0  0  0  0  0  0  0  0  0  0
    4.2702    2.2789    2.2042 H   0  0  0  0  0  0  0  0  0  0  0  0
    3.0834    3.1193    1.1235 H   0  0  0  0  0  0  0  0  0  0  0  0
    4.2298    2.5948    4.5370 H   0  0  0  0  0  0  0  0  0  0  0  0
    3.8975    4.1212    6.3667 H   0  0  0  0  0  0  0  0  0  0  0  0
    2.3857    6.1078    6.0957 H   0  0  0  0  0  0  0  0  0  0  0  0
    1.2785    6.4413    3.9561 H   0  0  0  0  0  0  0  0  0  0  0  0
    1.6114    4.8765    2.0535 H   0  0  0  0  0  0  0  0  0  0  0  0
   -3.6917    2.1929   -5.5064 H   0  0  0  0  0  0  0  0  0  0  0  0
   -2.1936    3.0913   -5.7916 H   0  0  0  0  0  0  0  0  0  0  0  0
  1  2  1  0
  2  3  2  3
  3  4  1  0
  4  5  1  0
  5  6  1  0
  6  7  1  0
  7  8  1  0
  8  9  2  0
  8 10  1  0
 10 11  1  0
 11 12  1  0
 12 13  2  0
 12 14  1  0
 11 15  1  0
 15 16  1  0
 16 17  2  0
 17 18  1  0
 18 19  1  0
 19 20  2  0
 20 21  1  0
 21 22  2  0
 22 23  1  0
 23 24  2  0
  7 25  1  0
 25 26  1  0
 26 27  2  0
 26 28  1  0
 28 29  1  0
 29 30  1  0
 30 31  2  0
 30 32  1  0
 32 33  1  0
 33 34  1  0
 34 35  2  0
 34 36  1  0
 36 37  2  0
 36 38  1  0
 32 39  1  0
 39 40  1  0
 40 41  1  0
 41 42  1  0
 42 43  2  0
 43 44  1  0
 28 45  1  0
 45 46  1  0
 46 47  2  0
 47 48  1  0
 48 49  2  0
 49 50  1  0
 50 51  2  0
  2 52  1  0
 20 16  1  0
 44 40  2  0
 51 46  1  0
 24 19  1  0
  1 53  1  0
  1 54  1  0
  4 55  1  0
  4 56  1  0
  5 57  1  0
  5 58  1  0
  6 59  1  0
  6 60  1  0
  7 61  1  1
 10 62  1  0
 11 63  1  6
 14 64  1  0
 14 65  1  0
 15 66  1  0
 15 67  1  0
 17 68  1  0
 18 69  1  0
 21 70  1  0
 22 71  1  0
 23 72  1  0
 24 73  1  0
 25 74  1  0
 28 75  1  1
 29 76  1  0
 32 77  1  6
 33 78  1  0
 38 79  1  0
 38 80  1  0
 39 81  1  0
 39 82  1  0
 41 83  1  0
 42 84  1  0
 44 85  1  0
 45 86  1  0
 45 87  1  0
 47 88  1  0
 48 89  1  0
 49 90  1  0
 50 91  1  0
 51 92  1  0
 52 93  1  0
 52 94  1  0
M  END
>  <Ligand ID>  (1) 
LIG0002638

>  <Ligand>  (1) 
CHEMBL328117

>  <SMILES>  (1) 
NC(=NCCC[C@@H](C(=O)N[C@H](C(=O)N)Cc1c[nH]c2c1cccc2)NC(=O)[C@@H](NC(=O)[C@@H](NC(=O)C(=O)N)Cc1[nH]cnc1)Cc1ccccc1)N

>  <CID>  (1) 
44322977.0

>  <ChEMBL ID>  (1) 
nan

>  <InChiKey>  (1) 
CZLALGVBUDRCJM-FWEHEUNISA-N

>  <InChi>  (1) 
InChI=1S/C34H42N12O6/c35-28(47)25(14-20-16-41-23-10-5-4-9-22(20)23)44-30(49)24(11-6-12-40-34(37)38)43-31(50)26(13-19-7-2-1-3-8-19)45-32(51)27(46-33(52)29(36)48)15-21-17-39-18-42-21/h1-5,7-10,16-18,24-27,41H,6,11-15H2,(H2,35,47)(H2,36,48)(H,39,42)(H,43,50)(H,44,49)(H,45,51)(H,46,52)(H4,37,38,40)/t24-,25-,26-,27-/m0/s1

>  <IUPAC Name>  (1) 
N'-[(2S)-1-[[(2S)-1-[[(2S)-1-[[(2S)-1-amino-3-(1H-indol-3-yl)-1-oxopropan-2-yl]amino]-5-(diaminomethylideneamino)-1-oxopentan-2-yl]amino]-1-oxo-3-phenylpropan-2-yl]amino]-3-(1H-imidazol-5-yl)-1-oxopropan-2-yl]oxamide

$$$$
