
     RDKit          3D

 16 16  0  0  0  0  0  0  0  0999 V2000
   -2.4696   -2.1602   -0.3885 O   0  0  0  0  0  0  0  0  0  0  0  0
   -1.5621   -1.1427   -0.1994 N   0  0  0  0  0  0  0  0  0  0  0  0
   -2.0378    0.1083   -0.0912 C   0  0  0  0  0  0  0  0  0  0  0  0
   -1.1557    1.1520    0.0989 C   0  0  0  0  0  0  0  0  0  0  0  0
   -1.6517    2.4452    0.2105 O   0  0  0  0  0  0  0  0  0  0  0  0
    0.1997    0.9092    0.1765 C   0  0  0  0  0  0  0  0  0  0  0  0
    0.6368   -0.4146    0.0568 C   0  0  0  0  0  0  0  0  0  0  0  0
   -0.2468   -1.4389   -0.1312 C   0  0  0  0  0  0  0  0  0  0  0  0
    2.0650   -0.7437    0.1300 C   0  0  0  0  0  0  0  0  0  0  0  0
    2.4826   -1.9384    0.0238 O   0  0  0  0  0  0  0  0  0  0  0  0
    3.0451    0.2230    0.3188 O   0  0  0  0  0  0  0  0  0  0  0  0
   -3.0935    0.3338   -0.1474 H   0  0  0  0  0  0  0  0  0  0  0  0
   -1.1118    3.2828    0.0811 H   0  0  0  0  0  0  0  0  0  0  0  0
    0.9180    1.7244    0.3273 H   0  0  0  0  0  0  0  0  0  0  0  0
    0.0765   -2.4588   -0.2244 H   0  0  0  0  0  0  0  0  0  0  0  0
    3.9051    0.1186   -0.2417 H   0  0  0  0  0  0  0  0  0  0  0  0
  1  2  1  0
  2  3  2  0
  3  4  1  0
  4  5  1  0
  4  6  2  0
  6  7  1  0
  7  8  2  0
  7  9  1  0
  9 10  2  0
  9 11  1  0
  8  2  1  0
  3 12  1  0
  5 13  1  0
  6 14  1  0
  8 15  1  0
 11 16  1  0
M  CHG  2   1  -1   2   1
M  END
>  <Ligand ID>  (1) 
LIG0005744

>  <Ligand>  (1) 
CHEMBL2146903

>  <SMILES>  (1) 
[O-][n+]1cc(O)cc(c1)C(=O)O

>  <CID>  (1) 
22052341.0

>  <ChEMBL ID>  (1) 
nan

>  <InChiKey>  (1) 
VWTAJPFOPODXEM-UHFFFAOYSA-N

>  <InChi>  (1) 
InChI=1S/C6H5NO4/c8-5-1-4(6(9)10)2-7(11)3-5/h1-3,8H,(H,9,10)

>  <IUPAC Name>  (1) 
5-hydroxy-1-oxidopyridin-1-ium-3-carboxylic acid

$$$$
