
     RDKit          3D

134139  0  0  0  0  0  0  0  0999 V2000
  -10.8499   -0.6484    1.4164 C   0  0  0  0  0  0  0  0  0  0  0  0
   -9.3357   -0.6036    1.2105 C   0  0  0  0  0  0  0  0  0  0  0  0
   -8.7032   -1.9142    1.6066 C   0  0  0  0  0  0  0  0  0  0  0  0
   -7.2158   -1.9228    1.4158 C   0  0  0  0  0  0  0  0  0  0  0  0
   -6.7878   -1.6952   -0.0028 C   0  0  1  0  0  0  0  0  0  0  0  0
   -5.2825   -1.7247   -0.1275 C   0  0  0  0  0  0  0  0  0  0  0  0
   -4.8412   -2.7457   -0.7181 O   0  0  0  0  0  0  0  0  0  0  0  0
   -4.5022   -0.6746    0.3894 N   0  0  0  0  0  0  0  0  0  0  0  0
   -3.1041   -0.5084    0.4042 C   0  0  1  0  0  0  0  0  0  0  0  0
   -2.2024   -1.5290   -0.2025 C   0  0  0  0  0  0  0  0  0  0  0  0
   -2.1123   -2.8161    0.5085 C   0  0  0  0  0  0  0  0  0  0  0  0
   -2.8981   -3.3005    1.3257 O   0  0  0  0  0  0  0  0  0  0  0  0
   -0.9580   -3.7157    0.2809 N   0  0  0  0  0  0  0  0  0  0  0  0
   -1.0163   -4.9435    0.9934 C   0  0  0  0  0  0  0  0  0  0  0  0
    0.1664   -5.8135    0.8301 C   0  0  0  0  0  0  0  0  0  0  0  0
    0.6837   -6.1877   -0.4917 C   0  0  0  0  0  0  0  0  0  0  0  0
    1.4964   -5.2050   -1.2625 C   0  0  0  0  0  0  0  0  0  0  0  0
    2.7271   -4.7503   -0.4610 C   0  0  2  0  0  0  0  0  0  0  0  0
    3.4478   -3.8067   -1.2938 N   0  0  0  0  0  0  0  0  0  0  0  0
    3.8009   -2.4811   -0.7897 C   0  0  0  0  0  0  0  0  0  0  0  0
    3.4102   -2.2807    0.3660 O   0  0  0  0  0  0  0  0  0  0  0  0
    4.5533   -1.5089   -1.6266 C   0  0  1  0  0  0  0  0  0  0  0  0
    4.6766   -0.2520   -0.8670 N   0  0  0  0  0  0  0  0  0  0  0  0
    4.1972    0.9990   -1.4111 C   0  0  0  0  0  0  0  0  0  0  0  0
    3.6892    0.8005   -2.5754 O   0  0  0  0  0  0  0  0  0  0  0  0
    4.2190    2.2928   -0.8648 C   0  0  1  0  0  0  0  0  0  0  0  0
    3.4888    2.7009    0.2952 N   0  0  0  0  0  0  0  0  0  0  0  0
    2.1919    3.2140    0.1421 C   0  0  0  0  0  0  0  0  0  0  0  0
    1.7583    3.2131   -1.0328 O   0  0  0  0  0  0  0  0  0  0  0  0
    1.2804    3.7453    1.1827 C   0  0  2  0  0  0  0  0  0  0  0  0
   -0.0196    3.9684    0.4973 N   0  0  0  0  0  0  0  0  0  0  0  0
   -1.1427    3.1451    0.8183 C   0  0  0  0  0  0  0  0  0  0  0  0
   -0.9793    2.3629    1.7532 O   0  0  0  0  0  0  0  0  0  0  0  0
   -2.4389    3.2576    0.0242 C   0  0  1  0  0  0  0  0  0  0  0  0
   -3.1861    2.0796    0.4505 N   0  0  0  0  0  0  0  0  0  0  0  0
   -2.5585    0.8297    0.1851 C   0  0  0  0  0  0  0  0  0  0  0  0
   -1.3974    0.9165   -0.2803 O   0  0  0  0  0  0  0  0  0  0  0  0
   -3.1090    4.5434    0.2125 C   0  0  0  0  0  0  0  0  0  0  0  0
   -4.3665    4.6356   -0.5620 C   0  0  0  0  0  0  0  0  0  0  0  0
   -5.1644    5.7181   -0.5579 N   0  0  0  0  0  0  0  0  0  0  0  0
   -6.1870    5.4044   -1.3733 C   0  0  0  0  0  0  0  0  0  0  0  0
   -6.0265    4.1627   -1.8681 N   0  0  0  0  0  0  0  0  0  0  0  0
   -4.8896    3.6687   -1.3684 C   0  0  0  0  0  0  0  0  0  0  0  0
    1.6998    5.0364    1.7907 C   0  0  0  0  0  0  0  0  0  0  0  0
    1.8222    6.1241    0.7759 C   0  0  0  0  0  0  0  0  0  0  0  0
    3.0555    6.2889    0.1436 C   0  0  0  0  0  0  0  0  0  0  0  0
    3.2470    7.2702   -0.8032 C   0  0  0  0  0  0  0  0  0  0  0  0
    2.2086    8.1115   -1.1412 C   0  0  0  0  0  0  0  0  0  0  0  0
    0.9711    7.9657   -0.5246 C   0  0  0  0  0  0  0  0  0  0  0  0
    0.8010    6.9668    0.4295 C   0  0  0  0  0  0  0  0  0  0  0  0
    4.2961    2.4688    1.4267 C   0  0  0  0  0  0  0  0  0  0  0  0
    5.7465    2.4545    0.9372 C   0  0  0  0  0  0  0  0  0  0  0  0
    5.6014    2.7824   -0.5191 C   0  0  0  0  0  0  0  0  0  0  0  0
    5.8890   -2.1182   -1.9576 C   0  0  0  0  0  0  0  0  0  0  0  0
    6.7712   -2.4119   -0.8384 C   0  0  0  0  0  0  0  0  0  0  0  0
    6.9883   -3.5406   -0.0824 C   0  0  0  0  0  0  0  0  0  0  0  0
    7.8903   -3.3153    0.8875 N   0  0  0  0  0  0  0  0  0  0  0  0
    8.2945   -2.0457    0.8044 C   0  0  0  0  0  0  0  0  0  0  0  0
    7.6237   -1.4603   -0.2506 C   0  0  0  0  0  0  0  0  0  0  0  0
    7.9069   -0.1371   -0.5263 C   0  0  0  0  0  0  0  0  0  0  0  0
    8.8089    0.6143    0.1898 C   0  0  0  0  0  0  0  0  0  0  0  0
    9.4628   -0.0102    1.2463 C   0  0  0  0  0  0  0  0  0  0  0  0
    9.2079   -1.3275    1.5502 C   0  0  0  0  0  0  0  0  0  0  0  0
    3.5319   -6.0164   -0.3111 C   0  0  0  0  0  0  0  0  0  0  0  0
    3.1727   -6.9180    0.5166 O   0  0  0  0  0  0  0  0  0  0  0  0
    4.6944   -6.2814   -1.0533 N   0  0  0  0  0  0  0  0  0  0  0  0
   -7.2207   -2.8886   -0.7467 N   0  0  0  0  0  0  0  0  0  0  0  0
   -8.0655   -2.6343   -1.8667 C   0  0  0  0  0  0  0  0  0  0  0  0
   -8.4193   -1.4686   -2.1980 O   0  0  0  0  0  0  0  0  0  0  0  0
   -8.5861   -3.7437   -2.7227 C   0  0  0  0  0  0  0  0  0  0  0  0
  -11.2570    0.3612    1.2135 H   0  0  0  0  0  0  0  0  0  0  0  0
  -11.1020   -0.9244    2.4472 H   0  0  0  0  0  0  0  0  0  0  0  0
  -11.3405   -1.3517    0.7098 H   0  0  0  0  0  0  0  0  0  0  0  0
   -9.0854   -0.2865    0.1951 H   0  0  0  0  0  0  0  0  0  0  0  0
   -8.9615    0.1854    1.9094 H   0  0  0  0  0  0  0  0  0  0  0  0
   -8.8913   -2.1276    2.6846 H   0  0  0  0  0  0  0  0  0  0  0  0
   -9.1407   -2.7624    1.0119 H   0  0  0  0  0  0  0  0  0  0  0  0
   -6.7472   -1.1900    2.1049 H   0  0  0  0  0  0  0  0  0  0  0  0
   -6.8712   -2.9407    1.7516 H   0  0  0  0  0  0  0  0  0  0  0  0
   -7.2299   -0.8106   -0.4494 H   0  0  0  0  0  0  0  0  0  0  0  0
   -5.0725    0.1210    0.8413 H   0  0  0  0  0  0  0  0  0  0  0  0
   -2.8320   -0.7117    1.5560 H   0  0  0  0  0  0  0  0  0  0  0  0
   -2.5569   -1.6672   -1.2607 H   0  0  0  0  0  0  0  0  0  0  0  0
   -1.1858   -1.0822   -0.3130 H   0  0  0  0  0  0  0  0  0  0  0  0
   -0.2869   -3.3137   -0.3379 H   0  0  0  0  0  0  0  0  0  0  0  0
   -1.9842   -5.4986    0.7828 H   0  0  0  0  0  0  0  0  0  0  0  0
   -1.1014   -4.7628    2.1180 H   0  0  0  0  0  0  0  0  0  0  0  0
    1.0029   -5.3488    1.4355 H   0  0  0  0  0  0  0  0  0  0  0  0
   -0.0067   -6.7984    1.4075 H   0  0  0  0  0  0  0  0  0  0  0  0
   -0.2252   -6.3855   -1.1619 H   0  0  0  0  0  0  0  0  0  0  0  0
    1.1614   -7.2029   -0.4771 H   0  0  0  0  0  0  0  0  0  0  0  0
    0.9707   -4.3868   -1.6935 H   0  0  0  0  0  0  0  0  0  0  0  0
    1.9725   -5.8479   -2.1006 H   0  0  0  0  0  0  0  0  0  0  0  0
    2.4641   -4.3488    0.5098 H   0  0  0  0  0  0  0  0  0  0  0  0
    3.7580   -3.9633   -2.2500 H   0  0  0  0  0  0  0  0  0  0  0  0
    4.0249   -1.3799   -2.5623 H   0  0  0  0  0  0  0  0  0  0  0  0
    5.0824   -0.1803    0.0567 H   0  0  0  0  0  0  0  0  0  0  0  0
    3.9241    3.0155   -1.7289 H   0  0  0  0  0  0  0  0  0  0  0  0
    1.1951    2.9733    1.9616 H   0  0  0  0  0  0  0  0  0  0  0  0
   -0.1751    4.6826   -0.1987 H   0  0  0  0  0  0  0  0  0  0  0  0
   -2.0625    3.0612   -1.0234 H   0  0  0  0  0  0  0  0  0  0  0  0
   -4.0815    2.0515    0.9077 H   0  0  0  0  0  0  0  0  0  0  0  0
   -2.4352    5.3499   -0.1482 H   0  0  0  0  0  0  0  0  0  0  0  0
   -3.3000    4.7322    1.2851 H   0  0  0  0  0  0  0  0  0  0  0  0
   -5.0460    6.6208   -0.0453 H   0  0  0  0  0  0  0  0  0  0  0  0
   -7.0168    6.0889   -1.5818 H   0  0  0  0  0  0  0  0  0  0  0  0
   -4.4191    2.7035   -1.5283 H   0  0  0  0  0  0  0  0  0  0  0  0
    2.5852    4.9866    2.4300 H   0  0  0  0  0  0  0  0  0  0  0  0
    0.8796    5.4081    2.4811 H   0  0  0  0  0  0  0  0  0  0  0  0
    3.8591    5.6218    0.4185 H   0  0  0  0  0  0  0  0  0  0  0  0
    4.2049    7.3922   -1.2895 H   0  0  0  0  0  0  0  0  0  0  0  0
    2.3217    8.8850   -1.8737 H   0  0  0  0  0  0  0  0  0  0  0  0
    0.1269    8.6016   -0.7563 H   0  0  0  0  0  0  0  0  0  0  0  0
   -0.1618    6.8517    0.9104 H   0  0  0  0  0  0  0  0  0  0  0  0
    4.0645    1.5253    1.9722 H   0  0  0  0  0  0  0  0  0  0  0  0
    4.2281    3.3501    2.1152 H   0  0  0  0  0  0  0  0  0  0  0  0
    6.2420    1.5108    1.1677 H   0  0  0  0  0  0  0  0  0  0  0  0
    6.3260    3.3150    1.4046 H   0  0  0  0  0  0  0  0  0  0  0  0
    6.3468    2.3249   -1.1801 H   0  0  0  0  0  0  0  0  0  0  0  0
    5.6479    3.9071   -0.6226 H   0  0  0  0  0  0  0  0  0  0  0  0
    6.4046   -1.4768   -2.7341 H   0  0  0  0  0  0  0  0  0  0  0  0
    5.7117   -3.0782   -2.4976 H   0  0  0  0  0  0  0  0  0  0  0  0
    6.5133   -4.4781   -0.2341 H   0  0  0  0  0  0  0  0  0  0  0  0
    8.2352   -3.9901    1.5944 H   0  0  0  0  0  0  0  0  0  0  0  0
    7.3651    0.2779   -1.3804 H   0  0  0  0  0  0  0  0  0  0  0  0
    8.9855    1.6482   -0.0767 H   0  0  0  0  0  0  0  0  0  0  0  0
   10.1658    0.6067    1.7912 H   0  0  0  0  0  0  0  0  0  0  0  0
    9.7519   -1.7617    2.3885 H   0  0  0  0  0  0  0  0  0  0  0  0
    4.7250   -6.0021   -2.0705 H   0  0  0  0  0  0  0  0  0  0  0  0
    5.4939   -6.7441   -0.5841 H   0  0  0  0  0  0  0  0  0  0  0  0
   -6.9362   -3.8481   -0.4828 H   0  0  0  0  0  0  0  0  0  0  0  0
   -8.1337   -3.6077   -3.7341 H   0  0  0  0  0  0  0  0  0  0  0  0
   -8.3112   -4.7185   -2.3059 H   0  0  0  0  0  0  0  0  0  0  0  0
   -9.6959   -3.5779   -2.7582 H   0  0  0  0  0  0  0  0  0  0  0  0
  1  2  1  0
  2  3  1  0
  3  4  1  0
  4  5  1  0
  5  6  1  0
  6  7  2  0
  6  8  1  0
  8  9  1  0
  9 10  1  0
 10 11  1  0
 11 12  2  0
 11 13  1  0
 13 14  1  0
 14 15  1  0
 15 16  1  0
 16 17  1  0
 17 18  1  0
 18 19  1  0
 19 20  1  0
 20 21  2  0
 20 22  1  0
 22 23  1  0
 23 24  1  0
 24 25  2  0
 24 26  1  0
 26 27  1  0
 27 28  1  0
 28 29  2  0
 28 30  1  0
 30 31  1  0
 31 32  1  0
 32 33  2  0
 32 34  1  0
 34 35  1  0
 35 36  1  0
 36 37  2  0
 34 38  1  0
 38 39  1  0
 39 40  1  0
 40 41  1  0
 41 42  2  0
 42 43  1  0
 30 44  1  0
 44 45  1  0
 45 46  2  0
 46 47  1  0
 47 48  2  0
 48 49  1  0
 49 50  2  0
 27 51  1  0
 51 52  1  0
 52 53  1  0
 22 54  1  0
 54 55  1  0
 55 56  2  0
 56 57  1  0
 57 58  1  0
 58 59  2  0
 59 60  1  0
 60 61  2  0
 61 62  1  0
 62 63  2  0
 18 64  1  0
 64 65  2  0
 64 66  1  0
  5 67  1  0
 67 68  1  0
 68 69  2  0
 68 70  1  0
 36  9  1  0
 43 39  2  0
 50 45  1  0
 59 55  1  0
 53 26  1  0
 63 58  1  0
  1 71  1  0
  1 72  1  0
  1 73  1  0
  2 74  1  0
  2 75  1  0
  3 76  1  0
  3 77  1  0
  4 78  1  0
  4 79  1  0
  5 80  1  6
  8 81  1  0
  9 82  1  1
 10 83  1  0
 10 84  1  0
 13 85  1  0
 14 86  1  0
 14 87  1  0
 15 88  1  0
 15 89  1  0
 16 90  1  0
 16 91  1  0
 17 92  1  0
 17 93  1  0
 18 94  1  1
 19 95  1  0
 22 96  1  6
 23 97  1  0
 26 98  1  6
 30 99  1  1
 31100  1  0
 34101  1  6
 35102  1  0
 38103  1  0
 38104  1  0
 40105  1  0
 41106  1  0
 43107  1  0
 44108  1  0
 44109  1  0
 46110  1  0
 47111  1  0
 48112  1  0
 49113  1  0
 50114  1  0
 51115  1  0
 51116  1  0
 52117  1  0
 52118  1  0
 53119  1  0
 53120  1  0
 54121  1  0
 54122  1  0
 56123  1  0
 57124  1  0
 60125  1  0
 61126  1  0
 62127  1  0
 63128  1  0
 66129  1  0
 66130  1  0
 67131  1  0
 70132  1  0
 70133  1  0
 70134  1  0
M  END
>  <Ligand ID>  (1) 
LIG0001784

>  <Ligand>  (1) 
CHEMBL501642

>  <SMILES>  (1) 
CCCC[C@@H](C(=O)N[C@H]1CC(=O)NCCCC[C@H](NC(=O)[C@@H](NC(=O)[C@H]2N(C(=O)[C@H](NC(=O)[C@@H](NC1=O)Cc1[nH]cnc1)Cc1ccccc1)CCC2)Cc1c[nH]c2c1cccc2)C(=O)N)NC(=O)C

>  <CID>  (1) 
44158031.0

>  <ChEMBL ID>  (1) 
nan

>  <InChiKey>  (1) 
ZHWWUNQUSCAJKE-CQPWUTEUSA-N

>  <InChi>  (1) 
InChI=1S/C49H64N12O9/c1-3-4-16-36(55-29(2)62)44(65)58-39-25-42(63)52-20-11-10-18-35(43(50)64)56-45(66)37(23-31-26-53-34-17-9-8-15-33(31)34)59-48(69)41-19-12-21-61(41)49(70)40(22-30-13-6-5-7-14-30)60-46(67)38(57-47(39)68)24-32-27-51-28-54-32/h5-9,13-15,17,26-28,35-41,53H,3-4,10-12,16,18-25H2,1-2H3,(H2,50,64)(H,51,54)(H,52,63)(H,55,62)(H,56,66)(H,57,68)(H,58,65)(H,59,69)(H,60,67)/t35-,36-,37-,38-,39-,40+,41-/m0/s1

>  <IUPAC Name>  (1) 
(3R,6S,9S,17S,20S,23S)-9-[[(2S)-2-acetamidohexanoyl]amino]-3-benzyl-6-(1H-imidazol-5-ylmethyl)-20-(1H-indol-3-ylmethyl)-2,5,8,11,19,22-hexaoxo-1,4,7,12,18,21-hexazabicyclo[21.3.0]hexacosane-17-carboxamide

$$$$
