
     RDKit          3D

 32 32  0  0  0  0  0  0  0  0999 V2000
   -4.3236    1.4060    1.0244 C   0  0  0  0  0  0  0  0  0  0  0  0
   -3.5438    1.2932    0.1022 C   0  0  0  0  0  0  0  0  0  0  0  0
   -2.5872    1.1515   -0.9931 C   0  0  0  0  0  0  0  0  0  0  0  0
   -1.3074    0.7525   -0.5646 O   0  0  0  0  0  0  0  0  0  0  0  0
   -1.1070   -0.4261    0.0904 C   0  0  0  0  0  0  0  0  0  0  0  0
   -2.1168   -1.3186    0.3857 C   0  0  0  0  0  0  0  0  0  0  0  0
   -1.8862   -2.5152    1.0553 C   0  0  0  0  0  0  0  0  0  0  0  0
   -0.6094   -2.8374    1.4453 C   0  0  0  0  0  0  0  0  0  0  0  0
    0.3978   -1.9583    1.1564 C   0  0  0  0  0  0  0  0  0  0  0  0
    0.1762   -0.7488    0.4816 C   0  0  0  0  0  0  0  0  0  0  0  0
    1.3583    0.0902    0.2410 C   0  0  1  0  0  0  0  0  0  0  0  0
    2.0582   -0.2839   -1.1023 C   0  0  0  0  0  0  0  0  0  0  0  0
    1.5326    1.0942   -0.7830 C   0  0  2  0  0  0  0  0  0  0  0  0
    2.6235    2.1212   -0.5534 C   0  0  0  0  0  0  0  0  0  0  0  0
    3.9206    1.4849   -0.4340 N   0  0  0  0  0  0  0  0  0  0  0  0
   -0.3262   -4.3443    2.2873 Cl  0  0  0  0  0  0  0  0  0  0  0  0
    0.6876    0.0000    0.0000 Cl  0  0  0  0  0  0  0  0  0  0  0  0
   -5.0079    1.4982    1.8462 H   0  0  0  0  0  0  0  0  0  0  0  0
   -2.9859    0.3618   -1.6946 H   0  0  0  0  0  0  0  0  0  0  0  0
   -2.5855    2.0903   -1.5577 H   0  0  0  0  0  0  0  0  0  0  0  0
   -3.1265   -1.1196    0.1048 H   0  0  0  0  0  0  0  0  0  0  0  0
   -2.7190   -3.1887    1.2660 H   0  0  0  0  0  0  0  0  0  0  0  0
    1.4112   -2.2355    1.4772 H   0  0  0  0  0  0  0  0  0  0  0  0
    2.0450    0.1273    1.1367 H   0  0  0  0  0  0  0  0  0  0  0  0
    3.1149   -0.5456   -0.9999 H   0  0  0  0  0  0  0  0  0  0  0  0
    1.4505   -0.8192   -1.8584 H   0  0  0  0  0  0  0  0  0  0  0  0
    0.7176    1.5120   -1.4127 H   0  0  0  0  0  0  0  0  0  0  0  0
    2.7163    2.7786   -1.4670 H   0  0  0  0  0  0  0  0  0  0  0  0
    2.4416    2.7221    0.3526 H   0  0  0  0  0  0  0  0  0  0  0  0
    4.2813    1.0920   -1.3304 H   0  0  0  0  0  0  0  0  0  0  0  0
    3.9866    0.7651    0.2926 H   0  0  0  0  0  0  0  0  0  0  0  0
   -0.6876    0.0000    0.0000 H   0  0  0  0  0  0  0  0  0  0  0  0
  1  2  3  0
  2  3  1  0
  3  4  1  0
  4  5  1  0
  5  6  2  0
  6  7  1  0
  7  8  2  0
  8  9  1  0
  9 10  2  0
 10 11  1  0
 11 12  1  0
 12 13  1  0
 13 14  1  0
 14 15  1  0
  8 16  1  0
 10  5  1  0
 13 11  1  0
  1 18  1  0
  3 19  1  0
  3 20  1  0
  6 21  1  0
  7 22  1  0
  9 23  1  0
 11 24  1  1
 12 25  1  0
 12 26  1  0
 13 27  1  6
 14 28  1  0
 14 29  1  0
 15 30  1  0
 15 31  1  0
 17 32  1  0
M  END
>  <Ligand ID>  (1) 
LIG0002332

>  <Ligand>  (1) 
CHEMBL3416049

>  <SMILES>  (1) 
C#CCOc1ccc(cc1[C@H]1C[C@@H]1CN)Cl.Cl

>  <CID>  (1) 
118733793.0

>  <ChEMBL ID>  (1) 
nan

>  <InChiKey>  (1) 
QCEINVVRTQMVPV-XQKZEKTMSA-N

>  <InChi>  (1) 
InChI=1S/C13H14ClNO.ClH/c1-2-5-16-13-4-3-10(14)7-12(13)11-6-9(11)8-15;/h1,3-4,7,9,11H,5-6,8,15H2;1H/t9-,11+;/m1./s1

>  <IUPAC Name>  (1) 
[(1S,2S)-2-(5-chloro-2-prop-2-ynoxyphenyl)cyclopropyl]methanamine;hydrochloride

$$$$
