
     RDKit          3D

 32 33  0  0  0  0  0  0  0  0999 V2000
   -0.6943    3.7830    1.4806 Cl  0  0  0  0  0  0  0  0  0  0  0  0
   -1.2195    2.2734    0.7834 C   0  0  0  0  0  0  0  0  0  0  0  0
   -2.4308    2.2250    0.1340 C   0  0  0  0  0  0  0  0  0  0  0  0
   -2.8257    1.0382   -0.4047 C   0  0  0  0  0  0  0  0  0  0  0  0
   -2.0378   -0.0914   -0.3065 C   0  0  0  0  0  0  0  0  0  0  0  0
   -0.8032   -0.0792    0.3450 C   0  0  0  0  0  0  0  0  0  0  0  0
   -0.4305    1.1409    0.8814 C   0  0  0  0  0  0  0  0  0  0  0  0
    0.0114   -1.2373    0.4556 N   0  0  0  0  0  0  0  0  0  0  0  0
    1.2752   -1.2749    1.1023 C   0  0  0  0  0  0  0  0  0  0  0  0
    2.3028   -0.4000    0.4674 C   0  0  0  0  0  0  0  0  0  0  0  0
    2.2124    0.3413   -0.5830 N   0  0  0  0  0  0  0  0  0  0  0  0
    3.4648    1.0275   -0.8431 C   0  0  0  0  0  0  0  0  0  0  0  0
    4.4879    0.3205    0.0343 C   0  0  0  0  0  0  0  0  0  0  0  0
    3.6297   -0.2963    1.0251 N   0  0  0  0  0  0  0  0  0  0  0  0
   -2.5549   -1.5987   -0.9988 S   0  0  0  0  0  0  0  0  0  0  0  0
   -1.6257   -2.1402   -2.0245 O   0  0  0  0  0  0  0  0  0  0  0  0
   -2.7827   -2.5835    0.1385 O   0  0  0  0  0  0  0  0  0  0  0  0
   -4.1430   -1.3896   -1.7741 C   0  0  0  0  0  0  0  0  0  0  0  0
   -3.0219    3.1250    0.0749 H   0  0  0  0  0  0  0  0  0  0  0  0
   -3.7796    1.0052   -0.9146 H   0  0  0  0  0  0  0  0  0  0  0  0
    0.5048    1.2595    1.4096 H   0  0  0  0  0  0  0  0  0  0  0  0
   -0.3916   -2.1153    0.0091 H   0  0  0  0  0  0  0  0  0  0  0  0
    1.2461   -0.9645    2.1671 H   0  0  0  0  0  0  0  0  0  0  0  0
    1.6613   -2.3144    1.0840 H   0  0  0  0  0  0  0  0  0  0  0  0
    3.7457    1.0016   -1.9081 H   0  0  0  0  0  0  0  0  0  0  0  0
    3.4606    2.0917   -0.5340 H   0  0  0  0  0  0  0  0  0  0  0  0
    5.0369   -0.4629   -0.5254 H   0  0  0  0  0  0  0  0  0  0  0  0
    5.1876    1.0394    0.5068 H   0  0  0  0  0  0  0  0  0  0  0  0
    3.9312   -0.6133    1.9890 H   0  0  0  0  0  0  0  0  0  0  0  0
   -4.5714   -2.4265   -1.8711 H   0  0  0  0  0  0  0  0  0  0  0  0
   -4.0594   -0.9260   -2.7737 H   0  0  0  0  0  0  0  0  0  0  0  0
   -4.7864   -0.7584   -1.1196 H   0  0  0  0  0  0  0  0  0  0  0  0
  1  2  1  0
  2  3  2  0
  3  4  1  0
  4  5  2  0
  5  6  1  0
  6  7  2  0
  6  8  1  0
  8  9  1  0
  9 10  1  0
 10 11  2  0
 11 12  1  0
 12 13  1  0
 13 14  1  0
  5 15  1  0
 15 16  2  0
 15 17  2  0
 15 18  1  0
  7  2  1  0
 14 10  1  0
  3 19  1  0
  4 20  1  0
  7 21  1  0
  8 22  1  0
  9 23  1  0
  9 24  1  0
 12 25  1  0
 12 26  1  0
 13 27  1  0
 13 28  1  0
 14 29  1  0
 18 30  1  0
 18 31  1  0
 18 32  1  0
M  END
>  <Ligand ID>  (1) 
LIG0000999

>  <Ligand>  (1) 
CHEMBL70634

>  <SMILES>  (1) 
Clc1ccc(c(c1)NCC1=NCCN1)S(=O)(=O)C

>  <CID>  (1) 
9947861.0

>  <ChEMBL ID>  (1) 
nan

>  <InChiKey>  (1) 
VFLQPKLTPYIDEK-UHFFFAOYSA-N

>  <InChi>  (1) 
InChI=1S/C11H14ClN3O2S/c1-18(16,17)10-3-2-8(12)6-9(10)15-7-11-13-4-5-14-11/h2-3,6,15H,4-5,7H2,1H3,(H,13,14)

>  <IUPAC Name>  (1) 
5-chloro-N-(4,5-dihydro-1H-imidazol-2-ylmethyl)-2-methylsulfonylaniline

$$$$
