
     RDKit          3D

 73 75  0  0  0  0  0  0  0  0999 V2000
   -3.2411    4.1869   -0.4093 O   0  0  0  0  0  0  0  0  0  0  0  0
   -2.3125    3.3351   -0.4327 C   0  0  0  0  0  0  0  0  0  0  0  0
   -0.9601    3.8097   -0.7046 C   0  0  0  0  0  0  0  0  0  0  0  0
    0.0214    2.7247   -0.5038 N   0  0  0  0  0  0  0  0  0  0  0  0
    0.0682    2.2258    0.8038 C   0  0  0  0  0  0  0  0  0  0  0  0
   -0.7803    2.8284    1.5699 O   0  0  0  0  0  0  0  0  0  0  0  0
    0.8524    1.1796    1.4827 C   0  0  1  0  0  0  0  0  0  0  0  0
   -0.1281    0.0032    1.6323 C   0  0  0  0  0  0  0  0  0  0  0  0
   -0.0095   -0.9536    2.6826 C   0  0  0  0  0  0  0  0  0  0  0  0
   -1.1286   -1.0714    3.5218 C   0  0  0  0  0  0  0  0  0  0  0  0
   -2.3190   -0.2748    3.3326 C   0  0  0  0  0  0  0  0  0  0  0  0
   -3.6498   -0.9364    3.0472 C   0  0  1  0  0  0  0  0  0  0  0  0
   -4.4174    0.1756    2.4087 N   0  0  0  0  0  0  0  0  0  0  0  0
   -3.9184    0.5737    1.1533 C   0  0  0  0  0  0  0  0  0  0  0  0
   -3.0833   -0.2615    0.6511 O   0  0  0  0  0  0  0  0  0  0  0  0
   -4.1568    1.7349    0.3104 C   0  0  1  0  0  0  0  0  0  0  0  0
   -2.7664    2.0115   -0.2008 N   0  0  0  0  0  0  0  0  0  0  0  0
   -5.0594    1.4680   -0.8678 C   0  0  0  0  0  0  0  0  0  0  0  0
   -4.5632    0.4446   -1.7953 C   0  0  0  0  0  0  0  0  0  0  0  0
   -4.9249   -0.8888   -1.5642 C   0  0  0  0  0  0  0  0  0  0  0  0
   -4.5178   -1.9196   -2.3671 C   0  0  0  0  0  0  0  0  0  0  0  0
   -3.7205   -1.6451   -3.4468 C   0  0  0  0  0  0  0  0  0  0  0  0
   -3.3350   -0.3480   -3.7174 C   0  0  0  0  0  0  0  0  0  0  0  0
   -3.7570    0.6990   -2.8897 C   0  0  0  0  0  0  0  0  0  0  0  0
   -3.5470   -2.1454    2.2888 C   0  0  0  0  0  0  0  0  0  0  0  0
   -4.0905   -2.4551    1.2045 O   0  0  0  0  0  0  0  0  0  0  0  0
   -2.7113   -3.1686    2.8231 O   0  0  0  0  0  0  0  0  0  0  0  0
    1.9847    0.7313    0.6759 N   0  0  0  0  0  0  0  0  0  0  0  0
    3.2145    0.3937    1.3066 C   0  0  0  0  0  0  0  0  0  0  0  0
    3.4019    0.4370    2.5474 O   0  0  0  0  0  0  0  0  0  0  0  0
    4.3845   -0.0483    0.4793 C   0  0  2  0  0  0  0  0  0  0  0  0
    3.9864   -0.5836   -0.8652 C   0  0  0  0  0  0  0  0  0  0  0  0
    5.1958   -1.0105   -1.6544 C   0  0  0  0  0  0  0  0  0  0  0  0
    5.5963   -2.3321   -1.5030 C   0  0  0  0  0  0  0  0  0  0  0  0
    6.6994   -2.7353   -2.2336 C   0  0  0  0  0  0  0  0  0  0  0  0
    7.3831   -1.8619   -3.0849 C   0  0  0  0  0  0  0  0  0  0  0  0
    6.9478   -0.5558   -3.2039 C   0  0  0  0  0  0  0  0  0  0  0  0
    5.8374   -0.1352   -2.4729 C   0  0  0  0  0  0  0  0  0  0  0  0
    8.4895   -2.2901   -3.8040 O   0  0  0  0  0  0  0  0  0  0  0  0
    5.3327   -0.8283    1.2069 N   0  0  0  0  0  0  0  0  0  0  0  0
   -0.9025    4.1713   -1.7501 H   0  0  0  0  0  0  0  0  0  0  0  0
   -0.7432    4.6307    0.0148 H   0  0  0  0  0  0  0  0  0  0  0  0
    0.6258    2.3391   -1.2048 H   0  0  0  0  0  0  0  0  0  0  0  0
    1.2034    1.4987    2.4468 H   0  0  0  0  0  0  0  0  0  0  0  0
   -1.0877    0.4908    1.5160 H   0  0  0  0  0  0  0  0  0  0  0  0
   -0.0164   -0.5832    0.6521 H   0  0  0  0  0  0  0  0  0  0  0  0
    0.8320   -1.5885    2.8944 H   0  0  0  0  0  0  0  0  0  0  0  0
   -1.0706   -1.7891    4.3315 H   0  0  0  0  0  0  0  0  0  0  0  0
   -2.4993    0.2898    4.3723 H   0  0  0  0  0  0  0  0  0  0  0  0
   -2.1875    0.5335    2.6163 H   0  0  0  0  0  0  0  0  0  0  0  0
   -4.1168   -1.1164    4.0586 H   0  0  0  0  0  0  0  0  0  0  0  0
   -5.2183    0.6232    2.7912 H   0  0  0  0  0  0  0  0  0  0  0  0
   -4.4737    2.6172    0.8499 H   0  0  0  0  0  0  0  0  0  0  0  0
   -2.1143    1.2679   -0.4171 H   0  0  0  0  0  0  0  0  0  0  0  0
   -6.0464    1.1764   -0.4334 H   0  0  0  0  0  0  0  0  0  0  0  0
   -5.2399    2.4573   -1.3550 H   0  0  0  0  0  0  0  0  0  0  0  0
   -5.5576   -1.0939   -0.7068 H   0  0  0  0  0  0  0  0  0  0  0  0
   -4.8564   -2.9188   -2.0964 H   0  0  0  0  0  0  0  0  0  0  0  0
   -3.4092   -2.4937   -4.0762 H   0  0  0  0  0  0  0  0  0  0  0  0
   -2.7001   -0.1508   -4.5852 H   0  0  0  0  0  0  0  0  0  0  0  0
   -3.4640    1.7259   -3.0748 H   0  0  0  0  0  0  0  0  0  0  0  0
   -2.7749   -4.1021    2.4795 H   0  0  0  0  0  0  0  0  0  0  0  0
    1.8265    0.6828   -0.3515 H   0  0  0  0  0  0  0  0  0  0  0  0
    4.9470    0.9242    0.2238 H   0  0  0  0  0  0  0  0  0  0  0  0
    3.2903   -1.4243   -0.8207 H   0  0  0  0  0  0  0  0  0  0  0  0
    3.5119    0.2856   -1.4082 H   0  0  0  0  0  0  0  0  0  0  0  0
    5.0903   -3.0277   -0.8573 H   0  0  0  0  0  0  0  0  0  0  0  0
    6.9998   -3.7677   -2.1086 H   0  0  0  0  0  0  0  0  0  0  0  0
    7.4313    0.1718   -3.8478 H   0  0  0  0  0  0  0  0  0  0  0  0
    5.4679    0.8950   -2.5498 H   0  0  0  0  0  0  0  0  0  0  0  0
    9.4068   -1.9636   -3.5529 H   0  0  0  0  0  0  0  0  0  0  0  0
    5.2484   -0.7267    2.2403 H   0  0  0  0  0  0  0  0  0  0  0  0
    6.2992   -0.5479    0.9456 H   0  0  0  0  0  0  0  0  0  0  0  0
  1  2  2  0
  2  3  1  0
  3  4  1  0
  4  5  1  0
  5  6  2  0
  5  7  1  0
  7  8  1  0
  8  9  1  0
  9 10  2  0
 10 11  1  0
 11 12  1  0
 12 13  1  0
 13 14  1  0
 14 15  2  0
 14 16  1  0
 16 17  1  0
 16 18  1  0
 18 19  1  0
 19 20  2  0
 20 21  1  0
 21 22  2  0
 22 23  1  0
 23 24  2  0
 12 25  1  0
 25 26  2  0
 25 27  1  0
  7 28  1  0
 28 29  1  0
 29 30  2  0
 29 31  1  0
 31 32  1  0
 32 33  1  0
 33 34  2  0
 34 35  1  0
 35 36  2  0
 36 37  1  0
 37 38  2  0
 36 39  1  0
 31 40  1  0
 17  2  1  0
 24 19  1  0
 38 33  1  0
  3 41  1  0
  3 42  1  0
  4 43  1  0
  7 44  1  1
  8 45  1  0
  8 46  1  0
  9 47  1  0
 10 48  1  0
 11 49  1  0
 11 50  1  0
 12 51  1  1
 13 52  1  0
 16 53  1  1
 17 54  1  0
 18 55  1  0
 18 56  1  0
 20 57  1  0
 21 58  1  0
 22 59  1  0
 23 60  1  0
 24 61  1  0
 27 62  1  0
 28 63  1  0
 31 64  1  6
 32 65  1  0
 32 66  1  0
 34 67  1  0
 35 68  1  0
 37 69  1  0
 38 70  1  0
 39 71  1  0
 40 72  1  0
 40 73  1  0
M  END
>  <Ligand ID>  (1) 
LIG0005736

>  <Ligand>  (1) 
cis-H-Tyr-c[D-AllylGly-Gly-Phe-D-Allylgly]-OH

>  <SMILES>  (1) 
O=C1CNC(=O)[C@@H](C/C=C\C[C@@H](NC(=O)[C@@H](N1)Cc1ccccc1)C(=O)O)NC(=O)[C@H](Cc1ccc(cc1)O)N

>  <CID>  (1) 
16733485.0

>  <ChEMBL ID>  (1) 
nan

>  <InChiKey>  (1) 
VNZCTJLIVONUDE-HOJIFOFPSA-N

>  <InChi>  (1) 
InChI=1S/C28H33N5O7/c29-20(14-18-10-12-19(34)13-11-18)25(36)32-21-8-4-5-9-22(28(39)40)33-27(38)23(15-17-6-2-1-3-7-17)31-24(35)16-30-26(21)37/h1-7,10-13,20-23,34H,8-9,14-16,29H2,(H,30,37)(H,31,35)(H,32,36)(H,33,38)(H,39,40)/b5-4-/t20-,21+,22+,23-/m0/s1

>  <IUPAC Name>  (1) 
(5S,8R,10Z,13R)-13-[[(2S)-2-amino-3-(4-hydroxyphenyl)propanoyl]amino]-5-benzyl-3,6,14-trioxo-1,4,7-triazacyclotetradec-10-ene-8-carboxylic acid

$$$$
