
     RDKit          3D

 70 74  0  0  0  0  0  0  0  0999 V2000
    3.2506   -1.3181   -1.5666 C   0  0  0  0  0  0  0  0  0  0  0  0
    3.0718   -0.3872   -0.3844 C   0  0  0  0  0  0  0  0  0  0  0  0
    3.4835   -1.1269    0.8350 C   0  0  0  0  0  0  0  0  0  0  0  0
    4.7928   -1.7982    0.8480 C   0  0  0  0  0  0  0  0  0  0  0  0
    5.9424   -1.1627    0.1534 C   0  0  0  0  0  0  0  0  0  0  0  0
    6.5365    0.0333    0.8723 C   0  0  0  0  0  0  0  0  0  0  0  0
    6.0704    1.2672    0.1008 C   0  0  0  0  0  0  0  0  0  0  0  0
    4.5988    1.4686    0.4628 C   0  0  0  0  0  0  0  0  0  0  0  0
    3.7110    0.9414   -0.5887 C   0  0  0  0  0  0  0  0  0  0  0  0
    1.6398   -0.1581   -0.2720 N   0  0  0  0  0  0  0  0  0  0  0  0
    1.0530    0.4324   -1.4170 C   0  0  0  0  0  0  0  0  0  0  0  0
   -0.3818   -0.0455   -1.5187 C   0  0  0  0  0  0  0  0  0  0  0  0
   -1.0240   -0.0910   -0.1557 C   0  0  0  0  0  0  0  0  0  0  0  0
   -0.2474    0.6571    0.9048 C   0  0  0  0  0  0  0  0  0  0  0  0
    1.1862    0.2543    0.9979 C   0  0  0  0  0  0  0  0  0  0  0  0
   -2.3820    0.3462   -0.1574 N   0  0  0  0  0  0  0  0  0  0  0  0
   -3.5006   -0.3149    0.2303 C   0  0  0  0  0  0  0  0  0  0  0  0
   -4.5471    0.4835    0.0532 N   0  0  0  0  0  0  0  0  0  0  0  0
   -4.1529    1.6546   -0.4409 C   0  0  0  0  0  0  0  0  0  0  0  0
   -2.7806    1.5763   -0.5777 C   0  0  0  0  0  0  0  0  0  0  0  0
   -2.1431    2.6890   -1.0790 C   0  0  0  0  0  0  0  0  0  0  0  0
   -2.8364    3.8415   -1.4339 C   0  0  0  0  0  0  0  0  0  0  0  0
   -4.2086    3.8953   -1.2878 C   0  0  0  0  0  0  0  0  0  0  0  0
   -4.8690    2.7896   -0.7864 C   0  0  0  0  0  0  0  0  0  0  0  0
   -3.5644   -1.6845    0.7598 C   0  0  1  0  0  0  0  0  0  0  0  0
   -4.2678   -1.6778    2.1067 C   0  0  0  0  0  0  0  0  0  0  0  0
   -5.6279   -1.0687    2.0064 C   0  0  0  0  0  0  0  0  0  0  0  0
   -6.4174   -1.4671    0.8030 C   0  0  0  0  0  0  0  0  0  0  0  0
   -5.6289   -1.5823   -0.3958 N   0  0  0  0  0  0  0  0  0  0  0  0
   -4.4923   -2.4557   -0.1892 C   0  0  0  0  0  0  0  0  0  0  0  0
    3.8454   -2.2337   -1.2900 H   0  0  0  0  0  0  0  0  0  0  0  0
    3.6728   -0.8190   -2.4610 H   0  0  0  0  0  0  0  0  0  0  0  0
    2.2815   -1.7701   -1.9192 H   0  0  0  0  0  0  0  0  0  0  0  0
    3.2928   -0.5412    1.7835 H   0  0  0  0  0  0  0  0  0  0  0  0
    2.7049   -1.9376    0.9457 H   0  0  0  0  0  0  0  0  0  0  0  0
    4.7340   -2.8580    0.5207 H   0  0  0  0  0  0  0  0  0  0  0  0
    5.1023   -1.8781    1.9325 H   0  0  0  0  0  0  0  0  0  0  0  0
    5.8291   -0.9356   -0.9023 H   0  0  0  0  0  0  0  0  0  0  0  0
    6.7648   -1.9325    0.1941 H   0  0  0  0  0  0  0  0  0  0  0  0
    6.2688    0.0882    1.9369 H   0  0  0  0  0  0  0  0  0  0  0  0
    7.6583    0.0656    0.7588 H   0  0  0  0  0  0  0  0  0  0  0  0
    6.6987    2.1309    0.3207 H   0  0  0  0  0  0  0  0  0  0  0  0
    6.1056    0.9662   -0.9858 H   0  0  0  0  0  0  0  0  0  0  0  0
    4.5037    2.5920    0.5549 H   0  0  0  0  0  0  0  0  0  0  0  0
    4.4567    1.1120    1.4851 H   0  0  0  0  0  0  0  0  0  0  0  0
    2.9760    1.7337   -0.8639 H   0  0  0  0  0  0  0  0  0  0  0  0
    4.3308    0.8483   -1.5288 H   0  0  0  0  0  0  0  0  0  0  0  0
    1.0046    1.5413   -1.3920 H   0  0  0  0  0  0  0  0  0  0  0  0
    1.5975    0.1117   -2.3121 H   0  0  0  0  0  0  0  0  0  0  0  0
   -0.9632    0.5461   -2.2649 H   0  0  0  0  0  0  0  0  0  0  0  0
   -0.3096   -1.0690   -1.9909 H   0  0  0  0  0  0  0  0  0  0  0  0
   -0.9872   -1.1552    0.1569 H   0  0  0  0  0  0  0  0  0  0  0  0
   -0.7589    0.3861    1.8731 H   0  0  0  0  0  0  0  0  0  0  0  0
   -0.3018    1.7404    0.8444 H   0  0  0  0  0  0  0  0  0  0  0  0
    1.7754    1.0698    1.4603 H   0  0  0  0  0  0  0  0  0  0  0  0
    1.2553   -0.6144    1.7161 H   0  0  0  0  0  0  0  0  0  0  0  0
   -1.0904    2.6974   -1.2099 H   0  0  0  0  0  0  0  0  0  0  0  0
   -2.2915    4.7069   -1.8298 H   0  0  0  0  0  0  0  0  0  0  0  0
   -4.7356    4.8119   -1.5731 H   0  0  0  0  0  0  0  0  0  0  0  0
   -5.9359    2.8531   -0.6811 H   0  0  0  0  0  0  0  0  0  0  0  0
   -2.6009   -2.1955    0.8364 H   0  0  0  0  0  0  0  0  0  0  0  0
   -4.3678   -2.6912    2.5231 H   0  0  0  0  0  0  0  0  0  0  0  0
   -3.6615   -1.0619    2.8068 H   0  0  0  0  0  0  0  0  0  0  0  0
   -5.6263    0.0346    2.1254 H   0  0  0  0  0  0  0  0  0  0  0  0
   -6.1993   -1.4342    2.9090 H   0  0  0  0  0  0  0  0  0  0  0  0
   -7.0329   -2.3877    0.9709 H   0  0  0  0  0  0  0  0  0  0  0  0
   -7.1748   -0.6513    0.6244 H   0  0  0  0  0  0  0  0  0  0  0  0
   -6.2348   -1.8304   -1.1827 H   0  0  0  0  0  0  0  0  0  0  0  0
   -4.8600   -3.3829    0.2709 H   0  0  0  0  0  0  0  0  0  0  0  0
   -3.9910   -2.6483   -1.1424 H   0  0  0  0  0  0  0  0  0  0  0  0
  1  2  1  0
  2  3  1  0
  3  4  1  0
  4  5  1  0
  5  6  1  0
  6  7  1  0
  7  8  1  0
  8  9  1  0
  2 10  1  0
 10 11  1  0
 11 12  1  0
 12 13  1  0
 13 14  1  0
 14 15  1  0
 13 16  1  0
 16 17  1  0
 17 18  2  0
 18 19  1  0
 19 20  2  0
 20 21  1  0
 21 22  2  0
 22 23  1  0
 23 24  2  0
 17 25  1  0
 25 26  1  0
 26 27  1  0
 27 28  1  0
 28 29  1  0
 29 30  1  0
  9  2  1  0
 15 10  1  0
 20 16  1  0
 30 25  1  0
 24 19  1  0
  1 31  1  0
  1 32  1  0
  1 33  1  0
  3 34  1  0
  3 35  1  0
  4 36  1  0
  4 37  1  0
  5 38  1  0
  5 39  1  0
  6 40  1  0
  6 41  1  0
  7 42  1  0
  7 43  1  0
  8 44  1  0
  8 45  1  0
  9 46  1  0
  9 47  1  0
 11 48  1  0
 11 49  1  0
 12 50  1  0
 12 51  1  0
 13 52  1  0
 14 53  1  0
 14 54  1  0
 15 55  1  0
 15 56  1  0
 21 57  1  0
 22 58  1  0
 23 59  1  0
 24 60  1  0
 25 61  1  1
 26 62  1  0
 26 63  1  0
 27 64  1  0
 27 65  1  0
 28 66  1  0
 28 67  1  0
 29 68  1  0
 30 69  1  0
 30 70  1  0
M  END
>  <Ligand ID>  (1) 
LIG0001665

>  <Ligand>  (1) 
CHEMBL481366

>  <SMILES>  (1) 
CC1(CCCCCCC1)N1CCC(CC1)n1c(nc2c1cccc2)[C@H]1CCCNC1

>  <CID>  (1) 
25208097.0

>  <ChEMBL ID>  (1) 
nan

>  <InChiKey>  (1) 
CYYNMPPFEJPBJD-NRFANRHFSA-N

>  <InChi>  (1) 
InChI=1S/C26H40N4/c1-26(15-7-3-2-4-8-16-26)29-18-13-22(14-19-29)30-24-12-6-5-11-23(24)28-25(30)21-10-9-17-27-20-21/h5-6,11-12,21-22,27H,2-4,7-10,13-20H2,1H3/t21-/m0/s1

>  <IUPAC Name>  (1) 
1-[1-(1-methylcyclooctyl)piperidin-4-yl]-2-[(3S)-piperidin-3-yl]benzimidazole

$$$$
