
     RDKit          3D

 43 43  0  0  0  0  0  0  0  0999 V2000
   -0.3548    4.6757    0.4059 O   0  0  0  0  0  0  0  0  0  0  0  0
    0.0224    3.4872    0.3674 C   0  0  0  0  0  0  0  0  0  0  0  0
   -0.7906    2.4596   -0.0694 O   0  0  0  0  0  0  0  0  0  0  0  0
   -2.1035    2.5995   -0.5510 C   0  0  0  0  0  0  0  0  0  0  0  0
   -2.6017    1.2709   -1.0095 C   0  0  0  0  0  0  0  0  0  0  0  0
   -2.8557    0.3709    0.1770 C   0  0  0  0  0  0  0  0  0  0  0  0
   -3.2431   -0.9899   -0.2609 C   0  0  0  0  0  0  0  0  0  0  0  0
   -2.0434   -1.7812   -0.7671 C   0  0  0  0  0  0  0  0  0  0  0  0
   -1.2194   -2.0922    0.4161 C   0  0  0  0  0  0  0  0  0  0  0  0
   -0.0540   -2.9670    0.3627 C   0  0  0  0  0  0  0  0  0  0  0  0
    1.1564   -2.6142   -0.4141 C   0  0  0  0  0  0  0  0  0  0  0  0
    1.5926   -1.1698   -0.0563 C   0  0  0  0  0  0  0  0  0  0  0  0
    3.0269   -0.9210   -0.2612 C   0  0  0  0  0  0  0  0  0  0  0  0
    3.5799    0.4295   -0.0642 C   0  0  0  0  0  0  0  0  0  0  0  0
    3.0340    1.2242    1.1131 C   0  0  0  0  0  0  0  0  0  0  0  0
    1.6858    1.7598    0.7490 C   0  0  0  0  0  0  0  0  0  0  0  0
    1.3979    3.0769    0.7728 C   0  0  0  0  0  0  0  0  0  0  0  0
   -2.0856    3.3180   -1.3933 H   0  0  0  0  0  0  0  0  0  0  0  0
   -2.7460    2.9862    0.2875 H   0  0  0  0  0  0  0  0  0  0  0  0
   -1.8112    0.8254   -1.6629 H   0  0  0  0  0  0  0  0  0  0  0  0
   -3.5311    1.3632   -1.6430 H   0  0  0  0  0  0  0  0  0  0  0  0
   -3.7279    0.8224    0.7521 H   0  0  0  0  0  0  0  0  0  0  0  0
   -1.9684    0.4265    0.8267 H   0  0  0  0  0  0  0  0  0  0  0  0
   -3.6205   -1.5618    0.6390 H   0  0  0  0  0  0  0  0  0  0  0  0
   -4.0721   -1.0000   -0.9962 H   0  0  0  0  0  0  0  0  0  0  0  0
   -2.4618   -2.6778   -1.2769 H   0  0  0  0  0  0  0  0  0  0  0  0
   -1.5387   -1.1713   -1.5194 H   0  0  0  0  0  0  0  0  0  0  0  0
   -0.8149   -1.0826    0.7896 H   0  0  0  0  0  0  0  0  0  0  0  0
   -1.9393   -2.3686    1.2516 H   0  0  0  0  0  0  0  0  0  0  0  0
    0.3306   -3.2161    1.4127 H   0  0  0  0  0  0  0  0  0  0  0  0
   -0.4198   -4.0019    0.0382 H   0  0  0  0  0  0  0  0  0  0  0  0
    1.9884   -3.2757   -0.0994 H   0  0  0  0  0  0  0  0  0  0  0  0
    1.0711   -2.7452   -1.5019 H   0  0  0  0  0  0  0  0  0  0  0  0
    1.2505   -1.0348    0.9606 H   0  0  0  0  0  0  0  0  0  0  0  0
    1.0214   -0.5841   -0.8461 H   0  0  0  0  0  0  0  0  0  0  0  0
    3.5798   -1.6818    0.3769 H   0  0  0  0  0  0  0  0  0  0  0  0
    3.3239   -1.2437   -1.3073 H   0  0  0  0  0  0  0  0  0  0  0  0
    4.6742    0.3185    0.1789 H   0  0  0  0  0  0  0  0  0  0  0  0
    3.5421    1.0863   -0.9618 H   0  0  0  0  0  0  0  0  0  0  0  0
    3.6938    2.0997    1.2403 H   0  0  0  0  0  0  0  0  0  0  0  0
    3.0564    0.6170    2.0091 H   0  0  0  0  0  0  0  0  0  0  0  0
    0.8503    1.1462    0.4631 H   0  0  0  0  0  0  0  0  0  0  0  0
    2.1251    3.8174    1.0717 H   0  0  0  0  0  0  0  0  0  0  0  0
  1  2  2  0
  2  3  1  0
  3  4  1  0
  4  5  1  0
  5  6  1  0
  6  7  1  0
  7  8  1  0
  8  9  1  0
  9 10  1  0
 10 11  1  0
 11 12  1  0
 12 13  1  0
 13 14  1  0
 14 15  1  0
 15 16  1  0
 16 17  2  0
 17  2  1  0
  4 18  1  0
  4 19  1  0
  5 20  1  0
  5 21  1  0
  6 22  1  0
  6 23  1  0
  7 24  1  0
  7 25  1  0
  8 26  1  0
  8 27  1  0
  9 28  1  0
  9 29  1  0
 10 30  1  0
 10 31  1  0
 11 32  1  0
 11 33  1  0
 12 34  1  0
 12 35  1  0
 13 36  1  0
 13 37  1  0
 14 38  1  0
 14 39  1  0
 15 40  1  0
 15 41  1  0
 16 42  1  0
 17 43  1  0
M  END
>  <Ligand ID>  (1) 
LIG0000354

>  <Ligand>  (1) 
Habanolide

>  <SMILES>  (1) 
O=C1OCCCCCCCCCCCC/C=C/1

>  <CID>  (1) 
53411144.0

>  <ChEMBL ID>  (1) 
nan

>  <InChiKey>  (1) 
KHLFMZDGADSQGR-UHFFFAOYSA-N

>  <InChi>  (1) 
InChI=1S/C15H26O2/c16-15-13-11-9-7-5-3-1-2-4-6-8-10-12-14-17-15/h11,13H,1-10,12,14H2

>  <IUPAC Name>  (1) 
1-oxacyclohexadec-3-en-2-one

$$$$
