
     RDKit          3D

 64 68  0  0  0  0  0  0  0  0999 V2000
   11.6105   -0.3655   -0.5734 Br  0  0  0  0  0  0  0  0  0  0  0  0
    9.7302   -0.3855   -0.2190 C   0  0  0  0  0  0  0  0  0  0  0  0
    9.2581   -1.4195    0.5682 C   0  0  0  0  0  0  0  0  0  0  0  0
    7.9055   -1.4506    0.8345 C   0  0  0  0  0  0  0  0  0  0  0  0
    7.0398   -0.4764    0.3303 C   0  0  0  0  0  0  0  0  0  0  0  0
    7.5109    0.5528   -0.4534 C   0  0  0  0  0  0  0  0  0  0  0  0
    8.8799    0.5899   -0.7268 C   0  0  0  0  0  0  0  0  0  0  0  0
    5.5807   -0.6044    0.6816 C   0  0  0  0  0  0  0  0  0  0  0  0
    4.9592   -1.4398   -0.3983 C   0  0  0  0  0  0  0  0  0  0  0  0
    3.5427   -1.6665   -0.2174 N   0  0  0  0  0  0  0  0  0  0  0  0
    2.6253   -0.5873   -0.1685 C   0  0  0  0  0  0  0  0  0  0  0  0
    3.1339    0.5776   -0.2941 O   0  0  0  0  0  0  0  0  0  0  0  0
    1.1900   -0.7496    0.0114 C   0  0  0  0  0  0  0  0  0  0  0  0
    0.5699   -1.9714    0.1536 C   0  0  0  0  0  0  0  0  0  0  0  0
   -0.7930   -2.1076    0.3233 C   0  0  0  0  0  0  0  0  0  0  0  0
   -1.5730   -0.9714    0.3524 C   0  0  0  0  0  0  0  0  0  0  0  0
   -0.9923    0.2677    0.2139 C   0  0  0  0  0  0  0  0  0  0  0  0
    0.3898    0.3723    0.0436 C   0  0  0  0  0  0  0  0  0  0  0  0
   -1.8351    1.5017    0.2449 C   0  0  1  0  0  0  0  0  0  0  0  0
   -1.0260    2.6180    0.9073 C   0  0  0  0  0  0  0  0  0  0  0  0
   -2.2494    1.8642   -1.1369 C   0  0  0  0  0  0  0  0  0  0  0  0
   -3.6230    1.4685   -1.5305 C   0  0  0  0  0  0  0  0  0  0  0  0
   -4.2785    0.4793   -0.7886 N   0  0  0  0  0  0  0  0  0  0  0  0
   -3.7956    0.1322    0.4890 C   0  0  0  0  0  0  0  0  0  0  0  0
   -3.0377   -1.1701    0.5377 C   0  0  0  0  0  0  0  0  0  0  0  0
   -2.9826    1.1875    1.1777 C   0  0  2  0  0  0  0  0  0  0  0  0
   -3.7672    2.4184    1.5134 C   0  0  0  0  0  0  0  0  0  0  0  0
   -5.7198    0.6353   -0.8558 C   0  0  0  0  0  0  0  0  0  0  0  0
   -6.4621   -0.3945   -0.0816 C   0  0  0  0  0  0  0  0  0  0  0  0
   -6.3706   -1.8287   -0.3395 C   0  0  0  0  0  0  0  0  0  0  0  0
   -7.5981   -1.1120   -0.8383 C   0  0  0  0  0  0  0  0  0  0  0  0
    9.8980   -2.1926    0.9768 H   0  0  0  0  0  0  0  0  0  0  0  0
    7.5124   -2.2538    1.4507 H   0  0  0  0  0  0  0  0  0  0  0  0
    6.8356    1.3032   -0.8403 H   0  0  0  0  0  0  0  0  0  0  0  0
    9.3067    1.3679   -1.3320 H   0  0  0  0  0  0  0  0  0  0  0  0
    5.2069    0.4164    0.7637 H   0  0  0  0  0  0  0  0  0  0  0  0
    5.5143   -1.1214    1.6603 H   0  0  0  0  0  0  0  0  0  0  0  0
    5.1555   -0.9525   -1.3905 H   0  0  0  0  0  0  0  0  0  0  0  0
    5.4711   -2.4180   -0.3943 H   0  0  0  0  0  0  0  0  0  0  0  0
    3.1601   -2.6321   -0.1182 H   0  0  0  0  0  0  0  0  0  0  0  0
    1.1600   -2.8760    0.1341 H   0  0  0  0  0  0  0  0  0  0  0  0
   -1.2199   -3.1008    0.4297 H   0  0  0  0  0  0  0  0  0  0  0  0
    0.8705    1.3504   -0.0683 H   0  0  0  0  0  0  0  0  0  0  0  0
   -0.2502    3.0238    0.2562 H   0  0  0  0  0  0  0  0  0  0  0  0
   -0.5580    2.2271    1.8346 H   0  0  0  0  0  0  0  0  0  0  0  0
   -1.6895    3.4655    1.1824 H   0  0  0  0  0  0  0  0  0  0  0  0
   -1.4876    1.4462   -1.8343 H   0  0  0  0  0  0  0  0  0  0  0  0
   -2.1037    2.9817   -1.2312 H   0  0  0  0  0  0  0  0  0  0  0  0
   -4.2575    2.3940   -1.5465 H   0  0  0  0  0  0  0  0  0  0  0  0
   -3.5987    1.1508   -2.6020 H   0  0  0  0  0  0  0  0  0  0  0  0
   -4.6934   -0.0282    1.1529 H   0  0  0  0  0  0  0  0  0  0  0  0
   -3.3539   -1.8426   -0.2844 H   0  0  0  0  0  0  0  0  0  0  0  0
   -3.1593   -1.7153    1.5068 H   0  0  0  0  0  0  0  0  0  0  0  0
   -2.5456    0.7376    2.0957 H   0  0  0  0  0  0  0  0  0  0  0  0
   -4.7954    2.1773    1.8167 H   0  0  0  0  0  0  0  0  0  0  0  0
   -3.7134    3.1392    0.6757 H   0  0  0  0  0  0  0  0  0  0  0  0
   -3.2853    2.9095    2.3862 H   0  0  0  0  0  0  0  0  0  0  0  0
   -5.9762    0.5400   -1.9310 H   0  0  0  0  0  0  0  0  0  0  0  0
   -6.0023    1.6690   -0.5757 H   0  0  0  0  0  0  0  0  0  0  0  0
   -6.7550   -0.0533    0.9415 H   0  0  0  0  0  0  0  0  0  0  0  0
   -6.5749   -2.5013    0.5424 H   0  0  0  0  0  0  0  0  0  0  0  0
   -5.6857   -2.2922   -1.0551 H   0  0  0  0  0  0  0  0  0  0  0  0
   -7.6456   -1.0321   -1.9269 H   0  0  0  0  0  0  0  0  0  0  0  0
   -8.5622   -1.2520   -0.3058 H   0  0  0  0  0  0  0  0  0  0  0  0
  1  2  1  0
  2  3  2  0
  3  4  1  0
  4  5  2  0
  5  6  1  0
  6  7  2  0
  5  8  1  0
  8  9  1  0
  9 10  1  0
 10 11  1  0
 11 12  2  0
 11 13  1  0
 13 14  2  0
 14 15  1  0
 15 16  2  0
 16 17  1  0
 17 18  2  0
 17 19  1  0
 19 20  1  1
 19 21  1  0
 21 22  1  0
 22 23  1  0
 23 24  1  0
 24 25  1  0
 24 26  1  0
 26 27  1  0
 23 28  1  0
 28 29  1  0
 29 30  1  0
 30 31  1  0
  7  2  1  0
 18 13  1  0
 26 19  1  0
 31 29  1  0
 25 16  1  0
  3 32  1  0
  4 33  1  0
  6 34  1  0
  7 35  1  0
  8 36  1  0
  8 37  1  0
  9 38  1  0
  9 39  1  0
 10 40  1  0
 14 41  1  0
 15 42  1  0
 18 43  1  0
 20 44  1  0
 20 45  1  0
 20 46  1  0
 21 47  1  0
 21 48  1  0
 22 49  1  0
 22 50  1  0
 24 51  1  0
 25 52  1  0
 25 53  1  0
 26 54  1  1
 27 55  1  0
 27 56  1  0
 27 57  1  0
 28 58  1  0
 28 59  1  0
 29 60  1  0
 30 61  1  0
 30 62  1  0
 31 63  1  0
 31 64  1  0
M  END
>  <Ligand ID>  (1) 
LIG0002293

>  <Ligand>  (1) 
CHEMBL249567

>  <SMILES>  (1) 
Brc1ccc(cc1)CCNC(=O)c1ccc2c(c1)[C@@]1(C)CCN(C(C2)[C@@H]1C)CC1CC1

>  <CID>  (1) 
16048866.0

>  <ChEMBL ID>  (1) 
nan

>  <InChiKey>  (1) 
GJUSUJLGEJSZEC-CGOBKJRRSA-N

>  <InChi>  (1) 
InChI=1S/C27H33BrN2O/c1-18-25-16-21-7-8-22(26(31)29-13-11-19-5-9-23(28)10-6-19)15-24(21)27(18,2)12-14-30(25)17-20-3-4-20/h5-10,15,18,20,25H,3-4,11-14,16-17H2,1-2H3,(H,29,31)/t18-,25?,27-/m0/s1

>  <IUPAC Name>  (1) 
(1S,13R)-N-[2-(4-bromophenyl)ethyl]-10-(cyclopropylmethyl)-1,13-dimethyl-10-azatricyclo[7.3.1.02,7]trideca-2(7),3,5-triene-4-carboxamide

$$$$
