
     RDKit          3D

138140  0  0  0  0  0  0  0  0999 V2000
   -8.7670   -2.6603    1.1259 C   0  0  0  0  0  0  0  0  0  0  0  0
   -8.2399   -1.7667    0.0090 C   0  0  0  0  0  0  0  0  0  0  0  0
   -6.7825   -2.0587   -0.2717 C   0  0  1  0  0  0  0  0  0  0  0  0
   -5.9799   -1.8132    0.9436 C   0  0  2  0  0  0  0  0  0  0  0  0
   -6.0058   -0.4742    1.4906 N   0  0  0  0  0  0  0  0  0  0  0  0
   -5.5742    0.6320    0.6845 C   0  0  0  0  0  0  0  0  0  0  0  0
   -5.3133    0.3522   -0.4934 O   0  0  0  0  0  0  0  0  0  0  0  0
   -5.4347    2.0195    1.1904 C   0  0  1  0  0  0  0  0  0  0  0  0
   -4.8495    2.8595    0.1279 N   0  0  0  0  0  0  0  0  0  0  0  0
   -3.4308    2.9907    0.0150 C   0  0  0  0  0  0  0  0  0  0  0  0
   -2.7640    2.3672    0.8439 O   0  0  0  0  0  0  0  0  0  0  0  0
   -2.7555    3.8084   -1.0160 C   0  0  0  0  0  0  0  0  0  0  0  0
   -1.2276    3.6490   -0.8748 C   0  0  0  0  0  0  0  0  0  0  0  0
   -0.5579    4.5316   -1.8845 C   0  0  0  0  0  0  0  0  0  0  0  0
    1.1811    4.6256   -1.9128 S   0  0  0  0  0  0  0  0  0  0  0  0
    2.1817    3.3325   -2.4243 C   0  0  0  0  0  0  0  0  0  0  0  0
    2.4656    2.0925   -1.6367 C   0  0  2  0  0  0  0  0  0  0  0  0
    1.4208    1.1481   -1.4304 N   0  0  0  0  0  0  0  0  0  0  0  0
    1.2174    0.0785   -2.3915 C   0  0  0  0  0  0  0  0  0  0  0  0
    1.9199    0.1681   -3.4089 O   0  0  0  0  0  0  0  0  0  0  0  0
    0.2882   -1.0409   -2.2736 C   0  0  1  0  0  0  0  0  0  0  0  0
   -0.2865   -1.2135   -0.9738 N   0  0  0  0  0  0  0  0  0  0  0  0
   -1.6278   -1.1227   -0.5498 C   0  0  0  0  0  0  0  0  0  0  0  0
   -2.4643   -0.6882   -1.3283 O   0  0  0  0  0  0  0  0  0  0  0  0
   -2.0463   -1.5324    0.8179 C   0  0  1  0  0  0  0  0  0  0  0  0
   -3.4519   -1.3058    1.0377 N   0  0  0  0  0  0  0  0  0  0  0  0
   -4.5245   -2.1479    0.6848 C   0  0  0  0  0  0  0  0  0  0  0  0
   -4.2732   -3.2158    0.1385 O   0  0  0  0  0  0  0  0  0  0  0  0
   -1.6295   -2.9868    1.0253 C   0  0  0  0  0  0  0  0  0  0  0  0
   -1.9923   -3.4610    2.3850 C   0  0  0  0  0  0  0  0  0  0  0  0
   -1.5495   -4.8969    2.4777 C   0  0  0  0  0  0  0  0  0  0  0  0
   -1.1146   -5.5307    1.4870 O   0  0  0  0  0  0  0  0  0  0  0  0
   -1.6656   -5.4764    3.7856 N   0  0  0  0  0  0  0  0  0  0  0  0
   -0.7910   -0.9261   -3.3836 C   0  0  0  0  0  0  0  0  0  0  0  0
   -1.6684   -2.1177   -3.3277 C   0  0  0  0  0  0  0  0  0  0  0  0
   -2.7491   -2.1677   -4.0087 O   0  0  0  0  0  0  0  0  0  0  0  0
   -1.3820   -3.2725   -2.5351 N   0  0  0  0  0  0  0  0  0  0  0  0
    3.4062    2.3512   -0.5370 C   0  0  0  0  0  0  0  0  0  0  0  0
    4.2002    3.3712   -0.8109 O   0  0  0  0  0  0  0  0  0  0  0  0
    3.6367    1.7684    0.7008 N   0  0  0  0  0  0  0  0  0  0  0  0
    3.0324    0.6229    1.3161 C   0  0  0  0  0  0  0  0  0  0  0  0
    3.6252   -0.6623    1.1042 C   0  0  0  0  0  0  0  0  0  0  0  0
    4.5153   -1.3256    1.8754 C   0  0  0  0  0  0  0  0  0  0  0  0
    4.9616   -2.5295    1.5087 C   0  0  0  0  0  0  0  0  0  0  0  0
    4.4723   -3.0539    0.3159 C   0  0  0  0  0  0  0  0  0  0  0  0
    3.3257   -1.7750   -0.3107 S   0  0  0  0  0  0  0  0  0  0  0  0
    4.5964    2.4992    1.5660 C   0  0  0  0  0  0  0  0  0  0  0  0
    5.9696    2.1052    1.2002 C   0  0  0  0  0  0  0  0  0  0  0  0
    6.8714    2.7217    1.8947 O   0  0  0  0  0  0  0  0  0  0  0  0
    6.3633    1.1891    0.2304 N   0  0  0  0  0  0  0  0  0  0  0  0
    7.7227    0.8261   -0.1679 C   0  0  2  0  0  0  0  0  0  0  0  0
    7.6811   -0.6322   -0.3059 C   0  0  0  0  0  0  0  0  0  0  0  0
    6.7274   -1.0916   -1.0443 O   0  0  0  0  0  0  0  0  0  0  0  0
    8.5227   -1.5978    0.2590 N   0  0  0  0  0  0  0  0  0  0  0  0
    8.4023   -3.0370    0.0411 C   0  0  0  0  0  0  0  0  0  0  0  0
    8.5638   -3.4105   -1.3815 C   0  0  0  0  0  0  0  0  0  0  0  0
    8.4641   -4.6513   -1.6478 O   0  0  0  0  0  0  0  0  0  0  0  0
    8.8189   -2.4495   -2.4174 N   0  0  0  0  0  0  0  0  0  0  0  0
    8.7550    1.3354    0.7715 C   0  0  0  0  0  0  0  0  0  0  0  0
   10.1946    1.0799    0.3255 C   0  0  0  0  0  0  0  0  0  0  0  0
   11.1591    1.6331    1.3421 C   0  0  0  0  0  0  0  0  0  0  0  0
   10.4017    1.9360   -0.9594 C   0  0  0  0  0  0  0  0  0  0  0  0
   -6.5232    2.6073    1.9544 C   0  0  0  0  0  0  0  0  0  0  0  0
   -7.8463    2.7517    1.3649 C   0  0  0  0  0  0  0  0  0  0  0  0
   -8.8388    1.8063    1.4886 C   0  0  0  0  0  0  0  0  0  0  0  0
  -10.0980    1.9412    0.9389 C   0  0  0  0  0  0  0  0  0  0  0  0
  -10.3570    3.0901    0.2313 C   0  0  0  0  0  0  0  0  0  0  0  0
   -9.3986    4.0689    0.0767 C   0  0  0  0  0  0  0  0  0  0  0  0
   -8.1734    3.8939    0.6351 C   0  0  0  0  0  0  0  0  0  0  0  0
  -11.6424    3.2455   -0.3373 O   0  0  0  0  0  0  0  0  0  0  0  0
   -6.7440   -3.5726   -0.5793 C   0  0  0  0  0  0  0  0  0  0  0  0
   -8.2763   -2.4379    2.1005 H   0  0  0  0  0  0  0  0  0  0  0  0
   -8.7708   -3.7153    0.8412 H   0  0  0  0  0  0  0  0  0  0  0  0
   -9.8510   -2.3726    1.2581 H   0  0  0  0  0  0  0  0  0  0  0  0
   -8.7849   -2.1086   -0.9208 H   0  0  0  0  0  0  0  0  0  0  0  0
   -8.4373   -0.7175    0.2291 H   0  0  0  0  0  0  0  0  0  0  0  0
   -6.4857   -1.4895   -1.1543 H   0  0  0  0  0  0  0  0  0  0  0  0
   -6.2592   -2.4920    1.7884 H   0  0  0  0  0  0  0  0  0  0  0  0
   -6.3148   -0.2106    2.4290 H   0  0  0  0  0  0  0  0  0  0  0  0
   -4.5455    1.9689    1.9325 H   0  0  0  0  0  0  0  0  0  0  0  0
   -5.3896    3.3752   -0.5597 H   0  0  0  0  0  0  0  0  0  0  0  0
   -2.9424    4.8980   -0.7860 H   0  0  0  0  0  0  0  0  0  0  0  0
   -3.0122    3.5824   -2.0468 H   0  0  0  0  0  0  0  0  0  0  0  0
   -0.9777    3.9113    0.1678 H   0  0  0  0  0  0  0  0  0  0  0  0
   -0.9277    2.6262   -1.0710 H   0  0  0  0  0  0  0  0  0  0  0  0
   -1.0406    4.4008   -2.9029 H   0  0  0  0  0  0  0  0  0  0  0  0
   -0.9508    5.5914   -1.6249 H   0  0  0  0  0  0  0  0  0  0  0  0
    1.9059    2.9334   -3.4727 H   0  0  0  0  0  0  0  0  0  0  0  0
    3.2397    3.7320   -2.6733 H   0  0  0  0  0  0  0  0  0  0  0  0
    3.1656    1.5221   -2.4097 H   0  0  0  0  0  0  0  0  0  0  0  0
    0.7322    1.1085   -0.6741 H   0  0  0  0  0  0  0  0  0  0  0  0
    0.7804   -1.9977   -2.5991 H   0  0  0  0  0  0  0  0  0  0  0  0
    0.3775   -1.4402   -0.2021 H   0  0  0  0  0  0  0  0  0  0  0  0
   -1.4836   -1.0025    1.6385 H   0  0  0  0  0  0  0  0  0  0  0  0
   -3.7141   -0.4422    1.5336 H   0  0  0  0  0  0  0  0  0  0  0  0
   -0.5209   -2.9707    0.8927 H   0  0  0  0  0  0  0  0  0  0  0  0
   -2.0555   -3.6007    0.2467 H   0  0  0  0  0  0  0  0  0  0  0  0
   -3.0782   -3.4324    2.5255 H   0  0  0  0  0  0  0  0  0  0  0  0
   -1.4438   -2.8994    3.1788 H   0  0  0  0  0  0  0  0  0  0  0  0
   -1.9403   -6.4698    3.9447 H   0  0  0  0  0  0  0  0  0  0  0  0
   -1.4767   -4.9211    4.6542 H   0  0  0  0  0  0  0  0  0  0  0  0
   -0.2355   -0.9846   -4.3435 H   0  0  0  0  0  0  0  0  0  0  0  0
   -1.3146    0.0262   -3.2582 H   0  0  0  0  0  0  0  0  0  0  0  0
   -2.1883   -3.8228   -2.1210 H   0  0  0  0  0  0  0  0  0  0  0  0
   -0.4165   -3.6092   -2.3347 H   0  0  0  0  0  0  0  0  0  0  0  0
    1.9656    0.5803    1.0470 H   0  0  0  0  0  0  0  0  0  0  0  0
    2.9834    0.7805    2.4496 H   0  0  0  0  0  0  0  0  0  0  0  0
    4.8738   -0.8508    2.8332 H   0  0  0  0  0  0  0  0  0  0  0  0
    5.6872   -3.1349    2.0855 H   0  0  0  0  0  0  0  0  0  0  0  0
    4.6729   -4.0007   -0.1952 H   0  0  0  0  0  0  0  0  0  0  0  0
    4.4069    2.2649    2.6450 H   0  0  0  0  0  0  0  0  0  0  0  0
    4.4655    3.5829    1.4343 H   0  0  0  0  0  0  0  0  0  0  0  0
    5.6054    0.6990   -0.3119 H   0  0  0  0  0  0  0  0  0  0  0  0
    7.8564    1.3823   -1.1583 H   0  0  0  0  0  0  0  0  0  0  0  0
    9.2671   -1.3171    0.9226 H   0  0  0  0  0  0  0  0  0  0  0  0
    9.2103   -3.5805    0.6049 H   0  0  0  0  0  0  0  0  0  0  0  0
    7.4554   -3.4155    0.4655 H   0  0  0  0  0  0  0  0  0  0  0  0
    9.4076   -1.6266   -2.1846 H   0  0  0  0  0  0  0  0  0  0  0  0
    8.3892   -2.6441   -3.3432 H   0  0  0  0  0  0  0  0  0  0  0  0
    8.6521    0.9352    1.7917 H   0  0  0  0  0  0  0  0  0  0  0  0
    8.6772    2.4805    0.7866 H   0  0  0  0  0  0  0  0  0  0  0  0
   10.4259    0.0935    0.0085 H   0  0  0  0  0  0  0  0  0  0  0  0
   12.0337    2.1023    0.8237 H   0  0  0  0  0  0  0  0  0  0  0  0
   11.5267    0.8651    2.0483 H   0  0  0  0  0  0  0  0  0  0  0  0
   10.6846    2.4380    1.9363 H   0  0  0  0  0  0  0  0  0  0  0  0
   10.1446    2.9871   -0.7415 H   0  0  0  0  0  0  0  0  0  0  0  0
    9.8131    1.4623   -1.7567 H   0  0  0  0  0  0  0  0  0  0  0  0
   11.4721    1.8688   -1.2102 H   0  0  0  0  0  0  0  0  0  0  0  0
   -6.6057    2.0276    2.9343 H   0  0  0  0  0  0  0  0  0  0  0  0
   -6.1439    3.6122    2.3405 H   0  0  0  0  0  0  0  0  0  0  0  0
   -8.6237    0.8876    2.0566 H   0  0  0  0  0  0  0  0  0  0  0  0
  -10.8306    1.1459    1.0870 H   0  0  0  0  0  0  0  0  0  0  0  0
   -9.6486    4.9744   -0.4967 H   0  0  0  0  0  0  0  0  0  0  0  0
   -7.4201    4.6622    0.5134 H   0  0  0  0  0  0  0  0  0  0  0  0
  -12.0324    4.1855   -0.3168 H   0  0  0  0  0  0  0  0  0  0  0  0
   -5.9711   -3.7810   -1.3636 H   0  0  0  0  0  0  0  0  0  0  0  0
   -7.7099   -3.8928   -1.0197 H   0  0  0  0  0  0  0  0  0  0  0  0
   -6.6014   -4.1479    0.3531 H   0  0  0  0  0  0  0  0  0  0  0  0
  1  2  1  0
  2  3  1  0
  3  4  1  0
  4  5  1  0
  5  6  1  0
  6  7  2  0
  6  8  1  0
  8  9  1  0
  9 10  1  0
 10 11  2  0
 10 12  1  0
 12 13  1  0
 13 14  1  0
 14 15  1  0
 15 16  1  0
 16 17  1  0
 17 18  1  0
 18 19  1  0
 19 20  2  0
 19 21  1  0
 21 22  1  0
 22 23  1  0
 23 24  2  0
 23 25  1  0
 25 26  1  0
 26 27  1  0
 27 28  2  0
 25 29  1  0
 29 30  1  0
 30 31  1  0
 31 32  2  0
 31 33  1  0
 21 34  1  0
 34 35  1  0
 35 36  2  0
 35 37  1  0
 17 38  1  0
 38 39  2  0
 38 40  1  0
 40 41  1  0
 41 42  1  0
 42 43  2  0
 43 44  1  0
 44 45  2  0
 45 46  1  0
 40 47  1  0
 47 48  1  0
 48 49  2  0
 48 50  1  0
 50 51  1  0
 51 52  1  0
 52 53  2  0
 52 54  1  0
 54 55  1  0
 55 56  1  0
 56 57  2  0
 56 58  1  0
 51 59  1  0
 59 60  1  0
 60 61  1  0
 60 62  1  0
  8 63  1  0
 63 64  1  0
 64 65  2  0
 65 66  1  0
 66 67  2  0
 67 68  1  0
 68 69  2  0
 67 70  1  0
  3 71  1  0
 27  4  1  0
 46 42  1  0
 69 64  1  0
  1 72  1  0
  1 73  1  0
  1 74  1  0
  2 75  1  0
  2 76  1  0
  3 77  1  6
  4 78  1  1
  5 79  1  0
  8 80  1  1
  9 81  1  0
 12 82  1  0
 12 83  1  0
 13 84  1  0
 13 85  1  0
 14 86  1  0
 14 87  1  0
 16 88  1  0
 16 89  1  0
 17 90  1  6
 18 91  1  0
 21 92  1  6
 22 93  1  0
 25 94  1  1
 26 95  1  0
 29 96  1  0
 29 97  1  0
 30 98  1  0
 30 99  1  0
 33100  1  0
 33101  1  0
 34102  1  0
 34103  1  0
 37104  1  0
 37105  1  0
 41106  1  0
 41107  1  0
 43108  1  0
 44109  1  0
 45110  1  0
 47111  1  0
 47112  1  0
 50113  1  0
 51114  1  6
 54115  1  0
 55116  1  0
 55117  1  0
 58118  1  0
 58119  1  0
 59120  1  0
 59121  1  0
 60122  1  0
 61123  1  0
 61124  1  0
 61125  1  0
 62126  1  0
 62127  1  0
 62128  1  0
 63129  1  0
 63130  1  0
 65131  1  0
 66132  1  0
 68133  1  0
 69134  1  0
 70135  1  0
 71136  1  0
 71137  1  0
 71138  1  0
M  END
>  <Ligand ID>  (1) 
LIG0001571

>  <Ligand>  (1) 
CHEMBL3354600

>  <SMILES>  (1) 
CC[C@@H]([C@@H]1NC(=O)[C@@H](NC(=O)CCCSC[C@H](NC(=O)[C@@H](NC(=O)[C@@H](NC1=O)CCC(=O)N)CC(=O)N)C(=O)N(Cc1cccs1)CC(=O)N[C@H](C(=O)NCC(=O)N)CC(C)C)Cc1ccc(cc1)O)C

>  <CID>  (1) 
118720288.0

>  <ChEMBL ID>  (1) 
nan

>  <InChiKey>  (1) 
BIIQLMRFKLOOEA-LZNUSVCISA-N

>  <InChi>  (1) 
InChI=1S/C46H67N11O12S2/c1-5-26(4)40-45(68)53-30(14-15-35(47)59)42(65)54-33(20-36(48)60)43(66)55-34(24-70-16-7-9-38(62)51-32(44(67)56-40)19-27-10-12-28(58)13-11-27)46(69)57(22-29-8-6-17-71-29)23-39(63)52-31(18-25(2)3)41(64)50-21-37(49)61/h6,8,10-13,17,25-26,30-34,40,58H,5,7,9,14-16,18-24H2,1-4H3,(H2,47,59)(H2,48,60)(H2,49,61)(H,50,64)(H,51,62)(H,52,63)(H,53,68)(H,54,65)(H,55,66)(H,56,67)/t26-,30-,31-,32-,33-,34-,40-/m0/s1

>  <IUPAC Name>  (1) 
(3R,6S,9S,12S,15S)-6-(2-amino-2-oxoethyl)-N-[2-[[(2S)-1-[(2-amino-2-oxoethyl)amino]-4-methyl-1-oxopentan-2-yl]amino]-2-oxoethyl]-9-(3-amino-3-oxopropyl)-12-[(2S)-butan-2-yl]-15-[(4-hydroxyphenyl)methyl]-5,8,11,14,17-pentaoxo-N-(thiophen-2-ylmethyl)-1-thia-4,7,10,13,16-pentazacycloicosane-3-carboxamide

$$$$
