
     RDKit          3D

 40 43  0  0  0  0  0  0  0  0999 V2000
    0.8373    1.5528   -0.5477 O   0  0  0  0  0  0  0  0  0  0  0  0
    1.0066    0.3499   -0.2528 C   0  0  0  0  0  0  0  0  0  0  0  0
    2.4134   -0.1278   -0.1509 C   0  0  0  0  0  0  0  0  0  0  0  0
    2.7084   -0.6965    1.2224 C   0  0  0  0  0  0  0  0  0  0  0  0
    3.9593   -1.3892    1.1069 O   0  0  0  0  0  0  0  0  0  0  0  0
    4.9833   -0.6270    0.5145 C   0  0  0  0  0  0  0  0  0  0  0  0
    4.6872    0.4936   -0.2363 C   0  0  0  0  0  0  0  0  0  0  0  0
    3.3478    0.8746   -0.4091 O   0  0  0  0  0  0  0  0  0  0  0  0
    5.7108    1.2391   -0.8172 C   0  0  0  0  0  0  0  0  0  0  0  0
    7.0319    0.8195   -0.6167 C   0  0  0  0  0  0  0  0  0  0  0  0
    7.3073   -0.3147    0.1449 C   0  0  0  0  0  0  0  0  0  0  0  0
    6.2859   -1.0519    0.7199 C   0  0  0  0  0  0  0  0  0  0  0  0
   -0.0799   -0.5294   -0.0235 N   0  0  0  0  0  0  0  0  0  0  0  0
   -1.4342   -0.2158   -0.0854 C   0  0  0  0  0  0  0  0  0  0  0  0
   -1.9887    0.9977   -0.3785 C   0  0  0  0  0  0  0  0  0  0  0  0
   -3.3600    1.2305   -0.4204 C   0  0  0  0  0  0  0  0  0  0  0  0
   -4.2466    0.2088   -0.1583 C   0  0  0  0  0  0  0  0  0  0  0  0
   -3.7030   -1.0224    0.1392 C   0  0  0  0  0  0  0  0  0  0  0  0
   -2.3451   -1.2480    0.1795 C   0  0  0  0  0  0  0  0  0  0  0  0
   -4.5058   -2.0240    0.3953 O   0  0  0  0  0  0  0  0  0  0  0  0
   -5.8231   -1.9105    0.3822 C   0  0  0  0  0  0  0  0  0  0  0  0
   -6.5014   -2.9302    0.6414 O   0  0  0  0  0  0  0  0  0  0  0  0
   -6.3999   -0.6966    0.0894 C   0  0  0  0  0  0  0  0  0  0  0  0
   -5.5951    0.4022   -0.1908 C   0  0  0  0  0  0  0  0  0  0  0  0
   -6.1834    1.7193   -0.5090 C   0  0  0  0  0  0  0  0  0  0  0  0
    2.5414   -0.9026   -0.9401 H   0  0  0  0  0  0  0  0  0  0  0  0
    2.7861    0.1560    1.9251 H   0  0  0  0  0  0  0  0  0  0  0  0
    1.9137   -1.4020    1.5361 H   0  0  0  0  0  0  0  0  0  0  0  0
    5.4806    2.1174   -1.4058 H   0  0  0  0  0  0  0  0  0  0  0  0
    7.8076    1.4013   -1.0685 H   0  0  0  0  0  0  0  0  0  0  0  0
    8.3557   -0.6001    0.2712 H   0  0  0  0  0  0  0  0  0  0  0  0
    6.5258   -1.9346    1.3109 H   0  0  0  0  0  0  0  0  0  0  0  0
    0.2072   -1.5283    0.2198 H   0  0  0  0  0  0  0  0  0  0  0  0
   -1.3656    1.8431   -0.5941 H   0  0  0  0  0  0  0  0  0  0  0  0
   -3.7540    2.2088   -0.6572 H   0  0  0  0  0  0  0  0  0  0  0  0
   -2.0025   -2.2543    0.4238 H   0  0  0  0  0  0  0  0  0  0  0  0
   -7.4608   -0.5725    0.0708 H   0  0  0  0  0  0  0  0  0  0  0  0
   -5.8022    2.1313   -1.4795 H   0  0  0  0  0  0  0  0  0  0  0  0
   -7.2768    1.5731   -0.6741 H   0  0  0  0  0  0  0  0  0  0  0  0
   -6.0690    2.4335    0.3225 H   0  0  0  0  0  0  0  0  0  0  0  0
  1  2  2  0
  2  3  1  0
  3  4  1  0
  4  5  1  0
  5  6  1  0
  6  7  2  0
  7  8  1  0
  7  9  1  0
  9 10  2  0
 10 11  1  0
 11 12  2  0
  2 13  1  0
 13 14  1  0
 14 15  2  0
 15 16  1  0
 16 17  2  0
 17 18  1  0
 18 19  2  0
 18 20  1  0
 20 21  1  0
 21 22  2  0
 21 23  1  0
 23 24  2  0
 24 25  1  0
  8  3  1  0
 19 14  1  0
 12  6  1  0
 24 17  1  0
  3 26  1  0
  4 27  1  0
  4 28  1  0
  9 29  1  0
 10 30  1  0
 11 31  1  0
 12 32  1  0
 13 33  1  0
 15 34  1  0
 16 35  1  0
 19 36  1  0
 23 37  1  0
 25 38  1  0
 25 39  1  0
 25 40  1  0
M  END
>  <Ligand ID>  (1) 
LIG0003792

>  <Ligand>  (1) 
SMR000065159

>  <SMILES>  (1) 
O=C(C1COc2c(O1)cccc2)Nc1ccc2c(c1)oc(=O)cc2C

>  <CID>  (1) 
2997570.0

>  <ChEMBL ID>  (1) 
nan

>  <InChiKey>  (1) 
ZXLGHUKKFPWWJW-UHFFFAOYSA-N

>  <InChi>  (1) 
InChI=1S/C19H15NO5/c1-11-8-18(21)25-16-9-12(6-7-13(11)16)20-19(22)17-10-23-14-4-2-3-5-15(14)24-17/h2-9,17H,10H2,1H3,(H,20,22)

>  <IUPAC Name>  (1) 
N-(4-methyl-2-oxochromen-7-yl)-2,3-dihydro-1,4-benzodioxine-3-carboxamide

$$$$
