
     RDKit          3D

 31 33  0  0  0  0  0  0  0  0999 V2000
    4.7201   -0.0083    0.2498 C   0  0  0  0  0  0  0  0  0  0  0  0
    3.2146   -0.0606    0.2409 C   0  0  0  0  0  0  0  0  0  0  0  0
    2.5181   -0.5045    1.3507 C   0  0  0  0  0  0  0  0  0  0  0  0
    1.1382   -0.5585    1.3586 C   0  0  0  0  0  0  0  0  0  0  0  0
    0.4465   -0.1591    0.2307 C   0  0  0  0  0  0  0  0  0  0  0  0
    1.1448    0.2830   -0.8741 C   0  0  0  0  0  0  0  0  0  0  0  0
    2.5238    0.3370   -0.8819 C   0  0  0  0  0  0  0  0  0  0  0  0
    0.4026    0.6954   -2.0413 C   0  0  0  0  0  0  0  0  0  0  0  0
    1.0301    1.0974   -3.0466 O   0  0  0  0  0  0  0  0  0  0  0  0
   -0.9971    0.6358   -2.0204 N   0  0  0  0  0  0  0  0  0  0  0  0
   -1.7740    0.0509   -0.9552 C   0  0  0  0  0  0  0  0  0  0  0  0
   -0.9750   -0.2109    0.2286 N   0  0  0  0  0  0  0  0  0  0  0  0
   -1.7364   -0.5381    1.4452 C   0  0  0  0  0  0  0  0  0  0  0  0
   -3.1529   -0.8089    0.9756 C   0  0  0  0  0  0  0  0  0  0  0  0
   -3.7792    0.2928    0.3142 N   0  0  0  0  0  0  0  0  0  0  0  0
   -2.8463    1.0243   -0.4996 C   0  0  0  0  0  0  0  0  0  0  0  0
    5.0479    0.9458    0.6978 H   0  0  0  0  0  0  0  0  0  0  0  0
    5.0602   -0.0126   -0.8069 H   0  0  0  0  0  0  0  0  0  0  0  0
    5.0954   -0.8665    0.8116 H   0  0  0  0  0  0  0  0  0  0  0  0
    3.0797   -0.8141    2.2275 H   0  0  0  0  0  0  0  0  0  0  0  0
    0.6404   -0.9121    2.2479 H   0  0  0  0  0  0  0  0  0  0  0  0
    3.0478    0.6924   -1.7737 H   0  0  0  0  0  0  0  0  0  0  0  0
   -1.5257    1.0386   -2.8248 H   0  0  0  0  0  0  0  0  0  0  0  0
   -2.1939   -0.9269   -1.2815 H   0  0  0  0  0  0  0  0  0  0  0  0
   -1.6960    0.3234    2.1129 H   0  0  0  0  0  0  0  0  0  0  0  0
   -1.3851   -1.4995    1.8893 H   0  0  0  0  0  0  0  0  0  0  0  0
   -3.1279   -1.7435    0.3577 H   0  0  0  0  0  0  0  0  0  0  0  0
   -3.7771   -1.0897    1.8688 H   0  0  0  0  0  0  0  0  0  0  0  0
   -4.5156   -0.0668   -0.3368 H   0  0  0  0  0  0  0  0  0  0  0  0
   -2.3078    1.8153    0.0868 H   0  0  0  0  0  0  0  0  0  0  0  0
   -3.3200    1.5484   -1.3519 H   0  0  0  0  0  0  0  0  0  0  0  0
  1  2  1  0
  2  3  2  0
  3  4  1  0
  4  5  2  0
  5  6  1  0
  6  7  2  0
  6  8  1  0
  8  9  2  0
  8 10  1  0
 10 11  1  0
 11 12  1  0
 12 13  1  0
 13 14  1  0
 14 15  1  0
 15 16  1  0
  7  2  1  0
 16 11  1  0
 12  5  1  0
  1 17  1  0
  1 18  1  0
  1 19  1  0
  3 20  1  0
  4 21  1  0
  7 22  1  0
 10 23  1  0
 11 24  1  0
 13 25  1  0
 13 26  1  0
 14 27  1  0
 14 28  1  0
 15 29  1  0
 16 30  1  0
 16 31  1  0
M  END
>  <Ligand ID>  (1) 
LIG0003899

>  <Ligand>  (1) 
CHEMBL590089

>  <SMILES>  (1) 
Cc1ccc2c(c1)C(=O)NC1N2CCNC1

>  <CID>  (1) 
46230047.0

>  <ChEMBL ID>  (1) 
nan

>  <InChiKey>  (1) 
SSFYXMCWGRBLJK-UHFFFAOYSA-N

>  <InChi>  (1) 
InChI=1S/C12H15N3O/c1-8-2-3-10-9(6-8)12(16)14-11-7-13-4-5-15(10)11/h2-3,6,11,13H,4-5,7H2,1H3,(H,14,16)

>  <IUPAC Name>  (1) 
8-methyl-1,2,3,4,4a,5-hexahydropyrazino[1,2-a]quinazolin-6-one

$$$$
