
     RDKit          3D

 29 31  0  0  0  0  0  0  0  0999 V2000
    5.5175    1.1071    0.8520 Cl  0  0  0  0  0  0  0  0  0  0  0  0
    3.9543    0.3964    0.4977 C   0  0  0  0  0  0  0  0  0  0  0  0
    3.8589   -0.9319    0.1402 C   0  0  0  0  0  0  0  0  0  0  0  0
    2.6238   -1.4920   -0.1394 C   0  0  0  0  0  0  0  0  0  0  0  0
    1.4661   -0.7169   -0.0617 C   0  0  0  0  0  0  0  0  0  0  0  0
    1.6126    0.6028    0.2992 C   0  0  0  0  0  0  0  0  0  0  0  0
    2.8230    1.1888    0.5829 C   0  0  0  0  0  0  0  0  0  0  0  0
    0.3974    1.4062    0.3816 C   0  0  0  0  0  0  0  0  0  0  0  0
    0.3698    2.6118    0.6937 O   0  0  0  0  0  0  0  0  0  0  0  0
   -0.8268    0.7451    0.0802 N   0  0  0  0  0  0  0  0  0  0  0  0
   -0.9399   -0.6793    0.3370 C   0  0  2  0  0  0  0  0  0  0  0  0
    0.1774   -1.3619   -0.3724 C   0  0  0  0  0  0  0  0  0  0  0  0
   -2.3025   -1.1479   -0.1031 C   0  0  0  0  0  0  0  0  0  0  0  0
   -3.3213   -0.3315    0.4631 N   0  0  0  0  0  0  0  0  0  0  0  0
   -3.1223    1.0777    0.4233 C   0  0  0  0  0  0  0  0  0  0  0  0
   -1.9612    1.4536   -0.4733 C   0  0  0  0  0  0  0  0  0  0  0  0
    4.7324   -1.5433    0.0745 H   0  0  0  0  0  0  0  0  0  0  0  0
    2.5332   -2.5371   -0.4224 H   0  0  0  0  0  0  0  0  0  0  0  0
    2.8597    2.2321    0.8596 H   0  0  0  0  0  0  0  0  0  0  0  0
   -0.8664   -0.9316    1.4226 H   0  0  0  0  0  0  0  0  0  0  0  0
    0.1984   -2.4572   -0.1989 H   0  0  0  0  0  0  0  0  0  0  0  0
    0.0141   -1.2428   -1.4744 H   0  0  0  0  0  0  0  0  0  0  0  0
   -2.3287   -1.2159   -1.2070 H   0  0  0  0  0  0  0  0  0  0  0  0
   -2.4271   -2.1763    0.3010 H   0  0  0  0  0  0  0  0  0  0  0  0
   -4.2777   -0.6502    0.2857 H   0  0  0  0  0  0  0  0  0  0  0  0
   -2.8079    1.4045    1.4538 H   0  0  0  0  0  0  0  0  0  0  0  0
   -4.0106    1.6435    0.1010 H   0  0  0  0  0  0  0  0  0  0  0  0
   -2.1289    1.0134   -1.4950 H   0  0  0  0  0  0  0  0  0  0  0  0
   -1.8174    2.5328   -0.5111 H   0  0  0  0  0  0  0  0  0  0  0  0
  1  2  1  0
  2  3  2  0
  3  4  1  0
  4  5  2  0
  5  6  1  0
  6  7  2  0
  6  8  1  0
  8  9  2  0
  8 10  1  0
 10 11  1  0
 11 12  1  0
 11 13  1  0
 13 14  1  0
 14 15  1  0
 15 16  1  0
  7  2  1  0
 16 10  1  0
 12  5  1  0
  3 17  1  0
  4 18  1  0
  7 19  1  0
 11 20  1  1
 12 21  1  0
 12 22  1  0
 13 23  1  0
 13 24  1  0
 14 25  1  0
 15 26  1  0
 15 27  1  0
 16 28  1  0
 16 29  1  0
M  END
>  <Ligand ID>  (1) 
LIG0003214

>  <Ligand>  (1) 
SCHEMBL3556061

>  <SMILES>  (1) 
Clc1ccc2c(c1)C(=O)N1[C@H](C2)CNCC1

>  <CID>  (1) 
24826868.0

>  <ChEMBL ID>  (1) 
nan

>  <InChiKey>  (1) 
UMHOHNRDOOBXDJ-SNVBAGLBSA-N

>  <InChi>  (1) 
InChI=1S/C12H13ClN2O/c13-9-2-1-8-5-10-7-14-3-4-15(10)12(16)11(8)6-9/h1-2,6,10,14H,3-5,7H2/t10-/m1/s1

>  <IUPAC Name>  (1) 
(11aR)-8-chloro-1,2,3,4,11,11a-hexahydropyrazino[1,2-b]isoquinolin-6-one

$$$$
