
     RDKit          3D

 51 54  0  0  0  0  0  0  0  0999 V2000
   -6.4089   -0.2520    0.0383 C   0  0  0  0  0  0  0  0  0  0  0  0
   -5.2041   -0.0900    0.8984 C   0  0  2  0  0  0  0  0  0  0  0  0
   -5.0288    1.3300    1.3626 C   0  0  0  0  0  0  0  0  0  0  0  0
   -3.5848    1.3670    1.7439 C   0  0  0  0  0  0  0  0  0  0  0  0
   -2.9175    0.2700    0.9239 C   0  0  0  0  0  0  0  0  0  0  0  0
   -3.9555   -0.4624    0.2912 N   0  0  0  0  0  0  0  0  0  0  0  0
   -3.9401   -0.5961   -1.1036 C   0  0  0  0  0  0  0  0  0  0  0  0
   -2.8764   -1.4915   -1.6366 C   0  0  0  0  0  0  0  0  0  0  0  0
   -1.4940   -1.1067   -1.3376 C   0  0  0  0  0  0  0  0  0  0  0  0
   -0.8984   -0.1722   -2.1946 C   0  0  0  0  0  0  0  0  0  0  0  0
    0.4099    0.2311   -2.0197 C   0  0  0  0  0  0  0  0  0  0  0  0
    1.1651   -0.2821   -0.9881 C   0  0  0  0  0  0  0  0  0  0  0  0
    0.5751   -1.2050   -0.1431 C   0  0  0  0  0  0  0  0  0  0  0  0
   -0.7291   -1.6132   -0.3099 C   0  0  0  0  0  0  0  0  0  0  0  0
    1.3628   -1.6896    0.8788 C   0  0  0  0  0  0  0  0  0  0  0  0
    2.6772   -1.2319    0.9990 C   0  0  0  0  0  0  0  0  0  0  0  0
    3.2351   -0.3194    0.1508 C   0  0  0  0  0  0  0  0  0  0  0  0
    2.4315    0.1394   -0.8485 N   0  0  0  0  0  0  0  0  0  0  0  0
    4.5765    0.1985    0.2000 C   0  0  0  0  0  0  0  0  0  0  0  0
    5.0965    1.0481   -0.7796 C   0  0  0  0  0  0  0  0  0  0  0  0
    6.3722    1.3768   -0.4524 N   0  0  0  0  0  0  0  0  0  0  0  0
    6.6706    0.7747    0.6793 N   0  0  0  0  0  0  0  0  0  0  0  0
    5.5975    0.0513    1.0998 C   0  0  0  0  0  0  0  0  0  0  0  0
    5.5883   -0.7371    2.3463 C   0  0  0  0  0  0  0  0  0  0  0  0
    7.2888    2.2389   -1.1903 C   0  0  0  0  0  0  0  0  0  0  0  0
   -6.5209   -1.2622   -0.3532 H   0  0  0  0  0  0  0  0  0  0  0  0
   -7.2977   -0.1035    0.7221 H   0  0  0  0  0  0  0  0  0  0  0  0
   -6.5260    0.5588   -0.7156 H   0  0  0  0  0  0  0  0  0  0  0  0
   -5.3314   -0.7329    1.8112 H   0  0  0  0  0  0  0  0  0  0  0  0
   -5.6547    1.4517    2.2874 H   0  0  0  0  0  0  0  0  0  0  0  0
   -5.2670    2.0875    0.6102 H   0  0  0  0  0  0  0  0  0  0  0  0
   -3.1121    2.3442    1.4958 H   0  0  0  0  0  0  0  0  0  0  0  0
   -3.4711    1.1127    2.8127 H   0  0  0  0  0  0  0  0  0  0  0  0
   -2.1948    0.7456    0.2290 H   0  0  0  0  0  0  0  0  0  0  0  0
   -2.3776   -0.4065    1.6262 H   0  0  0  0  0  0  0  0  0  0  0  0
   -4.9423   -0.8166   -1.5532 H   0  0  0  0  0  0  0  0  0  0  0  0
   -3.7049    0.4328   -1.5481 H   0  0  0  0  0  0  0  0  0  0  0  0
   -3.0073   -1.6534   -2.7549 H   0  0  0  0  0  0  0  0  0  0  0  0
   -3.0018   -2.5284   -1.1824 H   0  0  0  0  0  0  0  0  0  0  0  0
   -1.4522    0.2577   -3.0191 H   0  0  0  0  0  0  0  0  0  0  0  0
    0.8417    0.9589   -2.7047 H   0  0  0  0  0  0  0  0  0  0  0  0
   -1.1884   -2.3400    0.3602 H   0  0  0  0  0  0  0  0  0  0  0  0
    0.9661   -2.4098    1.5707 H   0  0  0  0  0  0  0  0  0  0  0  0
    3.2416   -1.6474    1.8042 H   0  0  0  0  0  0  0  0  0  0  0  0
    4.6341    1.4250   -1.6704 H   0  0  0  0  0  0  0  0  0  0  0  0
    6.5224   -0.5105    2.9503 H   0  0  0  0  0  0  0  0  0  0  0  0
    4.7571   -0.3970    3.0025 H   0  0  0  0  0  0  0  0  0  0  0  0
    5.5285   -1.8229    2.1929 H   0  0  0  0  0  0  0  0  0  0  0  0
    6.7104    2.9431   -1.8274 H   0  0  0  0  0  0  0  0  0  0  0  0
    7.8767    2.8789   -0.4819 H   0  0  0  0  0  0  0  0  0  0  0  0
    7.9618    1.6576   -1.8500 H   0  0  0  0  0  0  0  0  0  0  0  0
  1  2  1  0
  2  3  1  0
  3  4  1  0
  4  5  1  0
  5  6  1  0
  6  7  1  0
  7  8  1  0
  8  9  1  0
  9 10  2  0
 10 11  1  0
 11 12  2  0
 12 13  1  0
 13 14  2  0
 13 15  1  0
 15 16  2  0
 16 17  1  0
 17 18  2  0
 17 19  1  0
 19 20  2  0
 20 21  1  0
 21 22  1  0
 22 23  2  0
 23 24  1  0
 21 25  1  0
  6  2  1  0
 14  9  1  0
 23 19  1  0
 18 12  1  0
  1 26  1  0
  1 27  1  0
  1 28  1  0
  2 29  1  1
  3 30  1  0
  3 31  1  0
  4 32  1  0
  4 33  1  0
  5 34  1  0
  5 35  1  0
  7 36  1  0
  7 37  1  0
  8 38  1  0
  8 39  1  0
 10 40  1  0
 11 41  1  0
 14 42  1  0
 15 43  1  0
 16 44  1  0
 20 45  1  0
 24 46  1  0
 24 47  1  0
 24 48  1  0
 25 49  1  0
 25 50  1  0
 25 51  1  0
M  END
>  <Ligand ID>  (1) 
LIG0005246

>  <Ligand>  (1) 
CHEMBL442242

>  <SMILES>  (1) 
C[C@@H]1CCCN1CCc1ccc2c(c1)ccc(n2)c1cn(nc1C)C

>  <CID>  (1) 
16059780.0

>  <ChEMBL ID>  (1) 
nan

>  <InChiKey>  (1) 
GGGPOYPNHTZKFQ-OAHLLOKOSA-N

>  <InChi>  (1) 
InChI=1S/C21H26N4/c1-15-5-4-11-25(15)12-10-17-6-8-20-18(13-17)7-9-21(22-20)19-14-24(3)23-16(19)2/h6-9,13-15H,4-5,10-12H2,1-3H3/t15-/m1/s1

>  <IUPAC Name>  (1) 
2-(1,3-dimethylpyrazol-4-yl)-6-[2-[(2R)-2-methylpyrrolidin-1-yl]ethyl]quinoline

$$$$
