
     RDKit          3D

 81 81  0  0  0  0  0  0  0  0999 V2000
  -10.2241   -2.3538    0.2666 C   0  0  0  0  0  0  0  0  0  0  0  0
  -10.8772   -1.0746    0.6524 C   0  0  0  0  0  0  0  0  0  0  0  0
  -10.0169    0.0216    1.1403 C   0  0  0  0  0  0  0  0  0  0  0  0
   -8.9980    0.6153    0.2561 C   0  0  0  0  0  0  0  0  0  0  0  0
   -7.9711   -0.3366   -0.2365 C   0  0  0  0  0  0  0  0  0  0  0  0
   -6.9352    0.3991   -1.1085 C   0  0  0  0  0  0  0  0  0  0  0  0
   -5.9125   -0.5788   -1.5864 C   0  0  0  0  0  0  0  0  0  0  0  0
   -4.8372    0.0161   -2.4619 C   0  0  0  0  0  0  0  0  0  0  0  0
   -4.1123    1.0741   -1.7053 C   0  0  0  0  0  0  0  0  0  0  0  0
   -2.9951    1.7278   -2.4995 C   0  0  0  0  0  0  0  0  0  0  0  0
   -1.9470    0.7598   -2.9223 C   0  0  0  0  0  0  0  0  0  0  0  0
   -1.3077    0.1109   -1.8895 O   0  0  0  0  0  0  0  0  0  0  0  0
   -0.5142    0.6532   -0.9385 C   0  0  0  0  0  0  0  0  0  0  0  0
   -0.0202   -0.2395    0.0348 C   0  0  0  0  0  0  0  0  0  0  0  0
    0.7965    0.1764    1.0575 C   0  0  0  0  0  0  0  0  0  0  0  0
    1.1798    1.4927    1.1894 C   0  0  0  0  0  0  0  0  0  0  0  0
    0.7114    2.3797    0.2496 C   0  0  0  0  0  0  0  0  0  0  0  0
   -0.1227    1.9502   -0.7937 C   0  0  0  0  0  0  0  0  0  0  0  0
    2.0189    2.0144    2.2792 C   0  0  0  0  0  0  0  0  0  0  0  0
    3.4591    1.9102    1.9374 C   0  0  0  0  0  0  0  0  0  0  0  0
    3.7746    0.4438    1.7172 C   0  0  0  0  0  0  0  0  0  0  0  0
    3.9813    0.1177    0.5323 O   0  0  0  0  0  0  0  0  0  0  0  0
    3.7964   -0.3379    2.8133 O   0  0  0  0  0  0  0  0  0  0  0  0
    4.0697   -1.6705    2.9546 C   0  0  0  0  0  0  0  0  0  0  0  0
    5.5075   -2.0282    2.8612 C   0  0  0  0  0  0  0  0  0  0  0  0
    6.1954   -1.7214    1.5977 C   0  0  0  0  0  0  0  0  0  0  0  0
    5.6896   -2.3257    0.4607 O   0  0  0  0  0  0  0  0  0  0  0  0
    6.5470   -1.8420   -0.9231 P   0  0  0  0  0  0  0  0  0  0  0  0
    5.5234   -1.4853   -1.9615 O   0  0  0  0  0  0  0  0  0  0  0  0
    7.5060   -0.5365   -0.4571 O   0  0  0  0  0  0  0  0  0  0  0  0
    8.5341   -0.2860   -1.3509 C   0  0  0  0  0  0  0  0  0  0  0  0
    9.3984    0.8019   -0.7068 C   0  0  1  0  0  0  0  0  0  0  0  0
    9.9529    0.3333    0.5839 C   0  0  0  0  0  0  0  0  0  0  0  0
   11.2191    0.2977    0.7596 O   0  0  0  0  0  0  0  0  0  0  0  0
    9.1894   -0.0851    1.6572 O   0  0  0  0  0  0  0  0  0  0  0  0
   10.5071    1.1431   -1.5653 N   0  0  0  0  0  0  0  0  0  0  0  0
    7.4639   -3.1345   -1.4703 O   0  0  0  0  0  0  0  0  0  0  0  0
  -10.8126   -3.2488    0.6805 H   0  0  0  0  0  0  0  0  0  0  0  0
  -10.1921   -2.5686   -0.8163 H   0  0  0  0  0  0  0  0  0  0  0  0
   -9.2184   -2.4307    0.7252 H   0  0  0  0  0  0  0  0  0  0  0  0
  -11.5818   -1.3264    1.5076 H   0  0  0  0  0  0  0  0  0  0  0  0
  -11.5977   -0.7139   -0.1409 H   0  0  0  0  0  0  0  0  0  0  0  0
  -10.6788    0.8775    1.4842 H   0  0  0  0  0  0  0  0  0  0  0  0
   -9.4723   -0.3575    2.0632 H   0  0  0  0  0  0  0  0  0  0  0  0
   -8.4900    1.4376    0.8519 H   0  0  0  0  0  0  0  0  0  0  0  0
   -9.4370    1.1823   -0.6111 H   0  0  0  0  0  0  0  0  0  0  0  0
   -8.4685   -1.0220   -0.9615 H   0  0  0  0  0  0  0  0  0  0  0  0
   -7.4201   -0.8322    0.5617 H   0  0  0  0  0  0  0  0  0  0  0  0
   -6.4400    1.1796   -0.4993 H   0  0  0  0  0  0  0  0  0  0  0  0
   -7.4089    0.9054   -1.9712 H   0  0  0  0  0  0  0  0  0  0  0  0
   -6.4482   -1.3337   -2.2311 H   0  0  0  0  0  0  0  0  0  0  0  0
   -5.4454   -1.1411   -0.7312 H   0  0  0  0  0  0  0  0  0  0  0  0
   -4.1994   -0.8242   -2.7815 H   0  0  0  0  0  0  0  0  0  0  0  0
   -5.3781    0.4894   -3.3165 H   0  0  0  0  0  0  0  0  0  0  0  0
   -4.8543    1.9069   -1.5207 H   0  0  0  0  0  0  0  0  0  0  0  0
   -3.7471    0.6975   -0.7496 H   0  0  0  0  0  0  0  0  0  0  0  0
   -2.5815    2.5042   -1.8569 H   0  0  0  0  0  0  0  0  0  0  0  0
   -3.4363    2.2815   -3.3788 H   0  0  0  0  0  0  0  0  0  0  0  0
   -2.2938    0.0720   -3.7328 H   0  0  0  0  0  0  0  0  0  0  0  0
   -1.1479    1.3755   -3.4492 H   0  0  0  0  0  0  0  0  0  0  0  0
   -0.2757   -1.2947    0.0025 H   0  0  0  0  0  0  0  0  0  0  0  0
    1.1577   -0.5285    1.7847 H   0  0  0  0  0  0  0  0  0  0  0  0
    0.9952    3.4336    0.3214 H   0  0  0  0  0  0  0  0  0  0  0  0
   -0.4086    2.7157   -1.4837 H   0  0  0  0  0  0  0  0  0  0  0  0
    1.8466    1.3572    3.1710 H   0  0  0  0  0  0  0  0  0  0  0  0
    1.7086    3.0350    2.5946 H   0  0  0  0  0  0  0  0  0  0  0  0
    4.0840    2.2733    2.7976 H   0  0  0  0  0  0  0  0  0  0  0  0
    3.7900    2.4794    1.0735 H   0  0  0  0  0  0  0  0  0  0  0  0
    3.4517   -2.3065    2.2339 H   0  0  0  0  0  0  0  0  0  0  0  0
    3.7427   -2.0153    3.9931 H   0  0  0  0  0  0  0  0  0  0  0  0
    5.6847   -3.0936    3.2004 H   0  0  0  0  0  0  0  0  0  0  0  0
    6.0887   -1.4560    3.6725 H   0  0  0  0  0  0  0  0  0  0  0  0
    6.3024   -0.6372    1.4168 H   0  0  0  0  0  0  0  0  0  0  0  0
    7.2909   -2.0598    1.6395 H   0  0  0  0  0  0  0  0  0  0  0  0
    8.1490    0.1855   -2.2973 H   0  0  0  0  0  0  0  0  0  0  0  0
    9.0989   -1.1811   -1.6201 H   0  0  0  0  0  0  0  0  0  0  0  0
    8.7448    1.6528   -0.4740 H   0  0  0  0  0  0  0  0  0  0  0  0
    9.5458   -0.0729    2.6154 H   0  0  0  0  0  0  0  0  0  0  0  0
   10.1722    1.6313   -2.4083 H   0  0  0  0  0  0  0  0  0  0  0  0
   11.1873    1.6897   -0.9870 H   0  0  0  0  0  0  0  0  0  0  0  0
    8.1633   -3.3274   -0.7964 H   0  0  0  0  0  0  0  0  0  0  0  0
  1  2  1  0
  2  3  1  0
  3  4  1  0
  4  5  1  0
  5  6  1  0
  6  7  1  0
  7  8  1  0
  8  9  1  0
  9 10  1  0
 10 11  1  0
 11 12  1  0
 12 13  1  0
 13 14  2  0
 14 15  1  0
 15 16  2  0
 16 17  1  0
 17 18  2  0
 16 19  1  0
 19 20  1  0
 20 21  1  0
 21 22  2  0
 21 23  1  0
 23 24  1  0
 24 25  1  0
 25 26  1  0
 26 27  1  0
 27 28  1  0
 28 29  2  0
 28 30  1  0
 30 31  1  0
 31 32  1  0
 32 33  1  0
 33 34  2  0
 33 35  1  0
 32 36  1  0
 28 37  1  0
 18 13  1  0
  1 38  1  0
  1 39  1  0
  1 40  1  0
  2 41  1  0
  2 42  1  0
  3 43  1  0
  3 44  1  0
  4 45  1  0
  4 46  1  0
  5 47  1  0
  5 48  1  0
  6 49  1  0
  6 50  1  0
  7 51  1  0
  7 52  1  0
  8 53  1  0
  8 54  1  0
  9 55  1  0
  9 56  1  0
 10 57  1  0
 10 58  1  0
 11 59  1  0
 11 60  1  0
 14 61  1  0
 15 62  1  0
 17 63  1  0
 18 64  1  0
 19 65  1  0
 19 66  1  0
 20 67  1  0
 20 68  1  0
 24 69  1  0
 24 70  1  0
 25 71  1  0
 25 72  1  0
 26 73  1  0
 26 74  1  0
 31 75  1  0
 31 76  1  0
 32 77  1  1
 35 78  1  0
 36 79  1  0
 36 80  1  0
 37 81  1  0
M  END
>  <Ligand ID>  (1) 
LIG0004280

>  <Ligand>  (1) 
CHEMBL3577181

>  <SMILES>  (1) 
CCCCCCCCCCCOc1ccc(cc1)CCC(=O)OCCCOP(=O)(OC[C@@H](C(=O)O)N)O

>  <CID>  (1) 
122177527.0

>  <ChEMBL ID>  (1) 
nan

>  <InChiKey>  (1) 
LSCJPEVNUYGUBE-DEOSSOPVSA-N

>  <InChi>  (1) 
InChI=1S/C26H44NO9P/c1-2-3-4-5-6-7-8-9-10-18-33-23-15-12-22(13-16-23)14-17-25(28)34-19-11-20-35-37(31,32)36-21-24(27)26(29)30/h12-13,15-16,24H,2-11,14,17-21,27H2,1H3,(H,29,30)(H,31,32)/t24-/m0/s1

>  <IUPAC Name>  (1) 
(2S)-2-amino-3-[hydroxy-[3-[3-(4-undecoxyphenyl)propanoyloxy]propoxy]phosphoryl]oxypropanoic acid

$$$$
