
     RDKit          3D

 44 47  0  0  0  0  0  0  0  0999 V2000
    6.4929   -2.5172   -1.2550 Cl  0  0  0  0  0  0  0  0  0  0  0  0
    5.2985   -1.5240   -0.4413 C   0  0  0  0  0  0  0  0  0  0  0  0
    4.1127   -2.0667    0.0617 C   0  0  0  0  0  0  0  0  0  0  0  0
    3.1761   -1.2828    0.7001 C   0  0  0  0  0  0  0  0  0  0  0  0
    3.4150    0.0655    0.8453 C   0  0  0  0  0  0  0  0  0  0  0  0
    4.5971    0.5916    0.3410 C   0  0  0  0  0  0  0  0  0  0  0  0
    5.5411   -0.1734   -0.2976 C   0  0  0  0  0  0  0  0  0  0  0  0
    6.7630    0.4983   -0.7957 C   0  0  0  0  0  0  0  0  0  0  0  0
    6.7506    1.8507   -0.5203 F   0  0  0  0  0  0  0  0  0  0  0  0
    6.8731    0.3143   -2.1732 F   0  0  0  0  0  0  0  0  0  0  0  0
    7.8423   -0.0982   -0.2024 F   0  0  0  0  0  0  0  0  0  0  0  0
    2.4403    0.9660    1.5249 C   0  0  0  0  0  0  0  0  0  0  0  0
    1.2555    1.6720    0.3724 S   0  0  0  0  0  0  0  0  0  0  0  0
    0.1663    0.4696   -0.3525 C   0  0  0  0  0  0  0  0  0  0  0  0
    0.4420   -0.1887   -1.4917 N   0  0  0  0  0  0  0  0  0  0  0  0
   -0.5826   -1.0001   -1.7361 N   0  0  0  0  0  0  0  0  0  0  0  0
   -1.4937   -0.8383   -0.7391 C   0  0  0  0  0  0  0  0  0  0  0  0
   -1.0472    0.0710    0.1311 N   0  0  0  0  0  0  0  0  0  0  0  0
   -1.6024    0.6067    1.3361 C   0  0  0  0  0  0  0  0  0  0  0  0
   -2.4188    1.8238    1.0063 C   0  0  0  0  0  0  0  0  0  0  0  0
   -3.7667    1.9199    0.7278 C   0  0  0  0  0  0  0  0  0  0  0  0
   -4.2612    3.1199    0.4620 C   0  0  0  0  0  0  0  0  0  0  0  0
   -3.4102    4.2003    0.4775 C   0  0  0  0  0  0  0  0  0  0  0  0
   -1.8201    3.4937    0.8893 S   0  0  0  0  0  0  0  0  0  0  0  0
   -2.7629   -1.5421   -0.6249 C   0  0  0  0  0  0  0  0  0  0  0  0
   -3.8501   -1.0045   -1.2891 C   0  0  0  0  0  0  0  0  0  0  0  0
   -5.1015   -1.5761   -1.2607 C   0  0  0  0  0  0  0  0  0  0  0  0
   -5.2417   -2.7409   -0.5245 C   0  0  0  0  0  0  0  0  0  0  0  0
   -4.1448   -3.2756    0.1405 C   0  0  0  0  0  0  0  0  0  0  0  0
   -2.9231   -2.6745    0.0843 N   0  0  0  0  0  0  0  0  0  0  0  0
    3.9355   -3.1175   -0.0560 H   0  0  0  0  0  0  0  0  0  0  0  0
    2.2706   -1.6942    1.0846 H   0  0  0  0  0  0  0  0  0  0  0  0
    4.7593    1.6692    0.4719 H   0  0  0  0  0  0  0  0  0  0  0  0
    3.0226    1.8075    1.9462 H   0  0  0  0  0  0  0  0  0  0  0  0
    1.9322    0.4534    2.3654 H   0  0  0  0  0  0  0  0  0  0  0  0
   -0.8015    0.8593    2.0607 H   0  0  0  0  0  0  0  0  0  0  0  0
   -2.3280   -0.0900    1.8044 H   0  0  0  0  0  0  0  0  0  0  0  0
   -4.3798    0.9903    0.7390 H   0  0  0  0  0  0  0  0  0  0  0  0
   -5.3394    3.2959    0.2254 H   0  0  0  0  0  0  0  0  0  0  0  0
   -3.6250    5.2312    0.2905 H   0  0  0  0  0  0  0  0  0  0  0  0
   -3.7420   -0.0804   -1.8740 H   0  0  0  0  0  0  0  0  0  0  0  0
   -5.9146   -1.1135   -1.7973 H   0  0  0  0  0  0  0  0  0  0  0  0
   -6.2231   -3.1908   -0.5015 H   0  0  0  0  0  0  0  0  0  0  0  0
   -4.3062   -4.1804    0.6976 H   0  0  0  0  0  0  0  0  0  0  0  0
  1  2  1  0
  2  3  2  0
  3  4  1  0
  4  5  2  0
  5  6  1  0
  6  7  2  0
  7  8  1  0
  8  9  1  0
  8 10  1  0
  8 11  1  0
  5 12  1  0
 12 13  1  0
 13 14  1  0
 14 15  2  0
 15 16  1  0
 16 17  2  0
 17 18  1  0
 18 19  1  0
 19 20  1  0
 20 21  2  0
 21 22  1  0
 22 23  2  0
 23 24  1  0
 17 25  1  0
 25 26  2  0
 26 27  1  0
 27 28  2  0
 28 29  1  0
 29 30  2  0
  7  2  1  0
 18 14  1  0
 24 20  1  0
 30 25  1  0
  3 31  1  0
  4 32  1  0
  6 33  1  0
 12 34  1  0
 12 35  1  0
 19 36  1  0
 19 37  1  0
 21 38  1  0
 22 39  1  0
 23 40  1  0
 26 41  1  0
 27 42  1  0
 28 43  1  0
 29 44  1  0
M  END
>  <Ligand ID>  (1) 
LIG0002775

>  <Ligand>  (1) 
KUC104206N

>  <SMILES>  (1) 
Clc1ccc(cc1C(F)(F)F)CSc1nnc(n1Cc1cccs1)c1ccccn1

>  <CID>  (1) 
44620925.0

>  <ChEMBL ID>  (1) 
nan

>  <InChiKey>  (1) 
BHLPITNFEWNEDA-UHFFFAOYSA-N

>  <InChi>  (1) 
InChI=1S/C20H14ClF3N4S2/c21-16-7-6-13(10-15(16)20(22,23)24)12-30-19-27-26-18(17-5-1-2-8-25-17)28(19)11-14-4-3-9-29-14/h1-10H,11-12H2

>  <IUPAC Name>  (1) 
2-[5-[[4-chloro-3-(trifluoromethyl)phenyl]methylsulfanyl]-4-(thiophen-2-ylmethyl)-1,2,4-triazol-3-yl]pyridine

$$$$
