
     RDKit          3D

 24 25  0  0  0  0  0  0  0  0999 V2000
    2.9292    0.1968    1.6034 O   0  0  0  0  0  0  0  0  0  0  0  0
    1.7607    0.9020    1.2163 C   0  0  0  0  0  0  0  0  0  0  0  0
    1.1985    1.5229    2.1473 O   0  0  0  0  0  0  0  0  0  0  0  0
    1.3685    0.8218   -0.1711 C   0  0  1  0  0  0  0  0  0  0  0  0
    1.2383   -0.5896   -0.7642 C   0  0  2  0  0  0  0  0  0  0  0  0
    0.5323    0.1979   -1.8815 C   0  0  0  0  0  0  0  0  0  0  0  0
   -0.0316    0.9513   -0.6320 C   0  0  1  0  0  0  0  0  0  0  0  0
   -0.9116   -0.1373   -0.1536 C   0  0  2  0  0  0  0  0  0  0  0  0
    0.1657   -1.2006    0.0514 C   0  0  0  0  0  0  0  0  0  0  0  0
   -1.7069   -0.5414   -1.3568 N   0  0  0  0  0  0  0  0  0  0  0  0
   -1.7966    0.0842    0.9619 C   0  0  0  0  0  0  0  0  0  0  0  0
   -1.5101    0.3333    2.1557 O   0  0  0  0  0  0  0  0  0  0  0  0
   -3.1961    0.0194    0.7132 O   0  0  0  0  0  0  0  0  0  0  0  0
    3.0519   -0.1297    2.5749 H   0  0  0  0  0  0  0  0  0  0  0  0
    2.0310    1.4341   -0.8561 H   0  0  0  0  0  0  0  0  0  0  0  0
    2.1435   -1.1082   -1.0116 H   0  0  0  0  0  0  0  0  0  0  0  0
   -0.1928   -0.3404   -2.4658 H   0  0  0  0  0  0  0  0  0  0  0  0
    1.2513    0.8476   -2.4044 H   0  0  0  0  0  0  0  0  0  0  0  0
   -0.4405    1.9236   -0.8678 H   0  0  0  0  0  0  0  0  0  0  0  0
   -0.1763   -2.1790   -0.2868 H   0  0  0  0  0  0  0  0  0  0  0  0
    0.4653   -1.2045    1.1346 H   0  0  0  0  0  0  0  0  0  0  0  0
   -1.6268   -1.5869   -1.4525 H   0  0  0  0  0  0  0  0  0  0  0  0
   -2.6826   -0.2296   -1.2147 H   0  0  0  0  0  0  0  0  0  0  0  0
   -3.8644    0.0124    1.4720 H   0  0  0  0  0  0  0  0  0  0  0  0
  1  2  1  0
  2  3  2  0
  2  4  1  0
  4  5  1  0
  5  6  1  0
  6  7  1  0
  7  8  1  0
  8  9  1  0
  8 10  1  6
  8 11  1  0
 11 12  2  0
 11 13  1  0
  7  4  1  0
  9  5  1  0
  1 14  1  0
  4 15  1  6
  5 16  1  6
  6 17  1  0
  6 18  1  0
  7 19  1  6
  9 20  1  0
  9 21  1  0
 10 22  1  0
 10 23  1  0
 13 24  1  0
M  END
>  <Ligand ID>  (1) 
LIG0000815

>  <Ligand>  (1) 
CHEMBL43857

>  <SMILES>  (1) 
OC(=O)[C@H]1[C@@H]2C[C@H]1[C@](C2)(N)C(=O)O

>  <CID>  (1) 
10465017.0

>  <ChEMBL ID>  (1) 
nan

>  <InChiKey>  (1) 
JCGJEPFYMOHIDP-BWSHDJSZSA-N

>  <InChi>  (1) 
InChI=1S/C8H11NO4/c9-8(7(12)13)2-3-1-4(8)5(3)6(10)11/h3-5H,1-2,9H2,(H,10,11)(H,12,13)/t3-,4-,5+,8+/m1/s1

>  <IUPAC Name>  (1) 
(1R,2S,4R,5S)-2-aminobicyclo[2.1.1]hexane-2,5-dicarboxylic acid

$$$$
