
     RDKit          3D

219224  0  0  0  0  0  0  0  0999 V2000
   11.8159   -4.0166    0.7242 N   0  0  0  0  0  0  0  0  0  0  0  0
   10.9194   -4.6513    1.6384 C   0  0  0  0  0  0  0  0  0  0  0  0
    9.4494   -4.2393    1.2823 C   0  0  0  0  0  0  0  0  0  0  0  0
    9.4385   -2.7754    1.4174 C   0  0  0  0  0  0  0  0  0  0  0  0
    8.2480   -1.9585    1.2421 C   0  0  0  0  0  0  0  0  0  0  0  0
    7.5574   -1.8820   -0.0571 C   0  0  2  0  0  0  0  0  0  0  0  0
    6.4088   -0.9116    0.1425 N   0  0  0  0  0  0  0  0  0  0  0  0
    6.5817    0.3555   -0.4059 C   0  0  0  0  0  0  0  0  0  0  0  0
    7.5979    0.5968   -1.0652 O   0  0  0  0  0  0  0  0  0  0  0  0
    5.6150    1.5258   -0.2785 C   0  0  2  0  0  0  0  0  0  0  0  0
    4.3587    1.3385   -1.0198 C   0  0  0  0  0  0  0  0  0  0  0  0
    3.1856    2.6592   -0.7880 S   0  0  0  0  0  0  0  0  0  0  0  0
    3.7901    4.5385   -1.5120 S   0  0  0  0  0  0  0  0  0  0  0  0
    4.6450    5.4315   -0.2073 C   0  0  0  0  0  0  0  0  0  0  0  0
    3.7224    5.7733    0.9541 C   0  0  2  0  0  0  0  0  0  0  0  0
    2.6781    6.7087    0.6143 N   0  0  0  0  0  0  0  0  0  0  0  0
    1.3968    6.2528    0.2177 C   0  0  0  0  0  0  0  0  0  0  0  0
    1.2802    5.0236    0.0971 O   0  0  0  0  0  0  0  0  0  0  0  0
    0.2234    7.0847   -0.0636 C   0  0  2  0  0  0  0  0  0  0  0  0
   -0.2928    7.6774    1.2819 C   0  0  0  0  0  0  0  0  0  0  0  0
   -0.7571    6.7218    2.1242 O   0  0  0  0  0  0  0  0  0  0  0  0
   -0.8329    6.3471   -0.7055 N   0  0  0  0  0  0  0  0  0  0  0  0
   -2.2227    6.5859   -0.5876 C   0  0  0  0  0  0  0  0  0  0  0  0
   -2.5743    7.4233    0.2224 O   0  0  0  0  0  0  0  0  0  0  0  0
   -3.2571    5.8500   -1.3890 C   0  0  1  0  0  0  0  0  0  0  0  0
   -4.5044    5.7806   -0.7141 N   0  0  0  0  0  0  0  0  0  0  0  0
   -5.7125    6.4777   -0.8041 C   0  0  0  0  0  0  0  0  0  0  0  0
   -5.7513    7.4650   -1.5406 O   0  0  0  0  0  0  0  0  0  0  0  0
   -6.8852    6.0772   -0.0511 C   0  0  2  0  0  0  0  0  0  0  0  0
   -6.8681    6.8938    1.2578 C   0  0  0  0  0  0  0  0  0  0  0  0
   -6.9142    8.3243    0.9023 C   0  0  0  0  0  0  0  0  0  0  0  0
   -5.7320    9.0322    0.8000 C   0  0  0  0  0  0  0  0  0  0  0  0
   -5.6784   10.3700    0.4713 C   0  0  0  0  0  0  0  0  0  0  0  0
   -6.9021   10.9839    0.2430 C   0  0  0  0  0  0  0  0  0  0  0  0
   -8.0892   10.2977    0.3401 C   0  0  0  0  0  0  0  0  0  0  0  0
   -8.1274    8.9574    0.6703 C   0  0  0  0  0  0  0  0  0  0  0  0
   -6.9266    4.6550    0.3317 N   0  0  0  0  0  0  0  0  0  0  0  0
   -8.1659    4.1381    0.7816 C   0  0  0  0  0  0  0  0  0  0  0  0
   -9.0897    4.9861    0.8635 O   0  0  0  0  0  0  0  0  0  0  0  0
   -8.4826    2.7616    1.1630 C   0  0  1  0  0  0  0  0  0  0  0  0
   -7.5524    1.7430    0.6670 N   0  0  0  0  0  0  0  0  0  0  0  0
   -8.0782    0.6279   -0.0554 C   0  0  0  0  0  0  0  0  0  0  0  0
   -9.3354    0.6486   -0.1575 O   0  0  0  0  0  0  0  0  0  0  0  0
   -7.3864   -0.4920   -0.6668 C   0  0  1  0  0  0  0  0  0  0  0  0
   -5.9556   -0.4690   -0.6868 N   0  0  0  0  0  0  0  0  0  0  0  0
   -5.1027   -1.5984   -0.8101 C   0  0  0  0  0  0  0  0  0  0  0  0
   -5.6689   -2.7074   -0.7354 O   0  0  0  0  0  0  0  0  0  0  0  0
   -3.6540   -1.5989   -0.9938 C   0  0  1  0  0  0  0  0  0  0  0  0
   -3.1284   -2.9032   -0.5307 N   0  0  0  0  0  0  0  0  0  0  0  0
   -1.7332   -3.1311   -0.3164 C   0  0  0  0  0  0  0  0  0  0  0  0
   -0.9690   -2.2512   -0.6700 O   0  0  0  0  0  0  0  0  0  0  0  0
   -1.2730   -4.4520    0.3256 C   0  0  1  0  0  0  0  0  0  0  0  0
    0.1611   -4.5444    0.0601 N   0  0  0  0  0  0  0  0  0  0  0  0
    0.5652   -5.3918   -1.0013 C   0  0  0  0  0  0  0  0  0  0  0  0
   -0.4563   -5.9446   -1.5841 O   0  0  0  0  0  0  0  0  0  0  0  0
    1.8405   -5.7516   -1.5478 C   0  0  1  0  0  0  0  0  0  0  0  0
    3.0234   -5.1821   -0.9707 N   0  0  0  0  0  0  0  0  0  0  0  0
    4.2255   -5.2619   -1.7596 C   0  0  0  0  0  0  0  0  0  0  0  0
    4.0480   -5.8402   -2.8665 O   0  0  0  0  0  0  0  0  0  0  0  0
    5.5580   -4.7967   -1.4595 C   0  0  1  0  0  0  0  0  0  0  0  0
    5.7701   -3.6692   -0.5958 N   0  0  0  0  0  0  0  0  0  0  0  0
    7.0977   -3.0623   -0.7144 C   0  0  0  0  0  0  0  0  0  0  0  0
    7.8455   -3.7047   -1.4776 O   0  0  0  0  0  0  0  0  0  0  0  0
    6.3073   -5.9367   -0.6546 C   0  0  0  0  0  0  0  0  0  0  0  0
    6.4240   -7.1659   -1.4352 C   0  0  0  0  0  0  0  0  0  0  0  0
    6.7620   -8.2260   -0.8216 O   0  0  0  0  0  0  0  0  0  0  0  0
    6.1995   -7.2975   -2.8251 N   0  0  0  0  0  0  0  0  0  0  0  0
    1.9208   -7.2807   -1.5726 C   0  0  0  0  0  0  0  0  0  0  0  0
    1.8189   -7.9876   -0.3244 C   0  0  0  0  0  0  0  0  0  0  0  0
    0.6180   -8.4950    0.1683 C   0  0  0  0  0  0  0  0  0  0  0  0
    0.6155   -9.1907    1.3492 C   0  0  0  0  0  0  0  0  0  0  0  0
    1.7898   -9.4095    2.0820 C   0  0  0  0  0  0  0  0  0  0  0  0
    2.9472   -8.9094    1.5871 C   0  0  0  0  0  0  0  0  0  0  0  0
    2.9898   -8.2082    0.4102 C   0  0  0  0  0  0  0  0  0  0  0  0
   -1.5416   -4.3391    1.7900 C   0  0  0  0  0  0  0  0  0  0  0  0
   -1.1688   -5.5307    2.5430 C   0  0  0  0  0  0  0  0  0  0  0  0
    0.0626   -5.7608    3.1170 C   0  0  0  0  0  0  0  0  0  0  0  0
    0.2735   -6.9024    3.8565 C   0  0  0  0  0  0  0  0  0  0  0  0
   -0.6984   -7.8609    4.0670 C   0  0  0  0  0  0  0  0  0  0  0  0
   -1.9238   -7.6405    3.4995 C   0  0  0  0  0  0  0  0  0  0  0  0
   -2.1546   -6.4993    2.7524 C   0  0  0  0  0  0  0  0  0  0  0  0
   -3.3899   -1.6971   -2.5281 C   0  0  0  0  0  0  0  0  0  0  0  0
   -3.9859   -2.9096   -3.0740 C   0  0  0  0  0  0  0  0  0  0  0  0
   -3.3443   -4.1525   -3.1425 C   0  0  0  0  0  0  0  0  0  0  0  0
   -4.1845   -5.0714   -3.6423 N   0  0  0  0  0  0  0  0  0  0  0  0
   -5.3785   -4.5074   -3.9201 C   0  0  0  0  0  0  0  0  0  0  0  0
   -5.2559   -3.1726   -3.5692 C   0  0  0  0  0  0  0  0  0  0  0  0
   -6.3585   -2.3761   -3.7882 C   0  0  0  0  0  0  0  0  0  0  0  0
   -7.5035   -2.8876   -4.3188 C   0  0  0  0  0  0  0  0  0  0  0  0
   -7.6225   -4.2184   -4.6649 C   0  0  0  0  0  0  0  0  0  0  0  0
   -6.5381   -5.0279   -4.4576 C   0  0  0  0  0  0  0  0  0  0  0  0
   -7.9433   -1.7976   -0.0256 C   0  0  0  0  0  0  0  0  0  0  0  0
   -7.6973   -1.8889    1.4337 C   0  0  0  0  0  0  0  0  0  0  0  0
   -8.2024   -3.1302    2.1226 C   0  0  0  0  0  0  0  0  0  0  0  0
   -7.6389   -4.4240    1.6792 C   0  0  0  0  0  0  0  0  0  0  0  0
   -7.9124   -4.6962    0.3024 N   0  0  0  0  0  0  0  0  0  0  0  0
   -8.5482    2.7746    2.6913 C   0  0  2  0  0  0  0  0  0  0  0  0
   -7.2806    3.0596    3.2221 O   0  0  0  0  0  0  0  0  0  0  0  0
   -8.9182    1.4144    3.1780 C   0  0  0  0  0  0  0  0  0  0  0  0
   -3.2729    6.5197   -2.7571 C   0  0  2  0  0  0  0  0  0  0  0  0
   -3.6292    7.8465   -2.7249 O   0  0  0  0  0  0  0  0  0  0  0  0
   -4.1790    5.7597   -3.7002 C   0  0  0  0  0  0  0  0  0  0  0  0
    4.5361    6.3128    2.0475 C   0  0  0  0  0  0  0  0  0  0  0  0
    5.5323    5.7111    2.5438 O   0  0  0  0  0  0  0  0  0  0  0  0
    4.2554    7.5660    2.6322 O   0  0  0  0  0  0  0  0  0  0  0  0
    6.3828    2.5642   -1.0317 N   0  0  0  0  0  0  0  0  0  0  0  0
    7.5465    3.1083   -0.4409 C   0  0  0  0  0  0  0  0  0  0  0  0
    7.8746    2.6751    0.7000 O   0  0  0  0  0  0  0  0  0  0  0  0
    8.3977    4.1307   -1.0572 C   0  0  0  0  0  0  0  0  0  0  0  0
    9.5727    4.4192   -0.2303 N   0  0  0  0  0  0  0  0  0  0  0  0
   10.5187    5.3892   -0.6419 C   0  0  0  0  0  0  0  0  0  0  0  0
   10.3240    6.0123   -1.7206 O   0  0  0  0  0  0  0  0  0  0  0  0
   11.7319    5.6515    0.2092 C   0  0  1  0  0  0  0  0  0  0  0  0
   11.7998    4.7605    1.3482 N   0  0  0  0  0  0  0  0  0  0  0  0
   12.9964    5.4486   -0.6103 C   0  0  0  0  0  0  0  0  0  0  0  0
   12.0882   -3.0498    0.9972 H   0  0  0  0  0  0  0  0  0  0  0  0
   11.5009   -4.0293   -0.2718 H   0  0  0  0  0  0  0  0  0  0  0  0
   11.1340   -4.3304    2.6586 H   0  0  0  0  0  0  0  0  0  0  0  0
   11.0285   -5.7395    1.5589 H   0  0  0  0  0  0  0  0  0  0  0  0
    8.8342   -4.7148    2.0718 H   0  0  0  0  0  0  0  0  0  0  0  0
    9.3017   -4.5976    0.2781 H   0  0  0  0  0  0  0  0  0  0  0  0
    9.9662   -2.4700    2.3967 H   0  0  0  0  0  0  0  0  0  0  0  0
   10.2115   -2.3535    0.6609 H   0  0  0  0  0  0  0  0  0  0  0  0
    8.5902   -0.8728    1.4845 H   0  0  0  0  0  0  0  0  0  0  0  0
    7.4682   -2.1653    2.0677 H   0  0  0  0  0  0  0  0  0  0  0  0
    8.2408   -1.3345   -0.7519 H   0  0  0  0  0  0  0  0  0  0  0  0
    5.5739   -1.1493    0.6310 H   0  0  0  0  0  0  0  0  0  0  0  0
    5.5930    1.8447    0.7586 H   0  0  0  0  0  0  0  0  0  0  0  0
    4.5417    1.2263   -2.1324 H   0  0  0  0  0  0  0  0  0  0  0  0
    3.9067    0.3547   -0.7226 H   0  0  0  0  0  0  0  0  0  0  0  0
    5.0681    6.3956   -0.5837 H   0  0  0  0  0  0  0  0  0  0  0  0
    5.4611    4.8644    0.2135 H   0  0  0  0  0  0  0  0  0  0  0  0
    3.2665    4.7655    1.2061 H   0  0  0  0  0  0  0  0  0  0  0  0
    2.7962    7.7250    0.6346 H   0  0  0  0  0  0  0  0  0  0  0  0
    0.4388    7.9850   -0.6507 H   0  0  0  0  0  0  0  0  0  0  0  0
   -0.9021    8.5615    1.1050 H   0  0  0  0  0  0  0  0  0  0  0  0
    0.6455    8.0965    1.7823 H   0  0  0  0  0  0  0  0  0  0  0  0
   -0.8582    5.8351    1.6988 H   0  0  0  0  0  0  0  0  0  0  0  0
   -0.5741    5.5616   -1.3132 H   0  0  0  0  0  0  0  0  0  0  0  0
   -2.9107    4.8090   -1.6389 H   0  0  0  0  0  0  0  0  0  0  0  0
   -4.5237    5.0353    0.0668 H   0  0  0  0  0  0  0  0  0  0  0  0
   -7.8498    6.3206   -0.4951 H   0  0  0  0  0  0  0  0  0  0  0  0
   -6.0138    6.6006    1.8812 H   0  0  0  0  0  0  0  0  0  0  0  0
   -7.7798    6.6486    1.8378 H   0  0  0  0  0  0  0  0  0  0  0  0
   -4.8313    8.5192    0.9992 H   0  0  0  0  0  0  0  0  0  0  0  0
   -4.7507   10.9188    0.3889 H   0  0  0  0  0  0  0  0  0  0  0  0
   -6.8554   12.0358   -0.0065 H   0  0  0  0  0  0  0  0  0  0  0  0
   -9.0074   10.8214    0.1549 H   0  0  0  0  0  0  0  0  0  0  0  0
   -9.0254    8.3699    0.7567 H   0  0  0  0  0  0  0  0  0  0  0  0
   -6.1547    4.0051    0.3096 H   0  0  0  0  0  0  0  0  0  0  0  0
   -9.5139    2.5444    0.8400 H   0  0  0  0  0  0  0  0  0  0  0  0
   -6.5467    1.7469    0.7891 H   0  0  0  0  0  0  0  0  0  0  0  0
   -7.6675   -0.7150   -1.7497 H   0  0  0  0  0  0  0  0  0  0  0  0
   -5.4674    0.4297   -0.5946 H   0  0  0  0  0  0  0  0  0  0  0  0
   -3.0821   -0.7528   -0.6180 H   0  0  0  0  0  0  0  0  0  0  0  0
   -3.7348   -3.7032   -0.3446 H   0  0  0  0  0  0  0  0  0  0  0  0
   -1.8741   -5.2089   -0.1633 H   0  0  0  0  0  0  0  0  0  0  0  0
    0.8926   -4.0625    0.5615 H   0  0  0  0  0  0  0  0  0  0  0  0
    1.9225   -5.4528   -2.6558 H   0  0  0  0  0  0  0  0  0  0  0  0
    3.1405   -4.7247   -0.0750 H   0  0  0  0  0  0  0  0  0  0  0  0
    6.2002   -4.7656   -2.3708 H   0  0  0  0  0  0  0  0  0  0  0  0
    5.1733   -3.2302    0.0763 H   0  0  0  0  0  0  0  0  0  0  0  0
    7.2202   -5.5496   -0.2149 H   0  0  0  0  0  0  0  0  0  0  0  0
    5.5836   -6.1303    0.1899 H   0  0  0  0  0  0  0  0  0  0  0  0
    6.6367   -6.5687   -3.4392 H   0  0  0  0  0  0  0  0  0  0  0  0
    5.6199   -8.0955   -3.2153 H   0  0  0  0  0  0  0  0  0  0  0  0
    2.8221   -7.5522   -2.1401 H   0  0  0  0  0  0  0  0  0  0  0  0
    1.0744   -7.6730   -2.2297 H   0  0  0  0  0  0  0  0  0  0  0  0
   -0.3120   -8.3691   -0.3562 H   0  0  0  0  0  0  0  0  0  0  0  0
   -0.3063   -9.5884    1.7546 H   0  0  0  0  0  0  0  0  0  0  0  0
    1.7649   -9.9610    3.0177 H   0  0  0  0  0  0  0  0  0  0  0  0
    3.8884   -9.0429    2.1081 H   0  0  0  0  0  0  0  0  0  0  0  0
    3.9308   -7.8338    0.0540 H   0  0  0  0  0  0  0  0  0  0  0  0
   -2.6180   -4.0733    1.9731 H   0  0  0  0  0  0  0  0  0  0  0  0
   -0.9478   -3.4833    2.1970 H   0  0  0  0  0  0  0  0  0  0  0  0
    0.8442   -5.0442    2.9793 H   0  0  0  0  0  0  0  0  0  0  0  0
    1.2474   -7.1119    4.3264 H   0  0  0  0  0  0  0  0  0  0  0  0
   -0.5566   -8.7570    4.6400 H   0  0  0  0  0  0  0  0  0  0  0  0
   -2.7264   -8.3824    3.6309 H   0  0  0  0  0  0  0  0  0  0  0  0
   -3.1439   -6.3884    2.3346 H   0  0  0  0  0  0  0  0  0  0  0  0
   -2.3058   -1.7144   -2.7275 H   0  0  0  0  0  0  0  0  0  0  0  0
   -3.8681   -0.8151   -3.0104 H   0  0  0  0  0  0  0  0  0  0  0  0
   -2.3265   -4.3884   -2.8538 H   0  0  0  0  0  0  0  0  0  0  0  0
   -4.0050   -6.0866   -3.8120 H   0  0  0  0  0  0  0  0  0  0  0  0
   -6.2394   -1.3254   -3.5132 H   0  0  0  0  0  0  0  0  0  0  0  0
   -8.3796   -2.2488   -4.4925 H   0  0  0  0  0  0  0  0  0  0  0  0
   -8.5260   -4.6374   -5.0914 H   0  0  0  0  0  0  0  0  0  0  0  0
   -6.6328   -6.0884   -4.7335 H   0  0  0  0  0  0  0  0  0  0  0  0
   -7.8283   -2.6639   -0.6528 H   0  0  0  0  0  0  0  0  0  0  0  0
   -9.0892   -1.6048   -0.0885 H   0  0  0  0  0  0  0  0  0  0  0  0
   -8.1733   -1.0481    2.0005 H   0  0  0  0  0  0  0  0  0  0  0  0
   -6.5952   -1.7677    1.6819 H   0  0  0  0  0  0  0  0  0  0  0  0
   -9.3175   -3.1096    2.0582 H   0  0  0  0  0  0  0  0  0  0  0  0
   -8.0098   -3.0616    3.2376 H   0  0  0  0  0  0  0  0  0  0  0  0
   -6.5489   -4.4883    1.9215 H   0  0  0  0  0  0  0  0  0  0  0  0
   -8.1581   -5.2370    2.2669 H   0  0  0  0  0  0  0  0  0  0  0  0
   -8.9500   -4.6360    0.1354 H   0  0  0  0  0  0  0  0  0  0  0  0
   -7.5180   -5.6379    0.0740 H   0  0  0  0  0  0  0  0  0  0  0  0
   -9.2903    3.5299    2.9685 H   0  0  0  0  0  0  0  0  0  0  0  0
   -6.5746    2.7649    2.5959 H   0  0  0  0  0  0  0  0  0  0  0  0
   -9.6454    0.9193    2.5139 H   0  0  0  0  0  0  0  0  0  0  0  0
   -8.0312    0.7909    3.4247 H   0  0  0  0  0  0  0  0  0  0  0  0
   -9.4754    1.5116    4.1606 H   0  0  0  0  0  0  0  0  0  0  0  0
   -2.2362    6.4079   -3.1416 H   0  0  0  0  0  0  0  0  0  0  0  0
   -2.8988    8.4749   -2.4717 H   0  0  0  0  0  0  0  0  0  0  0  0
   -3.6069    4.8991   -4.1115 H   0  0  0  0  0  0  0  0  0  0  0  0
   -4.5078    6.4837   -4.4829 H   0  0  0  0  0  0  0  0  0  0  0  0
   -5.0610    5.4002   -3.1477 H   0  0  0  0  0  0  0  0  0  0  0  0
    4.7535    7.8989    3.4480 H   0  0  0  0  0  0  0  0  0  0  0  0
    6.0742    2.8789   -1.9696 H   0  0  0  0  0  0  0  0  0  0  0  0
    7.8790    5.0378   -1.3762 H   0  0  0  0  0  0  0  0  0  0  0  0
    8.8526    3.6973   -2.0037 H   0  0  0  0  0  0  0  0  0  0  0  0
    9.6698    3.8689    0.6719 H   0  0  0  0  0  0  0  0  0  0  0  0
   11.6888    6.6708    0.5745 H   0  0  0  0  0  0  0  0  0  0  0  0
   12.0178    3.8023    1.0375 H   0  0  0  0  0  0  0  0  0  0  0  0
   10.9657    4.8484    1.9338 H   0  0  0  0  0  0  0  0  0  0  0  0
   13.8413    5.2353    0.0622 H   0  0  0  0  0  0  0  0  0  0  0  0
   12.8418    4.6111   -1.3096 H   0  0  0  0  0  0  0  0  0  0  0  0
   13.2177    6.3812   -1.1475 H   0  0  0  0  0  0  0  0  0  0  0  0
  1  2  1  0
  2  3  1  0
  3  4  1  0
  4  5  1  0
  5  6  1  0
  6  7  1  0
  7  8  1  0
  8  9  2  0
  8 10  1  0
 10 11  1  0
 11 12  1  0
 12 13  1  0
 13 14  1  0
 14 15  1  0
 15 16  1  0
 16 17  1  0
 17 18  2  0
 17 19  1  0
 19 20  1  0
 20 21  1  0
 19 22  1  0
 22 23  1  0
 23 24  2  0
 23 25  1  0
 25 26  1  0
 26 27  1  0
 27 28  2  0
 27 29  1  0
 29 30  1  0
 30 31  1  0
 31 32  2  0
 32 33  1  0
 33 34  2  0
 34 35  1  0
 35 36  2  0
 29 37  1  0
 37 38  1  0
 38 39  2  0
 38 40  1  0
 40 41  1  0
 41 42  1  0
 42 43  2  0
 42 44  1  0
 44 45  1  0
 45 46  1  0
 46 47  2  0
 46 48  1  0
 48 49  1  0
 49 50  1  0
 50 51  2  0
 50 52  1  0
 52 53  1  0
 53 54  1  0
 54 55  2  0
 54 56  1  0
 56 57  1  0
 57 58  1  0
 58 59  2  0
 58 60  1  0
 60 61  1  0
 61 62  1  0
 62 63  2  0
 60 64  1  0
 64 65  1  0
 65 66  2  0
 65 67  1  0
 56 68  1  0
 68 69  1  0
 69 70  2  0
 70 71  1  0
 71 72  2  0
 72 73  1  0
 73 74  2  0
 52 75  1  0
 75 76  1  0
 76 77  2  0
 77 78  1  0
 78 79  2  0
 79 80  1  0
 80 81  2  0
 48 82  1  0
 82 83  1  0
 83 84  2  0
 84 85  1  0
 85 86  1  0
 86 87  2  0
 87 88  1  0
 88 89  2  0
 89 90  1  0
 90 91  2  0
 44 92  1  0
 92 93  1  0
 93 94  1  0
 94 95  1  0
 95 96  1  0
 40 97  1  0
 97 98  1  0
 97 99  1  0
 25100  1  0
100101  1  0
100102  1  0
 15103  1  0
103104  2  0
103105  1  0
 10106  1  0
106107  1  0
107108  2  0
107109  1  0
109110  1  0
110111  1  0
111112  2  0
111113  1  0
113114  1  0
113115  1  0
 62  6  1  0
 74 69  1  0
 81 76  1  0
 87 83  1  0
 36 31  1  0
 91 86  1  0
  1116  1  0
  1117  1  0
  2118  1  0
  2119  1  0
  3120  1  0
  3121  1  0
  4122  1  0
  4123  1  0
  5124  1  0
  5125  1  0
  6126  1  6
  7127  1  0
 10128  1  1
 11129  1  0
 11130  1  0
 14131  1  0
 14132  1  0
 15133  1  1
 16134  1  0
 19135  1  6
 20136  1  0
 20137  1  0
 21138  1  0
 22139  1  0
 25140  1  6
 26141  1  0
 29142  1  6
 30143  1  0
 30144  1  0
 32145  1  0
 33146  1  0
 34147  1  0
 35148  1  0
 36149  1  0
 37150  1  0
 40151  1  6
 41152  1  0
 44153  1  6
 45154  1  0
 48155  1  1
 49156  1  0
 52157  1  6
 53158  1  0
 56159  1  6
 57160  1  0
 60161  1  6
 61162  1  0
 64163  1  0
 64164  1  0
 67165  1  0
 67166  1  0
 68167  1  0
 68168  1  0
 70169  1  0
 71170  1  0
 72171  1  0
 73172  1  0
 74173  1  0
 75174  1  0
 75175  1  0
 77176  1  0
 78177  1  0
 79178  1  0
 80179  1  0
 81180  1  0
 82181  1  0
 82182  1  0
 84183  1  0
 85184  1  0
 88185  1  0
 89186  1  0
 90187  1  0
 91188  1  0
 92189  1  0
 92190  1  0
 93191  1  0
 93192  1  0
 94193  1  0
 94194  1  0
 95195  1  0
 95196  1  0
 96197  1  0
 96198  1  0
 97199  1  6
 98200  1  0
 99201  1  0
 99202  1  0
 99203  1  0
100204  1  6
101205  1  0
102206  1  0
102207  1  0
102208  1  0
105209  1  0
106210  1  0
109211  1  0
109212  1  0
110213  1  0
113214  1  1
114215  1  0
114216  1  0
115217  1  0
115218  1  0
115219  1  0
M  END
>  <Ligand ID>  (1) 
LIG0002194

>  <Ligand>  (1) 
SOMATOSTATIN

>  <SMILES>  (1) 
NCCCC[C@@H]1NC(=O)[C@H](CSSC[C@H](NC(=O)[C@H](CO)NC(=O)[C@@H](NC(=O)[C@H](Cc2ccccc2)NC(=O)[C@@H](NC(=O)[C@@H](NC(=O)[C@@H](NC(=O)[C@@H](NC(=O)[C@@H](NC(=O)[C@@H](NC1=O)CC(=O)N)Cc1ccccc1)Cc1ccccc1)Cc1c[nH]c2c1cccc2)CCCCN)[C@H](O)C)[C@H](O)C)C(=O)O)NC(=O)CNC(=O)[C@@H](N)C

>  <CID>  (1) 
16129706.0

>  <ChEMBL ID>  (1) 
nan

>  <InChiKey>  (1) 
NHXLMOGPVYXJNR-ATOGVRKGSA-N

>  <InChi>  (1) 
InChI=1S/C76H104N18O19S2/c1-41(79)64(100)82-37-61(99)83-58-39-114-115-40-59(76(112)113)92-72(108)57(38-95)91-75(111)63(43(3)97)94-71(107)54(33-46-23-11-6-12-24-46)90-74(110)62(42(2)96)93-66(102)51(28-16-18-30-78)84-69(105)55(34-47-36-81-49-26-14-13-25-48(47)49)88-68(104)53(32-45-21-9-5-10-22-45)86-67(103)52(31-44-19-7-4-8-20-44)87-70(106)56(35-60(80)98)89-65(101)50(85-73(58)109)27-15-17-29-77/h4-14,19-26,36,41-43,50-59,62-63,81,95-97H,15-18,27-35,37-40,77-79H2,1-3H3,(H2,80,98)(H,82,100)(H,83,99)(H,84,105)(H,85,109)(H,86,103)(H,87,106)(H,88,104)(H,89,101)(H,90,110)(H,91,111)(H,92,108)(H,93,102)(H,94,107)(H,112,113)/t41-,42+,43+,50-,51-,52-,53-,54-,55-,56-,57-,58-,59-,62-,63-/m0/s1

>  <IUPAC Name>  (1) 
(4R,7S,10S,13S,16S,19S,22S,25S,28S,31S,34S,37R)-19,34-bis(4-aminobutyl)-31-(2-amino-2-oxoethyl)-37-[[2-[[(2S)-2-aminopropanoyl]amino]acetyl]amino]-13,25,28-tribenzyl-10,16-bis[(1R)-1-hydroxyethyl]-7-(hydroxymethyl)-22-(1H-indol-3-ylmethyl)-6,9,12,15,18,21,24,27,30,33,36-undecaoxo-1,2-dithia-5,8,11,14,17,20,23,26,29,32,35-undecazacyclooctatriacontane-4-carboxylic acid

$$$$
