
     RDKit          3D

 65 69  0  0  0  0  0  0  0  0999 V2000
    1.5446    8.4770   -2.3685 O   0  0  0  0  0  0  0  0  0  0  0  0
    2.1295    7.2305   -2.4618 C   0  0  0  0  0  0  0  0  0  0  0  0
    1.1324    6.2009   -1.9670 C   0  0  0  0  0  0  0  0  0  0  0  0
    1.6376    4.9062   -2.0262 O   0  0  0  0  0  0  0  0  0  0  0  0
    0.8917    3.8115   -1.6037 C   0  0  0  0  0  0  0  0  0  0  0  0
    1.4673    2.6037   -1.7127 N   0  0  0  0  0  0  0  0  0  0  0  0
    0.8915    1.4408   -1.3497 C   0  0  0  0  0  0  0  0  0  0  0  0
    1.3805    0.1566   -1.4136 N   0  0  0  0  0  0  0  0  0  0  0  0
    1.8749   -1.1127   -1.4812 C   0  0  0  0  0  0  0  0  0  0  0  0
    2.9949   -1.4947   -0.5290 C   0  0  0  0  0  0  0  0  0  0  0  0
    4.0905   -0.6788   -0.3288 C   0  0  0  0  0  0  0  0  0  0  0  0
    5.0931   -1.1857    0.5099 C   0  0  0  0  0  0  0  0  0  0  0  0
    5.0700   -2.3821    1.1220 C   0  0  0  0  0  0  0  0  0  0  0  0
    3.9687   -3.2022    0.9177 C   0  0  0  0  0  0  0  0  0  0  0  0
    2.9711   -2.7296    0.1032 C   0  0  0  0  0  0  0  0  0  0  0  0
    3.9073   -4.5680    1.5312 C   0  0  0  0  0  0  0  0  0  0  0  0
    5.0804   -4.9246    2.1613 F   0  0  0  0  0  0  0  0  0  0  0  0
    3.7734   -5.4851    0.4875 F   0  0  0  0  0  0  0  0  0  0  0  0
    2.8547   -4.6890    2.3910 F   0  0  0  0  0  0  0  0  0  0  0  0
   -0.4024    1.5815   -0.8274 C   0  0  0  0  0  0  0  0  0  0  0  0
   -1.0175    2.8050   -0.7058 C   0  0  0  0  0  0  0  0  0  0  0  0
   -0.3430    3.8878   -1.1012 N   0  0  0  0  0  0  0  0  0  0  0  0
   -2.2831    2.9181   -0.1851 C   0  0  0  0  0  0  0  0  0  0  0  0
   -3.0080    1.8424    0.2403 C   0  0  0  0  0  0  0  0  0  0  0  0
   -2.3988    0.5799    0.1282 C   0  0  0  0  0  0  0  0  0  0  0  0
   -1.1161    0.4538   -0.3986 C   0  0  0  0  0  0  0  0  0  0  0  0
   -3.1168   -0.5949    0.5925 C   0  0  0  0  0  0  0  0  0  0  0  0
   -3.0605   -1.7894   -0.2385 C   0  0  0  0  0  0  0  0  0  0  0  0
   -3.0816   -1.6533   -1.6321 C   0  0  0  0  0  0  0  0  0  0  0  0
   -3.0457   -2.7613   -2.4716 C   0  0  0  0  0  0  0  0  0  0  0  0
   -2.9907   -4.0365   -1.9262 C   0  0  0  0  0  0  0  0  0  0  0  0
   -2.9733   -4.1242   -0.5736 C   0  0  0  0  0  0  0  0  0  0  0  0
   -3.0040   -3.0812    0.3160 C   0  0  0  0  0  0  0  0  0  0  0  0
   -2.9262   -5.4854   -2.9006 Cl  0  0  0  0  0  0  0  0  0  0  0  0
   -2.6867   -0.8633    1.9961 C   0  0  0  0  0  0  0  0  0  0  0  0
   -3.7080   -1.3636    2.8312 C   0  0  0  0  0  0  0  0  0  0  0  0
   -3.3721   -1.6082    4.1447 C   0  0  0  0  0  0  0  0  0  0  0  0
   -2.0809   -1.3810    4.6478 C   0  0  0  0  0  0  0  0  0  0  0  0
   -1.1313   -0.8921    3.7754 C   0  0  0  0  0  0  0  0  0  0  0  0
   -1.4544   -0.6359    2.4389 C   0  0  0  0  0  0  0  0  0  0  0  0
   -1.6493   -1.6956    6.2995 Cl  0  0  0  0  0  0  0  0  0  0  0  0
    1.0845    8.7639   -3.2111 H   0  0  0  0  0  0  0  0  0  0  0  0
    2.4629    7.0771   -3.4890 H   0  0  0  0  0  0  0  0  0  0  0  0
    3.0104    7.2198   -1.7606 H   0  0  0  0  0  0  0  0  0  0  0  0
    0.2156    6.2958   -2.6101 H   0  0  0  0  0  0  0  0  0  0  0  0
    0.8019    6.4881   -0.9592 H   0  0  0  0  0  0  0  0  0  0  0  0
    2.5199    0.6078   -1.9190 H   0  0  0  0  0  0  0  0  0  0  0  0
    1.0384   -1.8903   -1.1766 H   0  0  0  0  0  0  0  0  0  0  0  0
    2.1382   -1.5060   -2.5146 H   0  0  0  0  0  0  0  0  0  0  0  0
    4.1652    0.2767   -0.7856 H   0  0  0  0  0  0  0  0  0  0  0  0
    5.9563   -0.5206    0.6562 H   0  0  0  0  0  0  0  0  0  0  0  0
    5.8445   -2.7783    1.7630 H   0  0  0  0  0  0  0  0  0  0  0  0
    2.1233   -3.3957   -0.0463 H   0  0  0  0  0  0  0  0  0  0  0  0
   -2.6997    3.9258   -0.1026 H   0  0  0  0  0  0  0  0  0  0  0  0
   -4.0026    1.8792    0.6691 H   0  0  0  0  0  0  0  0  0  0  0  0
   -0.6399   -0.4778   -0.5052 H   0  0  0  0  0  0  0  0  0  0  0  0
   -4.2218   -0.3198    0.6411 H   0  0  0  0  0  0  0  0  0  0  0  0
   -3.1287   -0.6761   -2.0295 H   0  0  0  0  0  0  0  0  0  0  0  0
   -3.0491   -2.6382   -3.5574 H   0  0  0  0  0  0  0  0  0  0  0  0
   -2.9431   -5.1341   -0.1326 H   0  0  0  0  0  0  0  0  0  0  0  0
   -2.9862   -3.1748    1.3902 H   0  0  0  0  0  0  0  0  0  0  0  0
   -4.7070   -1.5501    2.4712 H   0  0  0  0  0  0  0  0  0  0  0  0
   -4.1264   -1.9969    4.8324 H   0  0  0  0  0  0  0  0  0  0  0  0
   -0.1230   -0.7016    4.0984 H   0  0  0  0  0  0  0  0  0  0  0  0
   -0.6375   -0.2518    1.8461 H   0  0  0  0  0  0  0  0  0  0  0  0
  1  2  1  0
  2  3  1  0
  3  4  1  0
  4  5  1  0
  5  6  2  0
  6  7  1  0
  7  8  1  0
  8  9  1  0
  9 10  1  0
 10 11  2  0
 11 12  1  0
 12 13  2  0
 13 14  1  0
 14 15  2  0
 14 16  1  0
 16 17  1  0
 16 18  1  0
 16 19  1  0
  7 20  2  0
 20 21  1  0
 21 22  2  0
 21 23  1  0
 23 24  2  0
 24 25  1  0
 25 26  2  0
 25 27  1  0
 27 28  1  0
 28 29  2  0
 29 30  1  0
 30 31  2  0
 31 32  1  0
 32 33  2  0
 31 34  1  0
 27 35  1  0
 35 36  2  0
 36 37  1  0
 37 38  2  0
 38 39  1  0
 39 40  2  0
 38 41  1  0
 22  5  1  0
 33 28  1  0
 40 35  1  0
 15 10  1  0
 26 20  1  0
  1 42  1  0
  2 43  1  0
  2 44  1  0
  3 45  1  0
  3 46  1  0
  8 47  1  0
  9 48  1  0
  9 49  1  0
 11 50  1  0
 12 51  1  0
 13 52  1  0
 15 53  1  0
 23 54  1  0
 24 55  1  0
 26 56  1  0
 27 57  1  0
 29 58  1  0
 30 59  1  0
 32 60  1  0
 33 61  1  0
 36 62  1  0
 37 63  1  0
 39 64  1  0
 40 65  1  0
M  END
>  <Ligand ID>  (1) 
LIG0005810

>  <Ligand>  (1) 
SCHEMBL17557554

>  <SMILES>  (1) 
OCCOc1nc(NCc2cccc(c2)C(F)(F)F)c2c(n1)ccc(c2)C(c1ccc(cc1)Cl)c1ccc(cc1)Cl

>  <CID>  (1) 
118916040.0

>  <ChEMBL ID>  (1) 
nan

>  <InChiKey>  (1) 
UQFPWHOVXABWIZ-UHFFFAOYSA-N

>  <InChi>  (1) 
InChI=1S/C31H24Cl2F3N3O2/c32-24-9-4-20(5-10-24)28(21-6-11-25(33)12-7-21)22-8-13-27-26(17-22)29(39-30(38-27)41-15-14-40)37-18-19-2-1-3-23(16-19)31(34,35)36/h1-13,16-17,28,40H,14-15,18H2,(H,37,38,39)

>  <IUPAC Name>  (1) 
2-[6-[bis(4-chlorophenyl)methyl]-4-[[3-(trifluoromethyl)phenyl]methylamino]quinazolin-2-yl]oxyethanol

$$$$
