
     RDKit          3D

120124  0  0  0  0  0  0  0  0999 V2000
   -6.4140   -5.5735   -0.0222 C   0  0  0  0  0  0  0  0  0  0  0  0
   -6.3876   -4.0531   -0.1429 C   0  0  0  0  0  0  0  0  0  0  0  0
   -5.9745   -3.4015    1.1334 C   0  0  0  0  0  0  0  0  0  0  0  0
   -5.9165   -1.9271    1.0617 C   0  0  0  0  0  0  0  0  0  0  0  0
   -4.8568   -1.4115    0.0716 C   0  0  2  0  0  0  0  0  0  0  0  0
   -3.5479   -1.8473    0.4785 N   0  0  0  0  0  0  0  0  0  0  0  0
   -2.7359   -2.8390   -0.1299 C   0  0  0  0  0  0  0  0  0  0  0  0
   -3.1836   -3.4436   -1.0851 O   0  0  0  0  0  0  0  0  0  0  0  0
   -1.3819   -3.0434    0.4919 C   0  0  0  0  0  0  0  0  0  0  0  0
   -0.8542   -4.3771    0.0415 C   0  0  0  0  0  0  0  0  0  0  0  0
    0.4909   -4.6371    0.7395 C   0  0  2  0  0  0  0  0  0  0  0  0
    1.4371   -3.6906    0.2325 N   0  0  0  0  0  0  0  0  0  0  0  0
    1.7373   -2.4085    0.7556 C   0  0  0  0  0  0  0  0  0  0  0  0
    1.0770   -2.0370    1.7349 O   0  0  0  0  0  0  0  0  0  0  0  0
    2.7575   -1.4903    0.2180 C   0  0  1  0  0  0  0  0  0  0  0  0
    2.3047   -0.1068    0.2566 N   0  0  0  0  0  0  0  0  0  0  0  0
    3.0144    0.9447   -0.4297 C   0  0  0  0  0  0  0  0  0  0  0  0
    4.1203    0.6060   -0.8721 O   0  0  0  0  0  0  0  0  0  0  0  0
    2.5171    2.3084   -0.5949 C   0  0  1  0  0  0  0  0  0  0  0  0
    1.0451    2.3557   -0.6294 N   0  0  0  0  0  0  0  0  0  0  0  0
    0.4336    3.0756   -1.7048 C   0  0  0  0  0  0  0  0  0  0  0  0
    1.2420    3.6684   -2.4524 O   0  0  0  0  0  0  0  0  0  0  0  0
   -0.9892    3.1867   -2.0016 C   0  0  2  0  0  0  0  0  0  0  0  0
   -1.9026    2.4274   -1.1715 N   0  0  0  0  0  0  0  0  0  0  0  0
   -3.0201    3.0839   -0.5143 C   0  0  0  0  0  0  0  0  0  0  0  0
   -3.0492    4.3111   -0.7046 O   0  0  0  0  0  0  0  0  0  0  0  0
   -4.0171    2.3697    0.2983 C   0  0  1  0  0  0  0  0  0  0  0  0
   -3.8899    0.9591    0.3534 N   0  0  0  0  0  0  0  0  0  0  0  0
   -4.9681    0.0648   -0.0188 C   0  0  0  0  0  0  0  0  0  0  0  0
   -5.9840    0.6587   -0.4148 O   0  0  0  0  0  0  0  0  0  0  0  0
   -4.0404    3.0640    1.6388 C   0  0  0  0  0  0  0  0  0  0  0  0
   -2.7314    3.0455    2.3412 C   0  0  0  0  0  0  0  0  0  0  0  0
   -1.6966    3.9737    2.2717 C   0  0  0  0  0  0  0  0  0  0  0  0
   -0.7133    3.5466    3.0757 N   0  0  0  0  0  0  0  0  0  0  0  0
   -1.0697    2.3962    3.6516 C   0  0  0  0  0  0  0  0  0  0  0  0
   -2.3134    2.0786    3.2048 N   0  0  0  0  0  0  0  0  0  0  0  0
   -1.3323    2.8060   -3.4488 C   0  0  0  0  0  0  0  0  0  0  0  0
   -0.6667    3.6307   -4.4543 C   0  0  0  0  0  0  0  0  0  0  0  0
    0.5242    3.3255   -5.0770 C   0  0  0  0  0  0  0  0  0  0  0  0
    1.1151    4.1588   -6.0201 C   0  0  0  0  0  0  0  0  0  0  0  0
    0.4732    5.3513   -6.3468 C   0  0  0  0  0  0  0  0  0  0  0  0
   -0.7073    5.6662   -5.7380 C   0  0  0  0  0  0  0  0  0  0  0  0
   -1.2915    4.8365   -4.8016 C   0  0  0  0  0  0  0  0  0  0  0  0
    3.0195    3.1793    0.5748 C   0  0  0  0  0  0  0  0  0  0  0  0
    2.4594    4.5636    0.3250 C   0  0  0  0  0  0  0  0  0  0  0  0
    2.8848    5.5273    1.4281 C   0  0  0  0  0  0  0  0  0  0  0  0
    2.3502    4.9686    2.6536 N   0  0  0  0  0  0  0  0  0  0  0  0
    2.9884    4.8346    3.7497 C   0  0  0  0  0  0  0  0  0  0  0  0
    2.2646    4.2530    4.8501 N   0  0  0  0  0  0  0  0  0  0  0  0
    4.3477    5.2191    3.9419 N   0  0  0  0  0  0  0  0  0  0  0  0
    4.0269   -1.6008    1.1155 C   0  0  0  0  0  0  0  0  0  0  0  0
    4.4786   -3.0182    1.0463 C   0  0  0  0  0  0  0  0  0  0  0  0
    4.3271   -4.0260    1.9742 C   0  0  0  0  0  0  0  0  0  0  0  0
    4.9027   -5.1234    1.4431 N   0  0  0  0  0  0  0  0  0  0  0  0
    5.4097   -4.8745    0.2365 C   0  0  0  0  0  0  0  0  0  0  0  0
    5.1566   -3.5463   -0.0436 C   0  0  0  0  0  0  0  0  0  0  0  0
    5.5642   -2.9765   -1.2353 C   0  0  0  0  0  0  0  0  0  0  0  0
    6.2348   -3.7428   -2.1627 C   0  0  0  0  0  0  0  0  0  0  0  0
    6.5062   -5.0780   -1.9164 C   0  0  0  0  0  0  0  0  0  0  0  0
    6.0868   -5.5986   -0.7298 C   0  0  0  0  0  0  0  0  0  0  0  0
    0.8484   -6.0414    0.6108 C   0  0  0  0  0  0  0  0  0  0  0  0
    1.9190   -6.4322    0.0911 O   0  0  0  0  0  0  0  0  0  0  0  0
   -0.0487   -7.0311    1.0924 N   0  0  0  0  0  0  0  0  0  0  0  0
   -7.2816   -5.9186    0.5864 H   0  0  0  0  0  0  0  0  0  0  0  0
   -5.4934   -5.8973    0.5030 H   0  0  0  0  0  0  0  0  0  0  0  0
   -6.5060   -6.0513   -1.0179 H   0  0  0  0  0  0  0  0  0  0  0  0
   -5.8109   -3.7492   -1.0092 H   0  0  0  0  0  0  0  0  0  0  0  0
   -7.4755   -3.7822   -0.3194 H   0  0  0  0  0  0  0  0  0  0  0  0
   -4.9333   -3.7688    1.3557 H   0  0  0  0  0  0  0  0  0  0  0  0
   -6.6530   -3.6887    1.9659 H   0  0  0  0  0  0  0  0  0  0  0  0
   -5.7881   -1.4699    2.0482 H   0  0  0  0  0  0  0  0  0  0  0  0
   -6.8837   -1.5323    0.6475 H   0  0  0  0  0  0  0  0  0  0  0  0
   -5.1004   -1.8502   -0.8989 H   0  0  0  0  0  0  0  0  0  0  0  0
   -3.1436   -1.4011    1.3163 H   0  0  0  0  0  0  0  0  0  0  0  0
   -0.7482   -2.2854   -0.0415 H   0  0  0  0  0  0  0  0  0  0  0  0
   -1.4260   -2.9326    1.5731 H   0  0  0  0  0  0  0  0  0  0  0  0
   -0.6826   -4.3956   -1.0352 H   0  0  0  0  0  0  0  0  0  0  0  0
   -1.4893   -5.2261    0.3265 H   0  0  0  0  0  0  0  0  0  0  0  0
    0.2309   -4.4250    1.8170 H   0  0  0  0  0  0  0  0  0  0  0  0
    1.9760   -3.9403   -0.6101 H   0  0  0  0  0  0  0  0  0  0  0  0
    3.1201   -1.7280   -0.7697 H   0  0  0  0  0  0  0  0  0  0  0  0
    1.4771    0.2259    0.7613 H   0  0  0  0  0  0  0  0  0  0  0  0
    2.9437    2.7981   -1.4804 H   0  0  0  0  0  0  0  0  0  0  0  0
    0.4216    1.9309    0.0343 H   0  0  0  0  0  0  0  0  0  0  0  0
   -1.2378    4.2794   -1.9611 H   0  0  0  0  0  0  0  0  0  0  0  0
   -1.8531    1.4285   -0.9789 H   0  0  0  0  0  0  0  0  0  0  0  0
   -5.0263    2.6292   -0.1509 H   0  0  0  0  0  0  0  0  0  0  0  0
   -3.0433    0.4829    0.6514 H   0  0  0  0  0  0  0  0  0  0  0  0
   -4.8907    2.7959    2.2643 H   0  0  0  0  0  0  0  0  0  0  0  0
   -4.2044    4.1462    1.3706 H   0  0  0  0  0  0  0  0  0  0  0  0
   -1.6907    4.8760    1.6755 H   0  0  0  0  0  0  0  0  0  0  0  0
   -0.4637    1.8149    4.3585 H   0  0  0  0  0  0  0  0  0  0  0  0
   -2.8741    1.2464    3.4609 H   0  0  0  0  0  0  0  0  0  0  0  0
   -2.4342    2.7511   -3.5553 H   0  0  0  0  0  0  0  0  0  0  0  0
   -0.9998    1.7285   -3.5229 H   0  0  0  0  0  0  0  0  0  0  0  0
    1.0247    2.4023   -4.8361 H   0  0  0  0  0  0  0  0  0  0  0  0
    2.0465    3.9226   -6.5080 H   0  0  0  0  0  0  0  0  0  0  0  0
    0.9494    6.0052   -7.0950 H   0  0  0  0  0  0  0  0  0  0  0  0
   -1.1909    6.5995   -6.0071 H   0  0  0  0  0  0  0  0  0  0  0  0
   -2.2193    5.1500   -4.3657 H   0  0  0  0  0  0  0  0  0  0  0  0
    4.1045    3.2528    0.4167 H   0  0  0  0  0  0  0  0  0  0  0  0
    2.6948    2.7934    1.5417 H   0  0  0  0  0  0  0  0  0  0  0  0
    1.3579    4.5793    0.2451 H   0  0  0  0  0  0  0  0  0  0  0  0
    2.8574    4.9496   -0.6437 H   0  0  0  0  0  0  0  0  0  0  0  0
    2.4571    6.5098    1.1792 H   0  0  0  0  0  0  0  0  0  0  0  0
    3.9944    5.5418    1.4086 H   0  0  0  0  0  0  0  0  0  0  0  0
    2.6540    3.4107    5.3378 H   0  0  0  0  0  0  0  0  0  0  0  0
    1.3547    4.6426    5.1860 H   0  0  0  0  0  0  0  0  0  0  0  0
    4.5825    6.2301    4.1560 H   0  0  0  0  0  0  0  0  0  0  0  0
    5.0864    4.4912    3.8671 H   0  0  0  0  0  0  0  0  0  0  0  0
    4.7675   -0.9230    0.7093 H   0  0  0  0  0  0  0  0  0  0  0  0
    3.7215   -1.4030    2.1556 H   0  0  0  0  0  0  0  0  0  0  0  0
    3.8331   -3.9043    2.9288 H   0  0  0  0  0  0  0  0  0  0  0  0
    4.9526   -6.0610    1.9076 H   0  0  0  0  0  0  0  0  0  0  0  0
    5.3905   -1.9436   -1.4972 H   0  0  0  0  0  0  0  0  0  0  0  0
    6.5745   -3.3348   -3.1145 H   0  0  0  0  0  0  0  0  0  0  0  0
    7.0386   -5.6475   -2.6770 H   0  0  0  0  0  0  0  0  0  0  0  0
    6.2953   -6.6401   -0.5318 H   0  0  0  0  0  0  0  0  0  0  0  0
    0.0527   -7.3318    2.0811 H   0  0  0  0  0  0  0  0  0  0  0  0
   -0.7964   -7.4508    0.4696 H   0  0  0  0  0  0  0  0  0  0  0  0
  1  2  1  0
  2  3  1  0
  3  4  1  0
  4  5  1  0
  5  6  1  0
  6  7  1  0
  7  8  2  0
  7  9  1  0
  9 10  1  0
 10 11  1  0
 11 12  1  0
 12 13  1  0
 13 14  2  0
 13 15  1  0
 15 16  1  0
 16 17  1  0
 17 18  2  0
 17 19  1  0
 19 20  1  0
 20 21  1  0
 21 22  2  0
 21 23  1  0
 23 24  1  0
 24 25  1  0
 25 26  2  0
 25 27  1  0
 27 28  1  0
 28 29  1  0
 29 30  2  0
 27 31  1  0
 31 32  1  0
 32 33  2  0
 33 34  1  0
 34 35  2  0
 35 36  1  0
 23 37  1  0
 37 38  1  0
 38 39  2  0
 39 40  1  0
 40 41  2  0
 41 42  1  0
 42 43  2  0
 19 44  1  0
 44 45  1  0
 45 46  1  0
 46 47  1  0
 47 48  2  3
 48 49  1  0
 48 50  1  0
 15 51  1  0
 51 52  1  0
 52 53  2  0
 53 54  1  0
 54 55  1  0
 55 56  2  0
 56 57  1  0
 57 58  2  0
 58 59  1  0
 59 60  2  0
 11 61  1  0
 61 62  2  0
 61 63  1  0
 29  5  1  0
 36 32  1  0
 43 38  1  0
 56 52  1  0
 60 55  1  0
  1 64  1  0
  1 65  1  0
  1 66  1  0
  2 67  1  0
  2 68  1  0
  3 69  1  0
  3 70  1  0
  4 71  1  0
  4 72  1  0
  5 73  1  6
  6 74  1  0
  9 75  1  0
  9 76  1  0
 10 77  1  0
 10 78  1  0
 11 79  1  1
 12 80  1  0
 15 81  1  6
 16 82  1  0
 19 83  1  6
 20 84  1  0
 23 85  1  6
 24 86  1  0
 27 87  1  6
 28 88  1  0
 31 89  1  0
 31 90  1  0
 33 91  1  0
 35 92  1  0
 36 93  1  0
 37 94  1  0
 37 95  1  0
 39 96  1  0
 40 97  1  0
 41 98  1  0
 42 99  1  0
 43100  1  0
 44101  1  0
 44102  1  0
 45103  1  0
 45104  1  0
 46105  1  0
 46106  1  0
 49107  1  0
 49108  1  0
 50109  1  0
 50110  1  0
 51111  1  0
 51112  1  0
 53113  1  0
 54114  1  0
 57115  1  0
 58116  1  0
 59117  1  0
 60118  1  0
 63119  1  0
 63120  1  0
M  END
>  <Ligand ID>  (1) 
LIG0001840

>  <Ligand>  (1) 
CHEMBL446185

>  <SMILES>  (1) 
CCCC[C@@H]1NC(=O)CC[C@H](NC(=O)[C@@H](NC(=O)[C@@H](NC(=O)[C@H](NC(=O)[C@@H](NC1=O)Cc1cnc[nH]1)Cc1ccccc1)CCCN=C(N)N)Cc1c[nH]c2c1cccc2)C(=O)N

>  <CID>  (1) 
11535237.0

>  <ChEMBL ID>  (1) 
nan

>  <InChiKey>  (1) 
JWVUTJWCWBNVDW-CXJNCMCBSA-N

>  <InChi>  (1) 
InChI=1S/C43H57N13O7/c1-2-3-13-31-38(59)56-35(21-27-23-47-24-50-27)42(63)54-33(19-25-10-5-4-6-11-25)40(61)53-32(15-9-18-48-43(45)46)39(60)55-34(20-26-22-49-29-14-8-7-12-28(26)29)41(62)52-30(37(44)58)16-17-36(57)51-31/h4-8,10-12,14,22-24,30-35,49H,2-3,9,13,15-21H2,1H3,(H2,44,58)(H,47,50)(H,51,57)(H,52,62)(H,53,61)(H,54,63)(H,55,60)(H,56,59)(H4,45,46,48)/t30-,31-,32-,33+,34-,35-/m0/s1

>  <IUPAC Name>  (1) 
(2S,5S,8R,11S,14S,17S)-8-benzyl-2-butyl-11-[3-(diaminomethylideneamino)propyl]-5-(1H-imidazol-5-ylmethyl)-14-(1H-indol-3-ylmethyl)-3,6,9,12,15,20-hexaoxo-1,4,7,10,13,16-hexazacycloicosane-17-carboxamide

$$$$
