
     RDKit          3D

 61 63  0  0  0  0  0  0  0  0999 V2000
   -4.2951    2.0319   -1.3544 C   0  0  0  0  0  0  0  0  0  0  0  0
   -4.6084    0.8209   -2.1658 C   0  0  0  0  0  0  0  0  0  0  0  0
   -5.3893   -0.1475   -1.3898 N   0  0  0  0  0  0  0  0  0  0  0  0
   -4.9107   -0.7618   -0.2108 C   0  0  0  0  0  0  0  0  0  0  0  0
   -3.6358   -0.4712    0.2757 C   0  0  0  0  0  0  0  0  0  0  0  0
   -3.1313   -1.0560    1.4210 C   0  0  0  0  0  0  0  0  0  0  0  0
   -3.9027   -1.9512    2.1060 C   0  0  0  0  0  0  0  0  0  0  0  0
   -5.1584   -2.2448    1.6371 C   0  0  0  0  0  0  0  0  0  0  0  0
   -5.7041   -1.6750    0.4839 C   0  0  0  0  0  0  0  0  0  0  0  0
   -7.0248   -2.0673    0.1073 C   0  0  0  0  0  0  0  0  0  0  0  0
   -7.6272   -2.9246    0.8524 O   0  0  0  0  0  0  0  0  0  0  0  0
   -7.7686   -1.6493   -0.9683 O   0  0  0  0  0  0  0  0  0  0  0  0
   -1.7787   -0.7166    1.8942 C   0  0  0  0  0  0  0  0  0  0  0  0
   -0.9876   -1.6235    2.5707 C   0  0  0  0  0  0  0  0  0  0  0  0
    0.2833   -1.2334    2.9864 C   0  0  0  0  0  0  0  0  0  0  0  0
    0.7667    0.0479    2.7327 C   0  0  0  0  0  0  0  0  0  0  0  0
   -0.0291    0.9518    2.0556 C   0  0  0  0  0  0  0  0  0  0  0  0
   -1.2889    0.5661    1.6432 C   0  0  0  0  0  0  0  0  0  0  0  0
    2.1323    0.3654    3.2173 C   0  0  0  0  0  0  0  0  0  0  0  0
    3.1121   -0.0002    2.1274 C   0  0  0  0  0  0  0  0  0  0  0  0
    2.8096    0.7612    0.9570 N   0  0  0  0  0  0  0  0  0  0  0  0
    3.7135    0.4852   -0.1447 C   0  0  0  0  0  0  0  0  0  0  0  0
    5.1177    0.9647    0.1001 C   0  0  1  0  0  0  0  0  0  0  0  0
    5.8689    0.6919   -1.1738 C   0  0  0  0  0  0  0  0  0  0  0  0
    5.6273    1.5345   -2.2370 C   0  0  0  0  0  0  0  0  0  0  0  0
    6.3357    1.2613   -3.4102 C   0  0  0  0  0  0  0  0  0  0  0  0
    7.2175    0.2191   -3.4997 C   0  0  0  0  0  0  0  0  0  0  0  0
    7.4490   -0.6152   -2.4283 C   0  0  0  0  0  0  0  0  0  0  0  0
    6.7606   -0.3642   -1.2597 C   0  0  0  0  0  0  0  0  0  0  0  0
    5.1848    2.3398    0.3075 O   0  0  0  0  0  0  0  0  0  0  0  0
   -3.3800    0.1617   -2.6943 C   0  0  0  0  0  0  0  0  0  0  0  0
   -3.2091    2.2804   -1.3506 H   0  0  0  0  0  0  0  0  0  0  0  0
   -4.8161    2.9479   -1.7724 H   0  0  0  0  0  0  0  0  0  0  0  0
   -4.6114    1.9161   -0.2985 H   0  0  0  0  0  0  0  0  0  0  0  0
   -5.2054    1.1707   -3.0475 H   0  0  0  0  0  0  0  0  0  0  0  0
   -6.3288   -0.3438   -1.7859 H   0  0  0  0  0  0  0  0  0  0  0  0
   -2.9705    0.2256   -0.2155 H   0  0  0  0  0  0  0  0  0  0  0  0
   -3.5230   -2.4173    3.0038 H   0  0  0  0  0  0  0  0  0  0  0  0
   -5.7244   -2.9711    2.2342 H   0  0  0  0  0  0  0  0  0  0  0  0
   -8.7491   -1.3813   -0.9035 H   0  0  0  0  0  0  0  0  0  0  0  0
   -1.3652   -2.6172    2.7661 H   0  0  0  0  0  0  0  0  0  0  0  0
    0.8912   -1.9421    3.5108 H   0  0  0  0  0  0  0  0  0  0  0  0
    0.3703    1.9443    1.8704 H   0  0  0  0  0  0  0  0  0  0  0  0
   -1.8707    1.3120    1.1175 H   0  0  0  0  0  0  0  0  0  0  0  0
    2.3763   -0.1768    4.1568 H   0  0  0  0  0  0  0  0  0  0  0  0
    2.1825    1.4467    3.4586 H   0  0  0  0  0  0  0  0  0  0  0  0
    2.9632   -1.1021    1.9550 H   0  0  0  0  0  0  0  0  0  0  0  0
    4.1652    0.0790    2.4678 H   0  0  0  0  0  0  0  0  0  0  0  0
    1.8694    0.4176    0.6120 H   0  0  0  0  0  0  0  0  0  0  0  0
    3.7350   -0.5888   -0.4068 H   0  0  0  0  0  0  0  0  0  0  0  0
    3.3213    1.0332   -1.0259 H   0  0  0  0  0  0  0  0  0  0  0  0
    5.6071    0.4771    0.9484 H   0  0  0  0  0  0  0  0  0  0  0  0
    4.9488    2.3592   -2.2122 H   0  0  0  0  0  0  0  0  0  0  0  0
    6.2041    1.8815   -4.3030 H   0  0  0  0  0  0  0  0  0  0  0  0
    7.7511    0.0264   -4.4078 H   0  0  0  0  0  0  0  0  0  0  0  0
    8.1379   -1.4441   -2.4697 H   0  0  0  0  0  0  0  0  0  0  0  0
    6.9205   -1.0065   -0.3898 H   0  0  0  0  0  0  0  0  0  0  0  0
    4.3479    2.8204    0.1532 H   0  0  0  0  0  0  0  0  0  0  0  0
   -3.3227   -0.8708   -2.2824 H   0  0  0  0  0  0  0  0  0  0  0  0
   -2.4354    0.7122   -2.4656 H   0  0  0  0  0  0  0  0  0  0  0  0
   -3.4185    0.1096   -3.8140 H   0  0  0  0  0  0  0  0  0  0  0  0
  1  2  1  0
  2  3  1  0
  3  4  1  0
  4  5  2  0
  5  6  1  0
  6  7  2  0
  7  8  1  0
  8  9  2  0
  9 10  1  0
 10 11  2  0
 10 12  1  0
  6 13  1  0
 13 14  2  0
 14 15  1  0
 15 16  2  0
 16 17  1  0
 17 18  2  0
 16 19  1  0
 19 20  1  0
 20 21  1  0
 21 22  1  0
 22 23  1  0
 23 24  1  0
 24 25  2  0
 25 26  1  0
 26 27  2  0
 27 28  1  0
 28 29  2  0
 23 30  1  0
  2 31  1  0
  9  4  1  0
 18 13  1  0
 29 24  1  0
  1 32  1  0
  1 33  1  0
  1 34  1  0
  2 35  1  0
  3 36  1  0
  5 37  1  0
  7 38  1  0
  8 39  1  0
 12 40  1  0
 14 41  1  0
 15 42  1  0
 17 43  1  0
 18 44  1  0
 19 45  1  0
 19 46  1  0
 20 47  1  0
 20 48  1  0
 21 49  1  0
 22 50  1  0
 22 51  1  0
 23 52  1  1
 25 53  1  0
 26 54  1  0
 27 55  1  0
 28 56  1  0
 29 57  1  0
 30 58  1  0
 31 59  1  0
 31 60  1  0
 31 61  1  0
M  END
>  <Ligand ID>  (1) 
LIG0003486

>  <Ligand>  (1) 
CHEMBL270964

>  <SMILES>  (1) 
CC(Nc1cc(ccc1C(=O)O)c1ccc(cc1)CCNC[C@@H](c1ccccc1)O)C

>  <CID>  (1) 
24823464.0

>  <ChEMBL ID>  (1) 
nan

>  <InChiKey>  (1) 
BACQNIUODFQAMD-VWLOTQADSA-N

>  <InChi>  (1) 
InChI=1S/C26H30N2O3/c1-18(2)28-24-16-22(12-13-23(24)26(30)31)20-10-8-19(9-11-20)14-15-27-17-25(29)21-6-4-3-5-7-21/h3-13,16,18,25,27-29H,14-15,17H2,1-2H3,(H,30,31)/t25-/m0/s1

>  <IUPAC Name>  (1) 
4-[4-[2-[[(2R)-2-hydroxy-2-phenylethyl]amino]ethyl]phenyl]-2-(propan-2-ylamino)benzoic acid

$$$$
