
     RDKit          3D

 31 30  0  0  0  0  0  0  0  0999 V2000
    5.0352   -1.3127   -0.3744 C   0  0  0  0  0  0  0  0  0  0  0  0
    3.6257   -1.2026   -0.3770 O   0  0  0  0  0  0  0  0  0  0  0  0
    2.8996   -1.1657    0.8272 C   0  0  0  0  0  0  0  0  0  0  0  0
    3.5011   -1.2312    1.9527 O   0  0  0  0  0  0  0  0  0  0  0  0
    1.3984   -1.0482    0.8096 C   0  0  0  0  0  0  0  0  0  0  0  0
    1.0678    0.3912    1.0126 C   0  0  0  0  0  0  0  0  0  0  0  0
   -0.4326    0.6730    1.0204 C   0  0  1  0  0  0  0  0  0  0  0  0
   -0.5963    2.1236    1.2269 C   0  0  0  0  0  0  0  0  0  0  0  0
    0.4798    2.8092    1.2831 O   0  0  0  0  0  0  0  0  0  0  0  0
   -1.7705    2.8072    1.3656 O   0  0  0  0  0  0  0  0  0  0  0  0
   -1.0951    0.1620   -0.2112 C   0  0  0  0  0  0  0  0  0  0  0  0
   -2.5603    0.4320   -0.1866 C   0  0  1  0  0  0  0  0  0  0  0  0
   -3.2303   -0.1042   -1.4385 C   0  0  0  0  0  0  0  0  0  0  0  0
   -2.8642    0.2867   -2.5793 O   0  0  0  0  0  0  0  0  0  0  0  0
   -4.2550   -1.0310   -1.3651 O   0  0  0  0  0  0  0  0  0  0  0  0
   -3.2185   -0.2084    0.9359 N   0  0  0  0  0  0  0  0  0  0  0  0
    5.3293   -1.5886   -1.3994 H   0  0  0  0  0  0  0  0  0  0  0  0
    5.5197   -0.3538   -0.0567 H   0  0  0  0  0  0  0  0  0  0  0  0
    5.3935   -2.1173    0.2963 H   0  0  0  0  0  0  0  0  0  0  0  0
    0.9928   -1.6768    1.6426 H   0  0  0  0  0  0  0  0  0  0  0  0
    1.0995   -1.4446   -0.1714 H   0  0  0  0  0  0  0  0  0  0  0  0
    1.5390    0.9718    0.2058 H   0  0  0  0  0  0  0  0  0  0  0  0
    1.5101    0.7288    1.9651 H   0  0  0  0  0  0  0  0  0  0  0  0
   -0.8482    0.1175    1.9005 H   0  0  0  0  0  0  0  0  0  0  0  0
   -1.8073    3.8230    1.5390 H   0  0  0  0  0  0  0  0  0  0  0  0
   -0.6780    0.7096   -1.1096 H   0  0  0  0  0  0  0  0  0  0  0  0
   -0.8480   -0.8966   -0.4093 H   0  0  0  0  0  0  0  0  0  0  0  0
   -2.7979    1.5149   -0.1645 H   0  0  0  0  0  0  0  0  0  0  0  0
   -4.9081   -1.2058   -2.1264 H   0  0  0  0  0  0  0  0  0  0  0  0
   -3.3746   -1.2267    0.7804 H   0  0  0  0  0  0  0  0  0  0  0  0
   -4.1066    0.2637    1.2003 H   0  0  0  0  0  0  0  0  0  0  0  0
  1  2  1  0
  2  3  1  0
  3  4  2  0
  3  5  1  0
  5  6  1  0
  6  7  1  0
  7  8  1  0
  8  9  2  0
  8 10  1  0
  7 11  1  0
 11 12  1  0
 12 13  1  0
 13 14  2  0
 13 15  1  0
 12 16  1  0
  1 17  1  0
  1 18  1  0
  1 19  1  0
  5 20  1  0
  5 21  1  0
  6 22  1  0
  6 23  1  0
  7 24  1  1
 10 25  1  0
 11 26  1  0
 11 27  1  0
 12 28  1  1
 15 29  1  0
 16 30  1  0
 16 31  1  0
M  END
>  <Ligand ID>  (1) 
LIG0000713

>  <Ligand>  (1) 
CHEMBL482080

>  <SMILES>  (1) 
COC(=O)CC[C@@H](C(=O)O)C[C@@H](C(=O)O)N

>  <CID>  (1) 
24905704.0

>  <ChEMBL ID>  (1) 
nan

>  <InChiKey>  (1) 
IPTIKQIFOOZKAT-RITPCOANSA-N

>  <InChi>  (1) 
InChI=1S/C9H15NO6/c1-16-7(11)3-2-5(8(12)13)4-6(10)9(14)15/h5-6H,2-4,10H2,1H3,(H,12,13)(H,14,15)/t5-,6+/m1/s1

>  <IUPAC Name>  (1) 
(2S,4R)-2-amino-4-(3-methoxy-3-oxopropyl)pentanedioic acid

$$$$
