
     RDKit          3D

 32 31  0  0  0  0  0  0  0  0999 V2000
    4.7022    0.5632    0.5932 C   0  0  0  0  0  0  0  0  0  0  0  0
    3.4338    0.2219   -0.1779 C   0  0  0  0  0  0  0  0  0  0  0  0
    2.8377   -1.0722    0.2590 C   0  0  0  0  0  0  0  0  0  0  0  0
    1.5957   -1.3564   -0.5397 C   0  0  0  0  0  0  0  0  0  0  0  0
    0.5271   -0.3135   -0.3954 C   0  0  0  0  0  0  0  0  0  0  0  0
    0.0671   -0.1544    1.0349 C   0  0  0  0  0  0  0  0  0  0  0  0
   -1.0122    0.9012    1.1699 C   0  0  0  0  0  0  0  0  0  0  0  0
   -2.1987    0.5406    0.3548 C   0  0  0  0  0  0  0  0  0  0  0  0
   -2.1689    0.7713   -0.8997 O   0  0  0  0  0  0  0  0  0  0  0  0
   -3.3041   -0.0346    0.9713 O   0  0  0  0  0  0  0  0  0  0  0  0
   -4.4330   -0.3753    0.1822 C   0  0  0  0  0  0  0  0  0  0  0  0
   -5.0211    0.8446   -0.5147 C   0  0  0  0  0  0  0  0  0  0  0  0
    5.2484   -0.3633    0.8562 H   0  0  0  0  0  0  0  0  0  0  0  0
    4.4886    1.1003    1.5266 H   0  0  0  0  0  0  0  0  0  0  0  0
    5.3372    1.1607   -0.0857 H   0  0  0  0  0  0  0  0  0  0  0  0
    3.6933    0.1332   -1.2374 H   0  0  0  0  0  0  0  0  0  0  0  0
    2.7198    1.0568   -0.0301 H   0  0  0  0  0  0  0  0  0  0  0  0
    3.5430   -1.9151    0.0259 H   0  0  0  0  0  0  0  0  0  0  0  0
    2.5627   -1.0962    1.3314 H   0  0  0  0  0  0  0  0  0  0  0  0
    1.8537   -1.4367   -1.6236 H   0  0  0  0  0  0  0  0  0  0  0  0
    1.1831   -2.3686   -0.2763 H   0  0  0  0  0  0  0  0  0  0  0  0
   -0.3244   -0.6473   -1.0500 H   0  0  0  0  0  0  0  0  0  0  0  0
    0.8814    0.6649   -0.7584 H   0  0  0  0  0  0  0  0  0  0  0  0
    0.9267    0.0631    1.6940 H   0  0  0  0  0  0  0  0  0  0  0  0
   -0.3910   -1.1153    1.3896 H   0  0  0  0  0  0  0  0  0  0  0  0
   -0.6604    1.9126    0.9203 H   0  0  0  0  0  0  0  0  0  0  0  0
   -1.3000    0.9249    2.2446 H   0  0  0  0  0  0  0  0  0  0  0  0
   -5.1787   -0.8158    0.8743 H   0  0  0  0  0  0  0  0  0  0  0  0
   -4.1710   -1.1662   -0.5546 H   0  0  0  0  0  0  0  0  0  0  0  0
   -4.3090    1.6915   -0.3773 H   0  0  0  0  0  0  0  0  0  0  0  0
   -6.0084    1.0831   -0.0347 H   0  0  0  0  0  0  0  0  0  0  0  0
   -5.1206    0.5971   -1.5875 H   0  0  0  0  0  0  0  0  0  0  0  0
  1  2  1  0
  2  3  1  0
  3  4  1  0
  4  5  1  0
  5  6  1  0
  6  7  1  0
  7  8  1  0
  8  9  2  0
  8 10  1  0
 10 11  1  0
 11 12  1  0
  1 13  1  0
  1 14  1  0
  1 15  1  0
  2 16  1  0
  2 17  1  0
  3 18  1  0
  3 19  1  0
  4 20  1  0
  4 21  1  0
  5 22  1  0
  5 23  1  0
  6 24  1  0
  6 25  1  0
  7 26  1  0
  7 27  1  0
 11 28  1  0
 11 29  1  0
 12 30  1  0
 12 31  1  0
 12 32  1  0
M  END
>  <Ligand ID>  (1) 
LIG0000229

>  <Ligand>  (1) 
ethyl octanoate

>  <SMILES>  (1) 
CCCCCCCC(=O)OCC

>  <CID>  (1) 
7799.0

>  <ChEMBL ID>  (1) 
nan

>  <InChiKey>  (1) 
YYZUSRORWSJGET-UHFFFAOYSA-N

>  <InChi>  (1) 
InChI=1S/C10H20O2/c1-3-5-6-7-8-9-10(11)12-4-2/h3-9H2,1-2H3

>  <IUPAC Name>  (1) 
ethyl octanoate

$$$$
