
     RDKit          3D

 32 33  0  0  0  0  0  0  0  0999 V2000
   -4.7408    0.9920   -0.8663 N   0  0  0  0  0  0  0  0  0  0  0  0
   -4.8964   -0.2492   -0.1172 C   0  0  0  0  0  0  0  0  0  0  0  0
   -3.8050   -0.4098    0.9149 C   0  0  0  0  0  0  0  0  0  0  0  0
   -2.4429   -0.4414    0.3406 C   0  0  0  0  0  0  0  0  0  0  0  0
   -1.8155   -1.6055   -0.0576 C   0  0  0  0  0  0  0  0  0  0  0  0
   -0.5456   -1.5736   -0.5859 C   0  0  0  0  0  0  0  0  0  0  0  0
    0.1745   -0.3893   -0.7498 C   0  0  0  0  0  0  0  0  0  0  0  0
   -0.4491    0.7587   -0.3549 C   0  0  0  0  0  0  0  0  0  0  0  0
   -1.7364    0.7281    0.1807 C   0  0  0  0  0  0  0  0  0  0  0  0
    0.4720    2.6271   -0.5186 I   0  0  0  0  0  0  0  0  0  0  0  0
    1.4268   -0.5113   -1.2885 O   0  0  0  0  0  0  0  0  0  0  0  0
    2.6200   -0.1600   -0.7636 C   0  0  0  0  0  0  0  0  0  0  0  0
    3.4109    0.9011   -1.1473 C   0  0  0  0  0  0  0  0  0  0  0  0
    4.6246    1.1807   -0.5388 C   0  0  0  0  0  0  0  0  0  0  0  0
    5.1037    0.3986    0.4925 C   0  0  0  0  0  0  0  0  0  0  0  0
    4.3261   -0.6668    0.8881 C   0  0  0  0  0  0  0  0  0  0  0  0
    3.1266   -0.9369    0.2818 C   0  0  0  0  0  0  0  0  0  0  0  0
    5.0547   -1.8682    2.4663 I   0  0  0  0  0  0  0  0  0  0  0  0
    6.3139    0.7052    1.0745 O   0  0  0  0  0  0  0  0  0  0  0  0
   -5.2130    0.9638   -1.7799 H   0  0  0  0  0  0  0  0  0  0  0  0
   -5.1530    1.7837   -0.3237 H   0  0  0  0  0  0  0  0  0  0  0  0
   -5.0086   -1.1233   -0.7815 H   0  0  0  0  0  0  0  0  0  0  0  0
   -5.8419   -0.1597    0.4583 H   0  0  0  0  0  0  0  0  0  0  0  0
   -3.9090    0.3986    1.6483 H   0  0  0  0  0  0  0  0  0  0  0  0
   -3.9745   -1.3654    1.4345 H   0  0  0  0  0  0  0  0  0  0  0  0
   -2.3753   -2.5228    0.0702 H   0  0  0  0  0  0  0  0  0  0  0  0
   -0.1139   -2.5257   -0.8775 H   0  0  0  0  0  0  0  0  0  0  0  0
   -2.2226    1.6424    0.4908 H   0  0  0  0  0  0  0  0  0  0  0  0
    3.1169    1.5405   -1.9498 H   0  0  0  0  0  0  0  0  0  0  0  0
    5.2332    2.0228   -0.8560 H   0  0  0  0  0  0  0  0  0  0  0  0
    2.5702   -1.7894    0.6449 H   0  0  0  0  0  0  0  0  0  0  0  0
    6.6694    1.6548    1.1613 H   0  0  0  0  0  0  0  0  0  0  0  0
  1  2  1  0
  2  3  1  0
  3  4  1  0
  4  5  2  0
  5  6  1  0
  6  7  2  0
  7  8  1  0
  8  9  2  0
  8 10  1  0
  7 11  1  0
 11 12  1  0
 12 13  2  0
 13 14  1  0
 14 15  2  0
 15 16  1  0
 16 17  2  0
 16 18  1  0
 15 19  1  0
  9  4  1  0
 17 12  1  0
  1 20  1  0
  1 21  1  0
  2 22  1  0
  2 23  1  0
  3 24  1  0
  3 25  1  0
  5 26  1  0
  6 27  1  0
  9 28  1  0
 13 29  1  0
 14 30  1  0
 17 31  1  0
 19 32  1  0
M  END
>  <Ligand ID>  (1) 
LIG0005789

>  <Ligand>  (1) 
CHEMBL383495

>  <SMILES>  (1) 
NCCc1ccc(c(c1)I)Oc1ccc(c(c1)I)O

>  <CID>  (1) 
11548084.0

>  <ChEMBL ID>  (1) 
nan

>  <InChiKey>  (1) 
RKRRCKUQQDVLGU-UHFFFAOYSA-N

>  <InChi>  (1) 
InChI=1S/C14H13I2NO2/c15-11-8-10(2-3-13(11)18)19-14-4-1-9(5-6-17)7-12(14)16/h1-4,7-8,18H,5-6,17H2

>  <IUPAC Name>  (1) 
4-[4-(2-aminoethyl)-2-iodophenoxy]-2-iodophenol

$$$$
