
     RDKit          3D

 49 52  0  0  0  0  0  0  0  0999 V2000
   -5.5374   -1.7059   -1.5033 C   0  0  0  0  0  0  0  0  0  0  0  0
   -5.6524   -0.5226   -0.5807 C   0  0  0  0  0  0  0  0  0  0  0  0
   -6.9105   -0.0369   -0.2452 C   0  0  0  0  0  0  0  0  0  0  0  0
   -7.0494    1.0460    0.5979 C   0  0  0  0  0  0  0  0  0  0  0  0
   -5.9150    1.6450    1.1074 C   0  0  0  0  0  0  0  0  0  0  0  0
   -4.6773    1.1449    0.7599 C   0  0  0  0  0  0  0  0  0  0  0  0
   -4.5073    0.0625   -0.0816 C   0  0  0  0  0  0  0  0  0  0  0  0
   -3.1766   -0.4514   -0.4366 C   0  0  0  0  0  0  0  0  0  0  0  0
   -2.8736   -1.4946   -1.2428 N   0  0  0  0  0  0  0  0  0  0  0  0
   -1.5809   -1.5718   -1.2571 O   0  0  0  0  0  0  0  0  0  0  0  0
   -1.0383   -0.6406   -0.5085 C   0  0  0  0  0  0  0  0  0  0  0  0
   -2.0330    0.0889    0.0273 N   0  0  0  0  0  0  0  0  0  0  0  0
    0.4001   -0.4470   -0.3055 C   0  0  0  0  0  0  0  0  0  0  0  0
    1.2765   -1.3015   -0.9435 C   0  0  0  0  0  0  0  0  0  0  0  0
    2.6391   -1.1429   -0.7706 C   0  0  0  0  0  0  0  0  0  0  0  0
    3.1078   -0.1192    0.0479 C   0  0  0  0  0  0  0  0  0  0  0  0
    2.1953    0.7320    0.6820 C   0  0  0  0  0  0  0  0  0  0  0  0
    0.8341    0.5793    0.5137 C   0  0  0  0  0  0  0  0  0  0  0  0
    4.5584    0.1111    0.2800 C   0  0  0  0  0  0  0  0  0  0  0  0
    5.2502   -1.0614    0.9302 C   0  0  0  0  0  0  0  0  0  0  0  0
    6.7017   -1.0480    0.5437 C   0  0  0  0  0  0  0  0  0  0  0  0
    7.2552    0.3391    0.3586 C   0  0  0  0  0  0  0  0  0  0  0  0
    6.5596    1.0591   -0.7767 C   0  0  0  0  0  0  0  0  0  0  0  0
    5.1890    0.4759   -1.0446 C   0  0  0  0  0  0  0  0  0  0  0  0
   -8.3748    1.5471    0.9430 C   0  0  0  0  0  0  0  0  0  0  0  0
   -9.3846    0.9696    0.4548 O   0  0  0  0  0  0  0  0  0  0  0  0
   -8.5301    2.6252    1.7818 O   0  0  0  0  0  0  0  0  0  0  0  0
   -6.5383   -2.0958   -1.7300 H   0  0  0  0  0  0  0  0  0  0  0  0
   -5.0030   -2.5183   -0.9561 H   0  0  0  0  0  0  0  0  0  0  0  0
   -4.9527   -1.4331   -2.3996 H   0  0  0  0  0  0  0  0  0  0  0  0
   -7.7486   -0.5536   -0.6797 H   0  0  0  0  0  0  0  0  0  0  0  0
   -5.9597    2.5025    1.7773 H   0  0  0  0  0  0  0  0  0  0  0  0
   -3.7788    1.5981    1.1469 H   0  0  0  0  0  0  0  0  0  0  0  0
    0.9670   -2.1107   -1.5882 H   0  0  0  0  0  0  0  0  0  0  0  0
    3.3728   -1.7796   -1.2430 H   0  0  0  0  0  0  0  0  0  0  0  0
    2.5317    1.5395    1.3264 H   0  0  0  0  0  0  0  0  0  0  0  0
    0.1091    1.2223    0.9915 H   0  0  0  0  0  0  0  0  0  0  0  0
    4.7196    0.9773    0.9641 H   0  0  0  0  0  0  0  0  0  0  0  0
    4.8067   -2.0029    0.5500 H   0  0  0  0  0  0  0  0  0  0  0  0
    5.1877   -1.0465    2.0285 H   0  0  0  0  0  0  0  0  0  0  0  0
    7.3298   -1.5111    1.3561 H   0  0  0  0  0  0  0  0  0  0  0  0
    6.8429   -1.6198   -0.4015 H   0  0  0  0  0  0  0  0  0  0  0  0
    8.3199    0.2335    0.0801 H   0  0  0  0  0  0  0  0  0  0  0  0
    7.1438    0.9244    1.2954 H   0  0  0  0  0  0  0  0  0  0  0  0
    7.1180    0.9533   -1.7496 H   0  0  0  0  0  0  0  0  0  0  0  0
    6.4174    2.1244   -0.5124 H   0  0  0  0  0  0  0  0  0  0  0  0
    5.2467   -0.4378   -1.6825 H   0  0  0  0  0  0  0  0  0  0  0  0
    4.5727    1.2795   -1.4955 H   0  0  0  0  0  0  0  0  0  0  0  0
   -9.4306    2.8728    2.2129 H   0  0  0  0  0  0  0  0  0  0  0  0
  1  2  1  0
  2  3  2  0
  3  4  1  0
  4  5  2  0
  5  6  1  0
  6  7  2  0
  7  8  1  0
  8  9  2  0
  9 10  1  0
 10 11  1  0
 11 12  2  0
 11 13  1  0
 13 14  2  0
 14 15  1  0
 15 16  2  0
 16 17  1  0
 17 18  2  0
 16 19  1  0
 19 20  1  0
 20 21  1  0
 21 22  1  0
 22 23  1  0
 23 24  1  0
  4 25  1  0
 25 26  2  0
 25 27  1  0
  7  2  1  0
 12  8  1  0
 18 13  1  0
 24 19  1  0
  1 28  1  0
  1 29  1  0
  1 30  1  0
  3 31  1  0
  5 32  1  0
  6 33  1  0
 14 34  1  0
 15 35  1  0
 17 36  1  0
 18 37  1  0
 19 38  1  0
 20 39  1  0
 20 40  1  0
 21 41  1  0
 21 42  1  0
 22 43  1  0
 22 44  1  0
 23 45  1  0
 23 46  1  0
 24 47  1  0
 24 48  1  0
 27 49  1  0
M  END
>  <Ligand ID>  (1) 
LIG0001676

>  <Ligand>  (1) 
CHEMBL208682

>  <SMILES>  (1) 
Cc1cc(ccc1c1noc(n1)c1ccc(cc1)C1CCCCC1)C(=O)O

>  <CID>  (1) 
44412962.0

>  <ChEMBL ID>  (1) 
nan

>  <InChiKey>  (1) 
ZCNMYWFYOSEHOL-UHFFFAOYSA-N

>  <InChi>  (1) 
InChI=1S/C22H22N2O3/c1-14-13-18(22(25)26)11-12-19(14)20-23-21(27-24-20)17-9-7-16(8-10-17)15-5-3-2-4-6-15/h7-13,15H,2-6H2,1H3,(H,25,26)

>  <IUPAC Name>  (1) 
4-[5-(4-cyclohexylphenyl)-1,2,4-oxadiazol-3-yl]-3-methylbenzoic acid

$$$$
