
     RDKit          3D

 36 38  0  0  0  0  0  0  0  0999 V2000
    2.8283    3.3444    0.1353 C   0  0  0  0  0  0  0  0  0  0  0  0
    2.7658    1.9401    0.5160 N   0  0  0  0  0  0  0  0  0  0  0  0
    3.3913    1.3657    1.5317 N   0  0  0  0  0  0  0  0  0  0  0  0
    3.0857    0.0476    1.5631 C   0  0  0  0  0  0  0  0  0  0  0  0
    2.2128   -0.2327    0.5028 C   0  0  0  0  0  0  0  0  0  0  0  0
    2.0443    0.9852   -0.1220 C   0  0  0  0  0  0  0  0  0  0  0  0
    1.6539   -1.5369    0.1786 C   0  0  0  0  0  0  0  0  0  0  0  0
    2.5727   -2.5927    0.1221 C   0  0  0  0  0  0  0  0  0  0  0  0
    2.1683   -3.8777   -0.1880 C   0  0  0  0  0  0  0  0  0  0  0  0
    0.8249   -4.0736   -0.4384 C   0  0  0  0  0  0  0  0  0  0  0  0
   -0.0850   -3.0342   -0.3835 C   0  0  0  0  0  0  0  0  0  0  0  0
    0.3184   -1.7558   -0.0746 C   0  0  0  0  0  0  0  0  0  0  0  0
   -0.6052   -0.6959   -0.0052 N   0  0  0  0  0  0  0  0  0  0  0  0
   -2.0112   -0.9663   -0.2831 C   0  0  0  0  0  0  0  0  0  0  0  0
   -2.8540    0.2414   -0.1709 C   0  0  0  0  0  0  0  0  0  0  0  0
   -3.8474    0.4072    0.6356 N   0  0  0  0  0  0  0  0  0  0  0  0
   -4.4294    1.6981    0.4682 C   0  0  0  0  0  0  0  0  0  0  0  0
   -3.3513    2.4879   -0.1968 C   0  0  0  0  0  0  0  0  0  0  0  0
   -2.6797    1.4301   -0.9650 N   0  0  0  0  0  0  0  0  0  0  0  0
    2.0216    3.9508    0.5526 H   0  0  0  0  0  0  0  0  0  0  0  0
    2.7854    3.3697   -0.9764 H   0  0  0  0  0  0  0  0  0  0  0  0
    3.8463    3.7351    0.3967 H   0  0  0  0  0  0  0  0  0  0  0  0
    3.4705   -0.6461    2.3001 H   0  0  0  0  0  0  0  0  0  0  0  0
    1.4527    1.1890   -0.9776 H   0  0  0  0  0  0  0  0  0  0  0  0
    3.6132   -2.4297    0.3183 H   0  0  0  0  0  0  0  0  0  0  0  0
    2.8589   -4.6979   -0.2355 H   0  0  0  0  0  0  0  0  0  0  0  0
    0.4637   -5.0674   -0.6861 H   0  0  0  0  0  0  0  0  0  0  0  0
   -1.1325   -3.2163   -0.5844 H   0  0  0  0  0  0  0  0  0  0  0  0
   -0.3713    0.2858    0.2355 H   0  0  0  0  0  0  0  0  0  0  0  0
   -2.0654   -1.4217   -1.2997 H   0  0  0  0  0  0  0  0  0  0  0  0
   -2.3145   -1.7057    0.4867 H   0  0  0  0  0  0  0  0  0  0  0  0
   -5.3835    1.6892   -0.0960 H   0  0  0  0  0  0  0  0  0  0  0  0
   -4.6994    2.0637    1.4982 H   0  0  0  0  0  0  0  0  0  0  0  0
   -2.6637    2.8642    0.6102 H   0  0  0  0  0  0  0  0  0  0  0  0
   -3.6859    3.3225   -0.8181 H   0  0  0  0  0  0  0  0  0  0  0  0
   -2.1995    1.5329   -1.8633 H   0  0  0  0  0  0  0  0  0  0  0  0
  1  2  1  0
  2  3  1  0
  3  4  2  0
  4  5  1  0
  5  6  2  0
  5  7  1  0
  7  8  2  0
  8  9  1  0
  9 10  2  0
 10 11  1  0
 11 12  2  0
 12 13  1  0
 13 14  1  0
 14 15  1  0
 15 16  2  0
 16 17  1  0
 17 18  1  0
 18 19  1  0
  6  2  1  0
 12  7  1  0
 19 15  1  0
  1 20  1  0
  1 21  1  0
  1 22  1  0
  4 23  1  0
  6 24  1  0
  8 25  1  0
  9 26  1  0
 10 27  1  0
 11 28  1  0
 13 29  1  0
 14 30  1  0
 14 31  1  0
 17 32  1  0
 17 33  1  0
 18 34  1  0
 18 35  1  0
 19 36  1  0
M  END
>  <Ligand ID>  (1) 
LIG0004572

>  <Ligand>  (1) 
CHEMBL273312

>  <SMILES>  (1) 
Cn1ncc(c1)c1ccccc1NCC1=NCCN1

>  <CID>  (1) 
22493381.0

>  <ChEMBL ID>  (1) 
nan

>  <InChiKey>  (1) 
KEHDGXFGMIOLCR-UHFFFAOYSA-N

>  <InChi>  (1) 
InChI=1S/C14H17N5/c1-19-10-11(8-18-19)12-4-2-3-5-13(12)17-9-14-15-6-7-16-14/h2-5,8,10,17H,6-7,9H2,1H3,(H,15,16)

>  <IUPAC Name>  (1) 
N-(4,5-dihydro-1H-imidazol-2-ylmethyl)-2-(1-methylpyrazol-4-yl)aniline

$$$$
