
     RDKit          3D

 44 47  0  0  0  0  0  0  0  0999 V2000
    6.4211    0.9200   -0.9643 C   0  0  0  0  0  0  0  0  0  0  0  0
    5.2455    0.2845   -0.3117 C   0  0  0  0  0  0  0  0  0  0  0  0
    4.1831    1.0389    0.1100 C   0  0  0  0  0  0  0  0  0  0  0  0
    3.0851    0.4567    0.7184 C   0  0  0  0  0  0  0  0  0  0  0  0
    3.1103   -0.9269    0.8813 C   0  0  0  0  0  0  0  0  0  0  0  0
    4.1892   -1.6902    0.4527 C   0  0  0  0  0  0  0  0  0  0  0  0
    5.2698   -1.0917   -0.1493 C   0  0  0  0  0  0  0  0  0  0  0  0
    1.9917   -1.6706    1.5196 C   0  0  0  0  0  0  0  0  0  0  0  0
    0.8398   -2.1375    0.1967 S   0  0  0  0  0  0  0  0  0  0  0  0
    0.0855   -0.6766   -0.5074 C   0  0  0  0  0  0  0  0  0  0  0  0
    0.5357    0.0651   -1.5404 N   0  0  0  0  0  0  0  0  0  0  0  0
   -0.3226    1.0727   -1.7545 N   0  0  0  0  0  0  0  0  0  0  0  0
   -1.3194    0.9427   -0.8307 C   0  0  0  0  0  0  0  0  0  0  0  0
   -1.0777   -0.1263   -0.0622 N   0  0  0  0  0  0  0  0  0  0  0  0
   -1.8589   -0.6439    1.0373 C   0  0  0  0  0  0  0  0  0  0  0  0
   -2.8755   -1.6351    0.6013 C   0  0  0  0  0  0  0  0  0  0  0  0
   -2.6764   -2.9966    0.5058 C   0  0  0  0  0  0  0  0  0  0  0  0
   -3.8779   -3.5108    0.0669 C   0  0  0  0  0  0  0  0  0  0  0  0
   -4.7225   -2.4172   -0.0724 C   0  0  0  0  0  0  0  0  0  0  0  0
   -4.0978   -1.3122    0.2531 O   0  0  0  0  0  0  0  0  0  0  0  0
   -2.4682    1.8441   -0.7157 C   0  0  0  0  0  0  0  0  0  0  0  0
   -2.5368    2.8422    0.2348 C   0  0  0  0  0  0  0  0  0  0  0  0
   -3.6839    3.6239    0.2317 C   0  0  0  0  0  0  0  0  0  0  0  0
   -4.6946    3.4115   -0.6714 C   0  0  0  0  0  0  0  0  0  0  0  0
   -4.5816    2.4032   -1.6017 C   0  0  0  0  0  0  0  0  0  0  0  0
   -3.4690    1.6517   -1.5920 N   0  0  0  0  0  0  0  0  0  0  0  0
    7.3472    0.7930   -0.3597 H   0  0  0  0  0  0  0  0  0  0  0  0
    6.6265    0.4393   -1.9453 H   0  0  0  0  0  0  0  0  0  0  0  0
    6.2797    1.9915   -1.1237 H   0  0  0  0  0  0  0  0  0  0  0  0
    4.1738    2.0987   -0.0197 H   0  0  0  0  0  0  0  0  0  0  0  0
    2.2325    1.0009    1.0646 H   0  0  0  0  0  0  0  0  0  0  0  0
    4.1923   -2.7765    0.5887 H   0  0  0  0  0  0  0  0  0  0  0  0
    6.0779   -1.7203   -0.4634 H   0  0  0  0  0  0  0  0  0  0  0  0
    2.3854   -2.5722    2.0229 H   0  0  0  0  0  0  0  0  0  0  0  0
    1.4804   -1.0140    2.2664 H   0  0  0  0  0  0  0  0  0  0  0  0
   -1.1440   -1.1480    1.7471 H   0  0  0  0  0  0  0  0  0  0  0  0
   -2.3731    0.1730    1.5767 H   0  0  0  0  0  0  0  0  0  0  0  0
   -1.7770   -3.5774    0.7219 H   0  0  0  0  0  0  0  0  0  0  0  0
   -4.0700   -4.5562   -0.1152 H   0  0  0  0  0  0  0  0  0  0  0  0
   -5.7375   -2.4541   -0.3969 H   0  0  0  0  0  0  0  0  0  0  0  0
   -1.7249    2.9871    0.9345 H   0  0  0  0  0  0  0  0  0  0  0  0
   -3.7592    4.4204    0.9760 H   0  0  0  0  0  0  0  0  0  0  0  0
   -5.5669    4.0163   -0.6631 H   0  0  0  0  0  0  0  0  0  0  0  0
   -5.3371    2.1772   -2.3442 H   0  0  0  0  0  0  0  0  0  0  0  0
  1  2  1  0
  2  3  2  0
  3  4  1  0
  4  5  2  0
  5  6  1  0
  6  7  2  0
  5  8  1  0
  8  9  1  0
  9 10  1  0
 10 11  2  0
 11 12  1  0
 12 13  2  0
 13 14  1  0
 14 15  1  0
 15 16  1  0
 16 17  2  0
 17 18  1  0
 18 19  2  0
 19 20  1  0
 13 21  1  0
 21 22  2  0
 22 23  1  0
 23 24  2  0
 24 25  1  0
 25 26  2  0
  7  2  1  0
 14 10  1  0
 20 16  1  0
 26 21  1  0
  1 27  1  0
  1 28  1  0
  1 29  1  0
  3 30  1  0
  4 31  1  0
  6 32  1  0
  7 33  1  0
  8 34  1  0
  8 35  1  0
 15 36  1  0
 15 37  1  0
 17 38  1  0
 18 39  1  0
 19 40  1  0
 22 41  1  0
 23 42  1  0
 24 43  1  0
 25 44  1  0
M  END
>  <Ligand ID>  (1) 
LIG0003820

>  <Ligand>  (1) 
KUC103895N

>  <SMILES>  (1) 
Cc1ccc(cc1)CSc1nnc(n1Cc1ccco1)c1ccccn1

>  <CID>  (1) 
44601474.0

>  <ChEMBL ID>  (1) 
nan

>  <InChiKey>  (1) 
XIGZCYHYNKDXDN-UHFFFAOYSA-N

>  <InChi>  (1) 
InChI=1S/C20H18N4OS/c1-15-7-9-16(10-8-15)14-26-20-23-22-19(18-6-2-3-11-21-18)24(20)13-17-5-4-12-25-17/h2-12H,13-14H2,1H3

>  <IUPAC Name>  (1) 
2-[4-(furan-2-ylmethyl)-5-[(4-methylphenyl)methylsulfanyl]-1,2,4-triazol-3-yl]pyridine

$$$$
