
     RDKit          3D

 79 83  0  0  0  0  0  0  0  0999 V2000
   -2.0705   -1.3480    0.3970 O   0  0  0  0  0  0  0  0  0  0  0  0
   -2.2606   -0.7401    1.6163 C   0  0  1  0  0  0  0  0  0  0  0  0
   -1.1463   -0.7983    2.5852 C   0  0  0  0  0  0  0  0  0  0  0  0
    0.0431   -0.2039    2.2262 N   0  0  0  0  0  0  0  0  0  0  0  0
    0.9230   -0.6677    1.2258 C   0  0  0  0  0  0  0  0  0  0  0  0
    2.2601    0.0369    1.5241 C   0  0  0  0  0  0  0  0  0  0  0  0
    3.3540   -0.2789    0.6222 C   0  0  0  0  0  0  0  0  0  0  0  0
    4.1096   -1.4172    0.8287 C   0  0  0  0  0  0  0  0  0  0  0  0
    5.1951   -1.7411    0.0037 C   0  0  0  0  0  0  0  0  0  0  0  0
    5.5597   -0.9369   -1.0529 C   0  0  0  0  0  0  0  0  0  0  0  0
    4.8153    0.1977   -1.2658 C   0  0  0  0  0  0  0  0  0  0  0  0
    3.7516    0.5141   -0.4566 C   0  0  0  0  0  0  0  0  0  0  0  0
    6.6396   -1.3258   -1.8180 O   0  0  0  0  0  0  0  0  0  0  0  0
    7.9104   -0.8945   -1.4027 C   0  0  0  0  0  0  0  0  0  0  0  0
    9.0287   -1.2616   -2.1339 C   0  0  0  0  0  0  0  0  0  0  0  0
   10.2895   -0.8540   -1.7501 C   0  0  0  0  0  0  0  0  0  0  0  0
   10.4179   -0.0769   -0.6290 C   0  0  0  0  0  0  0  0  0  0  0  0
    9.2813    0.2610    0.0624 C   0  0  0  0  0  0  0  0  0  0  0  0
    8.0525   -0.1263   -0.2974 N   0  0  0  0  0  0  0  0  0  0  0  0
   11.7200    0.3974   -0.1469 C   0  0  0  0  0  0  0  0  0  0  0  0
   11.8260    1.1263    0.8874 O   0  0  0  0  0  0  0  0  0  0  0  0
   12.9207    0.0495   -0.8336 N   0  0  0  0  0  0  0  0  0  0  0  0
    0.5443   -0.3967   -0.1931 C   0  0  0  0  0  0  0  0  0  0  0  0
    1.1991   -2.1585    1.3245 C   0  0  0  0  0  0  0  0  0  0  0  0
   -2.7615    0.6908    1.4578 C   0  0  0  0  0  0  0  0  0  0  0  0
   -3.9988    0.7064    0.7610 O   0  0  0  0  0  0  0  0  0  0  0  0
   -4.6419    1.9003    0.5063 C   0  0  0  0  0  0  0  0  0  0  0  0
   -4.1260    3.1225    0.9093 C   0  0  0  0  0  0  0  0  0  0  0  0
   -4.8308    4.2874    0.6173 C   0  0  0  0  0  0  0  0  0  0  0  0
   -6.0408    4.2387   -0.0704 C   0  0  0  0  0  0  0  0  0  0  0  0
   -6.5439    3.0102   -0.4667 C   0  0  0  0  0  0  0  0  0  0  0  0
   -5.8575    1.8477   -0.1852 C   0  0  0  0  0  0  0  0  0  0  0  0
   -6.6162    0.6735   -0.7246 C   0  0  0  0  0  0  0  0  0  0  0  0
   -5.8157   -0.0345   -1.7994 C   0  0  0  0  0  0  0  0  0  0  0  0
   -6.6789   -1.0701   -2.4327 C   0  0  0  0  0  0  0  0  0  0  0  0
   -7.3299   -2.0125   -1.4846 C   0  0  0  0  0  0  0  0  0  0  0  0
   -7.7504   -1.4378   -0.1863 C   0  0  0  0  0  0  0  0  0  0  0  0
   -6.9097   -0.3341    0.3480 C   0  0  0  0  0  0  0  0  0  0  0  0
   -7.7981    1.2943   -1.3263 C   0  0  0  0  0  0  0  0  0  0  0  0
   -8.7822    0.7547   -1.9225 O   0  0  0  0  0  0  0  0  0  0  0  0
   -7.7472    2.7263   -1.1691 N   0  0  0  0  0  0  0  0  0  0  0  0
   -2.4557   -0.8279   -0.3536 H   0  0  0  0  0  0  0  0  0  0  0  0
   -3.1713   -1.2789    2.0568 H   0  0  0  0  0  0  0  0  0  0  0  0
   -1.5298   -0.2406    3.5165 H   0  0  0  0  0  0  0  0  0  0  0  0
   -1.0312   -1.8444    3.0221 H   0  0  0  0  0  0  0  0  0  0  0  0
    0.2358    0.7729    2.5641 H   0  0  0  0  0  0  0  0  0  0  0  0
    1.9829    1.1315    1.5117 H   0  0  0  0  0  0  0  0  0  0  0  0
    2.5076   -0.1620    2.6018 H   0  0  0  0  0  0  0  0  0  0  0  0
    3.9329   -2.1225    1.6277 H   0  0  0  0  0  0  0  0  0  0  0  0
    5.7763   -2.6561    0.1946 H   0  0  0  0  0  0  0  0  0  0  0  0
    5.1086    0.8246   -2.0975 H   0  0  0  0  0  0  0  0  0  0  0  0
    3.2294    1.4419   -0.6914 H   0  0  0  0  0  0  0  0  0  0  0  0
    8.9289   -1.8689   -3.0090 H   0  0  0  0  0  0  0  0  0  0  0  0
   11.1948   -1.1099   -2.2825 H   0  0  0  0  0  0  0  0  0  0  0  0
    9.3880    0.8755    0.9474 H   0  0  0  0  0  0  0  0  0  0  0  0
   13.4864    0.7356   -1.3763 H   0  0  0  0  0  0  0  0  0  0  0  0
   13.2555   -0.9465   -0.7933 H   0  0  0  0  0  0  0  0  0  0  0  0
    0.2904   -1.3348   -0.7527 H   0  0  0  0  0  0  0  0  0  0  0  0
   -0.1946    0.4053   -0.3294 H   0  0  0  0  0  0  0  0  0  0  0  0
    1.4665   -0.0475   -0.7389 H   0  0  0  0  0  0  0  0  0  0  0  0
    0.2698   -2.7487    1.1311 H   0  0  0  0  0  0  0  0  0  0  0  0
    1.6851   -2.4558    2.2694 H   0  0  0  0  0  0  0  0  0  0  0  0
    1.8787   -2.4190    0.4943 H   0  0  0  0  0  0  0  0  0  0  0  0
   -2.9572    1.1610    2.4300 H   0  0  0  0  0  0  0  0  0  0  0  0
   -1.9827    1.2983    0.9659 H   0  0  0  0  0  0  0  0  0  0  0  0
   -3.1867    3.1747    1.4451 H   0  0  0  0  0  0  0  0  0  0  0  0
   -4.4554    5.2618    0.9179 H   0  0  0  0  0  0  0  0  0  0  0  0
   -6.6031    5.1504   -0.3044 H   0  0  0  0  0  0  0  0  0  0  0  0
   -5.5646    0.7244   -2.5711 H   0  0  0  0  0  0  0  0  0  0  0  0
   -4.9087   -0.5015   -1.4006 H   0  0  0  0  0  0  0  0  0  0  0  0
   -7.3838   -0.6278   -3.1829 H   0  0  0  0  0  0  0  0  0  0  0  0
   -5.9867   -1.6878   -3.0797 H   0  0  0  0  0  0  0  0  0  0  0  0
   -8.2471   -2.4100   -1.9890 H   0  0  0  0  0  0  0  0  0  0  0  0
   -6.6784   -2.9165   -1.3232 H   0  0  0  0  0  0  0  0  0  0  0  0
   -8.8176   -1.1176   -0.1558 H   0  0  0  0  0  0  0  0  0  0  0  0
   -7.7038   -2.2697    0.5770 H   0  0  0  0  0  0  0  0  0  0  0  0
   -7.5039    0.1681    1.1643 H   0  0  0  0  0  0  0  0  0  0  0  0
   -5.9229   -0.6779    0.7373 H   0  0  0  0  0  0  0  0  0  0  0  0
   -8.4669    3.4260   -1.5111 H   0  0  0  0  0  0  0  0  0  0  0  0
  1  2  1  0
  2  3  1  0
  3  4  1  0
  4  5  1  0
  5  6  1  0
  6  7  1  0
  7  8  2  0
  8  9  1  0
  9 10  2  0
 10 11  1  0
 11 12  2  0
 10 13  1  0
 13 14  1  0
 14 15  2  0
 15 16  1  0
 16 17  2  0
 17 18  1  0
 18 19  2  0
 17 20  1  0
 20 21  2  0
 20 22  1  0
  5 23  1  0
  5 24  1  0
  2 25  1  0
 25 26  1  0
 26 27  1  0
 27 28  2  0
 28 29  1  0
 29 30  2  0
 30 31  1  0
 31 32  2  0
 32 33  1  0
 33 34  1  0
 34 35  1  0
 35 36  1  0
 36 37  1  0
 37 38  1  0
 33 39  1  0
 39 40  2  0
 39 41  1  0
 12  7  1  0
 19 14  1  0
 32 27  1  0
 38 33  1  0
 41 31  1  0
  1 42  1  0
  2 43  1  1
  3 44  1  0
  3 45  1  0
  4 46  1  0
  6 47  1  0
  6 48  1  0
  8 49  1  0
  9 50  1  0
 11 51  1  0
 12 52  1  0
 15 53  1  0
 16 54  1  0
 18 55  1  0
 22 56  1  0
 22 57  1  0
 23 58  1  0
 23 59  1  0
 23 60  1  0
 24 61  1  0
 24 62  1  0
 24 63  1  0
 25 64  1  0
 25 65  1  0
 28 66  1  0
 29 67  1  0
 30 68  1  0
 34 69  1  0
 34 70  1  0
 35 71  1  0
 35 72  1  0
 36 73  1  0
 36 74  1  0
 37 75  1  0
 37 76  1  0
 38 77  1  0
 38 78  1  0
 41 79  1  0
M  END
>  <Ligand ID>  (1) 
LIG0003400

>  <Ligand>  (1) 
CHEMBL248751

>  <SMILES>  (1) 
O[C@@H](CNC(Cc1ccc(cc1)Oc1ccc(cn1)C(=O)N)(C)C)COc1cccc2c1C1(CCCCC1)C(=O)N2

>  <CID>  (1) 
44444176.0

>  <ChEMBL ID>  (1) 
nan

>  <InChiKey>  (1) 
GUAOIBYEPJOBMW-QHCPKHFHSA-N

>  <InChi>  (1) 
InChI=1S/C32H38N4O5/c1-31(2,17-21-9-12-24(13-10-21)41-27-14-11-22(18-34-27)29(33)38)35-19-23(37)20-40-26-8-6-7-25-28(26)32(30(39)36-25)15-4-3-5-16-32/h6-14,18,23,35,37H,3-5,15-17,19-20H2,1-2H3,(H2,33,38)(H,36,39)/t23-/m0/s1

>  <IUPAC Name>  (1) 
6-[4-[2-[[(2S)-2-hydroxy-3-(2-oxospiro[1H-indole-3,1'-cyclohexane]-4-yl)oxypropyl]amino]-2-methylpropyl]phenoxy]pyridine-3-carboxamide

$$$$
