
     RDKit          3D

 48 51  0  0  0  0  0  0  0  0999 V2000
   -1.8778    2.2351   -0.5118 C   0  0  0  0  0  0  0  0  0  0  0  0
   -1.5053    0.9239   -1.1700 C   0  0  1  0  0  0  0  0  0  0  0  0
   -0.1588    0.5174   -0.6523 C   0  0  0  0  0  0  0  0  0  0  0  0
    0.1945   -0.8398   -0.9058 N   0  0  0  0  0  0  0  0  0  0  0  0
   -0.7841   -1.5851   -1.6726 C   0  0  0  0  0  0  0  0  0  0  0  0
   -2.1271   -1.5210   -1.0255 C   0  0  0  0  0  0  0  0  0  0  0  0
   -2.5851   -0.0859   -1.0628 C   0  0  1  0  0  0  0  0  0  0  0  0
   -3.5674    0.1285    0.0181 C   0  0  0  0  0  0  0  0  0  0  0  0
   -3.2227    0.4434    1.3195 C   0  0  0  0  0  0  0  0  0  0  0  0
   -4.1477    0.6346    2.3231 C   0  0  0  0  0  0  0  0  0  0  0  0
   -5.4957    0.5168    2.0665 C   0  0  0  0  0  0  0  0  0  0  0  0
   -5.8739    0.2040    0.7814 C   0  0  0  0  0  0  0  0  0  0  0  0
   -4.9445    0.0143   -0.2170 C   0  0  0  0  0  0  0  0  0  0  0  0
   -5.3697   -0.2940   -1.4738 F   0  0  0  0  0  0  0  0  0  0  0  0
   -6.7290    0.7440    3.2851 Cl  0  0  0  0  0  0  0  0  0  0  0  0
    1.4511   -1.0005   -1.5952 C   0  0  0  0  0  0  0  0  0  0  0  0
    2.6149   -0.4582   -0.8971 C   0  0  0  0  0  0  0  0  0  0  0  0
    3.0599    0.8186   -1.0527 N   0  0  0  0  0  0  0  0  0  0  0  0
    4.1549    1.0126   -0.2712 C   0  0  0  0  0  0  0  0  0  0  0  0
    4.3927   -0.1650    0.3803 C   0  0  0  0  0  0  0  0  0  0  0  0
    3.4498   -1.0376   -0.0140 N   0  0  0  0  0  0  0  0  0  0  0  0
    3.3341   -2.3941    0.4310 C   0  0  0  0  0  0  0  0  0  0  0  0
    5.4803   -0.2314    1.2589 C   0  0  0  0  0  0  0  0  0  0  0  0
    6.2916    0.8901    1.4519 C   0  0  0  0  0  0  0  0  0  0  0  0
    5.9849    2.0502    0.7533 C   0  0  0  0  0  0  0  0  0  0  0  0
    4.9289    2.0916   -0.0907 N   0  0  0  0  0  0  0  0  0  0  0  0
   -1.6583    3.1194   -1.1486 H   0  0  0  0  0  0  0  0  0  0  0  0
   -1.2873    2.4301    0.4284 H   0  0  0  0  0  0  0  0  0  0  0  0
   -2.9357    2.3193   -0.2355 H   0  0  0  0  0  0  0  0  0  0  0  0
   -1.3253    1.1976   -2.2585 H   0  0  0  0  0  0  0  0  0  0  0  0
    0.5800    1.2492   -1.0938 H   0  0  0  0  0  0  0  0  0  0  0  0
   -0.1098    0.7009    0.4389 H   0  0  0  0  0  0  0  0  0  0  0  0
   -0.8546   -1.0999   -2.6707 H   0  0  0  0  0  0  0  0  0  0  0  0
   -0.4489   -2.6320   -1.7199 H   0  0  0  0  0  0  0  0  0  0  0  0
   -2.8277   -2.1629   -1.5935 H   0  0  0  0  0  0  0  0  0  0  0  0
   -2.1215   -1.9358    0.0031 H   0  0  0  0  0  0  0  0  0  0  0  0
   -3.1879   -0.0053   -2.0208 H   0  0  0  0  0  0  0  0  0  0  0  0
   -2.1845    0.5493    1.5951 H   0  0  0  0  0  0  0  0  0  0  0  0
   -3.8359    0.8840    3.3458 H   0  0  0  0  0  0  0  0  0  0  0  0
   -6.9316    0.1009    0.5340 H   0  0  0  0  0  0  0  0  0  0  0  0
    1.6221   -2.0975   -1.7026 H   0  0  0  0  0  0  0  0  0  0  0  0
    1.3253   -0.6194   -2.6354 H   0  0  0  0  0  0  0  0  0  0  0  0
    4.2767   -2.7726    0.8596 H   0  0  0  0  0  0  0  0  0  0  0  0
    3.0712   -3.0059   -0.4763 H   0  0  0  0  0  0  0  0  0  0  0  0
    2.4928   -2.4908    1.1547 H   0  0  0  0  0  0  0  0  0  0  0  0
    5.6893   -1.1665    1.7921 H   0  0  0  0  0  0  0  0  0  0  0  0
    7.1383    0.8656    2.1251 H   0  0  0  0  0  0  0  0  0  0  0  0
    6.5646    2.9601    0.8483 H   0  0  0  0  0  0  0  0  0  0  0  0
  1  2  1  0
  2  3  1  0
  3  4  1  0
  4  5  1  0
  5  6  1  0
  6  7  1  0
  7  8  1  0
  8  9  2  0
  9 10  1  0
 10 11  2  0
 11 12  1  0
 12 13  2  0
 13 14  1  0
 11 15  1  0
  4 16  1  0
 16 17  1  0
 17 18  2  0
 18 19  1  0
 19 20  2  0
 20 21  1  0
 21 22  1  0
 20 23  1  0
 23 24  2  0
 24 25  1  0
 25 26  2  0
  7  2  1  0
 13  8  1  0
 21 17  1  0
 26 19  1  0
  1 27  1  0
  1 28  1  0
  1 29  1  0
  2 30  1  6
  3 31  1  0
  3 32  1  0
  5 33  1  0
  5 34  1  0
  6 35  1  0
  6 36  1  0
  7 37  1  6
  9 38  1  0
 10 39  1  0
 12 40  1  0
 16 41  1  0
 16 42  1  0
 22 43  1  0
 22 44  1  0
 22 45  1  0
 23 46  1  0
 24 47  1  0
 25 48  1  0
M  END
>  <Ligand ID>  (1) 
LIG0005537

>  <Ligand>  (1) 
CHEMBL1774229

>  <SMILES>  (1) 
C[C@H]1CN(CC[C@H]1c1ccc(cc1F)Cl)Cc1nc2c(n1C)cccn2

>  <CID>  (1) 
51357935.0

>  <ChEMBL ID>  (1) 
nan

>  <InChiKey>  (1) 
HUDWYYYFRVUKIA-DZGCQCFKSA-N

>  <InChi>  (1) 
InChI=1S/C20H22ClFN4/c1-13-11-26(9-7-15(13)16-6-5-14(21)10-17(16)22)12-19-24-20-18(25(19)2)4-3-8-23-20/h3-6,8,10,13,15H,7,9,11-12H2,1-2H3/t13-,15+/m0/s1

>  <IUPAC Name>  (1) 
2-[[(3R,4R)-4-(4-chloro-2-fluorophenyl)-3-methylpiperidin-1-yl]methyl]-1-methylimidazo[4,5-b]pyridine

$$$$
