
     RDKit          3D

 83 85  0  0  0  0  0  0  0  0999 V2000
  -11.6592   -2.9375    1.2552 O   0  0  0  0  0  0  0  0  0  0  0  0
  -10.8119   -2.4108    2.2402 C   0  0  0  0  0  0  0  0  0  0  0  0
  -10.0590   -1.2775    1.6119 C   0  0  0  0  0  0  0  0  0  0  0  0
   -8.7542   -1.3717    1.2239 C   0  0  0  0  0  0  0  0  0  0  0  0
   -8.0842   -0.3007    0.6412 C   0  0  0  0  0  0  0  0  0  0  0  0
   -8.7451    0.8664    0.4541 C   0  0  0  0  0  0  0  0  0  0  0  0
  -10.0615    0.9736    0.8415 C   0  0  0  0  0  0  0  0  0  0  0  0
  -10.7578   -0.0835    1.4279 C   0  0  0  0  0  0  0  0  0  0  0  0
  -12.0845    0.0611    1.8056 O   0  0  0  0  0  0  0  0  0  0  0  0
   -6.6575   -0.5462    0.2656 C   0  0  2  0  0  0  0  0  0  0  0  0
   -6.2248    0.4213   -0.8000 C   0  0  0  0  0  0  0  0  0  0  0  0
   -4.9325    0.1014   -1.2793 N   0  0  0  0  0  0  0  0  0  0  0  0
   -3.8669    0.3417   -0.3122 C   0  0  0  0  0  0  0  0  0  0  0  0
   -3.6756    1.7963   -0.0502 C   0  0  0  0  0  0  0  0  0  0  0  0
   -3.3104    2.6822   -1.1433 C   0  0  0  0  0  0  0  0  0  0  0  0
   -2.0297    2.8228   -1.8142 C   0  0  0  0  0  0  0  0  0  0  0  0
   -1.2618    1.6772   -2.3047 C   0  0  0  0  0  0  0  0  0  0  0  0
   -0.5044    0.9235   -1.2387 C   0  0  0  0  0  0  0  0  0  0  0  0
    0.4475    1.8825   -0.7513 O   0  0  0  0  0  0  0  0  0  0  0  0
    1.2350    1.3588    0.2433 C   0  0  0  0  0  0  0  0  0  0  0  0
    2.0217    0.1410   -0.2236 C   0  0  0  0  0  0  0  0  0  0  0  0
    2.9280    0.4533   -1.3667 C   0  0  0  0  0  0  0  0  0  0  0  0
    3.7292   -0.6994   -1.8803 C   0  0  0  0  0  0  0  0  0  0  0  0
    4.6380   -1.3092   -0.8826 C   0  0  0  0  0  0  0  0  0  0  0  0
    4.2715   -2.3348   -0.0373 C   0  0  0  0  0  0  0  0  0  0  0  0
    5.2170   -2.8392    0.8607 C   0  0  0  0  0  0  0  0  0  0  0  0
    6.5068   -2.3306    0.9160 C   0  0  0  0  0  0  0  0  0  0  0  0
    6.8713   -1.3041    0.0692 C   0  0  0  0  0  0  0  0  0  0  0  0
    5.9361   -0.7940   -0.8297 C   0  0  0  0  0  0  0  0  0  0  0  0
    8.1717   -0.7261    0.0567 N   0  0  0  0  0  0  0  0  0  0  0  0
    9.1297   -0.9663   -0.8700 C   0  0  0  0  0  0  0  0  0  0  0  0
   10.2284   -0.2060   -0.5065 C   0  0  0  0  0  0  0  0  0  0  0  0
    9.9457    0.4798    0.6134 N   0  0  0  0  0  0  0  0  0  0  0  0
    8.6827    0.1467    0.9404 C   0  0  0  0  0  0  0  0  0  0  0  0
    8.1139    0.6385    1.9716 O   0  0  0  0  0  0  0  0  0  0  0  0
   10.8654    1.3766    1.2736 C   0  0  0  0  0  0  0  0  0  0  0  0
   11.6647    0.6282    2.2710 C   0  0  0  0  0  0  0  0  0  0  0  0
   12.5445    1.1768    2.9881 O   0  0  0  0  0  0  0  0  0  0  0  0
   11.4834   -0.7831    2.4832 N   0  0  0  0  0  0  0  0  0  0  0  0
   11.4103   -0.2113   -1.2493 O   0  0  0  0  0  0  0  0  0  0  0  0
   -6.6250   -1.8260   -0.3511 O   0  0  0  0  0  0  0  0  0  0  0  0
  -11.9124   -2.1881    0.6599 H   0  0  0  0  0  0  0  0  0  0  0  0
  -11.3862   -2.0307    3.0953 H   0  0  0  0  0  0  0  0  0  0  0  0
  -10.0874   -3.2187    2.4942 H   0  0  0  0  0  0  0  0  0  0  0  0
   -8.2586   -2.3287    1.3925 H   0  0  0  0  0  0  0  0  0  0  0  0
   -8.2643    1.7082    0.0110 H   0  0  0  0  0  0  0  0  0  0  0  0
  -10.5604    1.9365    0.6726 H   0  0  0  0  0  0  0  0  0  0  0  0
  -12.7306    0.4646    1.1213 H   0  0  0  0  0  0  0  0  0  0  0  0
   -6.0511   -0.5830    1.1645 H   0  0  0  0  0  0  0  0  0  0  0  0
   -6.3302    1.4770   -0.4626 H   0  0  0  0  0  0  0  0  0  0  0  0
   -6.9568    0.3321   -1.6455 H   0  0  0  0  0  0  0  0  0  0  0  0
   -4.6967    0.4396   -2.2170 H   0  0  0  0  0  0  0  0  0  0  0  0
   -4.2265   -0.0946    0.6723 H   0  0  0  0  0  0  0  0  0  0  0  0
   -3.0333   -0.2737   -0.5962 H   0  0  0  0  0  0  0  0  0  0  0  0
   -2.9636    1.8546    0.8279 H   0  0  0  0  0  0  0  0  0  0  0  0
   -4.6451    2.1510    0.4223 H   0  0  0  0  0  0  0  0  0  0  0  0
   -4.0919    2.5969   -2.0029 H   0  0  0  0  0  0  0  0  0  0  0  0
   -3.5820    3.7725   -0.7924 H   0  0  0  0  0  0  0  0  0  0  0  0
   -2.1520    3.5815   -2.6960 H   0  0  0  0  0  0  0  0  0  0  0  0
   -1.3599    3.4765   -1.1228 H   0  0  0  0  0  0  0  0  0  0  0  0
   -0.4769    2.0716   -3.0286 H   0  0  0  0  0  0  0  0  0  0  0  0
   -1.8670    0.9746   -2.9379 H   0  0  0  0  0  0  0  0  0  0  0  0
   -0.0124    0.0516   -1.6741 H   0  0  0  0  0  0  0  0  0  0  0  0
   -1.1383    0.6357   -0.4214 H   0  0  0  0  0  0  0  0  0  0  0  0
    1.9882    2.1181    0.5013 H   0  0  0  0  0  0  0  0  0  0  0  0
    0.6953    1.0757    1.1614 H   0  0  0  0  0  0  0  0  0  0  0  0
    1.3783   -0.7307   -0.4021 H   0  0  0  0  0  0  0  0  0  0  0  0
    2.6923   -0.1244    0.6438 H   0  0  0  0  0  0  0  0  0  0  0  0
    2.2824    0.8226   -2.2013 H   0  0  0  0  0  0  0  0  0  0  0  0
    3.6194    1.2967   -1.1576 H   0  0  0  0  0  0  0  0  0  0  0  0
    4.3368   -0.3005   -2.7440 H   0  0  0  0  0  0  0  0  0  0  0  0
    3.0591   -1.4535   -2.3480 H   0  0  0  0  0  0  0  0  0  0  0  0
    3.2639   -2.7238   -0.0887 H   0  0  0  0  0  0  0  0  0  0  0  0
    4.8993   -3.6400    1.5074 H   0  0  0  0  0  0  0  0  0  0  0  0
    7.2453   -2.7241    1.6162 H   0  0  0  0  0  0  0  0  0  0  0  0
    6.2323    0.0208   -1.4988 H   0  0  0  0  0  0  0  0  0  0  0  0
    9.0017   -1.6246   -1.6967 H   0  0  0  0  0  0  0  0  0  0  0  0
   11.5714    1.8065    0.5097 H   0  0  0  0  0  0  0  0  0  0  0  0
   10.3063    2.2389    1.7201 H   0  0  0  0  0  0  0  0  0  0  0  0
   12.1076   -1.4011    1.8980 H   0  0  0  0  0  0  0  0  0  0  0  0
   10.7857   -1.1608    3.1655 H   0  0  0  0  0  0  0  0  0  0  0  0
   11.4124   -0.3343   -2.2596 H   0  0  0  0  0  0  0  0  0  0  0  0
   -6.0308   -2.4273    0.1734 H   0  0  0  0  0  0  0  0  0  0  0  0
  1  2  1  0
  2  3  1  0
  3  4  2  0
  4  5  1  0
  5  6  2  0
  6  7  1  0
  7  8  2  0
  8  9  1  0
  5 10  1  0
 10 11  1  0
 11 12  1  0
 12 13  1  0
 13 14  1  0
 14 15  1  0
 15 16  1  0
 16 17  1  0
 17 18  1  0
 18 19  1  0
 19 20  1  0
 20 21  1  0
 21 22  1  0
 22 23  1  0
 23 24  1  0
 24 25  2  0
 25 26  1  0
 26 27  2  0
 27 28  1  0
 28 29  2  0
 28 30  1  0
 30 31  1  0
 31 32  2  0
 32 33  1  0
 33 34  1  0
 34 35  2  0
 33 36  1  0
 36 37  1  0
 37 38  2  0
 37 39  1  0
 32 40  1  0
 10 41  1  0
  8  3  1  0
 29 24  1  0
 34 30  1  0
  1 42  1  0
  2 43  1  0
  2 44  1  0
  4 45  1  0
  6 46  1  0
  7 47  1  0
  9 48  1  0
 10 49  1  1
 11 50  1  0
 11 51  1  0
 12 52  1  0
 13 53  1  0
 13 54  1  0
 14 55  1  0
 14 56  1  0
 15 57  1  0
 15 58  1  0
 16 59  1  0
 16 60  1  0
 17 61  1  0
 17 62  1  0
 18 63  1  0
 18 64  1  0
 20 65  1  0
 20 66  1  0
 21 67  1  0
 21 68  1  0
 22 69  1  0
 22 70  1  0
 23 71  1  0
 23 72  1  0
 25 73  1  0
 26 74  1  0
 27 75  1  0
 29 76  1  0
 31 77  1  0
 36 78  1  0
 36 79  1  0
 39 80  1  0
 39 81  1  0
 40 82  1  0
 41 83  1  0
M  END
>  <Ligand ID>  (1) 
LIG0002513

>  <Ligand>  (1) 
BDBM50419007

>  <SMILES>  (1) 
OCc1cc(ccc1O)[C@H](CNCCCCCCOCCCCc1cccc(c1)n1cc(n(c1=O)CC(=O)N)O)O

>  <CID>  (1) 
91146739.0

>  <ChEMBL ID>  (1) 
nan

>  <InChiKey>  (1) 
GTTRLXOUKWTYML-MHZLTWQESA-N

>  <InChi>  (1) 
InChI=1S/C30H42N4O7/c31-28(38)19-34-29(39)20-33(30(34)40)25-10-7-9-22(16-25)8-3-6-15-41-14-5-2-1-4-13-32-18-27(37)23-11-12-26(36)24(17-23)21-35/h7,9-12,16-17,20,27,32,35-37,39H,1-6,8,13-15,18-19,21H2,(H2,31,38)/t27-/m0/s1

>  <IUPAC Name>  (1) 
2-[5-hydroxy-3-[3-[4-[6-[[(2R)-2-hydroxy-2-[4-hydroxy-3-(hydroxymethyl)phenyl]ethyl]amino]hexoxy]butyl]phenyl]-2-oxoimidazol-1-yl]acetamide

$$$$
