
     RDKit          3D

 40 42  0  0  0  0  0  0  0  0999 V2000
    3.2543   -0.0795   -2.3732 O   0  0  0  0  0  0  0  0  0  0  0  0
    1.9642   -0.3118   -1.8998 C   0  0  0  0  0  0  0  0  0  0  0  0
    0.8615   -0.1671   -2.7276 C   0  0  0  0  0  0  0  0  0  0  0  0
   -0.4121   -0.4003   -2.2466 C   0  0  0  0  0  0  0  0  0  0  0  0
   -0.6321   -0.7852   -0.9263 C   0  0  0  0  0  0  0  0  0  0  0  0
    0.4833   -0.9227   -0.1208 C   0  0  0  0  0  0  0  0  0  0  0  0
    1.7690   -0.6976   -0.5696 C   0  0  0  0  0  0  0  0  0  0  0  0
    2.8402   -0.8641    0.3280 N   0  0  0  0  0  0  0  0  0  0  0  0
    3.3576    0.4903    1.2611 S   0  0  0  0  0  0  0  0  0  0  0  0
    2.2780    1.0318    2.1314 O   0  0  0  0  0  0  0  0  0  0  0  0
    4.5056    0.1121    2.1662 O   0  0  0  0  0  0  0  0  0  0  0  0
    3.9239    1.7802    0.1715 C   0  0  0  0  0  0  0  0  0  0  0  0
    0.2031   -1.3408    1.2999 C   0  0  0  0  0  0  0  0  0  0  0  0
   -0.8520   -2.4273    1.3288 C   0  0  0  0  0  0  0  0  0  0  0  0
   -2.1181   -2.0693    0.6310 C   0  0  0  0  0  0  0  0  0  0  0  0
   -1.9833   -1.0299   -0.4243 C   0  0  0  0  0  0  0  0  0  0  0  0
   -2.5088    0.2651    0.1327 C   0  0  0  0  0  0  0  0  0  0  0  0
   -2.8757    0.4915    1.3388 N   0  0  0  0  0  0  0  0  0  0  0  0
   -3.3280    1.8492    1.5234 C   0  0  0  0  0  0  0  0  0  0  0  0
   -2.8046    2.5413    0.2860 C   0  0  0  0  0  0  0  0  0  0  0  0
   -2.6673    1.4403   -0.6416 N   0  0  0  0  0  0  0  0  0  0  0  0
    3.5047   -0.5778   -3.2411 H   0  0  0  0  0  0  0  0  0  0  0  0
    1.0115    0.1345   -3.7687 H   0  0  0  0  0  0  0  0  0  0  0  0
   -1.3041   -0.2958   -2.8713 H   0  0  0  0  0  0  0  0  0  0  0  0
    3.2828   -1.8081    0.3941 H   0  0  0  0  0  0  0  0  0  0  0  0
    4.8048    1.4587   -0.4176 H   0  0  0  0  0  0  0  0  0  0  0  0
    3.0927    1.9709   -0.5479 H   0  0  0  0  0  0  0  0  0  0  0  0
    4.1608    2.6868    0.7660 H   0  0  0  0  0  0  0  0  0  0  0  0
   -0.0883   -0.5037    1.9395 H   0  0  0  0  0  0  0  0  0  0  0  0
    1.1309   -1.7812    1.7206 H   0  0  0  0  0  0  0  0  0  0  0  0
   -0.4223   -3.4087    0.9735 H   0  0  0  0  0  0  0  0  0  0  0  0
   -1.0748   -2.6061    2.4012 H   0  0  0  0  0  0  0  0  0  0  0  0
   -2.4748   -3.0180    0.1300 H   0  0  0  0  0  0  0  0  0  0  0  0
   -2.9173   -1.8532    1.3736 H   0  0  0  0  0  0  0  0  0  0  0  0
   -2.6113   -1.2986   -1.3183 H   0  0  0  0  0  0  0  0  0  0  0  0
   -4.4508    1.8666    1.4990 H   0  0  0  0  0  0  0  0  0  0  0  0
   -2.9374    2.3067    2.4540 H   0  0  0  0  0  0  0  0  0  0  0  0
   -1.7975    2.9869    0.5348 H   0  0  0  0  0  0  0  0  0  0  0  0
   -3.4829    3.3085   -0.1118 H   0  0  0  0  0  0  0  0  0  0  0  0
   -2.6856    1.5251   -1.6983 H   0  0  0  0  0  0  0  0  0  0  0  0
  1  2  1  0
  2  3  2  0
  3  4  1  0
  4  5  2  0
  5  6  1  0
  6  7  2  0
  7  8  1  0
  8  9  1  0
  9 10  2  0
  9 11  2  0
  9 12  1  0
  6 13  1  0
 13 14  1  0
 14 15  1  0
 15 16  1  0
 16 17  1  0
 17 18  2  0
 18 19  1  0
 19 20  1  0
 20 21  1  0
  7  2  1  0
 21 17  1  0
 16  5  1  0
  1 22  1  0
  3 23  1  0
  4 24  1  0
  8 25  1  0
 12 26  1  0
 12 27  1  0
 12 28  1  0
 13 29  1  0
 13 30  1  0
 14 31  1  0
 14 32  1  0
 15 33  1  0
 15 34  1  0
 16 35  1  0
 19 36  1  0
 19 37  1  0
 20 38  1  0
 20 39  1  0
 21 40  1  0
M  END
>  <Ligand ID>  (1) 
LIG0002029

>  <Ligand>  (1) 
A61603

>  <SMILES>  (1) 
Oc1ccc2c(c1NS(=O)(=O)C)CCCC2C1=NCCN1

>  <CID>  (1) 
4038180.0

>  <ChEMBL ID>  (1) 
nan

>  <InChiKey>  (1) 
OQFCXJDXHCDLHX-UHFFFAOYSA-N

>  <InChi>  (1) 
InChI=1S/C14H19N3O3S/c1-21(19,20)17-13-10-3-2-4-11(14-15-7-8-16-14)9(10)5-6-12(13)18/h5-6,11,17-18H,2-4,7-8H2,1H3,(H,15,16)

>  <IUPAC Name>  (1) 
N-[5-(4,5-dihydro-1H-imidazol-2-yl)-2-hydroxy-5,6,7,8-tetrahydronaphthalen-1-yl]methanesulfonamide

$$$$
