
     RDKit          3D

 53 57  0  0  0  0  0  0  0  0999 V2000
   -6.5173   -1.7158   -2.6823 N   0  0  0  0  0  0  0  0  0  0  0  0
   -7.0404   -1.0989   -1.8394 C   0  0  0  0  0  0  0  0  0  0  0  0
   -7.6678   -0.3283   -0.7830 C   0  0  0  0  0  0  0  0  0  0  0  0
   -8.9498   -0.6204   -0.3719 C   0  0  0  0  0  0  0  0  0  0  0  0
   -9.5358    0.0947    0.6087 N   0  0  0  0  0  0  0  0  0  0  0  0
   -8.8920    1.1221    1.2246 C   0  0  0  0  0  0  0  0  0  0  0  0
   -7.6076    1.4338    0.8303 C   0  0  0  0  0  0  0  0  0  0  0  0
   -6.9902    0.7105   -0.1745 C   0  0  0  0  0  0  0  0  0  0  0  0
   -5.6037    1.0063   -0.6333 C   0  0  0  0  0  0  0  0  0  0  0  0
   -4.7799    0.0238   -0.0814 O   0  0  0  0  0  0  0  0  0  0  0  0
   -3.4279   -0.0788   -0.2485 C   0  0  0  0  0  0  0  0  0  0  0  0
   -2.6619    0.7900   -1.0034 C   0  0  0  0  0  0  0  0  0  0  0  0
   -1.3334    0.6007   -1.1036 N   0  0  0  0  0  0  0  0  0  0  0  0
   -0.7057   -0.4249   -0.4837 C   0  0  0  0  0  0  0  0  0  0  0  0
   -1.4487   -1.2678    0.2482 N   0  0  0  0  0  0  0  0  0  0  0  0
   -2.7776   -1.1272    0.3833 C   0  0  0  0  0  0  0  0  0  0  0  0
    0.6972   -0.5352   -0.6487 N   0  0  0  0  0  0  0  0  0  0  0  0
    1.3902    0.4323   -1.4788 C   0  0  0  0  0  0  0  0  0  0  0  0
    2.2789    1.2090   -0.5303 C   0  0  0  0  0  0  0  0  0  0  0  0
    3.1158    0.2363    0.1402 N   0  0  0  0  0  0  0  0  0  0  0  0
    2.6061   -0.9263    0.8346 C   0  0  0  0  0  0  0  0  0  0  0  0
    1.5089   -1.5626   -0.0312 C   0  0  1  0  0  0  0  0  0  0  0  0
    0.7378   -2.5382    0.7988 C   0  0  0  0  0  0  0  0  0  0  0  0
    4.5479    0.4232    0.1274 C   0  0  0  0  0  0  0  0  0  0  0  0
    5.2011    1.4200   -0.4652 O   0  0  0  0  0  0  0  0  0  0  0  0
    6.4670    1.2906   -0.2862 N   0  0  0  0  0  0  0  0  0  0  0  0
    6.7041    0.1834    0.4449 C   0  0  0  0  0  0  0  0  0  0  0  0
    5.4818   -0.3562    0.6999 N   0  0  0  0  0  0  0  0  0  0  0  0
    8.0381   -0.3371    0.8830 C   0  0  0  0  0  0  0  0  0  0  0  0
    9.2280    0.0191    0.0754 C   0  0  0  0  0  0  0  0  0  0  0  0
    9.0596    0.7225    1.3732 C   0  0  0  0  0  0  0  0  0  0  0  0
   -9.4519   -1.4496   -0.8785 H   0  0  0  0  0  0  0  0  0  0  0  0
   -9.3518    1.7047    2.0146 H   0  0  0  0  0  0  0  0  0  0  0  0
   -7.0737    2.2554    1.3126 H   0  0  0  0  0  0  0  0  0  0  0  0
   -5.3071    2.0469   -0.3440 H   0  0  0  0  0  0  0  0  0  0  0  0
   -5.6351    1.0104   -1.7516 H   0  0  0  0  0  0  0  0  0  0  0  0
   -3.1811    1.6157   -1.4989 H   0  0  0  0  0  0  0  0  0  0  0  0
   -3.2821   -1.8596    0.9946 H   0  0  0  0  0  0  0  0  0  0  0  0
    0.6849    1.0916   -2.0212 H   0  0  0  0  0  0  0  0  0  0  0  0
    2.0667   -0.1176   -2.1742 H   0  0  0  0  0  0  0  0  0  0  0  0
    2.9244    1.9352   -1.0764 H   0  0  0  0  0  0  0  0  0  0  0  0
    1.6633    1.7265    0.2553 H   0  0  0  0  0  0  0  0  0  0  0  0
    2.1956   -0.6600    1.8342 H   0  0  0  0  0  0  0  0  0  0  0  0
    3.4010   -1.6900    0.9176 H   0  0  0  0  0  0  0  0  0  0  0  0
    2.0402   -2.1483   -0.8228 H   0  0  0  0  0  0  0  0  0  0  0  0
    0.0600   -3.0991    0.1472 H   0  0  0  0  0  0  0  0  0  0  0  0
    0.2625   -2.0727    1.6868 H   0  0  0  0  0  0  0  0  0  0  0  0
    1.4774   -3.2953    1.1766 H   0  0  0  0  0  0  0  0  0  0  0  0
    7.9802   -1.2527    1.4825 H   0  0  0  0  0  0  0  0  0  0  0  0
   10.0893   -0.6974    0.0680 H   0  0  0  0  0  0  0  0  0  0  0  0
    9.0281    0.6342   -0.8314 H   0  0  0  0  0  0  0  0  0  0  0  0
    8.6305    1.7457    1.4353 H   0  0  0  0  0  0  0  0  0  0  0  0
    9.6558    0.4195    2.2466 H   0  0  0  0  0  0  0  0  0  0  0  0
  1  2  3  0
  2  3  1  0
  3  4  2  0
  4  5  1  0
  5  6  2  0
  6  7  1  0
  7  8  2  0
  8  9  1  0
  9 10  1  0
 10 11  1  0
 11 12  2  0
 12 13  1  0
 13 14  2  0
 14 15  1  0
 15 16  2  0
 14 17  1  0
 17 18  1  0
 18 19  1  0
 19 20  1  0
 20 21  1  0
 21 22  1  0
 22 23  1  0
 20 24  1  0
 24 25  1  0
 25 26  1  0
 26 27  2  0
 27 28  1  0
 27 29  1  0
 29 30  1  0
 30 31  1  0
  8  3  1  0
 16 11  1  0
 22 17  1  0
 28 24  2  0
 31 29  1  0
  4 32  1  0
  6 33  1  0
  7 34  1  0
  9 35  1  0
  9 36  1  0
 12 37  1  0
 16 38  1  0
 18 39  1  0
 18 40  1  0
 19 41  1  0
 19 42  1  0
 21 43  1  0
 21 44  1  0
 22 45  1  6
 23 46  1  0
 23 47  1  0
 23 48  1  0
 29 49  1  0
 30 50  1  0
 30 51  1  0
 31 52  1  0
 31 53  1  0
M  END
>  <Ligand ID>  (1) 
LIG0005305

>  <Ligand>  (1) 
CHEMBL2087085

>  <SMILES>  (1) 
N#Cc1cnccc1COc1cnc(nc1)N1CCN(C[C@H]1C)c1onc(n1)C1CC1

>  <CID>  (1) 
60155543.0

>  <ChEMBL ID>  (1) 
nan

>  <InChiKey>  (1) 
JULDLXGPEMYLJM-CQSZACIVSA-N

>  <InChi>  (1) 
InChI=1S/C21H22N8O2/c1-14-12-28(21-26-19(27-31-21)15-2-3-15)6-7-29(14)20-24-10-18(11-25-20)30-13-16-4-5-23-9-17(16)8-22/h4-5,9-11,14-15H,2-3,6-7,12-13H2,1H3/t14-/m1/s1

>  <IUPAC Name>  (1) 
4-[[2-[(2R)-4-(3-cyclopropyl-1,2,4-oxadiazol-5-yl)-2-methylpiperazin-1-yl]pyrimidin-5-yl]oxymethyl]pyridine-3-carbonitrile

$$$$
