
     RDKit          3D

 61 65  0  0  0  0  0  0  0  0999 V2000
    8.6520   -1.5542    0.5144 O   0  0  0  0  0  0  0  0  0  0  0  0
    8.7826   -0.2935   -0.0370 C   0  0  0  0  0  0  0  0  0  0  0  0
    9.9048    0.2520   -0.1043 O   0  0  0  0  0  0  0  0  0  0  0  0
    7.5859    0.4220   -0.5545 C   0  0  0  0  0  0  0  0  0  0  0  0
    6.4027   -0.3069   -0.4157 O   0  0  0  0  0  0  0  0  0  0  0  0
    5.2238    0.2833   -0.8731 C   0  0  0  0  0  0  0  0  0  0  0  0
    5.1901    1.5386   -1.4462 C   0  0  0  0  0  0  0  0  0  0  0  0
    4.0050    2.1158   -1.8986 C   0  0  0  0  0  0  0  0  0  0  0  0
    2.8486    1.4073   -1.7647 C   0  0  0  0  0  0  0  0  0  0  0  0
    2.8222    0.1520   -1.2011 C   0  0  0  0  0  0  0  0  0  0  0  0
    4.0293   -0.3896   -0.7616 C   0  0  0  0  0  0  0  0  0  0  0  0
    3.9359   -1.7577   -0.1662 C   0  0  0  0  0  0  0  0  0  0  0  0
    2.8644   -1.7120    0.8722 C   0  0  0  0  0  0  0  0  0  0  0  0
    1.5123   -1.2451    0.3331 C   0  0  0  0  0  0  0  0  0  0  0  0
    1.5909   -0.6581   -1.0356 C   0  0  0  0  0  0  0  0  0  0  0  0
    0.8442   -0.3129    1.3013 C   0  0  0  0  0  0  0  0  0  0  0  0
   -0.4329    0.2040    0.9061 N   0  0  0  0  0  0  0  0  0  0  0  0
   -1.4939   -0.5896    1.1401 N   0  0  0  0  0  0  0  0  0  0  0  0
   -2.7407   -0.2282    0.7888 C   0  0  0  0  0  0  0  0  0  0  0  0
   -3.9107   -1.0721    1.0308 C   0  0  0  0  0  0  0  0  0  0  0  0
   -4.6167   -1.5233   -0.0892 C   0  0  0  0  0  0  0  0  0  0  0  0
   -5.7360   -2.3265    0.0686 C   0  0  0  0  0  0  0  0  0  0  0  0
   -6.1662   -2.6895    1.3203 C   0  0  0  0  0  0  0  0  0  0  0  0
   -5.4621   -2.2390    2.4273 C   0  0  0  0  0  0  0  0  0  0  0  0
   -4.3320   -1.4291    2.2937 C   0  0  0  0  0  0  0  0  0  0  0  0
   -2.9791    0.9842    0.1683 C   0  0  0  0  0  0  0  0  0  0  0  0
   -1.9082    1.8181   -0.0833 C   0  0  0  0  0  0  0  0  0  0  0  0
   -0.6334    1.3889    0.3053 C   0  0  0  0  0  0  0  0  0  0  0  0
    0.3038    2.1617    0.0691 O   0  0  0  0  0  0  0  0  0  0  0  0
   -4.3170    1.4168   -0.2297 C   0  0  0  0  0  0  0  0  0  0  0  0
   -5.2296    1.5874    0.8132 C   0  0  0  0  0  0  0  0  0  0  0  0
   -6.5015    1.9878    0.5506 C   0  0  0  0  0  0  0  0  0  0  0  0
   -6.8527    2.2160   -0.7639 C   0  0  0  0  0  0  0  0  0  0  0  0
   -5.9760    2.0570   -1.8177 C   0  0  0  0  0  0  0  0  0  0  0  0
   -4.6702    1.6455   -1.5443 C   0  0  0  0  0  0  0  0  0  0  0  0
    9.3427   -1.9337    1.1553 H   0  0  0  0  0  0  0  0  0  0  0  0
    7.7480    0.7318   -1.6161 H   0  0  0  0  0  0  0  0  0  0  0  0
    7.4869    1.3397    0.0856 H   0  0  0  0  0  0  0  0  0  0  0  0
    6.1464    2.0498   -1.5229 H   0  0  0  0  0  0  0  0  0  0  0  0
    4.0840    3.0961   -2.3290 H   0  0  0  0  0  0  0  0  0  0  0  0
    1.9266    1.8496   -2.1155 H   0  0  0  0  0  0  0  0  0  0  0  0
    3.7188   -2.5190   -0.9321 H   0  0  0  0  0  0  0  0  0  0  0  0
    4.8910   -1.9374    0.3634 H   0  0  0  0  0  0  0  0  0  0  0  0
    2.7672   -2.6413    1.4664 H   0  0  0  0  0  0  0  0  0  0  0  0
    3.1655   -0.9140    1.6134 H   0  0  0  0  0  0  0  0  0  0  0  0
    0.8894   -2.1858    0.3038 H   0  0  0  0  0  0  0  0  0  0  0  0
    1.7259   -1.5377   -1.7330 H   0  0  0  0  0  0  0  0  0  0  0  0
    0.7313   -0.0571   -1.3327 H   0  0  0  0  0  0  0  0  0  0  0  0
    1.5530    0.5242    1.5987 H   0  0  0  0  0  0  0  0  0  0  0  0
    0.7724   -0.8902    2.2776 H   0  0  0  0  0  0  0  0  0  0  0  0
   -4.3150   -1.2628   -1.0977 H   0  0  0  0  0  0  0  0  0  0  0  0
   -6.2533   -2.6536   -0.8299 H   0  0  0  0  0  0  0  0  0  0  0  0
   -7.0459   -3.3201    1.4342 H   0  0  0  0  0  0  0  0  0  0  0  0
   -5.8241   -2.5416    3.4192 H   0  0  0  0  0  0  0  0  0  0  0  0
   -3.7889   -1.0816    3.1480 H   0  0  0  0  0  0  0  0  0  0  0  0
   -2.0321    2.7709   -0.5619 H   0  0  0  0  0  0  0  0  0  0  0  0
   -4.9362    1.4021    1.8537 H   0  0  0  0  0  0  0  0  0  0  0  0
   -7.2174    2.1211    1.3736 H   0  0  0  0  0  0  0  0  0  0  0  0
   -7.8708    2.5337   -0.9457 H   0  0  0  0  0  0  0  0  0  0  0  0
   -6.2691    2.2423   -2.8584 H   0  0  0  0  0  0  0  0  0  0  0  0
   -3.9359    1.5037   -2.3346 H   0  0  0  0  0  0  0  0  0  0  0  0
  1  2  1  0
  2  3  2  0
  2  4  1  0
  4  5  1  0
  5  6  1  0
  6  7  2  0
  7  8  1  0
  8  9  2  0
  9 10  1  0
 10 11  2  0
 11 12  1  0
 12 13  1  0
 13 14  1  0
 14 15  1  0
 14 16  1  0
 16 17  1  0
 17 18  1  0
 18 19  2  0
 19 20  1  0
 20 21  2  0
 21 22  1  0
 22 23  2  0
 23 24  1  0
 24 25  2  0
 19 26  1  0
 26 27  2  0
 27 28  1  0
 28 29  2  0
 26 30  1  0
 30 31  2  0
 31 32  1  0
 32 33  2  0
 33 34  1  0
 34 35  2  0
 11  6  1  0
 28 17  1  0
 35 30  1  0
 15 10  1  0
 25 20  1  0
  1 36  1  0
  4 37  1  0
  4 38  1  0
  7 39  1  0
  8 40  1  0
  9 41  1  0
 12 42  1  0
 12 43  1  0
 13 44  1  0
 13 45  1  0
 14 46  1  0
 15 47  1  0
 15 48  1  0
 16 49  1  0
 16 50  1  0
 21 51  1  0
 22 52  1  0
 23 53  1  0
 24 54  1  0
 25 55  1  0
 27 56  1  0
 31 57  1  0
 32 58  1  0
 33 59  1  0
 34 60  1  0
 35 61  1  0
M  END
>  <Ligand ID>  (1) 
LIG0003018

>  <Ligand>  (1) 
CHEMBL3398206

>  <SMILES>  (1) 
OC(=O)COc1cccc2c1CCC(C2)Cn1nc(c2ccccc2)c(cc1=O)c1ccccc1

>  <CID>  (1) 
118727285.0

>  <ChEMBL ID>  (1) 
nan

>  <InChiKey>  (1) 
YXWLJLGDPWJSAE-UHFFFAOYSA-N

>  <InChi>  (1) 
InChI=1S/C29H26N2O4/c32-27-17-25(21-8-3-1-4-9-21)29(22-10-5-2-6-11-22)30-31(27)18-20-14-15-24-23(16-20)12-7-13-26(24)35-19-28(33)34/h1-13,17,20H,14-16,18-19H2,(H,33,34)

>  <IUPAC Name>  (1) 
2-[[6-[(6-oxo-3,4-diphenylpyridazin-1-yl)methyl]-5,6,7,8-tetrahydronaphthalen-1-yl]oxy]acetic acid

$$$$
