
     RDKit          3D

 61 62  0  0  0  0  0  0  0  0999 V2000
    2.2204   -1.3188    2.3724 C   0  0  0  0  0  0  0  0  0  0  0  0
    3.0981   -0.3649    2.2791 O   0  0  0  0  0  0  0  0  0  0  0  0
    3.9746    0.5810    2.2313 C   0  0  0  0  0  0  0  0  0  0  0  0
    4.5829    1.0569    3.4105 C   0  0  0  0  0  0  0  0  0  0  0  0
    5.5165    2.0648    3.3521 C   0  0  0  0  0  0  0  0  0  0  0  0
    5.8368    2.5905    2.1252 C   0  0  0  0  0  0  0  0  0  0  0  0
    5.2819    2.1731    0.9379 C   0  0  0  0  0  0  0  0  0  0  0  0
    4.3476    1.1629    1.0044 C   0  0  0  0  0  0  0  0  0  0  0  0
    3.7186    0.6566   -0.1231 O   0  0  0  0  0  0  0  0  0  0  0  0
    4.0801    1.2219   -1.3715 C   0  0  0  0  0  0  0  0  0  0  0  0
    3.3099    0.5707   -2.5053 C   0  0  0  0  0  0  0  0  0  0  0  0
    1.8268    0.8333   -2.2285 C   0  0  0  0  0  0  0  0  0  0  0  0
    1.0781    0.1695   -3.3467 C   0  0  0  0  0  0  0  0  0  0  0  0
   -0.2974    0.2895   -3.2835 O   0  0  0  0  0  0  0  0  0  0  0  0
   -1.1044   -0.2236   -2.3273 C   0  0  0  0  0  0  0  0  0  0  0  0
   -0.7626   -0.9872   -1.2472 C   0  0  0  0  0  0  0  0  0  0  0  0
   -1.6989   -1.4633   -0.3231 C   0  0  0  0  0  0  0  0  0  0  0  0
   -3.0327   -1.1716   -0.4754 C   0  0  0  0  0  0  0  0  0  0  0  0
   -3.4041   -0.4062   -1.5544 C   0  0  0  0  0  0  0  0  0  0  0  0
   -2.4790    0.0578   -2.4567 C   0  0  0  0  0  0  0  0  0  0  0  0
   -2.9684    0.8837   -3.6015 C   0  0  0  0  0  0  0  0  0  0  0  0
   -4.7432   -0.0951   -1.7366 O   0  0  0  0  0  0  0  0  0  0  0  0
   -3.9644   -1.6844    0.5171 C   0  0  0  0  0  0  0  0  0  0  0  0
   -3.6034   -2.3897    1.5013 O   0  0  0  0  0  0  0  0  0  0  0  0
   -5.4129   -1.3847    0.4001 C   0  0  0  0  0  0  0  0  0  0  0  0
   -6.2004   -1.9853    1.5425 C   0  0  0  0  0  0  0  0  0  0  0  0
   -5.7039   -1.4224    2.8586 C   0  0  0  0  0  0  0  0  0  0  0  0
   -6.2122   -3.4831    1.5315 C   0  0  0  0  0  0  0  0  0  0  0  0
    6.8266    3.6553    2.0900 C   0  0  0  0  0  0  0  0  0  0  0  0
    7.3617    4.0545    3.1675 O   0  0  0  0  0  0  0  0  0  0  0  0
    7.2415    4.2870    0.9283 O   0  0  0  0  0  0  0  0  0  0  0  0
    1.3117   -1.1859    1.6914 H   0  0  0  0  0  0  0  0  0  0  0  0
    1.7389   -1.4964    3.3762 H   0  0  0  0  0  0  0  0  0  0  0  0
    2.5849   -2.3582    2.0737 H   0  0  0  0  0  0  0  0  0  0  0  0
    4.2941    0.6090    4.3488 H   0  0  0  0  0  0  0  0  0  0  0  0
    5.9514    2.3906    4.2897 H   0  0  0  0  0  0  0  0  0  0  0  0
    5.5454    2.5985   -0.0244 H   0  0  0  0  0  0  0  0  0  0  0  0
    5.1636    1.1062   -1.5743 H   0  0  0  0  0  0  0  0  0  0  0  0
    3.8529    2.3114   -1.4003 H   0  0  0  0  0  0  0  0  0  0  0  0
    3.6281    1.1000   -3.4256 H   0  0  0  0  0  0  0  0  0  0  0  0
    3.4454   -0.5102   -2.5498 H   0  0  0  0  0  0  0  0  0  0  0  0
    1.6447    1.9397   -2.3548 H   0  0  0  0  0  0  0  0  0  0  0  0
    1.5429    0.5119   -1.2321 H   0  0  0  0  0  0  0  0  0  0  0  0
    1.4134   -0.9089   -3.3397 H   0  0  0  0  0  0  0  0  0  0  0  0
    1.4996    0.5508   -4.3143 H   0  0  0  0  0  0  0  0  0  0  0  0
    0.2508   -1.2881   -1.0604 H   0  0  0  0  0  0  0  0  0  0  0  0
   -1.3716   -2.0703    0.5246 H   0  0  0  0  0  0  0  0  0  0  0  0
   -3.1544    1.9294   -3.2707 H   0  0  0  0  0  0  0  0  0  0  0  0
   -2.2297    0.9445   -4.4340 H   0  0  0  0  0  0  0  0  0  0  0  0
   -3.9309    0.4999   -3.9757 H   0  0  0  0  0  0  0  0  0  0  0  0
   -5.2200   -0.5482   -2.5245 H   0  0  0  0  0  0  0  0  0  0  0  0
   -5.7776   -1.8958   -0.5175 H   0  0  0  0  0  0  0  0  0  0  0  0
   -5.6511   -0.3054    0.3983 H   0  0  0  0  0  0  0  0  0  0  0  0
   -7.2446   -1.6188    1.4067 H   0  0  0  0  0  0  0  0  0  0  0  0
   -5.0430   -2.1630    3.3759 H   0  0  0  0  0  0  0  0  0  0  0  0
   -5.1388   -0.5094    2.6380 H   0  0  0  0  0  0  0  0  0  0  0  0
   -6.5720   -1.2311    3.5220 H   0  0  0  0  0  0  0  0  0  0  0  0
   -6.1894   -3.8774    0.4944 H   0  0  0  0  0  0  0  0  0  0  0  0
   -7.1192   -3.8720    2.0626 H   0  0  0  0  0  0  0  0  0  0  0  0
   -5.3250   -3.8907    2.0968 H   0  0  0  0  0  0  0  0  0  0  0  0
    7.3852    5.3094    0.8971 H   0  0  0  0  0  0  0  0  0  0  0  0
  1  2  1  0
  2  3  1  0
  3  4  2  0
  4  5  1  0
  5  6  2  0
  6  7  1  0
  7  8  2  0
  8  9  1  0
  9 10  1  0
 10 11  1  0
 11 12  1  0
 12 13  1  0
 13 14  1  0
 14 15  1  0
 15 16  2  0
 16 17  1  0
 17 18  2  0
 18 19  1  0
 19 20  2  0
 20 21  1  0
 19 22  1  0
 18 23  1  0
 23 24  2  0
 23 25  1  0
 25 26  1  0
 26 27  1  0
 26 28  1  0
  6 29  1  0
 29 30  2  0
 29 31  1  0
  8  3  1  0
 20 15  1  0
  1 32  1  0
  1 33  1  0
  1 34  1  0
  4 35  1  0
  5 36  1  0
  7 37  1  0
 10 38  1  0
 10 39  1  0
 11 40  1  0
 11 41  1  0
 12 42  1  0
 12 43  1  0
 13 44  1  0
 13 45  1  0
 16 46  1  0
 17 47  1  0
 21 48  1  0
 21 49  1  0
 21 50  1  0
 22 51  1  0
 25 52  1  0
 25 53  1  0
 26 54  1  0
 27 55  1  0
 27 56  1  0
 27 57  1  0
 28 58  1  0
 28 59  1  0
 28 60  1  0
 31 61  1  0
M  END
>  <Ligand ID>  (1) 
LIG0003642

>  <Ligand>  (1) 
CHEMBL3287701

>  <SMILES>  (1) 
COc1ccc(cc1OCCCCOc1ccc(c(c1C)O)C(=O)CC(C)C)C(=O)O

>  <CID>  (1) 
90643878.0

>  <ChEMBL ID>  (1) 
nan

>  <InChiKey>  (1) 
TYYKQQMKUKSDJB-UHFFFAOYSA-N

>  <InChi>  (1) 
InChI=1S/C24H30O7/c1-15(2)13-19(25)18-8-10-20(16(3)23(18)26)30-11-5-6-12-31-22-14-17(24(27)28)7-9-21(22)29-4/h7-10,14-15,26H,5-6,11-13H2,1-4H3,(H,27,28)

>  <IUPAC Name>  (1) 
3-[4-[3-hydroxy-2-methyl-4-(3-methylbutanoyl)phenoxy]butoxy]-4-methoxybenzoic acid

$$$$
