
     RDKit          3D

 55 58  0  0  0  0  0  0  0  0999 V2000
   10.0484   -0.9446    0.3380 C   0  0  0  0  0  0  0  0  0  0  0  0
    8.5537   -0.9386    0.5839 C   0  0  0  0  0  0  0  0  0  0  0  0
    7.9185    0.1094   -0.1204 O   0  0  0  0  0  0  0  0  0  0  0  0
    6.5387    0.2931   -0.0312 C   0  0  0  0  0  0  0  0  0  0  0  0
    5.7283   -0.5210    0.7345 C   0  0  0  0  0  0  0  0  0  0  0  0
    4.3610   -0.2943    0.7883 C   0  0  0  0  0  0  0  0  0  0  0  0
    3.7979    0.7453    0.0784 C   0  0  0  0  0  0  0  0  0  0  0  0
    4.6297    1.5501   -0.6837 C   0  0  0  0  0  0  0  0  0  0  0  0
    5.9930    1.3385   -0.7485 C   0  0  0  0  0  0  0  0  0  0  0  0
    2.3607    1.0502    0.0834 C   0  0  0  0  0  0  0  0  0  0  0  0
    1.6110    0.3562   -0.9688 C   0  0  0  0  0  0  0  0  0  0  0  0
    2.1129   -0.4312   -1.8129 O   0  0  0  0  0  0  0  0  0  0  0  0
    0.2099    0.5795   -1.0554 N   0  0  0  0  0  0  0  0  0  0  0  0
   -0.6153   -0.0666   -2.0680 C   0  0  0  0  0  0  0  0  0  0  0  0
   -1.4895   -1.0622   -1.3364 C   0  0  0  0  0  0  0  0  0  0  0  0
   -2.0824   -0.4253   -0.1198 C   0  0  0  0  0  0  0  0  0  0  0  0
   -1.9731    1.0938   -0.1659 C   0  0  0  0  0  0  0  0  0  0  0  0
   -0.4908    1.4700   -0.1353 C   0  0  0  0  0  0  0  0  0  0  0  0
   -3.4811   -0.7842   -0.0480 N   0  0  0  0  0  0  0  0  0  0  0  0
   -4.4722    0.0332    0.3090 N   0  0  0  0  0  0  0  0  0  0  0  0
   -5.6513   -0.5958    0.2763 C   0  0  0  0  0  0  0  0  0  0  0  0
   -5.3903   -1.8238   -0.1069 O   0  0  0  0  0  0  0  0  0  0  0  0
   -4.0849   -1.9598   -0.3084 C   0  0  0  0  0  0  0  0  0  0  0  0
   -3.4998   -3.0101   -0.6813 O   0  0  0  0  0  0  0  0  0  0  0  0
   -6.9360    0.0135    0.6104 C   0  0  0  0  0  0  0  0  0  0  0  0
   -7.0296    1.3460    1.0025 C   0  0  0  0  0  0  0  0  0  0  0  0
   -8.2532    1.9013    1.3136 C   0  0  0  0  0  0  0  0  0  0  0  0
   -9.4295    1.1740    1.2525 C   0  0  0  0  0  0  0  0  0  0  0  0
   -9.3323   -0.1561    0.8606 C   0  0  0  0  0  0  0  0  0  0  0  0
   -8.1055   -0.7057    0.5508 C   0  0  0  0  0  0  0  0  0  0  0  0
   10.1960   -0.7416   -0.7548 H   0  0  0  0  0  0  0  0  0  0  0  0
   10.4953   -1.9291    0.5317 H   0  0  0  0  0  0  0  0  0  0  0  0
   10.5634   -0.1722    0.9413 H   0  0  0  0  0  0  0  0  0  0  0  0
    8.4331   -0.7777    1.6800 H   0  0  0  0  0  0  0  0  0  0  0  0
    8.1117   -1.9101    0.2894 H   0  0  0  0  0  0  0  0  0  0  0  0
    6.2092   -1.3248    1.2757 H   0  0  0  0  0  0  0  0  0  0  0  0
    3.7219   -0.9357    1.3916 H   0  0  0  0  0  0  0  0  0  0  0  0
    4.2268    2.3776   -1.2563 H   0  0  0  0  0  0  0  0  0  0  0  0
    6.6228    1.9849   -1.3542 H   0  0  0  0  0  0  0  0  0  0  0  0
    2.2397    2.1398    0.0944 H   0  0  0  0  0  0  0  0  0  0  0  0
    1.9563    0.6986    1.0747 H   0  0  0  0  0  0  0  0  0  0  0  0
   -1.2384    0.6877   -2.6100 H   0  0  0  0  0  0  0  0  0  0  0  0
   -0.0013   -0.5506   -2.8502 H   0  0  0  0  0  0  0  0  0  0  0  0
   -2.2398   -1.5317   -2.0034 H   0  0  0  0  0  0  0  0  0  0  0  0
   -0.8046   -1.8922   -1.0251 H   0  0  0  0  0  0  0  0  0  0  0  0
   -1.5371   -0.7361    0.8182 H   0  0  0  0  0  0  0  0  0  0  0  0
   -2.4716    1.5001   -1.0661 H   0  0  0  0  0  0  0  0  0  0  0  0
   -2.4890    1.4775    0.7331 H   0  0  0  0  0  0  0  0  0  0  0  0
   -0.3532    2.5235   -0.4426 H   0  0  0  0  0  0  0  0  0  0  0  0
   -0.1661    1.3537    0.9097 H   0  0  0  0  0  0  0  0  0  0  0  0
   -6.1280    1.9087    1.0508 H   0  0  0  0  0  0  0  0  0  0  0  0
   -8.2382    2.9523    1.6118 H   0  0  0  0  0  0  0  0  0  0  0  0
  -10.3478    1.6446    1.5014 H   0  0  0  0  0  0  0  0  0  0  0  0
  -10.2645   -0.7125    0.8180 H   0  0  0  0  0  0  0  0  0  0  0  0
   -8.0437   -1.7348    0.2493 H   0  0  0  0  0  0  0  0  0  0  0  0
  1  2  1  0
  2  3  1  0
  3  4  1  0
  4  5  2  0
  5  6  1  0
  6  7  2  0
  7  8  1  0
  8  9  2  0
  7 10  1  0
 10 11  1  0
 11 12  2  0
 11 13  1  0
 13 14  1  0
 14 15  1  0
 15 16  1  0
 16 17  1  0
 17 18  1  0
 16 19  1  0
 19 20  1  0
 20 21  2  0
 21 22  1  0
 22 23  1  0
 23 24  2  0
 21 25  1  0
 25 26  2  0
 26 27  1  0
 27 28  2  0
 28 29  1  0
 29 30  2  0
  9  4  1  0
 18 13  1  0
 23 19  1  0
 30 25  1  0
  1 31  1  0
  1 32  1  0
  1 33  1  0
  2 34  1  0
  2 35  1  0
  5 36  1  0
  6 37  1  0
  8 38  1  0
  9 39  1  0
 10 40  1  0
 10 41  1  0
 14 42  1  0
 14 43  1  0
 15 44  1  0
 15 45  1  0
 16 46  1  0
 17 47  1  0
 17 48  1  0
 18 49  1  0
 18 50  1  0
 26 51  1  0
 27 52  1  0
 28 53  1  0
 29 54  1  0
 30 55  1  0
M  END
>  <Ligand ID>  (1) 
LIG0004482

>  <Ligand>  (1) 
MLS-0437154.0001

>  <SMILES>  (1) 
CCOc1ccc(cc1)CC(=O)N1CCC(CC1)n1nc(oc1=O)c1ccccc1

>  <CID>  (1) 
23612553.0

>  <ChEMBL ID>  (1) 
nan

>  <InChiKey>  (1) 
PAOKFWIGURVSMZ-UHFFFAOYSA-N

>  <InChi>  (1) 
InChI=1S/C23H25N3O4/c1-2-29-20-10-8-17(9-11-20)16-21(27)25-14-12-19(13-15-25)26-23(28)30-22(24-26)18-6-4-3-5-7-18/h3-11,19H,2,12-16H2,1H3

>  <IUPAC Name>  (1) 
3-[1-[2-(4-ethoxyphenyl)acetyl]piperidin-4-yl]-5-phenyl-1,3,4-oxadiazol-2-one

$$$$
