
     RDKit          3D

 38 40  0  0  0  0  0  0  0  0999 V2000
    2.7188   -1.3822   -0.2143 C   0  0  0  0  0  0  0  0  0  0  0  0
    1.6692   -0.5418   -0.8838 C   0  0  0  0  0  0  0  0  0  0  0  0
    2.0961    0.9019   -0.9554 C   0  0  0  0  0  0  0  0  0  0  0  0
    1.4668    1.8966   -0.4249 N   0  0  0  0  0  0  0  0  0  0  0  0
    2.1480    3.1516   -0.6818 C   0  0  0  0  0  0  0  0  0  0  0  0
    2.9914    2.7981   -1.8881 C   0  0  0  0  0  0  0  0  0  0  0  0
    3.2562    1.3986   -1.6163 N   0  0  0  0  0  0  0  0  0  0  0  0
    0.4174   -0.6234   -0.3079 O   0  0  0  0  0  0  0  0  0  0  0  0
   -0.7700   -1.0708   -0.7973 C   0  0  0  0  0  0  0  0  0  0  0  0
   -0.9918   -1.5707   -2.0554 C   0  0  0  0  0  0  0  0  0  0  0  0
   -2.2257   -2.0124   -2.4987 C   0  0  0  0  0  0  0  0  0  0  0  0
   -3.3197   -1.9648   -1.6607 C   0  0  0  0  0  0  0  0  0  0  0  0
   -3.1160   -1.4626   -0.3842 C   0  0  0  0  0  0  0  0  0  0  0  0
   -1.8764   -1.0226    0.0505 C   0  0  0  0  0  0  0  0  0  0  0  0
   -1.7858   -0.5201    1.4009 C   0  0  0  0  0  0  0  0  0  0  0  0
   -0.7476   -0.8941    2.2321 C   0  0  0  0  0  0  0  0  0  0  0  0
   -0.6706   -0.4045    3.5294 C   0  0  0  0  0  0  0  0  0  0  0  0
   -1.6730    0.4568    3.9216 C   0  0  0  0  0  0  0  0  0  0  0  0
   -2.7109    0.8412    3.1154 C   0  0  0  0  0  0  0  0  0  0  0  0
   -2.7622    0.3432    1.8408 C   0  0  0  0  0  0  0  0  0  0  0  0
    2.3238   -2.1817    0.4399 H   0  0  0  0  0  0  0  0  0  0  0  0
    3.4219   -1.7717   -0.9778 H   0  0  0  0  0  0  0  0  0  0  0  0
    3.3636   -0.7646    0.4785 H   0  0  0  0  0  0  0  0  0  0  0  0
    1.5594   -0.9401   -1.9195 H   0  0  0  0  0  0  0  0  0  0  0  0
    2.8364    3.3761    0.1441 H   0  0  0  0  0  0  0  0  0  0  0  0
    1.4353    3.9703   -0.8969 H   0  0  0  0  0  0  0  0  0  0  0  0
    3.8885    3.4225   -1.9820 H   0  0  0  0  0  0  0  0  0  0  0  0
    2.3700    2.7937   -2.8241 H   0  0  0  0  0  0  0  0  0  0  0  0
    4.0877    0.8117   -1.8264 H   0  0  0  0  0  0  0  0  0  0  0  0
   -0.1790   -1.6249   -2.7307 H   0  0  0  0  0  0  0  0  0  0  0  0
   -2.3951   -2.4061   -3.4935 H   0  0  0  0  0  0  0  0  0  0  0  0
   -4.2814   -2.3053   -1.9957 H   0  0  0  0  0  0  0  0  0  0  0  0
   -3.9944   -1.4373    0.2525 H   0  0  0  0  0  0  0  0  0  0  0  0
    0.0163   -1.5725    1.8804 H   0  0  0  0  0  0  0  0  0  0  0  0
    0.1412   -0.6925    4.1903 H   0  0  0  0  0  0  0  0  0  0  0  0
   -1.6420    0.8587    4.9329 H   0  0  0  0  0  0  0  0  0  0  0  0
   -3.4941    1.5155    3.4250 H   0  0  0  0  0  0  0  0  0  0  0  0
   -3.5720    0.6301    1.1810 H   0  0  0  0  0  0  0  0  0  0  0  0
  1  2  1  0
  2  3  1  0
  3  4  2  0
  4  5  1  0
  5  6  1  0
  6  7  1  0
  2  8  1  0
  8  9  1  0
  9 10  2  0
 10 11  1  0
 11 12  2  0
 12 13  1  0
 13 14  2  0
 14 15  1  0
 15 16  2  0
 16 17  1  0
 17 18  2  0
 18 19  1  0
 19 20  2  0
  7  3  1  0
 14  9  1  0
 20 15  1  0
  1 21  1  0
  1 22  1  0
  1 23  1  0
  2 24  1  0
  5 25  1  0
  5 26  1  0
  6 27  1  0
  6 28  1  0
  7 29  1  0
 10 30  1  0
 11 31  1  0
 12 32  1  0
 13 33  1  0
 16 34  1  0
 17 35  1  0
 18 36  1  0
 19 37  1  0
 20 38  1  0
M  END
>  <Ligand ID>  (1) 
LIG0003515

>  <Ligand>  (1) 
CHEMBL128168

>  <SMILES>  (1) 
CC(C1=NCCN1)Oc1ccccc1c1ccccc1

>  <CID>  (1) 
44352207.0

>  <ChEMBL ID>  (1) 
nan

>  <InChiKey>  (1) 
OGOLMGZJNRNULQ-UHFFFAOYSA-N

>  <InChi>  (1) 
InChI=1S/C17H18N2O/c1-13(17-18-11-12-19-17)20-16-10-6-5-9-15(16)14-7-3-2-4-8-14/h2-10,13H,11-12H2,1H3,(H,18,19)

>  <IUPAC Name>  (1) 
2-[1-(2-phenylphenoxy)ethyl]-4,5-dihydro-1H-imidazole

$$$$
