
     RDKit          3D

 74 78  0  0  0  0  0  0  0  0999 V2000
    6.9361   -0.0055    1.3282 O   0  0  0  0  0  0  0  0  0  0  0  0
    6.5242   -0.8753    0.3524 C   0  0  2  0  0  0  0  0  0  0  0  0
    7.5827   -1.9277    0.1074 C   0  0  0  0  0  0  0  0  0  0  0  0
    8.7524   -1.4290   -0.3085 O   0  0  0  0  0  0  0  0  0  0  0  0
    9.8031   -0.6694   -0.0195 C   0  0  0  0  0  0  0  0  0  0  0  0
   10.0900    0.0102    1.1399 C   0  0  0  0  0  0  0  0  0  0  0  0
   11.2221    0.7801    1.3268 C   0  0  0  0  0  0  0  0  0  0  0  0
   12.1176    0.8754    0.2984 C   0  0  0  0  0  0  0  0  0  0  0  0
   11.8996    0.2245   -0.8887 C   0  0  0  0  0  0  0  0  0  0  0  0
   10.7717   -0.5273   -1.0412 C   0  0  0  0  0  0  0  0  0  0  0  0
    6.3443   -0.1541   -0.9827 C   0  0  0  0  0  0  0  0  0  0  0  0
    5.3723    0.9094   -0.9242 N   0  0  0  0  0  0  0  0  0  0  0  0
    4.0651    0.3582   -0.7448 C   0  0  0  0  0  0  0  0  0  0  0  0
    2.9887    1.4260   -0.6851 C   0  0  0  0  0  0  0  0  0  0  0  0
    1.6563    0.7905   -0.4957 C   0  0  0  0  0  0  0  0  0  0  0  0
    0.8463    0.4136   -1.5502 C   0  0  0  0  0  0  0  0  0  0  0  0
   -0.3850   -0.1787   -1.3449 C   0  0  0  0  0  0  0  0  0  0  0  0
   -0.8029   -0.3930   -0.0479 C   0  0  0  0  0  0  0  0  0  0  0  0
   -0.0034   -0.0213    1.0322 C   0  0  0  0  0  0  0  0  0  0  0  0
    1.2173    0.5664    0.7909 C   0  0  0  0  0  0  0  0  0  0  0  0
   -2.0498   -0.9930    0.2835 N   0  0  0  0  0  0  0  0  0  0  0  0
   -3.2443   -0.2456    0.4866 C   0  0  0  0  0  0  0  0  0  0  0  0
   -3.2762    1.0158    0.3842 O   0  0  0  0  0  0  0  0  0  0  0  0
   -4.4982   -0.9881    0.8328 C   0  0  0  0  0  0  0  0  0  0  0  0
   -5.5646    0.0315    0.9927 C   0  0  0  0  0  0  0  0  0  0  0  0
   -5.8340    0.6035    2.1853 N   0  0  0  0  0  0  0  0  0  0  0  0
   -6.8303    1.4929    2.0535 C   0  0  0  0  0  0  0  0  0  0  0  0
   -7.1732    1.4490    0.7116 C   0  0  0  0  0  0  0  0  0  0  0  0
   -6.3831    0.5406    0.0681 N   0  0  0  0  0  0  0  0  0  0  0  0
   -6.4861    0.2461   -1.3432 C   0  0  0  0  0  0  0  0  0  0  0  0
   -7.4219   -0.8631   -1.5948 C   0  0  0  0  0  0  0  0  0  0  0  0
   -6.9602   -2.1531   -1.8163 C   0  0  0  0  0  0  0  0  0  0  0  0
   -7.8242   -3.2189   -2.0467 C   0  0  0  0  0  0  0  0  0  0  0  0
   -9.1906   -3.0456   -2.0669 C   0  0  0  0  0  0  0  0  0  0  0  0
   -9.6627   -1.7706   -1.8491 C   0  0  0  0  0  0  0  0  0  0  0  0
   -8.7964   -0.7064   -1.6188 C   0  0  0  0  0  0  0  0  0  0  0  0
   -8.1897    2.2947    0.3176 C   0  0  0  0  0  0  0  0  0  0  0  0
   -8.8279    3.1393    1.2289 C   0  0  0  0  0  0  0  0  0  0  0  0
   -8.4663    3.1607    2.5558 C   0  0  0  0  0  0  0  0  0  0  0  0
   -7.4533    2.3225    2.9610 C   0  0  0  0  0  0  0  0  0  0  0  0
    6.4416    0.8534    1.1994 H   0  0  0  0  0  0  0  0  0  0  0  0
    5.5490   -1.3686    0.6469 H   0  0  0  0  0  0  0  0  0  0  0  0
    7.6767   -2.5884    1.0285 H   0  0  0  0  0  0  0  0  0  0  0  0
    7.1111   -2.6056   -0.6752 H   0  0  0  0  0  0  0  0  0  0  0  0
    9.4258   -0.0512    1.9875 H   0  0  0  0  0  0  0  0  0  0  0  0
   11.4245    1.3043    2.2456 H   0  0  0  0  0  0  0  0  0  0  0  0
   12.9946    1.4653    0.4293 H   0  0  0  0  0  0  0  0  0  0  0  0
   12.6257    0.3234   -1.6722 H   0  0  0  0  0  0  0  0  0  0  0  0
   10.6367   -1.0272   -1.9985 H   0  0  0  0  0  0  0  0  0  0  0  0
    7.2961    0.1653   -1.4043 H   0  0  0  0  0  0  0  0  0  0  0  0
    5.9128   -0.9115   -1.6971 H   0  0  0  0  0  0  0  0  0  0  0  0
    5.4060    1.3966   -1.8322 H   0  0  0  0  0  0  0  0  0  0  0  0
    3.9407   -0.3226    0.0969 H   0  0  0  0  0  0  0  0  0  0  0  0
    3.8521   -0.2526   -1.6614 H   0  0  0  0  0  0  0  0  0  0  0  0
    2.9970    2.0657   -1.5862 H   0  0  0  0  0  0  0  0  0  0  0  0
    3.1632    2.0866    0.1865 H   0  0  0  0  0  0  0  0  0  0  0  0
    1.1711    0.5801   -2.5494 H   0  0  0  0  0  0  0  0  0  0  0  0
   -1.0268   -0.4775   -2.1662 H   0  0  0  0  0  0  0  0  0  0  0  0
   -0.3362   -0.1919    2.0517 H   0  0  0  0  0  0  0  0  0  0  0  0
    1.8033    0.8385    1.6717 H   0  0  0  0  0  0  0  0  0  0  0  0
   -2.0984   -2.0455    0.3855 H   0  0  0  0  0  0  0  0  0  0  0  0
   -4.7471   -1.7495    0.0911 H   0  0  0  0  0  0  0  0  0  0  0  0
   -4.3586   -1.5458    1.8029 H   0  0  0  0  0  0  0  0  0  0  0  0
   -5.4724   -0.0053   -1.7610 H   0  0  0  0  0  0  0  0  0  0  0  0
   -6.7757    1.1782   -1.8690 H   0  0  0  0  0  0  0  0  0  0  0  0
   -5.9074   -2.4066   -1.8321 H   0  0  0  0  0  0  0  0  0  0  0  0
   -7.4582   -4.2215   -2.2181 H   0  0  0  0  0  0  0  0  0  0  0  0
   -9.8375   -3.8740   -2.2451 H   0  0  0  0  0  0  0  0  0  0  0  0
  -10.7393   -1.6466   -1.8674 H   0  0  0  0  0  0  0  0  0  0  0  0
   -9.2475    0.2445   -1.4615 H   0  0  0  0  0  0  0  0  0  0  0  0
   -8.5258    2.3467   -0.6875 H   0  0  0  0  0  0  0  0  0  0  0  0
   -9.6253    3.7939    0.8906 H   0  0  0  0  0  0  0  0  0  0  0  0
   -8.9578    3.8136    3.2639 H   0  0  0  0  0  0  0  0  0  0  0  0
   -7.1791    2.3510    4.0157 H   0  0  0  0  0  0  0  0  0  0  0  0
  1  2  1  0
  2  3  1  0
  3  4  1  0
  4  5  1  0
  5  6  2  0
  6  7  1  0
  7  8  2  0
  8  9  1  0
  9 10  2  0
  2 11  1  0
 11 12  1  0
 12 13  1  0
 13 14  1  0
 14 15  1  0
 15 16  2  0
 16 17  1  0
 17 18  2  0
 18 19  1  0
 19 20  2  0
 18 21  1  0
 21 22  1  0
 22 23  2  0
 22 24  1  0
 24 25  1  0
 25 26  2  0
 26 27  1  0
 27 28  2  0
 28 29  1  0
 29 30  1  0
 30 31  1  0
 31 32  2  0
 32 33  1  0
 33 34  2  0
 34 35  1  0
 35 36  2  0
 28 37  1  0
 37 38  2  0
 38 39  1  0
 39 40  2  0
 10  5  1  0
 20 15  1  0
 29 25  1  0
 36 31  1  0
 40 27  1  0
  1 41  1  0
  2 42  1  1
  3 43  1  0
  3 44  1  0
  6 45  1  0
  7 46  1  0
  8 47  1  0
  9 48  1  0
 10 49  1  0
 11 50  1  0
 11 51  1  0
 12 52  1  0
 13 53  1  0
 13 54  1  0
 14 55  1  0
 14 56  1  0
 16 57  1  0
 17 58  1  0
 19 59  1  0
 20 60  1  0
 21 61  1  0
 24 62  1  0
 24 63  1  0
 30 64  1  0
 30 65  1  0
 32 66  1  0
 33 67  1  0
 34 68  1  0
 35 69  1  0
 36 70  1  0
 37 71  1  0
 38 72  1  0
 39 73  1  0
 40 74  1  0
M  END
>  <Ligand ID>  (1) 
LIG0002692

>  <Ligand>  (1) 
CHEMBL467298

>  <SMILES>  (1) 
O[C@H](COc1ccccc1)CNCCc1ccc(cc1)NC(=O)Cc1nc2c(n1Cc1ccccc1)cccc2

>  <CID>  (1) 
44574825.0

>  <ChEMBL ID>  (1) 
nan

>  <InChiKey>  (1) 
DIEMPDVFYGCUFB-NDEPHWFRSA-N

>  <InChi>  (1) 
InChI=1S/C33H34N4O3/c38-28(24-40-29-11-5-2-6-12-29)22-34-20-19-25-15-17-27(18-16-25)35-33(39)21-32-36-30-13-7-8-14-31(30)37(32)23-26-9-3-1-4-10-26/h1-18,28,34,38H,19-24H2,(H,35,39)/t28-/m0/s1

>  <IUPAC Name>  (1) 
2-(1-benzylbenzimidazol-2-yl)-N-[4-[2-[[(2S)-2-hydroxy-3-phenoxypropyl]amino]ethyl]phenyl]acetamide

$$$$
