
     RDKit          3D

 64 68  0  0  0  0  0  0  0  0999 V2000
   -4.3618    1.4294   -0.8998 O   0  0  0  0  0  0  0  0  0  0  0  0
   -3.8196    0.2720   -0.9514 C   0  0  0  0  0  0  0  0  0  0  0  0
   -2.4759    0.1024   -0.5298 N   0  0  0  0  0  0  0  0  0  0  0  0
   -1.7727   -1.1650   -0.5489 C   0  0  0  0  0  0  0  0  0  0  0  0
   -0.9708   -1.2239    0.7269 C   0  0  0  0  0  0  0  0  0  0  0  0
    0.1317   -0.2589    0.6968 C   0  0  0  0  0  0  0  0  0  0  0  0
   -0.2473    0.9238   -0.1638 C   0  0  0  0  0  0  0  0  0  0  0  0
   -1.7256    1.2516   -0.0415 C   0  0  0  0  0  0  0  0  0  0  0  0
    1.4118   -0.7187    0.2915 N   0  0  0  0  0  0  0  0  0  0  0  0
    1.9763   -1.7776    1.0595 C   0  0  0  0  0  0  0  0  0  0  0  0
    3.3147   -1.3601    1.6990 C   0  0  0  0  0  0  0  0  0  0  0  0
    4.2937   -0.9341    0.6393 C   0  0  0  0  0  0  0  0  0  0  0  0
    3.6759    0.0548   -0.3243 C   0  0  0  0  0  0  0  0  0  0  0  0
    2.2578    0.4004    0.0377 C   0  0  0  0  0  0  0  0  0  0  0  0
    5.4576   -0.3730    1.2637 N   0  0  0  0  0  0  0  0  0  0  0  0
    5.8045   -0.2696    2.5589 C   0  0  0  0  0  0  0  0  0  0  0  0
    5.1382   -0.6675    3.5307 O   0  0  0  0  0  0  0  0  0  0  0  0
    7.0015    0.3366    2.6889 N   0  0  0  0  0  0  0  0  0  0  0  0
    7.4525    0.6382    1.4604 C   0  0  0  0  0  0  0  0  0  0  0  0
    6.4896    0.1950    0.5802 C   0  0  0  0  0  0  0  0  0  0  0  0
    6.7503    0.4040   -0.7674 C   0  0  0  0  0  0  0  0  0  0  0  0
    7.9213    1.0263   -1.1772 C   0  0  0  0  0  0  0  0  0  0  0  0
    8.8623    1.4572   -0.2737 C   0  0  0  0  0  0  0  0  0  0  0  0
    8.6195    1.2575    1.0665 C   0  0  0  0  0  0  0  0  0  0  0  0
    9.5303    1.6714    1.9911 F   0  0  0  0  0  0  0  0  0  0  0  0
   -4.6382   -0.7701   -1.4413 N   0  0  0  0  0  0  0  0  0  0  0  0
   -5.9794   -0.3985   -1.8208 C   0  0  0  0  0  0  0  0  0  0  0  0
   -6.2870    0.0086   -3.1018 C   0  0  0  0  0  0  0  0  0  0  0  0
   -7.6097    0.3421   -3.3473 C   0  0  0  0  0  0  0  0  0  0  0  0
   -8.5741    0.2694   -2.3531 C   0  0  0  0  0  0  0  0  0  0  0  0
   -8.2466   -0.1422   -1.0704 C   0  0  0  0  0  0  0  0  0  0  0  0
   -6.9250   -0.4784   -0.8143 C   0  0  0  0  0  0  0  0  0  0  0  0
   -9.4261   -0.2569    0.2454 S   0  0  0  0  0  0  0  0  0  0  0  0
   -9.5149    1.3155    1.1460 C   0  0  0  0  0  0  0  0  0  0  0  0
  -10.4352    1.2055    2.1622 F   0  0  0  0  0  0  0  0  0  0  0  0
   -9.9188    2.2740    0.2350 F   0  0  0  0  0  0  0  0  0  0  0  0
   -8.2579    1.6211    1.6168 F   0  0  0  0  0  0  0  0  0  0  0  0
   -2.4584   -2.0309   -0.6559 H   0  0  0  0  0  0  0  0  0  0  0  0
   -1.0977   -1.1365   -1.4484 H   0  0  0  0  0  0  0  0  0  0  0  0
   -1.6940   -0.9110    1.5390 H   0  0  0  0  0  0  0  0  0  0  0  0
   -0.7108   -2.2564    1.0220 H   0  0  0  0  0  0  0  0  0  0  0  0
    0.2658    0.1752    1.7323 H   0  0  0  0  0  0  0  0  0  0  0  0
   -0.1102    0.6264   -1.2248 H   0  0  0  0  0  0  0  0  0  0  0  0
    0.3131    1.8416    0.0994 H   0  0  0  0  0  0  0  0  0  0  0  0
   -1.8922    2.1440   -0.6745 H   0  0  0  0  0  0  0  0  0  0  0  0
   -2.0098    1.4857    1.0084 H   0  0  0  0  0  0  0  0  0  0  0  0
    2.1936   -2.6244    0.3752 H   0  0  0  0  0  0  0  0  0  0  0  0
    1.3852   -2.1617    1.8911 H   0  0  0  0  0  0  0  0  0  0  0  0
    3.7088   -2.2729    2.1814 H   0  0  0  0  0  0  0  0  0  0  0  0
    3.0971   -0.5851    2.4603 H   0  0  0  0  0  0  0  0  0  0  0  0
    4.6028   -1.8176    0.0782 H   0  0  0  0  0  0  0  0  0  0  0  0
    3.6972   -0.3060   -1.3726 H   0  0  0  0  0  0  0  0  0  0  0  0
    4.2447    1.0283   -0.2859 H   0  0  0  0  0  0  0  0  0  0  0  0
    2.2360    1.1671    0.8345 H   0  0  0  0  0  0  0  0  0  0  0  0
    1.8490    0.9395   -0.8677 H   0  0  0  0  0  0  0  0  0  0  0  0
    7.4900    0.5341    3.6105 H   0  0  0  0  0  0  0  0  0  0  0  0
    6.0544    0.0885   -1.5300 H   0  0  0  0  0  0  0  0  0  0  0  0
    8.1321    1.1936   -2.2342 H   0  0  0  0  0  0  0  0  0  0  0  0
    9.7820    1.9440   -0.5570 H   0  0  0  0  0  0  0  0  0  0  0  0
   -4.2732   -1.7258   -1.5123 H   0  0  0  0  0  0  0  0  0  0  0  0
   -5.5197    0.0571   -3.8569 H   0  0  0  0  0  0  0  0  0  0  0  0
   -7.9170    0.6705   -4.3363 H   0  0  0  0  0  0  0  0  0  0  0  0
   -9.6105    0.5273   -2.5325 H   0  0  0  0  0  0  0  0  0  0  0  0
   -6.6615   -0.8013    0.1872 H   0  0  0  0  0  0  0  0  0  0  0  0
  1  2  2  0
  2  3  1  0
  3  4  1  0
  4  5  1  0
  5  6  1  0
  6  7  1  0
  7  8  1  0
  6  9  1  0
  9 10  1  0
 10 11  1  0
 11 12  1  0
 12 13  1  0
 13 14  1  0
 12 15  1  0
 15 16  1  0
 16 17  2  0
 16 18  1  0
 18 19  1  0
 19 20  2  0
 20 21  1  0
 21 22  2  0
 22 23  1  0
 23 24  2  0
 24 25  1  0
  2 26  1  0
 26 27  1  0
 27 28  2  0
 28 29  1  0
 29 30  2  0
 30 31  1  0
 31 32  2  0
 31 33  1  0
 33 34  1  0
 34 35  1  0
 34 36  1  0
 34 37  1  0
  8  3  1  0
 14  9  1  0
 20 15  1  0
 32 27  1  0
 24 19  1  0
  4 38  1  0
  4 39  1  0
  5 40  1  0
  5 41  1  0
  6 42  1  0
  7 43  1  0
  7 44  1  0
  8 45  1  0
  8 46  1  0
 10 47  1  0
 10 48  1  0
 11 49  1  0
 11 50  1  0
 12 51  1  0
 13 52  1  0
 13 53  1  0
 14 54  1  0
 14 55  1  0
 18 56  1  0
 21 57  1  0
 22 58  1  0
 23 59  1  0
 26 60  1  0
 28 61  1  0
 29 62  1  0
 30 63  1  0
 32 64  1  0
M  END
>  <Ligand ID>  (1) 
LIG0000853

>  <Ligand>  (1) 
CHEMBL487788

>  <SMILES>  (1) 
O=C(N1CCC(CC1)N1CCC(CC1)n1c(=O)[nH]c2c1cccc2F)Nc1cccc(c1)SC(F)(F)F

>  <CID>  (1) 
44589644.0

>  <ChEMBL ID>  (1) 
nan

>  <InChiKey>  (1) 
GVLDTEKPXVTOGI-UHFFFAOYSA-N

>  <InChi>  (1) 
InChI=1S/C25H27F4N5O2S/c26-20-5-2-6-21-22(20)31-24(36)34(21)18-9-11-32(12-10-18)17-7-13-33(14-8-17)23(35)30-16-3-1-4-19(15-16)37-25(27,28)29/h1-6,15,17-18H,7-14H2,(H,30,35)(H,31,36)

>  <IUPAC Name>  (1) 
4-[4-(4-fluoro-2-oxo-3H-benzimidazol-1-yl)piperidin-1-yl]-N-[3-(trifluoromethylsulfanyl)phenyl]piperidine-1-carboxamide

$$$$
