
     RDKit          3D

 64 65  0  0  0  0  0  0  0  0999 V2000
   -3.5079   -3.6367    2.1073 C   0  0  0  0  0  0  0  0  0  0  0  0
   -2.8770   -2.8134    1.1860 O   0  0  0  0  0  0  0  0  0  0  0  0
   -2.3447   -1.6751    1.7129 C   0  0  0  0  0  0  0  0  0  0  0  0
   -1.6465   -0.7529    0.7456 C   0  0  0  0  0  0  0  0  0  0  0  0
   -0.5011   -1.5567    0.1579 C   0  0  0  0  0  0  0  0  0  0  0  0
    0.4453   -0.7090   -0.6184 C   0  0  0  0  0  0  0  0  0  0  0  0
    0.7559    0.5599   -0.0971 N   0  0  0  0  0  0  0  0  0  0  0  0
    0.1464    1.0149    1.0820 C   0  0  0  0  0  0  0  0  0  0  0  0
   -1.1281    0.4202    1.5372 C   0  0  0  0  0  0  0  0  0  0  0  0
    2.1817    0.7944   -0.0476 C   0  0  0  0  0  0  0  0  0  0  0  0
    2.9227   -0.0508    0.9316 C   0  0  0  0  0  0  0  0  0  0  0  0
    4.3550    0.2728    0.9009 N   0  0  0  0  0  0  0  0  0  0  0  0
    4.9285    1.2051    1.6641 N   0  0  0  0  0  0  0  0  0  0  0  0
    6.2129    1.2396    1.3915 N   0  0  0  0  0  0  0  0  0  0  0  0
    6.4668    0.3326    0.4557 N   0  0  0  0  0  0  0  0  0  0  0  0
    5.3144   -0.2795    0.1394 C   0  0  0  0  0  0  0  0  0  0  0  0
    5.1730   -1.1884   -0.7041 O   0  0  0  0  0  0  0  0  0  0  0  0
    7.8044    0.1212   -0.0651 C   0  0  0  0  0  0  0  0  0  0  0  0
    8.1132    0.9901   -1.2664 C   0  0  0  0  0  0  0  0  0  0  0  0
   -2.5703   -0.3086   -0.2608 N   0  0  0  0  0  0  0  0  0  0  0  0
   -2.8832    1.1015   -0.3411 C   0  0  0  0  0  0  0  0  0  0  0  0
   -3.9632    1.6305    0.3658 C   0  0  0  0  0  0  0  0  0  0  0  0
   -4.2645    2.9663    0.2890 C   0  0  0  0  0  0  0  0  0  0  0  0
   -3.4969    3.8024   -0.4927 C   0  0  0  0  0  0  0  0  0  0  0  0
   -2.4167    3.3048   -1.2069 C   0  0  0  0  0  0  0  0  0  0  0  0
   -2.1422    1.9684   -1.1095 C   0  0  0  0  0  0  0  0  0  0  0  0
   -3.2316   -1.1318   -1.2025 C   0  0  0  0  0  0  0  0  0  0  0  0
   -3.0764   -2.3734   -1.3142 O   0  0  0  0  0  0  0  0  0  0  0  0
   -4.2137   -0.5340   -2.1780 C   0  0  0  0  0  0  0  0  0  0  0  0
   -4.7612   -1.6240   -3.0444 C   0  0  0  0  0  0  0  0  0  0  0  0
    0.6849    0.0000    0.0000 Cl  0  0  0  0  0  0  0  0  0  0  0  0
   -4.3418   -3.1592    2.6216 H   0  0  0  0  0  0  0  0  0  0  0  0
   -3.8715   -4.5250    1.5121 H   0  0  0  0  0  0  0  0  0  0  0  0
   -2.7421   -4.0502    2.7880 H   0  0  0  0  0  0  0  0  0  0  0  0
   -3.1604   -1.1578    2.2661 H   0  0  0  0  0  0  0  0  0  0  0  0
   -1.6394   -2.0075    2.5327 H   0  0  0  0  0  0  0  0  0  0  0  0
   -0.9358   -2.3330   -0.4924 H   0  0  0  0  0  0  0  0  0  0  0  0
   -0.0115   -2.0996    0.9906 H   0  0  0  0  0  0  0  0  0  0  0  0
    0.0573   -0.5438   -1.6707 H   0  0  0  0  0  0  0  0  0  0  0  0
    1.3548   -1.3571   -0.8056 H   0  0  0  0  0  0  0  0  0  0  0  0
   -0.0707    2.1269    0.9177 H   0  0  0  0  0  0  0  0  0  0  0  0
    0.8745    1.0814    1.9594 H   0  0  0  0  0  0  0  0  0  0  0  0
   -1.9568    1.1582    1.6184 H   0  0  0  0  0  0  0  0  0  0  0  0
   -1.0016    0.0571    2.6025 H   0  0  0  0  0  0  0  0  0  0  0  0
    2.6677    0.7123   -1.0252 H   0  0  0  0  0  0  0  0  0  0  0  0
    2.3095    1.8664    0.2616 H   0  0  0  0  0  0  0  0  0  0  0  0
    2.8069   -1.1209    0.6012 H   0  0  0  0  0  0  0  0  0  0  0  0
    2.6234    0.0726    1.9891 H   0  0  0  0  0  0  0  0  0  0  0  0
    8.5769    0.3553    0.7107 H   0  0  0  0  0  0  0  0  0  0  0  0
    7.9353   -0.9274   -0.3553 H   0  0  0  0  0  0  0  0  0  0  0  0
    7.6928    0.5351   -2.1925 H   0  0  0  0  0  0  0  0  0  0  0  0
    9.2209    1.0321   -1.3363 H   0  0  0  0  0  0  0  0  0  0  0  0
    7.6959    2.0162   -1.0919 H   0  0  0  0  0  0  0  0  0  0  0  0
   -4.5713    0.9832    0.9818 H   0  0  0  0  0  0  0  0  0  0  0  0
   -5.1014    3.4206    0.8262 H   0  0  0  0  0  0  0  0  0  0  0  0
   -3.6839    4.8584   -0.5922 H   0  0  0  0  0  0  0  0  0  0  0  0
   -1.7901    3.9379   -1.8340 H   0  0  0  0  0  0  0  0  0  0  0  0
   -1.2981    1.5958   -1.6748 H   0  0  0  0  0  0  0  0  0  0  0  0
   -3.6703    0.1835   -2.8016 H   0  0  0  0  0  0  0  0  0  0  0  0
   -5.0705   -0.0824   -1.6345 H   0  0  0  0  0  0  0  0  0  0  0  0
   -5.5935   -2.1116   -2.4775 H   0  0  0  0  0  0  0  0  0  0  0  0
   -3.9368   -2.3483   -3.2394 H   0  0  0  0  0  0  0  0  0  0  0  0
   -5.1636   -1.2595   -4.0100 H   0  0  0  0  0  0  0  0  0  0  0  0
   -0.6849    0.0000    0.0000 H   0  0  0  0  0  0  0  0  0  0  0  0
  1  2  1  0
  2  3  1  0
  3  4  1  0
  4  5  1  0
  5  6  1  0
  6  7  1  0
  7  8  1  0
  8  9  1  0
  7 10  1  0
 10 11  1  0
 11 12  1  0
 12 13  1  0
 13 14  2  0
 14 15  1  0
 15 16  1  0
 16 17  2  0
 15 18  1  0
 18 19  1  0
  4 20  1  0
 20 21  1  0
 21 22  2  0
 22 23  1  0
 23 24  2  0
 24 25  1  0
 25 26  2  0
 20 27  1  0
 27 28  2  0
 27 29  1  0
 29 30  1  0
  9  4  1  0
 16 12  1  0
 26 21  1  0
  1 32  1  0
  1 33  1  0
  1 34  1  0
  3 35  1  0
  3 36  1  0
  5 37  1  0
  5 38  1  0
  6 39  1  0
  6 40  1  0
  8 41  1  0
  8 42  1  0
  9 43  1  0
  9 44  1  0
 10 45  1  0
 10 46  1  0
 11 47  1  0
 11 48  1  0
 18 49  1  0
 18 50  1  0
 19 51  1  0
 19 52  1  0
 19 53  1  0
 22 54  1  0
 23 55  1  0
 24 56  1  0
 25 57  1  0
 26 58  1  0
 29 59  1  0
 29 60  1  0
 30 61  1  0
 30 62  1  0
 30 63  1  0
 31 64  1  0
M  END
>  <Ligand ID>  (1) 
LIG0004037

>  <Ligand>  (1) 
Alfentanil hydrochloride

>  <SMILES>  (1) 
COCC1(CCN(CC1)CCn1nnn(c1=O)CC)N(c1ccccc1)C(=O)CC.Cl

>  <CID>  (1) 
64761.0

>  <ChEMBL ID>  (1) 
nan

>  <InChiKey>  (1) 
AQORHZJDCHLLJN-UHFFFAOYSA-N

>  <InChi>  (1) 
InChI=1S/C21H32N6O3.ClH/c1-4-19(28)27(18-9-7-6-8-10-18)21(17-30-3)11-13-24(14-12-21)15-16-26-20(29)25(5-2)22-23-26;/h6-10H,4-5,11-17H2,1-3H3;1H

>  <IUPAC Name>  (1) 
N-[1-[2-(4-ethyl-5-oxotetrazol-1-yl)ethyl]-4-(methoxymethyl)piperidin-4-yl]-N-phenylpropanamide;hydrochloride

$$$$
