
     RDKit          3D

 43 44  0  0  0  0  0  0  0  0999 V2000
    7.5319    1.2306    0.1910 C   0  0  0  0  0  0  0  0  0  0  0  0
    6.2508    0.6642   -0.0831 O   0  0  0  0  0  0  0  0  0  0  0  0
    6.1228   -0.6992   -0.3610 C   0  0  0  0  0  0  0  0  0  0  0  0
    7.0895   -1.4947   -0.3827 O   0  0  0  0  0  0  0  0  0  0  0  0
    4.7610   -1.2292   -0.6422 C   0  0  0  0  0  0  0  0  0  0  0  0
    4.0932   -0.3229   -1.6511 C   0  0  0  0  0  0  0  0  0  0  0  0
    4.5943    0.7364   -1.9936 O   0  0  0  0  0  0  0  0  0  0  0  0
    2.7901   -0.8278   -2.1750 C   0  0  0  0  0  0  0  0  0  0  0  0
    1.7675   -0.3896   -1.1918 C   0  0  0  0  0  0  0  0  0  0  0  0
    2.0235    0.6131   -0.3194 N   0  0  0  0  0  0  0  0  0  0  0  0
    1.0915    0.9806    0.6044 C   0  0  0  0  0  0  0  0  0  0  0  0
    1.4167    2.0136    1.5116 N   0  0  0  0  0  0  0  0  0  0  0  0
   -0.0813    0.3312    0.6260 N   0  0  0  0  0  0  0  0  0  0  0  0
   -0.3275   -0.6746   -0.2548 C   0  0  0  0  0  0  0  0  0  0  0  0
    0.6033   -1.0484   -1.1822 N   0  0  0  0  0  0  0  0  0  0  0  0
   -1.5677   -1.3751   -0.2963 N   0  0  0  0  0  0  0  0  0  0  0  0
   -2.8007   -0.6916   -0.1573 C   0  0  0  0  0  0  0  0  0  0  0  0
   -2.8535    0.6812   -0.1597 C   0  0  0  0  0  0  0  0  0  0  0  0
   -4.0500    1.3664   -0.0374 C   0  0  0  0  0  0  0  0  0  0  0  0
   -5.2307    0.6483    0.0904 C   0  0  0  0  0  0  0  0  0  0  0  0
   -5.1492   -0.7255    0.0889 C   0  0  0  0  0  0  0  0  0  0  0  0
   -3.9515   -1.4020   -0.0334 C   0  0  0  0  0  0  0  0  0  0  0  0
   -6.4021   -1.5151    0.2200 C   0  0  0  0  0  0  0  0  0  0  0  0
   -6.4896    1.3926    0.2268 C   0  0  0  0  0  0  0  0  0  0  0  0
    8.0346    0.6873    1.0156 H   0  0  0  0  0  0  0  0  0  0  0  0
    8.1835    1.1329   -0.7172 H   0  0  0  0  0  0  0  0  0  0  0  0
    7.3735    2.3047    0.3748 H   0  0  0  0  0  0  0  0  0  0  0  0
    4.1925   -1.0971    0.3445 H   0  0  0  0  0  0  0  0  0  0  0  0
    4.7214   -2.2814   -0.9606 H   0  0  0  0  0  0  0  0  0  0  0  0
    2.7844   -1.8905   -2.4036 H   0  0  0  0  0  0  0  0  0  0  0  0
    2.5359   -0.2909   -3.1156 H   0  0  0  0  0  0  0  0  0  0  0  0
    1.7254    2.9748    1.2432 H   0  0  0  0  0  0  0  0  0  0  0  0
    1.3369    1.7711    2.5397 H   0  0  0  0  0  0  0  0  0  0  0  0
   -1.4970   -2.4110   -0.4187 H   0  0  0  0  0  0  0  0  0  0  0  0
   -1.9740    1.3219   -0.2675 H   0  0  0  0  0  0  0  0  0  0  0  0
   -4.0849    2.4737   -0.0380 H   0  0  0  0  0  0  0  0  0  0  0  0
   -3.9135   -2.4970   -0.0316 H   0  0  0  0  0  0  0  0  0  0  0  0
   -7.0596   -1.1591    1.0389 H   0  0  0  0  0  0  0  0  0  0  0  0
   -6.1989   -2.5834    0.4080 H   0  0  0  0  0  0  0  0  0  0  0  0
   -6.9139   -1.4929   -0.7797 H   0  0  0  0  0  0  0  0  0  0  0  0
   -6.6439    1.8216    1.2401 H   0  0  0  0  0  0  0  0  0  0  0  0
   -7.3337    0.7302    0.0123 H   0  0  0  0  0  0  0  0  0  0  0  0
   -6.5009    2.2226   -0.5176 H   0  0  0  0  0  0  0  0  0  0  0  0
  1  2  1  0
  2  3  1  0
  3  4  2  0
  3  5  1  0
  5  6  1  0
  6  7  2  0
  6  8  1  0
  8  9  1  0
  9 10  2  0
 10 11  1  0
 11 12  1  0
 11 13  2  0
 13 14  1  0
 14 15  2  0
 14 16  1  0
 16 17  1  0
 17 18  2  0
 18 19  1  0
 19 20  2  0
 20 21  1  0
 21 22  2  0
 21 23  1  0
 20 24  1  0
 15  9  1  0
 22 17  1  0
  1 25  1  0
  1 26  1  0
  1 27  1  0
  5 28  1  0
  5 29  1  0
  8 30  1  0
  8 31  1  0
 12 32  1  0
 12 33  1  0
 16 34  1  0
 18 35  1  0
 19 36  1  0
 22 37  1  0
 23 38  1  0
 23 39  1  0
 23 40  1  0
 24 41  1  0
 24 42  1  0
 24 43  1  0
M  END
>  <Ligand ID>  (1) 
LIG0003616

>  <Ligand>  (1) 
MLS000036338

>  <SMILES>  (1) 
COC(=O)CC(=O)Cc1nc(N)nc(n1)Nc1ccc(c(c1)C)C

>  <CID>  (1) 
661099.0

>  <ChEMBL ID>  (1) 
nan

>  <InChiKey>  (1) 
ODELWMUHUHJXGM-UHFFFAOYSA-N

>  <InChi>  (1) 
InChI=1S/C16H19N5O3/c1-9-4-5-11(6-10(9)2)18-16-20-13(19-15(17)21-16)7-12(22)8-14(23)24-3/h4-6H,7-8H2,1-3H3,(H3,17,18,19,20,21)

>  <IUPAC Name>  (1) 
methyl 4-[4-amino-6-(3,4-dimethylanilino)-1,3,5-triazin-2-yl]-3-oxobutanoate

$$$$
