
     RDKit          3D

 58 59  0  0  0  0  0  0  0  0999 V2000
    0.9988   -4.0425   -1.8055 O   0  0  0  0  0  0  0  0  0  0  0  0
    0.6374   -3.2396   -0.7171 C   0  0  2  0  0  0  0  0  0  0  0  0
   -0.7742   -3.6804   -0.3192 C   0  0  0  0  0  0  0  0  0  0  0  0
   -1.5765   -2.5140   -0.7909 C   0  0  0  0  0  0  0  0  0  0  0  0
   -2.6624   -2.6300   -1.3225 O   0  0  0  0  0  0  0  0  0  0  0  0
   -0.7635   -1.3167   -0.4634 C   0  0  1  0  0  0  0  0  0  0  0  0
    0.5781   -1.7896   -1.0506 C   0  0  1  0  0  0  0  0  0  0  0  0
    1.6902   -0.9663   -0.5858 C   0  0  0  0  0  0  0  0  0  0  0  0
    2.1516   -0.9544    0.7348 C   0  0  0  0  0  0  0  0  0  0  0  0
    3.2243   -0.1293    1.0952 C   0  0  0  0  0  0  0  0  0  0  0  0
    3.8191    0.6696    0.1354 C   0  0  0  0  0  0  0  0  0  0  0  0
    3.3744    0.6737   -1.1905 C   0  0  0  0  0  0  0  0  0  0  0  0
    2.3161   -0.1440   -1.5336 C   0  0  0  0  0  0  0  0  0  0  0  0
    4.9613    1.5748    0.4316 C   0  0  0  0  0  0  0  0  0  0  0  0
    5.3725    1.4978    1.8731 C   0  0  0  0  0  0  0  0  0  0  0  0
    4.5980    2.9933    0.0482 C   0  0  0  0  0  0  0  0  0  0  0  0
    6.1494    1.1850   -0.4286 C   0  0  0  0  0  0  0  0  0  0  0  0
   -1.2442   -0.0843   -1.1360 C   0  0  0  0  0  0  0  0  0  0  0  0
   -2.6455    0.2839   -0.7730 C   0  0  0  0  0  0  0  0  0  0  0  0
   -2.7159    0.5079    0.7095 C   0  0  0  0  0  0  0  0  0  0  0  0
   -4.1069    0.8927    1.0982 C   0  0  0  0  0  0  0  0  0  0  0  0
   -5.1383   -0.1437    0.7684 C   0  0  0  0  0  0  0  0  0  0  0  0
   -6.4916    0.3452    1.2253 C   0  0  0  0  0  0  0  0  0  0  0  0
   -6.7959    1.6087    0.5159 C   0  0  0  0  0  0  0  0  0  0  0  0
   -6.4363    2.7424    0.8916 O   0  0  0  0  0  0  0  0  0  0  0  0
   -7.5443    1.5400   -0.6695 O   0  0  0  0  0  0  0  0  0  0  0  0
    1.6501   -3.4862   -2.3403 H   0  0  0  0  0  0  0  0  0  0  0  0
    1.3646   -3.4886    0.0818 H   0  0  0  0  0  0  0  0  0  0  0  0
   -0.8823   -3.7348    0.7834 H   0  0  0  0  0  0  0  0  0  0  0  0
   -1.0741   -4.6187   -0.8054 H   0  0  0  0  0  0  0  0  0  0  0  0
   -0.6269   -1.1919    0.6441 H   0  0  0  0  0  0  0  0  0  0  0  0
    0.3961   -1.6987   -2.1626 H   0  0  0  0  0  0  0  0  0  0  0  0
    1.6671   -1.5878    1.4582 H   0  0  0  0  0  0  0  0  0  0  0  0
    3.5884   -0.1119    2.1095 H   0  0  0  0  0  0  0  0  0  0  0  0
    3.8528    1.3080   -1.9355 H   0  0  0  0  0  0  0  0  0  0  0  0
    1.9573   -0.1490   -2.5737 H   0  0  0  0  0  0  0  0  0  0  0  0
    4.5710    1.8746    2.5261 H   0  0  0  0  0  0  0  0  0  0  0  0
    6.2983    2.1400    1.9585 H   0  0  0  0  0  0  0  0  0  0  0  0
    5.6625    0.4509    2.1253 H   0  0  0  0  0  0  0  0  0  0  0  0
    4.5068    3.1066   -1.0459 H   0  0  0  0  0  0  0  0  0  0  0  0
    5.4616    3.6399    0.3575 H   0  0  0  0  0  0  0  0  0  0  0  0
    3.7010    3.3515    0.6126 H   0  0  0  0  0  0  0  0  0  0  0  0
    7.0410    1.7673   -0.1439 H   0  0  0  0  0  0  0  0  0  0  0  0
    6.3830    0.1046   -0.3573 H   0  0  0  0  0  0  0  0  0  0  0  0
    5.9241    1.3946   -1.5154 H   0  0  0  0  0  0  0  0  0  0  0  0
   -1.1079   -0.2381   -2.2392 H   0  0  0  0  0  0  0  0  0  0  0  0
   -0.5878    0.7692   -0.8887 H   0  0  0  0  0  0  0  0  0  0  0  0
   -3.3926   -0.4616   -1.0561 H   0  0  0  0  0  0  0  0  0  0  0  0
   -2.9454    1.2161   -1.3354 H   0  0  0  0  0  0  0  0  0  0  0  0
   -2.0246    1.3132    1.0505 H   0  0  0  0  0  0  0  0  0  0  0  0
   -2.3975   -0.3926    1.2835 H   0  0  0  0  0  0  0  0  0  0  0  0
   -4.3437    1.8261    0.5398 H   0  0  0  0  0  0  0  0  0  0  0  0
   -4.1066    1.0685    2.1955 H   0  0  0  0  0  0  0  0  0  0  0  0
   -5.2356   -0.3581   -0.3159 H   0  0  0  0  0  0  0  0  0  0  0  0
   -4.9530   -1.1005    1.2844 H   0  0  0  0  0  0  0  0  0  0  0  0
   -6.4685    0.5015    2.3365 H   0  0  0  0  0  0  0  0  0  0  0  0
   -7.2685   -0.4238    0.9706 H   0  0  0  0  0  0  0  0  0  0  0  0
   -7.5864    2.3295   -1.2866 H   0  0  0  0  0  0  0  0  0  0  0  0
  1  2  1  0
  2  3  1  0
  3  4  1  0
  4  5  2  0
  4  6  1  0
  6  7  1  0
  7  8  1  0
  8  9  2  0
  9 10  1  0
 10 11  2  0
 11 12  1  0
 12 13  2  0
 11 14  1  0
 14 15  1  0
 14 16  1  0
 14 17  1  0
  6 18  1  0
 18 19  1  0
 19 20  1  0
 20 21  1  0
 21 22  1  0
 22 23  1  0
 23 24  1  0
 24 25  2  0
 24 26  1  0
  7  2  1  0
 13  8  1  0
  1 27  1  0
  2 28  1  1
  3 29  1  0
  3 30  1  0
  6 31  1  1
  7 32  1  6
  9 33  1  0
 10 34  1  0
 12 35  1  0
 13 36  1  0
 15 37  1  0
 15 38  1  0
 15 39  1  0
 16 40  1  0
 16 41  1  0
 16 42  1  0
 17 43  1  0
 17 44  1  0
 17 45  1  0
 18 46  1  0
 18 47  1  0
 19 48  1  0
 19 49  1  0
 20 50  1  0
 20 51  1  0
 21 52  1  0
 21 53  1  0
 22 54  1  0
 22 55  1  0
 23 56  1  0
 23 57  1  0
 26 58  1  0
M  END
>  <Ligand ID>  (1) 
LIG0000898

>  <Ligand>  (1) 
SCHEMBL5238933

>  <SMILES>  (1) 
O[C@@H]1CC(=O)[C@@H]([C@H]1c1ccc(cc1)C(C)(C)C)CCCCCCC(=O)O

>  <CID>  (1) 
11955384.0

>  <ChEMBL ID>  (1) 
nan

>  <InChiKey>  (1) 
NQRVJJNFNBPWHN-FBBABVLZSA-N

>  <InChi>  (1) 
InChI=1S/C22H32O4/c1-22(2,3)16-12-10-15(11-13-16)21-17(18(23)14-19(21)24)8-6-4-5-7-9-20(25)26/h10-13,17,19,21,24H,4-9,14H2,1-3H3,(H,25,26)/t17-,19+,21+/m0/s1

>  <IUPAC Name>  (1) 
7-[(1R,2S,3R)-2-(4-tert-butylphenyl)-3-hydroxy-5-oxocyclopentyl]heptanoic acid

$$$$
