
     RDKit          3D

133136  0  0  0  0  0  0  0  0999 V2000
   10.6461   -1.8323   -1.8848 N   0  0  0  0  0  0  0  0  0  0  0  0
    9.2475   -2.0940   -1.9555 C   0  0  0  0  0  0  0  0  0  0  0  0
    8.7406   -2.7107   -0.7084 C   0  0  0  0  0  0  0  0  0  0  0  0
    8.8820   -1.8914    0.5401 C   0  0  1  0  0  0  0  0  0  0  0  0
   10.2301   -1.5314    0.9506 C   0  0  0  0  0  0  0  0  0  0  0  0
   10.4787   -0.2991    1.1746 O   0  0  0  0  0  0  0  0  0  0  0  0
   11.3072   -2.4431    1.1315 N   0  0  0  0  0  0  0  0  0  0  0  0
   12.6346   -2.0912    1.5634 C   0  0  0  0  0  0  0  0  0  0  0  0
   13.3398   -1.1274    0.7227 C   0  0  0  0  0  0  0  0  0  0  0  0
   12.9213   -0.5662   -0.3076 O   0  0  0  0  0  0  0  0  0  0  0  0
   14.6819   -0.7766    1.1252 N   0  0  0  0  0  0  0  0  0  0  0  0
    8.1004   -0.6533    0.4202 N   0  0  0  0  0  0  0  0  0  0  0  0
    6.7138   -0.6188    0.9022 C   0  0  0  0  0  0  0  0  0  0  0  0
    6.3289   -1.6915    1.3891 O   0  0  0  0  0  0  0  0  0  0  0  0
    6.0394    0.6423    0.7281 C   0  0  2  0  0  0  0  0  0  0  0  0
    6.3021    1.6013    1.9085 C   0  0  0  0  0  0  0  0  0  0  0  0
    5.1462    2.5676    1.8895 C   0  0  0  0  0  0  0  0  0  0  0  0
    4.3558    2.1722    0.6165 C   0  0  0  0  0  0  0  0  0  0  0  0
    4.6029    0.7028    0.6765 N   0  0  0  0  0  0  0  0  0  0  0  0
    3.6125   -0.3099    0.6063 C   0  0  0  0  0  0  0  0  0  0  0  0
    3.9429   -1.5445    0.8373 O   0  0  0  0  0  0  0  0  0  0  0  0
    2.1931   -0.1467    0.2864 C   0  0  2  0  0  0  0  0  0  0  0  0
    1.6469   -1.2801   -0.5697 C   0  0  0  0  0  0  0  0  0  0  0  0
    1.6112   -2.8982    0.0981 S   0  0  0  0  0  0  0  0  0  0  0  0
    0.4575   -3.1988    1.8063 S   0  0  0  0  0  0  0  0  0  0  0  0
   -1.3169   -3.5583    1.4735 C   0  0  0  0  0  0  0  0  0  0  0  0
   -1.8085   -2.2474    0.8957 C   0  0  2  0  0  0  0  0  0  0  0  0
   -1.5086   -1.1657    1.8841 N   0  0  0  0  0  0  0  0  0  0  0  0
   -3.2026   -2.1722    0.5130 C   0  0  0  0  0  0  0  0  0  0  0  0
   -3.8719   -1.2061    1.0183 O   0  0  0  0  0  0  0  0  0  0  0  0
   -3.9689   -2.9999   -0.3392 N   0  0  0  0  0  0  0  0  0  0  0  0
   -5.3466   -2.5063   -0.5848 C   0  0  1  0  0  0  0  0  0  0  0  0
   -6.2460   -2.5794    0.5718 C   0  0  0  0  0  0  0  0  0  0  0  0
   -6.3926   -4.0272    1.0338 C   0  0  0  0  0  0  0  0  0  0  0  0
   -5.6843   -4.4197    2.1564 C   0  0  0  0  0  0  0  0  0  0  0  0
   -6.1183   -6.2081    2.3912 S   0  0  0  0  0  0  0  0  0  0  0  0
   -7.2345   -6.2028    0.8975 C   0  0  0  0  0  0  0  0  0  0  0  0
   -7.1638   -4.9311    0.4146 C   0  0  0  0  0  0  0  0  0  0  0  0
   -7.9640   -4.7300   -0.7412 C   0  0  0  0  0  0  0  0  0  0  0  0
   -8.6962   -5.7620   -1.2473 C   0  0  0  0  0  0  0  0  0  0  0  0
   -8.7316   -7.0342   -0.7181 C   0  0  0  0  0  0  0  0  0  0  0  0
   -7.9629   -7.2523    0.4044 C   0  0  0  0  0  0  0  0  0  0  0  0
   -5.1664   -1.1444   -1.1672 C   0  0  0  0  0  0  0  0  0  0  0  0
   -4.0815   -0.7736   -1.6256 O   0  0  0  0  0  0  0  0  0  0  0  0
   -6.2155   -0.1605   -1.2280 N   0  0  0  0  0  0  0  0  0  0  0  0
   -5.9556    1.0975   -1.8804 C   0  0  2  0  0  0  0  0  0  0  0  0
   -4.9210    1.8968   -1.1547 C   0  0  0  0  0  0  0  0  0  0  0  0
   -4.3276    1.5370   -0.1459 O   0  0  0  0  0  0  0  0  0  0  0  0
   -4.5229    3.2261   -1.6159 N   0  0  0  0  0  0  0  0  0  0  0  0
   -3.4838    3.9666   -0.9236 C   0  0  2  0  0  0  0  0  0  0  0  0
   -2.1598    3.3134   -1.0531 C   0  0  0  0  0  0  0  0  0  0  0  0
   -2.0471    2.3694   -1.8368 O   0  0  0  0  0  0  0  0  0  0  0  0
   -0.9857    3.6806   -0.3320 N   0  0  0  0  0  0  0  0  0  0  0  0
    0.2681    3.0500   -0.6860 C   0  0  2  0  0  0  0  0  0  0  0  0
    0.6151    1.8452    0.1059 C   0  0  0  0  0  0  0  0  0  0  0  0
    0.0200    1.4156    1.0909 O   0  0  0  0  0  0  0  0  0  0  0  0
    1.7579    1.0875   -0.3050 N   0  0  0  0  0  0  0  0  0  0  0  0
    1.4000    4.0412   -0.7560 C   0  0  0  0  0  0  0  0  0  0  0  0
    1.0477    5.0497   -1.7819 C   0  0  0  0  0  0  0  0  0  0  0  0
    0.0007    5.0138   -2.4736 O   0  0  0  0  0  0  0  0  0  0  0  0
    1.9428    6.1323   -2.0056 N   0  0  0  0  0  0  0  0  0  0  0  0
   -3.8234    4.6770    0.3015 C   0  0  0  0  0  0  0  0  0  0  0  0
   -4.3700    3.9400    1.4686 C   0  0  0  0  0  0  0  0  0  0  0  0
   -4.5998    4.9695    2.5577 C   0  0  0  0  0  0  0  0  0  0  0  0
   -4.3360    6.1697    2.3522 O   0  0  0  0  0  0  0  0  0  0  0  0
   -5.1195    4.5629    3.8167 N   0  0  0  0  0  0  0  0  0  0  0  0
   -7.1394    1.8486   -2.3371 C   0  0  2  0  0  0  0  0  0  0  0  0
   -8.1332    2.2954   -1.3353 C   0  0  0  0  0  0  0  0  0  0  0  0
   -8.8340    1.2829   -0.5122 C   0  0  0  0  0  0  0  0  0  0  0  0
   -7.8620    1.0956   -3.4617 C   0  0  0  0  0  0  0  0  0  0  0  0
   10.9096   -0.8534   -2.1726 H   0  0  0  0  0  0  0  0  0  0  0  0
   11.1744   -2.5332   -2.4541 H   0  0  0  0  0  0  0  0  0  0  0  0
    9.0431   -2.7994   -2.7937 H   0  0  0  0  0  0  0  0  0  0  0  0
    8.6563   -1.1756   -2.2022 H   0  0  0  0  0  0  0  0  0  0  0  0
    9.2951   -3.6600   -0.5293 H   0  0  0  0  0  0  0  0  0  0  0  0
    7.6372   -2.9170   -0.8044 H   0  0  0  0  0  0  0  0  0  0  0  0
    8.3264   -2.5060    1.3226 H   0  0  0  0  0  0  0  0  0  0  0  0
   11.0574   -3.4604    0.9089 H   0  0  0  0  0  0  0  0  0  0  0  0
   12.5980   -1.7087    2.6207 H   0  0  0  0  0  0  0  0  0  0  0  0
   13.2093   -3.0566    1.6647 H   0  0  0  0  0  0  0  0  0  0  0  0
   15.3834   -0.5190    0.3764 H   0  0  0  0  0  0  0  0  0  0  0  0
   14.9539   -0.7748    2.1402 H   0  0  0  0  0  0  0  0  0  0  0  0
    8.5221    0.2058   -0.0068 H   0  0  0  0  0  0  0  0  0  0  0  0
    6.3778    1.1966   -0.1983 H   0  0  0  0  0  0  0  0  0  0  0  0
    7.2760    2.1025    1.7660 H   0  0  0  0  0  0  0  0  0  0  0  0
    6.2613    0.9734    2.8345 H   0  0  0  0  0  0  0  0  0  0  0  0
    5.4122    3.6219    1.8911 H   0  0  0  0  0  0  0  0  0  0  0  0
    4.4360    2.2933    2.7163 H   0  0  0  0  0  0  0  0  0  0  0  0
    4.7704    2.6159   -0.2804 H   0  0  0  0  0  0  0  0  0  0  0  0
    3.3143    2.4383    0.7488 H   0  0  0  0  0  0  0  0  0  0  0  0
    1.6201   -0.2793    1.2672 H   0  0  0  0  0  0  0  0  0  0  0  0
    2.3521   -1.3119   -1.4684 H   0  0  0  0  0  0  0  0  0  0  0  0
    0.6827   -1.0069   -1.0380 H   0  0  0  0  0  0  0  0  0  0  0  0
   -1.8104   -3.8437    2.3911 H   0  0  0  0  0  0  0  0  0  0  0  0
   -1.3625   -4.3567    0.7388 H   0  0  0  0  0  0  0  0  0  0  0  0
   -1.1462   -1.9514    0.0254 H   0  0  0  0  0  0  0  0  0  0  0  0
   -1.0429   -1.5794    2.7074 H   0  0  0  0  0  0  0  0  0  0  0  0
   -2.3900   -0.6566    2.1139 H   0  0  0  0  0  0  0  0  0  0  0  0
   -3.5592   -3.8306   -0.7029 H   0  0  0  0  0  0  0  0  0  0  0  0
   -5.7165   -3.1626   -1.4070 H   0  0  0  0  0  0  0  0  0  0  0  0
   -5.9897   -1.9826    1.4476 H   0  0  0  0  0  0  0  0  0  0  0  0
   -7.2556   -2.2223    0.2365 H   0  0  0  0  0  0  0  0  0  0  0  0
   -5.0330   -3.9064    2.7854 H   0  0  0  0  0  0  0  0  0  0  0  0
   -8.0162   -3.7837   -1.2384 H   0  0  0  0  0  0  0  0  0  0  0  0
   -9.3090   -5.5766   -2.1452 H   0  0  0  0  0  0  0  0  0  0  0  0
   -9.3133   -7.8478   -1.1217 H   0  0  0  0  0  0  0  0  0  0  0  0
   -7.9004   -8.2015    0.9217 H   0  0  0  0  0  0  0  0  0  0  0  0
   -7.0797   -0.4680   -0.7845 H   0  0  0  0  0  0  0  0  0  0  0  0
   -5.3666    0.7807   -2.8113 H   0  0  0  0  0  0  0  0  0  0  0  0
   -5.0401    3.5332   -2.4338 H   0  0  0  0  0  0  0  0  0  0  0  0
   -3.3376    4.8507   -1.7040 H   0  0  0  0  0  0  0  0  0  0  0  0
   -1.1310    4.3749    0.4004 H   0  0  0  0  0  0  0  0  0  0  0  0
    0.1105    2.6679   -1.7473 H   0  0  0  0  0  0  0  0  0  0  0  0
    2.2851    1.4709   -1.0900 H   0  0  0  0  0  0  0  0  0  0  0  0
    2.2970    3.5095   -1.1368 H   0  0  0  0  0  0  0  0  0  0  0  0
    1.6585    4.4478    0.2252 H   0  0  0  0  0  0  0  0  0  0  0  0
    1.5440    7.0981   -2.1801 H   0  0  0  0  0  0  0  0  0  0  0  0
    2.9651    6.0610   -2.0115 H   0  0  0  0  0  0  0  0  0  0  0  0
   -4.5462    5.5419    0.1265 H   0  0  0  0  0  0  0  0  0  0  0  0
   -2.9284    5.2502    0.7193 H   0  0  0  0  0  0  0  0  0  0  0  0
   -5.3931    3.5296    1.3000 H   0  0  0  0  0  0  0  0  0  0  0  0
   -3.7378    3.1844    1.9112 H   0  0  0  0  0  0  0  0  0  0  0  0
   -5.3290    5.2754    4.5526 H   0  0  0  0  0  0  0  0  0  0  0  0
   -5.3093    3.5701    4.0585 H   0  0  0  0  0  0  0  0  0  0  0  0
   -6.8125    2.7935   -2.8657 H   0  0  0  0  0  0  0  0  0  0  0  0
   -8.9420    2.8333   -1.9286 H   0  0  0  0  0  0  0  0  0  0  0  0
   -7.7166    3.1149   -0.7031 H   0  0  0  0  0  0  0  0  0  0  0  0
   -9.7930    1.7973   -0.1504 H   0  0  0  0  0  0  0  0  0  0  0  0
   -9.2173    0.4460   -1.1027 H   0  0  0  0  0  0  0  0  0  0  0  0
   -8.3482    1.0145    0.4493 H   0  0  0  0  0  0  0  0  0  0  0  0
   -8.5769    1.8171   -3.8990 H   0  0  0  0  0  0  0  0  0  0  0  0
   -7.1424    0.8055   -4.2412 H   0  0  0  0  0  0  0  0  0  0  0  0
   -8.4497    0.2515   -3.0613 H   0  0  0  0  0  0  0  0  0  0  0  0
  1  2  1  0
  2  3  1  0
  3  4  1  0
  4  5  1  0
  5  6  2  0
  5  7  1  0
  7  8  1  0
  8  9  1  0
  9 10  2  0
  9 11  1  0
  4 12  1  0
 12 13  1  0
 13 14  2  0
 13 15  1  0
 15 16  1  0
 16 17  1  0
 17 18  1  0
 18 19  1  0
 19 20  1  0
 20 21  2  0
 20 22  1  0
 22 23  1  0
 23 24  1  0
 24 25  1  0
 25 26  1  0
 26 27  1  0
 27 28  1  0
 27 29  1  0
 29 30  2  0
 29 31  1  0
 31 32  1  0
 32 33  1  0
 33 34  1  0
 34 35  2  0
 35 36  1  0
 36 37  1  0
 37 38  2  0
 38 39  1  0
 39 40  2  0
 40 41  1  0
 41 42  2  0
 32 43  1  0
 43 44  2  0
 43 45  1  0
 45 46  1  0
 46 47  1  0
 47 48  2  0
 47 49  1  0
 49 50  1  0
 50 51  1  0
 51 52  2  0
 51 53  1  0
 53 54  1  0
 54 55  1  0
 55 56  2  0
 55 57  1  0
 54 58  1  0
 58 59  1  0
 59 60  2  0
 59 61  1  0
 50 62  1  0
 62 63  1  0
 63 64  1  0
 64 65  2  0
 64 66  1  0
 46 67  1  0
 67 68  1  0
 68 69  1  0
 67 70  1  0
 19 15  1  0
 57 22  1  0
 38 34  1  0
 42 37  1  0
  1 71  1  0
  1 72  1  0
  2 73  1  0
  2 74  1  0
  3 75  1  0
  3 76  1  0
  4 77  1  1
  7 78  1  0
  8 79  1  0
  8 80  1  0
 11 81  1  0
 11 82  1  0
 12 83  1  0
 15 84  1  6
 16 85  1  0
 16 86  1  0
 17 87  1  0
 17 88  1  0
 18 89  1  0
 18 90  1  0
 22 91  1  1
 23 92  1  0
 23 93  1  0
 26 94  1  0
 26 95  1  0
 27 96  1  6
 28 97  1  0
 28 98  1  0
 31 99  1  0
 32100  1  6
 33101  1  0
 33102  1  0
 35103  1  0
 39104  1  0
 40105  1  0
 41106  1  0
 42107  1  0
 45108  1  0
 46109  1  6
 49110  1  0
 50111  1  6
 53112  1  0
 54113  1  6
 57114  1  0
 58115  1  0
 58116  1  0
 61117  1  0
 61118  1  0
 62119  1  0
 62120  1  0
 63121  1  0
 63122  1  0
 66123  1  0
 66124  1  0
 67125  1  6
 68126  1  0
 68127  1  0
 69128  1  0
 69129  1  0
 69130  1  0
 70131  1  0
 70132  1  0
 70133  1  0
M  END
>  <Ligand ID>  (1) 
LIG0001620

>  <Ligand>  (1) 
CHEMBL1819546

>  <SMILES>  (1) 
NCC[C@@H](C(=O)NCC(=O)N)NC(=O)[C@@H]1CCCN1C(=O)[C@@H]1CSSC[C@H](N)C(=O)N[C@@H](Cc2csc3c2cccc3)C(=O)N[C@H](C(=O)N[C@H](C(=O)N[C@H](C(=O)N1)CC(=O)N)CCC(=O)N)[C@H](CC)C

>  <CID>  (1) 
53362795.0

>  <ChEMBL ID>  (1) 
nan

>  <InChiKey>  (1) 
IJGPLDPHIOBEND-CARDSLERSA-N

>  <InChi>  (1) 
InChI=1S/C43H63N13O11S3/c1-3-21(2)35-42(66)51-25(10-11-32(46)57)38(62)53-28(16-33(47)58)39(63)54-29(43(67)56-14-6-8-30(56)41(65)50-26(12-13-44)37(61)49-17-34(48)59)20-70-69-19-24(45)36(60)52-27(40(64)55-35)15-22-18-68-31-9-5-4-7-23(22)31/h4-5,7,9,18,21,24-30,35H,3,6,8,10-17,19-20,44-45H2,1-2H3,(H2,46,57)(H2,47,58)(H2,48,59)(H,49,61)(H,50,65)(H,51,66)(H,52,60)(H,53,62)(H,54,63)(H,55,64)/t21-,24-,25-,26-,27-,28-,29-,30-,35-/m0/s1

>  <IUPAC Name>  (1) 
(2S)-N-[(2S)-4-amino-1-[(2-amino-2-oxoethyl)amino]-1-oxobutan-2-yl]-1-[(4R,7S,10S,13S,16S,19R)-19-amino-7-(2-amino-2-oxoethyl)-10-(3-amino-3-oxopropyl)-16-(1-benzothiophen-3-ylmethyl)-13-[(2S)-butan-2-yl]-6,9,12,15,18-pentaoxo-1,2-dithia-5,8,11,14,17-pentazacycloicosane-4-carbonyl]pyrrolidine-2-carboxamide

$$$$
