
     RDKit          3D

 61 65  0  0  0  0  0  0  0  0999 V2000
   -5.5318    2.2629   -0.6474 O   0  0  0  0  0  0  0  0  0  0  0  0
   -4.6929    1.5222    0.1427 C   0  0  0  0  0  0  0  0  0  0  0  0
   -4.1511    0.2677   -0.5032 C   0  0  1  0  0  0  0  0  0  0  0  0
   -3.2695   -0.4482    0.3969 N   0  0  0  0  0  0  0  0  0  0  0  0
   -2.1029    0.2216    0.8610 C   0  0  0  0  0  0  0  0  0  0  0  0
   -2.1569    1.0051    1.9780 N   0  0  0  0  0  0  0  0  0  0  0  0
   -1.0585    1.6465    2.4352 C   0  0  0  0  0  0  0  0  0  0  0  0
   -1.1326    2.4612    3.6018 N   0  0  0  0  0  0  0  0  0  0  0  0
    0.1014    1.4660    1.7187 C   0  0  0  0  0  0  0  0  0  0  0  0
    0.1789    0.6772    0.5850 C   0  0  0  0  0  0  0  0  0  0  0  0
   -0.9472    0.0613    0.1743 N   0  0  0  0  0  0  0  0  0  0  0  0
    1.4551    0.6988    0.1056 N   0  0  0  0  0  0  0  0  0  0  0  0
    2.1632    1.4901    0.9292 C   0  0  0  0  0  0  0  0  0  0  0  0
    1.3518    1.9655    1.9178 N   0  0  0  0  0  0  0  0  0  0  0  0
    1.9615    0.0137   -1.0505 C   0  0  2  0  0  0  0  0  0  0  0  0
    3.0963   -0.6848   -0.6880 O   0  0  0  0  0  0  0  0  0  0  0  0
    4.1438   -0.2517   -1.4810 C   0  0  1  0  0  0  0  0  0  0  0  0
    3.7781    1.0935   -2.0218 C   0  0  2  0  0  0  0  0  0  0  0  0
    2.2885    0.9448   -2.1715 C   0  0  1  0  0  0  0  0  0  0  0  0
    2.0950    0.2179   -3.3691 O   0  0  0  0  0  0  0  0  0  0  0  0
    4.3953    1.3838   -3.2369 O   0  0  0  0  0  0  0  0  0  0  0  0
    5.4213   -0.1396   -0.7297 C   0  0  0  0  0  0  0  0  0  0  0  0
    5.6223    0.4066    0.4841 N   0  0  0  0  0  0  0  0  0  0  0  0
    6.8938    0.3181    0.8195 N   0  0  0  0  0  0  0  0  0  0  0  0
    7.5343   -0.2860   -0.1703 N   0  0  0  0  0  0  0  0  0  0  0  0
    6.6491   -0.5742   -1.1289 N   0  0  0  0  0  0  0  0  0  0  0  0
    8.9450   -0.6191   -0.2839 C   0  0  0  0  0  0  0  0  0  0  0  0
    9.2806   -1.9761    0.2603 C   0  0  0  0  0  0  0  0  0  0  0  0
   -5.2072   -0.5888   -1.1094 C   0  0  0  0  0  0  0  0  0  0  0  0
   -6.2369   -1.0956   -0.2071 C   0  0  0  0  0  0  0  0  0  0  0  0
   -6.0765   -2.3230    0.4353 C   0  0  0  0  0  0  0  0  0  0  0  0
   -7.0289   -2.8277    1.2949 C   0  0  0  0  0  0  0  0  0  0  0  0
   -8.1950   -2.1463    1.5680 C   0  0  0  0  0  0  0  0  0  0  0  0
   -8.3631   -0.9276    0.9349 C   0  0  0  0  0  0  0  0  0  0  0  0
   -7.4081   -0.4225    0.0734 C   0  0  0  0  0  0  0  0  0  0  0  0
   -6.1280    2.8071   -0.0621 H   0  0  0  0  0  0  0  0  0  0  0  0
   -5.2245    1.2268    1.0799 H   0  0  0  0  0  0  0  0  0  0  0  0
   -3.8791    2.2010    0.4702 H   0  0  0  0  0  0  0  0  0  0  0  0
   -3.4963    0.6081   -1.3423 H   0  0  0  0  0  0  0  0  0  0  0  0
   -3.4268   -1.4196    0.7306 H   0  0  0  0  0  0  0  0  0  0  0  0
   -0.3326    2.6159    4.2527 H   0  0  0  0  0  0  0  0  0  0  0  0
   -2.0407    2.9346    3.8229 H   0  0  0  0  0  0  0  0  0  0  0  0
    3.2092    1.7709    0.9036 H   0  0  0  0  0  0  0  0  0  0  0  0
    1.2288   -0.7710   -1.4021 H   0  0  0  0  0  0  0  0  0  0  0  0
    4.3169   -0.9172   -2.3609 H   0  0  0  0  0  0  0  0  0  0  0  0
    4.0991    1.8636   -1.3199 H   0  0  0  0  0  0  0  0  0  0  0  0
    1.7320    1.8828   -2.1628 H   0  0  0  0  0  0  0  0  0  0  0  0
    2.0950   -0.7537   -3.2052 H   0  0  0  0  0  0  0  0  0  0  0  0
    5.3778    1.3240   -3.1252 H   0  0  0  0  0  0  0  0  0  0  0  0
    9.5232    0.1518    0.3010 H   0  0  0  0  0  0  0  0  0  0  0  0
    9.2807   -0.5670   -1.3458 H   0  0  0  0  0  0  0  0  0  0  0  0
    8.3964   -2.5839    0.5038 H   0  0  0  0  0  0  0  0  0  0  0  0
    9.9224   -2.5444   -0.4509 H   0  0  0  0  0  0  0  0  0  0  0  0
    9.8733   -1.8805    1.2143 H   0  0  0  0  0  0  0  0  0  0  0  0
   -4.7057   -1.4984   -1.5529 H   0  0  0  0  0  0  0  0  0  0  0  0
   -5.7005   -0.0826   -1.9720 H   0  0  0  0  0  0  0  0  0  0  0  0
   -5.1959   -2.9429    0.2869 H   0  0  0  0  0  0  0  0  0  0  0  0
   -6.8937   -3.7872    1.7916 H   0  0  0  0  0  0  0  0  0  0  0  0
   -8.9168   -2.5734    2.2463 H   0  0  0  0  0  0  0  0  0  0  0  0
   -9.2872   -0.3954    1.1565 H   0  0  0  0  0  0  0  0  0  0  0  0
   -7.6231    0.5301   -0.3760 H   0  0  0  0  0  0  0  0  0  0  0  0
  1  2  1  0
  2  3  1  0
  3  4  1  0
  4  5  1  0
  5  6  2  0
  6  7  1  0
  7  8  1  0
  7  9  2  0
  9 10  1  0
 10 11  2  0
 10 12  1  0
 12 13  1  0
 13 14  2  0
 12 15  1  0
 15 16  1  0
 16 17  1  0
 17 18  1  0
 18 19  1  0
 19 20  1  0
 18 21  1  0
 17 22  1  0
 22 23  1  0
 23 24  2  0
 24 25  1  0
 25 26  1  0
 25 27  1  0
 27 28  1  0
  3 29  1  0
 29 30  1  0
 30 31  2  0
 31 32  1  0
 32 33  2  0
 33 34  1  0
 34 35  2  0
 11  5  1  0
 19 15  1  0
 26 22  2  0
 35 30  1  0
 14  9  1  0
  1 36  1  0
  2 37  1  0
  2 38  1  0
  3 39  1  6
  4 40  1  0
  8 41  1  0
  8 42  1  0
 13 43  1  0
 15 44  1  6
 17 45  1  6
 18 46  1  1
 19 47  1  6
 20 48  1  0
 21 49  1  0
 27 50  1  0
 27 51  1  0
 28 52  1  0
 28 53  1  0
 28 54  1  0
 29 55  1  0
 29 56  1  0
 31 57  1  0
 32 58  1  0
 33 59  1  0
 34 60  1  0
 35 61  1  0
M  END
>  <Ligand ID>  (1) 
LIG0000983

>  <Ligand>  (1) 
UNII-DJF621DE4F

>  <SMILES>  (1) 
OC[C@@H](Nc1nc(N)c2c(n1)n(cn2)[C@@H]1O[C@@H]([C@H]([C@H]1O)O)c1nnn(n1)CC)Cc1ccccc1

>  <CID>  (1) 
9869857.0

>  <ChEMBL ID>  (1) 
nan

>  <InChiKey>  (1) 
FLBKPDIBGNWXMT-NIQZGXKPSA-N

>  <InChi>  (1) 
InChI=1S/C21H26N10O4/c1-2-31-28-18(27-29-31)16-14(33)15(34)20(35-16)30-10-23-13-17(22)25-21(26-19(13)30)24-12(9-32)8-11-6-4-3-5-7-11/h3-7,10,12,14-16,20,32-34H,2,8-9H2,1H3,(H3,22,24,25,26)/t12-,14-,15+,16-,20+/m0/s1

>  <IUPAC Name>  (1) 
(2R,3R,4S,5R)-2-[6-amino-2-[[(2S)-1-hydroxy-3-phenylpropan-2-yl]amino]purin-9-yl]-5-(2-ethyltetrazol-5-yl)oxolane-3,4-diol

$$$$
