
     RDKit          3D

 40 43  0  0  0  0  0  0  0  0999 V2000
   -8.5175   -0.8345   -0.2963 F   0  0  0  0  0  0  0  0  0  0  0  0
   -7.2044   -0.5094   -0.1540 C   0  0  0  0  0  0  0  0  0  0  0  0
   -6.6293   -0.7462    1.0720 C   0  0  0  0  0  0  0  0  0  0  0  0
   -5.2866   -0.4078    1.1994 C   0  0  0  0  0  0  0  0  0  0  0  0
   -4.5880    0.1408    0.1224 C   0  0  0  0  0  0  0  0  0  0  0  0
   -5.1891    0.3582   -1.0668 N   0  0  0  0  0  0  0  0  0  0  0  0
   -6.4871    0.0368   -1.2077 C   0  0  0  0  0  0  0  0  0  0  0  0
   -3.2187    0.4495    0.3640 N   0  0  0  0  0  0  0  0  0  0  0  0
   -2.7705    1.7338    0.8610 C   0  0  0  0  0  0  0  0  0  0  0  0
   -1.5799    2.2783    0.1187 C   0  0  0  0  0  0  0  0  0  0  0  0
   -0.5846    1.2652   -0.1316 N   0  0  0  0  0  0  0  0  0  0  0  0
   -0.8619   -0.0572   -0.1385 C   0  0  0  0  0  0  0  0  0  0  0  0
   -2.2188   -0.5321    0.1141 C   0  0  0  0  0  0  0  0  0  0  0  0
   -2.5291   -1.7541    0.1187 O   0  0  0  0  0  0  0  0  0  0  0  0
    0.2894   -0.7550   -0.4055 C   0  0  0  0  0  0  0  0  0  0  0  0
    1.2742    0.1937   -0.5600 C   0  0  0  0  0  0  0  0  0  0  0  0
    0.6988    1.3848   -0.3863 N   0  0  0  0  0  0  0  0  0  0  0  0
    2.7020   -0.0662   -0.8621 C   0  0  0  0  0  0  0  0  0  0  0  0
    3.4834   -0.2224    0.3081 O   0  0  0  0  0  0  0  0  0  0  0  0
    4.8389   -0.4704    0.1422 C   0  0  0  0  0  0  0  0  0  0  0  0
    5.6507   -0.6317    1.2674 C   0  0  0  0  0  0  0  0  0  0  0  0
    7.0124   -0.8809    1.1087 C   0  0  0  0  0  0  0  0  0  0  0  0
    7.6090   -0.9779   -0.1256 C   0  0  0  0  0  0  0  0  0  0  0  0
    6.7984   -0.8170   -1.2393 C   0  0  0  0  0  0  0  0  0  0  0  0
    5.4446   -0.5691   -1.0949 C   0  0  0  0  0  0  0  0  0  0  0  0
   -7.1610   -1.1709    1.9139 H   0  0  0  0  0  0  0  0  0  0  0  0
   -4.7860   -0.5784    2.1578 H   0  0  0  0  0  0  0  0  0  0  0  0
   -6.9984    0.2040   -2.1648 H   0  0  0  0  0  0  0  0  0  0  0  0
   -3.5920    2.4917    0.7300 H   0  0  0  0  0  0  0  0  0  0  0  0
   -2.5366    1.6700    1.9522 H   0  0  0  0  0  0  0  0  0  0  0  0
   -1.8483    2.7625   -0.8323 H   0  0  0  0  0  0  0  0  0  0  0  0
   -1.0988    3.0166    0.8250 H   0  0  0  0  0  0  0  0  0  0  0  0
    0.4370   -1.8041   -0.4855 H   0  0  0  0  0  0  0  0  0  0  0  0
    2.7893   -0.9639   -1.5235 H   0  0  0  0  0  0  0  0  0  0  0  0
    3.1166    0.8273   -1.3831 H   0  0  0  0  0  0  0  0  0  0  0  0
    5.2409   -0.5667    2.2781 H   0  0  0  0  0  0  0  0  0  0  0  0
    7.6246   -1.0029    1.9953 H   0  0  0  0  0  0  0  0  0  0  0  0
    8.6625   -1.1704   -0.2795 H   0  0  0  0  0  0  0  0  0  0  0  0
    7.1826   -0.8773   -2.2491 H   0  0  0  0  0  0  0  0  0  0  0  0
    4.8313   -0.4469   -1.9834 H   0  0  0  0  0  0  0  0  0  0  0  0
  1  2  1  0
  2  3  2  0
  3  4  1  0
  4  5  2  0
  5  6  1  0
  6  7  2  0
  5  8  1  0
  8  9  1  0
  9 10  1  0
 10 11  1  0
 11 12  1  0
 12 13  1  0
 13 14  2  0
 12 15  2  0
 15 16  1  0
 16 17  2  0
 16 18  1  0
 18 19  1  0
 19 20  1  0
 20 21  2  0
 21 22  1  0
 22 23  2  0
 23 24  1  0
 24 25  2  0
  7  2  1  0
 13  8  1  0
 25 20  1  0
 17 11  1  0
  3 26  1  0
  4 27  1  0
  7 28  1  0
  9 29  1  0
  9 30  1  0
 10 31  1  0
 10 32  1  0
 15 33  1  0
 18 34  1  0
 18 35  1  0
 21 36  1  0
 22 37  1  0
 23 38  1  0
 24 39  1  0
 25 40  1  0
M  END
>  <Ligand ID>  (1) 
LIG0000505

>  <Ligand>  (1) 
CHEMBL3746457

>  <SMILES>  (1) 
Fc1ccc(nc1)N1CCn2c(C1=O)cc(n2)COc1ccccc1

>  <CID>  (1) 
67974411.0

>  <ChEMBL ID>  (1) 
nan

>  <InChiKey>  (1) 
CNYVJDHTGDPUBS-UHFFFAOYSA-N

>  <InChi>  (1) 
InChI=1S/C18H15FN4O2/c19-13-6-7-17(20-11-13)22-8-9-23-16(18(22)24)10-14(21-23)12-25-15-4-2-1-3-5-15/h1-7,10-11H,8-9,12H2

>  <IUPAC Name>  (1) 
5-(5-fluoropyridin-2-yl)-2-(phenoxymethyl)-6,7-dihydropyrazolo[1,5-a]pyrazin-4-one

$$$$
