
     RDKit          3D

 61 63  0  0  0  0  0  0  0  0999 V2000
    6.1400   -2.5935    0.2876 C   0  0  0  0  0  0  0  0  0  0  0  0
    6.8655   -1.7269   -0.7153 C   0  0  0  0  0  0  0  0  0  0  0  0
    6.9990   -0.4250   -0.2535 O   0  0  0  0  0  0  0  0  0  0  0  0
    5.9840    0.4723   -0.0165 C   0  0  0  0  0  0  0  0  0  0  0  0
    4.6308    0.1724   -0.2176 C   0  0  0  0  0  0  0  0  0  0  0  0
    3.6608    1.1088    0.0333 C   0  0  0  0  0  0  0  0  0  0  0  0
    4.0793    2.3619    0.4960 C   0  0  0  0  0  0  0  0  0  0  0  0
    5.3820    2.6968    0.7053 C   0  0  0  0  0  0  0  0  0  0  0  0
    6.3431    1.7422    0.4456 C   0  0  0  0  0  0  0  0  0  0  0  0
    7.7615    2.0830    0.6534 C   0  0  0  0  0  0  0  0  0  0  0  0
    8.1064    3.2204    1.0760 O   0  0  0  0  0  0  0  0  0  0  0  0
    8.7713    1.1675    0.3919 O   0  0  0  0  0  0  0  0  0  0  0  0
    2.2407    0.9394   -0.1720 C   0  0  0  0  0  0  0  0  0  0  0  0
    1.3811    1.5925    0.6882 C   0  0  0  0  0  0  0  0  0  0  0  0
    0.0027    1.5363    0.5612 C   0  0  0  0  0  0  0  0  0  0  0  0
   -0.5411    0.7937   -0.4726 C   0  0  0  0  0  0  0  0  0  0  0  0
    0.3049    0.1134   -1.3664 C   0  0  0  0  0  0  0  0  0  0  0  0
    1.6689    0.2081   -1.1875 C   0  0  0  0  0  0  0  0  0  0  0  0
   -2.0185    0.7555   -0.6268 C   0  0  0  0  0  0  0  0  0  0  0  0
   -2.7142   -0.3668    0.0491 C   0  0  0  0  0  0  0  0  0  0  0  0
   -4.1402   -0.2488   -0.2041 N   0  0  0  0  0  0  0  0  0  0  0  0
   -4.7431    0.8200    0.5022 C   0  0  0  0  0  0  0  0  0  0  0  0
   -6.2098    1.0189    0.0762 C   0  0  1  0  0  0  0  0  0  0  0  0
   -6.9724   -0.2227    0.0786 C   0  0  0  0  0  0  0  0  0  0  0  0
   -6.9895   -1.0235   -1.0565 C   0  0  0  0  0  0  0  0  0  0  0  0
   -7.6664   -2.1717   -1.1230 N   0  0  0  0  0  0  0  0  0  0  0  0
   -8.3725   -2.6104   -0.0849 C   0  0  0  0  0  0  0  0  0  0  0  0
   -8.3984   -1.8610    1.0751 C   0  0  0  0  0  0  0  0  0  0  0  0
   -7.7003   -0.6725    1.1534 C   0  0  0  0  0  0  0  0  0  0  0  0
   -7.7487    0.0735    2.3791 N   0  0  0  0  0  0  0  0  0  0  0  0
   -6.7190    2.0545    0.8206 O   0  0  0  0  0  0  0  0  0  0  0  0
    6.2226   -1.7206   -2.0674 C   0  0  0  0  0  0  0  0  0  0  0  0
    5.7879   -1.9549    1.1557 H   0  0  0  0  0  0  0  0  0  0  0  0
    5.2625   -3.0929   -0.1479 H   0  0  0  0  0  0  0  0  0  0  0  0
    6.8115   -3.3566    0.7120 H   0  0  0  0  0  0  0  0  0  0  0  0
    7.8871   -2.1516   -0.8514 H   0  0  0  0  0  0  0  0  0  0  0  0
    4.3131   -0.8080   -0.5724 H   0  0  0  0  0  0  0  0  0  0  0  0
    3.3291    3.1406    0.7087 H   0  0  0  0  0  0  0  0  0  0  0  0
    5.6224    3.7001    1.0644 H   0  0  0  0  0  0  0  0  0  0  0  0
    9.7149    1.4804    0.1083 H   0  0  0  0  0  0  0  0  0  0  0  0
    1.7434    2.1909    1.5267 H   0  0  0  0  0  0  0  0  0  0  0  0
   -0.6750    2.0502    1.2358 H   0  0  0  0  0  0  0  0  0  0  0  0
   -0.1617   -0.4579   -2.1608 H   0  0  0  0  0  0  0  0  0  0  0  0
    2.3341   -0.3175   -1.8758 H   0  0  0  0  0  0  0  0  0  0  0  0
   -2.4820    1.7176   -0.2852 H   0  0  0  0  0  0  0  0  0  0  0  0
   -2.2974    0.7357   -1.7314 H   0  0  0  0  0  0  0  0  0  0  0  0
   -2.6110   -0.2751    1.1685 H   0  0  0  0  0  0  0  0  0  0  0  0
   -2.3115   -1.3223   -0.2983 H   0  0  0  0  0  0  0  0  0  0  0  0
   -4.2360   -0.1350   -1.2585 H   0  0  0  0  0  0  0  0  0  0  0  0
   -4.7353    0.5508    1.5880 H   0  0  0  0  0  0  0  0  0  0  0  0
   -4.3015    1.8106    0.4349 H   0  0  0  0  0  0  0  0  0  0  0  0
   -6.1533    1.4278   -0.9877 H   0  0  0  0  0  0  0  0  0  0  0  0
   -6.4360   -0.7459   -1.9672 H   0  0  0  0  0  0  0  0  0  0  0  0
   -8.9309   -3.5477   -0.1338 H   0  0  0  0  0  0  0  0  0  0  0  0
   -8.9907   -2.2624    1.8897 H   0  0  0  0  0  0  0  0  0  0  0  0
   -8.1648    1.0240    2.3959 H   0  0  0  0  0  0  0  0  0  0  0  0
   -7.3729   -0.3151    3.2807 H   0  0  0  0  0  0  0  0  0  0  0  0
   -6.7311    2.9272    0.3652 H   0  0  0  0  0  0  0  0  0  0  0  0
    6.9432   -1.9957   -2.8796 H   0  0  0  0  0  0  0  0  0  0  0  0
    5.8876   -0.6914   -2.3167 H   0  0  0  0  0  0  0  0  0  0  0  0
    5.3436   -2.3951   -2.0766 H   0  0  0  0  0  0  0  0  0  0  0  0
  1  2  1  0
  2  3  1  0
  3  4  1  0
  4  5  2  0
  5  6  1  0
  6  7  2  0
  7  8  1  0
  8  9  2  0
  9 10  1  0
 10 11  2  0
 10 12  1  0
  6 13  1  0
 13 14  2  0
 14 15  1  0
 15 16  2  0
 16 17  1  0
 17 18  2  0
 16 19  1  0
 19 20  1  0
 20 21  1  0
 21 22  1  0
 22 23  1  0
 23 24  1  0
 24 25  2  0
 25 26  1  0
 26 27  2  0
 27 28  1  0
 28 29  2  0
 29 30  1  0
 23 31  1  0
  2 32  1  0
  9  4  1  0
 18 13  1  0
 29 24  1  0
  1 33  1  0
  1 34  1  0
  1 35  1  0
  2 36  1  0
  5 37  1  0
  7 38  1  0
  8 39  1  0
 12 40  1  0
 14 41  1  0
 15 42  1  0
 17 43  1  0
 18 44  1  0
 19 45  1  0
 19 46  1  0
 20 47  1  0
 20 48  1  0
 21 49  1  0
 22 50  1  0
 22 51  1  0
 23 52  1  6
 25 53  1  0
 27 54  1  0
 28 55  1  0
 30 56  1  0
 30 57  1  0
 31 58  1  0
 32 59  1  0
 32 60  1  0
 32 61  1  0
M  END
>  <Ligand ID>  (1) 
LIG0003495

>  <Ligand>  (1) 
CHEMBL473495

>  <SMILES>  (1) 
CC(Oc1cc(ccc1C(=O)O)c1ccc(cc1)CCNC[C@@H](c1cnccc1N)O)C

>  <CID>  (1) 
44591506.0

>  <ChEMBL ID>  (1) 
nan

>  <InChiKey>  (1) 
TUOIPGVSFPQWOA-QHCPKHFHSA-N

>  <InChi>  (1) 
InChI=1S/C25H29N3O4/c1-16(2)32-24-13-19(7-8-20(24)25(30)31)18-5-3-17(4-6-18)9-11-28-15-23(29)21-14-27-12-10-22(21)26/h3-8,10,12-14,16,23,28-29H,9,11,15H2,1-2H3,(H2,26,27)(H,30,31)/t23-/m0/s1

>  <IUPAC Name>  (1) 
4-[4-[2-[[(2R)-2-(4-aminopyridin-3-yl)-2-hydroxyethyl]amino]ethyl]phenyl]-2-propan-2-yloxybenzoic acid

$$$$
