
     RDKit          3D

235241  0  0  0  0  0  0  0  0999 V2000
   -3.8862    8.8947    4.0485 N   0  0  0  0  0  0  0  0  0  0  0  0
   -4.4813    8.2404    2.9094 C   0  0  0  0  0  0  0  0  0  0  0  0
   -4.7913    8.9357    1.8470 N   0  0  0  0  0  0  0  0  0  0  0  0
   -4.7479    6.8483    2.8913 N   0  0  0  0  0  0  0  0  0  0  0  0
   -5.8898    6.2773    2.2823 C   0  0  0  0  0  0  0  0  0  0  0  0
   -6.0224    6.2741    0.8043 C   0  0  0  0  0  0  0  0  0  0  0  0
   -4.9872    5.5543    0.0347 C   0  0  0  0  0  0  0  0  0  0  0  0
   -4.8789    4.0645    0.3355 C   0  0  2  0  0  0  0  0  0  0  0  0
   -3.7886    3.4899   -0.4753 N   0  0  0  0  0  0  0  0  0  0  0  0
   -2.4980    3.2745    0.0987 C   0  0  0  0  0  0  0  0  0  0  0  0
   -2.3813    3.6003    1.2916 O   0  0  0  0  0  0  0  0  0  0  0  0
   -1.3206    2.7168   -0.5951 C   0  0  2  0  0  0  0  0  0  0  0  0
   -1.4210    1.2853   -1.0114 C   0  0  0  0  0  0  0  0  0  0  0  0
   -1.7944    0.0934    0.2928 S   0  0  0  0  0  0  0  0  0  0  0  0
   -1.7556   -1.8912   -0.5855 S   0  0  0  0  0  0  0  0  0  0  0  0
   -0.0935   -2.6013   -0.3899 C   0  0  0  0  0  0  0  0  0  0  0  0
    0.0836   -2.9923    1.0204 C   0  0  1  0  0  0  0  0  0  0  0  0
   -0.7872   -4.0759    1.5201 N   0  0  0  0  0  0  0  0  0  0  0  0
   -1.2137   -5.1241    0.6596 C   0  0  0  0  0  0  0  0  0  0  0  0
   -0.8110   -5.0810   -0.5129 O   0  0  0  0  0  0  0  0  0  0  0  0
   -2.1166   -6.2630    1.0733 C   0  0  2  0  0  0  0  0  0  0  0  0
   -1.3627   -7.4725    1.4638 C   0  0  0  0  0  0  0  0  0  0  0  0
   -0.4482   -7.3781    2.5952 C   0  0  0  0  0  0  0  0  0  0  0  0
    0.8541   -6.9131    2.5154 C   0  0  0  0  0  0  0  0  0  0  0  0
    1.7135   -6.9310    3.6023 C   0  0  0  0  0  0  0  0  0  0  0  0
    1.2410   -7.4390    4.8236 C   0  0  0  0  0  0  0  0  0  0  0  0
   -0.0549   -7.9033    4.9208 C   0  0  0  0  0  0  0  0  0  0  0  0
   -0.8881   -7.8766    3.8362 C   0  0  0  0  0  0  0  0  0  0  0  0
   -2.9191   -6.5463   -0.1497 N   0  0  0  0  0  0  0  0  0  0  0  0
   -4.2179   -5.8861   -0.1412 C   0  0  0  0  0  0  0  0  0  0  0  0
   -4.4571   -5.1986    0.8339 O   0  0  0  0  0  0  0  0  0  0  0  0
   -5.0999   -6.1198   -1.3099 C   0  0  1  0  0  0  0  0  0  0  0  0
   -6.2266   -5.1722   -1.2796 N   0  0  0  0  0  0  0  0  0  0  0  0
   -7.5712   -5.5922   -1.2935 C   0  0  0  0  0  0  0  0  0  0  0  0
   -7.7054   -6.8420   -1.4541 O   0  0  0  0  0  0  0  0  0  0  0  0
   -8.7850   -4.7576   -1.1532 C   0  0  1  0  0  0  0  0  0  0  0  0
   -8.5803   -3.3951   -0.7301 N   0  0  0  0  0  0  0  0  0  0  0  0
   -8.4961   -3.1249    0.7135 C   0  0  0  0  0  0  0  0  0  0  0  0
   -8.4254   -4.1451    1.3836 O   0  0  0  0  0  0  0  0  0  0  0  0
   -8.4931   -1.7344    1.1898 C   0  0  1  0  0  0  0  0  0  0  0  0
   -8.6411   -0.6847    0.2284 N   0  0  0  0  0  0  0  0  0  0  0  0
   -7.5506    0.2694    0.0989 C   0  0  0  0  0  0  0  0  0  0  0  0
   -6.5214   -0.0516    0.6941 O   0  0  0  0  0  0  0  0  0  0  0  0
   -7.6703    1.5107   -0.6885 C   0  0  1  0  0  0  0  0  0  0  0  0
   -6.3661    2.2115   -0.6674 N   0  0  0  0  0  0  0  0  0  0  0  0
   -6.1471    3.3346    0.2263 C   0  0  0  0  0  0  0  0  0  0  0  0
   -7.1651    3.6110    0.8780 O   0  0  0  0  0  0  0  0  0  0  0  0
   -8.3288    1.4803   -1.9982 C   0  0  0  0  0  0  0  0  0  0  0  0
   -7.7582    0.6760   -3.0769 C   0  0  0  0  0  0  0  0  0  0  0  0
   -8.1810   -0.6293   -3.3740 C   0  0  0  0  0  0  0  0  0  0  0  0
   -7.5983   -1.3687   -4.3906 C   0  0  0  0  0  0  0  0  0  0  0  0
   -6.5643   -0.7757   -5.1235 C   0  0  0  0  0  0  0  0  0  0  0  0
   -6.1571    0.4952   -4.8270 C   0  0  0  0  0  0  0  0  0  0  0  0
   -6.7277    1.2562   -3.8167 C   0  0  0  0  0  0  0  0  0  0  0  0
   -9.6387   -1.5787    2.2082 C   0  0  0  0  0  0  0  0  0  0  0  0
  -10.9608   -1.8833    1.6303 C   0  0  0  0  0  0  0  0  0  0  0  0
  -11.7575   -1.0103    0.9363 C   0  0  0  0  0  0  0  0  0  0  0  0
  -13.0014   -1.3351    0.4294 C   0  0  0  0  0  0  0  0  0  0  0  0
  -13.4395   -2.6514    0.6614 C   0  0  0  0  0  0  0  0  0  0  0  0
  -12.6651   -3.5293    1.3471 C   0  0  0  0  0  0  0  0  0  0  0  0
  -11.4266   -3.1824    1.8417 C   0  0  0  0  0  0  0  0  0  0  0  0
   -9.6162   -4.8357   -2.4216 C   0  0  0  0  0  0  0  0  0  0  0  0
   -9.9513   -6.2788   -2.5776 C   0  0  0  0  0  0  0  0  0  0  0  0
  -10.4764   -6.8917   -1.5876 O   0  0  0  0  0  0  0  0  0  0  0  0
   -9.6886   -6.9682   -3.8057 N   0  0  0  0  0  0  0  0  0  0  0  0
   -4.4064   -6.2478   -2.6236 C   0  0  0  0  0  0  0  0  0  0  0  0
    1.4480   -3.1472    1.5306 C   0  0  0  0  0  0  0  0  0  0  0  0
    1.6443   -3.7845    2.5845 O   0  0  0  0  0  0  0  0  0  0  0  0
    2.6209   -2.6357    0.9213 N   0  0  0  0  0  0  0  0  0  0  0  0
    3.8909   -2.8250    1.6485 C   0  0  1  0  0  0  0  0  0  0  0  0
    4.3294   -4.2816    1.4850 C   0  0  0  0  0  0  0  0  0  0  0  0
    4.5524   -4.6962    0.0992 C   0  0  0  0  0  0  0  0  0  0  0  0
    3.5958   -5.2011   -0.7537 C   0  0  0  0  0  0  0  0  0  0  0  0
    3.8437   -5.6019   -2.0468 C   0  0  0  0  0  0  0  0  0  0  0  0
    5.1250   -5.5091   -2.5641 C   0  0  0  0  0  0  0  0  0  0  0  0
    6.1023   -5.0046   -1.7265 C   0  0  0  0  0  0  0  0  0  0  0  0
    5.8478   -4.6021   -0.4273 C   0  0  0  0  0  0  0  0  0  0  0  0
    5.4359   -5.9029   -3.8574 O   0  0  0  0  0  0  0  0  0  0  0  0
    4.9094   -1.9197    1.1524 C   0  0  0  0  0  0  0  0  0  0  0  0
    4.6422   -1.2481    0.1297 O   0  0  0  0  0  0  0  0  0  0  0  0
    6.2109   -1.6805    1.7000 N   0  0  0  0  0  0  0  0  0  0  0  0
    7.0176   -0.7387    0.9287 C   0  0  1  0  0  0  0  0  0  0  0  0
    7.0991    0.5869    1.7329 C   0  0  0  0  0  0  0  0  0  0  0  0
    7.6800    1.8029    0.5336 S   0  0  0  0  0  0  0  0  0  0  0  0
    8.0417    3.7183    1.2767 S   0  0  0  0  0  0  0  0  0  0  0  0
    6.6053    4.7737    1.3064 C   0  0  0  0  0  0  0  0  0  0  0  0
    5.8278    4.8049   -0.0466 C   0  0  1  0  0  0  0  0  0  0  0  0
    4.6180    4.0589    0.2677 C   0  0  0  0  0  0  0  0  0  0  0  0
    4.6379    2.8669    0.6187 O   0  0  0  0  0  0  0  0  0  0  0  0
    3.2688    4.6070    0.2131 N   0  0  0  0  0  0  0  0  0  0  0  0
    2.1430    3.8448    0.6939 C   0  0  2  0  0  0  0  0  0  0  0  0
    0.9989    3.6831   -0.2181 C   0  0  0  0  0  0  0  0  0  0  0  0
    0.8610    4.1473   -1.3540 O   0  0  0  0  0  0  0  0  0  0  0  0
   -0.1274    2.8761    0.2396 N   0  0  0  0  0  0  0  0  0  0  0  0
    1.6824    4.6123    1.9600 C   0  0  0  0  0  0  0  0  0  0  0  0
    1.3277    6.0142    1.6031 C   0  0  0  0  0  0  0  0  0  0  0  0
    0.0698    6.4129    1.2304 C   0  0  0  0  0  0  0  0  0  0  0  0
   -0.1374    7.7656    0.9421 C   0  0  0  0  0  0  0  0  0  0  0  0
    0.8730    8.6974    1.0165 C   0  0  0  0  0  0  0  0  0  0  0  0
    2.1446    8.2740    1.3953 C   0  0  0  0  0  0  0  0  0  0  0  0
    2.3620    6.9486    1.6855 C   0  0  0  0  0  0  0  0  0  0  0  0
    0.6222   10.0472    0.7102 O   0  0  0  0  0  0  0  0  0  0  0  0
    5.7600    6.1447   -0.5227 N   0  0  0  0  0  0  0  0  0  0  0  0
    6.8947    6.5916   -1.2648 C   0  0  0  0  0  0  0  0  0  0  0  0
    7.8608    5.7757   -1.4421 O   0  0  0  0  0  0  0  0  0  0  0  0
    7.0531    7.9356   -1.8612 C   0  0  2  0  0  0  0  0  0  0  0  0
    8.1457    8.6892   -1.1103 C   0  0  2  0  0  0  0  0  0  0  0  0
    9.3707    8.0275   -1.1313 O   0  0  0  0  0  0  0  0  0  0  0  0
    7.7166    8.8933    0.3471 C   0  0  0  0  0  0  0  0  0  0  0  0
    5.8587    8.7228   -1.7523 N   0  0  0  0  0  0  0  0  0  0  0  0
    5.2483    9.1265   -3.0097 C   0  0  0  0  0  0  0  0  0  0  0  0
    5.7641    8.7644   -4.0957 O   0  0  0  0  0  0  0  0  0  0  0  0
    4.0180    9.9446   -2.9518 C   0  0  0  0  0  0  0  0  0  0  0  0
    8.4010   -1.2586    1.0108 C   0  0  0  0  0  0  0  0  0  0  0  0
    8.6861   -2.0311    1.9843 O   0  0  0  0  0  0  0  0  0  0  0  0
    9.4321   -0.9737    0.0999 N   0  0  0  0  0  0  0  0  0  0  0  0
   10.7517   -1.5043    0.2652 C   0  0  2  0  0  0  0  0  0  0  0  0
   11.7083   -0.9473   -0.6748 C   0  0  0  0  0  0  0  0  0  0  0  0
   12.9217   -1.2754   -0.6487 O   0  0  0  0  0  0  0  0  0  0  0  0
   11.3289    0.0070   -1.6779 N   0  0  0  0  0  0  0  0  0  0  0  0
   10.7349   -3.0362    0.1231 C   0  0  0  0  0  0  0  0  0  0  0  0
   10.2340   -3.5078   -1.1821 C   0  0  0  0  0  0  0  0  0  0  0  0
   10.2176   -5.0405   -1.2929 C   0  0  0  0  0  0  0  0  0  0  0  0
   11.4918   -5.6513   -1.1643 N   0  0  0  0  0  0  0  0  0  0  0  0
   12.2058   -5.6924    0.0653 C   0  0  0  0  0  0  0  0  0  0  0  0
   11.5514   -5.9280    1.1699 N   0  0  0  0  0  0  0  0  0  0  0  0
   13.6043   -5.4818    0.1121 N   0  0  0  0  0  0  0  0  0  0  0  0
   -3.4468    9.8350    3.9386 H   0  0  0  0  0  0  0  0  0  0  0  0
   -3.9042    8.4153    4.9974 H   0  0  0  0  0  0  0  0  0  0  0  0
   -4.6206    9.9474    1.7986 H   0  0  0  0  0  0  0  0  0  0  0  0
   -4.0361    6.2342    3.3570 H   0  0  0  0  0  0  0  0  0  0  0  0
   -6.0745    5.2371    2.6610 H   0  0  0  0  0  0  0  0  0  0  0  0
   -6.8228    6.8450    2.6536 H   0  0  0  0  0  0  0  0  0  0  0  0
   -7.0349    5.8941    0.4816 H   0  0  0  0  0  0  0  0  0  0  0  0
   -6.0430    7.3318    0.3952 H   0  0  0  0  0  0  0  0  0  0  0  0
   -4.0062    6.0358    0.1891 H   0  0  0  0  0  0  0  0  0  0  0  0
   -5.2198    5.6528   -1.0471 H   0  0  0  0  0  0  0  0  0  0  0  0
   -4.5140    4.0364    1.3817 H   0  0  0  0  0  0  0  0  0  0  0  0
   -3.8835    3.2303   -1.4511 H   0  0  0  0  0  0  0  0  0  0  0  0
   -1.1602    3.2910   -1.5563 H   0  0  0  0  0  0  0  0  0  0  0  0
   -2.2135    1.2256   -1.8103 H   0  0  0  0  0  0  0  0  0  0  0  0
   -0.4478    1.0547   -1.5225 H   0  0  0  0  0  0  0  0  0  0  0  0
    0.1655   -3.2776   -1.1761 H   0  0  0  0  0  0  0  0  0  0  0  0
    0.5855   -1.7027   -0.5495 H   0  0  0  0  0  0  0  0  0  0  0  0
   -0.3813   -2.0939    1.5820 H   0  0  0  0  0  0  0  0  0  0  0  0
   -1.1552   -4.1187    2.4712 H   0  0  0  0  0  0  0  0  0  0  0  0
   -2.7753   -5.9006    1.8335 H   0  0  0  0  0  0  0  0  0  0  0  0
   -2.0363   -8.3556    1.6718 H   0  0  0  0  0  0  0  0  0  0  0  0
   -0.7290   -7.8395    0.5821 H   0  0  0  0  0  0  0  0  0  0  0  0
    1.2431   -6.5121    1.5890 H   0  0  0  0  0  0  0  0  0  0  0  0
    2.7446   -6.5553    3.5253 H   0  0  0  0  0  0  0  0  0  0  0  0
    1.9346   -7.4545    5.6295 H   0  0  0  0  0  0  0  0  0  0  0  0
   -0.4408   -8.2936    5.8604 H   0  0  0  0  0  0  0  0  0  0  0  0
   -1.9190   -8.2580    3.9599 H   0  0  0  0  0  0  0  0  0  0  0  0
   -2.6778   -7.0935   -0.9199 H   0  0  0  0  0  0  0  0  0  0  0  0
   -5.5369   -7.1493   -1.1141 H   0  0  0  0  0  0  0  0  0  0  0  0
   -6.0557   -4.1743   -1.2626 H   0  0  0  0  0  0  0  0  0  0  0  0
   -9.4040   -5.2281   -0.3396 H   0  0  0  0  0  0  0  0  0  0  0  0
   -8.4681   -2.5790   -1.2935 H   0  0  0  0  0  0  0  0  0  0  0  0
   -7.5588   -1.6252    1.7974 H   0  0  0  0  0  0  0  0  0  0  0  0
   -9.4208   -0.5133   -0.4090 H   0  0  0  0  0  0  0  0  0  0  0  0
   -8.3860    2.1425   -0.0268 H   0  0  0  0  0  0  0  0  0  0  0  0
   -5.5813    1.9817   -1.2528 H   0  0  0  0  0  0  0  0  0  0  0  0
   -9.3777    1.0264   -1.7977 H   0  0  0  0  0  0  0  0  0  0  0  0
   -8.5852    2.5159   -2.3820 H   0  0  0  0  0  0  0  0  0  0  0  0
   -8.9935   -1.0038   -2.7891 H   0  0  0  0  0  0  0  0  0  0  0  0
   -7.8965   -2.3779   -4.6306 H   0  0  0  0  0  0  0  0  0  0  0  0
   -6.1304   -1.4005   -5.9100 H   0  0  0  0  0  0  0  0  0  0  0  0
   -5.3451    0.9329   -5.4272 H   0  0  0  0  0  0  0  0  0  0  0  0
   -6.4111    2.2744   -3.5789 H   0  0  0  0  0  0  0  0  0  0  0  0
   -9.4111   -2.2619    3.0821 H   0  0  0  0  0  0  0  0  0  0  0  0
   -9.6232   -0.5597    2.6209 H   0  0  0  0  0  0  0  0  0  0  0  0
  -11.4137   -0.0136    0.7589 H   0  0  0  0  0  0  0  0  0  0  0  0
  -13.6160   -0.6327   -0.1181 H   0  0  0  0  0  0  0  0  0  0  0  0
  -14.4007   -2.9671    0.2760 H   0  0  0  0  0  0  0  0  0  0  0  0
  -13.0376   -4.5667    1.5081 H   0  0  0  0  0  0  0  0  0  0  0  0
  -10.8835   -3.9147    2.3774 H   0  0  0  0  0  0  0  0  0  0  0  0
   -9.0652   -4.5133   -3.3147 H   0  0  0  0  0  0  0  0  0  0  0  0
  -10.6018   -4.3207   -2.2768 H   0  0  0  0  0  0  0  0  0  0  0  0
   -9.8528   -6.5038   -4.7331 H   0  0  0  0  0  0  0  0  0  0  0  0
   -9.3426   -7.9351   -3.7391 H   0  0  0  0  0  0  0  0  0  0  0  0
   -4.1677   -7.3283   -2.8686 H   0  0  0  0  0  0  0  0  0  0  0  0
   -4.9988   -5.8766   -3.4828 H   0  0  0  0  0  0  0  0  0  0  0  0
   -3.4358   -5.7431   -2.6603 H   0  0  0  0  0  0  0  0  0  0  0  0
    2.5188   -2.1742    0.0302 H   0  0  0  0  0  0  0  0  0  0  0  0
    3.6672   -2.7442    2.7321 H   0  0  0  0  0  0  0  0  0  0  0  0
    3.5966   -4.9629    1.9623 H   0  0  0  0  0  0  0  0  0  0  0  0
    5.2454   -4.3897    2.1348 H   0  0  0  0  0  0  0  0  0  0  0  0
    2.5878   -5.2716   -0.3234 H   0  0  0  0  0  0  0  0  0  0  0  0
    3.0142   -6.0010   -2.6448 H   0  0  0  0  0  0  0  0  0  0  0  0
    7.1202   -4.9361   -2.1494 H   0  0  0  0  0  0  0  0  0  0  0  0
    6.6431   -4.2030    0.1925 H   0  0  0  0  0  0  0  0  0  0  0  0
    6.2887   -6.3504   -4.1315 H   0  0  0  0  0  0  0  0  0  0  0  0
    6.4707   -2.1623    2.5361 H   0  0  0  0  0  0  0  0  0  0  0  0
    6.6983   -0.5680   -0.0751 H   0  0  0  0  0  0  0  0  0  0  0  0
    6.1410    0.8415    2.1646 H   0  0  0  0  0  0  0  0  0  0  0  0
    7.8538    0.5002    2.5387 H   0  0  0  0  0  0  0  0  0  0  0  0
    6.8400    5.8046    1.6443 H   0  0  0  0  0  0  0  0  0  0  0  0
    5.8940    4.3960    2.0598 H   0  0  0  0  0  0  0  0  0  0  0  0
    6.5368    4.2111   -0.6987 H   0  0  0  0  0  0  0  0  0  0  0  0
    3.2417    5.5381   -0.1853 H   0  0  0  0  0  0  0  0  0  0  0  0
    2.4726    2.8452    1.0876 H   0  0  0  0  0  0  0  0  0  0  0  0
    0.0023    2.4775    1.1641 H   0  0  0  0  0  0  0  0  0  0  0  0
    0.7961    4.0729    2.3253 H   0  0  0  0  0  0  0  0  0  0  0  0
    2.4981    4.5441    2.6761 H   0  0  0  0  0  0  0  0  0  0  0  0
   -0.7386    5.6830    1.1674 H   0  0  0  0  0  0  0  0  0  0  0  0
   -1.1175    8.1088    0.6589 H   0  0  0  0  0  0  0  0  0  0  0  0
    2.9341    9.0037    1.4558 H   0  0  0  0  0  0  0  0  0  0  0  0
    3.3572    6.6770    1.9841 H   0  0  0  0  0  0  0  0  0  0  0  0
    0.2632   10.1999   -0.2342 H   0  0  0  0  0  0  0  0  0  0  0  0
    4.9614    6.7974   -0.3633 H   0  0  0  0  0  0  0  0  0  0  0  0
    7.3717    7.8892   -2.9153 H   0  0  0  0  0  0  0  0  0  0  0  0
    8.2674    9.6906   -1.5384 H   0  0  0  0  0  0  0  0  0  0  0  0
    9.3465    7.4217   -0.3119 H   0  0  0  0  0  0  0  0  0  0  0  0
    6.7634    8.3982    0.5594 H   0  0  0  0  0  0  0  0  0  0  0  0
    7.6915    9.9741    0.5899 H   0  0  0  0  0  0  0  0  0  0  0  0
    8.5076    8.4409    0.9828 H   0  0  0  0  0  0  0  0  0  0  0  0
    5.4364    8.9995   -0.8347 H   0  0  0  0  0  0  0  0  0  0  0  0
    4.3226   10.9738   -2.6022 H   0  0  0  0  0  0  0  0  0  0  0  0
    3.2955    9.5516   -2.2147 H   0  0  0  0  0  0  0  0  0  0  0  0
    3.5827    9.9763   -3.9453 H   0  0  0  0  0  0  0  0  0  0  0  0
    9.2364   -0.3684   -0.7159 H   0  0  0  0  0  0  0  0  0  0  0  0
   11.0793   -1.4088    1.3619 H   0  0  0  0  0  0  0  0  0  0  0  0
   11.4494    1.0437   -1.5365 H   0  0  0  0  0  0  0  0  0  0  0  0
   10.9054   -0.3631   -2.5773 H   0  0  0  0  0  0  0  0  0  0  0  0
   11.8303   -3.3044    0.2484 H   0  0  0  0  0  0  0  0  0  0  0  0
   10.2129   -3.4751    0.9957 H   0  0  0  0  0  0  0  0  0  0  0  0
   10.7634   -3.0642   -2.0563 H   0  0  0  0  0  0  0  0  0  0  0  0
    9.1445   -3.2011   -1.2882 H   0  0  0  0  0  0  0  0  0  0  0  0
    9.7450   -5.2578   -2.2737 H   0  0  0  0  0  0  0  0  0  0  0  0
    9.5227   -5.4582   -0.5282 H   0  0  0  0  0  0  0  0  0  0  0  0
   11.9644   -6.0811   -2.0123 H   0  0  0  0  0  0  0  0  0  0  0  0
   10.5149   -6.0818    1.1022 H   0  0  0  0  0  0  0  0  0  0  0  0
   14.1229   -5.6285   -0.8046 H   0  0  0  0  0  0  0  0  0  0  0  0
   14.1430   -5.1938    0.9548 H   0  0  0  0  0  0  0  0  0  0  0  0
  1  2  1  0
  2  3  2  3
  2  4  1  0
  4  5  1  0
  5  6  1  0
  6  7  1  0
  7  8  1  0
  8  9  1  0
  9 10  1  0
 10 11  2  0
 10 12  1  0
 12 13  1  0
 13 14  1  0
 14 15  1  0
 15 16  1  0
 16 17  1  0
 17 18  1  0
 18 19  1  0
 19 20  2  0
 19 21  1  0
 21 22  1  0
 22 23  1  0
 23 24  2  0
 24 25  1  0
 25 26  2  0
 26 27  1  0
 27 28  2  0
 21 29  1  0
 29 30  1  0
 30 31  2  0
 30 32  1  0
 32 33  1  0
 33 34  1  0
 34 35  2  0
 34 36  1  0
 36 37  1  0
 37 38  1  0
 38 39  2  0
 38 40  1  0
 40 41  1  0
 41 42  1  0
 42 43  2  0
 42 44  1  0
 44 45  1  0
 45 46  1  0
 46 47  2  0
 44 48  1  0
 48 49  1  0
 49 50  2  0
 50 51  1  0
 51 52  2  0
 52 53  1  0
 53 54  2  0
 40 55  1  0
 55 56  1  0
 56 57  2  0
 57 58  1  0
 58 59  2  0
 59 60  1  0
 60 61  2  0
 36 62  1  0
 62 63  1  0
 63 64  2  0
 63 65  1  0
 32 66  1  0
 17 67  1  0
 67 68  2  0
 67 69  1  0
 69 70  1  0
 70 71  1  0
 71 72  1  0
 72 73  2  0
 73 74  1  0
 74 75  2  0
 75 76  1  0
 76 77  2  0
 75 78  1  0
 70 79  1  0
 79 80  2  0
 79 81  1  0
 81 82  1  0
 82 83  1  0
 83 84  1  0
 84 85  1  0
 85 86  1  0
 86 87  1  0
 87 88  1  0
 88 89  2  0
 88 90  1  0
 90 91  1  0
 91 92  1  0
 92 93  2  0
 92 94  1  0
 91 95  1  0
 95 96  1  0
 96 97  2  0
 97 98  1  0
 98 99  2  0
 99100  1  0
100101  2  0
 99102  1  0
 87103  1  0
103104  1  0
104105  2  0
104106  1  0
106107  1  0
107108  1  0
107109  1  0
106110  1  0
110111  1  0
111112  2  0
111113  1  0
 82114  1  0
114115  2  0
114116  1  0
116117  1  0
117118  1  0
118119  2  0
118120  1  0
117121  1  0
121122  1  0
122123  1  0
123124  1  0
124125  1  0
125126  2  3
125127  1  0
 46  8  1  0
 54 49  1  0
 61 56  1  0
 77 72  1  0
101 96  1  0
 94 12  1  0
 28 23  1  0
  1128  1  0
  1129  1  0
  3130  1  0
  4131  1  0
  5132  1  0
  5133  1  0
  6134  1  0
  6135  1  0
  7136  1  0
  7137  1  0
  8138  1  1
  9139  1  0
 12140  1  6
 13141  1  0
 13142  1  0
 16143  1  0
 16144  1  0
 17145  1  1
 18146  1  0
 21147  1  1
 22148  1  0
 22149  1  0
 24150  1  0
 25151  1  0
 26152  1  0
 27153  1  0
 28154  1  0
 29155  1  0
 32156  1  1
 33157  1  0
 36158  1  1
 37159  1  0
 40160  1  1
 41161  1  0
 44162  1  1
 45163  1  0
 48164  1  0
 48165  1  0
 50166  1  0
 51167  1  0
 52168  1  0
 53169  1  0
 54170  1  0
 55171  1  0
 55172  1  0
 57173  1  0
 58174  1  0
 59175  1  0
 60176  1  0
 61177  1  0
 62178  1  0
 62179  1  0
 65180  1  0
 65181  1  0
 66182  1  0
 66183  1  0
 66184  1  0
 69185  1  0
 70186  1  1
 71187  1  0
 71188  1  0
 73189  1  0
 74190  1  0
 76191  1  0
 77192  1  0
 78193  1  0
 81194  1  0
 82195  1  6
 83196  1  0
 83197  1  0
 86198  1  0
 86199  1  0
 87200  1  6
 90201  1  0
 91202  1  1
 94203  1  0
 95204  1  0
 95205  1  0
 97206  1  0
 98207  1  0
100208  1  0
101209  1  0
102210  1  0
103211  1  0
106212  1  6
107213  1  6
108214  1  0
109215  1  0
109216  1  0
109217  1  0
110218  1  0
113219  1  0
113220  1  0
113221  1  0
116222  1  0
117223  1  1
120224  1  0
120225  1  0
121226  1  0
121227  1  0
122228  1  0
122229  1  0
123230  1  0
123231  1  0
124232  1  0
126233  1  0
127234  1  0
127235  1  0
M  END
>  <Ligand ID>  (1) 
LIG0005494

>  <Ligand>  (1) 
CHEMBL3577978

>  <SMILES>  (1) 
NC(=N)NCCC[C@@H]1NC(=O)[C@@H]2CSSC[C@@H](NC(=O)[C@H](Cc3ccccc3)NC(=O)[C@@H](NC(=O)[C@@H](NC(=O)[C@@H](NC(=O)[C@@H](NC1=O)Cc1ccccc1)Cc1ccccc1)CC(=O)N)C)C(=O)N[C@@H](Cc1ccc(cc1)O)C(=O)N[C@@H](CSSC[C@@H](C(=O)N[C@H](C(=O)N2)Cc1ccc(cc1)O)NC(=O)[C@H]([C@H](O)C)NC(=O)C)C(=O)N[C@H](C(=O)N)CCCNC(=N)N

>  <CID>  (1) 
122178148.0

>  <ChEMBL ID>  (1) 
nan

>  <InChiKey>  (1) 
SJAAJSMNJLZUJU-KSROMGJUSA-N

>  <InChi>  (1) 
InChI=1S/C82H108N22O19S4/c1-43-68(111)95-55(33-46-15-7-4-8-16-46)73(116)103-63-41-126-125-40-62(77(120)94-54(22-14-32-90-82(87)88)69(112)96-56(34-47-17-9-5-10-18-47)71(114)97-57(35-48-19-11-6-12-20-48)72(115)100-60(38-65(83)109)70(113)91-43)102-75(118)59(37-50-25-29-52(108)30-26-50)99-79(122)64(104-80(123)66(44(2)105)92-45(3)106)42-127-124-39-61(76(119)93-53(67(84)110)21-13-31-89-81(85)86)101-74(117)58(98-78(63)121)36-49-23-27-51(107)28-24-49/h4-12,15-20,23-30,43-44,53-64,66,105,107-108H,13-14,21-22,31-42H2,1-3H3,(H2,83,109)(H2,84,110)(H,91,113)(H,92,106)(H,93,119)(H,94,120)(H,95,111)(H,96,112)(H,97,114)(H,98,121)(H,99,122)(H,100,115)(H,101,117)(H,102,118)(H,103,116)(H,104,123)(H4,85,86,89)(H4,87,88,90)/t43-,44+,53-,54-,55-,56-,57-,58-,59-,60-,61-,62-,63+,64-,66-/m0/s1

>  <IUPAC Name>  (1) 
(1S,4S,7S,10S,13S,16S,19S,22R,25S,28R,33R,36S)-28-[[(2S,3R)-2-acetamido-3-hydroxybutanoyl]amino]-N-[(2S)-1-amino-5-carbamimidamido-1-oxopentan-2-yl]-10-(2-amino-2-oxoethyl)-4,13,16-tribenzyl-19-(3-carbamimidamidopropyl)-25,36-bis[(4-hydroxyphenyl)methyl]-7-methyl-3,6,9,12,15,18,21,24,27,35,38-undecaoxo-30,31,40,41-tetrathia-2,5,8,11,14,17,20,23,26,34,37-undecazabicyclo[20.16.4]dotetracontane-33-carboxamide

$$$$
