
     RDKit          3D

 65 71  0  0  0  0  0  0  0  0999 V2000
    1.4316    0.4132    3.1540 C   0  0  0  0  0  0  0  0  0  0  0  0
    1.0206    1.2805    2.1665 O   0  0  0  0  0  0  0  0  0  0  0  0
    0.2112    0.7176    1.1969 C   0  0  1  0  0  0  0  0  0  0  0  0
   -0.1896    1.8146    0.2379 C   0  0  0  0  0  0  0  0  0  0  0  0
   -0.9834    1.2528   -0.9350 C   0  0  0  0  0  0  0  0  0  0  0  0
   -1.2852   -0.1803   -0.6616 C   0  0  1  0  0  0  0  0  0  0  0  0
    0.0529   -0.8840   -0.6652 C   0  0  0  0  0  0  0  0  0  0  0  0
    0.9508   -0.3390    0.4185 C   0  0  1  0  0  0  0  0  0  0  0  0
    2.1626    0.3123   -0.2595 C   0  0  0  0  0  0  0  0  0  0  0  0
    3.0154    0.8744    0.6787 O   0  0  0  0  0  0  0  0  0  0  0  0
    4.1131    1.4681    0.0661 C   0  0  0  0  0  0  0  0  0  0  0  0
    4.9245    0.5210   -0.7262 C   0  0  0  0  0  0  0  0  0  0  0  0
    4.7427    0.2397   -2.0453 C   0  0  0  0  0  0  0  0  0  0  0  0
    5.5723   -0.6624   -2.6544 C   0  0  0  0  0  0  0  0  0  0  0  0
    6.5918   -1.3081   -1.9993 C   0  0  0  0  0  0  0  0  0  0  0  0
    6.7846   -1.0323   -0.6688 C   0  0  0  0  0  0  0  0  0  0  0  0
    5.9575   -0.1321   -0.0588 C   0  0  0  0  0  0  0  0  0  0  0  0
   -1.9251   -0.2847    0.7177 C   0  0  1  0  0  0  0  0  0  0  0  0
   -1.0059    0.1441    1.8393 C   0  0  2  0  0  0  0  0  0  0  0  0
   -1.8150    1.0795    2.5475 O   0  0  0  0  0  0  0  0  0  0  0  0
   -2.8686    1.5475    1.7852 C   0  0  0  0  0  0  0  0  0  0  0  0
   -2.9484    0.7741    0.6858 C   0  0  0  0  0  0  0  0  0  0  0  0
   -3.8062    0.8404   -0.3574 C   0  0  0  0  0  0  0  0  0  0  0  0
   -3.6501   -0.1059   -1.4781 C   0  0  0  0  0  0  0  0  0  0  0  0
   -2.2997   -0.7561   -1.5849 C   0  0  2  0  0  0  0  0  0  0  0  0
   -2.4867   -2.1683   -1.4089 N   0  0  0  0  0  0  0  0  0  0  0  0
   -2.5270   -2.6218   -0.0595 C   0  0  0  0  0  0  0  0  0  0  0  0
   -2.5369   -1.5952    1.0128 C   0  0  0  0  0  0  0  0  0  0  0  0
   -3.4843   -2.7337   -2.2534 C   0  0  0  0  0  0  0  0  0  0  0  0
   -4.7546    1.8535   -0.2918 C   0  0  0  0  0  0  0  0  0  0  0  0
   -4.7540    2.7116    0.8188 C   0  0  0  0  0  0  0  0  0  0  0  0
   -3.8222    2.5703    1.8570 C   0  0  0  0  0  0  0  0  0  0  0  0
   -3.8090    3.3887    2.9311 F   0  0  0  0  0  0  0  0  0  0  0  0
    1.9975   -0.4449    2.8032 H   0  0  0  0  0  0  0  0  0  0  0  0
    2.1364    0.9706    3.8433 H   0  0  0  0  0  0  0  0  0  0  0  0
    0.5521    0.0958    3.7737 H   0  0  0  0  0  0  0  0  0  0  0  0
    0.6517    2.4138   -0.1239 H   0  0  0  0  0  0  0  0  0  0  0  0
   -0.8126    2.5223    0.8573 H   0  0  0  0  0  0  0  0  0  0  0  0
   -0.3411    1.2898   -1.8578 H   0  0  0  0  0  0  0  0  0  0  0  0
   -1.8104    1.9298   -1.0989 H   0  0  0  0  0  0  0  0  0  0  0  0
    0.5089   -0.6633   -1.6491 H   0  0  0  0  0  0  0  0  0  0  0  0
   -0.0348   -1.9860   -0.6277 H   0  0  0  0  0  0  0  0  0  0  0  0
    1.3270   -1.1650    1.0270 H   0  0  0  0  0  0  0  0  0  0  0  0
    2.7098   -0.4690   -0.8592 H   0  0  0  0  0  0  0  0  0  0  0  0
    1.8757    1.0725   -1.0058 H   0  0  0  0  0  0  0  0  0  0  0  0
    4.7804    1.9654    0.7904 H   0  0  0  0  0  0  0  0  0  0  0  0
    3.7330    2.2490   -0.6265 H   0  0  0  0  0  0  0  0  0  0  0  0
    3.9336    0.7540   -2.5595 H   0  0  0  0  0  0  0  0  0  0  0  0
    5.4356   -0.8978   -3.7188 H   0  0  0  0  0  0  0  0  0  0  0  0
    7.2129   -2.0039   -2.5175 H   0  0  0  0  0  0  0  0  0  0  0  0
    7.5753   -1.5187   -0.1169 H   0  0  0  0  0  0  0  0  0  0  0  0
    6.1321    0.0690    0.9984 H   0  0  0  0  0  0  0  0  0  0  0  0
   -0.8237   -0.7016    2.5147 H   0  0  0  0  0  0  0  0  0  0  0  0
   -4.4757   -0.8665   -1.4891 H   0  0  0  0  0  0  0  0  0  0  0  0
   -3.8180    0.4349   -2.4670 H   0  0  0  0  0  0  0  0  0  0  0  0
   -1.9196   -0.6204   -2.6186 H   0  0  0  0  0  0  0  0  0  0  0  0
   -3.5064   -3.1849    0.0271 H   0  0  0  0  0  0  0  0  0  0  0  0
   -1.7811   -3.4260    0.1531 H   0  0  0  0  0  0  0  0  0  0  0  0
   -2.0152   -2.0321    1.9184 H   0  0  0  0  0  0  0  0  0  0  0  0
   -3.5814   -1.4168    1.4119 H   0  0  0  0  0  0  0  0  0  0  0  0
   -4.4006   -3.0016   -1.6515 H   0  0  0  0  0  0  0  0  0  0  0  0
   -3.7399   -2.1212   -3.1285 H   0  0  0  0  0  0  0  0  0  0  0  0
   -3.1109   -3.7148   -2.6314 H   0  0  0  0  0  0  0  0  0  0  0  0
   -5.4654    1.9529   -1.0962 H   0  0  0  0  0  0  0  0  0  0  0  0
   -5.5049    3.5149    0.8738 H   0  0  0  0  0  0  0  0  0  0  0  0
  1  2  1  0
  3  2  1  1
  3  4  1  0
  4  5  1  0
  6  5  1  6
  6  7  1  0
  7  8  1  0
  8  9  1  0
  9 10  1  0
 10 11  1  0
 11 12  1  0
 12 13  2  0
 13 14  1  0
 14 15  2  0
 15 16  1  0
 16 17  2  0
  6 18  1  0
 18 19  1  0
 19 20  1  0
 20 21  1  0
 21 22  2  0
 22 23  1  0
 23 24  1  0
 24 25  1  0
 25 26  1  0
 26 27  1  0
 27 28  1  0
 26 29  1  0
 23 30  2  0
 30 31  1  0
 31 32  2  0
 32 33  1  0
  8  3  1  0
 17 12  1  0
 18 28  1  1
 19  3  1  0
 32 21  1  0
 25  6  1  0
 22 18  1  0
  1 34  1  0
  1 35  1  0
  1 36  1  0
  4 37  1  0
  4 38  1  0
  5 39  1  0
  5 40  1  0
  7 41  1  0
  7 42  1  0
  8 43  1  1
  9 44  1  0
  9 45  1  0
 11 46  1  0
 11 47  1  0
 13 48  1  0
 14 49  1  0
 15 50  1  0
 16 51  1  0
 17 52  1  0
 19 53  1  1
 24 54  1  0
 24 55  1  0
 25 56  1  6
 27 57  1  0
 27 58  1  0
 28 59  1  0
 28 60  1  0
 29 61  1  0
 29 62  1  0
 29 63  1  0
 30 64  1  0
 31 65  1  0
M  END
>  <Ligand ID>  (1) 
LIG0004622

>  <Ligand>  (1) 
CHEMBL3943062

>  <SMILES>  (1) 
CO[C@@]12CC[C@@]3(C[C@H]1COCc1ccccc1)[C@]14[C@@H]2Oc2c4c(C[C@@H]3N(CC1)C)ccc2F

>  <CID>  (1) 
134146717.0

>  <ChEMBL ID>  (1) 
nan

>  <InChiKey>  (1) 
LURXKAVKEBVYHH-XKNGQPLFSA-N

>  <InChi>  (1) 
InChI=1S/C28H32FNO3/c1-30-13-12-27-23-19-8-9-21(29)24(23)33-25(27)28(31-2)11-10-26(27,22(30)14-19)15-20(28)17-32-16-18-6-4-3-5-7-18/h3-9,20,22,25H,10-17H2,1-2H3/t20-,22-,25-,26-,27+,28-/m0/s1

>  <IUPAC Name>  (1) 
(1R,2R,6S,14S,15S,16S)-11-fluoro-15-methoxy-5-methyl-16-(phenylmethoxymethyl)-13-oxa-5-azahexacyclo[13.2.2.12,8.01,6.02,14.012,20]icosa-8(20),9,11-triene

$$$$
