
     RDKit          3D

 32 34  0  0  0  0  0  0  0  0999 V2000
   -2.8966   -1.8969   -1.3910 O   0  0  0  0  0  0  0  0  0  0  0  0
   -3.2308   -1.6565   -0.0663 C   0  0  0  0  0  0  0  0  0  0  0  0
   -2.4914   -0.4791    0.5274 C   0  0  1  0  0  0  0  0  0  0  0  0
   -1.1193   -0.6308    0.5161 O   0  0  0  0  0  0  0  0  0  0  0  0
   -0.6125    0.6470    0.4638 C   0  0  2  0  0  0  0  0  0  0  0  0
   -1.4230    1.1987   -0.7117 C   0  0  1  0  0  0  0  0  0  0  0  0
   -2.8203    0.7668   -0.2456 C   0  0  2  0  0  0  0  0  0  0  0  0
   -3.2856    1.7889    0.6059 O   0  0  0  0  0  0  0  0  0  0  0  0
   -1.3255    2.5609   -0.8352 O   0  0  0  0  0  0  0  0  0  0  0  0
    0.8003    0.6914    0.2454 N   0  0  0  0  0  0  0  0  0  0  0  0
    1.5072    1.8306    0.1281 C   0  0  0  0  0  0  0  0  0  0  0  0
    2.8094    1.5524   -0.0709 N   0  0  0  0  0  0  0  0  0  0  0  0
    2.9135    0.2170   -0.0774 C   0  0  0  0  0  0  0  0  0  0  0  0
    1.6598   -0.3347    0.1200 C   0  0  0  0  0  0  0  0  0  0  0  0
    1.5170   -1.6700    0.1516 N   0  0  0  0  0  0  0  0  0  0  0  0
    2.5994   -2.4680   -0.0097 C   0  0  0  0  0  0  0  0  0  0  0  0
    3.8325   -1.9334   -0.2038 N   0  0  0  0  0  0  0  0  0  0  0  0
    4.0351   -0.6024   -0.2447 C   0  0  0  0  0  0  0  0  0  0  0  0
    5.3371   -0.0349   -0.4497 N   0  0  0  0  0  0  0  0  0  0  0  0
   -3.5771   -2.5023   -1.7691 H   0  0  0  0  0  0  0  0  0  0  0  0
   -4.3182   -1.3874   -0.0185 H   0  0  0  0  0  0  0  0  0  0  0  0
   -3.1308   -2.5681    0.5379 H   0  0  0  0  0  0  0  0  0  0  0  0
   -2.8031   -0.4241    1.5913 H   0  0  0  0  0  0  0  0  0  0  0  0
   -0.9320    1.1700    1.3798 H   0  0  0  0  0  0  0  0  0  0  0  0
   -1.2413    0.6320   -1.6328 H   0  0  0  0  0  0  0  0  0  0  0  0
   -3.4948    0.6152   -1.1006 H   0  0  0  0  0  0  0  0  0  0  0  0
   -2.6183    2.5108    0.7253 H   0  0  0  0  0  0  0  0  0  0  0  0
   -0.9182    2.8137   -1.7041 H   0  0  0  0  0  0  0  0  0  0  0  0
    1.0883    2.8418    0.1855 H   0  0  0  0  0  0  0  0  0  0  0  0
    2.5098   -3.5546    0.0119 H   0  0  0  0  0  0  0  0  0  0  0  0
    6.0870   -0.3421    0.2100 H   0  0  0  0  0  0  0  0  0  0  0  0
    5.5423    0.6482   -1.2103 H   0  0  0  0  0  0  0  0  0  0  0  0
  1  2  1  0
  2  3  1  0
  3  4  1  0
  4  5  1  0
  5  6  1  0
  6  7  1  0
  7  8  1  0
  6  9  1  0
  5 10  1  0
 10 11  1  0
 11 12  2  0
 12 13  1  0
 13 14  2  0
 14 15  1  0
 15 16  2  0
 16 17  1  0
 17 18  2  0
 18 19  1  0
  7  3  1  0
 14 10  1  0
 18 13  1  0
  1 20  1  0
  2 21  1  0
  2 22  1  0
  3 23  1  1
  5 24  1  1
  6 25  1  6
  7 26  1  6
  8 27  1  0
  9 28  1  0
 11 29  1  0
 16 30  1  0
 19 31  1  0
 19 32  1  0
M  END
>  <Ligand ID>  (1) 
LIG0001287

>  <Ligand>  (1) 
adenosine

>  <SMILES>  (1) 
OC[C@H]1O[C@H]([C@@H]([C@@H]1O)O)n1cnc2c1ncnc2N

>  <CID>  (1) 
60961.0

>  <ChEMBL ID>  (1) 
nan

>  <InChiKey>  (1) 
OIRDTQYFTABQOQ-KQYNXXCUSA-N

>  <InChi>  (1) 
InChI=1S/C10H13N5O4/c11-8-5-9(13-2-12-8)15(3-14-5)10-7(18)6(17)4(1-16)19-10/h2-4,6-7,10,16-18H,1H2,(H2,11,12,13)/t4-,6-,7-,10-/m1/s1

>  <IUPAC Name>  (1) 
(2R,3R,4S,5R)-2-(6-aminopurin-9-yl)-5-(hydroxymethyl)oxolane-3,4-diol

$$$$
