
     RDKit          3D

 57 58  0  0  0  0  0  0  0  0999 V2000
    8.4496    2.0042    0.7559 C   0  0  0  0  0  0  0  0  0  0  0  0
    7.1328    1.5715    1.3542 C   0  0  0  0  0  0  0  0  0  0  0  0
    7.0315    0.0480    1.2505 C   0  0  0  0  0  0  0  0  0  0  0  0
    5.7375   -0.3483    1.8403 C   0  0  0  0  0  0  0  0  0  0  0  0
    5.7610   -0.6087    3.0923 O   0  0  0  0  0  0  0  0  0  0  0  0
    4.4801   -0.4646    1.1456 C   0  0  0  0  0  0  0  0  0  0  0  0
    3.3469   -0.8750    1.8561 C   0  0  0  0  0  0  0  0  0  0  0  0
    2.1244   -1.0120    1.2610 C   0  0  0  0  0  0  0  0  0  0  0  0
    1.9470   -0.7507   -0.0768 C   0  0  0  0  0  0  0  0  0  0  0  0
    3.0432   -0.3434   -0.8091 C   0  0  0  0  0  0  0  0  0  0  0  0
    4.2775   -0.2094   -0.1891 C   0  0  0  0  0  0  0  0  0  0  0  0
    5.3285    0.2031   -0.9848 O   0  0  0  0  0  0  0  0  0  0  0  0
    2.8760   -0.0546   -2.2597 C   0  0  0  0  0  0  0  0  0  0  0  0
    0.7293   -0.8735   -0.7305 O   0  0  0  0  0  0  0  0  0  0  0  0
   -0.4325   -1.2857   -0.0407 C   0  0  0  0  0  0  0  0  0  0  0  0
   -1.6368   -1.3458   -0.9600 C   0  0  0  0  0  0  0  0  0  0  0  0
   -1.8507    0.0506   -1.5232 C   0  0  0  0  0  0  0  0  0  0  0  0
   -3.0258    0.0672   -2.4417 C   0  0  0  0  0  0  0  0  0  0  0  0
   -4.2184   -0.2944   -1.8855 O   0  0  0  0  0  0  0  0  0  0  0  0
   -5.0042    0.2033   -0.8984 C   0  0  0  0  0  0  0  0  0  0  0  0
   -4.7751    1.3244   -0.1411 C   0  0  0  0  0  0  0  0  0  0  0  0
   -5.6341    1.7675    0.8525 C   0  0  0  0  0  0  0  0  0  0  0  0
   -6.7753    1.0301    1.0775 C   0  0  0  0  0  0  0  0  0  0  0  0
   -7.0665   -0.1048    0.3532 C   0  0  0  0  0  0  0  0  0  0  0  0
   -6.1853   -0.5064   -0.6218 C   0  0  0  0  0  0  0  0  0  0  0  0
   -6.5132   -1.7468   -1.4063 C   0  0  0  0  0  0  0  0  0  0  0  0
   -7.7043    1.4631    2.1138 C   0  0  0  0  0  0  0  0  0  0  0  0
   -8.7722    0.8292    2.3705 O   0  0  0  0  0  0  0  0  0  0  0  0
   -7.4544    2.6022    2.8716 O   0  0  0  0  0  0  0  0  0  0  0  0
    9.2285    1.7924    1.5093 H   0  0  0  0  0  0  0  0  0  0  0  0
    8.5917    1.4216   -0.1628 H   0  0  0  0  0  0  0  0  0  0  0  0
    8.3743    3.0789    0.4952 H   0  0  0  0  0  0  0  0  0  0  0  0
    6.2717    2.0246    0.8387 H   0  0  0  0  0  0  0  0  0  0  0  0
    7.1024    1.7749    2.4548 H   0  0  0  0  0  0  0  0  0  0  0  0
    7.1741   -0.2650    0.2242 H   0  0  0  0  0  0  0  0  0  0  0  0
    7.8861   -0.3978    1.8262 H   0  0  0  0  0  0  0  0  0  0  0  0
    3.4203   -1.0968    2.9152 H   0  0  0  0  0  0  0  0  0  0  0  0
    1.2770   -1.3337    1.8583 H   0  0  0  0  0  0  0  0  0  0  0  0
    5.6162   -0.4040   -1.7535 H   0  0  0  0  0  0  0  0  0  0  0  0
    2.1748    0.7874   -2.4297 H   0  0  0  0  0  0  0  0  0  0  0  0
    2.5710   -0.9593   -2.8298 H   0  0  0  0  0  0  0  0  0  0  0  0
    3.8490    0.2721   -2.6754 H   0  0  0  0  0  0  0  0  0  0  0  0
   -0.6210   -0.7064    0.8601 H   0  0  0  0  0  0  0  0  0  0  0  0
   -0.2649   -2.3438    0.3144 H   0  0  0  0  0  0  0  0  0  0  0  0
   -2.4973   -1.6661   -0.3168 H   0  0  0  0  0  0  0  0  0  0  0  0
   -1.5271   -2.1160   -1.7380 H   0  0  0  0  0  0  0  0  0  0  0  0
   -1.9662    0.7160   -0.6622 H   0  0  0  0  0  0  0  0  0  0  0  0
   -0.9007    0.2723   -2.0887 H   0  0  0  0  0  0  0  0  0  0  0  0
   -3.1361    1.1521   -2.7658 H   0  0  0  0  0  0  0  0  0  0  0  0
   -2.7541   -0.5108   -3.3608 H   0  0  0  0  0  0  0  0  0  0  0  0
   -3.8986    1.9208   -0.3073 H   0  0  0  0  0  0  0  0  0  0  0  0
   -5.4053    2.6715    1.4317 H   0  0  0  0  0  0  0  0  0  0  0  0
   -7.9698   -0.6971    0.5239 H   0  0  0  0  0  0  0  0  0  0  0  0
   -6.0380   -2.6504   -0.9833 H   0  0  0  0  0  0  0  0  0  0  0  0
   -6.0824   -1.5426   -2.4298 H   0  0  0  0  0  0  0  0  0  0  0  0
   -7.6128   -1.8541   -1.5290 H   0  0  0  0  0  0  0  0  0  0  0  0
   -8.0789    2.9772    3.5543 H   0  0  0  0  0  0  0  0  0  0  0  0
  1  2  1  0
  2  3  1  0
  3  4  1  0
  4  5  2  0
  4  6  1  0
  6  7  2  0
  7  8  1  0
  8  9  2  0
  9 10  1  0
 10 11  2  0
 11 12  1  0
 10 13  1  0
  9 14  1  0
 14 15  1  0
 15 16  1  0
 16 17  1  0
 17 18  1  0
 18 19  1  0
 19 20  1  0
 20 21  2  0
 21 22  1  0
 22 23  2  0
 23 24  1  0
 24 25  2  0
 25 26  1  0
 23 27  1  0
 27 28  2  0
 27 29  1  0
 11  6  1  0
 25 20  1  0
  1 30  1  0
  1 31  1  0
  1 32  1  0
  2 33  1  0
  2 34  1  0
  3 35  1  0
  3 36  1  0
  7 37  1  0
  8 38  1  0
 12 39  1  0
 13 40  1  0
 13 41  1  0
 13 42  1  0
 15 43  1  0
 15 44  1  0
 16 45  1  0
 16 46  1  0
 17 47  1  0
 17 48  1  0
 18 49  1  0
 18 50  1  0
 21 51  1  0
 22 52  1  0
 24 53  1  0
 26 54  1  0
 26 55  1  0
 26 56  1  0
 29 57  1  0
M  END
>  <Ligand ID>  (1) 
LIG0004134

>  <Ligand>  (1) 
CHEMBL3287722

>  <SMILES>  (1) 
CCCC(=O)c1ccc(c(c1O)C)OCCCCOc1ccc(cc1C)C(=O)O

>  <CID>  (1) 
90643857.0

>  <ChEMBL ID>  (1) 
nan

>  <InChiKey>  (1) 
AAIOMRHKGUVZIS-UHFFFAOYSA-N

>  <InChi>  (1) 
InChI=1S/C23H28O6/c1-4-7-19(24)18-9-11-21(16(3)22(18)25)29-13-6-5-12-28-20-10-8-17(23(26)27)14-15(20)2/h8-11,14,25H,4-7,12-13H2,1-3H3,(H,26,27)

>  <IUPAC Name>  (1) 
4-[4-(4-butanoyl-3-hydroxy-2-methylphenoxy)butoxy]-3-methylbenzoic acid

$$$$
