
     RDKit          3D

 54 57  0  0  0  0  0  0  0  0999 V2000
    2.5370   -0.0505   -2.0651 C   0  0  0  0  0  0  0  0  0  0  0  0
    2.1604   -0.4008   -0.6041 C   0  0  0  0  0  0  0  0  0  0  0  0
    0.8221    0.0182   -0.3866 N   0  0  0  0  0  0  0  0  0  0  0  0
    0.0594   -0.6152   -1.5070 C   0  0  0  0  0  0  0  0  0  0  0  0
   -1.3927   -0.1807   -1.4285 C   0  0  0  0  0  0  0  0  0  0  0  0
   -1.9278   -0.8423   -0.1849 C   0  0  0  0  0  0  0  0  0  0  0  0
   -1.2087   -0.2057    0.9621 C   0  0  0  0  0  0  0  0  0  0  0  0
    0.2650   -0.6269    0.7897 C   0  0  0  0  0  0  0  0  0  0  0  0
   -3.3479   -0.8659   -0.0594 N   0  0  0  0  0  0  0  0  0  0  0  0
   -4.1439   -2.0585    0.0121 C   0  0  0  0  0  0  0  0  0  0  0  0
   -3.7240   -3.2625   -0.0238 O   0  0  0  0  0  0  0  0  0  0  0  0
   -5.5804   -1.7013    0.1387 C   0  0  0  0  0  0  0  0  0  0  0  0
   -5.5481   -0.2052    0.1344 C   0  0  0  0  0  0  0  0  0  0  0  0
   -4.2417    0.2328    0.0185 C   0  0  0  0  0  0  0  0  0  0  0  0
   -4.0349    1.6055   -0.0011 C   0  0  0  0  0  0  0  0  0  0  0  0
   -5.0719    2.5111    0.0896 C   0  0  0  0  0  0  0  0  0  0  0  0
   -6.3793    2.0528    0.2056 C   0  0  0  0  0  0  0  0  0  0  0  0
   -6.6069    0.6887    0.2270 C   0  0  0  0  0  0  0  0  0  0  0  0
    3.2585    0.1347    0.2107 C   0  0  0  0  0  0  0  0  0  0  0  0
    4.5441   -0.5923   -0.2100 C   0  0  0  0  0  0  0  0  0  0  0  0
    5.6603    0.4180   -0.0632 C   0  0  0  0  0  0  0  0  0  0  0  0
    5.4060    1.2871    1.1609 C   0  0  0  0  0  0  0  0  0  0  0  0
    4.6000    0.5384    2.1946 C   0  0  0  0  0  0  0  0  0  0  0  0
    3.2039    0.1385    1.6815 C   0  0  0  0  0  0  0  0  0  0  0  0
    3.5777    0.3031   -2.0557 H   0  0  0  0  0  0  0  0  0  0  0  0
    1.9549    0.8662   -2.3717 H   0  0  0  0  0  0  0  0  0  0  0  0
    2.4487   -0.8928   -2.7398 H   0  0  0  0  0  0  0  0  0  0  0  0
    2.1585   -1.5313   -0.6123 H   0  0  0  0  0  0  0  0  0  0  0  0
    0.0765   -1.6902   -1.2737 H   0  0  0  0  0  0  0  0  0  0  0  0
    0.4204   -0.3398   -2.4821 H   0  0  0  0  0  0  0  0  0  0  0  0
   -1.3636    0.9093   -1.3994 H   0  0  0  0  0  0  0  0  0  0  0  0
   -1.8802   -0.6207   -2.3141 H   0  0  0  0  0  0  0  0  0  0  0  0
   -1.5713   -1.8953   -0.2154 H   0  0  0  0  0  0  0  0  0  0  0  0
   -1.1746    0.8950    0.9135 H   0  0  0  0  0  0  0  0  0  0  0  0
   -1.5171   -0.5784    1.9566 H   0  0  0  0  0  0  0  0  0  0  0  0
    0.8090   -0.5687    1.7044 H   0  0  0  0  0  0  0  0  0  0  0  0
    0.2037   -1.7256    0.5255 H   0  0  0  0  0  0  0  0  0  0  0  0
   -5.8963   -2.0992    1.1385 H   0  0  0  0  0  0  0  0  0  0  0  0
   -6.2014   -2.0937   -0.6730 H   0  0  0  0  0  0  0  0  0  0  0  0
   -3.0404    2.0233   -0.0894 H   0  0  0  0  0  0  0  0  0  0  0  0
   -4.9050    3.5915    0.0738 H   0  0  0  0  0  0  0  0  0  0  0  0
   -7.2208    2.7380    0.2793 H   0  0  0  0  0  0  0  0  0  0  0  0
   -7.6383    0.3704    0.3185 H   0  0  0  0  0  0  0  0  0  0  0  0
    3.4737    1.2192   -0.1182 H   0  0  0  0  0  0  0  0  0  0  0  0
    4.4814   -1.1127   -1.1420 H   0  0  0  0  0  0  0  0  0  0  0  0
    4.6833   -1.3977    0.5794 H   0  0  0  0  0  0  0  0  0  0  0  0
    6.6307   -0.0808   -0.0620 H   0  0  0  0  0  0  0  0  0  0  0  0
    5.6157    1.0855   -0.9433 H   0  0  0  0  0  0  0  0  0  0  0  0
    4.9337    2.2241    0.8890 H   0  0  0  0  0  0  0  0  0  0  0  0
    6.3925    1.4825    1.6195 H   0  0  0  0  0  0  0  0  0  0  0  0
    5.1763   -0.3468    2.5504 H   0  0  0  0  0  0  0  0  0  0  0  0
    4.4946    1.1929    3.0784 H   0  0  0  0  0  0  0  0  0  0  0  0
    3.0622   -0.8635    2.1348 H   0  0  0  0  0  0  0  0  0  0  0  0
    2.5068    0.9179    2.0998 H   0  0  0  0  0  0  0  0  0  0  0  0
  1  2  1  0
  2  3  1  0
  3  4  1  0
  4  5  1  0
  5  6  1  0
  6  7  1  0
  7  8  1  0
  6  9  1  0
  9 10  1  0
 10 11  2  0
 10 12  1  0
 12 13  1  0
 13 14  2  0
 14 15  1  0
 15 16  2  0
 16 17  1  0
 17 18  2  0
  2 19  1  0
 19 20  1  0
 20 21  1  0
 21 22  1  0
 22 23  1  0
 23 24  1  0
  8  3  1  0
 14  9  1  0
 24 19  1  0
 18 13  1  0
  1 25  1  0
  1 26  1  0
  1 27  1  0
  2 28  1  0
  4 29  1  0
  4 30  1  0
  5 31  1  0
  5 32  1  0
  6 33  1  0
  7 34  1  0
  7 35  1  0
  8 36  1  0
  8 37  1  0
 12 38  1  0
 12 39  1  0
 15 40  1  0
 16 41  1  0
 17 42  1  0
 18 43  1  0
 19 44  1  0
 20 45  1  0
 20 46  1  0
 21 47  1  0
 21 48  1  0
 22 49  1  0
 22 50  1  0
 23 51  1  0
 23 52  1  0
 24 53  1  0
 24 54  1  0
M  END
>  <Ligand ID>  (1) 
LIG0003522

>  <Ligand>  (1) 
CHEMBL2387191

>  <SMILES>  (1) 
CC(N1CCC(CC1)N1C(=O)Cc2c1cccc2)C1CCCCC1

>  <CID>  (1) 
71624268.0

>  <ChEMBL ID>  (1) 
nan

>  <InChiKey>  (1) 
IBVAETNABFDYAY-UHFFFAOYSA-N

>  <InChi>  (1) 
InChI=1S/C21H30N2O/c1-16(17-7-3-2-4-8-17)22-13-11-19(12-14-22)23-20-10-6-5-9-18(20)15-21(23)24/h5-6,9-10,16-17,19H,2-4,7-8,11-15H2,1H3

>  <IUPAC Name>  (1) 
1-[1-(1-cyclohexylethyl)piperidin-4-yl]-3H-indol-2-one

$$$$
