
     RDKit          3D

 32 34  0  0  0  0  0  0  0  0999 V2000
   -1.7436    2.4437   -1.8975 F   0  0  0  0  0  0  0  0  0  0  0  0
   -2.2639    1.4181   -1.1909 C   0  0  0  0  0  0  0  0  0  0  0  0
   -3.6205    1.3895   -0.9833 C   0  0  0  0  0  0  0  0  0  0  0  0
   -4.2156    0.3553   -0.2608 C   0  0  0  0  0  0  0  0  0  0  0  0
   -3.4218   -0.6623    0.2570 C   0  0  0  0  0  0  0  0  0  0  0  0
   -2.0548   -0.6459    0.0556 C   0  0  0  0  0  0  0  0  0  0  0  0
   -1.4919    0.3997   -0.6694 C   0  0  0  0  0  0  0  0  0  0  0  0
   -0.0384    0.4055   -0.8763 C   0  0  0  0  0  0  0  0  0  0  0  0
    0.5092    0.6866   -2.1226 C   0  0  0  0  0  0  0  0  0  0  0  0
    1.8632    0.6937   -2.3224 C   0  0  0  0  0  0  0  0  0  0  0  0
    2.7016    0.4164   -1.2665 C   0  0  0  0  0  0  0  0  0  0  0  0
    2.1976    0.1315   -0.0097 C   0  0  0  0  0  0  0  0  0  0  0  0
    0.8268    0.1334    0.1545 C   0  0  0  0  0  0  0  0  0  0  0  0
    3.2888   -0.0955    0.8038 C   0  0  0  0  0  0  0  0  0  0  0  0
    4.4135    0.0584    0.0181 C   0  0  0  0  0  0  0  0  0  0  0  0
    4.0147    0.3597   -1.1940 O   0  0  0  0  0  0  0  0  0  0  0  0
    5.7897   -0.0873    0.4556 C   0  0  0  0  0  0  0  0  0  0  0  0
    6.7395    0.0828   -0.3764 O   0  0  0  0  0  0  0  0  0  0  0  0
    6.0967   -0.4087    1.7629 O   0  0  0  0  0  0  0  0  0  0  0  0
   -4.0691   -1.6658    0.9678 O   0  0  0  0  0  0  0  0  0  0  0  0
   -4.2501   -1.5238    2.3818 C   0  0  0  0  0  0  0  0  0  0  0  0
   -5.0088   -0.3625    2.5744 F   0  0  0  0  0  0  0  0  0  0  0  0
   -3.0748   -1.3768    3.0589 F   0  0  0  0  0  0  0  0  0  0  0  0
   -5.0151   -2.5867    2.7848 F   0  0  0  0  0  0  0  0  0  0  0  0
   -4.2986    2.1635   -1.3668 H   0  0  0  0  0  0  0  0  0  0  0  0
   -5.2867    0.3335   -0.0975 H   0  0  0  0  0  0  0  0  0  0  0  0
   -1.4537   -1.4451    0.4654 H   0  0  0  0  0  0  0  0  0  0  0  0
   -0.1455    0.9022   -2.9434 H   0  0  0  0  0  0  0  0  0  0  0  0
    2.3247    0.9122   -3.2960 H   0  0  0  0  0  0  0  0  0  0  0  0
    0.4065   -0.0904    1.1450 H   0  0  0  0  0  0  0  0  0  0  0  0
    3.2377   -0.3436    1.8497 H   0  0  0  0  0  0  0  0  0  0  0  0
    7.0429   -0.2590    2.1383 H   0  0  0  0  0  0  0  0  0  0  0  0
  1  2  1  0
  2  3  2  0
  3  4  1  0
  4  5  2  0
  5  6  1  0
  6  7  2  0
  7  8  1  0
  8  9  2  0
  9 10  1  0
 10 11  2  0
 11 12  1  0
 12 13  2  0
 12 14  1  0
 14 15  2  0
 15 16  1  0
 15 17  1  0
 17 18  2  0
 17 19  1  0
  5 20  1  0
 20 21  1  0
 21 22  1  0
 21 23  1  0
 21 24  1  0
  7  2  1  0
 13  8  1  0
 16 11  1  0
  3 25  1  0
  4 26  1  0
  6 27  1  0
  9 28  1  0
 10 29  1  0
 13 30  1  0
 14 31  1  0
 19 32  1  0
M  END
>  <Ligand ID>  (1) 
LIG0002790

>  <Ligand>  (1) 
CHEMBL3929976

>  <SMILES>  (1) 
Fc1ccc(cc1c1ccc2c(c1)cc(o2)C(=O)O)OC(F)(F)F

>  <CID>  (1) 
134137619.0

>  <ChEMBL ID>  (1) 
nan

>  <InChiKey>  (1) 
NOHHVIVIACXLHB-UHFFFAOYSA-N

>  <InChi>  (1) 
InChI=1S/C16H8F4O4/c17-12-3-2-10(24-16(18,19)20)7-11(12)8-1-4-13-9(5-8)6-14(23-13)15(21)22/h1-7H,(H,21,22)

>  <IUPAC Name>  (1) 
5-[2-fluoro-5-(trifluoromethoxy)phenyl]-1-benzofuran-2-carboxylic acid

$$$$
