
     RDKit          3D

 55 59  0  0  0  0  0  0  0  0999 V2000
    8.7890   -1.7270    0.6624 F   0  0  0  0  0  0  0  0  0  0  0  0
    7.6627   -1.3688    0.0095 C   0  0  0  0  0  0  0  0  0  0  0  0
    7.3482   -0.0210   -0.1273 C   0  0  0  0  0  0  0  0  0  0  0  0
    6.2212    0.4207   -0.7793 C   0  0  0  0  0  0  0  0  0  0  0  0
    5.3451   -0.5189   -1.3325 C   0  0  0  0  0  0  0  0  0  0  0  0
    5.6495   -1.8640   -1.2018 C   0  0  0  0  0  0  0  0  0  0  0  0
    6.7864   -2.2844   -0.5438 C   0  0  0  0  0  0  0  0  0  0  0  0
    4.1387   -0.0745   -2.0314 C   0  0  0  0  0  0  0  0  0  0  0  0
    2.9792    0.0690   -1.1802 N   0  0  0  0  0  0  0  0  0  0  0  0
    1.7698    0.4936   -1.7949 C   0  0  0  0  0  0  0  0  0  0  0  0
    1.8206    0.7114   -3.0534 O   0  0  0  0  0  0  0  0  0  0  0  0
    0.5217    0.6823   -1.0678 C   0  0  0  0  0  0  0  0  0  0  0  0
   -0.2387    1.7878   -1.4242 C   0  0  0  0  0  0  0  0  0  0  0  0
   -1.4330    2.0191   -0.7743 C   0  0  0  0  0  0  0  0  0  0  0  0
   -1.8215    1.1356    0.2073 C   0  0  0  0  0  0  0  0  0  0  0  0
   -1.0679    0.0495    0.5523 N   0  0  0  0  0  0  0  0  0  0  0  0
    0.0961   -0.1874   -0.0707 C   0  0  0  0  0  0  0  0  0  0  0  0
    0.8715   -1.1679    0.2030 N   0  0  0  0  0  0  0  0  0  0  0  0
   -1.6117   -0.7780    1.6022 C   0  0  0  0  0  0  0  0  0  0  0  0
   -2.5604   -1.8124    1.1232 C   0  0  0  0  0  0  0  0  0  0  0  0
   -2.0471   -2.8201    0.1542 C   0  0  0  0  0  0  0  0  0  0  0  0
   -3.1178   -3.9215    0.3999 C   0  0  0  0  0  0  0  0  0  0  0  0
   -3.1391   -3.8487    1.9123 C   0  0  0  0  0  0  0  0  0  0  0  0
   -3.0976   -2.5113    2.1943 O   0  0  0  0  0  0  0  0  0  0  0  0
   -2.9922    1.3859    0.8245 N   0  0  0  0  0  0  0  0  0  0  0  0
   -3.7233    2.4567    0.4747 C   0  0  0  0  0  0  0  0  0  0  0  0
   -3.3381    3.3173   -0.4864 N   0  0  0  0  0  0  0  0  0  0  0  0
   -2.1790    3.1152   -1.1339 C   0  0  0  0  0  0  0  0  0  0  0  0
   -1.7630    3.8640   -2.0265 O   0  0  0  0  0  0  0  0  0  0  0  0
   -4.0702    4.3865   -0.8349 C   0  0  0  0  0  0  0  0  0  0  0  0
   -5.2727    4.6784   -0.2309 C   0  0  0  0  0  0  0  0  0  0  0  0
   -5.7159    3.8126    0.7749 C   0  0  0  0  0  0  0  0  0  0  0  0
   -4.9359    2.7151    1.1132 C   0  0  0  0  0  0  0  0  0  0  0  0
    8.0401    0.6850    0.3115 H   0  0  0  0  0  0  0  0  0  0  0  0
    5.9940    1.4655   -0.8769 H   0  0  0  0  0  0  0  0  0  0  0  0
    4.9783   -2.5964   -1.6273 H   0  0  0  0  0  0  0  0  0  0  0  0
    7.0447   -3.3319   -0.4311 H   0  0  0  0  0  0  0  0  0  0  0  0
    4.3603    0.9450   -2.4578 H   0  0  0  0  0  0  0  0  0  0  0  0
    3.9147   -0.7144   -2.9243 H   0  0  0  0  0  0  0  0  0  0  0  0
    2.9881   -0.1208   -0.1524 H   0  0  0  0  0  0  0  0  0  0  0  0
    0.0910    2.4649   -2.2011 H   0  0  0  0  0  0  0  0  0  0  0  0
    0.7640   -1.9115    0.8833 H   0  0  0  0  0  0  0  0  0  0  0  0
   -0.7569   -1.3147    2.0834 H   0  0  0  0  0  0  0  0  0  0  0  0
   -2.0459   -0.1646    2.4291 H   0  0  0  0  0  0  0  0  0  0  0  0
   -3.4664   -1.3498    0.6105 H   0  0  0  0  0  0  0  0  0  0  0  0
   -1.1065   -3.2466    0.5215 H   0  0  0  0  0  0  0  0  0  0  0  0
   -2.0638   -2.5032   -0.8881 H   0  0  0  0  0  0  0  0  0  0  0  0
   -2.7294   -4.8690    0.0001 H   0  0  0  0  0  0  0  0  0  0  0  0
   -4.0555   -3.6064   -0.0730 H   0  0  0  0  0  0  0  0  0  0  0  0
   -4.0665   -4.3009    2.3223 H   0  0  0  0  0  0  0  0  0  0  0  0
   -2.2315   -4.3821    2.2679 H   0  0  0  0  0  0  0  0  0  0  0  0
   -3.7211    5.0552   -1.6161 H   0  0  0  0  0  0  0  0  0  0  0  0
   -5.8412    5.5461   -0.5329 H   0  0  0  0  0  0  0  0  0  0  0  0
   -6.6597    3.9969    1.2847 H   0  0  0  0  0  0  0  0  0  0  0  0
   -5.3056    2.0591    1.9001 H   0  0  0  0  0  0  0  0  0  0  0  0
  1  2  1  0
  2  3  2  0
  3  4  1  0
  4  5  2  0
  5  6  1  0
  6  7  2  0
  5  8  1  0
  8  9  1  0
  9 10  1  0
 10 11  2  0
 10 12  1  0
 12 13  2  0
 13 14  1  0
 14 15  2  0
 15 16  1  0
 16 17  1  0
 17 18  2  3
 16 19  1  0
 19 20  1  0
 20 21  1  0
 21 22  1  0
 22 23  1  0
 23 24  1  0
 15 25  1  0
 25 26  2  0
 26 27  1  0
 27 28  1  0
 28 29  2  0
 27 30  1  0
 30 31  2  0
 31 32  1  0
 32 33  2  0
  7  2  1  0
 17 12  1  0
 24 20  1  0
 33 26  1  0
 28 14  1  0
  3 34  1  0
  4 35  1  0
  6 36  1  0
  7 37  1  0
  8 38  1  0
  8 39  1  0
  9 40  1  0
 13 41  1  0
 18 42  1  0
 19 43  1  0
 19 44  1  0
 20 45  1  0
 21 46  1  0
 21 47  1  0
 22 48  1  0
 22 49  1  0
 23 50  1  0
 23 51  1  0
 30 52  1  0
 31 53  1  0
 32 54  1  0
 33 55  1  0
M  END
>  <Ligand ID>  (1) 
LIG0002941

>  <Ligand>  (1) 
SMR000045315

>  <SMILES>  (1) 
Fc1ccc(cc1)CNC(=O)c1cc2c(n(c1=N)CC1CCCO1)nc1n(c2=O)cccc1

>  <CID>  (1) 
664390.0

>  <ChEMBL ID>  (1) 
nan

>  <InChiKey>  (1) 
MJJTTXVZXGEYOV-UHFFFAOYSA-N

>  <InChi>  (1) 
InChI=1S/C24H22FN5O3/c25-16-8-6-15(7-9-16)13-27-23(31)18-12-19-22(28-20-5-1-2-10-29(20)24(19)32)30(21(18)26)14-17-4-3-11-33-17/h1-2,5-10,12,17,26H,3-4,11,13-14H2,(H,27,31)

>  <IUPAC Name>  (1) 
N-[(4-fluorophenyl)methyl]-6-imino-2-oxo-7-(oxolan-2-ylmethyl)-1,7,9-triazatricyclo[8.4.0.03,8]tetradeca-3(8),4,9,11,13-pentaene-5-carboxamide

$$$$
