
     RDKit          3D

 50 52  0  0  0  0  0  0  0  0999 V2000
    7.9588   -0.2161   -0.7611 C   0  0  0  0  0  0  0  0  0  0  0  0
    7.0886   -1.1523    0.0146 C   0  0  0  0  0  0  0  0  0  0  0  0
    6.8015   -0.7236    1.4076 C   0  0  0  0  0  0  0  0  0  0  0  0
    6.0960    0.6016    1.5263 C   0  0  0  0  0  0  0  0  0  0  0  0
    4.7784    0.5960    0.8386 C   0  0  0  0  0  0  0  0  0  0  0  0
    3.6579    0.2146    1.5680 C   0  0  0  0  0  0  0  0  0  0  0  0
    2.4481    0.2159    0.9141 C   0  0  0  0  0  0  0  0  0  0  0  0
    2.3246    0.5767   -0.4113 C   0  0  0  0  0  0  0  0  0  0  0  0
    3.4133    0.9390   -1.0911 N   0  0  0  0  0  0  0  0  0  0  0  0
    4.6155    0.9503   -0.4854 C   0  0  0  0  0  0  0  0  0  0  0  0
    1.0260    0.5683   -1.0793 C   0  0  0  0  0  0  0  0  0  0  0  0
    0.7207    0.8712   -2.3000 O   0  0  0  0  0  0  0  0  0  0  0  0
   -0.5646    0.7337   -2.5102 N   0  0  0  0  0  0  0  0  0  0  0  0
   -1.1439    0.3174   -1.3687 C   0  0  0  0  0  0  0  0  0  0  0  0
   -0.1426    0.2163   -0.4782 N   0  0  0  0  0  0  0  0  0  0  0  0
   -2.5542    0.0356   -1.1426 C   0  0  0  0  0  0  0  0  0  0  0  0
   -3.4764    0.1765   -2.1293 C   0  0  0  0  0  0  0  0  0  0  0  0
   -4.8229   -0.0743   -1.9771 C   0  0  0  0  0  0  0  0  0  0  0  0
   -5.2421   -0.4966   -0.7289 C   0  0  0  0  0  0  0  0  0  0  0  0
   -4.3169   -0.6410    0.2715 C   0  0  0  0  0  0  0  0  0  0  0  0
   -2.9680   -0.3832    0.0965 C   0  0  0  0  0  0  0  0  0  0  0  0
   -2.0264   -0.5615    1.2242 C   0  0  0  0  0  0  0  0  0  0  0  0
   -6.6631   -0.8051   -0.4151 C   0  0  0  0  0  0  0  0  0  0  0  0
   -7.3731    0.4270    0.0806 C   0  0  0  0  0  0  0  0  0  0  0  0
   -8.7876    0.0158    0.3676 C   0  0  0  0  0  0  0  0  0  0  0  0
   -9.1382   -1.1811    0.1709 O   0  0  0  0  0  0  0  0  0  0  0  0
   -9.6967    0.9612    0.8478 O   0  0  0  0  0  0  0  0  0  0  0  0
    7.7821   -0.4262   -1.8554 H   0  0  0  0  0  0  0  0  0  0  0  0
    9.0428   -0.4980   -0.6212 H   0  0  0  0  0  0  0  0  0  0  0  0
    7.7843    0.8467   -0.6126 H   0  0  0  0  0  0  0  0  0  0  0  0
    6.1438   -1.4247   -0.5299 H   0  0  0  0  0  0  0  0  0  0  0  0
    7.6389   -2.1142    0.0861 H   0  0  0  0  0  0  0  0  0  0  0  0
    6.0935   -1.4801    1.8345 H   0  0  0  0  0  0  0  0  0  0  0  0
    7.6874   -0.7379    2.0399 H   0  0  0  0  0  0  0  0  0  0  0  0
    6.7130    1.4521    1.2003 H   0  0  0  0  0  0  0  0  0  0  0  0
    5.9370    0.7553    2.6221 H   0  0  0  0  0  0  0  0  0  0  0  0
    3.7471   -0.0732    2.6204 H   0  0  0  0  0  0  0  0  0  0  0  0
    1.5757   -0.0712    1.4477 H   0  0  0  0  0  0  0  0  0  0  0  0
    5.4619    1.2470   -1.0664 H   0  0  0  0  0  0  0  0  0  0  0  0
   -3.1632    0.5080   -3.1176 H   0  0  0  0  0  0  0  0  0  0  0  0
   -5.5511    0.0405   -2.7686 H   0  0  0  0  0  0  0  0  0  0  0  0
   -4.6495   -0.9760    1.2619 H   0  0  0  0  0  0  0  0  0  0  0  0
   -1.5281    0.3881    1.4592 H   0  0  0  0  0  0  0  0  0  0  0  0
   -2.5622   -0.9403    2.1049 H   0  0  0  0  0  0  0  0  0  0  0  0
   -1.2837   -1.3586    0.9459 H   0  0  0  0  0  0  0  0  0  0  0  0
   -6.7215   -1.5473    0.4145 H   0  0  0  0  0  0  0  0  0  0  0  0
   -7.1780   -1.1696   -1.3119 H   0  0  0  0  0  0  0  0  0  0  0  0
   -7.3667    1.1990   -0.7082 H   0  0  0  0  0  0  0  0  0  0  0  0
   -6.9681    0.8273    1.0141 H   0  0  0  0  0  0  0  0  0  0  0  0
  -10.6479    0.6546    1.0907 H   0  0  0  0  0  0  0  0  0  0  0  0
  1  2  1  0
  2  3  1  0
  3  4  1  0
  4  5  1  0
  5  6  2  0
  6  7  1  0
  7  8  2  0
  8  9  1  0
  9 10  2  0
  8 11  1  0
 11 12  1  0
 12 13  1  0
 13 14  2  0
 14 15  1  0
 14 16  1  0
 16 17  2  0
 17 18  1  0
 18 19  2  0
 19 20  1  0
 20 21  2  0
 21 22  1  0
 19 23  1  0
 23 24  1  0
 24 25  1  0
 25 26  2  0
 25 27  1  0
 10  5  1  0
 15 11  2  0
 21 16  1  0
  1 28  1  0
  1 29  1  0
  1 30  1  0
  2 31  1  0
  2 32  1  0
  3 33  1  0
  3 34  1  0
  4 35  1  0
  4 36  1  0
  6 37  1  0
  7 38  1  0
 10 39  1  0
 17 40  1  0
 18 41  1  0
 20 42  1  0
 22 43  1  0
 22 44  1  0
 22 45  1  0
 23 46  1  0
 23 47  1  0
 24 48  1  0
 24 49  1  0
 27 50  1  0
M  END
>  <Ligand ID>  (1) 
LIG0001868

>  <Ligand>  (1) 
CHEMBL210224

>  <SMILES>  (1) 
CCCCc1ccc(nc1)c1onc(n1)c1ccc(cc1C)CCC(=O)O

>  <CID>  (1) 
44412658.0

>  <ChEMBL ID>  (1) 
nan

>  <InChiKey>  (1) 
SEGKEJFCRFIMJL-UHFFFAOYSA-N

>  <InChi>  (1) 
InChI=1S/C21H23N3O3/c1-3-4-5-16-7-10-18(22-13-16)21-23-20(24-27-21)17-9-6-15(12-14(17)2)8-11-19(25)26/h6-7,9-10,12-13H,3-5,8,11H2,1-2H3,(H,25,26)

>  <IUPAC Name>  (1) 
3-[4-[5-(5-butylpyridin-2-yl)-1,2,4-oxadiazol-3-yl]-3-methylphenyl]propanoic acid

$$$$
