
     RDKit          3D

 58 61  0  0  0  0  0  0  0  0999 V2000
    7.6125   -2.9645    0.0809 C   0  0  0  0  0  0  0  0  0  0  0  0
    7.4296   -1.6074    0.4047 O   0  0  0  0  0  0  0  0  0  0  0  0
    6.4230   -0.8540   -0.1529 C   0  0  0  0  0  0  0  0  0  0  0  0
    5.5094   -1.3591   -1.0732 C   0  0  0  0  0  0  0  0  0  0  0  0
    4.5125   -0.5786   -1.6134 C   0  0  0  0  0  0  0  0  0  0  0  0
    4.4311    0.7511   -1.2165 C   0  0  0  0  0  0  0  0  0  0  0  0
    5.3288    1.2914   -0.2969 C   0  0  0  0  0  0  0  0  0  0  0  0
    6.3113    0.4743    0.2188 C   0  0  0  0  0  0  0  0  0  0  0  0
    7.2611    1.0199    1.1827 C   0  0  0  0  0  0  0  0  0  0  0  0
    8.1689    0.3000    1.6714 O   0  0  0  0  0  0  0  0  0  0  0  0
    7.1842    2.3441    1.5814 O   0  0  0  0  0  0  0  0  0  0  0  0
    3.4601    1.6106   -1.7081 O   0  0  0  0  0  0  0  0  0  0  0  0
    2.2572    1.6933   -1.0200 C   0  0  0  0  0  0  0  0  0  0  0  0
    2.1644    2.6498   -0.0078 C   0  0  0  0  0  0  0  0  0  0  0  0
    1.0244    2.8077    0.7247 C   0  0  0  0  0  0  0  0  0  0  0  0
   -0.0697    2.0059    0.4654 C   0  0  0  0  0  0  0  0  0  0  0  0
    0.0068    1.0610   -0.5269 C   0  0  0  0  0  0  0  0  0  0  0  0
    1.1713    0.8904   -1.2845 C   0  0  0  0  0  0  0  0  0  0  0  0
   -1.1356    0.1514   -0.8706 C   0  0  0  0  0  0  0  0  0  0  0  0
   -2.3866    0.8580   -0.3580 C   0  0  2  0  0  0  0  0  0  0  0  0
   -2.1715    1.0210    1.1314 C   0  0  0  0  0  0  0  0  0  0  0  0
   -1.2779    2.2317    1.3006 C   0  0  0  0  0  0  0  0  0  0  0  0
   -3.6016    0.1399   -0.6742 N   0  0  0  0  0  0  0  0  0  0  0  0
   -3.5734   -1.1788   -0.0780 C   0  0  0  0  0  0  0  0  0  0  0  0
   -4.8171   -1.9719   -0.3759 C   0  0  1  0  0  0  0  0  0  0  0  0
   -6.0481   -1.3583    0.1177 C   0  0  0  0  0  0  0  0  0  0  0  0
   -7.2552   -1.8363   -0.3510 C   0  0  0  0  0  0  0  0  0  0  0  0
   -8.4542   -1.2975    0.0778 C   0  0  0  0  0  0  0  0  0  0  0  0
   -8.4493   -0.2486    1.0037 C   0  0  0  0  0  0  0  0  0  0  0  0
   -7.2542    0.2141    1.4586 N   0  0  0  0  0  0  0  0  0  0  0  0
   -6.1067   -0.3223    1.0298 C   0  0  0  0  0  0  0  0  0  0  0  0
   -9.9637    0.4599    1.5701 Cl  0  0  0  0  0  0  0  0  0  0  0  0
   -4.9325   -2.1162   -1.7658 O   0  0  0  0  0  0  0  0  0  0  0  0
    7.4521   -3.1155   -1.0055 H   0  0  0  0  0  0  0  0  0  0  0  0
    8.6747   -3.2792    0.2653 H   0  0  0  0  0  0  0  0  0  0  0  0
    6.8936   -3.6154    0.6225 H   0  0  0  0  0  0  0  0  0  0  0  0
    5.5788   -2.3943   -1.3772 H   0  0  0  0  0  0  0  0  0  0  0  0
    3.7966   -0.9438   -2.3238 H   0  0  0  0  0  0  0  0  0  0  0  0
    5.2878    2.3166    0.0269 H   0  0  0  0  0  0  0  0  0  0  0  0
    8.0054    2.8733    1.8566 H   0  0  0  0  0  0  0  0  0  0  0  0
    3.0063    3.3039    0.2292 H   0  0  0  0  0  0  0  0  0  0  0  0
    0.9843    3.5557    1.4998 H   0  0  0  0  0  0  0  0  0  0  0  0
    1.2372    0.1452   -2.0698 H   0  0  0  0  0  0  0  0  0  0  0  0
   -1.1524   -0.0412   -1.9454 H   0  0  0  0  0  0  0  0  0  0  0  0
   -0.9454   -0.7815   -0.2686 H   0  0  0  0  0  0  0  0  0  0  0  0
   -2.3887    1.8438   -0.8551 H   0  0  0  0  0  0  0  0  0  0  0  0
   -1.5912    0.1609    1.5134 H   0  0  0  0  0  0  0  0  0  0  0  0
   -3.1010    1.2325    1.6937 H   0  0  0  0  0  0  0  0  0  0  0  0
   -1.0073    2.3965    2.3620 H   0  0  0  0  0  0  0  0  0  0  0  0
   -1.8098    3.0995    0.8730 H   0  0  0  0  0  0  0  0  0  0  0  0
   -3.6681    0.0783   -1.6977 H   0  0  0  0  0  0  0  0  0  0  0  0
   -2.7298   -1.7318   -0.5406 H   0  0  0  0  0  0  0  0  0  0  0  0
   -3.4088   -1.1589    1.0021 H   0  0  0  0  0  0  0  0  0  0  0  0
   -4.6845   -2.9866    0.0483 H   0  0  0  0  0  0  0  0  0  0  0  0
   -7.2872   -2.6531   -1.0731 H   0  0  0  0  0  0  0  0  0  0  0  0
   -9.4179   -1.6288   -0.2521 H   0  0  0  0  0  0  0  0  0  0  0  0
   -5.1723    0.0565    1.4004 H   0  0  0  0  0  0  0  0  0  0  0  0
   -5.3119   -3.0145   -1.9827 H   0  0  0  0  0  0  0  0  0  0  0  0
  1  2  1  0
  2  3  1  0
  3  4  2  0
  4  5  1  0
  5  6  2  0
  6  7  1  0
  7  8  2  0
  8  9  1  0
  9 10  2  0
  9 11  1  0
  6 12  1  0
 12 13  1  0
 13 14  2  0
 14 15  1  0
 15 16  2  0
 16 17  1  0
 17 18  2  0
 17 19  1  0
 19 20  1  0
 20 21  1  0
 21 22  1  0
 20 23  1  0
 23 24  1  0
 24 25  1  0
 25 26  1  0
 26 27  2  0
 27 28  1  0
 28 29  2  0
 29 30  1  0
 30 31  2  0
 29 32  1  0
 25 33  1  0
  8  3  1  0
 18 13  1  0
 31 26  1  0
 22 16  1  0
  1 34  1  0
  1 35  1  0
  1 36  1  0
  4 37  1  0
  5 38  1  0
  7 39  1  0
 11 40  1  0
 14 41  1  0
 15 42  1  0
 18 43  1  0
 19 44  1  0
 19 45  1  0
 20 46  1  6
 21 47  1  0
 21 48  1  0
 22 49  1  0
 22 50  1  0
 23 51  1  0
 24 52  1  0
 24 53  1  0
 25 54  1  1
 27 55  1  0
 28 56  1  0
 31 57  1  0
 33 58  1  0
M  END
>  <Ligand ID>  (1) 
LIG0001995

>  <Ligand>  (1) 
CHEMBL503209

>  <SMILES>  (1) 
COc1ccc(cc1C(=O)O)Oc1ccc2c(c1)C[C@H](CC2)NC[C@@H](c1ccc(nc1)Cl)O

>  <CID>  (1) 
24950242.0

>  <ChEMBL ID>  (1) 
nan

>  <InChiKey>  (1) 
MVBZNYMDBPDLIU-AVRDEDQJSA-N

>  <InChi>  (1) 
InChI=1S/C25H25ClN2O5/c1-32-23-8-7-20(12-21(23)25(30)31)33-19-6-3-15-2-5-18(10-17(15)11-19)27-14-22(29)16-4-9-24(26)28-13-16/h3-4,6-9,11-13,18,22,27,29H,2,5,10,14H2,1H3,(H,30,31)/t18-,22-/m0/s1

>  <IUPAC Name>  (1) 
5-[[(7S)-7-[[(2R)-2-(6-chloropyridin-3-yl)-2-hydroxyethyl]amino]-5,6,7,8-tetrahydronaphthalen-2-yl]oxy]-2-methoxybenzoic acid

$$$$
