
     RDKit          3D

 54 56  0  0  0  0  0  0  0  0999 V2000
    0.1167   -3.5231    0.2697 O   0  0  0  0  0  0  0  0  0  0  0  0
   -0.9598   -2.6885    0.0222 C   0  0  2  0  0  0  0  0  0  0  0  0
   -1.9122   -3.2913   -1.0210 C   0  0  2  0  0  0  0  0  0  0  0  0
   -1.1323   -3.7868   -2.0791 O   0  0  0  0  0  0  0  0  0  0  0  0
   -2.5898   -2.0209   -1.4879 C   0  0  2  0  0  0  0  0  0  0  0  0
   -1.7696   -0.9687   -1.1930 O   0  0  0  0  0  0  0  0  0  0  0  0
   -0.5641   -1.4504   -0.7574 C   0  0  1  0  0  0  0  0  0  0  0  0
    0.1811   -0.5173    0.0477 N   0  0  0  0  0  0  0  0  0  0  0  0
   -0.5451    0.3587    0.7914 C   0  0  0  0  0  0  0  0  0  0  0  0
    0.0462    1.3032    1.6048 C   0  0  0  0  0  0  0  0  0  0  0  0
    1.4271    1.3211    1.6319 C   0  0  0  0  0  0  0  0  0  0  0  0
    2.0113    2.1673    2.3612 O   0  0  0  0  0  0  0  0  0  0  0  0
    2.1259    0.4284    0.8737 N   0  0  0  0  0  0  0  0  0  0  0  0
    1.5262   -0.4728    0.0972 C   0  0  0  0  0  0  0  0  0  0  0  0
    2.1905   -1.2873   -0.5944 O   0  0  0  0  0  0  0  0  0  0  0  0
    3.5703    0.5227    0.9666 C   0  0  0  0  0  0  0  0  0  0  0  0
    4.1262    1.4559   -0.0467 C   0  0  0  0  0  0  0  0  0  0  0  0
    3.4177    2.0810   -0.8778 O   0  0  0  0  0  0  0  0  0  0  0  0
    5.5707    1.6543   -0.0752 C   0  0  0  0  0  0  0  0  0  0  0  0
    6.1048    2.5141   -1.0060 C   0  0  0  0  0  0  0  0  0  0  0  0
    7.4687    2.7553   -1.0960 C   0  0  0  0  0  0  0  0  0  0  0  0
    8.2895    2.0914   -0.2036 C   0  0  0  0  0  0  0  0  0  0  0  0
    7.7688    1.2263    0.7352 C   0  0  0  0  0  0  0  0  0  0  0  0
    6.4152    1.0068    0.8012 C   0  0  0  0  0  0  0  0  0  0  0  0
   -3.9112   -1.9553   -0.7350 C   0  0  0  0  0  0  0  0  0  0  0  0
   -4.6004   -0.7694   -1.0668 O   0  0  0  0  0  0  0  0  0  0  0  0
   -6.0482   -0.7565   -0.2055 P   0  0  0  0  0  0  0  0  0  0  0  0
   -6.7887   -2.0432   -0.4692 O   0  0  0  0  0  0  0  0  0  0  0  0
   -6.9674    0.5615   -0.6791 O   0  0  0  0  0  0  0  0  0  0  0  0
   -6.8513    1.7667    0.4979 P   0  0  0  0  0  0  0  0  0  0  0  0
   -7.2078    1.2469    1.8677 O   0  0  0  0  0  0  0  0  0  0  0  0
   -5.2554    2.3203    0.5530 O   0  0  0  0  0  0  0  0  0  0  0  0
   -7.9257    3.0136    0.0381 O   0  0  0  0  0  0  0  0  0  0  0  0
   -5.7635   -0.6528    1.4624 O   0  0  0  0  0  0  0  0  0  0  0  0
    0.0789   -3.7466    1.2424 H   0  0  0  0  0  0  0  0  0  0  0  0
   -1.5862   -2.4688    0.8900 H   0  0  0  0  0  0  0  0  0  0  0  0
   -2.5879   -4.0334   -0.5886 H   0  0  0  0  0  0  0  0  0  0  0  0
   -1.2628   -3.2532   -2.9170 H   0  0  0  0  0  0  0  0  0  0  0  0
   -2.7749   -2.0558   -2.5813 H   0  0  0  0  0  0  0  0  0  0  0  0
    0.0299   -1.8147   -1.6261 H   0  0  0  0  0  0  0  0  0  0  0  0
   -1.6337    0.3389    0.7652 H   0  0  0  0  0  0  0  0  0  0  0  0
   -0.5568    1.9952    2.1921 H   0  0  0  0  0  0  0  0  0  0  0  0
    4.0377   -0.4880    0.7876 H   0  0  0  0  0  0  0  0  0  0  0  0
    3.8733    0.7847    1.9954 H   0  0  0  0  0  0  0  0  0  0  0  0
    5.4583    3.0180   -1.6867 H   0  0  0  0  0  0  0  0  0  0  0  0
    7.8957    3.4292   -1.8243 H   0  0  0  0  0  0  0  0  0  0  0  0
    9.3628    2.2183   -0.2008 H   0  0  0  0  0  0  0  0  0  0  0  0
    8.3841    0.6858    1.4543 H   0  0  0  0  0  0  0  0  0  0  0  0
    5.9869    0.3303    1.5323 H   0  0  0  0  0  0  0  0  0  0  0  0
   -3.7096   -2.0329    0.3490 H   0  0  0  0  0  0  0  0  0  0  0  0
   -4.5917   -2.7698   -1.0365 H   0  0  0  0  0  0  0  0  0  0  0  0
   -5.2681    3.2443    0.1997 H   0  0  0  0  0  0  0  0  0  0  0  0
   -7.7902    3.1611   -0.9310 H   0  0  0  0  0  0  0  0  0  0  0  0
   -4.9102   -0.1540    1.6494 H   0  0  0  0  0  0  0  0  0  0  0  0
  1  2  1  0
  2  3  1  0
  3  4  1  0
  3  5  1  0
  5  6  1  0
  6  7  1  0
  7  8  1  0
  8  9  1  0
  9 10  2  0
 10 11  1  0
 11 12  2  0
 11 13  1  0
 13 14  1  0
 14 15  2  0
 13 16  1  0
 16 17  1  0
 17 18  2  0
 17 19  1  0
 19 20  2  0
 20 21  1  0
 21 22  2  0
 22 23  1  0
 23 24  2  0
  5 25  1  0
 25 26  1  0
 26 27  1  0
 27 28  2  0
 27 29  1  0
 29 30  1  0
 30 31  2  0
 30 32  1  0
 30 33  1  0
 27 34  1  0
  7  2  1  0
 14  8  1  0
 24 19  1  0
  1 35  1  0
  2 36  1  1
  3 37  1  1
  4 38  1  0
  5 39  1  6
  7 40  1  6
  9 41  1  0
 10 42  1  0
 16 43  1  0
 16 44  1  0
 20 45  1  0
 21 46  1  0
 22 47  1  0
 23 48  1  0
 24 49  1  0
 25 50  1  0
 25 51  1  0
 32 52  1  0
 33 53  1  0
 34 54  1  0
M  END
>  <Ligand ID>  (1) 
LIG0002600

>  <Ligand>  (1) 
3-phenacyl-UDP

>  <SMILES>  (1) 
O[C@@H]1[C@H](O)[C@H](O[C@H]1n1ccc(=O)n(c1=O)CC(=O)c1ccccc1)COP(=O)(OP(=O)(O)O)O

>  <CID>  (1) 
11994011.0

>  <ChEMBL ID>  (1) 
nan

>  <InChiKey>  (1) 
SEUHNFHNNANEAJ-DTZQCDIJSA-N

>  <InChi>  (1) 
InChI=1S/C17H20N2O13P2/c20-11(10-4-2-1-3-5-10)8-19-13(21)6-7-18(17(19)24)16-15(23)14(22)12(31-16)9-30-34(28,29)32-33(25,26)27/h1-7,12,14-16,22-23H,8-9H2,(H,28,29)(H2,25,26,27)/t12-,14-,15-,16-/m1/s1

>  <IUPAC Name>  (1) 
[(2R,3S,4R,5R)-5-(2,4-dioxo-3-phenacylpyrimidin-1-yl)-3,4-dihydroxyoxolan-2-yl]methyl phosphono hydrogen phosphate

$$$$
