
     RDKit          3D

 26 26  0  0  0  0  0  0  0  0999 V2000
    3.1820    1.7073   -1.5102 O   0  0  0  0  0  0  0  0  0  0  0  0
    1.9967    1.3927   -0.8730 C   0  0  0  0  0  0  0  0  0  0  0  0
    0.9626    2.0663   -1.1047 O   0  0  0  0  0  0  0  0  0  0  0  0
    1.9812    0.2394    0.0902 C   0  0  0  0  0  0  0  0  0  0  0  0
    0.6153    0.0510    0.6799 C   0  0  1  0  0  0  0  0  0  0  0  0
   -0.4997   -0.2290   -0.2516 C   0  0  1  0  0  0  0  0  0  0  0  0
    0.0438   -1.3143    0.6576 C   0  0  1  0  0  0  0  0  0  0  0  0
    0.6323   -2.4435   -0.0907 C   0  0  0  0  0  0  0  0  0  0  0  0
    1.2304   -2.3531   -1.1882 O   0  0  0  0  0  0  0  0  0  0  0  0
    0.5286   -3.7310    0.4458 O   0  0  0  0  0  0  0  0  0  0  0  0
   -1.9152    0.1844    0.0880 C   0  0  1  0  0  0  0  0  0  0  0  0
   -2.0438    1.6469    0.2781 C   0  0  0  0  0  0  0  0  0  0  0  0
   -2.7805    2.3695   -0.4453 O   0  0  0  0  0  0  0  0  0  0  0  0
   -1.3133    2.2487    1.3076 O   0  0  0  0  0  0  0  0  0  0  0  0
   -2.7518   -0.2229   -1.0247 N   0  0  0  0  0  0  0  0  0  0  0  0
    3.3366    2.5791   -2.0028 H   0  0  0  0  0  0  0  0  0  0  0  0
    2.6780    0.5567    0.9134 H   0  0  0  0  0  0  0  0  0  0  0  0
    2.4279   -0.6193   -0.3955 H   0  0  0  0  0  0  0  0  0  0  0  0
    0.4360    0.7096    1.5621 H   0  0  0  0  0  0  0  0  0  0  0  0
   -0.2744   -0.2544   -1.3184 H   0  0  0  0  0  0  0  0  0  0  0  0
   -0.5052   -1.5722    1.5997 H   0  0  0  0  0  0  0  0  0  0  0  0
    1.2020   -4.4356    0.1450 H   0  0  0  0  0  0  0  0  0  0  0  0
   -2.3047   -0.3393    0.9930 H   0  0  0  0  0  0  0  0  0  0  0  0
   -1.6291    3.1650    1.5942 H   0  0  0  0  0  0  0  0  0  0  0  0
   -2.1749   -0.1900   -1.8967 H   0  0  0  0  0  0  0  0  0  0  0  0
   -3.0609   -1.2122   -0.9084 H   0  0  0  0  0  0  0  0  0  0  0  0
  1  2  1  0
  2  3  2  0
  2  4  1  0
  4  5  1  0
  5  6  1  0
  6  7  1  0
  7  8  1  0
  8  9  2  0
  8 10  1  0
  6 11  1  0
 11 12  1  0
 12 13  2  0
 12 14  1  0
 11 15  1  0
  7  5  1  0
  1 16  1  0
  4 17  1  0
  4 18  1  0
  5 19  1  1
  6 20  1  6
  7 21  1  1
 10 22  1  0
 11 23  1  1
 14 24  1  0
 15 25  1  0
 15 26  1  0
M  END
>  <Ligand ID>  (1) 
LIG0001081

>  <Ligand>  (1) 
CHEMBL143267

>  <SMILES>  (1) 
OC(=O)C[C@H]1[C@@H]([C@H]1C(=O)O)[C@@H](C(=O)O)N

>  <CID>  (1) 
44361316.0

>  <ChEMBL ID>  (1) 
nan

>  <InChiKey>  (1) 
PQFJICGWSAKMIG-RARCZQNLSA-N

>  <InChi>  (1) 
InChI=1S/C8H11NO6/c9-6(8(14)15)4-2(1-3(10)11)5(4)7(12)13/h2,4-6H,1,9H2,(H,10,11)(H,12,13)(H,14,15)/t2-,4-,5-,6-/m0/s1

>  <IUPAC Name>  (1) 
(1S,2S,3S)-2-[(S)-amino(carboxy)methyl]-3-(carboxymethyl)cyclopropane-1-carboxylic acid

$$$$
