
     RDKit          3D

 33 35  0  0  0  0  0  0  0  0999 V2000
    4.3725    0.2537    0.8678 C   0  0  0  0  0  0  0  0  0  0  0  0
    3.7193    0.1549   -0.4901 C   0  0  0  0  0  0  0  0  0  0  0  0
    2.3213    0.3777   -0.1808 N   0  0  0  0  0  0  0  0  0  0  0  0
    2.1627    0.9419    0.9662 C   0  0  0  0  0  0  0  0  0  0  0  0
    3.4643    1.1572    1.5507 N   0  0  0  0  0  0  0  0  0  0  0  0
    0.9234    1.3624    1.6683 C   0  0  0  0  0  0  0  0  0  0  0  0
   -0.2524    0.9743    1.0018 O   0  0  0  0  0  0  0  0  0  0  0  0
   -0.5452   -0.3502    0.8025 C   0  0  0  0  0  0  0  0  0  0  0  0
    0.2799   -1.3623    1.2540 C   0  0  0  0  0  0  0  0  0  0  0  0
    0.0114   -2.7015    1.0700 C   0  0  0  0  0  0  0  0  0  0  0  0
   -1.1327   -3.0408    0.4057 C   0  0  0  0  0  0  0  0  0  0  0  0
   -1.9626   -2.0425   -0.0483 C   0  0  0  0  0  0  0  0  0  0  0  0
   -1.6843   -0.6872    0.1415 C   0  0  0  0  0  0  0  0  0  0  0  0
   -2.6538    0.2704   -0.3934 C   0  0  0  0  0  0  0  0  0  0  0  0
   -2.6239    1.6422   -0.3459 C   0  0  0  0  0  0  0  0  0  0  0  0
   -3.7461    2.1772   -0.9778 C   0  0  0  0  0  0  0  0  0  0  0  0
   -4.4539    1.0772   -1.4082 C   0  0  0  0  0  0  0  0  0  0  0  0
   -3.7947   -0.0373   -1.0548 N   0  0  0  0  0  0  0  0  0  0  0  0
    5.3985    0.6739    0.8223 H   0  0  0  0  0  0  0  0  0  0  0  0
    4.3425   -0.7643    1.3221 H   0  0  0  0  0  0  0  0  0  0  0  0
    3.8553   -0.8867   -0.8875 H   0  0  0  0  0  0  0  0  0  0  0  0
    4.1320    0.9074   -1.2006 H   0  0  0  0  0  0  0  0  0  0  0  0
    3.7251    1.8237    2.3131 H   0  0  0  0  0  0  0  0  0  0  0  0
    0.9858    2.4677    1.7732 H   0  0  0  0  0  0  0  0  0  0  0  0
    0.9122    0.9914    2.7357 H   0  0  0  0  0  0  0  0  0  0  0  0
    1.2089   -1.1516    1.8064 H   0  0  0  0  0  0  0  0  0  0  0  0
    0.6986   -3.4699    1.4471 H   0  0  0  0  0  0  0  0  0  0  0  0
   -1.3783   -4.0716    0.2416 H   0  0  0  0  0  0  0  0  0  0  0  0
   -2.8591   -2.3657   -0.5698 H   0  0  0  0  0  0  0  0  0  0  0  0
   -1.8812    2.2853    0.0945 H   0  0  0  0  0  0  0  0  0  0  0  0
   -3.9820    3.2372   -1.0896 H   0  0  0  0  0  0  0  0  0  0  0  0
   -5.3971    1.1463   -1.9478 H   0  0  0  0  0  0  0  0  0  0  0  0
   -4.1664   -0.9903   -1.2891 H   0  0  0  0  0  0  0  0  0  0  0  0
  1  2  1  0
  2  3  1  0
  3  4  2  0
  4  5  1  0
  4  6  1  0
  6  7  1  0
  7  8  1  0
  8  9  2  0
  9 10  1  0
 10 11  2  0
 11 12  1  0
 12 13  2  0
 13 14  1  0
 14 15  2  0
 15 16  1  0
 16 17  2  0
 17 18  1  0
  5  1  1  0
 13  8  1  0
 18 14  1  0
  1 19  1  0
  1 20  1  0
  2 21  1  0
  2 22  1  0
  5 23  1  0
  6 24  1  0
  6 25  1  0
  9 26  1  0
 10 27  1  0
 11 28  1  0
 12 29  1  0
 15 30  1  0
 16 31  1  0
 17 32  1  0
 18 33  1  0
M  END
>  <Ligand ID>  (1) 
LIG0003190

>  <Ligand>  (1) 
CHEMBL357129

>  <SMILES>  (1) 
C1CN=C(N1)COc1ccccc1c1ccc[nH]1

>  <CID>  (1) 
44362195.0

>  <ChEMBL ID>  (1) 
nan

>  <InChiKey>  (1) 
QLXHLSBDLHEIEV-UHFFFAOYSA-N

>  <InChi>  (1) 
InChI=1S/C14H15N3O/c1-2-6-13(18-10-14-16-8-9-17-14)11(4-1)12-5-3-7-15-12/h1-7,15H,8-10H2,(H,16,17)

>  <IUPAC Name>  (1) 
2-[[2-(1H-pyrrol-2-yl)phenoxy]methyl]-4,5-dihydro-1H-imidazole

$$$$
