
     RDKit          3D

 58 62  0  0  0  0  0  0  0  0999 V2000
    4.6134    5.8800    0.3452 C   0  0  0  0  0  0  0  0  0  0  0  0
    5.0742    4.5705    0.4843 O   0  0  0  0  0  0  0  0  0  0  0  0
    4.1793    3.5057    0.4162 C   0  0  0  0  0  0  0  0  0  0  0  0
    2.8207    3.6855    0.2122 C   0  0  0  0  0  0  0  0  0  0  0  0
    1.9275    2.6624    0.1419 C   0  0  0  0  0  0  0  0  0  0  0  0
    2.3479    1.3782    0.2736 C   0  0  0  0  0  0  0  0  0  0  0  0
    3.7114    1.1585    0.4807 C   0  0  0  0  0  0  0  0  0  0  0  0
    4.6097    2.2009    0.5507 C   0  0  0  0  0  0  0  0  0  0  0  0
    4.1247   -0.1184    0.6132 N   0  0  0  0  0  0  0  0  0  0  0  0
    3.2396   -1.1546    0.5467 C   0  0  0  0  0  0  0  0  0  0  0  0
    1.9343   -0.9216    0.3469 N   0  0  0  0  0  0  0  0  0  0  0  0
    1.4462    0.3452    0.2042 C   0  0  0  0  0  0  0  0  0  0  0  0
    0.0577    0.4901   -0.0098 N   0  0  0  0  0  0  0  0  0  0  0  0
   -0.5295    1.0609   -1.2122 C   0  0  0  0  0  0  0  0  0  0  0  0
   -1.5145    0.0580   -1.8199 C   0  0  0  0  0  0  0  0  0  0  0  0
   -2.4238   -0.4199   -0.7635 N   0  0  0  0  0  0  0  0  0  0  0  0
   -1.7734   -1.0392    0.3666 C   0  0  0  0  0  0  0  0  0  0  0  0
   -0.8774    0.0446    1.0032 C   0  0  0  0  0  0  0  0  0  0  0  0
   -3.8075   -0.2135   -0.9216 C   0  0  0  0  0  0  0  0  0  0  0  0
   -4.2399    0.8514   -1.7027 C   0  0  0  0  0  0  0  0  0  0  0  0
   -5.5998    1.1290   -1.8725 C   0  0  0  0  0  0  0  0  0  0  0  0
   -6.5769    0.3635   -1.2757 C   0  0  0  0  0  0  0  0  0  0  0  0
   -6.1531   -0.6921   -0.5013 C   0  0  0  0  0  0  0  0  0  0  0  0
   -4.7946   -0.9704   -0.3315 C   0  0  0  0  0  0  0  0  0  0  0  0
   -4.4808   -2.0469    0.4575 O   0  0  0  0  0  0  0  0  0  0  0  0
   -5.4603   -2.8296    1.0664 C   0  0  0  0  0  0  0  0  0  0  0  0
    3.6898   -2.5466    0.6911 C   0  0  0  0  0  0  0  0  0  0  0  0
    3.2774   -3.4930   -0.4294 C   0  0  0  0  0  0  0  0  0  0  0  0
    3.2440   -4.5765    0.6572 C   0  0  0  0  0  0  0  0  0  0  0  0
    2.8969   -3.4321    1.6188 C   0  0  0  0  0  0  0  0  0  0  0  0
    4.0177    5.9300   -0.6003 H   0  0  0  0  0  0  0  0  0  0  0  0
    4.0012    6.1292    1.2310 H   0  0  0  0  0  0  0  0  0  0  0  0
    5.5006    6.5489    0.2148 H   0  0  0  0  0  0  0  0  0  0  0  0
    2.4491    4.7112    0.1019 H   0  0  0  0  0  0  0  0  0  0  0  0
    0.8988    2.8649   -0.0137 H   0  0  0  0  0  0  0  0  0  0  0  0
    5.6693    1.9676    0.7151 H   0  0  0  0  0  0  0  0  0  0  0  0
    0.2168    1.2726   -1.9970 H   0  0  0  0  0  0  0  0  0  0  0  0
   -1.0798    1.9696   -0.9225 H   0  0  0  0  0  0  0  0  0  0  0  0
   -1.9922    0.4691   -2.6837 H   0  0  0  0  0  0  0  0  0  0  0  0
   -0.9272   -0.8644   -2.0952 H   0  0  0  0  0  0  0  0  0  0  0  0
   -1.1430   -1.9104    0.0531 H   0  0  0  0  0  0  0  0  0  0  0  0
   -2.5022   -1.3671    1.1258 H   0  0  0  0  0  0  0  0  0  0  0  0
   -0.3973   -0.4021    1.8747 H   0  0  0  0  0  0  0  0  0  0  0  0
   -1.5698    0.8847    1.2261 H   0  0  0  0  0  0  0  0  0  0  0  0
   -3.5775    1.5271   -2.2142 H   0  0  0  0  0  0  0  0  0  0  0  0
   -5.9240    1.9640   -2.4858 H   0  0  0  0  0  0  0  0  0  0  0  0
   -7.6355    0.5397   -1.3779 H   0  0  0  0  0  0  0  0  0  0  0  0
   -6.8898   -1.2995   -0.0285 H   0  0  0  0  0  0  0  0  0  0  0  0
   -6.2138   -3.1924    0.3166 H   0  0  0  0  0  0  0  0  0  0  0  0
   -5.9699   -2.2419    1.8606 H   0  0  0  0  0  0  0  0  0  0  0  0
   -5.0470   -3.7203    1.5801 H   0  0  0  0  0  0  0  0  0  0  0  0
    4.7844   -2.6717    0.8563 H   0  0  0  0  0  0  0  0  0  0  0  0
    4.1094   -3.6768   -1.1543 H   0  0  0  0  0  0  0  0  0  0  0  0
    2.2774   -3.3482   -0.8466 H   0  0  0  0  0  0  0  0  0  0  0  0
    2.4813   -5.3448    0.5354 H   0  0  0  0  0  0  0  0  0  0  0  0
    4.2898   -4.9259    0.8670 H   0  0  0  0  0  0  0  0  0  0  0  0
    3.3911   -3.4829    2.5986 H   0  0  0  0  0  0  0  0  0  0  0  0
    1.8189   -3.2604    1.6263 H   0  0  0  0  0  0  0  0  0  0  0  0
  1  2  1  0
  2  3  1  0
  3  4  2  0
  4  5  1  0
  5  6  2  0
  6  7  1  0
  7  8  2  0
  7  9  1  0
  9 10  2  0
 10 11  1  0
 11 12  2  0
 12 13  1  0
 13 14  1  0
 14 15  1  0
 15 16  1  0
 16 17  1  0
 17 18  1  0
 16 19  1  0
 19 20  2  0
 20 21  1  0
 21 22  2  0
 22 23  1  0
 23 24  2  0
 24 25  1  0
 25 26  1  0
 10 27  1  0
 27 28  1  0
 28 29  1  0
 29 30  1  0
  8  3  1  0
 18 13  1  0
 24 19  1  0
 30 27  1  0
 12  6  1  0
  1 31  1  0
  1 32  1  0
  1 33  1  0
  4 34  1  0
  5 35  1  0
  8 36  1  0
 14 37  1  0
 14 38  1  0
 15 39  1  0
 15 40  1  0
 17 41  1  0
 17 42  1  0
 18 43  1  0
 18 44  1  0
 20 45  1  0
 21 46  1  0
 22 47  1  0
 23 48  1  0
 26 49  1  0
 26 50  1  0
 26 51  1  0
 27 52  1  0
 28 53  1  0
 28 54  1  0
 29 55  1  0
 29 56  1  0
 30 57  1  0
 30 58  1  0
M  END
>  <Ligand ID>  (1) 
LIG0004884

>  <Ligand>  (1) 
CHEMBL2431126

>  <SMILES>  (1) 
COc1ccc2c(c1)nc(nc2N1CCN(CC1)c1ccccc1OC)C1CCC1

>  <CID>  (1) 
53245542.0

>  <ChEMBL ID>  (1) 
nan

>  <InChiKey>  (1) 
RLNMVERRIAKFHG-UHFFFAOYSA-N

>  <InChi>  (1) 
InChI=1S/C24H28N4O2/c1-29-18-10-11-19-20(16-18)25-23(17-6-5-7-17)26-24(19)28-14-12-27(13-15-28)21-8-3-4-9-22(21)30-2/h3-4,8-11,16-17H,5-7,12-15H2,1-2H3

>  <IUPAC Name>  (1) 
2-cyclobutyl-7-methoxy-4-[4-(2-methoxyphenyl)piperazin-1-yl]quinazoline

$$$$
