
     RDKit          3D

 29 30  0  0  0  0  0  0  0  0999 V2000
    3.2188   -0.5169    0.2519 C   0  0  0  0  0  0  0  0  0  0  0  0
    2.4379    0.2748   -0.7431 C   0  0  1  0  0  0  0  0  0  0  0  0
    1.1742   -0.3477   -1.2302 C   0  0  0  0  0  0  0  0  0  0  0  0
    0.1862   -0.6190   -0.2188 N   0  0  0  0  0  0  0  0  0  0  0  0
    0.1466   -1.5363    0.8739 C   0  0  0  0  0  0  0  0  0  0  0  0
   -1.3373   -1.8211    1.1504 C   0  0  0  0  0  0  0  0  0  0  0  0
   -1.9582   -0.5879    0.6087 C   0  0  0  0  0  0  0  0  0  0  0  0
   -1.0730    0.0889   -0.1678 C   0  0  0  0  0  0  0  0  0  0  0  0
   -1.4666    1.2853   -0.7732 C   0  0  0  0  0  0  0  0  0  0  0  0
   -2.7327    1.7889   -0.5975 C   0  0  0  0  0  0  0  0  0  0  0  0
   -3.1914    3.2988   -1.3785 Cl  0  0  0  0  0  0  0  0  0  0  0  0
   -3.6097    1.0909    0.1892 C   0  0  0  0  0  0  0  0  0  0  0  0
   -3.2315   -0.1063    0.8013 C   0  0  0  0  0  0  0  0  0  0  0  0
   -4.8884    1.5515    0.3965 F   0  0  0  0  0  0  0  0  0  0  0  0
    2.1846    1.6079   -0.1968 N   0  0  0  0  0  0  0  0  0  0  0  0
    4.0730   -1.0600   -0.2458 H   0  0  0  0  0  0  0  0  0  0  0  0
    2.6671   -1.2436    0.8394 H   0  0  0  0  0  0  0  0  0  0  0  0
    3.7337    0.2077    0.9438 H   0  0  0  0  0  0  0  0  0  0  0  0
    3.0795    0.4381   -1.6459 H   0  0  0  0  0  0  0  0  0  0  0  0
    1.4461   -1.2652   -1.8014 H   0  0  0  0  0  0  0  0  0  0  0  0
    0.7783    0.3459   -2.0166 H   0  0  0  0  0  0  0  0  0  0  0  0
    0.5087   -1.0779    1.8404 H   0  0  0  0  0  0  0  0  0  0  0  0
    0.6438   -2.5053    0.7090 H   0  0  0  0  0  0  0  0  0  0  0  0
   -1.5393   -1.9243    2.2389 H   0  0  0  0  0  0  0  0  0  0  0  0
   -1.6901   -2.7238    0.6234 H   0  0  0  0  0  0  0  0  0  0  0  0
   -0.7909    1.8466   -1.3946 H   0  0  0  0  0  0  0  0  0  0  0  0
   -3.9664   -0.6359    1.4222 H   0  0  0  0  0  0  0  0  0  0  0  0
    2.9708    1.8047    0.4621 H   0  0  0  0  0  0  0  0  0  0  0  0
    2.2263    2.3415   -0.9408 H   0  0  0  0  0  0  0  0  0  0  0  0
  1  2  1  0
  2  3  1  0
  3  4  1  0
  4  5  1  0
  5  6  1  0
  6  7  1  0
  7  8  2  0
  8  9  1  0
  9 10  2  0
 10 11  1  0
 10 12  1  0
 12 13  2  0
 12 14  1  0
  2 15  1  0
  8  4  1  0
 13  7  1  0
  1 16  1  0
  1 17  1  0
  1 18  1  0
  2 19  1  6
  3 20  1  0
  3 21  1  0
  5 22  1  0
  5 23  1  0
  6 24  1  0
  6 25  1  0
  9 26  1  0
 13 27  1  0
 15 28  1  0
 15 29  1  0
M  END
>  <Ligand ID>  (1) 
LIG0002162

>  <Ligand>  (1) 
CHEMBL80366

>  <SMILES>  (1) 
C[C@@H](CN1CCc2c1cc(Cl)c(c2)F)N

>  <CID>  (1) 
44316017.0

>  <ChEMBL ID>  (1) 
nan

>  <InChiKey>  (1) 
OKTLNQVSINRJKA-ZETCQYMHSA-N

>  <InChi>  (1) 
InChI=1S/C11H14ClFN2/c1-7(14)6-15-3-2-8-4-10(13)9(12)5-11(8)15/h4-5,7H,2-3,6,14H2,1H3/t7-/m0/s1

>  <IUPAC Name>  (1) 
(2S)-1-(6-chloro-5-fluoro-2,3-dihydroindol-1-yl)propan-2-amine

$$$$
