
     RDKit          3D

 39 40  0  0  0  0  0  0  0  0999 V2000
   -1.2951   -0.0121    2.1959 C   0  0  0  0  0  0  0  0  0  0  0  0
   -0.8538   -0.6023    0.9846 N   0  0  0  0  0  0  0  0  0  0  0  0
   -1.0269    0.0677   -0.2329 C   0  0  0  0  0  0  0  0  0  0  0  0
   -2.4289    0.2440   -0.7134 C   0  0  0  0  0  0  0  0  0  0  0  0
   -3.4441    0.7397    0.0697 C   0  0  0  0  0  0  0  0  0  0  0  0
   -4.7494    0.8925   -0.3956 C   0  0  0  0  0  0  0  0  0  0  0  0
   -5.0800    0.5455   -1.6862 C   0  0  0  0  0  0  0  0  0  0  0  0
   -4.0801    0.0467   -2.4906 C   0  0  0  0  0  0  0  0  0  0  0  0
   -2.7958   -0.1007   -2.0234 C   0  0  0  0  0  0  0  0  0  0  0  0
   -0.1862    1.2647   -0.4938 C   0  0  0  0  0  0  0  0  0  0  0  0
    1.2070    0.9585   -0.5656 N   0  0  0  0  0  0  0  0  0  0  0  0
    2.0665    0.4203    0.3828 C   0  0  0  0  0  0  0  0  0  0  0  0
    1.6769    0.1182    1.5180 O   0  0  0  0  0  0  0  0  0  0  0  0
    3.4977    0.1705    0.1089 C   0  0  0  0  0  0  0  0  0  0  0  0
    4.0851    0.4483   -1.0969 C   0  0  0  0  0  0  0  0  0  0  0  0
    5.4073    0.1984   -1.2945 N   0  0  0  0  0  0  0  0  0  0  0  0
    6.2118   -0.3186   -0.3658 C   0  0  0  0  0  0  0  0  0  0  0  0
    5.6647   -0.6165    0.8697 C   0  0  0  0  0  0  0  0  0  0  0  0
    4.3251   -0.3693    1.0873 C   0  0  0  0  0  0  0  0  0  0  0  0
    6.6522   -1.2987    2.1465 Cl  0  0  0  0  0  0  0  0  0  0  0  0
    7.9090   -0.6322   -0.6407 Cl  0  0  0  0  0  0  0  0  0  0  0  0
   -1.1919   -1.9900    0.9777 C   0  0  0  0  0  0  0  0  0  0  0  0
   -2.2539   -0.4860    2.5376 H   0  0  0  0  0  0  0  0  0  0  0  0
   -1.2511    1.0696    2.2862 H   0  0  0  0  0  0  0  0  0  0  0  0
   -0.5646   -0.3792    2.9914 H   0  0  0  0  0  0  0  0  0  0  0  0
   -0.6128   -0.6927   -1.0090 H   0  0  0  0  0  0  0  0  0  0  0  0
   -3.2827    1.0455    1.0893 H   0  0  0  0  0  0  0  0  0  0  0  0
   -5.5310    1.2891    0.2536 H   0  0  0  0  0  0  0  0  0  0  0  0
   -6.0686    0.6385   -2.1076 H   0  0  0  0  0  0  0  0  0  0  0  0
   -4.2796   -0.2412   -3.5085 H   0  0  0  0  0  0  0  0  0  0  0  0
   -2.0310   -0.4972   -2.6844 H   0  0  0  0  0  0  0  0  0  0  0  0
   -0.3860    2.0959    0.2385 H   0  0  0  0  0  0  0  0  0  0  0  0
   -0.5050    1.6340   -1.5157 H   0  0  0  0  0  0  0  0  0  0  0  0
    1.6675    1.1832   -1.5123 H   0  0  0  0  0  0  0  0  0  0  0  0
    3.5614    0.8669   -1.9376 H   0  0  0  0  0  0  0  0  0  0  0  0
    3.9388   -0.6143    2.0594 H   0  0  0  0  0  0  0  0  0  0  0  0
   -2.2436   -2.1000    0.5971 H   0  0  0  0  0  0  0  0  0  0  0  0
   -1.2531   -2.3372    2.0461 H   0  0  0  0  0  0  0  0  0  0  0  0
   -0.4756   -2.6495    0.4710 H   0  0  0  0  0  0  0  0  0  0  0  0
  1  2  1  0
  2  3  1  0
  3  4  1  0
  4  5  2  0
  5  6  1  0
  6  7  2  0
  7  8  1  0
  8  9  2  0
  3 10  1  0
 10 11  1  0
 11 12  1  0
 12 13  2  0
 12 14  1  0
 14 15  2  0
 15 16  1  0
 16 17  2  0
 17 18  1  0
 18 19  2  0
 18 20  1  0
 17 21  1  0
  2 22  1  0
  9  4  1  0
 19 14  1  0
  1 23  1  0
  1 24  1  0
  1 25  1  0
  3 26  1  0
  5 27  1  0
  6 28  1  0
  7 29  1  0
  8 30  1  0
  9 31  1  0
 10 32  1  0
 10 33  1  0
 11 34  1  0
 15 35  1  0
 19 36  1  0
 22 37  1  0
 22 38  1  0
 22 39  1  0
M  END
>  <Ligand ID>  (1) 
LIG0004511

>  <Ligand>  (1) 
MLS001172392

>  <SMILES>  (1) 
CN(C(c1ccccc1)CNC(=O)c1cnc(c(c1)Cl)Cl)C

>  <CID>  (1) 
3432723.0

>  <ChEMBL ID>  (1) 
nan

>  <InChiKey>  (1) 
AEOFNTZWSKMVEO-UHFFFAOYSA-N

>  <InChi>  (1) 
InChI=1S/C16H17Cl2N3O/c1-21(2)14(11-6-4-3-5-7-11)10-20-16(22)12-8-13(17)15(18)19-9-12/h3-9,14H,10H2,1-2H3,(H,20,22)

>  <IUPAC Name>  (1) 
5,6-dichloro-N-[2-(dimethylamino)-2-phenylethyl]pyridine-3-carboxamide

$$$$
