
     RDKit          3D

 57 59  0  0  0  0  0  0  0  0999 V2000
    6.3612    2.7962   -0.8514 C   0  0  0  0  0  0  0  0  0  0  0  0
    6.4026    1.3297   -0.5805 C   0  0  0  0  0  0  0  0  0  0  0  0
    5.0168    0.6997   -0.5301 C   0  0  0  0  0  0  0  0  0  0  0  0
    5.2332   -0.7047   -0.2586 N   0  0  0  0  0  0  0  0  0  0  0  0
    4.5586   -1.2289    1.2324 S   0  0  0  0  0  0  0  0  0  0  0  0
    4.9009   -2.6712    1.4560 O   0  0  0  0  0  0  0  0  0  0  0  0
    5.1237   -0.4255    2.3778 O   0  0  0  0  0  0  0  0  0  0  0  0
    2.8307   -0.9918    1.1689 C   0  0  0  0  0  0  0  0  0  0  0  0
    2.0264   -1.9913    0.6621 C   0  0  0  0  0  0  0  0  0  0  0  0
    0.6444   -1.8183    0.6081 C   0  0  0  0  0  0  0  0  0  0  0  0
    0.0115   -0.6845    1.0389 C   0  0  0  0  0  0  0  0  0  0  0  0
    0.8319    0.3196    1.5492 C   0  0  0  0  0  0  0  0  0  0  0  0
    2.1998    0.1518    1.6042 C   0  0  0  0  0  0  0  0  0  0  0  0
   -1.3800   -0.4553    1.0114 N   0  0  0  0  0  0  0  0  0  0  0  0
   -2.3710   -1.3286    0.5572 C   0  0  0  0  0  0  0  0  0  0  0  0
   -2.1180   -2.4677    0.1062 O   0  0  0  0  0  0  0  0  0  0  0  0
   -3.8317   -0.9525    0.5813 C   0  0  0  0  0  0  0  0  0  0  0  0
   -4.5838   -2.1829    0.1351 C   0  0  0  0  0  0  0  0  0  0  0  0
   -5.5142   -2.7543    0.9818 C   0  0  0  0  0  0  0  0  0  0  0  0
   -6.2242   -3.8907    0.5933 C   0  0  0  0  0  0  0  0  0  0  0  0
   -5.9574   -4.4164   -0.6679 C   0  0  0  0  0  0  0  0  0  0  0  0
   -5.0153   -3.8191   -1.4973 C   0  0  0  0  0  0  0  0  0  0  0  0
   -4.3144   -2.6964   -1.1126 C   0  0  0  0  0  0  0  0  0  0  0  0
   -4.2403    0.3518   -0.5758 S   0  0  0  0  0  0  0  0  0  0  0  0
   -3.5054    1.9184   -0.2221 C   0  0  0  0  0  0  0  0  0  0  0  0
   -2.2856    2.3354   -0.7298 C   0  0  0  0  0  0  0  0  0  0  0  0
   -1.7169    3.5445   -0.4580 C   0  0  0  0  0  0  0  0  0  0  0  0
   -2.4096    4.4063    0.3807 C   0  0  0  0  0  0  0  0  0  0  0  0
   -3.6307    4.0194    0.9043 C   0  0  0  0  0  0  0  0  0  0  0  0
   -4.2026    2.7848    0.6216 C   0  0  0  0  0  0  0  0  0  0  0  0
    4.2780    0.8285   -1.8290 C   0  0  0  0  0  0  0  0  0  0  0  0
    7.4206    3.1450   -0.9423 H   0  0  0  0  0  0  0  0  0  0  0  0
    5.9171    3.3232    0.0254 H   0  0  0  0  0  0  0  0  0  0  0  0
    5.8483    3.1107   -1.7592 H   0  0  0  0  0  0  0  0  0  0  0  0
    6.8778    1.1676    0.3994 H   0  0  0  0  0  0  0  0  0  0  0  0
    6.9805    0.7668   -1.3190 H   0  0  0  0  0  0  0  0  0  0  0  0
    4.4426    1.1484    0.3133 H   0  0  0  0  0  0  0  0  0  0  0  0
    4.8617   -1.2982   -1.0313 H   0  0  0  0  0  0  0  0  0  0  0  0
    2.4757   -2.9086    0.3077 H   0  0  0  0  0  0  0  0  0  0  0  0
    0.0921   -2.6439    0.1999 H   0  0  0  0  0  0  0  0  0  0  0  0
    0.4129    1.2534    1.9131 H   0  0  0  0  0  0  0  0  0  0  0  0
    2.7786    0.9520    2.0068 H   0  0  0  0  0  0  0  0  0  0  0  0
   -1.7257    0.4836    1.3820 H   0  0  0  0  0  0  0  0  0  0  0  0
   -4.1800   -0.6780    1.5883 H   0  0  0  0  0  0  0  0  0  0  0  0
   -5.7068   -2.3312    1.9574 H   0  0  0  0  0  0  0  0  0  0  0  0
   -6.9529   -4.3405    1.2530 H   0  0  0  0  0  0  0  0  0  0  0  0
   -6.5008   -5.2916   -0.9738 H   0  0  0  0  0  0  0  0  0  0  0  0
   -4.8519   -4.2804   -2.4755 H   0  0  0  0  0  0  0  0  0  0  0  0
   -3.5763   -2.2273   -1.7610 H   0  0  0  0  0  0  0  0  0  0  0  0
   -1.7567    1.6445   -1.3864 H   0  0  0  0  0  0  0  0  0  0  0  0
   -0.7556    3.8659   -0.8620 H   0  0  0  0  0  0  0  0  0  0  0  0
   -2.0067    5.3941    0.6388 H   0  0  0  0  0  0  0  0  0  0  0  0
   -4.1391    4.7088    1.5484 H   0  0  0  0  0  0  0  0  0  0  0  0
   -5.1715    2.4977    1.0471 H   0  0  0  0  0  0  0  0  0  0  0  0
    4.5429    1.7102   -2.4324 H   0  0  0  0  0  0  0  0  0  0  0  0
    3.1862    0.9438   -1.5639 H   0  0  0  0  0  0  0  0  0  0  0  0
    4.3681   -0.1222   -2.3871 H   0  0  0  0  0  0  0  0  0  0  0  0
  1  2  1  0
  2  3  1  0
  3  4  1  0
  4  5  1  0
  5  6  2  0
  5  7  2  0
  5  8  1  0
  8  9  2  0
  9 10  1  0
 10 11  2  0
 11 12  1  0
 12 13  2  0
 11 14  1  0
 14 15  1  0
 15 16  2  0
 15 17  1  0
 17 18  1  0
 18 19  2  0
 19 20  1  0
 20 21  2  0
 21 22  1  0
 22 23  2  0
 17 24  1  0
 24 25  1  0
 25 26  2  0
 26 27  1  0
 27 28  2  0
 28 29  1  0
 29 30  2  0
  3 31  1  0
 13  8  1  0
 23 18  1  0
 30 25  1  0
  1 32  1  0
  1 33  1  0
  1 34  1  0
  2 35  1  0
  2 36  1  0
  3 37  1  0
  4 38  1  0
  9 39  1  0
 10 40  1  0
 12 41  1  0
 13 42  1  0
 14 43  1  0
 17 44  1  0
 19 45  1  0
 20 46  1  0
 21 47  1  0
 22 48  1  0
 23 49  1  0
 26 50  1  0
 27 51  1  0
 28 52  1  0
 29 53  1  0
 30 54  1  0
 31 55  1  0
 31 56  1  0
 31 57  1  0
M  END
>  <Ligand ID>  (1) 
LIG0004056

>  <Ligand>  (1) 
MLS000579892

>  <SMILES>  (1) 
CCC(NS(=O)(=O)c1ccc(cc1)NC(=O)C(c1ccccc1)Sc1ccccc1)C

>  <CID>  (1) 
2947268.0

>  <ChEMBL ID>  (1) 
nan

>  <InChiKey>  (1) 
URECVAKCQOVBAK-UHFFFAOYSA-N

>  <InChi>  (1) 
InChI=1S/C24H26N2O3S2/c1-3-18(2)26-31(28,29)22-16-14-20(15-17-22)25-24(27)23(19-10-6-4-7-11-19)30-21-12-8-5-9-13-21/h4-18,23,26H,3H2,1-2H3,(H,25,27)

>  <IUPAC Name>  (1) 
N-[4-(butan-2-ylsulfamoyl)phenyl]-2-phenyl-2-phenylsulfanylacetamide

$$$$
