
     RDKit          3D

 51 53  0  0  0  0  0  0  0  0999 V2000
    0.9241   -2.4664    0.4444 O   0  0  0  0  0  0  0  0  0  0  0  0
   -0.0504   -1.8181   -0.0159 C   0  0  0  0  0  0  0  0  0  0  0  0
   -1.4578   -2.2534    0.1889 C   0  0  2  0  0  0  0  0  0  0  0  0
   -1.7476   -2.4472    1.6495 C   0  0  0  0  0  0  0  0  0  0  0  0
   -1.6408   -3.5914   -0.5015 C   0  0  0  0  0  0  0  0  0  0  0  0
   -2.5694   -3.3904   -1.6553 C   0  0  0  0  0  0  0  0  0  0  0  0
   -2.7789   -1.9129   -1.7119 C   0  0  0  0  0  0  0  0  0  0  0  0
   -2.4115   -1.3760   -0.4158 N   0  0  0  0  0  0  0  0  0  0  0  0
   -2.9297   -0.1726    0.1385 C   0  0  0  0  0  0  0  0  0  0  0  0
   -3.8512    0.5980   -0.5400 C   0  0  0  0  0  0  0  0  0  0  0  0
   -4.3469    1.7607    0.0044 C   0  0  0  0  0  0  0  0  0  0  0  0
   -3.9242    2.1786    1.2528 C   0  0  0  0  0  0  0  0  0  0  0  0
   -2.9978    1.3790    1.9045 C   0  0  0  0  0  0  0  0  0  0  0  0
   -2.5290    0.2484    1.3522 N   0  0  0  0  0  0  0  0  0  0  0  0
   -4.4520    3.4357    1.8557 C   0  0  0  0  0  0  0  0  0  0  0  0
   -4.0267    4.5364    1.1279 F   0  0  0  0  0  0  0  0  0  0  0  0
   -3.9724    3.5618    3.1281 F   0  0  0  0  0  0  0  0  0  0  0  0
   -5.8293    3.3810    1.8579 F   0  0  0  0  0  0  0  0  0  0  0  0
    0.2044   -0.6199   -0.7628 N   0  0  0  0  0  0  0  0  0  0  0  0
    1.5649   -0.2566   -0.9244 C   0  0  0  0  0  0  0  0  0  0  0  0
    2.3271   -0.6730   -1.9668 N   0  0  0  0  0  0  0  0  0  0  0  0
    3.5208   -0.1784   -1.8385 O   0  0  0  0  0  0  0  0  0  0  0  0
    3.5916    0.5585   -0.7446 C   0  0  0  0  0  0  0  0  0  0  0  0
    2.3635    0.5437   -0.1180 C   0  0  0  0  0  0  0  0  0  0  0  0
    4.7553    1.3108   -0.2048 C   0  0  0  0  0  0  0  0  0  0  0  0
    5.9725    1.1611   -1.0779 C   0  0  0  0  0  0  0  0  0  0  0  0
    4.3783    2.7571   -0.1260 C   0  0  0  0  0  0  0  0  0  0  0  0
    5.0893    0.7179    1.1499 C   0  0  0  0  0  0  0  0  0  0  0  0
   -1.2942   -1.6233    2.2519 H   0  0  0  0  0  0  0  0  0  0  0  0
   -1.2502   -3.3914    2.0110 H   0  0  0  0  0  0  0  0  0  0  0  0
   -2.8451   -2.5102    1.7814 H   0  0  0  0  0  0  0  0  0  0  0  0
   -2.1079   -4.3311    0.1728 H   0  0  0  0  0  0  0  0  0  0  0  0
   -0.6862   -3.9845   -0.8725 H   0  0  0  0  0  0  0  0  0  0  0  0
   -3.5455   -3.9415   -1.5521 H   0  0  0  0  0  0  0  0  0  0  0  0
   -2.1055   -3.7462   -2.6099 H   0  0  0  0  0  0  0  0  0  0  0  0
   -2.1398   -1.4298   -2.4867 H   0  0  0  0  0  0  0  0  0  0  0  0
   -3.8271   -1.6434   -1.9544 H   0  0  0  0  0  0  0  0  0  0  0  0
   -4.2123    0.3177   -1.5134 H   0  0  0  0  0  0  0  0  0  0  0  0
   -5.0742    2.3779   -0.5200 H   0  0  0  0  0  0  0  0  0  0  0  0
   -2.6573    1.6921    2.8818 H   0  0  0  0  0  0  0  0  0  0  0  0
   -0.5751   -0.0604   -1.1569 H   0  0  0  0  0  0  0  0  0  0  0  0
    2.0455    1.0298    0.7965 H   0  0  0  0  0  0  0  0  0  0  0  0
    6.4695    0.1862   -0.8925 H   0  0  0  0  0  0  0  0  0  0  0  0
    6.7095    1.9471   -0.8238 H   0  0  0  0  0  0  0  0  0  0  0  0
    5.6348    1.2418   -2.1310 H   0  0  0  0  0  0  0  0  0  0  0  0
    3.7346    2.9990   -0.9904 H   0  0  0  0  0  0  0  0  0  0  0  0
    5.2850    3.4130   -0.1746 H   0  0  0  0  0  0  0  0  0  0  0  0
    3.7671    2.9684    0.7733 H   0  0  0  0  0  0  0  0  0  0  0  0
    5.0094   -0.3987    1.0163 H   0  0  0  0  0  0  0  0  0  0  0  0
    4.3540    0.9606    1.9226 H   0  0  0  0  0  0  0  0  0  0  0  0
    6.1349    0.9543    1.3982 H   0  0  0  0  0  0  0  0  0  0  0  0
  1  2  2  0
  2  3  1  0
  3  4  1  1
  3  5  1  0
  5  6  1  0
  6  7  1  0
  7  8  1  0
  8  9  1  0
  9 10  2  0
 10 11  1  0
 11 12  2  0
 12 13  1  0
 13 14  2  0
 12 15  1  0
 15 16  1  0
 15 17  1  0
 15 18  1  0
  2 19  1  0
 19 20  1  0
 20 21  2  0
 21 22  1  0
 22 23  1  0
 23 24  2  0
 23 25  1  0
 25 26  1  0
 25 27  1  0
 25 28  1  0
  8  3  1  0
 14  9  1  0
 24 20  1  0
  4 29  1  0
  4 30  1  0
  4 31  1  0
  5 32  1  0
  5 33  1  0
  6 34  1  0
  6 35  1  0
  7 36  1  0
  7 37  1  0
 10 38  1  0
 11 39  1  0
 13 40  1  0
 19 41  1  0
 24 42  1  0
 26 43  1  0
 26 44  1  0
 26 45  1  0
 27 46  1  0
 27 47  1  0
 27 48  1  0
 28 49  1  0
 28 50  1  0
 28 51  1  0
M  END
>  <Ligand ID>  (1) 
LIG0005118

>  <Ligand>  (1) 
CHEMBL3400946

>  <SMILES>  (1) 
O=C([C@]1(C)CCCN1c1ccc(cn1)C(F)(F)F)Nc1noc(c1)C(C)(C)C

>  <CID>  (1) 
46239964.0

>  <ChEMBL ID>  (1) 
nan

>  <InChiKey>  (1) 
SHIQHFJMBFHFKT-SFHVURJKSA-N

>  <InChi>  (1) 
InChI=1S/C19H23F3N4O2/c1-17(2,3)13-10-14(25-28-13)24-16(27)18(4)8-5-9-26(18)15-7-6-12(11-23-15)19(20,21)22/h6-7,10-11H,5,8-9H2,1-4H3,(H,24,25,27)/t18-/m0/s1

>  <IUPAC Name>  (1) 
(2S)-N-(5-tert-butyl-1,2-oxazol-3-yl)-2-methyl-1-[5-(trifluoromethyl)pyridin-2-yl]pyrrolidine-2-carboxamide

$$$$
