
     RDKit          3D

 21 21  0  0  0  0  0  0  0  0999 V2000
   -3.5550    0.6453    0.2175 N   0  0  0  0  0  0  0  0  0  0  0  0
   -2.1838    0.4708   -0.2731 C   0  0  0  0  0  0  0  0  0  0  0  0
   -1.2054    0.3994    0.8660 C   0  0  0  0  0  0  0  0  0  0  0  0
    0.1760    0.2307    0.5189 C   0  0  0  0  0  0  0  0  0  0  0  0
    1.4490    1.5910    0.5634 S   0  0  0  0  0  0  0  0  0  0  0  0
    2.7733    0.4941    0.0036 C   0  0  0  0  0  0  0  0  0  0  0  0
    2.1859   -0.6191   -0.1344 N   0  0  0  0  0  0  0  0  0  0  0  0
    0.9381   -0.8434    0.0900 C   0  0  0  0  0  0  0  0  0  0  0  0
    0.2793   -2.1986   -0.0906 C   0  0  0  0  0  0  0  0  0  0  0  0
    4.0944    0.9792   -0.1743 N   0  0  0  0  0  0  0  0  0  0  0  0
   -4.0982    1.3224   -0.3742 H   0  0  0  0  0  0  0  0  0  0  0  0
   -3.4811    1.1001    1.1668 H   0  0  0  0  0  0  0  0  0  0  0  0
   -2.1641   -0.5207   -0.7781 H   0  0  0  0  0  0  0  0  0  0  0  0
   -1.9140    1.3070   -0.9548 H   0  0  0  0  0  0  0  0  0  0  0  0
   -1.5448   -0.4205    1.5448 H   0  0  0  0  0  0  0  0  0  0  0  0
   -1.3112    1.3679    1.4270 H   0  0  0  0  0  0  0  0  0  0  0  0
   -0.3379   -2.4620    0.7774 H   0  0  0  0  0  0  0  0  0  0  0  0
    1.0236   -2.9930   -0.2341 H   0  0  0  0  0  0  0  0  0  0  0  0
   -0.3414   -2.1745   -0.9917 H   0  0  0  0  0  0  0  0  0  0  0  0
    4.7868    0.9256    0.6301 H   0  0  0  0  0  0  0  0  0  0  0  0
    4.4305    1.3983   -1.0792 H   0  0  0  0  0  0  0  0  0  0  0  0
  1  2  1  0
  2  3  1  0
  3  4  1  0
  4  5  1  0
  5  6  1  0
  6  7  2  0
  7  8  1  0
  8  9  1  0
  6 10  1  0
  8  4  2  0
  1 11  1  0
  1 12  1  0
  2 13  1  0
  2 14  1  0
  3 15  1  0
  3 16  1  0
  9 17  1  0
  9 18  1  0
  9 19  1  0
 10 20  1  0
 10 21  1  0
M  END
>  <Ligand ID>  (1) 
LIG0003682

>  <Ligand>  (1) 
amthamine

>  <SMILES>  (1) 
NCCc1sc(nc1C)N

>  <CID>  (1) 
126688.0

>  <ChEMBL ID>  (1) 
nan

>  <InChiKey>  (1) 
LHVRFUVVRXGZPV-UHFFFAOYSA-N

>  <InChi>  (1) 
InChI=1S/C6H11N3S/c1-4-5(2-3-7)10-6(8)9-4/h2-3,7H2,1H3,(H2,8,9)

>  <IUPAC Name>  (1) 
5-(2-aminoethyl)-4-methyl-1,3-thiazol-2-amine

$$$$
