
     RDKit          3D

 49 49  0  0  0  0  0  0  0  0999 V2000
    0.2234    0.2618    1.3126 C   0  0  0  0  0  0  0  0  0  0  0  0
    0.0119    0.9922    0.0401 C   0  0  2  0  0  0  0  0  0  0  0  0
   -0.5243    0.0216   -1.0374 C   0  0  0  0  0  0  0  0  0  0  0  0
   -1.8134   -0.5296   -0.5310 C   0  0  0  0  0  0  0  0  0  0  0  0
   -1.8272   -1.7263    0.1573 C   0  0  0  0  0  0  0  0  0  0  0  0
   -3.0258   -2.2112    0.6330 C   0  0  0  0  0  0  0  0  0  0  0  0
   -4.1670   -1.4828    0.4040 C   0  0  0  0  0  0  0  0  0  0  0  0
   -4.1958   -0.2872   -0.2770 C   0  0  0  0  0  0  0  0  0  0  0  0
   -2.9829    0.1932   -0.7530 C   0  0  0  0  0  0  0  0  0  0  0  0
   -5.5105    0.1457   -0.3076 O   0  0  0  0  0  0  0  0  0  0  0  0
   -6.3044   -0.9917   -0.0449 C   0  0  0  0  0  0  0  0  0  0  0  0
   -5.4675   -1.7685    0.7836 O   0  0  0  0  0  0  0  0  0  0  0  0
   -7.5702   -0.6205    0.6453 C   0  0  0  0  0  0  0  0  0  0  0  0
   -8.3691   -1.5539    0.9275 O   0  0  0  0  0  0  0  0  0  0  0  0
   -7.8624    0.6952    0.9671 O   0  0  0  0  0  0  0  0  0  0  0  0
   -6.5745   -1.6207   -1.3661 C   0  0  0  0  0  0  0  0  0  0  0  0
   -6.0828   -1.0478   -2.3721 O   0  0  0  0  0  0  0  0  0  0  0  0
   -7.3375   -2.7915   -1.4827 O   0  0  0  0  0  0  0  0  0  0  0  0
    1.0135    1.8364   -0.4572 N   0  0  0  0  0  0  0  0  0  0  0  0
    2.2925    1.3789   -0.8019 C   0  0  0  0  0  0  0  0  0  0  0  0
    3.1190    0.9942    0.3880 C   0  0  1  0  0  0  0  0  0  0  0  0
    4.5226    0.6240   -0.0371 C   0  0  0  0  0  0  0  0  0  0  0  0
    5.4390    0.5700    1.0172 C   0  0  0  0  0  0  0  0  0  0  0  0
    6.7527    0.2380    0.7238 C   0  0  0  0  0  0  0  0  0  0  0  0
    7.1462   -0.0352   -0.5934 C   0  0  0  0  0  0  0  0  0  0  0  0
    6.1802    0.0356   -1.6036 C   0  0  0  0  0  0  0  0  0  0  0  0
    4.8683    0.3647   -1.3296 C   0  0  0  0  0  0  0  0  0  0  0  0
    6.6977   -0.3133   -3.2607 Cl  0  0  0  0  0  0  0  0  0  0  0  0
    3.2684    2.0871    1.2638 O   0  0  0  0  0  0  0  0  0  0  0  0
    0.0000    0.0000    0.0000 Na  0  0  0  0  0 15  0  0  0  0  0  0
    0.0000    0.0000    0.0000 Na  0  0  0  0  0 15  0  0  0  0  0  0
   -0.8223    0.0654    1.7366 H   0  0  0  0  0  0  0  0  0  0  0  0
    0.7305    0.8526    2.0765 H   0  0  0  0  0  0  0  0  0  0  0  0
    0.6153   -0.7780    1.1835 H   0  0  0  0  0  0  0  0  0  0  0  0
   -0.8862    1.6878    0.2504 H   0  0  0  0  0  0  0  0  0  0  0  0
    0.1674   -0.8175   -1.1736 H   0  0  0  0  0  0  0  0  0  0  0  0
   -0.6649    0.5283   -1.9980 H   0  0  0  0  0  0  0  0  0  0  0  0
   -0.9562   -2.3260    0.3501 H   0  0  0  0  0  0  0  0  0  0  0  0
   -3.0627   -3.1504    1.1763 H   0  0  0  0  0  0  0  0  0  0  0  0
   -2.9925    1.1317   -1.2891 H   0  0  0  0  0  0  0  0  0  0  0  0
    0.5940    2.5413   -1.1035 H   0  0  0  0  0  0  0  0  0  0  0  0
    2.8462    2.2318   -1.2932 H   0  0  0  0  0  0  0  0  0  0  0  0
    2.2681    0.5535   -1.5666 H   0  0  0  0  0  0  0  0  0  0  0  0
    2.6711    0.1818    0.9380 H   0  0  0  0  0  0  0  0  0  0  0  0
    5.1521    0.7753    2.0316 H   0  0  0  0  0  0  0  0  0  0  0  0
    7.4910    0.1910    1.5391 H   0  0  0  0  0  0  0  0  0  0  0  0
    8.1810   -0.2975   -0.8282 H   0  0  0  0  0  0  0  0  0  0  0  0
    4.1700    0.4070   -2.1350 H   0  0  0  0  0  0  0  0  0  0  0  0
    2.5780    2.7631    1.0923 H   0  0  0  0  0  0  0  0  0  0  0  0
  1  2  1  0
  2  3  1  0
  3  4  1  0
  4  5  2  0
  5  6  1  0
  6  7  2  0
  7  8  1  0
  8  9  2  0
  8 10  1  0
 10 11  1  0
 11 12  1  0
 11 13  1  0
 13 14  2  0
 13 15  1  0
 11 16  1  0
 16 17  2  0
 16 18  1  0
  2 19  1  0
 19 20  1  0
 20 21  1  0
 21 22  1  0
 22 23  2  0
 23 24  1  0
 24 25  2  0
 25 26  1  0
 26 27  2  0
 26 28  1  0
 21 29  1  0
  9  4  1  0
 27 22  1  0
 12  7  1  0
  1 32  1  0
  1 33  1  0
  1 34  1  0
  2 35  1  1
  3 36  1  0
  3 37  1  0
  5 38  1  0
  6 39  1  0
  9 40  1  0
 19 41  1  0
 20 42  1  0
 20 43  1  0
 21 44  1  1
 23 45  1  0
 24 46  1  0
 25 47  1  0
 27 48  1  0
 29 49  1  0
M  CHG  4  15  -1  18  -1  30   1  31   1
M  END
>  <Ligand ID>  (1) 
LIG0001113

>  <Ligand>  (1) 
CL-316243

>  <SMILES>  (1) 
C[C@H](Cc1ccc2c(c1)OC(O2)(C(=O)[O-])C(=O)[O-])NC[C@@H](c1cccc(c1)Cl)O.[Na+].[Na+]

>  <CID>  (1) 
16759149.0

>  <ChEMBL ID>  (1) 
nan

>  <InChiKey>  (1) 
FUZBPOHHSBDTJQ-CFOQQKEYSA-L

>  <InChi>  (1) 
InChI=1S/C20H20ClNO7.2Na/c1-11(22-10-15(23)13-3-2-4-14(21)9-13)7-12-5-6-16-17(8-12)29-20(28-16,18(24)25)19(26)27;;/h2-6,8-9,11,15,22-23H,7,10H2,1H3,(H,24,25)(H,26,27);;/q;2*+1/p-2/t11-,15+;;/m1../s1

>  <IUPAC Name>  (1) 
disodium;5-[(2R)-2-[[(2R)-2-(3-chlorophenyl)-2-hydroxyethyl]amino]propyl]-1,3-benzodioxole-2,2-dicarboxylate

$$$$
