
     RDKit          3D

 56 58  0  0  0  0  0  0  0  0999 V2000
   -4.0645   -3.0673   -1.7150 O   0  0  0  0  0  0  0  0  0  0  0  0
   -4.3829   -1.7917   -1.1998 C   0  0  2  0  0  0  0  0  0  0  0  0
   -5.0574   -1.0332   -2.3186 C   0  0  0  0  0  0  0  0  0  0  0  0
   -5.4604    0.2393   -1.9934 O   0  0  0  0  0  0  0  0  0  0  0  0
   -6.3981    0.5799   -1.0787 C   0  0  0  0  0  0  0  0  0  0  0  0
   -6.6209    1.9560   -0.8909 C   0  0  0  0  0  0  0  0  0  0  0  0
   -7.5460    2.4290    0.0048 C   0  0  0  0  0  0  0  0  0  0  0  0
   -8.2998    1.5735    0.7621 C   0  0  0  0  0  0  0  0  0  0  0  0
   -8.1095    0.2214    0.6048 C   0  0  0  0  0  0  0  0  0  0  0  0
   -7.1654   -0.2493   -0.3101 C   0  0  0  0  0  0  0  0  0  0  0  0
   -9.2304    2.0660    1.6633 O   0  0  0  0  0  0  0  0  0  0  0  0
   -3.0117   -1.0985   -1.0368 C   0  0  0  0  0  0  0  0  0  0  0  0
   -2.1802   -1.8527   -0.1262 N   0  0  0  0  0  0  0  0  0  0  0  0
   -0.8917   -1.1617   -0.0039 C   0  0  0  0  0  0  0  0  0  0  0  0
   -0.0116   -1.9350    0.9504 C   0  0  0  0  0  0  0  0  0  0  0  0
    1.2884   -1.2259    1.0649 C   0  0  0  0  0  0  0  0  0  0  0  0
    1.4881   -0.2574    2.0131 C   0  0  0  0  0  0  0  0  0  0  0  0
    2.6624    0.4113    2.1506 C   0  0  0  0  0  0  0  0  0  0  0  0
    3.7530    0.1508    1.3246 C   0  0  0  0  0  0  0  0  0  0  0  0
    3.5673   -0.8154    0.3717 C   0  0  0  0  0  0  0  0  0  0  0  0
    2.3571   -1.5076    0.2267 C   0  0  0  0  0  0  0  0  0  0  0  0
    4.9333    0.8888    1.5358 N   0  0  0  0  0  0  0  0  0  0  0  0
    6.1389    0.7605    0.8062 C   0  0  0  0  0  0  0  0  0  0  0  0
    6.2855   -0.0512   -0.1357 O   0  0  0  0  0  0  0  0  0  0  0  0
    7.3095    1.6124    1.1450 C   0  0  0  0  0  0  0  0  0  0  0  0
    8.4596    1.3247    0.2784 C   0  0  0  0  0  0  0  0  0  0  0  0
    8.8735    1.8317   -0.9100 C   0  0  0  0  0  0  0  0  0  0  0  0
    9.9833    1.3727   -1.4890 C   0  0  0  0  0  0  0  0  0  0  0  0
   10.7098    0.3863   -0.8840 C   0  0  0  0  0  0  0  0  0  0  0  0
    9.6950    0.0791    0.6878 S   0  0  0  0  0  0  0  0  0  0  0  0
   -4.3710   -3.7816   -1.0787 H   0  0  0  0  0  0  0  0  0  0  0  0
   -4.8945   -1.8126   -0.2546 H   0  0  0  0  0  0  0  0  0  0  0  0
   -5.9396   -1.6482   -2.6803 H   0  0  0  0  0  0  0  0  0  0  0  0
   -4.3795   -1.0548   -3.2295 H   0  0  0  0  0  0  0  0  0  0  0  0
   -6.0606    2.6944   -1.4562 H   0  0  0  0  0  0  0  0  0  0  0  0
   -7.6963    3.5040    0.1285 H   0  0  0  0  0  0  0  0  0  0  0  0
   -8.7072   -0.4596    1.2052 H   0  0  0  0  0  0  0  0  0  0  0  0
   -7.0952   -1.3192   -0.3858 H   0  0  0  0  0  0  0  0  0  0  0  0
   -9.9570    1.4915    2.0699 H   0  0  0  0  0  0  0  0  0  0  0  0
   -2.5893   -1.0319   -2.0568 H   0  0  0  0  0  0  0  0  0  0  0  0
   -3.2060   -0.0744   -0.6777 H   0  0  0  0  0  0  0  0  0  0  0  0
   -2.0912   -2.8337   -0.4061 H   0  0  0  0  0  0  0  0  0  0  0  0
   -0.4079   -1.0532   -0.9968 H   0  0  0  0  0  0  0  0  0  0  0  0
   -1.1065   -0.1382    0.3611 H   0  0  0  0  0  0  0  0  0  0  0  0
   -0.4977   -2.0134    1.9260 H   0  0  0  0  0  0  0  0  0  0  0  0
    0.1708   -2.9310    0.4959 H   0  0  0  0  0  0  0  0  0  0  0  0
    0.6759   -0.0149    2.6810 H   0  0  0  0  0  0  0  0  0  0  0  0
    2.7349    1.1754    2.9409 H   0  0  0  0  0  0  0  0  0  0  0  0
    4.3364   -1.0868   -0.3060 H   0  0  0  0  0  0  0  0  0  0  0  0
    2.2293   -2.2625   -0.5268 H   0  0  0  0  0  0  0  0  0  0  0  0
    4.9419    1.6094    2.3034 H   0  0  0  0  0  0  0  0  0  0  0  0
    7.5978    1.3641    2.1903 H   0  0  0  0  0  0  0  0  0  0  0  0
    7.0621    2.7018    1.1847 H   0  0  0  0  0  0  0  0  0  0  0  0
    8.2575    2.6454   -1.3896 H   0  0  0  0  0  0  0  0  0  0  0  0
   10.3494    1.7728   -2.4715 H   0  0  0  0  0  0  0  0  0  0  0  0
   11.5694   -0.1529   -1.0691 H   0  0  0  0  0  0  0  0  0  0  0  0
  1  2  1  0
  2  3  1  0
  3  4  1  0
  4  5  1  0
  5  6  2  0
  6  7  1  0
  7  8  2  0
  8  9  1  0
  9 10  2  0
  8 11  1  0
  2 12  1  0
 12 13  1  0
 13 14  1  0
 14 15  1  0
 15 16  1  0
 16 17  2  0
 17 18  1  0
 18 19  2  0
 19 20  1  0
 20 21  2  0
 19 22  1  0
 22 23  1  0
 23 24  2  0
 23 25  1  0
 25 26  1  0
 26 27  2  0
 27 28  1  0
 28 29  2  0
 29 30  1  0
 10  5  1  0
 21 16  1  0
 30 26  1  0
  1 31  1  0
  2 32  1  1
  3 33  1  0
  3 34  1  0
  6 35  1  0
  7 36  1  0
  9 37  1  0
 10 38  1  0
 11 39  1  0
 12 40  1  0
 12 41  1  0
 13 42  1  0
 14 43  1  0
 14 44  1  0
 15 45  1  0
 15 46  1  0
 17 47  1  0
 18 48  1  0
 20 49  1  0
 21 50  1  0
 22 51  1  0
 25 52  1  0
 25 53  1  0
 27 54  1  0
 28 55  1  0
 29 56  1  0
M  END
>  <Ligand ID>  (1) 
LIG0002847

>  <Ligand>  (1) 
CHEMBL539226

>  <SMILES>  (1) 
O[C@H](COc1ccc(cc1)O)CNCCc1ccc(cc1)NC(=O)Cc1cccs1

>  <CID>  (1) 
44127575.0

>  <ChEMBL ID>  (1) 
nan

>  <InChiKey>  (1) 
MUQJGEYBBHCTJB-FQEVSTJZSA-N

>  <InChi>  (1) 
InChI=1S/C23H26N2O4S/c26-19-7-9-21(10-8-19)29-16-20(27)15-24-12-11-17-3-5-18(6-4-17)25-23(28)14-22-2-1-13-30-22/h1-10,13,20,24,26-27H,11-12,14-16H2,(H,25,28)/t20-/m0/s1

>  <IUPAC Name>  (1) 
N-[4-[2-[[(2S)-2-hydroxy-3-(4-hydroxyphenoxy)propyl]amino]ethyl]phenyl]-2-thiophen-2-ylacetamide

$$$$
