
     RDKit          3D

145151  0  0  0  0  0  0  0  0999 V2000
    9.6065   -1.7437    2.9841 C   0  0  0  0  0  0  0  0  0  0  0  0
    8.2238   -2.1281    2.4971 C   0  0  0  0  0  0  0  0  0  0  0  0
    7.5721   -1.0640    1.6553 C   0  0  0  0  0  0  0  0  0  0  0  0
    8.3586   -0.7208    0.4467 C   0  0  0  0  0  0  0  0  0  0  0  0
    8.5784   -1.8132   -0.5130 C   0  0  1  0  0  0  0  0  0  0  0  0
    7.1261   -2.3083   -1.0570 C   0  0  0  0  0  0  0  0  0  0  0  0
    7.1037   -3.4629   -1.3584 O   0  0  0  0  0  0  0  0  0  0  0  0
    6.1558   -1.2626   -1.0309 C   0  0  0  0  0  0  0  0  0  0  0  0
    4.6967   -1.6541   -0.9980 C   0  0  1  0  0  0  0  0  0  0  0  0
    4.4043   -2.7195    0.0514 C   0  0  0  0  0  0  0  0  0  0  0  0
    3.1753   -3.4198   -0.3242 C   0  0  0  0  0  0  0  0  0  0  0  0
    2.6367   -2.9689   -1.4144 O   0  0  0  0  0  0  0  0  0  0  0  0
    2.6243   -4.5471    0.3081 N   0  0  0  0  0  0  0  0  0  0  0  0
    1.6705   -5.4698   -0.2674 C   0  0  0  0  0  0  0  0  0  0  0  0
    1.0904   -6.4665    0.6587 C   0  0  0  0  0  0  0  0  0  0  0  0
   -0.2018   -5.8076    1.2207 C   0  0  0  0  0  0  0  0  0  0  0  0
   -1.0056   -5.3111    0.0379 C   0  0  0  0  0  0  0  0  0  0  0  0
   -2.4262   -5.0158    0.3039 C   0  0  2  0  0  0  0  0  0  0  0  0
   -2.7811   -3.6813    0.7170 N   0  0  0  0  0  0  0  0  0  0  0  0
   -4.2160   -3.4255    1.0156 C   0  0  0  0  0  0  0  0  0  0  0  0
   -4.7412   -4.2620    1.7408 O   0  0  0  0  0  0  0  0  0  0  0  0
   -4.8221   -2.1903    0.4465 C   0  0  1  0  0  0  0  0  0  0  0  0
   -4.1065   -0.9849    0.5449 N   0  0  0  0  0  0  0  0  0  0  0  0
   -4.7239    0.2643    0.8986 C   0  0  0  0  0  0  0  0  0  0  0  0
   -5.5223    0.1484    1.8940 O   0  0  0  0  0  0  0  0  0  0  0  0
   -4.4880    1.5417    0.3305 C   0  0  1  0  0  0  0  0  0  0  0  0
   -3.4466    1.7493   -0.6637 N   0  0  0  0  0  0  0  0  0  0  0  0
   -2.6049    2.8507   -0.8202 C   0  0  0  0  0  0  0  0  0  0  0  0
   -3.3260    3.9252   -0.6994 O   0  0  0  0  0  0  0  0  0  0  0  0
   -1.2189    2.9485   -1.1017 C   0  0  2  0  0  0  0  0  0  0  0  0
   -0.5331    1.6545   -0.8615 N   0  0  0  0  0  0  0  0  0  0  0  0
    0.8209    1.3839   -0.9907 C   0  0  0  0  0  0  0  0  0  0  0  0
    1.3852    2.0320   -1.9418 O   0  0  0  0  0  0  0  0  0  0  0  0
    1.6877    0.4741   -0.2339 C   0  0  1  0  0  0  0  0  0  0  0  0
    2.8627    0.1212   -0.9121 N   0  0  0  0  0  0  0  0  0  0  0  0
    3.9578   -0.4813   -0.3997 C   0  0  0  0  0  0  0  0  0  0  0  0
    4.4838    0.0045    0.6543 O   0  0  0  0  0  0  0  0  0  0  0  0
    1.9144    1.0654    1.1560 C   0  0  0  0  0  0  0  0  0  0  0  0
    2.5264    2.4064    1.1499 C   0  0  0  0  0  0  0  0  0  0  0  0
    3.1322    3.0778    0.1754 C   0  0  0  0  0  0  0  0  0  0  0  0
    3.4390    4.3362    0.5995 N   0  0  0  0  0  0  0  0  0  0  0  0
    3.0813    4.3822    1.9129 C   0  0  0  0  0  0  0  0  0  0  0  0
    2.4876    3.1999    2.2407 N   0  0  0  0  0  0  0  0  0  0  0  0
   -0.5408    3.8871   -0.1135 C   0  0  0  0  0  0  0  0  0  0  0  0
   -0.9719    5.2830   -0.0706 C   0  0  0  0  0  0  0  0  0  0  0  0
   -2.0697    5.7394    0.5918 C   0  0  0  0  0  0  0  0  0  0  0  0
   -2.6405    6.9580    0.7739 C   0  0  0  0  0  0  0  0  0  0  0  0
   -1.8643    8.0016    0.2310 C   0  0  0  0  0  0  0  0  0  0  0  0
   -0.7627    7.5754   -0.4173 C   0  0  0  0  0  0  0  0  0  0  0  0
   -0.2471    6.3405   -0.6798 C   0  0  0  0  0  0  0  0  0  0  0  0
   -2.3220    9.3841    0.4519 C   0  0  0  0  0  0  0  0  0  0  0  0
   -3.3085    9.6536    1.3823 C   0  0  0  0  0  0  0  0  0  0  0  0
   -3.2712   10.8724    1.9372 C   0  0  0  0  0  0  0  0  0  0  0  0
   -2.4444   11.8311    1.6426 C   0  0  0  0  0  0  0  0  0  0  0  0
   -1.4388   11.6415    0.7153 C   0  0  0  0  0  0  0  0  0  0  0  0
   -1.3546   10.3787    0.1359 C   0  0  0  0  0  0  0  0  0  0  0  0
   -3.7488    0.7516   -1.7079 C   0  0  0  0  0  0  0  0  0  0  0  0
   -5.2588    0.9655   -1.8580 C   0  0  0  0  0  0  0  0  0  0  0  0
   -5.6378    1.8869   -0.6665 C   0  0  0  0  0  0  0  0  0  0  0  0
   -5.3694   -2.4372   -0.9490 C   0  0  0  0  0  0  0  0  0  0  0  0
   -6.8398   -2.7006   -1.1481 C   0  0  0  0  0  0  0  0  0  0  0  0
   -7.4986   -3.4802   -2.0294 C   0  0  0  0  0  0  0  0  0  0  0  0
   -8.7464   -3.6157   -1.7242 C   0  0  0  0  0  0  0  0  0  0  0  0
   -8.9993   -2.9580   -0.5206 C   0  0  0  0  0  0  0  0  0  0  0  0
   -7.8185   -2.3906   -0.2726 N   0  0  0  0  0  0  0  0  0  0  0  0
  -10.1369   -3.0201    0.2275 C   0  0  0  0  0  0  0  0  0  0  0  0
  -11.1014   -3.8527   -0.3334 C   0  0  0  0  0  0  0  0  0  0  0  0
  -10.9349   -4.5414   -1.5046 C   0  0  0  0  0  0  0  0  0  0  0  0
   -9.7587   -4.4294   -2.2476 C   0  0  0  0  0  0  0  0  0  0  0  0
   -2.9307   -5.9403    1.4266 C   0  0  0  0  0  0  0  0  0  0  0  0
   -3.6800   -6.9075    1.2120 O   0  0  0  0  0  0  0  0  0  0  0  0
   -2.5075   -5.6217    2.7517 N   0  0  0  0  0  0  0  0  0  0  0  0
    8.9151   -1.2721   -1.8659 N   0  0  0  0  0  0  0  0  0  0  0  0
    9.4282   -2.2306   -2.8124 C   0  0  0  0  0  0  0  0  0  0  0  0
    9.6655   -3.4154   -2.5572 O   0  0  0  0  0  0  0  0  0  0  0  0
    9.5794   -1.6880   -4.1957 C   0  0  0  0  0  0  0  0  0  0  0  0
    9.7985   -0.6472    2.8569 H   0  0  0  0  0  0  0  0  0  0  0  0
   10.3412   -2.3549    2.4291 H   0  0  0  0  0  0  0  0  0  0  0  0
    9.7275   -1.9109    4.0923 H   0  0  0  0  0  0  0  0  0  0  0  0
    8.2502   -3.0441    1.8848 H   0  0  0  0  0  0  0  0  0  0  0  0
    7.6068   -2.3307    3.3806 H   0  0  0  0  0  0  0  0  0  0  0  0
    6.5498   -1.4120    1.4650 H   0  0  0  0  0  0  0  0  0  0  0  0
    7.5421   -0.1362    2.3055 H   0  0  0  0  0  0  0  0  0  0  0  0
    9.4032   -0.5144    0.8652 H   0  0  0  0  0  0  0  0  0  0  0  0
    8.0875    0.2815    0.0253 H   0  0  0  0  0  0  0  0  0  0  0  0
    8.9798   -2.6870   -0.1500 H   0  0  0  0  0  0  0  0  0  0  0  0
    6.2374   -0.8887   -2.2131 H   0  0  0  0  0  0  0  0  0  0  0  0
    6.2743   -0.3041   -0.5985 H   0  0  0  0  0  0  0  0  0  0  0  0
    4.3323   -1.9483   -1.9473 H   0  0  0  0  0  0  0  0  0  0  0  0
    4.5261   -2.4773    1.0396 H   0  0  0  0  0  0  0  0  0  0  0  0
    5.1571   -3.5995   -0.1953 H   0  0  0  0  0  0  0  0  0  0  0  0
    2.9644   -4.7199    1.3207 H   0  0  0  0  0  0  0  0  0  0  0  0
    2.3895   -6.1855   -0.9302 H   0  0  0  0  0  0  0  0  0  0  0  0
    1.0761   -5.0617   -1.0544 H   0  0  0  0  0  0  0  0  0  0  0  0
    1.7296   -6.6433    1.5512 H   0  0  0  0  0  0  0  0  0  0  0  0
    0.8124   -7.3959    0.1755 H   0  0  0  0  0  0  0  0  0  0  0  0
    0.0803   -5.0135    1.8678 H   0  0  0  0  0  0  0  0  0  0  0  0
   -0.7370   -6.6958    1.6629 H   0  0  0  0  0  0  0  0  0  0  0  0
   -0.5292   -4.2614   -0.1676 H   0  0  0  0  0  0  0  0  0  0  0  0
   -0.7097   -5.8410   -0.8658 H   0  0  0  0  0  0  0  0  0  0  0  0
   -3.0154   -5.3815   -0.5444 H   0  0  0  0  0  0  0  0  0  0  0  0
   -2.0844   -2.9277    0.7726 H   0  0  0  0  0  0  0  0  0  0  0  0
   -5.8296   -2.1176    1.0110 H   0  0  0  0  0  0  0  0  0  0  0  0
   -3.0515   -1.0056    0.4604 H   0  0  0  0  0  0  0  0  0  0  0  0
   -4.5003    2.3815    1.0702 H   0  0  0  0  0  0  0  0  0  0  0  0
   -0.9517    3.2893   -2.1347 H   0  0  0  0  0  0  0  0  0  0  0  0
   -1.1557    0.7869   -0.6556 H   0  0  0  0  0  0  0  0  0  0  0  0
    1.1061   -0.4397    0.0541 H   0  0  0  0  0  0  0  0  0  0  0  0
    2.8868    0.3672   -1.9696 H   0  0  0  0  0  0  0  0  0  0  0  0
    2.5640    0.3166    1.7520 H   0  0  0  0  0  0  0  0  0  0  0  0
    1.0091    1.0854    1.7471 H   0  0  0  0  0  0  0  0  0  0  0  0
    3.3723    2.7591   -0.8475 H   0  0  0  0  0  0  0  0  0  0  0  0
    3.1216    5.2969    2.5293 H   0  0  0  0  0  0  0  0  0  0  0  0
    2.1741    2.9673    3.2259 H   0  0  0  0  0  0  0  0  0  0  0  0
    0.5561    3.9268   -0.4540 H   0  0  0  0  0  0  0  0  0  0  0  0
   -0.4954    3.4734    0.9241 H   0  0  0  0  0  0  0  0  0  0  0  0
   -2.5992    4.9211    1.1763 H   0  0  0  0  0  0  0  0  0  0  0  0
   -3.5446    7.0860    1.3869 H   0  0  0  0  0  0  0  0  0  0  0  0
   -0.0784    8.4282   -0.7416 H   0  0  0  0  0  0  0  0  0  0  0  0
    0.6612    6.1170   -1.2575 H   0  0  0  0  0  0  0  0  0  0  0  0
   -4.0074    8.8567    1.6299 H   0  0  0  0  0  0  0  0  0  0  0  0
   -4.0932   11.0836    2.6548 H   0  0  0  0  0  0  0  0  0  0  0  0
   -2.4589   12.8081    2.1825 H   0  0  0  0  0  0  0  0  0  0  0  0
   -0.7355   12.4467    0.4234 H   0  0  0  0  0  0  0  0  0  0  0  0
   -0.6170   10.2314   -0.6153 H   0  0  0  0  0  0  0  0  0  0  0  0
   -3.3741   -0.2251   -1.6519 H   0  0  0  0  0  0  0  0  0  0  0  0
   -3.3677    1.1837   -2.6986 H   0  0  0  0  0  0  0  0  0  0  0  0
   -5.5616    1.4447   -2.7857 H   0  0  0  0  0  0  0  0  0  0  0  0
   -5.8290    0.0422   -1.7014 H   0  0  0  0  0  0  0  0  0  0  0  0
   -5.5283    2.9319   -1.0421 H   0  0  0  0  0  0  0  0  0  0  0  0
   -6.5952    1.6318   -0.2438 H   0  0  0  0  0  0  0  0  0  0  0  0
   -5.2115   -1.6042   -1.6589 H   0  0  0  0  0  0  0  0  0  0  0  0
   -4.8507   -3.2877   -1.4947 H   0  0  0  0  0  0  0  0  0  0  0  0
   -6.9813   -3.8994   -2.9496 H   0  0  0  0  0  0  0  0  0  0  0  0
   -7.6468   -1.7107    0.5885 H   0  0  0  0  0  0  0  0  0  0  0  0
  -10.2755   -2.4414    1.1249 H   0  0  0  0  0  0  0  0  0  0  0  0
  -11.9527   -4.0554    0.2909 H   0  0  0  0  0  0  0  0  0  0  0  0
  -11.7007   -5.1704   -1.8613 H   0  0  0  0  0  0  0  0  0  0  0  0
   -9.6197   -4.9243   -3.1940 H   0  0  0  0  0  0  0  0  0  0  0  0
   -2.0659   -4.7373    3.0134 H   0  0  0  0  0  0  0  0  0  0  0  0
   -2.6343   -6.3381    3.5036 H   0  0  0  0  0  0  0  0  0  0  0  0
    8.8760   -0.2590   -2.0515 H   0  0  0  0  0  0  0  0  0  0  0  0
    8.5042   -2.0646   -4.6002 H   0  0  0  0  0  0  0  0  0  0  0  0
    9.3830   -0.6150   -4.2011 H   0  0  0  0  0  0  0  0  0  0  0  0
   10.2863   -2.1726   -4.8250 H   0  0  0  0  0  0  0  0  0  0  0  0
  1  2  1  0
  2  3  1  0
  3  4  1  0
  4  5  1  0
  5  6  1  0
  6  7  2  0
  6  8  1  0
  8  9  1  0
  9 10  1  0
 10 11  1  0
 11 12  2  0
 11 13  1  0
 13 14  1  0
 14 15  1  0
 15 16  1  0
 16 17  1  0
 17 18  1  0
 18 19  1  0
 19 20  1  0
 20 21  2  0
 20 22  1  0
 22 23  1  0
 23 24  1  0
 24 25  2  0
 24 26  1  0
 26 27  1  0
 27 28  1  0
 28 29  2  0
 28 30  1  0
 30 31  1  0
 31 32  1  0
 32 33  2  0
 32 34  1  0
 34 35  1  0
 35 36  1  0
 36 37  2  0
 34 38  1  0
 38 39  1  0
 39 40  2  0
 40 41  1  0
 41 42  2  0
 42 43  1  0
 30 44  1  0
 44 45  1  0
 45 46  2  0
 46 47  1  0
 47 48  2  0
 48 49  1  0
 49 50  2  0
 48 51  1  0
 51 52  2  0
 52 53  1  0
 53 54  2  0
 54 55  1  0
 55 56  2  0
 27 57  1  0
 57 58  1  0
 58 59  1  0
 22 60  1  0
 60 61  1  0
 61 62  2  0
 62 63  1  0
 63 64  2  0
 64 65  1  0
 64 66  1  0
 66 67  2  0
 67 68  1  0
 68 69  2  0
 18 70  1  0
 70 71  2  0
 70 72  1  0
  5 73  1  0
 73 74  1  0
 74 75  2  0
 74 76  1  0
 36  9  1  0
 43 39  1  0
 50 45  1  0
 56 51  1  0
 65 61  1  0
 59 26  1  0
 69 63  1  0
  1 77  1  0
  1 78  1  0
  1 79  1  0
  2 80  1  0
  2 81  1  0
  3 82  1  0
  3 83  1  0
  4 84  1  0
  4 85  1  0
  5 86  1  1
  8 87  1  0
  8 88  1  0
  9 89  1  6
 10 90  1  0
 10 91  1  0
 13 92  1  0
 14 93  1  0
 14 94  1  0
 15 95  1  0
 15 96  1  0
 16 97  1  0
 16 98  1  0
 17 99  1  0
 17100  1  0
 18101  1  6
 19102  1  0
 22103  1  1
 23104  1  0
 26105  1  1
 30106  1  6
 31107  1  0
 34108  1  1
 35109  1  0
 38110  1  0
 38111  1  0
 40112  1  0
 42113  1  0
 43114  1  0
 44115  1  0
 44116  1  0
 46117  1  0
 47118  1  0
 49119  1  0
 50120  1  0
 52121  1  0
 53122  1  0
 54123  1  0
 55124  1  0
 56125  1  0
 57126  1  0
 57127  1  0
 58128  1  0
 58129  1  0
 59130  1  0
 59131  1  0
 60132  1  0
 60133  1  0
 62134  1  0
 65135  1  0
 66136  1  0
 67137  1  0
 68138  1  0
 69139  1  0
 72140  1  0
 72141  1  0
 73142  1  0
 76143  1  0
 76144  1  0
 76145  1  0
M  END
>  <Ligand ID>  (1) 
LIG0004143

>  <Ligand>  (1) 
CHEMBL438118

>  <SMILES>  (1) 
CCCC[C@@H](C(=O)C[C@H]1CC(=O)NCCCC[C@H](NC(=O)[C@@H](NC(=O)[C@H]2N(C(=O)[C@H](NC(=O)[C@@H](NC1=O)Cc1cnc[nH]1)Cc1ccc(cc1)c1ccccc1)CCC2)Cc1cc2c([nH]1)cccc2)C(=O)N)NC(=O)C

>  <CID>  (1) 
44422999.0

>  <ChEMBL ID>  (1) 
nan

>  <InChiKey>  (1) 
ORPOIIFPKJKKPO-AGLBDDBTSA-N

>  <InChi>  (1) 
InChI=1S/C56H69N11O9/c1-3-4-16-43(61-34(2)68)49(69)28-39-29-50(70)59-24-11-10-18-44(51(57)71)63-53(73)45(30-40-27-38-15-8-9-17-42(38)62-40)65-55(75)48-19-12-25-67(48)56(76)47(26-35-20-22-37(23-21-35)36-13-6-5-7-14-36)66-54(74)46(64-52(39)72)31-41-32-58-33-60-41/h5-9,13-15,17,20-23,27,32-33,39,43-48,62H,3-4,10-12,16,18-19,24-26,28-31H2,1-2H3,(H2,57,71)(H,58,60)(H,59,70)(H,61,68)(H,63,73)(H,64,72)(H,65,75)(H,66,74)/t39-,43-,44-,45-,46-,47+,48-/m0/s1

>  <IUPAC Name>  (1) 
(3R,6S,9S,17S,20S,23S)-9-[(3S)-3-acetamido-2-oxoheptyl]-6-(1H-imidazol-5-ylmethyl)-20-(1H-indol-2-ylmethyl)-2,5,8,11,19,22-hexaoxo-3-[(4-phenylphenyl)methyl]-1,4,7,12,18,21-hexazabicyclo[21.3.0]hexacosane-17-carboxamide

$$$$
