
     RDKit          3D

 47 49  0  0  0  0  0  0  0  0999 V2000
   -3.9135    3.3249    0.9085 C   0  0  0  0  0  0  0  0  0  0  0  0
   -3.3675    1.9910    1.4262 C   0  0  1  0  0  0  0  0  0  0  0  0
   -4.3035    1.5122    2.5306 C   0  0  0  0  0  0  0  0  0  0  0  0
   -3.8669    0.3182    3.0358 F   0  0  0  0  0  0  0  0  0  0  0  0
   -5.5902    1.3911    2.0081 F   0  0  0  0  0  0  0  0  0  0  0  0
   -4.3729    2.4189    3.5613 F   0  0  0  0  0  0  0  0  0  0  0  0
   -3.3798    1.0493    0.3940 O   0  0  0  0  0  0  0  0  0  0  0  0
   -2.3083    0.3647   -0.1055 C   0  0  0  0  0  0  0  0  0  0  0  0
   -1.0107    0.4946    0.3364 C   0  0  0  0  0  0  0  0  0  0  0  0
    0.0513   -0.2104   -0.1876 C   0  0  0  0  0  0  0  0  0  0  0  0
   -0.2212   -1.0685   -1.1873 N   0  0  0  0  0  0  0  0  0  0  0  0
   -1.4753   -1.2368   -1.6610 C   0  0  0  0  0  0  0  0  0  0  0  0
   -2.5585   -0.5339   -1.1443 C   0  0  0  0  0  0  0  0  0  0  0  0
   -3.9151   -0.7082   -1.6516 C   0  0  0  0  0  0  0  0  0  0  0  0
   -4.9079   -1.6573   -1.1282 C   0  0  0  0  0  0  0  0  0  0  0  0
   -4.1602   -2.0452   -2.3624 C   0  0  0  0  0  0  0  0  0  0  0  0
    1.4087   -0.0153    0.3378 C   0  0  0  0  0  0  0  0  0  0  0  0
    1.5927    0.8102    1.2813 O   0  0  0  0  0  0  0  0  0  0  0  0
    2.4681   -0.7690   -0.2417 N   0  0  0  0  0  0  0  0  0  0  0  0
    3.8242   -0.6072    0.2454 C   0  0  0  0  0  0  0  0  0  0  0  0
    4.0310   -0.9298    1.6856 C   0  0  0  0  0  0  0  0  0  0  0  0
    4.1066    0.4472    1.9786 O   0  0  0  0  0  0  0  0  0  0  0  0
    4.2096    0.7899    0.6304 C   0  0  0  0  0  0  0  0  0  0  0  0
    4.7834   -1.3238   -0.6491 C   0  0  0  0  0  0  0  0  0  0  0  0
    6.1887   -1.2294   -0.2600 C   0  0  0  0  0  0  0  0  0  0  0  0
    6.7687   -1.9450    0.5922 O   0  0  0  0  0  0  0  0  0  0  0  0
    7.0031   -0.2292   -0.9015 N   0  0  0  0  0  0  0  0  0  0  0  0
   -4.8723    3.1854    0.3802 H   0  0  0  0  0  0  0  0  0  0  0  0
   -4.0573    4.0359    1.7408 H   0  0  0  0  0  0  0  0  0  0  0  0
   -3.1717    3.7631    0.1904 H   0  0  0  0  0  0  0  0  0  0  0  0
   -2.3864    2.1869    1.8828 H   0  0  0  0  0  0  0  0  0  0  0  0
   -0.7938    1.1787    1.1340 H   0  0  0  0  0  0  0  0  0  0  0  0
   -1.5933   -1.9430   -2.4602 H   0  0  0  0  0  0  0  0  0  0  0  0
   -4.2767    0.1712   -2.2440 H   0  0  0  0  0  0  0  0  0  0  0  0
   -4.7889   -2.1975   -0.1839 H   0  0  0  0  0  0  0  0  0  0  0  0
   -5.9833   -1.3806   -1.3171 H   0  0  0  0  0  0  0  0  0  0  0  0
   -3.4123   -2.8371   -2.3240 H   0  0  0  0  0  0  0  0  0  0  0  0
   -4.6856   -2.0210   -3.3529 H   0  0  0  0  0  0  0  0  0  0  0  0
    2.2279   -1.4407   -1.0294 H   0  0  0  0  0  0  0  0  0  0  0  0
    3.1735   -1.3704    2.2338 H   0  0  0  0  0  0  0  0  0  0  0  0
    4.9976   -1.3800    1.9793 H   0  0  0  0  0  0  0  0  0  0  0  0
    5.2872    1.0499    0.4160 H   0  0  0  0  0  0  0  0  0  0  0  0
    3.5809    1.5989    0.2632 H   0  0  0  0  0  0  0  0  0  0  0  0
    4.4205   -2.3791   -0.7214 H   0  0  0  0  0  0  0  0  0  0  0  0
    4.6595   -0.9157   -1.6858 H   0  0  0  0  0  0  0  0  0  0  0  0
    7.8414    0.1819   -0.4630 H   0  0  0  0  0  0  0  0  0  0  0  0
    6.7483    0.1102   -1.8609 H   0  0  0  0  0  0  0  0  0  0  0  0
  1  2  1  0
  2  3  1  0
  3  4  1  0
  3  5  1  0
  3  6  1  0
  2  7  1  0
  7  8  1  0
  8  9  2  0
  9 10  1  0
 10 11  2  0
 11 12  1  0
 12 13  2  0
 13 14  1  0
 14 15  1  0
 15 16  1  0
 10 17  1  0
 17 18  2  0
 17 19  1  0
 19 20  1  0
 20 21  1  0
 21 22  1  0
 22 23  1  0
 20 24  1  0
 24 25  1  0
 25 26  2  0
 25 27  1  0
 13  8  1  0
 16 14  1  0
 23 20  1  0
  1 28  1  0
  1 29  1  0
  1 30  1  0
  2 31  1  1
  9 32  1  0
 12 33  1  0
 14 34  1  0
 15 35  1  0
 15 36  1  0
 16 37  1  0
 16 38  1  0
 19 39  1  0
 21 40  1  0
 21 41  1  0
 23 42  1  0
 23 43  1  0
 24 44  1  0
 24 45  1  0
 27 46  1  0
 27 47  1  0
M  END
>  <Ligand ID>  (1) 
LIG0005191

>  <Ligand>  (1) 
CHEMBL3898725

>  <SMILES>  (1) 
C[C@@H](C(F)(F)F)Oc1cc(ncc1C1CC1)C(=O)NC1(COC1)CC(=O)N

>  <CID>  (1) 
90214919.0

>  <ChEMBL ID>  (1) 
nan

>  <InChiKey>  (1) 
APUABHWPSMMJPZ-VIFPVBQESA-N

>  <InChi>  (1) 
InChI=1S/C17H20F3N3O4/c1-9(17(18,19)20)27-13-4-12(22-6-11(13)10-2-3-10)15(25)23-16(5-14(21)24)7-26-8-16/h4,6,9-10H,2-3,5,7-8H2,1H3,(H2,21,24)(H,23,25)/t9-/m0/s1

>  <IUPAC Name>  (1) 
N-[3-(2-amino-2-oxoethyl)oxetan-3-yl]-5-cyclopropyl-4-[(2S)-1,1,1-trifluoropropan-2-yl]oxypyridine-2-carboxamide

$$$$
