
     RDKit          3D

 25 24  0  0  0  0  0  0  0  0999 V2000
   -3.7124    0.7301    0.0378 C   0  0  0  0  0  0  0  0  0  0  0  0
   -2.2471    0.6735   -0.4243 C   0  0  0  0  0  0  0  0  0  0  0  0
   -1.8230   -0.7494   -0.1985 C   0  0  0  0  0  0  0  0  0  0  0  0
   -0.4014   -0.9945   -0.6099 C   0  0  0  0  0  0  0  0  0  0  0  0
    0.5042   -0.1157    0.1888 C   0  0  0  0  0  0  0  0  0  0  0  0
    1.9361   -0.4132   -0.2604 C   0  0  0  0  0  0  0  0  0  0  0  0
    2.8146    0.5137    0.5893 C   0  0  0  0  0  0  0  0  0  0  0  0
    4.2178    0.2534    0.1808 C   0  0  0  0  0  0  0  0  0  0  0  0
    4.7496   -0.7602    0.6193 O   0  0  0  0  0  0  0  0  0  0  0  0
   -3.7329    0.3196    1.0620 H   0  0  0  0  0  0  0  0  0  0  0  0
   -4.0669    1.7604   -0.0112 H   0  0  0  0  0  0  0  0  0  0  0  0
   -4.2460    0.0236   -0.6357 H   0  0  0  0  0  0  0  0  0  0  0  0
   -1.6752    1.4002    0.1578 H   0  0  0  0  0  0  0  0  0  0  0  0
   -2.1865    0.9190   -1.5060 H   0  0  0  0  0  0  0  0  0  0  0  0
   -2.4748   -1.4709   -0.7506 H   0  0  0  0  0  0  0  0  0  0  0  0
   -1.9957   -0.9571    0.8736 H   0  0  0  0  0  0  0  0  0  0  0  0
   -0.0813   -2.0463   -0.4280 H   0  0  0  0  0  0  0  0  0  0  0  0
   -0.2511   -0.8268   -1.6964 H   0  0  0  0  0  0  0  0  0  0  0  0
    0.2718    0.9663    0.0223 H   0  0  0  0  0  0  0  0  0  0  0  0
    0.4180   -0.3726    1.2511 H   0  0  0  0  0  0  0  0  0  0  0  0
    1.9841   -0.1368   -1.3266 H   0  0  0  0  0  0  0  0  0  0  0  0
    2.1302   -1.4721   -0.0723 H   0  0  0  0  0  0  0  0  0  0  0  0
    2.4850    1.5448    0.3467 H   0  0  0  0  0  0  0  0  0  0  0  0
    2.6144    0.2958    1.6567 H   0  0  0  0  0  0  0  0  0  0  0  0
    4.7685    0.9152   -0.4750 H   0  0  0  0  0  0  0  0  0  0  0  0
  1  2  1  0
  2  3  1  0
  3  4  1  0
  4  5  1  0
  5  6  1  0
  6  7  1  0
  7  8  1  0
  8  9  2  0
  1 10  1  0
  1 11  1  0
  1 12  1  0
  2 13  1  0
  2 14  1  0
  3 15  1  0
  3 16  1  0
  4 17  1  0
  4 18  1  0
  5 19  1  0
  5 20  1  0
  6 21  1  0
  6 22  1  0
  7 23  1  0
  7 24  1  0
  8 25  1  0
M  END
>  <Ligand ID>  (1) 
LIG0000010

>  <Ligand>  (1) 
octyl aldehyde

>  <SMILES>  (1) 
CCCCCCCC=O

>  <CID>  (1) 
454.0

>  <ChEMBL ID>  (1) 
nan

>  <InChiKey>  (1) 
NUJGJRNETVAIRJ-UHFFFAOYSA-N

>  <InChi>  (1) 
InChI=1S/C8H16O/c1-2-3-4-5-6-7-8-9/h8H,2-7H2,1H3

>  <IUPAC Name>  (1) 
octanal

$$$$
