
     RDKit          3D

 42 45  0  0  0  0  0  0  0  0999 V2000
    6.4344    1.8632   -0.5167 C   0  0  0  0  0  0  0  0  0  0  0  0
    5.0979    1.2022   -0.3729 C   0  0  0  0  0  0  0  0  0  0  0  0
    3.9377    1.8391   -0.7006 C   0  0  0  0  0  0  0  0  0  0  0  0
    2.7027    1.1965   -0.5559 C   0  0  0  0  0  0  0  0  0  0  0  0
    2.6581   -0.0836   -0.0807 C   0  0  0  0  0  0  0  0  0  0  0  0
    3.8397   -0.7158    0.2469 C   0  0  0  0  0  0  0  0  0  0  0  0
    5.0466   -0.0780    0.1017 C   0  0  0  0  0  0  0  0  0  0  0  0
    1.4145   -0.7657    0.0781 N   0  0  0  0  0  0  0  0  0  0  0  0
    0.1908   -0.1994    0.0158 C   0  0  0  0  0  0  0  0  0  0  0  0
   -0.7003   -1.2315    0.2257 C   0  0  0  0  0  0  0  0  0  0  0  0
    0.0003   -2.4146    0.4131 C   0  0  0  0  0  0  0  0  0  0  0  0
    1.2896   -2.0778    0.3138 N   0  0  0  0  0  0  0  0  0  0  0  0
   -0.6656   -3.5959    0.6412 C   0  0  0  0  0  0  0  0  0  0  0  0
    0.0711   -4.8546    0.8408 C   0  0  0  0  0  0  0  0  0  0  0  0
   -2.0108   -3.5447    0.6725 N   0  0  0  0  0  0  0  0  0  0  0  0
   -2.6963   -2.4286    0.4966 N   0  0  0  0  0  0  0  0  0  0  0  0
   -2.0780   -1.2350    0.2678 C   0  0  0  0  0  0  0  0  0  0  0  0
   -2.9096   -0.0740    0.0870 C   0  0  0  0  0  0  0  0  0  0  0  0
   -4.0083   -0.1837   -0.7493 C   0  0  0  0  0  0  0  0  0  0  0  0
   -4.8730    0.8630   -0.9923 C   0  0  0  0  0  0  0  0  0  0  0  0
   -4.6603    2.0718   -0.3952 C   0  0  0  0  0  0  0  0  0  0  0  0
   -3.5694    2.2123    0.4468 C   0  0  0  0  0  0  0  0  0  0  0  0
   -2.6993    1.1481    0.6874 C   0  0  0  0  0  0  0  0  0  0  0  0
   -5.5822    3.2182   -0.6432 C   0  0  0  0  0  0  0  0  0  0  0  0
    6.2358    2.9509   -0.4906 H   0  0  0  0  0  0  0  0  0  0  0  0
    6.8568    1.5079   -1.4818 H   0  0  0  0  0  0  0  0  0  0  0  0
    7.0820    1.5544    0.3534 H   0  0  0  0  0  0  0  0  0  0  0  0
    3.9510    2.8530   -1.0786 H   0  0  0  0  0  0  0  0  0  0  0  0
    1.7845    1.7099   -0.8188 H   0  0  0  0  0  0  0  0  0  0  0  0
    3.8629   -1.7338    0.6293 H   0  0  0  0  0  0  0  0  0  0  0  0
    5.9721   -0.5705    0.3574 H   0  0  0  0  0  0  0  0  0  0  0  0
   -0.0493    0.8351   -0.1606 H   0  0  0  0  0  0  0  0  0  0  0  0
   -0.6461   -5.6149    1.2052 H   0  0  0  0  0  0  0  0  0  0  0  0
    0.8468   -4.7615    1.6490 H   0  0  0  0  0  0  0  0  0  0  0  0
    0.5266   -5.2601   -0.0891 H   0  0  0  0  0  0  0  0  0  0  0  0
   -4.2356   -1.1298   -1.2607 H   0  0  0  0  0  0  0  0  0  0  0  0
   -5.7162    0.7214   -1.6552 H   0  0  0  0  0  0  0  0  0  0  0  0
   -3.4176    3.1654    0.9061 H   0  0  0  0  0  0  0  0  0  0  0  0
   -1.8515    1.2669    1.3476 H   0  0  0  0  0  0  0  0  0  0  0  0
   -6.2584    2.9545   -1.4808 H   0  0  0  0  0  0  0  0  0  0  0  0
   -6.2038    3.3101    0.2813 H   0  0  0  0  0  0  0  0  0  0  0  0
   -4.9703    4.1095   -0.8164 H   0  0  0  0  0  0  0  0  0  0  0  0
  1  2  1  0
  2  3  2  0
  3  4  1  0
  4  5  2  0
  5  6  1  0
  6  7  2  0
  5  8  1  0
  8  9  1  0
  9 10  2  0
 10 11  1  0
 11 12  2  0
 11 13  1  0
 13 14  1  0
 13 15  2  0
 15 16  1  0
 16 17  2  0
 17 18  1  0
 18 19  2  0
 19 20  1  0
 20 21  2  0
 21 22  1  0
 22 23  2  0
 21 24  1  0
  7  2  1  0
 12  8  1  0
 23 18  1  0
 17 10  1  0
  1 25  1  0
  1 26  1  0
  1 27  1  0
  3 28  1  0
  4 29  1  0
  6 30  1  0
  7 31  1  0
  9 32  1  0
 14 33  1  0
 14 34  1  0
 14 35  1  0
 19 36  1  0
 20 37  1  0
 22 38  1  0
 23 39  1  0
 24 40  1  0
 24 41  1  0
 24 42  1  0
M  END
>  <Ligand ID>  (1) 
LIG0003811

>  <Ligand>  (1) 
MLS-0437175.0001

>  <SMILES>  (1) 
Cc1ccc(cc1)n1cc2c(n1)c(C)nnc2c1ccc(cc1)C

>  <CID>  (1) 
45917986.0

>  <ChEMBL ID>  (1) 
nan

>  <InChiKey>  (1) 
FTYRPHUIBDQVCC-UHFFFAOYSA-N

>  <InChi>  (1) 
InChI=1S/C20H18N4/c1-13-4-8-16(9-5-13)20-18-12-24(17-10-6-14(2)7-11-17)23-19(18)15(3)21-22-20/h4-12H,1-3H3

>  <IUPAC Name>  (1) 
7-methyl-2,4-bis(4-methylphenyl)pyrazolo[3,4-d]pyridazine

$$$$
