
     RDKit          3D

 68 71  0  0  0  0  0  0  0  0999 V2000
   -5.7379   -2.3107   -1.8761 O   0  0  0  0  0  0  0  0  0  0  0  0
   -5.2889   -2.8228   -0.7069 C   0  0  2  0  0  0  0  0  0  0  0  0
   -6.2171   -2.4700    0.4320 C   0  0  0  0  0  0  0  0  0  0  0  0
   -6.4166   -1.1780    0.7240 O   0  0  0  0  0  0  0  0  0  0  0  0
   -6.8885   -0.0232    0.2776 C   0  0  0  0  0  0  0  0  0  0  0  0
   -7.4842    0.2608   -0.9310 C   0  0  0  0  0  0  0  0  0  0  0  0
   -7.9389    1.5071   -1.2960 C   0  0  0  0  0  0  0  0  0  0  0  0
   -7.7957    2.5425   -0.4063 C   0  0  0  0  0  0  0  0  0  0  0  0
   -7.2115    2.3322    0.8177 C   0  0  0  0  0  0  0  0  0  0  0  0
   -6.7729    1.0881    1.1465 C   0  0  0  0  0  0  0  0  0  0  0  0
   -3.8598   -2.4626   -0.3788 C   0  0  0  0  0  0  0  0  0  0  0  0
   -3.5884   -1.0746   -0.2571 N   0  0  0  0  0  0  0  0  0  0  0  0
   -3.6655   -0.2958   -1.4476 C   0  0  0  0  0  0  0  0  0  0  0  0
   -3.3254    1.1421   -1.0973 C   0  0  0  0  0  0  0  0  0  0  0  0
   -1.9565    1.2644   -0.5303 C   0  0  0  0  0  0  0  0  0  0  0  0
   -0.9266    1.4731   -1.4291 C   0  0  0  0  0  0  0  0  0  0  0  0
    0.3863    1.6021   -1.0079 C   0  0  0  0  0  0  0  0  0  0  0  0
    0.6835    1.5224    0.3350 C   0  0  0  0  0  0  0  0  0  0  0  0
   -0.3559    1.3120    1.2397 C   0  0  0  0  0  0  0  0  0  0  0  0
   -1.6717    1.1836    0.8065 C   0  0  0  0  0  0  0  0  0  0  0  0
    1.9979    1.6420    0.8592 N   0  0  0  0  0  0  0  0  0  0  0  0
    2.8568    0.5044    1.0406 C   0  0  0  0  0  0  0  0  0  0  0  0
    2.4610   -0.6547    0.7333 O   0  0  0  0  0  0  0  0  0  0  0  0
    4.2446    0.6805    1.6016 C   0  0  0  0  0  0  0  0  0  0  0  0
    4.8888   -0.6307    1.6781 C   0  0  0  0  0  0  0  0  0  0  0  0
    4.8076   -1.4505    2.7617 N   0  0  0  0  0  0  0  0  0  0  0  0
    5.5080   -2.5669    2.4873 C   0  0  0  0  0  0  0  0  0  0  0  0
    6.0039   -2.3971    1.2290 C   0  0  0  0  0  0  0  0  0  0  0  0
    5.6248   -1.1955    0.7159 N   0  0  0  0  0  0  0  0  0  0  0  0
    6.0087   -0.7515   -0.5889 C   0  0  0  0  0  0  0  0  0  0  0  0
    7.2809   -0.0184   -0.6541 C   0  0  0  0  0  0  0  0  0  0  0  0
    8.4579   -0.7557   -0.8068 C   0  0  0  0  0  0  0  0  0  0  0  0
    9.6959   -0.1539   -0.8807 C   0  0  0  0  0  0  0  0  0  0  0  0
    9.7744    1.2306   -0.8007 C   0  0  0  0  0  0  0  0  0  0  0  0
    8.6364    1.9875   -0.6504 C   0  0  0  0  0  0  0  0  0  0  0  0
    7.4106    1.3493   -0.5799 C   0  0  0  0  0  0  0  0  0  0  0  0
   11.3287    2.0093   -0.8923 Cl  0  0  0  0  0  0  0  0  0  0  0  0
   -5.4994   -2.9250   -2.6121 H   0  0  0  0  0  0  0  0  0  0  0  0
   -5.2992   -3.9576   -0.7343 H   0  0  0  0  0  0  0  0  0  0  0  0
   -7.2324   -2.9559    0.2449 H   0  0  0  0  0  0  0  0  0  0  0  0
   -5.8440   -3.0601    1.3211 H   0  0  0  0  0  0  0  0  0  0  0  0
   -7.6310   -0.5280   -1.6513 H   0  0  0  0  0  0  0  0  0  0  0  0
   -8.4045    1.6830   -2.2671 H   0  0  0  0  0  0  0  0  0  0  0  0
   -8.1610    3.5098   -0.7185 H   0  0  0  0  0  0  0  0  0  0  0  0
   -7.0948    3.1556    1.5325 H   0  0  0  0  0  0  0  0  0  0  0  0
   -6.3149    0.9653    2.1293 H   0  0  0  0  0  0  0  0  0  0  0  0
   -3.6657   -2.9188    0.6275 H   0  0  0  0  0  0  0  0  0  0  0  0
   -3.1354   -2.9392   -1.0522 H   0  0  0  0  0  0  0  0  0  0  0  0
   -3.9455   -0.6202    0.5885 H   0  0  0  0  0  0  0  0  0  0  0  0
   -4.6938   -0.2338   -1.8997 H   0  0  0  0  0  0  0  0  0  0  0  0
   -3.0220   -0.6747   -2.2679 H   0  0  0  0  0  0  0  0  0  0  0  0
   -4.0339    1.4578   -0.2946 H   0  0  0  0  0  0  0  0  0  0  0  0
   -3.4721    1.8169   -1.9707 H   0  0  0  0  0  0  0  0  0  0  0  0
   -1.1043    1.5437   -2.4961 H   0  0  0  0  0  0  0  0  0  0  0  0
    1.2012    1.7656   -1.7026 H   0  0  0  0  0  0  0  0  0  0  0  0
   -0.1670    1.2431    2.3018 H   0  0  0  0  0  0  0  0  0  0  0  0
   -2.4712    1.0213    1.5161 H   0  0  0  0  0  0  0  0  0  0  0  0
    2.3475    2.5717    1.1178 H   0  0  0  0  0  0  0  0  0  0  0  0
    4.7860    1.4648    1.0791 H   0  0  0  0  0  0  0  0  0  0  0  0
    4.0731    1.0818    2.6435 H   0  0  0  0  0  0  0  0  0  0  0  0
    5.6420   -3.4279    3.1519 H   0  0  0  0  0  0  0  0  0  0  0  0
    6.6212   -3.1374    0.7164 H   0  0  0  0  0  0  0  0  0  0  0  0
    6.1130   -1.6555   -1.2563 H   0  0  0  0  0  0  0  0  0  0  0  0
    5.2232   -0.1455   -1.0914 H   0  0  0  0  0  0  0  0  0  0  0  0
    8.4300   -1.8407   -0.8726 H   0  0  0  0  0  0  0  0  0  0  0  0
   10.6096   -0.7207   -0.9990 H   0  0  0  0  0  0  0  0  0  0  0  0
    8.6611    3.0843   -0.5836 H   0  0  0  0  0  0  0  0  0  0  0  0
    6.5294    1.9548   -0.4648 H   0  0  0  0  0  0  0  0  0  0  0  0
  1  2  1  0
  2  3  1  0
  3  4  1  0
  4  5  1  0
  5  6  2  0
  6  7  1  0
  7  8  2  0
  8  9  1  0
  9 10  2  0
  2 11  1  0
 11 12  1  0
 12 13  1  0
 13 14  1  0
 14 15  1  0
 15 16  2  0
 16 17  1  0
 17 18  2  0
 18 19  1  0
 19 20  2  0
 18 21  1  0
 21 22  1  0
 22 23  2  0
 22 24  1  0
 24 25  1  0
 25 26  2  0
 26 27  1  0
 27 28  2  0
 28 29  1  0
 29 30  1  0
 30 31  1  0
 31 32  2  0
 32 33  1  0
 33 34  2  0
 34 35  1  0
 35 36  2  0
 34 37  1  0
 10  5  1  0
 20 15  1  0
 29 25  1  0
 36 31  1  0
  1 38  1  0
  2 39  1  6
  3 40  1  0
  3 41  1  0
  6 42  1  0
  7 43  1  0
  8 44  1  0
  9 45  1  0
 10 46  1  0
 11 47  1  0
 11 48  1  0
 12 49  1  0
 13 50  1  0
 13 51  1  0
 14 52  1  0
 14 53  1  0
 16 54  1  0
 17 55  1  0
 19 56  1  0
 20 57  1  0
 21 58  1  0
 24 59  1  0
 24 60  1  0
 27 61  1  0
 28 62  1  0
 30 63  1  0
 30 64  1  0
 32 65  1  0
 33 66  1  0
 35 67  1  0
 36 68  1  0
M  END
>  <Ligand ID>  (1) 
LIG0002727

>  <Ligand>  (1) 
CHEMBL467502

>  <SMILES>  (1) 
O[C@H](COc1ccccc1)CNCCc1ccc(cc1)NC(=O)Cc1nccn1Cc1ccc(cc1)Cl

>  <CID>  (1) 
44574827.0

>  <ChEMBL ID>  (1) 
nan

>  <InChiKey>  (1) 
PRRQGANLUANRHQ-SANMLTNESA-N

>  <InChi>  (1) 
InChI=1S/C29H31ClN4O3/c30-24-10-6-23(7-11-24)20-34-17-16-32-28(34)18-29(36)33-25-12-8-22(9-13-25)14-15-31-19-26(35)21-37-27-4-2-1-3-5-27/h1-13,16-17,26,31,35H,14-15,18-21H2,(H,33,36)/t26-/m0/s1

>  <IUPAC Name>  (1) 
2-[1-[(4-chlorophenyl)methyl]imidazol-2-yl]-N-[4-[2-[[(2S)-2-hydroxy-3-phenoxypropyl]amino]ethyl]phenyl]acetamide

$$$$
