
     RDKit          3D

 35 38  0  0  0  0  0  0  0  0999 V2000
    5.1545    1.2543   -0.6272 C   0  0  0  0  0  0  0  0  0  0  0  0
    4.7660    1.3201    0.7140 C   0  0  0  0  0  0  0  0  0  0  0  0
    3.5521    0.7596    1.1286 C   0  0  0  0  0  0  0  0  0  0  0  0
    2.7973    0.1621    0.1593 C   0  0  0  0  0  0  0  0  0  0  0  0
    3.2106    0.1147   -1.1567 C   0  0  0  0  0  0  0  0  0  0  0  0
    4.3886    0.6585   -1.5594 N   0  0  0  0  0  0  0  0  0  0  0  0
    1.5127   -0.4432    0.5379 C   0  0  0  0  0  0  0  0  0  0  0  0
    1.4379   -1.2362    1.6788 C   0  0  0  0  0  0  0  0  0  0  0  0
    0.2286   -1.8128    2.0452 C   0  0  0  0  0  0  0  0  0  0  0  0
   -0.8825   -1.5826    1.2597 C   0  0  0  0  0  0  0  0  0  0  0  0
   -0.8522   -0.8021    0.1194 C   0  0  0  0  0  0  0  0  0  0  0  0
    0.3742   -0.2461   -0.2097 C   0  0  0  0  0  0  0  0  0  0  0  0
    0.1817    0.5438   -1.4534 C   0  0  0  0  0  0  0  0  0  0  0  0
   -1.3092    0.9080   -1.3834 C   0  0  0  0  0  0  0  0  0  0  0  0
   -1.8735   -0.3979   -0.8871 C   0  0  0  0  0  0  0  0  0  0  0  0
   -3.2317   -0.3047   -0.3329 C   0  0  0  0  0  0  0  0  0  0  0  0
   -3.8640    0.7321    0.2217 N   0  0  0  0  0  0  0  0  0  0  0  0
   -5.1103    0.3882    0.6021 C   0  0  0  0  0  0  0  0  0  0  0  0
   -5.2321   -0.9516    0.2492 C   0  0  0  0  0  0  0  0  0  0  0  0
   -4.0874   -1.3689   -0.3190 N   0  0  0  0  0  0  0  0  0  0  0  0
    6.1028    1.6957   -0.9339 H   0  0  0  0  0  0  0  0  0  0  0  0
    5.4067    1.8053    1.4291 H   0  0  0  0  0  0  0  0  0  0  0  0
    3.2530    0.8093    2.1568 H   0  0  0  0  0  0  0  0  0  0  0  0
    2.6302   -0.3537   -1.9467 H   0  0  0  0  0  0  0  0  0  0  0  0
    2.3411   -1.4023    2.2863 H   0  0  0  0  0  0  0  0  0  0  0  0
    0.1775   -2.4325    2.9398 H   0  0  0  0  0  0  0  0  0  0  0  0
   -1.8217   -2.0395    1.5576 H   0  0  0  0  0  0  0  0  0  0  0  0
    0.2777   -0.0913   -2.3427 H   0  0  0  0  0  0  0  0  0  0  0  0
    0.8191    1.4333   -1.5185 H   0  0  0  0  0  0  0  0  0  0  0  0
   -1.6978    1.1875   -2.3821 H   0  0  0  0  0  0  0  0  0  0  0  0
   -1.4892    1.6597   -0.6112 H   0  0  0  0  0  0  0  0  0  0  0  0
   -1.8006   -1.1060   -1.7489 H   0  0  0  0  0  0  0  0  0  0  0  0
   -3.4264    1.6767    0.3341 H   0  0  0  0  0  0  0  0  0  0  0  0
   -5.8246    1.0366    1.0724 H   0  0  0  0  0  0  0  0  0  0  0  0
   -6.1092   -1.5742    0.4033 H   0  0  0  0  0  0  0  0  0  0  0  0
  1  2  2  0
  2  3  1  0
  3  4  2  0
  4  5  1  0
  5  6  2  0
  4  7  1  0
  7  8  2  0
  8  9  1  0
  9 10  2  0
 10 11  1  0
 11 12  2  0
 12 13  1  0
 13 14  1  0
 14 15  1  0
 15 16  1  0
 16 17  1  0
 17 18  1  0
 18 19  2  0
 19 20  1  0
  6  1  1  0
 12  7  1  0
 20 16  2  0
 15 11  1  0
  1 21  1  0
  2 22  1  0
  3 23  1  0
  5 24  1  0
  8 25  1  0
  9 26  1  0
 10 27  1  0
 13 28  1  0
 13 29  1  0
 14 30  1  0
 14 31  1  0
 15 32  1  0
 17 33  1  0
 18 34  1  0
 19 35  1  0
M  END
>  <Ligand ID>  (1) 
LIG0001340

>  <Ligand>  (1) 
CHEMBL260576

>  <SMILES>  (1) 
c1ccc(cn1)c1cccc2c1CCC2c1[nH]ccn1

>  <CID>  (1) 
44449691.0

>  <ChEMBL ID>  (1) 
nan

>  <InChiKey>  (1) 
DYDXENMSZODUFG-UHFFFAOYSA-N

>  <InChi>  (1) 
InChI=1S/C17H15N3/c1-4-13(12-3-2-8-18-11-12)15-6-7-16(14(15)5-1)17-19-9-10-20-17/h1-5,8-11,16H,6-7H2,(H,19,20)

>  <IUPAC Name>  (1) 
3-[1-(1H-imidazol-2-yl)-2,3-dihydro-1H-inden-4-yl]pyridine

$$$$
