
     RDKit          3D

 39 40  0  0  0  0  0  0  0  0999 V2000
   -4.8335   -0.0645    1.5016 C   0  0  0  0  0  0  0  0  0  0  0  0
   -4.2063   -0.5301    0.2114 C   0  0  0  0  0  0  0  0  0  0  0  0
   -3.0846    0.3395   -0.1708 N   0  0  0  0  0  0  0  0  0  0  0  0
   -1.7850   -0.2265   -0.3337 C   0  0  0  0  0  0  0  0  0  0  0  0
   -1.7186   -1.4623   -0.1276 O   0  0  0  0  0  0  0  0  0  0  0  0
   -0.6698    0.6240   -0.7112 C   0  0  0  0  0  0  0  0  0  0  0  0
   -0.8653    1.9759   -0.8981 C   0  0  0  0  0  0  0  0  0  0  0  0
    0.1774    2.8385   -1.2582 C   0  0  0  0  0  0  0  0  0  0  0  0
    1.4491    2.3561   -1.4397 C   0  0  0  0  0  0  0  0  0  0  0  0
    1.6462    1.0082   -1.2539 C   0  0  0  0  0  0  0  0  0  0  0  0
    0.6103    0.1379   -0.8936 C   0  0  0  0  0  0  0  0  0  0  0  0
    0.9504   -1.2280   -0.7527 N   0  0  0  0  0  0  0  0  0  0  0  0
    2.3397   -1.6762   -0.9447 C   0  0  0  0  0  0  0  0  0  0  0  0
    3.2408   -1.1367    0.1119 C   0  0  0  0  0  0  0  0  0  0  0  0
    2.9486   -0.4016    1.1379 N   0  0  0  0  0  0  0  0  0  0  0  0
    4.1320   -0.0985    1.9159 C   0  0  0  0  0  0  0  0  0  0  0  0
    5.2915   -0.5614    1.0589 C   0  0  0  0  0  0  0  0  0  0  0  0
    4.6512   -1.4077    0.1002 N   0  0  0  0  0  0  0  0  0  0  0  0
   -5.2783   -0.4598   -0.8828 C   0  0  0  0  0  0  0  0  0  0  0  0
   -4.8844    1.0460    1.5509 H   0  0  0  0  0  0  0  0  0  0  0  0
   -5.8697   -0.4260    1.5799 H   0  0  0  0  0  0  0  0  0  0  0  0
   -4.2627   -0.3958    2.3916 H   0  0  0  0  0  0  0  0  0  0  0  0
   -3.8691   -1.5561    0.3255 H   0  0  0  0  0  0  0  0  0  0  0  0
   -3.3227    1.3347   -0.2996 H   0  0  0  0  0  0  0  0  0  0  0  0
   -1.8216    2.4732   -0.7843 H   0  0  0  0  0  0  0  0  0  0  0  0
    0.0145    3.8920   -1.4016 H   0  0  0  0  0  0  0  0  0  0  0  0
    2.2387    3.0402   -1.7175 H   0  0  0  0  0  0  0  0  0  0  0  0
    2.6627    0.6541   -1.4133 H   0  0  0  0  0  0  0  0  0  0  0  0
    0.2965   -2.0002   -0.5167 H   0  0  0  0  0  0  0  0  0  0  0  0
    2.6386   -1.3028   -1.9673 H   0  0  0  0  0  0  0  0  0  0  0  0
    2.4391   -2.7702   -0.9152 H   0  0  0  0  0  0  0  0  0  0  0  0
    4.1790    0.9954    2.0742 H   0  0  0  0  0  0  0  0  0  0  0  0
    4.1315   -0.6642    2.8612 H   0  0  0  0  0  0  0  0  0  0  0  0
    5.8353    0.2673    0.5905 H   0  0  0  0  0  0  0  0  0  0  0  0
    6.0318   -1.1552    1.6407 H   0  0  0  0  0  0  0  0  0  0  0  0
    5.1547   -2.1001   -0.4963 H   0  0  0  0  0  0  0  0  0  0  0  0
   -4.7930   -0.5259   -1.8819 H   0  0  0  0  0  0  0  0  0  0  0  0
   -5.8388    0.4867   -0.8467 H   0  0  0  0  0  0  0  0  0  0  0  0
   -5.9563   -1.3204   -0.8242 H   0  0  0  0  0  0  0  0  0  0  0  0
  1  2  1  0
  2  3  1  0
  3  4  1  0
  4  5  2  0
  4  6  1  0
  6  7  2  0
  7  8  1  0
  8  9  2  0
  9 10  1  0
 10 11  2  0
 11 12  1  0
 12 13  1  0
 13 14  1  0
 14 15  2  0
 15 16  1  0
 16 17  1  0
 17 18  1  0
  2 19  1  0
 11  6  1  0
 18 14  1  0
  1 20  1  0
  1 21  1  0
  1 22  1  0
  2 23  1  0
  3 24  1  0
  7 25  1  0
  8 26  1  0
  9 27  1  0
 10 28  1  0
 12 29  1  0
 13 30  1  0
 13 31  1  0
 16 32  1  0
 16 33  1  0
 17 34  1  0
 17 35  1  0
 18 36  1  0
 19 37  1  0
 19 38  1  0
 19 39  1  0
M  END
>  <Ligand ID>  (1) 
LIG0003484

>  <Ligand>  (1) 
CHEMBL98016

>  <SMILES>  (1) 
CC(NC(=O)c1ccccc1NCC1=NCCN1)C

>  <CID>  (1) 
22493379.0

>  <ChEMBL ID>  (1) 
nan

>  <InChiKey>  (1) 
ZTVXUJSEZMDLLE-UHFFFAOYSA-N

>  <InChi>  (1) 
InChI=1S/C14H20N4O/c1-10(2)18-14(19)11-5-3-4-6-12(11)17-9-13-15-7-8-16-13/h3-6,10,17H,7-9H2,1-2H3,(H,15,16)(H,18,19)

>  <IUPAC Name>  (1) 
2-(4,5-dihydro-1H-imidazol-2-ylmethylamino)-N-propan-2-ylbenzamide

$$$$
