
     RDKit          3D

 39 40  0  0  0  0  0  0  0  0999 V2000
   -4.9894    0.2730   -1.0291 O   0  0  0  0  0  0  0  0  0  0  0  0
   -4.6091   -0.0031    0.3057 C   0  0  0  0  0  0  0  0  0  0  0  0
   -3.3980    0.8246    0.5655 C   0  0  0  0  0  0  0  0  0  0  0  0
   -2.8085    0.6960    1.9344 C   0  0  0  0  0  0  0  0  0  0  0  0
   -2.4075   -0.7418    2.1589 C   0  0  0  0  0  0  0  0  0  0  0  0
   -1.4136   -1.0388    1.1009 C   0  0  0  0  0  0  0  0  0  0  0  0
   -0.6026   -1.2886    0.2336 C   0  0  0  0  0  0  0  0  0  0  0  0
    0.3594   -1.6007   -0.7891 C   0  0  0  0  0  0  0  0  0  0  0  0
    0.1535   -2.7745   -1.5062 C   0  0  0  0  0  0  0  0  0  0  0  0
    1.0399   -3.1354   -2.5040 C   0  0  0  0  0  0  0  0  0  0  0  0
    2.1258   -2.3064   -2.7672 C   0  0  0  0  0  0  0  0  0  0  0  0
    2.3490   -1.1367   -2.0674 C   0  0  0  0  0  0  0  0  0  0  0  0
    1.4444   -0.7935   -1.0681 C   0  0  0  0  0  0  0  0  0  0  0  0
    1.5935    0.4405   -0.2591 C   0  0  1  0  0  0  0  0  0  0  0  0
    2.4361    0.2051    1.0180 C   0  0  0  0  0  0  0  0  0  0  0  0
    2.8800    1.1331   -0.0878 C   0  0  2  0  0  0  0  0  0  0  0  0
    2.8742    2.5856    0.2773 C   0  0  0  0  0  0  0  0  0  0  0  0
    4.1905    3.1657    0.4203 N   0  0  0  0  0  0  0  0  0  0  0  0
   -4.1321    0.3311   -1.5548 H   0  0  0  0  0  0  0  0  0  0  0  0
   -5.4375    0.3195    0.9674 H   0  0  0  0  0  0  0  0  0  0  0  0
   -4.4574   -1.0817    0.3408 H   0  0  0  0  0  0  0  0  0  0  0  0
   -2.5946    0.5900   -0.1686 H   0  0  0  0  0  0  0  0  0  0  0  0
   -3.6766    1.8926    0.3923 H   0  0  0  0  0  0  0  0  0  0  0  0
   -1.9387    1.3847    1.9699 H   0  0  0  0  0  0  0  0  0  0  0  0
   -3.5575    1.0488    2.6881 H   0  0  0  0  0  0  0  0  0  0  0  0
   -3.3323   -1.3430    2.0348 H   0  0  0  0  0  0  0  0  0  0  0  0
   -1.9632   -0.8662    3.1730 H   0  0  0  0  0  0  0  0  0  0  0  0
   -0.7113   -3.4097   -1.2778 H   0  0  0  0  0  0  0  0  0  0  0  0
    0.9114   -4.0437   -3.0841 H   0  0  0  0  0  0  0  0  0  0  0  0
    2.8299   -2.5720   -3.5438 H   0  0  0  0  0  0  0  0  0  0  0  0
    3.1906   -0.5077   -2.2815 H   0  0  0  0  0  0  0  0  0  0  0  0
    0.6932    1.0482   -0.0532 H   0  0  0  0  0  0  0  0  0  0  0  0
    3.0395   -0.7200    1.0789 H   0  0  0  0  0  0  0  0  0  0  0  0
    2.0708    0.5991    1.9692 H   0  0  0  0  0  0  0  0  0  0  0  0
    3.6934    0.8140   -0.7658 H   0  0  0  0  0  0  0  0  0  0  0  0
    2.3663    3.1387   -0.5499 H   0  0  0  0  0  0  0  0  0  0  0  0
    2.3593    2.7608    1.2546 H   0  0  0  0  0  0  0  0  0  0  0  0
    4.7490    3.1996   -0.4381 H   0  0  0  0  0  0  0  0  0  0  0  0
    4.6803    2.9127    1.2925 H   0  0  0  0  0  0  0  0  0  0  0  0
  1  2  1  0
  2  3  1  0
  3  4  1  0
  4  5  1  0
  5  6  1  0
  6  7  3  0
  7  8  1  0
  8  9  2  0
  9 10  1  0
 10 11  2  0
 11 12  1  0
 12 13  2  0
 13 14  1  0
 14 15  1  0
 15 16  1  0
 16 17  1  0
 17 18  1  0
 13  8  1  0
 16 14  1  0
  1 19  1  0
  2 20  1  0
  2 21  1  0
  3 22  1  0
  3 23  1  0
  4 24  1  0
  4 25  1  0
  5 26  1  0
  5 27  1  0
  9 28  1  0
 10 29  1  0
 11 30  1  0
 12 31  1  0
 14 32  1  1
 15 33  1  0
 15 34  1  0
 16 35  1  6
 17 36  1  0
 17 37  1  0
 18 38  1  0
 18 39  1  0
M  END
>  <Ligand ID>  (1) 
LIG0005676

>  <Ligand>  (1) 
CHEMBL474230

>  <SMILES>  (1) 
OCCCCC#Cc1ccccc1[C@H]1C[C@@H]1CN

>  <CID>  (1) 
44572367.0

>  <ChEMBL ID>  (1) 
nan

>  <InChiKey>  (1) 
HIXGWBZDILGYRT-ZBFHGGJFSA-N

>  <InChi>  (1) 
InChI=1S/C16H21NO/c17-12-14-11-16(14)15-9-5-4-8-13(15)7-3-1-2-6-10-18/h4-5,8-9,14,16,18H,1-2,6,10-12,17H2/t14-,16+/m1/s1

>  <IUPAC Name>  (1) 
6-[2-[(1S,2S)-2-(aminomethyl)cyclopropyl]phenyl]hex-5-yn-1-ol

$$$$
