
     RDKit          3D

 10  9  0  0  0  0  0  0  0  0999 V2000
   -1.0832   -0.1652    0.3343 C   0  0  0  0  0  0  0  0  0  0  0  0
    0.1334   -0.2394   -0.5378 C   0  0  0  0  0  0  0  0  0  0  0  0
    1.2533    0.5140    0.0485 C   0  0  0  0  0  0  0  0  0  0  0  0
    2.0934   -0.0779    0.7506 O   0  0  0  0  0  0  0  0  0  0  0  0
   -1.2803   -1.1630    0.7525 H   0  0  0  0  0  0  0  0  0  0  0  0
   -0.9196    0.5564    1.1798 H   0  0  0  0  0  0  0  0  0  0  0  0
   -1.9785    0.2431   -0.1953 H   0  0  0  0  0  0  0  0  0  0  0  0
    0.4843   -1.3052   -0.6722 H   0  0  0  0  0  0  0  0  0  0  0  0
   -0.1093    0.0762   -1.5774 H   0  0  0  0  0  0  0  0  0  0  0  0
    1.4066    1.5609   -0.0829 H   0  0  0  0  0  0  0  0  0  0  0  0
  1  2  1  0
  2  3  1  0
  3  4  2  0
  1  5  1  0
  1  6  1  0
  1  7  1  0
  2  8  1  0
  2  9  1  0
  3 10  1  0
M  END
>  <Ligand ID>  (1) 
LIG0000120

>  <Ligand>  (1) 
Propionaldehyde

>  <SMILES>  (1) 
CCC=O

>  <CID>  (1) 
527.0

>  <ChEMBL ID>  (1) 
nan

>  <InChiKey>  (1) 
NBBJYMSMWIIQGU-UHFFFAOYSA-N

>  <InChi>  (1) 
InChI=1S/C3H6O/c1-2-3-4/h3H,2H2,1H3

>  <IUPAC Name>  (1) 
propanal

$$$$
