
     RDKit          3D

 44 47  0  0  0  0  0  0  0  0999 V2000
    4.5687   -0.7259    1.3110 O   0  0  0  0  0  0  0  0  0  0  0  0
    4.6210    0.6207    0.9733 C   0  0  0  0  0  0  0  0  0  0  0  0
    3.7994    1.0249   -0.1836 C   0  0  0  0  0  0  0  0  0  0  0  0
    2.3931    0.8168   -0.1071 N   0  0  0  0  0  0  0  0  0  0  0  0
    1.7525   -0.4397    0.0482 C   0  0  0  0  0  0  0  0  0  0  0  0
    2.3783   -1.5013    0.1319 O   0  0  0  0  0  0  0  0  0  0  0  0
    0.2840   -0.5169    0.1157 C   0  0  0  0  0  0  0  0  0  0  0  0
   -0.5783    0.5220    0.0439 N   0  0  0  0  0  0  0  0  0  0  0  0
   -1.8336    0.1201    0.1361 N   0  0  0  0  0  0  0  0  0  0  0  0
   -1.8204   -1.2122    0.2726 C   0  0  0  0  0  0  0  0  0  0  0  0
   -0.5063   -1.6363    0.2629 C   0  0  0  0  0  0  0  0  0  0  0  0
   -0.4311   -3.1134    0.4118 C   0  0  0  0  0  0  0  0  0  0  0  0
   -1.8576   -3.5762    0.3875 C   0  0  1  0  0  0  0  0  0  0  0  0
   -2.7386   -2.3658    0.4286 C   0  0  2  0  0  0  0  0  0  0  0  0
   -2.7762   -3.2996   -0.7371 C   0  0  0  0  0  0  0  0  0  0  0  0
   -2.9672    0.9915    0.0925 C   0  0  0  0  0  0  0  0  0  0  0  0
   -3.6696    1.3290    1.2376 C   0  0  0  0  0  0  0  0  0  0  0  0
   -4.7678    2.1748    1.1860 C   0  0  0  0  0  0  0  0  0  0  0  0
   -5.1326    2.6656   -0.0462 C   0  0  0  0  0  0  0  0  0  0  0  0
   -4.4381    2.3360   -1.2025 C   0  0  0  0  0  0  0  0  0  0  0  0
   -3.3497    1.4961   -1.1420 C   0  0  0  0  0  0  0  0  0  0  0  0
   -2.6766    1.1779   -2.2693 F   0  0  0  0  0  0  0  0  0  0  0  0
   -6.1917    3.5003   -0.2063 F   0  0  0  0  0  0  0  0  0  0  0  0
    4.2837    0.2512   -1.4032 C   0  0  0  0  0  0  0  0  0  0  0  0
    4.0599    2.4827   -0.4889 C   0  0  0  0  0  0  0  0  0  0  0  0
    5.2660   -1.2523    0.8819 H   0  0  0  0  0  0  0  0  0  0  0  0
    4.4953    1.2800    1.8628 H   0  0  0  0  0  0  0  0  0  0  0  0
    5.6917    0.7914    0.6755 H   0  0  0  0  0  0  0  0  0  0  0  0
    1.7285    1.6500   -0.1670 H   0  0  0  0  0  0  0  0  0  0  0  0
    0.1325   -3.5944   -0.4206 H   0  0  0  0  0  0  0  0  0  0  0  0
    0.0157   -3.3546    1.3808 H   0  0  0  0  0  0  0  0  0  0  0  0
   -2.0939   -4.4316    1.0559 H   0  0  0  0  0  0  0  0  0  0  0  0
   -3.5589   -2.3162    1.1585 H   0  0  0  0  0  0  0  0  0  0  0  0
   -2.3806   -2.9299   -1.7075 H   0  0  0  0  0  0  0  0  0  0  0  0
   -3.6531   -3.9554   -0.8260 H   0  0  0  0  0  0  0  0  0  0  0  0
   -3.3573    0.9280    2.1819 H   0  0  0  0  0  0  0  0  0  0  0  0
   -5.3402    2.4625    2.0460 H   0  0  0  0  0  0  0  0  0  0  0  0
   -4.7304    2.7253   -2.1670 H   0  0  0  0  0  0  0  0  0  0  0  0
    5.1680    0.7831   -1.8079 H   0  0  0  0  0  0  0  0  0  0  0  0
    3.4959    0.3065   -2.1651 H   0  0  0  0  0  0  0  0  0  0  0  0
    4.4894   -0.7889   -1.0833 H   0  0  0  0  0  0  0  0  0  0  0  0
    4.8415    2.6219   -1.2672 H   0  0  0  0  0  0  0  0  0  0  0  0
    3.1259    2.9384   -0.9308 H   0  0  0  0  0  0  0  0  0  0  0  0
    4.2588    3.0139    0.4442 H   0  0  0  0  0  0  0  0  0  0  0  0
  1  2  1  0
  2  3  1  0
  3  4  1  0
  4  5  1  0
  5  6  2  0
  5  7  1  0
  7  8  2  0
  8  9  1  0
  9 10  1  0
 10 11  2  0
 11 12  1  0
 12 13  1  0
 13 14  1  0
 14 15  1  0
  9 16  1  0
 16 17  2  0
 17 18  1  0
 18 19  2  0
 19 20  1  0
 20 21  2  0
 21 22  1  0
 19 23  1  0
  3 24  1  0
  3 25  1  0
 11  7  1  0
 15 13  1  0
 21 16  1  0
 14 10  1  0
  1 26  1  0
  2 27  1  0
  2 28  1  0
  4 29  1  0
 12 30  1  0
 12 31  1  0
 13 32  1  1
 14 33  1  1
 15 34  1  0
 15 35  1  0
 17 36  1  0
 18 37  1  0
 20 38  1  0
 24 39  1  0
 24 40  1  0
 24 41  1  0
 25 42  1  0
 25 43  1  0
 25 44  1  0
M  END
>  <Ligand ID>  (1) 
LIG0001501

>  <Ligand>  (1) 
CHEMBL3354963

>  <SMILES>  (1) 
OCC(NC(=O)c1nn(c2c1C[C@H]1[C@@H]2C1)c1ccc(cc1F)F)(C)C

>  <CID>  (1) 
118720572.0

>  <ChEMBL ID>  (1) 
nan

>  <InChiKey>  (1) 
NORCYAGQZVMECV-ONGXEEELSA-N

>  <InChi>  (1) 
InChI=1S/C18H19F2N3O2/c1-18(2,8-24)21-17(25)15-12-6-9-5-11(9)16(12)23(22-15)14-4-3-10(19)7-13(14)20/h3-4,7,9,11,24H,5-6,8H2,1-2H3,(H,21,25)/t9-,11-/m0/s1

>  <IUPAC Name>  (1) 
(2S,4S)-9-(2,4-difluorophenyl)-N-(1-hydroxy-2-methylpropan-2-yl)-8,9-diazatricyclo[4.3.0.02,4]nona-1(6),7-diene-7-carboxamide

$$$$
