
     RDKit          3D

136138  0  0  0  0  0  0  0  0999 V2000
  -10.6065    0.0882   -0.5560 C   0  0  0  0  0  0  0  0  0  0  0  0
   -9.4986   -0.6251    0.2265 C   0  0  0  0  0  0  0  0  0  0  0  0
   -8.4104   -1.1066   -0.6671 C   0  0  1  0  0  0  0  0  0  0  0  0
   -7.2833   -1.8136    0.0200 C   0  0  2  0  0  0  0  0  0  0  0  0
   -6.5207   -1.0546    0.9642 N   0  0  0  0  0  0  0  0  0  0  0  0
   -6.2601    0.3221    1.0698 C   0  0  0  0  0  0  0  0  0  0  0  0
   -6.7734    1.0765    0.2652 O   0  0  0  0  0  0  0  0  0  0  0  0
   -5.3368    0.7289    2.1957 C   0  0  1  0  0  0  0  0  0  0  0  0
   -4.8539    2.0575    2.1085 N   0  0  0  0  0  0  0  0  0  0  0  0
   -3.5295    2.2992    1.5530 C   0  0  0  0  0  0  0  0  0  0  0  0
   -2.9665    1.3059    1.1098 O   0  0  0  0  0  0  0  0  0  0  0  0
   -2.8956    3.6220    1.5069 C   0  0  1  0  0  0  0  0  0  0  0  0
   -3.4884    4.5544    2.4282 N   0  0  0  0  0  0  0  0  0  0  0  0
   -1.4228    3.4903    1.8019 C   0  0  0  0  0  0  0  0  0  0  0  0
   -1.1129    2.5915    3.3241 S   0  0  0  0  0  0  0  0  0  0  0  0
   -1.4047    0.5177    3.1884 S   0  0  0  0  0  0  0  0  0  0  0  0
    0.0841   -0.3563    2.7994 C   0  0  0  0  0  0  0  0  0  0  0  0
    0.7080   -0.1175    1.4743 C   0  0  2  0  0  0  0  0  0  0  0  0
   -0.0583   -0.4998    0.3187 N   0  0  0  0  0  0  0  0  0  0  0  0
   -0.0695    0.3896   -0.8255 C   0  0  0  0  0  0  0  0  0  0  0  0
    0.6270    1.4059   -0.6885 O   0  0  0  0  0  0  0  0  0  0  0  0
   -0.8004    0.1880   -2.0700 C   0  0  1  0  0  0  0  0  0  0  0  0
   -1.6408   -0.9909   -2.1389 N   0  0  0  0  0  0  0  0  0  0  0  0
   -3.0331   -0.9919   -1.9080 C   0  0  0  0  0  0  0  0  0  0  0  0
   -3.4973    0.1207   -1.5550 O   0  0  0  0  0  0  0  0  0  0  0  0
   -3.9938   -2.0918   -2.0066 C   0  0  1  0  0  0  0  0  0  0  0  0
   -5.1461   -1.6879   -1.2182 N   0  0  0  0  0  0  0  0  0  0  0  0
   -6.3424   -2.3989   -1.0114 C   0  0  0  0  0  0  0  0  0  0  0  0
   -6.5360   -3.4034   -1.6701 O   0  0  0  0  0  0  0  0  0  0  0  0
   -4.3961   -2.2398   -3.4747 C   0  0  0  0  0  0  0  0  0  0  0  0
   -5.0455   -1.0337   -3.9970 C   0  0  0  0  0  0  0  0  0  0  0  0
   -5.3069    0.0057   -3.3546 O   0  0  0  0  0  0  0  0  0  0  0  0
   -5.4212   -1.0361   -5.3764 N   0  0  0  0  0  0  0  0  0  0  0  0
   -1.5646    1.4843   -2.3863 C   0  0  0  0  0  0  0  0  0  0  0  0
   -2.3130    1.3914   -3.6260 C   0  0  0  0  0  0  0  0  0  0  0  0
   -3.1403    2.3070   -3.9059 O   0  0  0  0  0  0  0  0  0  0  0  0
   -2.1451    0.3085   -4.5343 N   0  0  0  0  0  0  0  0  0  0  0  0
    2.1223   -0.6071    1.4601 C   0  0  0  0  0  0  0  0  0  0  0  0
    2.8454   -0.0535    2.3822 O   0  0  0  0  0  0  0  0  0  0  0  0
    2.6955   -1.5626    0.5772 N   0  0  0  0  0  0  0  0  0  0  0  0
    2.1000   -2.3807   -0.4433 C   0  0  0  0  0  0  0  0  0  0  0  0
    3.3056   -2.7918   -1.2933 C   0  0  0  0  0  0  0  0  0  0  0  0
    4.4411   -2.8494   -0.3250 C   0  0  0  0  0  0  0  0  0  0  0  0
    4.1618   -1.7651    0.6402 C   0  0  1  0  0  0  0  0  0  0  0  0
    4.8242   -0.4883    0.2570 C   0  0  0  0  0  0  0  0  0  0  0  0
    4.0349    0.4889    0.0533 O   0  0  0  0  0  0  0  0  0  0  0  0
    6.2520   -0.3437    0.1204 N   0  0  0  0  0  0  0  0  0  0  0  0
    6.7340    0.9375   -0.2404 C   0  0  2  0  0  0  0  0  0  0  0  0
    7.3409    0.8277   -1.6251 C   0  0  0  0  0  0  0  0  0  0  0  0
    7.8061    1.8841   -2.1331 O   0  0  0  0  0  0  0  0  0  0  0  0
    7.3994   -0.3771   -2.3418 N   0  0  0  0  0  0  0  0  0  0  0  0
    7.9869   -0.3795   -3.6508 C   0  0  0  0  0  0  0  0  0  0  0  0
    9.4000    0.0590   -3.6870 C   0  0  0  0  0  0  0  0  0  0  0  0
   10.0584    0.4058   -2.6744 O   0  0  0  0  0  0  0  0  0  0  0  0
   10.0414    0.0857   -4.9551 N   0  0  0  0  0  0  0  0  0  0  0  0
    7.7164    1.6407    0.5903 C   0  0  0  0  0  0  0  0  0  0  0  0
    9.0742    1.1328    0.8396 C   0  0  0  0  0  0  0  0  0  0  0  0
    9.2500   -0.1878    1.4944 C   0  0  0  0  0  0  0  0  0  0  0  0
   10.5680   -0.6357    1.7531 N   0  0  0  0  0  0  0  0  0  0  0  0
   11.3943   -0.0217    2.6947 C   0  0  0  0  0  0  0  0  0  0  0  0
   11.9213    1.3517    2.3666 C   0  0  0  0  0  0  0  0  0  0  0  0
   10.7772    0.0902    4.0826 C   0  0  0  0  0  0  0  0  0  0  0  0
   -5.9474    0.3798    3.5234 C   0  0  0  0  0  0  0  0  0  0  0  0
   -7.2146    1.0664    3.7634 C   0  0  0  0  0  0  0  0  0  0  0  0
   -8.0657    0.9983    4.8250 C   0  0  0  0  0  0  0  0  0  0  0  0
   -9.1841    1.7175    4.8405 C   0  0  0  0  0  0  0  0  0  0  0  0
   -9.4122    2.5289    3.7095 C   0  0  0  0  0  0  0  0  0  0  0  0
   -7.9716    2.2195    2.6376 S   0  0  0  0  0  0  0  0  0  0  0  0
   -9.0205   -2.1102   -1.6436 C   0  0  0  0  0  0  0  0  0  0  0  0
  -10.1740    0.7803   -1.3041 H   0  0  0  0  0  0  0  0  0  0  0  0
  -11.3386   -0.6110   -0.9747 H   0  0  0  0  0  0  0  0  0  0  0  0
  -11.1408    0.7280    0.1741 H   0  0  0  0  0  0  0  0  0  0  0  0
   -9.9759   -1.5168    0.7063 H   0  0  0  0  0  0  0  0  0  0  0  0
   -9.1226    0.0878    0.9620 H   0  0  0  0  0  0  0  0  0  0  0  0
   -8.0619   -0.2685   -1.3116 H   0  0  0  0  0  0  0  0  0  0  0  0
   -7.7922   -2.6373    0.5884 H   0  0  0  0  0  0  0  0  0  0  0  0
   -6.0617   -1.6349    1.7283 H   0  0  0  0  0  0  0  0  0  0  0  0
   -4.4728    0.0379    2.0466 H   0  0  0  0  0  0  0  0  0  0  0  0
   -5.3239    2.9197    2.3921 H   0  0  0  0  0  0  0  0  0  0  0  0
   -3.0231    4.0645    0.4579 H   0  0  0  0  0  0  0  0  0  0  0  0
   -4.2837    5.0150    1.9699 H   0  0  0  0  0  0  0  0  0  0  0  0
   -3.7661    4.0203    3.2875 H   0  0  0  0  0  0  0  0  0  0  0  0
   -0.8969    4.4665    1.7629 H   0  0  0  0  0  0  0  0  0  0  0  0
   -0.9562    2.8727    0.9771 H   0  0  0  0  0  0  0  0  0  0  0  0
    0.8982   -0.1961    3.5631 H   0  0  0  0  0  0  0  0  0  0  0  0
   -0.1321   -1.4703    2.8568 H   0  0  0  0  0  0  0  0  0  0  0  0
    0.8641    1.0187    1.3982 H   0  0  0  0  0  0  0  0  0  0  0  0
   -0.6188   -1.3370    0.1867 H   0  0  0  0  0  0  0  0  0  0  0  0
   -0.1378    0.0956   -2.9930 H   0  0  0  0  0  0  0  0  0  0  0  0
   -1.2288   -1.8995   -2.3656 H   0  0  0  0  0  0  0  0  0  0  0  0
   -3.5806   -3.0669   -1.7516 H   0  0  0  0  0  0  0  0  0  0  0  0
   -5.0879   -0.7680   -0.7590 H   0  0  0  0  0  0  0  0  0  0  0  0
   -4.9711   -3.1745   -3.6377 H   0  0  0  0  0  0  0  0  0  0  0  0
   -3.4344   -2.3716   -4.0266 H   0  0  0  0  0  0  0  0  0  0  0  0
   -6.3857   -0.7872   -5.7031 H   0  0  0  0  0  0  0  0  0  0  0  0
   -4.6875   -1.3002   -6.0682 H   0  0  0  0  0  0  0  0  0  0  0  0
   -0.7125    2.2236   -2.5803 H   0  0  0  0  0  0  0  0  0  0  0  0
   -2.0891    1.8387   -1.5132 H   0  0  0  0  0  0  0  0  0  0  0  0
   -2.7831    0.2340   -5.3832 H   0  0  0  0  0  0  0  0  0  0  0  0
   -1.4421   -0.4350   -4.4474 H   0  0  0  0  0  0  0  0  0  0  0  0
    1.7917   -3.3397    0.0562 H   0  0  0  0  0  0  0  0  0  0  0  0
    1.3189   -1.9473   -1.0478 H   0  0  0  0  0  0  0  0  0  0  0  0
    3.4312   -2.1154   -2.1341 H   0  0  0  0  0  0  0  0  0  0  0  0
    3.1424   -3.8186   -1.7095 H   0  0  0  0  0  0  0  0  0  0  0  0
    4.5447   -3.8456    0.1620 H   0  0  0  0  0  0  0  0  0  0  0  0
    5.3848   -2.5848   -0.8798 H   0  0  0  0  0  0  0  0  0  0  0  0
    4.3825   -2.0309    1.6953 H   0  0  0  0  0  0  0  0  0  0  0  0
    6.7731   -1.2208    0.2961 H   0  0  0  0  0  0  0  0  0  0  0  0
    5.8218    1.5890   -0.4255 H   0  0  0  0  0  0  0  0  0  0  0  0
    7.0244   -1.2338   -1.9191 H   0  0  0  0  0  0  0  0  0  0  0  0
    7.3554    0.2097   -4.3782 H   0  0  0  0  0  0  0  0  0  0  0  0
    7.9525   -1.4209   -4.0614 H   0  0  0  0  0  0  0  0  0  0  0  0
   10.9739   -0.3131   -5.1483 H   0  0  0  0  0  0  0  0  0  0  0  0
    9.5137    0.5476   -5.7302 H   0  0  0  0  0  0  0  0  0  0  0  0
    7.2726    1.8568    1.6294 H   0  0  0  0  0  0  0  0  0  0  0  0
    7.8278    2.6838    0.1159 H   0  0  0  0  0  0  0  0  0  0  0  0
    9.7418    1.1936   -0.0628 H   0  0  0  0  0  0  0  0  0  0  0  0
    9.5888    1.8828    1.5453 H   0  0  0  0  0  0  0  0  0  0  0  0
    8.8706   -0.9430    0.7114 H   0  0  0  0  0  0  0  0  0  0  0  0
    8.5309   -0.3230    2.3222 H   0  0  0  0  0  0  0  0  0  0  0  0
   10.6665   -1.6672    1.6531 H   0  0  0  0  0  0  0  0  0  0  0  0
   12.3078   -0.6807    2.8705 H   0  0  0  0  0  0  0  0  0  0  0  0
   13.0269    1.4172    2.6405 H   0  0  0  0  0  0  0  0  0  0  0  0
   11.4225    2.1629    2.9377 H   0  0  0  0  0  0  0  0  0  0  0  0
   11.8819    1.6017    1.2964 H   0  0  0  0  0  0  0  0  0  0  0  0
   10.3475   -0.8692    4.4330 H   0  0  0  0  0  0  0  0  0  0  0  0
   11.6213    0.3275    4.7628 H   0  0  0  0  0  0  0  0  0  0  0  0
   10.0747    0.9399    4.1346 H   0  0  0  0  0  0  0  0  0  0  0  0
   -5.2043    0.5626    4.3243 H   0  0  0  0  0  0  0  0  0  0  0  0
   -6.1381   -0.7097    3.5143 H   0  0  0  0  0  0  0  0  0  0  0  0
   -7.7977    0.3193    5.6829 H   0  0  0  0  0  0  0  0  0  0  0  0
   -9.9241    1.7296    5.6423 H   0  0  0  0  0  0  0  0  0  0  0  0
  -10.2638    3.2241    3.4696 H   0  0  0  0  0  0  0  0  0  0  0  0
  -10.0141   -1.7675   -1.9955 H   0  0  0  0  0  0  0  0  0  0  0  0
   -8.3312   -2.1705   -2.5147 H   0  0  0  0  0  0  0  0  0  0  0  0
   -9.0388   -3.0815   -1.1096 H   0  0  0  0  0  0  0  0  0  0  0  0
  1  2  1  0
  2  3  1  0
  3  4  1  0
  4  5  1  0
  5  6  1  0
  6  7  2  0
  6  8  1  0
  8  9  1  0
  9 10  1  0
 10 11  2  0
 10 12  1  0
 12 13  1  0
 12 14  1  0
 14 15  1  0
 15 16  1  0
 16 17  1  0
 17 18  1  0
 18 19  1  0
 19 20  1  0
 20 21  2  0
 20 22  1  0
 22 23  1  0
 23 24  1  0
 24 25  2  0
 24 26  1  0
 26 27  1  0
 27 28  1  0
 28 29  2  0
 26 30  1  0
 30 31  1  0
 31 32  2  0
 31 33  1  0
 22 34  1  0
 34 35  1  0
 35 36  2  0
 35 37  1  0
 18 38  1  0
 38 39  2  0
 38 40  1  0
 40 41  1  0
 41 42  1  0
 42 43  1  0
 43 44  1  0
 44 45  1  0
 45 46  2  0
 45 47  1  0
 47 48  1  0
 48 49  1  0
 49 50  2  0
 49 51  1  0
 51 52  1  0
 52 53  1  0
 53 54  2  0
 53 55  1  0
 48 56  1  0
 56 57  1  0
 57 58  1  0
 58 59  1  0
 59 60  1  0
 60 61  1  0
 60 62  1  0
  8 63  1  0
 63 64  1  0
 64 65  2  0
 65 66  1  0
 66 67  2  0
 67 68  1  0
  3 69  1  0
 28  4  1  0
 44 40  1  0
 68 64  1  0
  1 70  1  0
  1 71  1  0
  1 72  1  0
  2 73  1  0
  2 74  1  0
  3 75  1  6
  4 76  1  1
  5 77  1  0
  8 78  1  6
  9 79  1  0
 12 80  1  6
 13 81  1  0
 13 82  1  0
 14 83  1  0
 14 84  1  0
 17 85  1  0
 17 86  1  0
 18 87  1  6
 19 88  1  0
 22 89  1  6
 23 90  1  0
 26 91  1  1
 27 92  1  0
 30 93  1  0
 30 94  1  0
 33 95  1  0
 33 96  1  0
 34 97  1  0
 34 98  1  0
 37 99  1  0
 37100  1  0
 41101  1  0
 41102  1  0
 42103  1  0
 42104  1  0
 43105  1  0
 43106  1  0
 44107  1  1
 47108  1  0
 48109  1  6
 51110  1  0
 52111  1  0
 52112  1  0
 55113  1  0
 55114  1  0
 56115  1  0
 56116  1  0
 57117  1  0
 57118  1  0
 58119  1  0
 58120  1  0
 59121  1  0
 60122  1  0
 61123  1  0
 61124  1  0
 61125  1  0
 62126  1  0
 62127  1  0
 62128  1  0
 63129  1  0
 63130  1  0
 65131  1  0
 66132  1  0
 67133  1  0
 69134  1  0
 69135  1  0
 69136  1  0
M  END
>  <Ligand ID>  (1) 
LIG0001611

>  <Ligand>  (1) 
CHEMBL1817763

>  <SMILES>  (1) 
CC[C@@H]([C@@H]1NC(=O)[C@@H](NC(=O)[C@@H](N)CSSC[C@H](NC(=O)[C@@H](NC(=O)[C@@H](NC1=O)CC(=O)N)CC(=O)N)C(=O)N1CCC[C@H]1C(=O)N[C@H](C(=O)NCC(=O)N)CCCNC(C)C)Cc1cccs1)C

>  <CID>  (1) 
53362798.0

>  <ChEMBL ID>  (1) 
nan

>  <InChiKey>  (1) 
IOHDHCMWELOJGO-OVCMMVBBSA-N

>  <InChi>  (1) 
InChI=1S/C42H67N13O11S3/c1-5-22(4)34-41(65)52-28(17-32(45)57)37(61)51-27(16-31(44)56)38(62)53-29(20-69-68-19-24(43)35(59)50-26(39(63)54-34)15-23-9-8-14-67-23)42(66)55-13-7-11-30(55)40(64)49-25(10-6-12-47-21(2)3)36(60)48-18-33(46)58/h8-9,14,21-22,24-30,34,47H,5-7,10-13,15-20,43H2,1-4H3,(H2,44,56)(H2,45,57)(H2,46,58)(H,48,60)(H,49,64)(H,50,59)(H,51,61)(H,52,65)(H,53,62)(H,54,63)/t22-,24-,25-,26-,27-,28-,29-,30-,34-/m0/s1

>  <IUPAC Name>  (1) 
(2S)-1-[(4R,7S,10S,13S,16S,19R)-19-amino-7,10-bis(2-amino-2-oxoethyl)-13-[(2S)-butan-2-yl]-6,9,12,15,18-pentaoxo-16-(thiophen-2-ylmethyl)-1,2-dithia-5,8,11,14,17-pentazacycloicosane-4-carbonyl]-N-[(2S)-1-[(2-amino-2-oxoethyl)amino]-1-oxo-5-(propan-2-ylamino)pentan-2-yl]pyrrolidine-2-carboxamide

$$$$
