
     RDKit          3D

 23 24  0  0  0  0  0  0  0  0999 V2000
    0.5496    1.1943    1.0819 O   0  0  0  0  0  0  0  0  0  0  0  0
    1.0594    0.3904    0.2700 C   0  0  0  0  0  0  0  0  0  0  0  0
    2.5319    0.3763    0.0030 C   0  0  0  0  0  0  0  0  0  0  0  0
    3.0598   -0.5135   -0.8893 C   0  0  0  0  0  0  0  0  0  0  0  0
    4.7739   -0.1969   -0.9001 S   0  0  0  0  0  0  0  0  0  0  0  0
    4.6986    1.0909    0.2725 C   0  0  0  0  0  0  0  0  0  0  0  0
    3.3856    1.2008    0.5981 C   0  0  0  0  0  0  0  0  0  0  0  0
    0.1846   -0.5076   -0.3878 N   0  0  0  0  0  0  0  0  0  0  0  0
   -1.2112   -0.4835   -0.1251 C   0  0  0  0  0  0  0  0  0  0  0  0
   -1.7911   -1.2423    0.8685 C   0  0  0  0  0  0  0  0  0  0  0  0
   -3.1558   -1.2031    1.1072 C   0  0  0  0  0  0  0  0  0  0  0  0
   -3.9355   -0.3797    0.3222 C   0  0  0  0  0  0  0  0  0  0  0  0
   -3.3968    0.4044   -0.6919 C   0  0  0  0  0  0  0  0  0  0  0  0
   -2.0390    0.3220   -0.8796 C   0  0  0  0  0  0  0  0  0  0  0  0
   -4.3893    1.4460   -1.6837 Cl  0  0  0  0  0  0  0  0  0  0  0  0
   -5.6650   -0.3197    0.6130 Cl  0  0  0  0  0  0  0  0  0  0  0  0
    2.5180   -1.2903   -1.4953 H   0  0  0  0  0  0  0  0  0  0  0  0
    5.5507    1.6954    0.6698 H   0  0  0  0  0  0  0  0  0  0  0  0
    3.0704    1.9728    1.3478 H   0  0  0  0  0  0  0  0  0  0  0  0
    0.5342   -1.2051   -1.0763 H   0  0  0  0  0  0  0  0  0  0  0  0
   -1.1429   -1.8686    1.4541 H   0  0  0  0  0  0  0  0  0  0  0  0
   -3.5665   -1.8222    1.9049 H   0  0  0  0  0  0  0  0  0  0  0  0
   -1.6238    0.9392   -1.6760 H   0  0  0  0  0  0  0  0  0  0  0  0
  1  2  2  0
  2  3  1  0
  3  4  2  0
  4  5  1  0
  5  6  1  0
  6  7  2  0
  2  8  1  0
  8  9  1  0
  9 10  2  0
 10 11  1  0
 11 12  2  0
 12 13  1  0
 13 14  2  0
 13 15  1  0
 12 16  1  0
  7  3  1  0
 14  9  1  0
  4 17  1  0
  6 18  1  0
  7 19  1  0
  8 20  1  0
 10 21  1  0
 11 22  1  0
 14 23  1  0
M  END
>  <Ligand ID>  (1) 
LIG0005793

>  <Ligand>  (1) 
N-(3,4-dichlorophenyl)thiophene-3-carboxamide

>  <SMILES>  (1) 
O=C(c1cscc1)Nc1ccc(c(c1)Cl)Cl

>  <CID>  (1) 
30268259.0

>  <ChEMBL ID>  (1) 
nan

>  <InChiKey>  (1) 
GKCPOBNJSNOQEH-UHFFFAOYSA-N

>  <InChi>  (1) 
InChI=1S/C11H7Cl2NOS/c12-9-2-1-8(5-10(9)13)14-11(15)7-3-4-16-6-7/h1-6H,(H,14,15)

>  <IUPAC Name>  (1) 
N-(3,4-dichlorophenyl)thiophene-3-carboxamide

$$$$
