
     RDKit          3D

 72 74  0  0  0  0  0  0  0  0999 V2000
   -7.7899    2.5521    2.1331 O   0  0  0  0  0  0  0  0  0  0  0  0
   -6.4442    2.3723    1.7785 C   0  0  0  0  0  0  0  0  0  0  0  0
   -5.5805    3.4252    1.8787 C   0  0  0  0  0  0  0  0  0  0  0  0
   -4.2754    3.2344    1.5302 C   0  0  0  0  0  0  0  0  0  0  0  0
   -3.8271    2.0065    1.0844 C   0  0  0  0  0  0  0  0  0  0  0  0
   -4.6834    0.9044    0.9688 C   0  0  0  0  0  0  0  0  0  0  0  0
   -5.9952    1.1376    1.3307 C   0  0  0  0  0  0  0  0  0  0  0  0
   -4.1945   -0.4175    0.4913 C   0  0  2  0  0  0  0  0  0  0  0  0
   -5.3954   -1.3359    0.4647 C   0  0  0  0  0  0  0  0  0  0  0  0
   -3.1818   -1.0077    1.4432 C   0  0  0  0  0  0  0  0  0  0  0  0
   -2.5740   -2.2214    0.7963 C   0  0  0  0  0  0  0  0  0  0  0  0
   -1.6608   -1.7935   -0.2412 N   0  0  0  0  0  0  0  0  0  0  0  0
   -2.0381   -0.5367   -0.8073 C   0  0  0  0  0  0  0  0  0  0  0  0
   -3.5432   -0.3618   -0.8501 C   0  0  2  0  0  0  0  0  0  0  0  0
   -3.9601    0.8142   -1.6801 C   0  0  0  0  0  0  0  0  0  0  0  0
   -0.2861   -1.7615    0.2571 C   0  0  0  0  0  0  0  0  0  0  0  0
    0.6072   -1.3654   -0.8707 C   0  0  2  0  0  0  0  0  0  0  0  0
    0.5570   -2.3214   -2.0370 C   0  0  0  0  0  0  0  0  0  0  0  0
    1.4969   -1.8132   -3.1090 C   0  0  0  0  0  0  0  0  0  0  0  0
    0.9270   -3.7285   -1.6621 C   0  0  0  0  0  0  0  0  0  0  0  0
    1.9797   -1.1297   -0.4373 N   0  0  0  0  0  0  0  0  0  0  0  0
    2.6115    0.1390   -0.5315 C   0  0  0  0  0  0  0  0  0  0  0  0
    1.9611    1.1287   -1.0142 O   0  0  0  0  0  0  0  0  0  0  0  0
    3.9850    0.3361   -0.0900 C   0  0  0  0  0  0  0  0  0  0  0  0
    4.7692   -0.6669    0.4391 C   0  0  0  0  0  0  0  0  0  0  0  0
    6.0729   -0.4464    0.8465 C   0  0  0  0  0  0  0  0  0  0  0  0
    6.6475    0.8025    0.7381 C   0  0  0  0  0  0  0  0  0  0  0  0
    5.8815    1.8229    0.2112 C   0  0  0  0  0  0  0  0  0  0  0  0
    4.5704    1.5860   -0.1947 C   0  0  0  0  0  0  0  0  0  0  0  0
    6.4504    3.0770    0.0983 C   0  0  0  0  0  0  0  0  0  0  0  0
    7.7527    3.2914    0.5057 C   0  0  0  0  0  0  0  0  0  0  0  0
    8.5130    2.2714    1.0302 C   0  0  0  0  0  0  0  0  0  0  0  0
    7.9501    1.0115    1.1467 C   0  0  0  0  0  0  0  0  0  0  0  0
    9.8261    2.4404    1.4522 O   0  0  0  0  0  0  0  0  0  0  0  0
    0.6882    0.0000    0.0000 Cl  0  0  0  0  0  0  0  0  0  0  0  0
   -8.4208    1.7438    2.1163 H   0  0  0  0  0  0  0  0  0  0  0  0
   -5.9860    4.3703    2.2354 H   0  0  0  0  0  0  0  0  0  0  0  0
   -3.5947    4.0710    1.6109 H   0  0  0  0  0  0  0  0  0  0  0  0
   -2.7967    1.9280    0.8304 H   0  0  0  0  0  0  0  0  0  0  0  0
   -6.7427    0.3591    1.2848 H   0  0  0  0  0  0  0  0  0  0  0  0
   -5.8449   -1.4548    1.4694 H   0  0  0  0  0  0  0  0  0  0  0  0
   -5.1664   -2.3168    0.0053 H   0  0  0  0  0  0  0  0  0  0  0  0
   -6.1931   -0.8851   -0.1836 H   0  0  0  0  0  0  0  0  0  0  0  0
   -3.6974   -1.3648    2.3692 H   0  0  0  0  0  0  0  0  0  0  0  0
   -2.3746   -0.2800    1.6887 H   0  0  0  0  0  0  0  0  0  0  0  0
   -3.3072   -2.9120    0.3380 H   0  0  0  0  0  0  0  0  0  0  0  0
   -1.9510   -2.8077    1.5167 H   0  0  0  0  0  0  0  0  0  0  0  0
   -1.5083    0.2484   -0.2425 H   0  0  0  0  0  0  0  0  0  0  0  0
   -1.7094   -0.4248   -1.8794 H   0  0  0  0  0  0  0  0  0  0  0  0
   -3.8971   -1.2668   -1.4309 H   0  0  0  0  0  0  0  0  0  0  0  0
   -4.1312    0.5576   -2.7462 H   0  0  0  0  0  0  0  0  0  0  0  0
   -4.9618    1.1714   -1.3153 H   0  0  0  0  0  0  0  0  0  0  0  0
   -3.2193    1.6471   -1.6759 H   0  0  0  0  0  0  0  0  0  0  0  0
   -0.2732   -0.9069    0.9849 H   0  0  0  0  0  0  0  0  0  0  0  0
   -0.0124   -2.6638    0.7938 H   0  0  0  0  0  0  0  0  0  0  0  0
    0.2306   -0.3918   -1.2515 H   0  0  0  0  0  0  0  0  0  0  0  0
   -0.4566   -2.3515   -2.4746 H   0  0  0  0  0  0  0  0  0  0  0  0
    1.4867   -0.7206   -3.1438 H   0  0  0  0  0  0  0  0  0  0  0  0
    1.1244   -2.2067   -4.1010 H   0  0  0  0  0  0  0  0  0  0  0  0
    2.5122   -2.2442   -3.0168 H   0  0  0  0  0  0  0  0  0  0  0  0
    0.6777   -3.9777   -0.6130 H   0  0  0  0  0  0  0  0  0  0  0  0
    2.0221   -3.8568   -1.8766 H   0  0  0  0  0  0  0  0  0  0  0  0
    0.4080   -4.4725   -2.3011 H   0  0  0  0  0  0  0  0  0  0  0  0
    2.4704   -1.9803   -0.0459 H   0  0  0  0  0  0  0  0  0  0  0  0
    4.3818   -1.6479    0.5470 H   0  0  0  0  0  0  0  0  0  0  0  0
    6.6462   -1.2614    1.2535 H   0  0  0  0  0  0  0  0  0  0  0  0
    3.9773    2.3800   -0.6035 H   0  0  0  0  0  0  0  0  0  0  0  0
    5.8904    3.9199   -0.3109 H   0  0  0  0  0  0  0  0  0  0  0  0
    8.2297    4.2711    0.4289 H   0  0  0  0  0  0  0  0  0  0  0  0
    8.5315    0.2127    1.5525 H   0  0  0  0  0  0  0  0  0  0  0  0
   10.5267    2.0685    0.8056 H   0  0  0  0  0  0  0  0  0  0  0  0
   -0.6882    0.0000    0.0000 H   0  0  0  0  0  0  0  0  0  0  0  0
  1  2  1  0
  2  3  2  0
  3  4  1  0
  4  5  2  0
  5  6  1  0
  6  7  2  0
  6  8  1  0
  8  9  1  6
  8 10  1  0
 10 11  1  0
 11 12  1  0
 12 13  1  0
 13 14  1  0
 14 15  1  0
 12 16  1  0
 16 17  1  0
 17 18  1  0
 18 19  1  0
 18 20  1  0
 17 21  1  0
 21 22  1  0
 22 23  2  0
 22 24  1  0
 24 25  2  0
 25 26  1  0
 26 27  2  0
 27 28  1  0
 28 29  2  0
 28 30  1  0
 30 31  2  0
 31 32  1  0
 32 33  2  0
 32 34  1  0
  7  2  1  0
 14  8  1  0
 29 24  1  0
 33 27  1  0
  1 36  1  0
  3 37  1  0
  4 38  1  0
  5 39  1  0
  7 40  1  0
  9 41  1  0
  9 42  1  0
  9 43  1  0
 10 44  1  0
 10 45  1  0
 11 46  1  0
 11 47  1  0
 13 48  1  0
 13 49  1  0
 14 50  1  6
 15 51  1  0
 15 52  1  0
 15 53  1  0
 16 54  1  0
 16 55  1  0
 17 56  1  6
 18 57  1  0
 19 58  1  0
 19 59  1  0
 19 60  1  0
 20 61  1  0
 20 62  1  0
 20 63  1  0
 21 64  1  0
 25 65  1  0
 26 66  1  0
 29 67  1  0
 30 68  1  0
 31 69  1  0
 33 70  1  0
 34 71  1  0
 35 72  1  0
M  END
>  <Ligand ID>  (1) 
LIG0002308

>  <Ligand>  (1) 
CHEMBL1204084

>  <SMILES>  (1) 
Oc1cccc(c1)[C@]1(C)CCN(C[C@@H]1C)C[C@H](C(C)C)NC(=O)c1ccc2c(c1)ccc(c2)O.Cl

>  <CID>  (1) 
46867405.0

>  <ChEMBL ID>  (1) 
nan

>  <InChiKey>  (1) 
RMHWXDJYQRHUMN-GOTMMGSSSA-N

>  <InChi>  (1) 
InChI=1S/C29H36N2O3.ClH/c1-19(2)27(30-28(34)23-9-8-22-15-26(33)11-10-21(22)14-23)18-31-13-12-29(4,20(3)17-31)24-6-5-7-25(32)16-24;/h5-11,14-16,19-20,27,32-33H,12-13,17-18H2,1-4H3,(H,30,34);1H/t20-,27+,29+;/m0./s1

>  <IUPAC Name>  (1) 
6-hydroxy-N-[(2S)-1-[(3R,4R)-4-(3-hydroxyphenyl)-3,4-dimethylpiperidin-1-yl]-3-methylbutan-2-yl]naphthalene-2-carboxamide;hydrochloride

$$$$
