
     RDKit          3D

 22 21  0  0  0  0  0  0  0  0999 V2000
   -3.2510    0.2650    0.2642 C   0  0  0  0  0  0  0  0  0  0  0  0
   -2.0136   -0.5751   -0.0855 C   0  0  0  0  0  0  0  0  0  0  0  0
   -0.8523    0.3325    0.1120 C   0  0  0  0  0  0  0  0  0  0  0  0
    0.5007   -0.2904   -0.1787 C   0  0  0  0  0  0  0  0  0  0  0  0
    1.4780    0.8306    0.0981 C   0  0  0  0  0  0  0  0  0  0  0  0
    2.9090    0.4324   -0.1287 C   0  0  0  0  0  0  0  0  0  0  0  0
    3.3512   -0.6110    0.6471 O   0  0  0  0  0  0  0  0  0  0  0  0
    0.7137   -1.6480    1.0119 S   0  0  0  0  0  0  0  0  0  0  0  0
   -3.3182    1.0569   -0.5267 H   0  0  0  0  0  0  0  0  0  0  0  0
   -4.1669   -0.3318    0.3201 H   0  0  0  0  0  0  0  0  0  0  0  0
   -2.9898    0.7953    1.1993 H   0  0  0  0  0  0  0  0  0  0  0  0
   -2.1039   -0.9996   -1.0829 H   0  0  0  0  0  0  0  0  0  0  0  0
   -2.0282   -1.3794    0.7049 H   0  0  0  0  0  0  0  0  0  0  0  0
   -0.8478    0.7044    1.1478 H   0  0  0  0  0  0  0  0  0  0  0  0
   -0.9426    1.1709   -0.6256 H   0  0  0  0  0  0  0  0  0  0  0  0
    0.5660   -0.7256   -1.1754 H   0  0  0  0  0  0  0  0  0  0  0  0
    1.2540    1.6771   -0.5517 H   0  0  0  0  0  0  0  0  0  0  0  0
    1.2927    1.1434    1.1514 H   0  0  0  0  0  0  0  0  0  0  0  0
    3.0797    0.2973   -1.2046 H   0  0  0  0  0  0  0  0  0  0  0  0
    3.5237    1.3141    0.1600 H   0  0  0  0  0  0  0  0  0  0  0  0
    4.2000   -0.9321    0.2185 H   0  0  0  0  0  0  0  0  0  0  0  0
   -0.3542   -2.5267    0.9155 H   0  0  0  0  0  0  0  0  0  0  0  0
  1  2  1  0
  2  3  1  0
  3  4  1  0
  4  5  1  0
  5  6  1  0
  6  7  1  0
  4  8  1  0
  1  9  1  0
  1 10  1  0
  1 11  1  0
  2 12  1  0
  2 13  1  0
  3 14  1  0
  3 15  1  0
  4 16  1  0
  5 17  1  0
  5 18  1  0
  6 19  1  0
  6 20  1  0
  7 21  1  0
  8 22  1  0
M  END
>  <Ligand ID>  (1) 
LIG0001043

>  <Ligand>  (1) 
3-Mercaptohexanol

>  <SMILES>  (1) 
CCCC(CCO)S

>  <CID>  (1) 
521348.0

>  <ChEMBL ID>  (1) 
nan

>  <InChiKey>  (1) 
TYZFMFVWHZKYSE-UHFFFAOYSA-N

>  <InChi>  (1) 
InChI=1S/C6H14OS/c1-2-3-6(8)4-5-7/h6-8H,2-5H2,1H3

>  <IUPAC Name>  (1) 
3-sulfanylhexan-1-ol

$$$$
