
     RDKit          3D

 57 59  0  0  0  0  0  0  0  0999 V2000
    3.5508    0.2334   -3.7309 O   0  0  0  0  0  0  0  0  0  0  0  0
    3.6834    0.2718   -2.2678 C   0  0  2  0  0  0  0  0  0  0  0  0
    4.2665   -1.0634   -1.9436 C   0  0  0  0  0  0  0  0  0  0  0  0
    4.6568   -1.3258   -0.6550 O   0  0  0  0  0  0  0  0  0  0  0  0
    5.6348   -0.7241    0.0793 C   0  0  0  0  0  0  0  0  0  0  0  0
    5.8106   -1.1518    1.3845 C   0  0  0  0  0  0  0  0  0  0  0  0
    6.7608   -0.6309    2.2358 C   0  0  0  0  0  0  0  0  0  0  0  0
    7.5886    0.3744    1.7693 C   0  0  0  0  0  0  0  0  0  0  0  0
    7.4551    0.8376    0.4722 C   0  0  0  0  0  0  0  0  0  0  0  0
    6.4751    0.2768   -0.3555 C   0  0  0  0  0  0  0  0  0  0  0  0
    8.5799    0.9485    2.5926 O   0  0  0  0  0  0  0  0  0  0  0  0
    2.2895    0.4531   -1.7775 C   0  0  0  0  0  0  0  0  0  0  0  0
    2.0232    0.5981   -0.4484 N   0  0  0  0  0  0  0  0  0  0  0  0
    2.0110   -0.3286    0.5709 C   0  0  0  0  0  0  0  0  0  0  0  0
    0.8866   -1.3691    0.4523 C   0  0  0  0  0  0  0  0  0  0  0  0
   -0.3999   -0.6047    0.4979 C   0  0  0  0  0  0  0  0  0  0  0  0
   -0.9987   -0.0963   -0.6443 C   0  0  0  0  0  0  0  0  0  0  0  0
   -2.1753    0.6172   -0.6134 C   0  0  0  0  0  0  0  0  0  0  0  0
   -2.7959    0.8410    0.6141 C   0  0  0  0  0  0  0  0  0  0  0  0
   -2.2267    0.3500    1.7505 C   0  0  0  0  0  0  0  0  0  0  0  0
   -1.0491   -0.3617    1.7030 C   0  0  0  0  0  0  0  0  0  0  0  0
   -4.0009    1.5939    0.5695 N   0  0  0  0  0  0  0  0  0  0  0  0
   -5.2799    0.9957    0.4198 C   0  0  0  0  0  0  0  0  0  0  0  0
   -5.4818   -0.2340    0.3147 O   0  0  0  0  0  0  0  0  0  0  0  0
   -6.4490    1.9297    0.3874 C   0  0  0  0  0  0  0  0  0  0  0  0
   -7.6654    1.0907    0.2375 C   0  0  0  0  0  0  0  0  0  0  0  0
   -8.0297    0.7703   -1.0153 N   0  0  0  0  0  0  0  0  0  0  0  0
   -9.1159    0.0141   -1.3002 C   0  0  0  0  0  0  0  0  0  0  0  0
   -9.8675   -0.4364   -0.2300 C   0  0  0  0  0  0  0  0  0  0  0  0
   -9.4931   -0.1064    1.0669 C   0  0  0  0  0  0  0  0  0  0  0  0
   -8.3894    0.6591    1.3039 N   0  0  0  0  0  0  0  0  0  0  0  0
    4.2278   -0.3709   -4.0752 H   0  0  0  0  0  0  0  0  0  0  0  0
    4.3446    1.0912   -2.0446 H   0  0  0  0  0  0  0  0  0  0  0  0
    5.1540   -1.2025   -2.6576 H   0  0  0  0  0  0  0  0  0  0  0  0
    3.5705   -1.8786   -2.3253 H   0  0  0  0  0  0  0  0  0  0  0  0
    5.1846   -1.9423    1.8110 H   0  0  0  0  0  0  0  0  0  0  0  0
    6.9001   -0.9637    3.2593 H   0  0  0  0  0  0  0  0  0  0  0  0
    8.1135    1.6330    0.1028 H   0  0  0  0  0  0  0  0  0  0  0  0
    6.4420    0.6675   -1.3508 H   0  0  0  0  0  0  0  0  0  0  0  0
    9.5276    0.6153    2.4702 H   0  0  0  0  0  0  0  0  0  0  0  0
    1.7502   -0.4975   -2.1950 H   0  0  0  0  0  0  0  0  0  0  0  0
    1.8191    1.3149   -2.4036 H   0  0  0  0  0  0  0  0  0  0  0  0
    1.8556    1.6106   -0.1291 H   0  0  0  0  0  0  0  0  0  0  0  0
    1.6802    0.2794    1.5268 H   0  0  0  0  0  0  0  0  0  0  0  0
    2.9127   -0.7856    0.9238 H   0  0  0  0  0  0  0  0  0  0  0  0
    0.9302   -2.0583    1.3175 H   0  0  0  0  0  0  0  0  0  0  0  0
    0.9080   -1.9258   -0.4804 H   0  0  0  0  0  0  0  0  0  0  0  0
   -0.5431   -0.2565   -1.6046 H   0  0  0  0  0  0  0  0  0  0  0  0
   -2.6238    1.0082   -1.5394 H   0  0  0  0  0  0  0  0  0  0  0  0
   -2.7454    0.5436    2.7029 H   0  0  0  0  0  0  0  0  0  0  0  0
   -0.6549   -0.7215    2.6372 H   0  0  0  0  0  0  0  0  0  0  0  0
   -3.8989    2.6314    0.6547 H   0  0  0  0  0  0  0  0  0  0  0  0
   -6.5333    2.4991    1.3483 H   0  0  0  0  0  0  0  0  0  0  0  0
   -6.3545    2.6194   -0.4561 H   0  0  0  0  0  0  0  0  0  0  0  0
   -9.3807   -0.2272   -2.3408 H   0  0  0  0  0  0  0  0  0  0  0  0
  -10.7301   -1.0377   -0.4659 H   0  0  0  0  0  0  0  0  0  0  0  0
  -10.1107   -0.4810    1.8740 H   0  0  0  0  0  0  0  0  0  0  0  0
  1  2  1  0
  2  3  1  0
  3  4  1  0
  4  5  1  0
  5  6  2  0
  6  7  1  0
  7  8  2  0
  8  9  1  0
  9 10  2  0
  8 11  1  0
  2 12  1  0
 12 13  1  0
 13 14  1  0
 14 15  1  0
 15 16  1  0
 16 17  2  0
 17 18  1  0
 18 19  2  0
 19 20  1  0
 20 21  2  0
 19 22  1  0
 22 23  1  0
 23 24  2  0
 23 25  1  0
 25 26  1  0
 26 27  2  0
 27 28  1  0
 28 29  2  0
 29 30  1  0
 30 31  2  0
 10  5  1  0
 21 16  1  0
 31 26  1  0
  1 32  1  0
  2 33  1  6
  3 34  1  0
  3 35  1  0
  6 36  1  0
  7 37  1  0
  9 38  1  0
 10 39  1  0
 11 40  1  0
 12 41  1  0
 12 42  1  0
 13 43  1  0
 14 44  1  0
 14 45  1  0
 15 46  1  0
 15 47  1  0
 17 48  1  0
 18 49  1  0
 20 50  1  0
 21 51  1  0
 22 52  1  0
 25 53  1  0
 25 54  1  0
 28 55  1  0
 29 56  1  0
 30 57  1  0
M  END
>  <Ligand ID>  (1) 
LIG0002845

>  <Ligand>  (1) 
CHEMBL562154

>  <SMILES>  (1) 
O[C@H](COc1ccc(cc1)O)CNCCc1ccc(cc1)NC(=O)Cc1ncccn1

>  <CID>  (1) 
44127169.0

>  <ChEMBL ID>  (1) 
nan

>  <InChiKey>  (1) 
VGOHPOXEMDJOGT-FQEVSTJZSA-N

>  <InChi>  (1) 
InChI=1S/C23H26N4O4/c28-19-6-8-21(9-7-19)31-16-20(29)15-24-13-10-17-2-4-18(5-3-17)27-23(30)14-22-25-11-1-12-26-22/h1-9,11-12,20,24,28-29H,10,13-16H2,(H,27,30)/t20-/m0/s1

>  <IUPAC Name>  (1) 
N-[4-[2-[[(2S)-2-hydroxy-3-(4-hydroxyphenoxy)propyl]amino]ethyl]phenyl]-2-pyrimidin-2-ylacetamide

$$$$
