
     RDKit          3D

 53 55  0  0  0  0  0  0  0  0999 V2000
    5.1116    0.3355   -4.1008 Cl  0  0  0  0  0  0  0  0  0  0  0  0
    5.7646    0.0076   -2.4988 C   0  0  0  0  0  0  0  0  0  0  0  0
    7.1154    0.1035   -2.3192 C   0  0  0  0  0  0  0  0  0  0  0  0
    7.6153   -0.1548   -1.0634 C   0  0  0  0  0  0  0  0  0  0  0  0
    6.7654   -0.4936   -0.0487 C   0  0  0  0  0  0  0  0  0  0  0  0
    5.3860   -0.5876   -0.2483 C   0  0  0  0  0  0  0  0  0  0  0  0
    4.8785   -0.3323   -1.4950 C   0  0  0  0  0  0  0  0  0  0  0  0
    4.5085   -0.9585    0.9250 C   0  0  2  0  0  0  0  0  0  0  0  0
    3.0863   -0.8965    0.4840 C   0  0  0  0  0  0  0  0  0  0  0  0
    2.0945   -1.2741    1.4263 N   0  0  0  0  0  0  0  0  0  0  0  0
    1.9264   -0.3598    2.5093 C   0  0  0  0  0  0  0  0  0  0  0  0
    1.3286    0.9337    1.9646 C   0  0  0  0  0  0  0  0  0  0  0  0
    0.0038    0.7083    1.3385 C   0  0  0  0  0  0  0  0  0  0  0  0
   -1.1430    0.8001    2.1162 C   0  0  0  0  0  0  0  0  0  0  0  0
   -2.4100    0.6074    1.6112 C   0  0  0  0  0  0  0  0  0  0  0  0
   -2.5888    0.3038    0.2588 C   0  0  0  0  0  0  0  0  0  0  0  0
   -1.4458    0.2171   -0.4933 C   0  0  0  0  0  0  0  0  0  0  0  0
   -0.1763    0.4094    0.0075 C   0  0  0  0  0  0  0  0  0  0  0  0
   -3.9114    0.0983   -0.2990 C   0  0  0  0  0  0  0  0  0  0  0  0
   -4.1776   -0.9979   -1.1277 C   0  0  0  0  0  0  0  0  0  0  0  0
   -5.4285   -1.2137   -1.6636 C   0  0  0  0  0  0  0  0  0  0  0  0
   -6.4538   -0.3369   -1.3862 C   0  0  0  0  0  0  0  0  0  0  0  0
   -6.1939    0.7409   -0.5722 C   0  0  0  0  0  0  0  0  0  0  0  0
   -4.9377    0.9768   -0.0208 C   0  0  0  0  0  0  0  0  0  0  0  0
   -4.7616    2.1740    0.8431 C   0  0  0  0  0  0  0  0  0  0  0  0
   -7.8081   -0.4996   -1.9171 C   0  0  0  0  0  0  0  0  0  0  0  0
   -8.7218    0.3249   -1.6448 O   0  0  0  0  0  0  0  0  0  0  0  0
   -8.1551   -1.5605   -2.7409 O   0  0  0  0  0  0  0  0  0  0  0  0
    4.8439   -0.1695    1.9972 O   0  0  0  0  0  0  0  0  0  0  0  0
    7.8114    0.3727   -3.1163 H   0  0  0  0  0  0  0  0  0  0  0  0
    8.6912   -0.0777   -0.9261 H   0  0  0  0  0  0  0  0  0  0  0  0
    7.2133   -0.6877    0.9244 H   0  0  0  0  0  0  0  0  0  0  0  0
    3.8464   -0.3792   -1.7219 H   0  0  0  0  0  0  0  0  0  0  0  0
    4.7776   -2.0376    1.1300 H   0  0  0  0  0  0  0  0  0  0  0  0
    2.9014    0.1519    0.0924 H   0  0  0  0  0  0  0  0  0  0  0  0
    3.0229   -1.6118   -0.4019 H   0  0  0  0  0  0  0  0  0  0  0  0
    1.1983   -1.5242    0.9750 H   0  0  0  0  0  0  0  0  0  0  0  0
    2.8794   -0.1816    3.0238 H   0  0  0  0  0  0  0  0  0  0  0  0
    1.2510   -0.7796    3.3053 H   0  0  0  0  0  0  0  0  0  0  0  0
    2.0308    1.4879    1.3446 H   0  0  0  0  0  0  0  0  0  0  0  0
    1.1515    1.5578    2.8908 H   0  0  0  0  0  0  0  0  0  0  0  0
   -1.0371    1.0364    3.1805 H   0  0  0  0  0  0  0  0  0  0  0  0
   -3.2484    0.6969    2.2878 H   0  0  0  0  0  0  0  0  0  0  0  0
   -1.5640   -0.0166   -1.5435 H   0  0  0  0  0  0  0  0  0  0  0  0
    0.6594    0.3234   -0.6537 H   0  0  0  0  0  0  0  0  0  0  0  0
   -3.3704   -1.6960   -1.3512 H   0  0  0  0  0  0  0  0  0  0  0  0
   -5.6427   -2.0607   -2.3060 H   0  0  0  0  0  0  0  0  0  0  0  0
   -6.9891    1.4373   -0.3455 H   0  0  0  0  0  0  0  0  0  0  0  0
   -3.7172    2.5414    0.8326 H   0  0  0  0  0  0  0  0  0  0  0  0
   -5.3672    3.0118    0.3953 H   0  0  0  0  0  0  0  0  0  0  0  0
   -5.1865    2.0407    1.8576 H   0  0  0  0  0  0  0  0  0  0  0  0
   -9.0955   -1.9773   -2.6583 H   0  0  0  0  0  0  0  0  0  0  0  0
    5.6678   -0.5342    2.4187 H   0  0  0  0  0  0  0  0  0  0  0  0
  1  2  1  0
  2  3  2  0
  3  4  1  0
  4  5  2  0
  5  6  1  0
  6  7  2  0
  6  8  1  0
  8  9  1  0
  9 10  1  0
 10 11  1  0
 11 12  1  0
 12 13  1  0
 13 14  2  0
 14 15  1  0
 15 16  2  0
 16 17  1  0
 17 18  2  0
 16 19  1  0
 19 20  2  0
 20 21  1  0
 21 22  2  0
 22 23  1  0
 23 24  2  0
 24 25  1  0
 22 26  1  0
 26 27  2  0
 26 28  1  0
  8 29  1  0
  7  2  1  0
 18 13  1  0
 24 19  1  0
  3 30  1  0
  4 31  1  0
  5 32  1  0
  7 33  1  0
  8 34  1  1
  9 35  1  0
  9 36  1  0
 10 37  1  0
 11 38  1  0
 11 39  1  0
 12 40  1  0
 12 41  1  0
 14 42  1  0
 15 43  1  0
 17 44  1  0
 18 45  1  0
 20 46  1  0
 21 47  1  0
 23 48  1  0
 25 49  1  0
 25 50  1  0
 25 51  1  0
 28 52  1  0
 29 53  1  0
M  END
>  <Ligand ID>  (1) 
LIG0003620

>  <Ligand>  (1) 
CHEMBL273028

>  <SMILES>  (1) 
Clc1cccc(c1)[C@H](CNCCc1ccc(cc1)c1ccc(cc1C)C(=O)O)O

>  <CID>  (1) 
10092953.0

>  <ChEMBL ID>  (1) 
nan

>  <InChiKey>  (1) 
FLWXLMCWOAPBNP-QHCPKHFHSA-N

>  <InChi>  (1) 
InChI=1S/C24H24ClNO3/c1-16-13-20(24(28)29)9-10-22(16)18-7-5-17(6-8-18)11-12-26-15-23(27)19-3-2-4-21(25)14-19/h2-10,13-14,23,26-27H,11-12,15H2,1H3,(H,28,29)/t23-/m0/s1

>  <IUPAC Name>  (1) 
4-[4-[2-[[(2R)-2-(3-chlorophenyl)-2-hydroxyethyl]amino]ethyl]phenyl]-3-methylbenzoic acid

$$$$
