
     RDKit          3D

 51 53  0  0  0  0  0  0  0  0999 V2000
    5.5010    4.5650    1.6122 Cl  0  0  0  0  0  0  0  0  0  0  0  0
    5.6132    2.8256    1.4939 C   0  0  0  0  0  0  0  0  0  0  0  0
    6.0705    2.0221    2.5092 C   0  0  0  0  0  0  0  0  0  0  0  0
    6.1585    0.6455    2.4103 C   0  0  0  0  0  0  0  0  0  0  0  0
    5.7635    0.0306    1.2188 C   0  0  0  0  0  0  0  0  0  0  0  0
    5.3040    0.8372    0.1989 C   0  0  0  0  0  0  0  0  0  0  0  0
    5.2242    2.2160    0.3193 C   0  0  0  0  0  0  0  0  0  0  0  0
    4.8829    0.2111   -1.0671 C   0  0  2  0  0  0  0  0  0  0  0  0
    3.5422   -0.4900   -0.9477 C   0  0  0  0  0  0  0  0  0  0  0  0
    2.5016    0.3586   -0.4939 N   0  0  0  0  0  0  0  0  0  0  0  0
    1.2756   -0.3705   -0.3441 C   0  0  0  0  0  0  0  0  0  0  0  0
    0.7476   -0.7756   -1.6958 C   0  0  0  0  0  0  0  0  0  0  0  0
   -0.5553   -1.5270   -1.5445 C   0  0  0  0  0  0  0  0  0  0  0  0
   -0.5497   -2.9002   -1.4102 C   0  0  0  0  0  0  0  0  0  0  0  0
   -1.7766   -3.5439   -1.2731 C   0  0  0  0  0  0  0  0  0  0  0  0
   -2.9710   -2.8235   -1.2716 C   0  0  0  0  0  0  0  0  0  0  0  0
   -2.9691   -1.4525   -1.4062 C   0  0  0  0  0  0  0  0  0  0  0  0
   -1.7517   -0.8097   -1.5427 C   0  0  0  0  0  0  0  0  0  0  0  0
   -4.1116   -0.6785   -1.4135 O   0  0  0  0  0  0  0  0  0  0  0  0
   -4.6173   -0.1837   -0.2395 C   0  0  0  0  0  0  0  0  0  0  0  0
   -4.0765   -0.4020    1.0076 C   0  0  0  0  0  0  0  0  0  0  0  0
   -4.6656    0.1463    2.1492 C   0  0  0  0  0  0  0  0  0  0  0  0
   -5.8072    0.9226    2.0601 C   0  0  0  0  0  0  0  0  0  0  0  0
   -6.3503    1.1416    0.8064 C   0  0  0  0  0  0  0  0  0  0  0  0
   -5.7553    0.5940   -0.2981 C   0  0  0  0  0  0  0  0  0  0  0  0
   -7.5558    1.9626    0.7238 C   0  0  0  0  0  0  0  0  0  0  0  0
   -8.0820    2.4433    1.7349 O   0  0  0  0  0  0  0  0  0  0  0  0
   -8.1627    2.2359   -0.5090 O   0  0  0  0  0  0  0  0  0  0  0  0
   -6.5114    1.5848    3.5193 Cl  0  0  0  0  0  0  0  0  0  0  0  0
    5.7837   -0.7575   -1.5182 O   0  0  0  0  0  0  0  0  0  0  0  0
    6.3738    2.5303    3.4322 H   0  0  0  0  0  0  0  0  0  0  0  0
    6.5215    0.0216    3.2216 H   0  0  0  0  0  0  0  0  0  0  0  0
    5.8190   -1.0590    1.1020 H   0  0  0  0  0  0  0  0  0  0  0  0
    4.8507    2.7796   -0.5336 H   0  0  0  0  0  0  0  0  0  0  0  0
    4.7845    0.9596   -1.8722 H   0  0  0  0  0  0  0  0  0  0  0  0
    3.6322   -1.3848   -0.3324 H   0  0  0  0  0  0  0  0  0  0  0  0
    3.3106   -0.8107   -2.0041 H   0  0  0  0  0  0  0  0  0  0  0  0
    2.3267    1.1304   -1.1841 H   0  0  0  0  0  0  0  0  0  0  0  0
    0.5137    0.2714    0.1521 H   0  0  0  0  0  0  0  0  0  0  0  0
    1.4445   -1.3010    0.2816 H   0  0  0  0  0  0  0  0  0  0  0  0
    0.6022    0.1344   -2.3069 H   0  0  0  0  0  0  0  0  0  0  0  0
    1.4724   -1.4122   -2.2419 H   0  0  0  0  0  0  0  0  0  0  0  0
    0.3910   -3.4162   -1.4165 H   0  0  0  0  0  0  0  0  0  0  0  0
   -1.7717   -4.6339   -1.1667 H   0  0  0  0  0  0  0  0  0  0  0  0
   -3.9127   -3.3472   -1.1639 H   0  0  0  0  0  0  0  0  0  0  0  0
   -1.7280    0.2615   -1.6474 H   0  0  0  0  0  0  0  0  0  0  0  0
   -3.1801   -1.0102    1.0866 H   0  0  0  0  0  0  0  0  0  0  0  0
   -4.1860   -0.0682    3.0960 H   0  0  0  0  0  0  0  0  0  0  0  0
   -6.2227    0.7952   -1.2672 H   0  0  0  0  0  0  0  0  0  0  0  0
   -8.5256    3.1849   -0.6375 H   0  0  0  0  0  0  0  0  0  0  0  0
    5.3846   -1.6540   -1.6303 H   0  0  0  0  0  0  0  0  0  0  0  0
  1  2  1  0
  2  3  2  0
  3  4  1  0
  4  5  2  0
  5  6  1  0
  6  7  2  0
  6  8  1  0
  8  9  1  0
  9 10  1  0
 10 11  1  0
 11 12  1  0
 12 13  1  0
 13 14  2  0
 14 15  1  0
 15 16  2  0
 16 17  1  0
 17 18  2  0
 17 19  1  0
 19 20  1  0
 20 21  2  0
 21 22  1  0
 22 23  2  0
 23 24  1  0
 24 25  2  0
 24 26  1  0
 26 27  2  0
 26 28  1  0
 23 29  1  0
  8 30  1  0
  7  2  1  0
 18 13  1  0
 25 20  1  0
  3 31  1  0
  4 32  1  0
  5 33  1  0
  7 34  1  0
  8 35  1  6
  9 36  1  0
  9 37  1  0
 10 38  1  0
 11 39  1  0
 11 40  1  0
 12 41  1  0
 12 42  1  0
 14 43  1  0
 15 44  1  0
 16 45  1  0
 18 46  1  0
 21 47  1  0
 22 48  1  0
 25 49  1  0
 28 50  1  0
 30 51  1  0
M  END
>  <Ligand ID>  (1) 
LIG0005866

>  <Ligand>  (1) 
CHEMBL484265

>  <SMILES>  (1) 
Clc1cccc(c1)[C@H](CNCCc1cccc(c1)Oc1ccc(c(c1)C(=O)O)Cl)O

>  <CID>  (1) 
44579925.0

>  <ChEMBL ID>  (1) 
nan

>  <InChiKey>  (1) 
LPMQFCAWGLCIQE-QFIPXVFZSA-N

>  <InChi>  (1) 
InChI=1S/C23H21Cl2NO4/c24-17-5-2-4-16(12-17)22(27)14-26-10-9-15-3-1-6-18(11-15)30-19-7-8-21(25)20(13-19)23(28)29/h1-8,11-13,22,26-27H,9-10,14H2,(H,28,29)/t22-/m0/s1

>  <IUPAC Name>  (1) 
2-chloro-5-[3-[2-[[(2R)-2-(3-chlorophenyl)-2-hydroxyethyl]amino]ethyl]phenoxy]benzoic acid

$$$$
