
     RDKit          3D

 22 22  0  0  0  0  0  0  0  0999 V2000
   -2.1006    1.8402    0.1314 N   0  0  0  0  0  0  0  0  0  0  0  0
   -2.2935    0.5698    0.7660 C   0  0  0  0  0  0  0  0  0  0  0  0
   -1.5175   -0.5197    0.1154 C   0  0  0  0  0  0  0  0  0  0  0  0
   -0.0583   -0.3362    0.0635 C   0  0  0  0  0  0  0  0  0  0  0  0
    0.6984   -1.4246   -0.3585 C   0  0  0  0  0  0  0  0  0  0  0  0
    2.0729   -1.3378   -0.4284 C   0  0  0  0  0  0  0  0  0  0  0  0
    2.7589   -0.1897   -0.0903 C   0  0  0  0  0  0  0  0  0  0  0  0
    2.0154    0.8881    0.3274 C   0  0  0  0  0  0  0  0  0  0  0  0
    0.6268    0.7975    0.3971 C   0  0  0  0  0  0  0  0  0  0  0  0
    4.1474   -0.1501   -0.1772 O   0  0  0  0  0  0  0  0  0  0  0  0
   -1.8044   -1.7264    0.7989 O   0  0  0  0  0  0  0  0  0  0  0  0
   -1.6951    1.7624   -0.8316 H   0  0  0  0  0  0  0  0  0  0  0  0
   -2.9626    2.4162    0.0345 H   0  0  0  0  0  0  0  0  0  0  0  0
   -3.3965    0.3295    0.7232 H   0  0  0  0  0  0  0  0  0  0  0  0
   -2.0949    0.6427    1.8691 H   0  0  0  0  0  0  0  0  0  0  0  0
   -1.9073   -0.7150   -0.9270 H   0  0  0  0  0  0  0  0  0  0  0  0
    0.2199   -2.3588   -0.6394 H   0  0  0  0  0  0  0  0  0  0  0  0
    2.6618   -2.1931   -0.7597 H   0  0  0  0  0  0  0  0  0  0  0  0
    2.5159    1.8092    0.6022 H   0  0  0  0  0  0  0  0  0  0  0  0
    0.1195    1.6822    0.7381 H   0  0  0  0  0  0  0  0  0  0  0  0
    4.5014    0.4638   -0.9146 H   0  0  0  0  0  0  0  0  0  0  0  0
   -2.5075   -2.2502    0.3764 H   0  0  0  0  0  0  0  0  0  0  0  0
  1  2  1  0
  2  3  1  0
  3  4  1  0
  4  5  2  0
  5  6  1  0
  6  7  2  0
  7  8  1  0
  8  9  2  0
  7 10  1  0
  3 11  1  0
  9  4  1  0
  1 12  1  0
  1 13  1  0
  2 14  1  0
  2 15  1  0
  3 16  1  0
  5 17  1  0
  6 18  1  0
  8 19  1  0
  9 20  1  0
 10 21  1  0
 11 22  1  0
M  END
>  <Ligand ID>  (1) 
LIG0002036

>  <Ligand>  (1) 
octopamine

>  <SMILES>  (1) 
NCC(c1ccc(cc1)O)O

>  <CID>  (1) 
4581.0

>  <ChEMBL ID>  (1) 
nan

>  <InChiKey>  (1) 
QHGUCRYDKWKLMG-UHFFFAOYSA-N

>  <InChi>  (1) 
InChI=1S/C8H11NO2/c9-5-8(11)6-1-3-7(10)4-2-6/h1-4,8,10-11H,5,9H2

>  <IUPAC Name>  (1) 
4-(2-amino-1-hydroxyethyl)phenol

$$$$
