
     RDKit          3D

 44 47  0  0  0  0  0  0  0  0999 V2000
   -5.5794    0.9839   -1.4963 O   0  0  0  0  0  0  0  0  0  0  0  0
   -4.2287    0.6598   -1.3565 C   0  0  0  0  0  0  0  0  0  0  0  0
   -3.9610    0.1840    0.0452 C   0  0  0  0  0  0  0  0  0  0  0  0
   -2.5562   -0.1429    0.1524 N   0  0  0  0  0  0  0  0  0  0  0  0
   -1.5057    0.7806   -0.0524 C   0  0  0  0  0  0  0  0  0  0  0  0
   -1.7092    1.9693   -0.3451 O   0  0  0  0  0  0  0  0  0  0  0  0
   -0.1017    0.3598    0.0763 C   0  0  0  0  0  0  0  0  0  0  0  0
    0.9294    1.2099   -0.1108 N   0  0  0  0  0  0  0  0  0  0  0  0
    2.0973    0.5750    0.0655 N   0  0  0  0  0  0  0  0  0  0  0  0
    1.7971   -0.6935    0.3680 C   0  0  0  0  0  0  0  0  0  0  0  0
    0.4189   -0.8650    0.3837 C   0  0  0  0  0  0  0  0  0  0  0  0
    0.0517   -2.2445    0.7118 C   0  0  0  0  0  0  0  0  0  0  0  0
    1.3581   -2.9477    0.8809 C   0  0  2  0  0  0  0  0  0  0  0  0
    2.4725   -1.9754    0.6921 C   0  0  1  0  0  0  0  0  0  0  0  0
    2.2445   -3.0647   -0.2815 C   0  0  0  0  0  0  0  0  0  0  0  0
    3.3751    1.1917   -0.0602 C   0  0  0  0  0  0  0  0  0  0  0  0
    3.9718    1.8887    0.9748 C   0  0  0  0  0  0  0  0  0  0  0  0
    5.2100    2.4357    0.7179 C   0  0  0  0  0  0  0  0  0  0  0  0
    5.8537    2.3152   -0.4977 C   0  0  0  0  0  0  0  0  0  0  0  0
    5.2490    1.6200   -1.5164 C   0  0  0  0  0  0  0  0  0  0  0  0
    4.0112    1.0645   -1.2829 C   0  0  0  0  0  0  0  0  0  0  0  0
    3.2486    0.1785   -2.5925 Cl  0  0  0  0  0  0  0  0  0  0  0  0
    7.4188    3.0193   -0.7881 Cl  0  0  0  0  0  0  0  0  0  0  0  0
   -4.7808   -1.0579    0.2679 C   0  0  0  0  0  0  0  0  0  0  0  0
   -4.3782    1.2066    1.0784 C   0  0  0  0  0  0  0  0  0  0  0  0
   -5.6841    1.9766   -1.5998 H   0  0  0  0  0  0  0  0  0  0  0  0
   -3.5651    1.4709   -1.6471 H   0  0  0  0  0  0  0  0  0  0  0  0
   -4.0096   -0.2179   -2.0217 H   0  0  0  0  0  0  0  0  0  0  0  0
   -2.2635   -1.1280    0.3983 H   0  0  0  0  0  0  0  0  0  0  0  0
   -0.5926   -2.3222    1.6366 H   0  0  0  0  0  0  0  0  0  0  0  0
   -0.5310   -2.7007   -0.1264 H   0  0  0  0  0  0  0  0  0  0  0  0
    1.3947   -3.6375    1.7482 H   0  0  0  0  0  0  0  0  0  0  0  0
    3.3237   -2.0131    1.3698 H   0  0  0  0  0  0  0  0  0  0  0  0
    1.8494   -2.7906   -1.2910 H   0  0  0  0  0  0  0  0  0  0  0  0
    2.9552   -3.9251   -0.3294 H   0  0  0  0  0  0  0  0  0  0  0  0
    3.4533    1.9705    1.9131 H   0  0  0  0  0  0  0  0  0  0  0  0
    5.6819    2.9781    1.5128 H   0  0  0  0  0  0  0  0  0  0  0  0
    5.7208    1.5049   -2.4787 H   0  0  0  0  0  0  0  0  0  0  0  0
   -5.8632   -0.8097    0.1816 H   0  0  0  0  0  0  0  0  0  0  0  0
   -4.5831   -1.8009   -0.5438 H   0  0  0  0  0  0  0  0  0  0  0  0
   -4.5628   -1.5042    1.2486 H   0  0  0  0  0  0  0  0  0  0  0  0
   -4.0052    0.9000    2.0623 H   0  0  0  0  0  0  0  0  0  0  0  0
   -5.4991    1.1628    1.1598 H   0  0  0  0  0  0  0  0  0  0  0  0
   -4.1265    2.2352    0.7721 H   0  0  0  0  0  0  0  0  0  0  0  0
  1  2  1  0
  2  3  1  0
  3  4  1  0
  4  5  1  0
  5  6  2  0
  5  7  1  0
  7  8  2  0
  8  9  1  0
  9 10  1  0
 10 11  2  0
 11 12  1  0
 12 13  1  0
 13 14  1  0
 14 15  1  0
  9 16  1  0
 16 17  2  0
 17 18  1  0
 18 19  2  0
 19 20  1  0
 20 21  2  0
 21 22  1  0
 19 23  1  0
  3 24  1  0
  3 25  1  0
 11  7  1  0
 15 13  1  0
 21 16  1  0
 14 10  1  0
  1 26  1  0
  2 27  1  0
  2 28  1  0
  4 29  1  0
 12 30  1  0
 12 31  1  0
 13 32  1  1
 14 33  1  1
 15 34  1  0
 15 35  1  0
 17 36  1  0
 18 37  1  0
 20 38  1  0
 24 39  1  0
 24 40  1  0
 24 41  1  0
 25 42  1  0
 25 43  1  0
 25 44  1  0
M  END
>  <Ligand ID>  (1) 
LIG0001490

>  <Ligand>  (1) 
CHEMBL3354973

>  <SMILES>  (1) 
OCC(NC(=O)c1nn(c2c1C[C@@H]1[C@H]2C1)c1ccc(cc1Cl)Cl)(C)C

>  <CID>  (1) 
118720580.0

>  <ChEMBL ID>  (1) 
nan

>  <InChiKey>  (1) 
HMLORMULXIVAOQ-MWLCHTKSSA-N

>  <InChi>  (1) 
InChI=1S/C18H19Cl2N3O2/c1-18(2,8-24)21-17(25)15-12-6-9-5-11(9)16(12)23(22-15)14-4-3-10(19)7-13(14)20/h3-4,7,9,11,24H,5-6,8H2,1-2H3,(H,21,25)/t9-,11-/m1/s1

>  <IUPAC Name>  (1) 
(2R,4R)-9-(2,4-dichlorophenyl)-N-(1-hydroxy-2-methylpropan-2-yl)-8,9-diazatricyclo[4.3.0.02,4]nona-1(6),7-diene-7-carboxamide

$$$$
