
     RDKit          3D

 58 60  0  0  0  0  0  0  0  0999 V2000
   -2.6364   -1.5958    1.8056 O   0  0  0  0  0  0  0  0  0  0  0  0
   -3.4213   -0.6763    1.3230 C   0  0  0  0  0  0  0  0  0  0  0  0
   -2.9218   -0.0115    0.1282 C   0  0  0  0  0  0  0  0  0  0  0  0
   -3.7010   -0.1735   -1.1308 C   0  0  0  0  0  0  0  0  0  0  0  0
   -3.8540   -1.6052   -1.5693 C   0  0  0  0  0  0  0  0  0  0  0  0
   -2.8144    0.4698   -2.2315 C   0  0  0  0  0  0  0  0  0  0  0  0
   -4.9810    0.5623   -1.1206 C   0  0  0  0  0  0  0  0  0  0  0  0
   -1.5167   -0.4441   -0.1332 N   0  0  0  0  0  0  0  0  0  0  0  0
   -0.4546    0.5159   -0.0264 C   0  0  0  0  0  0  0  0  0  0  0  0
   -0.6757    1.7197    0.2832 O   0  0  0  0  0  0  0  0  0  0  0  0
    0.9260    0.0556   -0.2913 C   0  0  0  0  0  0  0  0  0  0  0  0
    1.1728   -1.2205   -0.6232 N   0  0  0  0  0  0  0  0  0  0  0  0
    2.4167   -1.6539   -0.8636 C   0  0  0  0  0  0  0  0  0  0  0  0
    3.4921   -0.7565   -0.7676 C   0  0  0  0  0  0  0  0  0  0  0  0
    3.3065    0.5663   -0.4341 C   0  0  0  0  0  0  0  0  0  0  0  0
    1.9599    0.9295   -0.1978 C   0  0  0  0  0  0  0  0  0  0  0  0
    4.2122    1.5286   -0.3108 O   0  0  0  0  0  0  0  0  0  0  0  0
    5.4996    1.8669   -0.4148 C   0  0  2  0  0  0  0  0  0  0  0  0
    6.1359    2.3502    0.9002 C   0  0  0  0  0  0  0  0  0  0  0  0
    6.0965    1.4142    1.8857 F   0  0  0  0  0  0  0  0  0  0  0  0
    7.4503    2.6749    0.5963 F   0  0  0  0  0  0  0  0  0  0  0  0
    5.4749    3.5052    1.3011 F   0  0  0  0  0  0  0  0  0  0  0  0
    5.5404    3.1494   -1.3012 C   0  0  0  0  0  0  0  0  0  0  0  0
    4.8281   -1.3728   -0.9797 C   0  0  0  0  0  0  0  0  0  0  0  0
    5.1951   -2.6247   -0.2725 C   0  0  0  0  0  0  0  0  0  0  0  0
    5.6782   -1.3060    0.2787 C   0  0  0  0  0  0  0  0  0  0  0  0
   -4.6048   -0.4952    2.0499 N   0  0  0  0  0  0  0  0  0  0  0  0
   -5.0245   -1.2564    3.2707 C   0  0  0  0  0  0  0  0  0  0  0  0
   -6.4341   -1.0779    2.7516 C   0  0  0  0  0  0  0  0  0  0  0  0
   -5.8272    0.2334    2.2090 C   0  0  0  0  0  0  0  0  0  0  0  0
   -2.8439    1.0697    0.3568 H   0  0  0  0  0  0  0  0  0  0  0  0
   -2.9715   -1.9957   -2.1111 H   0  0  0  0  0  0  0  0  0  0  0  0
   -4.7036   -1.6319   -2.2876 H   0  0  0  0  0  0  0  0  0  0  0  0
   -4.0871   -2.3096   -0.7690 H   0  0  0  0  0  0  0  0  0  0  0  0
   -1.7537    0.2018   -2.0941 H   0  0  0  0  0  0  0  0  0  0  0  0
   -2.9042    1.5545   -2.2450 H   0  0  0  0  0  0  0  0  0  0  0  0
   -3.1055    0.0480   -3.2344 H   0  0  0  0  0  0  0  0  0  0  0  0
   -5.2137    1.0404   -2.1059 H   0  0  0  0  0  0  0  0  0  0  0  0
   -5.8456   -0.0901   -0.8352 H   0  0  0  0  0  0  0  0  0  0  0  0
   -4.9738    1.4059   -0.4011 H   0  0  0  0  0  0  0  0  0  0  0  0
   -1.3249   -1.4404   -0.3907 H   0  0  0  0  0  0  0  0  0  0  0  0
    2.5649   -2.6922   -1.1279 H   0  0  0  0  0  0  0  0  0  0  0  0
    1.7217    1.9583    0.0739 H   0  0  0  0  0  0  0  0  0  0  0  0
    6.2313    1.1478   -0.8400 H   0  0  0  0  0  0  0  0  0  0  0  0
    4.8641    2.9202   -2.1475 H   0  0  0  0  0  0  0  0  0  0  0  0
    5.0325    3.9080   -0.6809 H   0  0  0  0  0  0  0  0  0  0  0  0
    6.5558    3.3883   -1.6130 H   0  0  0  0  0  0  0  0  0  0  0  0
    5.2935   -1.1618   -1.9392 H   0  0  0  0  0  0  0  0  0  0  0  0
    5.9839   -3.2455   -0.7383 H   0  0  0  0  0  0  0  0  0  0  0  0
    4.4699   -3.2221    0.3012 H   0  0  0  0  0  0  0  0  0  0  0  0
    5.2060   -1.0440    1.2487 H   0  0  0  0  0  0  0  0  0  0  0  0
    6.7167   -0.9934    0.1242 H   0  0  0  0  0  0  0  0  0  0  0  0
   -4.6664   -2.2824    3.3038 H   0  0  0  0  0  0  0  0  0  0  0  0
   -4.8037   -0.6272    4.1424 H   0  0  0  0  0  0  0  0  0  0  0  0
   -7.1867   -0.9516    3.5316 H   0  0  0  0  0  0  0  0  0  0  0  0
   -6.6740   -1.8008    1.9360 H   0  0  0  0  0  0  0  0  0  0  0  0
   -6.3522    0.6317    1.3550 H   0  0  0  0  0  0  0  0  0  0  0  0
   -5.7474    0.9425    3.0726 H   0  0  0  0  0  0  0  0  0  0  0  0
  1  2  2  0
  2  3  1  0
  3  4  1  0
  4  5  1  0
  4  6  1  0
  4  7  1  0
  3  8  1  0
  8  9  1  0
  9 10  2  0
  9 11  1  0
 11 12  2  0
 12 13  1  0
 13 14  2  0
 14 15  1  0
 15 16  2  0
 15 17  1  0
 17 18  1  0
 18 19  1  0
 19 20  1  0
 19 21  1  0
 19 22  1  0
 18 23  1  0
 14 24  1  0
 24 25  1  0
 25 26  1  0
  2 27  1  0
 27 28  1  0
 28 29  1  0
 29 30  1  0
 16 11  1  0
 26 24  1  0
 30 27  1  0
  3 31  1  0
  5 32  1  0
  5 33  1  0
  5 34  1  0
  6 35  1  0
  6 36  1  0
  6 37  1  0
  7 38  1  0
  7 39  1  0
  7 40  1  0
  8 41  1  0
 13 42  1  0
 16 43  1  0
 18 44  1  6
 23 45  1  0
 23 46  1  0
 23 47  1  0
 24 48  1  0
 25 49  1  0
 25 50  1  0
 26 51  1  0
 26 52  1  0
 28 53  1  0
 28 54  1  0
 29 55  1  0
 29 56  1  0
 30 57  1  0
 30 58  1  0
M  END
>  <Ligand ID>  (1) 
LIG0005183

>  <Ligand>  (1) 
CHEMBL3894170

>  <SMILES>  (1) 
O=C(C(C(C)(C)C)NC(=O)c1ncc(c(c1)O[C@H](C(F)(F)F)C)C1CC1)N1CCC1

>  <CID>  (1) 
90204106.0

>  <ChEMBL ID>  (1) 
nan

>  <InChiKey>  (1) 
PCLDQNWWFKZHCH-WHUIICBVSA-N

>  <InChi>  (1) 
InChI=1S/C21H28F3N3O3/c1-12(21(22,23)24)30-16-10-15(25-11-14(16)13-6-7-13)18(28)26-17(20(2,3)4)19(29)27-8-5-9-27/h10-13,17H,5-9H2,1-4H3,(H,26,28)/t12-,17?/m0/s1

>  <IUPAC Name>  (1) 
N-[1-(azetidin-1-yl)-3,3-dimethyl-1-oxobutan-2-yl]-5-cyclopropyl-4-[(2S)-1,1,1-trifluoropropan-2-yl]oxypyridine-2-carboxamide

$$$$
