
     RDKit          3D

 55 58  0  0  0  0  0  0  0  0999 V2000
    7.1508   -3.1671   -0.6525 N   0  0  0  0  0  0  0  0  0  0  0  0
    7.1471   -2.1654   -0.0632 C   0  0  0  0  0  0  0  0  0  0  0  0
    7.1264   -0.9199    0.6874 C   0  0  0  0  0  0  0  0  0  0  0  0
    7.5455   -0.8744    2.0108 C   0  0  0  0  0  0  0  0  0  0  0  0
    7.5333    0.2663    2.7203 N   0  0  0  0  0  0  0  0  0  0  0  0
    7.1035    1.4326    2.1576 C   0  0  0  0  0  0  0  0  0  0  0  0
    6.6858    1.3907    0.8408 C   0  0  0  0  0  0  0  0  0  0  0  0
    6.6789    0.2583    0.0776 C   0  0  0  0  0  0  0  0  0  0  0  0
    6.2810    0.1493   -1.3380 C   0  0  0  0  0  0  0  0  0  0  0  0
    5.0929   -0.5224   -1.4829 O   0  0  0  0  0  0  0  0  0  0  0  0
    3.8566   -0.2278   -1.0568 C   0  0  0  0  0  0  0  0  0  0  0  0
    3.4164    0.8632   -0.3566 C   0  0  0  0  0  0  0  0  0  0  0  0
    2.1240    1.0399    0.0195 N   0  0  0  0  0  0  0  0  0  0  0  0
    1.2100    0.1148   -0.2982 C   0  0  0  0  0  0  0  0  0  0  0  0
    1.5753   -0.9797   -0.9850 N   0  0  0  0  0  0  0  0  0  0  0  0
    2.8470   -1.1718   -1.3648 C   0  0  0  0  0  0  0  0  0  0  0  0
   -0.1494    0.2767    0.0837 N   0  0  0  0  0  0  0  0  0  0  0  0
   -0.5707    1.4611    0.8255 C   0  0  0  0  0  0  0  0  0  0  0  0
   -1.9157    1.9547    0.3390 C   0  0  0  0  0  0  0  0  0  0  0  0
   -2.8946    0.8825    0.3123 N   0  0  0  0  0  0  0  0  0  0  0  0
   -2.4061   -0.4770    0.5155 C   0  0  0  0  0  0  0  0  0  0  0  0
   -1.1358   -0.7300   -0.2569 C   0  0  1  0  0  0  0  0  0  0  0  0
   -1.4750   -0.7448   -1.7126 C   0  0  0  0  0  0  0  0  0  0  0  0
   -4.2693    1.1740    0.0945 C   0  0  0  0  0  0  0  0  0  0  0  0
   -4.5830    2.3804   -0.0701 O   0  0  0  0  0  0  0  0  0  0  0  0
   -5.1528    0.1234    0.0792 O   0  0  0  0  0  0  0  0  0  0  0  0
   -6.5504    0.2276   -0.1226 C   0  0  1  0  0  0  0  0  0  0  0  0
   -6.8733   -0.7105   -1.2733 C   0  0  0  0  0  0  0  0  0  0  0  0
   -6.9661   -1.9805   -0.7494 O   0  0  0  0  0  0  0  0  0  0  0  0
   -7.2005   -1.9133    0.6051 C   0  0  0  0  0  0  0  0  0  0  0  0
   -7.2812   -0.4742    1.0027 C   0  0  0  0  0  0  0  0  0  0  0  0
    7.8808   -1.8260    2.4222 H   0  0  0  0  0  0  0  0  0  0  0  0
    7.0860    2.3624    2.7129 H   0  0  0  0  0  0  0  0  0  0  0  0
    6.3428    2.3054    0.3745 H   0  0  0  0  0  0  0  0  0  0  0  0
    7.0985   -0.3328   -1.9410 H   0  0  0  0  0  0  0  0  0  0  0  0
    6.2460    1.2005   -1.7538 H   0  0  0  0  0  0  0  0  0  0  0  0
    4.0944    1.6370   -0.0904 H   0  0  0  0  0  0  0  0  0  0  0  0
    3.0925   -2.0719   -1.9178 H   0  0  0  0  0  0  0  0  0  0  0  0
    0.1982    2.2390    0.6501 H   0  0  0  0  0  0  0  0  0  0  0  0
   -0.5814    1.2011    1.8942 H   0  0  0  0  0  0  0  0  0  0  0  0
   -2.2790    2.6855    1.1172 H   0  0  0  0  0  0  0  0  0  0  0  0
   -1.8315    2.5160   -0.5919 H   0  0  0  0  0  0  0  0  0  0  0  0
   -2.2616   -0.5908    1.6204 H   0  0  0  0  0  0  0  0  0  0  0  0
   -3.2139   -1.1515    0.1919 H   0  0  0  0  0  0  0  0  0  0  0  0
   -0.7792   -1.7331    0.0423 H   0  0  0  0  0  0  0  0  0  0  0  0
   -2.5356   -1.0743   -1.8616 H   0  0  0  0  0  0  0  0  0  0  0  0
   -1.3954    0.2769   -2.1490 H   0  0  0  0  0  0  0  0  0  0  0  0
   -0.8554   -1.4970   -2.2411 H   0  0  0  0  0  0  0  0  0  0  0  0
   -6.8874    1.2558   -0.2731 H   0  0  0  0  0  0  0  0  0  0  0  0
   -6.0069   -0.7148   -1.9953 H   0  0  0  0  0  0  0  0  0  0  0  0
   -7.7550   -0.3892   -1.8571 H   0  0  0  0  0  0  0  0  0  0  0  0
   -8.1623   -2.4277    0.8239 H   0  0  0  0  0  0  0  0  0  0  0  0
   -6.4257   -2.4620    1.1971 H   0  0  0  0  0  0  0  0  0  0  0  0
   -8.3157   -0.1430    1.0763 H   0  0  0  0  0  0  0  0  0  0  0  0
   -6.7036   -0.3542    1.9605 H   0  0  0  0  0  0  0  0  0  0  0  0
  1  2  3  0
  2  3  1  0
  3  4  2  0
  4  5  1  0
  5  6  2  0
  6  7  1  0
  7  8  2  0
  8  9  1  0
  9 10  1  0
 10 11  1  0
 11 12  2  0
 12 13  1  0
 13 14  2  0
 14 15  1  0
 15 16  2  0
 14 17  1  0
 17 18  1  0
 18 19  1  0
 19 20  1  0
 20 21  1  0
 21 22  1  0
 22 23  1  0
 20 24  1  0
 24 25  2  0
 24 26  1  0
 26 27  1  0
 27 28  1  0
 28 29  1  0
 29 30  1  0
 30 31  1  0
  8  3  1  0
 16 11  1  0
 22 17  1  0
 31 27  1  0
  4 32  1  0
  6 33  1  0
  7 34  1  0
  9 35  1  0
  9 36  1  0
 12 37  1  0
 16 38  1  0
 18 39  1  0
 18 40  1  0
 19 41  1  0
 19 42  1  0
 21 43  1  0
 21 44  1  0
 22 45  1  1
 23 46  1  0
 23 47  1  0
 23 48  1  0
 27 49  1  6
 28 50  1  0
 28 51  1  0
 30 52  1  0
 30 53  1  0
 31 54  1  0
 31 55  1  0
M  END
>  <Ligand ID>  (1) 
LIG0005289

>  <Ligand>  (1) 
CHEMBL3220242

>  <SMILES>  (1) 
N#Cc1cnccc1COc1cnc(nc1)N1CCN(C[C@H]1C)C(=O)O[C@H]1COCC1

>  <CID>  (1) 
90666914.0

>  <ChEMBL ID>  (1) 
nan

>  <InChiKey>  (1) 
ZUDZPIGJFSGJEW-CRAIPNDOSA-N

>  <InChi>  (1) 
InChI=1S/C21H24N6O4/c1-15-12-26(21(28)31-18-3-7-29-14-18)5-6-27(15)20-24-10-19(11-25-20)30-13-16-2-4-23-9-17(16)8-22/h2,4,9-11,15,18H,3,5-7,12-14H2,1H3/t15-,18-/m1/s1

>  <IUPAC Name>  (1) 
[(3R)-oxolan-3-yl] (3R)-4-[5-[(3-cyanopyridin-4-yl)methoxy]pyrimidin-2-yl]-3-methylpiperazine-1-carboxylate

$$$$
