
     RDKit          3D

111118  0  0  0  0  0  0  0  0999 V2000
   10.9736    1.6831    2.9918 C   0  0  0  0  0  0  0  0  0  0  0  0
   11.0736    1.0020    1.7577 O   0  0  0  0  0  0  0  0  0  0  0  0
   12.3279    0.4422    1.5952 C   0  0  0  0  0  0  0  0  0  0  0  0
   12.3258   -0.2701    0.2336 C   0  0  0  0  0  0  0  0  0  0  0  0
   11.3611   -1.2465    0.2078 O   0  0  0  0  0  0  0  0  0  0  0  0
   11.2776   -1.9528   -0.9741 C   0  0  0  0  0  0  0  0  0  0  0  0
   10.9583   -1.0647   -2.1514 C   0  0  0  0  0  0  0  0  0  0  0  0
    9.7560   -0.4045   -1.9966 O   0  0  0  0  0  0  0  0  0  0  0  0
    8.6849   -1.2623   -1.8744 C   0  0  0  0  0  0  0  0  0  0  0  0
    7.3796   -0.4463   -1.7113 C   0  0  0  0  0  0  0  0  0  0  0  0
    6.3563   -1.3428   -1.5959 O   0  0  0  0  0  0  0  0  0  0  0  0
    5.1225   -0.7566   -1.4664 C   0  0  0  0  0  0  0  0  0  0  0  0
    5.0150    0.0969   -0.2403 C   0  0  0  0  0  0  0  0  0  0  0  0
    3.7881    0.6935   -0.0738 O   0  0  0  0  0  0  0  0  0  0  0  0
    3.3960    1.5343   -1.0618 C   0  0  0  0  0  0  0  0  0  0  0  0
    2.0971    2.2525   -0.9003 C   0  0  0  0  0  0  0  0  0  0  0  0
    0.9446    1.5698   -0.7737 O   0  0  0  0  0  0  0  0  0  0  0  0
    0.3267    0.6979    0.0394 C   0  0  0  0  0  0  0  0  0  0  0  0
    0.8162    0.1712    1.2227 C   0  0  0  0  0  0  0  0  0  0  0  0
    0.1127   -0.7375    2.0227 C   0  0  0  0  0  0  0  0  0  0  0  0
   -1.1425   -1.1412    1.6213 C   0  0  0  0  0  0  0  0  0  0  0  0
   -1.5762   -0.5920    0.4444 C   0  0  0  0  0  0  0  0  0  0  0  0
   -0.9581    0.2760   -0.3583 C   0  0  0  0  0  0  0  0  0  0  0  0
   -1.8187    0.5311   -1.4177 O   0  0  0  0  0  0  0  0  0  0  0  0
   -3.1111   -0.0219   -1.1547 C   0  0  1  0  0  0  0  0  0  0  0  0
   -2.9171   -1.0060   -0.0465 C   0  0  1  0  0  0  0  0  0  0  0  0
   -2.9667   -2.4350   -0.4151 C   0  0  0  0  0  0  0  0  0  0  0  0
   -3.7899   -3.3527    0.4018 C   0  0  0  0  0  0  0  0  0  0  0  0
   -4.2432   -2.8637    1.6569 N   0  0  0  0  0  0  0  0  0  0  0  0
   -3.5346   -1.7011    2.1407 C   0  0  1  0  0  0  0  0  0  0  0  0
   -2.0601   -2.0353    2.3330 C   0  0  0  0  0  0  0  0  0  0  0  0
   -3.8071   -0.6311    1.1322 C   0  0  1  0  0  0  0  0  0  0  0  0
   -3.4530    0.7468    1.6172 C   0  0  0  0  0  0  0  0  0  0  0  0
   -3.6770    1.7231    0.4926 C   0  0  0  0  0  0  0  0  0  0  0  0
   -4.1482    0.9971   -0.7649 C   0  0  1  0  0  0  0  0  0  0  0  0
   -4.4515    1.8953   -1.7545 O   0  0  0  0  0  0  0  0  0  0  0  0
   -3.4411    2.6782   -2.2302 C   0  0  0  0  0  0  0  0  0  0  0  0
   -5.4190    0.2184   -0.4856 C   0  0  1  0  0  0  0  0  0  0  0  0
   -5.2479   -0.6061    0.7468 C   0  0  0  0  0  0  0  0  0  0  0  0
   -6.6388    1.0790   -0.5259 C   0  0  0  0  0  0  0  0  0  0  0  0
   -6.6525    2.1038    0.3820 O   0  0  0  0  0  0  0  0  0  0  0  0
   -7.7997    2.8849    0.2863 C   0  0  0  0  0  0  0  0  0  0  0  0
   -7.9423    3.5219   -1.0423 C   0  0  0  0  0  0  0  0  0  0  0  0
   -8.6173    2.9539   -2.1012 C   0  0  0  0  0  0  0  0  0  0  0  0
   -8.6598    3.6722   -3.2762 C   0  0  0  0  0  0  0  0  0  0  0  0
   -8.0805    4.8999   -3.4555 C   0  0  0  0  0  0  0  0  0  0  0  0
   -7.4065    5.4649   -2.3949 C   0  0  0  0  0  0  0  0  0  0  0  0
   -7.3534    4.7604   -1.2108 C   0  0  0  0  0  0  0  0  0  0  0  0
   -4.3073   -3.9229    2.6349 C   0  0  0  0  0  0  0  0  0  0  0  0
   -5.4181   -4.8647    2.2265 C   0  0  0  0  0  0  0  0  0  0  0  0
   -6.8294   -4.2448    2.1381 C   0  0  0  0  0  0  0  0  0  0  0  0
   -6.4850   -5.2482    3.1846 C   0  0  0  0  0  0  0  0  0  0  0  0
   11.7176    2.4977    3.0575 H   0  0  0  0  0  0  0  0  0  0  0  0
   11.0841    0.9896    3.8310 H   0  0  0  0  0  0  0  0  0  0  0  0
    9.9707    2.1799    3.0522 H   0  0  0  0  0  0  0  0  0  0  0  0
   13.1363    1.1872    1.6326 H   0  0  0  0  0  0  0  0  0  0  0  0
   12.5249   -0.2874    2.4228 H   0  0  0  0  0  0  0  0  0  0  0  0
   13.3297   -0.6840    0.0070 H   0  0  0  0  0  0  0  0  0  0  0  0
   12.0924    0.5479   -0.5038 H   0  0  0  0  0  0  0  0  0  0  0  0
   12.2960   -2.3904   -1.1389 H   0  0  0  0  0  0  0  0  0  0  0  0
   10.5447   -2.7609   -0.8707 H   0  0  0  0  0  0  0  0  0  0  0  0
   11.7777   -0.3294   -2.2980 H   0  0  0  0  0  0  0  0  0  0  0  0
   10.9695   -1.6986   -3.0750 H   0  0  0  0  0  0  0  0  0  0  0  0
    8.5577   -1.9264   -2.7486 H   0  0  0  0  0  0  0  0  0  0  0  0
    8.7815   -1.8154   -0.9226 H   0  0  0  0  0  0  0  0  0  0  0  0
    7.3090    0.2329   -2.5955 H   0  0  0  0  0  0  0  0  0  0  0  0
    7.5451    0.1525   -0.7733 H   0  0  0  0  0  0  0  0  0  0  0  0
    4.3009   -1.5140   -1.4465 H   0  0  0  0  0  0  0  0  0  0  0  0
    4.9728   -0.1164   -2.3888 H   0  0  0  0  0  0  0  0  0  0  0  0
    5.2485   -0.5187    0.6637 H   0  0  0  0  0  0  0  0  0  0  0  0
    5.8238    0.8916   -0.2238 H   0  0  0  0  0  0  0  0  0  0  0  0
    3.3811    1.0179   -2.0577 H   0  0  0  0  0  0  0  0  0  0  0  0
    4.1861    2.3345   -1.1429 H   0  0  0  0  0  0  0  0  0  0  0  0
    2.0433    2.9668   -1.7763 H   0  0  0  0  0  0  0  0  0  0  0  0
    2.2247    2.9675   -0.0207 H   0  0  0  0  0  0  0  0  0  0  0  0
    1.7849    0.4519    1.6071 H   0  0  0  0  0  0  0  0  0  0  0  0
    0.5024   -1.1387    2.9370 H   0  0  0  0  0  0  0  0  0  0  0  0
   -3.4288   -0.5140   -2.1042 H   0  0  0  0  0  0  0  0  0  0  0  0
   -1.9079   -2.8297   -0.4291 H   0  0  0  0  0  0  0  0  0  0  0  0
   -3.2504   -2.4977   -1.5077 H   0  0  0  0  0  0  0  0  0  0  0  0
   -4.6777   -3.6580   -0.1922 H   0  0  0  0  0  0  0  0  0  0  0  0
   -3.2558   -4.3232    0.5916 H   0  0  0  0  0  0  0  0  0  0  0  0
   -3.9558   -1.4350    3.1101 H   0  0  0  0  0  0  0  0  0  0  0  0
   -1.8067   -2.0900    3.4269 H   0  0  0  0  0  0  0  0  0  0  0  0
   -1.8917   -3.0651    1.9585 H   0  0  0  0  0  0  0  0  0  0  0  0
   -4.1538    0.9457    2.4793 H   0  0  0  0  0  0  0  0  0  0  0  0
   -2.4553    0.8712    2.0262 H   0  0  0  0  0  0  0  0  0  0  0  0
   -4.4067    2.4681    0.8272 H   0  0  0  0  0  0  0  0  0  0  0  0
   -2.7405    2.2709    0.2429 H   0  0  0  0  0  0  0  0  0  0  0  0
   -3.9143    3.3457   -3.0179 H   0  0  0  0  0  0  0  0  0  0  0  0
   -2.6674    2.1236   -2.8411 H   0  0  0  0  0  0  0  0  0  0  0  0
   -2.9603    3.3529   -1.5147 H   0  0  0  0  0  0  0  0  0  0  0  0
   -5.5111   -0.5003   -1.3495 H   0  0  0  0  0  0  0  0  0  0  0  0
   -5.8125   -0.1542    1.6061 H   0  0  0  0  0  0  0  0  0  0  0  0
   -5.6657   -1.6416    0.6367 H   0  0  0  0  0  0  0  0  0  0  0  0
   -7.5166    0.4331   -0.3119 H   0  0  0  0  0  0  0  0  0  0  0  0
   -6.7703    1.4145   -1.5770 H   0  0  0  0  0  0  0  0  0  0  0  0
   -8.7041    2.2457    0.4523 H   0  0  0  0  0  0  0  0  0  0  0  0
   -7.7354    3.6651    1.0712 H   0  0  0  0  0  0  0  0  0  0  0  0
   -9.0767    1.9849   -1.9670 H   0  0  0  0  0  0  0  0  0  0  0  0
   -9.1868    3.2563   -4.1429 H   0  0  0  0  0  0  0  0  0  0  0  0
   -8.1219    5.4582   -4.3920 H   0  0  0  0  0  0  0  0  0  0  0  0
   -6.9154    6.4398   -2.4514 H   0  0  0  0  0  0  0  0  0  0  0  0
   -6.8116    5.2299   -0.3816 H   0  0  0  0  0  0  0  0  0  0  0  0
   -4.5952   -3.4780    3.6307 H   0  0  0  0  0  0  0  0  0  0  0  0
   -3.3674   -4.5047    2.6925 H   0  0  0  0  0  0  0  0  0  0  0  0
   -5.1975   -5.5887    1.4034 H   0  0  0  0  0  0  0  0  0  0  0  0
   -7.4558   -4.5026    1.2780 H   0  0  0  0  0  0  0  0  0  0  0  0
   -6.9281   -3.1983    2.5368 H   0  0  0  0  0  0  0  0  0  0  0  0
   -6.9798   -6.2378    3.0669 H   0  0  0  0  0  0  0  0  0  0  0  0
   -6.4205   -4.9233    4.2462 H   0  0  0  0  0  0  0  0  0  0  0  0
  1  2  1  0
  2  3  1  0
  3  4  1  0
  4  5  1  0
  5  6  1  0
  6  7  1  0
  7  8  1  0
  8  9  1  0
  9 10  1  0
 10 11  1  0
 11 12  1  0
 12 13  1  0
 13 14  1  0
 14 15  1  0
 15 16  1  0
 16 17  1  0
 17 18  1  0
 18 19  2  0
 19 20  1  0
 20 21  2  0
 21 22  1  0
 22 23  2  0
 23 24  1  0
 24 25  1  0
 25 26  1  0
 26 27  1  6
 27 28  1  0
 28 29  1  0
 29 30  1  0
 30 31  1  0
 30 32  1  0
 32 33  1  1
 33 34  1  0
 34 35  1  0
 35 36  1  6
 36 37  1  0
 35 38  1  0
 38 39  1  0
 38 40  1  0
 40 41  1  0
 41 42  1  0
 42 43  1  0
 43 44  2  0
 44 45  1  0
 45 46  2  0
 46 47  1  0
 47 48  2  0
 29 49  1  0
 49 50  1  0
 50 51  1  0
 51 52  1  0
 23 18  1  0
 35 25  1  0
 48 43  1  0
 52 50  1  0
 31 21  1  0
 39 32  1  0
 26 22  1  0
 32 26  1  0
  1 53  1  0
  1 54  1  0
  1 55  1  0
  3 56  1  0
  3 57  1  0
  4 58  1  0
  4 59  1  0
  6 60  1  0
  6 61  1  0
  7 62  1  0
  7 63  1  0
  9 64  1  0
  9 65  1  0
 10 66  1  0
 10 67  1  0
 12 68  1  0
 12 69  1  0
 13 70  1  0
 13 71  1  0
 15 72  1  0
 15 73  1  0
 16 74  1  0
 16 75  1  0
 19 76  1  0
 20 77  1  0
 25 78  1  6
 27 79  1  0
 27 80  1  0
 28 81  1  0
 28 82  1  0
 30 83  1  1
 31 84  1  0
 31 85  1  0
 33 86  1  0
 33 87  1  0
 34 88  1  0
 34 89  1  0
 37 90  1  0
 37 91  1  0
 37 92  1  0
 38 93  1  6
 39 94  1  0
 39 95  1  0
 40 96  1  0
 40 97  1  0
 42 98  1  0
 42 99  1  0
 44100  1  0
 45101  1  0
 46102  1  0
 47103  1  0
 48104  1  0
 49105  1  0
 49106  1  0
 50107  1  0
 51108  1  0
 51109  1  0
 52110  1  0
 52111  1  0
M  END
>  <Ligand ID>  (1) 
LIG0004905

>  <Ligand>  (1) 
CHEMBL3930454

>  <SMILES>  (1) 
COCCOCCOCCOCCOCCOc1ccc2c3c1O[C@H]1[C@]43CCN([C@@H](C2)[C@]24CC[C@]1(OC)[C@@H](C2)COCc1ccccc1)CC1CC1

>  <CID>  (1) 
134138647.0

>  <ChEMBL ID>  (1) 
nan

>  <InChiKey>  (1) 
XANWUMAEHRCRAP-BTVDBRJBSA-N

>  <InChi>  (1) 
InChI=1S/C42H59NO9/c1-44-16-17-46-18-19-47-20-21-48-22-23-49-24-25-51-35-11-10-33-26-36-40-12-13-42(45-2,34(27-40)30-50-29-32-6-4-3-5-7-32)39-41(40,37(33)38(35)52-39)14-15-43(36)28-31-8-9-31/h3-7,10-11,31,34,36,39H,8-9,12-30H2,1-2H3/t34-,36-,39-,40-,41+,42-/m0/s1

>  <IUPAC Name>  (1) 
(1R,2R,6S,14S,15S,16S)-5-(cyclopropylmethyl)-15-methoxy-11-[2-[2-[2-[2-(2-methoxyethoxy)ethoxy]ethoxy]ethoxy]ethoxy]-16-(phenylmethoxymethyl)-13-oxa-5-azahexacyclo[13.2.2.12,8.01,6.02,14.012,20]icosa-8(20),9,11-triene

$$$$
