
     RDKit          3D

 28 29  0  0  0  0  0  0  0  0999 V2000
    1.4559    3.0287    0.6170 O   0  0  0  0  0  0  0  0  0  0  0  0
    0.8032    2.0112    0.3112 C   0  0  0  0  0  0  0  0  0  0  0  0
   -0.6482    1.9955    0.3003 N   0  0  0  0  0  0  0  0  0  0  0  0
   -1.2539    0.7653    0.7018 C   0  0  1  0  0  0  0  0  0  0  0  0
   -2.7171    0.6436    0.6449 C   0  0  0  0  0  0  0  0  0  0  0  0
   -2.8878   -0.8184    0.6581 N   0  0  0  0  0  0  0  0  0  0  0  0
   -1.6889   -1.3756    0.0102 C   0  0  0  0  0  0  0  0  0  0  0  0
   -0.8664   -0.2237   -0.4138 C   0  0  2  0  0  0  0  0  0  0  0  0
    0.5788   -0.3396   -0.3942 C   0  0  0  0  0  0  0  0  0  0  0  0
    1.4229    0.7314   -0.0679 C   0  0  0  0  0  0  0  0  0  0  0  0
    2.7945    0.6088   -0.0748 C   0  0  0  0  0  0  0  0  0  0  0  0
    3.7770    2.0022    0.3462 Cl  0  0  0  0  0  0  0  0  0  0  0  0
    3.3669   -0.6005   -0.4106 C   0  0  0  0  0  0  0  0  0  0  0  0
    2.5457   -1.6672   -0.7343 C   0  0  0  0  0  0  0  0  0  0  0  0
    1.1715   -1.5326   -0.7245 C   0  0  0  0  0  0  0  0  0  0  0  0
    5.1143   -0.7323   -0.4123 Cl  0  0  0  0  0  0  0  0  0  0  0  0
    0.6913    0.0000    0.0000 Cl  0  0  0  0  0  0  0  0  0  0  0  0
   -1.1439    2.8629    0.0100 H   0  0  0  0  0  0  0  0  0  0  0  0
   -0.8925    0.3510    1.6639 H   0  0  0  0  0  0  0  0  0  0  0  0
   -3.1380    1.0059    1.6184 H   0  0  0  0  0  0  0  0  0  0  0  0
   -3.2162    1.1056   -0.2028 H   0  0  0  0  0  0  0  0  0  0  0  0
   -3.7603   -1.0813    0.1921 H   0  0  0  0  0  0  0  0  0  0  0  0
   -2.0769   -1.8850   -0.9181 H   0  0  0  0  0  0  0  0  0  0  0  0
   -1.1667   -2.1012    0.6307 H   0  0  0  0  0  0  0  0  0  0  0  0
   -1.2182    0.2459   -1.3736 H   0  0  0  0  0  0  0  0  0  0  0  0
    3.0502   -2.5913   -0.9893 H   0  0  0  0  0  0  0  0  0  0  0  0
    0.5941   -2.4092   -0.9885 H   0  0  0  0  0  0  0  0  0  0  0  0
   -0.6913    0.0000    0.0000 H   0  0  0  0  0  0  0  0  0  0  0  0
  1  2  2  0
  2  3  1  0
  3  4  1  0
  4  5  1  0
  5  6  1  0
  6  7  1  0
  7  8  1  0
  8  9  1  0
  9 10  2  0
 10 11  1  0
 11 12  1  0
 11 13  2  0
 13 14  1  0
 14 15  2  0
 13 16  1  0
 10  2  1  0
  8  4  1  0
 15  9  1  0
  3 18  1  0
  4 19  1  1
  5 20  1  0
  5 21  1  0
  6 22  1  0
  7 23  1  0
  7 24  1  0
  8 25  1  6
 14 26  1  0
 15 27  1  0
 17 28  1  0
M  END
>  <Ligand ID>  (1) 
LIG0002440

>  <Ligand>  (1) 
CHEMBL2337500

>  <SMILES>  (1) 
O=C1N[C@H]2CNC[C@@H]2c2c1c(Cl)c(cc2)Cl.Cl

>  <CID>  (1) 
11609025.0

>  <ChEMBL ID>  (1) 
nan

>  <InChiKey>  (1) 
GYAMIAFDFGPBLN-HNJRQZNRSA-N

>  <InChi>  (1) 
InChI=1S/C11H10Cl2N2O.ClH/c12-7-2-1-5-6-3-14-4-8(6)15-11(16)9(5)10(7)13;/h1-2,6,8,14H,3-4H2,(H,15,16);1H/t6-,8+;/m1./s1

>  <IUPAC Name>  (1) 
(3aR,9bS)-6,7-dichloro-1,2,3,3a,4,9b-hexahydropyrrolo[3,4-c]isoquinolin-5-one;hydrochloride

$$$$
