
     RDKit          3D

 51 54  0  0  0  0  0  0  0  0999 V2000
    5.2826   -0.4590    0.9967 O   0  0  0  0  0  0  0  0  0  0  0  0
    4.2514   -0.2287    0.0951 C   0  0  1  0  0  0  0  0  0  0  0  0
    3.5800   -1.5326   -0.1861 C   0  0  0  0  0  0  0  0  0  0  0  0
    2.2140   -1.4187   -0.8145 C   0  0  0  0  0  0  0  0  0  0  0  0
    1.3850   -0.4445    0.0015 C   0  0  1  0  0  0  0  0  0  0  0  0
    2.0577    0.8858   -0.1380 C   0  0  2  0  0  0  0  0  0  0  0  0
    3.3543    0.8354    0.6385 C   0  0  0  0  0  0  0  0  0  0  0  0
    1.2194    2.0764    0.1474 C   0  0  0  0  0  0  0  0  0  0  0  0
   -0.0970    1.8131    0.7925 C   0  0  0  0  0  0  0  0  0  0  0  0
   -0.8066    0.5926    0.3382 C   0  0  2  0  0  0  0  0  0  0  0  0
    0.0061   -0.3185   -0.5397 C   0  0  2  0  0  0  0  0  0  0  0  0
   -0.7137   -1.6325   -0.6715 C   0  0  0  0  0  0  0  0  0  0  0  0
   -2.0588   -1.4115   -1.3117 C   0  0  0  0  0  0  0  0  0  0  0  0
   -2.8480   -0.4696   -0.4818 C   0  0  1  0  0  0  0  0  0  0  0  0
   -2.0856    0.8240   -0.3810 C   0  0  1  0  0  0  0  0  0  0  0  0
   -3.0787    1.7249    0.2617 C   0  0  0  0  0  0  0  0  0  0  0  0
   -4.3746    1.3426   -0.4527 C   0  0  0  0  0  0  0  0  0  0  0  0
   -4.0705    0.0524   -1.1603 C   0  0  0  0  0  0  0  0  0  0  0  0
   -4.7159   -0.4022   -2.0699 O   0  0  0  0  0  0  0  0  0  0  0  0
   -3.2785   -1.0391    0.8194 C   0  0  0  0  0  0  0  0  0  0  0  0
    1.3701   -0.9792    1.4016 C   0  0  0  0  0  0  0  0  0  0  0  0
    5.7529    0.3906    1.1398 H   0  0  0  0  0  0  0  0  0  0  0  0
    4.7110    0.1511   -0.8485 H   0  0  0  0  0  0  0  0  0  0  0  0
    4.2220   -2.0684   -0.9306 H   0  0  0  0  0  0  0  0  0  0  0  0
    3.5514   -2.2232    0.6931 H   0  0  0  0  0  0  0  0  0  0  0  0
    2.3430   -1.0354   -1.8615 H   0  0  0  0  0  0  0  0  0  0  0  0
    1.7898   -2.4391   -0.8125 H   0  0  0  0  0  0  0  0  0  0  0  0
    2.3882    0.9619   -1.2155 H   0  0  0  0  0  0  0  0  0  0  0  0
    3.2197    0.8154    1.7292 H   0  0  0  0  0  0  0  0  0  0  0  0
    3.8674    1.8165    0.4291 H   0  0  0  0  0  0  0  0  0  0  0  0
    1.8234    2.7312    0.8303 H   0  0  0  0  0  0  0  0  0  0  0  0
    1.0572    2.7210   -0.7490 H   0  0  0  0  0  0  0  0  0  0  0  0
   -0.7729    2.6894    0.5678 H   0  0  0  0  0  0  0  0  0  0  0  0
    0.0341    1.8736    1.9010 H   0  0  0  0  0  0  0  0  0  0  0  0
   -1.0760    0.0154    1.2692 H   0  0  0  0  0  0  0  0  0  0  0  0
    0.0717    0.1157   -1.5666 H   0  0  0  0  0  0  0  0  0  0  0  0
   -0.1983   -2.3697   -1.2991 H   0  0  0  0  0  0  0  0  0  0  0  0
   -0.8487   -2.0393    0.3415 H   0  0  0  0  0  0  0  0  0  0  0  0
   -1.9593   -1.0686   -2.3561 H   0  0  0  0  0  0  0  0  0  0  0  0
   -2.6000   -2.3897   -1.3070 H   0  0  0  0  0  0  0  0  0  0  0  0
   -1.9448    1.1851   -1.4385 H   0  0  0  0  0  0  0  0  0  0  0  0
   -2.8233    2.7890    0.0765 H   0  0  0  0  0  0  0  0  0  0  0  0
   -3.1505    1.5643    1.3482 H   0  0  0  0  0  0  0  0  0  0  0  0
   -5.1183    1.0820    0.3354 H   0  0  0  0  0  0  0  0  0  0  0  0
   -4.6990    2.1358   -1.1267 H   0  0  0  0  0  0  0  0  0  0  0  0
   -3.9391   -1.9115    0.5714 H   0  0  0  0  0  0  0  0  0  0  0  0
   -3.9297   -0.3411    1.3675 H   0  0  0  0  0  0  0  0  0  0  0  0
   -2.4801   -1.4570    1.4505 H   0  0  0  0  0  0  0  0  0  0  0  0
    1.0188   -2.0406    1.3303 H   0  0  0  0  0  0  0  0  0  0  0  0
    0.7313   -0.4293    2.1044 H   0  0  0  0  0  0  0  0  0  0  0  0
    2.3653   -1.0364    1.8536 H   0  0  0  0  0  0  0  0  0  0  0  0
  1  2  1  0
  2  3  1  0
  3  4  1  0
  4  5  1  0
  5  6  1  0
  6  7  1  0
  6  8  1  0
  8  9  1  0
  9 10  1  0
 10 11  1  0
 11 12  1  0
 12 13  1  0
 13 14  1  0
 14 15  1  0
 15 16  1  0
 16 17  1  0
 17 18  1  0
 18 19  2  0
 14 20  1  1
  5 21  1  1
  7  2  1  0
 15 10  1  0
 11  5  1  0
 18 14  1  0
  1 22  1  0
  2 23  1  6
  3 24  1  0
  3 25  1  0
  4 26  1  0
  4 27  1  0
  6 28  1  6
  7 29  1  0
  7 30  1  0
  8 31  1  0
  8 32  1  0
  9 33  1  0
  9 34  1  0
 10 35  1  1
 11 36  1  6
 12 37  1  0
 12 38  1  0
 13 39  1  0
 13 40  1  0
 15 41  1  6
 16 42  1  0
 16 43  1  0
 17 44  1  0
 17 45  1  0
 20 46  1  0
 20 47  1  0
 20 48  1  0
 21 49  1  0
 21 50  1  0
 21 51  1  0
M  END
>  <Ligand ID>  (1) 
LIG0000448

>  <Ligand>  (1) 
Epiandrosterone

>  <SMILES>  (1) 
O[C@H]1CC[C@]2([C@H](C1)CC[C@@H]1[C@@H]2CC[C@]2([C@H]1CCC2=O)C)C

>  <CID>  (1) 
441302.0

>  <ChEMBL ID>  (1) 
nan

>  <InChiKey>  (1) 
QGXBDMJGAMFCBF-LUJOEAJASA-N

>  <InChi>  (1) 
InChI=1S/C19H30O2/c1-18-9-7-13(20)11-12(18)3-4-14-15-5-6-17(21)19(15,2)10-8-16(14)18/h12-16,20H,3-11H2,1-2H3/t12-,13-,14-,15-,16-,18-,19-/m0/s1

>  <IUPAC Name>  (1) 
(3S,5S,8R,9S,10S,13S,14S)-3-hydroxy-10,13-dimethyl-1,2,3,4,5,6,7,8,9,11,12,14,15,16-tetradecahydrocyclopenta[a]phenanthren-17-one

$$$$
