
     RDKit          3D

 44 47  0  0  0  0  0  0  0  0999 V2000
    1.3701    2.5686   -2.7475 O   0  0  0  0  0  0  0  0  0  0  0  0
    2.0692    1.9270   -1.9102 C   0  0  0  0  0  0  0  0  0  0  0  0
    3.2503    2.4044   -1.1882 C   0  0  0  0  0  0  0  0  0  0  0  0
    3.7857    3.5567   -1.2761 O   0  0  0  0  0  0  0  0  0  0  0  0
    3.7024    1.2908   -0.3369 C   0  0  0  0  0  0  0  0  0  0  0  0
    2.8495    0.2131   -0.5332 C   0  0  0  0  0  0  0  0  0  0  0  0
    1.8522    0.5697   -1.4797 N   0  0  0  0  0  0  0  0  0  0  0  0
    0.7687   -0.2852   -1.9571 C   0  0  0  0  0  0  0  0  0  0  0  0
   -0.4020   -0.0839   -1.0517 C   0  0  0  0  0  0  0  0  0  0  0  0
   -0.6038   -0.8452    0.0792 C   0  0  0  0  0  0  0  0  0  0  0  0
   -1.7278   -0.5591    0.8348 C   0  0  0  0  0  0  0  0  0  0  0  0
   -2.6245    0.4349    0.4997 C   0  0  0  0  0  0  0  0  0  0  0  0
   -2.4219    1.1996   -0.6362 C   0  0  0  0  0  0  0  0  0  0  0  0
   -1.2988    0.9062   -1.3820 C   0  0  0  0  0  0  0  0  0  0  0  0
   -3.7543    0.7273    1.2532 O   0  0  0  0  0  0  0  0  0  0  0  0
   -4.9080    0.0323    0.9104 C   0  0  0  0  0  0  0  0  0  0  0  0
   -5.8111    0.5130   -0.0334 C   0  0  0  0  0  0  0  0  0  0  0  0
   -6.9295   -0.2394   -0.3139 C   0  0  0  0  0  0  0  0  0  0  0  0
   -7.2065   -1.4473    0.2901 C   0  0  0  0  0  0  0  0  0  0  0  0
   -6.3027   -1.9292    1.2353 C   0  0  0  0  0  0  0  0  0  0  0  0
   -5.1729   -1.1844    1.5286 C   0  0  0  0  0  0  0  0  0  0  0  0
    3.1037   -0.9472    0.1824 C   0  0  0  0  0  0  0  0  0  0  0  0
    4.1655   -1.0309    1.0589 C   0  0  0  0  0  0  0  0  0  0  0  0
    5.0209    0.0295    1.2649 C   0  0  0  0  0  0  0  0  0  0  0  0
    4.7580    1.1840    0.5449 C   0  0  0  0  0  0  0  0  0  0  0  0
    6.0923    0.0206    2.1158 O   0  0  0  0  0  0  0  0  0  0  0  0
    7.3842   -0.3698    1.7274 C   0  0  0  0  0  0  0  0  0  0  0  0
    7.9113    0.4053    0.7063 F   0  0  0  0  0  0  0  0  0  0  0  0
    7.4097   -1.6947    1.3389 F   0  0  0  0  0  0  0  0  0  0  0  0
    8.1845   -0.2622    2.8697 F   0  0  0  0  0  0  0  0  0  0  0  0
    1.0430   -1.3381   -2.0063 H   0  0  0  0  0  0  0  0  0  0  0  0
    0.4840    0.0294   -2.9833 H   0  0  0  0  0  0  0  0  0  0  0  0
    0.0972   -1.6245    0.3440 H   0  0  0  0  0  0  0  0  0  0  0  0
   -1.9118   -1.1408    1.7282 H   0  0  0  0  0  0  0  0  0  0  0  0
   -3.0910    1.9910   -0.9472 H   0  0  0  0  0  0  0  0  0  0  0  0
   -1.1441    1.5124   -2.2765 H   0  0  0  0  0  0  0  0  0  0  0  0
   -5.6351    1.4464   -0.5266 H   0  0  0  0  0  0  0  0  0  0  0  0
   -7.6316    0.1557   -1.0617 H   0  0  0  0  0  0  0  0  0  0  0  0
   -8.0722   -2.0457    0.0836 H   0  0  0  0  0  0  0  0  0  0  0  0
   -6.4514   -2.8707    1.7527 H   0  0  0  0  0  0  0  0  0  0  0  0
   -4.4384   -1.5303    2.2666 H   0  0  0  0  0  0  0  0  0  0  0  0
    2.4739   -1.8115    0.0679 H   0  0  0  0  0  0  0  0  0  0  0  0
    4.3738   -1.9356    1.6249 H   0  0  0  0  0  0  0  0  0  0  0  0
    5.3894    2.0577    0.6566 H   0  0  0  0  0  0  0  0  0  0  0  0
  1  2  2  0
  2  3  1  0
  3  4  2  0
  3  5  1  0
  5  6  2  0
  6  7  1  0
  7  8  1  0
  8  9  1  0
  9 10  2  0
 10 11  1  0
 11 12  2  0
 12 13  1  0
 13 14  2  0
 12 15  1  0
 15 16  1  0
 16 17  2  0
 17 18  1  0
 18 19  2  0
 19 20  1  0
 20 21  2  0
  6 22  1  0
 22 23  2  0
 23 24  1  0
 24 25  2  0
 24 26  1  0
 26 27  1  0
 27 28  1  0
 27 29  1  0
 27 30  1  0
  7  2  1  0
 14  9  1  0
 21 16  1  0
 25  5  1  0
  8 31  1  0
  8 32  1  0
 10 33  1  0
 11 34  1  0
 13 35  1  0
 14 36  1  0
 17 37  1  0
 18 38  1  0
 19 39  1  0
 20 40  1  0
 21 41  1  0
 22 42  1  0
 23 43  1  0
 25 44  1  0
M  END
>  <Ligand ID>  (1) 
LIG0000660

>  <Ligand>  (1) 
CHEMBL604482

>  <SMILES>  (1) 
O=C1C(=O)c2c(N1Cc1ccc(cc1)Oc1ccccc1)ccc(c2)OC(F)(F)F

>  <CID>  (1) 
44602489.0

>  <ChEMBL ID>  (1) 
nan

>  <InChiKey>  (1) 
HRSJEMJKLHWGLF-UHFFFAOYSA-N

>  <InChi>  (1) 
InChI=1S/C22H14F3NO4/c23-22(24,25)30-17-10-11-19-18(12-17)20(27)21(28)26(19)13-14-6-8-16(9-7-14)29-15-4-2-1-3-5-15/h1-12H,13H2

>  <IUPAC Name>  (1) 
1-[(4-phenoxyphenyl)methyl]-5-(trifluoromethoxy)indole-2,3-dione

$$$$
