
     RDKit          3D

 49 51  0  0  0  0  0  0  0  0999 V2000
    6.2245    0.1992   -2.2415 N   0  0  0  0  0  0  0  0  0  0  0  0
    4.8579    0.0574   -2.6535 C   0  0  0  0  0  0  0  0  0  0  0  0
    4.5554   -0.0510   -3.8729 O   0  0  0  0  0  0  0  0  0  0  0  0
    3.7403    0.0320   -1.6701 C   0  0  0  0  0  0  0  0  0  0  0  0
    3.0501    1.3757   -1.5372 C   0  0  0  0  0  0  0  0  0  0  0  0
    1.9638    1.2868   -0.5597 N   0  0  0  0  0  0  0  0  0  0  0  0
    0.8657    0.4152   -0.7058 C   0  0  0  0  0  0  0  0  0  0  0  0
    0.7856   -0.3443   -1.7286 O   0  0  0  0  0  0  0  0  0  0  0  0
   -0.1961    0.3689    0.3118 C   0  0  0  0  0  0  0  0  0  0  0  0
   -0.1584    1.1572    1.4147 N   0  0  0  0  0  0  0  0  0  0  0  0
   -1.1559    1.0913    2.3448 C   0  0  0  0  0  0  0  0  0  0  0  0
   -2.2196    0.2110    2.1631 C   0  0  0  0  0  0  0  0  0  0  0  0
   -2.2904   -0.6117    1.0445 C   0  0  0  0  0  0  0  0  0  0  0  0
   -1.2553   -0.4995    0.1430 C   0  0  0  0  0  0  0  0  0  0  0  0
   -3.3591   -1.4458    0.9357 O   0  0  0  0  0  0  0  0  0  0  0  0
   -3.6745   -2.3559   -0.0626 C   0  0  2  0  0  0  0  0  0  0  0  0
   -4.9995   -2.1048   -0.7519 C   0  0  0  0  0  0  0  0  0  0  0  0
   -5.1726   -3.0860   -1.7127 F   0  0  0  0  0  0  0  0  0  0  0  0
   -4.9563   -0.9088   -1.4690 F   0  0  0  0  0  0  0  0  0  0  0  0
   -6.0439   -2.0113    0.1242 F   0  0  0  0  0  0  0  0  0  0  0  0
   -3.6054   -3.7547    0.5096 C   0  0  0  0  0  0  0  0  0  0  0  0
   -3.3069    0.1463    3.1871 C   0  0  0  0  0  0  0  0  0  0  0  0
   -3.0635   -0.8528    4.2843 C   0  0  0  0  0  0  0  0  0  0  0  0
   -3.1220    0.6367    4.5560 C   0  0  0  0  0  0  0  0  0  0  0  0
    2.6296    2.0101   -2.8172 C   0  0  0  0  0  0  0  0  0  0  0  0
    3.9204    3.2226   -2.7504 S   0  0  0  0  0  0  0  0  0  0  0  0
    3.4527    4.6509   -2.7129 O   0  0  0  0  0  0  0  0  0  0  0  0
    5.0965    2.9847   -3.6288 O   0  0  0  0  0  0  0  0  0  0  0  0
    4.0779    2.4368   -1.1832 C   0  0  0  0  0  0  0  0  0  0  0  0
    6.8603    0.8894   -2.7178 H   0  0  0  0  0  0  0  0  0  0  0  0
    6.6344   -0.3638   -1.4698 H   0  0  0  0  0  0  0  0  0  0  0  0
    3.0578   -0.7877   -1.9688 H   0  0  0  0  0  0  0  0  0  0  0  0
    4.1191   -0.2906   -0.6553 H   0  0  0  0  0  0  0  0  0  0  0  0
    2.0096    1.9114    0.2987 H   0  0  0  0  0  0  0  0  0  0  0  0
   -1.1140    1.7262    3.2203 H   0  0  0  0  0  0  0  0  0  0  0  0
   -1.2601   -1.1060   -0.7283 H   0  0  0  0  0  0  0  0  0  0  0  0
   -2.8855   -2.3076   -0.8492 H   0  0  0  0  0  0  0  0  0  0  0  0
   -2.9366   -3.7634    1.3981 H   0  0  0  0  0  0  0  0  0  0  0  0
   -3.1323   -4.4656   -0.2235 H   0  0  0  0  0  0  0  0  0  0  0  0
   -4.5889   -4.1775    0.7363 H   0  0  0  0  0  0  0  0  0  0  0  0
   -4.3658    0.1670    2.7933 H   0  0  0  0  0  0  0  0  0  0  0  0
   -3.9356   -1.4692    4.6237 H   0  0  0  0  0  0  0  0  0  0  0  0
   -2.0820   -1.3782    4.3360 H   0  0  0  0  0  0  0  0  0  0  0  0
   -4.0083    1.0171    5.1025 H   0  0  0  0  0  0  0  0  0  0  0  0
   -2.1780    1.1233    4.9062 H   0  0  0  0  0  0  0  0  0  0  0  0
    1.6372    2.5236   -2.7678 H   0  0  0  0  0  0  0  0  0  0  0  0
    2.7088    1.3637   -3.6895 H   0  0  0  0  0  0  0  0  0  0  0  0
    5.0900    2.0434   -0.9592 H   0  0  0  0  0  0  0  0  0  0  0  0
    3.7292    3.0885   -0.3466 H   0  0  0  0  0  0  0  0  0  0  0  0
  1  2  1  0
  2  3  2  0
  2  4  1  0
  4  5  1  0
  5  6  1  0
  6  7  1  0
  7  8  2  0
  7  9  1  0
  9 10  2  0
 10 11  1  0
 11 12  2  0
 12 13  1  0
 13 14  2  0
 13 15  1  0
 15 16  1  0
 16 17  1  0
 17 18  1  0
 17 19  1  0
 17 20  1  0
 16 21  1  0
 12 22  1  0
 22 23  1  0
 23 24  1  0
  5 25  1  0
 25 26  1  0
 26 27  2  0
 26 28  2  0
 26 29  1  0
 29  5  1  0
 14  9  1  0
 24 22  1  0
  1 30  1  0
  1 31  1  0
  4 32  1  0
  4 33  1  0
  6 34  1  0
 11 35  1  0
 14 36  1  0
 16 37  1  6
 21 38  1  0
 21 39  1  0
 21 40  1  0
 22 41  1  0
 23 42  1  0
 23 43  1  0
 24 44  1  0
 24 45  1  0
 25 46  1  0
 25 47  1  0
 29 48  1  0
 29 49  1  0
M  END
>  <Ligand ID>  (1) 
LIG0005193

>  <Ligand>  (1) 
CHEMBL3972174

>  <SMILES>  (1) 
NC(=O)CC1(NC(=O)c2ncc(c(c2)O[C@H](C(F)(F)F)C)C2CC2)CS(=O)(=O)C1

>  <CID>  (1) 
90214979.0

>  <ChEMBL ID>  (1) 
nan

>  <InChiKey>  (1) 
IDVGLNUYQRWZHG-VIFPVBQESA-N

>  <InChi>  (1) 
InChI=1S/C17H20F3N3O5S/c1-9(17(18,19)20)28-13-4-12(22-6-11(13)10-2-3-10)15(25)23-16(5-14(21)24)7-29(26,27)8-16/h4,6,9-10H,2-3,5,7-8H2,1H3,(H2,21,24)(H,23,25)/t9-/m0/s1

>  <IUPAC Name>  (1) 
N-[3-(2-amino-2-oxoethyl)-1,1-dioxothietan-3-yl]-5-cyclopropyl-4-[(2S)-1,1,1-trifluoropropan-2-yl]oxypyridine-2-carboxamide

$$$$
