
     RDKit          3D

 18 17  0  0  0  0  0  0  0  0999 V2000
   -0.9132   -1.4088   -0.9205 C   0  0  0  0  0  0  0  0  0  0  0  0
   -0.9745   -0.0710   -0.2772 C   0  0  0  0  0  0  0  0  0  0  0  0
    0.0331    0.3130    0.4481 C   0  0  0  0  0  0  0  0  0  0  0  0
    1.2633   -0.4879    0.6926 C   0  0  0  0  0  0  0  0  0  0  0  0
    2.4914    0.2481    0.1901 C   0  0  0  0  0  0  0  0  0  0  0  0
   -2.1515    0.7900   -0.4633 C   0  0  0  0  0  0  0  0  0  0  0  0
   -3.1367    0.4029   -1.1784 O   0  0  0  0  0  0  0  0  0  0  0  0
   -2.1747    2.0326    0.1519 O   0  0  0  0  0  0  0  0  0  0  0  0
   -0.0613   -1.3595   -1.6534 H   0  0  0  0  0  0  0  0  0  0  0  0
   -0.6578   -2.2170   -0.1830 H   0  0  0  0  0  0  0  0  0  0  0  0
   -1.8740   -1.6039   -1.4234 H   0  0  0  0  0  0  0  0  0  0  0  0
   -0.0094    1.2847    0.9164 H   0  0  0  0  0  0  0  0  0  0  0  0
    1.3602   -0.5733    1.8035 H   0  0  0  0  0  0  0  0  0  0  0  0
    1.2037   -1.4971    0.2428 H   0  0  0  0  0  0  0  0  0  0  0  0
    2.5584    0.2786   -0.8971 H   0  0  0  0  0  0  0  0  0  0  0  0
    3.4001   -0.1917    0.6742 H   0  0  0  0  0  0  0  0  0  0  0  0
    2.4230    1.2819    0.5773 H   0  0  0  0  0  0  0  0  0  0  0  0
   -2.7798    2.7782   -0.2030 H   0  0  0  0  0  0  0  0  0  0  0  0
  1  2  1  0
  2  3  2  0
  3  4  1  0
  4  5  1  0
  2  6  1  0
  6  7  2  0
  6  8  1  0
  1  9  1  0
  1 10  1  0
  1 11  1  0
  3 12  1  0
  4 13  1  0
  4 14  1  0
  5 15  1  0
  5 16  1  0
  5 17  1  0
  8 18  1  0
M  END
>  <Ligand ID>  (1) 
LIG0000721

>  <Ligand>  (1) 
2-Methyl-2-pentenoic acid

>  <SMILES>  (1) 
C/C(=C\CC)/C(=O)O

>  <CID>  (1) 
5365909.0

>  <ChEMBL ID>  (1) 
nan

>  <InChiKey>  (1) 
JJYWRQLLQAKNAD-SNAWJCMRSA-N

>  <InChi>  (1) 
InChI=1S/C6H10O2/c1-3-4-5(2)6(7)8/h4H,3H2,1-2H3,(H,7,8)/b5-4+

>  <IUPAC Name>  (1) 
(E)-2-methylpent-2-enoic acid

$$$$
