
     RDKit          3D

 56 57  0  0  0  0  0  0  0  0999 V2000
   -0.0052   -0.2359   -1.0872 O   0  0  0  0  0  0  0  0  0  0  0  0
   -0.8373   -1.1500   -0.8487 C   0  0  0  0  0  0  0  0  0  0  0  0
   -0.4312   -2.5119   -0.9181 N   0  0  0  0  0  0  0  0  0  0  0  0
    0.9328   -2.8239   -1.2617 C   0  0  0  0  0  0  0  0  0  0  0  0
    1.7073   -1.8460   -1.4882 N   0  0  0  0  0  0  0  0  0  0  0  0
    3.0794   -1.8277   -1.8428 C   0  0  0  0  0  0  0  0  0  0  0  0
    3.8713   -0.7229   -1.1878 C   0  0  0  0  0  0  0  0  0  0  0  0
    3.8354   -0.8283    0.3222 C   0  0  0  0  0  0  0  0  0  0  0  0
    4.5917    0.2258    0.9987 C   0  0  0  0  0  0  0  0  0  0  0  0
    3.8640    1.6933    1.8383 S   0  0  0  0  0  0  0  0  0  0  0  0
    5.4446    2.3432    2.3190 C   0  0  0  0  0  0  0  0  0  0  0  0
    6.2927    1.4847    1.8519 N   0  0  0  0  0  0  0  0  0  0  0  0
    5.9591    0.4248    1.1964 C   0  0  0  0  0  0  0  0  0  0  0  0
    6.9425   -0.5836    0.6483 C   0  0  0  0  0  0  0  0  0  0  0  0
    5.6975    3.5351    3.0489 N   0  0  0  0  0  0  0  0  0  0  0  0
    1.3621   -4.2017   -1.3343 N   0  0  0  0  0  0  0  0  0  0  0  0
   -2.2566   -0.8920   -0.4890 C   0  0  0  0  0  0  0  0  0  0  0  0
   -2.6055    0.5765   -0.4422 C   0  0  2  0  0  0  0  0  0  0  0  0
   -4.0764    0.6289   -0.0601 C   0  0  0  0  0  0  0  0  0  0  0  0
   -4.1676   -0.0527    1.2920 C   0  0  0  0  0  0  0  0  0  0  0  0
   -5.1887    0.6663    2.1451 C   0  0  0  0  0  0  0  0  0  0  0  0
   -6.4039    0.9195    1.2703 C   0  0  0  0  0  0  0  0  0  0  0  0
   -6.0392    2.0641    0.3495 C   0  0  0  0  0  0  0  0  0  0  0  0
   -4.5656    2.0588    0.0088 C   0  0  0  0  0  0  0  0  0  0  0  0
   -2.2983    1.2933   -1.7101 C   0  0  0  0  0  0  0  0  0  0  0  0
   -1.1162   -3.2911   -0.7212 H   0  0  0  0  0  0  0  0  0  0  0  0
    3.1601   -1.6571   -2.9442 H   0  0  0  0  0  0  0  0  0  0  0  0
    3.5218   -2.8093   -1.6625 H   0  0  0  0  0  0  0  0  0  0  0  0
    4.9256   -0.8731   -1.4991 H   0  0  0  0  0  0  0  0  0  0  0  0
    3.5498    0.2584   -1.5394 H   0  0  0  0  0  0  0  0  0  0  0  0
    4.2081   -1.8246    0.6397 H   0  0  0  0  0  0  0  0  0  0  0  0
    2.7536   -0.8200    0.6155 H   0  0  0  0  0  0  0  0  0  0  0  0
    7.9346   -0.4481    1.0808 H   0  0  0  0  0  0  0  0  0  0  0  0
    6.5698   -1.6183    0.8519 H   0  0  0  0  0  0  0  0  0  0  0  0
    7.0298   -0.4189   -0.4390 H   0  0  0  0  0  0  0  0  0  0  0  0
    6.3595    3.5810    3.8506 H   0  0  0  0  0  0  0  0  0  0  0  0
    5.1846    4.3864    2.7478 H   0  0  0  0  0  0  0  0  0  0  0  0
    0.8768   -4.8302   -2.0118 H   0  0  0  0  0  0  0  0  0  0  0  0
    2.1335   -4.4888   -0.7044 H   0  0  0  0  0  0  0  0  0  0  0  0
   -2.9037   -1.4484   -1.2001 H   0  0  0  0  0  0  0  0  0  0  0  0
   -2.4633   -1.3499    0.5008 H   0  0  0  0  0  0  0  0  0  0  0  0
   -2.0436    1.0483    0.3881 H   0  0  0  0  0  0  0  0  0  0  0  0
   -4.7057    0.0634   -0.7771 H   0  0  0  0  0  0  0  0  0  0  0  0
   -3.2143   -0.0246    1.8601 H   0  0  0  0  0  0  0  0  0  0  0  0
   -4.4219   -1.1247    1.1897 H   0  0  0  0  0  0  0  0  0  0  0  0
   -5.4559   -0.0336    2.9729 H   0  0  0  0  0  0  0  0  0  0  0  0
   -4.7983    1.6147    2.5230 H   0  0  0  0  0  0  0  0  0  0  0  0
   -7.3107    1.1306    1.8617 H   0  0  0  0  0  0  0  0  0  0  0  0
   -6.5363    0.0101    0.6440 H   0  0  0  0  0  0  0  0  0  0  0  0
   -6.6489    2.0816   -0.5642 H   0  0  0  0  0  0  0  0  0  0  0  0
   -6.2428    3.0004    0.9135 H   0  0  0  0  0  0  0  0  0  0  0  0
   -3.9595    2.6500    0.7067 H   0  0  0  0  0  0  0  0  0  0  0  0
   -4.4792    2.4854   -1.0108 H   0  0  0  0  0  0  0  0  0  0  0  0
   -1.6842    0.6906   -2.4120 H   0  0  0  0  0  0  0  0  0  0  0  0
   -3.1916    1.5934   -2.3059 H   0  0  0  0  0  0  0  0  0  0  0  0
   -1.7366    2.2289   -1.5085 H   0  0  0  0  0  0  0  0  0  0  0  0
  1  2  2  0
  2  3  1  0
  3  4  1  0
  4  5  2  3
  5  6  1  0
  6  7  1  0
  7  8  1  0
  8  9  1  0
  9 10  1  0
 10 11  1  0
 11 12  2  0
 12 13  1  0
 13 14  1  0
 11 15  1  0
  4 16  1  0
  2 17  1  0
 17 18  1  0
 18 19  1  0
 19 20  1  0
 20 21  1  0
 21 22  1  0
 22 23  1  0
 23 24  1  0
 18 25  1  0
 13  9  2  0
 24 19  1  0
  3 26  1  0
  6 27  1  0
  6 28  1  0
  7 29  1  0
  7 30  1  0
  8 31  1  0
  8 32  1  0
 14 33  1  0
 14 34  1  0
 14 35  1  0
 15 36  1  0
 15 37  1  0
 16 38  1  0
 16 39  1  0
 17 40  1  0
 17 41  1  0
 18 42  1  1
 19 43  1  0
 20 44  1  0
 20 45  1  0
 21 46  1  0
 21 47  1  0
 22 48  1  0
 22 49  1  0
 23 50  1  0
 23 51  1  0
 24 52  1  0
 24 53  1  0
 25 54  1  0
 25 55  1  0
 25 56  1  0
M  END
>  <Ligand ID>  (1) 
LIG0000947

>  <Ligand>  (1) 
CHEMBL1094452

>  <SMILES>  (1) 
O=C(NC(=NCCCc1sc(nc1C)N)N)C[C@H](C1CCCCC1)C

>  <CID>  (1) 
46887080.0

>  <ChEMBL ID>  (1) 
nan

>  <InChiKey>  (1) 
WWEBJYNVUIMDCZ-GFCCVEGCSA-N

>  <InChi>  (1) 
InChI=1S/C18H31N5OS/c1-12(14-7-4-3-5-8-14)11-16(24)23-17(19)21-10-6-9-15-13(2)22-18(20)25-15/h12,14H,3-11H2,1-2H3,(H2,20,22)(H3,19,21,23,24)/t12-/m1/s1

>  <IUPAC Name>  (1) 
(3R)-N-[N'-[3-(2-amino-4-methyl-1,3-thiazol-5-yl)propyl]carbamimidoyl]-3-cyclohexylbutanamide

$$$$
