
     RDKit          3D

 58 62  0  0  0  0  0  0  0  0999 V2000
   -2.9262    4.9292   -1.4414 C   0  0  0  0  0  0  0  0  0  0  0  0
   -3.1404    3.5082   -1.1474 C   0  0  0  0  0  0  0  0  0  0  0  0
   -4.3784    2.9843   -1.1155 N   0  0  0  0  0  0  0  0  0  0  0  0
   -4.5587    1.6788   -0.8455 C   0  0  0  0  0  0  0  0  0  0  0  0
   -6.0722    0.7977   -0.7748 S   0  0  0  0  0  0  0  0  0  0  0  0
   -5.2690   -0.7990   -0.3876 C   0  0  0  0  0  0  0  0  0  0  0  0
   -3.9405   -0.5012   -0.3512 C   0  0  0  0  0  0  0  0  0  0  0  0
   -3.5657    0.7746   -0.5846 C   0  0  0  0  0  0  0  0  0  0  0  0
   -2.2762    1.3438   -0.6207 C   0  0  0  0  0  0  0  0  0  0  0  0
   -2.1288    2.6712   -0.8991 N   0  0  0  0  0  0  0  0  0  0  0  0
   -1.0837    0.6598   -0.3216 N   0  0  0  0  0  0  0  0  0  0  0  0
   -0.6402    0.6810    1.0782 C   0  0  0  0  0  0  0  0  0  0  0  0
    0.5470   -0.2741    1.2525 C   0  0  0  0  0  0  0  0  0  0  0  0
    1.5670    0.1200    0.2923 N   0  0  0  0  0  0  0  0  0  0  0  0
    1.1658    0.3522   -1.0669 C   0  0  0  0  0  0  0  0  0  0  0  0
   -0.2760   -0.0549   -1.2885 C   0  0  0  0  0  0  0  0  0  0  0  0
    2.8887    0.2473    0.7806 C   0  0  0  0  0  0  0  0  0  0  0  0
    3.0398   -0.0025    2.0275 O   0  0  0  0  0  0  0  0  0  0  0  0
    4.0578    0.6327   -0.0132 C   0  0  0  0  0  0  0  0  0  0  0  0
    4.3887   -0.2927   -1.1504 C   0  0  0  0  0  0  0  0  0  0  0  0
    5.8594   -0.6352   -1.1612 C   0  0  0  0  0  0  0  0  0  0  0  0
    6.2678   -1.3910    0.0973 C   0  0  0  0  0  0  0  0  0  0  0  0
    5.7863   -0.5976    1.2867 C   0  0  0  0  0  0  0  0  0  0  0  0
    5.2699    0.7565    0.8712 C   0  0  0  0  0  0  0  0  0  0  0  0
   -3.0693   -1.7239   -0.0747 C   0  0  0  0  0  0  0  0  0  0  0  0
   -3.8397   -2.6298    0.8716 C   0  0  0  0  0  0  0  0  0  0  0  0
   -5.0081   -3.1763    0.0815 C   0  0  0  0  0  0  0  0  0  0  0  0
   -5.9398   -2.0569   -0.1783 C   0  0  0  0  0  0  0  0  0  0  0  0
   -3.8325    5.2993   -1.9827 H   0  0  0  0  0  0  0  0  0  0  0  0
   -2.8958    5.4603   -0.4676 H   0  0  0  0  0  0  0  0  0  0  0  0
   -1.9793    5.1376   -1.9801 H   0  0  0  0  0  0  0  0  0  0  0  0
   -1.4132    0.3317    1.7774 H   0  0  0  0  0  0  0  0  0  0  0  0
   -0.2834    1.7032    1.3245 H   0  0  0  0  0  0  0  0  0  0  0  0
    0.1919   -1.2721    0.9531 H   0  0  0  0  0  0  0  0  0  0  0  0
    0.8629   -0.1712    2.2928 H   0  0  0  0  0  0  0  0  0  0  0  0
    1.8434   -0.1463   -1.8034 H   0  0  0  0  0  0  0  0  0  0  0  0
    1.3039    1.4449   -1.2448 H   0  0  0  0  0  0  0  0  0  0  0  0
   -0.5805    0.1592   -2.3279 H   0  0  0  0  0  0  0  0  0  0  0  0
   -0.3199   -1.1650   -1.0972 H   0  0  0  0  0  0  0  0  0  0  0  0
    3.8697    1.6530   -0.4456 H   0  0  0  0  0  0  0  0  0  0  0  0
    3.8424   -1.2548   -1.0813 H   0  0  0  0  0  0  0  0  0  0  0  0
    4.1806    0.1939   -2.1296 H   0  0  0  0  0  0  0  0  0  0  0  0
    5.9877   -1.3772   -1.9908 H   0  0  0  0  0  0  0  0  0  0  0  0
    6.5229    0.2250   -1.3012 H   0  0  0  0  0  0  0  0  0  0  0  0
    7.3608   -1.5334    0.1399 H   0  0  0  0  0  0  0  0  0  0  0  0
    5.8176   -2.4194    0.0807 H   0  0  0  0  0  0  0  0  0  0  0  0
    5.0297   -1.2045    1.8071 H   0  0  0  0  0  0  0  0  0  0  0  0
    6.6454   -0.4526    1.9826 H   0  0  0  0  0  0  0  0  0  0  0  0
    6.0643    1.3052    0.3593 H   0  0  0  0  0  0  0  0  0  0  0  0
    4.9599    1.2939    1.8127 H   0  0  0  0  0  0  0  0  0  0  0  0
   -2.1394   -1.4954    0.4290 H   0  0  0  0  0  0  0  0  0  0  0  0
   -2.9585   -2.2135   -1.0614 H   0  0  0  0  0  0  0  0  0  0  0  0
   -4.2245   -2.0626    1.7226 H   0  0  0  0  0  0  0  0  0  0  0  0
   -3.1419   -3.4465    1.1573 H   0  0  0  0  0  0  0  0  0  0  0  0
   -4.6563   -3.7017   -0.8292 H   0  0  0  0  0  0  0  0  0  0  0  0
   -5.5076   -3.9403    0.7087 H   0  0  0  0  0  0  0  0  0  0  0  0
   -6.5743   -2.3172   -1.0770 H   0  0  0  0  0  0  0  0  0  0  0  0
   -6.7012   -2.0356    0.6573 H   0  0  0  0  0  0  0  0  0  0  0  0
  1  2  1  0
  2  3  2  0
  3  4  1  0
  4  5  1  0
  5  6  1  0
  6  7  2  0
  7  8  1  0
  8  9  1  0
  9 10  2  0
  9 11  1  0
 11 12  1  0
 12 13  1  0
 13 14  1  0
 14 15  1  0
 15 16  1  0
 14 17  1  0
 17 18  2  0
 17 19  1  0
 19 20  1  0
 20 21  1  0
 21 22  1  0
 22 23  1  0
 23 24  1  0
  7 25  1  0
 25 26  1  0
 26 27  1  0
 27 28  1  0
 10  2  1  0
 16 11  1  0
 24 19  1  0
  8  4  2  0
 28  6  1  0
  1 29  1  0
  1 30  1  0
  1 31  1  0
 12 32  1  0
 12 33  1  0
 13 34  1  0
 13 35  1  0
 15 36  1  0
 15 37  1  0
 16 38  1  0
 16 39  1  0
 19 40  1  0
 20 41  1  0
 20 42  1  0
 21 43  1  0
 21 44  1  0
 22 45  1  0
 22 46  1  0
 23 47  1  0
 23 48  1  0
 24 49  1  0
 24 50  1  0
 25 51  1  0
 25 52  1  0
 26 53  1  0
 26 54  1  0
 27 55  1  0
 27 56  1  0
 28 57  1  0
 28 58  1  0
M  END
>  <Ligand ID>  (1) 
LIG0003918

>  <Ligand>  (1) 
MLS-0437131.0001

>  <SMILES>  (1) 
Cc1nc2sc3c(c2c(n1)N1CCN(CC1)C(=O)C1CCCCC1)CCCC3

>  <CID>  (1) 
1434957.0

>  <ChEMBL ID>  (1) 
nan

>  <InChiKey>  (1) 
HHGHBIFKWRNLAE-UHFFFAOYSA-N

>  <InChi>  (1) 
InChI=1S/C22H30N4OS/c1-15-23-20(19-17-9-5-6-10-18(17)28-21(19)24-15)25-11-13-26(14-12-25)22(27)16-7-3-2-4-8-16/h16H,2-14H2,1H3

>  <IUPAC Name>  (1) 
cyclohexyl-[4-(2-methyl-5,6,7,8-tetrahydro-[1]benzothiolo[2,3-d]pyrimidin-4-yl)piperazin-1-yl]methanone

$$$$
