
     RDKit          3D

 83 84  0  0  0  0  0  0  0  0999 V2000
  -10.8114    1.7919    2.1989 O   0  0  0  0  0  0  0  0  0  0  0  0
  -10.3923    2.1774    0.9087 C   0  0  0  0  0  0  0  0  0  0  0  0
   -9.3959    1.1855    0.4148 C   0  0  0  0  0  0  0  0  0  0  0  0
   -8.0395    1.4557    0.3824 C   0  0  0  0  0  0  0  0  0  0  0  0
   -7.1354    0.5300   -0.0756 C   0  0  0  0  0  0  0  0  0  0  0  0
   -7.6547   -0.6888   -0.5020 C   0  0  0  0  0  0  0  0  0  0  0  0
   -9.0090   -0.9643   -0.4719 C   0  0  0  0  0  0  0  0  0  0  0  0
   -9.9155   -0.0328   -0.0123 C   0  0  0  0  0  0  0  0  0  0  0  0
  -11.2657   -0.3143    0.0141 O   0  0  0  0  0  0  0  0  0  0  0  0
   -5.6747    0.7743   -0.1395 C   0  0  2  0  0  0  0  0  0  0  0  0
   -4.8873   -0.4324   -0.4906 C   0  0  0  0  0  0  0  0  0  0  0  0
   -4.9034   -1.5099    0.4317 N   0  0  0  0  0  0  0  0  0  0  0  0
   -4.2182   -1.3306    1.6627 C   0  0  0  0  0  0  0  0  0  0  0  0
   -2.7033   -1.2560    1.4656 C   0  0  0  0  0  0  0  0  0  0  0  0
   -2.3051   -2.5636    0.8419 C   0  0  0  0  0  0  0  0  0  0  0  0
   -0.8423   -2.6483    0.5631 C   0  0  0  0  0  0  0  0  0  0  0  0
   -0.4465   -1.5490   -0.3979 C   0  0  0  0  0  0  0  0  0  0  0  0
    1.0378   -1.7151   -0.6802 C   0  0  0  0  0  0  0  0  0  0  0  0
    1.5249   -0.7711   -1.5438 O   0  0  0  0  0  0  0  0  0  0  0  0
    1.4331    0.5372   -1.1353 C   0  0  0  0  0  0  0  0  0  0  0  0
    2.2210    0.7185    0.1409 C   0  0  0  0  0  0  0  0  0  0  0  0
    3.6815    0.3672   -0.0206 C   0  0  0  0  0  0  0  0  0  0  0  0
    4.2879    1.2533   -1.0520 C   0  0  0  0  0  0  0  0  0  0  0  0
    5.7492    0.9713   -1.2820 C   0  0  0  0  0  0  0  0  0  0  0  0
    6.0363    0.0519   -2.2743 C   0  0  0  0  0  0  0  0  0  0  0  0
    7.3607   -0.2414   -2.5284 C   0  0  0  0  0  0  0  0  0  0  0  0
    8.3986    0.3579   -1.8195 C   0  0  0  0  0  0  0  0  0  0  0  0
    8.0591    1.2774   -0.8296 C   0  0  0  0  0  0  0  0  0  0  0  0
    6.7366    1.5935   -0.5505 C   0  0  0  0  0  0  0  0  0  0  0  0
    9.1935    1.9002   -0.1014 C   0  0  0  0  0  0  0  0  0  0  0  0
    9.6104    1.1567    1.0636 N   0  0  0  0  0  0  0  0  0  0  0  0
    9.1717    1.2535    2.4111 C   0  0  0  0  0  0  0  0  0  0  0  0
    8.2871    2.0738    2.7727 O   0  0  0  0  0  0  0  0  0  0  0  0
    9.8610    0.3219    3.2275 N   0  0  0  0  0  0  0  0  0  0  0  0
   10.7638   -0.3909    2.3892 C   0  0  0  0  0  0  0  0  0  0  0  0
   11.5368   -1.2983    2.7879 O   0  0  0  0  0  0  0  0  0  0  0  0
   10.6127    0.1236    1.0421 C   0  0  0  0  0  0  0  0  0  0  0  0
   11.2329   -0.2407   -0.0069 O   0  0  0  0  0  0  0  0  0  0  0  0
   -5.2724    1.3593    1.0476 O   0  0  0  0  0  0  0  0  0  0  0  0
    0.8373   -0.4879    0.1604 O   0  0  0  0  0  0  0  0  0  0  0  0
   -0.4649   -0.0491    0.0157 C   0  0  0  0  0  0  0  0  0  0  0  0
   -0.7225    1.1834   -0.0098 O   0  0  0  0  0  0  0  0  0  0  0  0
  -11.6049    1.2018    2.0650 H   0  0  0  0  0  0  0  0  0  0  0  0
  -11.2487    2.2973    0.2405 H   0  0  0  0  0  0  0  0  0  0  0  0
   -9.9014    3.1729    0.9952 H   0  0  0  0  0  0  0  0  0  0  0  0
   -7.6766    2.4344    0.7325 H   0  0  0  0  0  0  0  0  0  0  0  0
   -7.0237   -1.4903   -0.8799 H   0  0  0  0  0  0  0  0  0  0  0  0
   -9.3801   -1.9147   -0.8088 H   0  0  0  0  0  0  0  0  0  0  0  0
  -11.6083   -1.0674   -0.5637 H   0  0  0  0  0  0  0  0  0  0  0  0
   -5.4880    1.5476   -0.9305 H   0  0  0  0  0  0  0  0  0  0  0  0
   -5.2343   -0.8113   -1.4864 H   0  0  0  0  0  0  0  0  0  0  0  0
   -3.8345   -0.0705   -0.7041 H   0  0  0  0  0  0  0  0  0  0  0  0
   -4.8709   -2.4179   -0.0193 H   0  0  0  0  0  0  0  0  0  0  0  0
   -4.3828   -2.2527    2.2679 H   0  0  0  0  0  0  0  0  0  0  0  0
   -4.6180   -0.5012    2.2320 H   0  0  0  0  0  0  0  0  0  0  0  0
   -2.4623   -0.3946    0.8430 H   0  0  0  0  0  0  0  0  0  0  0  0
   -2.2695   -1.2072    2.4976 H   0  0  0  0  0  0  0  0  0  0  0  0
   -2.6564   -3.4189    1.4609 H   0  0  0  0  0  0  0  0  0  0  0  0
   -2.8706   -2.6498   -0.1324 H   0  0  0  0  0  0  0  0  0  0  0  0
   -0.2715   -2.5499    1.5210 H   0  0  0  0  0  0  0  0  0  0  0  0
   -0.5924   -3.6569    0.1519 H   0  0  0  0  0  0  0  0  0  0  0  0
   -0.6061   -0.5860    0.1284 H   0  0  0  0  0  0  0  0  0  0  0  0
   -1.0342   -1.6522   -1.3149 H   0  0  0  0  0  0  0  0  0  0  0  0
    1.5591   -1.8294    0.2729 H   0  0  0  0  0  0  0  0  0  0  0  0
    1.1076   -2.7005   -1.2293 H   0  0  0  0  0  0  0  0  0  0  0  0
    0.3592    0.8393   -0.9428 H   0  0  0  0  0  0  0  0  0  0  0  0
    1.7974    1.1903   -1.9477 H   0  0  0  0  0  0  0  0  0  0  0  0
    2.0985    1.7955    0.4428 H   0  0  0  0  0  0  0  0  0  0  0  0
    1.7671    0.0744    0.9149 H   0  0  0  0  0  0  0  0  0  0  0  0
    4.2004    0.5146    0.9449 H   0  0  0  0  0  0  0  0  0  0  0  0
    3.7208   -0.6826   -0.3737 H   0  0  0  0  0  0  0  0  0  0  0  0
    3.7871    1.2071   -2.0308 H   0  0  0  0  0  0  0  0  0  0  0  0
    4.2132    2.3000   -0.6856 H   0  0  0  0  0  0  0  0  0  0  0  0
    5.2356   -0.4259   -2.8387 H   0  0  0  0  0  0  0  0  0  0  0  0
    7.5916   -0.9670   -3.3093 H   0  0  0  0  0  0  0  0  0  0  0  0
    9.4241    0.1012   -2.0497 H   0  0  0  0  0  0  0  0  0  0  0  0
    6.4901    2.3071    0.2183 H   0  0  0  0  0  0  0  0  0  0  0  0
    8.9345    2.9548    0.1924 H   0  0  0  0  0  0  0  0  0  0  0  0
   10.0854    2.0430   -0.7818 H   0  0  0  0  0  0  0  0  0  0  0  0
    9.7581    0.1526    4.2677 H   0  0  0  0  0  0  0  0  0  0  0  0
   -4.4187    1.8286    1.0001 H   0  0  0  0  0  0  0  0  0  0  0  0
    1.6087    0.1134   -0.0911 H   0  0  0  0  0  0  0  0  0  0  0  0
   -1.2587   -0.7598   -0.0752 H   0  0  0  0  0  0  0  0  0  0  0  0
  1  2  1  0
  2  3  1  0
  3  4  2  0
  4  5  1  0
  5  6  2  0
  6  7  1  0
  7  8  2  0
  8  9  1  0
  5 10  1  0
 10 11  1  0
 11 12  1  0
 12 13  1  0
 13 14  1  0
 14 15  1  0
 15 16  1  0
 16 17  1  0
 17 18  1  0
 18 19  1  0
 19 20  1  0
 20 21  1  0
 21 22  1  0
 22 23  1  0
 23 24  1  0
 24 25  2  0
 25 26  1  0
 26 27  2  0
 27 28  1  0
 28 29  2  0
 28 30  1  0
 30 31  1  0
 31 32  1  0
 32 33  2  0
 32 34  1  0
 34 35  1  0
 35 36  2  0
 35 37  1  0
 37 38  2  0
 10 39  1  0
 40 41  1  0
 41 42  2  0
  8  3  1  0
 29 24  1  0
 37 31  1  0
  1 43  1  0
  2 44  1  0
  2 45  1  0
  4 46  1  0
  6 47  1  0
  7 48  1  0
  9 49  1  0
 10 50  1  6
 11 51  1  0
 11 52  1  0
 12 53  1  0
 13 54  1  0
 13 55  1  0
 14 56  1  0
 14 57  1  0
 15 58  1  0
 15 59  1  0
 16 60  1  0
 16 61  1  0
 17 62  1  0
 17 63  1  0
 18 64  1  0
 18 65  1  0
 20 66  1  0
 20 67  1  0
 21 68  1  0
 21 69  1  0
 22 70  1  0
 22 71  1  0
 23 72  1  0
 23 73  1  0
 25 74  1  0
 26 75  1  0
 27 76  1  0
 29 77  1  0
 30 78  1  0
 30 79  1  0
 34 80  1  0
 39 81  1  0
 40 82  1  0
 41 83  1  0
M  END
>  <Ligand ID>  (1) 
LIG0002501

>  <Ligand>  (1) 
CHEMBL1814275

>  <SMILES>  (1) 
OCc1cc(ccc1O)[C@H](CNCCCCCCOCCCCc1cccc(c1)CN1C(=O)NC(=O)C1=O)O.OC=O

>  <CID>  (1) 
56678848.0

>  <ChEMBL ID>  (1) 
nan

>  <InChiKey>  (1) 
UNYLFZSGSBJEFG-SNYZSRNZSA-N

>  <InChi>  (1) 
InChI=1S/C29H39N3O7.CH2O2/c33-20-24-17-23(11-12-25(24)34)26(35)18-30-13-4-1-2-5-14-39-15-6-3-8-21-9-7-10-22(16-21)19-32-28(37)27(36)31-29(32)38;2-1-3/h7,9-12,16-17,26,30,33-35H,1-6,8,13-15,18-20H2,(H,31,36,38);1H,(H,2,3)/t26-;/m0./s1

>  <IUPAC Name>  (1) 
formic acid;1-[[3-[4-[6-[[(2R)-2-hydroxy-2-[4-hydroxy-3-(hydroxymethyl)phenyl]ethyl]amino]hexoxy]butyl]phenyl]methyl]imidazolidine-2,4,5-trione

$$$$
