
     RDKit          3D

192199  0  0  0  0  0  0  0  0999 V2000
    9.6796   -1.5107   -0.2897 N   0  0  0  0  0  0  0  0  0  0  0  0
    9.1316   -2.6703    0.3641 C   0  0  0  0  0  0  0  0  0  0  0  0
    8.7010   -3.5965   -0.2698 N   0  0  0  0  0  0  0  0  0  0  0  0
    9.1016   -2.6873    1.7994 N   0  0  0  0  0  0  0  0  0  0  0  0
    7.9644   -3.0164    2.5841 C   0  0  0  0  0  0  0  0  0  0  0  0
    6.8268   -1.9997    2.5786 C   0  0  0  0  0  0  0  0  0  0  0  0
    6.2259   -1.7460    1.2696 C   0  0  0  0  0  0  0  0  0  0  0  0
    5.1720   -0.7069    1.1909 C   0  0  2  0  0  0  0  0  0  0  0  0
    4.6328   -0.9093   -0.2542 N   0  0  0  0  0  0  0  0  0  0  0  0
    3.3925   -1.5258   -0.4502 C   0  0  0  0  0  0  0  0  0  0  0  0
    2.7678   -1.8315    0.5915 O   0  0  0  0  0  0  0  0  0  0  0  0
    2.8196   -1.8137   -1.7493 C   0  0  1  0  0  0  0  0  0  0  0  0
    3.7528   -2.5701   -2.6967 C   0  0  0  0  0  0  0  0  0  0  0  0
    4.1849   -3.8813   -2.2187 C   0  0  0  0  0  0  0  0  0  0  0  0
    3.3405   -4.9671   -2.4910 C   0  0  0  0  0  0  0  0  0  0  0  0
    3.6391   -6.2524   -2.1209 C   0  0  0  0  0  0  0  0  0  0  0  0
    4.8271   -6.5072   -1.4447 C   0  0  0  0  0  0  0  0  0  0  0  0
    5.6647   -5.4532   -1.1702 C   0  0  0  0  0  0  0  0  0  0  0  0
    5.3673   -4.1414   -1.5447 C   0  0  0  0  0  0  0  0  0  0  0  0
    1.5521   -2.5666   -1.6646 N   0  0  0  0  0  0  0  0  0  0  0  0
    0.6287   -2.5698   -2.7441 C   0  0  0  0  0  0  0  0  0  0  0  0
    0.9927   -1.8868   -3.7322 O   0  0  0  0  0  0  0  0  0  0  0  0
   -0.6450   -3.2744   -2.8087 C   0  0  2  0  0  0  0  0  0  0  0  0
   -1.0357   -3.5744   -4.2219 C   0  0  0  0  0  0  0  0  0  0  0  0
   -0.0462   -4.4621   -4.8705 C   0  0  0  0  0  0  0  0  0  0  0  0
    1.0491   -4.2049   -5.6340 C   0  0  0  0  0  0  0  0  0  0  0  0
    1.5878   -5.3742   -5.9972 N   0  0  0  0  0  0  0  0  0  0  0  0
    0.8466   -6.3842   -5.4748 C   0  0  0  0  0  0  0  0  0  0  0  0
   -0.1438   -5.8104   -4.7931 N   0  0  0  0  0  0  0  0  0  0  0  0
   -1.7377   -2.7725   -2.0179 N   0  0  0  0  0  0  0  0  0  0  0  0
   -2.1946   -3.3780   -0.7905 C   0  0  0  0  0  0  0  0  0  0  0  0
   -1.4686   -4.3008   -0.3940 O   0  0  0  0  0  0  0  0  0  0  0  0
   -3.4124   -2.9102   -0.1056 C   0  0  1  0  0  0  0  0  0  0  0  0
   -3.4930   -3.7527    1.1267 N   0  0  0  0  0  0  0  0  0  0  0  0
   -4.3853   -4.8455    1.1994 C   0  0  0  0  0  0  0  0  0  0  0  0
   -5.1489   -5.1635    0.2337 O   0  0  0  0  0  0  0  0  0  0  0  0
   -4.4966   -5.7030    2.4153 C   0  0  2  0  0  0  0  0  0  0  0  0
   -5.9533   -5.9094    2.6992 C   0  0  0  0  0  0  0  0  0  0  0  0
   -6.2330   -6.7332    3.8821 C   0  0  0  0  0  0  0  0  0  0  0  0
   -6.3460   -8.1267    3.8236 C   0  0  0  0  0  0  0  0  0  0  0  0
   -6.6488   -8.8689    4.9620 C   0  0  0  0  0  0  0  0  0  0  0  0
   -6.8463   -8.2572    6.1723 C   0  0  0  0  0  0  0  0  0  0  0  0
   -6.7340   -6.8838    6.2298 C   0  0  0  0  0  0  0  0  0  0  0  0
   -6.4354   -6.1428    5.1133 C   0  0  0  0  0  0  0  0  0  0  0  0
   -7.1545   -9.0114    7.3113 O   0  0  0  0  0  0  0  0  0  0  0  0
   -3.7131   -5.2076    3.4991 N   0  0  0  0  0  0  0  0  0  0  0  0
   -3.5065   -1.5296    0.3615 C   0  0  0  0  0  0  0  0  0  0  0  0
   -3.3843   -0.4034   -0.5451 C   0  0  0  0  0  0  0  0  0  0  0  0
   -2.3279    0.1308   -0.7303 O   0  0  0  0  0  0  0  0  0  0  0  0
   -4.4674    0.2346   -1.3508 N   0  0  0  0  0  0  0  0  0  0  0  0
   -5.6495   -0.5056   -1.1729 C   0  0  2  0  0  0  0  0  0  0  0  0
   -5.9902   -1.4996   -2.2525 C   0  0  0  0  0  0  0  0  0  0  0  0
   -7.1172   -2.0676   -2.0789 O   0  0  0  0  0  0  0  0  0  0  0  0
   -5.2508   -1.8544   -3.3661 N   0  0  0  0  0  0  0  0  0  0  0  0
   -6.8133   -0.0434   -0.4165 C   0  0  0  0  0  0  0  0  0  0  0  0
   -7.5750    1.1439   -0.7893 C   0  0  0  0  0  0  0  0  0  0  0  0
   -7.4309    2.3844   -0.2038 C   0  0  0  0  0  0  0  0  0  0  0  0
   -8.1773    3.4874   -0.5722 C   0  0  0  0  0  0  0  0  0  0  0  0
   -9.1172    3.3479   -1.5788 C   0  0  0  0  0  0  0  0  0  0  0  0
   -9.2964    2.1286   -2.1943 C   0  0  0  0  0  0  0  0  0  0  0  0
   -8.5286    1.0291   -1.8019 C   0  0  0  0  0  0  0  0  0  0  0  0
   -9.9080    4.3971   -2.0120 O   0  0  0  0  0  0  0  0  0  0  0  0
   -4.2360    1.3990   -2.1128 C   0  0  0  0  0  0  0  0  0  0  0  0
   -3.1504    1.3248   -3.1882 C   0  0  0  0  0  0  0  0  0  0  0  0
   -4.0740    2.5882   -1.3291 N   0  0  0  0  0  0  0  0  0  0  0  0
   -2.9658    3.2042   -0.7476 C   0  0  0  0  0  0  0  0  0  0  0  0
   -1.8470    2.7635   -0.8832 O   0  0  0  0  0  0  0  0  0  0  0  0
   -3.0760    4.4697    0.0966 C   0  0  1  0  0  0  0  0  0  0  0  0
   -1.7373    4.7927    0.5693 N   0  0  0  0  0  0  0  0  0  0  0  0
   -1.3878    4.6902    1.9674 C   0  0  0  0  0  0  0  0  0  0  0  0
   -2.3246    4.3290    2.6921 O   0  0  0  0  0  0  0  0  0  0  0  0
   -0.0504    4.9820    2.5067 C   0  0  1  0  0  0  0  0  0  0  0  0
    0.8935    5.4064    1.4883 N   0  0  0  0  0  0  0  0  0  0  0  0
    2.0485    4.5871    1.1427 C   0  0  0  0  0  0  0  0  0  0  0  0
    2.0642    3.5034    1.7517 O   0  0  0  0  0  0  0  0  0  0  0  0
    3.0636    5.0339    0.1762 C   0  0  1  0  0  0  0  0  0  0  0  0
    4.2042    4.0875    0.1322 N   0  0  0  0  0  0  0  0  0  0  0  0
    5.0312    3.9094    1.3105 C   0  0  0  0  0  0  0  0  0  0  0  0
    4.5615    4.5266    2.2931 O   0  0  0  0  0  0  0  0  0  0  0  0
    6.2414    3.1417    1.4146 C   0  0  1  0  0  0  0  0  0  0  0  0
    6.3082    1.7184    1.5660 N   0  0  0  0  0  0  0  0  0  0  0  0
    5.4848    0.7149    1.0763 C   0  0  0  0  0  0  0  0  0  0  0  0
    4.7373    1.2753    0.1653 O   0  0  0  0  0  0  0  0  0  0  0  0
    7.5301    1.2332    2.1715 C   0  0  0  0  0  0  0  0  0  0  0  0
    8.6970    2.1202    1.8031 C   0  0  0  0  0  0  0  0  0  0  0  0
    9.8919    1.6888    2.3116 C   0  0  0  0  0  0  0  0  0  0  0  0
   11.0294    2.3856    2.0372 C   0  0  0  0  0  0  0  0  0  0  0  0
   10.9899    3.5244    1.2495 C   0  0  0  0  0  0  0  0  0  0  0  0
    9.7648    3.9489    0.7385 C   0  0  0  0  0  0  0  0  0  0  0  0
    8.6356    3.2295    1.0276 C   0  0  0  0  0  0  0  0  0  0  0  0
    7.3303    3.6579    0.4592 C   0  0  0  0  0  0  0  0  0  0  0  0
    2.6819    5.4657   -1.1682 C   0  0  0  0  0  0  0  0  0  0  0  0
    1.7894    6.6235   -1.2845 C   0  0  0  0  0  0  0  0  0  0  0  0
    0.5785    6.5802   -1.6296 O   0  0  0  0  0  0  0  0  0  0  0  0
    2.2890    7.9453   -0.9904 N   0  0  0  0  0  0  0  0  0  0  0  0
   -0.2207    6.1755    3.4599 C   0  0  0  0  0  0  0  0  0  0  0  0
   -3.7074    5.5171   -0.7479 C   0  0  0  0  0  0  0  0  0  0  0  0
   -3.8766    6.8165   -0.0278 C   0  0  0  0  0  0  0  0  0  0  0  0
   -2.9180    7.8078   -0.0305 C   0  0  0  0  0  0  0  0  0  0  0  0
   -3.2154    8.9540    0.6907 C   0  0  0  0  0  0  0  0  0  0  0  0
   -4.4020    9.1221    1.3843 C   0  0  0  0  0  0  0  0  0  0  0  0
   -5.3503    8.1306    1.3828 C   0  0  0  0  0  0  0  0  0  0  0  0
   -5.0692    6.9688    0.6632 C   0  0  0  0  0  0  0  0  0  0  0  0
   -5.4331    1.7397   -3.0151 C   0  0  0  0  0  0  0  0  0  0  0  0
   -5.9412    2.9109   -2.9209 O   0  0  0  0  0  0  0  0  0  0  0  0
   -5.9935    0.8933   -3.9104 O   0  0  0  0  0  0  0  0  0  0  0  0
   10.6426   -1.5347   -0.6981 H   0  0  0  0  0  0  0  0  0  0  0  0
    9.1619   -0.6126   -0.3866 H   0  0  0  0  0  0  0  0  0  0  0  0
    8.4171   -4.2065   -0.9490 H   0  0  0  0  0  0  0  0  0  0  0  0
    9.9941   -2.4373    2.3222 H   0  0  0  0  0  0  0  0  0  0  0  0
    8.2375   -3.3069    3.6147 H   0  0  0  0  0  0  0  0  0  0  0  0
    7.5206   -3.9705    2.1525 H   0  0  0  0  0  0  0  0  0  0  0  0
    5.9818   -2.5571    3.2152 H   0  0  0  0  0  0  0  0  0  0  0  0
    7.0315   -1.1839    3.2224 H   0  0  0  0  0  0  0  0  0  0  0  0
    6.9930   -1.6001    0.4493 H   0  0  0  0  0  0  0  0  0  0  0  0
    5.7454   -2.7320    0.9453 H   0  0  0  0  0  0  0  0  0  0  0  0
    4.3232   -0.9041    1.8320 H   0  0  0  0  0  0  0  0  0  0  0  0
    5.1762   -0.6026   -1.0274 H   0  0  0  0  0  0  0  0  0  0  0  0
    2.5797   -0.8866   -2.3041 H   0  0  0  0  0  0  0  0  0  0  0  0
    4.6438   -1.9297   -2.9378 H   0  0  0  0  0  0  0  0  0  0  0  0
    3.2023   -2.6215   -3.6697 H   0  0  0  0  0  0  0  0  0  0  0  0
    2.3991   -4.8241   -3.0276 H   0  0  0  0  0  0  0  0  0  0  0  0
    3.0121   -7.1181   -2.3055 H   0  0  0  0  0  0  0  0  0  0  0  0
    5.0843   -7.5327   -1.1511 H   0  0  0  0  0  0  0  0  0  0  0  0
    6.5833   -5.6927   -0.6381 H   0  0  0  0  0  0  0  0  0  0  0  0
    6.0243   -3.3261   -1.3450 H   0  0  0  0  0  0  0  0  0  0  0  0
    1.2822   -3.1196   -0.8510 H   0  0  0  0  0  0  0  0  0  0  0  0
   -0.3561   -4.3217   -2.3416 H   0  0  0  0  0  0  0  0  0  0  0  0
   -1.0317   -2.6236   -4.8380 H   0  0  0  0  0  0  0  0  0  0  0  0
   -2.0850   -3.9326   -4.3190 H   0  0  0  0  0  0  0  0  0  0  0  0
    1.4684   -3.2601   -5.9435 H   0  0  0  0  0  0  0  0  0  0  0  0
    1.0040   -7.4602   -5.5667 H   0  0  0  0  0  0  0  0  0  0  0  0
   -0.8802   -6.3807   -4.2732 H   0  0  0  0  0  0  0  0  0  0  0  0
   -2.2376   -1.9546   -2.3164 H   0  0  0  0  0  0  0  0  0  0  0  0
   -4.2713   -3.2862   -0.6948 H   0  0  0  0  0  0  0  0  0  0  0  0
   -2.8824   -3.5219    1.9421 H   0  0  0  0  0  0  0  0  0  0  0  0
   -4.0747   -6.6872    2.1080 H   0  0  0  0  0  0  0  0  0  0  0  0
   -6.5424   -4.9640    2.7640 H   0  0  0  0  0  0  0  0  0  0  0  0
   -6.3843   -6.4036    1.7693 H   0  0  0  0  0  0  0  0  0  0  0  0
   -6.1870   -8.6045    2.8503 H   0  0  0  0  0  0  0  0  0  0  0  0
   -6.7270   -9.9487    4.8888 H   0  0  0  0  0  0  0  0  0  0  0  0
   -6.8800   -6.3904    7.1755 H   0  0  0  0  0  0  0  0  0  0  0  0
   -6.3513   -5.0568    5.2249 H   0  0  0  0  0  0  0  0  0  0  0  0
   -6.7798   -8.8371    8.2141 H   0  0  0  0  0  0  0  0  0  0  0  0
   -4.0146   -4.2223    3.6693 H   0  0  0  0  0  0  0  0  0  0  0  0
   -3.7748   -5.7744    4.3593 H   0  0  0  0  0  0  0  0  0  0  0  0
   -2.5607   -1.4099    1.0558 H   0  0  0  0  0  0  0  0  0  0  0  0
   -4.3207   -1.4702    1.1289 H   0  0  0  0  0  0  0  0  0  0  0  0
   -5.2328   -1.3186   -0.4030 H   0  0  0  0  0  0  0  0  0  0  0  0
   -5.7781   -2.0658   -4.2674 H   0  0  0  0  0  0  0  0  0  0  0  0
   -4.2167   -1.9527   -3.4575 H   0  0  0  0  0  0  0  0  0  0  0  0
   -7.5703   -0.8833   -0.3101 H   0  0  0  0  0  0  0  0  0  0  0  0
   -6.5505    0.0746    0.7110 H   0  0  0  0  0  0  0  0  0  0  0  0
   -6.6827    2.5132    0.5995 H   0  0  0  0  0  0  0  0  0  0  0  0
   -8.0606    4.4699   -0.0954 H   0  0  0  0  0  0  0  0  0  0  0  0
  -10.0170    2.0154   -2.9738 H   0  0  0  0  0  0  0  0  0  0  0  0
   -8.7151    0.0962   -2.3246 H   0  0  0  0  0  0  0  0  0  0  0  0
  -10.0872    4.5693   -3.0175 H   0  0  0  0  0  0  0  0  0  0  0  0
   -2.1914    0.9636   -2.8374 H   0  0  0  0  0  0  0  0  0  0  0  0
   -3.5385    0.7333   -4.0417 H   0  0  0  0  0  0  0  0  0  0  0  0
   -3.0356    2.3988   -3.5286 H   0  0  0  0  0  0  0  0  0  0  0  0
   -4.9719    3.1373   -1.1479 H   0  0  0  0  0  0  0  0  0  0  0  0
   -3.7453    4.1943    0.9317 H   0  0  0  0  0  0  0  0  0  0  0  0
   -0.9726    5.1030   -0.0199 H   0  0  0  0  0  0  0  0  0  0  0  0
    0.3510    4.1064    3.0796 H   0  0  0  0  0  0  0  0  0  0  0  0
    0.8242    6.2736    0.9770 H   0  0  0  0  0  0  0  0  0  0  0  0
    3.5422    5.9094    0.7440 H   0  0  0  0  0  0  0  0  0  0  0  0
    4.4066    3.6108   -0.7131 H   0  0  0  0  0  0  0  0  0  0  0  0
    6.7056    3.5115    2.4378 H   0  0  0  0  0  0  0  0  0  0  0  0
    7.8503    0.2737    1.6908 H   0  0  0  0  0  0  0  0  0  0  0  0
    7.4368    1.1252    3.2358 H   0  0  0  0  0  0  0  0  0  0  0  0
    9.8444    0.7760    2.9113 H   0  0  0  0  0  0  0  0  0  0  0  0
   11.9539    2.0285    2.4505 H   0  0  0  0  0  0  0  0  0  0  0  0
   11.9142    4.0550    1.0530 H   0  0  0  0  0  0  0  0  0  0  0  0
    9.7103    4.8333    0.1173 H   0  0  0  0  0  0  0  0  0  0  0  0
    7.1488    3.3254   -0.5588 H   0  0  0  0  0  0  0  0  0  0  0  0
    7.3068    4.7651    0.5679 H   0  0  0  0  0  0  0  0  0  0  0  0
    2.0919    4.5940   -1.6269 H   0  0  0  0  0  0  0  0  0  0  0  0
    3.5633    5.5417   -1.8649 H   0  0  0  0  0  0  0  0  0  0  0  0
    2.7130    8.4554   -1.7928 H   0  0  0  0  0  0  0  0  0  0  0  0
    2.2126    8.3525   -0.0164 H   0  0  0  0  0  0  0  0  0  0  0  0
    0.6958    6.4024    4.0220 H   0  0  0  0  0  0  0  0  0  0  0  0
   -0.5056    7.0597    2.8202 H   0  0  0  0  0  0  0  0  0  0  0  0
   -1.0863    5.9928    4.1242 H   0  0  0  0  0  0  0  0  0  0  0  0
   -3.0772    5.6370   -1.6686 H   0  0  0  0  0  0  0  0  0  0  0  0
   -4.6866    5.1302   -1.1024 H   0  0  0  0  0  0  0  0  0  0  0  0
   -1.9997    7.6639   -0.5729 H   0  0  0  0  0  0  0  0  0  0  0  0
   -2.5006    9.7671    0.7213 H   0  0  0  0  0  0  0  0  0  0  0  0
   -4.6241   10.0367    1.9487 H   0  0  0  0  0  0  0  0  0  0  0  0
   -6.3010    8.1950    1.9030 H   0  0  0  0  0  0  0  0  0  0  0  0
   -5.8290    6.1758    0.6593 H   0  0  0  0  0  0  0  0  0  0  0  0
   -6.3676    1.1579   -4.8190 H   0  0  0  0  0  0  0  0  0  0  0  0
  1  2  1  0
  2  3  2  3
  2  4  1  0
  4  5  1  0
  5  6  1  0
  6  7  1  0
  7  8  1  0
  8  9  1  0
  9 10  1  0
 10 11  2  0
 10 12  1  0
 12 13  1  0
 13 14  1  0
 14 15  2  0
 15 16  1  0
 16 17  2  0
 17 18  1  0
 18 19  2  0
 12 20  1  0
 20 21  1  0
 21 22  2  0
 21 23  1  0
 23 24  1  0
 24 25  1  0
 25 26  2  0
 26 27  1  0
 27 28  2  0
 28 29  1  0
 23 30  1  0
 30 31  1  0
 31 32  2  0
 31 33  1  0
 33 34  1  0
 34 35  1  0
 35 36  2  0
 35 37  1  0
 37 38  1  0
 38 39  1  0
 39 40  2  0
 40 41  1  0
 41 42  2  0
 42 43  1  0
 43 44  2  0
 42 45  1  0
 37 46  1  0
 33 47  1  0
 47 48  1  0
 48 49  2  0
 48 50  1  0
 50 51  1  0
 51 52  1  0
 52 53  2  0
 52 54  1  0
 51 55  1  0
 55 56  1  0
 56 57  2  0
 57 58  1  0
 58 59  2  0
 59 60  1  0
 60 61  2  0
 59 62  1  0
 50 63  1  0
 63 64  1  0
 63 65  1  0
 65 66  1  0
 66 67  2  0
 66 68  1  0
 68 69  1  0
 69 70  1  0
 70 71  2  0
 70 72  1  0
 72 73  1  0
 73 74  1  0
 74 75  2  0
 74 76  1  0
 76 77  1  0
 77 78  1  0
 78 79  2  0
 78 80  1  0
 80 81  1  0
 81 82  1  0
 82 83  2  0
 81 84  1  0
 84 85  1  0
 85 86  2  0
 86 87  1  0
 87 88  2  0
 88 89  1  0
 89 90  2  0
 90 91  1  0
 76 92  1  0
 92 93  1  0
 93 94  2  0
 93 95  1  0
 72 96  1  0
 68 97  1  0
 97 98  1  0
 98 99  2  0
 99100  1  0
100101  2  0
101102  1  0
102103  2  0
 63104  1  0
104105  2  0
104106  1  0
 82  8  1  0
 90 85  1  0
103 98  1  0
 19 14  1  0
 29 25  1  0
 44 39  1  0
 61 56  1  0
 91 80  1  0
  1107  1  0
  1108  1  0
  3109  1  0
  4110  1  0
  5111  1  0
  5112  1  0
  6113  1  0
  6114  1  0
  7115  1  0
  7116  1  0
  8117  1  1
  9118  1  0
 12119  1  6
 13120  1  0
 13121  1  0
 15122  1  0
 16123  1  0
 17124  1  0
 18125  1  0
 19126  1  0
 20127  1  0
 23128  1  1
 24129  1  0
 24130  1  0
 26131  1  0
 28132  1  0
 29133  1  0
 30134  1  0
 33135  1  6
 34136  1  0
 37137  1  6
 38138  1  0
 38139  1  0
 40140  1  0
 41141  1  0
 43142  1  0
 44143  1  0
 45144  1  0
 46145  1  0
 46146  1  0
 47147  1  0
 47148  1  0
 51149  1  1
 54150  1  0
 54151  1  0
 55152  1  0
 55153  1  0
 57154  1  0
 58155  1  0
 60156  1  0
 61157  1  0
 62158  1  0
 64159  1  0
 64160  1  0
 64161  1  0
 65162  1  0
 68163  1  1
 69164  1  0
 72165  1  1
 73166  1  0
 76167  1  1
 77168  1  0
 80169  1  1
 84170  1  0
 84171  1  0
 86172  1  0
 87173  1  0
 88174  1  0
 89175  1  0
 91176  1  0
 91177  1  0
 92178  1  0
 92179  1  0
 95180  1  0
 95181  1  0
 96182  1  0
 96183  1  0
 96184  1  0
 97185  1  0
 97186  1  0
 99187  1  0
100188  1  0
101189  1  0
102190  1  0
103191  1  0
106192  1  0
M  END
>  <Ligand ID>  (1) 
LIG0001167

>  <Ligand>  (1) 
CHEMBL2096720

>  <SMILES>  (1) 
NC(=N)NCCC[C@@H]1NC(=O)[C@@H](Cc2ccccc2)NC(=O)[C@H](Cc2cnc[nH]2)NC(=O)[C@@H](NC(=O)[C@H](Cc2ccc(cc2)O)N)CC(=O)N([C@H](C(=O)N)Cc2ccc(cc2)O)C(C)(NC(=O)[C@@H](NC(=O)[C@@H](NC(=O)[C@@H](NC(=O)[C@H]2N(C1=O)Cc1ccccc1C2)CC(=O)N)C)Cc1ccccc1)C(=O)O

>  <CID>  (1) 
91900705.0

>  <ChEMBL ID>  (1) 
nan

>  <InChiKey>  (1) 
XLEDYEJZOMFGJB-KFTZSVNWSA-N

>  <InChi>  (1) 
InChI=1S/C72H86N18O16/c1-39-61(96)83-52(30-41-14-7-4-8-15-41)67(102)88-72(2,70(105)106)90(56(60(75)95)31-43-21-25-48(92)26-22-43)59(94)35-55(84-62(97)49(73)28-42-19-23-47(91)24-20-42)66(101)86-53(33-46-36-78-38-80-46)65(100)85-51(29-40-12-5-3-6-13-40)64(99)82-50(18-11-27-79-71(76)77)69(104)89-37-45-17-10-9-16-44(45)32-57(89)68(103)87-54(34-58(74)93)63(98)81-39/h3-10,12-17,19-26,36,38-39,49-57,91-92H,11,18,27-35,37,73H2,1-2H3,(H2,74,93)(H2,75,95)(H,78,80)(H,81,98)(H,82,99)(H,83,96)(H,84,97)(H,85,100)(H,86,101)(H,87,103)(H,88,102)(H,105,106)(H4,76,77,79)/t39-,49-,50-,51+,52-,53-,54-,55-,56-,57-,72?/m0/s1

>  <IUPAC Name>  (1) 
(3S,6R,9S,12S,19S,22S,25S,28S)-15-[(2S)-1-amino-3-(4-hydroxyphenyl)-1-oxopropan-2-yl]-12-[[(2S)-2-amino-3-(4-hydroxyphenyl)propanoyl]amino]-25-(2-amino-2-oxoethyl)-6,19-dibenzyl-3-(3-carbamimidamidopropyl)-9-(1H-imidazol-5-ylmethyl)-16,22-dimethyl-2,5,8,11,14,18,21,24,27-nonaoxo-1,4,7,10,15,17,20,23,26-nonazatricyclo[26.8.0.030,35]hexatriaconta-30,32,34-triene-16-carboxylic acid

$$$$
