
     RDKit          3D

 61 65  0  0  0  0  0  0  0  0999 V2000
   -2.1349    4.0143   -2.1678 C   0  0  0  0  0  0  0  0  0  0  0  0
   -3.4616    3.7122   -1.7610 O   0  0  0  0  0  0  0  0  0  0  0  0
   -3.6779    2.5274   -1.0590 C   0  0  0  0  0  0  0  0  0  0  0  0
   -2.6274    1.6789   -0.7723 C   0  0  0  0  0  0  0  0  0  0  0  0
   -2.7899    0.4960   -0.0811 C   0  0  0  0  0  0  0  0  0  0  0  0
   -4.0702    0.1821    0.3241 C   0  0  0  0  0  0  0  0  0  0  0  0
   -5.1528    1.0139    0.0526 C   0  0  0  0  0  0  0  0  0  0  0  0
   -4.9493    2.1885   -0.6414 C   0  0  0  0  0  0  0  0  0  0  0  0
   -5.9678    3.0767   -0.9560 O   0  0  0  0  0  0  0  0  0  0  0  0
   -7.3106    2.8395   -0.5835 C   0  0  0  0  0  0  0  0  0  0  0  0
   -4.2188   -0.9789    1.0018 N   0  0  0  0  0  0  0  0  0  0  0  0
   -3.1654   -1.7884    1.2672 C   0  0  0  0  0  0  0  0  0  0  0  0
   -1.9155   -1.4606    0.8595 N   0  0  0  0  0  0  0  0  0  0  0  0
   -1.6948   -0.3026    0.1705 C   0  0  0  0  0  0  0  0  0  0  0  0
   -0.3752    0.0168   -0.2466 N   0  0  0  0  0  0  0  0  0  0  0  0
    0.0009    0.1912   -1.6396 C   0  0  0  0  0  0  0  0  0  0  0  0
    1.0645   -0.8896   -1.8712 C   0  0  0  0  0  0  0  0  0  0  0  0
    2.2050   -0.4808   -1.0358 N   0  0  0  0  0  0  0  0  0  0  0  0
    2.0218   -0.1577    0.3467 C   0  0  0  0  0  0  0  0  0  0  0  0
    0.6326    0.1721    0.7615 C   0  0  0  0  0  0  0  0  0  0  0  0
    3.4971   -0.4118   -1.6289 C   0  0  0  0  0  0  0  0  0  0  0  0
    3.5947   -0.7142   -2.8665 O   0  0  0  0  0  0  0  0  0  0  0  0
    4.6441   -0.0102   -0.8359 C   0  0  0  0  0  0  0  0  0  0  0  0
    4.9274    1.3561   -0.8075 C   0  0  0  0  0  0  0  0  0  0  0  0
    5.9884    1.8420   -0.0895 C   0  0  0  0  0  0  0  0  0  0  0  0
    6.7980    0.9824    0.6207 C   0  0  0  0  0  0  0  0  0  0  0  0
    6.5127   -0.3692    0.5889 C   0  0  0  0  0  0  0  0  0  0  0  0
    5.4415   -0.8820   -0.1330 C   0  0  0  0  0  0  0  0  0  0  0  0
    5.1482   -2.2402   -0.1699 O   0  0  0  0  0  0  0  0  0  0  0  0
    5.9962   -3.1183    0.5713 C   0  0  0  0  0  0  0  0  0  0  0  0
   -3.3319   -3.0648    2.0139 C   0  0  0  0  0  0  0  0  0  0  0  0
   -2.3937   -4.1888    1.8145 C   0  0  0  0  0  0  0  0  0  0  0  0
   -2.2738   -3.3316    3.0491 C   0  0  0  0  0  0  0  0  0  0  0  0
   -2.0717    4.8899   -2.8080 H   0  0  0  0  0  0  0  0  0  0  0  0
   -1.4551    4.0346   -1.2911 H   0  0  0  0  0  0  0  0  0  0  0  0
   -1.8027    3.1455   -2.7896 H   0  0  0  0  0  0  0  0  0  0  0  0
   -1.6506    1.9809   -1.1156 H   0  0  0  0  0  0  0  0  0  0  0  0
   -6.1435    0.7513    0.3771 H   0  0  0  0  0  0  0  0  0  0  0  0
   -7.4255    2.7029    0.5186 H   0  0  0  0  0  0  0  0  0  0  0  0
   -7.9329    3.7068   -0.8840 H   0  0  0  0  0  0  0  0  0  0  0  0
   -7.5985    1.8903   -1.0923 H   0  0  0  0  0  0  0  0  0  0  0  0
   -0.8041    0.0214   -2.3519 H   0  0  0  0  0  0  0  0  0  0  0  0
    0.4854    1.1847   -1.8316 H   0  0  0  0  0  0  0  0  0  0  0  0
    1.3696   -0.9830   -2.9137 H   0  0  0  0  0  0  0  0  0  0  0  0
    0.6407   -1.8146   -1.4194 H   0  0  0  0  0  0  0  0  0  0  0  0
    2.4724   -1.0016    0.9398 H   0  0  0  0  0  0  0  0  0  0  0  0
    2.6757    0.7192    0.6335 H   0  0  0  0  0  0  0  0  0  0  0  0
    0.3834   -0.5171    1.6223 H   0  0  0  0  0  0  0  0  0  0  0  0
    0.5531    1.1939    1.2230 H   0  0  0  0  0  0  0  0  0  0  0  0
    4.2984    2.0549   -1.3635 H   0  0  0  0  0  0  0  0  0  0  0  0
    6.1871    2.9187   -0.0853 H   0  0  0  0  0  0  0  0  0  0  0  0
    7.6194    1.4091    1.1698 H   0  0  0  0  0  0  0  0  0  0  0  0
    7.1596   -1.0512    1.1558 H   0  0  0  0  0  0  0  0  0  0  0  0
    5.6414   -4.1639    0.5053 H   0  0  0  0  0  0  0  0  0  0  0  0
    6.1495   -2.7663    1.5999 H   0  0  0  0  0  0  0  0  0  0  0  0
    7.0144   -3.1055    0.0976 H   0  0  0  0  0  0  0  0  0  0  0  0
   -4.3589   -3.3186    2.3440 H   0  0  0  0  0  0  0  0  0  0  0  0
   -1.6038   -4.1313    1.0583 H   0  0  0  0  0  0  0  0  0  0  0  0
   -2.7971   -5.2204    1.9166 H   0  0  0  0  0  0  0  0  0  0  0  0
   -1.4081   -2.6305    3.1370 H   0  0  0  0  0  0  0  0  0  0  0  0
   -2.5590   -3.8005    4.0120 H   0  0  0  0  0  0  0  0  0  0  0  0
  1  2  1  0
  2  3  1  0
  3  4  2  0
  4  5  1  0
  5  6  2  0
  6  7  1  0
  7  8  2  0
  8  9  1  0
  9 10  1  0
  6 11  1  0
 11 12  2  0
 12 13  1  0
 13 14  2  0
 14 15  1  0
 15 16  1  0
 16 17  1  0
 17 18  1  0
 18 19  1  0
 19 20  1  0
 18 21  1  0
 21 22  2  0
 21 23  1  0
 23 24  2  0
 24 25  1  0
 25 26  2  0
 26 27  1  0
 27 28  2  0
 28 29  1  0
 29 30  1  0
 12 31  1  0
 31 32  1  0
 32 33  1  0
  8  3  1  0
 20 15  1  0
 28 23  1  0
 33 31  1  0
 14  5  1  0
  1 34  1  0
  1 35  1  0
  1 36  1  0
  4 37  1  0
  7 38  1  0
 10 39  1  0
 10 40  1  0
 10 41  1  0
 16 42  1  0
 16 43  1  0
 17 44  1  0
 17 45  1  0
 19 46  1  0
 19 47  1  0
 20 48  1  0
 20 49  1  0
 24 50  1  0
 25 51  1  0
 26 52  1  0
 27 53  1  0
 30 54  1  0
 30 55  1  0
 30 56  1  0
 31 57  1  0
 32 58  1  0
 32 59  1  0
 33 60  1  0
 33 61  1  0
M  END
>  <Ligand ID>  (1) 
LIG0004859

>  <Ligand>  (1) 
CHEMBL2431109

>  <SMILES>  (1) 
COc1cc2c(cc1OC)nc(nc2N1CCN(CC1)C(=O)c1ccccc1OC)C1CC1

>  <CID>  (1) 
56593279.0

>  <ChEMBL ID>  (1) 
nan

>  <InChiKey>  (1) 
FVWBKCQCHMXHOJ-UHFFFAOYSA-N

>  <InChi>  (1) 
InChI=1S/C25H28N4O4/c1-31-20-7-5-4-6-17(20)25(30)29-12-10-28(11-13-29)24-18-14-21(32-2)22(33-3)15-19(18)26-23(27-24)16-8-9-16/h4-7,14-16H,8-13H2,1-3H3

>  <IUPAC Name>  (1) 
[4-(2-cyclopropyl-6,7-dimethoxyquinazolin-4-yl)piperazin-1-yl]-(2-methoxyphenyl)methanone

$$$$
