
     RDKit          3D

 45 49  0  0  0  0  0  0  0  0999 V2000
   -3.6852    1.6239    2.8248 O   0  0  0  0  0  0  0  0  0  0  0  0
   -4.2010    1.7009    1.5184 C   0  0  0  0  0  0  0  0  0  0  0  0
   -3.6938    0.5373    0.6786 C   0  0  0  0  0  0  0  0  0  0  0  0
   -4.4246    0.5286   -0.6422 C   0  0  0  0  0  0  0  0  0  0  0  0
   -5.2185   -0.6628   -0.1755 C   0  0  0  0  0  0  0  0  0  0  0  0
   -4.3583   -0.7354    1.0762 C   0  0  0  0  0  0  0  0  0  0  0  0
   -2.2566    0.5383    0.5896 N   0  0  0  0  0  0  0  0  0  0  0  0
   -1.5605   -0.4555   -0.1440 C   0  0  0  0  0  0  0  0  0  0  0  0
   -2.1896   -1.3662   -0.7373 O   0  0  0  0  0  0  0  0  0  0  0  0
   -0.1043   -0.4253   -0.2138 C   0  0  0  0  0  0  0  0  0  0  0  0
    0.7067    0.4950    0.3748 N   0  0  0  0  0  0  0  0  0  0  0  0
    1.9801    0.2241    0.1072 N   0  0  0  0  0  0  0  0  0  0  0  0
    1.9924   -0.8822   -0.6620 C   0  0  0  0  0  0  0  0  0  0  0  0
    0.7040   -1.3193   -0.8853 C   0  0  0  0  0  0  0  0  0  0  0  0
    0.6984   -2.5399   -1.7328 C   0  0  0  0  0  0  0  0  0  0  0  0
    2.1560   -2.8521   -1.9340 C   0  0  2  0  0  0  0  0  0  0  0  0
    2.9636   -1.7713   -1.3401 C   0  0  1  0  0  0  0  0  0  0  0  0
    2.8647   -1.9007   -2.8781 C   0  0  0  0  0  0  0  0  0  0  0  0
    3.1054    0.9731    0.5573 C   0  0  0  0  0  0  0  0  0  0  0  0
    3.6860    0.7187    1.7859 C   0  0  0  0  0  0  0  0  0  0  0  0
    4.7779    1.4939    2.1474 C   0  0  0  0  0  0  0  0  0  0  0  0
    5.2910    2.4847    1.3430 C   0  0  0  0  0  0  0  0  0  0  0  0
    4.6904    2.7254    0.1070 C   0  0  0  0  0  0  0  0  0  0  0  0
    3.5895    1.9524   -0.2708 C   0  0  0  0  0  0  0  0  0  0  0  0
    3.0406    2.2201   -1.4748 F   0  0  0  0  0  0  0  0  0  0  0  0
    6.3682    3.2456    1.7057 F   0  0  0  0  0  0  0  0  0  0  0  0
   -3.6204    0.6796    3.1148 H   0  0  0  0  0  0  0  0  0  0  0  0
   -5.3002    1.6883    1.5935 H   0  0  0  0  0  0  0  0  0  0  0  0
   -3.8650    2.6636    1.0667 H   0  0  0  0  0  0  0  0  0  0  0  0
   -5.1202    1.3932   -0.8131 H   0  0  0  0  0  0  0  0  0  0  0  0
   -3.8013    0.3627   -1.5379 H   0  0  0  0  0  0  0  0  0  0  0  0
   -6.2946   -0.4982    0.0109 H   0  0  0  0  0  0  0  0  0  0  0  0
   -5.0572   -1.5223   -0.8702 H   0  0  0  0  0  0  0  0  0  0  0  0
   -5.0022   -0.7092    1.9866 H   0  0  0  0  0  0  0  0  0  0  0  0
   -3.7261   -1.6441    1.0816 H   0  0  0  0  0  0  0  0  0  0  0  0
   -1.6694    1.2708    1.0618 H   0  0  0  0  0  0  0  0  0  0  0  0
    0.2546   -3.4099   -1.1929 H   0  0  0  0  0  0  0  0  0  0  0  0
    0.1697   -2.3422   -2.6942 H   0  0  0  0  0  0  0  0  0  0  0  0
    2.4982   -3.9055   -1.9492 H   0  0  0  0  0  0  0  0  0  0  0  0
    3.9428   -1.9760   -0.8708 H   0  0  0  0  0  0  0  0  0  0  0  0
    2.2801   -1.0668   -3.3414 H   0  0  0  0  0  0  0  0  0  0  0  0
    3.7743   -2.2841   -3.3663 H   0  0  0  0  0  0  0  0  0  0  0  0
    3.2989   -0.0644    2.4481 H   0  0  0  0  0  0  0  0  0  0  0  0
    5.2465    1.3113    3.1038 H   0  0  0  0  0  0  0  0  0  0  0  0
    5.0691    3.5017   -0.5568 H   0  0  0  0  0  0  0  0  0  0  0  0
  1  2  1  0
  2  3  1  0
  3  4  1  0
  4  5  1  0
  5  6  1  0
  3  7  1  0
  7  8  1  0
  8  9  2  0
  8 10  1  0
 10 11  2  0
 11 12  1  0
 12 13  1  0
 13 14  2  0
 14 15  1  0
 15 16  1  0
 16 17  1  0
 17 18  1  0
 12 19  1  0
 19 20  2  0
 20 21  1  0
 21 22  2  0
 22 23  1  0
 23 24  2  0
 24 25  1  0
 22 26  1  0
  6  3  1  0
 14 10  1  0
 18 16  1  0
 24 19  1  0
 17 13  1  0
  1 27  1  0
  2 28  1  0
  2 29  1  0
  4 30  1  0
  4 31  1  0
  5 32  1  0
  5 33  1  0
  6 34  1  0
  6 35  1  0
  7 36  1  0
 15 37  1  0
 15 38  1  0
 16 39  1  6
 17 40  1  6
 18 41  1  0
 18 42  1  0
 20 43  1  0
 21 44  1  0
 23 45  1  0
M  END
>  <Ligand ID>  (1) 
LIG0001327

>  <Ligand>  (1) 
CHEMBL3354954

>  <SMILES>  (1) 
OCC1(CCC1)NC(=O)c1nn(c2c1C[C@@H]1[C@H]2C1)c1ccc(cc1F)F

>  <CID>  (1) 
118720565.0

>  <ChEMBL ID>  (1) 
nan

>  <InChiKey>  (1) 
QYJMHBYZTCLNAE-ZYHUDNBSSA-N

>  <InChi>  (1) 
InChI=1S/C19H19F2N3O2/c20-11-2-3-15(14(21)8-11)24-17-12-6-10(12)7-13(17)16(23-24)18(26)22-19(9-25)4-1-5-19/h2-3,8,10,12,25H,1,4-7,9H2,(H,22,26)/t10-,12-/m1/s1

>  <IUPAC Name>  (1) 
(2R,4R)-9-(2,4-difluorophenyl)-N-[1-(hydroxymethyl)cyclobutyl]-8,9-diazatricyclo[4.3.0.02,4]nona-1(6),7-diene-7-carboxamide

$$$$
