
     RDKit          3D

 56 60  0  0  0  0  0  0  0  0999 V2000
   -2.8961   -1.9250   -1.4263 C   0  0  0  0  0  0  0  0  0  0  0  0
   -1.7483   -1.0593   -1.0588 C   0  0  1  0  0  0  0  0  0  0  0  0
   -2.0185    0.0511   -0.0635 C   0  0  1  0  0  0  0  0  0  0  0  0
   -1.3496    1.1635   -0.6249 C   0  0  0  0  0  0  0  0  0  0  0  0
    0.0968    0.6700   -0.5498 C   0  0  0  0  0  0  0  0  0  0  0  0
    0.3889   -0.6706   -0.3904 C   0  0  0  0  0  0  0  0  0  0  0  0
   -0.6346   -1.7533   -0.3252 C   0  0  2  0  0  0  0  0  0  0  0  0
   -0.1883   -3.0184   -0.9789 C   0  0  0  0  0  0  0  0  0  0  0  0
   -1.2883   -1.9619    1.0148 C   0  0  0  0  0  0  0  0  0  0  0  0
   -2.7506   -1.6340    1.1743 C   0  0  0  0  0  0  0  0  0  0  0  0
   -3.1874   -0.3924    0.4729 N   0  0  0  0  0  0  0  0  0  0  0  0
   -3.9740    0.4406    1.3028 C   0  0  0  0  0  0  0  0  0  0  0  0
   -4.4152    1.6338    0.4422 C   0  0  0  0  0  0  0  0  0  0  0  0
   -5.2706    2.6948    1.0883 C   0  0  0  0  0  0  0  0  0  0  0  0
   -5.8565    1.7622    0.1026 C   0  0  0  0  0  0  0  0  0  0  0  0
    1.7189   -1.0179   -0.3043 C   0  0  0  0  0  0  0  0  0  0  0  0
    2.7496   -0.0744   -0.3733 C   0  0  0  0  0  0  0  0  0  0  0  0
    2.3792    1.2318   -0.5331 C   0  0  0  0  0  0  0  0  0  0  0  0
    1.0566    1.6504   -0.6262 C   0  0  0  0  0  0  0  0  0  0  0  0
    4.0902   -0.5288   -0.2934 N   0  0  0  0  0  0  0  0  0  0  0  0
    5.1901    0.2088    0.1710 C   0  0  0  0  0  0  0  0  0  0  0  0
    5.1270    1.2813    1.0258 C   0  0  0  0  0  0  0  0  0  0  0  0
    6.2447    1.9886    1.4444 C   0  0  0  0  0  0  0  0  0  0  0  0
    7.4975    1.6272    1.0030 C   0  0  0  0  0  0  0  0  0  0  0  0
    7.5973    0.5421    0.1345 C   0  0  0  0  0  0  0  0  0  0  0  0
    6.4711   -0.1426   -0.2657 C   0  0  0  0  0  0  0  0  0  0  0  0
   -3.8427   -1.4414   -1.0426 H   0  0  0  0  0  0  0  0  0  0  0  0
   -2.8178   -2.9906   -1.1363 H   0  0  0  0  0  0  0  0  0  0  0  0
   -3.0841   -1.9705   -2.5205 H   0  0  0  0  0  0  0  0  0  0  0  0
   -1.3124   -0.7294   -2.0313 H   0  0  0  0  0  0  0  0  0  0  0  0
   -1.4285    0.0534    0.9191 H   0  0  0  0  0  0  0  0  0  0  0  0
   -1.3988    2.1346   -0.0490 H   0  0  0  0  0  0  0  0  0  0  0  0
   -1.6105    1.3662   -1.6798 H   0  0  0  0  0  0  0  0  0  0  0  0
    0.7438   -2.7979   -1.5609 H   0  0  0  0  0  0  0  0  0  0  0  0
    0.0219   -3.7716   -0.2067 H   0  0  0  0  0  0  0  0  0  0  0  0
   -0.9212   -3.3879   -1.7122 H   0  0  0  0  0  0  0  0  0  0  0  0
   -0.6366   -1.5768    1.8221 H   0  0  0  0  0  0  0  0  0  0  0  0
   -1.2577   -3.0821    1.1857 H   0  0  0  0  0  0  0  0  0  0  0  0
   -3.4499   -2.4489    1.0974 H   0  0  0  0  0  0  0  0  0  0  0  0
   -2.8233   -1.3213    2.2540 H   0  0  0  0  0  0  0  0  0  0  0  0
   -4.8787   -0.1076    1.6370 H   0  0  0  0  0  0  0  0  0  0  0  0
   -3.4633    0.7905    2.2250 H   0  0  0  0  0  0  0  0  0  0  0  0
   -3.7401    1.9899   -0.3621 H   0  0  0  0  0  0  0  0  0  0  0  0
   -5.4768    2.5925    2.1822 H   0  0  0  0  0  0  0  0  0  0  0  0
   -5.0810    3.7622    0.8162 H   0  0  0  0  0  0  0  0  0  0  0  0
   -6.1541    2.1747   -0.8712 H   0  0  0  0  0  0  0  0  0  0  0  0
   -6.5174    0.9407    0.4268 H   0  0  0  0  0  0  0  0  0  0  0  0
    2.0280   -2.0680   -0.1741 H   0  0  0  0  0  0  0  0  0  0  0  0
    3.1195    2.0072   -0.6077 H   0  0  0  0  0  0  0  0  0  0  0  0
    0.7991    2.6921   -0.7520 H   0  0  0  0  0  0  0  0  0  0  0  0
    4.2679   -1.5103   -0.6143 H   0  0  0  0  0  0  0  0  0  0  0  0
    4.1834    1.6123    1.4215 H   0  0  0  0  0  0  0  0  0  0  0  0
    6.1454    2.8413    2.1295 H   0  0  0  0  0  0  0  0  0  0  0  0
    8.3611    2.1861    1.3365 H   0  0  0  0  0  0  0  0  0  0  0  0
    8.5972    0.2739   -0.2011 H   0  0  0  0  0  0  0  0  0  0  0  0
    6.5973   -0.9810   -0.9426 H   0  0  0  0  0  0  0  0  0  0  0  0
  1  2  1  0
  2  3  1  0
  3  4  1  0
  4  5  1  0
  5  6  2  0
  6  7  1  0
  7  8  1  6
  7  9  1  0
  9 10  1  0
 10 11  1  0
 11 12  1  0
 12 13  1  0
 13 14  1  0
 14 15  1  0
  6 16  1  0
 16 17  2  0
 17 18  1  0
 18 19  2  0
 17 20  1  0
 20 21  1  0
 21 22  2  0
 22 23  1  0
 23 24  2  0
 24 25  1  0
 25 26  2  0
  7  2  1  0
 15 13  1  0
 26 21  1  0
 11  3  1  0
 19  5  1  0
  1 27  1  0
  1 28  1  0
  1 29  1  0
  2 30  1  6
  3 31  1  1
  4 32  1  0
  4 33  1  0
  8 34  1  0
  8 35  1  0
  8 36  1  0
  9 37  1  0
  9 38  1  0
 10 39  1  0
 10 40  1  0
 12 41  1  0
 12 42  1  0
 13 43  1  0
 14 44  1  0
 14 45  1  0
 15 46  1  0
 15 47  1  0
 16 48  1  0
 18 49  1  0
 19 50  1  0
 20 51  1  0
 22 52  1  0
 23 53  1  0
 24 54  1  0
 25 55  1  0
 26 56  1  0
M  END
>  <Ligand ID>  (1) 
LIG0005485

>  <Ligand>  (1) 
CHEMBL2367916

>  <SMILES>  (1) 
C[C@H]1[C@H]2Cc3c([C@@]1(C)CCN2CC1CC1)cc(cc3)Nc1ccccc1

>  <CID>  (1) 
73351393.0

>  <ChEMBL ID>  (1) 
nan

>  <InChiKey>  (1) 
FUMBLBJFVJXVBV-VWMXVWASSA-N

>  <InChi>  (1) 
InChI=1S/C24H30N2/c1-17-23-14-19-10-11-21(25-20-6-4-3-5-7-20)15-22(19)24(17,2)12-13-26(23)16-18-8-9-18/h3-7,10-11,15,17-18,23,25H,8-9,12-14,16H2,1-2H3/t17-,23+,24-/m0/s1

>  <IUPAC Name>  (1) 
(1S,9R,13R)-10-(cyclopropylmethyl)-1,13-dimethyl-N-phenyl-10-azatricyclo[7.3.1.02,7]trideca-2(7),3,5-trien-4-amine

$$$$
