
     RDKit          3D

 83 85  0  0  0  0  0  0  0  0999 V2000
   10.7105    1.3889    2.1253 O   0  0  0  0  0  0  0  0  0  0  0  0
   10.9204    1.2026    0.7672 C   0  0  0  0  0  0  0  0  0  0  0  0
    9.6753    1.5839    0.0113 C   0  0  0  0  0  0  0  0  0  0  0  0
    8.8787    0.5790   -0.4805 C   0  0  0  0  0  0  0  0  0  0  0  0
    7.7188    0.9202   -1.1894 C   0  0  0  0  0  0  0  0  0  0  0  0
    7.3589    2.2153   -1.4047 C   0  0  0  0  0  0  0  0  0  0  0  0
    8.1654    3.2433   -0.9067 C   0  0  0  0  0  0  0  0  0  0  0  0
    9.3199    2.8954   -0.2011 C   0  0  0  0  0  0  0  0  0  0  0  0
   10.1173    3.8980    0.2909 O   0  0  0  0  0  0  0  0  0  0  0  0
    6.9202   -0.2578   -1.6750 C   0  0  2  0  0  0  0  0  0  0  0  0
    6.1818   -0.7829   -0.4720 C   0  0  0  0  0  0  0  0  0  0  0  0
    5.4415   -2.0001   -0.7277 N   0  0  0  0  0  0  0  0  0  0  0  0
    4.6058   -2.4364    0.3203 C   0  0  0  0  0  0  0  0  0  0  0  0
    3.2411   -1.9810    0.5311 C   0  0  0  0  0  0  0  0  0  0  0  0
    2.8612   -0.5674    0.5685 C   0  0  0  0  0  0  0  0  0  0  0  0
    2.8757    0.1655   -0.7231 C   0  0  0  0  0  0  0  0  0  0  0  0
    1.9219   -0.4842   -1.7237 C   0  0  0  0  0  0  0  0  0  0  0  0
    0.5030   -0.4646   -1.2145 C   0  0  0  0  0  0  0  0  0  0  0  0
   -0.3335   -1.0554   -2.1482 O   0  0  0  0  0  0  0  0  0  0  0  0
   -1.6521   -1.0978   -1.8724 C   0  0  0  0  0  0  0  0  0  0  0  0
   -2.1147   -1.7915   -0.6485 C   0  0  0  0  0  0  0  0  0  0  0  0
   -3.6427   -1.7033   -0.5816 C   0  0  0  0  0  0  0  0  0  0  0  0
   -4.1982   -2.3742    0.6523 C   0  0  0  0  0  0  0  0  0  0  0  0
   -5.6811   -2.2259    0.5849 C   0  0  0  0  0  0  0  0  0  0  0  0
   -6.3593   -3.2775   -0.0369 C   0  0  0  0  0  0  0  0  0  0  0  0
   -7.7464   -3.2445   -0.1666 C   0  0  0  0  0  0  0  0  0  0  0  0
   -8.3968   -2.1328    0.3455 C   0  0  0  0  0  0  0  0  0  0  0  0
   -7.7092   -1.1022    0.9565 C   0  0  0  0  0  0  0  0  0  0  0  0
   -6.3445   -1.1275    1.0884 C   0  0  0  0  0  0  0  0  0  0  0  0
   -8.6950    0.2426    1.5386 S   0  0  0  0  0  0  0  0  0  0  0  0
   -7.9430    0.8515    2.7106 O   0  0  0  0  0  0  0  0  0  0  0  0
   -9.9846   -0.3127    2.0147 O   0  0  0  0  0  0  0  0  0  0  0  0
   -8.8949    1.4308    0.3432 N   0  0  0  0  0  0  0  0  0  0  0  0
   -7.7077    2.0591   -0.1105 C   0  0  0  0  0  0  0  0  0  0  0  0
   -7.6919    3.5616   -0.0207 C   0  0  0  0  0  0  0  0  0  0  0  0
   -8.8967    4.0985   -0.4130 O   0  0  0  0  0  0  0  0  0  0  0  0
   -9.8473    3.7001    0.5447 C   0  0  0  0  0  0  0  0  0  0  0  0
  -10.0611    2.2253    0.4628 C   0  0  0  0  0  0  0  0  0  0  0  0
    7.8394   -1.1888   -2.1604 O   0  0  0  0  0  0  0  0  0  0  0  0
   11.1429    0.6318    2.6319 H   0  0  0  0  0  0  0  0  0  0  0  0
   11.1709    0.1453    0.5519 H   0  0  0  0  0  0  0  0  0  0  0  0
   11.7330    1.8704    0.4089 H   0  0  0  0  0  0  0  0  0  0  0  0
    9.1686   -0.4429   -0.3065 H   0  0  0  0  0  0  0  0  0  0  0  0
    6.4649    2.4391   -1.9511 H   0  0  0  0  0  0  0  0  0  0  0  0
    7.9028    4.2907   -1.0626 H   0  0  0  0  0  0  0  0  0  0  0  0
    9.7861    4.7457    0.7197 H   0  0  0  0  0  0  0  0  0  0  0  0
    6.2245    0.0498   -2.4874 H   0  0  0  0  0  0  0  0  0  0  0  0
    7.0361   -1.1147    0.2426 H   0  0  0  0  0  0  0  0  0  0  0  0
    5.6422    0.0168    0.0385 H   0  0  0  0  0  0  0  0  0  0  0  0
    6.0716   -2.7342   -1.0919 H   0  0  0  0  0  0  0  0  0  0  0  0
    4.5466   -3.5897    0.1806 H   0  0  0  0  0  0  0  0  0  0  0  0
    5.2101   -2.3542    1.3054 H   0  0  0  0  0  0  0  0  0  0  0  0
    2.8222   -2.4858    1.5033 H   0  0  0  0  0  0  0  0  0  0  0  0
    2.5888   -2.5406   -0.2442 H   0  0  0  0  0  0  0  0  0  0  0  0
    1.8399   -0.4545    1.0493 H   0  0  0  0  0  0  0  0  0  0  0  0
    3.5682   -0.0160    1.3036 H   0  0  0  0  0  0  0  0  0  0  0  0
    2.3636    1.1704   -0.5100 H   0  0  0  0  0  0  0  0  0  0  0  0
    3.8263    0.3328   -1.2037 H   0  0  0  0  0  0  0  0  0  0  0  0
    2.3131   -1.5009   -1.9181 H   0  0  0  0  0  0  0  0  0  0  0  0
    1.9998    0.0372   -2.7154 H   0  0  0  0  0  0  0  0  0  0  0  0
    0.1700    0.5854   -1.0906 H   0  0  0  0  0  0  0  0  0  0  0  0
    0.4742   -0.9494   -0.2398 H   0  0  0  0  0  0  0  0  0  0  0  0
   -2.1960   -1.4662   -2.7793 H   0  0  0  0  0  0  0  0  0  0  0  0
   -2.0060   -0.0262   -1.7850 H   0  0  0  0  0  0  0  0  0  0  0  0
   -1.8899   -2.8711   -0.7403 H   0  0  0  0  0  0  0  0  0  0  0  0
   -1.7442   -1.2935    0.2415 H   0  0  0  0  0  0  0  0  0  0  0  0
   -3.9696   -0.6354   -0.6484 H   0  0  0  0  0  0  0  0  0  0  0  0
   -4.1261   -2.1971   -1.4517 H   0  0  0  0  0  0  0  0  0  0  0  0
   -3.7592   -1.8338    1.5146 H   0  0  0  0  0  0  0  0  0  0  0  0
   -3.8949   -3.4396    0.6245 H   0  0  0  0  0  0  0  0  0  0  0  0
   -5.8619   -4.1411   -0.4351 H   0  0  0  0  0  0  0  0  0  0  0  0
   -8.3137   -4.0262   -0.6367 H   0  0  0  0  0  0  0  0  0  0  0  0
   -9.4665   -2.1017    0.2479 H   0  0  0  0  0  0  0  0  0  0  0  0
   -5.8195   -0.3212    1.5654 H   0  0  0  0  0  0  0  0  0  0  0  0
   -7.5165    1.7865   -1.1697 H   0  0  0  0  0  0  0  0  0  0  0  0
   -6.8285    1.6884    0.4605 H   0  0  0  0  0  0  0  0  0  0  0  0
   -6.9120    3.9237   -0.7441 H   0  0  0  0  0  0  0  0  0  0  0  0
   -7.3796    3.8964    1.0056 H   0  0  0  0  0  0  0  0  0  0  0  0
   -9.5254    4.0392    1.5521 H   0  0  0  0  0  0  0  0  0  0  0  0
  -10.7967    4.1862    0.2612 H   0  0  0  0  0  0  0  0  0  0  0  0
  -10.6494    1.9296    1.3584 H   0  0  0  0  0  0  0  0  0  0  0  0
  -10.6884    2.0271   -0.4540 H   0  0  0  0  0  0  0  0  0  0  0  0
    7.9214   -1.9097   -1.4916 H   0  0  0  0  0  0  0  0  0  0  0  0
  1  2  1  0
  2  3  1  0
  3  4  2  0
  4  5  1  0
  5  6  2  0
  6  7  1  0
  7  8  2  0
  8  9  1  0
  5 10  1  0
 10 11  1  0
 11 12  1  0
 12 13  1  0
 13 14  1  0
 14 15  1  0
 15 16  1  0
 16 17  1  0
 17 18  1  0
 18 19  1  0
 19 20  1  0
 20 21  1  0
 21 22  1  0
 22 23  1  0
 23 24  1  0
 24 25  2  0
 25 26  1  0
 26 27  2  0
 27 28  1  0
 28 29  2  0
 28 30  1  0
 30 31  2  0
 30 32  2  0
 30 33  1  0
 33 34  1  0
 34 35  1  0
 35 36  1  0
 36 37  1  0
 37 38  1  0
 10 39  1  0
  8  3  1  0
 29 24  1  0
 38 33  1  0
  1 40  1  0
  2 41  1  0
  2 42  1  0
  4 43  1  0
  6 44  1  0
  7 45  1  0
  9 46  1  0
 10 47  1  6
 11 48  1  0
 11 49  1  0
 12 50  1  0
 13 51  1  0
 13 52  1  0
 14 53  1  0
 14 54  1  0
 15 55  1  0
 15 56  1  0
 16 57  1  0
 16 58  1  0
 17 59  1  0
 17 60  1  0
 18 61  1  0
 18 62  1  0
 20 63  1  0
 20 64  1  0
 21 65  1  0
 21 66  1  0
 22 67  1  0
 22 68  1  0
 23 69  1  0
 23 70  1  0
 25 71  1  0
 26 72  1  0
 27 73  1  0
 29 74  1  0
 34 75  1  0
 34 76  1  0
 35 77  1  0
 35 78  1  0
 37 79  1  0
 37 80  1  0
 38 81  1  0
 38 82  1  0
 39 83  1  0
M  END
>  <Ligand ID>  (1) 
LIG0003252

>  <Ligand>  (1) 
CHEMBL456485

>  <SMILES>  (1) 
OCc1cc(ccc1O)[C@H](CNCCCCCCOCCCCc1cccc(c1)S(=O)(=O)N1CCOCC1)O

>  <CID>  (1) 
42625897.0

>  <ChEMBL ID>  (1) 
nan

>  <InChiKey>  (1) 
GUDCLNZMDLKVIJ-LJAQVGFWSA-N

>  <InChi>  (1) 
InChI=1S/C29H44N2O7S/c32-23-26-21-25(11-12-28(26)33)29(34)22-30-13-4-1-2-5-16-37-17-6-3-8-24-9-7-10-27(20-24)39(35,36)31-14-18-38-19-15-31/h7,9-12,20-21,29-30,32-34H,1-6,8,13-19,22-23H2/t29-/m0/s1

>  <IUPAC Name>  (1) 
2-(hydroxymethyl)-4-[(1R)-1-hydroxy-2-[6-[4-(3-morpholin-4-ylsulfonylphenyl)butoxy]hexylamino]ethyl]phenol

$$$$
