
     RDKit          3D

 90 94  0  0  0  0  0  0  0  0999 V2000
    0.1938    2.1366   -3.5084 C   0  0  0  0  0  0  0  0  0  0  0  0
    0.5321    3.0872   -2.3881 C   0  0  0  0  0  0  0  0  0  0  0  0
   -0.2489    2.7108   -1.1743 C   0  0  0  0  0  0  0  0  0  0  0  0
    0.0189    1.3245   -0.6620 C   0  0  2  0  0  0  0  0  0  0  0  0
   -0.8384    1.1574    0.5117 N   0  0  0  0  0  0  0  0  0  0  0  0
   -0.3628    1.6778    1.7555 C   0  0  0  0  0  0  0  0  0  0  0  0
    1.0078    1.1889    2.1611 C   0  0  0  0  0  0  0  0  0  0  0  0
    1.8793    0.9024    1.0498 N   0  0  0  0  0  0  0  0  0  0  0  0
    1.4299    1.0926   -0.2770 C   0  0  0  0  0  0  0  0  0  0  0  0
    2.2633    1.0706   -1.2472 O   0  0  0  0  0  0  0  0  0  0  0  0
    3.2230    0.4200    1.3843 C   0  0  2  0  0  0  0  0  0  0  0  0
    4.2049    1.4332    0.9436 C   0  0  0  0  0  0  0  0  0  0  0  0
    3.9564    2.3846    0.1636 O   0  0  0  0  0  0  0  0  0  0  0  0
    5.5680    1.3739    1.4188 N   0  0  0  0  0  0  0  0  0  0  0  0
    6.4570    2.4164    0.9223 C   0  0  0  0  0  0  0  0  0  0  0  0
    3.4896   -0.8957    0.7094 C   0  0  0  0  0  0  0  0  0  0  0  0
    4.8009   -1.4975    0.9422 C   0  0  0  0  0  0  0  0  0  0  0  0
    5.0156   -2.3171    2.0527 C   0  0  0  0  0  0  0  0  0  0  0  0
    6.2685   -2.8975    2.2301 C   0  0  0  0  0  0  0  0  0  0  0  0
    7.2915   -2.6598    1.3080 C   0  0  0  0  0  0  0  0  0  0  0  0
    7.0886   -1.8450    0.1998 C   0  0  0  0  0  0  0  0  0  0  0  0
    5.8495   -1.2814    0.0400 C   0  0  0  0  0  0  0  0  0  0  0  0
    8.1031   -1.6145   -0.7073 C   0  0  0  0  0  0  0  0  0  0  0  0
    9.3585   -2.2026   -0.5217 C   0  0  0  0  0  0  0  0  0  0  0  0
    9.5571   -3.0137    0.5829 C   0  0  0  0  0  0  0  0  0  0  0  0
    8.5345   -3.2496    1.5025 C   0  0  0  0  0  0  0  0  0  0  0  0
   -2.0602    0.4867    0.3108 C   0  0  0  0  0  0  0  0  0  0  0  0
   -2.2807    0.0706   -0.8804 O   0  0  0  0  0  0  0  0  0  0  0  0
   -3.0943    0.2165    1.3060 C   0  0  2  0  0  0  0  0  0  0  0  0
   -4.1052   -0.5983    0.6036 N   0  0  0  0  0  0  0  0  0  0  0  0
   -4.4832   -1.8879    1.1175 C   0  0  0  0  0  0  0  0  0  0  0  0
   -3.9540   -2.3309    2.1832 O   0  0  0  0  0  0  0  0  0  0  0  0
   -5.4711   -2.7004    0.4293 C   0  0  0  0  0  0  0  0  0  0  0  0
   -5.7118   -3.9082    1.2379 N   0  0  0  0  0  0  0  0  0  0  0  0
   -4.7965   -3.1773   -0.8721 C   0  0  0  0  0  0  0  0  0  0  0  0
   -5.9812   -3.7203   -1.6424 C   0  0  0  0  0  0  0  0  0  0  0  0
   -6.9838   -2.5836   -1.4315 C   0  0  0  0  0  0  0  0  0  0  0  0
   -6.7439   -2.1294    0.0163 C   0  0  0  0  0  0  0  0  0  0  0  0
   -3.8494    1.4427    1.7767 C   0  0  0  0  0  0  0  0  0  0  0  0
   -4.5589    2.1549    0.7068 C   0  0  0  0  0  0  0  0  0  0  0  0
   -5.8764    1.8410    0.3983 C   0  0  0  0  0  0  0  0  0  0  0  0
   -6.5851    2.4756   -0.5963 C   0  0  0  0  0  0  0  0  0  0  0  0
   -5.9650    3.4654   -1.3196 C   0  0  0  0  0  0  0  0  0  0  0  0
   -4.6435    3.8241   -1.0554 C   0  0  0  0  0  0  0  0  0  0  0  0
   -3.9721    3.1526   -0.0406 C   0  0  0  0  0  0  0  0  0  0  0  0
   -6.6656    4.0867   -2.2953 F   0  0  0  0  0  0  0  0  0  0  0  0
    1.0570    1.4712   -3.6691 H   0  0  0  0  0  0  0  0  0  0  0  0
   -0.6834    1.5170   -3.2249 H   0  0  0  0  0  0  0  0  0  0  0  0
   -0.0887    2.6861   -4.4357 H   0  0  0  0  0  0  0  0  0  0  0  0
    1.6236    3.1335   -2.1978 H   0  0  0  0  0  0  0  0  0  0  0  0
    0.1452    4.0972   -2.7032 H   0  0  0  0  0  0  0  0  0  0  0  0
   -1.3356    2.7112   -1.4783 H   0  0  0  0  0  0  0  0  0  0  0  0
   -0.2007    3.4612   -0.3562 H   0  0  0  0  0  0  0  0  0  0  0  0
   -0.2986    0.5910   -1.4570 H   0  0  0  0  0  0  0  0  0  0  0  0
   -0.3369    2.7871    1.7092 H   0  0  0  0  0  0  0  0  0  0  0  0
   -1.0567    1.4100    2.6029 H   0  0  0  0  0  0  0  0  0  0  0  0
    0.8914    0.2068    2.7086 H   0  0  0  0  0  0  0  0  0  0  0  0
    1.4871    1.8706    2.8923 H   0  0  0  0  0  0  0  0  0  0  0  0
    3.3455    0.3211    2.4905 H   0  0  0  0  0  0  0  0  0  0  0  0
    5.9105    0.6627    2.0755 H   0  0  0  0  0  0  0  0  0  0  0  0
    7.2748    2.5238    1.6568 H   0  0  0  0  0  0  0  0  0  0  0  0
    5.9451    3.4104    0.8828 H   0  0  0  0  0  0  0  0  0  0  0  0
    6.8383    2.2016   -0.1001 H   0  0  0  0  0  0  0  0  0  0  0  0
    2.7309   -1.6648    1.0523 H   0  0  0  0  0  0  0  0  0  0  0  0
    3.3662   -0.7627   -0.4073 H   0  0  0  0  0  0  0  0  0  0  0  0
    4.2141   -2.5004    2.7676 H   0  0  0  0  0  0  0  0  0  0  0  0
    6.4615   -3.5361    3.0819 H   0  0  0  0  0  0  0  0  0  0  0  0
    5.6798   -0.6394   -0.8282 H   0  0  0  0  0  0  0  0  0  0  0  0
    7.9043   -0.9662   -1.5701 H   0  0  0  0  0  0  0  0  0  0  0  0
   10.1500   -2.0134   -1.2440 H   0  0  0  0  0  0  0  0  0  0  0  0
   10.5467   -3.4644    0.7109 H   0  0  0  0  0  0  0  0  0  0  0  0
    8.7333   -3.8966    2.3600 H   0  0  0  0  0  0  0  0  0  0  0  0
   -2.7338   -0.3798    2.1485 H   0  0  0  0  0  0  0  0  0  0  0  0
   -4.5146   -0.1963   -0.2553 H   0  0  0  0  0  0  0  0  0  0  0  0
   -6.4939   -3.6308    1.8917 H   0  0  0  0  0  0  0  0  0  0  0  0
   -4.8814   -4.0850    1.8497 H   0  0  0  0  0  0  0  0  0  0  0  0
   -4.0198   -3.9105   -0.6538 H   0  0  0  0  0  0  0  0  0  0  0  0
   -4.4169   -2.2494   -1.3604 H   0  0  0  0  0  0  0  0  0  0  0  0
   -5.6782   -3.8294   -2.6865 H   0  0  0  0  0  0  0  0  0  0  0  0
   -6.3056   -4.6331   -1.1314 H   0  0  0  0  0  0  0  0  0  0  0  0
   -8.0098   -2.9144   -1.6062 H   0  0  0  0  0  0  0  0  0  0  0  0
   -6.6835   -1.7742   -2.1532 H   0  0  0  0  0  0  0  0  0  0  0  0
   -6.8446   -1.0344   -0.0243 H   0  0  0  0  0  0  0  0  0  0  0  0
   -7.6264   -2.4953    0.5874 H   0  0  0  0  0  0  0  0  0  0  0  0
   -4.6460    1.0361    2.4694 H   0  0  0  0  0  0  0  0  0  0  0  0
   -3.2790    2.1398    2.3802 H   0  0  0  0  0  0  0  0  0  0  0  0
   -6.3232    1.0626    0.9912 H   0  0  0  0  0  0  0  0  0  0  0  0
   -7.6217    2.1757   -0.7844 H   0  0  0  0  0  0  0  0  0  0  0  0
   -4.1586    4.6148   -1.6374 H   0  0  0  0  0  0  0  0  0  0  0  0
   -2.9277    3.4022    0.2021 H   0  0  0  0  0  0  0  0  0  0  0  0
  1  2  1  0
  2  3  1  0
  3  4  1  0
  4  5  1  0
  5  6  1  0
  6  7  1  0
  7  8  1  0
  8  9  1  0
  9 10  2  0
  8 11  1  0
 11 12  1  0
 12 13  2  0
 12 14  1  0
 14 15  1  0
 11 16  1  0
 16 17  1  0
 17 18  2  0
 18 19  1  0
 19 20  2  0
 20 21  1  0
 21 22  2  0
 21 23  1  0
 23 24  2  0
 24 25  1  0
 25 26  2  0
  5 27  1  0
 27 28  2  0
 27 29  1  0
 29 30  1  0
 30 31  1  0
 31 32  2  0
 31 33  1  0
 33 34  1  0
 33 35  1  0
 35 36  1  0
 36 37  1  0
 37 38  1  0
 29 39  1  0
 39 40  1  0
 40 41  2  0
 41 42  1  0
 42 43  2  0
 43 44  1  0
 44 45  2  0
 43 46  1  0
  9  4  1  0
 22 17  1  0
 38 33  1  0
 45 40  1  0
 26 20  1  0
  1 47  1  0
  1 48  1  0
  1 49  1  0
  2 50  1  0
  2 51  1  0
  3 52  1  0
  3 53  1  0
  4 54  1  6
  6 55  1  0
  6 56  1  0
  7 57  1  0
  7 58  1  0
 11 59  1  1
 14 60  1  0
 15 61  1  0
 15 62  1  0
 15 63  1  0
 16 64  1  0
 16 65  1  0
 18 66  1  0
 19 67  1  0
 22 68  1  0
 23 69  1  0
 24 70  1  0
 25 71  1  0
 26 72  1  0
 29 73  1  1
 30 74  1  0
 34 75  1  0
 34 76  1  0
 35 77  1  0
 35 78  1  0
 36 79  1  0
 36 80  1  0
 37 81  1  0
 37 82  1  0
 38 83  1  0
 38 84  1  0
 39 85  1  0
 39 86  1  0
 41 87  1  0
 42 88  1  0
 44 89  1  0
 45 90  1  0
M  END
>  <Ligand ID>  (1) 
LIG0004078

>  <Ligand>  (1) 
CHEMBL450236

>  <SMILES>  (1) 
CCC[C@@H]1N(CCN(C1=O)[C@H](C(=O)NC)Cc1ccc2c(c1)cccc2)C(=O)[C@H](NC(=O)C1(N)CCCC1)Cc1ccc(cc1)F

>  <CID>  (1) 
25129108.0

>  <ChEMBL ID>  (1) 
nan

>  <InChiKey>  (1) 
WOWDZBDFXRWMIV-AYQJTBPPSA-N

>  <InChi>  (1) 
InChI=1S/C36H44FN5O4/c1-3-8-30-34(45)42(31(32(43)39-2)23-25-11-14-26-9-4-5-10-27(26)21-25)20-19-41(30)33(44)29(22-24-12-15-28(37)16-13-24)40-35(46)36(38)17-6-7-18-36/h4-5,9-16,21,29-31H,3,6-8,17-20,22-23,38H2,1-2H3,(H,39,43)(H,40,46)/t29-,30+,31+/m1/s1

>  <IUPAC Name>  (1) 
1-amino-N-[(2R)-3-(4-fluorophenyl)-1-[(2S)-4-[(2S)-1-(methylamino)-3-naphthalen-2-yl-1-oxopropan-2-yl]-3-oxo-2-propylpiperazin-1-yl]-1-oxopropan-2-yl]cyclopentane-1-carboxamide

$$$$
