
     RDKit          3D

152156  0  0  0  0  0  0  0  0999 V2000
   10.2748   -0.8924   -0.0709 C   0  0  0  0  0  0  0  0  0  0  0  0
    9.9544   -1.9574    0.9204 C   0  0  0  0  0  0  0  0  0  0  0  0
    8.8875   -2.9174    0.4672 C   0  0  0  0  0  0  0  0  0  0  0  0
    7.5802   -2.2295    0.1765 C   0  0  0  0  0  0  0  0  0  0  0  0
    6.5692   -3.2465   -0.2367 C   0  0  1  0  0  0  0  0  0  0  0  0
    5.2675   -2.5361   -0.5296 C   0  0  0  0  0  0  0  0  0  0  0  0
    4.7574   -2.7895   -1.6360 O   0  0  0  0  0  0  0  0  0  0  0  0
    4.7776   -1.6835    0.4553 N   0  0  0  0  0  0  0  0  0  0  0  0
    3.5449   -0.9041    0.3823 C   0  0  1  0  0  0  0  0  0  0  0  0
    2.6869   -1.2248    1.5197 C   0  0  0  0  0  0  0  0  0  0  0  0
    2.5195   -2.7049    1.5990 C   0  0  0  0  0  0  0  0  0  0  0  0
    3.1595   -3.5247    0.9273 O   0  0  0  0  0  0  0  0  0  0  0  0
    1.5679   -3.3309    2.4997 N   0  0  0  0  0  0  0  0  0  0  0  0
    1.5238   -4.7804    2.5269 C   0  0  0  0  0  0  0  0  0  0  0  0
    0.4808   -5.2226    3.5011 C   0  0  0  0  0  0  0  0  0  0  0  0
   -0.9391   -5.1689    3.0895 C   0  0  0  0  0  0  0  0  0  0  0  0
   -1.4970   -3.9463    2.5005 C   0  0  0  0  0  0  0  0  0  0  0  0
   -2.9697   -3.9911    2.1815 C   0  0  2  0  0  0  0  0  0  0  0  0
   -3.3892   -2.8264    1.4104 N   0  0  0  0  0  0  0  0  0  0  0  0
   -4.3718   -2.9459    0.3433 C   0  0  0  0  0  0  0  0  0  0  0  0
   -4.8173   -4.1074    0.2562 O   0  0  0  0  0  0  0  0  0  0  0  0
   -4.7954   -1.8629   -0.5209 C   0  0  1  0  0  0  0  0  0  0  0  0
   -4.2846   -0.5749   -0.1394 N   0  0  0  0  0  0  0  0  0  0  0  0
   -4.1475    0.5998   -0.9023 C   0  0  0  0  0  0  0  0  0  0  0  0
   -4.4151    0.5977   -2.0836 O   0  0  0  0  0  0  0  0  0  0  0  0
   -3.6603    1.8406   -0.2542 C   0  0  1  0  0  0  0  0  0  0  0  0
   -3.0628    2.7838   -1.2207 N   0  0  0  0  0  0  0  0  0  0  0  0
   -1.8607    3.3747   -0.8109 C   0  0  0  0  0  0  0  0  0  0  0  0
   -1.4423    3.0907    0.3277 O   0  0  0  0  0  0  0  0  0  0  0  0
   -0.9939    4.3299   -1.5904 C   0  0  2  0  0  0  0  0  0  0  0  0
    0.0561    4.6061   -0.5863 N   0  0  0  0  0  0  0  0  0  0  0  0
    1.2506    3.7942   -0.5501 C   0  0  0  0  0  0  0  0  0  0  0  0
    1.3389    2.9736   -1.4627 O   0  0  0  0  0  0  0  0  0  0  0  0
    2.2722    3.9747    0.5371 C   0  0  1  0  0  0  0  0  0  0  0  0
    3.2768    2.9661    0.3032 N   0  0  0  0  0  0  0  0  0  0  0  0
    3.0028    1.5566    0.3677 C   0  0  0  0  0  0  0  0  0  0  0  0
    1.7983    1.2994    0.5783 O   0  0  0  0  0  0  0  0  0  0  0  0
    4.0188    0.5178    0.2084 C   0  0  0  0  0  0  0  0  0  0  0  0
    4.5656    0.5728   -1.2214 C   0  0  0  0  0  0  0  0  0  0  0  0
    5.0953    1.8564   -1.6646 C   0  0  0  0  0  0  0  0  0  0  0  0
    4.4601    2.6641   -2.4141 O   0  0  0  0  0  0  0  0  0  0  0  0
    6.3953    2.1802   -1.2111 O   0  0  0  0  0  0  0  0  0  0  0  0
    2.7908    5.3396    0.6914 C   0  0  0  0  0  0  0  0  0  0  0  0
    3.4331    5.7924   -0.5690 C   0  0  0  0  0  0  0  0  0  0  0  0
    4.7138    5.6679   -1.0279 C   0  0  0  0  0  0  0  0  0  0  0  0
    4.7562    6.2478   -2.2521 N   0  0  0  0  0  0  0  0  0  0  0  0
    3.5377    6.7206   -2.5488 C   0  0  0  0  0  0  0  0  0  0  0  0
    2.7151    6.4490   -1.5259 N   0  0  0  0  0  0  0  0  0  0  0  0
   -1.7296    5.5174   -2.0536 C   0  0  0  0  0  0  0  0  0  0  0  0
   -2.3396    6.3654   -1.0300 C   0  0  0  0  0  0  0  0  0  0  0  0
   -1.6301    7.4422   -0.4955 C   0  0  0  0  0  0  0  0  0  0  0  0
   -2.1598    8.2730    0.4667 C   0  0  0  0  0  0  0  0  0  0  0  0
   -3.4596    8.0194    0.9199 C   0  0  0  0  0  0  0  0  0  0  0  0
   -4.1942    6.9515    0.4068 C   0  0  0  0  0  0  0  0  0  0  0  0
   -3.6223    6.1354   -0.5652 C   0  0  0  0  0  0  0  0  0  0  0  0
   -4.9444    2.5579    0.2094 C   0  0  0  0  0  0  0  0  0  0  0  0
   -5.7412    1.7350    1.1766 C   0  0  0  0  0  0  0  0  0  0  0  0
   -6.9792    2.5647    1.5554 C   0  0  0  0  0  0  0  0  0  0  0  0
   -6.4795    3.8199    2.1536 N   0  0  0  0  0  0  0  0  0  0  0  0
   -7.1561    4.3133    3.1550 C   0  0  0  0  0  0  0  0  0  0  0  0
   -6.7609    5.5185    3.7999 N   0  0  0  0  0  0  0  0  0  0  0  0
   -8.3332    3.6558    3.6557 N   0  0  0  0  0  0  0  0  0  0  0  0
   -4.5763   -2.1499   -2.0263 C   0  0  0  0  0  0  0  0  0  0  0  0
   -5.2985   -3.3661   -2.4765 C   0  0  0  0  0  0  0  0  0  0  0  0
   -6.6545   -3.3283   -2.8470 C   0  0  0  0  0  0  0  0  0  0  0  0
   -7.0886   -4.5567   -3.1388 N   0  0  0  0  0  0  0  0  0  0  0  0
   -6.0606   -5.4176   -2.9752 C   0  0  0  0  0  0  0  0  0  0  0  0
   -4.9472   -4.6714   -2.5630 C   0  0  0  0  0  0  0  0  0  0  0  0
   -3.7620   -5.3397   -2.3547 C   0  0  0  0  0  0  0  0  0  0  0  0
   -3.7042   -6.6976   -2.5498 C   0  0  0  0  0  0  0  0  0  0  0  0
   -4.8221   -7.4193   -2.9558 C   0  0  0  0  0  0  0  0  0  0  0  0
   -6.0270   -6.7624   -3.1730 C   0  0  0  0  0  0  0  0  0  0  0  0
   -3.8070   -4.0655    3.4411 C   0  0  0  0  0  0  0  0  0  0  0  0
   -3.7223   -4.9648    4.2777 O   0  0  0  0  0  0  0  0  0  0  0  0
   -4.7775   -3.0249    3.7059 N   0  0  0  0  0  0  0  0  0  0  0  0
    6.9075   -4.0056   -1.4054 N   0  0  0  0  0  0  0  0  0  0  0  0
    6.9716   -5.4052   -1.4952 C   0  0  0  0  0  0  0  0  0  0  0  0
    6.7180   -6.1210   -0.4901 O   0  0  0  0  0  0  0  0  0  0  0  0
    7.3365   -6.0844   -2.7610 C   0  0  0  0  0  0  0  0  0  0  0  0
   11.0010   -1.2173   -0.8299 H   0  0  0  0  0  0  0  0  0  0  0  0
    9.3830   -0.3957   -0.4969 H   0  0  0  0  0  0  0  0  0  0  0  0
   10.7983   -0.0721    0.5050 H   0  0  0  0  0  0  0  0  0  0  0  0
    9.6999   -1.4771    1.8812 H   0  0  0  0  0  0  0  0  0  0  0  0
   10.9055   -2.5262    1.1318 H   0  0  0  0  0  0  0  0  0  0  0  0
    8.7013   -3.6336    1.3019 H   0  0  0  0  0  0  0  0  0  0  0  0
    9.2693   -3.5412   -0.3702 H   0  0  0  0  0  0  0  0  0  0  0  0
    7.2924   -1.6911    1.1015 H   0  0  0  0  0  0  0  0  0  0  0  0
    7.6517   -1.4663   -0.6275 H   0  0  0  0  0  0  0  0  0  0  0  0
    6.3868   -3.9709    0.6167 H   0  0  0  0  0  0  0  0  0  0  0  0
    5.3126   -1.5557    1.3673 H   0  0  0  0  0  0  0  0  0  0  0  0
    3.0633   -1.2187   -0.5811 H   0  0  0  0  0  0  0  0  0  0  0  0
    1.6645   -0.8097    1.5314 H   0  0  0  0  0  0  0  0  0  0  0  0
    3.2508   -0.9632    2.4601 H   0  0  0  0  0  0  0  0  0  0  0  0
    1.0152   -2.6777    3.0359 H   0  0  0  0  0  0  0  0  0  0  0  0
    1.3700   -5.1893    1.5101 H   0  0  0  0  0  0  0  0  0  0  0  0
    2.4871   -5.2167    2.8657 H   0  0  0  0  0  0  0  0  0  0  0  0
    0.6630   -6.3083    3.8134 H   0  0  0  0  0  0  0  0  0  0  0  0
    0.5729   -4.6893    4.4832 H   0  0  0  0  0  0  0  0  0  0  0  0
   -1.0891   -6.0720    2.4062 H   0  0  0  0  0  0  0  0  0  0  0  0
   -1.5273   -5.3902    4.0429 H   0  0  0  0  0  0  0  0  0  0  0  0
   -1.3099   -3.0468    3.1156 H   0  0  0  0  0  0  0  0  0  0  0  0
   -0.9426   -3.7561    1.5403 H   0  0  0  0  0  0  0  0  0  0  0  0
   -3.2500   -4.8840    1.6211 H   0  0  0  0  0  0  0  0  0  0  0  0
   -3.0222   -1.9100    1.5669 H   0  0  0  0  0  0  0  0  0  0  0  0
   -5.9200   -1.7548   -0.5095 H   0  0  0  0  0  0  0  0  0  0  0  0
   -3.9876   -0.4700    0.8509 H   0  0  0  0  0  0  0  0  0  0  0  0
   -3.0345    1.6545    0.6138 H   0  0  0  0  0  0  0  0  0  0  0  0
   -3.4438    3.0231   -2.1171 H   0  0  0  0  0  0  0  0  0  0  0  0
   -0.5868    3.7049   -2.4054 H   0  0  0  0  0  0  0  0  0  0  0  0
    0.0144    5.3412    0.1055 H   0  0  0  0  0  0  0  0  0  0  0  0
    1.6696    3.6956    1.4756 H   0  0  0  0  0  0  0  0  0  0  0  0
    4.2323    3.2258    0.1161 H   0  0  0  0  0  0  0  0  0  0  0  0
    4.8759    0.7521    0.8752 H   0  0  0  0  0  0  0  0  0  0  0  0
    5.3986   -0.1746   -1.3324 H   0  0  0  0  0  0  0  0  0  0  0  0
    3.7851    0.2453   -1.9544 H   0  0  0  0  0  0  0  0  0  0  0  0
    6.7656    3.1212   -1.3799 H   0  0  0  0  0  0  0  0  0  0  0  0
    1.9897    6.0285    1.0244 H   0  0  0  0  0  0  0  0  0  0  0  0
    3.5698    5.3386    1.4990 H   0  0  0  0  0  0  0  0  0  0  0  0
    5.4985    5.1854   -0.4769 H   0  0  0  0  0  0  0  0  0  0  0  0
    3.1954    7.2492   -3.4417 H   0  0  0  0  0  0  0  0  0  0  0  0
    1.6974    6.7017   -1.4734 H   0  0  0  0  0  0  0  0  0  0  0  0
   -1.0992    6.1139   -2.7744 H   0  0  0  0  0  0  0  0  0  0  0  0
   -2.5853    5.1655   -2.7073 H   0  0  0  0  0  0  0  0  0  0  0  0
   -0.6335    7.6214   -0.8621 H   0  0  0  0  0  0  0  0  0  0  0  0
   -1.6211    9.1164    0.8916 H   0  0  0  0  0  0  0  0  0  0  0  0
   -3.9193    8.6417    1.6732 H   0  0  0  0  0  0  0  0  0  0  0  0
   -5.1851    6.7890    0.7793 H   0  0  0  0  0  0  0  0  0  0  0  0
   -4.2285    5.3149   -0.9425 H   0  0  0  0  0  0  0  0  0  0  0  0
   -4.6876    3.5248    0.6814 H   0  0  0  0  0  0  0  0  0  0  0  0
   -5.5645    2.7171   -0.6927 H   0  0  0  0  0  0  0  0  0  0  0  0
   -6.0561    0.7859    0.7429 H   0  0  0  0  0  0  0  0  0  0  0  0
   -5.1412    1.6258    2.1206 H   0  0  0  0  0  0  0  0  0  0  0  0
   -7.5784    2.0281    2.3063 H   0  0  0  0  0  0  0  0  0  0  0  0
   -7.5530    2.8281    0.6449 H   0  0  0  0  0  0  0  0  0  0  0  0
   -7.4392    6.3224    3.8448 H   0  0  0  0  0  0  0  0  0  0  0  0
   -5.8166    5.6336    4.2296 H   0  0  0  0  0  0  0  0  0  0  0  0
   -9.2440    3.6858    3.1276 H   0  0  0  0  0  0  0  0  0  0  0  0
   -8.2737    3.1391    4.5682 H   0  0  0  0  0  0  0  0  0  0  0  0
   -3.4939   -2.2942   -2.1561 H   0  0  0  0  0  0  0  0  0  0  0  0
   -5.0043   -1.3362   -2.6460 H   0  0  0  0  0  0  0  0  0  0  0  0
   -7.2821   -2.4378   -2.8970 H   0  0  0  0  0  0  0  0  0  0  0  0
   -8.0782   -4.7830   -3.4447 H   0  0  0  0  0  0  0  0  0  0  0  0
   -2.9114   -4.7361   -2.0413 H   0  0  0  0  0  0  0  0  0  0  0  0
   -2.7854   -7.2385   -2.3945 H   0  0  0  0  0  0  0  0  0  0  0  0
   -4.8160   -8.4776   -3.1208 H   0  0  0  0  0  0  0  0  0  0  0  0
   -6.9003   -7.3069   -3.4883 H   0  0  0  0  0  0  0  0  0  0  0  0
   -5.7968   -3.2742    3.6584 H   0  0  0  0  0  0  0  0  0  0  0  0
   -4.4199   -2.0764    3.9340 H   0  0  0  0  0  0  0  0  0  0  0  0
    7.1266   -3.4531   -2.2820 H   0  0  0  0  0  0  0  0  0  0  0  0
    8.2373   -6.7276   -2.5785 H   0  0  0  0  0  0  0  0  0  0  0  0
    7.6448   -5.3212   -3.4940 H   0  0  0  0  0  0  0  0  0  0  0  0
    6.5001   -6.6962   -3.1475 H   0  0  0  0  0  0  0  0  0  0  0  0
  1  2  1  0
  2  3  1  0
  3  4  1  0
  4  5  1  0
  5  6  1  0
  6  7  2  0
  6  8  1  0
  8  9  1  0
  9 10  1  0
 10 11  1  0
 11 12  2  0
 11 13  1  0
 13 14  1  0
 14 15  1  0
 15 16  1  0
 16 17  1  0
 17 18  1  0
 18 19  1  0
 19 20  1  0
 20 21  2  0
 20 22  1  0
 22 23  1  0
 23 24  1  0
 24 25  2  0
 24 26  1  0
 26 27  1  0
 27 28  1  0
 28 29  2  0
 28 30  1  0
 30 31  1  0
 31 32  1  0
 32 33  2  0
 32 34  1  0
 34 35  1  0
 35 36  1  0
 36 37  2  0
 36 38  1  0
 38 39  1  0
 39 40  1  0
 40 41  2  0
 40 42  1  0
 34 43  1  0
 43 44  1  0
 44 45  2  0
 45 46  1  0
 46 47  2  0
 47 48  1  0
 30 49  1  0
 49 50  1  0
 50 51  2  0
 51 52  1  0
 52 53  2  0
 53 54  1  0
 54 55  2  0
 26 56  1  0
 56 57  1  0
 57 58  1  0
 58 59  1  0
 59 60  2  3
 60 61  1  0
 60 62  1  0
 22 63  1  0
 63 64  1  0
 64 65  2  0
 65 66  1  0
 66 67  1  0
 67 68  2  0
 68 69  1  0
 69 70  2  0
 70 71  1  0
 71 72  2  0
 18 73  1  0
 73 74  2  0
 73 75  1  0
  5 76  1  0
 76 77  1  0
 77 78  2  0
 77 79  1  0
 38  9  1  0
 48 44  1  0
 55 50  1  0
 68 64  1  0
 72 67  1  0
  1 80  1  0
  1 81  1  0
  1 82  1  0
  2 83  1  0
  2 84  1  0
  3 85  1  0
  3 86  1  0
  4 87  1  0
  4 88  1  0
  5 89  1  1
  8 90  1  0
  9 91  1  6
 10 92  1  0
 10 93  1  0
 13 94  1  0
 14 95  1  0
 14 96  1  0
 15 97  1  0
 15 98  1  0
 16 99  1  0
 16100  1  0
 17101  1  0
 17102  1  0
 18103  1  6
 19104  1  0
 22105  1  6
 23106  1  0
 26107  1  1
 27108  1  0
 30109  1  6
 31110  1  0
 34111  1  1
 35112  1  0
 38113  1  0
 39114  1  0
 39115  1  0
 42116  1  0
 43117  1  0
 43118  1  0
 45119  1  0
 47120  1  0
 48121  1  0
 49122  1  0
 49123  1  0
 51124  1  0
 52125  1  0
 53126  1  0
 54127  1  0
 55128  1  0
 56129  1  0
 56130  1  0
 57131  1  0
 57132  1  0
 58133  1  0
 58134  1  0
 61135  1  0
 61136  1  0
 62137  1  0
 62138  1  0
 63139  1  0
 63140  1  0
 65141  1  0
 66142  1  0
 69143  1  0
 70144  1  0
 71145  1  0
 72146  1  0
 75147  1  0
 75148  1  0
 76149  1  0
 79150  1  0
 79151  1  0
 79152  1  0
M  END
>  <Ligand ID>  (1) 
LIG0001772

>  <Ligand>  (1) 
CHEMBL224277

>  <SMILES>  (1) 
CCCC[C@@H](C(=O)N[C@H]1CC(=O)NCCCC[C@H](NC(=O)[C@@H](NC(=O)[C@@H](NC(=O)[C@H](NC(=O)[C@@H](NC(=O)C1CC(=O)O)Cc1cnc[nH]1)Cc1ccccc1)CCCN=C(N)N)Cc1c[nH]c2c1cccc2)C(=O)N)NC(=O)C

>  <CID>  (1) 
44421514.0

>  <ChEMBL ID>  (1) 
nan

>  <InChiKey>  (1) 
BOKVGYPHNIKRLQ-DEHKQVQUSA-N

>  <InChi>  (1) 
InChI=1S/C53H73N15O11/c1-3-4-16-38(62-30(2)69)48(75)65-40-26-44(70)58-20-11-10-18-37(46(54)73)63-51(78)42(23-32-27-60-36-17-9-8-15-34(32)36)68-49(76)39(19-12-21-59-53(55)56)64-50(77)41(22-31-13-6-5-7-14-31)67-52(79)43(24-33-28-57-29-61-33)66-47(74)35(40)25-45(71)72/h5-9,13-15,17,27-29,35,37-43,60H,3-4,10-12,16,18-26H2,1-2H3,(H2,54,73)(H,57,61)(H,58,70)(H,62,69)(H,63,78)(H,64,77)(H,65,75)(H,66,74)(H,67,79)(H,68,76)(H,71,72)(H4,55,56,59)/t35?,37-,38-,39-,40-,41+,42-,43-/m0/s1

>  <IUPAC Name>  (1) 
2-[(3S,6S,9R,12S,16S,24S)-16-[[(2S)-2-acetamidohexanoyl]amino]-9-benzyl-24-carbamoyl-6-[3-(diaminomethylideneamino)propyl]-12-(1H-imidazol-5-ylmethyl)-3-(1H-indol-3-ylmethyl)-2,5,8,11,14,18-hexaoxo-1,4,7,10,13,19-hexazacyclotetracos-15-yl]acetic acid

$$$$
