
     RDKit          3D

 18 17  0  0  0  0  0  0  0  0999 V2000
    0.2458    1.2441    0.3985 C   0  0  0  0  0  0  0  0  0  0  0  0
   -0.0439   -0.2185    0.1705 C   0  0  0  0  0  0  0  0  0  0  0  0
   -1.2943   -0.4623   -0.5914 C   0  0  0  0  0  0  0  0  0  0  0  0
   -1.3330   -1.0465   -1.6626 O   0  0  0  0  0  0  0  0  0  0  0  0
   -2.5731    0.0359   -0.0128 C   0  0  0  0  0  0  0  0  0  0  0  0
    1.1387   -0.7329   -0.5982 C   0  0  0  0  0  0  0  0  0  0  0  0
    1.0300   -1.2250   -1.7075 O   0  0  0  0  0  0  0  0  0  0  0  0
    2.4667   -0.6010    0.0911 C   0  0  0  0  0  0  0  0  0  0  0  0
    0.8575    1.3124    1.3224 H   0  0  0  0  0  0  0  0  0  0  0  0
    0.8210    1.7241   -0.4143 H   0  0  0  0  0  0  0  0  0  0  0  0
   -0.6645    1.8399    0.5789 H   0  0  0  0  0  0  0  0  0  0  0  0
   -0.0650   -0.7880    1.1221 H   0  0  0  0  0  0  0  0  0  0  0  0
   -2.4134    0.7077    0.8422 H   0  0  0  0  0  0  0  0  0  0  0  0
   -3.1435    0.6568   -0.7568 H   0  0  0  0  0  0  0  0  0  0  0  0
   -3.2213   -0.7930    0.3599 H   0  0  0  0  0  0  0  0  0  0  0  0
    3.2903   -1.0189   -0.5181 H   0  0  0  0  0  0  0  0  0  0  0  0
    2.3323   -1.1159    1.0670 H   0  0  0  0  0  0  0  0  0  0  0  0
    2.5696    0.4812    0.3093 H   0  0  0  0  0  0  0  0  0  0  0  0
  1  2  1  0
  2  3  1  0
  3  4  2  0
  3  5  1  0
  2  6  1  0
  6  7  2  0
  6  8  1  0
  1  9  1  0
  1 10  1  0
  1 11  1  0
  2 12  1  0
  5 13  1  0
  5 14  1  0
  5 15  1  0
  8 16  1  0
  8 17  1  0
  8 18  1  0
M  END
>  <Ligand ID>  (1) 
LIG0004993

>  <Ligand>  (1) 
3-Methyl-2,4-pentanedione

>  <SMILES>  (1) 
CC(C(=O)C)C(=O)C

>  <CID>  (1) 
69949.0

>  <ChEMBL ID>  (1) 
nan

>  <InChiKey>  (1) 
GSOHKPVFCOWKPU-UHFFFAOYSA-N

>  <InChi>  (1) 
InChI=1S/C6H10O2/c1-4(5(2)7)6(3)8/h4H,1-3H3

>  <IUPAC Name>  (1) 
3-methylpentane-2,4-dione

$$$$
