
     RDKit          3D

 73 77  0  0  0  0  0  0  0  0999 V2000
   -8.3594    0.9000   -2.4962 C   0  0  0  0  0  0  0  0  0  0  0  0
   -6.9078    0.9894   -2.0401 C   0  0  2  0  0  0  0  0  0  0  0  0
   -6.3059   -0.3767   -2.1025 C   0  0  0  0  0  0  0  0  0  0  0  0
   -5.1773   -0.5290   -1.2797 N   0  0  0  0  0  0  0  0  0  0  0  0
   -5.4550   -0.2496    0.0842 C   0  0  0  0  0  0  0  0  0  0  0  0
   -6.5644    0.7359    0.3281 C   0  0  1  0  0  0  0  0  0  0  0  0
   -6.7736    1.6312   -0.7752 N   0  0  0  0  0  0  0  0  0  0  0  0
   -7.8323    0.0723    0.8159 C   0  0  0  0  0  0  0  0  0  0  0  0
   -3.9006   -0.2207   -1.7921 C   0  0  0  0  0  0  0  0  0  0  0  0
   -2.8103   -0.3888   -0.7598 C   0  0  0  0  0  0  0  0  0  0  0  0
   -2.2681   -1.6355   -0.5614 C   0  0  0  0  0  0  0  0  0  0  0  0
   -1.2688   -1.8349    0.3722 C   0  0  0  0  0  0  0  0  0  0  0  0
   -0.7831   -0.8036    1.1289 C   0  0  0  0  0  0  0  0  0  0  0  0
   -1.3476    0.4606    0.9117 C   0  0  0  0  0  0  0  0  0  0  0  0
   -2.3413    0.6523   -0.0174 C   0  0  0  0  0  0  0  0  0  0  0  0
    0.2618   -0.8818    2.1145 C   0  0  0  0  0  0  0  0  0  0  0  0
   -0.0751   -0.4805    3.4129 C   0  0  0  0  0  0  0  0  0  0  0  0
    0.8232   -0.5312    4.4541 C   0  0  0  0  0  0  0  0  0  0  0  0
    2.0889   -0.9974    4.1745 C   0  0  0  0  0  0  0  0  0  0  0  0
    2.4396   -1.3879    2.9390 N   0  0  0  0  0  0  0  0  0  0  0  0
    1.5354   -1.3311    1.9157 C   0  0  0  0  0  0  0  0  0  0  0  0
    2.0650   -1.7531    0.6147 C   0  0  0  0  0  0  0  0  0  0  0  0
    1.6835   -2.7671    0.0006 O   0  0  0  0  0  0  0  0  0  0  0  0
    3.0982   -0.9267    0.0209 N   0  0  0  0  0  0  0  0  0  0  0  0
    3.5066    0.2300    0.7530 C   0  0  0  0  0  0  0  0  0  0  0  0
    4.0043    1.3324   -0.1124 C   0  0  0  0  0  0  0  0  0  0  0  0
    4.5709    0.9772   -1.4313 C   0  0  0  0  0  0  0  0  0  0  0  0
    4.4466   -0.3966   -1.9465 C   0  0  0  0  0  0  0  0  0  0  0  0
    3.6250   -1.3666   -1.2312 C   0  0  0  0  0  0  0  0  0  0  0  0
    5.9466    1.4929   -1.5915 N   0  0  0  0  0  0  0  0  0  0  0  0
    7.0511    1.0078   -0.8599 C   0  0  0  0  0  0  0  0  0  0  0  0
    8.3139    1.6040   -1.0222 C   0  0  0  0  0  0  0  0  0  0  0  0
    9.4240    1.1572   -0.3531 C   0  0  0  0  0  0  0  0  0  0  0  0
    9.3641    0.0931    0.5197 C   0  0  0  0  0  0  0  0  0  0  0  0
    8.1432   -0.5064    0.6956 C   0  0  0  0  0  0  0  0  0  0  0  0
    7.0216   -0.0530    0.0182 C   0  0  0  0  0  0  0  0  0  0  0  0
   10.4610   -0.3340    1.1695 F   0  0  0  0  0  0  0  0  0  0  0  0
   -8.8906    0.1264   -1.9146 H   0  0  0  0  0  0  0  0  0  0  0  0
   -8.3262    0.6676   -3.5834 H   0  0  0  0  0  0  0  0  0  0  0  0
   -8.7799    1.9151   -2.3581 H   0  0  0  0  0  0  0  0  0  0  0  0
   -6.4009    1.6346   -2.7888 H   0  0  0  0  0  0  0  0  0  0  0  0
   -6.1545   -0.6968   -3.1647 H   0  0  0  0  0  0  0  0  0  0  0  0
   -7.1000   -1.0876   -1.7208 H   0  0  0  0  0  0  0  0  0  0  0  0
   -4.5577   -0.0234    0.7027 H   0  0  0  0  0  0  0  0  0  0  0  0
   -5.8298   -1.2256    0.5279 H   0  0  0  0  0  0  0  0  0  0  0  0
   -6.2355    1.3814    1.1949 H   0  0  0  0  0  0  0  0  0  0  0  0
   -7.4125    2.4051   -0.5835 H   0  0  0  0  0  0  0  0  0  0  0  0
   -7.8802    0.0531    1.9430 H   0  0  0  0  0  0  0  0  0  0  0  0
   -7.7423   -1.0225    0.5593 H   0  0  0  0  0  0  0  0  0  0  0  0
   -8.7531    0.5175    0.4405 H   0  0  0  0  0  0  0  0  0  0  0  0
   -3.5757   -0.8632   -2.6387 H   0  0  0  0  0  0  0  0  0  0  0  0
   -3.8182    0.8453   -2.1245 H   0  0  0  0  0  0  0  0  0  0  0  0
   -2.6120   -2.4770   -1.1294 H   0  0  0  0  0  0  0  0  0  0  0  0
   -0.8969   -2.8270    0.5019 H   0  0  0  0  0  0  0  0  0  0  0  0
   -1.0208    1.3215    1.4700 H   0  0  0  0  0  0  0  0  0  0  0  0
   -2.7472    1.6420   -0.1508 H   0  0  0  0  0  0  0  0  0  0  0  0
   -1.0675   -0.1111    3.6557 H   0  0  0  0  0  0  0  0  0  0  0  0
    0.5253   -0.2118    5.4471 H   0  0  0  0  0  0  0  0  0  0  0  0
    2.7844   -1.0333    5.0047 H   0  0  0  0  0  0  0  0  0  0  0  0
    2.6144    0.5919    1.3448 H   0  0  0  0  0  0  0  0  0  0  0  0
    4.2514   -0.0145    1.5761 H   0  0  0  0  0  0  0  0  0  0  0  0
    3.2064    2.1506   -0.2282 H   0  0  0  0  0  0  0  0  0  0  0  0
    4.8116    1.8847    0.4676 H   0  0  0  0  0  0  0  0  0  0  0  0
    3.9949    1.6364   -2.1845 H   0  0  0  0  0  0  0  0  0  0  0  0
    5.5237   -0.7804   -2.0660 H   0  0  0  0  0  0  0  0  0  0  0  0
    4.1141   -0.3217   -3.0503 H   0  0  0  0  0  0  0  0  0  0  0  0
    2.8187   -1.8043   -1.8923 H   0  0  0  0  0  0  0  0  0  0  0  0
    4.2948   -2.2795   -1.0247 H   0  0  0  0  0  0  0  0  0  0  0  0
    6.1512    2.2601   -2.2826 H   0  0  0  0  0  0  0  0  0  0  0  0
    8.4381    2.4435   -1.6872 H   0  0  0  0  0  0  0  0  0  0  0  0
   10.3699    1.6500   -0.5108 H   0  0  0  0  0  0  0  0  0  0  0  0
    8.0887   -1.3477    1.3833 H   0  0  0  0  0  0  0  0  0  0  0  0
    6.1101   -0.5833    0.2086 H   0  0  0  0  0  0  0  0  0  0  0  0
  1  2  1  0
  2  3  1  0
  3  4  1  0
  4  5  1  0
  5  6  1  0
  6  7  1  0
  6  8  1  0
  4  9  1  0
  9 10  1  0
 10 11  2  0
 11 12  1  0
 12 13  2  0
 13 14  1  0
 14 15  2  0
 13 16  1  0
 16 17  2  0
 17 18  1  0
 18 19  2  0
 19 20  1  0
 20 21  2  0
 21 22  1  0
 22 23  2  0
 22 24  1  0
 24 25  1  0
 25 26  1  0
 26 27  1  0
 27 28  1  0
 28 29  1  0
 27 30  1  0
 30 31  1  0
 31 32  2  0
 32 33  1  0
 33 34  2  0
 34 35  1  0
 35 36  2  0
 34 37  1  0
  7  2  1  0
 15 10  1  0
 21 16  1  0
 29 24  1  0
 36 31  1  0
  1 38  1  0
  1 39  1  0
  1 40  1  0
  2 41  1  6
  3 42  1  0
  3 43  1  0
  5 44  1  0
  5 45  1  0
  6 46  1  1
  7 47  1  0
  8 48  1  0
  8 49  1  0
  8 50  1  0
  9 51  1  0
  9 52  1  0
 11 53  1  0
 12 54  1  0
 14 55  1  0
 15 56  1  0
 17 57  1  0
 18 58  1  0
 19 59  1  0
 25 60  1  0
 25 61  1  0
 26 62  1  0
 26 63  1  0
 27 64  1  0
 28 65  1  0
 28 66  1  0
 29 67  1  0
 29 68  1  0
 30 69  1  0
 32 70  1  0
 33 71  1  0
 35 72  1  0
 36 73  1  0
M  END
>  <Ligand ID>  (1) 
LIG0005257

>  <Ligand>  (1) 
CHEMBL473921

>  <SMILES>  (1) 
C[C@@H]1CN(C[C@@H](N1)C)Cc1ccc(cc1)c1cccnc1C(=O)N1CCC(CC1)Nc1ccc(cc1)F

>  <CID>  (1) 
16040587.0

>  <ChEMBL ID>  (1) 
nan

>  <InChiKey>  (1) 
CYEIOVYZTVJICS-SZPZYZBQSA-N

>  <InChi>  (1) 
InChI=1S/C30H36FN5O/c1-21-18-35(19-22(2)33-21)20-23-5-7-24(8-6-23)28-4-3-15-32-29(28)30(37)36-16-13-27(14-17-36)34-26-11-9-25(31)10-12-26/h3-12,15,21-22,27,33-34H,13-14,16-20H2,1-2H3/t21-,22+

>  <IUPAC Name>  (1) 
[3-[4-[[(3S,5R)-3,5-dimethylpiperazin-1-yl]methyl]phenyl]pyridin-2-yl]-[4-(4-fluoroanilino)piperidin-1-yl]methanone

$$$$
