
     RDKit          3D

 36 36  0  0  0  0  0  0  0  0999 V2000
    6.4615    0.4716    0.7755 C   0  0  0  0  0  0  0  0  0  0  0  0
    5.0966    0.9619    0.2778 C   0  0  0  0  0  0  0  0  0  0  0  0
    4.1013   -0.0552    0.7210 C   0  0  0  0  0  0  0  0  0  0  0  0
    2.6965    0.2549    0.3229 C   0  0  0  0  0  0  0  0  0  0  0  0
    2.3745    1.2766   -0.3258 O   0  0  0  0  0  0  0  0  0  0  0  0
    1.6983   -0.6632    0.7075 N   0  0  0  0  0  0  0  0  0  0  0  0
    0.3322   -0.4544    0.3747 C   0  0  0  0  0  0  0  0  0  0  0  0
   -0.0620    0.5972   -0.3027 N   0  0  0  0  0  0  0  0  0  0  0  0
   -1.4529    0.8020   -0.6370 C   0  0  0  0  0  0  0  0  0  0  0  0
   -2.0078   -0.2149   -1.5980 C   0  0  0  0  0  0  0  0  0  0  0  0
   -3.4658    0.0382   -1.9196 C   0  0  0  0  0  0  0  0  0  0  0  0
   -4.3089   -0.0146   -0.6865 C   0  0  0  0  0  0  0  0  0  0  0  0
   -4.9473   -1.1003   -0.1212 C   0  0  0  0  0  0  0  0  0  0  0  0
   -5.6054   -0.7218    0.9891 N   0  0  0  0  0  0  0  0  0  0  0  0
   -5.3720    0.6079    1.1108 C   0  0  0  0  0  0  0  0  0  0  0  0
   -4.5939    1.0430    0.1089 N   0  0  0  0  0  0  0  0  0  0  0  0
   -0.6466   -1.4072    0.7826 N   0  0  0  0  0  0  0  0  0  0  0  0
    6.5067    0.6252    1.8845 H   0  0  0  0  0  0  0  0  0  0  0  0
    6.6234   -0.6038    0.5198 H   0  0  0  0  0  0  0  0  0  0  0  0
    7.2798    1.0411    0.2933 H   0  0  0  0  0  0  0  0  0  0  0  0
    5.1341    1.0697   -0.8141 H   0  0  0  0  0  0  0  0  0  0  0  0
    4.9427    1.9401    0.7916 H   0  0  0  0  0  0  0  0  0  0  0  0
    4.3680   -1.0286    0.2313 H   0  0  0  0  0  0  0  0  0  0  0  0
    4.1015   -0.1302    1.8170 H   0  0  0  0  0  0  0  0  0  0  0  0
    1.9535   -1.5218    1.2502 H   0  0  0  0  0  0  0  0  0  0  0  0
   -1.4869    1.7871   -1.1606 H   0  0  0  0  0  0  0  0  0  0  0  0
   -2.0255    0.8878    0.2878 H   0  0  0  0  0  0  0  0  0  0  0  0
   -1.4720   -0.1335   -2.5597 H   0  0  0  0  0  0  0  0  0  0  0  0
   -1.9016   -1.2319   -1.2324 H   0  0  0  0  0  0  0  0  0  0  0  0
   -3.7706   -0.7495   -2.6422 H   0  0  0  0  0  0  0  0  0  0  0  0
   -3.6078    1.0097   -2.4518 H   0  0  0  0  0  0  0  0  0  0  0  0
   -4.9387   -2.1002   -0.4861 H   0  0  0  0  0  0  0  0  0  0  0  0
   -5.7632    1.2426    1.9151 H   0  0  0  0  0  0  0  0  0  0  0  0
   -4.2313    2.0114   -0.0884 H   0  0  0  0  0  0  0  0  0  0  0  0
   -0.4861   -2.4086    0.5863 H   0  0  0  0  0  0  0  0  0  0  0  0
   -1.5244   -1.0985    1.2784 H   0  0  0  0  0  0  0  0  0  0  0  0
  1  2  1  0
  2  3  1  0
  3  4  1  0
  4  5  2  0
  4  6  1  0
  6  7  1  0
  7  8  2  3
  8  9  1  0
  9 10  1  0
 10 11  1  0
 11 12  1  0
 12 13  2  0
 13 14  1  0
 14 15  2  0
 15 16  1  0
  7 17  1  0
 16 12  1  0
  1 18  1  0
  1 19  1  0
  1 20  1  0
  2 21  1  0
  2 22  1  0
  3 23  1  0
  3 24  1  0
  6 25  1  0
  9 26  1  0
  9 27  1  0
 10 28  1  0
 10 29  1  0
 11 30  1  0
 11 31  1  0
 13 32  1  0
 15 33  1  0
 16 34  1  0
 17 35  1  0
 17 36  1  0
M  END
>  <Ligand ID>  (1) 
LIG0000968

>  <Ligand>  (1) 
CHEMBL465170

>  <SMILES>  (1) 
CCCC(=O)NC(=NCCCc1cnc[nH]1)N

>  <CID>  (1) 
42625386.0

>  <ChEMBL ID>  (1) 
nan

>  <InChiKey>  (1) 
XVZKDKXYAADAMU-UHFFFAOYSA-N

>  <InChi>  (1) 
InChI=1S/C11H19N5O/c1-2-4-10(17)16-11(12)14-6-3-5-9-7-13-8-15-9/h7-8H,2-6H2,1H3,(H,13,15)(H3,12,14,16,17)

>  <IUPAC Name>  (1) 
N-[N'-[3-(1H-imidazol-5-yl)propyl]carbamimidoyl]butanamide

$$$$
