
     RDKit          3D

 30 31  0  0  0  0  0  0  0  0999 V2000
    5.2420    0.3039   -1.0730 C   0  0  0  0  0  0  0  0  0  0  0  0
    4.0044    0.7613   -0.9387 C   0  0  0  0  0  0  0  0  0  0  0  0
    3.4239    0.9401    0.4216 C   0  0  0  0  0  0  0  0  0  0  0  0
    2.2305    0.0899    0.5164 N   0  0  0  0  0  0  0  0  0  0  0  0
    2.1948   -1.1638    0.9280 N   0  0  0  0  0  0  0  0  0  0  0  0
    0.9321   -1.5783    0.8669 C   0  0  0  0  0  0  0  0  0  0  0  0
    0.1966   -0.5086    0.3949 C   0  0  0  0  0  0  0  0  0  0  0  0
    1.0195    0.5118    0.1851 N   0  0  0  0  0  0  0  0  0  0  0  0
   -1.2683   -0.5581    0.1804 C   0  0  0  0  0  0  0  0  0  0  0  0
   -1.6834   -0.2790   -1.2275 C   0  0  0  0  0  0  0  0  0  0  0  0
   -3.1680   -0.5704   -1.3235 C   0  0  0  0  0  0  0  0  0  0  0  0
   -3.8889    0.1529   -0.2336 C   0  0  0  0  0  0  0  0  0  0  0  0
   -3.0648    1.1012    0.4917 N   0  0  0  0  0  0  0  0  0  0  0  0
   -1.9005    0.4825    1.0721 C   0  0  0  0  0  0  0  0  0  0  0  0
    5.8284    0.0609   -0.1839 H   0  0  0  0  0  0  0  0  0  0  0  0
    5.6741    0.1701   -2.0586 H   0  0  0  0  0  0  0  0  0  0  0  0
    3.4217    1.0027   -1.8188 H   0  0  0  0  0  0  0  0  0  0  0  0
    4.1445    0.6063    1.1820 H   0  0  0  0  0  0  0  0  0  0  0  0
    3.1377    2.0063    0.5969 H   0  0  0  0  0  0  0  0  0  0  0  0
    0.5645   -2.5756    1.1408 H   0  0  0  0  0  0  0  0  0  0  0  0
   -1.6482   -1.5648    0.4553 H   0  0  0  0  0  0  0  0  0  0  0  0
   -1.4190    0.7526   -1.5523 H   0  0  0  0  0  0  0  0  0  0  0  0
   -1.1813   -0.9409   -1.9696 H   0  0  0  0  0  0  0  0  0  0  0  0
   -3.2566   -1.6837   -1.2017 H   0  0  0  0  0  0  0  0  0  0  0  0
   -3.5779   -0.3707   -2.3331 H   0  0  0  0  0  0  0  0  0  0  0  0
   -4.7023    0.7472   -0.6983 H   0  0  0  0  0  0  0  0  0  0  0  0
   -4.2862   -0.5747    0.5172 H   0  0  0  0  0  0  0  0  0  0  0  0
   -3.6720    1.4218    1.3023 H   0  0  0  0  0  0  0  0  0  0  0  0
   -1.1777    1.2824    1.3228 H   0  0  0  0  0  0  0  0  0  0  0  0
   -2.1196   -0.0253    2.0570 H   0  0  0  0  0  0  0  0  0  0  0  0
  1  2  2  0
  2  3  1  0
  3  4  1  0
  4  5  1  0
  5  6  2  0
  6  7  1  0
  7  8  2  0
  7  9  1  0
  9 10  1  0
 10 11  1  0
 11 12  1  0
 12 13  1  0
 13 14  1  0
  8  4  1  0
 14  9  1  0
  1 15  1  0
  1 16  1  0
  2 17  1  0
  3 18  1  0
  3 19  1  0
  6 20  1  0
  9 21  1  0
 10 22  1  0
 10 23  1  0
 11 24  1  0
 11 25  1  0
 12 26  1  0
 12 27  1  0
 13 28  1  0
 14 29  1  0
 14 30  1  0
M  END
>  <Ligand ID>  (1) 
LIG0005644

>  <Ligand>  (1) 
CHEMBL131777

>  <SMILES>  (1) 
C=CCn1ncc(n1)C1CCCNC1

>  <CID>  (1) 
10104047.0

>  <ChEMBL ID>  (1) 
nan

>  <InChiKey>  (1) 
WUDWCZHMLGCBCZ-UHFFFAOYSA-N

>  <InChi>  (1) 
InChI=1S/C10H16N4/c1-2-6-14-12-8-10(13-14)9-4-3-5-11-7-9/h2,8-9,11H,1,3-7H2

>  <IUPAC Name>  (1) 
3-(2-prop-2-enyltriazol-4-yl)piperidine

$$$$
