
     RDKit          3D

 76 77  0  0  0  0  0  0  0  0999 V2000
    9.1301    0.3998   -4.2123 O   0  0  0  0  0  0  0  0  0  0  0  0
    8.7033    1.3130   -3.2764 C   0  0  0  0  0  0  0  0  0  0  0  0
    8.5731    0.6042   -1.9621 C   0  0  0  0  0  0  0  0  0  0  0  0
    7.3485    0.2427   -1.4407 C   0  0  0  0  0  0  0  0  0  0  0  0
    7.2752   -0.4161   -0.2138 C   0  0  0  0  0  0  0  0  0  0  0  0
    8.4240   -0.7145    0.4936 C   0  0  0  0  0  0  0  0  0  0  0  0
    9.6409   -0.3598   -0.0157 C   0  0  0  0  0  0  0  0  0  0  0  0
    9.7149    0.2979   -1.2404 C   0  0  0  0  0  0  0  0  0  0  0  0
   10.9684    0.6599   -1.7582 O   0  0  0  0  0  0  0  0  0  0  0  0
    5.9320   -0.8082    0.3545 C   0  0  2  0  0  0  0  0  0  0  0  0
    5.6927    0.1611    1.4882 C   0  0  0  0  0  0  0  0  0  0  0  0
    4.5340   -0.1271    2.2695 N   0  0  0  0  0  0  0  0  0  0  0  0
    3.3500    0.1114    1.4323 C   0  0  0  0  0  0  0  0  0  0  0  0
    2.1698   -0.1681    2.2934 C   0  0  0  0  0  0  0  0  0  0  0  0
    0.8850    0.0663    1.5484 C   0  0  0  0  0  0  0  0  0  0  0  0
    0.7838   -0.8250    0.3751 C   0  0  0  0  0  0  0  0  0  0  0  0
   -0.4344   -0.7219   -0.4690 C   0  0  0  0  0  0  0  0  0  0  0  0
   -1.7486   -1.0142    0.2705 C   0  0  0  0  0  0  0  0  0  0  0  0
   -1.9365   -0.1631    1.2491 O   0  0  0  0  0  0  0  0  0  0  0  0
   -2.8004    0.0184    2.1800 C   0  0  0  0  0  0  0  0  0  0  0  0
   -4.2394    0.3321    2.1541 C   0  0  0  0  0  0  0  0  0  0  0  0
   -4.5519    1.6057    1.4522 C   0  0  0  0  0  0  0  0  0  0  0  0
   -4.3886    1.5096   -0.0249 C   0  0  0  0  0  0  0  0  0  0  0  0
   -5.4575    0.6171   -0.5275 C   0  0  0  0  0  0  0  0  0  0  0  0
   -5.4466   -0.7259   -0.6651 C   0  0  0  0  0  0  0  0  0  0  0  0
   -6.5599   -1.4188   -1.1606 C   0  0  0  0  0  0  0  0  0  0  0  0
   -6.5131   -2.9008   -1.2976 C   0  0  0  0  0  0  0  0  0  0  0  0
   -7.7155   -0.7872   -1.5321 C   0  0  0  0  0  0  0  0  0  0  0  0
   -7.7359    0.5963   -1.3936 C   0  0  0  0  0  0  0  0  0  0  0  0
   -6.6447    1.2735   -0.9086 C   0  0  0  0  0  0  0  0  0  0  0  0
   -8.9473    1.2393   -1.7842 N   0  0  0  0  0  0  0  0  0  0  0  0
  -10.0086    1.4557   -0.8501 C   0  0  0  0  0  0  0  0  0  0  0  0
   -9.9597    1.1099    0.3468 O   0  0  0  0  0  0  0  0  0  0  0  0
  -11.1735    2.1103   -1.3660 N   0  0  0  0  0  0  0  0  0  0  0  0
    6.1007   -2.1223    0.7983 O   0  0  0  0  0  0  0  0  0  0  0  0
    9.3418   -0.4817   -3.8332 H   0  0  0  0  0  0  0  0  0  0  0  0
    7.6793    1.6569   -3.5444 H   0  0  0  0  0  0  0  0  0  0  0  0
    9.3734    2.1915   -3.1809 H   0  0  0  0  0  0  0  0  0  0  0  0
    6.4516    0.4760   -1.9928 H   0  0  0  0  0  0  0  0  0  0  0  0
    8.3384   -1.2252    1.4421 H   0  0  0  0  0  0  0  0  0  0  0  0
   10.5551   -0.5812    0.5155 H   0  0  0  0  0  0  0  0  0  0  0  0
   11.6092   -0.0509   -2.1120 H   0  0  0  0  0  0  0  0  0  0  0  0
    5.1605   -0.7674   -0.4094 H   0  0  0  0  0  0  0  0  0  0  0  0
    6.6054    0.2897    2.1105 H   0  0  0  0  0  0  0  0  0  0  0  0
    5.5065    1.1537    0.9862 H   0  0  0  0  0  0  0  0  0  0  0  0
    4.5237   -1.0450    2.7315 H   0  0  0  0  0  0  0  0  0  0  0  0
    3.3839   -0.5483    0.5402 H   0  0  0  0  0  0  0  0  0  0  0  0
    3.3640    1.1799    1.1691 H   0  0  0  0  0  0  0  0  0  0  0  0
    2.1752    0.4882    3.1935 H   0  0  0  0  0  0  0  0  0  0  0  0
    2.1357   -1.2451    2.6220 H   0  0  0  0  0  0  0  0  0  0  0  0
    0.0799   -0.0743    2.3055 H   0  0  0  0  0  0  0  0  0  0  0  0
    0.8675    1.1323    1.1689 H   0  0  0  0  0  0  0  0  0  0  0  0
    1.6418   -0.5500   -0.3147 H   0  0  0  0  0  0  0  0  0  0  0  0
    0.9416   -1.8950    0.6256 H   0  0  0  0  0  0  0  0  0  0  0  0
   -0.5686    0.2651   -0.9625 H   0  0  0  0  0  0  0  0  0  0  0  0
   -0.3258   -1.4678   -1.2892 H   0  0  0  0  0  0  0  0  0  0  0  0
   -2.5009   -0.9284   -0.5414 H   0  0  0  0  0  0  0  0  0  0  0  0
   -1.7814   -2.1066    0.5414 H   0  0  0  0  0  0  0  0  0  0  0  0
   -2.7534   -0.9215    2.9065 H   0  0  0  0  0  0  0  0  0  0  0  0
   -2.3002    0.7609    2.9612 H   0  0  0  0  0  0  0  0  0  0  0  0
   -4.8130   -0.5330    1.7497 H   0  0  0  0  0  0  0  0  0  0  0  0
   -4.5664    0.3845    3.2450 H   0  0  0  0  0  0  0  0  0  0  0  0
   -5.5946    1.8855    1.7476 H   0  0  0  0  0  0  0  0  0  0  0  0
   -3.8977    2.4516    1.8189 H   0  0  0  0  0  0  0  0  0  0  0  0
   -3.4158    1.1867   -0.3736 H   0  0  0  0  0  0  0  0  0  0  0  0
   -4.5341    2.5259   -0.5020 H   0  0  0  0  0  0  0  0  0  0  0  0
   -4.6132   -1.3372   -0.4094 H   0  0  0  0  0  0  0  0  0  0  0  0
   -7.0628   -3.3473   -0.4446 H   0  0  0  0  0  0  0  0  0  0  0  0
   -5.4735   -3.2736   -1.2008 H   0  0  0  0  0  0  0  0  0  0  0  0
   -6.9357   -3.1486   -2.2843 H   0  0  0  0  0  0  0  0  0  0  0  0
   -8.5458   -1.3493   -1.9069 H   0  0  0  0  0  0  0  0  0  0  0  0
   -6.7351    2.3528   -0.8300 H   0  0  0  0  0  0  0  0  0  0  0  0
   -9.0010    1.5342   -2.7855 H   0  0  0  0  0  0  0  0  0  0  0  0
  -11.6639    2.8216   -0.7917 H   0  0  0  0  0  0  0  0  0  0  0  0
  -11.5202    1.8632   -2.3208 H   0  0  0  0  0  0  0  0  0  0  0  0
    5.9046   -2.1740    1.7478 H   0  0  0  0  0  0  0  0  0  0  0  0
  1  2  1  0
  2  3  1  0
  3  4  2  0
  4  5  1  0
  5  6  2  0
  6  7  1  0
  7  8  2  0
  8  9  1  0
  5 10  1  0
 10 11  1  0
 11 12  1  0
 12 13  1  0
 13 14  1  0
 14 15  1  0
 15 16  1  0
 16 17  1  0
 17 18  1  0
 18 19  1  0
 19 20  1  0
 20 21  1  0
 21 22  1  0
 22 23  1  0
 23 24  1  0
 24 25  2  0
 25 26  1  0
 26 27  1  0
 26 28  2  0
 28 29  1  0
 29 30  2  0
 29 31  1  0
 31 32  1  0
 32 33  2  0
 32 34  1  0
 10 35  1  0
  8  3  1  0
 30 24  1  0
  1 36  1  0
  2 37  1  0
  2 38  1  0
  4 39  1  0
  6 40  1  0
  7 41  1  0
  9 42  1  0
 10 43  1  6
 11 44  1  0
 11 45  1  0
 12 46  1  0
 13 47  1  0
 13 48  1  0
 14 49  1  0
 14 50  1  0
 15 51  1  0
 15 52  1  0
 16 53  1  0
 16 54  1  0
 17 55  1  0
 17 56  1  0
 18 57  1  0
 18 58  1  0
 20 59  1  0
 20 60  1  0
 21 61  1  0
 21 62  1  0
 22 63  1  0
 22 64  1  0
 23 65  1  0
 23 66  1  0
 25 67  1  0
 27 68  1  0
 27 69  1  0
 27 70  1  0
 28 71  1  0
 30 72  1  0
 31 73  1  0
 34 74  1  0
 34 75  1  0
 35 76  1  0
M  END
>  <Ligand ID>  (1) 
LIG0001714

>  <Ligand>  (1) 
CHEMBL1835862

>  <SMILES>  (1) 
OCc1cc(ccc1O)[C@H](CNCCCCCCOCCCCc1cc(C)cc(c1)NC(=O)N)O

>  <CID>  (1) 
10288976.0

>  <ChEMBL ID>  (1) 
nan

>  <InChiKey>  (1) 
DBESJEGRRAZRSW-SANMLTNESA-N

>  <InChi>  (1) 
InChI=1S/C27H41N3O5/c1-20-14-21(16-24(15-20)30-27(28)34)8-4-7-13-35-12-6-3-2-5-11-29-18-26(33)22-9-10-25(32)23(17-22)19-31/h9-10,14-17,26,29,31-33H,2-8,11-13,18-19H2,1H3,(H3,28,30,34)/t26-/m0/s1

>  <IUPAC Name>  (1) 
[3-[4-[6-[[(2R)-2-hydroxy-2-[4-hydroxy-3-(hydroxymethyl)phenyl]ethyl]amino]hexoxy]butyl]-5-methylphenyl]urea

$$$$
