
     RDKit          3D

 84 88  0  0  0  0  0  0  0  0999 V2000
   -1.8903   -4.3018   -2.1575 C   0  0  0  0  0  0  0  0  0  0  0  0
   -1.3291   -2.9834   -1.6232 C   0  0  0  0  0  0  0  0  0  0  0  0
   -1.1849   -2.9999   -0.1327 C   0  0  0  0  0  0  0  0  0  0  0  0
   -0.6561   -1.7556    0.4858 C   0  0  2  0  0  0  0  0  0  0  0  0
   -1.4793   -0.5649    0.2292 N   0  0  0  0  0  0  0  0  0  0  0  0
   -0.9773    0.4965   -0.5937 C   0  0  0  0  0  0  0  0  0  0  0  0
    0.2400    0.1420   -1.4185 C   0  0  0  0  0  0  0  0  0  0  0  0
    1.2511   -0.5384   -0.6320 N   0  0  0  0  0  0  0  0  0  0  0  0
    0.7731   -1.5449    0.2651 C   0  0  0  0  0  0  0  0  0  0  0  0
    1.5771   -2.2995    0.9097 O   0  0  0  0  0  0  0  0  0  0  0  0
    2.6675   -0.2325   -0.7187 C   0  0  2  0  0  0  0  0  0  0  0  0
    3.4750   -1.3259   -1.2503 C   0  0  0  0  0  0  0  0  0  0  0  0
    4.7371   -1.1794   -1.2969 O   0  0  0  0  0  0  0  0  0  0  0  0
    2.9803   -2.5643   -1.7333 N   0  0  0  0  0  0  0  0  0  0  0  0
    3.9366   -3.5434   -2.2270 C   0  0  0  0  0  0  0  0  0  0  0  0
    3.1077    0.3406    0.5907 C   0  0  0  0  0  0  0  0  0  0  0  0
    4.5366    0.7065    0.6750 C   0  0  0  0  0  0  0  0  0  0  0  0
    5.4819   -0.2156    1.1424 C   0  0  0  0  0  0  0  0  0  0  0  0
    6.8115    0.1485    1.2112 C   0  0  0  0  0  0  0  0  0  0  0  0
    7.2273    1.4218    0.8219 C   0  0  0  0  0  0  0  0  0  0  0  0
    6.2993    2.3461    0.3560 C   0  0  0  0  0  0  0  0  0  0  0  0
    4.9540    1.9647    0.2909 C   0  0  0  0  0  0  0  0  0  0  0  0
    6.6944    3.6205   -0.0371 C   0  0  0  0  0  0  0  0  0  0  0  0
    8.0433    3.9673    0.0401 C   0  0  0  0  0  0  0  0  0  0  0  0
    8.9855    3.0444    0.5080 C   0  0  0  0  0  0  0  0  0  0  0  0
    8.5707    1.7860    0.8933 C   0  0  0  0  0  0  0  0  0  0  0  0
   -2.7541   -0.5759    0.8503 C   0  0  0  0  0  0  0  0  0  0  0  0
   -2.9897   -1.6451    1.5377 O   0  0  0  0  0  0  0  0  0  0  0  0
   -3.7994    0.4200    0.8232 C   0  0  2  0  0  0  0  0  0  0  0  0
   -3.5730    1.6052    0.0335 N   0  0  0  0  0  0  0  0  0  0  0  0
   -4.3633    1.9408   -1.1080 C   0  0  0  0  0  0  0  0  0  0  0  0
   -5.3013    1.1724   -1.4527 O   0  0  0  0  0  0  0  0  0  0  0  0
   -4.0281    3.1940   -1.8336 C   0  0  0  0  0  0  0  0  0  0  0  0
   -2.9354    4.0014   -1.3214 N   0  0  0  0  0  0  0  0  0  0  0  0
   -3.9849    3.0311   -3.3414 C   0  0  0  0  0  0  0  0  0  0  0  0
   -5.0661    3.8380   -2.6569 C   0  0  0  0  0  0  0  0  0  0  0  0
   -4.2791    0.7957    2.2067 C   0  0  0  0  0  0  0  0  0  0  0  0
   -4.8288   -0.2748    3.0129 C   0  0  0  0  0  0  0  0  0  0  0  0
   -6.1724   -0.6138    2.8957 C   0  0  0  0  0  0  0  0  0  0  0  0
   -6.7449   -1.6099    3.6567 C   0  0  0  0  0  0  0  0  0  0  0  0
   -6.0067   -2.3189    4.5725 C   0  0  0  0  0  0  0  0  0  0  0  0
   -4.6589   -2.0035    4.7136 C   0  0  0  0  0  0  0  0  0  0  0  0
   -4.1049   -1.0077    3.9483 C   0  0  0  0  0  0  0  0  0  0  0  0
   -6.5975   -3.2942    5.3071 F   0  0  0  0  0  0  0  0  0  0  0  0
   -2.9859   -4.3458   -2.1219 H   0  0  0  0  0  0  0  0  0  0  0  0
   -1.4824   -5.1650   -1.6068 H   0  0  0  0  0  0  0  0  0  0  0  0
   -1.5525   -4.4333   -3.2212 H   0  0  0  0  0  0  0  0  0  0  0  0
   -2.0478   -2.1875   -1.9007 H   0  0  0  0  0  0  0  0  0  0  0  0
   -0.3746   -2.8441   -2.1538 H   0  0  0  0  0  0  0  0  0  0  0  0
   -2.0961   -3.4031    0.3568 H   0  0  0  0  0  0  0  0  0  0  0  0
   -0.4062   -3.7981    0.0818 H   0  0  0  0  0  0  0  0  0  0  0  0
   -0.7713   -1.8900    1.6161 H   0  0  0  0  0  0  0  0  0  0  0  0
   -0.6414    1.2991    0.1215 H   0  0  0  0  0  0  0  0  0  0  0  0
   -1.7300    0.8895   -1.3052 H   0  0  0  0  0  0  0  0  0  0  0  0
    0.6555    1.1238   -1.7657 H   0  0  0  0  0  0  0  0  0  0  0  0
    0.0006   -0.5123   -2.2805 H   0  0  0  0  0  0  0  0  0  0  0  0
    2.7185    0.5973   -1.5001 H   0  0  0  0  0  0  0  0  0  0  0  0
    1.9600   -2.7514   -1.7321 H   0  0  0  0  0  0  0  0  0  0  0  0
    3.4796   -3.9760   -3.1586 H   0  0  0  0  0  0  0  0  0  0  0  0
    4.0635   -4.3978   -1.5327 H   0  0  0  0  0  0  0  0  0  0  0  0
    4.8893   -3.0777   -2.5229 H   0  0  0  0  0  0  0  0  0  0  0  0
    2.4442    1.2422    0.7632 H   0  0  0  0  0  0  0  0  0  0  0  0
    2.7927   -0.3595    1.4102 H   0  0  0  0  0  0  0  0  0  0  0  0
    5.1340   -1.2036    1.4389 H   0  0  0  0  0  0  0  0  0  0  0  0
    7.5463   -0.5738    1.5763 H   0  0  0  0  0  0  0  0  0  0  0  0
    4.2393    2.7039   -0.0779 H   0  0  0  0  0  0  0  0  0  0  0  0
    5.9520    4.3199   -0.3946 H   0  0  0  0  0  0  0  0  0  0  0  0
    8.3430    4.9574   -0.2682 H   0  0  0  0  0  0  0  0  0  0  0  0
   10.0369    3.3383    0.5587 H   0  0  0  0  0  0  0  0  0  0  0  0
    9.2907    1.0563    1.2599 H   0  0  0  0  0  0  0  0  0  0  0  0
   -4.6885   -0.0679    0.3147 H   0  0  0  0  0  0  0  0  0  0  0  0
   -2.8017    2.2491    0.3154 H   0  0  0  0  0  0  0  0  0  0  0  0
   -3.1825    4.4629   -0.4177 H   0  0  0  0  0  0  0  0  0  0  0  0
   -2.5897    4.6664   -2.0253 H   0  0  0  0  0  0  0  0  0  0  0  0
   -3.1979    3.5281   -3.9159 H   0  0  0  0  0  0  0  0  0  0  0  0
   -4.3604    2.1039   -3.8023 H   0  0  0  0  0  0  0  0  0  0  0  0
   -4.9763    4.9334   -2.8434 H   0  0  0  0  0  0  0  0  0  0  0  0
   -6.1097    3.4898   -2.7010 H   0  0  0  0  0  0  0  0  0  0  0  0
   -5.0830    1.5735    2.1094 H   0  0  0  0  0  0  0  0  0  0  0  0
   -3.3826    1.2004    2.7313 H   0  0  0  0  0  0  0  0  0  0  0  0
   -6.8149   -0.1036    2.1996 H   0  0  0  0  0  0  0  0  0  0  0  0
   -7.8046   -1.8794    3.5635 H   0  0  0  0  0  0  0  0  0  0  0  0
   -4.0563   -2.5584    5.4409 H   0  0  0  0  0  0  0  0  0  0  0  0
   -3.0544   -0.7972    4.1030 H   0  0  0  0  0  0  0  0  0  0  0  0
  1  2  1  0
  2  3  1  0
  3  4  1  0
  4  5  1  0
  5  6  1  0
  6  7  1  0
  7  8  1  0
  8  9  1  0
  9 10  2  0
  8 11  1  0
 11 12  1  0
 12 13  2  0
 12 14  1  0
 14 15  1  0
 11 16  1  0
 16 17  1  0
 17 18  2  0
 18 19  1  0
 19 20  2  0
 20 21  1  0
 21 22  2  0
 21 23  1  0
 23 24  2  0
 24 25  1  0
 25 26  2  0
  5 27  1  0
 27 28  2  0
 27 29  1  0
 29 30  1  0
 30 31  1  0
 31 32  2  0
 31 33  1  0
 33 34  1  0
 33 35  1  0
 35 36  1  0
 29 37  1  0
 37 38  1  0
 38 39  2  0
 39 40  1  0
 40 41  2  0
 41 42  1  0
 42 43  2  0
 41 44  1  0
  9  4  1  0
 22 17  1  0
 36 33  1  0
 43 38  1  0
 26 20  1  0
  1 45  1  0
  1 46  1  0
  1 47  1  0
  2 48  1  0
  2 49  1  0
  3 50  1  0
  3 51  1  0
  4 52  1  1
  6 53  1  0
  6 54  1  0
  7 55  1  0
  7 56  1  0
 11 57  1  6
 14 58  1  0
 15 59  1  0
 15 60  1  0
 15 61  1  0
 16 62  1  0
 16 63  1  0
 18 64  1  0
 19 65  1  0
 22 66  1  0
 23 67  1  0
 24 68  1  0
 25 69  1  0
 26 70  1  0
 29 71  1  6
 30 72  1  0
 34 73  1  0
 34 74  1  0
 35 75  1  0
 35 76  1  0
 36 77  1  0
 36 78  1  0
 37 79  1  0
 37 80  1  0
 39 81  1  0
 40 82  1  0
 42 83  1  0
 43 84  1  0
M  END
>  <Ligand ID>  (1) 
LIG0004076

>  <Ligand>  (1) 
CHEMBL451694

>  <SMILES>  (1) 
CCC[C@@H]1N(CCN(C1=O)[C@H](C(=O)NC)Cc1ccc2c(c1)cccc2)C(=O)[C@H](NC(=O)C1(N)CC1)Cc1ccc(cc1)F

>  <CID>  (1) 
25133207.0

>  <ChEMBL ID>  (1) 
nan

>  <InChiKey>  (1) 
GEDCOLLODBJRNS-ULNSLHSMSA-N

>  <InChi>  (1) 
InChI=1S/C34H40FN5O4/c1-3-6-28-32(43)40(29(30(41)37-2)21-23-9-12-24-7-4-5-8-25(24)19-23)18-17-39(28)31(42)27(38-33(44)34(36)15-16-34)20-22-10-13-26(35)14-11-22/h4-5,7-14,19,27-29H,3,6,15-18,20-21,36H2,1-2H3,(H,37,41)(H,38,44)/t27-,28+,29+/m1/s1

>  <IUPAC Name>  (1) 
1-amino-N-[(2R)-3-(4-fluorophenyl)-1-[(2S)-4-[(2S)-1-(methylamino)-3-naphthalen-2-yl-1-oxopropan-2-yl]-3-oxo-2-propylpiperazin-1-yl]-1-oxopropan-2-yl]cyclopropane-1-carboxamide

$$$$
