
     RDKit          3D

 82 89  0  0  0  0  0  0  0  0999 V2000
   -3.2638    6.2116   -1.9337 C   0  0  0  0  0  0  0  0  0  0  0  0
   -2.5967    5.1745   -1.3040 O   0  0  0  0  0  0  0  0  0  0  0  0
   -2.9571    3.8657   -1.2001 C   0  0  0  0  0  0  0  0  0  0  0  0
   -4.1339    3.3335   -1.7445 C   0  0  0  0  0  0  0  0  0  0  0  0
   -4.4622    1.9782   -1.6128 C   0  0  0  0  0  0  0  0  0  0  0  0
   -3.6083    1.1409   -0.9293 C   0  0  0  0  0  0  0  0  0  0  0  0
   -2.4807    1.7267   -0.4224 C   0  0  0  0  0  0  0  0  0  0  0  0
   -2.0983    3.0131   -0.5103 C   0  0  0  0  0  0  0  0  0  0  0  0
   -0.8793    3.1042    0.1537 O   0  0  0  0  0  0  0  0  0  0  0  0
   -0.3822    1.8048    0.4875 C   0  0  1  0  0  0  0  0  0  0  0  0
   -1.5433    0.8854    0.3452 C   0  0  1  0  0  0  0  0  0  0  0  0
   -2.1574    0.4349    1.6118 C   0  0  0  0  0  0  0  0  0  0  0  0
   -2.4096   -1.0108    1.7989 C   0  0  0  0  0  0  0  0  0  0  0  0
   -2.4144   -1.8204    0.6216 N   0  0  0  0  0  0  0  0  0  0  0  0
   -2.4661   -1.0726   -0.6128 C   0  0  1  0  0  0  0  0  0  0  0  0
   -3.7689   -0.3077   -0.7415 C   0  0  0  0  0  0  0  0  0  0  0  0
   -1.2265   -0.2378   -0.6338 C   0  0  1  0  0  0  0  0  0  0  0  0
   -0.9268    0.3712   -1.9726 C   0  0  0  0  0  0  0  0  0  0  0  0
    0.3329    1.1971   -1.8319 C   0  0  0  0  0  0  0  0  0  0  0  0
    0.7626    1.3307   -0.3814 C   0  0  1  0  0  0  0  0  0  0  0  0
    1.8432    2.1645   -0.3412 O   0  0  0  0  0  0  0  0  0  0  0  0
    1.7517    3.4485   -0.7268 C   0  0  0  0  0  0  0  0  0  0  0  0
    1.1317   -0.0262    0.1169 C   0  0  1  0  0  0  0  0  0  0  0  0
   -0.0324   -0.9896   -0.1960 C   0  0  0  0  0  0  0  0  0  0  0  0
    2.3988   -0.6394   -0.3093 C   0  0  0  0  0  0  0  0  0  0  0  0
    3.6302    0.0068   -0.0431 N   0  0  0  0  0  0  0  0  0  0  0  0
    4.3731    0.8292   -0.9328 C   0  0  0  0  0  0  0  0  0  0  0  0
    5.4404    1.4266   -0.5394 O   0  0  0  0  0  0  0  0  0  0  0  0
    4.0172    1.0701   -2.3517 C   0  0  0  0  0  0  0  0  0  0  0  0
    4.2085   -0.1955    1.3025 C   0  0  0  0  0  0  0  0  0  0  0  0
    5.0868   -1.3887    1.3504 C   0  0  0  0  0  0  0  0  0  0  0  0
    6.4341   -1.3611    1.0706 C   0  0  0  0  0  0  0  0  0  0  0  0
    7.2410   -2.4842    1.1225 C   0  0  0  0  0  0  0  0  0  0  0  0
    6.7152   -3.7007    1.4640 C   0  0  0  0  0  0  0  0  0  0  0  0
    5.3727   -3.7676    1.7507 C   0  0  0  0  0  0  0  0  0  0  0  0
    4.5684   -2.6407    1.6977 C   0  0  0  0  0  0  0  0  0  0  0  0
   -3.4328   -2.8511    0.6553 C   0  0  0  0  0  0  0  0  0  0  0  0
   -3.1250   -3.8940    1.7025 C   0  0  0  0  0  0  0  0  0  0  0  0
   -4.0617   -5.0501    1.8966 C   0  0  0  0  0  0  0  0  0  0  0  0
   -4.0535   -3.9564    2.8918 C   0  0  0  0  0  0  0  0  0  0  0  0
   -2.5678    6.7021   -2.6716 H   0  0  0  0  0  0  0  0  0  0  0  0
   -3.6590    6.9896   -1.2176 H   0  0  0  0  0  0  0  0  0  0  0  0
   -4.1433    5.8542   -2.4775 H   0  0  0  0  0  0  0  0  0  0  0  0
   -4.8224    3.9687   -2.2854 H   0  0  0  0  0  0  0  0  0  0  0  0
   -5.3627    1.5557   -2.0272 H   0  0  0  0  0  0  0  0  0  0  0  0
    0.0115    1.8709    1.5253 H   0  0  0  0  0  0  0  0  0  0  0  0
   -3.1302    0.9857    1.7854 H   0  0  0  0  0  0  0  0  0  0  0  0
   -1.5079    0.8331    2.4442 H   0  0  0  0  0  0  0  0  0  0  0  0
   -3.3824   -1.1937    2.3208 H   0  0  0  0  0  0  0  0  0  0  0  0
   -1.6484   -1.4298    2.4894 H   0  0  0  0  0  0  0  0  0  0  0  0
   -2.4245   -1.7928   -1.4449 H   0  0  0  0  0  0  0  0  0  0  0  0
   -4.4223   -0.4309    0.1673 H   0  0  0  0  0  0  0  0  0  0  0  0
   -4.3874   -0.6724   -1.5955 H   0  0  0  0  0  0  0  0  0  0  0  0
   -1.6842    1.0388   -2.3792 H   0  0  0  0  0  0  0  0  0  0  0  0
   -0.7546   -0.4057   -2.7559 H   0  0  0  0  0  0  0  0  0  0  0  0
    1.1542    0.6783   -2.3651 H   0  0  0  0  0  0  0  0  0  0  0  0
    0.2330    2.1957   -2.3157 H   0  0  0  0  0  0  0  0  0  0  0  0
    1.0678    4.0977   -0.1599 H   0  0  0  0  0  0  0  0  0  0  0  0
    1.6342    3.5886   -1.8334 H   0  0  0  0  0  0  0  0  0  0  0  0
    2.7726    3.9135   -0.5358 H   0  0  0  0  0  0  0  0  0  0  0  0
    1.1337    0.0461    1.2378 H   0  0  0  0  0  0  0  0  0  0  0  0
    0.3390   -1.6233   -1.0553 H   0  0  0  0  0  0  0  0  0  0  0  0
   -0.1687   -1.7061    0.6294 H   0  0  0  0  0  0  0  0  0  0  0  0
    2.4588   -1.6847    0.1266 H   0  0  0  0  0  0  0  0  0  0  0  0
    2.2728   -0.8799   -1.4180 H   0  0  0  0  0  0  0  0  0  0  0  0
    3.4437    0.2338   -2.7937 H   0  0  0  0  0  0  0  0  0  0  0  0
    3.4478    1.9972   -2.5338 H   0  0  0  0  0  0  0  0  0  0  0  0
    4.9617    1.1595   -2.9582 H   0  0  0  0  0  0  0  0  0  0  0  0
    4.7804    0.7222    1.5361 H   0  0  0  0  0  0  0  0  0  0  0  0
    3.3992   -0.3054    2.0523 H   0  0  0  0  0  0  0  0  0  0  0  0
    6.9159   -0.4356    0.7962 H   0  0  0  0  0  0  0  0  0  0  0  0
    8.3114   -2.4002    0.8880 H   0  0  0  0  0  0  0  0  0  0  0  0
    7.3674   -4.5625    1.4975 H   0  0  0  0  0  0  0  0  0  0  0  0
    4.9802   -4.7473    2.0193 H   0  0  0  0  0  0  0  0  0  0  0  0
    3.5272   -2.7874    1.9420 H   0  0  0  0  0  0  0  0  0  0  0  0
   -3.4120   -3.3548   -0.3334 H   0  0  0  0  0  0  0  0  0  0  0  0
   -4.4426   -2.4523    0.7833 H   0  0  0  0  0  0  0  0  0  0  0  0
   -2.0603   -4.1321    1.9090 H   0  0  0  0  0  0  0  0  0  0  0  0
   -4.8829   -5.1537    1.1658 H   0  0  0  0  0  0  0  0  0  0  0  0
   -3.6810   -6.0256    2.2453 H   0  0  0  0  0  0  0  0  0  0  0  0
   -3.5828   -4.1284    3.8801 H   0  0  0  0  0  0  0  0  0  0  0  0
   -4.9127   -3.2505    2.9471 H   0  0  0  0  0  0  0  0  0  0  0  0
  1  2  1  0
  2  3  1  0
  3  4  2  0
  4  5  1  0
  5  6  2  0
  6  7  1  0
  7  8  2  0
  8  9  1  0
  9 10  1  0
 10 11  1  0
 11 12  1  1
 12 13  1  0
 13 14  1  0
 14 15  1  0
 15 16  1  0
 15 17  1  0
 17 18  1  6
 18 19  1  0
 19 20  1  0
 20 21  1  6
 21 22  1  0
 20 23  1  0
 23 24  1  0
 23 25  1  0
 25 26  1  0
 26 27  1  0
 27 28  2  0
 27 29  1  0
 26 30  1  0
 30 31  1  0
 31 32  2  0
 32 33  1  0
 33 34  2  0
 34 35  1  0
 35 36  2  0
 14 37  1  0
 37 38  1  0
 38 39  1  0
 39 40  1  0
  8  3  1  0
 20 10  1  0
 36 31  1  0
 40 38  1  0
 16  6  1  0
 24 17  1  0
 11  7  1  0
 17 11  1  0
  1 41  1  0
  1 42  1  0
  1 43  1  0
  4 44  1  0
  5 45  1  0
 10 46  1  1
 12 47  1  0
 12 48  1  0
 13 49  1  0
 13 50  1  0
 15 51  1  6
 16 52  1  0
 16 53  1  0
 18 54  1  0
 18 55  1  0
 19 56  1  0
 19 57  1  0
 22 58  1  0
 22 59  1  0
 22 60  1  0
 23 61  1  1
 24 62  1  0
 24 63  1  0
 25 64  1  0
 25 65  1  0
 29 66  1  0
 29 67  1  0
 29 68  1  0
 30 69  1  0
 30 70  1  0
 32 71  1  0
 33 72  1  0
 34 73  1  0
 35 74  1  0
 36 75  1  0
 37 76  1  0
 37 77  1  0
 38 78  1  0
 39 79  1  0
 39 80  1  0
 40 81  1  0
 40 82  1  0
M  END
>  <Ligand ID>  (1) 
LIG0003277

>  <Ligand>  (1) 
CHEMBL3960447

>  <SMILES>  (1) 
COc1ccc2c3c1O[C@H]1[C@]43CCN([C@@H](C2)[C@]24CC[C@]1(OC)[C@@H](C2)CN(C(=O)C)Cc1ccccc1)CC1CC1

>  <CID>  (1) 
134154779.0

>  <ChEMBL ID>  (1) 
nan

>  <InChiKey>  (1) 
QERDWLFJAPHTPD-WLVZJYHBSA-N

>  <InChi>  (1) 
InChI=1S/C34H42N2O4/c1-22(37)36(20-23-7-5-4-6-8-23)21-26-18-32-13-14-34(26,39-3)31-33(32)15-16-35(19-24-9-10-24)28(32)17-25-11-12-27(38-2)30(40-31)29(25)33/h4-8,11-12,24,26,28,31H,9-10,13-21H2,1-3H3/t26-,28-,31-,32-,33+,34-/m0/s1

>  <IUPAC Name>  (1) 
N-benzyl-N-[[(1R,2R,6S,14S,15S,16S)-5-(cyclopropylmethyl)-11,15-dimethoxy-13-oxa-5-azahexacyclo[13.2.2.12,8.01,6.02,14.012,20]icosa-8(20),9,11-trien-16-yl]methyl]acetamide

$$$$
