
     RDKit          3D

 60 62  0  0  0  0  0  0  0  0999 V2000
   10.8326   -1.0432   -1.4690 Cl  0  0  0  0  0  0  0  0  0  0  0  0
    9.5706   -0.8168   -0.2708 C   0  0  0  0  0  0  0  0  0  0  0  0
    9.8475   -0.0508    0.8447 C   0  0  0  0  0  0  0  0  0  0  0  0
    8.8787    0.1386    1.7905 C   0  0  0  0  0  0  0  0  0  0  0  0
    7.6533   -0.4516    1.5846 C   0  0  0  0  0  0  0  0  0  0  0  0
    7.3393   -1.2186    0.4915 C   0  0  0  0  0  0  0  0  0  0  0  0
    8.3295   -1.4098   -0.4708 C   0  0  0  0  0  0  0  0  0  0  0  0
    6.0302   -1.8585    0.2577 C   0  0  0  0  0  0  0  0  0  0  0  0
    5.1572   -0.9364   -0.5544 C   0  0  0  0  0  0  0  0  0  0  0  0
    4.9669    0.2897    0.1576 N   0  0  0  0  0  0  0  0  0  0  0  0
    4.1069    1.2414   -0.5249 C   0  0  0  0  0  0  0  0  0  0  0  0
    2.6985    0.6955   -0.5281 C   0  0  0  0  0  0  0  0  0  0  0  0
    1.7516    1.6739   -1.2280 C   0  0  0  0  0  0  0  0  0  0  0  0
    0.0610    1.0589   -1.2505 S   0  0  0  0  0  0  0  0  0  0  0  0
   -0.0326   -0.2074   -2.0562 O   0  0  0  0  0  0  0  0  0  0  0  0
   -0.5903    0.7931    0.3805 C   0  0  0  0  0  0  0  0  0  0  0  0
   -2.0198    0.2757    0.3514 C   0  0  0  0  0  0  0  0  0  0  0  0
   -2.8245    1.2428   -0.3125 N   0  0  0  0  0  0  0  0  0  0  0  0
   -4.2048    0.9537   -0.4651 C   0  0  0  0  0  0  0  0  0  0  0  0
   -5.0358    0.9371    0.7725 C   0  0  1  0  0  0  0  0  0  0  0  0
   -6.4356    0.6184    0.3380 C   0  0  0  0  0  0  0  0  0  0  0  0
   -7.3304    1.6190   -0.0094 C   0  0  0  0  0  0  0  0  0  0  0  0
   -8.5835    1.1945   -0.3904 C   0  0  0  0  0  0  0  0  0  0  0  0
   -8.9781   -0.1152   -0.4424 C   0  0  0  0  0  0  0  0  0  0  0  0
   -8.0651   -1.1498   -0.0873 C   0  0  0  0  0  0  0  0  0  0  0  0
   -6.8374   -0.6947    0.2838 C   0  0  0  0  0  0  0  0  0  0  0  0
   -5.8923   -2.2071    0.6767 S   0  0  0  0  0  0  0  0  0  0  0  0
   -7.3095   -3.2764    0.2796 C   0  0  0  0  0  0  0  0  0  0  0  0
   -7.3129   -4.5539    0.3518 O   0  0  0  0  0  0  0  0  0  0  0  0
   -8.3223   -2.4238   -0.0973 N   0  0  0  0  0  0  0  0  0  0  0  0
  -10.2630   -0.3928   -0.8422 O   0  0  0  0  0  0  0  0  0  0  0  0
   -4.6493    0.0047    1.7005 O   0  0  0  0  0  0  0  0  0  0  0  0
   10.8179    0.4098    0.9956 H   0  0  0  0  0  0  0  0  0  0  0  0
    9.0858    0.7418    2.6759 H   0  0  0  0  0  0  0  0  0  0  0  0
    6.9041   -0.2905    2.3445 H   0  0  0  0  0  0  0  0  0  0  0  0
    8.1374   -2.0079   -1.3580 H   0  0  0  0  0  0  0  0  0  0  0  0
    5.5498   -2.0986    1.2510 H   0  0  0  0  0  0  0  0  0  0  0  0
    6.2013   -2.8353   -0.2814 H   0  0  0  0  0  0  0  0  0  0  0  0
    4.2136   -1.4316   -0.8386 H   0  0  0  0  0  0  0  0  0  0  0  0
    5.7632   -0.6800   -1.4749 H   0  0  0  0  0  0  0  0  0  0  0  0
    5.8658    0.7356    0.4520 H   0  0  0  0  0  0  0  0  0  0  0  0
    4.1261    2.1762    0.0639 H   0  0  0  0  0  0  0  0  0  0  0  0
    4.4964    1.3919   -1.5553 H   0  0  0  0  0  0  0  0  0  0  0  0
    2.4148    0.5866    0.5577 H   0  0  0  0  0  0  0  0  0  0  0  0
    2.6000   -0.2599   -1.0392 H   0  0  0  0  0  0  0  0  0  0  0  0
    1.8093    2.6607   -0.7554 H   0  0  0  0  0  0  0  0  0  0  0  0
    2.1046    1.7232   -2.2831 H   0  0  0  0  0  0  0  0  0  0  0  0
    0.0339    0.0658    0.9332 H   0  0  0  0  0  0  0  0  0  0  0  0
   -0.6119    1.7149    0.9960 H   0  0  0  0  0  0  0  0  0  0  0  0
   -2.3763    0.0360    1.3530 H   0  0  0  0  0  0  0  0  0  0  0  0
   -2.0382   -0.6490   -0.2626 H   0  0  0  0  0  0  0  0  0  0  0  0
   -2.5857    2.2285   -0.1798 H   0  0  0  0  0  0  0  0  0  0  0  0
   -4.6220    1.7466   -1.1540 H   0  0  0  0  0  0  0  0  0  0  0  0
   -4.3927    0.0055   -1.0133 H   0  0  0  0  0  0  0  0  0  0  0  0
   -5.0297    1.9300    1.3038 H   0  0  0  0  0  0  0  0  0  0  0  0
   -7.0223    2.6478    0.0308 H   0  0  0  0  0  0  0  0  0  0  0  0
   -9.2936    1.9618   -0.6648 H   0  0  0  0  0  0  0  0  0  0  0  0
   -9.2461   -2.8911   -0.3696 H   0  0  0  0  0  0  0  0  0  0  0  0
  -10.6495    0.1393   -1.6349 H   0  0  0  0  0  0  0  0  0  0  0  0
   -4.7926    0.3117    2.6451 H   0  0  0  0  0  0  0  0  0  0  0  0
  1  2  1  0
  2  3  2  0
  3  4  1  0
  4  5  2  0
  5  6  1  0
  6  7  2  0
  6  8  1  0
  8  9  1  0
  9 10  1  0
 10 11  1  0
 11 12  1  0
 12 13  1  0
 13 14  1  0
 14 15  2  0
 14 16  1  0
 16 17  1  0
 17 18  1  0
 18 19  1  0
 19 20  1  0
 20 21  1  0
 21 22  2  0
 22 23  1  0
 23 24  2  0
 24 25  1  0
 25 26  2  0
 26 27  1  0
 27 28  1  0
 28 29  2  0
 28 30  1  0
 24 31  1  0
 20 32  1  0
  7  2  1  0
 26 21  1  0
 30 25  1  0
  3 33  1  0
  4 34  1  0
  5 35  1  0
  7 36  1  0
  8 37  1  0
  8 38  1  0
  9 39  1  0
  9 40  1  0
 10 41  1  0
 11 42  1  0
 11 43  1  0
 12 44  1  0
 12 45  1  0
 13 46  1  0
 13 47  1  0
 16 48  1  0
 16 49  1  0
 17 50  1  0
 17 51  1  0
 18 52  1  0
 19 53  1  0
 19 54  1  0
 20 55  1  1
 22 56  1  0
 23 57  1  0
 30 58  1  0
 31 59  1  0
 32 60  1  0
M  END
>  <Ligand ID>  (1) 
LIG0005842

>  <Ligand>  (1) 
CHEMBL1807830

>  <SMILES>  (1) 
Clc1cccc(c1)CCNCCCS(=O)CCNC[C@@H](c1ccc(c2c1sc(=O)[nH]2)O)O

>  <CID>  (1) 
56670158.0

>  <ChEMBL ID>  (1) 
nan

>  <InChiKey>  (1) 
HOMVMHUTJCEUHF-LSJBEEMESA-N

>  <InChi>  (1) 
InChI=1S/C22H28ClN3O4S2/c23-16-4-1-3-15(13-16)7-9-24-8-2-11-32(30)12-10-25-14-19(28)17-5-6-18(27)20-21(17)31-22(29)26-20/h1,3-6,13,19,24-25,27-28H,2,7-12,14H2,(H,26,29)/t19-,32?/m0/s1

>  <IUPAC Name>  (1) 
7-[(1R)-2-[2-[3-[2-(3-chlorophenyl)ethylamino]propylsulfinyl]ethylamino]-1-hydroxyethyl]-4-hydroxy-3H-1,3-benzothiazol-2-one

$$$$
