
     RDKit          3D

 29 29  0  0  0  0  0  0  0  0999 V2000
   -2.2468    2.9903    0.1289 O   0  0  0  0  0  0  0  0  0  0  0  0
   -1.0022    2.7695    0.0543 C   0  0  0  0  0  0  0  0  0  0  0  0
   -0.4943    1.4045    0.0335 C   0  0  0  0  0  0  0  0  0  0  0  0
   -1.3826    0.3546    0.0949 C   0  0  0  0  0  0  0  0  0  0  0  0
   -2.8611    0.5728    0.1875 C   0  0  0  0  0  0  0  0  0  0  0  0
   -0.8914   -0.9552    0.0715 C   0  0  0  0  0  0  0  0  0  0  0  0
   -1.8864   -2.0588    0.1374 C   0  0  0  0  0  0  0  0  0  0  0  0
    0.4805   -1.2002   -0.0127 C   0  0  0  0  0  0  0  0  0  0  0  0
    1.3430   -0.1263   -0.0727 C   0  0  0  0  0  0  0  0  0  0  0  0
    0.8688    1.1925   -0.0503 C   0  0  0  0  0  0  0  0  0  0  0  0
    1.8751    2.2559   -0.1144 C   0  0  0  0  0  0  0  0  0  0  0  0
    2.8063   -0.3880   -0.1683 C   0  0  0  0  0  0  0  0  0  0  0  0
    0.9003   -2.6098   -0.0267 C   0  0  0  0  0  0  0  0  0  0  0  0
   -0.3786    3.6502    0.0093 H   0  0  0  0  0  0  0  0  0  0  0  0
   -3.1614    1.0943    1.1190 H   0  0  0  0  0  0  0  0  0  0  0  0
   -3.3744   -0.4122    0.2454 H   0  0  0  0  0  0  0  0  0  0  0  0
   -3.2257    1.0617   -0.7369 H   0  0  0  0  0  0  0  0  0  0  0  0
   -2.4663   -2.0333    1.0822 H   0  0  0  0  0  0  0  0  0  0  0  0
   -2.5370   -1.9578   -0.7760 H   0  0  0  0  0  0  0  0  0  0  0  0
   -1.3430   -3.0125    0.0007 H   0  0  0  0  0  0  0  0  0  0  0  0
    2.1416    2.3551   -1.1981 H   0  0  0  0  0  0  0  0  0  0  0  0
    2.7776    1.9940    0.5117 H   0  0  0  0  0  0  0  0  0  0  0  0
    1.5733    3.2405    0.2312 H   0  0  0  0  0  0  0  0  0  0  0  0
    3.0488   -1.2776   -0.7906 H   0  0  0  0  0  0  0  0  0  0  0  0
    3.2726    0.4736   -0.7306 H   0  0  0  0  0  0  0  0  0  0  0  0
    3.2503   -0.3897    0.8287 H   0  0  0  0  0  0  0  0  0  0  0  0
    1.9731   -2.7918    0.0100 H   0  0  0  0  0  0  0  0  0  0  0  0
    0.4577   -3.0740   -0.9522 H   0  0  0  0  0  0  0  0  0  0  0  0
    0.4822   -3.1221    0.8835 H   0  0  0  0  0  0  0  0  0  0  0  0
  1  2  2  0
  2  3  1  0
  3  4  2  0
  4  5  1  0
  4  6  1  0
  6  7  1  0
  6  8  2  0
  8  9  1  0
  9 10  2  0
 10 11  1  0
  9 12  1  0
  8 13  1  0
 10  3  1  0
  2 14  1  0
  5 15  1  0
  5 16  1  0
  5 17  1  0
  7 18  1  0
  7 19  1  0
  7 20  1  0
 11 21  1  0
 11 22  1  0
 11 23  1  0
 12 24  1  0
 12 25  1  0
 12 26  1  0
 13 27  1  0
 13 28  1  0
 13 29  1  0
M  END
>  <Ligand ID>  (1) 
LIG0000217

>  <Ligand>  (1) 
Pentamethylbenzaldehyde

>  <SMILES>  (1) 
O=Cc1c(C)c(C)c(c(c1C)C)C

>  <CID>  (1) 
263712.0

>  <ChEMBL ID>  (1) 
nan

>  <InChiKey>  (1) 
RWOZGGOKRKSHKN-UHFFFAOYSA-N

>  <InChi>  (1) 
InChI=1S/C12H16O/c1-7-8(2)10(4)12(6-13)11(5)9(7)3/h6H,1-5H3

>  <IUPAC Name>  (1) 
2,3,4,5,6-pentamethylbenzaldehyde

$$$$
