
     RDKit          3D

 29 31  0  0  0  0  0  0  0  0999 V2000
    2.9665    2.8929    0.3678 Cl  0  0  0  0  0  0  0  0  0  0  0  0
    2.8293    1.1632    0.1872 C   0  0  0  0  0  0  0  0  0  0  0  0
    3.9585    0.3784    0.1711 C   0  0  0  0  0  0  0  0  0  0  0  0
    3.8426   -0.9988    0.0270 C   0  0  0  0  0  0  0  0  0  0  0  0
    2.6006   -1.5834   -0.1001 C   0  0  0  0  0  0  0  0  0  0  0  0
    1.4576   -0.8119   -0.0862 C   0  0  0  0  0  0  0  0  0  0  0  0
    1.6015    0.5367    0.0567 C   0  0  0  0  0  0  0  0  0  0  0  0
    0.4079    1.3741    0.0759 C   0  0  0  0  0  0  0  0  0  0  0  0
    0.4480    2.6299    0.2036 O   0  0  0  0  0  0  0  0  0  0  0  0
   -0.8504    0.7102   -0.0586 N   0  0  0  0  0  0  0  0  0  0  0  0
   -0.9045   -0.6680    0.3879 C   0  0  2  0  0  0  0  0  0  0  0  0
    0.1594   -1.5136   -0.2295 C   0  0  0  0  0  0  0  0  0  0  0  0
   -2.3049   -1.1528    0.0288 C   0  0  0  0  0  0  0  0  0  0  0  0
   -3.2286   -0.2648    0.6802 N   0  0  0  0  0  0  0  0  0  0  0  0
   -3.2752    1.0499    0.0790 C   0  0  0  0  0  0  0  0  0  0  0  0
   -1.9891    1.4122   -0.6163 C   0  0  0  0  0  0  0  0  0  0  0  0
    4.9299    0.8594    0.2729 H   0  0  0  0  0  0  0  0  0  0  0  0
    4.7716   -1.5495    0.0233 H   0  0  0  0  0  0  0  0  0  0  0  0
    2.5608   -2.6664   -0.2107 H   0  0  0  0  0  0  0  0  0  0  0  0
   -0.8145   -0.7170    1.4810 H   0  0  0  0  0  0  0  0  0  0  0  0
   -0.0290   -1.6902   -1.3000 H   0  0  0  0  0  0  0  0  0  0  0  0
    0.1669   -2.4859    0.3017 H   0  0  0  0  0  0  0  0  0  0  0  0
   -2.4393   -1.1843   -1.0705 H   0  0  0  0  0  0  0  0  0  0  0  0
   -2.4332   -2.1484    0.4839 H   0  0  0  0  0  0  0  0  0  0  0  0
   -2.9130   -0.1649    1.6751 H   0  0  0  0  0  0  0  0  0  0  0  0
   -4.1048    1.0766   -0.6335 H   0  0  0  0  0  0  0  0  0  0  0  0
   -3.4681    1.8007    0.8652 H   0  0  0  0  0  0  0  0  0  0  0  0
   -1.8339    2.5077   -0.5180 H   0  0  0  0  0  0  0  0  0  0  0  0
   -2.1127    1.2079   -1.7022 H   0  0  0  0  0  0  0  0  0  0  0  0
  1  2  1  0
  2  3  2  0
  3  4  1  0
  4  5  2  0
  5  6  1  0
  6  7  2  0
  7  8  1  0
  8  9  2  0
  8 10  1  0
 10 11  1  0
 11 12  1  0
 11 13  1  0
 13 14  1  0
 14 15  1  0
 15 16  1  0
  7  2  1  0
 16 10  1  0
 12  6  1  0
  3 17  1  0
  4 18  1  0
  5 19  1  0
 11 20  1  1
 12 21  1  0
 12 22  1  0
 13 23  1  0
 13 24  1  0
 14 25  1  0
 15 26  1  0
 15 27  1  0
 16 28  1  0
 16 29  1  0
M  END
>  <Ligand ID>  (1) 
LIG0003211

>  <Ligand>  (1) 
SCHEMBL3564305

>  <SMILES>  (1) 
Clc1cccc2c1C(=O)N1[C@H](C2)CNCC1

>  <CID>  (1) 
24826788.0

>  <ChEMBL ID>  (1) 
nan

>  <InChiKey>  (1) 
MRSMCAHWRPSCMM-SECBINFHSA-N

>  <InChi>  (1) 
InChI=1S/C12H13ClN2O/c13-10-3-1-2-8-6-9-7-14-4-5-15(9)12(16)11(8)10/h1-3,9,14H,4-7H2/t9-/m1/s1

>  <IUPAC Name>  (1) 
(11aR)-7-chloro-1,2,3,4,11,11a-hexahydropyrazino[1,2-b]isoquinolin-6-one

$$$$
