
     RDKit          3D

 59 63  0  0  0  0  0  0  0  0999 V2000
    7.9335    3.9166    0.0870 F   0  0  0  0  0  0  0  0  0  0  0  0
    7.0128    2.9138    0.0171 C   0  0  0  0  0  0  0  0  0  0  0  0
    5.6671    3.2748    0.0523 C   0  0  0  0  0  0  0  0  0  0  0  0
    4.7409    2.2571   -0.0187 C   0  0  0  0  0  0  0  0  0  0  0  0
    5.0961    0.9354   -0.1202 C   0  0  0  0  0  0  0  0  0  0  0  0
    6.4276    0.5822   -0.1547 C   0  0  0  0  0  0  0  0  0  0  0  0
    7.3944    1.5774   -0.0856 C   0  0  0  0  0  0  0  0  0  0  0  0
    6.4608   -0.7387   -0.2542 N   0  0  0  0  0  0  0  0  0  0  0  0
    5.2046   -1.2430   -0.2847 C   0  0  0  0  0  0  0  0  0  0  0  0
    4.9188   -2.4552   -0.3741 O   0  0  0  0  0  0  0  0  0  0  0  0
    4.3519   -0.2046   -0.2015 N   0  0  0  0  0  0  0  0  0  0  0  0
    2.9130   -0.2721   -0.1981 C   0  0  0  0  0  0  0  0  0  0  0  0
    2.3583   -0.7887    1.0947 C   0  0  0  0  0  0  0  0  0  0  0  0
    1.4484   -1.9743    0.7469 C   0  0  0  0  0  0  0  0  0  0  0  0
    0.4792   -1.4924   -0.1567 N   0  0  0  0  0  0  0  0  0  0  0  0
    0.9167   -1.0430   -1.4117 C   0  0  0  0  0  0  0  0  0  0  0  0
    2.4460   -1.0596   -1.4126 C   0  0  0  0  0  0  0  0  0  0  0  0
   -0.8731   -1.5544    0.1606 C   0  0  0  0  0  0  0  0  0  0  0  0
   -1.8238   -1.0148   -0.8747 C   0  0  0  0  0  0  0  0  0  0  0  0
   -3.2310   -1.3105   -0.3914 C   0  0  0  0  0  0  0  0  0  0  0  0
   -3.4227   -0.7867    0.9070 N   0  0  0  0  0  0  0  0  0  0  0  0
   -2.5322   -1.2430    1.9113 C   0  0  0  0  0  0  0  0  0  0  0  0
   -1.1306   -0.8146    1.4568 C   0  0  0  0  0  0  0  0  0  0  0  0
   -5.0351   -0.5398    1.3742 S   0  0  0  0  0  0  0  0  0  0  0  0
   -5.8826   -1.7540    1.3957 O   0  0  0  0  0  0  0  0  0  0  0  0
   -5.0751    0.1136    2.7246 O   0  0  0  0  0  0  0  0  0  0  0  0
   -5.7256    0.6411    0.2530 C   0  0  0  0  0  0  0  0  0  0  0  0
   -6.3385    0.2093   -0.9045 C   0  0  0  0  0  0  0  0  0  0  0  0
   -6.8987    1.0848   -1.8232 C   0  0  0  0  0  0  0  0  0  0  0  0
   -6.8163    2.4493   -1.5243 C   0  0  0  0  0  0  0  0  0  0  0  0
   -6.2026    2.8692   -0.3667 C   0  0  0  0  0  0  0  0  0  0  0  0
   -5.6501    2.0079    0.5396 C   0  0  0  0  0  0  0  0  0  0  0  0
    5.3896    4.3073    0.1316 H   0  0  0  0  0  0  0  0  0  0  0  0
    3.6902    2.5509    0.0097 H   0  0  0  0  0  0  0  0  0  0  0  0
    8.4490    1.3061   -0.1123 H   0  0  0  0  0  0  0  0  0  0  0  0
    7.3290   -1.3254   -0.3035 H   0  0  0  0  0  0  0  0  0  0  0  0
    2.4982    0.7627   -0.3645 H   0  0  0  0  0  0  0  0  0  0  0  0
    1.6995   -0.0443    1.5884 H   0  0  0  0  0  0  0  0  0  0  0  0
    3.1241   -1.0851    1.8247 H   0  0  0  0  0  0  0  0  0  0  0  0
    0.9682   -2.3971    1.6391 H   0  0  0  0  0  0  0  0  0  0  0  0
    2.1238   -2.7512    0.3357 H   0  0  0  0  0  0  0  0  0  0  0  0
    0.5426   -1.5848   -2.3027 H   0  0  0  0  0  0  0  0  0  0  0  0
    0.6684    0.0577   -1.4770 H   0  0  0  0  0  0  0  0  0  0  0  0
    2.7572   -0.4671   -2.3053 H   0  0  0  0  0  0  0  0  0  0  0  0
    2.8445   -2.0712   -1.4610 H   0  0  0  0  0  0  0  0  0  0  0  0
   -1.1557   -2.6312    0.3363 H   0  0  0  0  0  0  0  0  0  0  0  0
   -1.6964   -1.5709   -1.8260 H   0  0  0  0  0  0  0  0  0  0  0  0
   -1.6838    0.0515   -1.0518 H   0  0  0  0  0  0  0  0  0  0  0  0
   -3.9361   -0.7969   -1.0752 H   0  0  0  0  0  0  0  0  0  0  0  0
   -3.4509   -2.3930   -0.4945 H   0  0  0  0  0  0  0  0  0  0  0  0
   -2.7652   -0.7240    2.8556 H   0  0  0  0  0  0  0  0  0  0  0  0
   -2.5075   -2.3218    2.1016 H   0  0  0  0  0  0  0  0  0  0  0  0
   -1.2546    0.2775    1.2158 H   0  0  0  0  0  0  0  0  0  0  0  0
   -0.3993   -1.0088    2.2379 H   0  0  0  0  0  0  0  0  0  0  0  0
   -6.4185   -0.8514   -1.1656 H   0  0  0  0  0  0  0  0  0  0  0  0
   -7.3727    0.7249   -2.7212 H   0  0  0  0  0  0  0  0  0  0  0  0
   -7.2461    3.1303   -2.2282 H   0  0  0  0  0  0  0  0  0  0  0  0
   -6.1545    3.9456   -0.1616 H   0  0  0  0  0  0  0  0  0  0  0  0
   -5.1749    2.3667    1.4396 H   0  0  0  0  0  0  0  0  0  0  0  0
  1  2  1  0
  2  3  2  0
  3  4  1  0
  4  5  2  0
  5  6  1  0
  6  7  2  0
  6  8  1  0
  8  9  1  0
  9 10  2  0
  9 11  1  0
 11 12  1  0
 12 13  1  0
 13 14  1  0
 14 15  1  0
 15 16  1  0
 16 17  1  0
 15 18  1  0
 18 19  1  0
 19 20  1  0
 20 21  1  0
 21 22  1  0
 22 23  1  0
 21 24  1  0
 24 25  2  0
 24 26  2  0
 24 27  1  0
 27 28  2  0
 28 29  1  0
 29 30  2  0
 30 31  1  0
 31 32  2  0
  7  2  1  0
 17 12  1  0
 23 18  1  0
 32 27  1  0
 11  5  1  0
  3 33  1  0
  4 34  1  0
  7 35  1  0
  8 36  1  0
 12 37  1  0
 13 38  1  0
 13 39  1  0
 14 40  1  0
 14 41  1  0
 16 42  1  0
 16 43  1  0
 17 44  1  0
 17 45  1  0
 18 46  1  0
 19 47  1  0
 19 48  1  0
 20 49  1  0
 20 50  1  0
 22 51  1  0
 22 52  1  0
 23 53  1  0
 23 54  1  0
 28 55  1  0
 29 56  1  0
 30 57  1  0
 31 58  1  0
 32 59  1  0
M  END
>  <Ligand ID>  (1) 
LIG0000858

>  <Ligand>  (1) 
CHEMBL485755

>  <SMILES>  (1) 
Fc1ccc2c(c1)[nH]c(=O)n2C1CCN(CC1)C1CCN(CC1)S(=O)(=O)c1ccccc1

>  <CID>  (1) 
44589594.0

>  <ChEMBL ID>  (1) 
nan

>  <InChiKey>  (1) 
YYFWUVQKYICWEJ-UHFFFAOYSA-N

>  <InChi>  (1) 
InChI=1S/C23H27FN4O3S/c24-17-6-7-22-21(16-17)25-23(29)28(22)19-8-12-26(13-9-19)18-10-14-27(15-11-18)32(30,31)20-4-2-1-3-5-20/h1-7,16,18-19H,8-15H2,(H,25,29)

>  <IUPAC Name>  (1) 
3-[1-[1-(benzenesulfonyl)piperidin-4-yl]piperidin-4-yl]-6-fluoro-1H-benzimidazol-2-one

$$$$
