
     RDKit          3D

 44 47  0  0  0  0  0  0  0  0999 V2000
   -3.8796    0.6837    2.3060 O   0  0  0  0  0  0  0  0  0  0  0  0
   -4.2627   -0.4815    1.6096 C   0  0  0  0  0  0  0  0  0  0  0  0
   -4.0369   -0.1882    0.1440 C   0  0  0  0  0  0  0  0  0  0  0  0
   -2.6452    0.1096   -0.0458 N   0  0  0  0  0  0  0  0  0  0  0  0
   -1.5848   -0.7915    0.2525 C   0  0  0  0  0  0  0  0  0  0  0  0
   -1.8322   -1.9358    0.7146 O   0  0  0  0  0  0  0  0  0  0  0  0
   -0.1695   -0.4270    0.0356 C   0  0  0  0  0  0  0  0  0  0  0  0
    0.8308   -1.2804    0.3163 N   0  0  0  0  0  0  0  0  0  0  0  0
    1.9808   -0.6872    0.0238 N   0  0  0  0  0  0  0  0  0  0  0  0
    1.7347    0.5454   -0.4449 C   0  0  0  0  0  0  0  0  0  0  0  0
    0.3491    0.7422   -0.4487 C   0  0  0  0  0  0  0  0  0  0  0  0
    0.0167    2.0800   -0.9536 C   0  0  0  0  0  0  0  0  0  0  0  0
    1.3421    2.7776   -1.1750 C   0  0  2  0  0  0  0  0  0  0  0  0
    2.3735    1.7645   -0.9553 C   0  0  1  0  0  0  0  0  0  0  0  0
    2.2831    2.9514   -0.0393 C   0  0  0  0  0  0  0  0  0  0  0  0
    3.2690   -1.2585    0.1791 C   0  0  0  0  0  0  0  0  0  0  0  0
    3.7251   -2.1582   -0.7627 C   0  0  0  0  0  0  0  0  0  0  0  0
    4.9546   -2.7595   -0.6946 C   0  0  0  0  0  0  0  0  0  0  0  0
    5.7742   -2.4483    0.3683 C   0  0  0  0  0  0  0  0  0  0  0  0
    5.3455   -1.5434    1.3381 C   0  0  0  0  0  0  0  0  0  0  0  0
    4.0969   -0.9486    1.2464 C   0  0  0  0  0  0  0  0  0  0  0  0
    7.0093   -2.9796    0.5405 F   0  0  0  0  0  0  0  0  0  0  0  0
   -4.8548    1.0225   -0.2282 C   0  0  0  0  0  0  0  0  0  0  0  0
   -4.3791   -1.3819   -0.7218 C   0  0  0  0  0  0  0  0  0  0  0  0
   -4.1360    1.4642    1.7642 H   0  0  0  0  0  0  0  0  0  0  0  0
   -5.3391   -0.6943    1.7792 H   0  0  0  0  0  0  0  0  0  0  0  0
   -3.6708   -1.3065    2.0084 H   0  0  0  0  0  0  0  0  0  0  0  0
   -2.3347    1.0506   -0.4318 H   0  0  0  0  0  0  0  0  0  0  0  0
   -0.5985    2.6942   -0.2493 H   0  0  0  0  0  0  0  0  0  0  0  0
   -0.5204    2.0197   -1.9226 H   0  0  0  0  0  0  0  0  0  0  0  0
    1.3699    3.5444   -1.9752 H   0  0  0  0  0  0  0  0  0  0  0  0
    3.1916    1.6951   -1.6982 H   0  0  0  0  0  0  0  0  0  0  0  0
    3.0966    3.6819   -0.1755 H   0  0  0  0  0  0  0  0  0  0  0  0
    1.9058    2.8188    0.9916 H   0  0  0  0  0  0  0  0  0  0  0  0
    3.1012   -2.4266   -1.6167 H   0  0  0  0  0  0  0  0  0  0  0  0
    5.3286   -3.4630   -1.4179 H   0  0  0  0  0  0  0  0  0  0  0  0
    6.0097   -1.3047    2.1801 H   0  0  0  0  0  0  0  0  0  0  0  0
    3.7347   -0.2448    1.9790 H   0  0  0  0  0  0  0  0  0  0  0  0
   -5.2591    0.9115   -1.2647 H   0  0  0  0  0  0  0  0  0  0  0  0
   -4.2531    1.9552   -0.2391 H   0  0  0  0  0  0  0  0  0  0  0  0
   -5.6921    1.1802    0.4752 H   0  0  0  0  0  0  0  0  0  0  0  0
   -4.5864   -2.2390   -0.0444 H   0  0  0  0  0  0  0  0  0  0  0  0
   -3.5407   -1.6406   -1.4051 H   0  0  0  0  0  0  0  0  0  0  0  0
   -5.2482   -1.1037   -1.3418 H   0  0  0  0  0  0  0  0  0  0  0  0
  1  2  1  0
  2  3  1  0
  3  4  1  0
  4  5  1  0
  5  6  2  0
  5  7  1  0
  7  8  2  0
  8  9  1  0
  9 10  1  0
 10 11  2  0
 11 12  1  0
 12 13  1  0
 13 14  1  0
 14 15  1  0
  9 16  1  0
 16 17  2  0
 17 18  1  0
 18 19  2  0
 19 20  1  0
 20 21  2  0
 19 22  1  0
  3 23  1  0
  3 24  1  0
 11  7  1  0
 15 13  1  0
 21 16  1  0
 14 10  1  0
  1 25  1  0
  2 26  1  0
  2 27  1  0
  4 28  1  0
 12 29  1  0
 12 30  1  0
 13 31  1  6
 14 32  1  6
 15 33  1  0
 15 34  1  0
 17 35  1  0
 18 36  1  0
 20 37  1  0
 21 38  1  0
 23 39  1  0
 23 40  1  0
 23 41  1  0
 24 42  1  0
 24 43  1  0
 24 44  1  0
M  END
>  <Ligand ID>  (1) 
LIG0001494

>  <Ligand>  (1) 
CHEMBL3354970

>  <SMILES>  (1) 
OCC(NC(=O)c1nn(c2c1C[C@@H]1[C@H]2C1)c1ccc(cc1)F)(C)C

>  <CID>  (1) 
118720577.0

>  <ChEMBL ID>  (1) 
nan

>  <InChiKey>  (1) 
XSKXHXDVPDTNLO-ZWNOBZJWSA-N

>  <InChi>  (1) 
InChI=1S/C18H20FN3O2/c1-18(2,9-23)20-17(24)15-14-8-10-7-13(10)16(14)22(21-15)12-5-3-11(19)4-6-12/h3-6,10,13,23H,7-9H2,1-2H3,(H,20,24)/t10-,13-/m1/s1

>  <IUPAC Name>  (1) 
(2R,4R)-9-(4-fluorophenyl)-N-(1-hydroxy-2-methylpropan-2-yl)-8,9-diazatricyclo[4.3.0.02,4]nona-1(6),7-diene-7-carboxamide

$$$$
