
     RDKit          3D

 27 26  0  0  0  0  0  0  0  0999 V2000
   -2.3994   -1.4051   -1.2703 N   0  0  0  0  0  0  0  0  0  0  0  0
   -1.2771   -1.0418   -0.3521 C   0  0  2  0  0  0  0  0  0  0  0  0
   -1.8745   -1.0924    1.0146 C   0  0  0  0  0  0  0  0  0  0  0  0
   -1.1481   -0.8247    2.0309 O   0  0  0  0  0  0  0  0  0  0  0  0
   -3.2016   -1.4202    1.2518 O   0  0  0  0  0  0  0  0  0  0  0  0
   -0.8472    0.2944   -0.7716 C   0  0  0  0  0  0  0  0  0  0  0  0
    0.2336    1.0252   -0.1057 C   0  0  2  0  0  0  0  0  0  0  0  0
    0.2882    2.3749   -0.8452 C   0  0  0  0  0  0  0  0  0  0  0  0
    1.3241    2.7389   -1.4441 O   0  0  0  0  0  0  0  0  0  0  0  0
   -0.8129    3.1873   -0.8468 O   0  0  0  0  0  0  0  0  0  0  0  0
    1.6103    0.5031   -0.2248 C   0  0  0  0  0  0  0  0  0  0  0  0
    1.9823   -0.8306    0.2672 C   0  0  0  0  0  0  0  0  0  0  0  0
    3.4581   -0.9303    0.0091 N   0  0  0  0  0  0  0  0  0  0  0  0
   -2.0356   -1.4147   -2.2430 H   0  0  0  0  0  0  0  0  0  0  0  0
   -3.0384   -0.5807   -1.1952 H   0  0  0  0  0  0  0  0  0  0  0  0
   -0.6126   -1.8887   -0.4315 H   0  0  0  0  0  0  0  0  0  0  0  0
   -3.5748   -1.6973    2.1470 H   0  0  0  0  0  0  0  0  0  0  0  0
   -1.8030    0.9232   -0.8540 H   0  0  0  0  0  0  0  0  0  0  0  0
   -0.5823    0.2003   -1.8847 H   0  0  0  0  0  0  0  0  0  0  0  0
    0.0089    1.2487    0.9717 H   0  0  0  0  0  0  0  0  0  0  0  0
   -0.8187    4.1602   -1.1167 H   0  0  0  0  0  0  0  0  0  0  0  0
    1.9164    0.5528   -1.3195 H   0  0  0  0  0  0  0  0  0  0  0  0
    2.3671    1.2230    0.2501 H   0  0  0  0  0  0  0  0  0  0  0  0
    1.8983   -0.8850    1.3695 H   0  0  0  0  0  0  0  0  0  0  0  0
    1.5494   -1.7047   -0.2515 H   0  0  0  0  0  0  0  0  0  0  0  0
    3.5294   -0.9685   -1.0328 H   0  0  0  0  0  0  0  0  0  0  0  0
    3.8601   -1.7473    0.4768 H   0  0  0  0  0  0  0  0  0  0  0  0
  1  2  1  0
  2  3  1  0
  3  4  2  0
  3  5  1  0
  2  6  1  0
  6  7  1  0
  7  8  1  0
  8  9  2  0
  8 10  1  0
  7 11  1  0
 11 12  1  0
 12 13  1  0
  1 14  1  0
  1 15  1  0
  2 16  1  1
  5 17  1  0
  6 18  1  0
  6 19  1  0
  7 20  1  1
 10 21  1  0
 11 22  1  0
 11 23  1  0
 12 24  1  0
 12 25  1  0
 13 26  1  0
 13 27  1  0
M  END
>  <Ligand ID>  (1) 
LIG0000578

>  <Ligand>  (1) 
CHEMBL2312684

>  <SMILES>  (1) 
N[C@H](C(=O)O)C[C@H](C(=O)O)CCN

>  <CID>  (1) 
71574839.0

>  <ChEMBL ID>  (1) 
nan

>  <InChiKey>  (1) 
GCNPPUQKACZOES-UHNVWZDZSA-N

>  <InChi>  (1) 
InChI=1S/C7H14N2O4/c8-2-1-4(6(10)11)3-5(9)7(12)13/h4-5H,1-3,8-9H2,(H,10,11)(H,12,13)/t4-,5+/m1/s1

>  <IUPAC Name>  (1) 
(2S,4R)-2-amino-4-(2-aminoethyl)pentanedioic acid

$$$$
