
     RDKit          3D

 61 65  0  0  0  0  0  0  0  0999 V2000
    7.0491    1.5694   -1.4256 O   0  0  0  0  0  0  0  0  0  0  0  0
    7.4878    1.8875   -0.1696 C   0  0  0  0  0  0  0  0  0  0  0  0
    8.4158    2.7456   -0.0638 O   0  0  0  0  0  0  0  0  0  0  0  0
    6.9684    1.3099    1.0922 C   0  0  0  0  0  0  0  0  0  0  0  0
    5.9362    0.4066    0.8704 O   0  0  0  0  0  0  0  0  0  0  0  0
    4.7149    0.6650    0.2769 C   0  0  0  0  0  0  0  0  0  0  0  0
    4.3276    1.9008   -0.1910 C   0  0  0  0  0  0  0  0  0  0  0  0
    3.0925    2.0791   -0.7702 C   0  0  0  0  0  0  0  0  0  0  0  0
    2.2560    0.9944   -0.8698 C   0  0  0  0  0  0  0  0  0  0  0  0
    2.5827   -0.2652   -0.4222 C   0  0  0  0  0  0  0  0  0  0  0  0
    3.8408   -0.4008    0.1565 C   0  0  0  0  0  0  0  0  0  0  0  0
    4.1971   -1.7583    0.6367 C   0  0  0  0  0  0  0  0  0  0  0  0
    3.0576   -2.4280    1.3585 C   0  0  0  0  0  0  0  0  0  0  0  0
    1.7119   -2.2272    0.7337 C   0  0  0  0  0  0  0  0  0  0  0  0
    1.6970   -1.4430   -0.5259 C   0  0  0  0  0  0  0  0  0  0  0  0
    0.7447   -1.7819    1.7881 C   0  0  0  0  0  0  0  0  0  0  0  0
   -0.5986   -1.5440    1.3406 N   0  0  0  0  0  0  0  0  0  0  0  0
   -1.4187   -2.5806    1.2860 N   0  0  0  0  0  0  0  0  0  0  0  0
   -2.6837   -2.4676    0.8654 C   0  0  0  0  0  0  0  0  0  0  0  0
   -3.2075   -1.2752    0.4660 C   0  0  0  0  0  0  0  0  0  0  0  0
   -2.3795   -0.1662    0.5094 C   0  0  0  0  0  0  0  0  0  0  0  0
   -1.0813   -0.3523    0.9551 C   0  0  0  0  0  0  0  0  0  0  0  0
   -0.3526    0.6710    0.9871 O   0  0  0  0  0  0  0  0  0  0  0  0
   -2.8669    1.1215    0.1035 C   0  0  0  0  0  0  0  0  0  0  0  0
   -2.3279    1.8652   -0.9430 C   0  0  0  0  0  0  0  0  0  0  0  0
   -2.8730    3.0957   -1.2526 C   0  0  0  0  0  0  0  0  0  0  0  0
   -3.9569    3.6225   -0.5434 C   0  0  0  0  0  0  0  0  0  0  0  0
   -4.4908    2.8765    0.4999 C   0  0  0  0  0  0  0  0  0  0  0  0
   -3.9485    1.6481    0.8106 C   0  0  0  0  0  0  0  0  0  0  0  0
   -4.4661    4.8327   -0.8750 F   0  0  0  0  0  0  0  0  0  0  0  0
   -4.5927   -1.2131    0.0152 C   0  0  0  0  0  0  0  0  0  0  0  0
   -5.6195   -1.5146    0.9152 C   0  0  0  0  0  0  0  0  0  0  0  0
   -6.9271   -1.4551    0.4818 C   0  0  0  0  0  0  0  0  0  0  0  0
   -7.2296   -1.1095   -0.8007 C   0  0  0  0  0  0  0  0  0  0  0  0
   -6.2477   -0.8067   -1.7135 C   0  0  0  0  0  0  0  0  0  0  0  0
   -4.9374   -0.8679   -1.2735 C   0  0  0  0  0  0  0  0  0  0  0  0
   -3.9808   -0.5684   -2.1858 F   0  0  0  0  0  0  0  0  0  0  0  0
   -6.5681   -0.4666   -2.9795 F   0  0  0  0  0  0  0  0  0  0  0  0
    7.6998    1.4495   -2.1902 H   0  0  0  0  0  0  0  0  0  0  0  0
    7.8071    0.7675    1.5925 H   0  0  0  0  0  0  0  0  0  0  0  0
    6.6396    2.1309    1.7785 H   0  0  0  0  0  0  0  0  0  0  0  0
    4.9824    2.7432   -0.1055 H   0  0  0  0  0  0  0  0  0  0  0  0
    2.7931    3.0514   -1.1363 H   0  0  0  0  0  0  0  0  0  0  0  0
    1.2745    1.1201   -1.3260 H   0  0  0  0  0  0  0  0  0  0  0  0
    4.5915   -2.3759   -0.1950 H   0  0  0  0  0  0  0  0  0  0  0  0
    5.0234   -1.6317    1.3710 H   0  0  0  0  0  0  0  0  0  0  0  0
    3.0109   -2.0963    2.4225 H   0  0  0  0  0  0  0  0  0  0  0  0
    3.3166   -3.5051    1.4119 H   0  0  0  0  0  0  0  0  0  0  0  0
    1.3535   -3.2710    0.4408 H   0  0  0  0  0  0  0  0  0  0  0  0
    2.0625   -2.1458   -1.3360 H   0  0  0  0  0  0  0  0  0  0  0  0
    0.6873   -1.1019   -0.7607 H   0  0  0  0  0  0  0  0  0  0  0  0
    0.6718   -2.5150    2.6229 H   0  0  0  0  0  0  0  0  0  0  0  0
    1.1689   -0.8275    2.2036 H   0  0  0  0  0  0  0  0  0  0  0  0
   -3.3160   -3.3369    0.8371 H   0  0  0  0  0  0  0  0  0  0  0  0
   -1.4868    1.4429   -1.4840 H   0  0  0  0  0  0  0  0  0  0  0  0
   -2.4241    3.6427   -2.0750 H   0  0  0  0  0  0  0  0  0  0  0  0
   -5.3383    3.2839    1.0581 H   0  0  0  0  0  0  0  0  0  0  0  0
   -4.4119    1.1164    1.6356 H   0  0  0  0  0  0  0  0  0  0  0  0
   -5.4018   -1.7938    1.9479 H   0  0  0  0  0  0  0  0  0  0  0  0
   -7.7564   -1.6823    1.1493 H   0  0  0  0  0  0  0  0  0  0  0  0
   -8.2731   -1.0647   -1.1359 H   0  0  0  0  0  0  0  0  0  0  0  0
  1  2  1  0
  2  3  2  0
  2  4  1  0
  4  5  1  0
  5  6  1  0
  6  7  2  0
  7  8  1  0
  8  9  2  0
  9 10  1  0
 10 11  2  0
 11 12  1  0
 12 13  1  0
 13 14  1  0
 14 15  1  0
 14 16  1  0
 16 17  1  0
 17 18  1  0
 18 19  2  0
 19 20  1  0
 20 21  2  0
 21 22  1  0
 22 23  2  0
 21 24  1  0
 24 25  2  0
 25 26  1  0
 26 27  2  0
 27 28  1  0
 28 29  2  0
 27 30  1  0
 20 31  1  0
 31 32  2  0
 32 33  1  0
 33 34  2  0
 34 35  1  0
 35 36  2  0
 36 37  1  0
 35 38  1  0
 11  6  1  0
 22 17  1  0
 29 24  1  0
 36 31  1  0
 15 10  1  0
  1 39  1  0
  4 40  1  0
  4 41  1  0
  7 42  1  0
  8 43  1  0
  9 44  1  0
 12 45  1  0
 12 46  1  0
 13 47  1  0
 13 48  1  0
 14 49  1  0
 15 50  1  0
 15 51  1  0
 16 52  1  0
 16 53  1  0
 19 54  1  0
 25 55  1  0
 26 56  1  0
 28 57  1  0
 29 58  1  0
 32 59  1  0
 33 60  1  0
 34 61  1  0
M  END
>  <Ligand ID>  (1) 
LIG0003011

>  <Ligand>  (1) 
CHEMBL3398235

>  <SMILES>  (1) 
OC(=O)COc1cccc2c1CCC(C2)Cn1ncc(c(c1=O)c1ccc(cc1)F)c1cccc(c1F)F

>  <CID>  (1) 
118727314.0

>  <ChEMBL ID>  (1) 
nan

>  <InChiKey>  (1) 
MWDJCTOIHXQKCS-UHFFFAOYSA-N

>  <InChi>  (1) 
InChI=1S/C29H23F3N2O4/c30-20-10-8-18(9-11-20)27-23(22-4-2-5-24(31)28(22)32)14-33-34(29(27)37)15-17-7-12-21-19(13-17)3-1-6-25(21)38-16-26(35)36/h1-6,8-11,14,17H,7,12-13,15-16H2,(H,35,36)

>  <IUPAC Name>  (1) 
2-[[6-[[4-(2,3-difluorophenyl)-5-(4-fluorophenyl)-6-oxopyridazin-1-yl]methyl]-5,6,7,8-tetrahydronaphthalen-1-yl]oxy]acetic acid

$$$$
