
     RDKit          3D

 76 82  0  0  0  0  0  0  0  0999 V2000
   -2.9220    1.4157    2.5512 C   0  0  0  0  0  0  0  0  0  0  0  0
   -3.2558    0.3085    1.6658 C   0  0  0  0  0  0  0  0  0  0  0  0
   -3.0589    0.3463    0.2078 C   0  0  1  0  0  0  0  0  0  0  0  0
   -3.8130    1.4494   -0.5069 C   0  0  0  0  0  0  0  0  0  0  0  0
   -3.5083    1.3446   -2.0112 C   0  0  0  0  0  0  0  0  0  0  0  0
   -5.3096    1.2769   -0.3794 C   0  0  0  0  0  0  0  0  0  0  0  0
   -3.4033    2.8451   -0.1505 C   0  0  0  0  0  0  0  0  0  0  0  0
   -1.7307    0.0277   -0.3586 C   0  0  1  0  0  0  0  0  0  0  0  0
   -0.5502    0.8308   -0.0095 C   0  0  0  0  0  0  0  0  0  0  0  0
    0.6416   -0.0073    0.3783 C   0  0  1  0  0  0  0  0  0  0  0  0
    0.2024   -0.9380    1.4996 C   0  0  0  0  0  0  0  0  0  0  0  0
   -0.7979   -1.7584    1.1340 C   0  0  0  0  0  0  0  0  0  0  0  0
   -1.3469   -1.4766   -0.2479 C   0  0  1  0  0  0  0  0  0  0  0  0
   -2.3853   -2.2780   -0.5641 O   0  0  0  0  0  0  0  0  0  0  0  0
   -2.2972   -3.6216   -0.5203 C   0  0  0  0  0  0  0  0  0  0  0  0
   -0.2258   -1.6743   -1.2217 C   0  0  1  0  0  0  0  0  0  0  0  0
    1.0372   -0.9512   -0.7463 C   0  0  1  0  0  0  0  0  0  0  0  0
    1.7775   -0.3672   -1.8726 C   0  0  0  0  0  0  0  0  0  0  0  0
    2.7819    0.6467   -1.4635 C   0  0  0  0  0  0  0  0  0  0  0  0
    2.4599    1.4291   -0.3565 N   0  0  0  0  0  0  0  0  0  0  0  0
    1.8819    0.7176    0.7567 C   0  0  2  0  0  0  0  0  0  0  0  0
    2.9536   -0.2573    1.1901 C   0  0  0  0  0  0  0  0  0  0  0  0
    2.6920   -1.6687    0.9135 C   0  0  0  0  0  0  0  0  0  0  0  0
    1.7350   -2.0110    0.0275 C   0  0  0  0  0  0  0  0  0  0  0  0
    1.2710   -3.2327   -0.3298 C   0  0  0  0  0  0  0  0  0  0  0  0
    0.2758   -3.0222   -1.2648 O   0  0  0  0  0  0  0  0  0  0  0  0
    1.8875   -4.3029    0.3167 C   0  0  0  0  0  0  0  0  0  0  0  0
    1.4693   -5.5796    0.0019 O   0  0  0  0  0  0  0  0  0  0  0  0
    2.8986   -4.0487    1.2531 C   0  0  0  0  0  0  0  0  0  0  0  0
    3.3093   -2.7425    1.5611 C   0  0  0  0  0  0  0  0  0  0  0  0
    2.9587    2.7070   -0.1583 C   0  0  0  0  0  0  0  0  0  0  0  0
    4.4381    2.6870    0.1379 C   0  0  0  0  0  0  0  0  0  0  0  0
    5.4427    2.1493   -0.8029 C   0  0  0  0  0  0  0  0  0  0  0  0
    5.3888    3.6293   -0.4920 C   0  0  0  0  0  0  0  0  0  0  0  0
   -3.8234   -0.8044   -0.2317 O   0  0  0  0  0  0  0  0  0  0  0  0
   -2.2875    1.0038    3.3989 H   0  0  0  0  0  0  0  0  0  0  0  0
   -3.7831    1.8499    3.1247 H   0  0  0  0  0  0  0  0  0  0  0  0
   -2.3533    2.2662    2.2013 H   0  0  0  0  0  0  0  0  0  0  0  0
   -2.7563   -0.6335    2.0522 H   0  0  0  0  0  0  0  0  0  0  0  0
   -4.3458    0.0568    1.9106 H   0  0  0  0  0  0  0  0  0  0  0  0
   -3.6457    0.3502   -2.4165 H   0  0  0  0  0  0  0  0  0  0  0  0
   -2.5577    1.8579   -2.2729 H   0  0  0  0  0  0  0  0  0  0  0  0
   -4.2914    1.9767   -2.5314 H   0  0  0  0  0  0  0  0  0  0  0  0
   -5.8009    2.2508   -0.6762 H   0  0  0  0  0  0  0  0  0  0  0  0
   -5.7365    0.5405   -1.0913 H   0  0  0  0  0  0  0  0  0  0  0  0
   -5.6453    0.9606    0.6285 H   0  0  0  0  0  0  0  0  0  0  0  0
   -3.7126    3.5642   -0.9772 H   0  0  0  0  0  0  0  0  0  0  0  0
   -2.3383    3.0264   -0.0463 H   0  0  0  0  0  0  0  0  0  0  0  0
   -3.9284    3.2724    0.7330 H   0  0  0  0  0  0  0  0  0  0  0  0
   -1.8564    0.1255   -1.4874 H   0  0  0  0  0  0  0  0  0  0  0  0
   -0.6458    1.5778    0.7885 H   0  0  0  0  0  0  0  0  0  0  0  0
   -0.1544    1.4315   -0.8910 H   0  0  0  0  0  0  0  0  0  0  0  0
    0.6530   -0.9269    2.4679 H   0  0  0  0  0  0  0  0  0  0  0  0
   -1.1796   -2.5480    1.7600 H   0  0  0  0  0  0  0  0  0  0  0  0
   -3.3394   -4.0101   -0.7972 H   0  0  0  0  0  0  0  0  0  0  0  0
   -1.6508   -4.1216   -1.2734 H   0  0  0  0  0  0  0  0  0  0  0  0
   -2.1041   -4.0437    0.4840 H   0  0  0  0  0  0  0  0  0  0  0  0
   -0.4758   -1.4055   -2.2496 H   0  0  0  0  0  0  0  0  0  0  0  0
    1.0254    0.0356   -2.5948 H   0  0  0  0  0  0  0  0  0  0  0  0
    2.3253   -1.1952   -2.3839 H   0  0  0  0  0  0  0  0  0  0  0  0
    3.7601    0.1127   -1.2691 H   0  0  0  0  0  0  0  0  0  0  0  0
    3.0135    1.3268   -2.3241 H   0  0  0  0  0  0  0  0  0  0  0  0
    1.6420    1.4693    1.5314 H   0  0  0  0  0  0  0  0  0  0  0  0
    3.9513    0.0252    0.7452 H   0  0  0  0  0  0  0  0  0  0  0  0
    3.1039   -0.0596    2.2856 H   0  0  0  0  0  0  0  0  0  0  0  0
    0.5397   -5.9261    0.2823 H   0  0  0  0  0  0  0  0  0  0  0  0
    3.3839   -4.8976    1.7602 H   0  0  0  0  0  0  0  0  0  0  0  0
    4.0826   -2.5362    2.2792 H   0  0  0  0  0  0  0  0  0  0  0  0
    2.4643    3.3063    0.6376 H   0  0  0  0  0  0  0  0  0  0  0  0
    2.8725    3.3061   -1.1182 H   0  0  0  0  0  0  0  0  0  0  0  0
    4.6731    2.4311    1.2213 H   0  0  0  0  0  0  0  0  0  0  0  0
    5.2632    1.8800   -1.8419 H   0  0  0  0  0  0  0  0  0  0  0  0
    6.3670    1.6571   -0.4000 H   0  0  0  0  0  0  0  0  0  0  0  0
    4.9468    4.2830   -1.2726 H   0  0  0  0  0  0  0  0  0  0  0  0
    6.1752    4.0741    0.1303 H   0  0  0  0  0  0  0  0  0  0  0  0
   -4.7284   -0.7827    0.1014 H   0  0  0  0  0  0  0  0  0  0  0  0
  1  2  1  0
  2  3  1  0
  3  4  1  0
  4  5  1  0
  4  6  1  0
  4  7  1  0
  3  8  1  0
  8  9  1  0
 10  9  1  6
 10 11  1  0
 11 12  2  0
 12 13  1  0
 13 14  1  6
 14 15  1  0
 13 16  1  0
 16 17  1  0
 17 18  1  6
 18 19  1  0
 19 20  1  0
 20 21  1  0
 21 22  1  0
 22 23  1  0
 23 24  1  0
 24 25  2  0
 25 26  1  0
 25 27  1  0
 27 28  1  0
 27 29  2  0
 29 30  1  0
 20 31  1  0
 31 32  1  0
 32 33  1  0
 33 34  1  0
  3 35  1  6
 13  8  1  0
 26 16  1  0
 34 32  1  0
 21 10  1  0
 30 23  2  0
 17 10  1  0
 24 17  1  0
  1 36  1  0
  1 37  1  0
  1 38  1  0
  2 39  1  0
  2 40  1  0
  5 41  1  0
  5 42  1  0
  5 43  1  0
  6 44  1  0
  6 45  1  0
  6 46  1  0
  7 47  1  0
  7 48  1  0
  7 49  1  0
  8 50  1  6
  9 51  1  0
  9 52  1  0
 11 53  1  0
 12 54  1  0
 15 55  1  0
 15 56  1  0
 15 57  1  0
 16 58  1  6
 18 59  1  0
 18 60  1  0
 19 61  1  0
 19 62  1  0
 21 63  1  1
 22 64  1  0
 22 65  1  0
 28 66  1  0
 29 67  1  0
 30 68  1  0
 31 69  1  0
 31 70  1  0
 32 71  1  0
 33 72  1  0
 33 73  1  0
 34 74  1  0
 34 75  1  0
 35 76  1  0
M  END
>  <Ligand ID>  (1) 
LIG0003531

>  <Ligand>  (1) 
CHEMBL3262362

>  <SMILES>  (1) 
CC[C@@](C(C)(C)C)([C@H]1C[C@]23C=C[C@]1(OC)[C@H]1[C@]43CCN([C@@H]2Cc2c4c(O1)c(O)cc2)CC1CC1)O

>  <CID>  (1) 
90656667.0

>  <ChEMBL ID>  (1) 
nan

>  <InChiKey>  (1) 
DCOQKCYIWZVJMA-DKMGXXMGSA-N

>  <InChi>  (1) 
InChI=1S/C30H41NO4/c1-6-30(33,26(2,3)4)21-16-27-11-12-29(21,34-5)25-28(27)13-14-31(17-18-7-8-18)22(27)15-19-9-10-20(32)24(35-25)23(19)28/h9-12,18,21-22,25,32-33H,6-8,13-17H2,1-5H3/t21-,22+,25+,27+,28-,29+,30-/m0/s1

>  <IUPAC Name>  (1) 
(1R,2S,6R,14R,15R,19R)-5-(cyclopropylmethyl)-19-[(3S)-3-hydroxy-2,2-dimethylpentan-3-yl]-15-methoxy-13-oxa-5-azahexacyclo[13.2.2.12,8.01,6.02,14.012,20]icosa-8(20),9,11,16-tetraen-11-ol

$$$$
