
     RDKit          3D

 30 31  0  0  0  0  0  0  0  0999 V2000
   -3.9971    0.1340    0.1892 O   0  0  0  0  0  0  0  0  0  0  0  0
   -3.1495   -0.9628    0.1834 C   0  0  0  0  0  0  0  0  0  0  0  0
   -3.3121   -1.8033    1.1159 O   0  0  0  0  0  0  0  0  0  0  0  0
   -2.1006   -1.2175   -0.8024 C   0  0  1  0  0  0  0  0  0  0  0  0
   -1.0302   -0.1574   -0.8872 C   0  0  2  0  0  0  0  0  0  0  0  0
   -0.2976    0.0226    0.4211 C   0  0  2  0  0  0  0  0  0  0  0  0
   -1.0968    1.1263   -0.1823 C   0  0  1  0  0  0  0  0  0  0  0  0
   -0.3370    2.2971   -0.6156 C   0  0  0  0  0  0  0  0  0  0  0  0
    0.7825    2.2417   -1.2296 O   0  0  0  0  0  0  0  0  0  0  0  0
   -0.7985    3.5906   -0.3800 O   0  0  0  0  0  0  0  0  0  0  0  0
    1.1676   -0.0520    0.3466 C   0  0  0  0  0  0  0  0  0  0  0  0
    1.9113   -0.2152   -0.7931 C   0  0  0  0  0  0  0  0  0  0  0  0
    3.2970   -0.2610   -0.7566 C   0  0  0  0  0  0  0  0  0  0  0  0
    3.9847   -0.1446    0.4287 C   0  0  0  0  0  0  0  0  0  0  0  0
    3.2518    0.0204    1.5910 C   0  0  0  0  0  0  0  0  0  0  0  0
    1.8838    0.0638    1.5376 C   0  0  0  0  0  0  0  0  0  0  0  0
   -1.4735   -2.5113   -0.4691 N   0  0  0  0  0  0  0  0  0  0  0  0
   -4.9224    0.1267    0.5766 H   0  0  0  0  0  0  0  0  0  0  0  0
   -2.5701   -1.3758   -1.7953 H   0  0  0  0  0  0  0  0  0  0  0  0
   -0.5212   -0.1468   -1.8483 H   0  0  0  0  0  0  0  0  0  0  0  0
   -0.7402   -0.3418    1.3811 H   0  0  0  0  0  0  0  0  0  0  0  0
   -2.0634    1.4015    0.3397 H   0  0  0  0  0  0  0  0  0  0  0  0
   -0.4549    4.3592   -0.9410 H   0  0  0  0  0  0  0  0  0  0  0  0
    1.4542   -0.3233   -1.7616 H   0  0  0  0  0  0  0  0  0  0  0  0
    3.8534   -0.3913   -1.6806 H   0  0  0  0  0  0  0  0  0  0  0  0
    5.0594   -0.1812    0.4484 H   0  0  0  0  0  0  0  0  0  0  0  0
    3.7583    0.1163    2.5508 H   0  0  0  0  0  0  0  0  0  0  0  0
    1.3497    0.1944    2.4706 H   0  0  0  0  0  0  0  0  0  0  0  0
   -2.1774   -3.2213   -0.2344 H   0  0  0  0  0  0  0  0  0  0  0  0
   -0.7111   -2.3881    0.2235 H   0  0  0  0  0  0  0  0  0  0  0  0
  1  2  1  0
  2  3  2  0
  2  4  1  0
  4  5  1  0
  5  6  1  0
  6  7  1  0
  7  8  1  0
  8  9  2  0
  8 10  1  0
  6 11  1  0
 11 12  2  0
 12 13  1  0
 13 14  2  0
 14 15  1  0
 15 16  2  0
  4 17  1  0
  7  5  1  0
 16 11  1  0
  1 18  1  0
  4 19  1  6
  5 20  1  6
  6 21  1  1
  7 22  1  1
 10 23  1  0
 12 24  1  0
 13 25  1  0
 14 26  1  0
 15 27  1  0
 16 28  1  0
 17 29  1  0
 17 30  1  0
M  END
>  <Ligand ID>  (1) 
LIG0002584

>  <Ligand>  (1) 
CHEMBL2115159

>  <SMILES>  (1) 
OC(=O)[C@@H]([C@@H]1[C@H]([C@H]1C(=O)O)c1ccccc1)N

>  <CID>  (1) 
10681240.0

>  <ChEMBL ID>  (1) 
nan

>  <InChiKey>  (1) 
IFLWVSHRWAIVQF-ZYUZMQFOSA-N

>  <InChi>  (1) 
InChI=1S/C12H13NO4/c13-10(12(16)17)8-7(9(8)11(14)15)6-4-2-1-3-5-6/h1-5,7-10H,13H2,(H,14,15)(H,16,17)/t7-,8-,9-,10-/m1/s1

>  <IUPAC Name>  (1) 
(1R,2R,3R)-2-[(R)-amino(carboxy)methyl]-3-phenylcyclopropane-1-carboxylic acid

$$$$
