
     RDKit          3D

117121  0  0  0  0  0  0  0  0999 V2000
   -1.2556   -1.7351    0.1251 O   0  0  0  0  0  0  0  0  0  0  0  0
   -1.3567   -1.5067    1.3528 C   0  0  0  0  0  0  0  0  0  0  0  0
   -2.6008   -1.0189    1.9277 N   0  0  0  0  0  0  0  0  0  0  0  0
   -3.7605   -0.8032    1.0892 C   0  0  0  0  0  0  0  0  0  0  0  0
   -4.8479   -0.3052    1.9764 C   0  0  0  0  0  0  0  0  0  0  0  0
   -4.6448   -0.1017    3.2058 O   0  0  0  0  0  0  0  0  0  0  0  0
   -6.1699   -0.0373    1.5019 N   0  0  0  0  0  0  0  0  0  0  0  0
   -7.1080    0.4113    2.4651 C   0  0  0  0  0  0  0  0  0  0  0  0
   -7.8778   -0.5048    3.1914 C   0  0  0  0  0  0  0  0  0  0  0  0
   -8.7903   -0.1183    4.1377 C   0  0  0  0  0  0  0  0  0  0  0  0
   -8.9299    1.2370    4.3574 C   0  0  0  0  0  0  0  0  0  0  0  0
   -8.2094    2.1935    3.6831 C   0  0  0  0  0  0  0  0  0  0  0  0
   -7.2868    1.7599    2.7240 C   0  0  0  0  0  0  0  0  0  0  0  0
   -6.4227   -0.2274    0.1025 C   0  0  0  0  0  0  0  0  0  0  0  0
   -7.3113   -1.4601   -0.0455 C   0  0  0  0  0  0  0  0  0  0  0  0
   -7.9070   -1.5097   -1.4278 C   0  0  0  0  0  0  0  0  0  0  0  0
   -8.7061   -0.3302   -1.7078 N   0  0  0  0  0  0  0  0  0  0  0  0
   -7.7162    0.7557   -1.8270 C   0  0  0  0  0  0  0  0  0  0  0  0
   -7.0135    0.9791   -0.5063 C   0  0  0  0  0  0  0  0  0  0  0  0
   -9.5819   -0.0699   -0.6053 C   0  0  0  0  0  0  0  0  0  0  0  0
  -10.5527    1.0517   -0.8929 C   0  0  0  0  0  0  0  0  0  0  0  0
  -11.4366    0.6851   -2.0572 C   0  0  0  0  0  0  0  0  0  0  0  0
  -12.6258    0.0658   -1.7244 C   0  0  0  0  0  0  0  0  0  0  0  0
  -13.5110   -0.3329   -2.7059 C   0  0  0  0  0  0  0  0  0  0  0  0
  -13.1904   -0.1011   -4.0467 C   0  0  0  0  0  0  0  0  0  0  0  0
  -12.0026    0.5176   -4.3308 C   0  0  0  0  0  0  0  0  0  0  0  0
  -11.0980    0.9249   -3.3558 C   0  0  0  0  0  0  0  0  0  0  0  0
   -0.2538   -1.7078    2.3335 C   0  0  0  0  0  0  0  0  0  0  0  0
    0.9269   -2.2021    1.6743 N   0  0  0  0  0  0  0  0  0  0  0  0
    1.6587   -1.5154    0.6828 C   0  0  0  0  0  0  0  0  0  0  0  0
    1.2800   -0.3631    0.3251 O   0  0  0  0  0  0  0  0  0  0  0  0
    2.8621   -2.1815    0.0903 C   0  0  2  0  0  0  0  0  0  0  0  0
    3.7830   -2.8035    1.0496 C   0  0  0  0  0  0  0  0  0  0  0  0
    4.3512   -1.8811    2.0673 C   0  0  0  0  0  0  0  0  0  0  0  0
    5.4926   -1.1282    1.8602 C   0  0  0  0  0  0  0  0  0  0  0  0
    5.9493   -0.2740    2.8532 C   0  0  0  0  0  0  0  0  0  0  0  0
    5.3218   -0.1243    4.0673 C   0  0  0  0  0  0  0  0  0  0  0  0
    4.1847   -0.8751    4.2779 C   0  0  0  0  0  0  0  0  0  0  0  0
    3.7079   -1.7396    3.2938 C   0  0  0  0  0  0  0  0  0  0  0  0
    3.5433   -1.4009   -0.8968 N   0  0  0  0  0  0  0  0  0  0  0  0
    2.9729   -0.8597   -2.0696 C   0  0  0  0  0  0  0  0  0  0  0  0
    1.7249   -1.0854   -2.2348 O   0  0  0  0  0  0  0  0  0  0  0  0
    3.6401   -0.0801   -3.1056 C   0  0  0  0  0  0  0  0  0  0  0  0
    5.0455    0.1553   -2.9784 N   0  0  0  0  0  0  0  0  0  0  0  0
    5.7331    0.8438   -1.9786 C   0  0  0  0  0  0  0  0  0  0  0  0
    5.1271    1.3687   -1.0168 O   0  0  0  0  0  0  0  0  0  0  0  0
    7.2353    0.9156   -2.1174 C   0  0  2  0  0  0  0  0  0  0  0  0
    7.8166    1.5205   -0.9583 N   0  0  0  0  0  0  0  0  0  0  0  0
    8.7439    0.7257   -0.1980 C   0  0  0  0  0  0  0  0  0  0  0  0
    9.0137   -0.4696   -0.5684 O   0  0  0  0  0  0  0  0  0  0  0  0
    9.4296    1.1953    1.0120 C   0  0  2  0  0  0  0  0  0  0  0  0
   10.4510    2.2801    0.7012 C   0  0  0  0  0  0  0  0  0  0  0  0
   11.4871    1.7643   -0.2372 C   0  0  0  0  0  0  0  0  0  0  0  0
   12.6435    1.1684    0.2568 C   0  0  0  0  0  0  0  0  0  0  0  0
   13.6176    0.6754   -0.6177 C   0  0  0  0  0  0  0  0  0  0  0  0
   13.3991    0.7973   -1.9781 C   0  0  0  0  0  0  0  0  0  0  0  0
   12.2656    1.3812   -2.5078 C   0  0  0  0  0  0  0  0  0  0  0  0
   11.3208    1.8591   -1.6274 C   0  0  0  0  0  0  0  0  0  0  0  0
   14.3804    0.3029   -2.8174 O   0  0  0  0  0  0  0  0  0  0  0  0
   10.1426    0.0180    1.5484 N   0  0  0  0  0  0  0  0  0  0  0  0
    7.5994    1.6694   -3.3892 C   0  0  0  0  0  0  0  0  0  0  0  0
   -2.6364   -0.8259    2.9762 H   0  0  0  0  0  0  0  0  0  0  0  0
   -3.4760   -0.0723    0.3183 H   0  0  0  0  0  0  0  0  0  0  0  0
   -4.1010   -1.7705    0.6173 H   0  0  0  0  0  0  0  0  0  0  0  0
   -7.7742   -1.5816    3.0369 H   0  0  0  0  0  0  0  0  0  0  0  0
   -9.3934   -0.7928    4.7138 H   0  0  0  0  0  0  0  0  0  0  0  0
   -9.6547    1.5348    5.1097 H   0  0  0  0  0  0  0  0  0  0  0  0
   -8.3723    3.2342    3.9059 H   0  0  0  0  0  0  0  0  0  0  0  0
   -6.7399    2.5368    2.2165 H   0  0  0  0  0  0  0  0  0  0  0  0
   -5.4254   -0.5062   -0.3526 H   0  0  0  0  0  0  0  0  0  0  0  0
   -6.6485   -2.3412    0.0696 H   0  0  0  0  0  0  0  0  0  0  0  0
   -8.1082   -1.5451    0.6758 H   0  0  0  0  0  0  0  0  0  0  0  0
   -8.5944   -2.3770   -1.4353 H   0  0  0  0  0  0  0  0  0  0  0  0
   -7.1454   -1.6683   -2.2065 H   0  0  0  0  0  0  0  0  0  0  0  0
   -8.3161    1.6659   -2.0446 H   0  0  0  0  0  0  0  0  0  0  0  0
   -7.0471    0.5390   -2.6633 H   0  0  0  0  0  0  0  0  0  0  0  0
   -7.6669    1.5734    0.1612 H   0  0  0  0  0  0  0  0  0  0  0  0
   -6.1609    1.6843   -0.7371 H   0  0  0  0  0  0  0  0  0  0  0  0
   -9.0938    0.1604    0.3516 H   0  0  0  0  0  0  0  0  0  0  0  0
  -10.2055   -0.9779   -0.4592 H   0  0  0  0  0  0  0  0  0  0  0  0
  -10.0914    2.0099   -1.1251 H   0  0  0  0  0  0  0  0  0  0  0  0
  -11.1673    1.1953    0.0304 H   0  0  0  0  0  0  0  0  0  0  0  0
  -12.8913   -0.1189   -0.6918 H   0  0  0  0  0  0  0  0  0  0  0  0
  -14.4458   -0.8227   -2.4349 H   0  0  0  0  0  0  0  0  0  0  0  0
  -13.8742   -0.4078   -4.8480 H   0  0  0  0  0  0  0  0  0  0  0  0
  -11.7513    0.7023   -5.3793 H   0  0  0  0  0  0  0  0  0  0  0  0
  -10.1560    1.4161   -3.6010 H   0  0  0  0  0  0  0  0  0  0  0  0
   -0.0955   -0.7076    2.8016 H   0  0  0  0  0  0  0  0  0  0  0  0
   -0.5915   -2.4253    3.1040 H   0  0  0  0  0  0  0  0  0  0  0  0
    1.2705   -3.1654    1.9535 H   0  0  0  0  0  0  0  0  0  0  0  0
    2.3279   -2.9831   -0.5384 H   0  0  0  0  0  0  0  0  0  0  0  0
    4.6588   -3.2768    0.5517 H   0  0  0  0  0  0  0  0  0  0  0  0
    3.2811   -3.6557    1.5932 H   0  0  0  0  0  0  0  0  0  0  0  0
    6.0782   -1.1609    0.9633 H   0  0  0  0  0  0  0  0  0  0  0  0
    6.8504    0.3390    2.7107 H   0  0  0  0  0  0  0  0  0  0  0  0
    5.7028    0.5556    4.8293 H   0  0  0  0  0  0  0  0  0  0  0  0
    3.6451   -0.8007    5.2247 H   0  0  0  0  0  0  0  0  0  0  0  0
    2.8262   -2.2974    3.5634 H   0  0  0  0  0  0  0  0  0  0  0  0
    4.5637   -1.2293   -0.7568 H   0  0  0  0  0  0  0  0  0  0  0  0
    3.3697   -0.3966   -4.1380 H   0  0  0  0  0  0  0  0  0  0  0  0
    3.1642    0.9614   -3.0361 H   0  0  0  0  0  0  0  0  0  0  0  0
    5.6486   -0.2616   -3.7631 H   0  0  0  0  0  0  0  0  0  0  0  0
    7.6538   -0.1099   -2.2311 H   0  0  0  0  0  0  0  0  0  0  0  0
    7.6479    2.4766   -0.6009 H   0  0  0  0  0  0  0  0  0  0  0  0
    8.7844    1.5614    1.8230 H   0  0  0  0  0  0  0  0  0  0  0  0
    9.9124    3.1308    0.2488 H   0  0  0  0  0  0  0  0  0  0  0  0
   10.9578    2.6306    1.6089 H   0  0  0  0  0  0  0  0  0  0  0  0
   12.8083    1.0788    1.3413 H   0  0  0  0  0  0  0  0  0  0  0  0
   14.5124    0.2129   -0.2665 H   0  0  0  0  0  0  0  0  0  0  0  0
   12.1706    1.4401   -3.5883 H   0  0  0  0  0  0  0  0  0  0  0  0
   10.4452    2.3131   -2.0416 H   0  0  0  0  0  0  0  0  0  0  0  0
   15.3625    0.4754   -2.5988 H   0  0  0  0  0  0  0  0  0  0  0  0
   10.8223   -0.3579    0.8774 H   0  0  0  0  0  0  0  0  0  0  0  0
    9.4963   -0.6529    1.9848 H   0  0  0  0  0  0  0  0  0  0  0  0
    7.7437    2.7540   -3.1740 H   0  0  0  0  0  0  0  0  0  0  0  0
    8.4817    1.2044   -3.8233 H   0  0  0  0  0  0  0  0  0  0  0  0
    6.7544    1.5338   -4.0908 H   0  0  0  0  0  0  0  0  0  0  0  0
  1  2  2  0
  2  3  1  0
  3  4  1  0
  4  5  1  0
  5  6  2  0
  5  7  1  0
  7  8  1  0
  8  9  2  0
  9 10  1  0
 10 11  2  0
 11 12  1  0
 12 13  2  0
  7 14  1  0
 14 15  1  0
 15 16  1  0
 16 17  1  0
 17 18  1  0
 18 19  1  0
 17 20  1  0
 20 21  1  0
 21 22  1  0
 22 23  2  0
 23 24  1  0
 24 25  2  0
 25 26  1  0
 26 27  2  0
  2 28  1  0
 28 29  1  0
 29 30  1  0
 30 31  2  0
 30 32  1  0
 32 33  1  0
 33 34  1  0
 34 35  2  0
 35 36  1  0
 36 37  2  0
 37 38  1  0
 38 39  2  0
 32 40  1  0
 40 41  1  0
 41 42  2  0
 41 43  1  0
 43 44  1  0
 44 45  1  0
 45 46  2  0
 45 47  1  0
 47 48  1  0
 48 49  1  0
 49 50  2  0
 49 51  1  0
 51 52  1  0
 52 53  1  0
 53 54  2  0
 54 55  1  0
 55 56  2  0
 56 57  1  0
 57 58  2  0
 56 59  1  0
 51 60  1  0
 47 61  1  0
 13  8  1  0
 19 14  1  0
 27 22  1  0
 39 34  1  0
 58 53  1  0
  3 62  1  0
  4 63  1  0
  4 64  1  0
  9 65  1  0
 10 66  1  0
 11 67  1  0
 12 68  1  0
 13 69  1  0
 14 70  1  0
 15 71  1  0
 15 72  1  0
 16 73  1  0
 16 74  1  0
 18 75  1  0
 18 76  1  0
 19 77  1  0
 19 78  1  0
 20 79  1  0
 20 80  1  0
 21 81  1  0
 21 82  1  0
 23 83  1  0
 24 84  1  0
 25 85  1  0
 26 86  1  0
 27 87  1  0
 28 88  1  0
 28 89  1  0
 29 90  1  0
 32 91  1  6
 33 92  1  0
 33 93  1  0
 35 94  1  0
 36 95  1  0
 37 96  1  0
 38 97  1  0
 39 98  1  0
 40 99  1  0
 43100  1  0
 43101  1  0
 44102  1  0
 47103  1  6
 48104  1  0
 51105  1  1
 52106  1  0
 52107  1  0
 54108  1  0
 55109  1  0
 57110  1  0
 58111  1  0
 59112  1  0
 60113  1  0
 60114  1  0
 61115  1  0
 61116  1  0
 61117  1  0
M  END
>  <Ligand ID>  (1) 
LIG0005394

>  <Ligand>  (1) 
CHEMBL2387210

>  <SMILES>  (1) 
O=C(NCC(=O)N(c1ccccc1)C1CCN(CC1)CCc1ccccc1)CNC(=O)[C@H](Cc1ccccc1)NC(=O)CNC(=O)[C@H](NC(=O)[C@H](Cc1ccc(cc1)O)N)C

>  <CID>  (1) 
73354965.0

>  <ChEMBL ID>  (1) 
nan

>  <InChiKey>  (1) 
ZXXWQHJJTYRVST-JURIQKAMSA-N

>  <InChi>  (1) 
InChI=1S/C46H56N8O7/c1-32(51-45(60)39(47)27-35-17-19-38(55)20-18-35)44(59)49-30-42(57)52-40(28-34-13-7-3-8-14-34)46(61)50-29-41(56)48-31-43(58)54(36-15-9-4-10-16-36)37-22-25-53(26-23-37)24-21-33-11-5-2-6-12-33/h2-20,32,37,39-40,55H,21-31,47H2,1H3,(H,48,56)(H,49,59)(H,50,61)(H,51,60)(H,52,57)/t32-,39+,40+/m1/s1

>  <IUPAC Name>  (1) 
(2S)-2-amino-3-(4-hydroxyphenyl)-N-[(2R)-1-oxo-1-[[2-oxo-2-[[(2S)-1-oxo-1-[[2-oxo-2-[[2-oxo-2-(N-[1-(2-phenylethyl)piperidin-4-yl]anilino)ethyl]amino]ethyl]amino]-3-phenylpropan-2-yl]amino]ethyl]amino]propan-2-yl]propanamide

$$$$
