
     RDKit          3D

 24 25  0  0  0  0  0  0  0  0999 V2000
   -3.8400    0.1509    0.3653 N   0  0  0  0  0  0  0  0  0  0  0  0
   -2.7336    0.4532   -0.5069 C   0  0  0  0  0  0  0  0  0  0  0  0
   -1.4540    0.2587    0.2711 C   0  0  1  0  0  0  0  0  0  0  0  0
   -1.2007   -1.1349    0.8271 C   0  0  0  0  0  0  0  0  0  0  0  0
   -0.4043   -0.6818   -0.3049 C   0  0  2  0  0  0  0  0  0  0  0  0
    0.9637   -0.1647   -0.2455 C   0  0  0  0  0  0  0  0  0  0  0  0
    1.3006    1.1642   -0.0854 C   0  0  0  0  0  0  0  0  0  0  0  0
    2.6121    1.6060   -0.0355 C   0  0  0  0  0  0  0  0  0  0  0  0
    3.6348    0.6870   -0.1497 C   0  0  0  0  0  0  0  0  0  0  0  0
    3.3315   -0.6581   -0.3119 C   0  0  0  0  0  0  0  0  0  0  0  0
    2.0044   -1.0928   -0.3608 C   0  0  0  0  0  0  0  0  0  0  0  0
    1.6800   -2.8042   -0.5673 Cl  0  0  0  0  0  0  0  0  0  0  0  0
    4.9301    1.0849   -0.1052 F   0  0  0  0  0  0  0  0  0  0  0  0
   -4.1412   -0.8310    0.3483 H   0  0  0  0  0  0  0  0  0  0  0  0
   -3.8185    0.6006    1.2866 H   0  0  0  0  0  0  0  0  0  0  0  0
   -2.8420    1.4857   -0.8358 H   0  0  0  0  0  0  0  0  0  0  0  0
   -2.8257   -0.2213   -1.3827 H   0  0  0  0  0  0  0  0  0  0  0  0
   -1.1701    1.1304    0.8656 H   0  0  0  0  0  0  0  0  0  0  0  0
   -1.9591   -1.9211    0.6586 H   0  0  0  0  0  0  0  0  0  0  0  0
   -0.8501   -1.1189    1.8761 H   0  0  0  0  0  0  0  0  0  0  0  0
   -0.6412   -1.1408   -1.2990 H   0  0  0  0  0  0  0  0  0  0  0  0
    0.5108    1.8920    0.0046 H   0  0  0  0  0  0  0  0  0  0  0  0
    2.8083    2.6777    0.0938 H   0  0  0  0  0  0  0  0  0  0  0  0
    4.1043   -1.4218   -0.4066 H   0  0  0  0  0  0  0  0  0  0  0  0
  1  2  1  0
  2  3  1  0
  3  4  1  0
  4  5  1  0
  5  6  1  0
  6  7  2  0
  7  8  1  0
  8  9  2  0
  9 10  1  0
 10 11  2  0
 11 12  1  0
  9 13  1  0
  5  3  1  0
 11  6  1  0
  1 14  1  0
  1 15  1  0
  2 16  1  0
  2 17  1  0
  3 18  1  1
  4 19  1  0
  4 20  1  0
  5 21  1  6
  7 22  1  0
  8 23  1  0
 10 24  1  0
M  END
>  <Ligand ID>  (1) 
LIG0002360

>  <Ligand>  (1) 
CHEMBL451232

>  <SMILES>  (1) 
NC[C@H]1C[C@@H]1c1ccc(cc1Cl)F

>  <CID>  (1) 
44572166.0

>  <ChEMBL ID>  (1) 
nan

>  <InChiKey>  (1) 
ZKKSFFWCPNXRRU-MUWHJKNJSA-N

>  <InChi>  (1) 
InChI=1S/C10H11ClFN/c11-10-4-7(12)1-2-8(10)9-3-6(9)5-13/h1-2,4,6,9H,3,5,13H2/t6-,9+/m1/s1

>  <IUPAC Name>  (1) 
[(1S,2S)-2-(2-chloro-4-fluorophenyl)cyclopropyl]methanamine

$$$$
