
     RDKit          3D

 63 65  0  0  0  0  0  0  0  0999 V2000
   -4.6726    1.4005   -1.2626 O   0  0  0  0  0  0  0  0  0  0  0  0
   -4.7235    0.4447   -0.4308 C   0  0  0  0  0  0  0  0  0  0  0  0
   -6.0080   -0.2337   -0.2548 C   0  0  2  0  0  0  0  0  0  0  0  0
   -5.9983   -1.6945   -0.5575 C   0  0  0  0  0  0  0  0  0  0  0  0
   -7.2748   -2.2083   -0.3575 O   0  0  0  0  0  0  0  0  0  0  0  0
   -7.3324   -3.8670   -0.6777 P   0  0  0  0  0  0  0  0  0  0  0  0
   -8.4779   -4.5294    0.0611 O   0  0  0  0  0  0  0  0  0  0  0  0
   -5.9033   -4.5407   -0.0397 O   0  0  0  0  0  0  0  0  0  0  0  0
   -7.4752   -4.1831   -2.3241 O   0  0  0  0  0  0  0  0  0  0  0  0
   -6.9645    0.4120   -1.1583 N   0  0  0  0  0  0  0  0  0  0  0  0
   -6.5839   -0.0508    1.1353 C   0  0  0  0  0  0  0  0  0  0  0  0
   -3.5456    0.1101    0.2575 N   0  0  0  0  0  0  0  0  0  0  0  0
   -2.3436    0.8380    0.0110 C   0  0  0  0  0  0  0  0  0  0  0  0
   -2.1474    1.9564    0.8301 C   0  0  0  0  0  0  0  0  0  0  0  0
   -1.0091    2.7203    0.6607 C   0  0  0  0  0  0  0  0  0  0  0  0
   -0.0886    2.3680   -0.3104 C   0  0  0  0  0  0  0  0  0  0  0  0
   -0.2905    1.2592   -1.1172 C   0  0  0  0  0  0  0  0  0  0  0  0
   -1.4333    0.4780   -0.9593 C   0  0  0  0  0  0  0  0  0  0  0  0
    1.0338    3.1761   -0.4302 O   0  0  0  0  0  0  0  0  0  0  0  0
    1.9863    2.8341   -1.4162 C   0  0  0  0  0  0  0  0  0  0  0  0
    3.1498    3.8032   -1.4255 C   0  0  0  0  0  0  0  0  0  0  0  0
    3.8508    3.7945   -0.0670 C   0  0  0  0  0  0  0  0  0  0  0  0
    4.3662    2.4167    0.2310 C   0  0  0  0  0  0  0  0  0  0  0  0
    3.6384    1.4714    0.8923 C   0  0  0  0  0  0  0  0  0  0  0  0
    4.1612    0.2212    1.1372 C   0  0  0  0  0  0  0  0  0  0  0  0
    5.4228   -0.1056    0.7244 C   0  0  0  0  0  0  0  0  0  0  0  0
    6.1938    0.8297    0.0487 C   0  0  0  0  0  0  0  0  0  0  0  0
    5.6401    2.0716   -0.1800 C   0  0  0  0  0  0  0  0  0  0  0  0
    5.9314   -1.4351    1.0043 C   0  0  0  0  0  0  0  0  0  0  0  0
    6.8336   -1.9643    0.0747 C   0  0  0  0  0  0  0  0  0  0  0  0
    7.3626   -3.2257    0.2710 C   0  0  0  0  0  0  0  0  0  0  0  0
    6.9966   -3.9504    1.3801 C   0  0  0  0  0  0  0  0  0  0  0  0
    6.1097   -3.4535    2.3121 C   0  0  0  0  0  0  0  0  0  0  0  0
    5.5802   -2.1799    2.1071 C   0  0  0  0  0  0  0  0  0  0  0  0
   -5.6313   -1.9711   -1.5573 H   0  0  0  0  0  0  0  0  0  0  0  0
   -5.2906   -2.2071    0.1568 H   0  0  0  0  0  0  0  0  0  0  0  0
   -5.9472   -4.4106    0.9436 H   0  0  0  0  0  0  0  0  0  0  0  0
   -8.3283   -4.6725   -2.5039 H   0  0  0  0  0  0  0  0  0  0  0  0
   -6.4661    0.4661   -2.0970 H   0  0  0  0  0  0  0  0  0  0  0  0
   -7.0627    1.4042   -0.8429 H   0  0  0  0  0  0  0  0  0  0  0  0
   -7.7017   -0.0139    1.0754 H   0  0  0  0  0  0  0  0  0  0  0  0
   -6.2866   -0.8963    1.7726 H   0  0  0  0  0  0  0  0  0  0  0  0
   -6.2765    0.9400    1.5294 H   0  0  0  0  0  0  0  0  0  0  0  0
   -3.5796   -0.6864    0.9526 H   0  0  0  0  0  0  0  0  0  0  0  0
   -2.8723    2.2321    1.5930 H   0  0  0  0  0  0  0  0  0  0  0  0
   -0.8869    3.5799    1.3110 H   0  0  0  0  0  0  0  0  0  0  0  0
    0.4392    1.0064   -1.8642 H   0  0  0  0  0  0  0  0  0  0  0  0
   -1.6168   -0.3907   -1.5729 H   0  0  0  0  0  0  0  0  0  0  0  0
    2.4221    1.8264   -1.2517 H   0  0  0  0  0  0  0  0  0  0  0  0
    1.4712    2.9327   -2.3982 H   0  0  0  0  0  0  0  0  0  0  0  0
    3.9263    3.4981   -2.1545 H   0  0  0  0  0  0  0  0  0  0  0  0
    2.8701    4.8408   -1.6417 H   0  0  0  0  0  0  0  0  0  0  0  0
    3.1666    4.1059    0.7458 H   0  0  0  0  0  0  0  0  0  0  0  0
    4.7373    4.4574   -0.1235 H   0  0  0  0  0  0  0  0  0  0  0  0
    2.6439    1.6948    1.2308 H   0  0  0  0  0  0  0  0  0  0  0  0
    3.5628   -0.5117    1.6644 H   0  0  0  0  0  0  0  0  0  0  0  0
    7.2005    0.5966   -0.2911 H   0  0  0  0  0  0  0  0  0  0  0  0
    6.2397    2.8191   -0.7130 H   0  0  0  0  0  0  0  0  0  0  0  0
    7.1177   -1.3834   -0.8006 H   0  0  0  0  0  0  0  0  0  0  0  0
    8.0521   -3.5803   -0.4787 H   0  0  0  0  0  0  0  0  0  0  0  0
    7.4239   -4.9315    1.5090 H   0  0  0  0  0  0  0  0  0  0  0  0
    5.8088   -4.0042    3.1890 H   0  0  0  0  0  0  0  0  0  0  0  0
    4.8796   -1.7245    2.7943 H   0  0  0  0  0  0  0  0  0  0  0  0
  1  2  2  0
  2  3  1  0
  3  4  1  0
  4  5  1  0
  5  6  1  0
  6  7  2  0
  6  8  1  0
  6  9  1  0
  3 10  1  6
  3 11  1  0
  2 12  1  0
 12 13  1  0
 13 14  2  0
 14 15  1  0
 15 16  2  0
 16 17  1  0
 17 18  2  0
 16 19  1  0
 19 20  1  0
 20 21  1  0
 21 22  1  0
 22 23  1  0
 23 24  2  0
 24 25  1  0
 25 26  2  0
 26 27  1  0
 27 28  2  0
 26 29  1  0
 29 30  2  0
 30 31  1  0
 31 32  2  0
 32 33  1  0
 33 34  2  0
 18 13  1  0
 28 23  1  0
 34 29  1  0
  4 35  1  0
  4 36  1  0
  8 37  1  0
  9 38  1  0
 10 39  1  0
 10 40  1  0
 11 41  1  0
 11 42  1  0
 11 43  1  0
 12 44  1  0
 14 45  1  0
 15 46  1  0
 17 47  1  0
 18 48  1  0
 20 49  1  0
 20 50  1  0
 21 51  1  0
 21 52  1  0
 22 53  1  0
 22 54  1  0
 24 55  1  0
 25 56  1  0
 27 57  1  0
 28 58  1  0
 30 59  1  0
 31 60  1  0
 32 61  1  0
 33 62  1  0
 34 63  1  0
M  END
>  <Ligand ID>  (1) 
LIG0005097

>  <Ligand>  (1) 
CHEMBL473238

>  <SMILES>  (1) 
O=C([C@](COP(=O)(O)O)(N)C)Nc1ccc(cc1)OCCCc1ccc(cc1)c1ccccc1

>  <CID>  (1) 
44565714.0

>  <ChEMBL ID>  (1) 
nan

>  <InChiKey>  (1) 
TXFZSDIRXYGOOU-VWLOTQADSA-N

>  <InChi>  (1) 
InChI=1S/C25H29N2O6P/c1-25(26,18-33-34(29,30)31)24(28)27-22-13-15-23(16-14-22)32-17-5-6-19-9-11-21(12-10-19)20-7-3-2-4-8-20/h2-4,7-16H,5-6,17-18,26H2,1H3,(H,27,28)(H2,29,30,31)/t25-/m0/s1

>  <IUPAC Name>  (1) 
[(2S)-2-amino-2-methyl-3-oxo-3-[4-[3-(4-phenylphenyl)propoxy]anilino]propyl] dihydrogen phosphate

$$$$
