
     RDKit          3D

 51 54  0  0  0  0  0  0  0  0999 V2000
    1.8996    0.8897    0.9624 O   0  0  0  0  0  0  0  0  0  0  0  0
    1.6733    0.0794    0.0189 C   0  0  0  0  0  0  0  0  0  0  0  0
    0.3679   -0.3371   -0.2788 N   0  0  0  0  0  0  0  0  0  0  0  0
    0.1067   -1.2679   -1.3633 C   0  0  0  0  0  0  0  0  0  0  0  0
   -0.7975   -2.3206   -0.8174 C   0  0  2  0  0  0  0  0  0  0  0  0
   -1.3410   -3.2614   -1.8616 C   0  0  0  0  0  0  0  0  0  0  0  0
   -2.5669   -3.8036   -1.1499 C   0  0  0  0  0  0  0  0  0  0  0  0
   -2.6689   -2.9964    0.1415 C   0  0  0  0  0  0  0  0  0  0  0  0
   -2.0528   -1.7484   -0.3048 N   0  0  0  0  0  0  0  0  0  0  0  0
   -1.8092   -0.8464    0.7806 C   0  0  0  0  0  0  0  0  0  0  0  0
   -0.7516    0.1607    0.4988 C   0  0  2  0  0  0  0  0  0  0  0  0
   -1.2363    1.3859   -0.2358 C   0  0  0  0  0  0  0  0  0  0  0  0
   -2.3795    2.0566    0.3865 C   0  0  0  0  0  0  0  0  0  0  0  0
   -3.7034    1.7677    0.1093 C   0  0  0  0  0  0  0  0  0  0  0  0
   -4.7526    2.4393    0.7332 C   0  0  0  0  0  0  0  0  0  0  0  0
   -4.4477    3.4184    1.6517 C   0  0  0  0  0  0  0  0  0  0  0  0
   -3.1464    3.7144    1.9354 C   0  0  0  0  0  0  0  0  0  0  0  0
   -2.1107    3.0564    1.3242 C   0  0  0  0  0  0  0  0  0  0  0  0
    2.8372   -0.4195   -0.7671 C   0  0  0  0  0  0  0  0  0  0  0  0
    4.1115    0.1567   -0.2746 C   0  0  0  0  0  0  0  0  0  0  0  0
    4.5394    1.3442   -0.8397 C   0  0  0  0  0  0  0  0  0  0  0  0
    5.7078    1.9762   -0.4644 C   0  0  0  0  0  0  0  0  0  0  0  0
    6.4784    1.3932    0.5180 C   0  0  0  0  0  0  0  0  0  0  0  0
    6.0521    0.2199    1.0738 C   0  0  0  0  0  0  0  0  0  0  0  0
    4.8834   -0.4240    0.7070 C   0  0  0  0  0  0  0  0  0  0  0  0
   -0.3333   -0.7351   -2.2333 H   0  0  0  0  0  0  0  0  0  0  0  0
    1.0448   -1.7470   -1.6417 H   0  0  0  0  0  0  0  0  0  0  0  0
   -0.2811   -2.8848   -0.0402 H   0  0  0  0  0  0  0  0  0  0  0  0
   -0.6333   -4.0698   -2.1332 H   0  0  0  0  0  0  0  0  0  0  0  0
   -1.6954   -2.7102   -2.7531 H   0  0  0  0  0  0  0  0  0  0  0  0
   -2.4880   -4.8957   -0.9562 H   0  0  0  0  0  0  0  0  0  0  0  0
   -3.4985   -3.5984   -1.7157 H   0  0  0  0  0  0  0  0  0  0  0  0
   -1.9906   -3.4686    0.8807 H   0  0  0  0  0  0  0  0  0  0  0  0
   -3.7082   -2.8722    0.4886 H   0  0  0  0  0  0  0  0  0  0  0  0
   -2.7570   -0.3359    1.0090 H   0  0  0  0  0  0  0  0  0  0  0  0
   -1.5075   -1.4292    1.6908 H   0  0  0  0  0  0  0  0  0  0  0  0
   -0.3525    0.4962    1.4849 H   0  0  0  0  0  0  0  0  0  0  0  0
   -0.3834    2.0961   -0.2870 H   0  0  0  0  0  0  0  0  0  0  0  0
   -1.4971    1.1470   -1.2865 H   0  0  0  0  0  0  0  0  0  0  0  0
   -3.9235    0.9873   -0.6225 H   0  0  0  0  0  0  0  0  0  0  0  0
   -5.7947    2.2102    0.5134 H   0  0  0  0  0  0  0  0  0  0  0  0
   -5.2118    3.9829    2.1767 H   0  0  0  0  0  0  0  0  0  0  0  0
   -2.8619    4.4874    2.6604 H   0  0  0  0  0  0  0  0  0  0  0  0
   -1.0797    3.3000    1.5573 H   0  0  0  0  0  0  0  0  0  0  0  0
    2.6828   -0.1090   -1.8135 H   0  0  0  0  0  0  0  0  0  0  0  0
    2.8374   -1.5275   -0.6974 H   0  0  0  0  0  0  0  0  0  0  0  0
    3.9387    1.8086   -1.6129 H   0  0  0  0  0  0  0  0  0  0  0  0
    5.9725    2.9038   -0.9556 H   0  0  0  0  0  0  0  0  0  0  0  0
    7.3844    1.8980    0.7983 H   0  0  0  0  0  0  0  0  0  0  0  0
    6.6856   -0.2139    1.8480 H   0  0  0  0  0  0  0  0  0  0  0  0
    4.5589   -1.3537    1.1570 H   0  0  0  0  0  0  0  0  0  0  0  0
  1  2  2  0
  2  3  1  0
  3  4  1  0
  4  5  1  0
  5  6  1  0
  6  7  1  0
  7  8  1  0
  8  9  1  0
  9 10  1  0
 10 11  1  0
 11 12  1  0
 12 13  1  0
 13 14  2  0
 14 15  1  0
 15 16  2  0
 16 17  1  0
 17 18  2  0
  2 19  1  0
 19 20  1  0
 20 21  2  0
 21 22  1  0
 22 23  2  0
 23 24  1  0
 24 25  2  0
 11  3  1  0
 18 13  1  0
 25 20  1  0
  9  5  1  0
  4 26  1  0
  4 27  1  0
  5 28  1  1
  6 29  1  0
  6 30  1  0
  7 31  1  0
  7 32  1  0
  8 33  1  0
  8 34  1  0
 10 35  1  0
 10 36  1  0
 11 37  1  1
 12 38  1  0
 12 39  1  0
 14 40  1  0
 15 41  1  0
 16 42  1  0
 17 43  1  0
 18 44  1  0
 19 45  1  0
 19 46  1  0
 21 47  1  0
 22 48  1  0
 23 49  1  0
 24 50  1  0
 25 51  1  0
M  END
>  <Ligand ID>  (1) 
LIG0001307

>  <Ligand>  (1) 
CHEMBL218748

>  <SMILES>  (1) 
O=C(N1C[C@@H]2CCCN2C[C@@H]1Cc1ccccc1)Cc1ccccc1

>  <CID>  (1) 
44418430.0

>  <ChEMBL ID>  (1) 
nan

>  <InChiKey>  (1) 
QXRXXIKAVZAGHZ-SFTDATJTSA-N

>  <InChi>  (1) 
InChI=1S/C22H26N2O/c25-22(15-19-10-5-2-6-11-19)24-17-20-12-7-13-23(20)16-21(24)14-18-8-3-1-4-9-18/h1-6,8-11,20-21H,7,12-17H2/t20-,21-/m0/s1

>  <IUPAC Name>  (1) 
1-[(3S,8aS)-3-benzyl-3,4,6,7,8,8a-hexahydro-1H-pyrrolo[1,2-a]pyrazin-2-yl]-2-phenylethanone

$$$$
