
     RDKit          3D

 14 13  0  0  0  0  0  0  0  0999 V2000
   -0.3242   -0.2843   -1.6620 O   0  0  0  0  0  0  0  0  0  0  0  0
   -0.0420   -0.0751   -0.3449 N   0  0  0  0  0  0  0  0  0  0  0  0
    0.5105    1.2550   -0.2234 C   0  0  0  0  0  0  0  0  0  0  0  0
   -1.3063   -0.1352    0.3850 C   0  0  0  0  0  0  0  0  0  0  0  0
    0.8498   -1.1179    0.0794 C   0  0  0  0  0  0  0  0  0  0  0  0
    1.5427    1.2678    0.1566 H   0  0  0  0  0  0  0  0  0  0  0  0
   -0.1123    1.8671    0.4806 H   0  0  0  0  0  0  0  0  0  0  0  0
    0.5011    1.8093   -1.1965 H   0  0  0  0  0  0  0  0  0  0  0  0
   -2.1692   -0.0802   -0.3227 H   0  0  0  0  0  0  0  0  0  0  0  0
   -1.3574   -0.9841    1.0738 H   0  0  0  0  0  0  0  0  0  0  0  0
   -1.3954    0.7803    1.0279 H   0  0  0  0  0  0  0  0  0  0  0  0
    0.2885   -1.9278    0.6119 H   0  0  0  0  0  0  0  0  0  0  0  0
    1.3344   -1.6311   -0.7895 H   0  0  0  0  0  0  0  0  0  0  0  0
    1.6798   -0.7438    0.7238 H   0  0  0  0  0  0  0  0  0  0  0  0
  1  2  1  0
  2  3  1  0
  2  4  1  0
  2  5  1  0
  3  6  1  0
  3  7  1  0
  3  8  1  0
  4  9  1  0
  4 10  1  0
  4 11  1  0
  5 12  1  0
  5 13  1  0
  5 14  1  0
M  CHG  2   1  -1   2   1
M  END
>  <Ligand ID>  (1) 
LIG0000718

>  <Ligand>  (1) 
Trimethylamine oxide

>  <SMILES>  (1) 
[O-][N+](C)(C)C

>  <CID>  (1) 
1145.0

>  <ChEMBL ID>  (1) 
nan

>  <InChiKey>  (1) 
UYPYRKYUKCHHIB-UHFFFAOYSA-N

>  <InChi>  (1) 
InChI=1S/C3H9NO/c1-4(2,3)5/h1-3H3

>  <IUPAC Name>  (1) 
N,N-dimethylmethanamine oxide

$$$$
