
     RDKit          3D

 56 58  0  0  0  0  0  0  0  0999 V2000
   -3.7933   -3.4927   -0.0520 O   0  0  0  0  0  0  0  0  0  0  0  0
   -2.5421   -2.8060   -0.0060 C   0  0  0  0  0  0  0  0  0  0  0  0
   -2.1223   -2.6858   -1.4207 C   0  0  0  0  0  0  0  0  0  0  0  0
   -0.8732   -2.0148   -1.6755 N   0  0  0  0  0  0  0  0  0  0  0  0
   -0.6379   -0.7037   -1.9629 C   0  0  0  0  0  0  0  0  0  0  0  0
   -1.5463    0.1836   -2.0740 N   0  0  0  0  0  0  0  0  0  0  0  0
    0.6888   -0.5054   -2.1222 N   0  0  0  0  0  0  0  0  0  0  0  0
    1.2721   -1.7105   -1.9298 C   0  0  0  0  0  0  0  0  0  0  0  0
    0.3151   -2.6621   -1.6507 C   0  0  0  0  0  0  0  0  0  0  0  0
    0.6425   -3.9967   -1.4101 C   0  0  0  0  0  0  0  0  0  0  0  0
    1.9553   -4.4154   -1.4440 C   0  0  0  0  0  0  0  0  0  0  0  0
    2.9221   -3.4812   -1.7206 C   0  0  0  0  0  0  0  0  0  0  0  0
    2.5899   -2.1653   -1.9569 C   0  0  0  0  0  0  0  0  0  0  0  0
    1.4075    0.7104   -2.4420 C   0  0  0  0  0  0  0  0  0  0  0  0
    1.8297    1.5082   -1.2974 C   0  0  0  0  0  0  0  0  0  0  0  0
    3.0232    1.3101   -0.6144 C   0  0  0  0  0  0  0  0  0  0  0  0
    3.4102    2.0758    0.4591 C   0  0  0  0  0  0  0  0  0  0  0  0
    2.6243    3.0925    0.9193 C   0  0  0  0  0  0  0  0  0  0  0  0
    1.4296    3.3226    0.2681 C   0  0  0  0  0  0  0  0  0  0  0  0
    1.0352    2.5425   -0.8257 C   0  0  0  0  0  0  0  0  0  0  0  0
    3.0783    3.8918    2.0770 C   0  0  0  0  0  0  0  0  0  0  0  0
   -2.8636   -1.5127    0.6890 C   0  0  0  0  0  0  0  0  0  0  0  0
   -1.7480   -0.7008    0.8885 O   0  0  0  0  0  0  0  0  0  0  0  0
   -1.9736    0.5228    1.5353 C   0  0  0  0  0  0  0  0  0  0  0  0
   -0.9173    1.3749    1.7705 C   0  0  0  0  0  0  0  0  0  0  0  0
   -1.1197    2.5798    2.4034 C   0  0  0  0  0  0  0  0  0  0  0  0
   -2.3784    2.9661    2.8178 C   0  0  0  0  0  0  0  0  0  0  0  0
   -3.4358    2.1214    2.5866 C   0  0  0  0  0  0  0  0  0  0  0  0
   -3.2152    0.9279    1.9561 C   0  0  0  0  0  0  0  0  0  0  0  0
    0.6880    0.0000    0.0000 Cl  0  0  0  0  0  0  0  0  0  0  0  0
   -3.6560   -4.4327    0.2726 H   0  0  0  0  0  0  0  0  0  0  0  0
   -1.8359   -3.3454    0.6427 H   0  0  0  0  0  0  0  0  0  0  0  0
   -2.9390   -2.1062   -1.9474 H   0  0  0  0  0  0  0  0  0  0  0  0
   -2.1445   -3.6795   -1.9626 H   0  0  0  0  0  0  0  0  0  0  0  0
   -1.2922    1.1672   -2.2959 H   0  0  0  0  0  0  0  0  0  0  0  0
   -0.1072   -4.7419   -1.1916 H   0  0  0  0  0  0  0  0  0  0  0  0
    2.2096   -5.4494   -1.2576 H   0  0  0  0  0  0  0  0  0  0  0  0
    3.9504   -3.8261   -1.7437 H   0  0  0  0  0  0  0  0  0  0  0  0
    3.3991   -1.4902   -2.1685 H   0  0  0  0  0  0  0  0  0  0  0  0
    2.3373    0.4070   -2.9942 H   0  0  0  0  0  0  0  0  0  0  0  0
    0.8236    1.3099   -3.1900 H   0  0  0  0  0  0  0  0  0  0  0  0
    3.6903    0.5270   -0.9239 H   0  0  0  0  0  0  0  0  0  0  0  0
    4.3596    1.8857    0.9691 H   0  0  0  0  0  0  0  0  0  0  0  0
    0.8145    4.1309    0.6409 H   0  0  0  0  0  0  0  0  0  0  0  0
    0.0870    2.8109   -1.2567 H   0  0  0  0  0  0  0  0  0  0  0  0
    3.4972    3.2605    2.8607 H   0  0  0  0  0  0  0  0  0  0  0  0
    3.8815    4.5941    1.7767 H   0  0  0  0  0  0  0  0  0  0  0  0
    2.2450    4.5199    2.4950 H   0  0  0  0  0  0  0  0  0  0  0  0
   -3.6498   -1.0116    0.0571 H   0  0  0  0  0  0  0  0  0  0  0  0
   -3.4069   -1.6931    1.6593 H   0  0  0  0  0  0  0  0  0  0  0  0
    0.0543    1.0424    1.4362 H   0  0  0  0  0  0  0  0  0  0  0  0
   -0.2994    3.2557    2.5932 H   0  0  0  0  0  0  0  0  0  0  0  0
   -2.5543    3.9137    3.3186 H   0  0  0  0  0  0  0  0  0  0  0  0
   -4.4426    2.4034    2.9048 H   0  0  0  0  0  0  0  0  0  0  0  0
   -4.0788    0.2709    1.7835 H   0  0  0  0  0  0  0  0  0  0  0  0
   -0.6880    0.0000    0.0000 H   0  0  0  0  0  0  0  0  0  0  0  0
  1  2  1  0
  2  3  1  0
  3  4  1  0
  4  5  1  0
  5  6  2  3
  5  7  1  0
  7  8  1  0
  8  9  2  0
  9 10  1  0
 10 11  2  0
 11 12  1  0
 12 13  2  0
  7 14  1  0
 14 15  1  0
 15 16  2  0
 16 17  1  0
 17 18  2  0
 18 19  1  0
 19 20  2  0
 18 21  1  0
  2 22  1  0
 22 23  1  0
 23 24  1  0
 24 25  2  0
 25 26  1  0
 26 27  2  0
 27 28  1  0
 28 29  2  0
  9  4  1  0
 20 15  1  0
 29 24  1  0
 13  8  1  0
  1 31  1  0
  2 32  1  0
  3 33  1  0
  3 34  1  0
  6 35  1  0
 10 36  1  0
 11 37  1  0
 12 38  1  0
 13 39  1  0
 14 40  1  0
 14 41  1  0
 16 42  1  0
 17 43  1  0
 19 44  1  0
 20 45  1  0
 21 46  1  0
 21 47  1  0
 21 48  1  0
 22 49  1  0
 22 50  1  0
 25 51  1  0
 26 52  1  0
 27 53  1  0
 28 54  1  0
 29 55  1  0
 30 56  1  0
M  END
>  <Ligand ID>  (1) 
LIG0003816

>  <Ligand>  (1) 
MLS000525955

>  <SMILES>  (1) 
OC(Cn1c(=N)n(c2c1cccc2)Cc1ccc(cc1)C)COc1ccccc1.Cl

>  <CID>  (1) 
9549494.0

>  <ChEMBL ID>  (1) 
nan

>  <InChiKey>  (1) 
XKVCKHLDBGWDHL-UHFFFAOYSA-N

>  <InChi>  (1) 
InChI=1S/C24H25N3O2.ClH/c1-18-11-13-19(14-12-18)15-26-22-9-5-6-10-23(22)27(24(26)25)16-20(28)17-29-21-7-3-2-4-8-21;/h2-14,20,25,28H,15-17H2,1H3;1H

>  <IUPAC Name>  (1) 
1-[2-imino-3-[(4-methylphenyl)methyl]benzimidazol-1-yl]-3-phenoxypropan-2-ol;hydrochloride

$$$$
