
     RDKit          3D

 77 80  0  0  0  0  0  0  0  0999 V2000
   -4.1094   -4.8211    0.2548 C   0  0  0  0  0  0  0  0  0  0  0  0
   -3.6265   -4.3237    1.5665 C   0  0  0  0  0  0  0  0  0  0  0  0
   -3.6751   -2.8546    1.7942 C   0  0  0  0  0  0  0  0  0  0  0  0
   -2.9084   -2.0707    0.8672 N   0  0  0  0  0  0  0  0  0  0  0  0
   -3.3404   -1.5004   -0.3335 C   0  0  0  0  0  0  0  0  0  0  0  0
   -2.4650   -0.8557   -1.0010 O   0  0  0  0  0  0  0  0  0  0  0  0
   -4.6862   -1.5524   -0.9165 C   0  0  0  0  0  0  0  0  0  0  0  0
   -4.7247   -0.6970   -2.1661 C   0  0  0  0  0  0  0  0  0  0  0  0
   -4.3120   -1.0528   -3.4012 N   0  0  0  0  0  0  0  0  0  0  0  0
   -4.5295   -0.0055   -4.2219 C   0  0  0  0  0  0  0  0  0  0  0  0
   -5.0834    1.0267   -3.5134 C   0  0  0  0  0  0  0  0  0  0  0  0
   -5.1976    0.5788   -2.2377 N   0  0  0  0  0  0  0  0  0  0  0  0
   -5.7573    1.3996   -1.1863 C   0  0  0  0  0  0  0  0  0  0  0  0
   -4.7528    2.2187   -0.4691 C   0  0  0  0  0  0  0  0  0  0  0  0
   -4.0857    1.8030    0.6618 C   0  0  0  0  0  0  0  0  0  0  0  0
   -3.1718    2.6715    1.2345 C   0  0  0  0  0  0  0  0  0  0  0  0
   -2.9051    3.9208    0.7260 C   0  0  0  0  0  0  0  0  0  0  0  0
   -3.5658    4.3374   -0.3970 C   0  0  0  0  0  0  0  0  0  0  0  0
   -4.4860    3.4750   -0.9821 C   0  0  0  0  0  0  0  0  0  0  0  0
   -1.5133   -1.8655    1.2033 C   0  0  0  0  0  0  0  0  0  0  0  0
   -0.6659   -2.8797    0.7986 C   0  0  0  0  0  0  0  0  0  0  0  0
    0.6811   -2.7752    1.0568 C   0  0  0  0  0  0  0  0  0  0  0  0
    1.1438   -1.6440    1.7197 C   0  0  0  0  0  0  0  0  0  0  0  0
    0.2899   -0.6405    2.1177 C   0  0  0  0  0  0  0  0  0  0  0  0
   -1.0827   -0.7361    1.8612 C   0  0  0  0  0  0  0  0  0  0  0  0
    2.6219   -1.5967    1.9671 C   0  0  0  0  0  0  0  0  0  0  0  0
    3.2085   -0.9906    0.7143 C   0  0  0  0  0  0  0  0  0  0  0  0
    4.6199   -0.9022    0.8238 N   0  0  0  0  0  0  0  0  0  0  0  0
    5.0626    0.0601    1.7863 C   0  0  0  0  0  0  0  0  0  0  0  0
    6.5687    0.0519    1.7599 C   0  0  1  0  0  0  0  0  0  0  0  0
    7.1018    0.1145    0.3644 C   0  0  0  0  0  0  0  0  0  0  0  0
    7.0148    1.1995   -0.3808 O   0  0  0  0  0  0  0  0  0  0  0  0
    6.2460    2.0735   -0.9962 C   0  0  0  0  0  0  0  0  0  0  0  0
    4.8752    2.1272   -1.0918 C   0  0  0  0  0  0  0  0  0  0  0  0
    4.1940    3.1228   -1.7813 C   0  0  0  0  0  0  0  0  0  0  0  0
    4.8803    4.1234   -2.4154 C   0  0  0  0  0  0  0  0  0  0  0  0
    6.2468    4.1066   -2.3446 C   0  0  0  0  0  0  0  0  0  0  0  0
    6.9137    3.1336   -1.6704 C   0  0  0  0  0  0  0  0  0  0  0  0
    7.1021    0.9683    2.6362 O   0  0  0  0  0  0  0  0  0  0  0  0
   -5.1871   -4.6411    0.0774 H   0  0  0  0  0  0  0  0  0  0  0  0
   -3.9855   -5.9395    0.2495 H   0  0  0  0  0  0  0  0  0  0  0  0
   -3.5494   -4.4133   -0.6136 H   0  0  0  0  0  0  0  0  0  0  0  0
   -2.6121   -4.7116    1.8047 H   0  0  0  0  0  0  0  0  0  0  0  0
   -4.2814   -4.7897    2.3558 H   0  0  0  0  0  0  0  0  0  0  0  0
   -4.7218   -2.4735    1.9015 H   0  0  0  0  0  0  0  0  0  0  0  0
   -3.2314   -2.6849    2.8216 H   0  0  0  0  0  0  0  0  0  0  0  0
   -4.9893   -2.5799   -1.1978 H   0  0  0  0  0  0  0  0  0  0  0  0
   -5.4279   -1.1427   -0.2327 H   0  0  0  0  0  0  0  0  0  0  0  0
   -4.2805   -0.0418   -5.2761 H   0  0  0  0  0  0  0  0  0  0  0  0
   -5.3662    1.9994   -3.9162 H   0  0  0  0  0  0  0  0  0  0  0  0
   -6.5959    2.0192   -1.5725 H   0  0  0  0  0  0  0  0  0  0  0  0
   -6.2223    0.7037   -0.4415 H   0  0  0  0  0  0  0  0  0  0  0  0
   -4.2845    0.8355    1.0696 H   0  0  0  0  0  0  0  0  0  0  0  0
   -2.6690    2.3085    2.1198 H   0  0  0  0  0  0  0  0  0  0  0  0
   -2.1836    4.5706    1.2033 H   0  0  0  0  0  0  0  0  0  0  0  0
   -3.3430    5.3156   -0.7755 H   0  0  0  0  0  0  0  0  0  0  0  0
   -4.9785    3.8570   -1.8682 H   0  0  0  0  0  0  0  0  0  0  0  0
   -1.0252   -3.7606    0.2813 H   0  0  0  0  0  0  0  0  0  0  0  0
    1.3683   -3.5655    0.7466 H   0  0  0  0  0  0  0  0  0  0  0  0
    0.7017    0.2120    2.6271 H   0  0  0  0  0  0  0  0  0  0  0  0
   -1.7791    0.0328    2.1614 H   0  0  0  0  0  0  0  0  0  0  0  0
    2.8323   -0.9510    2.8700 H   0  0  0  0  0  0  0  0  0  0  0  0
    2.9632   -2.6177    2.1573 H   0  0  0  0  0  0  0  0  0  0  0  0
    2.7013   -0.0234    0.5289 H   0  0  0  0  0  0  0  0  0  0  0  0
    2.9276   -1.6947   -0.1168 H   0  0  0  0  0  0  0  0  0  0  0  0
    4.9898   -1.8335    1.1385 H   0  0  0  0  0  0  0  0  0  0  0  0
    4.7291   -0.2649    2.8337 H   0  0  0  0  0  0  0  0  0  0  0  0
    4.6152    1.0475    1.5949 H   0  0  0  0  0  0  0  0  0  0  0  0
    6.8440   -0.9861    2.1911 H   0  0  0  0  0  0  0  0  0  0  0  0
    8.1938   -0.2191    0.4523 H   0  0  0  0  0  0  0  0  0  0  0  0
    6.6843   -0.7719   -0.2419 H   0  0  0  0  0  0  0  0  0  0  0  0
    4.2798    1.3772   -0.6440 H   0  0  0  0  0  0  0  0  0  0  0  0
    3.1068    3.1021   -1.8139 H   0  0  0  0  0  0  0  0  0  0  0  0
    4.3535    4.8782   -2.9386 H   0  0  0  0  0  0  0  0  0  0  0  0
    6.8076    4.8938   -2.8430 H   0  0  0  0  0  0  0  0  0  0  0  0
    7.9962    3.1835   -1.6567 H   0  0  0  0  0  0  0  0  0  0  0  0
    6.4928    1.0214    3.4210 H   0  0  0  0  0  0  0  0  0  0  0  0
  1  2  1  0
  2  3  1  0
  3  4  1  0
  4  5  1  0
  5  6  2  0
  5  7  1  0
  7  8  1  0
  8  9  2  0
  9 10  1  0
 10 11  2  0
 11 12  1  0
 12 13  1  0
 13 14  1  0
 14 15  2  0
 15 16  1  0
 16 17  2  0
 17 18  1  0
 18 19  2  0
  4 20  1  0
 20 21  2  0
 21 22  1  0
 22 23  2  0
 23 24  1  0
 24 25  2  0
 23 26  1  0
 26 27  1  0
 27 28  1  0
 28 29  1  0
 29 30  1  0
 30 31  1  0
 31 32  1  0
 32 33  1  0
 33 34  2  0
 34 35  1  0
 35 36  2  0
 36 37  1  0
 37 38  2  0
 30 39  1  0
 12  8  1  0
 19 14  1  0
 25 20  1  0
 38 33  1  0
  1 40  1  0
  1 41  1  0
  1 42  1  0
  2 43  1  0
  2 44  1  0
  3 45  1  0
  3 46  1  0
  7 47  1  0
  7 48  1  0
 10 49  1  0
 11 50  1  0
 13 51  1  0
 13 52  1  0
 15 53  1  0
 16 54  1  0
 17 55  1  0
 18 56  1  0
 19 57  1  0
 21 58  1  0
 22 59  1  0
 24 60  1  0
 25 61  1  0
 26 62  1  0
 26 63  1  0
 27 64  1  0
 27 65  1  0
 28 66  1  0
 29 67  1  0
 29 68  1  0
 30 69  1  1
 31 70  1  0
 31 71  1  0
 34 72  1  0
 35 73  1  0
 36 74  1  0
 37 75  1  0
 38 76  1  0
 39 77  1  0
M  END
>  <Ligand ID>  (1) 
LIG0004336

>  <Ligand>  (1) 
CHEMBL467117

>  <SMILES>  (1) 
CCCN(C(=O)Cc1nccn1Cc1ccccc1)c1ccc(cc1)CCNC[C@@H](COc1ccccc1)O

>  <CID>  (1) 
44574913.0

>  <ChEMBL ID>  (1) 
nan

>  <InChiKey>  (1) 
ZVKJNELSVJBCTP-LJAQVGFWSA-N

>  <InChi>  (1) 
InChI=1S/C32H38N4O3/c1-2-20-36(32(38)22-31-34-19-21-35(31)24-27-9-5-3-6-10-27)28-15-13-26(14-16-28)17-18-33-23-29(37)25-39-30-11-7-4-8-12-30/h3-16,19,21,29,33,37H,2,17-18,20,22-25H2,1H3/t29-/m0/s1

>  <IUPAC Name>  (1) 
2-(1-benzylimidazol-2-yl)-N-[4-[2-[[(2S)-2-hydroxy-3-phenoxypropyl]amino]ethyl]phenyl]-N-propylacetamide

$$$$
