
     RDKit          3D

 44 46  0  0  0  0  0  0  0  0999 V2000
    0.2865    0.5273    2.1695 O   0  0  0  0  0  0  0  0  0  0  0  0
    0.3926    1.3153    1.2103 C   0  0  0  0  0  0  0  0  0  0  0  0
    1.5077    1.1187    0.2664 C   0  0  0  0  0  0  0  0  0  0  0  0
    1.8417    2.1175   -1.1702 S   0  0  0  0  0  0  0  0  0  0  0  0
    3.3004    1.1597   -1.6428 C   0  0  0  0  0  0  0  0  0  0  0  0
    3.4123    0.1785   -0.6890 C   0  0  0  0  0  0  0  0  0  0  0  0
    2.5042    0.1454    0.2916 C   0  0  0  0  0  0  0  0  0  0  0  0
    2.4895   -0.8309    1.3715 N   0  0  0  0  0  0  0  0  0  0  0  0
    4.5138   -0.6862   -0.8891 C   0  0  0  0  0  0  0  0  0  0  0  0
    4.8109   -1.7985    0.0156 C   0  0  0  0  0  0  0  0  0  0  0  0
    5.3262   -0.4661   -1.9722 C   0  0  0  0  0  0  0  0  0  0  0  0
    5.1636    0.5117   -2.8701 N   0  0  0  0  0  0  0  0  0  0  0  0
    4.1561    1.3135   -2.6989 N   0  0  0  0  0  0  0  0  0  0  0  0
    6.4957   -1.3896   -2.1736 C   0  0  0  0  0  0  0  0  0  0  0  0
   -0.5031    2.3737    0.9980 N   0  0  0  0  0  0  0  0  0  0  0  0
   -1.6315    2.6941    1.8189 C   0  0  0  0  0  0  0  0  0  0  0  0
   -2.7279    1.7435    1.5253 C   0  0  0  0  0  0  0  0  0  0  0  0
   -3.6207    2.0282    0.5021 C   0  0  0  0  0  0  0  0  0  0  0  0
   -4.6692    1.1996    0.1701 C   0  0  0  0  0  0  0  0  0  0  0  0
   -4.8546    0.0197    0.8844 C   0  0  0  0  0  0  0  0  0  0  0  0
   -3.9764   -0.2659    1.8953 C   0  0  0  0  0  0  0  0  0  0  0  0
   -2.9379    0.5706    2.2123 C   0  0  0  0  0  0  0  0  0  0  0  0
   -6.1904   -1.0418    0.4645 S   0  0  0  0  0  0  0  0  0  0  0  0
   -6.5699   -1.7856    1.7076 O   0  0  0  0  0  0  0  0  0  0  0  0
   -7.3770   -0.2691   -0.0568 O   0  0  0  0  0  0  0  0  0  0  0  0
   -5.6495   -2.2126   -0.7593 C   0  0  0  0  0  0  0  0  0  0  0  0
   -4.5583   -2.8615   -0.2160 F   0  0  0  0  0  0  0  0  0  0  0  0
   -6.6752   -3.0649   -1.0489 F   0  0  0  0  0  0  0  0  0  0  0  0
    1.8198   -1.6440    1.2708 H   0  0  0  0  0  0  0  0  0  0  0  0
    3.1144   -0.7178    2.1945 H   0  0  0  0  0  0  0  0  0  0  0  0
    5.4805   -2.5264   -0.4852 H   0  0  0  0  0  0  0  0  0  0  0  0
    3.8655   -2.3816    0.2109 H   0  0  0  0  0  0  0  0  0  0  0  0
    5.3010   -1.4879    0.9566 H   0  0  0  0  0  0  0  0  0  0  0  0
    6.1528   -2.3987   -2.4064 H   0  0  0  0  0  0  0  0  0  0  0  0
    7.0419   -1.4215   -1.1845 H   0  0  0  0  0  0  0  0  0  0  0  0
    7.2049   -0.9532   -2.9058 H   0  0  0  0  0  0  0  0  0  0  0  0
   -0.3139    2.9852    0.1448 H   0  0  0  0  0  0  0  0  0  0  0  0
   -1.3853    2.7260    2.9024 H   0  0  0  0  0  0  0  0  0  0  0  0
   -2.0092    3.6988    1.5436 H   0  0  0  0  0  0  0  0  0  0  0  0
   -3.4645    2.9566   -0.0501 H   0  0  0  0  0  0  0  0  0  0  0  0
   -5.3634    1.4279   -0.6302 H   0  0  0  0  0  0  0  0  0  0  0  0
   -4.1122   -1.1886    2.4623 H   0  0  0  0  0  0  0  0  0  0  0  0
   -2.2896    0.2894    3.0170 H   0  0  0  0  0  0  0  0  0  0  0  0
   -5.3024   -1.7087   -1.6737 H   0  0  0  0  0  0  0  0  0  0  0  0
  1  2  2  0
  2  3  1  0
  3  4  1  0
  4  5  1  0
  5  6  2  0
  6  7  1  0
  7  8  1  0
  6  9  1  0
  9 10  1  0
  9 11  2  0
 11 12  1  0
 12 13  2  0
 11 14  1  0
  2 15  1  0
 15 16  1  0
 16 17  1  0
 17 18  2  0
 18 19  1  0
 19 20  2  0
 20 21  1  0
 21 22  2  0
 20 23  1  0
 23 24  2  0
 23 25  2  0
 23 26  1  0
 26 27  1  0
 26 28  1  0
  7  3  2  0
 22 17  1  0
 13  5  1  0
  8 29  1  0
  8 30  1  0
 10 31  1  0
 10 32  1  0
 10 33  1  0
 14 34  1  0
 14 35  1  0
 14 36  1  0
 15 37  1  0
 16 38  1  0
 16 39  1  0
 18 40  1  0
 19 41  1  0
 21 42  1  0
 22 43  1  0
 26 44  1  0
M  END
>  <Ligand ID>  (1) 
LIG0000438

>  <Ligand>  (1) 
CHEMBL3963788

>  <SMILES>  (1) 
O=C(c1sc2c(c1N)c(C)c(nn2)C)NCc1ccc(cc1)S(=O)(=O)C(F)F

>  <CID>  (1) 
89768534.0

>  <ChEMBL ID>  (1) 
nan

>  <InChiKey>  (1) 
KNZAIFIZJGFOCI-UHFFFAOYSA-N

>  <InChi>  (1) 
InChI=1S/C17H16F2N4O3S2/c1-8-9(2)22-23-16-12(8)13(20)14(27-16)15(24)21-7-10-3-5-11(6-4-10)28(25,26)17(18)19/h3-6,17H,7,20H2,1-2H3,(H,21,24)

>  <IUPAC Name>  (1) 
5-amino-N-[[4-(difluoromethylsulfonyl)phenyl]methyl]-3,4-dimethylthieno[2,3-c]pyridazine-6-carboxamide

$$$$
