
     RDKit          3D

 68 72  0  0  0  0  0  0  0  0999 V2000
   -5.8390    3.9127    1.7405 C   0  0  0  0  0  0  0  0  0  0  0  0
   -6.2492    3.4084    0.4875 O   0  0  0  0  0  0  0  0  0  0  0  0
   -5.5204    2.5053   -0.2616 C   0  0  0  0  0  0  0  0  0  0  0  0
   -6.0835    2.1157   -1.4809 C   0  0  0  0  0  0  0  0  0  0  0  0
   -5.4118    1.2092   -2.2942 C   0  0  0  0  0  0  0  0  0  0  0  0
   -4.1928    0.6851   -1.9162 C   0  0  0  0  0  0  0  0  0  0  0  0
   -3.6473    1.0771   -0.7108 C   0  0  0  0  0  0  0  0  0  0  0  0
   -4.3023    1.9877    0.1263 C   0  0  0  0  0  0  0  0  0  0  0  0
   -2.3649    0.5822   -0.2246 C   0  0  0  0  0  0  0  0  0  0  0  0
   -1.3676    1.5146   -0.0371 C   0  0  0  0  0  0  0  0  0  0  0  0
   -0.1514    1.0505    0.4242 C   0  0  0  0  0  0  0  0  0  0  0  0
    0.7505    1.9023    0.5951 O   0  0  0  0  0  0  0  0  0  0  0  0
    0.0957   -0.2421    0.6915 N   0  0  0  0  0  0  0  0  0  0  0  0
   -0.8998   -1.1082    0.4952 N   0  0  0  0  0  0  0  0  0  0  0  0
   -2.1153   -0.7441    0.0490 C   0  0  0  0  0  0  0  0  0  0  0  0
   -3.2023   -1.7023   -0.1630 C   0  0  0  0  0  0  0  0  0  0  0  0
   -3.1042   -2.7411   -1.0721 C   0  0  0  0  0  0  0  0  0  0  0  0
   -4.1600   -3.6219   -1.2368 C   0  0  0  0  0  0  0  0  0  0  0  0
   -5.3160   -3.4657   -0.4927 C   0  0  0  0  0  0  0  0  0  0  0  0
   -5.4091   -2.4386    0.4040 C   0  0  0  0  0  0  0  0  0  0  0  0
   -4.3609   -1.5464    0.5822 C   0  0  0  0  0  0  0  0  0  0  0  0
   -6.4772   -4.3805   -0.6300 C   0  0  0  0  0  0  0  0  0  0  0  0
    1.3420   -0.7677    1.1554 C   0  0  0  0  0  0  0  0  0  0  0  0
    2.2728   -1.2537    0.1030 C   0  0  0  0  0  0  0  0  0  0  0  0
    3.5212   -1.7588    0.8029 C   0  0  0  0  0  0  0  0  0  0  0  0
    4.7707   -1.4137    0.0561 C   0  0  0  0  0  0  0  0  0  0  0  0
    4.8259    0.0574   -0.1249 C   0  0  0  0  0  0  0  0  0  0  0  0
    3.6844    0.6438   -0.6823 C   0  0  0  0  0  0  0  0  0  0  0  0
    2.5801   -0.3094   -1.0058 C   0  0  0  0  0  0  0  0  0  0  0  0
    3.6067    1.9956   -0.9067 C   0  0  0  0  0  0  0  0  0  0  0  0
    4.7163    2.7598   -0.5542 C   0  0  0  0  0  0  0  0  0  0  0  0
    5.8517    2.1933   -0.0019 C   0  0  0  0  0  0  0  0  0  0  0  0
    5.9167    0.8273    0.2191 C   0  0  0  0  0  0  0  0  0  0  0  0
    7.0366    0.2205    0.7707 O   0  0  0  0  0  0  0  0  0  0  0  0
    8.1897    0.9463    1.1473 C   0  0  0  0  0  0  0  0  0  0  0  0
    9.2141    0.0268    1.7043 C   0  0  0  0  0  0  0  0  0  0  0  0
    8.9867   -1.1888    1.7790 O   0  0  0  0  0  0  0  0  0  0  0  0
   10.4094    0.6054    2.1233 O   0  0  0  0  0  0  0  0  0  0  0  0
   -5.1665    4.7841    1.4870 H   0  0  0  0  0  0  0  0  0  0  0  0
   -5.2140    3.2202    2.3224 H   0  0  0  0  0  0  0  0  0  0  0  0
   -6.6831    4.3268    2.3083 H   0  0  0  0  0  0  0  0  0  0  0  0
   -7.0470    2.5161   -1.8034 H   0  0  0  0  0  0  0  0  0  0  0  0
   -5.8401    0.8983   -3.2465 H   0  0  0  0  0  0  0  0  0  0  0  0
   -3.6580   -0.0284   -2.5502 H   0  0  0  0  0  0  0  0  0  0  0  0
   -3.8730    2.2976    1.0773 H   0  0  0  0  0  0  0  0  0  0  0  0
   -1.5225    2.5464   -0.2372 H   0  0  0  0  0  0  0  0  0  0  0  0
   -2.2058   -2.8723   -1.6588 H   0  0  0  0  0  0  0  0  0  0  0  0
   -4.1003   -4.4524   -1.9535 H   0  0  0  0  0  0  0  0  0  0  0  0
   -6.2842   -2.2787    1.0014 H   0  0  0  0  0  0  0  0  0  0  0  0
   -4.4695   -0.7386    1.3065 H   0  0  0  0  0  0  0  0  0  0  0  0
   -6.5731   -5.0132    0.2943 H   0  0  0  0  0  0  0  0  0  0  0  0
   -6.2253   -5.1152   -1.4382 H   0  0  0  0  0  0  0  0  0  0  0  0
   -7.3918   -3.8572   -0.9066 H   0  0  0  0  0  0  0  0  0  0  0  0
    1.8576    0.0848    1.6849 H   0  0  0  0  0  0  0  0  0  0  0  0
    1.1023   -1.5518    1.9126 H   0  0  0  0  0  0  0  0  0  0  0  0
    1.8132   -2.1739   -0.3735 H   0  0  0  0  0  0  0  0  0  0  0  0
    3.5175   -2.8820    0.9106 H   0  0  0  0  0  0  0  0  0  0  0  0
    3.5946   -1.3067    1.7965 H   0  0  0  0  0  0  0  0  0  0  0  0
    4.7266   -1.9308   -0.9392 H   0  0  0  0  0  0  0  0  0  0  0  0
    5.6862   -1.7008    0.5926 H   0  0  0  0  0  0  0  0  0  0  0  0
    2.9519   -0.8513   -1.9231 H   0  0  0  0  0  0  0  0  0  0  0  0
    1.6817    0.2263   -1.3101 H   0  0  0  0  0  0  0  0  0  0  0  0
    2.7163    2.4010   -1.3346 H   0  0  0  0  0  0  0  0  0  0  0  0
    4.6390    3.8248   -0.7377 H   0  0  0  0  0  0  0  0  0  0  0  0
    6.6852    2.8325    0.2534 H   0  0  0  0  0  0  0  0  0  0  0  0
    8.5875    1.6006    0.3484 H   0  0  0  0  0  0  0  0  0  0  0  0
    7.8943    1.6361    1.9775 H   0  0  0  0  0  0  0  0  0  0  0  0
   11.2043    0.0134    2.2956 H   0  0  0  0  0  0  0  0  0  0  0  0
  1  2  1  0
  2  3  1  0
  3  4  2  0
  4  5  1  0
  5  6  2  0
  6  7  1  0
  7  8  2  0
  7  9  1  0
  9 10  2  0
 10 11  1  0
 11 12  2  0
 11 13  1  0
 13 14  1  0
 14 15  2  0
 15 16  1  0
 16 17  2  0
 17 18  1  0
 18 19  2  0
 19 20  1  0
 20 21  2  0
 19 22  1  0
 13 23  1  0
 23 24  1  0
 24 25  1  0
 25 26  1  0
 26 27  1  0
 27 28  2  0
 28 29  1  0
 28 30  1  0
 30 31  2  0
 31 32  1  0
 32 33  2  0
 33 34  1  0
 34 35  1  0
 35 36  1  0
 36 37  2  0
 36 38  1  0
  8  3  1  0
 15  9  1  0
 21 16  1  0
 29 24  1  0
 33 27  1  0
  1 39  1  0
  1 40  1  0
  1 41  1  0
  4 42  1  0
  5 43  1  0
  6 44  1  0
  8 45  1  0
 10 46  1  0
 17 47  1  0
 18 48  1  0
 20 49  1  0
 21 50  1  0
 22 51  1  0
 22 52  1  0
 22 53  1  0
 23 54  1  0
 23 55  1  0
 24 56  1  0
 25 57  1  0
 25 58  1  0
 26 59  1  0
 26 60  1  0
 29 61  1  0
 29 62  1  0
 30 63  1  0
 31 64  1  0
 32 65  1  0
 35 66  1  0
 35 67  1  0
 38 68  1  0
M  END
>  <Ligand ID>  (1) 
LIG0003809

>  <Ligand>  (1) 
CHEMBL3398220

>  <SMILES>  (1) 
COc1cccc(c1)c1cc(=O)n(nc1c1ccc(cc1)C)CC1CCc2c(C1)cccc2OCC(=O)O

>  <CID>  (1) 
118727299.0

>  <ChEMBL ID>  (1) 
nan

>  <InChiKey>  (1) 
DXCNYEIWUOLVFU-UHFFFAOYSA-N

>  <InChi>  (1) 
InChI=1S/C31H30N2O5/c1-20-9-12-22(13-10-20)31-27(24-5-3-7-25(16-24)37-2)17-29(34)33(32-31)18-21-11-14-26-23(15-21)6-4-8-28(26)38-19-30(35)36/h3-10,12-13,16-17,21H,11,14-15,18-19H2,1-2H3,(H,35,36)

>  <IUPAC Name>  (1) 
2-[[6-[[4-(3-methoxyphenyl)-3-(4-methylphenyl)-6-oxopyridazin-1-yl]methyl]-5,6,7,8-tetrahydronaphthalen-1-yl]oxy]acetic acid

$$$$
