
     RDKit          3D

166169  0  0  0  0  0  0  0  0999 V2000
  -13.5030   -4.5474    1.7152 C   0  0  0  0  0  0  0  0  0  0  0  0
  -12.7192   -3.8036    0.7614 N   0  0  0  0  0  0  0  0  0  0  0  0
  -12.8660   -3.8414   -0.5032 C   0  0  0  0  0  0  0  0  0  0  0  0
  -12.0211   -3.0559   -1.3037 N   0  0  0  0  0  0  0  0  0  0  0  0
  -10.9908   -2.1739   -0.7341 C   0  0  0  0  0  0  0  0  0  0  0  0
   -9.8945   -2.9414   -0.0993 C   0  0  0  0  0  0  0  0  0  0  0  0
   -8.7868   -2.2122    0.5496 C   0  0  0  0  0  0  0  0  0  0  0  0
   -7.8881   -1.3875   -0.3233 C   0  0  1  0  0  0  0  0  0  0  0  0
   -8.5562   -0.3441   -1.0544 C   0  0  0  0  0  0  0  0  0  0  0  0
   -8.6043   -0.4346   -2.3230 O   0  0  0  0  0  0  0  0  0  0  0  0
   -9.1503    0.7497   -0.3885 N   0  0  0  0  0  0  0  0  0  0  0  0
   -9.8461    1.8452   -1.0516 C   0  0  2  0  0  0  0  0  0  0  0  0
   -9.5103    3.1398   -0.4858 C   0  0  0  0  0  0  0  0  0  0  0  0
   -9.8547    4.1808   -1.1485 O   0  0  0  0  0  0  0  0  0  0  0  0
   -8.8403    3.3846    0.7291 N   0  0  0  0  0  0  0  0  0  0  0  0
  -11.3377    1.5746   -1.0558 C   0  0  0  0  0  0  0  0  0  0  0  0
  -12.0709    2.6909   -1.6569 C   0  0  0  0  0  0  0  0  0  0  0  0
  -12.3917    2.8612   -3.0107 C   0  0  0  0  0  0  0  0  0  0  0  0
  -13.0240    4.0341   -3.1315 N   0  0  0  0  0  0  0  0  0  0  0  0
  -13.1522    4.6642   -1.9560 C   0  0  0  0  0  0  0  0  0  0  0  0
  -12.5643    3.8387   -1.0283 C   0  0  0  0  0  0  0  0  0  0  0  0
  -12.5794    4.2508    0.3114 C   0  0  0  0  0  0  0  0  0  0  0  0
  -13.1394    5.4146    0.7336 C   0  0  0  0  0  0  0  0  0  0  0  0
  -13.7244    6.2361   -0.2064 C   0  0  0  0  0  0  0  0  0  0  0  0
  -13.7348    5.8676   -1.5520 C   0  0  0  0  0  0  0  0  0  0  0  0
   -6.8415   -0.7800    0.5019 N   0  0  0  0  0  0  0  0  0  0  0  0
   -6.3903   -1.1896    1.7557 C   0  0  0  0  0  0  0  0  0  0  0  0
   -6.8812   -2.1554    2.4316 O   0  0  0  0  0  0  0  0  0  0  0  0
   -5.2421   -0.5098    2.4369 C   0  0  1  0  0  0  0  0  0  0  0  0
   -4.4345    0.2664    1.5247 N   0  0  0  0  0  0  0  0  0  0  0  0
   -3.2750   -0.3858    1.0141 C   0  0  0  0  0  0  0  0  0  0  0  0
   -2.9685   -1.5842    1.3367 O   0  0  0  0  0  0  0  0  0  0  0  0
   -2.3585    0.2337    0.1025 N   0  0  0  0  0  0  0  0  0  0  0  0
   -1.2842   -0.5910   -0.2964 N   0  0  0  0  0  0  0  0  0  0  0  0
   -0.0692   -0.6944    0.3848 C   0  0  0  0  0  0  0  0  0  0  0  0
    0.2245   -0.0551    1.4407 O   0  0  0  0  0  0  0  0  0  0  0  0
    0.9499   -1.6545   -0.2148 C   0  0  1  0  0  0  0  0  0  0  0  0
    2.1449   -1.6719    0.5663 N   0  0  0  0  0  0  0  0  0  0  0  0
    3.3100   -0.9744    0.2015 C   0  0  0  0  0  0  0  0  0  0  0  0
    3.2577   -0.3024   -0.8758 O   0  0  0  0  0  0  0  0  0  0  0  0
    4.5735   -0.9909    1.0121 C   0  0  2  0  0  0  0  0  0  0  0  0
    4.2151   -0.5816    2.4168 C   0  0  2  0  0  0  0  0  0  0  0  0
    3.6442    0.6832    2.4158 O   0  0  0  0  0  0  0  0  0  0  0  0
    5.4131   -0.6315    3.3409 C   0  0  0  0  0  0  0  0  0  0  0  0
    5.5018   -0.0269    0.4729 N   0  0  0  0  0  0  0  0  0  0  0  0
    6.6668   -0.3225   -0.2542 C   0  0  0  0  0  0  0  0  0  0  0  0
    6.9495   -1.5402   -0.4752 O   0  0  0  0  0  0  0  0  0  0  0  0
    7.5991    0.6794   -0.7835 C   0  0  1  0  0  0  0  0  0  0  0  0
    8.6806   -0.0953   -1.4225 N   0  0  0  0  0  0  0  0  0  0  0  0
   10.0112   -0.0681   -0.9473 C   0  0  0  0  0  0  0  0  0  0  0  0
   10.3962    0.5983    0.0454 O   0  0  0  0  0  0  0  0  0  0  0  0
   10.9905   -0.9034   -1.7115 C   0  0  0  0  0  0  0  0  0  0  0  0
   12.3239   -0.8569   -1.1669 N   0  0  0  0  0  0  0  0  0  0  0  0
   13.0635    0.3825   -1.0506 C   0  0  0  0  0  0  0  0  0  0  0  0
   12.4728    1.4020   -1.4445 O   0  0  0  0  0  0  0  0  0  0  0  0
   14.4241    0.3311   -0.4903 C   0  0  1  0  0  0  0  0  0  0  0  0
   14.5205    1.1706    0.7399 C   0  0  0  0  0  0  0  0  0  0  0  0
   14.2180    2.5834    0.4674 C   0  0  0  0  0  0  0  0  0  0  0  0
   12.9804    3.1690    0.6222 C   0  0  0  0  0  0  0  0  0  0  0  0
   12.7977    4.5230    0.3378 C   0  0  0  0  0  0  0  0  0  0  0  0
   13.8702    5.2790   -0.1026 C   0  0  0  0  0  0  0  0  0  0  0  0
   15.1278    4.7190   -0.2675 C   0  0  0  0  0  0  0  0  0  0  0  0
   15.2795    3.3716    0.0227 C   0  0  0  0  0  0  0  0  0  0  0  0
   13.7583    6.6375   -0.4044 O   0  0  0  0  0  0  0  0  0  0  0  0
   14.7642   -1.0593   -0.1754 N   0  0  0  0  0  0  0  0  0  0  0  0
   15.7397   -1.7909   -0.9058 C   0  0  0  0  0  0  0  0  0  0  0  0
   16.3427   -1.2362   -1.8611 O   0  0  0  0  0  0  0  0  0  0  0  0
   15.9979   -3.1890   -0.4963 C   0  0  0  0  0  0  0  0  0  0  0  0
   10.5039   -2.3344   -1.6674 C   0  0  0  0  0  0  0  0  0  0  0  0
   10.9912   -0.4941   -3.1752 C   0  0  0  0  0  0  0  0  0  0  0  0
    7.0325    1.6432   -1.7855 C   0  0  0  0  0  0  0  0  0  0  0  0
    5.9187    2.4589   -1.2813 C   0  0  0  0  0  0  0  0  0  0  0  0
    4.7278    2.2751   -1.6215 O   0  0  0  0  0  0  0  0  0  0  0  0
    6.1601    3.5231   -0.3556 N   0  0  0  0  0  0  0  0  0  0  0  0
    0.2686   -2.9911   -0.2915 C   0  0  0  0  0  0  0  0  0  0  0  0
    1.1278   -4.0670   -0.8593 C   0  0  0  0  0  0  0  0  0  0  0  0
    1.9291   -4.8275   -0.0043 C   0  0  0  0  0  0  0  0  0  0  0  0
    2.7198   -5.8138   -0.5297 C   0  0  0  0  0  0  0  0  0  0  0  0
    2.7794   -6.1114   -1.8683 C   0  0  0  0  0  0  0  0  0  0  0  0
    1.9802   -5.3515   -2.7125 C   0  0  0  0  0  0  0  0  0  0  0  0
    1.1733   -4.3516   -2.2139 C   0  0  0  0  0  0  0  0  0  0  0  0
    1.9968   -5.6056   -4.0602 F   0  0  0  0  0  0  0  0  0  0  0  0
   -5.7073    0.1639    3.6590 C   0  0  0  0  0  0  0  0  0  0  0  0
   -6.7395    1.2319    3.5058 C   0  0  0  0  0  0  0  0  0  0  0  0
   -7.0327    1.7305    4.9341 C   0  0  0  0  0  0  0  0  0  0  0  0
   -6.2438    2.4602    2.7675 C   0  0  0  0  0  0  0  0  0  0  0  0
  -13.8678   -4.6593   -1.1153 N   0  0  0  0  0  0  0  0  0  0  0  0
  -14.2139   -3.8639    2.2271 H   0  0  0  0  0  0  0  0  0  0  0  0
  -12.7906   -4.9260    2.4752 H   0  0  0  0  0  0  0  0  0  0  0  0
  -13.9872   -5.4378    1.2713 H   0  0  0  0  0  0  0  0  0  0  0  0
  -12.1102   -3.0855   -2.3593 H   0  0  0  0  0  0  0  0  0  0  0  0
  -11.5361   -1.5890    0.0675 H   0  0  0  0  0  0  0  0  0  0  0  0
  -10.6993   -1.4328   -1.4731 H   0  0  0  0  0  0  0  0  0  0  0  0
   -9.5006   -3.7497   -0.8025 H   0  0  0  0  0  0  0  0  0  0  0  0
  -10.4028   -3.5928    0.6899 H   0  0  0  0  0  0  0  0  0  0  0  0
   -9.2320   -1.6121    1.3986 H   0  0  0  0  0  0  0  0  0  0  0  0
   -8.1354   -3.0457    0.9855 H   0  0  0  0  0  0  0  0  0  0  0  0
   -7.3516   -2.1718   -0.9337 H   0  0  0  0  0  0  0  0  0  0  0  0
   -9.1027    0.7950    0.6433 H   0  0  0  0  0  0  0  0  0  0  0  0
   -9.5560    1.7267   -2.1467 H   0  0  0  0  0  0  0  0  0  0  0  0
   -8.1402    4.1792    0.7895 H   0  0  0  0  0  0  0  0  0  0  0  0
   -8.9679    2.8479    1.6049 H   0  0  0  0  0  0  0  0  0  0  0  0
  -11.6816    1.4398   -0.0043 H   0  0  0  0  0  0  0  0  0  0  0  0
  -11.6050    0.6718   -1.6787 H   0  0  0  0  0  0  0  0  0  0  0  0
  -12.1280    2.1184   -3.7549 H   0  0  0  0  0  0  0  0  0  0  0  0
  -13.3843    4.4330   -4.0311 H   0  0  0  0  0  0  0  0  0  0  0  0
  -12.1193    3.6111    1.0697 H   0  0  0  0  0  0  0  0  0  0  0  0
  -13.1621    5.7548    1.7548 H   0  0  0  0  0  0  0  0  0  0  0  0
  -14.1899    7.1825    0.0530 H   0  0  0  0  0  0  0  0  0  0  0  0
  -14.2045    6.5290   -2.2856 H   0  0  0  0  0  0  0  0  0  0  0  0
   -6.3782    0.0724    0.0752 H   0  0  0  0  0  0  0  0  0  0  0  0
   -4.6008   -1.3870    2.7648 H   0  0  0  0  0  0  0  0  0  0  0  0
   -4.6031    1.2273    1.2090 H   0  0  0  0  0  0  0  0  0  0  0  0
   -2.4956    1.2078   -0.2216 H   0  0  0  0  0  0  0  0  0  0  0  0
   -1.4632   -1.1452   -1.1816 H   0  0  0  0  0  0  0  0  0  0  0  0
    1.1973   -1.3189   -1.2425 H   0  0  0  0  0  0  0  0  0  0  0  0
    2.1311   -2.2484    1.4629 H   0  0  0  0  0  0  0  0  0  0  0  0
    4.9891   -2.0328    0.9483 H   0  0  0  0  0  0  0  0  0  0  0  0
    3.4316   -1.2728    2.8232 H   0  0  0  0  0  0  0  0  0  0  0  0
    3.6485    1.1093    3.3148 H   0  0  0  0  0  0  0  0  0  0  0  0
    5.0686   -1.0278    4.3144 H   0  0  0  0  0  0  0  0  0  0  0  0
    6.1893   -1.3439    2.9624 H   0  0  0  0  0  0  0  0  0  0  0  0
    5.8328    0.3830    3.5299 H   0  0  0  0  0  0  0  0  0  0  0  0
    5.2812    0.9826    0.6614 H   0  0  0  0  0  0  0  0  0  0  0  0
    8.0938    1.2755    0.0156 H   0  0  0  0  0  0  0  0  0  0  0  0
    8.3922   -0.6590   -2.2425 H   0  0  0  0  0  0  0  0  0  0  0  0
   12.7968   -1.7462   -0.8299 H   0  0  0  0  0  0  0  0  0  0  0  0
   15.1375    0.6935   -1.2916 H   0  0  0  0  0  0  0  0  0  0  0  0
   13.7191    0.8046    1.4389 H   0  0  0  0  0  0  0  0  0  0  0  0
   15.5204    1.0677    1.2242 H   0  0  0  0  0  0  0  0  0  0  0  0
   12.1508    2.6044    0.9647 H   0  0  0  0  0  0  0  0  0  0  0  0
   11.8558    5.0274    0.4432 H   0  0  0  0  0  0  0  0  0  0  0  0
   15.9739    5.3004   -0.6115 H   0  0  0  0  0  0  0  0  0  0  0  0
   16.2682    2.9394   -0.1106 H   0  0  0  0  0  0  0  0  0  0  0  0
   13.1728    7.2902    0.0865 H   0  0  0  0  0  0  0  0  0  0  0  0
   14.2346   -1.4677    0.6304 H   0  0  0  0  0  0  0  0  0  0  0  0
   15.0024   -3.7068   -0.3944 H   0  0  0  0  0  0  0  0  0  0  0  0
   16.6039   -3.7526   -1.2467 H   0  0  0  0  0  0  0  0  0  0  0  0
   16.5353   -3.2656    0.4539 H   0  0  0  0  0  0  0  0  0  0  0  0
   11.3641   -3.0598   -1.6932 H   0  0  0  0  0  0  0  0  0  0  0  0
    9.9433   -2.5327   -0.7517 H   0  0  0  0  0  0  0  0  0  0  0  0
    9.8977   -2.5863   -2.5787 H   0  0  0  0  0  0  0  0  0  0  0  0
   12.0281   -0.7234   -3.5375 H   0  0  0  0  0  0  0  0  0  0  0  0
   10.7148    0.5527   -3.3415 H   0  0  0  0  0  0  0  0  0  0  0  0
   10.3303   -1.1396   -3.7518 H   0  0  0  0  0  0  0  0  0  0  0  0
    7.8645    2.3730   -2.0017 H   0  0  0  0  0  0  0  0  0  0  0  0
    6.7552    1.1159   -2.7283 H   0  0  0  0  0  0  0  0  0  0  0  0
    6.4532    3.2478    0.6200 H   0  0  0  0  0  0  0  0  0  0  0  0
    6.0498    4.5382   -0.6284 H   0  0  0  0  0  0  0  0  0  0  0  0
   -0.0325   -3.3543    0.7413 H   0  0  0  0  0  0  0  0  0  0  0  0
   -0.6753   -2.9909   -0.8598 H   0  0  0  0  0  0  0  0  0  0  0  0
    1.9532   -4.6683    1.0622 H   0  0  0  0  0  0  0  0  0  0  0  0
    3.3332   -6.3943    0.1324 H   0  0  0  0  0  0  0  0  0  0  0  0
    3.3797   -6.8686   -2.3150 H   0  0  0  0  0  0  0  0  0  0  0  0
    0.5661   -3.7820   -2.8984 H   0  0  0  0  0  0  0  0  0  0  0  0
   -4.8608    0.5289    4.3143 H   0  0  0  0  0  0  0  0  0  0  0  0
   -6.1818   -0.6306    4.3057 H   0  0  0  0  0  0  0  0  0  0  0  0
   -7.6600    0.8688    3.0171 H   0  0  0  0  0  0  0  0  0  0  0  0
   -7.7019    2.6154    4.8702 H   0  0  0  0  0  0  0  0  0  0  0  0
   -7.4679    0.8843    5.4761 H   0  0  0  0  0  0  0  0  0  0  0  0
   -6.0451    1.9582    5.3723 H   0  0  0  0  0  0  0  0  0  0  0  0
   -6.4735    2.4816    1.7068 H   0  0  0  0  0  0  0  0  0  0  0  0
   -6.7934    3.3424    3.2074 H   0  0  0  0  0  0  0  0  0  0  0  0
   -5.1795    2.6586    3.0362 H   0  0  0  0  0  0  0  0  0  0  0  0
  -13.7040   -5.1728   -2.0162 H   0  0  0  0  0  0  0  0  0  0  0  0
  -14.7747   -4.7146   -0.6101 H   0  0  0  0  0  0  0  0  0  0  0  0
  1  2  1  0
  2  3  2  3
  3  4  1  0
  4  5  1  0
  5  6  1  0
  6  7  1  0
  7  8  1  0
  8  9  1  0
  9 10  2  0
  9 11  1  0
 11 12  1  0
 12 13  1  0
 13 14  2  0
 13 15  1  0
 12 16  1  0
 16 17  1  0
 17 18  2  0
 18 19  1  0
 19 20  1  0
 20 21  2  0
 21 22  1  0
 22 23  2  0
 23 24  1  0
 24 25  2  0
  8 26  1  0
 26 27  1  0
 27 28  2  0
 27 29  1  0
 29 30  1  0
 30 31  1  0
 31 32  2  0
 31 33  1  0
 33 34  1  0
 34 35  1  0
 35 36  2  0
 35 37  1  0
 37 38  1  0
 38 39  1  0
 39 40  2  0
 39 41  1  0
 41 42  1  0
 42 43  1  0
 42 44  1  0
 41 45  1  0
 45 46  1  0
 46 47  2  0
 46 48  1  0
 48 49  1  0
 49 50  1  0
 50 51  2  0
 50 52  1  0
 52 53  1  0
 53 54  1  0
 54 55  2  0
 54 56  1  0
 56 57  1  0
 57 58  1  0
 58 59  2  0
 59 60  1  0
 60 61  2  0
 61 62  1  0
 62 63  2  0
 61 64  1  0
 56 65  1  0
 65 66  1  0
 66 67  2  0
 66 68  1  0
 52 69  1  0
 52 70  1  0
 48 71  1  0
 71 72  1  0
 72 73  2  0
 72 74  1  0
 37 75  1  0
 75 76  1  0
 76 77  2  0
 77 78  1  0
 78 79  2  0
 79 80  1  0
 80 81  2  0
 80 82  1  0
 29 83  1  0
 83 84  1  0
 84 85  1  0
 84 86  1  0
  3 87  1  0
 21 17  1  0
 63 58  1  0
 81 76  1  0
 25 20  1  0
  1 88  1  0
  1 89  1  0
  1 90  1  0
  4 91  1  0
  5 92  1  0
  5 93  1  0
  6 94  1  0
  6 95  1  0
  7 96  1  0
  7 97  1  0
  8 98  1  6
 11 99  1  0
 12100  1  6
 15101  1  0
 15102  1  0
 16103  1  0
 16104  1  0
 18105  1  0
 19106  1  0
 22107  1  0
 23108  1  0
 24109  1  0
 25110  1  0
 26111  1  0
 29112  1  1
 30113  1  0
 33114  1  0
 34115  1  0
 37116  1  6
 38117  1  0
 41118  1  1
 42119  1  1
 43120  1  0
 44121  1  0
 44122  1  0
 44123  1  0
 45124  1  0
 48125  1  1
 49126  1  0
 53127  1  0
 56128  1  6
 57129  1  0
 57130  1  0
 59131  1  0
 60132  1  0
 62133  1  0
 63134  1  0
 64135  1  0
 65136  1  0
 68137  1  0
 68138  1  0
 68139  1  0
 69140  1  0
 69141  1  0
 69142  1  0
 70143  1  0
 70144  1  0
 70145  1  0
 71146  1  0
 71147  1  0
 74148  1  0
 74149  1  0
 75150  1  0
 75151  1  0
 77152  1  0
 78153  1  0
 79154  1  0
 81155  1  0
 83156  1  0
 83157  1  0
 84158  1  0
 85159  1  0
 85160  1  0
 85161  1  0
 86162  1  0
 86163  1  0
 86164  1  0
 87165  1  0
 87166  1  0
M  END
>  <Ligand ID>  (1) 
LIG0005335

>  <Ligand>  (1) 
CHEMBL3968824

>  <SMILES>  (1) 
CN=C(NCCC[C@@H](C(=O)N[C@H](C(=O)N)Cc1c[nH]c2c1cccc2)NC(=O)[C@@H](NC(=O)NNC(=O)[C@@H](NC(=O)[C@H]([C@H](O)C)NC(=O)[C@@H](NC(=O)C(NC(=O)[C@@H](Cc1ccc(cc1)O)NC(=O)C)(C)C)CC(=O)N)Cc1cccc(c1)F)CC(C)C)N

>  <CID>  (1) 
24992020.0

>  <ChEMBL ID>  (1) 
nan

>  <InChiKey>  (1) 
VVPCRWCJEADIQQ-VFIXMFQQSA-N

>  <InChi>  (1) 
InChI=1S/C57H79FN16O13/c1-29(2)22-41(49(81)66-39(16-11-21-63-55(61)62-7)48(80)67-40(47(60)79)26-34-28-64-38-15-9-8-14-37(34)38)70-56(87)74-73-52(84)43(25-33-12-10-13-35(58)23-33)68-53(85)46(30(3)75)71-50(82)44(27-45(59)78)69-54(86)57(5,6)72-51(83)42(65-31(4)76)24-32-17-19-36(77)20-18-32/h8-10,12-15,17-20,23,28-30,39-44,46,64,75,77H,11,16,21-22,24-27H2,1-7H3,(H2,59,78)(H2,60,79)(H,65,76)(H,66,81)(H,67,80)(H,68,85)(H,69,86)(H,71,82)(H,72,83)(H,73,84)(H3,61,62,63)(H2,70,74,87)/t30-,39+,40+,41+,42-,43+,44+,46+/m1/s1

>  <IUPAC Name>  (1) 
(2S)-2-[[2-[[(2R)-2-acetamido-3-(4-hydroxyphenyl)propanoyl]amino]-2-methylpropanoyl]amino]-N-[(2S,3R)-1-[[(2S)-1-[2-[[(2S)-1-[[(2S)-1-[[(2S)-1-amino-3-(1H-indol-3-yl)-1-oxopropan-2-yl]amino]-5-[(N'-methylcarbamimidoyl)amino]-1-oxopentan-2-yl]amino]-4-methyl-1-oxopentan-2-yl]carbamoyl]hydrazinyl]-3-(3-fluorophenyl)-1-oxopropan-2-yl]amino]-3-hydroxy-1-oxobutan-2-yl]butanediamide

$$$$
