
     RDKit          3D

 32 34  0  0  0  0  0  0  0  0999 V2000
    4.3005    0.5628   -1.2634 C   0  0  0  0  0  0  0  0  0  0  0  0
    4.5069    1.2283    0.0858 C   0  0  0  0  0  0  0  0  0  0  0  0
    3.5592    0.5563    0.9574 N   0  0  0  0  0  0  0  0  0  0  0  0
    2.6461   -0.0261    0.2571 C   0  0  0  0  0  0  0  0  0  0  0  0
    2.8854    0.1932   -1.1339 N   0  0  0  0  0  0  0  0  0  0  0  0
    1.4820   -0.8266    0.7369 C   0  0  0  0  0  0  0  0  0  0  0  0
    0.2339   -0.2581    0.3197 O   0  0  0  0  0  0  0  0  0  0  0  0
   -0.9434   -0.9235    0.7108 C   0  0  0  0  0  0  0  0  0  0  0  0
   -0.8921   -2.0850    1.4711 C   0  0  0  0  0  0  0  0  0  0  0  0
   -2.0133   -2.7654    1.8740 C   0  0  0  0  0  0  0  0  0  0  0  0
   -3.2603   -2.2711    1.5053 C   0  0  0  0  0  0  0  0  0  0  0  0
   -3.3149   -1.1012    0.7395 C   0  0  0  0  0  0  0  0  0  0  0  0
   -2.1801   -0.4335    0.3453 C   0  0  0  0  0  0  0  0  0  0  0  0
   -2.2689    0.7836   -0.4527 C   0  0  0  0  0  0  0  0  0  0  0  0
   -3.4351    1.3744   -0.8815 C   0  0  0  0  0  0  0  0  0  0  0  0
   -3.0987    2.4934   -1.5997 C   0  0  0  0  0  0  0  0  0  0  0  0
   -1.7086    2.5377   -1.5773 C   0  0  0  0  0  0  0  0  0  0  0  0
   -1.2924    1.5128   -0.8928 O   0  0  0  0  0  0  0  0  0  0  0  0
    4.8622   -0.4121   -1.3249 H   0  0  0  0  0  0  0  0  0  0  0  0
    4.4841    1.2352   -2.1072 H   0  0  0  0  0  0  0  0  0  0  0  0
    4.3085    2.2967   -0.0279 H   0  0  0  0  0  0  0  0  0  0  0  0
    5.5655    1.0467    0.3703 H   0  0  0  0  0  0  0  0  0  0  0  0
    2.1976    0.1086   -1.9013 H   0  0  0  0  0  0  0  0  0  0  0  0
    1.4790   -1.8587    0.2941 H   0  0  0  0  0  0  0  0  0  0  0  0
    1.4406   -0.8644    1.8438 H   0  0  0  0  0  0  0  0  0  0  0  0
    0.0860   -2.4902    1.7717 H   0  0  0  0  0  0  0  0  0  0  0  0
   -1.9017   -3.6709    2.4694 H   0  0  0  0  0  0  0  0  0  0  0  0
   -4.1574   -2.7942    1.8138 H   0  0  0  0  0  0  0  0  0  0  0  0
   -4.2662   -0.6887    0.4350 H   0  0  0  0  0  0  0  0  0  0  0  0
   -4.4473    1.0415   -0.7014 H   0  0  0  0  0  0  0  0  0  0  0  0
   -3.7596    3.2104   -2.0923 H   0  0  0  0  0  0  0  0  0  0  0  0
   -1.0976    3.2880   -2.0447 H   0  0  0  0  0  0  0  0  0  0  0  0
  1  2  1  0
  2  3  1  0
  3  4  2  0
  4  5  1  0
  4  6  1  0
  6  7  1  0
  7  8  1  0
  8  9  2  0
  9 10  1  0
 10 11  2  0
 11 12  1  0
 12 13  2  0
 13 14  1  0
 14 15  2  0
 15 16  1  0
 16 17  2  0
 17 18  1  0
  5  1  1  0
 13  8  1  0
 18 14  1  0
  1 19  1  0
  1 20  1  0
  2 21  1  0
  2 22  1  0
  5 23  1  0
  6 24  1  0
  6 25  1  0
  9 26  1  0
 10 27  1  0
 11 28  1  0
 12 29  1  0
 15 30  1  0
 16 31  1  0
 17 32  1  0
M  END
>  <Ligand ID>  (1) 
LIG0003191

>  <Ligand>  (1) 
CHEMBL279136

>  <SMILES>  (1) 
C1CN=C(N1)COc1ccccc1c1ccco1

>  <CID>  (1) 
44362286.0

>  <ChEMBL ID>  (1) 
nan

>  <InChiKey>  (1) 
MXSYQDRTCADVLB-UHFFFAOYSA-N

>  <InChi>  (1) 
InChI=1S/C14H14N2O2/c1-2-5-13(18-10-14-15-7-8-16-14)11(4-1)12-6-3-9-17-12/h1-6,9H,7-8,10H2,(H,15,16)

>  <IUPAC Name>  (1) 
2-[[2-(furan-2-yl)phenoxy]methyl]-4,5-dihydro-1H-imidazole

$$$$
