
     RDKit          3D

 14 13  0  0  0  0  0  0  0  0999 V2000
   -2.1900    0.4572   -0.1939 C   0  0  0  0  0  0  0  0  0  0  0  0
   -1.1253   -0.6313   -0.2918 C   0  0  0  0  0  0  0  0  0  0  0  0
    0.1803    0.0609   -0.0176 C   0  0  0  0  0  0  0  0  0  0  0  0
    0.2598    1.2792    0.2278 O   0  0  0  0  0  0  0  0  0  0  0  0
    1.3101   -0.7403   -0.0525 O   0  0  0  0  0  0  0  0  0  0  0  0
    2.5675   -0.1400    0.1986 C   0  0  0  0  0  0  0  0  0  0  0  0
   -1.8810    1.1130    0.6433 H   0  0  0  0  0  0  0  0  0  0  0  0
   -3.1866    0.0258    0.0324 H   0  0  0  0  0  0  0  0  0  0  0  0
   -2.2838    1.0195   -1.1524 H   0  0  0  0  0  0  0  0  0  0  0  0
   -1.3402   -1.3543    0.5397 H   0  0  0  0  0  0  0  0  0  0  0  0
   -1.1367   -1.1006   -1.2730 H   0  0  0  0  0  0  0  0  0  0  0  0
    2.9986    0.3109   -0.7263 H   0  0  0  0  0  0  0  0  0  0  0  0
    2.5403    0.6559    0.9671 H   0  0  0  0  0  0  0  0  0  0  0  0
    3.2871   -0.9558    0.4772 H   0  0  0  0  0  0  0  0  0  0  0  0
  1  2  1  0
  2  3  1  0
  3  4  2  0
  3  5  1  0
  5  6  1  0
  1  7  1  0
  1  8  1  0
  1  9  1  0
  2 10  1  0
  2 11  1  0
  6 12  1  0
  6 13  1  0
  6 14  1  0
M  END
>  <Ligand ID>  (1) 
LIG0000614

>  <Ligand>  (1) 
methyl propanoate

>  <SMILES>  (1) 
CCC(=O)OC

>  <CID>  (1) 
11124.0

>  <ChEMBL ID>  (1) 
nan

>  <InChiKey>  (1) 
RJUFJBKOKNCXHH-UHFFFAOYSA-N

>  <InChi>  (1) 
InChI=1S/C4H8O2/c1-3-4(5)6-2/h3H2,1-2H3

>  <IUPAC Name>  (1) 
methyl propanoate

$$$$
