
     RDKit          3D

 46 46  0  0  0  0  0  0  0  0999 V2000
    0.3725    3.7995   -1.2468 O   0  0  0  0  0  0  0  0  0  0  0  0
    0.1368    2.7510   -0.6437 C   0  0  0  0  0  0  0  0  0  0  0  0
    1.0823    1.7523   -0.1631 C   0  0  0  0  0  0  0  0  0  0  0  0
    2.5320    2.0771   -0.1315 C   0  0  0  0  0  0  0  0  0  0  0  0
    3.1767    0.8605    0.4972 C   0  0  0  0  0  0  0  0  0  0  0  0
    3.2928   -0.3560   -0.3980 C   0  0  0  0  0  0  0  0  0  0  0  0
    3.2541   -1.6097    0.5086 C   0  0  0  0  0  0  0  0  0  0  0  0
    1.7344   -1.9280    0.6998 C   0  0  0  0  0  0  0  0  0  0  0  0
    1.3053   -2.7934   -0.4448 C   0  0  0  0  0  0  0  0  0  0  0  0
   -0.1033   -3.0967   -0.7139 C   0  0  0  0  0  0  0  0  0  0  0  0
   -1.0088   -3.2764    0.2804 O   0  0  0  0  0  0  0  0  0  0  0  0
   -1.4472   -2.1074    0.9120 C   0  0  0  0  0  0  0  0  0  0  0  0
   -2.2357   -1.2376   -0.0180 C   0  0  0  0  0  0  0  0  0  0  0  0
   -2.5062    0.1405    0.5294 C   0  0  0  0  0  0  0  0  0  0  0  0
   -3.4431    0.9003   -0.3944 C   0  0  0  0  0  0  0  0  0  0  0  0
   -3.5379    2.3637   -0.0916 C   0  0  0  0  0  0  0  0  0  0  0  0
   -2.3409    3.1465   -0.6763 C   0  0  0  0  0  0  0  0  0  0  0  0
   -1.2065    2.4586   -0.3685 O   0  0  0  0  0  0  0  0  0  0  0  0
    0.9780    0.8518   -0.8334 H   0  0  0  0  0  0  0  0  0  0  0  0
    0.8131    1.3881    0.8705 H   0  0  0  0  0  0  0  0  0  0  0  0
    2.9565    2.3302   -1.1227 H   0  0  0  0  0  0  0  0  0  0  0  0
    2.6996    2.9291    0.5256 H   0  0  0  0  0  0  0  0  0  0  0  0
    4.1772    1.1611    0.8976 H   0  0  0  0  0  0  0  0  0  0  0  0
    2.5138    0.5539    1.3577 H   0  0  0  0  0  0  0  0  0  0  0  0
    4.3054   -0.3448   -0.8398 H   0  0  0  0  0  0  0  0  0  0  0  0
    2.5588   -0.4095   -1.1989 H   0  0  0  0  0  0  0  0  0  0  0  0
    3.7233   -2.4520    0.0136 H   0  0  0  0  0  0  0  0  0  0  0  0
    3.7004   -1.3569    1.4624 H   0  0  0  0  0  0  0  0  0  0  0  0
    1.1960   -0.9759    0.6620 H   0  0  0  0  0  0  0  0  0  0  0  0
    1.6249   -2.4128    1.6764 H   0  0  0  0  0  0  0  0  0  0  0  0
    1.8703   -3.7913   -0.3381 H   0  0  0  0  0  0  0  0  0  0  0  0
    1.7721   -2.2822   -1.3590 H   0  0  0  0  0  0  0  0  0  0  0  0
   -0.1120   -4.0950   -1.3268 H   0  0  0  0  0  0  0  0  0  0  0  0
   -0.4619   -2.3799   -1.4922 H   0  0  0  0  0  0  0  0  0  0  0  0
   -2.2352   -2.5132    1.6486 H   0  0  0  0  0  0  0  0  0  0  0  0
   -0.7177   -1.6484    1.5385 H   0  0  0  0  0  0  0  0  0  0  0  0
   -3.2723   -1.6947   -0.1550 H   0  0  0  0  0  0  0  0  0  0  0  0
   -1.8376   -1.2035   -1.0339 H   0  0  0  0  0  0  0  0  0  0  0  0
   -1.6235    0.6629    0.8482 H   0  0  0  0  0  0  0  0  0  0  0  0
   -3.1232   -0.0229    1.4753 H   0  0  0  0  0  0  0  0  0  0  0  0
   -4.4524    0.4598   -0.2862 H   0  0  0  0  0  0  0  0  0  0  0  0
   -3.1040    0.7273   -1.4494 H   0  0  0  0  0  0  0  0  0  0  0  0
   -4.4567    2.8231   -0.5003 H   0  0  0  0  0  0  0  0  0  0  0  0
   -3.5687    2.4790    1.0272 H   0  0  0  0  0  0  0  0  0  0  0  0
   -2.5963    3.1922   -1.7766 H   0  0  0  0  0  0  0  0  0  0  0  0
   -2.3850    4.1797   -0.2649 H   0  0  0  0  0  0  0  0  0  0  0  0
  1  2  2  0
  2  3  1  0
  3  4  1  0
  4  5  1  0
  5  6  1  0
  6  7  1  0
  7  8  1  0
  8  9  1  0
  9 10  1  0
 10 11  1  0
 11 12  1  0
 12 13  1  0
 13 14  1  0
 14 15  1  0
 15 16  1  0
 16 17  1  0
 17 18  1  0
 18  2  1  0
  3 19  1  0
  3 20  1  0
  4 21  1  0
  4 22  1  0
  5 23  1  0
  5 24  1  0
  6 25  1  0
  6 26  1  0
  7 27  1  0
  7 28  1  0
  8 29  1  0
  8 30  1  0
  9 31  1  0
  9 32  1  0
 10 33  1  0
 10 34  1  0
 12 35  1  0
 12 36  1  0
 13 37  1  0
 13 38  1  0
 14 39  1  0
 14 40  1  0
 15 41  1  0
 15 42  1  0
 16 43  1  0
 16 44  1  0
 17 45  1  0
 17 46  1  0
M  END
>  <Ligand ID>  (1) 
LIG0001068

>  <Ligand>  (1) 
Oxalide T

>  <SMILES>  (1) 
O=C1CCCCCCCCOCCCCCCO1

>  <CID>  (1) 
74408.0

>  <ChEMBL ID>  (1) 
nan

>  <InChiKey>  (1) 
MZLRFHKWWCSGHB-UHFFFAOYSA-N

>  <InChi>  (1) 
InChI=1S/C15H28O3/c16-15-11-7-3-1-2-4-8-12-17-13-9-5-6-10-14-18-15/h1-14H2

>  <IUPAC Name>  (1) 
1,8-dioxacycloheptadecan-9-one

$$$$
