
     RDKit          3D

 45 45  0  0  0  0  0  0  0  0999 V2000
   -4.0156    0.3731   -0.4245 C   0  0  0  0  0  0  0  0  0  0  0  0
   -2.5630    0.6744   -0.7047 C   0  0  0  0  0  0  0  0  0  0  0  0
   -2.2633    2.0972   -0.2530 C   0  0  0  0  0  0  0  0  0  0  0  0
   -0.8603    2.5163   -0.6330 C   0  0  0  0  0  0  0  0  0  0  0  0
   -0.0290    2.7538    0.3356 C   0  0  0  0  0  0  0  0  0  0  0  0
    1.3868    3.1842    0.2570 C   0  0  0  0  0  0  0  0  0  0  0  0
    2.3573    2.1461    0.8085 C   0  0  0  0  0  0  0  0  0  0  0  0
    2.5953    1.1455   -0.2990 C   0  0  0  0  0  0  0  0  0  0  0  0
    3.3901   -0.0493    0.0752 C   0  0  0  0  0  0  0  0  0  0  0  0
    2.5981   -1.0720    0.8707 C   0  0  0  0  0  0  0  0  0  0  0  0
    1.6046   -1.7690   -0.0782 C   0  0  0  0  0  0  0  0  0  0  0  0
    0.7291   -2.6492    0.7398 C   0  0  0  0  0  0  0  0  0  0  0  0
   -0.2643   -3.4243   -0.1013 C   0  0  0  0  0  0  0  0  0  0  0  0
   -1.1783   -2.5784   -0.9177 C   0  0  0  0  0  0  0  0  0  0  0  0
   -2.0722   -1.6838   -0.1464 C   0  0  0  0  0  0  0  0  0  0  0  0
   -3.1543   -2.1421    0.2435 O   0  0  0  0  0  0  0  0  0  0  0  0
   -1.7846   -0.2861    0.2012 C   0  0  0  0  0  0  0  0  0  0  0  0
   -4.1783   -0.0689    0.5916 H   0  0  0  0  0  0  0  0  0  0  0  0
   -4.6396    1.2892   -0.4692 H   0  0  0  0  0  0  0  0  0  0  0  0
   -4.4167   -0.3747   -1.1512 H   0  0  0  0  0  0  0  0  0  0  0  0
   -2.3499    0.5832   -1.7500 H   0  0  0  0  0  0  0  0  0  0  0  0
   -2.4508    2.2435    0.8306 H   0  0  0  0  0  0  0  0  0  0  0  0
   -2.9957    2.7322   -0.7877 H   0  0  0  0  0  0  0  0  0  0  0  0
   -0.6600    2.5846   -1.6951 H   0  0  0  0  0  0  0  0  0  0  0  0
   -0.3963    2.6264    1.3860 H   0  0  0  0  0  0  0  0  0  0  0  0
    1.6715    3.3354   -0.8078 H   0  0  0  0  0  0  0  0  0  0  0  0
    1.5504    4.1427    0.8208 H   0  0  0  0  0  0  0  0  0  0  0  0
    3.2984    2.6951    1.0248 H   0  0  0  0  0  0  0  0  0  0  0  0
    2.0129    1.7134    1.7498 H   0  0  0  0  0  0  0  0  0  0  0  0
    3.2041    1.7065   -1.0749 H   0  0  0  0  0  0  0  0  0  0  0  0
    1.6847    0.8554   -0.8387 H   0  0  0  0  0  0  0  0  0  0  0  0
    3.7033   -0.5498   -0.8647 H   0  0  0  0  0  0  0  0  0  0  0  0
    4.3050    0.2361    0.6213 H   0  0  0  0  0  0  0  0  0  0  0  0
    1.9912   -0.6479    1.6753 H   0  0  0  0  0  0  0  0  0  0  0  0
    3.3028   -1.8571    1.2069 H   0  0  0  0  0  0  0  0  0  0  0  0
    1.1386   -1.0273   -0.7112 H   0  0  0  0  0  0  0  0  0  0  0  0
    2.2233   -2.3956   -0.8170 H   0  0  0  0  0  0  0  0  0  0  0  0
    0.1564   -2.0614    1.4765 H   0  0  0  0  0  0  0  0  0  0  0  0
    1.3226   -3.3699    1.2997 H   0  0  0  0  0  0  0  0  0  0  0  0
   -0.9124   -3.9534    0.6571 H   0  0  0  0  0  0  0  0  0  0  0  0
    0.2317   -4.2136   -0.6658 H   0  0  0  0  0  0  0  0  0  0  0  0
   -0.5592   -2.0108   -1.6482 H   0  0  0  0  0  0  0  0  0  0  0  0
   -1.8486   -3.2960   -1.4786 H   0  0  0  0  0  0  0  0  0  0  0  0
   -0.7272   -0.0904    0.1941 H   0  0  0  0  0  0  0  0  0  0  0  0
   -2.1387   -0.0634    1.2521 H   0  0  0  0  0  0  0  0  0  0  0  0
  1  2  1  0
  2  3  1  0
  3  4  1  0
  4  5  2  0
  5  6  1  0
  6  7  1  0
  7  8  1  0
  8  9  1  0
  9 10  1  0
 10 11  1  0
 11 12  1  0
 12 13  1  0
 13 14  1  0
 14 15  1  0
 15 16  2  0
 15 17  1  0
 17  2  1  0
  1 18  1  0
  1 19  1  0
  1 20  1  0
  2 21  1  0
  3 22  1  0
  3 23  1  0
  4 24  1  0
  5 25  1  0
  6 26  1  0
  6 27  1  0
  7 28  1  0
  7 29  1  0
  8 30  1  0
  8 31  1  0
  9 32  1  0
  9 33  1  0
 10 34  1  0
 10 35  1  0
 11 36  1  0
 11 37  1  0
 12 38  1  0
 12 39  1  0
 13 40  1  0
 13 41  1  0
 14 42  1  0
 14 43  1  0
 17 44  1  0
 17 45  1  0
M  END
>  <Ligand ID>  (1) 
LIG0000057

>  <Ligand>  (1) 
(5E)-3-methylcyclopentadec-5-en-1-one

>  <SMILES>  (1) 
CC1C/C=C/CCCCCCCCCC(=O)C1

>  <CID>  (1) 
9834606.0

>  <ChEMBL ID>  (1) 
nan

>  <InChiKey>  (1) 
NKMKFQCVDZVEJR-CSKARUKUSA-N

>  <InChi>  (1) 
InChI=1S/C16H28O/c1-15-12-10-8-6-4-2-3-5-7-9-11-13-16(17)14-15/h8,10,15H,2-7,9,11-14H2,1H3/b10-8+

>  <IUPAC Name>  (1) 
(5E)-3-methylcyclopentadec-5-en-1-one

$$$$
