
     RDKit          3D

 26 28  0  0  0  0  0  0  0  0999 V2000
    1.4892    2.9029    1.0409 O   0  0  0  0  0  0  0  0  0  0  0  0
    0.8278    1.9560    0.5838 C   0  0  0  0  0  0  0  0  0  0  0  0
   -0.6190    1.9655    0.5105 N   0  0  0  0  0  0  0  0  0  0  0  0
   -1.2682    0.7106    0.6867 C   0  0  1  0  0  0  0  0  0  0  0  0
   -2.7377    0.6484    0.4970 C   0  0  0  0  0  0  0  0  0  0  0  0
   -3.0095   -0.6555   -0.1349 N   0  0  0  0  0  0  0  0  0  0  0  0
   -1.6997   -1.3214   -0.2643 C   0  0  0  0  0  0  0  0  0  0  0  0
   -0.8378   -0.1467   -0.5221 C   0  0  2  0  0  0  0  0  0  0  0  0
    0.6043   -0.2951   -0.4378 C   0  0  0  0  0  0  0  0  0  0  0  0
    1.4436    0.7143    0.0625 C   0  0  0  0  0  0  0  0  0  0  0  0
    2.8127    0.5632    0.1045 C   0  0  0  0  0  0  0  0  0  0  0  0
    3.8259    1.8551    0.7386 Cl  0  0  0  0  0  0  0  0  0  0  0  0
    3.3421   -0.6247   -0.3646 C   0  0  0  0  0  0  0  0  0  0  0  0
    2.5546   -1.6467   -0.8652 C   0  0  0  0  0  0  0  0  0  0  0  0
    1.1667   -1.4873   -0.9056 C   0  0  0  0  0  0  0  0  0  0  0  0
    5.0841   -0.8218   -0.3133 Cl  0  0  0  0  0  0  0  0  0  0  0  0
   -1.0851    2.8861    0.3369 H   0  0  0  0  0  0  0  0  0  0  0  0
   -0.9179    0.2067    1.6143 H   0  0  0  0  0  0  0  0  0  0  0  0
   -3.2270    0.5870    1.5071 H   0  0  0  0  0  0  0  0  0  0  0  0
   -3.1849    1.4864   -0.0281 H   0  0  0  0  0  0  0  0  0  0  0  0
   -3.6845   -1.2217    0.3909 H   0  0  0  0  0  0  0  0  0  0  0  0
   -1.7673   -2.0741   -1.0481 H   0  0  0  0  0  0  0  0  0  0  0  0
   -1.5108   -1.7390    0.7562 H   0  0  0  0  0  0  0  0  0  0  0  0
   -1.1859    0.3926   -1.4317 H   0  0  0  0  0  0  0  0  0  0  0  0
    3.0411   -2.5482   -1.2141 H   0  0  0  0  0  0  0  0  0  0  0  0
    0.5432   -2.2922   -1.3001 H   0  0  0  0  0  0  0  0  0  0  0  0
  1  2  2  0
  2  3  1  0
  3  4  1  0
  4  5  1  0
  5  6  1  0
  6  7  1  0
  7  8  1  0
  8  9  1  0
  9 10  2  0
 10 11  1  0
 11 12  1  0
 11 13  2  0
 13 14  1  0
 14 15  2  0
 13 16  1  0
 10  2  1  0
  8  4  1  0
 15  9  1  0
  3 17  1  0
  4 18  1  1
  5 19  1  0
  5 20  1  0
  6 21  1  0
  7 22  1  0
  7 23  1  0
  8 24  1  6
 14 25  1  0
 15 26  1  0
M  END
>  <Ligand ID>  (1) 
LIG0002439

>  <Ligand>  (1) 
CHEMBL2337500

>  <SMILES>  (1) 
O=C1N[C@H]2CNC[C@@H]2c2c1c(Cl)c(cc2)Cl

>  <CID>  (1) 
11609026.0

>  <ChEMBL ID>  (1) 
nan

>  <InChiKey>  (1) 
UFIHFWYXISGIHY-SVRRBLITSA-N

>  <InChi>  (1) 
InChI=1S/C11H10Cl2N2O/c12-7-2-1-5-6-3-14-4-8(6)15-11(16)9(5)10(7)13/h1-2,6,8,14H,3-4H2,(H,15,16)/t6-,8+/m1/s1

>  <IUPAC Name>  (1) 
(3aR,9bS)-6,7-dichloro-1,2,3,3a,4,9b-hexahydropyrrolo[3,4-c]isoquinolin-5-one

$$$$
