
     RDKit          3D

 27 28  0  0  0  0  0  0  0  0999 V2000
   -1.0691   -2.2216    0.1861 C   0  0  0  0  0  0  0  0  0  0  0  0
   -0.4643   -1.3728   -0.8911 C   0  0  2  0  0  0  0  0  0  0  0  0
    1.0505   -1.2627   -0.7241 C   0  0  0  0  0  0  0  0  0  0  0  0
    1.1407   -0.1044    0.2330 C   0  0  1  0  0  0  0  0  0  0  0  0
    0.1402    0.8655   -0.3641 C   0  0  1  0  0  0  0  0  0  0  0  0
   -0.9698    0.0319   -0.9411 C   0  0  2  0  0  0  0  0  0  0  0  0
   -1.1933    0.8626    0.2451 C   0  0  2  0  0  0  0  0  0  0  0  0
   -2.0404    2.0822    0.0330 C   0  0  0  0  0  0  0  0  0  0  0  0
   -1.9802    2.6655   -1.0992 O   0  0  0  0  0  0  0  0  0  0  0  0
   -2.8750    2.5872    1.0166 O   0  0  0  0  0  0  0  0  0  0  0  0
    0.7488   -0.4939    1.5559 N   0  0  0  0  0  0  0  0  0  0  0  0
    2.4846    0.4971    0.2922 C   0  0  0  0  0  0  0  0  0  0  0  0
    3.1027    0.6021    1.3937 O   0  0  0  0  0  0  0  0  0  0  0  0
    3.1194    0.9717   -0.8721 O   0  0  0  0  0  0  0  0  0  0  0  0
   -1.5131   -3.1722   -0.2239 H   0  0  0  0  0  0  0  0  0  0  0  0
   -1.8682   -1.6877    0.7157 H   0  0  0  0  0  0  0  0  0  0  0  0
   -0.3132   -2.5422    0.9471 H   0  0  0  0  0  0  0  0  0  0  0  0
   -0.6387   -1.8845   -1.8580 H   0  0  0  0  0  0  0  0  0  0  0  0
    1.5077   -2.1842   -0.3581 H   0  0  0  0  0  0  0  0  0  0  0  0
    1.5081   -0.9760   -1.6963 H   0  0  0  0  0  0  0  0  0  0  0  0
    0.5178    1.6816   -1.0082 H   0  0  0  0  0  0  0  0  0  0  0  0
   -1.4382    0.3480   -1.9106 H   0  0  0  0  0  0  0  0  0  0  0  0
   -1.3184    0.4238    1.2735 H   0  0  0  0  0  0  0  0  0  0  0  0
   -3.5848    3.3034    0.8100 H   0  0  0  0  0  0  0  0  0  0  0  0
    0.6218    0.3610    2.1304 H   0  0  0  0  0  0  0  0  0  0  0  0
    1.5194   -1.1080    1.9370 H   0  0  0  0  0  0  0  0  0  0  0  0
    3.8048    1.7263   -0.8224 H   0  0  0  0  0  0  0  0  0  0  0  0
  1  2  1  0
  2  3  1  0
  3  4  1  0
  4  5  1  0
  5  6  1  0
  6  7  1  0
  7  8  1  0
  8  9  2  0
  8 10  1  0
  4 11  1  1
  4 12  1  0
 12 13  2  0
 12 14  1  0
  6  2  1  0
  7  5  1  0
  1 15  1  0
  1 16  1  0
  1 17  1  0
  2 18  1  6
  3 19  1  0
  3 20  1  0
  5 21  1  6
  6 22  1  6
  7 23  1  1
 10 24  1  0
 11 25  1  0
 11 26  1  0
 14 27  1  0
M  END
>  <Ligand ID>  (1) 
LIG0002170

>  <Ligand>  (1) 
LY395756

>  <SMILES>  (1) 
C[C@@H]1C[C@@]([C@H]2[C@@H]1[C@@H]2C(=O)O)(N)C(=O)O

>  <CID>  (1) 
11310142.0

>  <ChEMBL ID>  (1) 
nan

>  <InChiKey>  (1) 
BQVZICWQBFTOJX-QNDZYWSYSA-N

>  <InChi>  (1) 
InChI=1S/C9H13NO4/c1-3-2-9(10,8(13)14)6-4(3)5(6)7(11)12/h3-6H,2,10H2,1H3,(H,11,12)(H,13,14)/t3-,4+,5+,6+,9+/m1/s1

>  <IUPAC Name>  (1) 
(1S,2S,4R,5R,6S)-2-amino-4-methylbicyclo[3.1.0]hexane-2,6-dicarboxylic acid

$$$$
