
     RDKit          3D

 98102  0  0  0  0  0  0  0  0999 V2000
    2.1177    6.3284   -1.9065 N   0  0  0  0  0  0  0  0  0  0  0  0
    0.6908    6.2521   -1.9627 C   0  0  0  0  0  0  0  0  0  0  0  0
    0.0533    5.1280   -1.7818 N   0  0  0  0  0  0  0  0  0  0  0  0
    0.8638    3.9065   -1.5097 C   0  0  0  0  0  0  0  0  0  0  0  0
    1.2891    3.2693   -2.7788 C   0  0  0  0  0  0  0  0  0  0  0  0
    2.1324    2.0399   -2.6929 C   0  0  0  0  0  0  0  0  0  0  0  0
    1.4978    0.8828   -2.0517 C   0  0  1  0  0  0  0  0  0  0  0  0
    2.4255   -0.3142   -2.0002 C   0  0  0  0  0  0  0  0  0  0  0  0
    2.9038   -0.6528   -3.1143 O   0  0  0  0  0  0  0  0  0  0  0  0
    2.7156   -0.9815   -0.7820 N   0  0  0  0  0  0  0  0  0  0  0  0
    3.6321   -2.1384   -0.8773 C   0  0  2  0  0  0  0  0  0  0  0  0
    3.0151   -3.3569   -0.3839 C   0  0  0  0  0  0  0  0  0  0  0  0
    3.5042   -4.5075   -0.4274 O   0  0  0  0  0  0  0  0  0  0  0  0
    1.7091   -3.2501    0.2207 N   0  0  0  0  0  0  0  0  0  0  0  0
    4.8934   -1.6828   -0.2326 C   0  0  0  0  0  0  0  0  0  0  0  0
    6.0042   -2.6176   -0.1620 C   0  0  0  0  0  0  0  0  0  0  0  0
    7.0469   -2.6302   -1.1031 C   0  0  0  0  0  0  0  0  0  0  0  0
    7.9115   -3.6155   -0.7979 N   0  0  0  0  0  0  0  0  0  0  0  0
    7.4865   -4.2651    0.3166 C   0  0  0  0  0  0  0  0  0  0  0  0
    6.3167   -3.6435    0.6963 C   0  0  0  0  0  0  0  0  0  0  0  0
    5.6831   -4.1165    1.8256 C   0  0  0  0  0  0  0  0  0  0  0  0
    6.2159   -5.1666    2.5261 C   0  0  0  0  0  0  0  0  0  0  0  0
    7.3831   -5.7764    2.1334 C   0  0  0  0  0  0  0  0  0  0  0  0
    8.0537   -5.3204    0.9897 C   0  0  0  0  0  0  0  0  0  0  0  0
    1.0393    1.1024   -0.7307 N   0  0  0  0  0  0  0  0  0  0  0  0
   -0.2931    0.5993   -0.4181 C   0  0  0  0  0  0  0  0  0  0  0  0
   -0.9137    0.0085   -1.3293 O   0  0  0  0  0  0  0  0  0  0  0  0
   -0.8580    0.8075    0.9542 C   0  0  1  0  0  0  0  0  0  0  0  0
   -2.1460    0.2011    1.0137 N   0  0  0  0  0  0  0  0  0  0  0  0
   -3.3006    0.9125    0.6386 C   0  0  0  0  0  0  0  0  0  0  0  0
   -3.1150    2.1060    0.2239 O   0  0  0  0  0  0  0  0  0  0  0  0
   -4.6812    0.4347    0.6737 C   0  0  1  0  0  0  0  0  0  0  0  0
   -5.5987    1.3660    0.0297 N   0  0  0  0  0  0  0  0  0  0  0  0
   -7.0070    1.2106    0.0138 C   0  0  0  0  0  0  0  0  0  0  0  0
   -7.8483    2.1023   -0.6754 C   0  0  0  0  0  0  0  0  0  0  0  0
   -9.1493    1.6609   -0.4830 C   0  0  0  0  0  0  0  0  0  0  0  0
   -9.0544    0.5373    0.3025 C   0  0  0  0  0  0  0  0  0  0  0  0
   -7.7950    0.3413    0.5467 O   0  0  0  0  0  0  0  0  0  0  0  0
   -4.9426   -0.9709    0.3046 C   0  0  0  0  0  0  0  0  0  0  0  0
   -4.5690   -1.4076   -1.0375 C   0  0  0  0  0  0  0  0  0  0  0  0
   -5.4627   -1.2457   -2.1077 C   0  0  0  0  0  0  0  0  0  0  0  0
   -5.1357   -1.6667   -3.3748 C   0  0  0  0  0  0  0  0  0  0  0  0
   -3.9270   -2.2699   -3.6913 C   0  0  0  0  0  0  0  0  0  0  0  0
   -3.0422   -2.4305   -2.6311 C   0  0  0  0  0  0  0  0  0  0  0  0
   -3.3760   -2.0084   -1.3717 C   0  0  0  0  0  0  0  0  0  0  0  0
   -3.5101   -2.8006   -5.2952 Cl  0  0  0  0  0  0  0  0  0  0  0  0
    0.1124    0.4376    2.0103 C   0  0  0  0  0  0  0  0  0  0  0  0
   -0.4734    0.6514    3.3630 C   0  0  0  0  0  0  0  0  0  0  0  0
   -1.1608   -0.3644    4.0014 C   0  0  0  0  0  0  0  0  0  0  0  0
   -1.7038   -0.1694    5.2488 C   0  0  0  0  0  0  0  0  0  0  0  0
   -1.5653    1.0603    5.8851 C   0  0  0  0  0  0  0  0  0  0  0  0
   -0.8769    2.1051    5.2682 C   0  0  0  0  0  0  0  0  0  0  0  0
   -0.3500    1.8595    4.0149 C   0  0  0  0  0  0  0  0  0  0  0  0
   -0.0597    7.4361   -2.2237 N   0  0  0  0  0  0  0  0  0  0  0  0
    2.6936    6.4432   -2.7751 H   0  0  0  0  0  0  0  0  0  0  0  0
    2.5627    6.2661   -0.9613 H   0  0  0  0  0  0  0  0  0  0  0  0
    0.2140    3.3027   -0.8722 H   0  0  0  0  0  0  0  0  0  0  0  0
    1.7071    4.2989   -0.8999 H   0  0  0  0  0  0  0  0  0  0  0  0
    1.8422    4.0491   -3.3838 H   0  0  0  0  0  0  0  0  0  0  0  0
    0.3718    3.0833   -3.4171 H   0  0  0  0  0  0  0  0  0  0  0  0
    2.4360    1.8140   -3.7615 H   0  0  0  0  0  0  0  0  0  0  0  0
    3.0694    2.3607   -2.1289 H   0  0  0  0  0  0  0  0  0  0  0  0
    0.6635    0.5368   -2.7142 H   0  0  0  0  0  0  0  0  0  0  0  0
    2.3079   -0.6764    0.1226 H   0  0  0  0  0  0  0  0  0  0  0  0
    3.8259   -2.2905   -1.9856 H   0  0  0  0  0  0  0  0  0  0  0  0
    1.6970   -2.9162    1.2198 H   0  0  0  0  0  0  0  0  0  0  0  0
    0.8431   -3.4907   -0.3061 H   0  0  0  0  0  0  0  0  0  0  0  0
    4.6657   -1.3538    0.8278 H   0  0  0  0  0  0  0  0  0  0  0  0
    5.1841   -0.7299   -0.7422 H   0  0  0  0  0  0  0  0  0  0  0  0
    7.1455   -1.9435   -1.9563 H   0  0  0  0  0  0  0  0  0  0  0  0
    8.7682   -3.8187   -1.3561 H   0  0  0  0  0  0  0  0  0  0  0  0
    4.7517   -3.6139    2.1207 H   0  0  0  0  0  0  0  0  0  0  0  0
    5.7315   -5.5454    3.4113 H   0  0  0  0  0  0  0  0  0  0  0  0
    7.8451   -6.6076    2.6490 H   0  0  0  0  0  0  0  0  0  0  0  0
    8.9788   -5.8056    0.6788 H   0  0  0  0  0  0  0  0  0  0  0  0
    1.6143    1.5895   -0.0139 H   0  0  0  0  0  0  0  0  0  0  0  0
   -1.0366    1.9304    1.0071 H   0  0  0  0  0  0  0  0  0  0  0  0
   -2.3064   -0.8037    1.3373 H   0  0  0  0  0  0  0  0  0  0  0  0
   -4.9839    0.5226    1.7857 H   0  0  0  0  0  0  0  0  0  0  0  0
   -5.1463    2.1975   -0.4445 H   0  0  0  0  0  0  0  0  0  0  0  0
   -7.5688    2.9694   -1.2527 H   0  0  0  0  0  0  0  0  0  0  0  0
  -10.0342    2.1528   -0.8981 H   0  0  0  0  0  0  0  0  0  0  0  0
   -9.9377   -0.0194    0.6114 H   0  0  0  0  0  0  0  0  0  0  0  0
   -4.4742   -1.6676    1.0469 H   0  0  0  0  0  0  0  0  0  0  0  0
   -6.0554   -1.1311    0.3914 H   0  0  0  0  0  0  0  0  0  0  0  0
   -6.4319   -0.7913   -1.9819 H   0  0  0  0  0  0  0  0  0  0  0  0
   -5.8225   -1.5468   -4.2116 H   0  0  0  0  0  0  0  0  0  0  0  0
   -2.0917   -2.9072   -2.8740 H   0  0  0  0  0  0  0  0  0  0  0  0
   -2.6258   -2.1685   -0.5934 H   0  0  0  0  0  0  0  0  0  0  0  0
    0.5395   -0.5887    1.8866 H   0  0  0  0  0  0  0  0  0  0  0  0
    0.9938    1.1245    1.8965 H   0  0  0  0  0  0  0  0  0  0  0  0
   -1.2841   -1.3163    3.5473 H   0  0  0  0  0  0  0  0  0  0  0  0
   -2.2415   -0.9982    5.7240 H   0  0  0  0  0  0  0  0  0  0  0  0
   -1.9994    1.1902    6.8638 H   0  0  0  0  0  0  0  0  0  0  0  0
   -0.7557    3.0784    5.7469 H   0  0  0  0  0  0  0  0  0  0  0  0
    0.1879    2.6933    3.5449 H   0  0  0  0  0  0  0  0  0  0  0  0
   -0.6844    7.5373   -3.0591 H   0  0  0  0  0  0  0  0  0  0  0  0
    0.0590    8.2127   -1.5071 H   0  0  0  0  0  0  0  0  0  0  0  0
  1  2  1  0
  2  3  2  3
  3  4  1  0
  4  5  1  0
  5  6  1  0
  6  7  1  0
  7  8  1  0
  8  9  2  0
  8 10  1  0
 10 11  1  0
 11 12  1  0
 12 13  2  0
 12 14  1  0
 11 15  1  0
 15 16  1  0
 16 17  2  0
 17 18  1  0
 18 19  1  0
 19 20  2  0
 20 21  1  0
 21 22  2  0
 22 23  1  0
 23 24  2  0
  7 25  1  0
 25 26  1  0
 26 27  2  0
 26 28  1  0
 28 29  1  0
 29 30  1  0
 30 31  2  0
 30 32  1  0
 32 33  1  0
 33 34  1  0
 34 35  2  0
 35 36  1  0
 36 37  2  0
 37 38  1  0
 32 39  1  0
 39 40  1  0
 40 41  2  0
 41 42  1  0
 42 43  2  0
 43 44  1  0
 44 45  2  0
 43 46  1  0
 28 47  1  0
 47 48  1  0
 48 49  2  0
 49 50  1  0
 50 51  2  0
 51 52  1  0
 52 53  2  0
  2 54  1  0
 20 16  1  0
 38 34  1  0
 45 40  1  0
 53 48  1  0
 24 19  1  0
  1 55  1  0
  1 56  1  0
  4 57  1  0
  4 58  1  0
  5 59  1  0
  5 60  1  0
  6 61  1  0
  6 62  1  0
  7 63  1  6
 10 64  1  0
 11 65  1  6
 14 66  1  0
 14 67  1  0
 15 68  1  0
 15 69  1  0
 17 70  1  0
 18 71  1  0
 21 72  1  0
 22 73  1  0
 23 74  1  0
 24 75  1  0
 25 76  1  0
 28 77  1  1
 29 78  1  0
 32 79  1  1
 33 80  1  0
 35 81  1  0
 36 82  1  0
 37 83  1  0
 39 84  1  0
 39 85  1  0
 41 86  1  0
 42 87  1  0
 44 88  1  0
 45 89  1  0
 47 90  1  0
 47 91  1  0
 49 92  1  0
 50 93  1  0
 51 94  1  0
 52 95  1  0
 53 96  1  0
 54 97  1  0
 54 98  1  0
M  END
>  <Ligand ID>  (1) 
LIG0002635

>  <Ligand>  (1) 
CHEMBL187125

>  <SMILES>  (1) 
NC(=NCCC[C@@H](C(=O)N[C@H](C(=O)N)Cc1c[nH]c2c1cccc2)NC(=O)[C@@H](NC(=O)[C@@H](Nc1ccco1)Cc1ccc(cc1)Cl)Cc1ccccc1)N

>  <CID>  (1) 
44394689.0

>  <ChEMBL ID>  (1) 
nan

>  <InChiKey>  (1) 
GUVNNGAKCFLNBQ-YRCZKMHPSA-N

>  <InChi>  (1) 
InChI=1S/C39H44ClN9O5/c40-27-16-14-25(15-17-27)21-32(46-34-13-7-19-54-34)37(52)49-33(20-24-8-2-1-3-9-24)38(53)47-30(12-6-18-44-39(42)43)36(51)48-31(35(41)50)22-26-23-45-29-11-5-4-10-28(26)29/h1-5,7-11,13-17,19,23,30-33,45-46H,6,12,18,20-22H2,(H2,41,50)(H,47,53)(H,48,51)(H,49,52)(H4,42,43,44)/t30-,31-,32-,33-/m0/s1

>  <IUPAC Name>  (1) 
(2S)-N-[(2S)-1-amino-3-(1H-indol-3-yl)-1-oxopropan-2-yl]-2-[[(2S)-2-[[(2S)-3-(4-chlorophenyl)-2-(furan-2-ylamino)propanoyl]amino]-3-phenylpropanoyl]amino]-5-(diaminomethylideneamino)pentanamide

$$$$
