
     RDKit          3D

 42 45  0  0  0  0  0  0  0  0999 V2000
    3.9154    1.8248    1.0419 O   0  0  0  0  0  0  0  0  0  0  0  0
    4.3113    0.5291    1.2989 C   0  0  0  0  0  0  0  0  0  0  0  0
    3.7199   -0.4009    0.2990 C   0  0  0  0  0  0  0  0  0  0  0  0
    2.2919   -0.4564    0.2443 N   0  0  0  0  0  0  0  0  0  0  0  0
    1.4317    0.6156   -0.0993 C   0  0  0  0  0  0  0  0  0  0  0  0
    1.8233    1.7614   -0.4072 O   0  0  0  0  0  0  0  0  0  0  0  0
   -0.0306    0.4093   -0.1067 C   0  0  0  0  0  0  0  0  0  0  0  0
   -0.6897   -0.7445    0.1915 N   0  0  0  0  0  0  0  0  0  0  0  0
   -1.9827   -0.5941    0.0903 N   0  0  0  0  0  0  0  0  0  0  0  0
   -2.2440    0.6770   -0.2829 C   0  0  0  0  0  0  0  0  0  0  0  0
   -1.0238    1.3084   -0.4073 C   0  0  0  0  0  0  0  0  0  0  0  0
   -1.2020    2.7193   -0.8165 C   0  0  0  0  0  0  0  0  0  0  0  0
   -2.7030    2.9158   -0.8053 C   0  0  2  0  0  0  0  0  0  0  0  0
   -3.3548    1.6067   -0.5975 C   0  0  1  0  0  0  0  0  0  0  0  0
   -3.4225    2.2661   -1.9318 C   0  0  0  0  0  0  0  0  0  0  0  0
   -2.9392   -1.6361    0.3433 C   0  0  0  0  0  0  0  0  0  0  0  0
   -3.2682   -1.9193    1.6671 C   0  0  0  0  0  0  0  0  0  0  0  0
   -4.1883   -2.9225    1.8966 C   0  0  0  0  0  0  0  0  0  0  0  0
   -4.7270   -3.5807    0.8637 N   0  0  0  0  0  0  0  0  0  0  0  0
   -4.3768   -3.2703   -0.3986 C   0  0  0  0  0  0  0  0  0  0  0  0
   -3.4896   -2.3063   -0.6738 N   0  0  0  0  0  0  0  0  0  0  0  0
    4.2323   -1.8011    0.6312 C   0  0  0  0  0  0  0  0  0  0  0  0
    4.2445   -0.1053   -1.1124 C   0  0  0  0  0  0  0  0  0  0  0  0
    4.4857    2.2701    0.3565 H   0  0  0  0  0  0  0  0  0  0  0  0
    5.4386    0.5285    1.2246 H   0  0  0  0  0  0  0  0  0  0  0  0
    4.1155    0.2224    2.3502 H   0  0  0  0  0  0  0  0  0  0  0  0
    1.7910   -1.3714    0.4771 H   0  0  0  0  0  0  0  0  0  0  0  0
   -0.8246    2.9038   -1.8322 H   0  0  0  0  0  0  0  0  0  0  0  0
   -0.7894    3.4402   -0.0864 H   0  0  0  0  0  0  0  0  0  0  0  0
   -3.1435    3.7837   -0.2751 H   0  0  0  0  0  0  0  0  0  0  0  0
   -4.2865    1.5856    0.0138 H   0  0  0  0  0  0  0  0  0  0  0  0
   -4.4160    2.6276   -2.2576 H   0  0  0  0  0  0  0  0  0  0  0  0
   -2.8333    1.8327   -2.7737 H   0  0  0  0  0  0  0  0  0  0  0  0
   -2.8096   -1.3633    2.4747 H   0  0  0  0  0  0  0  0  0  0  0  0
   -4.4287   -3.1250    2.9373 H   0  0  0  0  0  0  0  0  0  0  0  0
   -4.8109   -3.8003   -1.2251 H   0  0  0  0  0  0  0  0  0  0  0  0
    3.5362   -2.5446    0.1904 H   0  0  0  0  0  0  0  0  0  0  0  0
    5.2440   -1.8887    0.1820 H   0  0  0  0  0  0  0  0  0  0  0  0
    4.2659   -1.9327    1.7291 H   0  0  0  0  0  0  0  0  0  0  0  0
    4.5049    0.9655   -1.2401 H   0  0  0  0  0  0  0  0  0  0  0  0
    5.1576   -0.6961   -1.3186 H   0  0  0  0  0  0  0  0  0  0  0  0
    3.4748   -0.3338   -1.8552 H   0  0  0  0  0  0  0  0  0  0  0  0
  1  2  1  0
  2  3  1  0
  3  4  1  0
  4  5  1  0
  5  6  2  0
  5  7  1  0
  7  8  2  0
  8  9  1  0
  9 10  1  0
 10 11  2  0
 11 12  1  0
 12 13  1  0
 13 14  1  0
 14 15  1  0
  9 16  1  0
 16 17  2  0
 17 18  1  0
 18 19  2  0
 19 20  1  0
 20 21  2  0
  3 22  1  0
  3 23  1  0
 11  7  1  0
 15 13  1  0
 21 16  1  0
 14 10  1  0
  1 24  1  0
  2 25  1  0
  2 26  1  0
  4 27  1  0
 12 28  1  0
 12 29  1  0
 13 30  1  1
 14 31  1  1
 15 32  1  0
 15 33  1  0
 17 34  1  0
 18 35  1  0
 20 36  1  0
 22 37  1  0
 22 38  1  0
 22 39  1  0
 23 40  1  0
 23 41  1  0
 23 42  1  0
M  END
>  <Ligand ID>  (1) 
LIG0001500

>  <Ligand>  (1) 
CHEMBL3352843

>  <SMILES>  (1) 
OCC(NC(=O)c1nn(c2c1C[C@@H]1[C@H]2C1)c1ccncn1)(C)C

>  <CID>  (1) 
118720584.0

>  <ChEMBL ID>  (1) 
nan

>  <InChiKey>  (1) 
RAWXPASUOIJZQB-NXEZZACHSA-N

>  <InChi>  (1) 
InChI=1S/C16H19N5O2/c1-16(2,7-22)19-15(23)13-11-6-9-5-10(9)14(11)21(20-13)12-3-4-17-8-18-12/h3-4,8-10,22H,5-7H2,1-2H3,(H,19,23)/t9-,10-/m1/s1

>  <IUPAC Name>  (1) 
(2R,4R)-N-(1-hydroxy-2-methylpropan-2-yl)-9-pyrimidin-4-yl-8,9-diazatricyclo[4.3.0.02,4]nona-1(6),7-diene-7-carboxamide

$$$$
