
     RDKit          3D

 58 61  0  0  0  0  0  0  0  0999 V2000
    8.2802    1.3761   -1.4275 C   0  0  0  0  0  0  0  0  0  0  0  0
    8.3708    1.0450    0.0360 C   0  0  0  0  0  0  0  0  0  0  0  0
    7.2170    1.4093    0.7274 O   0  0  0  0  0  0  0  0  0  0  0  0
    5.9905    0.8676    0.4153 C   0  0  0  0  0  0  0  0  0  0  0  0
    4.9060    1.3145    1.1712 C   0  0  0  0  0  0  0  0  0  0  0  0
    3.6230    0.8380    0.9461 C   0  0  0  0  0  0  0  0  0  0  0  0
    3.3831   -0.0974   -0.0383 C   0  0  0  0  0  0  0  0  0  0  0  0
    4.4586   -0.5272   -0.7730 C   0  0  0  0  0  0  0  0  0  0  0  0
    5.7365   -0.0519   -0.5478 C   0  0  0  0  0  0  0  0  0  0  0  0
    2.0584   -0.6371   -0.3240 C   0  0  0  0  0  0  0  0  0  0  0  0
    1.9000   -1.5007   -1.2490 O   0  0  0  0  0  0  0  0  0  0  0  0
    0.9015   -0.2526    0.3805 N   0  0  0  0  0  0  0  0  0  0  0  0
   -0.4079   -0.7959    0.0871 C   0  0  0  0  0  0  0  0  0  0  0  0
   -1.3832    0.2614   -0.3660 C   0  0  0  0  0  0  0  0  0  0  0  0
   -2.7645   -0.4126   -0.4004 C   0  0  0  0  0  0  0  0  0  0  0  0
   -2.7263   -1.5220   -1.4112 C   0  0  0  0  0  0  0  0  0  0  0  0
   -2.5376   -2.8961   -0.8830 C   0  0  0  0  0  0  0  0  0  0  0  0
   -2.5587   -3.0722    0.5834 C   0  0  0  0  0  0  0  0  0  0  0  0
   -2.3139   -1.8038    1.3774 C   0  0  0  0  0  0  0  0  0  0  0  0
   -0.8807   -1.4573    1.3642 C   0  0  0  0  0  0  0  0  0  0  0  0
   -3.2305   -0.8358    0.8612 N   0  0  0  0  0  0  0  0  0  0  0  0
   -3.7043    0.1218    1.7758 C   0  0  0  0  0  0  0  0  0  0  0  0
   -4.6671    1.0316    1.1181 C   0  0  0  0  0  0  0  0  0  0  0  0
   -4.3339    2.2242    0.5238 C   0  0  0  0  0  0  0  0  0  0  0  0
   -5.2786    3.0316   -0.0773 C   0  0  0  0  0  0  0  0  0  0  0  0
   -6.6072    2.6720   -0.1067 C   0  0  0  0  0  0  0  0  0  0  0  0
   -6.9597    1.4688    0.4900 C   0  0  0  0  0  0  0  0  0  0  0  0
   -6.0064    0.6722    1.0867 C   0  0  0  0  0  0  0  0  0  0  0  0
    9.0067    2.1931   -1.6757 H   0  0  0  0  0  0  0  0  0  0  0  0
    7.2521    1.7865   -1.6247 H   0  0  0  0  0  0  0  0  0  0  0  0
    8.5311    0.4985   -2.0287 H   0  0  0  0  0  0  0  0  0  0  0  0
    8.6050   -0.0376    0.1363 H   0  0  0  0  0  0  0  0  0  0  0  0
    9.2490    1.5867    0.4666 H   0  0  0  0  0  0  0  0  0  0  0  0
    5.0307    2.0434    1.9531 H   0  0  0  0  0  0  0  0  0  0  0  0
    2.8143    1.2025    1.5446 H   0  0  0  0  0  0  0  0  0  0  0  0
    4.2870   -1.2535   -1.5409 H   0  0  0  0  0  0  0  0  0  0  0  0
    6.5230   -0.4279   -1.1467 H   0  0  0  0  0  0  0  0  0  0  0  0
    0.9583    0.4507    1.1511 H   0  0  0  0  0  0  0  0  0  0  0  0
   -0.2718   -1.5140   -0.7467 H   0  0  0  0  0  0  0  0  0  0  0  0
   -1.1892    0.4974   -1.4404 H   0  0  0  0  0  0  0  0  0  0  0  0
   -1.4151    1.1301    0.2923 H   0  0  0  0  0  0  0  0  0  0  0  0
   -3.4302    0.3843   -0.7891 H   0  0  0  0  0  0  0  0  0  0  0  0
   -3.6493   -1.4475   -2.0585 H   0  0  0  0  0  0  0  0  0  0  0  0
   -1.9007   -1.3052   -2.1210 H   0  0  0  0  0  0  0  0  0  0  0  0
   -1.6213   -3.4203   -1.2883 H   0  0  0  0  0  0  0  0  0  0  0  0
   -3.3665   -3.5428   -1.2943 H   0  0  0  0  0  0  0  0  0  0  0  0
   -3.5334   -3.4548    0.9510 H   0  0  0  0  0  0  0  0  0  0  0  0
   -1.8037   -3.8286    0.9367 H   0  0  0  0  0  0  0  0  0  0  0  0
   -2.6065   -2.0243    2.4274 H   0  0  0  0  0  0  0  0  0  0  0  0
   -0.2954   -2.4030    1.4348 H   0  0  0  0  0  0  0  0  0  0  0  0
   -0.5318   -0.8445    2.2325 H   0  0  0  0  0  0  0  0  0  0  0  0
   -2.8930    0.7738    2.1737 H   0  0  0  0  0  0  0  0  0  0  0  0
   -4.2403   -0.3043    2.6546 H   0  0  0  0  0  0  0  0  0  0  0  0
   -3.3196    2.5466    0.5219 H   0  0  0  0  0  0  0  0  0  0  0  0
   -4.9537    3.9597   -0.5287 H   0  0  0  0  0  0  0  0  0  0  0  0
   -7.3226    3.3253   -0.5848 H   0  0  0  0  0  0  0  0  0  0  0  0
   -8.0120    1.2115    0.4518 H   0  0  0  0  0  0  0  0  0  0  0  0
   -6.3661   -0.2533    1.5308 H   0  0  0  0  0  0  0  0  0  0  0  0
  1  2  1  0
  2  3  1  0
  3  4  1  0
  4  5  2  0
  5  6  1  0
  6  7  2  0
  7  8  1  0
  8  9  2  0
  7 10  1  0
 10 11  2  0
 10 12  1  0
 12 13  1  0
 13 14  1  0
 14 15  1  0
 15 16  1  0
 16 17  1  0
 17 18  1  0
 18 19  1  0
 19 20  1  0
 19 21  1  0
 21 22  1  0
 22 23  1  0
 23 24  2  0
 24 25  1  0
 25 26  2  0
 26 27  1  0
 27 28  2  0
  9  4  1  0
 20 13  1  0
 28 23  1  0
 21 15  1  0
  1 29  1  0
  1 30  1  0
  1 31  1  0
  2 32  1  0
  2 33  1  0
  5 34  1  0
  6 35  1  0
  8 36  1  0
  9 37  1  0
 12 38  1  0
 13 39  1  0
 14 40  1  0
 14 41  1  0
 15 42  1  0
 16 43  1  0
 16 44  1  0
 17 45  1  0
 17 46  1  0
 18 47  1  0
 18 48  1  0
 19 49  1  0
 20 50  1  0
 20 51  1  0
 22 52  1  0
 22 53  1  0
 24 54  1  0
 25 55  1  0
 26 56  1  0
 27 57  1  0
 28 58  1  0
M  END
>  <Ligand ID>  (1) 
LIG0004480

>  <Ligand>  (1) 
MLS001204359

>  <SMILES>  (1) 
CCOc1ccc(cc1)C(=O)NC1CC2CCCC(C1)N2Cc1ccccc1

>  <CID>  (1) 
3218102.0

>  <ChEMBL ID>  (1) 
nan

>  <InChiKey>  (1) 
MDTBONVCLDKIBB-UHFFFAOYSA-N

>  <InChi>  (1) 
InChI=1S/C24H30N2O2/c1-2-28-23-13-11-19(12-14-23)24(27)25-20-15-21-9-6-10-22(16-20)26(21)17-18-7-4-3-5-8-18/h3-5,7-8,11-14,20-22H,2,6,9-10,15-17H2,1H3,(H,25,27)

>  <IUPAC Name>  (1) 
N-(9-benzyl-9-azabicyclo[3.3.1]nonan-3-yl)-4-ethoxybenzamide

$$$$
