
     RDKit          3D

 40 42  0  0  0  0  0  0  0  0999 V2000
   -3.5772    0.4416    0.7012 C   0  0  0  0  0  0  0  0  0  0  0  0
   -2.6291    0.7972   -0.3374 N   0  0  0  0  0  0  0  0  0  0  0  0
   -2.6813    1.9713   -0.9911 C   0  0  0  0  0  0  0  0  0  0  0  0
   -3.6507    3.0941   -0.8152 C   0  0  0  0  0  0  0  0  0  0  0  0
   -1.6582    2.0271   -1.9158 C   0  0  0  0  0  0  0  0  0  0  0  0
   -0.9896    0.8277   -1.7842 C   0  0  0  0  0  0  0  0  0  0  0  0
   -1.5819    0.0538   -0.8069 C   0  0  0  0  0  0  0  0  0  0  0  0
   -1.2667   -1.2464   -0.2966 C   0  0  0  0  0  0  0  0  0  0  0  0
   -2.3118   -2.1588   -0.1607 C   0  0  0  0  0  0  0  0  0  0  0  0
   -2.1391   -3.4288    0.3168 C   0  0  0  0  0  0  0  0  0  0  0  0
   -0.8840   -3.8622    0.6915 C   0  0  0  0  0  0  0  0  0  0  0  0
    0.1499   -2.9604    0.5576 C   0  0  0  0  0  0  0  0  0  0  0  0
   -0.0149   -1.6798    0.0782 C   0  0  0  0  0  0  0  0  0  0  0  0
    1.0846   -0.7843   -0.0255 N   0  0  0  0  0  0  0  0  0  0  0  0
    2.4070   -1.2709    0.3760 C   0  0  0  0  0  0  0  0  0  0  0  0
    3.4598   -0.2346    0.2166 C   0  0  0  0  0  0  0  0  0  0  0  0
    4.5055   -0.3297   -0.5332 N   0  0  0  0  0  0  0  0  0  0  0  0
    5.3040    0.8710   -0.4359 C   0  0  0  0  0  0  0  0  0  0  0  0
    4.3481    1.8727    0.1273 C   0  0  0  0  0  0  0  0  0  0  0  0
    3.4325    1.0165    0.8928 N   0  0  0  0  0  0  0  0  0  0  0  0
   -3.2133   -0.3420    1.3912 H   0  0  0  0  0  0  0  0  0  0  0  0
   -3.8977    1.3644    1.2689 H   0  0  0  0  0  0  0  0  0  0  0  0
   -4.5333    0.0685    0.2765 H   0  0  0  0  0  0  0  0  0  0  0  0
   -3.2025    3.8476   -0.1027 H   0  0  0  0  0  0  0  0  0  0  0  0
   -4.5627    2.7260   -0.3364 H   0  0  0  0  0  0  0  0  0  0  0  0
   -3.8746    3.6141   -1.7528 H   0  0  0  0  0  0  0  0  0  0  0  0
   -1.4174    2.8408   -2.6100 H   0  0  0  0  0  0  0  0  0  0  0  0
   -0.1296    0.5498   -2.3754 H   0  0  0  0  0  0  0  0  0  0  0  0
   -3.3416   -1.8872   -0.4389 H   0  0  0  0  0  0  0  0  0  0  0  0
   -2.9594   -4.1008    0.4080 H   0  0  0  0  0  0  0  0  0  0  0  0
   -0.6970   -4.8474    1.0710 H   0  0  0  0  0  0  0  0  0  0  0  0
    1.1503   -3.3052    0.8561 H   0  0  0  0  0  0  0  0  0  0  0  0
    1.0384    0.1835   -0.3550 H   0  0  0  0  0  0  0  0  0  0  0  0
    2.3131   -1.5669    1.4447 H   0  0  0  0  0  0  0  0  0  0  0  0
    2.6635   -2.2084   -0.1576 H   0  0  0  0  0  0  0  0  0  0  0  0
    5.6988    1.1965   -1.4174 H   0  0  0  0  0  0  0  0  0  0  0  0
    6.1417    0.6588    0.2681 H   0  0  0  0  0  0  0  0  0  0  0  0
    4.8597    2.5956    0.8138 H   0  0  0  0  0  0  0  0  0  0  0  0
    3.7784    2.3484   -0.6692 H   0  0  0  0  0  0  0  0  0  0  0  0
    2.8783    1.2466    1.7390 H   0  0  0  0  0  0  0  0  0  0  0  0
  1  2  1  0
  2  3  1  0
  3  4  1  0
  3  5  2  0
  5  6  1  0
  6  7  2  0
  7  8  1  0
  8  9  2  0
  9 10  1  0
 10 11  2  0
 11 12  1  0
 12 13  2  0
 13 14  1  0
 14 15  1  0
 15 16  1  0
 16 17  2  0
 17 18  1  0
 18 19  1  0
 19 20  1  0
  7  2  1  0
 13  8  1  0
 20 16  1  0
  1 21  1  0
  1 22  1  0
  1 23  1  0
  4 24  1  0
  4 25  1  0
  4 26  1  0
  5 27  1  0
  6 28  1  0
  9 29  1  0
 10 30  1  0
 11 31  1  0
 12 32  1  0
 14 33  1  0
 15 34  1  0
 15 35  1  0
 18 36  1  0
 18 37  1  0
 19 38  1  0
 19 39  1  0
 20 40  1  0
M  END
>  <Ligand ID>  (1) 
LIG0003841

>  <Ligand>  (1) 
CHEMBL441412

>  <SMILES>  (1) 
Cn1c(C)ccc1c1ccccc1NCC1=NCCN1

>  <CID>  (1) 
22493233.0

>  <ChEMBL ID>  (1) 
nan

>  <InChiKey>  (1) 
XEIJZOXXUFREDJ-UHFFFAOYSA-N

>  <InChi>  (1) 
InChI=1S/C16H20N4/c1-12-7-8-15(20(12)2)13-5-3-4-6-14(13)19-11-16-17-9-10-18-16/h3-8,19H,9-11H2,1-2H3,(H,17,18)

>  <IUPAC Name>  (1) 
N-(4,5-dihydro-1H-imidazol-2-ylmethyl)-2-(1,5-dimethylpyrrol-2-yl)aniline

$$$$
