
     RDKit          3D

 50 52  0  0  0  0  0  0  0  0999 V2000
   -6.8491    2.2977   -2.2095 Cl  0  0  0  0  0  0  0  0  0  0  0  0
   -6.4465    1.1790   -0.9206 C   0  0  0  0  0  0  0  0  0  0  0  0
   -7.0176    1.2918    0.3492 C   0  0  0  0  0  0  0  0  0  0  0  0
   -6.7111    0.4248    1.3747 C   0  0  0  0  0  0  0  0  0  0  0  0
   -5.8022   -0.5965    1.1388 C   0  0  0  0  0  0  0  0  0  0  0  0
   -5.2045   -0.7497   -0.1127 C   0  0  0  0  0  0  0  0  0  0  0  0
   -5.5504    0.1557   -1.1182 C   0  0  0  0  0  0  0  0  0  0  0  0
   -4.2794   -1.8494   -0.3727 C   0  0  2  0  0  0  0  0  0  0  0  0
   -2.9005   -1.7542    0.1710 C   0  0  0  0  0  0  0  0  0  0  0  0
   -1.9799   -0.8881   -0.4626 N   0  0  0  0  0  0  0  0  0  0  0  0
   -2.1271    0.5134   -0.2860 C   0  0  0  0  0  0  0  0  0  0  0  0
   -1.1819    1.2864   -1.1959 C   0  0  0  0  0  0  0  0  0  0  0  0
    0.2280    0.9447   -0.9248 C   0  0  0  0  0  0  0  0  0  0  0  0
    0.8828    1.7055    0.0342 C   0  0  0  0  0  0  0  0  0  0  0  0
    2.2079    1.4282    0.2940 C   0  0  0  0  0  0  0  0  0  0  0  0
    2.8902    0.4139   -0.3789 C   0  0  0  0  0  0  0  0  0  0  0  0
    2.2293   -0.3352   -1.3276 C   0  0  0  0  0  0  0  0  0  0  0  0
    0.9113   -0.0593   -1.5862 C   0  0  0  0  0  0  0  0  0  0  0  0
    4.2973    0.1817   -0.0726 C   0  0  0  0  0  0  0  0  0  0  0  0
    5.0927   -0.2911   -1.1046 C   0  0  0  0  0  0  0  0  0  0  0  0
    6.4582   -0.5329   -0.9113 C   0  0  0  0  0  0  0  0  0  0  0  0
    6.9915   -0.2835    0.3530 C   0  0  0  0  0  0  0  0  0  0  0  0
    6.1841    0.1918    1.3845 C   0  0  0  0  0  0  0  0  0  0  0  0
    4.8294    0.4339    1.1981 C   0  0  0  0  0  0  0  0  0  0  0  0
    8.4077   -0.5373    0.5478 C   0  0  0  0  0  0  0  0  0  0  0  0
    9.0668   -0.9733   -0.4441 O   0  0  0  0  0  0  0  0  0  0  0  0
    9.0398   -0.3160    1.7766 O   0  0  0  0  0  0  0  0  0  0  0  0
   -4.3453   -2.3064   -1.6970 O   0  0  0  0  0  0  0  0  0  0  0  0
   -7.7234    2.0904    0.5273 H   0  0  0  0  0  0  0  0  0  0  0  0
   -7.1563    0.5081    2.3725 H   0  0  0  0  0  0  0  0  0  0  0  0
   -5.5678   -1.2701    1.9449 H   0  0  0  0  0  0  0  0  0  0  0  0
   -5.0850    0.0256   -2.0705 H   0  0  0  0  0  0  0  0  0  0  0  0
   -4.7458   -2.7387    0.1973 H   0  0  0  0  0  0  0  0  0  0  0  0
   -2.9551   -1.4731    1.2541 H   0  0  0  0  0  0  0  0  0  0  0  0
   -2.3946   -2.7730    0.2121 H   0  0  0  0  0  0  0  0  0  0  0  0
   -0.9880   -1.2131   -0.4023 H   0  0  0  0  0  0  0  0  0  0  0  0
   -1.6864    0.7335    0.7606 H   0  0  0  0  0  0  0  0  0  0  0  0
   -3.1146    0.9375   -0.2383 H   0  0  0  0  0  0  0  0  0  0  0  0
   -1.4564    1.1214   -2.2649 H   0  0  0  0  0  0  0  0  0  0  0  0
   -1.3313    2.3865   -1.0370 H   0  0  0  0  0  0  0  0  0  0  0  0
    0.3925    2.4997    0.5803 H   0  0  0  0  0  0  0  0  0  0  0  0
    2.7890    1.9749    1.0277 H   0  0  0  0  0  0  0  0  0  0  0  0
    2.7278   -1.1138   -1.8501 H   0  0  0  0  0  0  0  0  0  0  0  0
    0.3694   -0.6225   -2.3146 H   0  0  0  0  0  0  0  0  0  0  0  0
    4.6391   -0.4738   -2.0861 H   0  0  0  0  0  0  0  0  0  0  0  0
    7.0297   -0.8965   -1.7349 H   0  0  0  0  0  0  0  0  0  0  0  0
    6.5948    0.3884    2.3685 H   0  0  0  0  0  0  0  0  0  0  0  0
    4.1852    0.8050    1.9966 H   0  0  0  0  0  0  0  0  0  0  0  0
   10.0263   -0.1396    1.8267 H   0  0  0  0  0  0  0  0  0  0  0  0
   -3.8708   -1.7319   -2.3178 H   0  0  0  0  0  0  0  0  0  0  0  0
  1  2  1  0
  2  3  2  0
  3  4  1  0
  4  5  2  0
  5  6  1  0
  6  7  2  0
  6  8  1  0
  8  9  1  0
  9 10  1  0
 10 11  1  0
 11 12  1  0
 12 13  1  0
 13 14  2  0
 14 15  1  0
 15 16  2  0
 16 17  1  0
 17 18  2  0
 16 19  1  0
 19 20  2  0
 20 21  1  0
 21 22  2  0
 22 23  1  0
 23 24  2  0
 22 25  1  0
 25 26  2  0
 25 27  1  0
  8 28  1  0
  7  2  1  0
 18 13  1  0
 24 19  1  0
  3 29  1  0
  4 30  1  0
  5 31  1  0
  7 32  1  0
  8 33  1  1
  9 34  1  0
  9 35  1  0
 10 36  1  0
 11 37  1  0
 11 38  1  0
 12 39  1  0
 12 40  1  0
 14 41  1  0
 15 42  1  0
 17 43  1  0
 18 44  1  0
 20 45  1  0
 21 46  1  0
 23 47  1  0
 24 48  1  0
 27 49  1  0
 28 50  1  0
M  END
>  <Ligand ID>  (1) 
LIG0002497

>  <Ligand>  (1) 
CHEMBL271576

>  <SMILES>  (1) 
Clc1cccc(c1)[C@H](CNCCc1ccc(cc1)c1ccc(cc1)C(=O)O)O

>  <CID>  (1) 
24822310.0

>  <ChEMBL ID>  (1) 
nan

>  <InChiKey>  (1) 
OBZHPIBYGAZXEL-QFIPXVFZSA-N

>  <InChi>  (1) 
InChI=1S/C23H22ClNO3/c24-21-3-1-2-20(14-21)22(26)15-25-13-12-16-4-6-17(7-5-16)18-8-10-19(11-9-18)23(27)28/h1-11,14,22,25-26H,12-13,15H2,(H,27,28)/t22-/m0/s1

>  <IUPAC Name>  (1) 
4-[4-[2-[[(2R)-2-(3-chlorophenyl)-2-hydroxyethyl]amino]ethyl]phenyl]benzoic acid

$$$$
