
     RDKit          3D

124126  0  0  0  0  0  0  0  0999 V2000
    9.4218   -2.0768   -2.0016 N   0  0  0  0  0  0  0  0  0  0  0  0
    8.0463   -2.3327   -1.7265 C   0  0  0  0  0  0  0  0  0  0  0  0
    7.2433   -1.1567   -1.3581 C   0  0  0  0  0  0  0  0  0  0  0  0
    7.6578   -0.5007   -0.0841 C   0  0  1  0  0  0  0  0  0  0  0  0
    8.9946    0.0262    0.0082 C   0  0  0  0  0  0  0  0  0  0  0  0
   10.0831   -0.6288   -0.1270 O   0  0  0  0  0  0  0  0  0  0  0  0
    9.2525    1.4311    0.2784 N   0  0  0  0  0  0  0  0  0  0  0  0
   10.6457    1.8033    0.3374 C   0  0  0  0  0  0  0  0  0  0  0  0
   11.3795    1.0912    1.4131 C   0  0  0  0  0  0  0  0  0  0  0  0
   10.8419    0.2666    2.1995 O   0  0  0  0  0  0  0  0  0  0  0  0
   12.7727    1.3766    1.5390 N   0  0  0  0  0  0  0  0  0  0  0  0
    6.6358    0.5081    0.2866 N   0  0  0  0  0  0  0  0  0  0  0  0
    5.5722    0.1170    1.1195 C   0  0  0  0  0  0  0  0  0  0  0  0
    5.4818   -1.0887    1.5428 O   0  0  0  0  0  0  0  0  0  0  0  0
    4.4795    1.0256    1.5754 C   0  0  2  0  0  0  0  0  0  0  0  0
    4.2405    0.9767    3.0352 C   0  0  0  0  0  0  0  0  0  0  0  0
    2.7582    0.9792    3.2157 C   0  0  0  0  0  0  0  0  0  0  0  0
    2.1782    0.4822    1.9314 C   0  0  0  0  0  0  0  0  0  0  0  0
    3.2075    0.5694    0.9206 N   0  0  0  0  0  0  0  0  0  0  0  0
    3.2277    0.3246   -0.4516 C   0  0  0  0  0  0  0  0  0  0  0  0
    4.3170    0.5809   -1.1158 O   0  0  0  0  0  0  0  0  0  0  0  0
    2.1401   -0.2076   -1.3342 C   0  0  2  0  0  0  0  0  0  0  0  0
    1.5228    0.9221   -2.0941 C   0  0  0  0  0  0  0  0  0  0  0  0
    0.1766    0.5180   -3.1889 S   0  0  0  0  0  0  0  0  0  0  0  0
   -0.7331    2.3205   -3.8846 S   0  0  0  0  0  0  0  0  0  0  0  0
   -2.1206    2.8320   -2.8385 C   0  0  0  0  0  0  0  0  0  0  0  0
   -1.7231    3.0021   -1.3856 C   0  0  2  0  0  0  0  0  0  0  0  0
   -1.3527    1.6280   -0.9323 N   0  0  0  0  0  0  0  0  0  0  0  0
   -2.8492    3.4051   -0.5440 C   0  0  0  0  0  0  0  0  0  0  0  0
   -2.7370    4.2770    0.3321 O   0  0  0  0  0  0  0  0  0  0  0  0
   -4.1880    2.8462   -0.6444 N   0  0  0  0  0  0  0  0  0  0  0  0
   -5.1950    3.2531    0.3399 C   0  0  1  0  0  0  0  0  0  0  0  0
   -6.1338    4.2742   -0.2424 C   0  0  0  0  0  0  0  0  0  0  0  0
   -7.1244    4.6672    0.8298 C   0  0  0  0  0  0  0  0  0  0  0  0
   -6.8569    5.5993    1.7612 C   0  0  0  0  0  0  0  0  0  0  0  0
   -7.7979    5.9182    2.6833 C   0  0  0  0  0  0  0  0  0  0  0  0
   -9.2416    4.8381    2.2673 S   0  0  0  0  0  0  0  0  0  0  0  0
   -8.3756    4.0743    0.8672 C   0  0  0  0  0  0  0  0  0  0  0  0
   -5.8867    2.0325    0.7863 C   0  0  0  0  0  0  0  0  0  0  0  0
   -6.5886    2.1001    1.8157 O   0  0  0  0  0  0  0  0  0  0  0  0
   -5.8479    0.7683    0.1550 N   0  0  0  0  0  0  0  0  0  0  0  0
   -6.3995   -0.4817    0.6172 C   0  0  2  0  0  0  0  0  0  0  0  0
   -5.3680   -1.5702    0.3867 C   0  0  0  0  0  0  0  0  0  0  0  0
   -5.5874   -2.7643    0.6387 O   0  0  0  0  0  0  0  0  0  0  0  0
   -4.0838   -1.2769   -0.1311 N   0  0  0  0  0  0  0  0  0  0  0  0
   -3.0920   -2.3029   -0.5245 C   0  0  2  0  0  0  0  0  0  0  0  0
   -1.8833   -2.1947    0.3080 C   0  0  0  0  0  0  0  0  0  0  0  0
   -1.7764   -1.3738    1.2329 O   0  0  0  0  0  0  0  0  0  0  0  0
   -0.7658   -3.0324    0.0974 N   0  0  0  0  0  0  0  0  0  0  0  0
    0.4959   -3.0419    0.7729 C   0  0  2  0  0  0  0  0  0  0  0  0
    1.5221   -2.2207    0.0243 C   0  0  0  0  0  0  0  0  0  0  0  0
    2.6828   -2.5627   -0.1704 O   0  0  0  0  0  0  0  0  0  0  0  0
    1.1841   -0.9129   -0.5116 N   0  0  0  0  0  0  0  0  0  0  0  0
    1.0704   -4.4016    1.0177 C   0  0  0  0  0  0  0  0  0  0  0  0
    1.3239   -5.1743   -0.2370 C   0  0  0  0  0  0  0  0  0  0  0  0
    1.0859   -4.6973   -1.3791 O   0  0  0  0  0  0  0  0  0  0  0  0
    1.8510   -6.4864   -0.0674 N   0  0  0  0  0  0  0  0  0  0  0  0
   -2.8734   -2.1671   -2.0109 C   0  0  0  0  0  0  0  0  0  0  0  0
   -1.9367   -3.0613   -2.6690 C   0  0  0  0  0  0  0  0  0  0  0  0
   -0.7587   -2.6365   -2.9706 O   0  0  0  0  0  0  0  0  0  0  0  0
   -2.1914   -4.4072   -3.0299 N   0  0  0  0  0  0  0  0  0  0  0  0
   -7.6763   -0.8610   -0.0868 C   0  0  2  0  0  0  0  0  0  0  0  0
   -8.7847    0.1288    0.0673 C   0  0  0  0  0  0  0  0  0  0  0  0
   -9.2326    0.3798    1.4621 C   0  0  0  0  0  0  0  0  0  0  0  0
   -8.1614   -2.2279    0.2047 C   0  0  0  0  0  0  0  0  0  0  0  0
    9.5850   -1.7670   -2.9809 H   0  0  0  0  0  0  0  0  0  0  0  0
    9.9389   -2.9909   -1.8783 H   0  0  0  0  0  0  0  0  0  0  0  0
    8.0475   -3.0205   -0.8116 H   0  0  0  0  0  0  0  0  0  0  0  0
    7.5725   -2.9335   -2.5677 H   0  0  0  0  0  0  0  0  0  0  0  0
    7.3182   -0.3853   -2.1762 H   0  0  0  0  0  0  0  0  0  0  0  0
    6.1637   -1.4607   -1.2643 H   0  0  0  0  0  0  0  0  0  0  0  0
    7.5228   -1.3100    0.7067 H   0  0  0  0  0  0  0  0  0  0  0  0
    8.5029    2.1195    0.4205 H   0  0  0  0  0  0  0  0  0  0  0  0
   10.7471    2.8845    0.4256 H   0  0  0  0  0  0  0  0  0  0  0  0
   11.0848    1.5500   -0.6731 H   0  0  0  0  0  0  0  0  0  0  0  0
   13.2465    2.1422    1.0512 H   0  0  0  0  0  0  0  0  0  0  0  0
   13.3477    0.7707    2.1684 H   0  0  0  0  0  0  0  0  0  0  0  0
    6.6792    1.4850   -0.0557 H   0  0  0  0  0  0  0  0  0  0  0  0
    4.6079    2.0643    1.2400 H   0  0  0  0  0  0  0  0  0  0  0  0
    4.7277    1.8521    3.5475 H   0  0  0  0  0  0  0  0  0  0  0  0
    4.6375    0.0812    3.5475 H   0  0  0  0  0  0  0  0  0  0  0  0
    2.4358    0.3273    4.0613 H   0  0  0  0  0  0  0  0  0  0  0  0
    2.4309    2.0212    3.4197 H   0  0  0  0  0  0  0  0  0  0  0  0
    1.7477   -0.5055    2.1010 H   0  0  0  0  0  0  0  0  0  0  0  0
    1.3551    1.2360    1.6728 H   0  0  0  0  0  0  0  0  0  0  0  0
    2.6644   -0.9029   -2.0112 H   0  0  0  0  0  0  0  0  0  0  0  0
    2.3766    1.3173   -2.7517 H   0  0  0  0  0  0  0  0  0  0  0  0
    1.3282    1.7323   -1.3627 H   0  0  0  0  0  0  0  0  0  0  0  0
   -2.5208    3.8109   -3.1754 H   0  0  0  0  0  0  0  0  0  0  0  0
   -2.8821    2.0290   -2.8792 H   0  0  0  0  0  0  0  0  0  0  0  0
   -0.8638    3.6413   -1.2176 H   0  0  0  0  0  0  0  0  0  0  0  0
   -2.1692    1.0430   -1.2917 H   0  0  0  0  0  0  0  0  0  0  0  0
   -1.4533    1.6084    0.1153 H   0  0  0  0  0  0  0  0  0  0  0  0
   -4.3048    2.2138   -1.4180 H   0  0  0  0  0  0  0  0  0  0  0  0
   -4.6632    3.7479    1.2178 H   0  0  0  0  0  0  0  0  0  0  0  0
   -5.6131    5.1739   -0.6112 H   0  0  0  0  0  0  0  0  0  0  0  0
   -6.7138    3.8813   -1.0924 H   0  0  0  0  0  0  0  0  0  0  0  0
   -5.8651    6.1220    1.7910 H   0  0  0  0  0  0  0  0  0  0  0  0
   -7.8302    6.6055    3.5123 H   0  0  0  0  0  0  0  0  0  0  0  0
   -8.8163    3.3172    0.2235 H   0  0  0  0  0  0  0  0  0  0  0  0
   -5.3837    0.7596   -0.7640 H   0  0  0  0  0  0  0  0  0  0  0  0
   -6.6027   -0.4250    1.6765 H   0  0  0  0  0  0  0  0  0  0  0  0
   -3.8385   -0.2972   -0.2190 H   0  0  0  0  0  0  0  0  0  0  0  0
   -3.4971   -3.3348   -0.3490 H   0  0  0  0  0  0  0  0  0  0  0  0
   -0.9024   -3.7616   -0.6282 H   0  0  0  0  0  0  0  0  0  0  0  0
    0.4318   -2.5169    1.7702 H   0  0  0  0  0  0  0  0  0  0  0  0
    0.2701   -0.5766   -0.2514 H   0  0  0  0  0  0  0  0  0  0  0  0
    2.0861   -4.3337    1.5026 H   0  0  0  0  0  0  0  0  0  0  0  0
    0.4467   -5.0127    1.7138 H   0  0  0  0  0  0  0  0  0  0  0  0
    1.4768   -7.0643    0.7383 H   0  0  0  0  0  0  0  0  0  0  0  0
    2.5860   -6.9001   -0.6960 H   0  0  0  0  0  0  0  0  0  0  0  0
   -2.5607   -1.1149   -2.2144 H   0  0  0  0  0  0  0  0  0  0  0  0
   -3.8689   -2.2553   -2.5449 H   0  0  0  0  0  0  0  0  0  0  0  0
   -3.1369   -4.7275   -3.3324 H   0  0  0  0  0  0  0  0  0  0  0  0
   -1.4372   -5.1256   -3.0052 H   0  0  0  0  0  0  0  0  0  0  0  0
   -7.4055   -0.8512   -1.1860 H   0  0  0  0  0  0  0  0  0  0  0  0
   -9.6190   -0.1504   -0.6195 H   0  0  0  0  0  0  0  0  0  0  0  0
   -8.3730    1.0985   -0.3465 H   0  0  0  0  0  0  0  0  0  0  0  0
   -9.2927    1.4673    1.6707 H   0  0  0  0  0  0  0  0  0  0  0  0
   -8.5447   -0.0130    2.2410 H   0  0  0  0  0  0  0  0  0  0  0  0
  -10.2301   -0.0492    1.6712 H   0  0  0  0  0  0  0  0  0  0  0  0
   -7.9163   -2.9905   -0.5767 H   0  0  0  0  0  0  0  0  0  0  0  0
   -7.9417   -2.6143    1.2292 H   0  0  0  0  0  0  0  0  0  0  0  0
   -9.2894   -2.2080    0.1780 H   0  0  0  0  0  0  0  0  0  0  0  0
  1  2  1  0
  2  3  1  0
  3  4  1  0
  4  5  1  0
  5  6  2  0
  5  7  1  0
  7  8  1  0
  8  9  1  0
  9 10  2  0
  9 11  1  0
  4 12  1  0
 12 13  1  0
 13 14  2  0
 13 15  1  0
 15 16  1  0
 16 17  1  0
 17 18  1  0
 18 19  1  0
 19 20  1  0
 20 21  2  0
 20 22  1  0
 22 23  1  0
 23 24  1  0
 24 25  1  0
 25 26  1  0
 26 27  1  0
 27 28  1  0
 27 29  1  0
 29 30  2  0
 29 31  1  0
 31 32  1  0
 32 33  1  0
 33 34  1  0
 34 35  1  0
 35 36  2  0
 36 37  1  0
 37 38  1  0
 32 39  1  0
 39 40  2  0
 39 41  1  0
 41 42  1  0
 42 43  1  0
 43 44  2  0
 43 45  1  0
 45 46  1  0
 46 47  1  0
 47 48  2  0
 47 49  1  0
 49 50  1  0
 50 51  1  0
 51 52  2  0
 51 53  1  0
 50 54  1  0
 54 55  1  0
 55 56  2  0
 55 57  1  0
 46 58  1  0
 58 59  1  0
 59 60  2  0
 59 61  1  0
 42 62  1  0
 62 63  1  0
 63 64  1  0
 62 65  1  0
 19 15  1  0
 53 22  1  0
 38 34  2  0
  1 66  1  0
  1 67  1  0
  2 68  1  0
  2 69  1  0
  3 70  1  0
  3 71  1  0
  4 72  1  1
  7 73  1  0
  8 74  1  0
  8 75  1  0
 11 76  1  0
 11 77  1  0
 12 78  1  0
 15 79  1  6
 16 80  1  0
 16 81  1  0
 17 82  1  0
 17 83  1  0
 18 84  1  0
 18 85  1  0
 22 86  1  6
 23 87  1  0
 23 88  1  0
 26 89  1  0
 26 90  1  0
 27 91  1  6
 28 92  1  0
 28 93  1  0
 31 94  1  0
 32 95  1  1
 33 96  1  0
 33 97  1  0
 35 98  1  0
 36 99  1  0
 38100  1  0
 41101  1  0
 42102  1  1
 45103  1  0
 46104  1  6
 49105  1  0
 50106  1  1
 53107  1  0
 54108  1  0
 54109  1  0
 57110  1  0
 57111  1  0
 58112  1  0
 58113  1  0
 61114  1  0
 61115  1  0
 62116  1  6
 63117  1  0
 63118  1  0
 64119  1  0
 64120  1  0
 64121  1  0
 65122  1  0
 65123  1  0
 65124  1  0
M  END
>  <Ligand ID>  (1) 
LIG0001617

>  <Ligand>  (1) 
CHEMBL1817765

>  <SMILES>  (1) 
NCC[C@@H](C(=O)NCC(=O)N)NC(=O)[C@@H]1CCCN1C(=O)[C@@H]1CSSC[C@H](N)C(=O)N[C@@H](Cc2ccsc2)C(=O)N[C@H](C(=O)N[C@H](C(=O)N[C@H](C(=O)N1)CC(=O)N)CC(=O)N)[C@H](CC)C

>  <CID>  (1) 
53362853.0

>  <ChEMBL ID>  (1) 
nan

>  <InChiKey>  (1) 
ZAPUJLDBOHTRER-URPKOMAESA-N

>  <InChi>  (1) 
InChI=1S/C38H59N13O11S3/c1-3-18(2)30-37(61)48-24(13-28(42)53)33(57)47-23(12-27(41)52)34(58)49-25(17-65-64-16-20(40)31(55)46-22(35(59)50-30)11-19-7-10-63-15-19)38(62)51-9-4-5-26(51)36(60)45-21(6-8-39)32(56)44-14-29(43)54/h7,10,15,18,20-26,30H,3-6,8-9,11-14,16-17,39-40H2,1-2H3,(H2,41,52)(H2,42,53)(H2,43,54)(H,44,56)(H,45,60)(H,46,55)(H,47,57)(H,48,61)(H,49,58)(H,50,59)/t18-,20-,21-,22-,23-,24-,25-,26-,30-/m0/s1

>  <IUPAC Name>  (1) 
(2S)-N-[(2S)-4-amino-1-[(2-amino-2-oxoethyl)amino]-1-oxobutan-2-yl]-1-[(4R,7S,10S,13S,16S,19R)-19-amino-7,10-bis(2-amino-2-oxoethyl)-13-[(2S)-butan-2-yl]-6,9,12,15,18-pentaoxo-16-(thiophen-3-ylmethyl)-1,2-dithia-5,8,11,14,17-pentazacycloicosane-4-carbonyl]pyrrolidine-2-carboxamide

$$$$
