
     RDKit          3D

  4  3  0  0  0  0  0  0  0  0999 V2000
    1.2934   -0.3531    0.1436 O   0  0  0  0  0  0  0  0  0  0  0  0
   -0.0340    0.0394   -0.0077 C   0  0  0  0  0  0  0  0  0  0  0  0
   -0.9843   -0.7775    0.0275 O   0  0  0  0  0  0  0  0  0  0  0  0
   -0.2751    1.0911   -0.1634 H   0  0  0  0  0  0  0  0  0  0  0  0
  1  2  1  0
  2  3  2  0
  2  4  1  0
M  CHG  1   1  -1
M  END
>  <Ligand ID>  (1) 
LIG0004977

>  <Ligand>  (1) 
formate

>  <SMILES>  (1) 
[O-]C=O

>  <CID>  (1) 
283.0

>  <ChEMBL ID>  (1) 
nan

>  <InChiKey>  (1) 
BDAGIHXWWSANSR-UHFFFAOYSA-M

>  <InChi>  (1) 
InChI=1S/CH2O2/c2-1-3/h1H,(H,2,3)/p-1

>  <IUPAC Name>  (1) 
formate

$$$$
