
     RDKit          3D

 68 67  0  0  0  0  0  0  0  0999 V2000
   -8.7777   -2.7337    0.8187 C   0  0  0  0  0  0  0  0  0  0  0  0
   -9.1752   -1.3162    1.0699 C   0  0  0  0  0  0  0  0  0  0  0  0
   -8.0550   -0.3144    0.8021 C   0  0  0  0  0  0  0  0  0  0  0  0
   -7.5811   -0.3523   -0.5970 C   0  0  0  0  0  0  0  0  0  0  0  0
   -6.4670    0.5463   -0.9740 C   0  0  0  0  0  0  0  0  0  0  0  0
   -5.1499    0.2465   -0.4206 C   0  0  0  0  0  0  0  0  0  0  0  0
   -4.9379    0.1547    1.0470 C   0  0  0  0  0  0  0  0  0  0  0  0
   -3.3930   -0.0553    1.1977 C   0  0  0  0  0  0  0  0  0  0  0  0
   -2.7522    1.1082    0.6060 C   0  0  0  0  0  0  0  0  0  0  0  0
   -1.9061    1.1089   -0.4386 C   0  0  0  0  0  0  0  0  0  0  0  0
   -1.5497   -0.1248   -1.0956 C   0  0  0  0  0  0  0  0  0  0  0  0
   -0.1673   -0.6337   -1.1184 C   0  0  0  0  0  0  0  0  0  0  0  0
    0.8627    0.1699   -1.7759 C   0  0  0  0  0  0  0  0  0  0  0  0
    1.2493    1.4998   -1.2771 C   0  0  0  0  0  0  0  0  0  0  0  0
    2.3692    2.1497   -2.1042 C   0  0  0  0  0  0  0  0  0  0  0  0
    3.5657    1.2824   -2.1010 C   0  0  0  0  0  0  0  0  0  0  0  0
    4.0896    1.0108   -0.7295 C   0  0  0  0  0  0  0  0  0  0  0  0
    5.2959    0.1261   -0.7975 C   0  0  0  0  0  0  0  0  0  0  0  0
    5.6739   -0.1947   -1.9733 O   0  0  0  0  0  0  0  0  0  0  0  0
    5.9905   -0.3407    0.3299 N   0  0  0  0  0  0  0  0  0  0  0  0
    7.1496   -1.2003    0.0874 C   0  0  0  0  0  0  0  0  0  0  0  0
    7.7864   -1.6313    1.3701 C   0  0  0  0  0  0  0  0  0  0  0  0
    8.2480   -0.4503    2.1461 C   0  0  0  0  0  0  0  0  0  0  0  0
    7.4676    0.2608    2.7959 O   0  0  0  0  0  0  0  0  0  0  0  0
    9.9896   -0.0081    2.1662 P   0  0  0  0  0  0  0  0  0  0  0  0
   10.4682    0.7741    0.7143 S   0  0  0  0  0  0  0  0  0  0  0  0
   10.9078   -1.4210    2.3680 O   0  0  0  0  0  0  0  0  0  0  0  0
   10.3434    1.0310    3.4440 O   0  0  0  0  0  0  0  0  0  0  0  0
   -8.6550   -2.9828   -0.2498 H   0  0  0  0  0  0  0  0  0  0  0  0
   -9.5906   -3.3812    1.2085 H   0  0  0  0  0  0  0  0  0  0  0  0
   -7.8629   -3.0118    1.3985 H   0  0  0  0  0  0  0  0  0  0  0  0
  -10.0959   -1.0771    0.5388 H   0  0  0  0  0  0  0  0  0  0  0  0
   -9.3934   -1.2405    2.1746 H   0  0  0  0  0  0  0  0  0  0  0  0
   -7.3398   -0.2197    1.5926 H   0  0  0  0  0  0  0  0  0  0  0  0
   -8.6376    0.6936    0.8717 H   0  0  0  0  0  0  0  0  0  0  0  0
   -8.4299   -0.1018   -1.3240 H   0  0  0  0  0  0  0  0  0  0  0  0
   -7.3065   -1.3918   -0.9342 H   0  0  0  0  0  0  0  0  0  0  0  0
   -6.3475    0.5869   -2.1102 H   0  0  0  0  0  0  0  0  0  0  0  0
   -6.7031    1.6292   -0.7271 H   0  0  0  0  0  0  0  0  0  0  0  0
   -4.6995   -0.6947   -0.9146 H   0  0  0  0  0  0  0  0  0  0  0  0
   -4.3694    1.0219   -0.7732 H   0  0  0  0  0  0  0  0  0  0  0  0
   -5.3470   -0.8427    1.4398 H   0  0  0  0  0  0  0  0  0  0  0  0
   -5.2801    1.0122    1.5904 H   0  0  0  0  0  0  0  0  0  0  0  0
   -3.1941   -1.0329    0.8048 H   0  0  0  0  0  0  0  0  0  0  0  0
   -3.2720   -0.0362    2.3167 H   0  0  0  0  0  0  0  0  0  0  0  0
   -2.9946    2.0900    1.0733 H   0  0  0  0  0  0  0  0  0  0  0  0
   -1.5799    2.1217   -0.7155 H   0  0  0  0  0  0  0  0  0  0  0  0
   -2.3044   -0.9506   -0.9303 H   0  0  0  0  0  0  0  0  0  0  0  0
   -1.7778    0.0867   -2.2243 H   0  0  0  0  0  0  0  0  0  0  0  0
    0.1717   -0.9556   -0.0736 H   0  0  0  0  0  0  0  0  0  0  0  0
   -0.2402   -1.6416   -1.6794 H   0  0  0  0  0  0  0  0  0  0  0  0
    0.6027    0.2468   -2.8877 H   0  0  0  0  0  0  0  0  0  0  0  0
    1.7917   -0.5036   -1.8211 H   0  0  0  0  0  0  0  0  0  0  0  0
    1.5597    1.4139   -0.2039 H   0  0  0  0  0  0  0  0  0  0  0  0
    0.4691    2.2823   -1.2740 H   0  0  0  0  0  0  0  0  0  0  0  0
    1.9624    2.1711   -3.1545 H   0  0  0  0  0  0  0  0  0  0  0  0
    2.5348    3.1837   -1.8023 H   0  0  0  0  0  0  0  0  0  0  0  0
    3.3402    0.3413   -2.6640 H   0  0  0  0  0  0  0  0  0  0  0  0
    4.3984    1.8296   -2.6457 H   0  0  0  0  0  0  0  0  0  0  0  0
    4.4649    1.9677   -0.3078 H   0  0  0  0  0  0  0  0  0  0  0  0
    3.3735    0.6179   -0.0047 H   0  0  0  0  0  0  0  0  0  0  0  0
    5.6720   -0.0710    1.2813 H   0  0  0  0  0  0  0  0  0  0  0  0
    7.8541   -0.5758   -0.4968 H   0  0  0  0  0  0  0  0  0  0  0  0
    6.7681   -2.0627   -0.4952 H   0  0  0  0  0  0  0  0  0  0  0  0
    8.6876   -2.2329    1.1003 H   0  0  0  0  0  0  0  0  0  0  0  0
    7.1232   -2.2656    1.9916 H   0  0  0  0  0  0  0  0  0  0  0  0
   11.8703   -1.1985    2.2309 H   0  0  0  0  0  0  0  0  0  0  0  0
   11.2316    1.4550    3.2391 H   0  0  0  0  0  0  0  0  0  0  0  0
  1  2  1  0
  2  3  1  0
  3  4  1  0
  4  5  1  0
  5  6  1  0
  6  7  1  0
  7  8  1  0
  8  9  1  0
  9 10  2  0
 10 11  1  0
 11 12  1  0
 12 13  1  0
 13 14  1  0
 14 15  1  0
 15 16  1  0
 16 17  1  0
 17 18  1  0
 18 19  2  0
 18 20  1  0
 20 21  1  0
 21 22  1  0
 22 23  1  0
 23 24  2  0
 23 25  1  0
 25 26  2  0
 25 27  1  0
 25 28  1  0
  1 29  1  0
  1 30  1  0
  1 31  1  0
  2 32  1  0
  2 33  1  0
  3 34  1  0
  3 35  1  0
  4 36  1  0
  4 37  1  0
  5 38  1  0
  5 39  1  0
  6 40  1  0
  6 41  1  0
  7 42  1  0
  7 43  1  0
  8 44  1  0
  8 45  1  0
  9 46  1  0
 10 47  1  0
 11 48  1  0
 11 49  1  0
 12 50  1  0
 12 51  1  0
 13 52  1  0
 13 53  1  0
 14 54  1  0
 14 55  1  0
 15 56  1  0
 15 57  1  0
 16 58  1  0
 16 59  1  0
 17 60  1  0
 17 61  1  0
 20 62  1  0
 21 63  1  0
 21 64  1  0
 22 65  1  0
 22 66  1  0
 27 67  1  0
 28 68  1  0
M  END
>  <Ligand ID>  (1) 
LIG0004216

>  <Ligand>  (1) 
CHEMBL117798

>  <SMILES>  (1) 
CCCCCCCC/C=C\CCCCCCCC(=O)NCCC(=O)P(=S)(O)O

>  <CID>  (1) 
44343866.0

>  <ChEMBL ID>  (1) 
nan

>  <InChiKey>  (1) 
RULDNVDOWBRXSL-KTKRTIGZSA-N

>  <InChi>  (1) 
InChI=1S/C21H40NO4PS/c1-2-3-4-5-6-7-8-9-10-11-12-13-14-15-16-17-20(23)22-19-18-21(24)27(25,26)28/h9-10H,2-8,11-19H2,1H3,(H,22,23)(H2,25,26,28)/b10-9-

>  <IUPAC Name>  (1) 
(Z)-N-(3-dihydroxyphosphinothioyl-3-oxopropyl)octadec-9-enamide

$$$$
