
     RDKit          3D

 42 43  0  0  0  0  0  0  0  0999 V2000
    5.7921   -0.3294    0.6734 C   0  0  0  0  0  0  0  0  0  0  0  0
    4.4183   -0.1837    0.4678 O   0  0  0  0  0  0  0  0  0  0  0  0
    3.7915    0.9601    0.0207 C   0  0  0  0  0  0  0  0  0  0  0  0
    4.4720    2.0703   -0.2653 N   0  0  0  0  0  0  0  0  0  0  0  0
    3.8175    3.1740   -0.7024 C   0  0  0  0  0  0  0  0  0  0  0  0
    4.4839    4.2042   -0.9637 O   0  0  0  0  0  0  0  0  0  0  0  0
    2.4440    3.1397   -0.8490 C   0  0  0  0  0  0  0  0  0  0  0  0
    1.7600    1.9837   -0.5484 C   0  0  0  0  0  0  0  0  0  0  0  0
    2.4476    0.9101   -0.1173 N   0  0  0  0  0  0  0  0  0  0  0  0
    1.7274   -0.2864    0.1923 C   0  0  2  0  0  0  0  0  0  0  0  0
    0.9455   -0.7404   -0.8667 O   0  0  0  0  0  0  0  0  0  0  0  0
   -0.0394   -1.5507   -0.3738 C   0  0  1  0  0  0  0  0  0  0  0  0
    0.0165   -1.4490    1.1482 C   0  0  2  0  0  0  0  0  0  0  0  0
    0.6545   -0.0554    1.2547 C   0  0  1  0  0  0  0  0  0  0  0  0
    1.1613    0.2054    2.5025 O   0  0  0  0  0  0  0  0  0  0  0  0
    0.9494   -2.3346    1.6842 O   0  0  0  0  0  0  0  0  0  0  0  0
   -1.4441   -1.0941   -0.7921 C   0  0  0  0  0  0  0  0  0  0  0  0
   -2.3253   -2.0049   -0.2219 O   0  0  0  0  0  0  0  0  0  0  0  0
   -3.9324   -1.6635   -0.5743 P   0  0  0  0  0  0  0  0  0  0  0  0
   -4.5081   -2.5837   -1.6086 O   0  0  0  0  0  0  0  0  0  0  0  0
   -4.1745   -0.0876   -1.0718 O   0  0  0  0  0  0  0  0  0  0  0  0
   -5.6094    0.4899   -0.3864 P   0  0  0  0  0  0  0  0  0  0  0  0
   -6.3716    1.3913   -1.3009 O   0  0  0  0  0  0  0  0  0  0  0  0
   -5.2205    1.2638    1.0812 O   0  0  0  0  0  0  0  0  0  0  0  0
   -6.5982   -0.8403    0.0385 O   0  0  0  0  0  0  0  0  0  0  0  0
   -4.8028   -1.9113    0.8557 O   0  0  0  0  0  0  0  0  0  0  0  0
    6.0138   -0.7366    1.6819 H   0  0  0  0  0  0  0  0  0  0  0  0
    6.2810    0.6697    0.5949 H   0  0  0  0  0  0  0  0  0  0  0  0
    6.2299   -1.0424   -0.0697 H   0  0  0  0  0  0  0  0  0  0  0  0
    1.9521    4.0380   -1.2001 H   0  0  0  0  0  0  0  0  0  0  0  0
    0.6858    1.9346   -0.6558 H   0  0  0  0  0  0  0  0  0  0  0  0
    2.3501   -1.1020    0.5613 H   0  0  0  0  0  0  0  0  0  0  0  0
    0.1306   -2.5836   -0.6814 H   0  0  0  0  0  0  0  0  0  0  0  0
   -0.9675   -1.4804    1.6254 H   0  0  0  0  0  0  0  0  0  0  0  0
   -0.1029    0.6689    0.8919 H   0  0  0  0  0  0  0  0  0  0  0  0
    2.0008    0.6965    2.4949 H   0  0  0  0  0  0  0  0  0  0  0  0
    1.1906   -1.9510    2.5803 H   0  0  0  0  0  0  0  0  0  0  0  0
   -1.4912   -1.2531   -1.8892 H   0  0  0  0  0  0  0  0  0  0  0  0
   -1.6161   -0.0574   -0.4977 H   0  0  0  0  0  0  0  0  0  0  0  0
   -5.1692    2.2512    0.9529 H   0  0  0  0  0  0  0  0  0  0  0  0
   -7.0768   -1.1734   -0.7471 H   0  0  0  0  0  0  0  0  0  0  0  0
   -4.2665   -1.5564    1.6001 H   0  0  0  0  0  0  0  0  0  0  0  0
  1  2  1  0
  2  3  1  0
  3  4  2  0
  4  5  1  0
  5  6  2  0
  5  7  1  0
  7  8  2  0
  8  9  1  0
  9 10  1  0
 10 11  1  0
 11 12  1  0
 12 13  1  0
 13 14  1  0
 14 15  1  0
 13 16  1  0
 12 17  1  0
 17 18  1  0
 18 19  1  0
 19 20  2  0
 19 21  1  0
 21 22  1  0
 22 23  2  0
 22 24  1  0
 22 25  1  0
 19 26  1  0
  9  3  1  0
 14 10  1  0
  1 27  1  0
  1 28  1  0
  1 29  1  0
  7 30  1  0
  8 31  1  0
 10 32  1  1
 12 33  1  1
 13 34  1  1
 14 35  1  6
 15 36  1  0
 16 37  1  0
 17 38  1  0
 17 39  1  0
 24 40  1  0
 25 41  1  0
 26 42  1  0
M  END
>  <Ligand ID>  (1) 
LIG0004893

>  <Ligand>  (1) 
CHEMBL1767414

>  <SMILES>  (1) 
COc1nc(=O)ccn1[C@@H]1O[C@@H]([C@H]([C@H]1O)O)COP(=O)(OP(=O)(O)O)O

>  <CID>  (1) 
52952391.0

>  <ChEMBL ID>  (1) 
nan

>  <InChiKey>  (1) 
LZLCEEVUQLXSAY-ZOQUXTDFSA-N

>  <InChi>  (1) 
InChI=1S/C10H16N2O12P2/c1-21-10-11-6(13)2-3-12(10)9-8(15)7(14)5(23-9)4-22-26(19,20)24-25(16,17)18/h2-3,5,7-9,14-15H,4H2,1H3,(H,19,20)(H2,16,17,18)/t5-,7-,8-,9-/m1/s1

>  <IUPAC Name>  (1) 
[(2R,3S,4R,5R)-3,4-dihydroxy-5-(2-methoxy-4-oxopyrimidin-1-yl)oxolan-2-yl]methyl phosphono hydrogen phosphate

$$$$
