
     RDKit          3D

115115  0  0  0  0  0  0  0  0999 V2000
   -2.8482    1.7949    3.0728 C   0  0  0  0  0  0  0  0  0  0  0  0
   -1.4607    1.3228    3.3125 C   0  0  0  0  0  0  0  0  0  0  0  0
   -1.1803   -0.1182    3.2178 C   0  0  0  0  0  0  0  0  0  0  0  0
   -1.4226   -0.8263    1.9111 C   0  0  1  0  0  0  0  0  0  0  0  0
   -2.8024   -0.8153    1.4106 C   0  0  0  0  0  0  0  0  0  0  0  0
   -3.6285   -1.5834    2.0279 O   0  0  0  0  0  0  0  0  0  0  0  0
   -3.2723   -0.0387    0.3250 N   0  0  0  0  0  0  0  0  0  0  0  0
   -4.7097   -0.1556   -0.1272 C   0  0  2  0  0  0  0  0  0  0  0  0
   -4.6845    0.3844   -1.4693 C   0  0  0  0  0  0  0  0  0  0  0  0
   -3.5075    0.7703   -1.8802 O   0  0  0  0  0  0  0  0  0  0  0  0
   -5.6986    0.5638   -2.4161 N   0  0  0  0  0  0  0  0  0  0  0  0
   -5.3514    1.1021   -3.7032 C   0  0  2  0  0  0  0  0  0  0  0  0
   -5.4272    2.6020   -3.7003 C   0  0  0  0  0  0  0  0  0  0  0  0
   -5.1779    3.2371   -4.7825 O   0  0  0  0  0  0  0  0  0  0  0  0
   -5.7461    3.3693   -2.6100 O   0  0  0  0  0  0  0  0  0  0  0  0
   -6.2058    0.6700   -4.8430 C   0  0  0  0  0  0  0  0  0  0  0  0
   -7.9444    1.1769   -4.5889 S   0  0  0  0  0  0  0  0  0  0  0  0
   -5.5075    0.5264    0.8973 C   0  0  0  0  0  0  0  0  0  0  0  0
   -6.9770    0.5831    0.8474 C   0  0  0  0  0  0  0  0  0  0  0  0
   -7.6567   -0.7587    0.7939 C   0  0  0  0  0  0  0  0  0  0  0  0
   -9.1490   -0.5366    0.7563 C   0  0  0  0  0  0  0  0  0  0  0  0
   -9.4116    0.0967   -0.6028 C   0  0  0  0  0  0  0  0  0  0  0  0
   -8.8923    1.4933   -0.5628 C   0  0  0  0  0  0  0  0  0  0  0  0
   -7.6089    1.7185    0.1501 C   0  0  0  0  0  0  0  0  0  0  0  0
   -0.4693   -0.3351    0.9028 N   0  0  0  0  0  0  0  0  0  0  0  0
    0.8090   -1.0327    0.9337 C   0  0  0  0  0  0  0  0  0  0  0  0
    1.0172   -1.9301    1.7839 O   0  0  0  0  0  0  0  0  0  0  0  0
    1.8733   -0.6885   -0.0329 C   0  0  1  0  0  0  0  0  0  0  0  0
    3.1239   -1.3184    0.4024 N   0  0  0  0  0  0  0  0  0  0  0  0
    4.3226   -0.6519    0.1435 C   0  0  0  0  0  0  0  0  0  0  0  0
    4.2015    0.4771   -0.4890 O   0  0  0  0  0  0  0  0  0  0  0  0
    5.6924   -1.0280    0.4769 C   0  0  1  0  0  0  0  0  0  0  0  0
    6.1006   -2.4371    0.4074 C   0  0  0  0  0  0  0  0  0  0  0  0
    5.3190   -3.2888    1.3936 C   0  0  0  0  0  0  0  0  0  0  0  0
    4.7176   -4.3324    1.0164 O   0  0  0  0  0  0  0  0  0  0  0  0
    5.3204   -2.8379    2.7045 O   0  0  0  0  0  0  0  0  0  0  0  0
    5.9469   -3.1042   -0.9427 C   0  0  0  0  0  0  0  0  0  0  0  0
    6.7381   -2.4680   -1.9928 C   0  0  0  0  0  0  0  0  0  0  0  0
    7.9755   -2.5562   -2.0244 O   0  0  0  0  0  0  0  0  0  0  0  0
    6.1359   -1.7296   -3.0129 O   0  0  0  0  0  0  0  0  0  0  0  0
    6.6724   -0.1038   -0.0617 N   0  0  0  0  0  0  0  0  0  0  0  0
    7.1106    1.0290    0.7172 C   0  0  0  0  0  0  0  0  0  0  0  0
    6.6531    1.2426    1.8761 O   0  0  0  0  0  0  0  0  0  0  0  0
    8.1051    2.0051    0.2127 C   0  0  1  0  0  0  0  0  0  0  0  0
    8.1463    3.1766    1.1350 N   0  0  0  0  0  0  0  0  0  0  0  0
    7.9075    4.4435    0.5198 C   0  0  0  0  0  0  0  0  0  0  0  0
    7.6831    4.5312   -0.7123 O   0  0  0  0  0  0  0  0  0  0  0  0
    7.9243    5.6754    1.3434 C   0  0  0  0  0  0  0  0  0  0  0  0
    9.5158    1.4066    0.2665 C   0  0  0  0  0  0  0  0  0  0  0  0
    9.6183    0.1908   -0.5320 C   0  0  0  0  0  0  0  0  0  0  0  0
    9.4922   -0.9176    0.0557 O   0  0  0  0  0  0  0  0  0  0  0  0
    9.8517    0.2667   -1.9162 O   0  0  0  0  0  0  0  0  0  0  0  0
    1.4773   -1.2406   -1.3896 C   0  0  0  0  0  0  0  0  0  0  0  0
    1.3090   -2.6975   -1.5086 C   0  0  0  0  0  0  0  0  0  0  0  0
    0.9265   -2.9772   -2.9827 C   0  0  0  0  0  0  0  0  0  0  0  0
    0.2868   -3.3796   -0.6799 C   0  0  0  0  0  0  0  0  0  0  0  0
   -1.8750   -0.8293    4.3745 C   0  0  0  0  0  0  0  0  0  0  0  0
   -3.0616    2.1110    2.0509 H   0  0  0  0  0  0  0  0  0  0  0  0
   -3.0413    2.6623    3.7739 H   0  0  0  0  0  0  0  0  0  0  0  0
   -3.5299    0.9670    3.3436 H   0  0  0  0  0  0  0  0  0  0  0  0
   -0.7071    1.9584    2.7445 H   0  0  0  0  0  0  0  0  0  0  0  0
   -1.2007    1.6080    4.3820 H   0  0  0  0  0  0  0  0  0  0  0  0
   -0.0857   -0.2249    3.4958 H   0  0  0  0  0  0  0  0  0  0  0  0
   -1.1282   -1.8750    2.1218 H   0  0  0  0  0  0  0  0  0  0  0  0
   -2.6300    0.6156   -0.1574 H   0  0  0  0  0  0  0  0  0  0  0  0
   -4.8357   -1.2815   -0.0520 H   0  0  0  0  0  0  0  0  0  0  0  0
   -6.6664    0.2806   -2.1255 H   0  0  0  0  0  0  0  0  0  0  0  0
   -4.2801    0.8809   -3.9360 H   0  0  0  0  0  0  0  0  0  0  0  0
   -5.9871    4.3513   -2.6455 H   0  0  0  0  0  0  0  0  0  0  0  0
   -5.8674    1.2414   -5.7385 H   0  0  0  0  0  0  0  0  0  0  0  0
   -6.1429   -0.3900   -5.0920 H   0  0  0  0  0  0  0  0  0  0  0  0
   -8.7929    0.0372   -4.5893 H   0  0  0  0  0  0  0  0  0  0  0  0
   -5.1537    0.1424    1.9150 H   0  0  0  0  0  0  0  0  0  0  0  0
   -5.1236    1.5960    0.9421 H   0  0  0  0  0  0  0  0  0  0  0  0
   -7.2346    0.8585    1.9868 H   0  0  0  0  0  0  0  0  0  0  0  0
   -7.4096   -1.3611   -0.0979 H   0  0  0  0  0  0  0  0  0  0  0  0
   -7.4329   -1.3779    1.6829 H   0  0  0  0  0  0  0  0  0  0  0  0
   -9.6248   -1.5415    0.7993 H   0  0  0  0  0  0  0  0  0  0  0  0
   -9.5161    0.1198    1.5512 H   0  0  0  0  0  0  0  0  0  0  0  0
   -8.8337   -0.4871   -1.3630 H   0  0  0  0  0  0  0  0  0  0  0  0
  -10.4792    0.0305   -0.8802 H   0  0  0  0  0  0  0  0  0  0  0  0
   -9.6940    2.0922   -0.0259 H   0  0  0  0  0  0  0  0  0  0  0  0
   -8.8899    1.9633   -1.5885 H   0  0  0  0  0  0  0  0  0  0  0  0
   -6.8701    2.1105   -0.5974 H   0  0  0  0  0  0  0  0  0  0  0  0
   -7.7210    2.6266    0.8358 H   0  0  0  0  0  0  0  0  0  0  0  0
   -0.6695    0.4208    0.2381 H   0  0  0  0  0  0  0  0  0  0  0  0
    2.0511    0.3728   -0.1402 H   0  0  0  0  0  0  0  0  0  0  0  0
    3.1477   -2.2235    0.8974 H   0  0  0  0  0  0  0  0  0  0  0  0
    5.7300   -0.7684    1.6237 H   0  0  0  0  0  0  0  0  0  0  0  0
    7.1583   -2.5416    0.6863 H   0  0  0  0  0  0  0  0  0  0  0  0
    4.6827   -3.2598    3.3807 H   0  0  0  0  0  0  0  0  0  0  0  0
    6.3861   -4.1369   -0.8073 H   0  0  0  0  0  0  0  0  0  0  0  0
    4.8653   -3.1843   -1.1933 H   0  0  0  0  0  0  0  0  0  0  0  0
    6.6030   -1.7710   -3.9341 H   0  0  0  0  0  0  0  0  0  0  0  0
    7.1028   -0.1801   -1.0033 H   0  0  0  0  0  0  0  0  0  0  0  0
    7.9155    2.3226   -0.8096 H   0  0  0  0  0  0  0  0  0  0  0  0
    8.3412    3.0496    2.1463 H   0  0  0  0  0  0  0  0  0  0  0  0
    6.9029    6.1369    1.4450 H   0  0  0  0  0  0  0  0  0  0  0  0
    8.5411    6.4734    0.8861 H   0  0  0  0  0  0  0  0  0  0  0  0
    8.2852    5.4793    2.3561 H   0  0  0  0  0  0  0  0  0  0  0  0
    9.8339    1.2548    1.3392 H   0  0  0  0  0  0  0  0  0  0  0  0
   10.1962    2.2042   -0.1536 H   0  0  0  0  0  0  0  0  0  0  0  0
   10.3191   -0.5162   -2.3971 H   0  0  0  0  0  0  0  0  0  0  0  0
    2.1625   -0.9080   -2.2004 H   0  0  0  0  0  0  0  0  0  0  0  0
    0.4918   -0.7525   -1.6434 H   0  0  0  0  0  0  0  0  0  0  0  0
    2.2654   -3.2697   -1.3933 H   0  0  0  0  0  0  0  0  0  0  0  0
    1.3632   -2.2151   -3.6224 H   0  0  0  0  0  0  0  0  0  0  0  0
    1.2143   -4.0328   -3.2565 H   0  0  0  0  0  0  0  0  0  0  0  0
   -0.1659   -2.9244   -3.0670 H   0  0  0  0  0  0  0  0  0  0  0  0
    0.7185   -4.0112    0.1336 H   0  0  0  0  0  0  0  0  0  0  0  0
   -0.5696   -2.7646   -0.3492 H   0  0  0  0  0  0  0  0  0  0  0  0
   -0.2147   -4.1689   -1.3355 H   0  0  0  0  0  0  0  0  0  0  0  0
   -2.9403   -1.0384    4.1819 H   0  0  0  0  0  0  0  0  0  0  0  0
   -1.3305   -1.7610    4.6425 H   0  0  0  0  0  0  0  0  0  0  0  0
   -1.8053   -0.1398    5.2374 H   0  0  0  0  0  0  0  0  0  0  0  0
  1  2  1  0
  2  3  1  0
  3  4  1  0
  4  5  1  0
  5  6  2  0
  5  7  1  0
  7  8  1  0
  8  9  1  0
  9 10  2  0
  9 11  1  0
 11 12  1  0
 12 13  1  0
 13 14  2  0
 13 15  1  0
 12 16  1  0
 16 17  1  0
  8 18  1  0
 18 19  1  0
 19 20  1  0
 20 21  1  0
 21 22  1  0
 22 23  1  0
 23 24  1  0
  4 25  1  0
 25 26  1  0
 26 27  2  0
 26 28  1  0
 28 29  1  0
 29 30  1  0
 30 31  2  0
 30 32  1  0
 32 33  1  0
 33 34  1  0
 34 35  2  0
 34 36  1  0
 33 37  1  0
 37 38  1  0
 38 39  2  0
 38 40  1  0
 32 41  1  0
 41 42  1  0
 42 43  2  0
 42 44  1  0
 44 45  1  0
 45 46  1  0
 46 47  2  0
 46 48  1  0
 44 49  1  0
 49 50  1  0
 50 51  2  0
 50 52  1  0
 28 53  1  0
 53 54  1  0
 54 55  1  0
 54 56  1  0
  3 57  1  0
 24 19  1  0
  1 58  1  0
  1 59  1  0
  1 60  1  0
  2 61  1  0
  2 62  1  0
  3 63  1  0
  4 64  1  1
  7 65  1  0
  8 66  1  6
 11 67  1  0
 12 68  1  6
 15 69  1  0
 16 70  1  0
 16 71  1  0
 17 72  1  0
 18 73  1  0
 18 74  1  0
 19 75  1  0
 20 76  1  0
 20 77  1  0
 21 78  1  0
 21 79  1  0
 22 80  1  0
 22 81  1  0
 23 82  1  0
 23 83  1  0
 24 84  1  0
 24 85  1  0
 25 86  1  0
 28 87  1  6
 29 88  1  0
 32 89  1  1
 33 90  1  0
 36 91  1  0
 37 92  1  0
 37 93  1  0
 40 94  1  0
 41 95  1  0
 44 96  1  6
 45 97  1  0
 48 98  1  0
 48 99  1  0
 48100  1  0
 49101  1  0
 49102  1  0
 52103  1  0
 53104  1  0
 53105  1  0
 54106  1  0
 55107  1  0
 55108  1  0
 55109  1  0
 56110  1  0
 56111  1  0
 56112  1  0
 57113  1  0
 57114  1  0
 57115  1  0
M  END
>  <Ligand ID>  (1) 
LIG0004050

>  <Ligand>  (1) 
D0M2RI

>  <SMILES>  (1) 
CCC([C@@H](C(=O)N[C@H](C(=O)N[C@H](C(=O)O)CS)CC1CCCCC1)NC(=O)[C@@H](NC(=O)[C@@H](C(C(=O)O)CC(=O)O)NC(=O)[C@@H](NC(=O)C)CC(=O)O)CC(C)C)C

>  <CID>  (1) 
44305052.0

>  <ChEMBL ID>  (1) 
nan

>  <InChiKey>  (1) 
SBWANKMZZMQXKQ-JHOOERKCSA-N

>  <InChi>  (1) 
InChI=1S/C36H58N6O14S/c1-6-18(4)28(33(51)39-23(13-20-10-8-7-9-11-20)30(48)40-25(16-57)36(55)56)41-31(49)22(12-17(2)3)38-34(52)29(21(35(53)54)14-26(44)45)42-32(50)24(15-27(46)47)37-19(5)43/h17-18,20-25,28-29,57H,6-16H2,1-5H3,(H,37,43)(H,38,52)(H,39,51)(H,40,48)(H,41,49)(H,42,50)(H,44,45)(H,46,47)(H,53,54)(H,55,56)/t18?,21?,22-,23-,24-,25-,28-,29+/m0/s1

>  <IUPAC Name>  (1) 
2-[(1R)-1-[[(2S)-2-acetamido-3-carboxypropanoyl]amino]-2-[[(2S)-1-[[(2S)-1-[[(2S)-1-[[(1R)-1-carboxy-2-sulfanylethyl]amino]-3-cyclohexyl-1-oxopropan-2-yl]amino]-3-methyl-1-oxopentan-2-yl]amino]-4-methyl-1-oxopentan-2-yl]amino]-2-oxoethyl]butanedioic acid

$$$$
