
     RDKit          3D

 17 16  0  0  0  0  0  0  0  0999 V2000
   -1.8875    0.0632    0.6045 C   0  0  0  0  0  0  0  0  0  0  0  0
   -1.0019    0.9941   -0.1937 C   0  0  0  0  0  0  0  0  0  0  0  0
   -0.2006    0.2812   -1.2313 C   0  0  0  0  0  0  0  0  0  0  0  0
    0.7279   -0.7685   -0.7176 C   0  0  0  0  0  0  0  0  0  0  0  0
    1.7616   -0.2844    0.2194 C   0  0  0  0  0  0  0  0  0  0  0  0
    1.9029    0.9032    0.5826 O   0  0  0  0  0  0  0  0  0  0  0  0
    2.6449   -1.2217    0.7368 O   0  0  0  0  0  0  0  0  0  0  0  0
   -1.3232   -0.8096    1.0149 H   0  0  0  0  0  0  0  0  0  0  0  0
   -2.3142    0.6856    1.4311 H   0  0  0  0  0  0  0  0  0  0  0  0
   -2.7816   -0.2760    0.0181 H   0  0  0  0  0  0  0  0  0  0  0  0
   -1.6920    1.6927   -0.7068 H   0  0  0  0  0  0  0  0  0  0  0  0
   -0.3357    1.5100    0.5133 H   0  0  0  0  0  0  0  0  0  0  0  0
   -0.8654   -0.1225   -2.0078 H   0  0  0  0  0  0  0  0  0  0  0  0
    0.4223    1.0540   -1.7706 H   0  0  0  0  0  0  0  0  0  0  0  0
    0.1821   -1.5927   -0.2021 H   0  0  0  0  0  0  0  0  0  0  0  0
    1.2337   -1.2190   -1.6104 H   0  0  0  0  0  0  0  0  0  0  0  0
    3.5267   -0.8895    1.1208 H   0  0  0  0  0  0  0  0  0  0  0  0
  1  2  1  0
  2  3  1  0
  3  4  1  0
  4  5  1  0
  5  6  2  0
  5  7  1  0
  1  8  1  0
  1  9  1  0
  1 10  1  0
  2 11  1  0
  2 12  1  0
  3 13  1  0
  3 14  1  0
  4 15  1  0
  4 16  1  0
  7 17  1  0
M  END
>  <Ligand ID>  (1) 
LIG0000082

>  <Ligand>  (1) 
pentanoic acid

>  <SMILES>  (1) 
CCCCC(=O)O

>  <CID>  (1) 
7991.0

>  <ChEMBL ID>  (1) 
nan

>  <InChiKey>  (1) 
NQPDZGIKBAWPEJ-UHFFFAOYSA-N

>  <InChi>  (1) 
InChI=1S/C5H10O2/c1-2-3-4-5(6)7/h2-4H2,1H3,(H,6,7)

>  <IUPAC Name>  (1) 
pentanoic acid

$$$$
