
     RDKit          3D

 29 31  0  0  0  0  0  0  0  0999 V2000
    0.2810   -3.6513    0.0204 Cl  0  0  0  0  0  0  0  0  0  0  0  0
    1.1222   -2.1178    0.0099 C   0  0  0  0  0  0  0  0  0  0  0  0
    2.5092   -2.1485   -0.1411 C   0  0  0  0  0  0  0  0  0  0  0  0
    3.2533   -0.9771   -0.1601 C   0  0  0  0  0  0  0  0  0  0  0  0
    2.6007    0.2394   -0.0262 C   0  0  0  0  0  0  0  0  0  0  0  0
    1.2270    0.2644    0.1231 C   0  0  0  0  0  0  0  0  0  0  0  0
    0.4725   -0.9039    0.1433 C   0  0  0  0  0  0  0  0  0  0  0  0
   -0.9490   -0.5970    0.3125 C   0  0  2  0  0  0  0  0  0  0  0  0
   -1.8450   -0.9832   -0.8251 C   0  0  0  0  0  0  0  0  0  0  0  0
   -3.1838   -0.6489   -0.3921 N   0  0  0  0  0  0  0  0  0  0  0  0
   -3.4136    0.7219   -0.1012 C   0  0  0  0  0  0  0  0  0  0  0  0
   -2.3161    1.4701    0.5679 C   0  0  0  0  0  0  0  0  0  0  0  0
   -1.0147    0.8511    0.3953 N   0  0  0  0  0  0  0  0  0  0  0  0
    0.2988    1.3795    0.2814 C   0  0  0  0  0  0  0  0  0  0  0  0
    0.5636    2.6113    0.3173 O   0  0  0  0  0  0  0  0  0  0  0  0
    3.3582    1.5220   -0.0407 C   0  0  0  0  0  0  0  0  0  0  0  0
    2.9014    2.2871   -1.0906 F   0  0  0  0  0  0  0  0  0  0  0  0
    4.7078    1.2615   -0.1264 F   0  0  0  0  0  0  0  0  0  0  0  0
    3.1402    2.2191    1.1378 F   0  0  0  0  0  0  0  0  0  0  0  0
    3.0327   -3.0890   -0.2467 H   0  0  0  0  0  0  0  0  0  0  0  0
    4.3483   -1.0087   -0.2796 H   0  0  0  0  0  0  0  0  0  0  0  0
   -1.3908   -0.9920    1.2361 H   0  0  0  0  0  0  0  0  0  0  0  0
   -1.5901   -0.4630   -1.7789 H   0  0  0  0  0  0  0  0  0  0  0  0
   -1.8055   -2.0643   -0.9928 H   0  0  0  0  0  0  0  0  0  0  0  0
   -3.4678   -1.3262    0.3270 H   0  0  0  0  0  0  0  0  0  0  0  0
   -4.3039    0.7465    0.5934 H   0  0  0  0  0  0  0  0  0  0  0  0
   -3.7767    1.2566   -1.0057 H   0  0  0  0  0  0  0  0  0  0  0  0
   -2.5253    1.6520    1.6506 H   0  0  0  0  0  0  0  0  0  0  0  0
   -2.2346    2.4883    0.0913 H   0  0  0  0  0  0  0  0  0  0  0  0
  1  2  1  0
  2  3  2  0
  3  4  1  0
  4  5  2  0
  5  6  1  0
  6  7  2  0
  7  8  1  0
  8  9  1  0
  9 10  1  0
 10 11  1  0
 11 12  1  0
 12 13  1  0
 13 14  1  0
 14 15  2  0
  5 16  1  0
 16 17  1  0
 16 18  1  0
 16 19  1  0
  7  2  1  0
 13  8  1  0
 14  6  1  0
  3 20  1  0
  4 21  1  0
  8 22  1  1
  9 23  1  0
  9 24  1  0
 10 25  1  0
 11 26  1  0
 11 27  1  0
 12 28  1  0
 12 29  1  0
M  END
>  <Ligand ID>  (1) 
LIG0003207

>  <Ligand>  (1) 
CHEMBL375575

>  <SMILES>  (1) 
Clc1ccc(c2c1[C@@H]1CNCCN1C2=O)C(F)(F)F

>  <CID>  (1) 
16115515.0

>  <ChEMBL ID>  (1) 
nan

>  <InChiKey>  (1) 
JYQPQWBAHAQSSY-QMMMGPOBSA-N

>  <InChi>  (1) 
InChI=1S/C12H10ClF3N2O/c13-7-2-1-6(12(14,15)16)9-10(7)8-5-17-3-4-18(8)11(9)19/h1-2,8,17H,3-5H2/t8-/m0/s1

>  <IUPAC Name>  (1) 
(10bR)-10-chloro-7-(trifluoromethyl)-2,3,4,10b-tetrahydro-1H-pyrazino[1,2-b]isoindol-6-one

$$$$
