
     RDKit          3D

 50 52  0  0  0  0  0  0  0  0999 V2000
    4.9333    2.8412   -0.8408 O   0  0  0  0  0  0  0  0  0  0  0  0
    5.2057    1.4993   -0.7260 C   0  0  0  0  0  0  0  0  0  0  0  0
    5.4022    0.8449   -1.7811 O   0  0  0  0  0  0  0  0  0  0  0  0
    5.2762    0.8007    0.5788 C   0  0  0  0  0  0  0  0  0  0  0  0
    4.0314   -0.0042    0.8675 C   0  0  0  0  0  0  0  0  0  0  0  0
    3.7396   -1.0728   -0.1301 C   0  0  0  0  0  0  0  0  0  0  0  0
    2.5850   -0.7737   -1.0462 C   0  0  0  0  0  0  0  0  0  0  0  0
    1.2645   -0.6110   -0.2800 C   0  0  0  0  0  0  0  0  0  0  0  0
    1.5922   -0.0464    1.0604 C   0  0  0  0  0  0  0  0  0  0  0  0
    2.8091    0.8655    0.9921 C   0  0  0  0  0  0  0  0  0  0  0  0
    0.4151    0.2685   -1.1313 C   0  0  0  0  0  0  0  0  0  0  0  0
   -1.0017    0.3232   -0.7376 C   0  0  0  0  0  0  0  0  0  0  0  0
   -1.5560   -0.8208   -0.0553 N   0  0  0  0  0  0  0  0  0  0  0  0
   -0.7745   -1.9528    0.3198 C   0  0  0  0  0  0  0  0  0  0  0  0
    0.6313   -1.9627   -0.2318 C   0  0  0  0  0  0  0  0  0  0  0  0
   -2.9709   -0.7468    0.2124 C   0  0  0  0  0  0  0  0  0  0  0  0
   -3.7314    0.3218   -0.2682 C   0  0  0  0  0  0  0  0  0  0  0  0
   -5.0880    0.4264   -0.0555 C   0  0  0  0  0  0  0  0  0  0  0  0
   -5.7598   -0.5387    0.6546 C   0  0  0  0  0  0  0  0  0  0  0  0
   -5.0298   -1.5965    1.1358 C   0  0  0  0  0  0  0  0  0  0  0  0
   -3.6468   -1.7079    0.9217 C   0  0  0  0  0  0  0  0  0  0  0  0
   -2.8889   -3.1107    1.6194 Cl  0  0  0  0  0  0  0  0  0  0  0  0
   -5.8381    1.4922   -0.5373 O   0  0  0  0  0  0  0  0  0  0  0  0
   -6.0048    2.6418    0.2591 C   0  0  0  0  0  0  0  0  0  0  0  0
   -4.7467    3.1540    0.5095 F   0  0  0  0  0  0  0  0  0  0  0  0
   -6.6054    2.3800    1.4696 F   0  0  0  0  0  0  0  0  0  0  0  0
   -6.8209    3.5600   -0.3823 F   0  0  0  0  0  0  0  0  0  0  0  0
    4.3169    3.1553   -1.5997 H   0  0  0  0  0  0  0  0  0  0  0  0
    5.4005    1.5284    1.4102 H   0  0  0  0  0  0  0  0  0  0  0  0
    6.1800    0.1572    0.5736 H   0  0  0  0  0  0  0  0  0  0  0  0
    4.1873   -0.4799    1.8658 H   0  0  0  0  0  0  0  0  0  0  0  0
    4.6353   -1.2297   -0.7643 H   0  0  0  0  0  0  0  0  0  0  0  0
    3.5300   -2.0534    0.3641 H   0  0  0  0  0  0  0  0  0  0  0  0
    2.4963   -1.6504   -1.7272 H   0  0  0  0  0  0  0  0  0  0  0  0
    2.7655    0.0959   -1.6864 H   0  0  0  0  0  0  0  0  0  0  0  0
    0.7342    0.4661    1.5502 H   0  0  0  0  0  0  0  0  0  0  0  0
    1.9081   -0.8747    1.7504 H   0  0  0  0  0  0  0  0  0  0  0  0
    2.7392    1.5797    0.1542 H   0  0  0  0  0  0  0  0  0  0  0  0
    2.9073    1.4364    1.9491 H   0  0  0  0  0  0  0  0  0  0  0  0
    0.8127    1.3114   -1.1214 H   0  0  0  0  0  0  0  0  0  0  0  0
    0.4961   -0.0959   -2.1803 H   0  0  0  0  0  0  0  0  0  0  0  0
   -1.5933    0.5278   -1.6908 H   0  0  0  0  0  0  0  0  0  0  0  0
   -1.2357    1.2318   -0.1197 H   0  0  0  0  0  0  0  0  0  0  0  0
   -0.6807   -2.0331    1.4016 H   0  0  0  0  0  0  0  0  0  0  0  0
   -1.2616   -2.8454   -0.1765 H   0  0  0  0  0  0  0  0  0  0  0  0
    1.2361   -2.6259    0.4199 H   0  0  0  0  0  0  0  0  0  0  0  0
    0.6771   -2.3938   -1.2585 H   0  0  0  0  0  0  0  0  0  0  0  0
   -3.2820    1.1332   -0.8364 H   0  0  0  0  0  0  0  0  0  0  0  0
   -6.8236   -0.4656    0.8256 H   0  0  0  0  0  0  0  0  0  0  0  0
   -5.5675   -2.3500    1.6919 H   0  0  0  0  0  0  0  0  0  0  0  0
  1  2  1  0
  2  3  2  0
  2  4  1  0
  4  5  1  0
  5  6  1  0
  6  7  1  0
  7  8  1  0
  8  9  1  0
  9 10  1  0
  8 11  1  0
 11 12  1  0
 12 13  1  0
 13 14  1  0
 14 15  1  0
 13 16  1  0
 16 17  2  0
 17 18  1  0
 18 19  2  0
 19 20  1  0
 20 21  2  0
 21 22  1  0
 18 23  1  0
 23 24  1  0
 24 25  1  0
 24 26  1  0
 24 27  1  0
 10  5  1  0
 21 16  1  0
 15  8  1  0
  1 28  1  0
  4 29  1  0
  4 30  1  0
  5 31  1  0
  6 32  1  0
  6 33  1  0
  7 34  1  0
  7 35  1  0
  9 36  1  0
  9 37  1  0
 10 38  1  0
 10 39  1  0
 11 40  1  0
 11 41  1  0
 12 42  1  0
 12 43  1  0
 14 44  1  0
 14 45  1  0
 15 46  1  0
 15 47  1  0
 17 48  1  0
 19 49  1  0
 20 50  1  0
M  END
>  <Ligand ID>  (1) 
LIG0002978

>  <Ligand>  (1) 
compound A [PMID 24997608]

>  <SMILES>  (1) 
OC(=O)CC1CCC2(CC1)CCN(CC2)c1cc(ccc1Cl)OC(F)(F)F

>  <CID>  (1) 
73777063.0

>  <ChEMBL ID>  (1) 
nan

>  <InChiKey>  (1) 
WUJVPELCYCESAP-UHFFFAOYSA-N

>  <InChi>  (1) 
InChI=1S/C19H23ClF3NO3/c20-15-2-1-14(27-19(21,22)23)12-16(15)24-9-7-18(8-10-24)5-3-13(4-6-18)11-17(25)26/h1-2,12-13H,3-11H2,(H,25,26)

>  <IUPAC Name>  (1) 
2-[3-[2-chloro-5-(trifluoromethoxy)phenyl]-3-azaspiro[5.5]undecan-9-yl]acetic acid

$$$$
