
     RDKit          3D

 45 45  0  0  0  0  0  0  0  0999 V2000
    3.5890   -2.6970    1.0669 C   0  0  0  0  0  0  0  0  0  0  0  0
    3.3209   -1.5059    0.1278 C   0  0  0  0  0  0  0  0  0  0  0  0
    1.8395   -1.3602    0.0778 C   0  0  0  0  0  0  0  0  0  0  0  0
    1.3478   -0.2814   -0.7781 N   0  0  0  0  0  0  0  0  0  0  0  0
   -0.0627   -0.3490   -0.7404 C   0  0  0  0  0  0  0  0  0  0  0  0
   -0.8240    0.6696   -1.5399 C   0  0  0  0  0  0  0  0  0  0  0  0
   -2.1702   -0.0091   -1.9015 C   0  0  0  0  0  0  0  0  0  0  0  0
   -2.8723   -0.1015   -0.5676 C   0  0  0  0  0  0  0  0  0  0  0  0
   -2.1455   -0.3638    0.5501 C   0  0  0  0  0  0  0  0  0  0  0  0
   -0.6872   -0.5925    0.6104 C   0  0  0  0  0  0  0  0  0  0  0  0
   -2.8318   -0.4338    1.7667 C   0  0  0  0  0  0  0  0  0  0  0  0
   -4.2073   -0.2408    1.8181 C   0  0  0  0  0  0  0  0  0  0  0  0
   -4.8952    0.0225    0.6512 C   0  0  0  0  0  0  0  0  0  0  0  0
   -4.2443    0.0963   -0.5540 C   0  0  0  0  0  0  0  0  0  0  0  0
   -4.8566   -0.3194    3.0573 O   0  0  0  0  0  0  0  0  0  0  0  0
    2.0382    0.8896   -0.4437 C   0  0  0  0  0  0  0  0  0  0  0  0
    1.7920    2.1497   -1.1900 C   0  0  0  0  0  0  0  0  0  0  0  0
    2.7546    3.1779   -0.5404 C   0  0  0  0  0  0  0  0  0  0  0  0
    0.7687    0.0000    0.0000 Br  0  0  0  0  0  0  0  0  0  0  0  0
    3.7696   -2.3660    2.1111 H   0  0  0  0  0  0  0  0  0  0  0  0
    4.4778   -3.2605    0.7527 H   0  0  0  0  0  0  0  0  0  0  0  0
    2.7236   -3.3774    1.1198 H   0  0  0  0  0  0  0  0  0  0  0  0
    3.8692   -0.6742    0.6159 H   0  0  0  0  0  0  0  0  0  0  0  0
    3.7143   -1.7834   -0.8514 H   0  0  0  0  0  0  0  0  0  0  0  0
    1.4203   -1.2077    1.1027 H   0  0  0  0  0  0  0  0  0  0  0  0
    1.4007   -2.2907   -0.3129 H   0  0  0  0  0  0  0  0  0  0  0  0
   -0.3160   -1.3285   -1.2957 H   0  0  0  0  0  0  0  0  0  0  0  0
   -1.1710    1.5289   -0.9268 H   0  0  0  0  0  0  0  0  0  0  0  0
   -0.2666    0.9782   -2.4170 H   0  0  0  0  0  0  0  0  0  0  0  0
   -1.9603   -1.0324   -2.2149 H   0  0  0  0  0  0  0  0  0  0  0  0
   -2.7268    0.6106   -2.6166 H   0  0  0  0  0  0  0  0  0  0  0  0
   -0.2749   -0.0134    1.4309 H   0  0  0  0  0  0  0  0  0  0  0  0
   -0.4831   -1.6745    0.8779 H   0  0  0  0  0  0  0  0  0  0  0  0
   -2.3190   -0.6373    2.6908 H   0  0  0  0  0  0  0  0  0  0  0  0
   -5.9816    0.1668    0.7527 H   0  0  0  0  0  0  0  0  0  0  0  0
   -4.8270    0.3036   -1.4309 H   0  0  0  0  0  0  0  0  0  0  0  0
   -4.9567    0.5911    3.5247 H   0  0  0  0  0  0  0  0  0  0  0  0
    2.0872    1.0844    0.6746 H   0  0  0  0  0  0  0  0  0  0  0  0
    3.1381    0.6785   -0.6665 H   0  0  0  0  0  0  0  0  0  0  0  0
    0.8263    2.6303   -1.0876 H   0  0  0  0  0  0  0  0  0  0  0  0
    2.1365    2.0055   -2.2243 H   0  0  0  0  0  0  0  0  0  0  0  0
    2.4084    4.2181   -0.7616 H   0  0  0  0  0  0  0  0  0  0  0  0
    3.7869    3.0233   -0.8909 H   0  0  0  0  0  0  0  0  0  0  0  0
    2.6395    3.0755    0.5723 H   0  0  0  0  0  0  0  0  0  0  0  0
   -0.7687    0.0000    0.0000 H   0  0  0  0  0  0  0  0  0  0  0  0
  1  2  1  0
  2  3  1  0
  3  4  1  0
  4  5  1  0
  5  6  1  0
  6  7  1  0
  7  8  1  0
  8  9  2  0
  9 10  1  0
  9 11  1  0
 11 12  2  0
 12 13  1  0
 13 14  2  0
 12 15  1  0
  4 16  1  0
 16 17  1  0
 17 18  1  0
 10  5  1  0
 14  8  1  0
  1 20  1  0
  1 21  1  0
  1 22  1  0
  2 23  1  0
  2 24  1  0
  3 25  1  0
  3 26  1  0
  5 27  1  0
  6 28  1  0
  6 29  1  0
  7 30  1  0
  7 31  1  0
 10 32  1  0
 10 33  1  0
 11 34  1  0
 13 35  1  0
 14 36  1  0
 15 37  1  0
 16 38  1  0
 16 39  1  0
 17 40  1  0
 17 41  1  0
 18 42  1  0
 18 43  1  0
 18 44  1  0
 19 45  1  0
M  END
>  <Ligand ID>  (1) 
LIG0004342

>  <Ligand>  (1) 
74938-11-7

>  <SMILES>  (1) 
CCCN(C1CCc2c(C1)cc(cc2)O)CCC.Br

>  <CID>  (1) 
11957566.0

>  <ChEMBL ID>  (1) 
nan

>  <InChiKey>  (1) 
ODNDMTWHRYECKX-UHFFFAOYSA-N

>  <InChi>  (1) 
InChI=1S/C16H25NO.BrH/c1-3-9-17(10-4-2)15-7-5-13-6-8-16(18)12-14(13)11-15;/h6,8,12,15,18H,3-5,7,9-11H2,1-2H3;1H

>  <IUPAC Name>  (1) 
7-(dipropylamino)-5,6,7,8-tetrahydronaphthalen-2-ol;hydrobromide

$$$$
