
     RDKit          3D

 20 20  0  0  0  0  0  0  0  0999 V2000
    3.2846    0.4386    0.0915 C   0  0  0  0  0  0  0  0  0  0  0  0
    1.8222    0.1597    0.0767 C   0  0  0  0  0  0  0  0  0  0  0  0
    1.3718   -1.0169    0.6332 C   0  0  0  0  0  0  0  0  0  0  0  0
   -0.0056   -1.2544    0.6063 C   0  0  0  0  0  0  0  0  0  0  0  0
   -0.8775   -0.3536    0.0487 C   0  0  0  0  0  0  0  0  0  0  0  0
   -0.3739    0.8094   -0.4950 C   0  0  0  0  0  0  0  0  0  0  0  0
    0.9776    1.0896   -0.4929 C   0  0  0  0  0  0  0  0  0  0  0  0
   -2.2982   -0.6814    0.0636 C   0  0  0  0  0  0  0  0  0  0  0  0
   -2.6480   -1.7567    0.5788 O   0  0  0  0  0  0  0  0  0  0  0  0
   -3.3451    0.2038   -0.5048 C   0  0  0  0  0  0  0  0  0  0  0  0
    3.6134    0.6436    1.1318 H   0  0  0  0  0  0  0  0  0  0  0  0
    3.8376   -0.4643   -0.2840 H   0  0  0  0  0  0  0  0  0  0  0  0
    3.5312    1.3339   -0.5115 H   0  0  0  0  0  0  0  0  0  0  0  0
    2.0489   -1.7519    1.0844 H   0  0  0  0  0  0  0  0  0  0  0  0
   -0.3179   -2.1925    1.0550 H   0  0  0  0  0  0  0  0  0  0  0  0
   -1.0489    1.5278   -0.9375 H   0  0  0  0  0  0  0  0  0  0  0  0
    1.3700    2.0099   -0.9237 H   0  0  0  0  0  0  0  0  0  0  0  0
   -3.6732   -0.1287   -1.5099 H   0  0  0  0  0  0  0  0  0  0  0  0
   -3.0306    1.2677   -0.5299 H   0  0  0  0  0  0  0  0  0  0  0  0
   -4.2384    0.1165    0.1519 H   0  0  0  0  0  0  0  0  0  0  0  0
  1  2  1  0
  2  3  2  0
  3  4  1  0
  4  5  2  0
  5  6  1  0
  6  7  2  0
  5  8  1  0
  8  9  2  0
  8 10  1  0
  7  2  1  0
  1 11  1  0
  1 12  1  0
  1 13  1  0
  3 14  1  0
  4 15  1  0
  6 16  1  0
  7 17  1  0
 10 18  1  0
 10 19  1  0
 10 20  1  0
M  END
>  <Ligand ID>  (1) 
LIG0000343

>  <Ligand>  (1) 
p-Methyl acetophenone

>  <SMILES>  (1) 
Cc1ccc(cc1)C(=O)C

>  <CID>  (1) 
8500.0

>  <ChEMBL ID>  (1) 
nan

>  <InChiKey>  (1) 
GNKZMNRKLCTJAY-UHFFFAOYSA-N

>  <InChi>  (1) 
InChI=1S/C9H10O/c1-7-3-5-9(6-4-7)8(2)10/h3-6H,1-2H3

>  <IUPAC Name>  (1) 
1-(4-methylphenyl)ethanone

$$$$
