
     RDKit          3D

 30 32  0  0  0  0  0  0  0  0999 V2000
   -1.5610    2.8659   -1.2795 C   0  0  0  0  0  0  0  0  0  0  0  0
   -2.8181    2.3666   -1.0378 C   0  0  0  0  0  0  0  0  0  0  0  0
   -2.9839    1.1320   -0.4970 C   0  0  0  0  0  0  0  0  0  0  0  0
   -1.9155    0.2896   -0.1511 C   0  0  0  0  0  0  0  0  0  0  0  0
   -0.6689    0.7847   -0.3869 C   0  0  0  0  0  0  0  0  0  0  0  0
   -0.4958    2.0591   -0.9469 C   0  0  0  0  0  0  0  0  0  0  0  0
    0.4997    0.0958    0.0005 N   0  0  0  0  0  0  0  0  0  0  0  0
    1.8074    0.6974   -0.3176 C   0  0  0  0  0  0  0  0  0  0  0  0
    2.9402   -0.1362    0.1264 C   0  0  0  0  0  0  0  0  0  0  0  0
    3.5773   -1.1130   -0.5822 N   0  0  0  0  0  0  0  0  0  0  0  0
    4.5505   -1.6004    0.2310 C   0  0  0  0  0  0  0  0  0  0  0  0
    4.5082   -0.9490    1.3845 N   0  0  0  0  0  0  0  0  0  0  0  0
    3.5205   -0.0217    1.3756 C   0  0  0  0  0  0  0  0  0  0  0  0
   -2.2564   -0.9820    0.4220 C   0  0  0  0  0  0  0  0  0  0  0  0
   -3.4628   -1.2121    0.9459 O   0  0  0  0  0  0  0  0  0  0  0  0
   -3.5666   -2.4252    1.4042 C   0  0  0  0  0  0  0  0  0  0  0  0
   -2.4311   -3.0713    1.2090 N   0  0  0  0  0  0  0  0  0  0  0  0
   -1.6059   -2.1708    0.5921 C   0  0  0  0  0  0  0  0  0  0  0  0
   -1.4552    3.8433   -1.7086 H   0  0  0  0  0  0  0  0  0  0  0  0
   -3.6556    2.9655   -1.2829 H   0  0  0  0  0  0  0  0  0  0  0  0
   -4.0251    0.8085   -0.3384 H   0  0  0  0  0  0  0  0  0  0  0  0
    0.4878    2.4611   -1.1420 H   0  0  0  0  0  0  0  0  0  0  0  0
    0.5650   -0.7847    0.5146 H   0  0  0  0  0  0  0  0  0  0  0  0
    1.8745    1.7158    0.1353 H   0  0  0  0  0  0  0  0  0  0  0  0
    1.8168    0.8240   -1.4171 H   0  0  0  0  0  0  0  0  0  0  0  0
    3.3457   -1.4143   -1.5629 H   0  0  0  0  0  0  0  0  0  0  0  0
    5.2601   -2.4027   -0.0194 H   0  0  0  0  0  0  0  0  0  0  0  0
    3.2324    0.6660    2.1601 H   0  0  0  0  0  0  0  0  0  0  0  0
   -4.4569   -2.8401    1.8763 H   0  0  0  0  0  0  0  0  0  0  0  0
   -0.6275   -2.4520    0.2927 H   0  0  0  0  0  0  0  0  0  0  0  0
  1  2  2  0
  2  3  1  0
  3  4  2  0
  4  5  1  0
  5  6  2  0
  5  7  1  0
  7  8  1  0
  8  9  1  0
  9 10  1  0
 10 11  1  0
 11 12  2  0
 12 13  1  0
  4 14  1  0
 14 15  1  0
 15 16  1  0
 16 17  2  0
 17 18  1  0
  6  1  1  0
 13  9  2  0
 18 14  2  0
  1 19  1  0
  2 20  1  0
  3 21  1  0
  6 22  1  0
  7 23  1  0
  8 24  1  0
  8 25  1  0
 10 26  1  0
 11 27  1  0
 13 28  1  0
 16 29  1  0
 18 30  1  0
M  END
>  <Ligand ID>  (1) 
LIG0002576

>  <Ligand>  (1) 
CHEMBL326067

>  <SMILES>  (1) 
c1ccc(c(c1)NCc1[nH]cnc1)c1ocnc1

>  <CID>  (1) 
44343275.0

>  <ChEMBL ID>  (1) 
nan

>  <InChiKey>  (1) 
XHSSQAAKENOPTK-UHFFFAOYSA-N

>  <InChi>  (1) 
InChI=1S/C13H12N4O/c1-2-4-12(16-6-10-5-14-8-17-10)11(3-1)13-7-15-9-18-13/h1-5,7-9,16H,6H2,(H,14,17)

>  <IUPAC Name>  (1) 
N-(1H-imidazol-5-ylmethyl)-2-(1,3-oxazol-5-yl)aniline

$$$$
