
     RDKit          3D

 66 70  0  0  0  0  0  0  0  0999 V2000
   -0.0797    5.6450   -0.5399 C   0  0  0  0  0  0  0  0  0  0  0  0
    0.8374    4.6087    0.0777 C   0  0  2  0  0  0  0  0  0  0  0  0
    0.0895    3.3375    0.3526 C   0  0  0  0  0  0  0  0  0  0  0  0
    0.5285    2.3773    1.1292 O   0  0  0  0  0  0  0  0  0  0  0  0
   -0.3630    1.3987    1.1609 N   0  0  0  0  0  0  0  0  0  0  0  0
   -1.4202    1.7232    0.3876 C   0  0  0  0  0  0  0  0  0  0  0  0
   -1.1120    2.9579   -0.1198 N   0  0  0  0  0  0  0  0  0  0  0  0
   -2.6900    1.0592    0.1867 C   0  0  0  0  0  0  0  0  0  0  0  0
   -3.8091    1.9120    0.2125 C   0  0  0  0  0  0  0  0  0  0  0  0
   -5.0946    1.4218    0.1432 C   0  0  0  0  0  0  0  0  0  0  0  0
   -5.3389    0.0677    0.0453 C   0  0  0  0  0  0  0  0  0  0  0  0
   -4.2400   -0.7686    0.0153 C   0  0  0  0  0  0  0  0  0  0  0  0
   -2.9257   -0.2529    0.0821 C   0  0  0  0  0  0  0  0  0  0  0  0
   -1.7248   -0.9811   -0.1606 N   0  0  0  0  0  0  0  0  0  0  0  0
   -1.3724   -2.2845    0.3752 C   0  0  0  0  0  0  0  0  0  0  0  0
   -2.4646   -3.2392    0.5107 C   0  0  0  0  0  0  0  0  0  0  0  0
   -3.8260   -3.2330    0.3377 C   0  0  0  0  0  0  0  0  0  0  0  0
   -4.6516   -2.1501   -0.0709 N   0  0  0  0  0  0  0  0  0  0  0  0
   -4.5938   -4.3162    0.5479 N   0  0  0  0  0  0  0  0  0  0  0  0
   -4.0950   -5.5013    0.9463 C   0  0  0  0  0  0  0  0  0  0  0  0
   -2.7317   -5.5671    1.1365 C   0  0  0  0  0  0  0  0  0  0  0  0
   -1.9241   -4.4697    0.9273 C   0  0  0  0  0  0  0  0  0  0  0  0
   -5.0011   -6.6619    1.1611 C   0  0  0  0  0  0  0  0  0  0  0  0
   -6.1537   -6.1890    1.7976 F   0  0  0  0  0  0  0  0  0  0  0  0
   -5.3930   -7.0797   -0.1056 F   0  0  0  0  0  0  0  0  0  0  0  0
   -4.4119   -7.6494    1.8903 F   0  0  0  0  0  0  0  0  0  0  0  0
   -0.6116   -0.2602   -1.1848 S   0  0  0  0  0  0  0  0  0  0  0  0
   -1.2196    0.6286   -2.2814 O   0  0  0  0  0  0  0  0  0  0  0  0
   -0.4529   -1.3857   -2.1409 O   0  0  0  0  0  0  0  0  0  0  0  0
    1.0135    0.0402   -0.8779 C   0  0  0  0  0  0  0  0  0  0  0  0
    1.7657   -0.7919   -0.0836 C   0  0  0  0  0  0  0  0  0  0  0  0
    3.1369   -0.5905    0.1249 C   0  0  0  0  0  0  0  0  0  0  0  0
    3.7807    0.4707   -0.4744 C   0  0  0  0  0  0  0  0  0  0  0  0
    3.0075    1.2934   -1.2673 C   0  0  0  0  0  0  0  0  0  0  0  0
    1.6652    1.0954   -1.4709 C   0  0  0  0  0  0  0  0  0  0  0  0
    5.2029    0.7806   -0.3313 C   0  0  0  0  0  0  0  0  0  0  0  0
    5.9543   -0.1718    0.5527 C   0  0  0  0  0  0  0  0  0  0  0  0
    5.8660    0.8720   -1.6895 C   0  0  0  0  0  0  0  0  0  0  0  0
    5.3448    2.1618    0.2958 C   0  0  0  0  0  0  0  0  0  0  0  0
    1.3736    5.1682    1.2341 O   0  0  0  0  0  0  0  0  0  0  0  0
   -1.0023    5.1616   -0.9505 H   0  0  0  0  0  0  0  0  0  0  0  0
    0.4007    6.1476   -1.4122 H   0  0  0  0  0  0  0  0  0  0  0  0
   -0.4281    6.4079    0.1877 H   0  0  0  0  0  0  0  0  0  0  0  0
    1.6979    4.4423   -0.6031 H   0  0  0  0  0  0  0  0  0  0  0  0
   -3.6987    2.9853    0.2879 H   0  0  0  0  0  0  0  0  0  0  0  0
   -5.9557    2.0899    0.1637 H   0  0  0  0  0  0  0  0  0  0  0  0
   -6.3215   -0.3638   -0.0079 H   0  0  0  0  0  0  0  0  0  0  0  0
   -0.7855   -2.1923    1.3366 H   0  0  0  0  0  0  0  0  0  0  0  0
   -0.6021   -2.7058   -0.3373 H   0  0  0  0  0  0  0  0  0  0  0  0
   -5.6008   -2.3396   -0.4528 H   0  0  0  0  0  0  0  0  0  0  0  0
   -2.2943   -6.5193    1.4613 H   0  0  0  0  0  0  0  0  0  0  0  0
   -0.8533   -4.5809    1.0936 H   0  0  0  0  0  0  0  0  0  0  0  0
    1.3588   -1.6498    0.4327 H   0  0  0  0  0  0  0  0  0  0  0  0
    3.7114   -1.2572    0.7537 H   0  0  0  0  0  0  0  0  0  0  0  0
    3.4767    2.1485   -1.7630 H   0  0  0  0  0  0  0  0  0  0  0  0
    1.1102    1.7802   -2.1080 H   0  0  0  0  0  0  0  0  0  0  0  0
    5.4395   -0.4477    1.4664 H   0  0  0  0  0  0  0  0  0  0  0  0
    6.9405    0.2371    0.8536 H   0  0  0  0  0  0  0  0  0  0  0  0
    6.1817   -1.0858   -0.0505 H   0  0  0  0  0  0  0  0  0  0  0  0
    5.5504    1.8137   -2.2258 H   0  0  0  0  0  0  0  0  0  0  0  0
    6.9624    0.9917   -1.4961 H   0  0  0  0  0  0  0  0  0  0  0  0
    5.6423    0.0356   -2.3569 H   0  0  0  0  0  0  0  0  0  0  0  0
    5.1631    2.9613   -0.4494 H   0  0  0  0  0  0  0  0  0  0  0  0
    6.4276    2.2404    0.5865 H   0  0  0  0  0  0  0  0  0  0  0  0
    4.7696    2.2647    1.2305 H   0  0  0  0  0  0  0  0  0  0  0  0
    0.8443    5.9583    1.5269 H   0  0  0  0  0  0  0  0  0  0  0  0
  1  2  1  0
  2  3  1  0
  3  4  1  0
  4  5  1  0
  5  6  2  0
  6  7  1  0
  6  8  1  0
  8  9  2  0
  9 10  1  0
 10 11  2  0
 11 12  1  0
 12 13  2  0
 13 14  1  0
 14 15  1  0
 15 16  1  0
 16 17  2  0
 17 18  1  0
 17 19  1  0
 19 20  2  0
 20 21  1  0
 21 22  2  0
 20 23  1  0
 23 24  1  0
 23 25  1  0
 23 26  1  0
 14 27  1  0
 27 28  2  0
 27 29  2  0
 27 30  1  0
 30 31  2  0
 31 32  1  0
 32 33  2  0
 33 34  1  0
 34 35  2  0
 33 36  1  0
 36 37  1  0
 36 38  1  0
 36 39  1  0
  2 40  1  0
  7  3  2  0
 13  8  1  0
 22 16  1  0
 35 30  1  0
 18 12  1  0
  1 41  1  0
  1 42  1  0
  1 43  1  0
  2 44  1  6
  9 45  1  0
 10 46  1  0
 11 47  1  0
 15 48  1  0
 15 49  1  0
 18 50  1  0
 21 51  1  0
 22 52  1  0
 31 53  1  0
 32 54  1  0
 34 55  1  0
 35 56  1  0
 37 57  1  0
 37 58  1  0
 37 59  1  0
 38 60  1  0
 38 61  1  0
 38 62  1  0
 39 63  1  0
 39 64  1  0
 39 65  1  0
 40 66  1  0
M  END
>  <Ligand ID>  (1) 
LIG0005445

>  <Ligand>  (1) 
CHEMBL2164222

>  <SMILES>  (1) 
C[C@H](c1onc(n1)c1cccc2c1N(Cc1c(N2)nc(cc1)C(F)(F)F)S(=O)(=O)c1ccc(cc1)C(C)(C)C)O

>  <CID>  (1) 
62707528.0

>  <ChEMBL ID>  (1) 
nan

>  <InChiKey>  (1) 
CEDDFIPODUBZLL-OAHLLOKOSA-N

>  <InChi>  (1) 
InChI=1S/C27H26F3N5O4S/c1-15(36)25-33-24(34-39-25)19-6-5-7-20-22(19)35(14-16-8-13-21(27(28,29)30)32-23(16)31-20)40(37,38)18-11-9-17(10-12-18)26(2,3)4/h5-13,15,36H,14H2,1-4H3,(H,31,32)/t15-/m1/s1

>  <IUPAC Name>  (1) 
(1R)-1-[3-[6-(4-tert-butylphenyl)sulfonyl-2-(trifluoromethyl)-5,11-dihydropyrido[3,2-c][1,5]benzodiazepin-7-yl]-1,2,4-oxadiazol-5-yl]ethanol

$$$$
