
     RDKit          3D

 80 83  0  0  0  0  0  0  0  0999 V2000
    8.0701   -1.5995    0.2231 O   0  0  0  0  0  0  0  0  0  0  0  0
    8.0666   -0.3303    0.0763 C   0  0  0  0  0  0  0  0  0  0  0  0
    6.8578    0.3764   -0.0215 N   0  0  0  0  0  0  0  0  0  0  0  0
    5.5630   -0.2262    0.0296 C   0  0  0  0  0  0  0  0  0  0  0  0
    5.0328   -0.6276   -1.1870 C   0  0  0  0  0  0  0  0  0  0  0  0
    3.7765   -1.2157   -1.1612 C   0  0  0  0  0  0  0  0  0  0  0  0
    3.0745   -1.3987    0.0197 C   0  0  0  0  0  0  0  0  0  0  0  0
    3.6052   -0.9970    1.2329 C   0  0  0  0  0  0  0  0  0  0  0  0
    4.8673   -0.4063    1.2068 C   0  0  0  0  0  0  0  0  0  0  0  0
    1.5023   -2.1610   -0.1160 S   0  0  0  0  0  0  0  0  0  0  0  0
    1.1789   -2.9572    1.1247 O   0  0  0  0  0  0  0  0  0  0  0  0
    1.4455   -3.1104   -1.2657 O   0  0  0  0  0  0  0  0  0  0  0  0
    0.2286   -1.0245   -0.3144 N   0  0  0  0  0  0  0  0  0  0  0  0
    0.1721   -0.1735    0.8353 C   0  0  0  0  0  0  0  0  0  0  0  0
   -0.8994    0.8607    0.7523 C   0  0  0  0  0  0  0  0  0  0  0  0
   -2.2261    0.2362    0.3581 C   0  0  0  0  0  0  0  0  0  0  0  0
   -2.1015   -0.7144   -0.7889 C   0  0  0  0  0  0  0  0  0  0  0  0
   -0.9945   -1.7257   -0.5628 C   0  0  0  0  0  0  0  0  0  0  0  0
   -2.8674   -0.3713    1.5614 C   0  0  0  0  0  0  0  0  0  0  0  0
   -4.1361   -0.9980    1.3487 N   0  0  0  0  0  0  0  0  0  0  0  0
   -5.1484   -0.0328    1.0177 C   0  0  0  0  0  0  0  0  0  0  0  0
   -6.5168   -0.6162    0.7931 C   0  0  1  0  0  0  0  0  0  0  0  0
   -7.4064    0.5183    0.3418 C   0  0  0  0  0  0  0  0  0  0  0  0
   -7.0532    1.8310    0.4863 C   0  0  0  0  0  0  0  0  0  0  0  0
   -7.8926    2.8530    0.0563 C   0  0  0  0  0  0  0  0  0  0  0  0
   -9.0878    2.5140   -0.5182 C   0  0  0  0  0  0  0  0  0  0  0  0
   -9.4988    1.1964   -0.6905 C   0  0  0  0  0  0  0  0  0  0  0  0
   -8.6400    0.2185   -0.2520 C   0  0  0  0  0  0  0  0  0  0  0  0
  -10.7533    0.9489   -1.3047 N   0  0  0  0  0  0  0  0  0  0  0  0
  -11.5693   -0.5720   -1.2110 S   0  0  0  0  0  0  0  0  0  0  0  0
  -12.8434   -0.5198   -1.9816 O   0  0  0  0  0  0  0  0  0  0  0  0
  -10.6399   -1.6665   -1.7106 O   0  0  0  0  0  0  0  0  0  0  0  0
  -11.9079   -0.8670    0.5238 C   0  0  0  0  0  0  0  0  0  0  0  0
   -9.9343    3.5264   -0.9515 O   0  0  0  0  0  0  0  0  0  0  0  0
   -6.4376   -1.5500   -0.2537 O   0  0  0  0  0  0  0  0  0  0  0  0
    9.3492    0.2800    0.0220 N   0  0  0  0  0  0  0  0  0  0  0  0
   10.5009   -0.5920    0.1354 C   0  0  0  0  0  0  0  0  0  0  0  0
   11.7185    0.2705    0.0486 C   0  0  0  0  0  0  0  0  0  0  0  0
   12.4696    0.3343   -1.1166 C   0  0  0  0  0  0  0  0  0  0  0  0
   13.5981    1.1189   -1.2355 C   0  0  0  0  0  0  0  0  0  0  0  0
   14.2734    1.1232   -2.4096 F   0  0  0  0  0  0  0  0  0  0  0  0
   13.9864    1.8691   -0.1379 C   0  0  0  0  0  0  0  0  0  0  0  0
   13.2742    1.8448    1.0520 C   0  0  0  0  0  0  0  0  0  0  0  0
   12.1593    1.0411    1.1016 C   0  0  0  0  0  0  0  0  0  0  0  0
   11.4550    1.0136    2.2730 F   0  0  0  0  0  0  0  0  0  0  0  0
    6.8858    1.4245   -0.1442 H   0  0  0  0  0  0  0  0  0  0  0  0
    5.5765   -0.4846   -2.0955 H   0  0  0  0  0  0  0  0  0  0  0  0
    3.3712   -1.5284   -2.1300 H   0  0  0  0  0  0  0  0  0  0  0  0
    3.0476   -1.1457    2.1435 H   0  0  0  0  0  0  0  0  0  0  0  0
    5.3176   -0.0780    2.1359 H   0  0  0  0  0  0  0  0  0  0  0  0
   -0.0433   -0.8627    1.7064 H   0  0  0  0  0  0  0  0  0  0  0  0
    1.1736    0.2576    1.0090 H   0  0  0  0  0  0  0  0  0  0  0  0
   -0.6072    1.6846    0.0879 H   0  0  0  0  0  0  0  0  0  0  0  0
   -1.0435    1.2379    1.8085 H   0  0  0  0  0  0  0  0  0  0  0  0
   -2.8357    1.1038   -0.0344 H   0  0  0  0  0  0  0  0  0  0  0  0
   -3.0454   -1.2267   -0.9578 H   0  0  0  0  0  0  0  0  0  0  0  0
   -1.7666   -0.1189   -1.6764 H   0  0  0  0  0  0  0  0  0  0  0  0
   -1.2233   -2.4294    0.2399 H   0  0  0  0  0  0  0  0  0  0  0  0
   -0.8354   -2.3104   -1.5119 H   0  0  0  0  0  0  0  0  0  0  0  0
   -2.9951    0.4058    2.3614 H   0  0  0  0  0  0  0  0  0  0  0  0
   -2.1499   -1.1147    1.9928 H   0  0  0  0  0  0  0  0  0  0  0  0
   -4.1082   -1.7481    0.6646 H   0  0  0  0  0  0  0  0  0  0  0  0
   -5.2669    0.6344    1.9287 H   0  0  0  0  0  0  0  0  0  0  0  0
   -4.8916    0.5528    0.1073 H   0  0  0  0  0  0  0  0  0  0  0  0
   -6.9404   -1.1113    1.6766 H   0  0  0  0  0  0  0  0  0  0  0  0
   -6.1315    2.1285    0.9270 H   0  0  0  0  0  0  0  0  0  0  0  0
   -7.6458    3.8990    0.1544 H   0  0  0  0  0  0  0  0  0  0  0  0
   -8.9296   -0.8160   -0.3685 H   0  0  0  0  0  0  0  0  0  0  0  0
  -11.2108    1.7227   -1.8420 H   0  0  0  0  0  0  0  0  0  0  0  0
  -12.3896    0.0363    0.9504 H   0  0  0  0  0  0  0  0  0  0  0  0
  -12.6158   -1.7231    0.5917 H   0  0  0  0  0  0  0  0  0  0  0  0
  -10.9520   -1.1419    1.0149 H   0  0  0  0  0  0  0  0  0  0  0  0
  -10.3145    4.1382   -0.2285 H   0  0  0  0  0  0  0  0  0  0  0  0
   -6.0940   -2.4154    0.0469 H   0  0  0  0  0  0  0  0  0  0  0  0
    9.4267    1.3112   -0.0965 H   0  0  0  0  0  0  0  0  0  0  0  0
   10.4867   -1.1766    1.0812 H   0  0  0  0  0  0  0  0  0  0  0  0
   10.5098   -1.2815   -0.7543 H   0  0  0  0  0  0  0  0  0  0  0  0
   12.1321   -0.2649   -1.9469 H   0  0  0  0  0  0  0  0  0  0  0  0
   14.8790    2.4978   -0.2126 H   0  0  0  0  0  0  0  0  0  0  0  0
   13.5585    2.4216    1.9216 H   0  0  0  0  0  0  0  0  0  0  0  0
  1  2  2  0
  2  3  1  0
  3  4  1  0
  4  5  2  0
  5  6  1  0
  6  7  2  0
  7  8  1  0
  8  9  2  0
  7 10  1  0
 10 11  2  0
 10 12  2  0
 10 13  1  0
 13 14  1  0
 14 15  1  0
 15 16  1  0
 16 17  1  0
 17 18  1  0
 16 19  1  0
 19 20  1  0
 20 21  1  0
 21 22  1  0
 22 23  1  0
 23 24  2  0
 24 25  1  0
 25 26  2  0
 26 27  1  0
 27 28  2  0
 27 29  1  0
 29 30  1  0
 30 31  2  0
 30 32  2  0
 30 33  1  0
 26 34  1  0
 22 35  1  0
  2 36  1  0
 36 37  1  0
 37 38  1  0
 38 39  2  0
 39 40  1  0
 40 41  1  0
 40 42  2  0
 42 43  1  0
 43 44  2  0
 44 45  1  0
  9  4  1  0
 18 13  1  0
 28 23  1  0
 44 38  1  0
  3 46  1  0
  5 47  1  0
  6 48  1  0
  8 49  1  0
  9 50  1  0
 14 51  1  0
 14 52  1  0
 15 53  1  0
 15 54  1  0
 16 55  1  0
 17 56  1  0
 17 57  1  0
 18 58  1  0
 18 59  1  0
 19 60  1  0
 19 61  1  0
 20 62  1  0
 21 63  1  0
 21 64  1  0
 22 65  1  1
 24 66  1  0
 25 67  1  0
 28 68  1  0
 29 69  1  0
 33 70  1  0
 33 71  1  0
 33 72  1  0
 34 73  1  0
 35 74  1  0
 36 75  1  0
 37 76  1  0
 37 77  1  0
 39 78  1  0
 42 79  1  0
 43 80  1  0
M  END
>  <Ligand ID>  (1) 
LIG0004948

>  <Ligand>  (1) 
CHEMBL99219

>  <SMILES>  (1) 
O=C(Nc1ccc(cc1)S(=O)(=O)N1CCC(CC1)CNC[C@@H](c1ccc(c(c1)NS(=O)(=O)C)O)O)NCc1cc(F)ccc1F

>  <CID>  (1) 
44331302.0

>  <ChEMBL ID>  (1) 
nan

>  <InChiKey>  (1) 
DUPYGVGICIIQTC-NDEPHWFRSA-N

>  <InChi>  (1) 
InChI=1S/C29H35F2N5O7S2/c1-44(40,41)35-26-15-20(2-9-27(26)37)28(38)18-32-16-19-10-12-36(13-11-19)45(42,43)24-6-4-23(5-7-24)34-29(39)33-17-21-14-22(30)3-8-25(21)31/h2-9,14-15,19,28,32,35,37-38H,10-13,16-18H2,1H3,(H2,33,34,39)/t28-/m0/s1

>  <IUPAC Name>  (1) 
1-[(2,5-difluorophenyl)methyl]-3-[4-[4-[[[(2R)-2-hydroxy-2-[4-hydroxy-3-(methanesulfonamido)phenyl]ethyl]amino]methyl]piperidin-1-yl]sulfonylphenyl]urea

$$$$
