
     RDKit          3D

 22 22  0  0  0  0  0  0  0  0999 V2000
    4.8601   -0.0419   -0.3581 C   0  0  0  0  0  0  0  0  0  0  0  0
    3.5629    0.5070   -0.2504 O   0  0  0  0  0  0  0  0  0  0  0  0
    2.4625   -0.3298   -0.1397 C   0  0  0  0  0  0  0  0  0  0  0  0
    2.6372   -1.5828   -0.1368 O   0  0  0  0  0  0  0  0  0  0  0  0
    1.1198    0.1870   -0.0274 C   0  0  0  0  0  0  0  0  0  0  0  0
    0.0928   -0.6266    0.0763 C   0  0  0  0  0  0  0  0  0  0  0  0
   -1.2912   -0.1865    0.1934 C   0  0  0  0  0  0  0  0  0  0  0  0
   -1.6681    1.1390    0.2075 C   0  0  0  0  0  0  0  0  0  0  0  0
   -3.0031    1.5309    0.3210 C   0  0  0  0  0  0  0  0  0  0  0  0
   -3.9874    0.5565    0.4233 C   0  0  0  0  0  0  0  0  0  0  0  0
   -3.6356   -0.7774    0.4116 C   0  0  0  0  0  0  0  0  0  0  0  0
   -2.3043   -1.1191    0.2977 C   0  0  0  0  0  0  0  0  0  0  0  0
    5.2204   -0.2242    0.6763 H   0  0  0  0  0  0  0  0  0  0  0  0
    4.8003   -0.9553   -0.9630 H   0  0  0  0  0  0  0  0  0  0  0  0
    5.5465    0.6897   -0.8570 H   0  0  0  0  0  0  0  0  0  0  0  0
    0.9716    1.2529   -0.0300 H   0  0  0  0  0  0  0  0  0  0  0  0
    0.3080   -1.6870    0.0728 H   0  0  0  0  0  0  0  0  0  0  0  0
   -0.9293    1.9228    0.1300 H   0  0  0  0  0  0  0  0  0  0  0  0
   -3.2737    2.5972    0.3294 H   0  0  0  0  0  0  0  0  0  0  0  0
   -5.0488    0.8367    0.5140 H   0  0  0  0  0  0  0  0  0  0  0  0
   -4.4267   -1.5131    0.4931 H   0  0  0  0  0  0  0  0  0  0  0  0
   -2.0139   -2.1760    0.2874 H   0  0  0  0  0  0  0  0  0  0  0  0
  1  2  1  0
  2  3  1  0
  3  4  2  0
  3  5  1  0
  5  6  2  0
  6  7  1  0
  7  8  2  0
  8  9  1  0
  9 10  2  0
 10 11  1  0
 11 12  2  0
 12  7  1  0
  1 13  1  0
  1 14  1  0
  1 15  1  0
  5 16  1  0
  6 17  1  0
  8 18  1  0
  9 19  1  0
 10 20  1  0
 11 21  1  0
 12 22  1  0
M  END
>  <Ligand ID>  (1) 
LIG0000473

>  <Ligand>  (1) 
Methyl Cinnamate

>  <SMILES>  (1) 
COC(=O)/C=C/c1ccccc1

>  <CID>  (1) 
637520.0

>  <ChEMBL ID>  (1) 
nan

>  <InChiKey>  (1) 
CCRCUPLGCSFEDV-BQYQJAHWSA-N

>  <InChi>  (1) 
InChI=1S/C10H10O2/c1-12-10(11)8-7-9-5-3-2-4-6-9/h2-8H,1H3/b8-7+

>  <IUPAC Name>  (1) 
methyl (E)-3-phenylprop-2-enoate

$$$$
