
     RDKit          3D

 36 38  0  0  0  0  0  0  0  0999 V2000
   -2.5653    2.5810   -0.2630 C   0  0  0  0  0  0  0  0  0  0  0  0
   -2.3901    1.5676    0.6810 O   0  0  0  0  0  0  0  0  0  0  0  0
   -2.0225    0.2615    0.4062 C   0  0  0  0  0  0  0  0  0  0  0  0
   -3.0462   -0.6378    0.1694 C   0  0  0  0  0  0  0  0  0  0  0  0
   -4.4878   -0.2133    0.2095 C   0  0  0  0  0  0  0  0  0  0  0  0
   -2.7912   -1.9816   -0.1180 C   0  0  0  0  0  0  0  0  0  0  0  0
   -1.4658   -2.3867   -0.1581 C   0  0  0  0  0  0  0  0  0  0  0  0
   -0.4591   -1.4677    0.0824 C   0  0  0  0  0  0  0  0  0  0  0  0
   -0.6898   -0.1487    0.3652 C   0  0  0  0  0  0  0  0  0  0  0  0
    0.3732    0.8501    0.6255 C   0  0  0  0  0  0  0  0  0  0  0  0
    1.6642    0.1892    0.9995 C   0  0  2  0  0  0  0  0  0  0  0  0
    2.8132    1.1429    0.7846 C   0  0  0  0  0  0  0  0  0  0  0  0
    3.2613    1.1576   -0.5768 N   0  0  0  0  0  0  0  0  0  0  0  0
    3.7414   -0.0924   -1.0741 C   0  0  0  0  0  0  0  0  0  0  0  0
    3.3201   -1.2244   -0.1817 C   0  0  0  0  0  0  0  0  0  0  0  0
    1.9475   -1.0218    0.2707 N   0  0  0  0  0  0  0  0  0  0  0  0
    0.9145   -1.9394    0.0294 C   0  0  0  0  0  0  0  0  0  0  0  0
    1.2250   -3.1403   -0.2243 O   0  0  0  0  0  0  0  0  0  0  0  0
   -3.0120    2.2060   -1.1995 H   0  0  0  0  0  0  0  0  0  0  0  0
   -3.3057    3.3020    0.1854 H   0  0  0  0  0  0  0  0  0  0  0  0
   -1.6487    3.1891   -0.4611 H   0  0  0  0  0  0  0  0  0  0  0  0
   -4.5260    0.8152    0.5801 H   0  0  0  0  0  0  0  0  0  0  0  0
   -5.0149   -0.8574    0.9435 H   0  0  0  0  0  0  0  0  0  0  0  0
   -4.9847   -0.3210   -0.7696 H   0  0  0  0  0  0  0  0  0  0  0  0
   -3.5731   -2.6906   -0.3037 H   0  0  0  0  0  0  0  0  0  0  0  0
   -1.2412   -3.4235   -0.3788 H   0  0  0  0  0  0  0  0  0  0  0  0
    0.5306    1.5317   -0.2554 H   0  0  0  0  0  0  0  0  0  0  0  0
    0.0763    1.5054    1.4867 H   0  0  0  0  0  0  0  0  0  0  0  0
    1.6036   -0.0531    2.0809 H   0  0  0  0  0  0  0  0  0  0  0  0
    2.4187    2.1675    0.9956 H   0  0  0  0  0  0  0  0  0  0  0  0
    3.6573    0.9729    1.4759 H   0  0  0  0  0  0  0  0  0  0  0  0
    4.0021    1.8936   -0.6387 H   0  0  0  0  0  0  0  0  0  0  0  0
    3.3736   -0.3146   -2.1088 H   0  0  0  0  0  0  0  0  0  0  0  0
    4.8618   -0.0816   -1.0495 H   0  0  0  0  0  0  0  0  0  0  0  0
    3.9698   -1.1445    0.7384 H   0  0  0  0  0  0  0  0  0  0  0  0
    3.4699   -2.1928   -0.6852 H   0  0  0  0  0  0  0  0  0  0  0  0
  1  2  1  0
  2  3  1  0
  3  4  2  0
  4  5  1  0
  4  6  1  0
  6  7  2  0
  7  8  1  0
  8  9  2  0
  9 10  1  0
 10 11  1  0
 11 12  1  0
 12 13  1  0
 13 14  1  0
 14 15  1  0
 15 16  1  0
 16 17  1  0
 17 18  2  0
  9  3  1  0
 16 11  1  0
 17  8  1  0
  1 19  1  0
  1 20  1  0
  1 21  1  0
  5 22  1  0
  5 23  1  0
  5 24  1  0
  6 25  1  0
  7 26  1  0
 10 27  1  0
 10 28  1  0
 11 29  1  1
 12 30  1  0
 12 31  1  0
 13 32  1  0
 14 33  1  0
 14 34  1  0
 15 35  1  0
 15 36  1  0
M  END
>  <Ligand ID>  (1) 
LIG0003667

>  <Ligand>  (1) 
CHEMBL2397913

>  <SMILES>  (1) 
COc1c(C)ccc2c1C[C@@H]1CNCCN1C2=O

>  <CID>  (1) 
71682217.0

>  <ChEMBL ID>  (1) 
nan

>  <InChiKey>  (1) 
ZYDTYBMBYADEAB-SNVBAGLBSA-N

>  <InChi>  (1) 
InChI=1S/C14H18N2O2/c1-9-3-4-11-12(13(9)18-2)7-10-8-15-5-6-16(10)14(11)17/h3-4,10,15H,5-8H2,1-2H3/t10-/m1/s1

>  <IUPAC Name>  (1) 
(11aR)-10-methoxy-9-methyl-1,2,3,4,11,11a-hexahydropyrazino[1,2-b]isoquinolin-6-one

$$$$
