
     RDKit          3D

 62 66  0  0  0  0  0  0  0  0999 V2000
   -3.3173    1.4888    0.7400 C   0  0  0  0  0  0  0  0  0  0  0  0
   -2.7137    0.5333   -0.2338 C   0  0  0  0  0  0  0  0  0  0  0  0
   -1.3435    0.5311   -0.4437 C   0  0  0  0  0  0  0  0  0  0  0  0
   -0.7438   -0.3277   -1.3261 C   0  0  0  0  0  0  0  0  0  0  0  0
    0.5651   -0.4464   -1.6274 O   0  0  0  0  0  0  0  0  0  0  0  0
    1.6304    0.2263   -1.1122 C   0  0  0  0  0  0  0  0  0  0  0  0
    1.8466   -0.0817    0.3468 C   0  0  0  0  0  0  0  0  0  0  0  0
    3.0347    0.6963    0.8849 C   0  0  0  0  0  0  0  0  0  0  0  0
    4.2513    0.3649    0.1760 N   0  0  0  0  0  0  0  0  0  0  0  0
    5.3292    1.1255    0.7249 C   0  0  0  0  0  0  0  0  0  0  0  0
    6.2345    0.1429    1.3914 C   0  0  1  0  0  0  0  0  0  0  0  0
    6.0889   -1.0849    0.5450 C   0  0  1  0  0  0  0  0  0  0  0  0
    4.5842   -1.0203    0.2467 C   0  0  0  0  0  0  0  0  0  0  0  0
    6.7896   -0.9929   -0.7853 C   0  0  0  0  0  0  0  0  0  0  0  0
    7.9625   -0.0628   -0.7801 C   0  0  0  0  0  0  0  0  0  0  0  0
    8.5247    0.1691    0.5901 C   0  0  0  0  0  0  0  0  0  0  0  0
    7.5764    0.5830    1.5742 N   0  0  0  0  0  0  0  0  0  0  0  0
   -1.6206   -1.2019   -2.0010 C   0  0  0  0  0  0  0  0  0  0  0  0
   -2.9670   -1.2014   -1.7970 C   0  0  0  0  0  0  0  0  0  0  0  0
   -3.5452   -0.3294   -0.9041 C   0  0  0  0  0  0  0  0  0  0  0  0
   -4.9876   -0.3641   -0.7174 C   0  0  0  0  0  0  0  0  0  0  0  0
   -5.8720   -1.1774   -1.3344 N   0  0  0  0  0  0  0  0  0  0  0  0
   -7.1127   -0.9069   -0.8964 C   0  0  0  0  0  0  0  0  0  0  0  0
   -6.9702    0.1079    0.0192 C   0  0  0  0  0  0  0  0  0  0  0  0
   -5.6732    0.4268    0.1170 N   0  0  0  0  0  0  0  0  0  0  0  0
   -8.1064    0.5937    0.6401 C   0  0  0  0  0  0  0  0  0  0  0  0
   -7.9453    1.6943    1.6321 C   0  0  0  0  0  0  0  0  0  0  0  0
   -9.3513    0.0850    0.3592 C   0  0  0  0  0  0  0  0  0  0  0  0
   -9.5171   -0.9421   -0.5642 C   0  0  0  0  0  0  0  0  0  0  0  0
   -8.3773   -1.4197   -1.1782 C   0  0  0  0  0  0  0  0  0  0  0  0
  -10.4658    0.5491    0.9568 F   0  0  0  0  0  0  0  0  0  0  0  0
   -4.0551    2.1636    0.2894 H   0  0  0  0  0  0  0  0  0  0  0  0
   -2.5381    2.1324    1.1979 H   0  0  0  0  0  0  0  0  0  0  0  0
   -3.8157    0.9176    1.5465 H   0  0  0  0  0  0  0  0  0  0  0  0
   -0.7816    1.2521    0.1011 H   0  0  0  0  0  0  0  0  0  0  0  0
    2.5807    0.1005   -1.6901 H   0  0  0  0  0  0  0  0  0  0  0  0
    1.4153    1.3378   -1.2406 H   0  0  0  0  0  0  0  0  0  0  0  0
    0.9487    0.1317    0.9198 H   0  0  0  0  0  0  0  0  0  0  0  0
    2.0229   -1.1929    0.4854 H   0  0  0  0  0  0  0  0  0  0  0  0
    2.8008    1.7740    0.8383 H   0  0  0  0  0  0  0  0  0  0  0  0
    3.1835    0.4245    1.9494 H   0  0  0  0  0  0  0  0  0  0  0  0
    5.8714    1.6451   -0.1007 H   0  0  0  0  0  0  0  0  0  0  0  0
    5.0103    1.8507    1.5046 H   0  0  0  0  0  0  0  0  0  0  0  0
    5.8200   -0.1120    2.3914 H   0  0  0  0  0  0  0  0  0  0  0  0
    6.3461   -2.0196    1.0443 H   0  0  0  0  0  0  0  0  0  0  0  0
    4.4047   -1.5784   -0.6843 H   0  0  0  0  0  0  0  0  0  0  0  0
    4.0024   -1.5166    1.0607 H   0  0  0  0  0  0  0  0  0  0  0  0
    7.0614   -2.0304   -1.0946 H   0  0  0  0  0  0  0  0  0  0  0  0
    6.1074   -0.6348   -1.5938 H   0  0  0  0  0  0  0  0  0  0  0  0
    8.7809   -0.5788   -1.3616 H   0  0  0  0  0  0  0  0  0  0  0  0
    7.7996    0.8883   -1.3131 H   0  0  0  0  0  0  0  0  0  0  0  0
    9.1772   -0.6767    0.9249 H   0  0  0  0  0  0  0  0  0  0  0  0
    9.2515    1.0239    0.4739 H   0  0  0  0  0  0  0  0  0  0  0  0
    7.9471    0.3339    2.5188 H   0  0  0  0  0  0  0  0  0  0  0  0
   -1.2272   -1.9164   -2.7205 H   0  0  0  0  0  0  0  0  0  0  0  0
   -3.6008   -1.9069   -2.3529 H   0  0  0  0  0  0  0  0  0  0  0  0
   -5.6633   -1.9160   -2.0481 H   0  0  0  0  0  0  0  0  0  0  0  0
   -8.9242    1.9227    2.0961 H   0  0  0  0  0  0  0  0  0  0  0  0
   -7.6032    2.5771    1.0440 H   0  0  0  0  0  0  0  0  0  0  0  0
   -7.1914    1.4169    2.3936 H   0  0  0  0  0  0  0  0  0  0  0  0
  -10.4815   -1.3588   -0.8028 H   0  0  0  0  0  0  0  0  0  0  0  0
   -8.4380   -2.2132   -1.9018 H   0  0  0  0  0  0  0  0  0  0  0  0
  1  2  1  0
  2  3  2  0
  3  4  1  0
  4  5  1  0
  5  6  1  0
  6  7  1  0
  7  8  1  0
  8  9  1  0
  9 10  1  0
 10 11  1  0
 11 12  1  0
 12 13  1  0
 12 14  1  0
 14 15  1  0
 15 16  1  0
 16 17  1  0
  4 18  2  0
 18 19  1  0
 19 20  2  0
 20 21  1  0
 21 22  1  0
 22 23  1  0
 23 24  2  0
 24 25  1  0
 24 26  1  0
 26 27  1  0
 26 28  2  0
 28 29  1  0
 29 30  2  0
 28 31  1  0
 20  2  1  0
 25 21  2  0
 13  9  1  0
 30 23  1  0
 17 11  1  0
  1 32  1  0
  1 33  1  0
  1 34  1  0
  3 35  1  0
  6 36  1  0
  6 37  1  0
  7 38  1  0
  7 39  1  0
  8 40  1  0
  8 41  1  0
 10 42  1  0
 10 43  1  0
 11 44  1  1
 12 45  1  1
 13 46  1  0
 13 47  1  0
 14 48  1  0
 14 49  1  0
 15 50  1  0
 15 51  1  0
 16 52  1  0
 16 53  1  0
 17 54  1  0
 18 55  1  0
 19 56  1  0
 22 57  1  0
 27 58  1  0
 27 59  1  0
 27 60  1  0
 29 61  1  0
 30 62  1  0
M  END
>  <Ligand ID>  (1) 
LIG0001698

>  <Ligand>  (1) 
CHEMBL1082296

>  <SMILES>  (1) 
Cc1cc(OCCCN2C[C@H]3[C@@H](C2)CCCN3)ccc1c1[nH]c2c(n1)c(C)c(cc2)F

>  <CID>  (1) 
46890592.0

>  <ChEMBL ID>  (1) 
nan

>  <InChiKey>  (1) 
VORZMLWIEYTBEN-JPYJTQIMSA-N

>  <InChi>  (1) 
InChI=1S/C25H31FN4O/c1-16-13-19(31-12-4-11-30-14-18-5-3-10-27-23(18)15-30)6-7-20(16)25-28-22-9-8-21(26)17(2)24(22)29-25/h6-9,13,18,23,27H,3-5,10-12,14-15H2,1-2H3,(H,28,29)/t18-,23+/m1/s1

>  <IUPAC Name>  (1) 
2-[4-[3-[(4aR,7aR)-1,2,3,4,4a,5,7,7a-octahydropyrrolo[3,4-b]pyridin-6-yl]propoxy]-2-methylphenyl]-5-fluoro-4-methyl-1H-benzimidazole

$$$$
