
     RDKit          3D

 41 40  0  0  0  0  0  0  0  0999 V2000
    5.6978   -1.5135    0.8958 C   0  0  0  0  0  0  0  0  0  0  0  0
    4.5571   -0.7459    0.2236 C   0  0  0  0  0  0  0  0  0  0  0  0
    4.3717    0.6006    0.8620 C   0  0  0  0  0  0  0  0  0  0  0  0
    3.2626    1.3769    0.2068 C   0  0  0  0  0  0  0  0  0  0  0  0
    1.9744    0.6260    0.3305 C   0  0  0  0  0  0  0  0  0  0  0  0
    0.8281    1.4183   -0.3282 C   0  0  0  0  0  0  0  0  0  0  0  0
   -0.4159    0.5923   -0.1556 C   0  0  0  0  0  0  0  0  0  0  0  0
   -1.6474    1.2278   -0.7499 C   0  0  0  0  0  0  0  0  0  0  0  0
   -2.8078    0.2587   -0.4844 C   0  0  0  0  0  0  0  0  0  0  0  0
   -2.5283   -0.9665   -1.0949 O   0  0  0  0  0  0  0  0  0  0  0  0
   -2.4712   -2.1353   -0.3324 C   0  0  0  0  0  0  0  0  0  0  0  0
   -2.6768   -2.0558    0.9102 O   0  0  0  0  0  0  0  0  0  0  0  0
   -2.1795   -3.4573   -0.9280 C   0  0  0  0  0  0  0  0  0  0  0  0
   -4.0313    0.8300   -0.9411 O   0  0  0  0  0  0  0  0  0  0  0  0
   -5.0750    1.0789   -0.0339 C   0  0  0  0  0  0  0  0  0  0  0  0
   -4.9678    0.8106    1.1935 O   0  0  0  0  0  0  0  0  0  0  0  0
   -6.3517    1.6705   -0.4853 C   0  0  0  0  0  0  0  0  0  0  0  0
    6.0186   -2.2970    0.2067 H   0  0  0  0  0  0  0  0  0  0  0  0
    6.5196   -0.8225    1.1796 H   0  0  0  0  0  0  0  0  0  0  0  0
    5.3257   -1.9434    1.8344 H   0  0  0  0  0  0  0  0  0  0  0  0
    4.7132   -0.6678   -0.8573 H   0  0  0  0  0  0  0  0  0  0  0  0
    3.6541   -1.3921    0.4228 H   0  0  0  0  0  0  0  0  0  0  0  0
    5.3024    1.1976    0.8268 H   0  0  0  0  0  0  0  0  0  0  0  0
    4.1486    0.4490    1.9569 H   0  0  0  0  0  0  0  0  0  0  0  0
    3.5544    1.5187   -0.8723 H   0  0  0  0  0  0  0  0  0  0  0  0
    3.1915    2.3843    0.6884 H   0  0  0  0  0  0  0  0  0  0  0  0
    2.0191   -0.3795   -0.1264 H   0  0  0  0  0  0  0  0  0  0  0  0
    1.7681    0.4941    1.4126 H   0  0  0  0  0  0  0  0  0  0  0  0
    1.0522    1.4818   -1.4124 H   0  0  0  0  0  0  0  0  0  0  0  0
    0.7622    2.4208    0.0850 H   0  0  0  0  0  0  0  0  0  0  0  0
   -0.6433    0.4587    0.9317 H   0  0  0  0  0  0  0  0  0  0  0  0
   -0.2658   -0.4285   -0.5577 H   0  0  0  0  0  0  0  0  0  0  0  0
   -1.8974    2.1450   -0.1519 H   0  0  0  0  0  0  0  0  0  0  0  0
   -1.5660    1.4787   -1.8053 H   0  0  0  0  0  0  0  0  0  0  0  0
   -2.9564    0.1177    0.6054 H   0  0  0  0  0  0  0  0  0  0  0  0
   -1.6106   -4.0373   -0.1465 H   0  0  0  0  0  0  0  0  0  0  0  0
   -3.0781   -4.0141   -1.2604 H   0  0  0  0  0  0  0  0  0  0  0  0
   -1.4695   -3.3427   -1.7868 H   0  0  0  0  0  0  0  0  0  0  0  0
   -6.4413    1.7488   -1.5764 H   0  0  0  0  0  0  0  0  0  0  0  0
   -7.2228    1.1085   -0.0800 H   0  0  0  0  0  0  0  0  0  0  0  0
   -6.4177    2.7048   -0.0614 H   0  0  0  0  0  0  0  0  0  0  0  0
  1  2  1  0
  2  3  1  0
  3  4  1  0
  4  5  1  0
  5  6  1  0
  6  7  1  0
  7  8  1  0
  8  9  1  0
  9 10  1  0
 10 11  1  0
 11 12  2  0
 11 13  1  0
  9 14  1  0
 14 15  1  0
 15 16  2  0
 15 17  1  0
  1 18  1  0
  1 19  1  0
  1 20  1  0
  2 21  1  0
  2 22  1  0
  3 23  1  0
  3 24  1  0
  4 25  1  0
  4 26  1  0
  5 27  1  0
  5 28  1  0
  6 29  1  0
  6 30  1  0
  7 31  1  0
  7 32  1  0
  8 33  1  0
  8 34  1  0
  9 35  1  0
 13 36  1  0
 13 37  1  0
 13 38  1  0
 17 39  1  0
 17 40  1  0
 17 41  1  0
M  END
>  <Ligand ID>  (1) 
LIG0000467

>  <Ligand>  (1) 
1-acetyloxynonyl acetate

>  <SMILES>  (1) 
CCCCCCCCC(OC(=O)C)OC(=O)C

>  <CID>  (1) 
162000.0

>  <ChEMBL ID>  (1) 
nan

>  <InChiKey>  (1) 
ZALVGSSYVAPZDA-UHFFFAOYSA-N

>  <InChi>  (1) 
InChI=1S/C13H24O4/c1-4-5-6-7-8-9-10-13(16-11(2)14)17-12(3)15/h13H,4-10H2,1-3H3

>  <IUPAC Name>  (1) 
1-acetyloxynonyl acetate

$$$$
