
     RDKit          3D

 45 47  0  0  0  0  0  0  0  0999 V2000
   -2.6541    1.0315   -1.2411 C   0  0  0  0  0  0  0  0  0  0  0  0
   -2.1526    0.3746    0.0565 C   0  0  0  0  0  0  0  0  0  0  0  0
   -2.7734    1.3240    1.1020 C   0  0  0  0  0  0  0  0  0  0  0  0
   -2.7455   -0.9652    0.2553 C   0  0  0  0  0  0  0  0  0  0  0  0
   -1.8402   -2.0607    0.6922 C   0  0  0  0  0  0  0  0  0  0  0  0
   -0.4014   -1.7574    0.8133 C   0  0  0  0  0  0  0  0  0  0  0  0
    0.0975   -0.7252   -0.1955 C   0  0  1  0  0  0  0  0  0  0  0  0
   -0.6939    0.4981    0.1970 C   0  0  1  0  0  0  0  0  0  0  0  0
   -0.0870    1.6514   -0.5276 C   0  0  0  0  0  0  0  0  0  0  0  0
    1.2141    1.9442    0.1889 C   0  0  0  0  0  0  0  0  0  0  0  0
    2.1425    0.8078    0.0002 C   0  0  2  0  0  0  0  0  0  0  0  0
    1.5528   -0.5406   -0.1383 C   0  0  1  0  0  0  0  0  0  0  0  0
    2.2222   -1.3048    1.0154 C   0  0  0  0  0  0  0  0  0  0  0  0
    3.5315   -0.5059    1.0937 C   0  0  0  0  0  0  0  0  0  0  0  0
    2.9785    0.7868    1.1359 O   0  0  0  0  0  0  0  0  0  0  0  0
    3.0703    1.2022   -1.1353 C   0  0  0  0  0  0  0  0  0  0  0  0
   -0.2646   -1.2856   -1.5505 C   0  0  0  0  0  0  0  0  0  0  0  0
   -2.0896    0.7597   -2.1221 H   0  0  0  0  0  0  0  0  0  0  0  0
   -2.6241    2.1389   -1.1709 H   0  0  0  0  0  0  0  0  0  0  0  0
   -3.7224    0.7768   -1.3805 H   0  0  0  0  0  0  0  0  0  0  0  0
   -2.1010    2.1453    1.3668 H   0  0  0  0  0  0  0  0  0  0  0  0
   -3.7928    1.6473    0.8032 H   0  0  0  0  0  0  0  0  0  0  0  0
   -2.9398    0.7072    2.0236 H   0  0  0  0  0  0  0  0  0  0  0  0
   -3.3057   -1.2326   -0.6926 H   0  0  0  0  0  0  0  0  0  0  0  0
   -3.5956   -0.9463    0.9857 H   0  0  0  0  0  0  0  0  0  0  0  0
   -2.1405   -2.5283    1.6637 H   0  0  0  0  0  0  0  0  0  0  0  0
   -1.9637   -2.9186   -0.0321 H   0  0  0  0  0  0  0  0  0  0  0  0
   -0.2882   -1.2528    1.8189 H   0  0  0  0  0  0  0  0  0  0  0  0
    0.1683   -2.6938    0.7840 H   0  0  0  0  0  0  0  0  0  0  0  0
   -0.4704    0.6111    1.3020 H   0  0  0  0  0  0  0  0  0  0  0  0
   -0.7162    2.5589   -0.5853 H   0  0  0  0  0  0  0  0  0  0  0  0
    0.2166    1.2946   -1.5500 H   0  0  0  0  0  0  0  0  0  0  0  0
    0.9432    2.0002    1.2766 H   0  0  0  0  0  0  0  0  0  0  0  0
    1.6581    2.8917   -0.1317 H   0  0  0  0  0  0  0  0  0  0  0  0
    2.0783   -1.0018   -1.0196 H   0  0  0  0  0  0  0  0  0  0  0  0
    2.4190   -2.3534    0.7541 H   0  0  0  0  0  0  0  0  0  0  0  0
    1.7432   -1.1560    1.9763 H   0  0  0  0  0  0  0  0  0  0  0  0
    4.0156   -0.7436    2.0566 H   0  0  0  0  0  0  0  0  0  0  0  0
    4.1196   -0.7108    0.2015 H   0  0  0  0  0  0  0  0  0  0  0  0
    4.1409    0.9985   -0.9127 H   0  0  0  0  0  0  0  0  0  0  0  0
    3.0429    2.2985   -1.3570 H   0  0  0  0  0  0  0  0  0  0  0  0
    2.7399    0.7176   -2.0878 H   0  0  0  0  0  0  0  0  0  0  0  0
   -1.1754   -1.8706   -1.5946 H   0  0  0  0  0  0  0  0  0  0  0  0
    0.5490   -2.0486   -1.7523 H   0  0  0  0  0  0  0  0  0  0  0  0
   -0.1058   -0.5646   -2.3857 H   0  0  0  0  0  0  0  0  0  0  0  0
  1  2  1  0
  2  3  1  0
  2  4  1  0
  4  5  1  0
  5  6  1  0
  6  7  1  0
  7  8  1  0
  8  9  1  0
  9 10  1  0
 10 11  1  0
 11 12  1  0
 12 13  1  0
 13 14  1  0
 14 15  1  0
 11 16  1  6
  7 17  1  6
  8  2  1  0
 15 11  1  0
 12  7  1  0
  1 18  1  0
  1 19  1  0
  1 20  1  0
  3 21  1  0
  3 22  1  0
  3 23  1  0
  4 24  1  0
  4 25  1  0
  5 26  1  0
  5 27  1  0
  6 28  1  0
  6 29  1  0
  8 30  1  1
  9 31  1  0
  9 32  1  0
 10 33  1  0
 10 34  1  0
 12 35  1  6
 13 36  1  0
 13 37  1  0
 14 38  1  0
 14 39  1  0
 16 40  1  0
 16 41  1  0
 16 42  1  0
 17 43  1  0
 17 44  1  0
 17 45  1  0
M  END
>  <Ligand ID>  (1) 
LIG0000371

>  <Ligand>  (1) 
Ambrox

>  <SMILES>  (1) 
CC1(C)CCC[C@]2([C@H]1CC[C@@]1([C@H]2CCO1)C)C

>  <CID>  (1) 
6977166.0

>  <ChEMBL ID>  (1) 
nan

>  <InChiKey>  (1) 
YPZUZOLGGMJZJO-DARAHFNDSA-N

>  <InChi>  (1) 
InChI=1S/C16H28O/c1-14(2)8-5-9-15(3)12(14)6-10-16(4)13(15)7-11-17-16/h12-13H,5-11H2,1-4H3/t12-,13-,15-,16+/m0/s1

>  <IUPAC Name>  (1) 
(3aR,5aS,9aS,9bS)-3a,6,6,9a-tetramethyl-2,4,5,5a,7,8,9,9b-octahydro-1H-benzo[e][1]benzofuran

$$$$
