
     RDKit          3D

 39 41  0  0  0  0  0  0  0  0999 V2000
    2.1100   -2.8562    0.4269 C   0  0  0  0  0  0  0  0  0  0  0  0
    1.5320   -1.8708    1.3971 C   0  0  0  0  0  0  0  0  0  0  0  0
    0.9280   -0.6727    0.6545 C   0  0  0  0  0  0  0  0  0  0  0  0
    2.0204   -0.0144   -0.1405 C   0  0  0  0  0  0  0  0  0  0  0  0
    2.9262    0.7341    0.5941 C   0  0  0  0  0  0  0  0  0  0  0  0
    3.9646    1.3716   -0.0812 C   0  0  0  0  0  0  0  0  0  0  0  0
    4.0762    1.2490   -1.4689 C   0  0  0  0  0  0  0  0  0  0  0  0
    3.1533    0.4906   -2.1879 C   0  0  0  0  0  0  0  0  0  0  0  0
    2.1152   -0.1458   -1.5068 C   0  0  0  0  0  0  0  0  0  0  0  0
    5.1229    1.8971   -2.1113 O   0  0  0  0  0  0  0  0  0  0  0  0
    0.3797    0.2467    1.6027 N   0  0  0  0  0  0  0  0  0  0  0  0
   -0.8268    0.4916    1.8153 N   0  0  0  0  0  0  0  0  0  0  0  0
   -1.9348   -0.1006    1.1494 C   0  0  0  0  0  0  0  0  0  0  0  0
   -2.2244   -1.4507    1.2258 C   0  0  0  0  0  0  0  0  0  0  0  0
   -3.3039   -2.0229    0.5762 C   0  0  0  0  0  0  0  0  0  0  0  0
   -4.1293   -1.2605   -0.1720 N   0  0  0  0  0  0  0  0  0  0  0  0
   -3.8889    0.0749   -0.2804 C   0  0  0  0  0  0  0  0  0  0  0  0
   -2.8137    0.6546    0.3647 C   0  0  0  0  0  0  0  0  0  0  0  0
   -2.6099    2.0144    0.2251 C   0  0  0  0  0  0  0  0  0  0  0  0
   -3.4904    2.7368   -0.5541 C   0  0  0  0  0  0  0  0  0  0  0  0
   -4.5684    2.1573   -1.2012 C   0  0  0  0  0  0  0  0  0  0  0  0
   -4.7730    0.7994   -1.0625 C   0  0  0  0  0  0  0  0  0  0  0  0
   -5.6826    3.0825   -2.1893 Cl  0  0  0  0  0  0  0  0  0  0  0  0
    1.9266   -2.6082   -0.6371 H   0  0  0  0  0  0  0  0  0  0  0  0
    3.2004   -3.0094    0.5535 H   0  0  0  0  0  0  0  0  0  0  0  0
    1.6309   -3.8520    0.5783 H   0  0  0  0  0  0  0  0  0  0  0  0
    2.3687   -1.4703    2.0290 H   0  0  0  0  0  0  0  0  0  0  0  0
    0.7710   -2.2833    2.0827 H   0  0  0  0  0  0  0  0  0  0  0  0
    0.1389   -1.0067   -0.0370 H   0  0  0  0  0  0  0  0  0  0  0  0
    2.8518    0.8382    1.6733 H   0  0  0  0  0  0  0  0  0  0  0  0
    4.6886    1.9671    0.4872 H   0  0  0  0  0  0  0  0  0  0  0  0
    3.2538    0.4045   -3.2708 H   0  0  0  0  0  0  0  0  0  0  0  0
    1.3918   -0.7360   -2.0420 H   0  0  0  0  0  0  0  0  0  0  0  0
    5.5084    2.7303   -1.6790 H   0  0  0  0  0  0  0  0  0  0  0  0
   -1.6050   -2.0931    1.8020 H   0  0  0  0  0  0  0  0  0  0  0  0
   -3.4874   -3.1001    0.6711 H   0  0  0  0  0  0  0  0  0  0  0  0
   -1.7658    2.4692    0.7315 H   0  0  0  0  0  0  0  0  0  0  0  0
   -3.3406    3.8024   -0.6705 H   0  0  0  0  0  0  0  0  0  0  0  0
   -5.6147    0.3417   -1.5666 H   0  0  0  0  0  0  0  0  0  0  0  0
  1  2  1  0
  2  3  1  0
  3  4  1  0
  4  5  2  0
  5  6  1  0
  6  7  2  0
  7  8  1  0
  8  9  2  0
  7 10  1  0
  3 11  1  0
 11 12  2  3
 12 13  1  0
 13 14  2  0
 14 15  1  0
 15 16  2  0
 16 17  1  0
 17 18  2  0
 18 19  1  0
 19 20  2  0
 20 21  1  0
 21 22  2  0
 21 23  1  0
  9  4  1  0
 18 13  1  0
 22 17  1  0
  1 24  1  0
  1 25  1  0
  1 26  1  0
  2 27  1  0
  2 28  1  0
  3 29  1  0
  5 30  1  0
  6 31  1  0
  8 32  1  0
  9 33  1  0
 10 34  1  0
 14 35  1  0
 15 36  1  0
 19 37  1  0
 20 38  1  0
 22 39  1  0
M  END
>  <Ligand ID>  (1) 
LIG0004059

>  <Ligand>  (1) 
BDBM54836

>  <SMILES>  (1) 
CCC(c1ccc(cc1)O)N=Nc1ccnc2c1ccc(c2)Cl

>  <CID>  (1) 
91897190.0

>  <ChEMBL ID>  (1) 
nan

>  <InChiKey>  (1) 
JXWGLWHJGHVGHK-UHFFFAOYSA-N

>  <InChi>  (1) 
InChI=1S/C18H16ClN3O/c1-2-16(12-3-6-14(23)7-4-12)21-22-17-9-10-20-18-11-13(19)5-8-15(17)18/h3-11,16,23H,2H2,1H3

>  <IUPAC Name>  (1) 
4-[1-[(7-chloroquinolin-4-yl)diazenyl]propyl]phenol

$$$$
