
     RDKit          3D

 47 51  0  0  0  0  0  0  0  0999 V2000
    6.5945   -0.0886    0.0156 O   0  0  0  0  0  0  0  0  0  0  0  0
    5.3034    0.4346    0.0331 C   0  0  0  0  0  0  0  0  0  0  0  0
    5.1366    1.7880   -0.1077 C   0  0  0  0  0  0  0  0  0  0  0  0
    3.8930    2.3711   -0.0996 C   0  0  0  0  0  0  0  0  0  0  0  0
    2.7923    1.5541    0.0559 C   0  0  0  0  0  0  0  0  0  0  0  0
    2.9053    0.1810    0.2020 C   0  0  0  0  0  0  0  0  0  0  0  0
    4.1851   -0.3527    0.1863 C   0  0  0  0  0  0  0  0  0  0  0  0
    1.6966   -0.6951    0.3703 C   0  0  2  0  0  0  0  0  0  0  0  0
    1.4413   -0.7824    1.8348 C   0  0  0  0  0  0  0  0  0  0  0  0
    1.9116   -1.9461   -0.1857 O   0  0  0  0  0  0  0  0  0  0  0  0
    0.7086   -2.3425   -0.7580 C   0  0  2  0  0  0  0  0  0  0  0  0
    0.0544   -1.1719   -1.2446 N   0  0  0  0  0  0  0  0  0  0  0  0
    0.5933   -0.0830   -0.4443 C   0  0  1  0  0  0  0  0  0  0  0  0
   -0.4353    0.4382    0.3260 O   0  0  0  0  0  0  0  0  0  0  0  0
   -1.5369    0.2216   -0.4586 C   0  0  2  0  0  0  0  0  0  0  0  0
   -1.3291   -1.2520   -0.8053 C   0  0  2  0  0  0  0  0  0  0  0  0
   -1.3055   -1.9817    0.3585 O   0  0  0  0  0  0  0  0  0  0  0  0
   -0.2546   -2.8866    0.2650 C   0  0  0  0  0  0  0  0  0  0  0  0
   -1.4254    1.1242   -1.6580 C   0  0  0  0  0  0  0  0  0  0  0  0
   -2.8245    0.4479    0.2083 C   0  0  0  0  0  0  0  0  0  0  0  0
   -2.8696    0.4034    1.5828 C   0  0  0  0  0  0  0  0  0  0  0  0
   -4.0594    0.6081    2.2423 C   0  0  0  0  0  0  0  0  0  0  0  0
   -5.2423    0.8627    1.5762 C   0  0  0  0  0  0  0  0  0  0  0  0
   -5.2025    0.9083    0.1966 C   0  0  0  0  0  0  0  0  0  0  0  0
   -4.0086    0.7023   -0.4498 C   0  0  0  0  0  0  0  0  0  0  0  0
   -6.3624    1.1615   -0.5499 O   0  0  0  0  0  0  0  0  0  0  0  0
    6.7402   -1.0695    0.1588 H   0  0  0  0  0  0  0  0  0  0  0  0
    6.0264    2.4125   -0.2294 H   0  0  0  0  0  0  0  0  0  0  0  0
    3.7717    3.4314   -0.2104 H   0  0  0  0  0  0  0  0  0  0  0  0
    1.8115    2.0307    0.0604 H   0  0  0  0  0  0  0  0  0  0  0  0
    4.3388   -1.4361    0.2978 H   0  0  0  0  0  0  0  0  0  0  0  0
    0.3970   -0.7795    2.1520 H   0  0  0  0  0  0  0  0  0  0  0  0
    1.9419    0.0557    2.4035 H   0  0  0  0  0  0  0  0  0  0  0  0
    1.9985   -1.6918    2.2084 H   0  0  0  0  0  0  0  0  0  0  0  0
    0.8424   -3.0479   -1.5968 H   0  0  0  0  0  0  0  0  0  0  0  0
    1.0029    0.6390   -1.1933 H   0  0  0  0  0  0  0  0  0  0  0  0
   -2.0171   -1.6066   -1.5631 H   0  0  0  0  0  0  0  0  0  0  0  0
   -0.5963   -3.9104   -0.0421 H   0  0  0  0  0  0  0  0  0  0  0  0
    0.2288   -2.9947    1.2441 H   0  0  0  0  0  0  0  0  0  0  0  0
   -1.3130    0.5353   -2.5929 H   0  0  0  0  0  0  0  0  0  0  0  0
   -0.5682    1.8568   -1.5734 H   0  0  0  0  0  0  0  0  0  0  0  0
   -2.3185    1.8085   -1.7355 H   0  0  0  0  0  0  0  0  0  0  0  0
   -1.9957    0.2107    2.1948 H   0  0  0  0  0  0  0  0  0  0  0  0
   -4.1348    0.5804    3.3346 H   0  0  0  0  0  0  0  0  0  0  0  0
   -6.1803    1.0238    2.1019 H   0  0  0  0  0  0  0  0  0  0  0  0
   -4.0259    0.7448   -1.5305 H   0  0  0  0  0  0  0  0  0  0  0  0
   -6.3103    1.5828   -1.4720 H   0  0  0  0  0  0  0  0  0  0  0  0
  1  2  1  0
  2  3  2  0
  3  4  1  0
  4  5  2  0
  5  6  1  0
  6  7  2  0
  6  8  1  0
  8  9  1  1
  8 10  1  0
 10 11  1  0
 11 12  1  0
 12 13  1  0
 13 14  1  0
 14 15  1  0
 15 16  1  0
 16 17  1  0
 17 18  1  0
 15 19  1  6
 15 20  1  0
 20 21  2  0
 21 22  1  0
 22 23  2  0
 23 24  1  0
 24 25  2  0
 24 26  1  0
  7  2  1  0
 13  8  1  0
 25 20  1  0
 18 11  1  0
 16 12  1  0
  1 27  1  0
  3 28  1  0
  4 29  1  0
  5 30  1  0
  7 31  1  0
  9 32  1  0
  9 33  1  0
  9 34  1  0
 11 35  1  6
 13 36  1  6
 16 37  1  6
 18 38  1  0
 18 39  1  0
 19 40  1  0
 19 41  1  0
 19 42  1  0
 21 43  1  0
 22 44  1  0
 23 45  1  0
 25 46  1  0
 26 47  1  0
M  END
>  <Ligand ID>  (1) 
LIG0005114

>  <Ligand>  (1) 
CHEMBL3326354

>  <SMILES>  (1) 
Oc1cccc(c1)[C@]1(C)O[C@@H]2N3[C@H]1O[C@]([C@@H]3OC2)(C)c1cccc(c1)O

>  <CID>  (1) 
101806592.0

>  <ChEMBL ID>  (1) 
nan

>  <InChiKey>  (1) 
JSZCJTFFFLFQBJ-FSGKZVOOSA-N

>  <InChi>  (1) 
InChI=1S/C20H21NO5/c1-19(12-5-3-7-14(22)9-12)17-21-16(11-24-17)25-20(2,18(21)26-19)13-6-4-8-15(23)10-13/h3-10,16-18,22-23H,11H2,1-2H3/t16-,17-,18-,19+,20-/m0/s1

>  <IUPAC Name>  (1) 
3-[(1S,3R,4S,7S,9S)-9-(3-hydroxyphenyl)-3,9-dimethyl-2,5,8-trioxa-10-azatricyclo[5.2.1.04,10]decan-3-yl]phenol

$$$$
