
     RDKit          3D

 33 34  0  0  0  0  0  0  0  0999 V2000
   -3.8812    1.9807   -1.6798 C   0  0  0  0  0  0  0  0  0  0  0  0
   -3.4958    1.3928   -0.5322 C   0  0  0  0  0  0  0  0  0  0  0  0
   -2.0970    0.9493   -0.3538 C   0  0  0  0  0  0  0  0  0  0  0  0
   -1.9991   -0.5108   -0.1073 C   0  0  0  0  0  0  0  0  0  0  0  0
   -3.1309   -1.2934   -0.0647 C   0  0  0  0  0  0  0  0  0  0  0  0
   -3.0782   -2.6533    0.1621 C   0  0  0  0  0  0  0  0  0  0  0  0
   -1.8341   -3.2253    0.3499 C   0  0  0  0  0  0  0  0  0  0  0  0
   -0.6661   -2.4782    0.3159 C   0  0  0  0  0  0  0  0  0  0  0  0
   -0.7509   -1.1095    0.0852 C   0  0  0  0  0  0  0  0  0  0  0  0
    0.4529   -0.3503    0.0519 N   0  0  0  0  0  0  0  0  0  0  0  0
    1.7660   -0.9506    0.2496 C   0  0  0  0  0  0  0  0  0  0  0  0
    2.8425    0.0694    0.1638 C   0  0  0  0  0  0  0  0  0  0  0  0
    3.8376    0.1143   -0.6669 N   0  0  0  0  0  0  0  0  0  0  0  0
    4.6845    1.2430   -0.4615 C   0  0  0  0  0  0  0  0  0  0  0  0
    4.1101    1.9596    0.7428 C   0  0  0  0  0  0  0  0  0  0  0  0
    2.9139    1.1900    1.0391 N   0  0  0  0  0  0  0  0  0  0  0  0
   -3.1149    2.0958   -2.4267 H   0  0  0  0  0  0  0  0  0  0  0  0
   -4.9075    2.3004   -1.7972 H   0  0  0  0  0  0  0  0  0  0  0  0
   -4.2258    1.2471    0.2644 H   0  0  0  0  0  0  0  0  0  0  0  0
   -1.6426    1.5247    0.4812 H   0  0  0  0  0  0  0  0  0  0  0  0
   -1.5135    1.2067   -1.2617 H   0  0  0  0  0  0  0  0  0  0  0  0
   -4.1183   -0.8535   -0.2114 H   0  0  0  0  0  0  0  0  0  0  0  0
   -3.9674   -3.2574    0.1938 H   0  0  0  0  0  0  0  0  0  0  0  0
   -1.8237   -4.3035    0.5273 H   0  0  0  0  0  0  0  0  0  0  0  0
    0.3062   -2.9649    0.4691 H   0  0  0  0  0  0  0  0  0  0  0  0
    0.3979    0.6782   -0.1208 H   0  0  0  0  0  0  0  0  0  0  0  0
    1.7823   -1.5305    1.1844 H   0  0  0  0  0  0  0  0  0  0  0  0
    1.9401   -1.6824   -0.5795 H   0  0  0  0  0  0  0  0  0  0  0  0
    4.6362    1.9322   -1.3355 H   0  0  0  0  0  0  0  0  0  0  0  0
    5.7317    0.9682   -0.2760 H   0  0  0  0  0  0  0  0  0  0  0  0
    4.8297    1.8877    1.5951 H   0  0  0  0  0  0  0  0  0  0  0  0
    3.8033    2.9851    0.5324 H   0  0  0  0  0  0  0  0  0  0  0  0
    2.2119    1.4382    1.7946 H   0  0  0  0  0  0  0  0  0  0  0  0
  1  2  2  0
  2  3  1  0
  3  4  1  0
  4  5  2  0
  5  6  1  0
  6  7  2  0
  7  8  1  0
  8  9  2  0
  9 10  1  0
 10 11  1  0
 11 12  1  0
 12 13  2  0
 13 14  1  0
 14 15  1  0
 15 16  1  0
  9  4  1  0
 16 12  1  0
  1 17  1  0
  1 18  1  0
  2 19  1  0
  3 20  1  0
  3 21  1  0
  5 22  1  0
  6 23  1  0
  7 24  1  0
  8 25  1  0
 10 26  1  0
 11 27  1  0
 11 28  1  0
 14 29  1  0
 14 30  1  0
 15 31  1  0
 15 32  1  0
 16 33  1  0
M  END
>  <Ligand ID>  (1) 
LIG0005616

>  <Ligand>  (1) 
CHEMBL3961335

>  <SMILES>  (1) 
C=CCc1ccccc1NCC1=NCCN1

>  <CID>  (1) 
134156190.0

>  <ChEMBL ID>  (1) 
nan

>  <InChiKey>  (1) 
IYFFDNHPGFKOCO-UHFFFAOYSA-N

>  <InChi>  (1) 
InChI=1S/C13H17N3/c1-2-5-11-6-3-4-7-12(11)16-10-13-14-8-9-15-13/h2-4,6-7,16H,1,5,8-10H2,(H,14,15)

>  <IUPAC Name>  (1) 
N-(4,5-dihydro-1H-imidazol-2-ylmethyl)-2-prop-2-enylaniline

$$$$
