
     RDKit          3D

 27 28  0  0  0  0  0  0  0  0999 V2000
    2.3357   -0.2397    1.7332 O   0  0  0  0  0  0  0  0  0  0  0  0
    1.2609    0.0783    1.1994 C   0  0  0  0  0  0  0  0  0  0  0  0
    0.1973    0.9636    1.7599 C   0  0  0  0  0  0  0  0  0  0  0  0
   -0.6308    1.2454    0.5236 C   0  0  0  0  0  0  0  0  0  0  0  0
   -0.7190   -0.1731   -0.0289 C   0  0  0  0  0  0  0  0  0  0  0  0
    0.7841   -0.3705   -0.1628 C   0  0  0  0  0  0  0  0  0  0  0  0
    1.2101   -1.7122   -0.5506 C   0  0  0  0  0  0  0  0  0  0  0  0
    1.1139    0.7565   -1.0972 C   0  0  0  0  0  0  0  0  0  0  0  0
    0.2759    1.8853   -0.4994 C   0  0  0  0  0  0  0  0  0  0  0  0
   -1.4570   -0.2619   -1.3142 C   0  0  0  0  0  0  0  0  0  0  0  0
   -1.2843   -1.1589    0.9468 C   0  0  0  0  0  0  0  0  0  0  0  0
    0.5773    1.9103    2.1409 H   0  0  0  0  0  0  0  0  0  0  0  0
   -0.4068    0.4314    2.5396 H   0  0  0  0  0  0  0  0  0  0  0  0
   -1.5819    1.7272    0.6849 H   0  0  0  0  0  0  0  0  0  0  0  0
    1.3845   -2.3527    0.3469 H   0  0  0  0  0  0  0  0  0  0  0  0
    2.1018   -1.7404   -1.2142 H   0  0  0  0  0  0  0  0  0  0  0  0
    0.3861   -2.2115   -1.0981 H   0  0  0  0  0  0  0  0  0  0  0  0
    0.8230    0.5217   -2.1196 H   0  0  0  0  0  0  0  0  0  0  0  0
    2.1940    0.9811   -1.0771 H   0  0  0  0  0  0  0  0  0  0  0  0
    1.0042    2.5368    0.0525 H   0  0  0  0  0  0  0  0  0  0  0  0
   -0.2614    2.4644   -1.2713 H   0  0  0  0  0  0  0  0  0  0  0  0
   -0.8078   -0.7035   -2.0930 H   0  0  0  0  0  0  0  0  0  0  0  0
   -2.3349   -0.9482   -1.2288 H   0  0  0  0  0  0  0  0  0  0  0  0
   -1.8278    0.7441   -1.5903 H   0  0  0  0  0  0  0  0  0  0  0  0
   -1.5277   -2.0694    0.3409 H   0  0  0  0  0  0  0  0  0  0  0  0
   -2.2505   -0.8207    1.3699 H   0  0  0  0  0  0  0  0  0  0  0  0
   -0.5590   -1.4832    1.7071 H   0  0  0  0  0  0  0  0  0  0  0  0
  1  2  2  0
  2  3  1  0
  3  4  1  0
  4  5  1  0
  5  6  1  0
  6  7  1  0
  6  8  1  0
  8  9  1  0
  5 10  1  0
  5 11  1  0
  6  2  1  0
  9  4  1  0
  3 12  1  0
  3 13  1  0
  4 14  1  0
  7 15  1  0
  7 16  1  0
  7 17  1  0
  8 18  1  0
  8 19  1  0
  9 20  1  0
  9 21  1  0
 10 22  1  0
 10 23  1  0
 10 24  1  0
 11 25  1  0
 11 26  1  0
 11 27  1  0
M  END
>  <Ligand ID>  (1) 
LIG0000479

>  <Ligand>  (1) 
Camphor

>  <SMILES>  (1) 
O=C1CC2C(C1(C)CC2)(C)C

>  <CID>  (1) 
2537.0

>  <ChEMBL ID>  (1) 
nan

>  <InChiKey>  (1) 
DSSYKIVIOFKYAU-UHFFFAOYSA-N

>  <InChi>  (1) 
InChI=1S/C10H16O/c1-9(2)7-4-5-10(9,3)8(11)6-7/h7H,4-6H2,1-3H3

>  <IUPAC Name>  (1) 
1,7,7-trimethylbicyclo[2.2.1]heptan-2-one

$$$$
