
     RDKit          3D

 67 69  0  0  0  0  0  0  0  0999 V2000
   -2.8947   -0.5725   -0.9539 C   0  0  0  0  0  0  0  0  0  0  0  0
   -2.7748   -1.4682    0.2679 C   0  0  2  0  0  0  0  0  0  0  0  0
   -4.1665   -1.7383    0.7785 C   0  0  0  0  0  0  0  0  0  0  0  0
   -4.7235   -0.4768    1.2215 N   0  0  0  0  0  0  0  0  0  0  0  0
   -4.0731    0.1757    2.3393 C   0  0  0  0  0  0  0  0  0  0  0  0
   -2.6389   -0.2100    2.4838 C   0  0  0  0  0  0  0  0  0  0  0  0
   -2.0338   -0.7240    1.2679 N   0  0  0  0  0  0  0  0  0  0  0  0
   -0.6368   -0.4904    1.0335 C   0  0  0  0  0  0  0  0  0  0  0  0
   -0.0150   -0.9411   -0.0713 N   0  0  0  0  0  0  0  0  0  0  0  0
    1.3112   -0.7234   -0.3016 C   0  0  0  0  0  0  0  0  0  0  0  0
    2.0351   -0.0143    0.6372 C   0  0  0  0  0  0  0  0  0  0  0  0
    1.4084    0.4535    1.7752 C   0  0  0  0  0  0  0  0  0  0  0  0
    0.0958    0.1995    1.9335 N   0  0  0  0  0  0  0  0  0  0  0  0
    3.4084    0.2499    0.4685 O   0  0  0  0  0  0  0  0  0  0  0  0
    4.1239    0.9872    1.4622 C   0  0  0  0  0  0  0  0  0  0  0  0
    5.5503    1.0974    0.9907 C   0  0  0  0  0  0  0  0  0  0  0  0
    6.1594   -0.2667    0.8215 C   0  0  0  0  0  0  0  0  0  0  0  0
    6.4467   -0.5885   -0.6282 C   0  0  0  0  0  0  0  0  0  0  0  0
    7.1461    0.4337   -1.3372 N   0  0  0  0  0  0  0  0  0  0  0  0
    6.9324    1.7696   -0.8802 C   0  0  0  0  0  0  0  0  0  0  0  0
    5.5491    1.8811   -0.3055 C   0  0  0  0  0  0  0  0  0  0  0  0
    8.8275    0.0035   -1.3367 S   0  0  0  0  0  0  0  0  0  0  0  0
    9.6782    1.0683   -1.9352 O   0  0  0  0  0  0  0  0  0  0  0  0
    9.2059   -0.2305    0.1194 O   0  0  0  0  0  0  0  0  0  0  0  0
    8.9717   -1.5486   -2.1902 C   0  0  0  0  0  0  0  0  0  0  0  0
   -5.8526    0.1386    0.6256 C   0  0  0  0  0  0  0  0  0  0  0  0
   -6.3086    1.2436    1.0434 O   0  0  0  0  0  0  0  0  0  0  0  0
   -6.5168   -0.4358   -0.4451 O   0  0  0  0  0  0  0  0  0  0  0  0
   -7.6434    0.1522   -1.0600 C   0  0  0  0  0  0  0  0  0  0  0  0
   -7.3425    1.5146   -1.6308 C   0  0  0  0  0  0  0  0  0  0  0  0
   -8.0735   -0.7793   -2.1811 C   0  0  0  0  0  0  0  0  0  0  0  0
   -8.7757    0.2359   -0.0624 C   0  0  0  0  0  0  0  0  0  0  0  0
   -2.9719   -1.2485   -1.8341 H   0  0  0  0  0  0  0  0  0  0  0  0
   -1.9878    0.0461   -1.1049 H   0  0  0  0  0  0  0  0  0  0  0  0
   -3.7471    0.1258   -0.8661 H   0  0  0  0  0  0  0  0  0  0  0  0
   -2.2288   -2.4033   -0.0011 H   0  0  0  0  0  0  0  0  0  0  0  0
   -4.1402   -2.3877    1.6887 H   0  0  0  0  0  0  0  0  0  0  0  0
   -4.7588   -2.1981   -0.0419 H   0  0  0  0  0  0  0  0  0  0  0  0
   -4.2638    1.2680    2.3564 H   0  0  0  0  0  0  0  0  0  0  0  0
   -4.6146   -0.2091    3.2516 H   0  0  0  0  0  0  0  0  0  0  0  0
   -2.4527   -0.8661    3.3527 H   0  0  0  0  0  0  0  0  0  0  0  0
   -2.0833    0.7425    2.7225 H   0  0  0  0  0  0  0  0  0  0  0  0
    1.7843   -1.0939   -1.1922 H   0  0  0  0  0  0  0  0  0  0  0  0
    1.9258    1.0173    2.5487 H   0  0  0  0  0  0  0  0  0  0  0  0
    3.6827    1.9538    1.6988 H   0  0  0  0  0  0  0  0  0  0  0  0
    4.0596    0.3834    2.4026 H   0  0  0  0  0  0  0  0  0  0  0  0
    6.0998    1.6340    1.7900 H   0  0  0  0  0  0  0  0  0  0  0  0
    5.5050   -1.0699    1.1973 H   0  0  0  0  0  0  0  0  0  0  0  0
    7.1196   -0.3050    1.3477 H   0  0  0  0  0  0  0  0  0  0  0  0
    6.9979   -1.5541   -0.6171 H   0  0  0  0  0  0  0  0  0  0  0  0
    5.5061   -0.7984   -1.1966 H   0  0  0  0  0  0  0  0  0  0  0  0
    7.6498    2.1197   -0.1054 H   0  0  0  0  0  0  0  0  0  0  0  0
    6.9484    2.4302   -1.7788 H   0  0  0  0  0  0  0  0  0  0  0  0
    4.7793    1.4537   -0.9819 H   0  0  0  0  0  0  0  0  0  0  0  0
    5.2626    2.9276   -0.0713 H   0  0  0  0  0  0  0  0  0  0  0  0
   10.0013   -1.7100   -2.5696 H   0  0  0  0  0  0  0  0  0  0  0  0
    8.2087   -1.5817   -2.9992 H   0  0  0  0  0  0  0  0  0  0  0  0
    8.6854   -2.3438   -1.4469 H   0  0  0  0  0  0  0  0  0  0  0  0
   -7.2855    2.2844   -0.8324 H   0  0  0  0  0  0  0  0  0  0  0  0
   -6.4291    1.4477   -2.2450 H   0  0  0  0  0  0  0  0  0  0  0  0
   -8.2156    1.8044   -2.2555 H   0  0  0  0  0  0  0  0  0  0  0  0
   -7.7953   -1.8227   -1.8869 H   0  0  0  0  0  0  0  0  0  0  0  0
   -9.1423   -0.6697   -2.4112 H   0  0  0  0  0  0  0  0  0  0  0  0
   -7.4294   -0.5261   -3.0636 H   0  0  0  0  0  0  0  0  0  0  0  0
   -8.6861   -0.6566    0.6068 H   0  0  0  0  0  0  0  0  0  0  0  0
   -9.7686    0.2897   -0.5638 H   0  0  0  0  0  0  0  0  0  0  0  0
   -8.5955    1.1204    0.5786 H   0  0  0  0  0  0  0  0  0  0  0  0
  1  2  1  0
  2  3  1  0
  3  4  1  0
  4  5  1  0
  5  6  1  0
  6  7  1  0
  7  8  1  0
  8  9  2  0
  9 10  1  0
 10 11  2  0
 11 12  1  0
 12 13  2  0
 11 14  1  0
 14 15  1  0
 15 16  1  0
 16 17  1  0
 17 18  1  0
 18 19  1  0
 19 20  1  0
 20 21  1  0
 19 22  1  0
 22 23  2  0
 22 24  2  0
 22 25  1  0
  4 26  1  0
 26 27  2  0
 26 28  1  0
 28 29  1  0
 29 30  1  0
 29 31  1  0
 29 32  1  0
  7  2  1  0
 13  8  1  0
 21 16  1  0
  1 33  1  0
  1 34  1  0
  1 35  1  0
  2 36  1  6
  3 37  1  0
  3 38  1  0
  5 39  1  0
  5 40  1  0
  6 41  1  0
  6 42  1  0
 10 43  1  0
 12 44  1  0
 15 45  1  0
 15 46  1  0
 16 47  1  0
 17 48  1  0
 17 49  1  0
 18 50  1  0
 18 51  1  0
 20 52  1  0
 20 53  1  0
 21 54  1  0
 21 55  1  0
 25 56  1  0
 25 57  1  0
 25 58  1  0
 30 59  1  0
 30 60  1  0
 30 61  1  0
 31 62  1  0
 31 63  1  0
 31 64  1  0
 32 65  1  0
 32 66  1  0
 32 67  1  0
M  END
>  <Ligand ID>  (1) 
LIG0005326

>  <Ligand>  (1) 
CHEMBL2086668

>  <SMILES>  (1) 
C[C@@H]1CN(CCN1c1ncc(cn1)OCC1CCN(CC1)S(=O)(=O)C)C(=O)OC(C)(C)C

>  <CID>  (1) 
60155274.0

>  <ChEMBL ID>  (1) 
nan

>  <InChiKey>  (1) 
GRGQEEUXMIDNPJ-MRXNPFEDSA-N

>  <InChi>  (1) 
InChI=1S/C21H35N5O5S/c1-16-14-24(20(27)31-21(2,3)4)10-11-26(16)19-22-12-18(13-23-19)30-15-17-6-8-25(9-7-17)32(5,28)29/h12-13,16-17H,6-11,14-15H2,1-5H3/t16-/m1/s1

>  <IUPAC Name>  (1) 
tert-butyl (3R)-3-methyl-4-[5-[(1-methylsulfonylpiperidin-4-yl)methoxy]pyrimidin-2-yl]piperazine-1-carboxylate

$$$$
