
     RDKit          3D

 92 95  0  0  0  0  0  0  0  0999 V2000
    2.7649    6.9922    1.7774 N   0  0  0  0  0  0  0  0  0  0  0  0
    2.0197    6.7683    0.5824 C   0  0  0  0  0  0  0  0  0  0  0  0
    2.1339    5.7053   -0.1382 N   0  0  0  0  0  0  0  0  0  0  0  0
    1.3386    5.5481   -1.3462 C   0  0  0  0  0  0  0  0  0  0  0  0
    0.8023    4.1286   -1.4573 C   0  0  0  0  0  0  0  0  0  0  0  0
    1.9119    3.1061   -1.5129 C   0  0  0  0  0  0  0  0  0  0  0  0
    1.3766    1.6757   -1.6191 C   0  0  1  0  0  0  0  0  0  0  0  0
    2.5097    0.7437   -1.6643 C   0  0  0  0  0  0  0  0  0  0  0  0
    3.3493    0.9296   -2.6129 O   0  0  0  0  0  0  0  0  0  0  0  0
    2.7640   -0.3201   -0.7841 N   0  0  0  0  0  0  0  0  0  0  0  0
    3.9367   -1.1800   -0.9535 C   0  0  2  0  0  0  0  0  0  0  0  0
    3.5917   -2.5644   -1.2138 C   0  0  0  0  0  0  0  0  0  0  0  0
    2.3759   -2.9095   -1.1313 O   0  0  0  0  0  0  0  0  0  0  0  0
    4.5084   -3.5829   -1.5636 N   0  0  0  0  0  0  0  0  0  0  0  0
    4.8828   -0.9234    0.1686 C   0  0  0  0  0  0  0  0  0  0  0  0
    6.1180   -1.7108    0.1960 C   0  0  0  0  0  0  0  0  0  0  0  0
    7.3250   -1.3205   -0.3584 C   0  0  0  0  0  0  0  0  0  0  0  0
    8.2577   -2.2829   -0.1941 N   0  0  0  0  0  0  0  0  0  0  0  0
    7.6691   -3.3126    0.4710 C   0  0  0  0  0  0  0  0  0  0  0  0
    6.3533   -2.9671    0.7139 C   0  0  0  0  0  0  0  0  0  0  0  0
    5.5941   -3.8896    1.4045 C   0  0  0  0  0  0  0  0  0  0  0  0
    6.0781   -5.0893    1.8391 C   0  0  0  0  0  0  0  0  0  0  0  0
    7.3970   -5.3856    1.5692 C   0  0  0  0  0  0  0  0  0  0  0  0
    8.2053   -4.5219    0.8934 C   0  0  0  0  0  0  0  0  0  0  0  0
    0.4744    1.3819   -0.5396 N   0  0  0  0  0  0  0  0  0  0  0  0
   -0.8496    0.8932   -0.8549 C   0  0  0  0  0  0  0  0  0  0  0  0
   -1.0801    0.7502   -2.0676 O   0  0  0  0  0  0  0  0  0  0  0  0
   -1.8020    0.6122    0.2608 C   0  0  1  0  0  0  0  0  0  0  0  0
   -3.0145   -0.0327   -0.0493 N   0  0  0  0  0  0  0  0  0  0  0  0
   -3.4953   -0.6439   -1.2037 C   0  0  0  0  0  0  0  0  0  0  0  0
   -2.8871   -0.7814   -2.2960 O   0  0  0  0  0  0  0  0  0  0  0  0
   -4.9048   -1.2423   -1.2466 C   0  0  2  0  0  0  0  0  0  0  0  0
   -5.6025   -0.7898   -2.4708 C   0  0  0  0  0  0  0  0  0  0  0  0
   -6.9545   -1.3372   -2.5973 C   0  0  0  0  0  0  0  0  0  0  0  0
   -7.7059   -2.1612   -1.8768 N   0  0  0  0  0  0  0  0  0  0  0  0
   -8.9229   -2.3514   -2.4327 C   0  0  0  0  0  0  0  0  0  0  0  0
   -8.9456   -1.6259   -3.5426 N   0  0  0  0  0  0  0  0  0  0  0  0
   -7.7765   -0.9886   -3.6925 C   0  0  0  0  0  0  0  0  0  0  0  0
   -5.6089   -0.8958   -0.0465 N   0  0  0  0  0  0  0  0  0  0  0  0
   -5.8168   -1.7265    1.0807 C   0  0  0  0  0  0  0  0  0  0  0  0
   -5.3703   -2.9166    1.1527 O   0  0  0  0  0  0  0  0  0  0  0  0
   -6.5922   -1.1898    2.2293 C   0  0  0  0  0  0  0  0  0  0  0  0
   -1.1167    0.2447    1.5240 C   0  0  0  0  0  0  0  0  0  0  0  0
   -2.0784   -0.0362    2.5924 C   0  0  0  0  0  0  0  0  0  0  0  0
   -2.5895    0.9287    3.4577 C   0  0  0  0  0  0  0  0  0  0  0  0
   -3.4815    0.5497    4.4353 C   0  0  0  0  0  0  0  0  0  0  0  0
   -3.8682   -0.7315    4.5714 N   0  0  0  0  0  0  0  0  0  0  0  0
   -3.3879   -1.7035    3.7408 C   0  0  0  0  0  0  0  0  0  0  0  0
   -2.4866   -1.3700    2.7396 C   0  0  0  0  0  0  0  0  0  0  0  0
    1.1094    7.8218    0.2147 N   0  0  0  0  0  0  0  0  0  0  0  0
    2.1971    7.2640    2.6227 H   0  0  0  0  0  0  0  0  0  0  0  0
    3.8042    6.8991    1.8315 H   0  0  0  0  0  0  0  0  0  0  0  0
    1.9783    5.8305   -2.2067 H   0  0  0  0  0  0  0  0  0  0  0  0
    0.5003    6.2808   -1.3149 H   0  0  0  0  0  0  0  0  0  0  0  0
    0.1524    4.0834   -2.3379 H   0  0  0  0  0  0  0  0  0  0  0  0
    0.2096    3.9169   -0.5465 H   0  0  0  0  0  0  0  0  0  0  0  0
    2.5720    3.1711   -0.6314 H   0  0  0  0  0  0  0  0  0  0  0  0
    2.5351    3.3361   -2.3993 H   0  0  0  0  0  0  0  0  0  0  0  0
    0.8680    1.5724   -2.6174 H   0  0  0  0  0  0  0  0  0  0  0  0
    2.0850   -0.4730   -0.0045 H   0  0  0  0  0  0  0  0  0  0  0  0
    4.4403   -0.7958   -1.9000 H   0  0  0  0  0  0  0  0  0  0  0  0
    5.2934   -3.4226   -2.2325 H   0  0  0  0  0  0  0  0  0  0  0  0
    4.4320   -4.5397   -1.1630 H   0  0  0  0  0  0  0  0  0  0  0  0
    4.3745   -1.0647    1.1586 H   0  0  0  0  0  0  0  0  0  0  0  0
    5.1784    0.1694    0.0794 H   0  0  0  0  0  0  0  0  0  0  0  0
    7.5167   -0.3686   -0.8640 H   0  0  0  0  0  0  0  0  0  0  0  0
    9.2648   -2.2914   -0.4990 H   0  0  0  0  0  0  0  0  0  0  0  0
    4.5544   -3.5948    1.5882 H   0  0  0  0  0  0  0  0  0  0  0  0
    5.4476   -5.7631    2.3691 H   0  0  0  0  0  0  0  0  0  0  0  0
    7.8558   -6.3328    1.8888 H   0  0  0  0  0  0  0  0  0  0  0  0
    9.2256   -4.7692    0.6932 H   0  0  0  0  0  0  0  0  0  0  0  0
    0.8089    1.5321    0.4281 H   0  0  0  0  0  0  0  0  0  0  0  0
   -2.1660    1.7287    0.4305 H   0  0  0  0  0  0  0  0  0  0  0  0
   -3.7291   -0.0486    0.7835 H   0  0  0  0  0  0  0  0  0  0  0  0
   -4.7347   -2.3270   -1.2634 H   0  0  0  0  0  0  0  0  0  0  0  0
   -4.9893   -0.9679   -3.3947 H   0  0  0  0  0  0  0  0  0  0  0  0
   -5.7356    0.3331   -2.3812 H   0  0  0  0  0  0  0  0  0  0  0  0
   -7.4220   -2.6171   -1.0056 H   0  0  0  0  0  0  0  0  0  0  0  0
   -9.7480   -2.9675   -2.0754 H   0  0  0  0  0  0  0  0  0  0  0  0
   -7.5348   -0.3328   -4.5121 H   0  0  0  0  0  0  0  0  0  0  0  0
   -6.0120    0.0905   -0.0102 H   0  0  0  0  0  0  0  0  0  0  0  0
   -7.6297   -1.6074    2.0819 H   0  0  0  0  0  0  0  0  0  0  0  0
   -6.1696   -1.5333    3.1900 H   0  0  0  0  0  0  0  0  0  0  0  0
   -6.6028   -0.0707    2.1513 H   0  0  0  0  0  0  0  0  0  0  0  0
   -0.5454    1.1403    1.8488 H   0  0  0  0  0  0  0  0  0  0  0  0
   -0.3468   -0.5478    1.4050 H   0  0  0  0  0  0  0  0  0  0  0  0
   -2.2636    1.9744    3.3338 H   0  0  0  0  0  0  0  0  0  0  0  0
   -3.8983    1.2692    5.1211 H   0  0  0  0  0  0  0  0  0  0  0  0
   -3.7229   -2.7128    3.8834 H   0  0  0  0  0  0  0  0  0  0  0  0
   -2.1009   -2.1347    2.0756 H   0  0  0  0  0  0  0  0  0  0  0  0
    1.4553    8.6778   -0.2649 H   0  0  0  0  0  0  0  0  0  0  0  0
    0.0923    7.7182    0.4346 H   0  0  0  0  0  0  0  0  0  0  0  0
  1  2  1  0
  2  3  2  3
  3  4  1  0
  4  5  1  0
  5  6  1  0
  6  7  1  0
  7  8  1  0
  8  9  2  0
  8 10  1  0
 10 11  1  0
 11 12  1  0
 12 13  2  0
 12 14  1  0
 11 15  1  0
 15 16  1  0
 16 17  2  0
 17 18  1  0
 18 19  1  0
 19 20  2  0
 20 21  1  0
 21 22  2  0
 22 23  1  0
 23 24  2  0
  7 25  1  0
 25 26  1  0
 26 27  2  0
 26 28  1  0
 28 29  1  0
 29 30  1  0
 30 31  2  0
 30 32  1  0
 32 33  1  0
 33 34  1  0
 34 35  1  0
 35 36  1  0
 36 37  2  0
 37 38  1  0
 32 39  1  0
 39 40  1  0
 40 41  2  0
 40 42  1  0
 28 43  1  0
 43 44  1  0
 44 45  2  0
 45 46  1  0
 46 47  2  0
 47 48  1  0
 48 49  2  0
  2 50  1  0
 20 16  1  0
 38 34  2  0
 49 44  1  0
 24 19  1  0
  1 51  1  0
  1 52  1  0
  4 53  1  0
  4 54  1  0
  5 55  1  0
  5 56  1  0
  6 57  1  0
  6 58  1  0
  7 59  1  6
 10 60  1  0
 11 61  1  6
 14 62  1  0
 14 63  1  0
 15 64  1  0
 15 65  1  0
 17 66  1  0
 18 67  1  0
 21 68  1  0
 22 69  1  0
 23 70  1  0
 24 71  1  0
 25 72  1  0
 28 73  1  1
 29 74  1  0
 32 75  1  6
 33 76  1  0
 33 77  1  0
 35 78  1  0
 36 79  1  0
 38 80  1  0
 39 81  1  0
 42 82  1  0
 42 83  1  0
 42 84  1  0
 43 85  1  0
 43 86  1  0
 45 87  1  0
 46 88  1  0
 48 89  1  0
 49 90  1  0
 50 91  1  0
 50 92  1  0
M  END
>  <Ligand ID>  (1) 
LIG0001419

>  <Ligand>  (1) 
CHEMBL430489

>  <SMILES>  (1) 
NC(=NCCC[C@@H](C(=O)N[C@H](C(=O)N)Cc1c[nH]c2c1cccc2)NC(=O)[C@@H](NC(=O)[C@H](Cc1[nH]cnc1)NC(=O)C)Cc1ccncc1)N

>  <CID>  (1) 
11814465.0

>  <ChEMBL ID>  (1) 
nan

>  <InChiKey>  (1) 
JNZPDTSWERXJKG-LJWNLINESA-N

>  <InChi>  (1) 
InChI=1S/C33H42N12O5/c1-19(46)42-28(15-22-17-38-18-41-22)32(50)45-27(13-20-8-11-37-12-9-20)31(49)43-25(7-4-10-39-33(35)36)30(48)44-26(29(34)47)14-21-16-40-24-6-3-2-5-23(21)24/h2-3,5-6,8-9,11-12,16-18,25-28,40H,4,7,10,13-15H2,1H3,(H2,34,47)(H,38,41)(H,42,46)(H,43,49)(H,44,48)(H,45,50)(H4,35,36,39)/t25-,26-,27-,28-/m0/s1

>  <IUPAC Name>  (1) 
(2S)-2-[[(2S)-2-[[(2S)-2-acetamido-3-(1H-imidazol-5-yl)propanoyl]amino]-3-pyridin-4-ylpropanoyl]amino]-N-[(2S)-1-amino-3-(1H-indol-3-yl)-1-oxopropan-2-yl]-5-(diaminomethylideneamino)pentanamide

$$$$
