
     RDKit          3D

 49 52  0  0  0  0  0  0  0  0999 V2000
    6.6669    4.1092   -1.9232 N   0  0  0  0  0  0  0  0  0  0  0  0
    6.4687    3.0318   -1.5719 C   0  0  0  0  0  0  0  0  0  0  0  0
    6.2072    1.6827   -1.1396 C   0  0  0  0  0  0  0  0  0  0  0  0
    7.2781    0.8385   -0.9948 C   0  0  0  0  0  0  0  0  0  0  0  0
    7.1051   -0.4501   -0.5897 C   0  0  0  0  0  0  0  0  0  0  0  0
    5.8017   -0.8769   -0.3287 C   0  0  0  0  0  0  0  0  0  0  0  0
    4.7297   -0.0192   -0.4774 C   0  0  0  0  0  0  0  0  0  0  0  0
    4.9104    1.2849   -0.8880 C   0  0  0  0  0  0  0  0  0  0  0  0
    3.3938   -0.5284   -0.1883 C   0  0  0  0  0  0  0  0  0  0  0  0
    3.1563   -1.7692    0.2090 O   0  0  0  0  0  0  0  0  0  0  0  0
    1.8575   -1.9088    0.3833 N   0  0  0  0  0  0  0  0  0  0  0  0
    1.2561   -0.7543    0.0973 C   0  0  0  0  0  0  0  0  0  0  0  0
    2.2270    0.1276   -0.2668 N   0  0  0  0  0  0  0  0  0  0  0  0
   -0.1755   -0.4670    0.1567 C   0  0  0  0  0  0  0  0  0  0  0  0
   -1.0513   -1.4813    0.3962 C   0  0  0  0  0  0  0  0  0  0  0  0
   -2.4153   -1.2846    0.4659 C   0  0  0  0  0  0  0  0  0  0  0  0
   -2.8968   -0.0062    0.2841 C   0  0  0  0  0  0  0  0  0  0  0  0
   -2.0077    1.0187    0.0418 C   0  0  0  0  0  0  0  0  0  0  0  0
   -0.6427    0.8162   -0.0270 C   0  0  0  0  0  0  0  0  0  0  0  0
   -2.7590    2.2904   -0.1185 C   0  0  0  0  0  0  0  0  0  0  0  0
   -4.1769    1.9802    0.2499 C   0  0  0  0  0  0  0  0  0  0  0  0
   -4.2083    0.5419    0.2898 N   0  0  0  0  0  0  0  0  0  0  0  0
   -5.3955   -0.2325    0.3298 C   0  0  0  0  0  0  0  0  0  0  0  0
   -5.2844   -1.4930    0.3625 O   0  0  0  0  0  0  0  0  0  0  0  0
   -6.7446    0.3386    0.3355 C   0  0  0  0  0  0  0  0  0  0  0  0
   -7.8264   -0.7115    0.3810 C   0  0  0  0  0  0  0  0  0  0  0  0
   -7.7551   -1.6229   -0.7971 C   0  0  0  0  0  0  0  0  0  0  0  0
   -8.5882   -2.5804   -0.9400 O   0  0  0  0  0  0  0  0  0  0  0  0
   -6.7981   -1.4924   -1.7941 O   0  0  0  0  0  0  0  0  0  0  0  0
    8.1804   -1.3157   -0.4389 O   0  0  0  0  0  0  0  0  0  0  0  0
    8.8997   -1.4636    0.7721 C   0  0  0  0  0  0  0  0  0  0  0  0
    8.0713   -1.8924    1.7984 F   0  0  0  0  0  0  0  0  0  0  0  0
    9.8981   -2.4062    0.5244 F   0  0  0  0  0  0  0  0  0  0  0  0
    9.4799   -0.2489    1.0577 F   0  0  0  0  0  0  0  0  0  0  0  0
    8.2868    1.1761   -1.1990 H   0  0  0  0  0  0  0  0  0  0  0  0
    5.6759   -1.9156   -0.0035 H   0  0  0  0  0  0  0  0  0  0  0  0
    4.0791    1.9784   -1.0119 H   0  0  0  0  0  0  0  0  0  0  0  0
   -0.6521   -2.4805    0.5365 H   0  0  0  0  0  0  0  0  0  0  0  0
   -3.0552   -2.1309    0.6589 H   0  0  0  0  0  0  0  0  0  0  0  0
    0.0487    1.6248   -0.2175 H   0  0  0  0  0  0  0  0  0  0  0  0
   -2.2897    3.0052    0.6144 H   0  0  0  0  0  0  0  0  0  0  0  0
   -2.6334    2.7148   -1.1290 H   0  0  0  0  0  0  0  0  0  0  0  0
   -4.9006    2.3085   -0.5508 H   0  0  0  0  0  0  0  0  0  0  0  0
   -4.4555    2.3805    1.2363 H   0  0  0  0  0  0  0  0  0  0  0  0
   -6.9148    1.0455    1.1513 H   0  0  0  0  0  0  0  0  0  0  0  0
   -6.8875    0.8899   -0.6275 H   0  0  0  0  0  0  0  0  0  0  0  0
   -8.8022   -0.1501    0.3260 H   0  0  0  0  0  0  0  0  0  0  0  0
   -7.8416   -1.2755    1.3280 H   0  0  0  0  0  0  0  0  0  0  0  0
   -6.5202   -2.2262   -2.4255 H   0  0  0  0  0  0  0  0  0  0  0  0
  1  2  3  0
  2  3  1  0
  3  4  2  0
  4  5  1  0
  5  6  2  0
  6  7  1  0
  7  8  2  0
  7  9  1  0
  9 10  1  0
 10 11  1  0
 11 12  2  0
 12 13  1  0
 12 14  1  0
 14 15  2  0
 15 16  1  0
 16 17  2  0
 17 18  1  0
 18 19  2  0
 18 20  1  0
 20 21  1  0
 21 22  1  0
 22 23  1  0
 23 24  2  0
 23 25  1  0
 25 26  1  0
 26 27  1  0
 27 28  2  0
 27 29  1  0
  5 30  1  0
 30 31  1  0
 31 32  1  0
 31 33  1  0
 31 34  1  0
  8  3  1  0
 13  9  2  0
 19 14  1  0
 22 17  1  0
  4 35  1  0
  6 36  1  0
  8 37  1  0
 15 38  1  0
 16 39  1  0
 19 40  1  0
 20 41  1  0
 20 42  1  0
 21 43  1  0
 21 44  1  0
 25 45  1  0
 25 46  1  0
 26 47  1  0
 26 48  1  0
 29 49  1  0
M  END
>  <Ligand ID>  (1) 
LIG0000676

>  <Ligand>  (1) 
CHEMBL1916399

>  <SMILES>  (1) 
N#Cc1cc(cc(c1)c1onc(n1)c1ccc2c(c1)CCN2C(=O)CCC(=O)O)OC(F)(F)F

>  <CID>  (1) 
44517795.0

>  <ChEMBL ID>  (1) 
nan

>  <InChiKey>  (1) 
ASJOLIPQCOYRPT-UHFFFAOYSA-N

>  <InChi>  (1) 
InChI=1S/C22H15F3N4O5/c23-22(24,25)33-16-8-12(11-26)7-15(10-16)21-27-20(28-34-21)14-1-2-17-13(9-14)5-6-29(17)18(30)3-4-19(31)32/h1-2,7-10H,3-6H2,(H,31,32)

>  <IUPAC Name>  (1) 
4-[5-[5-[3-cyano-5-(trifluoromethoxy)phenyl]-1,2,4-oxadiazol-3-yl]-2,3-dihydroindol-1-yl]-4-oxobutanoic acid

$$$$
