
     RDKit          3D

 73 76  0  0  0  0  0  0  0  0999 V2000
    8.1992    0.0223   -2.8297 O   0  0  0  0  0  0  0  0  0  0  0  0
    7.5303    0.0586   -1.6094 C   0  0  0  0  0  0  0  0  0  0  0  0
    7.1995   -1.1061   -0.9332 C   0  0  0  0  0  0  0  0  0  0  0  0
    6.5326   -1.0393    0.2814 C   0  0  0  0  0  0  0  0  0  0  0  0
    6.1791    0.1886    0.8514 C   0  0  0  0  0  0  0  0  0  0  0  0
    6.5235    1.3211    0.1528 C   0  0  0  0  0  0  0  0  0  0  0  0
    7.1863    1.2850   -1.0558 C   0  0  0  0  0  0  0  0  0  0  0  0
    6.1485    2.6462    0.7618 C   0  0  0  0  0  0  0  0  0  0  0  0
    4.3680    2.5034    1.1058 S   0  0  0  0  0  0  0  0  0  0  0  0
    3.6955    2.3277   -0.2666 O   0  0  0  0  0  0  0  0  0  0  0  0
    4.1670    0.9513    1.9882 C   0  0  2  0  0  0  0  0  0  0  0  0
    5.4664    0.2388    2.1497 C   0  0  0  0  0  0  0  0  0  0  0  0
    3.2121    0.0234    1.2435 C   0  0  0  0  0  0  0  0  0  0  0  0
    3.7311   -1.0705    0.9364 O   0  0  0  0  0  0  0  0  0  0  0  0
    1.9420    0.4956    1.0131 N   0  0  0  0  0  0  0  0  0  0  0  0
    0.7902   -0.0802    0.3312 C   0  0  1  0  0  0  0  0  0  0  0  0
    1.0438   -1.4776   -0.1590 C   0  0  0  0  0  0  0  0  0  0  0  0
    2.1295   -1.4367   -1.2202 C   0  0  0  0  0  0  0  0  0  0  0  0
   -0.1262   -2.1963   -0.7288 C   0  0  0  0  0  0  0  0  0  0  0  0
   -0.3850    0.1087    1.1976 C   0  0  0  0  0  0  0  0  0  0  0  0
   -1.6014   -0.3689    0.6037 N   0  0  0  0  0  0  0  0  0  0  0  0
   -2.6804   -0.3231    1.6252 C   0  0  0  0  0  0  0  0  0  0  0  0
   -3.7268   -1.2441    1.0420 C   0  0  0  0  0  0  0  0  0  0  0  0
   -4.1553   -0.8211   -0.3257 C   0  0  1  0  0  0  0  0  0  0  0  0
   -3.1821   -0.1471   -1.1959 C   0  0  2  0  0  0  0  0  0  0  0  0
   -2.0212    0.4710   -0.5093 C   0  0  0  0  0  0  0  0  0  0  0  0
   -3.8506    0.8435   -2.1557 C   0  0  0  0  0  0  0  0  0  0  0  0
   -4.5875   -2.1543   -1.0158 C   0  0  0  0  0  0  0  0  0  0  0  0
   -5.4333   -0.0533   -0.1329 C   0  0  0  0  0  0  0  0  0  0  0  0
   -6.6707   -0.6966   -0.2146 C   0  0  0  0  0  0  0  0  0  0  0  0
   -7.8624   -0.0322   -0.0372 C   0  0  0  0  0  0  0  0  0  0  0  0
   -7.8702    1.3192    0.2326 C   0  0  0  0  0  0  0  0  0  0  0  0
   -6.6685    1.9868    0.3205 C   0  0  0  0  0  0  0  0  0  0  0  0
   -5.4688    1.2908    0.1367 C   0  0  0  0  0  0  0  0  0  0  0  0
   -6.6550    3.3624    0.5944 O   0  0  0  0  0  0  0  0  0  0  0  0
    9.1669   -0.2769   -2.8210 H   0  0  0  0  0  0  0  0  0  0  0  0
    7.4712   -2.0679   -1.3696 H   0  0  0  0  0  0  0  0  0  0  0  0
    6.3076   -1.9808    0.7546 H   0  0  0  0  0  0  0  0  0  0  0  0
    7.4551    2.1842   -1.6018 H   0  0  0  0  0  0  0  0  0  0  0  0
    6.6931    2.7780    1.7304 H   0  0  0  0  0  0  0  0  0  0  0  0
    6.3688    3.4896    0.0910 H   0  0  0  0  0  0  0  0  0  0  0  0
    3.7524    1.1739    3.0007 H   0  0  0  0  0  0  0  0  0  0  0  0
    6.0752    0.7618    2.9374 H   0  0  0  0  0  0  0  0  0  0  0  0
    5.2131   -0.8038    2.4931 H   0  0  0  0  0  0  0  0  0  0  0  0
    1.7184    1.4852    1.3989 H   0  0  0  0  0  0  0  0  0  0  0  0
    0.7849    0.4979   -0.6591 H   0  0  0  0  0  0  0  0  0  0  0  0
    1.3942   -2.1180    0.7132 H   0  0  0  0  0  0  0  0  0  0  0  0
    2.7786   -2.3119   -1.1480 H   0  0  0  0  0  0  0  0  0  0  0  0
    2.5987   -0.4503   -1.3172 H   0  0  0  0  0  0  0  0  0  0  0  0
    1.6203   -1.5892   -2.2449 H   0  0  0  0  0  0  0  0  0  0  0  0
   -0.5617   -1.7139   -1.6169 H   0  0  0  0  0  0  0  0  0  0  0  0
   -0.8515   -2.4390    0.0624 H   0  0  0  0  0  0  0  0  0  0  0  0
    0.2896   -3.2236   -1.0354 H   0  0  0  0  0  0  0  0  0  0  0  0
   -0.4861    1.1731    1.5560 H   0  0  0  0  0  0  0  0  0  0  0  0
   -0.2310   -0.5249    2.1202 H   0  0  0  0  0  0  0  0  0  0  0  0
   -2.2253   -0.7283    2.5437 H   0  0  0  0  0  0  0  0  0  0  0  0
   -3.0772    0.6923    1.7375 H   0  0  0  0  0  0  0  0  0  0  0  0
   -3.1899   -2.2342    0.9291 H   0  0  0  0  0  0  0  0  0  0  0  0
   -4.5620   -1.3688    1.7472 H   0  0  0  0  0  0  0  0  0  0  0  0
   -2.7289   -0.9420   -1.8824 H   0  0  0  0  0  0  0  0  0  0  0  0
   -1.1472    0.6296   -1.1856 H   0  0  0  0  0  0  0  0  0  0  0  0
   -2.2916    1.4918   -0.1581 H   0  0  0  0  0  0  0  0  0  0  0  0
   -3.4385    0.6405   -3.1607 H   0  0  0  0  0  0  0  0  0  0  0  0
   -3.5616    1.8955   -1.9318 H   0  0  0  0  0  0  0  0  0  0  0  0
   -4.9196    0.6438   -2.1739 H   0  0  0  0  0  0  0  0  0  0  0  0
   -5.2341   -1.9543   -1.8698 H   0  0  0  0  0  0  0  0  0  0  0  0
   -4.9873   -2.8494   -0.2586 H   0  0  0  0  0  0  0  0  0  0  0  0
   -3.6518   -2.5924   -1.4186 H   0  0  0  0  0  0  0  0  0  0  0  0
   -6.7253   -1.7526   -0.4230 H   0  0  0  0  0  0  0  0  0  0  0  0
   -8.8048   -0.5567   -0.1064 H   0  0  0  0  0  0  0  0  0  0  0  0
   -8.7989    1.8601    0.3757 H   0  0  0  0  0  0  0  0  0  0  0  0
   -4.5804    1.8667    0.2224 H   0  0  0  0  0  0  0  0  0  0  0  0
   -6.7325    4.0177   -0.1790 H   0  0  0  0  0  0  0  0  0  0  0  0
  1  2  1  0
  2  3  2  0
  3  4  1  0
  4  5  2  0
  5  6  1  0
  6  7  2  0
  6  8  1  0
  8  9  1  0
  9 10  2  0
  9 11  1  0
 11 12  1  0
 11 13  1  0
 13 14  2  0
 13 15  1  0
 15 16  1  0
 16 17  1  0
 17 18  1  0
 17 19  1  0
 16 20  1  0
 20 21  1  0
 21 22  1  0
 22 23  1  0
 23 24  1  0
 24 25  1  0
 25 26  1  0
 25 27  1  0
 24 28  1  6
 24 29  1  0
 29 30  2  0
 30 31  1  0
 31 32  2  0
 32 33  1  0
 33 34  2  0
 33 35  1  0
  7  2  1  0
 26 21  1  0
 34 29  1  0
 12  5  1  0
  1 36  1  0
  3 37  1  0
  4 38  1  0
  7 39  1  0
  8 40  1  0
  8 41  1  0
 11 42  1  1
 12 43  1  0
 12 44  1  0
 15 45  1  0
 16 46  1  6
 17 47  1  0
 18 48  1  0
 18 49  1  0
 18 50  1  0
 19 51  1  0
 19 52  1  0
 19 53  1  0
 20 54  1  0
 20 55  1  0
 22 56  1  0
 22 57  1  0
 23 58  1  0
 23 59  1  0
 25 60  1  6
 26 61  1  0
 26 62  1  0
 27 63  1  0
 27 64  1  0
 27 65  1  0
 28 66  1  0
 28 67  1  0
 28 68  1  0
 30 69  1  0
 31 70  1  0
 32 71  1  0
 34 72  1  0
 35 73  1  0
M  END
>  <Ligand ID>  (1) 
LIG0002305

>  <Ligand>  (1) 
CHEMBL1083372

>  <SMILES>  (1) 
Oc1ccc2c(c1)CS(=O)[C@H](C2)C(=O)N[C@@H](C(C)C)CN1CC[C@@]([C@H](C1)C)(C)c1cccc(c1)O

>  <CID>  (1) 
11562377.0

>  <ChEMBL ID>  (1) 
nan

>  <InChiKey>  (1) 
UDCUABBHLILTLQ-CPTSUUKUSA-N

>  <InChi>  (1) 
InChI=1S/C28H38N2O4S/c1-18(2)25(29-27(33)26-13-20-8-9-24(32)12-21(20)17-35(26)34)16-30-11-10-28(4,19(3)15-30)22-6-5-7-23(31)14-22/h5-9,12,14,18-19,25-26,31-32H,10-11,13,15-17H2,1-4H3,(H,29,33)/t19-,25+,26+,28+,35?/m0/s1

>  <IUPAC Name>  (1) 
(3R)-7-hydroxy-N-[(2S)-1-[(3R,4R)-4-(3-hydroxyphenyl)-3,4-dimethylpiperidin-1-yl]-3-methylbutan-2-yl]-2-oxo-3,4-dihydro-1H-isothiochromene-3-carboxamide

$$$$
