
     RDKit          3D

 56 59  0  0  0  0  0  0  0  0999 V2000
   -2.9233    5.0426    0.7930 C   0  0  0  0  0  0  0  0  0  0  0  0
   -1.9556    4.3998   -0.1818 C   0  0  0  0  0  0  0  0  0  0  0  0
   -2.0448    2.9903    0.0524 O   0  0  0  0  0  0  0  0  0  0  0  0
   -1.2863    2.1043   -0.6741 C   0  0  0  0  0  0  0  0  0  0  0  0
   -0.4920    2.5082   -1.5657 O   0  0  0  0  0  0  0  0  0  0  0  0
   -1.4431    0.6385   -0.3617 C   0  0  0  0  0  0  0  0  0  0  0  0
   -0.5117   -0.0757   -1.2901 C   0  0  0  0  0  0  0  0  0  0  0  0
    0.2614   -1.1341   -0.4930 C   0  0  0  0  0  0  0  0  0  0  0  0
    1.1099   -0.4151    0.4038 N   0  0  0  0  0  0  0  0  0  0  0  0
    0.4431    0.5172    1.2509 C   0  0  0  0  0  0  0  0  0  0  0  0
   -1.0618    0.4331    1.0842 C   0  0  0  0  0  0  0  0  0  0  0  0
    2.0932   -1.2314    1.0496 C   0  0  0  0  0  0  0  0  0  0  0  0
    2.9588   -1.8516    0.0159 C   0  0  0  0  0  0  0  0  0  0  0  0
    2.8173   -3.0517   -0.6499 C   0  0  0  0  0  0  0  0  0  0  0  0
    3.8697   -3.2145   -1.5274 C   0  0  0  0  0  0  0  0  0  0  0  0
    4.6536   -2.0877   -1.3805 C   0  0  0  0  0  0  0  0  0  0  0  0
    4.1012   -1.2794   -0.4563 N   0  0  0  0  0  0  0  0  0  0  0  0
    4.6197   -0.0222   -0.0307 C   0  0  0  0  0  0  0  0  0  0  0  0
    5.8427    0.3100    0.1571 N   0  0  0  0  0  0  0  0  0  0  0  0
    6.2388    1.4868    0.5493 C   0  0  0  0  0  0  0  0  0  0  0  0
    5.2038    2.4074    0.7626 C   0  0  0  0  0  0  0  0  0  0  0  0
    3.6992    1.4406    0.3586 S   0  0  0  0  0  0  0  0  0  0  0  0
   -2.8944    0.3296   -0.5719 C   0  0  0  0  0  0  0  0  0  0  0  0
   -3.2697   -1.0717   -0.3170 C   0  0  0  0  0  0  0  0  0  0  0  0
   -3.2561   -2.0665   -1.2707 C   0  0  0  0  0  0  0  0  0  0  0  0
   -3.6122   -3.3582   -0.9946 C   0  0  0  0  0  0  0  0  0  0  0  0
   -4.0072   -3.7241    0.2758 C   0  0  0  0  0  0  0  0  0  0  0  0
   -4.0341   -2.7430    1.2710 C   0  0  0  0  0  0  0  0  0  0  0  0
   -3.6688   -1.4488    0.9599 C   0  0  0  0  0  0  0  0  0  0  0  0
   -3.1060    6.1146    0.5336 H   0  0  0  0  0  0  0  0  0  0  0  0
   -2.4876    4.9001    1.7979 H   0  0  0  0  0  0  0  0  0  0  0  0
   -3.8501    4.4328    0.7563 H   0  0  0  0  0  0  0  0  0  0  0  0
   -0.9107    4.7319    0.0013 H   0  0  0  0  0  0  0  0  0  0  0  0
   -2.1862    4.6227   -1.2402 H   0  0  0  0  0  0  0  0  0  0  0  0
   -0.9718   -0.4768   -2.2007 H   0  0  0  0  0  0  0  0  0  0  0  0
    0.3093    0.6025   -1.6684 H   0  0  0  0  0  0  0  0  0  0  0  0
    0.8846   -1.6454   -1.2527 H   0  0  0  0  0  0  0  0  0  0  0  0
   -0.4216   -1.8337    0.0269 H   0  0  0  0  0  0  0  0  0  0  0  0
    0.6782    0.4165    2.3307 H   0  0  0  0  0  0  0  0  0  0  0  0
    0.7263    1.5479    0.9323 H   0  0  0  0  0  0  0  0  0  0  0  0
   -1.5419    1.2215    1.6740 H   0  0  0  0  0  0  0  0  0  0  0  0
   -1.3477   -0.5948    1.4102 H   0  0  0  0  0  0  0  0  0  0  0  0
    2.6474   -0.6664    1.7961 H   0  0  0  0  0  0  0  0  0  0  0  0
    1.5936   -2.0817    1.6006 H   0  0  0  0  0  0  0  0  0  0  0  0
    1.9730   -3.7242   -0.4611 H   0  0  0  0  0  0  0  0  0  0  0  0
    4.0344   -4.0429   -2.1798 H   0  0  0  0  0  0  0  0  0  0  0  0
    5.5867   -1.8382   -1.9059 H   0  0  0  0  0  0  0  0  0  0  0  0
    7.2677    1.7844    0.7129 H   0  0  0  0  0  0  0  0  0  0  0  0
    5.2028    3.4630    1.0896 H   0  0  0  0  0  0  0  0  0  0  0  0
   -3.4790    1.0358    0.0480 H   0  0  0  0  0  0  0  0  0  0  0  0
   -3.1382    0.6349   -1.6310 H   0  0  0  0  0  0  0  0  0  0  0  0
   -2.9551   -1.8254   -2.2733 H   0  0  0  0  0  0  0  0  0  0  0  0
   -3.6064   -4.1573   -1.7399 H   0  0  0  0  0  0  0  0  0  0  0  0
   -4.2987   -4.7164    0.5610 H   0  0  0  0  0  0  0  0  0  0  0  0
   -4.3402   -3.0038    2.2760 H   0  0  0  0  0  0  0  0  0  0  0  0
   -3.7137   -0.7344    1.7868 H   0  0  0  0  0  0  0  0  0  0  0  0
  1  2  1  0
  2  3  1  0
  3  4  1  0
  4  5  2  0
  4  6  1  0
  6  7  1  0
  7  8  1  0
  8  9  1  0
  9 10  1  0
 10 11  1  0
  9 12  1  0
 12 13  1  0
 13 14  2  0
 14 15  1  0
 15 16  2  0
 16 17  1  0
 17 18  1  0
 18 19  2  0
 19 20  1  0
 20 21  2  0
 21 22  1  0
  6 23  1  0
 23 24  1  0
 24 25  2  0
 25 26  1  0
 26 27  2  0
 27 28  1  0
 28 29  2  0
 11  6  1  0
 17 13  1  0
 22 18  1  0
 29 24  1  0
  1 30  1  0
  1 31  1  0
  1 32  1  0
  2 33  1  0
  2 34  1  0
  7 35  1  0
  7 36  1  0
  8 37  1  0
  8 38  1  0
 10 39  1  0
 10 40  1  0
 11 41  1  0
 11 42  1  0
 12 43  1  0
 12 44  1  0
 14 45  1  0
 15 46  1  0
 16 47  1  0
 20 48  1  0
 21 49  1  0
 23 50  1  0
 23 51  1  0
 25 52  1  0
 26 53  1  0
 27 54  1  0
 28 55  1  0
 29 56  1  0
M  END
>  <Ligand ID>  (1) 
LIG0004436

>  <Ligand>  (1) 
MLS000733812

>  <SMILES>  (1) 
CCOC(=O)C1(CCN(CC1)Cc1cccn1c1nccs1)Cc1ccccc1

>  <CID>  (1) 
16191792.0

>  <ChEMBL ID>  (1) 
nan

>  <InChiKey>  (1) 
WEUCOGAOZHFURB-UHFFFAOYSA-N

>  <InChi>  (1) 
InChI=1S/C23H27N3O2S/c1-2-28-21(27)23(17-19-7-4-3-5-8-19)10-14-25(15-11-23)18-20-9-6-13-26(20)22-24-12-16-29-22/h3-9,12-13,16H,2,10-11,14-15,17-18H2,1H3

>  <IUPAC Name>  (1) 
ethyl 4-benzyl-1-[[1-(1,3-thiazol-2-yl)pyrrol-2-yl]methyl]piperidine-4-carboxylate

$$$$
