
     RDKit          3D

 53 54  0  0  0  0  0  0  0  0999 V2000
   -9.3767   -0.2919   -0.0181 O   0  0  0  0  0  0  0  0  0  0  0  0
   -8.1693    0.3433   -0.2055 C   0  0  0  0  0  0  0  0  0  0  0  0
   -8.0515    1.0757   -1.2324 O   0  0  0  0  0  0  0  0  0  0  0  0
   -7.0195    0.2140    0.7204 C   0  0  0  0  0  0  0  0  0  0  0  0
   -5.9538   -0.6690    0.0676 C   0  0  0  0  0  0  0  0  0  0  0  0
   -5.5020   -0.0806   -1.1773 N   0  0  0  0  0  0  0  0  0  0  0  0
   -4.7318    1.0848   -1.0718 C   0  0  0  0  0  0  0  0  0  0  0  0
   -3.3443    0.9515   -0.6560 C   0  0  0  0  0  0  0  0  0  0  0  0
   -2.5941   -0.0975   -0.4856 C   0  0  0  0  0  0  0  0  0  0  0  0
   -1.1816   -0.0241   -0.0389 C   0  0  0  0  0  0  0  0  0  0  0  0
   -0.4580   -1.1799    0.2087 C   0  0  0  0  0  0  0  0  0  0  0  0
    0.8559   -1.1416    0.6027 C   0  0  0  0  0  0  0  0  0  0  0  0
    1.5450    0.0729    0.7793 C   0  0  0  0  0  0  0  0  0  0  0  0
    0.8166    1.2029    0.5320 C   0  0  0  0  0  0  0  0  0  0  0  0
   -0.5239    1.1687    0.1290 C   0  0  0  0  0  0  0  0  0  0  0  0
    2.8291   -0.0186    1.1698 O   0  0  0  0  0  0  0  0  0  0  0  0
    3.8270    0.8702    1.4298 C   0  0  0  0  0  0  0  0  0  0  0  0
    4.2469    1.6833    0.2548 C   0  0  0  0  0  0  0  0  0  0  0  0
    4.7468    0.8359   -0.8948 C   0  0  0  0  0  0  0  0  0  0  0  0
    5.9184    0.0014   -0.5313 C   0  0  0  0  0  0  0  0  0  0  0  0
    5.7090   -1.2787   -0.0284 C   0  0  0  0  0  0  0  0  0  0  0  0
    6.7738   -2.1043    0.3249 C   0  0  0  0  0  0  0  0  0  0  0  0
    8.0514   -1.6163    0.1619 C   0  0  0  0  0  0  0  0  0  0  0  0
    8.2404   -0.3455   -0.3386 C   0  0  0  0  0  0  0  0  0  0  0  0
    7.1977    0.4870   -0.6935 C   0  0  0  0  0  0  0  0  0  0  0  0
   -3.0593   -1.4743   -0.8426 C   0  0  0  0  0  0  0  0  0  0  0  0
   -9.9385   -0.6514   -0.7927 H   0  0  0  0  0  0  0  0  0  0  0  0
   -7.3889   -0.4027    1.5836 H   0  0  0  0  0  0  0  0  0  0  0  0
   -6.5896    1.1568    1.0478 H   0  0  0  0  0  0  0  0  0  0  0  0
   -5.1701   -0.7873    0.8050 H   0  0  0  0  0  0  0  0  0  0  0  0
   -6.4348   -1.6295   -0.1648 H   0  0  0  0  0  0  0  0  0  0  0  0
   -6.1733   -0.1756   -1.9413 H   0  0  0  0  0  0  0  0  0  0  0  0
   -4.7086    1.6732   -2.0496 H   0  0  0  0  0  0  0  0  0  0  0  0
   -5.3019    1.7897   -0.3905 H   0  0  0  0  0  0  0  0  0  0  0  0
   -2.8367    1.9263   -0.4424 H   0  0  0  0  0  0  0  0  0  0  0  0
   -0.8960   -2.1779    0.1137 H   0  0  0  0  0  0  0  0  0  0  0  0
    1.3887   -2.0883    0.7859 H   0  0  0  0  0  0  0  0  0  0  0  0
    1.2715    2.1701    0.6626 H   0  0  0  0  0  0  0  0  0  0  0  0
   -0.9766    2.1179   -0.0346 H   0  0  0  0  0  0  0  0  0  0  0  0
    4.6879    0.4047    1.9670 H   0  0  0  0  0  0  0  0  0  0  0  0
    3.4384    1.6213    2.1891 H   0  0  0  0  0  0  0  0  0  0  0  0
    3.4116    2.2708   -0.1375 H   0  0  0  0  0  0  0  0  0  0  0  0
    5.0294    2.4350    0.5353 H   0  0  0  0  0  0  0  0  0  0  0  0
    3.9027    0.2171   -1.2371 H   0  0  0  0  0  0  0  0  0  0  0  0
    5.0042    1.5428   -1.7108 H   0  0  0  0  0  0  0  0  0  0  0  0
    4.7223   -1.6978    0.1150 H   0  0  0  0  0  0  0  0  0  0  0  0
    6.6272   -3.0967    0.7141 H   0  0  0  0  0  0  0  0  0  0  0  0
    8.8706   -2.2638    0.4392 H   0  0  0  0  0  0  0  0  0  0  0  0
    9.2530    0.0134   -0.4586 H   0  0  0  0  0  0  0  0  0  0  0  0
    7.3340    1.4849   -1.0854 H   0  0  0  0  0  0  0  0  0  0  0  0
   -3.8302   -1.5029   -1.6196 H   0  0  0  0  0  0  0  0  0  0  0  0
   -3.2949   -1.9966    0.0968 H   0  0  0  0  0  0  0  0  0  0  0  0
   -2.1936   -2.0230   -1.3305 H   0  0  0  0  0  0  0  0  0  0  0  0
  1  2  1  0
  2  3  2  0
  2  4  1  0
  4  5  1  0
  5  6  1  0
  6  7  1  0
  7  8  1  0
  8  9  2  0
  9 10  1  0
 10 11  2  0
 11 12  1  0
 12 13  2  0
 13 14  1  0
 14 15  2  0
 13 16  1  0
 16 17  1  0
 17 18  1  0
 18 19  1  0
 19 20  1  0
 20 21  2  0
 21 22  1  0
 22 23  2  0
 23 24  1  0
 24 25  2  0
  9 26  1  0
 15 10  1  0
 25 20  1  0
  1 27  1  0
  4 28  1  0
  4 29  1  0
  5 30  1  0
  5 31  1  0
  6 32  1  0
  7 33  1  0
  7 34  1  0
  8 35  1  0
 11 36  1  0
 12 37  1  0
 14 38  1  0
 15 39  1  0
 17 40  1  0
 17 41  1  0
 18 42  1  0
 18 43  1  0
 19 44  1  0
 19 45  1  0
 21 46  1  0
 22 47  1  0
 23 48  1  0
 24 49  1  0
 25 50  1  0
 26 51  1  0
 26 52  1  0
 26 53  1  0
M  END
>  <Ligand ID>  (1) 
LIG0005566

>  <Ligand>  (1) 
CHEMBL1683047

>  <SMILES>  (1) 
OC(=O)CCNC/C=C(/c1ccc(cc1)OCCCc1ccccc1)\C

>  <CID>  (1) 
51346809.0

>  <ChEMBL ID>  (1) 
nan

>  <InChiKey>  (1) 
LPVUWRPVJHEUFU-QGOAFFKASA-N

>  <InChi>  (1) 
InChI=1S/C22H27NO3/c1-18(13-15-23-16-14-22(24)25)20-9-11-21(12-10-20)26-17-5-8-19-6-3-2-4-7-19/h2-4,6-7,9-13,23H,5,8,14-17H2,1H3,(H,24,25)/b18-13+

>  <IUPAC Name>  (1) 
3-[[(E)-3-[4-(3-phenylpropoxy)phenyl]but-2-enyl]amino]propanoic acid

$$$$
