
     RDKit          3D

 27 26  0  0  0  0  0  0  0  0999 V2000
    3.3942    0.5204   -0.5999 C   0  0  0  0  0  0  0  0  0  0  0  0
    2.5576    0.9243    0.5685 C   0  0  0  0  0  0  0  0  0  0  0  0
    1.0474    0.7180    0.2886 C   0  0  0  0  0  0  0  0  0  0  0  0
    0.8694   -0.7163    0.0137 C   0  0  0  0  0  0  0  0  0  0  0  0
   -0.4001   -1.3131   -0.3690 C   0  0  0  0  0  0  0  0  0  0  0  0
   -1.6205   -1.3225    0.4202 C   0  0  0  0  0  0  0  0  0  0  0  0
   -2.3713   -0.1291    0.8040 C   0  0  1  0  0  0  0  0  0  0  0  0
   -1.8318    0.8405    1.5694 O   0  0  0  0  0  0  0  0  0  0  0  0
   -3.0284    0.5731   -0.3876 C   0  0  0  0  0  0  0  0  0  0  0  0
    4.3918    1.0236   -0.4513 H   0  0  0  0  0  0  0  0  0  0  0  0
    2.9777    0.9001   -1.5706 H   0  0  0  0  0  0  0  0  0  0  0  0
    3.5901   -0.5544   -0.5823 H   0  0  0  0  0  0  0  0  0  0  0  0
    2.7840    0.2663    1.4261 H   0  0  0  0  0  0  0  0  0  0  0  0
    2.6893    1.9761    0.8719 H   0  0  0  0  0  0  0  0  0  0  0  0
    0.6179    1.0784    1.2632 H   0  0  0  0  0  0  0  0  0  0  0  0
    0.8083    1.3498   -0.5695 H   0  0  0  0  0  0  0  0  0  0  0  0
    1.3290   -1.3213    0.8614 H   0  0  0  0  0  0  0  0  0  0  0  0
    1.6046   -0.9532   -0.8350 H   0  0  0  0  0  0  0  0  0  0  0  0
   -0.1476   -2.4351   -0.5494 H   0  0  0  0  0  0  0  0  0  0  0  0
   -0.6258   -1.0403   -1.4763 H   0  0  0  0  0  0  0  0  0  0  0  0
   -2.4022   -2.0299   -0.0561 H   0  0  0  0  0  0  0  0  0  0  0  0
   -1.4541   -1.9024    1.4077 H   0  0  0  0  0  0  0  0  0  0  0  0
   -3.2823   -0.5108    1.3875 H   0  0  0  0  0  0  0  0  0  0  0  0
   -1.9593    1.7551    1.2526 H   0  0  0  0  0  0  0  0  0  0  0  0
   -3.8074    1.2361    0.0462 H   0  0  0  0  0  0  0  0  0  0  0  0
   -2.2404    1.2109   -0.8267 H   0  0  0  0  0  0  0  0  0  0  0  0
   -3.4903   -0.1444   -1.0868 H   0  0  0  0  0  0  0  0  0  0  0  0
  1  2  1  0
  2  3  1  0
  3  4  1  0
  4  5  1  0
  5  6  1  0
  6  7  1  0
  7  8  1  0
  7  9  1  0
  1 10  1  0
  1 11  1  0
  1 12  1  0
  2 13  1  0
  2 14  1  0
  3 15  1  0
  3 16  1  0
  4 17  1  0
  4 18  1  0
  5 19  1  0
  5 20  1  0
  6 21  1  0
  6 22  1  0
  7 23  1  1
  8 24  1  0
  9 25  1  0
  9 26  1  0
  9 27  1  0
M  END
>  <Ligand ID>  (1) 
LIG0000189

>  <Ligand>  (1) 
(+)-2-Octanol

>  <SMILES>  (1) 
CCCCCC[C@@H](O)C

>  <CID>  (1) 
2723888.0

>  <ChEMBL ID>  (1) 
nan

>  <InChiKey>  (1) 
SJWFXCIHNDVPSH-QMMMGPOBSA-N

>  <InChi>  (1) 
InChI=1S/C8H18O/c1-3-4-5-6-7-8(2)9/h8-9H,3-7H2,1-2H3/t8-/m0/s1

>  <IUPAC Name>  (1) 
(2S)-octan-2-ol

$$$$
