
     RDKit          3D

 51 55  0  0  0  0  0  0  0  0999 V2000
   -3.9919    2.6047   -2.3807 C   0  0  0  0  0  0  0  0  0  0  0  0
   -3.8766    1.4912   -1.3980 C   0  0  0  0  0  0  0  0  0  0  0  0
   -5.0351    1.0771   -0.8316 N   0  0  0  0  0  0  0  0  0  0  0  0
   -5.0286    0.0737    0.0703 C   0  0  0  0  0  0  0  0  0  0  0  0
   -6.2144   -0.3434    0.6403 C   0  0  0  0  0  0  0  0  0  0  0  0
   -6.2395   -1.3695    1.5640 C   0  0  0  0  0  0  0  0  0  0  0  0
   -5.0225   -1.9506    1.8833 C   0  0  0  0  0  0  0  0  0  0  0  0
   -3.8445   -1.5314    1.3127 C   0  0  0  0  0  0  0  0  0  0  0  0
   -3.8116   -0.5091    0.3915 C   0  0  0  0  0  0  0  0  0  0  0  0
   -2.6203   -0.1325   -0.1462 C   0  0  0  0  0  0  0  0  0  0  0  0
   -2.6544    0.9098   -1.0790 C   0  0  0  0  0  0  0  0  0  0  0  0
   -1.3591   -0.6996    0.1629 N   0  0  0  0  0  0  0  0  0  0  0  0
   -0.7480   -0.6604    1.4763 C   0  0  0  0  0  0  0  0  0  0  0  0
    0.6321    0.0104    1.3981 C   0  0  0  0  0  0  0  0  0  0  0  0
    1.3668   -0.7595    0.4120 N   0  0  0  0  0  0  0  0  0  0  0  0
    0.7453   -1.7410   -0.4549 C   0  0  0  0  0  0  0  0  0  0  0  0
   -0.6403   -1.3526   -0.9086 C   0  0  0  0  0  0  0  0  0  0  0  0
    2.7706   -0.5704    0.2619 C   0  0  0  0  0  0  0  0  0  0  0  0
    3.5551   -1.7060    0.4907 C   0  0  0  0  0  0  0  0  0  0  0  0
    4.9222   -1.5932    0.3637 C   0  0  0  0  0  0  0  0  0  0  0  0
    5.5416   -0.3939    0.0172 C   0  0  0  0  0  0  0  0  0  0  0  0
    4.7283    0.6782   -0.1931 C   0  0  0  0  0  0  0  0  0  0  0  0
    3.3440    0.6315   -0.0815 C   0  0  0  0  0  0  0  0  0  0  0  0
    2.5624    1.7052   -0.2908 N   0  0  0  0  0  0  0  0  0  0  0  0
    3.0853    2.9014   -0.6240 C   0  0  0  0  0  0  0  0  0  0  0  0
    4.4685    2.9705   -0.7403 C   0  0  0  0  0  0  0  0  0  0  0  0
    5.2863    1.8891   -0.5319 C   0  0  0  0  0  0  0  0  0  0  0  0
    6.9444   -0.4102   -0.0780 N   0  0  0  0  0  0  0  0  0  0  0  0
    7.6541    0.2415   -0.8484 O   0  0  0  0  0  0  0  0  0  0  0  0
    7.6166   -1.2751    0.7847 O   0  0  0  0  0  0  0  0  0  0  0  0
   -3.0084    3.0683   -2.5976 H   0  0  0  0  0  0  0  0  0  0  0  0
   -4.4170    2.2384   -3.3454 H   0  0  0  0  0  0  0  0  0  0  0  0
   -4.7141    3.3745   -1.9905 H   0  0  0  0  0  0  0  0  0  0  0  0
   -7.1722    0.1029    0.3985 H   0  0  0  0  0  0  0  0  0  0  0  0
   -7.1428   -1.7307    2.0370 H   0  0  0  0  0  0  0  0  0  0  0  0
   -5.0429   -2.7632    2.6147 H   0  0  0  0  0  0  0  0  0  0  0  0
   -2.9474   -2.0169    1.5953 H   0  0  0  0  0  0  0  0  0  0  0  0
   -1.7503    1.2697   -1.5540 H   0  0  0  0  0  0  0  0  0  0  0  0
   -0.6375   -1.6751    1.9387 H   0  0  0  0  0  0  0  0  0  0  0  0
   -1.3595   -0.0246    2.1443 H   0  0  0  0  0  0  0  0  0  0  0  0
    0.4428    1.0475    1.0944 H   0  0  0  0  0  0  0  0  0  0  0  0
    1.0595   -0.0689    2.4164 H   0  0  0  0  0  0  0  0  0  0  0  0
    1.3485   -1.8590   -1.3980 H   0  0  0  0  0  0  0  0  0  0  0  0
    0.6829   -2.7289    0.0684 H   0  0  0  0  0  0  0  0  0  0  0  0
   -0.6114   -0.7249   -1.8227 H   0  0  0  0  0  0  0  0  0  0  0  0
   -1.1986   -2.3094   -1.1032 H   0  0  0  0  0  0  0  0  0  0  0  0
    3.1078   -2.6516    0.7614 H   0  0  0  0  0  0  0  0  0  0  0  0
    5.5069   -2.4770    0.5437 H   0  0  0  0  0  0  0  0  0  0  0  0
    2.4593    3.7764   -0.7954 H   0  0  0  0  0  0  0  0  0  0  0  0
    4.9111    3.9301   -1.0094 H   0  0  0  0  0  0  0  0  0  0  0  0
    6.3462    2.0365   -0.6393 H   0  0  0  0  0  0  0  0  0  0  0  0
  1  2  1  0
  2  3  2  0
  3  4  1  0
  4  5  2  0
  5  6  1  0
  6  7  2  0
  7  8  1  0
  8  9  2  0
  9 10  1  0
 10 11  2  0
 10 12  1  0
 12 13  1  0
 13 14  1  0
 14 15  1  0
 15 16  1  0
 16 17  1  0
 15 18  1  0
 18 19  2  0
 19 20  1  0
 20 21  2  0
 21 22  1  0
 22 23  2  0
 23 24  1  0
 24 25  2  0
 25 26  1  0
 26 27  2  0
 21 28  1  0
 28 29  2  0
 28 30  1  0
 11  2  1  0
 17 12  1  0
 23 18  1  0
  9  4  1  0
 27 22  1  0
  1 31  1  0
  1 32  1  0
  1 33  1  0
  5 34  1  0
  6 35  1  0
  7 36  1  0
  8 37  1  0
 11 38  1  0
 13 39  1  0
 13 40  1  0
 14 41  1  0
 14 42  1  0
 16 43  1  0
 16 44  1  0
 17 45  1  0
 17 46  1  0
 19 47  1  0
 20 48  1  0
 25 49  1  0
 26 50  1  0
 27 51  1  0
M  CHG  2  28   1  30  -1
M  END
>  <Ligand ID>  (1) 
LIG0003933

>  <Ligand>  (1) 
SMR000211820

>  <SMILES>  (1) 
Cc1nc2ccccc2c(c1)N1CCN(CC1)c1ccc(c2c1nccc2)[N+](=O)[O-]

>  <CID>  (1) 
2885420.0

>  <ChEMBL ID>  (1) 
nan

>  <InChiKey>  (1) 
BDDPXUZRHMQXHU-UHFFFAOYSA-N

>  <InChi>  (1) 
InChI=1S/C23H21N5O2/c1-16-15-22(17-5-2-3-7-19(17)25-16)27-13-11-26(12-14-27)21-9-8-20(28(29)30)18-6-4-10-24-23(18)21/h2-10,15H,11-14H2,1H3

>  <IUPAC Name>  (1) 
2-methyl-4-[4-(5-nitroquinolin-8-yl)piperazin-1-yl]quinoline

$$$$
