
     RDKit          3D

 28 27  0  0  0  0  0  0  0  0999 V2000
    4.6405    1.1457    0.0866 O   0  0  0  0  0  0  0  0  0  0  0  0
    3.6646    0.1622   -0.0072 C   0  0  0  0  0  0  0  0  0  0  0  0
    3.9911   -1.0121    0.3001 O   0  0  0  0  0  0  0  0  0  0  0  0
    2.2684    0.4536   -0.4532 C   0  0  0  0  0  0  0  0  0  0  0  0
    1.4998   -0.8251   -0.4345 C   0  0  0  0  0  0  0  0  0  0  0  0
    0.0454   -0.6715   -0.8715 C   0  0  1  0  0  0  0  0  0  0  0  0
   -0.5413   -2.0254   -0.7879 C   0  0  0  0  0  0  0  0  0  0  0  0
    0.2162   -2.9357   -0.3185 O   0  0  0  0  0  0  0  0  0  0  0  0
   -1.7993   -2.3956   -1.1610 O   0  0  0  0  0  0  0  0  0  0  0  0
   -0.6886    0.3052   -0.0259 C   0  0  0  0  0  0  0  0  0  0  0  0
   -2.1137    0.4505   -0.4754 C   0  0  1  0  0  0  0  0  0  0  0  0
   -2.8459    1.4503    0.3717 C   0  0  0  0  0  0  0  0  0  0  0  0
   -3.5134    2.3901   -0.1153 O   0  0  0  0  0  0  0  0  0  0  0  0
   -2.7300    1.2580    1.7541 O   0  0  0  0  0  0  0  0  0  0  0  0
   -2.2743    0.7052   -1.8729 N   0  0  0  0  0  0  0  0  0  0  0  0
    5.6217    0.9606   -0.0808 H   0  0  0  0  0  0  0  0  0  0  0  0
    2.3585    0.9114   -1.4408 H   0  0  0  0  0  0  0  0  0  0  0  0
    1.8471    1.1264    0.3305 H   0  0  0  0  0  0  0  0  0  0  0  0
    2.0016   -1.5357   -1.1230 H   0  0  0  0  0  0  0  0  0  0  0  0
    1.5447   -1.2568    0.5843 H   0  0  0  0  0  0  0  0  0  0  0  0
    0.0492   -0.3939   -1.9439 H   0  0  0  0  0  0  0  0  0  0  0  0
   -2.0424   -3.3718   -1.2303 H   0  0  0  0  0  0  0  0  0  0  0  0
   -0.7545   -0.0733    1.0377 H   0  0  0  0  0  0  0  0  0  0  0  0
   -0.1713    1.2807    0.0788 H   0  0  0  0  0  0  0  0  0  0  0  0
   -2.6331   -0.5261   -0.2342 H   0  0  0  0  0  0  0  0  0  0  0  0
   -3.2454    1.9207    2.3349 H   0  0  0  0  0  0  0  0  0  0  0  0
   -1.3636    1.0648   -2.2391 H   0  0  0  0  0  0  0  0  0  0  0  0
   -3.0321    1.4376   -1.9985 H   0  0  0  0  0  0  0  0  0  0  0  0
  1  2  1  0
  2  3  2  0
  2  4  1  0
  4  5  1  0
  5  6  1  0
  6  7  1  0
  7  8  2  0
  7  9  1  0
  6 10  1  0
 10 11  1  0
 11 12  1  0
 12 13  2  0
 12 14  1  0
 11 15  1  0
  1 16  1  0
  4 17  1  0
  4 18  1  0
  5 19  1  0
  5 20  1  0
  6 21  1  6
  9 22  1  0
 10 23  1  0
 10 24  1  0
 11 25  1  6
 14 26  1  0
 15 27  1  0
 15 28  1  0
M  END
>  <Ligand ID>  (1) 
LIG0000488

>  <Ligand>  (1) 
CHEMBL482081

>  <SMILES>  (1) 
OC(=O)CC[C@@H](C(=O)O)C[C@@H](C(=O)O)N

>  <CID>  (1) 
24905705.0

>  <ChEMBL ID>  (1) 
nan

>  <InChiKey>  (1) 
YSWVADAJIFHTLV-UHNVWZDZSA-N

>  <InChi>  (1) 
InChI=1S/C8H13NO6/c9-5(8(14)15)3-4(7(12)13)1-2-6(10)11/h4-5H,1-3,9H2,(H,10,11)(H,12,13)(H,14,15)/t4-,5+/m1/s1

>  <IUPAC Name>  (1) 
(1S,3R)-1-aminopentane-1,3,5-tricarboxylic acid

$$$$
