
     RDKit          3D

 59 63  0  0  0  0  0  0  0  0999 V2000
   -4.6094    0.1184   -2.1138 Cl  0  0  0  0  0  0  0  0  0  0  0  0
   -5.5445   -0.2538   -0.6657 C   0  0  0  0  0  0  0  0  0  0  0  0
   -6.3644   -1.3777   -0.6402 C   0  0  0  0  0  0  0  0  0  0  0  0
   -7.1073   -1.6886    0.4868 C   0  0  0  0  0  0  0  0  0  0  0  0
   -7.0094   -0.8422    1.5954 C   0  0  0  0  0  0  0  0  0  0  0  0
   -6.1890    0.2793    1.5655 C   0  0  0  0  0  0  0  0  0  0  0  0
   -5.4449    0.5936    0.4409 C   0  0  0  0  0  0  0  0  0  0  0  0
   -4.5576    1.7900    0.3838 C   0  0  0  0  0  0  0  0  0  0  0  0
   -3.2154    1.3805    0.5190 N   0  0  0  0  0  0  0  0  0  0  0  0
   -2.1993    2.3574    0.4850 C   0  0  0  0  0  0  0  0  0  0  0  0
   -0.8032    1.7595    0.4071 C   0  0  0  0  0  0  0  0  0  0  0  0
   -0.9593    0.4009   -0.2412 C   0  0  0  0  0  0  0  0  0  0  0  0
   -1.6333   -0.4807    0.7736 C   0  0  0  0  0  0  0  0  0  0  0  0
   -2.9380    0.1693    1.1860 C   0  0  0  0  0  0  0  0  0  0  0  0
    0.2243   -0.0966   -0.7929 N   0  0  0  0  0  0  0  0  0  0  0  0
    0.8540    0.6306   -1.8200 C   0  0  0  0  0  0  0  0  0  0  0  0
    2.3428    0.7689   -1.4729 C   0  0  0  0  0  0  0  0  0  0  0  0
    2.9014   -0.6222   -1.5876 C   0  0  0  0  0  0  0  0  0  0  0  0
    2.1453   -1.6351   -0.7677 C   0  0  0  0  0  0  0  0  0  0  0  0
    0.9119   -1.1184   -0.1320 C   0  0  0  0  0  0  0  0  0  0  0  0
    4.3322   -0.7063   -1.3760 N   0  0  0  0  0  0  0  0  0  0  0  0
    5.3056   -0.9983   -2.2689 C   0  0  0  0  0  0  0  0  0  0  0  0
    5.0252   -1.2479   -3.4888 O   0  0  0  0  0  0  0  0  0  0  0  0
    6.5026   -0.9768   -1.6818 N   0  0  0  0  0  0  0  0  0  0  0  0
    6.2970   -0.6639   -0.3807 C   0  0  0  0  0  0  0  0  0  0  0  0
    4.9432   -0.4987   -0.2056 C   0  0  0  0  0  0  0  0  0  0  0  0
    4.4936   -0.1711    1.0607 C   0  0  0  0  0  0  0  0  0  0  0  0
    5.3665   -0.0098    2.1350 C   0  0  0  0  0  0  0  0  0  0  0  0
    6.7234   -0.1878    1.9051 C   0  0  0  0  0  0  0  0  0  0  0  0
    7.2109   -0.5182    0.6414 C   0  0  0  0  0  0  0  0  0  0  0  0
   -6.3985   -1.9962   -1.5303 H   0  0  0  0  0  0  0  0  0  0  0  0
   -7.7463   -2.5607    0.5128 H   0  0  0  0  0  0  0  0  0  0  0  0
   -7.5657   -1.0414    2.4919 H   0  0  0  0  0  0  0  0  0  0  0  0
   -6.1172    0.9307    2.4275 H   0  0  0  0  0  0  0  0  0  0  0  0
   -4.7520    2.3578   -0.5492 H   0  0  0  0  0  0  0  0  0  0  0  0
   -4.8386    2.4697    1.2209 H   0  0  0  0  0  0  0  0  0  0  0  0
   -2.2854    3.0133   -0.4118 H   0  0  0  0  0  0  0  0  0  0  0  0
   -2.2142    3.0174    1.3836 H   0  0  0  0  0  0  0  0  0  0  0  0
   -0.4725    1.5853    1.4667 H   0  0  0  0  0  0  0  0  0  0  0  0
   -0.1199    2.4062   -0.1378 H   0  0  0  0  0  0  0  0  0  0  0  0
   -1.7057    0.5547   -1.0735 H   0  0  0  0  0  0  0  0  0  0  0  0
   -1.8179   -1.4796    0.3541 H   0  0  0  0  0  0  0  0  0  0  0  0
   -1.0070   -0.5259    1.6885 H   0  0  0  0  0  0  0  0  0  0  0  0
   -3.7649   -0.5479    1.0078 H   0  0  0  0  0  0  0  0  0  0  0  0
   -2.9740    0.3913    2.2920 H   0  0  0  0  0  0  0  0  0  0  0  0
    0.7382    0.0684   -2.7703 H   0  0  0  0  0  0  0  0  0  0  0  0
    0.3726    1.6199   -1.9461 H   0  0  0  0  0  0  0  0  0  0  0  0
    2.8121    1.3982   -2.2509 H   0  0  0  0  0  0  0  0  0  0  0  0
    2.4063    1.2371   -0.4995 H   0  0  0  0  0  0  0  0  0  0  0  0
    2.7268   -0.9047   -2.6486 H   0  0  0  0  0  0  0  0  0  0  0  0
    2.8485   -1.9937    0.0184 H   0  0  0  0  0  0  0  0  0  0  0  0
    1.8980   -2.5640   -1.3625 H   0  0  0  0  0  0  0  0  0  0  0  0
    1.1587   -0.7429    0.9032 H   0  0  0  0  0  0  0  0  0  0  0  0
    0.2525   -2.0080    0.0745 H   0  0  0  0  0  0  0  0  0  0  0  0
    7.3990   -1.1712   -2.1732 H   0  0  0  0  0  0  0  0  0  0  0  0
    3.4249   -0.0238    1.2727 H   0  0  0  0  0  0  0  0  0  0  0  0
    4.9921    0.2454    3.1120 H   0  0  0  0  0  0  0  0  0  0  0  0
    7.4591   -0.0761    2.7040 H   0  0  0  0  0  0  0  0  0  0  0  0
    8.2860   -0.6562    0.4731 H   0  0  0  0  0  0  0  0  0  0  0  0
  1  2  1  0
  2  3  2  0
  3  4  1  0
  4  5  2  0
  5  6  1  0
  6  7  2  0
  7  8  1  0
  8  9  1  0
  9 10  1  0
 10 11  1  0
 11 12  1  0
 12 13  1  0
 13 14  1  0
 12 15  1  0
 15 16  1  0
 16 17  1  0
 17 18  1  0
 18 19  1  0
 19 20  1  0
 18 21  1  0
 21 22  1  0
 22 23  2  0
 22 24  1  0
 24 25  1  0
 25 26  2  0
 26 27  1  0
 27 28  2  0
 28 29  1  0
 29 30  2  0
  7  2  1  0
 14  9  1  0
 20 15  1  0
 26 21  1  0
 30 25  1  0
  3 31  1  0
  4 32  1  0
  5 33  1  0
  6 34  1  0
  8 35  1  0
  8 36  1  0
 10 37  1  0
 10 38  1  0
 11 39  1  0
 11 40  1  0
 12 41  1  0
 13 42  1  0
 13 43  1  0
 14 44  1  0
 14 45  1  0
 16 46  1  0
 16 47  1  0
 17 48  1  0
 17 49  1  0
 18 50  1  0
 19 51  1  0
 19 52  1  0
 20 53  1  0
 20 54  1  0
 24 55  1  0
 27 56  1  0
 28 57  1  0
 29 58  1  0
 30 59  1  0
M  END
>  <Ligand ID>  (1) 
LIG0000874

>  <Ligand>  (1) 
CHEMBL477821

>  <SMILES>  (1) 
Clc1ccccc1CN1CCC(CC1)N1CCC(CC1)n1c(=O)[nH]c2c1cccc2

>  <CID>  (1) 
10251795.0

>  <ChEMBL ID>  (1) 
nan

>  <InChiKey>  (1) 
AQMPTYUVSBXZPZ-UHFFFAOYSA-N

>  <InChi>  (1) 
InChI=1S/C24H29ClN4O/c25-21-6-2-1-5-18(21)17-27-13-9-19(10-14-27)28-15-11-20(12-16-28)29-23-8-4-3-7-22(23)26-24(29)30/h1-8,19-20H,9-17H2,(H,26,30)

>  <IUPAC Name>  (1) 
3-[1-[1-[(2-chlorophenyl)methyl]piperidin-4-yl]piperidin-4-yl]-1H-benzimidazol-2-one

$$$$
