
     RDKit          3D

 19 19  0  0  0  0  0  0  0  0999 V2000
   -2.3964   -0.5979    0.2535 C   0  0  0  0  0  0  0  0  0  0  0  0
   -1.5068    0.4469   -0.4302 C   0  0  2  0  0  0  0  0  0  0  0  0
   -0.0693    0.1473   -0.2599 C   0  0  0  0  0  0  0  0  0  0  0  0
    0.8358    1.1850   -0.4075 C   0  0  0  0  0  0  0  0  0  0  0  0
    2.2030    0.9941   -0.2650 C   0  0  0  0  0  0  0  0  0  0  0  0
    2.6492   -0.2868    0.0346 C   0  0  0  0  0  0  0  0  0  0  0  0
    1.7414   -1.3326    0.1836 C   0  0  0  0  0  0  0  0  0  0  0  0
    0.3896   -1.1328    0.0405 C   0  0  0  0  0  0  0  0  0  0  0  0
   -1.7878    1.6376    0.2741 O   0  0  0  0  0  0  0  0  0  0  0  0
   -2.1520   -0.6637    1.3459 H   0  0  0  0  0  0  0  0  0  0  0  0
   -3.4351   -0.2119    0.1571 H   0  0  0  0  0  0  0  0  0  0  0  0
   -2.2861   -1.5731   -0.2372 H   0  0  0  0  0  0  0  0  0  0  0  0
   -1.8130    0.5044   -1.4788 H   0  0  0  0  0  0  0  0  0  0  0  0
    0.4674    2.1951   -0.6450 H   0  0  0  0  0  0  0  0  0  0  0  0
    2.9088    1.7861   -0.3765 H   0  0  0  0  0  0  0  0  0  0  0  0
    3.7164   -0.4330    0.1453 H   0  0  0  0  0  0  0  0  0  0  0  0
    2.0734   -2.3251    0.4148 H   0  0  0  0  0  0  0  0  0  0  0  0
   -0.3224   -1.9594    0.1587 H   0  0  0  0  0  0  0  0  0  0  0  0
   -1.2161    1.6197    1.0921 H   0  0  0  0  0  0  0  0  0  0  0  0
  1  2  1  0
  2  3  1  0
  3  4  2  0
  4  5  1  0
  5  6  2  0
  6  7  1  0
  7  8  2  0
  2  9  1  0
  8  3  1  0
  1 10  1  0
  1 11  1  0
  1 12  1  0
  2 13  1  6
  4 14  1  0
  5 15  1  0
  6 16  1  0
  7 17  1  0
  8 18  1  0
  9 19  1  0
M  END
>  <Ligand ID>  (1) 
LIG0000603

>  <Ligand>  (1) 
(1R)-1-phenylethanol

>  <SMILES>  (1) 
C[C@H](c1ccccc1)O

>  <CID>  (1) 
637516.0

>  <ChEMBL ID>  (1) 
nan

>  <InChiKey>  (1) 
WAPNOHKVXSQRPX-SSDOTTSWSA-N

>  <InChi>  (1) 
InChI=1S/C8H10O/c1-7(9)8-5-3-2-4-6-8/h2-7,9H,1H3/t7-/m1/s1

>  <IUPAC Name>  (1) 
(1R)-1-phenylethanol

$$$$
