
     RDKit          3D

 50 52  0  0  0  0  0  0  0  0999 V2000
   -7.2048   -0.9544    1.4855 C   0  0  0  0  0  0  0  0  0  0  0  0
   -5.7865   -0.9354    1.4266 O   0  0  0  0  0  0  0  0  0  0  0  0
   -5.1208   -0.1206    0.5203 C   0  0  0  0  0  0  0  0  0  0  0  0
   -5.8476    0.6811   -0.3344 C   0  0  0  0  0  0  0  0  0  0  0  0
   -5.1441    1.4714   -1.2151 C   0  0  0  0  0  0  0  0  0  0  0  0
   -3.7655    1.4473   -1.2260 C   0  0  0  0  0  0  0  0  0  0  0  0
   -3.0148    0.6541   -0.3812 C   0  0  0  0  0  0  0  0  0  0  0  0
   -3.7411   -0.1436    0.5082 C   0  0  0  0  0  0  0  0  0  0  0  0
   -1.6118    0.6200   -0.3818 N   0  0  0  0  0  0  0  0  0  0  0  0
   -0.7378    1.7226   -0.1328 C   0  0  0  0  0  0  0  0  0  0  0  0
    0.6614    1.3805   -0.6262 C   0  0  0  0  0  0  0  0  0  0  0  0
    1.2134    0.1330   -0.0209 C   0  0  0  0  0  0  0  0  0  0  0  0
    0.0960   -0.8215    0.3922 C   0  0  0  0  0  0  0  0  0  0  0  0
   -0.9810   -0.6783   -0.6669 C   0  0  0  0  0  0  0  0  0  0  0  0
    2.0490   -0.6217   -1.0333 C   0  0  0  0  0  0  0  0  0  0  0  0
    2.9391   -1.6451   -0.3811 C   0  0  0  0  0  0  0  0  0  0  0  0
    4.0641   -0.9760    0.3773 C   0  0  0  0  0  0  0  0  0  0  0  0
    3.6013    0.4264    0.7100 C   0  0  0  0  0  0  0  0  0  0  0  0
    2.1341    0.4251    1.1422 C   0  0  0  0  0  0  0  0  0  0  0  0
    5.2668   -0.9141   -0.5240 C   0  0  0  0  0  0  0  0  0  0  0  0
    6.4279   -0.2721    0.1315 C   0  0  0  0  0  0  0  0  0  0  0  0
    7.5009   -0.1573   -0.5169 O   0  0  0  0  0  0  0  0  0  0  0  0
    6.4189    0.2175    1.4229 O   0  0  0  0  0  0  0  0  0  0  0  0
   -2.9438    2.4825   -2.3769 Cl  0  0  0  0  0  0  0  0  0  0  0  0
   -7.5561    0.0080    1.9278 H   0  0  0  0  0  0  0  0  0  0  0  0
   -7.6110   -1.0906    0.4577 H   0  0  0  0  0  0  0  0  0  0  0  0
   -7.5576   -1.7810    2.1044 H   0  0  0  0  0  0  0  0  0  0  0  0
   -6.9242    0.6998   -0.3258 H   0  0  0  0  0  0  0  0  0  0  0  0
   -5.7275    2.0972   -1.8818 H   0  0  0  0  0  0  0  0  0  0  0  0
   -3.1563   -0.7717    1.1773 H   0  0  0  0  0  0  0  0  0  0  0  0
   -0.6810    1.9995    0.9425 H   0  0  0  0  0  0  0  0  0  0  0  0
   -1.0517    2.6362   -0.6743 H   0  0  0  0  0  0  0  0  0  0  0  0
    0.5836    1.2890   -1.7464 H   0  0  0  0  0  0  0  0  0  0  0  0
    1.3057    2.2265   -0.3764 H   0  0  0  0  0  0  0  0  0  0  0  0
   -0.2910   -0.4365    1.3680 H   0  0  0  0  0  0  0  0  0  0  0  0
    0.4471   -1.8492    0.5210 H   0  0  0  0  0  0  0  0  0  0  0  0
   -0.5445   -0.5576   -1.6931 H   0  0  0  0  0  0  0  0  0  0  0  0
   -1.7007   -1.5071   -0.6567 H   0  0  0  0  0  0  0  0  0  0  0  0
    2.7118    0.1076   -1.5369 H   0  0  0  0  0  0  0  0  0  0  0  0
    1.4649   -1.1335   -1.8087 H   0  0  0  0  0  0  0  0  0  0  0  0
    3.3568   -2.2766   -1.2007 H   0  0  0  0  0  0  0  0  0  0  0  0
    2.4384   -2.3256    0.3125 H   0  0  0  0  0  0  0  0  0  0  0  0
    4.3169   -1.4757    1.3302 H   0  0  0  0  0  0  0  0  0  0  0  0
    3.8059    1.1300   -0.1061 H   0  0  0  0  0  0  0  0  0  0  0  0
    4.1581    0.7841    1.5998 H   0  0  0  0  0  0  0  0  0  0  0  0
    2.0478   -0.3713    1.9059 H   0  0  0  0  0  0  0  0  0  0  0  0
    1.9101    1.4278    1.5553 H   0  0  0  0  0  0  0  0  0  0  0  0
    5.5667   -1.9216   -0.8533 H   0  0  0  0  0  0  0  0  0  0  0  0
    4.9907   -0.3556   -1.4535 H   0  0  0  0  0  0  0  0  0  0  0  0
    7.2241    0.0267    2.0371 H   0  0  0  0  0  0  0  0  0  0  0  0
  1  2  1  0
  2  3  1  0
  3  4  2  0
  4  5  1  0
  5  6  2  0
  6  7  1  0
  7  8  2  0
  7  9  1  0
  9 10  1  0
 10 11  1  0
 11 12  1  0
 12 13  1  0
 13 14  1  0
 12 15  1  0
 15 16  1  0
 16 17  1  0
 17 18  1  0
 18 19  1  0
 17 20  1  0
 20 21  1  0
 21 22  2  0
 21 23  1  0
  6 24  1  0
  8  3  1  0
 14  9  1  0
 19 12  1  0
  1 25  1  0
  1 26  1  0
  1 27  1  0
  4 28  1  0
  5 29  1  0
  8 30  1  0
 10 31  1  0
 10 32  1  0
 11 33  1  0
 11 34  1  0
 13 35  1  0
 13 36  1  0
 14 37  1  0
 14 38  1  0
 15 39  1  0
 15 40  1  0
 16 41  1  0
 16 42  1  0
 17 43  1  0
 18 44  1  0
 18 45  1  0
 19 46  1  0
 19 47  1  0
 20 48  1  0
 20 49  1  0
 23 50  1  0
M  END
>  <Ligand ID>  (1) 
LIG0004784

>  <Ligand>  (1) 
CHEMBL3977361

>  <SMILES>  (1) 
COc1ccc(c(c1)N1CCC2(CC1)CCC(CC2)CC(=O)O)Cl

>  <CID>  (1) 
73777085.0

>  <ChEMBL ID>  (1) 
nan

>  <InChiKey>  (1) 
YIXZOCHHRTUZKL-UHFFFAOYSA-N

>  <InChi>  (1) 
InChI=1S/C19H26ClNO3/c1-24-15-2-3-16(20)17(13-15)21-10-8-19(9-11-21)6-4-14(5-7-19)12-18(22)23/h2-3,13-14H,4-12H2,1H3,(H,22,23)

>  <IUPAC Name>  (1) 
2-[3-(2-chloro-5-methoxyphenyl)-3-azaspiro[5.5]undecan-9-yl]acetic acid

$$$$
