
     RDKit          3D

 57 60  0  0  0  0  0  0  0  0999 V2000
    5.1735   -1.3830   -2.3990 C   0  0  0  0  0  0  0  0  0  0  0  0
    4.2001   -0.5718   -1.8029 O   0  0  0  0  0  0  0  0  0  0  0  0
    4.2884    0.7725   -1.5615 C   0  0  0  0  0  0  0  0  0  0  0  0
    5.4398    1.4565   -1.9240 C   0  0  0  0  0  0  0  0  0  0  0  0
    5.5825    2.8161   -1.7031 C   0  0  0  0  0  0  0  0  0  0  0  0
    4.5167    3.4635   -1.1006 C   0  0  0  0  0  0  0  0  0  0  0  0
    3.3692    2.7730   -0.7413 C   0  0  0  0  0  0  0  0  0  0  0  0
    3.2391    1.4336   -0.9634 C   0  0  0  0  0  0  0  0  0  0  0  0
    2.0312    0.7963   -0.5673 N   0  0  0  0  0  0  0  0  0  0  0  0
    1.2414    0.1543   -1.5645 C   0  0  0  0  0  0  0  0  0  0  0  0
    0.1353   -0.7140   -1.0875 C   0  0  0  0  0  0  0  0  0  0  0  0
   -0.1344   -0.6609    0.3126 N   0  0  0  0  0  0  0  0  0  0  0  0
    1.1069   -0.6044    1.0888 C   0  0  0  0  0  0  0  0  0  0  0  0
    1.6342    0.8127    0.8257 C   0  0  0  0  0  0  0  0  0  0  0  0
   -0.8694   -1.7688    0.8222 C   0  0  0  0  0  0  0  0  0  0  0  0
   -2.2317   -1.9821    0.2221 C   0  0  0  0  0  0  0  0  0  0  0  0
   -3.1347   -0.8746    0.3973 N   0  0  0  0  0  0  0  0  0  0  0  0
   -3.7577   -0.2916   -0.7493 C   0  0  0  0  0  0  0  0  0  0  0  0
   -3.5550   -0.7021   -1.9214 O   0  0  0  0  0  0  0  0  0  0  0  0
   -4.6857    0.8452   -0.5796 C   0  0  0  0  0  0  0  0  0  0  0  0
   -5.3399    1.4849   -1.5939 C   0  0  0  0  0  0  0  0  0  0  0  0
   -6.0947    2.4796   -0.9636 C   0  0  0  0  0  0  0  0  0  0  0  0
   -5.8546    2.3843    0.3881 C   0  0  0  0  0  0  0  0  0  0  0  0
   -5.0161    1.4040    0.5633 O   0  0  0  0  0  0  0  0  0  0  0  0
   -2.7916   -3.2545    0.8739 C   0  0  0  0  0  0  0  0  0  0  0  0
   -1.0037   -1.5626    2.2954 C   0  0  0  0  0  0  0  0  0  0  0  0
   -1.3156   -0.4096    2.9971 C   0  0  0  0  0  0  0  0  0  0  0  0
   -1.3835   -0.4604    4.3211 C   0  0  0  0  0  0  0  0  0  0  0  0
   -1.1518   -1.6227    4.9893 C   0  0  0  0  0  0  0  0  0  0  0  0
   -0.7869   -2.8140    3.5582 S   0  0  0  0  0  0  0  0  0  0  0  0
    5.7681   -0.8794   -3.1766 H   0  0  0  0  0  0  0  0  0  0  0  0
    5.8796   -1.6836   -1.5901 H   0  0  0  0  0  0  0  0  0  0  0  0
    4.7016   -2.3288   -2.7331 H   0  0  0  0  0  0  0  0  0  0  0  0
    6.2848    0.9626   -2.3976 H   0  0  0  0  0  0  0  0  0  0  0  0
    6.4872    3.3487   -1.9890 H   0  0  0  0  0  0  0  0  0  0  0  0
    4.6161    4.5228   -0.9234 H   0  0  0  0  0  0  0  0  0  0  0  0
    2.5620    3.3298   -0.2711 H   0  0  0  0  0  0  0  0  0  0  0  0
    1.9248   -0.3740   -2.2889 H   0  0  0  0  0  0  0  0  0  0  0  0
    0.7942    0.9782   -2.1954 H   0  0  0  0  0  0  0  0  0  0  0  0
    0.4196   -1.7786   -1.3379 H   0  0  0  0  0  0  0  0  0  0  0  0
   -0.8371   -0.4569   -1.5970 H   0  0  0  0  0  0  0  0  0  0  0  0
    1.7978   -1.3085    0.5748 H   0  0  0  0  0  0  0  0  0  0  0  0
    0.9592   -0.8206    2.1457 H   0  0  0  0  0  0  0  0  0  0  0  0
    2.4410    1.0507    1.5142 H   0  0  0  0  0  0  0  0  0  0  0  0
    0.7540    1.4800    0.9072 H   0  0  0  0  0  0  0  0  0  0  0  0
   -0.2651   -2.7156    0.7194 H   0  0  0  0  0  0  0  0  0  0  0  0
   -2.1984   -2.1930   -0.8602 H   0  0  0  0  0  0  0  0  0  0  0  0
   -3.3847   -0.4465    1.3150 H   0  0  0  0  0  0  0  0  0  0  0  0
   -5.3303    1.3235   -2.6456 H   0  0  0  0  0  0  0  0  0  0  0  0
   -6.7590    3.2069   -1.4477 H   0  0  0  0  0  0  0  0  0  0  0  0
   -6.2770    3.0028    1.1754 H   0  0  0  0  0  0  0  0  0  0  0  0
   -3.7800   -3.4748    0.3902 H   0  0  0  0  0  0  0  0  0  0  0  0
   -2.1295   -4.1073    0.6896 H   0  0  0  0  0  0  0  0  0  0  0  0
   -3.0169   -3.0587    1.9449 H   0  0  0  0  0  0  0  0  0  0  0  0
   -1.4961    0.5222    2.4104 H   0  0  0  0  0  0  0  0  0  0  0  0
   -1.6348    0.4562    4.9308 H   0  0  0  0  0  0  0  0  0  0  0  0
   -1.1323   -1.9575    5.9650 H   0  0  0  0  0  0  0  0  0  0  0  0
  1  2  1  0
  2  3  1  0
  3  4  2  0
  4  5  1  0
  5  6  2  0
  6  7  1  0
  7  8  2  0
  8  9  1  0
  9 10  1  0
 10 11  1  0
 11 12  1  0
 12 13  1  0
 13 14  1  0
 12 15  1  0
 15 16  1  0
 16 17  1  0
 17 18  1  0
 18 19  2  0
 18 20  1  0
 20 21  2  0
 21 22  1  0
 22 23  2  0
 23 24  1  0
 16 25  1  0
 15 26  1  0
 26 27  2  0
 27 28  1  0
 28 29  2  0
 29 30  1  0
  8  3  1  0
 14  9  1  0
 24 20  1  0
 30 26  1  0
  1 31  1  0
  1 32  1  0
  1 33  1  0
  4 34  1  0
  5 35  1  0
  6 36  1  0
  7 37  1  0
 10 38  1  0
 10 39  1  0
 11 40  1  0
 11 41  1  0
 13 42  1  0
 13 43  1  0
 14 44  1  0
 14 45  1  0
 15 46  1  0
 16 47  1  0
 17 48  1  0
 21 49  1  0
 22 50  1  0
 23 51  1  0
 25 52  1  0
 25 53  1  0
 25 54  1  0
 27 55  1  0
 28 56  1  0
 29 57  1  0
M  END
>  <Ligand ID>  (1) 
LIG0003374

>  <Ligand>  (1) 
MLS000420178

>  <SMILES>  (1) 
COc1ccccc1N1CCN(CC1)C(C(NC(=O)c1ccco1)C)c1cccs1

>  <CID>  (1) 
16194620.0

>  <ChEMBL ID>  (1) 
nan

>  <InChiKey>  (1) 
MZLRVIBSEQHNCE-UHFFFAOYSA-N

>  <InChi>  (1) 
InChI=1S/C23H27N3O3S/c1-17(24-23(27)20-9-5-15-29-20)22(21-10-6-16-30-21)26-13-11-25(12-14-26)18-7-3-4-8-19(18)28-2/h3-10,15-17,22H,11-14H2,1-2H3,(H,24,27)

>  <IUPAC Name>  (1) 
N-[1-[4-(2-methoxyphenyl)piperazin-1-yl]-1-thiophen-2-ylpropan-2-yl]furan-2-carboxamide

$$$$
