
     RDKit          3D

 42 45  0  0  0  0  0  0  0  0999 V2000
    4.6550    0.2137   -2.1561 O   0  0  0  0  0  0  0  0  0  0  0  0
    3.5598   -0.2935   -1.7361 C   0  0  0  0  0  0  0  0  0  0  0  0
    3.3561   -0.2025   -0.3258 N   0  0  0  0  0  0  0  0  0  0  0  0
    4.3800    0.4307    0.4261 C   0  0  0  0  0  0  0  0  0  0  0  0
    5.3937   -0.4064    0.9041 C   0  0  0  0  0  0  0  0  0  0  0  0
    6.4451    0.0883    1.6478 C   0  0  0  0  0  0  0  0  0  0  0  0
    6.4955    1.4280    1.9230 C   0  0  0  0  0  0  0  0  0  0  0  0
    5.4887    2.2447    1.4456 C   0  0  0  0  0  0  0  0  0  0  0  0
    4.4278    1.7677    0.6991 C   0  0  0  0  0  0  0  0  0  0  0  0
    3.1634    2.7964    0.1002 Cl  0  0  0  0  0  0  0  0  0  0  0  0
    5.5813    3.9650    1.8163 Cl  0  0  0  0  0  0  0  0  0  0  0  0
    2.6052   -0.9156   -2.6654 C   0  0  0  0  0  0  0  0  0  0  0  0
    1.4573   -1.4094   -1.9539 N   0  0  0  0  0  0  0  0  0  0  0  0
    1.2008   -2.5663   -1.4018 N   0  0  0  0  0  0  0  0  0  0  0  0
   -0.0003   -2.6037   -0.8373 N   0  0  0  0  0  0  0  0  0  0  0  0
   -0.5552   -1.3983   -1.0358 C   0  0  0  0  0  0  0  0  0  0  0  0
    0.3532   -0.6377   -1.7379 C   0  0  0  0  0  0  0  0  0  0  0  0
   -1.8741   -0.9857   -0.5864 C   0  0  0  0  0  0  0  0  0  0  0  0
   -2.6747   -1.8642    0.1105 C   0  0  0  0  0  0  0  0  0  0  0  0
   -3.9210   -1.4583    0.5292 C   0  0  0  0  0  0  0  0  0  0  0  0
   -4.4224   -0.2136    0.2913 C   0  0  0  0  0  0  0  0  0  0  0  0
   -3.6147    0.6826   -0.4155 C   0  0  0  0  0  0  0  0  0  0  0  0
   -2.3540    0.2778   -0.8412 C   0  0  0  0  0  0  0  0  0  0  0  0
   -5.7102    0.2241    0.7171 N   0  0  0  0  0  0  0  0  0  0  0  0
   -6.4426   -0.1747    1.7733 C   0  0  0  0  0  0  0  0  0  0  0  0
   -7.6064    0.4954    1.8130 N   0  0  0  0  0  0  0  0  0  0  0  0
   -7.6501    1.3507    0.7709 C   0  0  0  0  0  0  0  0  0  0  0  0
   -6.4560    1.1653    0.0991 C   0  0  0  0  0  0  0  0  0  0  0  0
    2.4843   -0.5953    0.0868 H   0  0  0  0  0  0  0  0  0  0  0  0
    5.3915   -1.4718    0.7088 H   0  0  0  0  0  0  0  0  0  0  0  0
    7.2263   -0.5755    2.0128 H   0  0  0  0  0  0  0  0  0  0  0  0
    7.3137    1.8287    2.5047 H   0  0  0  0  0  0  0  0  0  0  0  0
    2.2924   -0.2422   -3.4822 H   0  0  0  0  0  0  0  0  0  0  0  0
    3.1437   -1.8070   -3.1001 H   0  0  0  0  0  0  0  0  0  0  0  0
    0.2019    0.3843   -2.0524 H   0  0  0  0  0  0  0  0  0  0  0  0
   -2.3019   -2.8482    0.3093 H   0  0  0  0  0  0  0  0  0  0  0  0
   -4.5186   -2.1639    1.0681 H   0  0  0  0  0  0  0  0  0  0  0  0
   -3.9685    1.6897   -0.6317 H   0  0  0  0  0  0  0  0  0  0  0  0
   -1.7390    0.9725   -1.3840 H   0  0  0  0  0  0  0  0  0  0  0  0
   -6.1360   -0.9312    2.4920 H   0  0  0  0  0  0  0  0  0  0  0  0
   -8.4698    2.0301    0.5381 H   0  0  0  0  0  0  0  0  0  0  0  0
   -6.2012    1.7291   -0.8027 H   0  0  0  0  0  0  0  0  0  0  0  0
  1  2  2  0
  2  3  1  0
  3  4  1  0
  4  5  2  0
  5  6  1  0
  6  7  2  0
  7  8  1  0
  8  9  2  0
  9 10  1  0
  8 11  1  0
  2 12  1  0
 12 13  1  0
 13 14  1  0
 14 15  2  0
 15 16  1  0
 16 17  2  0
 16 18  1  0
 18 19  2  0
 19 20  1  0
 20 21  2  0
 21 22  1  0
 22 23  2  0
 21 24  1  0
 24 25  1  0
 25 26  2  0
 26 27  1  0
 27 28  2  0
  9  4  1  0
 17 13  1  0
 23 18  1  0
 28 24  1  0
  3 29  1  0
  5 30  1  0
  6 31  1  0
  7 32  1  0
 12 33  1  0
 12 34  1  0
 17 35  1  0
 19 36  1  0
 20 37  1  0
 22 38  1  0
 23 39  1  0
 25 40  1  0
 27 41  1  0
 28 42  1  0
M  END
>  <Ligand ID>  (1) 
LIG0005773

>  <Ligand>  (1) 
CHEMBL3976574

>  <SMILES>  (1) 
O=C(Nc1cccc(c1Cl)Cl)Cn1nnc(c1)c1ccc(cc1)n1cncc1

>  <CID>  (1) 
134152061.0

>  <ChEMBL ID>  (1) 
nan

>  <InChiKey>  (1) 
MYHOVNKXYPEQIW-UHFFFAOYSA-N

>  <InChi>  (1) 
InChI=1S/C19H14Cl2N6O/c20-15-2-1-3-16(19(15)21)23-18(28)11-27-10-17(24-25-27)13-4-6-14(7-5-13)26-9-8-22-12-26/h1-10,12H,11H2,(H,23,28)

>  <IUPAC Name>  (1) 
N-(2,3-dichlorophenyl)-2-[4-(4-imidazol-1-ylphenyl)triazol-1-yl]acetamide

$$$$
