
     RDKit          3D

 75 78  0  0  0  0  0  0  0  0999 V2000
   11.0813    1.0636    2.5099 C   0  0  0  0  0  0  0  0  0  0  0  0
   10.2643    0.8838    1.2567 C   0  0  0  0  0  0  0  0  0  0  0  0
    9.6793   -0.5352    1.1461 C   0  0  0  0  0  0  0  0  0  0  0  0
    8.8810   -0.6803   -0.1130 C   0  0  0  0  0  0  0  0  0  0  0  0
    8.2873   -2.0190   -0.3598 C   0  0  0  0  0  0  0  0  0  0  0  0
    7.3433   -2.5514    0.6493 C   0  0  0  0  0  0  0  0  0  0  0  0
    6.1789   -1.7821    0.9219 N   0  0  0  0  0  0  0  0  0  0  0  0
    5.1984   -1.4035   -0.0324 C   0  0  0  0  0  0  0  0  0  0  0  0
    5.3878   -1.7426   -1.2284 O   0  0  0  0  0  0  0  0  0  0  0  0
    4.0261   -0.6618    0.3547 N   0  0  0  0  0  0  0  0  0  0  0  0
    3.0910   -0.2908   -0.6506 C   0  0  0  0  0  0  0  0  0  0  0  0
    2.1192   -1.1403   -1.1409 C   0  0  0  0  0  0  0  0  0  0  0  0
    1.2303   -0.6645   -2.1186 C   0  0  0  0  0  0  0  0  0  0  0  0
    1.2917    0.6159   -2.6011 C   0  0  0  0  0  0  0  0  0  0  0  0
    2.2911    1.4303   -2.0665 C   0  0  0  0  0  0  0  0  0  0  0  0
    3.1850    1.0169   -1.1146 C   0  0  0  0  0  0  0  0  0  0  0  0
    0.2850    1.2990   -3.8172 S   0  0  0  0  0  0  0  0  0  0  0  0
    1.0872    2.3037   -4.5969 O   0  0  0  0  0  0  0  0  0  0  0  0
   -0.1214    0.1768   -4.7506 O   0  0  0  0  0  0  0  0  0  0  0  0
   -1.1282    1.9771   -3.1553 N   0  0  0  0  0  0  0  0  0  0  0  0
   -2.1538    1.3276   -2.4615 C   0  0  0  0  0  0  0  0  0  0  0  0
   -3.4550    1.5673   -2.9427 C   0  0  0  0  0  0  0  0  0  0  0  0
   -4.5650    0.9774   -2.4155 C   0  0  0  0  0  0  0  0  0  0  0  0
   -4.4525    0.0818   -1.3420 C   0  0  0  0  0  0  0  0  0  0  0  0
   -3.1993   -0.1699   -0.8510 C   0  0  0  0  0  0  0  0  0  0  0  0
   -2.0735    0.4557   -1.4165 C   0  0  0  0  0  0  0  0  0  0  0  0
   -5.7180   -0.4990   -0.8531 C   0  0  0  0  0  0  0  0  0  0  0  0
   -6.2823    0.3010    0.2844 C   0  0  0  0  0  0  0  0  0  0  0  0
   -5.3851    0.3142    1.3820 N   0  0  0  0  0  0  0  0  0  0  0  0
   -5.8462    0.8099    2.6227 C   0  0  0  0  0  0  0  0  0  0  0  0
   -7.1995    1.4348    2.6245 C   0  0  0  0  0  0  0  0  0  0  0  0
   -8.1630    0.5902    1.8267 C   0  0  0  0  0  0  0  0  0  0  0  0
   -7.6472    0.0408    0.6722 C   0  0  0  0  0  0  0  0  0  0  0  0
   -8.4722   -0.7391   -0.0923 C   0  0  0  0  0  0  0  0  0  0  0  0
   -9.8049   -0.9754    0.2789 C   0  0  0  0  0  0  0  0  0  0  0  0
  -10.6327   -1.7794   -0.5269 O   0  0  0  0  0  0  0  0  0  0  0  0
  -10.3052   -0.4082    1.4515 C   0  0  0  0  0  0  0  0  0  0  0  0
   -9.4639    0.3845    2.2291 C   0  0  0  0  0  0  0  0  0  0  0  0
  -11.6443   -0.6325    1.8455 O   0  0  0  0  0  0  0  0  0  0  0  0
   12.1690    1.0255    2.2734 H   0  0  0  0  0  0  0  0  0  0  0  0
   10.7920    0.2548    3.2195 H   0  0  0  0  0  0  0  0  0  0  0  0
   10.8084    2.0345    2.9997 H   0  0  0  0  0  0  0  0  0  0  0  0
   10.9845    1.0182    0.3921 H   0  0  0  0  0  0  0  0  0  0  0  0
    9.5019    1.6567    1.1180 H   0  0  0  0  0  0  0  0  0  0  0  0
    8.9552   -0.6074    2.0105 H   0  0  0  0  0  0  0  0  0  0  0  0
   10.5116   -1.2314    1.2122 H   0  0  0  0  0  0  0  0  0  0  0  0
    8.1233    0.1262   -0.2359 H   0  0  0  0  0  0  0  0  0  0  0  0
    9.6240   -0.4995   -0.9547 H   0  0  0  0  0  0  0  0  0  0  0  0
    7.7641   -1.9589   -1.3643 H   0  0  0  0  0  0  0  0  0  0  0  0
    9.1289   -2.7548   -0.4769 H   0  0  0  0  0  0  0  0  0  0  0  0
    6.9934   -3.5545    0.2813 H   0  0  0  0  0  0  0  0  0  0  0  0
    7.8764   -2.7577    1.6052 H   0  0  0  0  0  0  0  0  0  0  0  0
    5.9965   -1.4384    1.9125 H   0  0  0  0  0  0  0  0  0  0  0  0
    3.9163   -0.4203    1.3672 H   0  0  0  0  0  0  0  0  0  0  0  0
    2.0542   -2.1495   -0.7723 H   0  0  0  0  0  0  0  0  0  0  0  0
    0.4575   -1.3064   -2.5297 H   0  0  0  0  0  0  0  0  0  0  0  0
    2.3754    2.4677   -2.4233 H   0  0  0  0  0  0  0  0  0  0  0  0
    3.9265    1.6918   -0.7446 H   0  0  0  0  0  0  0  0  0  0  0  0
   -1.2490    3.0274   -3.2782 H   0  0  0  0  0  0  0  0  0  0  0  0
   -3.6004    2.2486   -3.7825 H   0  0  0  0  0  0  0  0  0  0  0  0
   -5.5572    1.2056   -2.8323 H   0  0  0  0  0  0  0  0  0  0  0  0
   -3.1136   -0.8544   -0.0305 H   0  0  0  0  0  0  0  0  0  0  0  0
   -1.1120    0.2507   -0.9955 H   0  0  0  0  0  0  0  0  0  0  0  0
   -5.5130   -1.5360   -0.4847 H   0  0  0  0  0  0  0  0  0  0  0  0
   -6.4114   -0.5921   -1.7069 H   0  0  0  0  0  0  0  0  0  0  0  0
   -6.2729    1.3790   -0.1145 H   0  0  0  0  0  0  0  0  0  0  0  0
   -4.9150   -0.6114    1.4907 H   0  0  0  0  0  0  0  0  0  0  0  0
   -5.8632   -0.0412    3.3680 H   0  0  0  0  0  0  0  0  0  0  0  0
   -5.1553    1.5593    3.1005 H   0  0  0  0  0  0  0  0  0  0  0  0
   -7.6006    1.3699    3.6824 H   0  0  0  0  0  0  0  0  0  0  0  0
   -7.1609    2.4715    2.2867 H   0  0  0  0  0  0  0  0  0  0  0  0
   -8.1872   -1.2292   -1.0152 H   0  0  0  0  0  0  0  0  0  0  0  0
  -11.3150   -1.3771   -1.1610 H   0  0  0  0  0  0  0  0  0  0  0  0
   -9.8223    0.8420    3.1309 H   0  0  0  0  0  0  0  0  0  0  0  0
  -12.3050   -0.0867    1.2843 H   0  0  0  0  0  0  0  0  0  0  0  0
  1  2  1  0
  2  3  1  0
  3  4  1  0
  4  5  1  0
  5  6  1  0
  6  7  1  0
  7  8  1  0
  8  9  2  0
  8 10  1  0
 10 11  1  0
 11 12  2  0
 12 13  1  0
 13 14  2  0
 14 15  1  0
 15 16  2  0
 14 17  1  0
 17 18  2  0
 17 19  2  0
 17 20  1  0
 20 21  1  0
 21 22  2  0
 22 23  1  0
 23 24  2  0
 24 25  1  0
 25 26  2  0
 24 27  1  0
 27 28  1  0
 28 29  1  0
 29 30  1  0
 30 31  1  0
 31 32  1  0
 32 33  2  0
 33 34  1  0
 34 35  2  0
 35 36  1  0
 35 37  1  0
 37 38  2  0
 37 39  1  0
 16 11  1  0
 26 21  1  0
 33 28  1  0
 38 32  1  0
  1 40  1  0
  1 41  1  0
  1 42  1  0
  2 43  1  0
  2 44  1  0
  3 45  1  0
  3 46  1  0
  4 47  1  0
  4 48  1  0
  5 49  1  0
  5 50  1  0
  6 51  1  0
  6 52  1  0
  7 53  1  0
 10 54  1  0
 12 55  1  0
 13 56  1  0
 15 57  1  0
 16 58  1  0
 20 59  1  0
 22 60  1  0
 23 61  1  0
 25 62  1  0
 26 63  1  0
 27 64  1  0
 27 65  1  0
 28 66  1  0
 29 67  1  0
 30 68  1  0
 30 69  1  0
 31 70  1  0
 31 71  1  0
 34 72  1  0
 36 73  1  0
 38 74  1  0
 39 75  1  0
M  END
>  <Ligand ID>  (1) 
LIG0004311

>  <Ligand>  (1) 
CHEMBL74085

>  <SMILES>  (1) 
CCCCCCNC(=O)Nc1ccc(cc1)S(=O)(=O)Nc1ccc(cc1)CC1NCCc2c1cc(O)c(c2)O

>  <CID>  (1) 
9831168.0

>  <ChEMBL ID>  (1) 
nan

>  <InChiKey>  (1) 
YSNYDDHHZGWFBH-UHFFFAOYSA-N

>  <InChi>  (1) 
InChI=1S/C29H36N4O5S/c1-2-3-4-5-15-31-29(36)32-22-10-12-24(13-11-22)39(37,38)33-23-8-6-20(7-9-23)17-26-25-19-28(35)27(34)18-21(25)14-16-30-26/h6-13,18-19,26,30,33-35H,2-5,14-17H2,1H3,(H2,31,32,36)

>  <IUPAC Name>  (1) 
1-[4-[[4-[(6,7-dihydroxy-1,2,3,4-tetrahydroisoquinolin-1-yl)methyl]phenyl]sulfamoyl]phenyl]-3-hexylurea

$$$$
