
     RDKit          3D

 61 65  0  0  0  0  0  0  0  0999 V2000
    2.7474   -0.2834   -0.6998 O   0  0  0  0  0  0  0  0  0  0  0  0
    2.7002   -0.7667    0.4817 C   0  0  0  0  0  0  0  0  0  0  0  0
    3.9401   -1.1906    1.0620 N   0  0  0  0  0  0  0  0  0  0  0  0
    5.0967   -1.0170    0.2333 C   0  0  0  0  0  0  0  0  0  0  0  0
    5.5446   -1.9948   -0.6269 C   0  0  0  0  0  0  0  0  0  0  0  0
    6.6677   -1.7349   -1.3907 C   0  0  0  0  0  0  0  0  0  0  0  0
    7.3054   -0.5195   -1.2761 C   0  0  0  0  0  0  0  0  0  0  0  0
    6.8549    0.4677   -0.4091 C   0  0  0  0  0  0  0  0  0  0  0  0
    5.7323    0.2170    0.3596 C   0  0  0  0  0  0  0  0  0  0  0  0
    5.2664    1.1818    1.2255 C   0  0  0  0  0  0  0  0  0  0  0  0
    5.8696    2.4146    1.3743 C   0  0  0  0  0  0  0  0  0  0  0  0
    6.9930    2.6450    0.5949 C   0  0  0  0  0  0  0  0  0  0  0  0
    7.4828    1.6909   -0.2847 C   0  0  0  0  0  0  0  0  0  0  0  0
    1.4123   -0.8788    1.2115 C   0  0  0  0  0  0  0  0  0  0  0  0
    0.3524   -0.3013    0.2677 C   0  0  0  0  0  0  0  0  0  0  0  0
   -0.9587   -0.3338    0.8278 N   0  0  0  0  0  0  0  0  0  0  0  0
   -1.5550   -1.5964    1.0117 C   0  0  0  0  0  0  0  0  0  0  0  0
   -2.8508   -1.8522    0.3345 C   0  0  0  0  0  0  0  0  0  0  0  0
   -3.3062   -0.8687   -0.6658 C   0  0  2  0  0  0  0  0  0  0  0  0
   -2.2874    0.2030   -1.0133 C   0  0  2  0  0  0  0  0  0  0  0  0
   -1.7753    0.7163    0.3183 C   0  0  1  0  0  0  0  0  0  0  0  0
   -2.8481    0.9799    1.3318 C   0  0  0  0  0  0  0  0  0  0  0  0
   -4.2249    0.8393    0.8221 C   0  0  0  0  0  0  0  0  0  0  0  0
   -4.4879   -0.0922   -0.1914 C   0  0  0  0  0  0  0  0  0  0  0  0
   -5.7557   -0.2669   -0.7052 C   0  0  0  0  0  0  0  0  0  0  0  0
   -6.7923    0.5067   -0.1969 C   0  0  0  0  0  0  0  0  0  0  0  0
   -6.5567    1.4343    0.8053 C   0  0  0  0  0  0  0  0  0  0  0  0
   -5.2805    1.5915    1.3036 C   0  0  0  0  0  0  0  0  0  0  0  0
   -8.0901    0.3453   -0.7047 O   0  0  0  0  0  0  0  0  0  0  0  0
   -2.8890    1.3354   -1.7749 C   0  0  0  0  0  0  0  0  0  0  0  0
   -3.7606   -1.5869   -1.9463 C   0  0  0  0  0  0  0  0  0  0  0  0
    3.9786   -1.5942    2.0196 H   0  0  0  0  0  0  0  0  0  0  0  0
    5.0004   -2.9325   -0.6736 H   0  0  0  0  0  0  0  0  0  0  0  0
    6.9873   -2.5276   -2.0526 H   0  0  0  0  0  0  0  0  0  0  0  0
    8.1909   -0.3246   -1.8842 H   0  0  0  0  0  0  0  0  0  0  0  0
    4.3875    0.9895    1.8298 H   0  0  0  0  0  0  0  0  0  0  0  0
    5.4784    3.1619    2.0692 H   0  0  0  0  0  0  0  0  0  0  0  0
    7.4565    3.6196    0.7228 H   0  0  0  0  0  0  0  0  0  0  0  0
    8.3630    1.8990   -0.8815 H   0  0  0  0  0  0  0  0  0  0  0  0
    1.4637   -0.2649    2.1433 H   0  0  0  0  0  0  0  0  0  0  0  0
    1.1980   -1.9355    1.4629 H   0  0  0  0  0  0  0  0  0  0  0  0
    0.4414   -0.8552   -0.6838 H   0  0  0  0  0  0  0  0  0  0  0  0
    0.6649    0.7483    0.1007 H   0  0  0  0  0  0  0  0  0  0  0  0
   -0.7753   -2.3675    0.7339 H   0  0  0  0  0  0  0  0  0  0  0  0
   -1.6789   -1.7622    2.1076 H   0  0  0  0  0  0  0  0  0  0  0  0
   -2.7828   -2.8607   -0.1477 H   0  0  0  0  0  0  0  0  0  0  0  0
   -3.6675   -1.9810    1.0766 H   0  0  0  0  0  0  0  0  0  0  0  0
   -1.4473   -0.2439   -1.5532 H   0  0  0  0  0  0  0  0  0  0  0  0
   -1.1612    1.5935    0.1060 H   0  0  0  0  0  0  0  0  0  0  0  0
   -2.7939    0.2857    2.2224 H   0  0  0  0  0  0  0  0  0  0  0  0
   -2.6826    2.0051    1.7614 H   0  0  0  0  0  0  0  0  0  0  0  0
   -5.9090   -1.0032   -1.4914 H   0  0  0  0  0  0  0  0  0  0  0  0
   -7.4016    2.0151    1.1692 H   0  0  0  0  0  0  0  0  0  0  0  0
   -5.1078    2.3239    2.0924 H   0  0  0  0  0  0  0  0  0  0  0  0
   -8.4500    1.1503   -1.2167 H   0  0  0  0  0  0  0  0  0  0  0  0
   -3.5276    1.0358   -2.6126 H   0  0  0  0  0  0  0  0  0  0  0  0
   -2.0228    1.8819   -2.2540 H   0  0  0  0  0  0  0  0  0  0  0  0
   -3.3590    2.0967   -1.1151 H   0  0  0  0  0  0  0  0  0  0  0  0
   -4.4369   -2.4279   -1.6954 H   0  0  0  0  0  0  0  0  0  0  0  0
   -2.8273   -2.0986   -2.3208 H   0  0  0  0  0  0  0  0  0  0  0  0
   -4.1255   -0.9113   -2.7151 H   0  0  0  0  0  0  0  0  0  0  0  0
  1  2  2  0
  2  3  1  0
  3  4  1  0
  4  5  2  0
  5  6  1  0
  6  7  2  0
  7  8  1  0
  8  9  2  0
  9 10  1  0
 10 11  2  0
 11 12  1  0
 12 13  2  0
  2 14  1  0
 14 15  1  0
 15 16  1  0
 16 17  1  0
 17 18  1  0
 18 19  1  0
 19 20  1  0
 20 21  1  0
 21 22  1  0
 22 23  1  0
 23 24  2  0
 24 25  1  0
 25 26  2  0
 26 27  1  0
 27 28  2  0
 26 29  1  0
 20 30  1  0
 19 31  1  6
  9  4  1  0
 21 16  1  0
 28 23  1  0
 13  8  1  0
 24 19  1  0
  3 32  1  0
  5 33  1  0
  6 34  1  0
  7 35  1  0
 10 36  1  0
 11 37  1  0
 12 38  1  0
 13 39  1  0
 14 40  1  0
 14 41  1  0
 15 42  1  0
 15 43  1  0
 17 44  1  0
 17 45  1  0
 18 46  1  0
 18 47  1  0
 20 48  1  6
 21 49  1  6
 22 50  1  0
 22 51  1  0
 25 52  1  0
 27 53  1  0
 28 54  1  0
 29 55  1  0
 30 56  1  0
 30 57  1  0
 30 58  1  0
 31 59  1  0
 31 60  1  0
 31 61  1  0
M  END
>  <Ligand ID>  (1) 
LIG0005487

>  <Ligand>  (1) 
CHEMBL3797228

>  <SMILES>  (1) 
O=C(Nc1cccc2c1cccc2)CCN1CC[C@@]2([C@H]([C@H]1Cc1c2cc(cc1)O)C)C

>  <CID>  (1) 
127046953.0

>  <ChEMBL ID>  (1) 
nan

>  <InChiKey>  (1) 
ZBEAXZAFQYRZBS-YJIIWGRFSA-N

>  <InChi>  (1) 
InChI=1S/C27H30N2O2/c1-18-25-16-20-10-11-21(30)17-23(20)27(18,2)13-15-29(25)14-12-26(31)28-24-9-5-7-19-6-3-4-8-22(19)24/h3-11,17-18,25,30H,12-16H2,1-2H3,(H,28,31)/t18-,25+,27+/m0/s1

>  <IUPAC Name>  (1) 
3-[(1R,9R,13R)-4-hydroxy-1,13-dimethyl-10-azatricyclo[7.3.1.02,7]trideca-2(7),3,5-trien-10-yl]-N-naphthalen-1-ylpropanamide

$$$$
