
     RDKit          3D

 78 78  0  0  0  0  0  0  0  0999 V2000
   -0.9916   -0.0390    0.0100 C   0  0  0  0  0  0  0  0  0  0  0  0
    0.4645    0.2378    0.1184 C   0  0  0  0  0  0  0  0  0  0  0  0
    0.8732    1.4263    0.2482 O   0  0  0  0  0  0  0  0  0  0  0  0
    1.4302   -0.7593    0.0846 O   0  0  0  0  0  0  0  0  0  0  0  0
   -9.2537    2.0552    2.8037 O   0  0  0  0  0  0  0  0  0  0  0  0
  -10.0521    1.4261    1.8675 C   0  0  0  0  0  0  0  0  0  0  0  0
   -9.2160    0.7647    0.8038 C   0  0  0  0  0  0  0  0  0  0  0  0
   -7.8400    0.8192    0.8196 C   0  0  0  0  0  0  0  0  0  0  0  0
   -7.1816    0.1718   -0.2080 C   0  0  0  0  0  0  0  0  0  0  0  0
   -7.8428   -0.5002   -1.2086 C   0  0  0  0  0  0  0  0  0  0  0  0
   -9.2376   -0.5442   -1.2076 C   0  0  0  0  0  0  0  0  0  0  0  0
   -9.9076    0.0983   -0.1867 C   0  0  0  0  0  0  0  0  0  0  0  0
  -11.3148    0.0580   -0.1789 O   0  0  0  0  0  0  0  0  0  0  0  0
   -5.6962    0.1839   -0.2618 C   0  0  2  0  0  0  0  0  0  0  0  0
   -5.2303   -0.6927    0.8771 C   0  0  0  0  0  0  0  0  0  0  0  0
   -3.8309   -0.7327    1.0852 N   0  0  0  0  0  0  0  0  0  0  0  0
   -3.0302   -1.3633    0.1013 C   0  0  0  0  0  0  0  0  0  0  0  0
   -1.5485   -1.2997    0.5126 C   0  0  0  0  0  0  0  0  0  0  0  0
   -1.0835    0.1081    0.6559 C   0  0  0  0  0  0  0  0  0  0  0  0
    0.3651    0.1444    1.0672 C   0  0  0  0  0  0  0  0  0  0  0  0
    1.2224   -0.5442    0.0320 C   0  0  0  0  0  0  0  0  0  0  0  0
    2.6955   -0.4768    0.4557 C   0  0  0  0  0  0  0  0  0  0  0  0
    3.4898   -1.1098   -0.4699 O   0  0  0  0  0  0  0  0  0  0  0  0
    3.4532   -0.6085   -1.7412 C   0  0  0  0  0  0  0  0  0  0  0  0
    3.8855    0.8379   -1.8407 C   0  0  0  0  0  0  0  0  0  0  0  0
    5.1706    1.0493   -1.4088 O   0  0  0  0  0  0  0  0  0  0  0  0
    6.1280    0.3520   -2.1013 C   0  0  0  0  0  0  0  0  0  0  0  0
    7.4666    0.6895   -1.5130 C   0  0  0  0  0  0  0  0  0  0  0  0
    8.2007    1.7644   -2.0167 C   0  0  0  0  0  0  0  0  0  0  0  0
    9.4179    2.0047   -1.4197 C   0  0  0  0  0  0  0  0  0  0  0  0
    9.9209    1.2507   -0.3804 C   0  0  0  0  0  0  0  0  0  0  0  0
    9.1727    0.1824    0.1078 C   0  0  0  0  0  0  0  0  0  0  0  0
    7.9571   -0.0722   -0.4749 C   0  0  0  0  0  0  0  0  0  0  0  0
    9.7503   -0.8197    1.4278 S   0  0  0  0  0  0  0  0  0  0  0  0
    8.5516   -1.3571    2.1533 O   0  0  0  0  0  0  0  0  0  0  0  0
   10.5570    0.0063    2.3897 O   0  0  0  0  0  0  0  0  0  0  0  0
   10.6503   -2.1679    0.8339 N   0  0  0  0  0  0  0  0  0  0  0  0
   -5.2995    1.5079   -0.0258 O   0  0  0  0  0  0  0  0  0  0  0  0
   -1.2207   -0.8244   -0.7569 H   0  0  0  0  0  0  0  0  0  0  0  0
   -1.5023    0.8861   -0.2482 H   0  0  0  0  0  0  0  0  0  0  0  0
   -1.3424   -0.3781    0.9879 H   0  0  0  0  0  0  0  0  0  0  0  0
    2.2890   -0.5492   -0.4440 H   0  0  0  0  0  0  0  0  0  0  0  0
   -9.1179    1.4992    3.6263 H   0  0  0  0  0  0  0  0  0  0  0  0
  -10.6769    2.1690    1.3587 H   0  0  0  0  0  0  0  0  0  0  0  0
  -10.6236    0.6008    2.3420 H   0  0  0  0  0  0  0  0  0  0  0  0
   -7.3255    1.3524    1.6154 H   0  0  0  0  0  0  0  0  0  0  0  0
   -7.3061   -1.0004   -2.0047 H   0  0  0  0  0  0  0  0  0  0  0  0
   -9.7610   -1.0800   -2.0055 H   0  0  0  0  0  0  0  0  0  0  0  0
  -11.7097   -0.5186    0.5569 H   0  0  0  0  0  0  0  0  0  0  0  0
   -5.2941   -0.0916   -1.2337 H   0  0  0  0  0  0  0  0  0  0  0  0
   -5.6045   -1.7295    0.7883 H   0  0  0  0  0  0  0  0  0  0  0  0
   -5.6985   -0.2944    1.8034 H   0  0  0  0  0  0  0  0  0  0  0  0
   -3.4714   -0.6653    2.0338 H   0  0  0  0  0  0  0  0  0  0  0  0
   -3.1710   -0.9918   -0.9233 H   0  0  0  0  0  0  0  0  0  0  0  0
   -3.2577   -2.4487    0.0794 H   0  0  0  0  0  0  0  0  0  0  0  0
   -0.9615   -1.8354   -0.2618 H   0  0  0  0  0  0  0  0  0  0  0  0
   -1.4784   -1.8793    1.4481 H   0  0  0  0  0  0  0  0  0  0  0  0
   -1.1316    0.6378   -0.3360 H   0  0  0  0  0  0  0  0  0  0  0  0
   -1.6453    0.6797    1.4270 H   0  0  0  0  0  0  0  0  0  0  0  0
    0.5219   -0.3004    2.0758 H   0  0  0  0  0  0  0  0  0  0  0  0
    0.6531    1.2299    1.1394 H   0  0  0  0  0  0  0  0  0  0  0  0
    0.9856   -1.6446    0.0852 H   0  0  0  0  0  0  0  0  0  0  0  0
    1.0447   -0.0982   -0.9451 H   0  0  0  0  0  0  0  0  0  0  0  0
    2.7626   -1.0193    1.4146 H   0  0  0  0  0  0  0  0  0  0  0  0
    2.9854    0.5780    0.6490 H   0  0  0  0  0  0  0  0  0  0  0  0
    4.1261   -1.2709   -2.3562 H   0  0  0  0  0  0  0  0  0  0  0  0
    2.4675   -0.6966   -2.2413 H   0  0  0  0  0  0  0  0  0  0  0  0
    3.7994    1.1841   -2.8923 H   0  0  0  0  0  0  0  0  0  0  0  0
    3.2055    1.4595   -1.2506 H   0  0  0  0  0  0  0  0  0  0  0  0
    6.1561    0.7178   -3.1522 H   0  0  0  0  0  0  0  0  0  0  0  0
    6.0589   -0.7506   -2.0297 H   0  0  0  0  0  0  0  0  0  0  0  0
    7.8163    2.3713   -2.8390 H   0  0  0  0  0  0  0  0  0  0  0  0
    9.9956    2.8280   -1.7945 H   0  0  0  0  0  0  0  0  0  0  0  0
   10.8891    1.4737    0.0655 H   0  0  0  0  0  0  0  0  0  0  0  0
    7.3413   -0.8920   -0.1271 H   0  0  0  0  0  0  0  0  0  0  0  0
   11.2213   -1.8310    0.0253 H   0  0  0  0  0  0  0  0  0  0  0  0
   11.1661   -2.6256    1.5901 H   0  0  0  0  0  0  0  0  0  0  0  0
   -5.4516    1.7516    0.9186 H   0  0  0  0  0  0  0  0  0  0  0  0
  1  2  1  0
  2  3  2  0
  2  4  1  0
  5  6  1  0
  6  7  1  0
  7  8  2  0
  8  9  1  0
  9 10  2  0
 10 11  1  0
 11 12  2  0
 12 13  1  0
  9 14  1  0
 14 15  1  0
 15 16  1  0
 16 17  1  0
 17 18  1  0
 18 19  1  0
 19 20  1  0
 20 21  1  0
 21 22  1  0
 22 23  1  0
 23 24  1  0
 24 25  1  0
 25 26  1  0
 26 27  1  0
 27 28  1  0
 28 29  2  0
 29 30  1  0
 30 31  2  0
 31 32  1  0
 32 33  2  0
 32 34  1  0
 34 35  2  0
 34 36  2  0
 34 37  1  0
 14 38  1  0
 12  7  1  0
 33 28  1  0
  1 39  1  0
  1 40  1  0
  1 41  1  0
  4 42  1  0
  5 43  1  0
  6 44  1  0
  6 45  1  0
  8 46  1  0
 10 47  1  0
 11 48  1  0
 13 49  1  0
 14 50  1  6
 15 51  1  0
 15 52  1  0
 16 53  1  0
 17 54  1  0
 17 55  1  0
 18 56  1  0
 18 57  1  0
 19 58  1  0
 19 59  1  0
 20 60  1  0
 20 61  1  0
 21 62  1  0
 21 63  1  0
 22 64  1  0
 22 65  1  0
 24 66  1  0
 24 67  1  0
 25 68  1  0
 25 69  1  0
 27 70  1  0
 27 71  1  0
 29 72  1  0
 30 73  1  0
 31 74  1  0
 33 75  1  0
 37 76  1  0
 37 77  1  0
 38 78  1  0
M  END
>  <Ligand ID>  (1) 
LIG0003344

>  <Ligand>  (1) 
CHEMBL1084656

>  <SMILES>  (1) 
CC(=O)O.OCc1cc(ccc1O)[C@H](CNCCCCCCOCCOCc1cccc(c1)S(=O)(=O)N)O

>  <CID>  (1) 
46833101.0

>  <ChEMBL ID>  (1) 
nan

>  <InChiKey>  (1) 
BDDTUXBLJQXXHC-JIDHJSLPSA-N

>  <InChi>  (1) 
InChI=1S/C24H36N2O7S.C2H4O2/c25-34(30,31)22-7-5-6-19(14-22)18-33-13-12-32-11-4-2-1-3-10-26-16-24(29)20-8-9-23(28)21(15-20)17-27;1-2(3)4/h5-9,14-15,24,26-29H,1-4,10-13,16-18H2,(H2,25,30,31);1H3,(H,3,4)/t24-;/m0./s1

>  <IUPAC Name>  (1) 
acetic acid;3-[2-[6-[[(2R)-2-hydroxy-2-[4-hydroxy-3-(hydroxymethyl)phenyl]ethyl]amino]hexoxy]ethoxymethyl]benzenesulfonamide

$$$$
