
     RDKit          3D

 26 26  0  0  0  0  0  0  0  0999 V2000
   -3.5895    1.0630   -0.5607 N   0  0  0  0  0  0  0  0  0  0  0  0
   -2.9992   -0.0698    0.1044 C   0  0  0  0  0  0  0  0  0  0  0  0
   -1.5775    0.1893    0.5486 C   0  0  1  0  0  0  0  0  0  0  0  0
   -0.9621   -1.0019    1.2459 C   0  0  0  0  0  0  0  0  0  0  0  0
   -0.5067   -0.5192   -0.1476 C   0  0  2  0  0  0  0  0  0  0  0  0
    0.8979   -0.1534   -0.1804 C   0  0  0  0  0  0  0  0  0  0  0  0
    1.8367   -1.1333   -0.4980 C   0  0  0  0  0  0  0  0  0  0  0  0
    3.1855   -0.8793   -0.5530 C   0  0  0  0  0  0  0  0  0  0  0  0
    3.6344    0.3851   -0.2865 C   0  0  0  0  0  0  0  0  0  0  0  0
    2.7419    1.3883    0.0327 C   0  0  0  0  0  0  0  0  0  0  0  0
    1.3886    1.0991    0.0796 C   0  0  0  0  0  0  0  0  0  0  0  0
    0.5472    2.0866    0.3906 F   0  0  0  0  0  0  0  0  0  0  0  0
    4.9570    0.6428   -0.3384 F   0  0  0  0  0  0  0  0  0  0  0  0
    0.6874    0.0000    0.0000 Cl  0  0  0  0  0  0  0  0  0  0  0  0
   -4.4122    0.7071   -1.1005 H   0  0  0  0  0  0  0  0  0  0  0  0
   -2.9509    1.5479   -1.1994 H   0  0  0  0  0  0  0  0  0  0  0  0
   -3.0015   -0.9367   -0.5873 H   0  0  0  0  0  0  0  0  0  0  0  0
   -3.5987   -0.3276    1.0003 H   0  0  0  0  0  0  0  0  0  0  0  0
   -1.4723    1.1939    1.0163 H   0  0  0  0  0  0  0  0  0  0  0  0
   -1.4793   -1.9722    1.2450 H   0  0  0  0  0  0  0  0  0  0  0  0
   -0.3538   -0.7425    2.1120 H   0  0  0  0  0  0  0  0  0  0  0  0
   -0.8136   -1.1675   -1.0127 H   0  0  0  0  0  0  0  0  0  0  0  0
    1.5339   -2.1615   -0.7201 H   0  0  0  0  0  0  0  0  0  0  0  0
    3.9154   -1.6494   -0.8019 H   0  0  0  0  0  0  0  0  0  0  0  0
    3.0788    2.4110    0.2505 H   0  0  0  0  0  0  0  0  0  0  0  0
   -0.6874    0.0000    0.0000 H   0  0  0  0  0  0  0  0  0  0  0  0
  1  2  1  0
  2  3  1  0
  3  4  1  0
  4  5  1  0
  5  6  1  0
  6  7  2  0
  7  8  1  0
  8  9  2  0
  9 10  1  0
 10 11  2  0
 11 12  1  0
  9 13  1  0
  5  3  1  0
 11  6  1  0
  1 15  1  0
  1 16  1  0
  2 17  1  0
  2 18  1  0
  3 19  1  1
  4 20  1  0
  4 21  1  0
  5 22  1  6
  7 23  1  0
  8 24  1  0
 10 25  1  0
 14 26  1  0
M  END
>  <Ligand ID>  (1) 
LIG0002363

>  <Ligand>  (1) 
CHEMBL471802

>  <SMILES>  (1) 
NC[C@H]1C[C@@H]1c1ccc(cc1F)F.Cl

>  <CID>  (1) 
44573013.0

>  <ChEMBL ID>  (1) 
nan

>  <InChiKey>  (1) 
XGBZQNZNWZVGKB-VNUWRVCDSA-N

>  <InChi>  (1) 
InChI=1S/C10H11F2N.ClH/c11-7-1-2-8(10(12)4-7)9-3-6(9)5-13;/h1-2,4,6,9H,3,5,13H2;1H/t6-,9+;/m1./s1

>  <IUPAC Name>  (1) 
[(1S,2S)-2-(2,4-difluorophenyl)cyclopropyl]methanamine;hydrochloride

$$$$
