
     RDKit          3D

 38 40  0  0  0  0  0  0  0  0999 V2000
    5.1156    2.1642   -0.2185 N   0  0  0  0  0  0  0  0  0  0  0  0
    4.4888    0.9188   -0.5453 C   0  0  0  0  0  0  0  0  0  0  0  0
    3.2285    0.6395    0.2451 C   0  0  1  0  0  0  0  0  0  0  0  0
    2.0659    1.5564    0.1736 C   0  0  0  0  0  0  0  0  0  0  0  0
    2.0018    0.3178   -0.5949 C   0  0  2  0  0  0  0  0  0  0  0  0
    1.2810   -0.9018   -0.1433 C   0  0  0  0  0  0  0  0  0  0  0  0
    1.9496   -1.8684    0.5730 C   0  0  0  0  0  0  0  0  0  0  0  0
    1.3210   -3.0134    1.0083 C   0  0  0  0  0  0  0  0  0  0  0  0
   -0.0125   -3.1722    0.7058 C   0  0  0  0  0  0  0  0  0  0  0  0
   -0.6727   -2.1966   -0.0132 C   0  0  0  0  0  0  0  0  0  0  0  0
   -0.0853   -1.0426   -0.4649 C   0  0  0  0  0  0  0  0  0  0  0  0
   -0.6474   -0.0427   -1.1692 O   0  0  0  0  0  0  0  0  0  0  0  0
   -1.8728    0.2553   -1.6807 C   0  0  0  0  0  0  0  0  0  0  0  0
   -3.0004    0.3976   -0.7372 C   0  0  0  0  0  0  0  0  0  0  0  0
   -3.1875    1.6370   -0.1149 C   0  0  0  0  0  0  0  0  0  0  0  0
   -4.2374    1.8191    0.7551 C   0  0  0  0  0  0  0  0  0  0  0  0
   -5.1297    0.8264    1.0503 C   0  0  0  0  0  0  0  0  0  0  0  0
   -4.9633   -0.3998    0.4487 C   0  0  0  0  0  0  0  0  0  0  0  0
   -3.9086   -0.5770   -0.4233 C   0  0  0  0  0  0  0  0  0  0  0  0
    5.1136    2.7658   -1.0946 H   0  0  0  0  0  0  0  0  0  0  0  0
    6.1330    2.0757    0.0399 H   0  0  0  0  0  0  0  0  0  0  0  0
    4.2864    0.8234   -1.6518 H   0  0  0  0  0  0  0  0  0  0  0  0
    5.1950    0.0903   -0.3322 H   0  0  0  0  0  0  0  0  0  0  0  0
    3.3991    0.1730    1.2133 H   0  0  0  0  0  0  0  0  0  0  0  0
    2.2341    2.4875   -0.4079 H   0  0  0  0  0  0  0  0  0  0  0  0
    1.4685    1.7460    1.0919 H   0  0  0  0  0  0  0  0  0  0  0  0
    2.1256    0.3668   -1.7024 H   0  0  0  0  0  0  0  0  0  0  0  0
    3.0074   -1.7825    0.8331 H   0  0  0  0  0  0  0  0  0  0  0  0
    1.8010   -3.7965    1.5708 H   0  0  0  0  0  0  0  0  0  0  0  0
   -0.5518   -4.0600    1.0281 H   0  0  0  0  0  0  0  0  0  0  0  0
   -1.7007   -2.3645   -0.2290 H   0  0  0  0  0  0  0  0  0  0  0  0
   -1.7675    1.2311   -2.2515 H   0  0  0  0  0  0  0  0  0  0  0  0
   -2.1148   -0.5061   -2.4776 H   0  0  0  0  0  0  0  0  0  0  0  0
   -2.5386    2.4725   -0.2856 H   0  0  0  0  0  0  0  0  0  0  0  0
   -4.3894    2.7843    1.2444 H   0  0  0  0  0  0  0  0  0  0  0  0
   -5.9668    0.9312    1.7285 H   0  0  0  0  0  0  0  0  0  0  0  0
   -5.6534   -1.2097    0.6606 H   0  0  0  0  0  0  0  0  0  0  0  0
   -3.8152   -1.5458   -0.8794 H   0  0  0  0  0  0  0  0  0  0  0  0
  1  2  1  0
  2  3  1  0
  3  4  1  0
  4  5  1  0
  5  6  1  0
  6  7  2  0
  7  8  1  0
  8  9  2  0
  9 10  1  0
 10 11  2  0
 11 12  1  0
 12 13  1  0
 13 14  1  0
 14 15  2  0
 15 16  1  0
 16 17  2  0
 17 18  1  0
 18 19  2  0
  5  3  1  0
 11  6  1  0
 19 14  1  0
  1 20  1  0
  1 21  1  0
  2 22  1  0
  2 23  1  0
  3 24  1  1
  4 25  1  0
  4 26  1  0
  5 27  1  6
  7 28  1  0
  8 29  1  0
  9 30  1  0
 10 31  1  0
 13 32  1  0
 13 33  1  0
 15 34  1  0
 16 35  1  0
 17 36  1  0
 18 37  1  0
 19 38  1  0
M  END
>  <Ligand ID>  (1) 
LIG0005682

>  <Ligand>  (1) 
CHEMBL2022192

>  <SMILES>  (1) 
NC[C@H]1C[C@@H]1c1ccccc1OCc1ccccc1

>  <CID>  (1) 
70693928.0

>  <ChEMBL ID>  (1) 
nan

>  <InChiKey>  (1) 
OJTBSCPIXUGRQY-ZBFHGGJFSA-N

>  <InChi>  (1) 
InChI=1S/C17H19NO/c18-11-14-10-16(14)15-8-4-5-9-17(15)19-12-13-6-2-1-3-7-13/h1-9,14,16H,10-12,18H2/t14-,16+/m1/s1

>  <IUPAC Name>  (1) 
[(1S,2S)-2-(2-phenylmethoxyphenyl)cyclopropyl]methanamine

$$$$
