
     RDKit          3D

 52 53  0  0  0  0  0  0  0  0999 V2000
    0.1482   -0.2199    0.1837 O   0  0  0  0  0  0  0  0  0  0  0  0
   -0.3966    0.1889   -0.8957 C   0  0  0  0  0  0  0  0  0  0  0  0
    0.3955    0.4920   -2.0365 N   0  0  0  0  0  0  0  0  0  0  0  0
    1.8183    0.3215   -1.9262 C   0  0  0  0  0  0  0  0  0  0  0  0
    2.3664   -0.0919   -0.8335 N   0  0  0  0  0  0  0  0  0  0  0  0
    3.8335   -0.2287   -0.8376 C   0  0  0  0  0  0  0  0  0  0  0  0
    4.2027   -1.1436    0.2802 C   0  0  0  0  0  0  0  0  0  0  0  0
    5.6603   -1.3670    0.4147 C   0  0  0  0  0  0  0  0  0  0  0  0
    6.4647   -0.1889    0.7653 C   0  0  0  0  0  0  0  0  0  0  0  0
    6.1426    1.1038    1.0820 C   0  0  0  0  0  0  0  0  0  0  0  0
    7.2734    1.8147    1.3736 N   0  0  0  0  0  0  0  0  0  0  0  0
    8.2889    0.9485    1.2342 C   0  0  0  0  0  0  0  0  0  0  0  0
    7.8196   -0.2468    0.8726 N   0  0  0  0  0  0  0  0  0  0  0  0
    2.5692    0.6396   -3.0998 N   0  0  0  0  0  0  0  0  0  0  0  0
   -1.8661    0.3685   -1.0200 C   0  0  0  0  0  0  0  0  0  0  0  0
   -2.5505   -0.0021    0.2996 C   0  0  2  0  0  0  0  0  0  0  0  0
   -4.0286    0.1961    0.1204 C   0  0  0  0  0  0  0  0  0  0  0  0
   -4.8139   -0.1351    1.3472 C   0  0  0  0  0  0  0  0  0  0  0  0
   -6.2551    0.2599    1.1791 C   0  0  0  0  0  0  0  0  0  0  0  0
   -6.7375    0.1437   -0.2310 C   0  0  0  0  0  0  0  0  0  0  0  0
   -5.9932   -0.9715   -0.9380 C   0  0  0  0  0  0  0  0  0  0  0  0
   -4.5091   -0.6845   -1.0137 C   0  0  0  0  0  0  0  0  0  0  0  0
   -1.9499    0.8416    1.3668 C   0  0  0  0  0  0  0  0  0  0  0  0
   -0.0364    0.8228   -2.9125 H   0  0  0  0  0  0  0  0  0  0  0  0
    4.3419    0.7176   -0.7951 H   0  0  0  0  0  0  0  0  0  0  0  0
    4.1433   -0.7192   -1.8067 H   0  0  0  0  0  0  0  0  0  0  0  0
    3.7908   -0.7553    1.2478 H   0  0  0  0  0  0  0  0  0  0  0  0
    3.7089   -2.1309    0.0987 H   0  0  0  0  0  0  0  0  0  0  0  0
    6.0677   -1.7457   -0.5546 H   0  0  0  0  0  0  0  0  0  0  0  0
    5.8191   -2.1826    1.1835 H   0  0  0  0  0  0  0  0  0  0  0  0
    5.1839    1.5540    1.1316 H   0  0  0  0  0  0  0  0  0  0  0  0
    9.3268    1.1822    1.3903 H   0  0  0  0  0  0  0  0  0  0  0  0
    8.4265   -1.0880    0.7031 H   0  0  0  0  0  0  0  0  0  0  0  0
    3.2434    1.4363   -3.0028 H   0  0  0  0  0  0  0  0  0  0  0  0
    2.4320    0.0989   -3.9717 H   0  0  0  0  0  0  0  0  0  0  0  0
   -2.1131    1.4475   -1.1695 H   0  0  0  0  0  0  0  0  0  0  0  0
   -2.2758   -0.2200   -1.8582 H   0  0  0  0  0  0  0  0  0  0  0  0
   -2.3436   -1.0742    0.4813 H   0  0  0  0  0  0  0  0  0  0  0  0
   -4.2204    1.2440   -0.2145 H   0  0  0  0  0  0  0  0  0  0  0  0
   -4.3557    0.3454    2.2110 H   0  0  0  0  0  0  0  0  0  0  0  0
   -4.8300   -1.2583    1.4315 H   0  0  0  0  0  0  0  0  0  0  0  0
   -6.4287    1.3228    1.5201 H   0  0  0  0  0  0  0  0  0  0  0  0
   -6.9225   -0.3488    1.8258 H   0  0  0  0  0  0  0  0  0  0  0  0
   -6.6431    1.1102   -0.7792 H   0  0  0  0  0  0  0  0  0  0  0  0
   -7.8112   -0.1327   -0.2345 H   0  0  0  0  0  0  0  0  0  0  0  0
   -6.2300   -1.8949   -0.3567 H   0  0  0  0  0  0  0  0  0  0  0  0
   -6.4567   -1.1069   -1.9373 H   0  0  0  0  0  0  0  0  0  0  0  0
   -4.3483   -0.1899   -1.9926 H   0  0  0  0  0  0  0  0  0  0  0  0
   -3.9820   -1.6550   -0.9973 H   0  0  0  0  0  0  0  0  0  0  0  0
   -1.1779    1.5302    0.9815 H   0  0  0  0  0  0  0  0  0  0  0  0
   -1.5097    0.1815    2.1496 H   0  0  0  0  0  0  0  0  0  0  0  0
   -2.6822    1.4703    1.9120 H   0  0  0  0  0  0  0  0  0  0  0  0
  1  2  2  0
  2  3  1  0
  3  4  1  0
  4  5  2  3
  5  6  1  0
  6  7  1  0
  7  8  1  0
  8  9  1  0
  9 10  2  0
 10 11  1  0
 11 12  2  0
 12 13  1  0
  4 14  1  0
  2 15  1  0
 15 16  1  0
 16 17  1  0
 17 18  1  0
 18 19  1  0
 19 20  1  0
 20 21  1  0
 21 22  1  0
 16 23  1  0
 13  9  1  0
 22 17  1  0
  3 24  1  0
  6 25  1  0
  6 26  1  0
  7 27  1  0
  7 28  1  0
  8 29  1  0
  8 30  1  0
 10 31  1  0
 12 32  1  0
 13 33  1  0
 14 34  1  0
 14 35  1  0
 15 36  1  0
 15 37  1  0
 16 38  1  1
 17 39  1  0
 18 40  1  0
 18 41  1  0
 19 42  1  0
 19 43  1  0
 20 44  1  0
 20 45  1  0
 21 46  1  0
 21 47  1  0
 22 48  1  0
 22 49  1  0
 23 50  1  0
 23 51  1  0
 23 52  1  0
M  END
>  <Ligand ID>  (1) 
LIG0000807

>  <Ligand>  (1) 
CHEMBL1096430

>  <SMILES>  (1) 
O=C(NC(=NCCCc1cnc[nH]1)N)C[C@H](C1CCCCC1)C

>  <CID>  (1) 
46887042.0

>  <ChEMBL ID>  (1) 
nan

>  <InChiKey>  (1) 
GVGOZYJHWUIVHV-CYBMUJFWSA-N

>  <InChi>  (1) 
InChI=1S/C17H29N5O/c1-13(14-6-3-2-4-7-14)10-16(23)22-17(18)20-9-5-8-15-11-19-12-21-15/h11-14H,2-10H2,1H3,(H,19,21)(H3,18,20,22,23)/t13-/m1/s1

>  <IUPAC Name>  (1) 
(3R)-3-cyclohexyl-N-[N'-[3-(1H-imidazol-5-yl)propyl]carbamimidoyl]butanamide

$$$$
