
     RDKit          3D

 96100  0  0  0  0  0  0  0  0999 V2000
   -5.4977    4.6301    2.3572 C   0  0  0  0  0  0  0  0  0  0  0  0
   -4.9093    3.2726    2.2047 C   0  0  0  0  0  0  0  0  0  0  0  0
   -4.6160    2.5374    3.1985 O   0  0  0  0  0  0  0  0  0  0  0  0
   -4.6878    2.8294    0.8533 N   0  0  0  0  0  0  0  0  0  0  0  0
   -4.1350    1.5392    0.5304 C   0  0  2  0  0  0  0  0  0  0  0  0
   -2.7064    1.6536    0.1113 C   0  0  0  0  0  0  0  0  0  0  0  0
   -2.1419    2.7767    0.2105 O   0  0  0  0  0  0  0  0  0  0  0  0
   -1.9716    0.5405   -0.3918 N   0  0  0  0  0  0  0  0  0  0  0  0
   -0.5556    0.6900   -0.7759 C   0  0  1  0  0  0  0  0  0  0  0  0
    0.0840   -0.5828   -0.4090 C   0  0  0  0  0  0  0  0  0  0  0  0
   -0.7023   -1.5041    0.0075 O   0  0  0  0  0  0  0  0  0  0  0  0
    1.4721   -0.8444   -0.4868 N   0  0  0  0  0  0  0  0  0  0  0  0
    2.5584    0.0773   -0.8723 C   0  0  0  0  0  0  0  0  0  0  0  0
    3.5995   -0.2337    0.1839 C   0  0  2  0  0  0  0  0  0  0  0  0
    3.2813   -1.6466    0.6950 C   0  0  0  0  0  0  0  0  0  0  0  0
    2.1841   -2.0913   -0.2297 C   0  0  1  0  0  0  0  0  0  0  0  0
    1.3104   -3.1440    0.3584 C   0  0  0  0  0  0  0  0  0  0  0  0
    2.1880   -4.3919    0.5740 C   0  0  0  0  0  0  0  0  0  0  0  0
    1.3891   -5.5047    1.1741 C   0  0  0  0  0  0  0  0  0  0  0  0
    2.1603   -6.6943    1.3826 N   0  0  0  0  0  0  0  0  0  0  0  0
    3.3129   -6.8021    1.9090 C   0  0  0  0  0  0  0  0  0  0  0  0
    4.1020   -5.7405    2.4149 N   0  0  0  0  0  0  0  0  0  0  0  0
    3.8650   -8.1243    1.9979 N   0  0  0  0  0  0  0  0  0  0  0  0
    3.5632    0.5783    1.2845 O   0  0  0  0  0  0  0  0  0  0  0  0
    4.7271    1.1886    1.6558 C   0  0  0  0  0  0  0  0  0  0  0  0
    5.3217    2.1215    0.6984 C   0  0  0  0  0  0  0  0  0  0  0  0
    6.2430    1.8281   -0.2582 C   0  0  0  0  0  0  0  0  0  0  0  0
    6.7239    2.8106   -1.1068 C   0  0  0  0  0  0  0  0  0  0  0  0
    6.3040    4.1279   -1.0335 C   0  0  0  0  0  0  0  0  0  0  0  0
    5.3709    4.4277   -0.0647 C   0  0  0  0  0  0  0  0  0  0  0  0
    4.8994    3.4549    0.7690 C   0  0  0  0  0  0  0  0  0  0  0  0
    4.9016    5.7125    0.0766 C   0  0  0  0  0  0  0  0  0  0  0  0
    5.3902    6.6797   -0.7736 C   0  0  0  0  0  0  0  0  0  0  0  0
    6.3183    6.4249   -1.7504 C   0  0  0  0  0  0  0  0  0  0  0  0
    6.7746    5.1165   -1.8700 C   0  0  0  0  0  0  0  0  0  0  0  0
   -0.6017    0.8005   -2.3198 C   0  0  0  0  0  0  0  0  0  0  0  0
   -1.2089   -0.4455   -2.8470 C   0  0  0  0  0  0  0  0  0  0  0  0
   -2.5912   -0.4506   -2.9843 C   0  0  0  0  0  0  0  0  0  0  0  0
   -3.2454   -1.5883   -3.4786 C   0  0  0  0  0  0  0  0  0  0  0  0
   -2.4799   -2.6834   -3.8179 C   0  0  0  0  0  0  0  0  0  0  0  0
   -1.1083   -2.6594   -3.6747 C   0  0  0  0  0  0  0  0  0  0  0  0
   -0.4362   -1.5414   -3.1860 C   0  0  0  0  0  0  0  0  0  0  0  0
   -4.9445    0.7430   -0.4341 C   0  0  0  0  0  0  0  0  0  0  0  0
   -6.3159    0.4714    0.0754 C   0  0  0  0  0  0  0  0  0  0  0  0
   -6.4934   -0.6511    0.8538 C   0  0  0  0  0  0  0  0  0  0  0  0
   -7.7491   -0.9764    1.3696 C   0  0  0  0  0  0  0  0  0  0  0  0
   -8.8279   -0.1395    1.0807 C   0  0  0  0  0  0  0  0  0  0  0  0
   -8.6556    0.9848    0.3020 C   0  0  0  0  0  0  0  0  0  0  0  0
   -7.3961    1.2813   -0.1954 C   0  0  0  0  0  0  0  0  0  0  0  0
  -10.0890   -0.4556    1.5918 O   0  0  0  0  0  0  0  0  0  0  0  0
   -5.7829    4.8149    3.4259 H   0  0  0  0  0  0  0  0  0  0  0  0
   -4.8085    5.4320    2.0723 H   0  0  0  0  0  0  0  0  0  0  0  0
   -6.4480    4.6185    1.7512 H   0  0  0  0  0  0  0  0  0  0  0  0
   -4.9268    3.4479    0.0272 H   0  0  0  0  0  0  0  0  0  0  0  0
   -4.0614    0.9466    1.5066 H   0  0  0  0  0  0  0  0  0  0  0  0
   -2.4247   -0.4002   -0.4964 H   0  0  0  0  0  0  0  0  0  0  0  0
   -0.1204    1.6040   -0.4050 H   0  0  0  0  0  0  0  0  0  0  0  0
    2.8859   -0.2537   -1.8774 H   0  0  0  0  0  0  0  0  0  0  0  0
    2.2360    1.1200   -0.8973 H   0  0  0  0  0  0  0  0  0  0  0  0
    4.5590   -0.3286   -0.3274 H   0  0  0  0  0  0  0  0  0  0  0  0
    4.1672   -2.3179    0.6308 H   0  0  0  0  0  0  0  0  0  0  0  0
    2.8819   -1.6212    1.7417 H   0  0  0  0  0  0  0  0  0  0  0  0
    2.6448   -2.4716   -1.1692 H   0  0  0  0  0  0  0  0  0  0  0  0
    0.8735   -2.8755    1.3191 H   0  0  0  0  0  0  0  0  0  0  0  0
    0.5316   -3.4159   -0.3962 H   0  0  0  0  0  0  0  0  0  0  0  0
    2.5923   -4.6982   -0.4147 H   0  0  0  0  0  0  0  0  0  0  0  0
    3.0154   -4.0486    1.1917 H   0  0  0  0  0  0  0  0  0  0  0  0
    0.4804   -5.7124    0.5711 H   0  0  0  0  0  0  0  0  0  0  0  0
    1.0466   -5.1338    2.1833 H   0  0  0  0  0  0  0  0  0  0  0  0
    3.7543   -5.2777    3.3023 H   0  0  0  0  0  0  0  0  0  0  0  0
    4.9719   -5.4497    1.9233 H   0  0  0  0  0  0  0  0  0  0  0  0
    3.9045   -8.7195    1.1460 H   0  0  0  0  0  0  0  0  0  0  0  0
    4.2149   -8.4424    2.9473 H   0  0  0  0  0  0  0  0  0  0  0  0
    4.6660    1.6477    2.6594 H   0  0  0  0  0  0  0  0  0  0  0  0
    5.4858    0.3522    1.8026 H   0  0  0  0  0  0  0  0  0  0  0  0
    6.6064    0.8307   -0.3543 H   0  0  0  0  0  0  0  0  0  0  0  0
    7.4476    2.5698   -1.8556 H   0  0  0  0  0  0  0  0  0  0  0  0
    4.1579    3.7417    1.5236 H   0  0  0  0  0  0  0  0  0  0  0  0
    4.1664    5.9948    0.8265 H   0  0  0  0  0  0  0  0  0  0  0  0
    5.0043    7.6955   -0.6436 H   0  0  0  0  0  0  0  0  0  0  0  0
    6.7129    7.1784   -2.4285 H   0  0  0  0  0  0  0  0  0  0  0  0
    7.5155    4.8355   -2.6283 H   0  0  0  0  0  0  0  0  0  0  0  0
    0.4055    0.8991   -2.7512 H   0  0  0  0  0  0  0  0  0  0  0  0
   -1.2442    1.6789   -2.5506 H   0  0  0  0  0  0  0  0  0  0  0  0
   -3.1810    0.4132   -2.7151 H   0  0  0  0  0  0  0  0  0  0  0  0
   -4.3216   -1.5601   -3.5734 H   0  0  0  0  0  0  0  0  0  0  0  0
   -3.0178   -3.5558   -4.1995 H   0  0  0  0  0  0  0  0  0  0  0  0
   -0.5581   -3.5326   -3.9519 H   0  0  0  0  0  0  0  0  0  0  0  0
    0.6265   -1.5322   -3.0802 H   0  0  0  0  0  0  0  0  0  0  0  0
   -5.0858    1.3501   -1.3723 H   0  0  0  0  0  0  0  0  0  0  0  0
   -4.4361   -0.1956   -0.6969 H   0  0  0  0  0  0  0  0  0  0  0  0
   -5.6630   -1.3307    1.1007 H   0  0  0  0  0  0  0  0  0  0  0  0
   -7.8727   -1.8585    1.9785 H   0  0  0  0  0  0  0  0  0  0  0  0
   -9.5110    1.6094    0.0964 H   0  0  0  0  0  0  0  0  0  0  0  0
   -7.2345    2.1672   -0.8146 H   0  0  0  0  0  0  0  0  0  0  0  0
  -10.8350   -0.6189    0.9328 H   0  0  0  0  0  0  0  0  0  0  0  0
  1  2  1  0
  2  3  2  0
  2  4  1  0
  4  5  1  0
  5  6  1  0
  6  7  2  0
  6  8  1  0
  8  9  1  0
  9 10  1  0
 10 11  2  0
 10 12  1  0
 12 13  1  0
 13 14  1  0
 14 15  1  0
 15 16  1  0
 16 17  1  0
 17 18  1  0
 18 19  1  0
 19 20  1  0
 20 21  2  3
 21 22  1  0
 21 23  1  0
 14 24  1  0
 24 25  1  0
 25 26  1  0
 26 27  2  0
 27 28  1  0
 28 29  2  0
 29 30  1  0
 30 31  2  0
 30 32  1  0
 32 33  2  0
 33 34  1  0
 34 35  2  0
  9 36  1  0
 36 37  1  0
 37 38  2  0
 38 39  1  0
 39 40  2  0
 40 41  1  0
 41 42  2  0
  5 43  1  0
 43 44  1  0
 44 45  2  0
 45 46  1  0
 46 47  2  0
 47 48  1  0
 48 49  2  0
 47 50  1  0
 16 12  1  0
 31 26  1  0
 42 37  1  0
 49 44  1  0
 35 29  1  0
  1 51  1  0
  1 52  1  0
  1 53  1  0
  4 54  1  0
  5 55  1  1
  8 56  1  0
  9 57  1  1
 13 58  1  0
 13 59  1  0
 14 60  1  6
 15 61  1  0
 15 62  1  0
 16 63  1  6
 17 64  1  0
 17 65  1  0
 18 66  1  0
 18 67  1  0
 19 68  1  0
 19 69  1  0
 22 70  1  0
 22 71  1  0
 23 72  1  0
 23 73  1  0
 25 74  1  0
 25 75  1  0
 27 76  1  0
 28 77  1  0
 31 78  1  0
 32 79  1  0
 33 80  1  0
 34 81  1  0
 35 82  1  0
 36 83  1  0
 36 84  1  0
 38 85  1  0
 39 86  1  0
 40 87  1  0
 41 88  1  0
 42 89  1  0
 43 90  1  0
 43 91  1  0
 45 92  1  0
 46 93  1  0
 48 94  1  0
 49 95  1  0
 50 96  1  0
M  END
>  <Ligand ID>  (1) 
LIG0003288

>  <Ligand>  (1) 
CHEMBL379490

>  <SMILES>  (1) 
CC(=O)N[C@H](C(=O)N[C@@H](C(=O)N1C[C@H](C[C@H]1CCCN=C(N)N)OCc1ccc2c(c1)cccc2)Cc1ccccc1)Cc1ccc(cc1)O

>  <CID>  (1) 
11845630.0

>  <ChEMBL ID>  (1) 
nan

>  <InChiKey>  (1) 
OJPUSZQXDWHXOL-JTOATLMJSA-N

>  <InChi>  (1) 
InChI=1S/C39H46N6O5/c1-26(46)43-35(21-28-14-17-33(47)18-15-28)37(48)44-36(22-27-8-3-2-4-9-27)38(49)45-24-34(23-32(45)12-7-19-42-39(40)41)50-25-29-13-16-30-10-5-6-11-31(30)20-29/h2-6,8-11,13-18,20,32,34-36,47H,7,12,19,21-25H2,1H3,(H,43,46)(H,44,48)(H4,40,41,42)/t32-,34+,35+,36-/m1/s1

>  <IUPAC Name>  (1) 
(2S)-2-acetamido-N-[(2R)-1-[(2R,4S)-2-[3-(diaminomethylideneamino)propyl]-4-(naphthalen-2-ylmethoxy)pyrrolidin-1-yl]-1-oxo-3-phenylpropan-2-yl]-3-(4-hydroxyphenyl)propanamide

$$$$
