
     RDKit          3D

 35 34  0  0  0  0  0  0  0  0999 V2000
   -4.3378   -0.3546   -1.3455 C   0  0  0  0  0  0  0  0  0  0  0  0
   -4.3303   -0.3450    0.1889 C   0  0  0  0  0  0  0  0  0  0  0  0
   -3.7845    0.9674    0.6264 C   0  0  0  0  0  0  0  0  0  0  0  0
   -2.3978    1.1676    0.0899 C   0  0  0  0  0  0  0  0  0  0  0  0
   -1.4918    0.0921    0.6025 C   0  0  0  0  0  0  0  0  0  0  0  0
   -0.0599    0.2804    0.0900 C   0  0  0  0  0  0  0  0  0  0  0  0
    0.7441   -0.8509    0.6687 C   0  0  0  0  0  0  0  0  0  0  0  0
    2.1614   -0.7745    0.2076 C   0  0  0  0  0  0  0  0  0  0  0  0
    2.8010    0.4987    0.6341 C   0  0  0  0  0  0  0  0  0  0  0  0
    4.2429    0.5181    0.1664 C   0  0  0  0  0  0  0  0  0  0  0  0
    4.7748   -0.4669   -0.5034 C   0  0  0  0  0  0  0  0  0  0  0  0
    6.1721   -0.4649   -0.9650 C   0  0  0  0  0  0  0  0  0  0  0  0
    6.6565   -1.4436   -1.6160 O   0  0  0  0  0  0  0  0  0  0  0  0
   -5.0851   -1.1378   -1.6245 H   0  0  0  0  0  0  0  0  0  0  0  0
   -4.6558    0.6164   -1.7340 H   0  0  0  0  0  0  0  0  0  0  0  0
   -3.3138   -0.6617   -1.6422 H   0  0  0  0  0  0  0  0  0  0  0  0
   -3.7878   -1.2390    0.5259 H   0  0  0  0  0  0  0  0  0  0  0  0
   -5.3818   -0.5081    0.5479 H   0  0  0  0  0  0  0  0  0  0  0  0
   -4.4422    1.8186    0.3483 H   0  0  0  0  0  0  0  0  0  0  0  0
   -3.7411    0.9947    1.7576 H   0  0  0  0  0  0  0  0  0  0  0  0
   -2.0080    2.1902    0.2870 H   0  0  0  0  0  0  0  0  0  0  0  0
   -2.4313    1.0765   -1.0382 H   0  0  0  0  0  0  0  0  0  0  0  0
   -1.8774   -0.8925    0.2698 H   0  0  0  0  0  0  0  0  0  0  0  0
   -1.4950    0.1132    1.7064 H   0  0  0  0  0  0  0  0  0  0  0  0
   -0.0005    0.2619   -0.9955 H   0  0  0  0  0  0  0  0  0  0  0  0
    0.3575    1.2295    0.4658 H   0  0  0  0  0  0  0  0  0  0  0  0
    0.2719   -1.8176    0.3211 H   0  0  0  0  0  0  0  0  0  0  0  0
    0.6460   -0.7877    1.7779 H   0  0  0  0  0  0  0  0  0  0  0  0
    2.6961   -1.6664    0.6229 H   0  0  0  0  0  0  0  0  0  0  0  0
    2.1510   -0.8595   -0.9105 H   0  0  0  0  0  0  0  0  0  0  0  0
    2.2824    1.3661    0.1314 H   0  0  0  0  0  0  0  0  0  0  0  0
    2.7804    0.6745    1.7141 H   0  0  0  0  0  0  0  0  0  0  0  0
    4.8651    1.3812    0.3931 H   0  0  0  0  0  0  0  0  0  0  0  0
    4.1784   -1.3262   -0.7367 H   0  0  0  0  0  0  0  0  0  0  0  0
    6.8401    0.3498   -0.7778 H   0  0  0  0  0  0  0  0  0  0  0  0
  1  2  1  0
  2  3  1  0
  3  4  1  0
  4  5  1  0
  5  6  1  0
  6  7  1  0
  7  8  1  0
  8  9  1  0
  9 10  1  0
 10 11  2  0
 11 12  1  0
 12 13  2  0
  1 14  1  0
  1 15  1  0
  1 16  1  0
  2 17  1  0
  2 18  1  0
  3 19  1  0
  3 20  1  0
  4 21  1  0
  4 22  1  0
  5 23  1  0
  5 24  1  0
  6 25  1  0
  6 26  1  0
  7 27  1  0
  7 28  1  0
  8 29  1  0
  8 30  1  0
  9 31  1  0
  9 32  1  0
 10 33  1  0
 11 34  1  0
 12 35  1  0
M  END
>  <Ligand ID>  (1) 
LIG0000211

>  <Ligand>  (1) 
trans-2-Dodecenal

>  <SMILES>  (1) 
CCCCCCCCC/C=C/C=O

>  <CID>  (1) 
5283361.0

>  <ChEMBL ID>  (1) 
nan

>  <InChiKey>  (1) 
SSNZFFBDIMUILS-ZHACJKMWSA-N

>  <InChi>  (1) 
InChI=1S/C12H22O/c1-2-3-4-5-6-7-8-9-10-11-12-13/h10-12H,2-9H2,1H3/b11-10+

>  <IUPAC Name>  (1) 
(E)-dodec-2-enal

$$$$
