
     RDKit          3D

 27 28  0  0  0  0  0  0  0  0999 V2000
    3.2726    1.0241    1.2114 C   0  0  0  0  0  0  0  0  0  0  0  0
    2.4595    0.3671    0.2474 N   0  0  0  0  0  0  0  0  0  0  0  0
    1.8960   -0.9031    0.6844 C   0  0  0  0  0  0  0  0  0  0  0  0
    1.1294   -1.4855   -0.4907 C   0  0  0  0  0  0  0  0  0  0  0  0
    0.0515   -0.5362   -0.8899 C   0  0  0  0  0  0  0  0  0  0  0  0
    0.1154    0.3230   -1.9642 C   0  0  0  0  0  0  0  0  0  0  0  0
   -1.0148    1.0353   -2.0131 N   0  0  0  0  0  0  0  0  0  0  0  0
   -1.8502    0.6868   -1.0013 C   0  0  0  0  0  0  0  0  0  0  0  0
   -1.1669   -0.3104   -0.2937 C   0  0  0  0  0  0  0  0  0  0  0  0
   -1.7712   -0.8972    0.8320 C   0  0  0  0  0  0  0  0  0  0  0  0
   -3.0271   -0.4880    1.2298 C   0  0  0  0  0  0  0  0  0  0  0  0
   -3.6958    0.5045    0.5181 C   0  0  0  0  0  0  0  0  0  0  0  0
   -3.1031    1.0823   -0.5886 C   0  0  0  0  0  0  0  0  0  0  0  0
    3.9501    0.3383    1.7726 H   0  0  0  0  0  0  0  0  0  0  0  0
    3.9918    1.6867    0.6379 H   0  0  0  0  0  0  0  0  0  0  0  0
    2.7169    1.7130    1.8592 H   0  0  0  0  0  0  0  0  0  0  0  0
    2.9288    0.1963   -0.6602 H   0  0  0  0  0  0  0  0  0  0  0  0
    2.6839   -1.6389    0.9267 H   0  0  0  0  0  0  0  0  0  0  0  0
    1.2202   -0.8118    1.5333 H   0  0  0  0  0  0  0  0  0  0  0  0
    1.8395   -1.6736   -1.3098 H   0  0  0  0  0  0  0  0  0  0  0  0
    0.7282   -2.4663   -0.1564 H   0  0  0  0  0  0  0  0  0  0  0  0
    0.9398    0.4130   -2.6601 H   0  0  0  0  0  0  0  0  0  0  0  0
   -1.2662    1.7579   -2.7010 H   0  0  0  0  0  0  0  0  0  0  0  0
   -1.2244   -1.6757    1.3761 H   0  0  0  0  0  0  0  0  0  0  0  0
   -3.5287   -0.9207    2.1016 H   0  0  0  0  0  0  0  0  0  0  0  0
   -4.6804    0.8308    0.8216 H   0  0  0  0  0  0  0  0  0  0  0  0
   -3.5948    1.8482   -1.1574 H   0  0  0  0  0  0  0  0  0  0  0  0
  1  2  1  0
  2  3  1  0
  3  4  1  0
  4  5  1  0
  5  6  2  0
  6  7  1  0
  7  8  1  0
  8  9  2  0
  9 10  1  0
 10 11  2  0
 11 12  1  0
 12 13  2  0
  9  5  1  0
 13  8  1  0
  1 14  1  0
  1 15  1  0
  1 16  1  0
  2 17  1  0
  3 18  1  0
  3 19  1  0
  4 20  1  0
  4 21  1  0
  6 22  1  0
  7 23  1  0
 10 24  1  0
 11 25  1  0
 12 26  1  0
 13 27  1  0
M  END
>  <Ligand ID>  (1) 
LIG0004686

>  <Ligand>  (1) 
N-Methyltryptamine

>  <SMILES>  (1) 
CNCCc1c[nH]c2c1cccc2

>  <CID>  (1) 
6088.0

>  <ChEMBL ID>  (1) 
nan

>  <InChiKey>  (1) 
NCIKQJBVUNUXLW-UHFFFAOYSA-N

>  <InChi>  (1) 
InChI=1S/C11H14N2/c1-12-7-6-9-8-13-11-5-3-2-4-10(9)11/h2-5,8,12-13H,6-7H2,1H3

>  <IUPAC Name>  (1) 
2-(1H-indol-3-yl)-N-methylethanamine

$$$$
