
     RDKit          3D

153156  0  0  0  0  0  0  0  0999 V2000
   10.4203    4.9036   -0.6060 C   0  0  0  0  0  0  0  0  0  0  0  0
   10.9741    3.9028    0.7793 S   0  0  0  0  0  0  0  0  0  0  0  0
   10.9339    2.1285    0.3332 C   0  0  0  0  0  0  0  0  0  0  0  0
   11.3931    1.3311    1.5415 C   0  0  0  0  0  0  0  0  0  0  0  0
   11.3952   -0.1637    1.2897 C   0  0  1  0  0  0  0  0  0  0  0  0
   11.8541   -0.8324    2.5353 C   0  0  0  0  0  0  0  0  0  0  0  0
   13.0087   -0.6025    3.0403 O   0  0  0  0  0  0  0  0  0  0  0  0
   11.0341   -1.7743    3.2483 N   0  0  0  0  0  0  0  0  0  0  0  0
   10.0190   -0.6346    1.0490 N   0  0  0  0  0  0  0  0  0  0  0  0
    9.6800   -1.5611    0.0413 C   0  0  0  0  0  0  0  0  0  0  0  0
   10.6552   -2.0004   -0.6624 O   0  0  0  0  0  0  0  0  0  0  0  0
    8.3264   -2.0360   -0.2524 C   0  0  1  0  0  0  0  0  0  0  0  0
    7.3255   -1.5899    0.6998 N   0  0  0  0  0  0  0  0  0  0  0  0
    5.9342   -1.7298    0.5423 C   0  0  0  0  0  0  0  0  0  0  0  0
    5.3824   -2.2566   -0.4526 O   0  0  0  0  0  0  0  0  0  0  0  0
    5.0595   -1.2134    1.6157 C   0  0  2  0  0  0  0  0  0  0  0  0
    4.8051   -2.3595    2.6135 C   0  0  0  0  0  0  0  0  0  0  0  0
    6.1367   -2.8055    3.1693 C   0  0  0  0  0  0  0  0  0  0  0  0
    6.9395   -3.7729    2.6605 N   0  0  0  0  0  0  0  0  0  0  0  0
    8.0302   -3.8557    3.4476 C   0  0  0  0  0  0  0  0  0  0  0  0
    7.9139   -2.9554    4.4315 N   0  0  0  0  0  0  0  0  0  0  0  0
    6.7471   -2.2841    4.2892 C   0  0  0  0  0  0  0  0  0  0  0  0
    3.7621   -0.7746    1.1266 N   0  0  0  0  0  0  0  0  0  0  0  0
    3.1779    0.3127    1.8344 C   0  0  0  0  0  0  0  0  0  0  0  0
    3.8478    0.7169    2.8508 O   0  0  0  0  0  0  0  0  0  0  0  0
    1.9415    1.0005    1.5413 C   0  0  0  0  0  0  0  0  0  0  0  0
    1.2350    0.6445    0.3509 N   0  0  0  0  0  0  0  0  0  0  0  0
    1.9463    0.8308   -0.8791 C   0  0  0  0  0  0  0  0  0  0  0  0
    3.1454    1.2708   -0.7391 O   0  0  0  0  0  0  0  0  0  0  0  0
    1.4765    0.5911   -2.2218 C   0  0  2  0  0  0  0  0  0  0  0  0
    1.6792    1.8777   -3.0655 C   0  0  2  0  0  0  0  0  0  0  0  0
    3.0213    2.1681   -3.0447 O   0  0  0  0  0  0  0  0  0  0  0  0
    0.8240    2.9843   -2.5139 C   0  0  0  0  0  0  0  0  0  0  0  0
    0.0546    0.2805   -2.2300 N   0  0  0  0  0  0  0  0  0  0  0  0
   -0.5582   -0.6394   -3.0981 C   0  0  0  0  0  0  0  0  0  0  0  0
    0.2024   -1.2518   -3.9156 O   0  0  0  0  0  0  0  0  0  0  0  0
   -1.9906   -0.9650   -3.1673 C   0  0  1  0  0  0  0  0  0  0  0  0
   -2.7022   -0.2776   -2.1225 N   0  0  0  0  0  0  0  0  0  0  0  0
   -3.8857   -0.7981   -1.4906 C   0  0  0  0  0  0  0  0  0  0  0  0
   -4.4062   -1.8934   -1.8295 O   0  0  0  0  0  0  0  0  0  0  0  0
   -4.4444    0.0653   -0.4040 C   0  0  2  0  0  0  0  0  0  0  0  0
   -3.3901    0.1773    0.7097 C   0  0  0  0  0  0  0  0  0  0  0  0
   -3.0202   -1.1319    1.2805 C   0  0  0  0  0  0  0  0  0  0  0  0
   -1.9049   -1.8359    0.8432 C   0  0  0  0  0  0  0  0  0  0  0  0
   -1.8024   -2.9996    1.5038 N   0  0  0  0  0  0  0  0  0  0  0  0
   -2.8363   -3.0592    2.3627 C   0  0  0  0  0  0  0  0  0  0  0  0
   -3.6017   -1.9130    2.2400 C   0  0  0  0  0  0  0  0  0  0  0  0
   -4.7044   -1.7510    3.0257 C   0  0  0  0  0  0  0  0  0  0  0  0
   -5.0204   -2.7434    3.9230 C   0  0  0  0  0  0  0  0  0  0  0  0
   -4.2742   -3.9080    4.0735 C   0  0  0  0  0  0  0  0  0  0  0  0
   -3.1643   -4.0421    3.2630 C   0  0  0  0  0  0  0  0  0  0  0  0
   -5.7069   -0.3217    0.1030 N   0  0  0  0  0  0  0  0  0  0  0  0
   -6.7639    0.6660   -0.0056 C   0  0  0  0  0  0  0  0  0  0  0  0
   -6.5914    1.7817   -0.5145 O   0  0  0  0  0  0  0  0  0  0  0  0
   -8.1547    0.3265    0.5271 C   0  0  1  0  0  0  0  0  0  0  0  0
   -8.9838    1.4829    0.2417 N   0  0  0  0  0  0  0  0  0  0  0  0
   -9.1623    2.5556    1.1636 C   0  0  0  0  0  0  0  0  0  0  0  0
   -8.5707    2.5046    2.2921 O   0  0  0  0  0  0  0  0  0  0  0  0
  -10.0352    3.7290    0.8019 C   0  0  1  0  0  0  0  0  0  0  0  0
  -10.6444    3.4425   -0.4751 N   0  0  0  0  0  0  0  0  0  0  0  0
  -10.3794    4.1447   -1.6766 C   0  0  0  0  0  0  0  0  0  0  0  0
   -9.5644    5.1096   -1.7570 O   0  0  0  0  0  0  0  0  0  0  0  0
  -11.1149    3.7160   -2.9236 C   0  0  0  0  0  0  0  0  0  0  0  0
  -11.9991    2.5945   -2.6319 N   0  0  0  0  0  0  0  0  0  0  0  0
  -11.1200    3.9332    1.8262 C   0  0  0  0  0  0  0  0  0  0  0  0
  -11.9656    5.0983    1.4449 C   0  0  0  0  0  0  0  0  0  0  0  0
  -11.7116    5.7537    0.3950 O   0  0  0  0  0  0  0  0  0  0  0  0
  -13.0716    5.5291    2.2152 N   0  0  0  0  0  0  0  0  0  0  0  0
   -8.6558   -0.9026   -0.0941 C   0  0  0  0  0  0  0  0  0  0  0  0
   -9.9959   -1.3454    0.3707 C   0  0  0  0  0  0  0  0  0  0  0  0
  -10.4018   -2.6464   -0.3548 C   0  0  0  0  0  0  0  0  0  0  0  0
  -11.0987   -0.3551    0.2130 C   0  0  0  0  0  0  0  0  0  0  0  0
   -2.4688   -0.4126   -4.5389 C   0  0  0  0  0  0  0  0  0  0  0  0
    7.9612   -1.3956   -1.6398 C   0  0  0  0  0  0  0  0  0  0  0  0
    8.9054   -1.8212   -2.6914 C   0  0  0  0  0  0  0  0  0  0  0  0
   10.0048   -1.0893   -3.0888 C   0  0  0  0  0  0  0  0  0  0  0  0
   10.8587   -1.5787   -4.0774 C   0  0  0  0  0  0  0  0  0  0  0  0
   10.5904   -2.8181   -4.6612 C   0  0  0  0  0  0  0  0  0  0  0  0
    9.5040   -3.5475   -4.2724 C   0  0  0  0  0  0  0  0  0  0  0  0
    8.6524   -3.0602   -3.2872 C   0  0  0  0  0  0  0  0  0  0  0  0
    9.6049    4.3988   -1.1834 H   0  0  0  0  0  0  0  0  0  0  0  0
   11.2468    5.1029   -1.2980 H   0  0  0  0  0  0  0  0  0  0  0  0
    9.9777    5.8549   -0.2187 H   0  0  0  0  0  0  0  0  0  0  0  0
    9.9253    1.8138    0.0768 H   0  0  0  0  0  0  0  0  0  0  0  0
   11.6936    1.9584   -0.4698 H   0  0  0  0  0  0  0  0  0  0  0  0
   12.4164    1.6682    1.7835 H   0  0  0  0  0  0  0  0  0  0  0  0
   10.7608    1.5259    2.4224 H   0  0  0  0  0  0  0  0  0  0  0  0
   12.0934   -0.4623    0.4994 H   0  0  0  0  0  0  0  0  0  0  0  0
   11.2976   -2.7663    3.3938 H   0  0  0  0  0  0  0  0  0  0  0  0
   10.1267   -1.3778    3.6194 H   0  0  0  0  0  0  0  0  0  0  0  0
    9.3183   -0.2135    1.6956 H   0  0  0  0  0  0  0  0  0  0  0  0
    8.1624   -3.0996   -0.4596 H   0  0  0  0  0  0  0  0  0  0  0  0
    7.6628   -1.1359    1.5761 H   0  0  0  0  0  0  0  0  0  0  0  0
    5.5233   -0.4336    2.2021 H   0  0  0  0  0  0  0  0  0  0  0  0
    4.2520   -1.9253    3.4699 H   0  0  0  0  0  0  0  0  0  0  0  0
    4.2666   -3.1815    2.1440 H   0  0  0  0  0  0  0  0  0  0  0  0
    6.7345   -4.3354    1.8188 H   0  0  0  0  0  0  0  0  0  0  0  0
    8.8851   -4.5093    3.3498 H   0  0  0  0  0  0  0  0  0  0  0  0
    6.3872   -1.4967    4.9497 H   0  0  0  0  0  0  0  0  0  0  0  0
    3.2584   -1.1874    0.3397 H   0  0  0  0  0  0  0  0  0  0  0  0
    1.2187    0.8388    2.3915 H   0  0  0  0  0  0  0  0  0  0  0  0
    2.1189    2.1196    1.5937 H   0  0  0  0  0  0  0  0  0  0  0  0
    0.2793    0.2735    0.2763 H   0  0  0  0  0  0  0  0  0  0  0  0
    2.0753   -0.1537   -2.7529 H   0  0  0  0  0  0  0  0  0  0  0  0
    1.3520    1.6411   -4.0824 H   0  0  0  0  0  0  0  0  0  0  0  0
    3.1544    3.1376   -3.2571 H   0  0  0  0  0  0  0  0  0  0  0  0
    0.5041    2.7777   -1.4473 H   0  0  0  0  0  0  0  0  0  0  0  0
    1.3532    3.9484   -2.5926 H   0  0  0  0  0  0  0  0  0  0  0  0
   -0.1116    3.0930   -3.0810 H   0  0  0  0  0  0  0  0  0  0  0  0
   -0.5095    0.8035   -1.5212 H   0  0  0  0  0  0  0  0  0  0  0  0
   -2.2320   -2.0267   -3.1364 H   0  0  0  0  0  0  0  0  0  0  0  0
   -2.3787    0.6530   -1.8046 H   0  0  0  0  0  0  0  0  0  0  0  0
   -4.5328    1.1035   -0.8152 H   0  0  0  0  0  0  0  0  0  0  0  0
   -2.4970    0.6715    0.2691 H   0  0  0  0  0  0  0  0  0  0  0  0
   -3.8273    0.8345    1.4915 H   0  0  0  0  0  0  0  0  0  0  0  0
   -1.2023   -1.5347    0.0865 H   0  0  0  0  0  0  0  0  0  0  0  0
   -1.0425   -3.7241    1.3723 H   0  0  0  0  0  0  0  0  0  0  0  0
   -5.2790   -0.8427    2.8992 H   0  0  0  0  0  0  0  0  0  0  0  0
   -5.8774   -2.6480    4.5657 H   0  0  0  0  0  0  0  0  0  0  0  0
   -4.5336   -4.6788    4.7813 H   0  0  0  0  0  0  0  0  0  0  0  0
   -2.5456   -4.9233    3.3340 H   0  0  0  0  0  0  0  0  0  0  0  0
   -5.9857   -1.2138    0.5356 H   0  0  0  0  0  0  0  0  0  0  0  0
   -8.0480    0.2443    1.6181 H   0  0  0  0  0  0  0  0  0  0  0  0
   -9.4881    1.5882   -0.6746 H   0  0  0  0  0  0  0  0  0  0  0  0
   -9.3793    4.6306    0.7260 H   0  0  0  0  0  0  0  0  0  0  0  0
  -11.3234    2.6573   -0.5097 H   0  0  0  0  0  0  0  0  0  0  0  0
  -11.7204    4.6008   -3.2385 H   0  0  0  0  0  0  0  0  0  0  0  0
  -10.4050    3.4068   -3.6981 H   0  0  0  0  0  0  0  0  0  0  0  0
  -12.8224    2.9077   -2.0639 H   0  0  0  0  0  0  0  0  0  0  0  0
  -12.2670    2.1659   -3.5429 H   0  0  0  0  0  0  0  0  0  0  0  0
  -10.7068    4.1794    2.8353 H   0  0  0  0  0  0  0  0  0  0  0  0
  -11.7390    3.0149    1.8774 H   0  0  0  0  0  0  0  0  0  0  0  0
  -13.1293    6.4321    2.7288 H   0  0  0  0  0  0  0  0  0  0  0  0
  -13.9193    4.9076    2.3006 H   0  0  0  0  0  0  0  0  0  0  0  0
   -7.8926   -1.7482    0.0469 H   0  0  0  0  0  0  0  0  0  0  0  0
   -8.6471   -0.8200   -1.2287 H   0  0  0  0  0  0  0  0  0  0  0  0
   -9.9627   -1.6525    1.4434 H   0  0  0  0  0  0  0  0  0  0  0  0
  -11.5041   -2.6595   -0.4263 H   0  0  0  0  0  0  0  0  0  0  0  0
  -10.1239   -3.5370    0.2333 H   0  0  0  0  0  0  0  0  0  0  0  0
  -10.0197   -2.6627   -1.3893 H   0  0  0  0  0  0  0  0  0  0  0  0
  -11.2168   -0.0019   -0.8456 H   0  0  0  0  0  0  0  0  0  0  0  0
  -11.0447    0.5132    0.8688 H   0  0  0  0  0  0  0  0  0  0  0  0
  -12.0739   -0.8924    0.4812 H   0  0  0  0  0  0  0  0  0  0  0  0
   -2.3591    0.6763   -4.4455 H   0  0  0  0  0  0  0  0  0  0  0  0
   -3.4574   -0.7886   -4.7894 H   0  0  0  0  0  0  0  0  0  0  0  0
   -1.7199   -0.7719   -5.2724 H   0  0  0  0  0  0  0  0  0  0  0  0
    6.9632   -1.7529   -1.9594 H   0  0  0  0  0  0  0  0  0  0  0  0
    7.8979   -0.2996   -1.5460 H   0  0  0  0  0  0  0  0  0  0  0  0
   10.1610   -0.1359   -2.6027 H   0  0  0  0  0  0  0  0  0  0  0  0
   11.7140   -0.9821   -4.3723 H   0  0  0  0  0  0  0  0  0  0  0  0
   11.2228   -3.2382   -5.4324 H   0  0  0  0  0  0  0  0  0  0  0  0
    9.2437   -4.5264   -4.6936 H   0  0  0  0  0  0  0  0  0  0  0  0
    7.7807   -3.6517   -2.9778 H   0  0  0  0  0  0  0  0  0  0  0  0
  1  2  1  0
  2  3  1  0
  3  4  1  0
  4  5  1  0
  5  6  1  0
  6  7  2  0
  6  8  1  0
  5  9  1  0
  9 10  1  0
 10 11  2  0
 10 12  1  0
 12 13  1  0
 13 14  1  0
 14 15  2  0
 14 16  1  0
 16 17  1  0
 17 18  1  0
 18 19  1  0
 19 20  1  0
 20 21  2  0
 21 22  1  0
 16 23  1  0
 23 24  1  0
 24 25  2  0
 24 26  1  0
 26 27  1  0
 27 28  1  0
 28 29  2  0
 28 30  1  0
 30 31  1  0
 31 32  1  0
 31 33  1  0
 30 34  1  0
 34 35  1  0
 35 36  2  0
 35 37  1  0
 37 38  1  0
 38 39  1  0
 39 40  2  0
 39 41  1  0
 41 42  1  0
 42 43  1  0
 43 44  2  0
 44 45  1  0
 45 46  1  0
 46 47  2  0
 47 48  1  0
 48 49  2  0
 49 50  1  0
 50 51  2  0
 41 52  1  0
 52 53  1  0
 53 54  2  0
 53 55  1  0
 55 56  1  0
 56 57  1  0
 57 58  2  0
 57 59  1  0
 59 60  1  0
 60 61  1  0
 61 62  2  0
 61 63  1  0
 63 64  1  0
 59 65  1  0
 65 66  1  0
 66 67  2  0
 66 68  1  0
 55 69  1  0
 69 70  1  0
 70 71  1  0
 70 72  1  0
 37 73  1  0
 12 74  1  0
 74 75  1  0
 75 76  2  0
 76 77  1  0
 77 78  2  0
 78 79  1  0
 79 80  2  0
 22 18  2  0
 47 43  1  0
 80 75  1  0
 51 46  1  0
  1 81  1  0
  1 82  1  0
  1 83  1  0
  3 84  1  0
  3 85  1  0
  4 86  1  0
  4 87  1  0
  5 88  1  6
  8 89  1  0
  8 90  1  0
  9 91  1  0
 12 92  1  6
 13 93  1  0
 16 94  1  1
 17 95  1  0
 17 96  1  0
 19 97  1  0
 20 98  1  0
 22 99  1  0
 23100  1  0
 26101  1  0
 26102  1  0
 27103  1  0
 30104  1  6
 31105  1  6
 32106  1  0
 33107  1  0
 33108  1  0
 33109  1  0
 34110  1  0
 37111  1  6
 38112  1  0
 41113  1  6
 42114  1  0
 42115  1  0
 44116  1  0
 45117  1  0
 48118  1  0
 49119  1  0
 50120  1  0
 51121  1  0
 52122  1  0
 55123  1  1
 56124  1  0
 59125  1  6
 60126  1  0
 63127  1  0
 63128  1  0
 64129  1  0
 64130  1  0
 65131  1  0
 65132  1  0
 68133  1  0
 68134  1  0
 69135  1  0
 69136  1  0
 70137  1  0
 71138  1  0
 71139  1  0
 71140  1  0
 72141  1  0
 72142  1  0
 72143  1  0
 73144  1  0
 73145  1  0
 73146  1  0
 74147  1  0
 74148  1  0
 76149  1  0
 77150  1  0
 78151  1  0
 79152  1  0
 80153  1  0
M  END
>  <Ligand ID>  (1) 
LIG0002190

>  <Ligand>  (1) 
Neuromedin B

>  <SMILES>  (1) 
CSCC[C@@H](C(=O)N)NC(=O)[C@@H](NC(=O)[C@H](Cc1[nH]cnc1)NC(=O)CNC(=O)[C@H]([C@H](O)C)NC(=O)[C@@H](NC(=O)[C@H](Cc1c[nH]c2c1cccc2)NC(=O)[C@@H](NC(=O)[C@@H](NC(=O)CN)CC(=O)N)CC(C)C)C)Cc1ccccc1

>  <CID>  (1) 
6324606.0

>  <ChEMBL ID>  (1) 
nan

>  <InChiKey>  (1) 
YPFNACALNKVZNK-MFNIMNRCSA-N

>  <InChi>  (1) 
InChI=1S/C52H73N15O12S/c1-27(2)17-36(64-51(78)40(21-41(54)69)61-42(70)22-53)48(75)66-38(19-31-23-57-34-14-10-9-13-33(31)34)47(74)60-28(3)46(73)67-44(29(4)68)52(79)58-25-43(71)62-39(20-32-24-56-26-59-32)50(77)65-37(18-30-11-7-6-8-12-30)49(76)63-35(45(55)72)15-16-80-5/h6-14,23-24,26-29,35-40,44,57,68H,15-22,25,53H2,1-5H3,(H2,54,69)(H2,55,72)(H,56,59)(H,58,79)(H,60,74)(H,61,70)(H,62,71)(H,63,76)(H,64,78)(H,65,77)(H,66,75)(H,67,73)/t28-,29+,35-,36-,37-,38-,39-,40-,44-/m0/s1

>  <IUPAC Name>  (1) 
(2S)-2-[(2-aminoacetyl)amino]-N-[(2S)-1-[[(2S)-1-[[(2S)-1-[[(2S,3R)-1-[[2-[[(2S)-1-[[(2S)-1-[[(2S)-1-amino-4-methylsulfanyl-1-oxobutan-2-yl]amino]-1-oxo-3-phenylpropan-2-yl]amino]-3-(1H-imidazol-5-yl)-1-oxopropan-2-yl]amino]-2-oxoethyl]amino]-3-hydroxy-1-oxobutan-2-yl]amino]-1-oxopropan-2-yl]amino]-3-(1H-indol-3-yl)-1-oxopropan-2-yl]amino]-4-methyl-1-oxopentan-2-yl]butanediamide

$$$$
