
     RDKit          3D

114118  0  0  0  0  0  0  0  0999 V2000
    4.3050   -0.2368   -0.5697 O   0  0  0  0  0  0  0  0  0  0  0  0
    4.0450   -0.7777   -1.6726 C   0  0  0  0  0  0  0  0  0  0  0  0
    2.7782   -0.6540   -2.3142 N   0  0  0  0  0  0  0  0  0  0  0  0
    1.6867    0.1268   -1.6921 C   0  0  2  0  0  0  0  0  0  0  0  0
    0.4322   -0.1408   -2.3391 C   0  0  0  0  0  0  0  0  0  0  0  0
    0.4346   -0.8654   -3.3963 O   0  0  0  0  0  0  0  0  0  0  0  0
   -0.8585    0.3190   -1.9412 N   0  0  0  0  0  0  0  0  0  0  0  0
   -1.9651   -0.0484   -2.7932 C   0  0  0  0  0  0  0  0  0  0  0  0
   -3.2271    0.5138   -2.2568 C   0  0  0  0  0  0  0  0  0  0  0  0
   -3.6930   -0.0056   -0.9588 C   0  0  0  0  0  0  0  0  0  0  0  0
   -3.2120   -1.0325   -0.4070 O   0  0  0  0  0  0  0  0  0  0  0  0
   -4.7511    0.7229   -0.3360 N   0  0  0  0  0  0  0  0  0  0  0  0
   -5.4062    0.3876    0.8871 C   0  0  2  0  0  0  0  0  0  0  0  0
   -6.8195    0.8732    0.8699 C   0  0  0  0  0  0  0  0  0  0  0  0
   -7.6669    0.5866    1.7481 O   0  0  0  0  0  0  0  0  0  0  0  0
   -7.1878    1.6748   -0.1713 O   0  0  0  0  0  0  0  0  0  0  0  0
   -8.3984    2.2696   -0.4794 C   0  0  0  0  0  0  0  0  0  0  0  0
   -9.4423    1.2574   -0.7404 C   0  0  0  0  0  0  0  0  0  0  0  0
  -10.3347    0.7667    0.1672 C   0  0  0  0  0  0  0  0  0  0  0  0
  -11.2408   -0.1725   -0.2435 C   0  0  0  0  0  0  0  0  0  0  0  0
  -11.3007   -0.6542   -1.5394 C   0  0  0  0  0  0  0  0  0  0  0  0
  -10.4130   -0.1702   -2.4585 C   0  0  0  0  0  0  0  0  0  0  0  0
   -9.4964    0.7740   -2.0600 C   0  0  0  0  0  0  0  0  0  0  0  0
  -10.3584   -0.5951   -3.8841 C   0  0  0  0  0  0  0  0  0  0  0  0
   -9.0248   -0.7257   -4.2539 F   0  0  0  0  0  0  0  0  0  0  0  0
  -10.8919   -1.8697   -4.0004 F   0  0  0  0  0  0  0  0  0  0  0  0
  -10.9481    0.3010   -4.7318 F   0  0  0  0  0  0  0  0  0  0  0  0
  -12.2184   -0.7059    0.7382 C   0  0  0  0  0  0  0  0  0  0  0  0
  -12.7103   -1.9141    0.2662 F   0  0  0  0  0  0  0  0  0  0  0  0
  -11.7262   -0.8188    2.0053 F   0  0  0  0  0  0  0  0  0  0  0  0
  -13.2909    0.1736    0.7488 F   0  0  0  0  0  0  0  0  0  0  0  0
   -4.7152    0.9527    2.1164 C   0  0  0  0  0  0  0  0  0  0  0  0
   -5.5032    0.5414    3.3022 C   0  0  0  0  0  0  0  0  0  0  0  0
   -6.3296    1.3232    4.0829 C   0  0  0  0  0  0  0  0  0  0  0  0
   -6.8689    0.5985    5.0865 N   0  0  0  0  0  0  0  0  0  0  0  0
   -6.4068   -0.6748    4.9839 C   0  0  0  0  0  0  0  0  0  0  0  0
   -5.5729   -0.7232    3.9005 C   0  0  0  0  0  0  0  0  0  0  0  0
   -4.9799   -1.9313    3.5987 C   0  0  0  0  0  0  0  0  0  0  0  0
   -5.2176   -3.0622    4.3649 C   0  0  0  0  0  0  0  0  0  0  0  0
   -6.0650   -2.9637    5.4462 C   0  0  0  0  0  0  0  0  0  0  0  0
   -6.6793   -1.7825    5.7872 C   0  0  0  0  0  0  0  0  0  0  0  0
    2.1717    1.5742   -1.9640 C   0  0  0  0  0  0  0  0  0  0  0  0
    1.2578    2.5992   -1.4542 C   0  0  0  0  0  0  0  0  0  0  0  0
    0.3077    3.0980   -2.3592 C   0  0  0  0  0  0  0  0  0  0  0  0
   -0.5593    4.0624   -1.8879 C   0  0  0  0  0  0  0  0  0  0  0  0
   -0.5564    4.5582   -0.6163 C   0  0  0  0  0  0  0  0  0  0  0  0
    0.3988    4.0467    0.2706 C   0  0  0  0  0  0  0  0  0  0  0  0
    1.2808    3.0788   -0.1782 C   0  0  0  0  0  0  0  0  0  0  0  0
    5.0743   -1.5725   -2.3600 C   0  0  0  0  0  0  0  0  0  0  0  0
    6.3686   -1.5552   -1.6847 N   0  0  0  0  0  0  0  0  0  0  0  0
    6.9522   -0.2377   -1.5928 C   0  0  0  0  0  0  0  0  0  0  0  0
    6.3424    0.7368   -2.0621 O   0  0  0  0  0  0  0  0  0  0  0  0
    8.2732    0.0127   -0.9555 C   0  0  2  0  0  0  0  0  0  0  0  0
    8.8787   -1.1675   -0.3865 N   0  0  0  0  0  0  0  0  0  0  0  0
    9.8236   -1.8691   -1.2111 C   0  0  0  0  0  0  0  0  0  0  0  0
   10.1143   -1.5065   -2.3736 O   0  0  0  0  0  0  0  0  0  0  0  0
   10.4387   -3.0848   -0.5625 C   0  0  2  0  0  0  0  0  0  0  0  0
   11.6641   -2.7017    0.2247 C   0  0  0  0  0  0  0  0  0  0  0  0
   11.4675   -1.7371    1.2982 C   0  0  0  0  0  0  0  0  0  0  0  0
   11.5899   -0.3784    0.9523 C   0  0  0  0  0  0  0  0  0  0  0  0
   11.4302    0.5844    1.8971 C   0  0  0  0  0  0  0  0  0  0  0  0
   11.1462    0.3023    3.2155 C   0  0  0  0  0  0  0  0  0  0  0  0
   11.0190   -1.0390    3.5840 C   0  0  0  0  0  0  0  0  0  0  0  0
   11.1865   -1.9963    2.6049 C   0  0  0  0  0  0  0  0  0  0  0  0
   11.0008    1.3435    4.1114 O   0  0  0  0  0  0  0  0  0  0  0  0
   10.9750   -3.8744   -1.6935 N   0  0  0  0  0  0  0  0  0  0  0  0
    8.1642    1.0596    0.1160 C   0  0  0  0  0  0  0  0  0  0  0  0
    2.6054   -1.1256   -3.2512 H   0  0  0  0  0  0  0  0  0  0  0  0
    1.7138   -0.0675   -0.6334 H   0  0  0  0  0  0  0  0  0  0  0  0
   -0.9292    0.8769   -1.0737 H   0  0  0  0  0  0  0  0  0  0  0  0
   -1.7113    0.3825   -3.8054 H   0  0  0  0  0  0  0  0  0  0  0  0
   -2.0160   -1.1442   -2.9688 H   0  0  0  0  0  0  0  0  0  0  0  0
   -3.1753    1.6355   -2.1299 H   0  0  0  0  0  0  0  0  0  0  0  0
   -4.0272    0.2821   -3.0073 H   0  0  0  0  0  0  0  0  0  0  0  0
   -5.0984    1.6131   -0.8174 H   0  0  0  0  0  0  0  0  0  0  0  0
   -5.3558   -0.7048    1.0287 H   0  0  0  0  0  0  0  0  0  0  0  0
   -8.2182    2.8583   -1.4331 H   0  0  0  0  0  0  0  0  0  0  0  0
   -8.7588    2.9747    0.3156 H   0  0  0  0  0  0  0  0  0  0  0  0
  -10.2748    1.1607    1.1842 H   0  0  0  0  0  0  0  0  0  0  0  0
  -12.0261   -1.4029   -1.8582 H   0  0  0  0  0  0  0  0  0  0  0  0
   -8.7855    1.1657   -2.7796 H   0  0  0  0  0  0  0  0  0  0  0  0
   -4.7463    2.0473    2.0729 H   0  0  0  0  0  0  0  0  0  0  0  0
   -3.7010    0.5446    2.2719 H   0  0  0  0  0  0  0  0  0  0  0  0
   -6.5408    2.3896    3.9344 H   0  0  0  0  0  0  0  0  0  0  0  0
   -7.5194    0.9902    5.7936 H   0  0  0  0  0  0  0  0  0  0  0  0
   -4.3213   -2.0084    2.7574 H   0  0  0  0  0  0  0  0  0  0  0  0
   -4.7738   -4.0255    4.1642 H   0  0  0  0  0  0  0  0  0  0  0  0
   -6.2527   -3.8391    6.0506 H   0  0  0  0  0  0  0  0  0  0  0  0
   -7.3457   -1.6742    6.6295 H   0  0  0  0  0  0  0  0  0  0  0  0
    3.1100    1.6364   -1.3484 H   0  0  0  0  0  0  0  0  0  0  0  0
    2.3592    1.6205   -3.0435 H   0  0  0  0  0  0  0  0  0  0  0  0
    0.2715    2.7341   -3.3760 H   0  0  0  0  0  0  0  0  0  0  0  0
   -1.2882    4.4403   -2.5887 H   0  0  0  0  0  0  0  0  0  0  0  0
   -1.2415    5.3153   -0.2536 H   0  0  0  0  0  0  0  0  0  0  0  0
    0.3978    4.4393    1.2787 H   0  0  0  0  0  0  0  0  0  0  0  0
    2.0259    2.6754    0.4953 H   0  0  0  0  0  0  0  0  0  0  0  0
    5.1545   -1.2574   -3.4301 H   0  0  0  0  0  0  0  0  0  0  0  0
    4.7753   -2.6633   -2.4061 H   0  0  0  0  0  0  0  0  0  0  0  0
    6.8380   -2.3983   -1.3051 H   0  0  0  0  0  0  0  0  0  0  0  0
    8.9504    0.3926   -1.7717 H   0  0  0  0  0  0  0  0  0  0  0  0
    8.6375   -1.4908    0.5850 H   0  0  0  0  0  0  0  0  0  0  0  0
    9.7121   -3.7061   -0.0588 H   0  0  0  0  0  0  0  0  0  0  0  0
   12.0137   -3.6575    0.7117 H   0  0  0  0  0  0  0  0  0  0  0  0
   12.4231   -2.3487   -0.5052 H   0  0  0  0  0  0  0  0  0  0  0  0
   11.8157   -0.1022   -0.0930 H   0  0  0  0  0  0  0  0  0  0  0  0
   11.5392    1.6259    1.5582 H   0  0  0  0  0  0  0  0  0  0  0  0
   10.7933   -1.2707    4.6178 H   0  0  0  0  0  0  0  0  0  0  0  0
   11.0874   -3.0500    2.8860 H   0  0  0  0  0  0  0  0  0  0  0  0
   10.8942    2.2922    3.7789 H   0  0  0  0  0  0  0  0  0  0  0  0
   10.3577   -4.6875   -1.9053 H   0  0  0  0  0  0  0  0  0  0  0  0
   11.1887   -3.2455   -2.4691 H   0  0  0  0  0  0  0  0  0  0  0  0
    7.4354    1.8597   -0.1238 H   0  0  0  0  0  0  0  0  0  0  0  0
    7.8617    0.5036    1.0523 H   0  0  0  0  0  0  0  0  0  0  0  0
    9.1746    1.4389    0.3193 H   0  0  0  0  0  0  0  0  0  0  0  0
  1  2  2  0
  2  3  1  0
  3  4  1  0
  4  5  1  0
  5  6  2  0
  5  7  1  0
  7  8  1  0
  8  9  1  0
  9 10  1  0
 10 11  2  0
 10 12  1  0
 12 13  1  0
 13 14  1  0
 14 15  2  0
 14 16  1  0
 16 17  1  0
 17 18  1  0
 18 19  2  0
 19 20  1  0
 20 21  2  0
 21 22  1  0
 22 23  2  0
 22 24  1  0
 24 25  1  0
 24 26  1  0
 24 27  1  0
 20 28  1  0
 28 29  1  0
 28 30  1  0
 28 31  1  0
 13 32  1  0
 32 33  1  0
 33 34  2  0
 34 35  1  0
 35 36  1  0
 36 37  2  0
 37 38  1  0
 38 39  2  0
 39 40  1  0
 40 41  2  0
  4 42  1  0
 42 43  1  0
 43 44  2  0
 44 45  1  0
 45 46  2  0
 46 47  1  0
 47 48  2  0
  2 49  1  0
 49 50  1  0
 50 51  1  0
 51 52  2  0
 51 53  1  0
 53 54  1  0
 54 55  1  0
 55 56  2  0
 55 57  1  0
 57 58  1  0
 58 59  1  0
 59 60  2  0
 60 61  1  0
 61 62  2  0
 62 63  1  0
 63 64  2  0
 62 65  1  0
 57 66  1  0
 53 67  1  0
 23 18  1  0
 37 33  1  0
 48 43  1  0
 64 59  1  0
 41 36  1  0
  3 68  1  0
  4 69  1  1
  7 70  1  0
  8 71  1  0
  8 72  1  0
  9 73  1  0
  9 74  1  0
 12 75  1  0
 13 76  1  1
 17 77  1  0
 17 78  1  0
 19 79  1  0
 21 80  1  0
 23 81  1  0
 32 82  1  0
 32 83  1  0
 34 84  1  0
 35 85  1  0
 38 86  1  0
 39 87  1  0
 40 88  1  0
 41 89  1  0
 42 90  1  0
 42 91  1  0
 44 92  1  0
 45 93  1  0
 46 94  1  0
 47 95  1  0
 48 96  1  0
 49 97  1  0
 49 98  1  0
 50 99  1  0
 53100  1  6
 54101  1  0
 57102  1  1
 58103  1  0
 58104  1  0
 60105  1  0
 61106  1  0
 63107  1  0
 64108  1  0
 65109  1  0
 66110  1  0
 66111  1  0
 67112  1  0
 67113  1  0
 67114  1  0
M  END
>  <Ligand ID>  (1) 
LIG0005397

>  <Ligand>  (1) 
CHEMBL3608937

>  <SMILES>  (1) 
O=C(N[C@H](C(=O)NCCC(=O)N[C@H](C(=O)OCc1cc(cc(c1)C(F)(F)F)C(F)(F)F)Cc1c[nH]c2c1cccc2)Cc1ccccc1)CNC(=O)[C@H](NC(=O)[C@H](Cc1ccc(cc1)O)N)C

>  <CID>  (1) 
44177770.0

>  <ChEMBL ID>  (1) 
nan

>  <InChiKey>  (1) 
GVRKQRSTDMXZGX-VAQUTSCRSA-N

>  <InChi>  (1) 
InChI=1S/C46H47F6N7O8/c1-26(57-42(64)35(53)19-28-11-13-33(60)14-12-28)41(63)56-24-40(62)58-37(20-27-7-3-2-4-8-27)43(65)54-16-15-39(61)59-38(21-30-23-55-36-10-6-5-9-34(30)36)44(66)67-25-29-17-31(45(47,48)49)22-32(18-29)46(50,51)52/h2-14,17-18,22-23,26,35,37-38,55,60H,15-16,19-21,24-25,53H2,1H3,(H,54,65)(H,56,63)(H,57,64)(H,58,62)(H,59,61)/t26-,35+,37+,38+/m1/s1

>  <IUPAC Name>  (1) 
[3,5-bis(trifluoromethyl)phenyl]methyl (2S)-2-[3-[[(2S)-2-[[2-[[(2R)-2-[[(2S)-2-amino-3-(4-hydroxyphenyl)propanoyl]amino]propanoyl]amino]acetyl]amino]-3-phenylpropanoyl]amino]propanoylamino]-3-(1H-indol-3-yl)propanoate

$$$$
