
     RDKit          3D

 34 37  0  0  0  0  0  0  0  0999 V2000
    2.2202   -1.4002    1.6382 O   0  0  0  0  0  0  0  0  0  0  0  0
    2.4954   -0.3497    0.7155 C   0  0  0  0  0  0  0  0  0  0  0  0
    1.4185    0.3218    0.1599 C   0  0  0  0  0  0  0  0  0  0  0  0
   -0.0198    0.1413    0.3563 C   0  0  0  0  0  0  0  0  0  0  0  0
   -0.6035   -0.7522   -0.3347 N   0  0  0  0  0  0  0  0  0  0  0  0
   -2.0026   -0.9604   -0.1743 C   0  0  0  0  0  0  0  0  0  0  0  0
   -2.4053   -2.1310    0.4618 C   0  0  0  0  0  0  0  0  0  0  0  0
   -3.7534   -2.4166    0.6616 C   0  0  0  0  0  0  0  0  0  0  0  0
   -4.6935   -1.5190    0.2183 C   0  0  0  0  0  0  0  0  0  0  0  0
   -4.2922   -0.3644   -0.4093 C   0  0  0  0  0  0  0  0  0  0  0  0
   -2.9484   -0.0548   -0.6217 C   0  0  0  0  0  0  0  0  0  0  0  0
   -2.5556    1.0669   -1.2315 N   0  0  0  0  0  0  0  0  0  0  0  0
   -3.5113    1.9332   -1.6576 C   0  0  0  0  0  0  0  0  0  0  0  0
   -4.8675    1.6580   -1.4631 C   0  0  0  0  0  0  0  0  0  0  0  0
   -5.2840    0.4977   -0.8319 C   0  0  0  0  0  0  0  0  0  0  0  0
    2.1624    1.5695   -0.9472 S   0  0  0  0  0  0  0  0  0  0  0  0
    3.8224    1.0723   -0.5592 C   0  0  0  0  0  0  0  0  0  0  0  0
    3.7200    0.0548    0.3299 C   0  0  0  0  0  0  0  0  0  0  0  0
    4.9611   -0.4790    0.7612 C   0  0  0  0  0  0  0  0  0  0  0  0
    6.1285    0.0347    0.2820 C   0  0  0  0  0  0  0  0  0  0  0  0
    6.2254    1.0689   -0.6215 C   0  0  0  0  0  0  0  0  0  0  0  0
    4.9996    1.5983   -1.0494 C   0  0  0  0  0  0  0  0  0  0  0  0
    1.7290   -1.1681    2.4790 H   0  0  0  0  0  0  0  0  0  0  0  0
   -0.4902    0.7821    1.0780 H   0  0  0  0  0  0  0  0  0  0  0  0
   -1.6725   -2.8462    0.8156 H   0  0  0  0  0  0  0  0  0  0  0  0
   -3.9958   -3.3430    1.1623 H   0  0  0  0  0  0  0  0  0  0  0  0
   -5.7568   -1.7256    0.3660 H   0  0  0  0  0  0  0  0  0  0  0  0
   -3.2792    2.8612   -2.1588 H   0  0  0  0  0  0  0  0  0  0  0  0
   -5.6390    2.3622   -1.8096 H   0  0  0  0  0  0  0  0  0  0  0  0
   -6.3256    0.2909   -0.6849 H   0  0  0  0  0  0  0  0  0  0  0  0
    5.0146   -1.2872    1.4638 H   0  0  0  0  0  0  0  0  0  0  0  0
    7.0691   -0.3892    0.6257 H   0  0  0  0  0  0  0  0  0  0  0  0
    7.1553    1.4676   -0.9942 H   0  0  0  0  0  0  0  0  0  0  0  0
    4.9745    2.4054   -1.7518 H   0  0  0  0  0  0  0  0  0  0  0  0
  1  2  1  0
  2  3  2  0
  3  4  1  0
  4  5  2  3
  5  6  1  0
  6  7  2  0
  7  8  1  0
  8  9  2  0
  9 10  1  0
 10 11  2  0
 11 12  1  0
 12 13  2  0
 13 14  1  0
 14 15  2  0
  3 16  1  0
 16 17  1  0
 17 18  2  0
 18 19  1  0
 19 20  2  0
 20 21  1  0
 21 22  2  0
 18  2  1  0
 11  6  1  0
 22 17  1  0
 15 10  1  0
  1 23  1  0
  4 24  1  0
  7 25  1  0
  8 26  1  0
  9 27  1  0
 13 28  1  0
 14 29  1  0
 15 30  1  0
 19 31  1  0
 20 32  1  0
 21 33  1  0
 22 34  1  0
M  END
>  <Ligand ID>  (1) 
LIG0002734

>  <Ligand>  (1) 
MLS000530291

>  <SMILES>  (1) 
Oc1c(C=Nc2cccc3c2nccc3)sc2c1cccc2

>  <CID>  (1) 
793994.0

>  <ChEMBL ID>  (1) 
nan

>  <InChiKey>  (1) 
KMCISLJBVNPREM-UHFFFAOYSA-N

>  <InChi>  (1) 
InChI=1S/C18H12N2OS/c21-18-13-7-1-2-9-15(13)22-16(18)11-20-14-8-3-5-12-6-4-10-19-17(12)14/h1-11,21H

>  <IUPAC Name>  (1) 
2-(quinolin-8-yliminomethyl)-1-benzothiophen-3-ol

$$$$
