
     RDKit          3D

 57 60  0  0  0  0  0  0  0  0999 V2000
   -7.9182    0.8527    2.9202 O   0  0  0  0  0  0  0  0  0  0  0  0
   -7.4448    0.6406    1.7802 C   0  0  0  0  0  0  0  0  0  0  0  0
   -8.1522   -0.1632    0.7399 C   0  0  0  0  0  0  0  0  0  0  0  0
   -7.2173   -1.1487    0.0774 C   0  0  0  0  0  0  0  0  0  0  0  0
   -5.9015   -0.5600   -0.2728 C   0  0  0  0  0  0  0  0  0  0  0  0
   -5.4044    0.5512    0.3671 C   0  0  0  0  0  0  0  0  0  0  0  0
   -6.1642    1.1728    1.4043 N   0  0  0  0  0  0  0  0  0  0  0  0
   -4.1903    1.0702    0.0233 C   0  0  0  0  0  0  0  0  0  0  0  0
   -3.3875    0.5109   -0.9881 C   0  0  0  0  0  0  0  0  0  0  0  0
   -3.9157   -0.5956   -1.6044 C   0  0  0  0  0  0  0  0  0  0  0  0
   -5.1482   -1.1397   -1.2700 C   0  0  0  0  0  0  0  0  0  0  0  0
   -2.2096    1.1156   -1.2364 O   0  0  0  0  0  0  0  0  0  0  0  0
   -1.1768    0.8612   -2.1087 C   0  0  0  0  0  0  0  0  0  0  0  0
   -0.5334   -0.4523   -1.8301 C   0  0  0  0  0  0  0  0  0  0  0  0
   -0.0084   -0.4805   -0.4159 C   0  0  0  0  0  0  0  0  0  0  0  0
    1.0008    0.5854   -0.2115 C   0  0  0  0  0  0  0  0  0  0  0  0
    1.5664    0.5882    1.1282 N   0  0  0  0  0  0  0  0  0  0  0  0
    2.5253    1.6650    1.1902 C   0  0  0  0  0  0  0  0  0  0  0  0
    3.7594    1.3902    0.3763 C   0  0  0  0  0  0  0  0  0  0  0  0
    4.1543    0.0159    0.3370 N   0  0  0  0  0  0  0  0  0  0  0  0
    3.1777   -1.0541    0.4361 C   0  0  0  0  0  0  0  0  0  0  0  0
    2.1801   -0.6524    1.4824 C   0  0  0  0  0  0  0  0  0  0  0  0
    5.5568   -0.2611    0.1954 C   0  0  0  0  0  0  0  0  0  0  0  0
    5.9981   -0.9842   -0.8991 C   0  0  0  0  0  0  0  0  0  0  0  0
    7.3498   -1.2727   -1.0712 C   0  0  0  0  0  0  0  0  0  0  0  0
    8.2580   -0.8290   -0.1342 C   0  0  0  0  0  0  0  0  0  0  0  0
    7.8168   -0.1112    0.9517 C   0  0  0  0  0  0  0  0  0  0  0  0
    6.4863    0.1744    1.1237 C   0  0  0  0  0  0  0  0  0  0  0  0
    5.9868    1.0842    2.5134 Cl  0  0  0  0  0  0  0  0  0  0  0  0
    8.9924    0.4525    2.1471 Cl  0  0  0  0  0  0  0  0  0  0  0  0
   -8.9448   -0.7477    1.2501 H   0  0  0  0  0  0  0  0  0  0  0  0
   -8.6334    0.4930   -0.0058 H   0  0  0  0  0  0  0  0  0  0  0  0
   -7.0333   -1.9952    0.7855 H   0  0  0  0  0  0  0  0  0  0  0  0
   -7.6779   -1.5146   -0.8523 H   0  0  0  0  0  0  0  0  0  0  0  0
   -5.7977    2.0145    1.8957 H   0  0  0  0  0  0  0  0  0  0  0  0
   -3.8402    1.9558    0.5634 H   0  0  0  0  0  0  0  0  0  0  0  0
   -3.3857   -1.0882   -2.4004 H   0  0  0  0  0  0  0  0  0  0  0  0
   -5.5171   -2.0015   -1.7772 H   0  0  0  0  0  0  0  0  0  0  0  0
   -0.4033    1.6615   -2.0107 H   0  0  0  0  0  0  0  0  0  0  0  0
   -1.5313    0.8717   -3.1965 H   0  0  0  0  0  0  0  0  0  0  0  0
   -1.1399   -1.3459   -2.0062 H   0  0  0  0  0  0  0  0  0  0  0  0
    0.3781   -0.5207   -2.5124 H   0  0  0  0  0  0  0  0  0  0  0  0
   -0.8907   -0.3817    0.2815 H   0  0  0  0  0  0  0  0  0  0  0  0
    0.3789   -1.5087   -0.2683 H   0  0  0  0  0  0  0  0  0  0  0  0
    1.7562    0.6038   -1.0148 H   0  0  0  0  0  0  0  0  0  0  0  0
    0.4662    1.5817   -0.2688 H   0  0  0  0  0  0  0  0  0  0  0  0
    2.0369    2.5727    0.7803 H   0  0  0  0  0  0  0  0  0  0  0  0
    2.7279    1.8672    2.2557 H   0  0  0  0  0  0  0  0  0  0  0  0
    4.5438    2.0856    0.6647 H   0  0  0  0  0  0  0  0  0  0  0  0
    3.4876    1.6610   -0.6852 H   0  0  0  0  0  0  0  0  0  0  0  0
    3.6503   -2.0308    0.6440 H   0  0  0  0  0  0  0  0  0  0  0  0
    2.7286   -1.1374   -0.5864 H   0  0  0  0  0  0  0  0  0  0  0  0
    1.4667   -1.4493    1.7441 H   0  0  0  0  0  0  0  0  0  0  0  0
    2.7695   -0.4695    2.4147 H   0  0  0  0  0  0  0  0  0  0  0  0
    5.3335   -1.3526   -1.6570 H   0  0  0  0  0  0  0  0  0  0  0  0
    7.7145   -1.8323   -1.9130 H   0  0  0  0  0  0  0  0  0  0  0  0
    9.3199   -1.0186   -0.2081 H   0  0  0  0  0  0  0  0  0  0  0  0
  1  2  2  0
  2  3  1  0
  3  4  1  0
  4  5  1  0
  5  6  2  0
  6  7  1  0
  6  8  1  0
  8  9  2  0
  9 10  1  0
 10 11  2  0
  9 12  1  0
 12 13  1  0
 13 14  1  0
 14 15  1  0
 15 16  1  0
 16 17  1  0
 17 18  1  0
 18 19  1  0
 19 20  1  0
 20 21  1  0
 21 22  1  0
 20 23  1  0
 23 24  2  0
 24 25  1  0
 25 26  2  0
 26 27  1  0
 27 28  2  0
 28 29  1  0
 27 30  1  0
  7  2  1  0
 22 17  1  0
 28 23  1  0
 11  5  1  0
  3 31  1  0
  3 32  1  0
  4 33  1  0
  4 34  1  0
  7 35  1  0
  8 36  1  0
 10 37  1  0
 11 38  1  0
 13 39  1  0
 13 40  1  0
 14 41  1  0
 14 42  1  0
 15 43  1  0
 15 44  1  0
 16 45  1  0
 16 46  1  0
 18 47  1  0
 18 48  1  0
 19 49  1  0
 19 50  1  0
 21 51  1  0
 21 52  1  0
 22 53  1  0
 22 54  1  0
 24 55  1  0
 25 56  1  0
 26 57  1  0
M  END
>  <Ligand ID>  (1) 
LIG0000847

>  <Ligand>  (1) 
aripiprazole

>  <SMILES>  (1) 
O=C1CCc2c(N1)cc(cc2)OCCCCN1CCN(CC1)c1cccc(c1Cl)Cl

>  <CID>  (1) 
60795.0

>  <ChEMBL ID>  (1) 
nan

>  <InChiKey>  (1) 
CEUORZQYGODEFX-UHFFFAOYSA-N

>  <InChi>  (1) 
InChI=1S/C23H27Cl2N3O2/c24-19-4-3-5-21(23(19)25)28-13-11-27(12-14-28)10-1-2-15-30-18-8-6-17-7-9-22(29)26-20(17)16-18/h3-6,8,16H,1-2,7,9-15H2,(H,26,29)

>  <IUPAC Name>  (1) 
7-[4-[4-(2,3-dichlorophenyl)piperazin-1-yl]butoxy]-3,4-dihydro-1H-quinolin-2-one

$$$$
