
     RDKit          3D

 61 65  0  0  0  0  0  0  0  0999 V2000
    4.0940    1.8705    0.1603 O   0  0  0  0  0  0  0  0  0  0  0  0
    4.3742    1.0959    1.2697 C   0  0  0  0  0  0  0  0  0  0  0  0
    3.9423   -0.3224    1.0392 C   0  0  1  0  0  0  0  0  0  0  0  0
    2.5377   -0.4533    0.7992 N   0  0  0  0  0  0  0  0  0  0  0  0
    1.8289    0.0283   -0.3247 C   0  0  0  0  0  0  0  0  0  0  0  0
    2.3878    0.6476   -1.3736 N   0  0  0  0  0  0  0  0  0  0  0  0
    1.6985    1.0982   -2.4318 C   0  0  0  0  0  0  0  0  0  0  0  0
    2.3498    1.7490   -3.5163 N   0  0  0  0  0  0  0  0  0  0  0  0
    0.3291    0.9378   -2.4902 C   0  0  0  0  0  0  0  0  0  0  0  0
   -0.2556    0.2981   -1.4086 C   0  0  0  0  0  0  0  0  0  0  0  0
    0.4824   -0.1324   -0.3761 N   0  0  0  0  0  0  0  0  0  0  0  0
   -1.5907    0.2507   -1.6766 N   0  0  0  0  0  0  0  0  0  0  0  0
   -1.8266    0.8309   -2.8636 C   0  0  0  0  0  0  0  0  0  0  0  0
   -0.6420    1.2537   -3.3635 N   0  0  0  0  0  0  0  0  0  0  0  0
   -2.5225   -0.3585   -0.7472 C   0  0  2  0  0  0  0  0  0  0  0  0
   -3.8291   -0.2612   -1.1658 O   0  0  0  0  0  0  0  0  0  0  0  0
   -4.5182   -0.7877   -0.0743 C   0  0  1  0  0  0  0  0  0  0  0  0
   -3.9604    0.0807    1.0552 C   0  0  2  0  0  0  0  0  0  0  0  0
   -2.5583    0.3855    0.5704 C   0  0  1  0  0  0  0  0  0  0  0  0
   -1.5723   -0.0878    1.4184 O   0  0  0  0  0  0  0  0  0  0  0  0
   -3.9196   -0.6606    2.2465 O   0  0  0  0  0  0  0  0  0  0  0  0
   -5.9849   -0.6409   -0.1812 C   0  0  0  0  0  0  0  0  0  0  0  0
   -6.8131   -0.8607   -1.1980 N   0  0  0  0  0  0  0  0  0  0  0  0
   -8.0517   -0.5718   -0.7684 N   0  0  0  0  0  0  0  0  0  0  0  0
   -8.0120   -0.1766    0.4948 N   0  0  0  0  0  0  0  0  0  0  0  0
   -6.7443   -0.2154    0.8663 N   0  0  0  0  0  0  0  0  0  0  0  0
   -9.0961    0.2340    1.3683 C   0  0  0  0  0  0  0  0  0  0  0  0
   -9.2540    1.7385    1.1954 C   0  0  0  0  0  0  0  0  0  0  0  0
    4.7397   -0.8644   -0.1555 C   0  0  0  0  0  0  0  0  0  0  0  0
    6.1954   -0.8338    0.1057 C   0  0  0  0  0  0  0  0  0  0  0  0
    7.0187    0.2209   -0.2169 C   0  0  0  0  0  0  0  0  0  0  0  0
    8.3709    0.2437    0.0282 C   0  0  0  0  0  0  0  0  0  0  0  0
    8.9377   -0.8470    0.6296 C   0  0  0  0  0  0  0  0  0  0  0  0
    8.1693   -1.9378    0.9788 C   0  0  0  0  0  0  0  0  0  0  0  0
    6.8199   -1.9252    0.7182 C   0  0  0  0  0  0  0  0  0  0  0  0
   10.8201   -0.7933    0.9609 Br  0  0  0  0  0  0  0  0  0  0  0  0
    3.4501    2.5924    0.3435 H   0  0  0  0  0  0  0  0  0  0  0  0
    3.8448    1.5580    2.1391 H   0  0  0  0  0  0  0  0  0  0  0  0
    5.4808    1.0949    1.4536 H   0  0  0  0  0  0  0  0  0  0  0  0
    4.2064   -0.9819    1.9045 H   0  0  0  0  0  0  0  0  0  0  0  0
    1.9658   -0.9577    1.5299 H   0  0  0  0  0  0  0  0  0  0  0  0
    2.1150    1.5541   -4.5227 H   0  0  0  0  0  0  0  0  0  0  0  0
    3.0975    2.4558   -3.3381 H   0  0  0  0  0  0  0  0  0  0  0  0
   -2.8189    0.9175   -3.2989 H   0  0  0  0  0  0  0  0  0  0  0  0
   -2.3043   -1.4203   -0.5301 H   0  0  0  0  0  0  0  0  0  0  0  0
   -4.1898   -1.8400    0.0379 H   0  0  0  0  0  0  0  0  0  0  0  0
   -4.5941    0.9811    1.1428 H   0  0  0  0  0  0  0  0  0  0  0  0
   -2.4384    1.4543    0.3291 H   0  0  0  0  0  0  0  0  0  0  0  0
   -1.5079   -1.0730    1.3545 H   0  0  0  0  0  0  0  0  0  0  0  0
   -3.0663   -0.4710    2.7291 H   0  0  0  0  0  0  0  0  0  0  0  0
  -10.0382   -0.3149    1.1903 H   0  0  0  0  0  0  0  0  0  0  0  0
   -8.8309    0.0056    2.4389 H   0  0  0  0  0  0  0  0  0  0  0  0
   -9.6812    1.8872    0.1895 H   0  0  0  0  0  0  0  0  0  0  0  0
   -9.8920    2.1629    2.0155 H   0  0  0  0  0  0  0  0  0  0  0  0
   -8.2318    2.1684    1.2165 H   0  0  0  0  0  0  0  0  0  0  0  0
    4.4515   -1.8958   -0.3674 H   0  0  0  0  0  0  0  0  0  0  0  0
    4.5812   -0.1815   -1.0352 H   0  0  0  0  0  0  0  0  0  0  0  0
    6.5895    1.0878   -0.6909 H   0  0  0  0  0  0  0  0  0  0  0  0
    8.9583    1.1157   -0.2562 H   0  0  0  0  0  0  0  0  0  0  0  0
    8.6773   -2.7753    1.4540 H   0  0  0  0  0  0  0  0  0  0  0  0
    6.2307   -2.7879    0.9980 H   0  0  0  0  0  0  0  0  0  0  0  0
  1  2  1  0
  2  3  1  0
  3  4  1  0
  4  5  1  0
  5  6  2  0
  6  7  1  0
  7  8  1  0
  7  9  2  0
  9 10  1  0
 10 11  2  0
 10 12  1  0
 12 13  1  0
 13 14  2  0
 12 15  1  0
 15 16  1  0
 16 17  1  0
 17 18  1  0
 18 19  1  0
 19 20  1  0
 18 21  1  0
 17 22  1  0
 22 23  1  0
 23 24  2  0
 24 25  1  0
 25 26  1  0
 25 27  1  0
 27 28  1  0
  3 29  1  0
 29 30  1  0
 30 31  2  0
 31 32  1  0
 32 33  2  0
 33 34  1  0
 34 35  2  0
 33 36  1  0
 11  5  1  0
 19 15  1  0
 26 22  2  0
 35 30  1  0
 14  9  1  0
  1 37  1  0
  2 38  1  0
  2 39  1  0
  3 40  1  1
  4 41  1  0
  8 42  1  0
  8 43  1  0
 13 44  1  0
 15 45  1  1
 17 46  1  1
 18 47  1  1
 19 48  1  6
 20 49  1  0
 21 50  1  0
 27 51  1  0
 27 52  1  0
 28 53  1  0
 28 54  1  0
 28 55  1  0
 29 56  1  0
 29 57  1  0
 31 58  1  0
 32 59  1  0
 34 60  1  0
 35 61  1  0
M  END
>  <Ligand ID>  (1) 
LIG0004408

>  <Ligand>  (1) 
CHEMBL361925

>  <SMILES>  (1) 
OC[C@@H](Nc1nc(N)c2c(n1)n(cn2)[C@@H]1O[C@@H]([C@H]([C@H]1O)O)c1nnn(n1)CC)Cc1ccc(cc1)Br

>  <CID>  (1) 
11157262.0

>  <ChEMBL ID>  (1) 
nan

>  <InChiKey>  (1) 
SSGCBXCKJQWPJL-NIQZGXKPSA-N

>  <InChi>  (1) 
InChI=1S/C21H25BrN10O4/c1-2-32-29-18(28-30-32)16-14(34)15(35)20(36-16)31-9-24-13-17(23)26-21(27-19(13)31)25-12(8-33)7-10-3-5-11(22)6-4-10/h3-6,9,12,14-16,20,33-35H,2,7-8H2,1H3,(H3,23,25,26,27)/t12-,14-,15+,16-,20+/m0/s1

>  <IUPAC Name>  (1) 
(2R,3R,4S,5R)-2-[6-amino-2-[[(2S)-1-(4-bromophenyl)-3-hydroxypropan-2-yl]amino]purin-9-yl]-5-(2-ethyltetrazol-5-yl)oxolane-3,4-diol

$$$$
