
     RDKit          3D

 58 62  0  0  0  0  0  0  0  0999 V2000
   -3.1758   -2.3781    4.8803 Cl  0  0  0  0  0  0  0  0  0  0  0  0
   -3.2245   -1.7414    3.2544 C   0  0  0  0  0  0  0  0  0  0  0  0
   -3.5657   -2.6133    2.2419 C   0  0  0  0  0  0  0  0  0  0  0  0
   -3.6115   -2.1448    0.9667 C   0  0  0  0  0  0  0  0  0  0  0  0
   -3.3395   -0.8452    0.5974 C   0  0  0  0  0  0  0  0  0  0  0  0
   -2.9966    0.0231    1.6295 C   0  0  0  0  0  0  0  0  0  0  0  0
   -2.9394   -0.4226    2.9514 C   0  0  0  0  0  0  0  0  0  0  0  0
   -3.4059   -0.3818   -0.8258 C   0  0  0  0  0  0  0  0  0  0  0  0
   -2.0979   -0.5847   -1.4653 C   0  0  0  0  0  0  0  0  0  0  0  0
   -1.9883   -1.3955   -2.6003 C   0  0  0  0  0  0  0  0  0  0  0  0
   -0.7954   -1.6324   -3.2297 C   0  0  0  0  0  0  0  0  0  0  0  0
    0.3294   -1.0364   -2.7045 C   0  0  0  0  0  0  0  0  0  0  0  0
    0.2896   -0.2272   -1.5891 C   0  0  0  0  0  0  0  0  0  0  0  0
   -0.9293   -0.0173   -0.9894 C   0  0  0  0  0  0  0  0  0  0  0  0
    1.4698    0.3395   -1.1182 C   0  0  0  0  0  0  0  0  0  0  0  0
    2.5811    0.0487   -1.8007 N   0  0  0  0  0  0  0  0  0  0  0  0
    2.6601   -0.7316   -2.8866 C   0  0  0  0  0  0  0  0  0  0  0  0
    1.5061   -1.2750   -3.3325 N   0  0  0  0  0  0  0  0  0  0  0  0
    1.4790    1.1788    0.0193 N   0  0  0  0  0  0  0  0  0  0  0  0
    2.6731    1.8004    0.5645 C   0  0  0  0  0  0  0  0  0  0  0  0
    3.6983    0.8616    1.0293 C   0  0  0  0  0  0  0  0  0  0  0  0
    3.5727    0.3501    2.3198 C   0  0  0  0  0  0  0  0  0  0  0  0
    4.5123   -0.5255    2.8258 C   0  0  0  0  0  0  0  0  0  0  0  0
    5.5912   -0.9172    2.0804 C   0  0  0  0  0  0  0  0  0  0  0  0
    5.7433   -0.4296    0.8030 C   0  0  0  0  0  0  0  0  0  0  0  0
    4.7924    0.4476    0.3110 C   0  0  0  0  0  0  0  0  0  0  0  0
    6.8755   -0.8223   -0.0184 C   0  0  0  0  0  0  0  0  0  0  0  0
    7.0717   -0.4147   -1.1888 O   0  0  0  0  0  0  0  0  0  0  0  0
    7.8407   -1.7269    0.5132 N   0  0  0  0  0  0  0  0  0  0  0  0
   -4.0129    0.9302   -0.9904 C   0  0  0  0  0  0  0  0  0  0  0  0
   -3.3583    2.1113   -1.2436 C   0  0  0  0  0  0  0  0  0  0  0  0
   -4.0073    3.3265   -1.3804 C   0  0  0  0  0  0  0  0  0  0  0  0
   -5.3825    3.3942   -1.2629 C   0  0  0  0  0  0  0  0  0  0  0  0
   -6.0633    2.2320   -1.0105 C   0  0  0  0  0  0  0  0  0  0  0  0
   -5.4068    1.0267   -0.8760 C   0  0  0  0  0  0  0  0  0  0  0  0
   -6.1623    4.9406   -1.4412 Cl  0  0  0  0  0  0  0  0  0  0  0  0
   -3.8015   -3.6621    2.4108 H   0  0  0  0  0  0  0  0  0  0  0  0
   -3.8809   -2.8190    0.1402 H   0  0  0  0  0  0  0  0  0  0  0  0
   -2.7697    1.0546    1.4281 H   0  0  0  0  0  0  0  0  0  0  0  0
   -2.6711    0.2566    3.7594 H   0  0  0  0  0  0  0  0  0  0  0  0
   -4.1270   -1.1193   -1.3046 H   0  0  0  0  0  0  0  0  0  0  0  0
   -2.8893   -1.8709   -3.0184 H   0  0  0  0  0  0  0  0  0  0  0  0
   -0.7751   -2.2665   -4.1006 H   0  0  0  0  0  0  0  0  0  0  0  0
   -1.0025    0.5894   -0.1241 H   0  0  0  0  0  0  0  0  0  0  0  0
    3.6191   -0.9105   -3.3771 H   0  0  0  0  0  0  0  0  0  0  0  0
    0.5901    1.4088    0.5541 H   0  0  0  0  0  0  0  0  0  0  0  0
    2.4350    2.4747    1.4274 H   0  0  0  0  0  0  0  0  0  0  0  0
    3.1199    2.4913   -0.2171 H   0  0  0  0  0  0  0  0  0  0  0  0
    2.7284    0.6412    2.9367 H   0  0  0  0  0  0  0  0  0  0  0  0
    4.3573   -0.8838    3.8290 H   0  0  0  0  0  0  0  0  0  0  0  0
    6.3203   -1.6029    2.4861 H   0  0  0  0  0  0  0  0  0  0  0  0
    4.9574    0.8140   -0.6902 H   0  0  0  0  0  0  0  0  0  0  0  0
    8.1917   -2.5410   -0.0229 H   0  0  0  0  0  0  0  0  0  0  0  0
    8.2368   -1.6027    1.4763 H   0  0  0  0  0  0  0  0  0  0  0  0
   -2.2865    2.1207   -1.3508 H   0  0  0  0  0  0  0  0  0  0  0  0
   -3.4397    4.2300   -1.5802 H   0  0  0  0  0  0  0  0  0  0  0  0
   -7.1452    2.3115   -0.9224 H   0  0  0  0  0  0  0  0  0  0  0  0
   -5.9909    0.1380   -0.6770 H   0  0  0  0  0  0  0  0  0  0  0  0
  1  2  1  0
  2  3  2  0
  3  4  1  0
  4  5  2  0
  5  6  1  0
  6  7  2  0
  5  8  1  0
  8  9  1  0
  9 10  2  0
 10 11  1  0
 11 12  2  0
 12 13  1  0
 13 14  2  0
 13 15  1  0
 15 16  2  0
 16 17  1  0
 17 18  2  0
 15 19  1  0
 19 20  1  0
 20 21  1  0
 21 22  2  0
 22 23  1  0
 23 24  2  0
 24 25  1  0
 25 26  2  0
 25 27  1  0
 27 28  2  0
 27 29  1  0
  8 30  1  0
 30 31  2  0
 31 32  1  0
 32 33  2  0
 33 34  1  0
 34 35  2  0
 33 36  1  0
  7  2  1  0
 14  9  1  0
 26 21  1  0
 35 30  1  0
 18 12  1  0
  3 37  1  0
  4 38  1  0
  6 39  1  0
  7 40  1  0
  8 41  1  0
 10 42  1  0
 11 43  1  0
 14 44  1  0
 17 45  1  0
 19 46  1  0
 20 47  1  0
 20 48  1  0
 22 49  1  0
 23 50  1  0
 24 51  1  0
 26 52  1  0
 29 53  1  0
 29 54  1  0
 31 55  1  0
 32 56  1  0
 34 57  1  0
 35 58  1  0
M  END
>  <Ligand ID>  (1) 
LIG0005852

>  <Ligand>  (1) 
SCHEMBL17557705

>  <SMILES>  (1) 
Clc1ccc(cc1)C(c1ccc2c(c1)c(ncn2)NCc1cccc(c1)C(=O)N)c1ccc(cc1)Cl

>  <CID>  (1) 
118916183.0

>  <ChEMBL ID>  (1) 
nan

>  <InChiKey>  (1) 
PCXZWAUSVDAFII-UHFFFAOYSA-N

>  <InChi>  (1) 
InChI=1S/C29H22Cl2N4O/c30-23-9-4-19(5-10-23)27(20-6-11-24(31)12-7-20)21-8-13-26-25(15-21)29(35-17-34-26)33-16-18-2-1-3-22(14-18)28(32)36/h1-15,17,27H,16H2,(H2,32,36)(H,33,34,35)

>  <IUPAC Name>  (1) 
3-[[[6-[bis(4-chlorophenyl)methyl]quinazolin-4-yl]amino]methyl]benzamide

$$$$
