
     RDKit          3D

 19 19  0  0  0  0  0  0  0  0999 V2000
    3.4740    1.7443   -0.1590 O   0  0  0  0  0  0  0  0  0  0  0  0
    3.0900    0.4971    0.2750 N   0  0  0  0  0  0  0  0  0  0  0  0
    3.9616   -0.2841    0.7172 O   0  0  0  0  0  0  0  0  0  0  0  0
    1.7342    0.1098    0.2216 C   0  0  0  0  0  0  0  0  0  0  0  0
    1.3437   -1.1441    0.6595 C   0  0  0  0  0  0  0  0  0  0  0  0
   -0.0112   -1.4803    0.5863 C   0  0  0  0  0  0  0  0  0  0  0  0
   -0.9318   -0.5599    0.0812 C   0  0  0  0  0  0  0  0  0  0  0  0
   -0.5496    0.6905   -0.3563 C   0  0  0  0  0  0  0  0  0  0  0  0
    0.8011    1.0054   -0.2756 C   0  0  0  0  0  0  0  0  0  0  0  0
   -1.4599    1.6504   -0.8758 N   0  0  0  0  0  0  0  0  0  0  0  0
   -1.1527    2.8675   -0.7503 O   0  0  0  0  0  0  0  0  0  0  0  0
   -2.6287    1.3570   -1.4932 O   0  0  0  0  0  0  0  0  0  0  0  0
   -2.3492   -0.9602    0.0260 C   0  0  0  0  0  0  0  0  0  0  0  0
    2.0555   -1.8569    1.0508 H   0  0  0  0  0  0  0  0  0  0  0  0
   -0.3453   -2.4382    0.9144 H   0  0  0  0  0  0  0  0  0  0  0  0
    1.0999    1.9902   -0.6204 H   0  0  0  0  0  0  0  0  0  0  0  0
   -2.5791   -1.8037    0.7202 H   0  0  0  0  0  0  0  0  0  0  0  0
   -2.9807   -0.0978    0.2946 H   0  0  0  0  0  0  0  0  0  0  0  0
   -2.5719   -1.2868   -1.0160 H   0  0  0  0  0  0  0  0  0  0  0  0
  1  2  1  0
  2  3  2  0
  2  4  1  0
  4  5  2  0
  5  6  1  0
  6  7  2  0
  7  8  1  0
  8  9  2  0
  8 10  1  0
 10 11  2  0
 10 12  1  0
  7 13  1  0
  9  4  1  0
  5 14  1  0
  6 15  1  0
  9 16  1  0
 13 17  1  0
 13 18  1  0
 13 19  1  0
M  CHG  4   1  -1   2   1  10   1  12  -1
M  END
>  <Ligand ID>  (1) 
LIG0000052

>  <Ligand>  (1) 
2,4-DNT

>  <SMILES>  (1) 
[O-][N+](=O)c1ccc(c(c1)[N+](=O)[O-])C

>  <CID>  (1) 
8461.0

>  <ChEMBL ID>  (1) 
nan

>  <InChiKey>  (1) 
RMBFBMJGBANMMK-UHFFFAOYSA-N

>  <InChi>  (1) 
InChI=1S/C7H6N2O4/c1-5-2-3-6(8(10)11)4-7(5)9(12)13/h2-4H,1H3

>  <IUPAC Name>  (1) 
1-methyl-2,4-dinitrobenzene

$$$$
