
     RDKit          3D

 19 18  0  0  0  0  0  0  0  0999 V2000
    0.4477   -1.5795    0.7378 N   0  0  0  0  0  0  0  0  0  0  0  0
    0.5910   -0.5999   -0.3334 C   0  0  2  0  0  0  0  0  0  0  0  0
    1.8594    0.1211   -0.1222 C   0  0  0  0  0  0  0  0  0  0  0  0
    2.6203   -0.1373    0.8469 O   0  0  0  0  0  0  0  0  0  0  0  0
    2.2785    1.1259   -0.9868 O   0  0  0  0  0  0  0  0  0  0  0  0
   -0.5916    0.3465   -0.3803 C   0  0  0  0  0  0  0  0  0  0  0  0
   -1.8853   -0.3834   -0.6158 C   0  0  0  0  0  0  0  0  0  0  0  0
   -0.6631    1.1451    0.8845 C   0  0  0  0  0  0  0  0  0  0  0  0
   -0.1588   -2.3666    0.4853 H   0  0  0  0  0  0  0  0  0  0  0  0
    1.3854   -1.9505    1.0005 H   0  0  0  0  0  0  0  0  0  0  0  0
    0.6665   -1.1722   -1.2796 H   0  0  0  0  0  0  0  0  0  0  0  0
    2.7729    1.9275   -0.6110 H   0  0  0  0  0  0  0  0  0  0  0  0
   -0.4018    1.0516   -1.2066 H   0  0  0  0  0  0  0  0  0  0  0  0
   -2.7045   -0.0327    0.0660 H   0  0  0  0  0  0  0  0  0  0  0  0
   -2.2926   -0.1802   -1.6433 H   0  0  0  0  0  0  0  0  0  0  0  0
   -1.8209   -1.4758   -0.5261 H   0  0  0  0  0  0  0  0  0  0  0  0
    0.3395    1.4377    1.2687 H   0  0  0  0  0  0  0  0  0  0  0  0
   -1.2033    0.6242    1.6975 H   0  0  0  0  0  0  0  0  0  0  0  0
   -1.2392    2.0987    0.7180 H   0  0  0  0  0  0  0  0  0  0  0  0
  1  2  1  0
  2  3  1  0
  3  4  2  0
  3  5  1  0
  2  6  1  0
  6  7  1  0
  6  8  1  0
  1  9  1  0
  1 10  1  0
  2 11  1  6
  5 12  1  0
  6 13  1  0
  7 14  1  0
  7 15  1  0
  7 16  1  0
  8 17  1  0
  8 18  1  0
  8 19  1  0
M  END
>  <Ligand ID>  (1) 
LIG0000762

>  <Ligand>  (1) 
Valine

>  <SMILES>  (1) 
N[C@H](C(=O)O)C(C)C

>  <CID>  (1) 
6287.0

>  <ChEMBL ID>  (1) 
nan

>  <InChiKey>  (1) 
KZSNJWFQEVHDMF-BYPYZUCNSA-N

>  <InChi>  (1) 
InChI=1S/C5H11NO2/c1-3(2)4(6)5(7)8/h3-4H,6H2,1-2H3,(H,7,8)/t4-/m0/s1

>  <IUPAC Name>  (1) 
(2S)-2-amino-3-methylbutanoic acid

$$$$
