
     RDKit          3D

 23 22  0  0  0  0  0  0  0  0999 V2000
    3.6190    0.1921    0.4557 C   0  0  0  0  0  0  0  0  0  0  0  0
    2.3011    0.4352   -0.2349 C   0  0  0  0  0  0  0  0  0  0  0  0
    1.9672    1.6162   -0.4046 O   0  0  0  0  0  0  0  0  0  0  0  0
    1.4540   -0.7027   -0.6852 C   0  0  0  0  0  0  0  0  0  0  0  0
    0.3020   -0.9414    0.2732 C   0  0  0  0  0  0  0  0  0  0  0  0
   -0.5885    0.2121    0.4115 C   0  0  0  0  0  0  0  0  0  0  0  0
   -1.8804    0.2432    0.1216 C   0  0  0  0  0  0  0  0  0  0  0  0
   -2.6723    1.5105    0.3166 C   0  0  0  0  0  0  0  0  0  0  0  0
   -2.6438   -0.9207   -0.4027 C   0  0  0  0  0  0  0  0  0  0  0  0
    3.9568    1.1031    0.9844 H   0  0  0  0  0  0  0  0  0  0  0  0
    3.5756   -0.6714    1.1491 H   0  0  0  0  0  0  0  0  0  0  0  0
    4.3726   -0.0486   -0.3164 H   0  0  0  0  0  0  0  0  0  0  0  0
    2.0803   -1.6148   -0.6386 H   0  0  0  0  0  0  0  0  0  0  0  0
    1.1048   -0.5405   -1.7199 H   0  0  0  0  0  0  0  0  0  0  0  0
    0.8087   -1.0768    1.2769 H   0  0  0  0  0  0  0  0  0  0  0  0
   -0.1828   -1.9127    0.0853 H   0  0  0  0  0  0  0  0  0  0  0  0
   -0.1342    1.1442    0.7952 H   0  0  0  0  0  0  0  0  0  0  0  0
   -3.7511    1.2768    0.4848 H   0  0  0  0  0  0  0  0  0  0  0  0
   -2.6218    2.1770   -0.5664 H   0  0  0  0  0  0  0  0  0  0  0  0
   -2.3282    2.0934    1.1873 H   0  0  0  0  0  0  0  0  0  0  0  0
   -2.0425   -1.7822   -0.6883 H   0  0  0  0  0  0  0  0  0  0  0  0
   -3.3246   -0.5986   -1.2462 H   0  0  0  0  0  0  0  0  0  0  0  0
   -3.3720   -1.1933    0.4178 H   0  0  0  0  0  0  0  0  0  0  0  0
  1  2  1  0
  2  3  2  0
  2  4  1  0
  4  5  1  0
  5  6  1  0
  6  7  2  3
  7  8  1  0
  7  9  1  0
  1 10  1  0
  1 11  1  0
  1 12  1  0
  4 13  1  0
  4 14  1  0
  5 15  1  0
  5 16  1  0
  6 17  1  0
  8 18  1  0
  8 19  1  0
  8 20  1  0
  9 21  1  0
  9 22  1  0
  9 23  1  0
M  END
>  <Ligand ID>  (1) 
LIG0000397

>  <Ligand>  (1) 
Methyl heptenone

>  <SMILES>  (1) 
CC(=O)CCC=C(C)C

>  <CID>  (1) 
9862.0

>  <ChEMBL ID>  (1) 
nan

>  <InChiKey>  (1) 
UHEPJGULSIKKTP-UHFFFAOYSA-N

>  <InChi>  (1) 
InChI=1S/C8H14O/c1-7(2)5-4-6-8(3)9/h5H,4,6H2,1-3H3

>  <IUPAC Name>  (1) 
6-methylhept-5-en-2-one

$$$$
