
     RDKit          3D

 53 55  0  0  0  0  0  0  0  0999 V2000
    5.4823    1.1068    1.9063 C   0  0  0  0  0  0  0  0  0  0  0  0
    4.7451    1.7208    0.7086 C   0  0  0  0  0  0  0  0  0  0  0  0
    3.7880    0.6917    0.2248 C   0  0  0  0  0  0  0  0  0  0  0  0
    3.9102    0.0794   -0.9141 O   0  0  0  0  0  0  0  0  0  0  0  0
    2.9451   -0.7592   -1.0839 N   0  0  0  0  0  0  0  0  0  0  0  0
    2.1369   -0.7149   -0.0230 C   0  0  0  0  0  0  0  0  0  0  0  0
    2.6617    0.2272    0.8561 C   0  0  0  0  0  0  0  0  0  0  0  0
    0.9402   -1.5211    0.1510 C   0  0  0  0  0  0  0  0  0  0  0  0
    1.1675   -2.7258    0.5480 O   0  0  0  0  0  0  0  0  0  0  0  0
   -0.3859   -1.0704   -0.0829 N   0  0  0  0  0  0  0  0  0  0  0  0
   -0.8103    0.2063   -0.5142 C   0  0  0  0  0  0  0  0  0  0  0  0
   -0.2860    0.5894   -1.8774 C   0  0  0  0  0  0  0  0  0  0  0  0
   -0.8879    1.9105   -2.3241 C   0  0  0  0  0  0  0  0  0  0  0  0
   -1.8614    2.5093   -1.3655 C   0  0  0  0  0  0  0  0  0  0  0  0
   -1.5177    2.4350    0.0807 C   0  0  0  0  0  0  0  0  0  0  0  0
   -0.4270    1.3789    0.3664 C   0  0  0  0  0  0  0  0  0  0  0  0
   -1.4362   -2.0645    0.1800 C   0  0  0  0  0  0  0  0  0  0  0  0
   -2.4249   -1.6081    1.1843 C   0  0  0  0  0  0  0  0  0  0  0  0
   -3.8574   -1.9063    0.7742 C   0  0  0  0  0  0  0  0  0  0  0  0
   -4.0339   -3.2513    0.1449 C   0  0  0  0  0  0  0  0  0  0  0  0
   -3.0527   -3.5743   -0.9337 C   0  0  0  0  0  0  0  0  0  0  0  0
   -2.0538   -2.4343   -1.1495 C   0  0  0  0  0  0  0  0  0  0  0  0
    3.9320    2.9179    1.1363 C   0  0  0  0  0  0  0  0  0  0  0  0
    6.4896    0.7518    1.6001 H   0  0  0  0  0  0  0  0  0  0  0  0
    5.5225    1.9056    2.6691 H   0  0  0  0  0  0  0  0  0  0  0  0
    4.9203    0.2629    2.3024 H   0  0  0  0  0  0  0  0  0  0  0  0
    5.4828    1.9714   -0.0636 H   0  0  0  0  0  0  0  0  0  0  0  0
    2.2668    0.5235    1.8207 H   0  0  0  0  0  0  0  0  0  0  0  0
   -1.9513    0.2274   -0.6367 H   0  0  0  0  0  0  0  0  0  0  0  0
   -0.3941   -0.2267   -2.5849 H   0  0  0  0  0  0  0  0  0  0  0  0
    0.8063    0.8230   -1.7423 H   0  0  0  0  0  0  0  0  0  0  0  0
   -0.1298    2.6603   -2.6104 H   0  0  0  0  0  0  0  0  0  0  0  0
   -1.4332    1.6876   -3.2785 H   0  0  0  0  0  0  0  0  0  0  0  0
   -2.8802    2.1445   -1.6099 H   0  0  0  0  0  0  0  0  0  0  0  0
   -1.9113    3.6111   -1.6165 H   0  0  0  0  0  0  0  0  0  0  0  0
   -2.4024    2.0680    0.6410 H   0  0  0  0  0  0  0  0  0  0  0  0
   -1.2579    3.4135    0.5471 H   0  0  0  0  0  0  0  0  0  0  0  0
    0.5118    1.8751    0.0248 H   0  0  0  0  0  0  0  0  0  0  0  0
   -0.3452    1.1785    1.4207 H   0  0  0  0  0  0  0  0  0  0  0  0
   -0.8839   -2.9655    0.5148 H   0  0  0  0  0  0  0  0  0  0  0  0
   -2.4016   -0.5237    1.4054 H   0  0  0  0  0  0  0  0  0  0  0  0
   -2.2579   -2.1199    2.1545 H   0  0  0  0  0  0  0  0  0  0  0  0
   -4.2786   -1.0590    0.1639 H   0  0  0  0  0  0  0  0  0  0  0  0
   -4.4463   -1.8900    1.7237 H   0  0  0  0  0  0  0  0  0  0  0  0
   -4.0606   -4.0052    0.9616 H   0  0  0  0  0  0  0  0  0  0  0  0
   -5.0597   -3.2459   -0.3074 H   0  0  0  0  0  0  0  0  0  0  0  0
   -3.5054   -3.7840   -1.9216 H   0  0  0  0  0  0  0  0  0  0  0  0
   -2.4631   -4.4571   -0.6032 H   0  0  0  0  0  0  0  0  0  0  0  0
   -1.2172   -2.9056   -1.7470 H   0  0  0  0  0  0  0  0  0  0  0  0
   -2.4761   -1.5849   -1.6862 H   0  0  0  0  0  0  0  0  0  0  0  0
    4.5582    3.7402    1.5446 H   0  0  0  0  0  0  0  0  0  0  0  0
    3.3415    3.2307    0.2535 H   0  0  0  0  0  0  0  0  0  0  0  0
    3.1818    2.5493    1.8818 H   0  0  0  0  0  0  0  0  0  0  0  0
  1  2  1  0
  2  3  1  0
  3  4  1  0
  4  5  1  0
  5  6  2  0
  6  7  1  0
  6  8  1  0
  8  9  2  0
  8 10  1  0
 10 11  1  0
 11 12  1  0
 12 13  1  0
 13 14  1  0
 14 15  1  0
 15 16  1  0
 10 17  1  0
 17 18  1  0
 18 19  1  0
 19 20  1  0
 20 21  1  0
 21 22  1  0
  2 23  1  0
  7  3  2  0
 16 11  1  0
 22 17  1  0
  1 24  1  0
  1 25  1  0
  1 26  1  0
  2 27  1  0
  7 28  1  0
 11 29  1  0
 12 30  1  0
 12 31  1  0
 13 32  1  0
 13 33  1  0
 14 34  1  0
 14 35  1  0
 15 36  1  0
 15 37  1  0
 16 38  1  0
 16 39  1  0
 17 40  1  0
 18 41  1  0
 18 42  1  0
 19 43  1  0
 19 44  1  0
 20 45  1  0
 20 46  1  0
 21 47  1  0
 21 48  1  0
 22 49  1  0
 22 50  1  0
 23 51  1  0
 23 52  1  0
 23 53  1  0
M  END
>  <Ligand ID>  (1) 
LIG0001506

>  <Ligand>  (1) 
MLS003675927

>  <SMILES>  (1) 
CC(c1onc(c1)C(=O)N(C1CCCCC1)C1CCCCC1)C

>  <CID>  (1) 
17253281.0

>  <ChEMBL ID>  (1) 
nan

>  <InChiKey>  (1) 
QTYPWWSCLAZZFG-UHFFFAOYSA-N

>  <InChi>  (1) 
InChI=1S/C19H30N2O2/c1-14(2)18-13-17(20-23-18)19(22)21(15-9-5-3-6-10-15)16-11-7-4-8-12-16/h13-16H,3-12H2,1-2H3

>  <IUPAC Name>  (1) 
N,N-dicyclohexyl-5-propan-2-yl-1,2-oxazole-3-carboxamide

$$$$
