
     RDKit          3D

 29 29  0  0  0  0  0  0  0  0999 V2000
   -4.4017   -1.0481   -0.0938 C   0  0  0  0  0  0  0  0  0  0  0  0
   -3.8645    0.3229    0.1493 C   0  0  0  0  0  0  0  0  0  0  0  0
   -2.3664    0.2909    0.4120 C   0  0  0  0  0  0  0  0  0  0  0  0
   -1.6209   -0.2922   -0.7646 C   0  0  0  0  0  0  0  0  0  0  0  0
   -0.2286   -0.3467   -0.5769 O   0  0  0  0  0  0  0  0  0  0  0  0
    0.4968    0.7906   -0.3567 C   0  0  0  0  0  0  0  0  0  0  0  0
    0.0274    1.9542   -0.3000 O   0  0  0  0  0  0  0  0  0  0  0  0
    1.9556    0.6509   -0.1682 C   0  0  0  0  0  0  0  0  0  0  0  0
    2.7703    1.7381    0.0592 C   0  0  0  0  0  0  0  0  0  0  0  0
    4.1237    1.6624    0.2397 C   0  0  0  0  0  0  0  0  0  0  0  0
    4.7016    0.4069    0.1885 C   0  0  0  0  0  0  0  0  0  0  0  0
    3.9436   -0.7364   -0.0369 C   0  0  0  0  0  0  0  0  0  0  0  0
    2.5755   -0.5869   -0.2117 C   0  0  0  0  0  0  0  0  0  0  0  0
    1.8147   -1.7683   -0.4415 N   0  0  0  0  0  0  0  0  0  0  0  0
   -5.4223   -1.1989    0.3385 H   0  0  0  0  0  0  0  0  0  0  0  0
   -3.7674   -1.8520    0.3152 H   0  0  0  0  0  0  0  0  0  0  0  0
   -4.5305   -1.1838   -1.1879 H   0  0  0  0  0  0  0  0  0  0  0  0
   -4.3267    0.7188    1.0764 H   0  0  0  0  0  0  0  0  0  0  0  0
   -4.1234    1.0479   -0.6446 H   0  0  0  0  0  0  0  0  0  0  0  0
   -2.2238   -0.3119    1.3259 H   0  0  0  0  0  0  0  0  0  0  0  0
   -2.0234    1.3222    0.6117 H   0  0  0  0  0  0  0  0  0  0  0  0
   -1.8343    0.2456   -1.7012 H   0  0  0  0  0  0  0  0  0  0  0  0
   -1.9558   -1.3542   -0.8614 H   0  0  0  0  0  0  0  0  0  0  0  0
    2.2847    2.7055    0.0930 H   0  0  0  0  0  0  0  0  0  0  0  0
    4.6926    2.5689    0.4139 H   0  0  0  0  0  0  0  0  0  0  0  0
    5.7804    0.3693    0.3348 H   0  0  0  0  0  0  0  0  0  0  0  0
    4.4221   -1.7007   -0.0714 H   0  0  0  0  0  0  0  0  0  0  0  0
    1.2951   -1.9516   -1.3364 H   0  0  0  0  0  0  0  0  0  0  0  0
    1.8058   -2.4636    0.3623 H   0  0  0  0  0  0  0  0  0  0  0  0
  1  2  1  0
  2  3  1  0
  3  4  1  0
  4  5  1  0
  5  6  1  0
  6  7  2  0
  6  8  1  0
  8  9  2  0
  9 10  1  0
 10 11  2  0
 11 12  1  0
 12 13  2  0
 13 14  1  0
 13  8  1  0
  1 15  1  0
  1 16  1  0
  1 17  1  0
  2 18  1  0
  2 19  1  0
  3 20  1  0
  3 21  1  0
  4 22  1  0
  4 23  1  0
  9 24  1  0
 10 25  1  0
 11 26  1  0
 12 27  1  0
 14 28  1  0
 14 29  1  0
M  END
>  <Ligand ID>  (1) 
LIG0001058

>  <Ligand>  (1) 
Butyl anthranilate

>  <SMILES>  (1) 
CCCCOC(=O)c1ccccc1N

>  <CID>  (1) 
24433.0

>  <ChEMBL ID>  (1) 
nan

>  <InChiKey>  (1) 
HUIYGGQINIVDNW-UHFFFAOYSA-N

>  <InChi>  (1) 
InChI=1S/C11H15NO2/c1-2-3-8-14-11(13)9-6-4-5-7-10(9)12/h4-7H,2-3,8,12H2,1H3

>  <IUPAC Name>  (1) 
butyl 2-aminobenzoate

$$$$
