
     RDKit          3D

 90 93  0  0  0  0  0  0  0  0999 V2000
    5.9001   -2.9870    3.9157 C   0  0  0  0  0  0  0  0  0  0  0  0
    5.3371   -1.8031    3.1948 C   0  0  0  0  0  0  0  0  0  0  0  0
    4.8456   -0.8951    3.9082 O   0  0  0  0  0  0  0  0  0  0  0  0
    5.3839   -1.7606    1.7928 N   0  0  0  0  0  0  0  0  0  0  0  0
    4.8380   -0.6081    1.0766 C   0  0  2  0  0  0  0  0  0  0  0  0
    3.8153   -1.1053    0.1571 C   0  0  0  0  0  0  0  0  0  0  0  0
    3.5196   -2.3257    0.0111 O   0  0  0  0  0  0  0  0  0  0  0  0
    3.0888   -0.1861   -0.6363 N   0  0  0  0  0  0  0  0  0  0  0  0
    2.0662   -0.5610   -1.5591 C   0  0  1  0  0  0  0  0  0  0  0  0
    0.7327   -0.3755   -0.9390 C   0  0  0  0  0  0  0  0  0  0  0  0
    0.7125   -0.0295    0.2740 O   0  0  0  0  0  0  0  0  0  0  0  0
   -0.4981   -0.5713   -1.6397 N   0  0  0  0  0  0  0  0  0  0  0  0
   -1.6940   -0.3642   -0.8060 C   0  0  2  0  0  0  0  0  0  0  0  0
   -2.6755   -1.3835   -1.1386 C   0  0  0  0  0  0  0  0  0  0  0  0
   -2.7094   -1.7241   -2.3941 O   0  0  0  0  0  0  0  0  0  0  0  0
   -3.5939   -2.0592   -0.3357 N   0  0  0  0  0  0  0  0  0  0  0  0
   -4.6624   -2.7939   -1.0749 C   0  0  0  0  0  0  0  0  0  0  0  0
   -5.8939   -2.8057   -0.2260 C   0  0  0  0  0  0  0  0  0  0  0  0
   -6.9949   -3.4569   -0.7221 C   0  0  0  0  0  0  0  0  0  0  0  0
   -8.2049   -3.5145   -0.0140 C   0  0  0  0  0  0  0  0  0  0  0  0
   -8.2577   -2.8912    1.2097 C   0  0  0  0  0  0  0  0  0  0  0  0
   -7.1590   -2.2168    1.7565 C   0  0  0  0  0  0  0  0  0  0  0  0
   -6.0032   -2.2013    1.0030 C   0  0  0  0  0  0  0  0  0  0  0  0
   -4.8054   -1.4782    1.6251 C   0  0  0  0  0  0  0  0  0  0  0  0
   -3.6382   -2.2499    1.0848 C   0  0  2  0  0  0  0  0  0  0  0  0
   -2.4022   -2.2812    1.8271 C   0  0  0  0  0  0  0  0  0  0  0  0
   -1.2379   -2.4127    1.3586 O   0  0  0  0  0  0  0  0  0  0  0  0
   -2.4562   -2.1539    3.2696 N   0  0  0  0  0  0  0  0  0  0  0  0
   -2.2810    1.0209   -1.2954 C   0  0  0  0  0  0  0  0  0  0  0  0
   -3.5142    1.3793   -0.5229 C   0  0  0  0  0  0  0  0  0  0  0  0
   -4.0849    2.7189   -1.0202 C   0  0  0  0  0  0  0  0  0  0  0  0
   -3.0892    3.7464   -0.8678 N   0  0  0  0  0  0  0  0  0  0  0  0
   -3.1930    4.7155   -0.0461 C   0  0  0  0  0  0  0  0  0  0  0  0
   -4.2772    4.9407    0.8368 N   0  0  0  0  0  0  0  0  0  0  0  0
   -2.1241    5.6629   -0.0087 N   0  0  0  0  0  0  0  0  0  0  0  0
    2.2118   -0.1783   -2.9686 C   0  0  0  0  0  0  0  0  0  0  0  0
    2.3372    1.2635   -3.2755 C   0  0  0  0  0  0  0  0  0  0  0  0
    3.6334    1.7553   -3.3499 C   0  0  0  0  0  0  0  0  0  0  0  0
    3.8768    3.0885   -3.6356 C   0  0  0  0  0  0  0  0  0  0  0  0
    2.8352    3.9234   -3.8447 C   0  0  0  0  0  0  0  0  0  0  0  0
    1.5259    3.4721   -3.7787 C   0  0  0  0  0  0  0  0  0  0  0  0
    1.2823    2.1150   -3.4885 C   0  0  0  0  0  0  0  0  0  0  0  0
    6.0312    0.0481    0.3945 C   0  0  0  0  0  0  0  0  0  0  0  0
    7.0407    0.4715    1.3972 C   0  0  0  0  0  0  0  0  0  0  0  0
    7.1638    1.6893    2.0597 C   0  0  0  0  0  0  0  0  0  0  0  0
    8.2115    1.6603    2.8741 N   0  0  0  0  0  0  0  0  0  0  0  0
    8.7862    0.4449    2.7650 C   0  0  0  0  0  0  0  0  0  0  0  0
    8.0777   -0.2871    1.8651 N   0  0  0  0  0  0  0  0  0  0  0  0
    6.3768   -2.6249    4.8703 H   0  0  0  0  0  0  0  0  0  0  0  0
    6.6860   -3.4998    3.3532 H   0  0  0  0  0  0  0  0  0  0  0  0
    5.0893   -3.6788    4.2774 H   0  0  0  0  0  0  0  0  0  0  0  0
    5.7895   -2.5078    1.1907 H   0  0  0  0  0  0  0  0  0  0  0  0
    4.4296    0.1498    1.7931 H   0  0  0  0  0  0  0  0  0  0  0  0
    3.3146    0.8390   -0.5365 H   0  0  0  0  0  0  0  0  0  0  0  0
    2.1355   -1.7277   -1.5806 H   0  0  0  0  0  0  0  0  0  0  0  0
   -0.5093   -0.8310   -2.6272 H   0  0  0  0  0  0  0  0  0  0  0  0
   -1.4720   -0.1665    0.2209 H   0  0  0  0  0  0  0  0  0  0  0  0
   -4.2711   -3.7982   -1.2425 H   0  0  0  0  0  0  0  0  0  0  0  0
   -4.8556   -2.2771   -2.0431 H   0  0  0  0  0  0  0  0  0  0  0  0
   -6.9753   -3.9599   -1.7042 H   0  0  0  0  0  0  0  0  0  0  0  0
   -9.0736   -4.0244   -0.3932 H   0  0  0  0  0  0  0  0  0  0  0  0
   -9.1711   -2.8893    1.8212 H   0  0  0  0  0  0  0  0  0  0  0  0
   -7.2655   -1.7500    2.7228 H   0  0  0  0  0  0  0  0  0  0  0  0
   -4.8944   -1.5005    2.7204 H   0  0  0  0  0  0  0  0  0  0  0  0
   -4.8610   -0.4312    1.2728 H   0  0  0  0  0  0  0  0  0  0  0  0
   -4.0280   -3.3709    1.2427 H   0  0  0  0  0  0  0  0  0  0  0  0
   -2.8321   -1.3191    3.7460 H   0  0  0  0  0  0  0  0  0  0  0  0
   -2.0696   -3.0050    3.7925 H   0  0  0  0  0  0  0  0  0  0  0  0
   -2.5636    0.8487   -2.3491 H   0  0  0  0  0  0  0  0  0  0  0  0
   -1.4814    1.7605   -1.2968 H   0  0  0  0  0  0  0  0  0  0  0  0
   -3.3384    1.3565    0.5467 H   0  0  0  0  0  0  0  0  0  0  0  0
   -4.2833    0.6196   -0.7881 H   0  0  0  0  0  0  0  0  0  0  0  0
   -4.3884    2.5585   -2.0614 H   0  0  0  0  0  0  0  0  0  0  0  0
   -4.9564    3.0293   -0.4125 H   0  0  0  0  0  0  0  0  0  0  0  0
   -4.3220    4.3684    1.7090 H   0  0  0  0  0  0  0  0  0  0  0  0
   -5.0303    5.6620    0.6465 H   0  0  0  0  0  0  0  0  0  0  0  0
   -1.1845    5.3833    0.3999 H   0  0  0  0  0  0  0  0  0  0  0  0
   -2.2626    6.6364   -0.3831 H   0  0  0  0  0  0  0  0  0  0  0  0
    1.3436   -0.5461   -3.5450 H   0  0  0  0  0  0  0  0  0  0  0  0
    3.0771   -0.7702   -3.3933 H   0  0  0  0  0  0  0  0  0  0  0  0
    4.4879    1.0979   -3.1824 H   0  0  0  0  0  0  0  0  0  0  0  0
    4.9110    3.4256   -3.6848 H   0  0  0  0  0  0  0  0  0  0  0  0
    3.0115    4.9798   -4.0701 H   0  0  0  0  0  0  0  0  0  0  0  0
    0.7208    4.1620   -3.9512 H   0  0  0  0  0  0  0  0  0  0  0  0
    0.2813    1.7354   -3.4292 H   0  0  0  0  0  0  0  0  0  0  0  0
    6.5267   -0.6907   -0.2836 H   0  0  0  0  0  0  0  0  0  0  0  0
    5.7376    0.9699   -0.1517 H   0  0  0  0  0  0  0  0  0  0  0  0
    6.4540    2.4897    1.8687 H   0  0  0  0  0  0  0  0  0  0  0  0
    9.6717    0.0917    3.2985 H   0  0  0  0  0  0  0  0  0  0  0  0
    8.2418   -1.2509    1.5474 H   0  0  0  0  0  0  0  0  0  0  0  0
  1  2  1  0
  2  3  2  0
  2  4  1  0
  4  5  1  0
  5  6  1  0
  6  7  2  0
  6  8  1  0
  8  9  1  0
  9 10  1  0
 10 11  2  0
 10 12  1  0
 12 13  1  0
 13 14  1  0
 14 15  2  0
 14 16  1  0
 16 17  1  0
 17 18  1  0
 18 19  2  0
 19 20  1  0
 20 21  2  0
 21 22  1  0
 22 23  2  0
 23 24  1  0
 24 25  1  0
 25 26  1  0
 26 27  2  0
 26 28  1  0
 13 29  1  0
 29 30  1  0
 30 31  1  0
 31 32  1  0
 32 33  2  3
 33 34  1  0
 33 35  1  0
  9 36  1  0
 36 37  1  0
 37 38  2  0
 38 39  1  0
 39 40  2  0
 40 41  1  0
 41 42  2  0
  5 43  1  0
 43 44  1  0
 44 45  2  0
 45 46  1  0
 46 47  2  0
 47 48  1  0
 25 16  1  0
 42 37  1  0
 48 44  1  0
 23 18  1  0
  1 49  1  0
  1 50  1  0
  1 51  1  0
  4 52  1  0
  5 53  1  1
  8 54  1  0
  9 55  1  6
 12 56  1  0
 13 57  1  1
 17 58  1  0
 17 59  1  0
 19 60  1  0
 20 61  1  0
 21 62  1  0
 22 63  1  0
 24 64  1  0
 24 65  1  0
 25 66  1  6
 28 67  1  0
 28 68  1  0
 29 69  1  0
 29 70  1  0
 30 71  1  0
 30 72  1  0
 31 73  1  0
 31 74  1  0
 34 75  1  0
 34 76  1  0
 35 77  1  0
 35 78  1  0
 36 79  1  0
 36 80  1  0
 38 81  1  0
 39 82  1  0
 40 83  1  0
 41 84  1  0
 42 85  1  0
 43 86  1  0
 43 87  1  0
 45 88  1  0
 47 89  1  0
 48 90  1  0
M  END
>  <Ligand ID>  (1) 
LIG0001436

>  <Ligand>  (1) 
CHEMBL2096745

>  <SMILES>  (1) 
CC(=O)N[C@H](C(=O)N[C@@H](C(=O)N[C@H](C(=O)N1Cc2ccccc2C[C@@H]1C(=O)N)CCCN=C(N)N)Cc1ccccc1)Cc1cnc[nH]1

>  <CID>  (1) 
10897631.0

>  <ChEMBL ID>  (1) 
nan

>  <InChiKey>  (1) 
MNPGXWWVUBHRNN-ZVBOOHQUSA-N

>  <InChi>  (1) 
InChI=1S/C33H42N10O5/c1-20(44)40-27(16-24-17-37-19-39-24)31(47)42-26(14-21-8-3-2-4-9-21)30(46)41-25(12-7-13-38-33(35)36)32(48)43-18-23-11-6-5-10-22(23)15-28(43)29(34)45/h2-6,8-11,17,19,25-28H,7,12-16,18H2,1H3,(H2,34,45)(H,37,39)(H,40,44)(H,41,46)(H,42,47)(H4,35,36,38)/t25-,26+,27-,28+/m0/s1

>  <IUPAC Name>  (1) 
(3R)-2-[(2S)-2-[[(2R)-2-[[(2S)-2-acetamido-3-(1H-imidazol-5-yl)propanoyl]amino]-3-phenylpropanoyl]amino]-5-(diaminomethylideneamino)pentanoyl]-3,4-dihydro-1H-isoquinoline-3-carboxamide

$$$$
