
     RDKit          3D

 81 80  0  0  0  0  0  0  0  0999 V2000
  -13.0908   -0.2822    0.1753 C   0  0  0  0  0  0  0  0  0  0  0  0
  -11.8127    0.2043    0.8601 C   0  0  0  0  0  0  0  0  0  0  0  0
  -11.1818    1.3583    0.1008 C   0  0  0  0  0  0  0  0  0  0  0  0
   -9.9214    1.8419    0.7675 C   0  0  0  0  0  0  0  0  0  0  0  0
   -8.8713    0.7625    0.8676 C   0  0  0  0  0  0  0  0  0  0  0  0
   -8.4603    0.2320   -0.4765 C   0  0  0  0  0  0  0  0  0  0  0  0
   -7.4198   -0.8377   -0.2848 C   0  0  0  0  0  0  0  0  0  0  0  0
   -6.1691   -0.3549    0.4135 C   0  0  0  0  0  0  0  0  0  0  0  0
   -5.2592   -1.4948    0.5230 C   0  0  0  0  0  0  0  0  0  0  0  0
   -4.0467   -1.5942    0.0174 C   0  0  0  0  0  0  0  0  0  0  0  0
   -3.3621   -0.5425   -0.7768 C   0  0  0  0  0  0  0  0  0  0  0  0
   -2.1070   -0.1426   -0.0776 C   0  0  0  0  0  0  0  0  0  0  0  0
   -1.3102    0.9165   -0.7674 C   0  0  0  0  0  0  0  0  0  0  0  0
   -0.8384    0.5917   -2.1240 C   0  0  0  0  0  0  0  0  0  0  0  0
    0.0452   -0.5790   -2.2788 C   0  0  0  0  0  0  0  0  0  0  0  0
    1.3273   -0.5501   -1.5389 C   0  0  0  0  0  0  0  0  0  0  0  0
    2.2059    0.6161   -1.9341 C   0  0  0  0  0  0  0  0  0  0  0  0
    3.4867    0.6277   -1.1818 C   0  0  0  0  0  0  0  0  0  0  0  0
    4.3387    1.5315   -1.3783 O   0  0  0  0  0  0  0  0  0  0  0  0
    3.6911   -0.3918   -0.2675 O   0  0  0  0  0  0  0  0  0  0  0  0
    4.8509   -0.5281    0.5268 C   0  0  0  0  0  0  0  0  0  0  0  0
    6.0727   -0.6799   -0.3553 C   0  0  1  0  0  0  0  0  0  0  0  0
    7.3107   -0.9594    0.4747 C   0  0  0  0  0  0  0  0  0  0  0  0
    8.3784   -1.1774   -0.3881 O   0  0  0  0  0  0  0  0  0  0  0  0
    9.7578   -1.5558    0.4818 P   0  0  0  0  0  0  0  0  0  0  0  0
   10.7227   -2.3537   -0.3822 O   0  0  0  0  0  0  0  0  0  0  0  0
   10.5288   -0.1618    0.9842 O   0  0  0  0  0  0  0  0  0  0  0  0
   11.9123   -0.3272    1.0635 C   0  0  0  0  0  0  0  0  0  0  0  0
   12.5323    0.9915    1.5413 C   0  0  1  0  0  0  0  0  0  0  0  0
   12.2311    2.0795    0.5773 C   0  0  0  0  0  0  0  0  0  0  0  0
   11.6371    3.1169    0.9077 O   0  0  0  0  0  0  0  0  0  0  0  0
   12.6275    1.9325   -0.7420 O   0  0  0  0  0  0  0  0  0  0  0  0
   12.0263    1.3723    2.8454 N   0  0  0  0  0  0  0  0  0  0  0  0
    9.3013   -2.5199    1.8104 O   0  0  0  0  0  0  0  0  0  0  0  0
    5.8824   -1.8291   -1.1464 O   0  0  0  0  0  0  0  0  0  0  0  0
  -13.0703   -1.4050    0.1714 H   0  0  0  0  0  0  0  0  0  0  0  0
  -14.0031   -0.0034    0.7025 H   0  0  0  0  0  0  0  0  0  0  0  0
  -13.1320    0.1027   -0.8508 H   0  0  0  0  0  0  0  0  0  0  0  0
  -12.1364    0.5152    1.8741 H   0  0  0  0  0  0  0  0  0  0  0  0
  -11.1104   -0.6458    0.9971 H   0  0  0  0  0  0  0  0  0  0  0  0
  -11.0653    1.1226   -0.9722 H   0  0  0  0  0  0  0  0  0  0  0  0
  -11.9079    2.1990    0.1417 H   0  0  0  0  0  0  0  0  0  0  0  0
   -9.5729    2.7434    0.2676 H   0  0  0  0  0  0  0  0  0  0  0  0
  -10.2102    2.1175    1.8042 H   0  0  0  0  0  0  0  0  0  0  0  0
   -7.9785    1.2606    1.3178 H   0  0  0  0  0  0  0  0  0  0  0  0
   -9.1865   -0.0251    1.5656 H   0  0  0  0  0  0  0  0  0  0  0  0
   -9.2905   -0.2343   -1.0313 H   0  0  0  0  0  0  0  0  0  0  0  0
   -8.0279    0.9915   -1.1325 H   0  0  0  0  0  0  0  0  0  0  0  0
   -7.8164   -1.6734    0.3454 H   0  0  0  0  0  0  0  0  0  0  0  0
   -7.1446   -1.2822   -1.2632 H   0  0  0  0  0  0  0  0  0  0  0  0
   -6.5095   -0.1328    1.4720 H   0  0  0  0  0  0  0  0  0  0  0  0
   -5.7629    0.5807    0.0476 H   0  0  0  0  0  0  0  0  0  0  0  0
   -5.6206   -2.3704    1.0899 H   0  0  0  0  0  0  0  0  0  0  0  0
   -3.4631   -2.5195    0.1766 H   0  0  0  0  0  0  0  0  0  0  0  0
   -3.0413   -1.0797   -1.7200 H   0  0  0  0  0  0  0  0  0  0  0  0
   -4.0636    0.2544   -0.9869 H   0  0  0  0  0  0  0  0  0  0  0  0
   -2.3700    0.1752    0.9527 H   0  0  0  0  0  0  0  0  0  0  0  0
   -1.4763   -1.0470    0.0525 H   0  0  0  0  0  0  0  0  0  0  0  0
   -0.5155    1.2883   -0.0882 H   0  0  0  0  0  0  0  0  0  0  0  0
   -2.0141    1.7957   -0.8787 H   0  0  0  0  0  0  0  0  0  0  0  0
   -1.7026    0.5088   -2.8148 H   0  0  0  0  0  0  0  0  0  0  0  0
   -0.2921    1.5014   -2.4956 H   0  0  0  0  0  0  0  0  0  0  0  0
    0.3215   -0.6361   -3.3743 H   0  0  0  0  0  0  0  0  0  0  0  0
   -0.5346   -1.5103   -2.1225 H   0  0  0  0  0  0  0  0  0  0  0  0
    1.2435   -0.5963   -0.4450 H   0  0  0  0  0  0  0  0  0  0  0  0
    1.8960   -1.4662   -1.8306 H   0  0  0  0  0  0  0  0  0  0  0  0
    1.6930    1.5755   -1.7189 H   0  0  0  0  0  0  0  0  0  0  0  0
    2.4430    0.6259   -3.0044 H   0  0  0  0  0  0  0  0  0  0  0  0
    4.6995   -1.3922    1.1811 H   0  0  0  0  0  0  0  0  0  0  0  0
    4.9633    0.3985    1.1325 H   0  0  0  0  0  0  0  0  0  0  0  0
    6.2123    0.1967   -0.9978 H   0  0  0  0  0  0  0  0  0  0  0  0
    7.1570   -1.8252    1.1227 H   0  0  0  0  0  0  0  0  0  0  0  0
    7.4906   -0.0793    1.1303 H   0  0  0  0  0  0  0  0  0  0  0  0
   12.2157   -1.1577    1.7193 H   0  0  0  0  0  0  0  0  0  0  0  0
   12.2735   -0.4889    0.0332 H   0  0  0  0  0  0  0  0  0  0  0  0
   13.6319    0.8117    1.6327 H   0  0  0  0  0  0  0  0  0  0  0  0
   12.6284    2.7717   -1.3373 H   0  0  0  0  0  0  0  0  0  0  0  0
   11.0945    1.7868    2.7196 H   0  0  0  0  0  0  0  0  0  0  0  0
   12.0365    0.5608    3.5070 H   0  0  0  0  0  0  0  0  0  0  0  0
    8.9176   -1.9115    2.4748 H   0  0  0  0  0  0  0  0  0  0  0  0
    5.0853   -1.7150   -1.7204 H   0  0  0  0  0  0  0  0  0  0  0  0
  1  2  1  0
  2  3  1  0
  3  4  1  0
  4  5  1  0
  5  6  1  0
  6  7  1  0
  7  8  1  0
  8  9  1  0
  9 10  2  0
 10 11  1  0
 11 12  1  0
 12 13  1  0
 13 14  1  0
 14 15  1  0
 15 16  1  0
 16 17  1  0
 17 18  1  0
 18 19  2  0
 18 20  1  0
 20 21  1  0
 21 22  1  0
 22 23  1  0
 23 24  1  0
 24 25  1  0
 25 26  2  0
 25 27  1  0
 27 28  1  0
 28 29  1  0
 29 30  1  0
 30 31  2  0
 30 32  1  0
 29 33  1  0
 25 34  1  0
 22 35  1  0
  1 36  1  0
  1 37  1  0
  1 38  1  0
  2 39  1  0
  2 40  1  0
  3 41  1  0
  3 42  1  0
  4 43  1  0
  4 44  1  0
  5 45  1  0
  5 46  1  0
  6 47  1  0
  6 48  1  0
  7 49  1  0
  7 50  1  0
  8 51  1  0
  8 52  1  0
  9 53  1  0
 10 54  1  0
 11 55  1  0
 11 56  1  0
 12 57  1  0
 12 58  1  0
 13 59  1  0
 13 60  1  0
 14 61  1  0
 14 62  1  0
 15 63  1  0
 15 64  1  0
 16 65  1  0
 16 66  1  0
 17 67  1  0
 17 68  1  0
 21 69  1  0
 21 70  1  0
 22 71  1  6
 23 72  1  0
 23 73  1  0
 28 74  1  0
 28 75  1  0
 29 76  1  1
 32 77  1  0
 33 78  1  0
 33 79  1  0
 34 80  1  0
 35 81  1  0
M  END
>  <Ligand ID>  (1) 
LIG0004226

>  <Ligand>  (1) 
CHEMBL3577138

>  <SMILES>  (1) 
CCCCCCCC/C=C\CCCCCCCC(=O)OC[C@@H](COP(=O)(OC[C@@H](C(=O)O)N)O)O

>  <CID>  (1) 
122177490.0

>  <ChEMBL ID>  (1) 
nan

>  <InChiKey>  (1) 
JZWNYZVVZXZRRH-QXLPFXRRSA-N

>  <InChi>  (1) 
InChI=1S/C24H46NO9P/c1-2-3-4-5-6-7-8-9-10-11-12-13-14-15-16-17-23(27)32-18-21(26)19-33-35(30,31)34-20-22(25)24(28)29/h9-10,21-22,26H,2-8,11-20,25H2,1H3,(H,28,29)(H,30,31)/b10-9-/t21-,22-/m0/s1

>  <IUPAC Name>  (1) 
(2S)-2-amino-3-[hydroxy-[(2S)-2-hydroxy-3-[(Z)-octadec-9-enoyl]oxypropoxy]phosphoryl]oxypropanoic acid

$$$$
