
     RDKit          3D

 27 29  0  0  0  0  0  0  0  0999 V2000
    0.9163   -2.7753    1.4852 Cl  0  0  0  0  0  0  0  0  0  0  0  0
    1.2223   -1.2310    0.6868 C   0  0  0  0  0  0  0  0  0  0  0  0
    0.1223   -0.4289    0.3545 C   0  0  0  0  0  0  0  0  0  0  0  0
    0.4233    0.7601   -0.2646 C   0  0  0  0  0  0  0  0  0  0  0  0
    1.7247    1.1566   -0.5496 C   0  0  0  0  0  0  0  0  0  0  0  0
    2.7840    0.3507   -0.2126 C   0  0  0  0  0  0  0  0  0  0  0  0
    2.5155   -0.8406    0.4055 C   0  0  0  0  0  0  0  0  0  0  0  0
    3.5396   -1.6434    0.7432 N   0  0  0  0  0  0  0  0  0  0  0  0
    4.8314   -1.3430    0.5074 C   0  0  0  0  0  0  0  0  0  0  0  0
    5.0634   -0.1188   -0.1249 C   0  0  0  0  0  0  0  0  0  0  0  0
    4.0551    0.7044   -0.4739 N   0  0  0  0  0  0  0  0  0  0  0  0
   -1.1989   -0.8573    0.6527 N   0  0  0  0  0  0  0  0  0  0  0  0
   -2.3575   -0.1016    0.3720 C   0  0  0  0  0  0  0  0  0  0  0  0
   -2.4139    1.1797    0.5283 N   0  0  0  0  0  0  0  0  0  0  0  0
   -3.7300    1.6673    0.1588 C   0  0  0  0  0  0  0  0  0  0  0  0
   -4.3526    0.5156   -0.6263 C   0  0  0  0  0  0  0  0  0  0  0  0
   -3.5950   -0.6105   -0.1057 N   0  0  0  0  0  0  0  0  0  0  0  0
   -0.3525    1.4368   -0.5578 H   0  0  0  0  0  0  0  0  0  0  0  0
    1.9011    2.1203   -1.0469 H   0  0  0  0  0  0  0  0  0  0  0  0
    5.6380   -2.0078    0.7898 H   0  0  0  0  0  0  0  0  0  0  0  0
    6.1090    0.1077   -0.3074 H   0  0  0  0  0  0  0  0  0  0  0  0
   -1.3084   -1.8077    1.1133 H   0  0  0  0  0  0  0  0  0  0  0  0
   -4.3647    1.8748    1.0666 H   0  0  0  0  0  0  0  0  0  0  0  0
   -3.6920    2.5330   -0.5268 H   0  0  0  0  0  0  0  0  0  0  0  0
   -4.1888    0.5885   -1.6995 H   0  0  0  0  0  0  0  0  0  0  0  0
   -5.4104    0.4045   -0.3176 H   0  0  0  0  0  0  0  0  0  0  0  0
   -3.8811   -1.6341   -0.0722 H   0  0  0  0  0  0  0  0  0  0  0  0
  1  2  1  0
  2  3  2  0
  3  4  1  0
  4  5  2  0
  5  6  1  0
  6  7  2  0
  7  8  1  0
  8  9  2  0
  9 10  1  0
 10 11  2  0
  3 12  1  0
 12 13  1  0
 13 14  2  0
 14 15  1  0
 15 16  1  0
 16 17  1  0
  7  2  1  0
 17 13  1  0
 11  6  1  0
  4 18  1  0
  5 19  1  0
  9 20  1  0
 10 21  1  0
 12 22  1  0
 15 23  1  0
 15 24  1  0
 16 25  1  0
 16 26  1  0
 17 27  1  0
M  END
>  <Ligand ID>  (1) 
LIG0003206

>  <Ligand>  (1) 
UK 14819

>  <SMILES>  (1) 
Clc1c(ccc2c1nccn2)NC1=NCCN1

>  <CID>  (1) 
3086326.0

>  <ChEMBL ID>  (1) 
nan

>  <InChiKey>  (1) 
VJQWCCBDYLTRPZ-UHFFFAOYSA-N

>  <InChi>  (1) 
InChI=1S/C11H10ClN5/c12-9-7(17-11-15-5-6-16-11)1-2-8-10(9)14-4-3-13-8/h1-4H,5-6H2,(H2,15,16,17)

>  <IUPAC Name>  (1) 
5-chloro-N-(4,5-dihydro-1H-imidazol-2-yl)quinoxalin-6-amine

$$$$
