
     RDKit          3D

110114  0  0  0  0  0  0  0  0999 V2000
    5.6800    0.0513   -0.1194 O   0  0  0  0  0  0  0  0  0  0  0  0
    5.5031   -0.5490    0.9735 C   0  0  0  0  0  0  0  0  0  0  0  0
    4.4438   -1.5384    0.9436 N   0  0  0  0  0  0  0  0  0  0  0  0
    3.7542   -1.6578   -0.3134 C   0  0  2  0  0  0  0  0  0  0  0  0
    2.4572   -2.3595   -0.2309 C   0  0  0  0  0  0  0  0  0  0  0  0
    2.1716   -2.9536    0.8579 O   0  0  0  0  0  0  0  0  0  0  0  0
    1.5707   -2.3635   -1.3370 N   0  0  0  0  0  0  0  0  0  0  0  0
    0.3178   -3.0233   -1.3966 C   0  0  1  0  0  0  0  0  0  0  0  0
   -0.8657   -2.3132   -0.9412 C   0  0  0  0  0  0  0  0  0  0  0  0
   -1.9844   -2.9377   -1.0593 O   0  0  0  0  0  0  0  0  0  0  0  0
   -0.9375   -1.0185   -0.3782 N   0  0  0  0  0  0  0  0  0  0  0  0
   -2.2482   -0.5480    0.0131 C   0  0  2  0  0  0  0  0  0  0  0  0
   -2.5776    0.7925   -0.5439 C   0  0  0  0  0  0  0  0  0  0  0  0
   -1.7835    1.4826   -1.2236 O   0  0  0  0  0  0  0  0  0  0  0  0
   -3.9142    1.2351   -0.2284 N   0  0  0  0  0  0  0  0  0  0  0  0
   -4.4169    2.5476   -0.6939 C   0  0  1  0  0  0  0  0  0  0  0  0
   -5.4781    2.2693   -1.6516 C   0  0  0  0  0  0  0  0  0  0  0  0
   -5.8652    1.0509   -1.7528 O   0  0  0  0  0  0  0  0  0  0  0  0
   -6.1340    3.1897   -2.4947 N   0  0  0  0  0  0  0  0  0  0  0  0
   -4.8863    3.3321    0.4862 C   0  0  0  0  0  0  0  0  0  0  0  0
   -5.4562    4.6502    0.2080 C   0  0  0  0  0  0  0  0  0  0  0  0
   -4.7200    5.8425    0.1700 C   0  0  0  0  0  0  0  0  0  0  0  0
   -5.5400    6.8662   -0.1449 N   0  0  0  0  0  0  0  0  0  0  0  0
   -6.8090    6.4013   -0.3203 C   0  0  0  0  0  0  0  0  0  0  0  0
   -6.7457    5.0434   -0.1017 C   0  0  0  0  0  0  0  0  0  0  0  0
   -7.9267    4.3402   -0.1997 C   0  0  0  0  0  0  0  0  0  0  0  0
   -9.1414    4.9160   -0.4999 C   0  0  0  0  0  0  0  0  0  0  0  0
   -9.1957    6.2980   -0.7221 C   0  0  0  0  0  0  0  0  0  0  0  0
   -8.0181    7.0105   -0.6258 C   0  0  0  0  0  0  0  0  0  0  0  0
   -2.3422   -0.5038    1.5503 C   0  0  0  0  0  0  0  0  0  0  0  0
   -2.0963   -1.9315    2.0677 C   0  0  0  0  0  0  0  0  0  0  0  0
   -2.1910   -1.9456    3.5519 C   0  0  0  0  0  0  0  0  0  0  0  0
   -1.9545   -3.1974    4.1694 N   0  0  0  0  0  0  0  0  0  0  0  0
   -2.1487   -4.3740    3.7362 C   0  0  0  0  0  0  0  0  0  0  0  0
   -1.7936   -5.4491    4.6333 N   0  0  0  0  0  0  0  0  0  0  0  0
   -2.6726   -4.7351    2.4765 N   0  0  0  0  0  0  0  0  0  0  0  0
    0.0282   -3.7337   -2.6703 C   0  0  0  0  0  0  0  0  0  0  0  0
    0.0205   -2.8573   -3.8623 C   0  0  0  0  0  0  0  0  0  0  0  0
   -1.1104   -2.2286   -4.3478 C   0  0  0  0  0  0  0  0  0  0  0  0
   -1.0458   -1.3993   -5.4793 C   0  0  0  0  0  0  0  0  0  0  0  0
    0.2014   -1.2393   -6.0873 C   0  0  0  0  0  0  0  0  0  0  0  0
    1.3267   -1.8511   -5.6225 C   0  0  0  0  0  0  0  0  0  0  0  0
    1.2574   -2.6752   -4.4967 C   0  0  0  0  0  0  0  0  0  0  0  0
    4.5795   -2.5411   -1.2893 C   0  0  0  0  0  0  0  0  0  0  0  0
    4.7996   -3.9023   -0.8075 C   0  0  0  0  0  0  0  0  0  0  0  0
    4.3509   -4.9803   -1.4961 C   0  0  0  0  0  0  0  0  0  0  0  0
    4.6920   -6.1665   -0.8267 N   0  0  0  0  0  0  0  0  0  0  0  0
    5.3345   -5.9334    0.2515 C   0  0  0  0  0  0  0  0  0  0  0  0
    5.4791   -4.4435    0.3895 C   0  0  0  0  0  0  0  0  0  0  0  0
    6.2721   -0.3095    2.2016 C   0  0  0  0  0  0  0  0  0  0  0  0
    7.4640    0.5414    1.9997 C   0  0  0  0  0  0  0  0  0  0  0  0
    7.2822    1.9012    1.4465 C   0  0  0  0  0  0  0  0  0  0  0  0
    6.4315    2.8200    2.2141 C   0  0  0  0  0  0  0  0  0  0  0  0
    5.0480    2.8865    1.9995 C   0  0  0  0  0  0  0  0  0  0  0  0
    4.2383    3.7488    2.6987 C   0  0  0  0  0  0  0  0  0  0  0  0
    4.7554    4.5888    3.6450 C   0  0  0  0  0  0  0  0  0  0  0  0
    6.1052    4.5532    3.8844 C   0  0  0  0  0  0  0  0  0  0  0  0
    6.9205    3.6880    3.1834 C   0  0  0  0  0  0  0  0  0  0  0  0
    4.2588   -2.0600    1.8051 H   0  0  0  0  0  0  0  0  0  0  0  0
    3.7424   -0.6879   -0.8071 H   0  0  0  0  0  0  0  0  0  0  0  0
    1.8837   -1.8189   -2.1820 H   0  0  0  0  0  0  0  0  0  0  0  0
    0.4239   -3.8661   -0.6112 H   0  0  0  0  0  0  0  0  0  0  0  0
   -0.0713   -0.4844   -0.2760 H   0  0  0  0  0  0  0  0  0  0  0  0
   -3.0589   -1.2351   -0.2962 H   0  0  0  0  0  0  0  0  0  0  0  0
   -4.5742    0.6499    0.3363 H   0  0  0  0  0  0  0  0  0  0  0  0
   -3.5628    3.0900   -1.1796 H   0  0  0  0  0  0  0  0  0  0  0  0
   -7.1518    3.1457   -2.7379 H   0  0  0  0  0  0  0  0  0  0  0  0
   -5.6211    4.0048   -2.9466 H   0  0  0  0  0  0  0  0  0  0  0  0
   -4.0776    3.3937    1.2790 H   0  0  0  0  0  0  0  0  0  0  0  0
   -5.6970    2.7478    1.0398 H   0  0  0  0  0  0  0  0  0  0  0  0
   -3.6661    5.9852    0.3520 H   0  0  0  0  0  0  0  0  0  0  0  0
   -5.2323    7.8750   -0.2375 H   0  0  0  0  0  0  0  0  0  0  0  0
   -7.8795    3.2551   -0.0254 H   0  0  0  0  0  0  0  0  0  0  0  0
  -10.0678    4.3300   -0.5706 H   0  0  0  0  0  0  0  0  0  0  0  0
  -10.1507    6.7228   -0.9548 H   0  0  0  0  0  0  0  0  0  0  0  0
   -8.0570    8.0915   -0.8016 H   0  0  0  0  0  0  0  0  0  0  0  0
   -1.6133    0.1894    1.9694 H   0  0  0  0  0  0  0  0  0  0  0  0
   -3.3847   -0.2602    1.8024 H   0  0  0  0  0  0  0  0  0  0  0  0
   -2.8252   -2.5844    1.5516 H   0  0  0  0  0  0  0  0  0  0  0  0
   -1.0851   -2.2517    1.7345 H   0  0  0  0  0  0  0  0  0  0  0  0
   -3.2470   -1.6510    3.8123 H   0  0  0  0  0  0  0  0  0  0  0  0
   -1.5464   -1.1618    4.0012 H   0  0  0  0  0  0  0  0  0  0  0  0
   -2.1187   -6.4324    4.4662 H   0  0  0  0  0  0  0  0  0  0  0  0
   -1.1944   -5.2735    5.4859 H   0  0  0  0  0  0  0  0  0  0  0  0
   -2.0759   -4.8542    1.6241 H   0  0  0  0  0  0  0  0  0  0  0  0
   -3.7145   -4.8853    2.4114 H   0  0  0  0  0  0  0  0  0  0  0  0
   -1.0413   -4.1013   -2.5791 H   0  0  0  0  0  0  0  0  0  0  0  0
    0.6058   -4.6397   -2.8720 H   0  0  0  0  0  0  0  0  0  0  0  0
   -2.0618   -2.3772   -3.8471 H   0  0  0  0  0  0  0  0  0  0  0  0
   -1.9345   -0.9038   -5.8670 H   0  0  0  0  0  0  0  0  0  0  0  0
    0.3123   -0.6067   -6.9673 H   0  0  0  0  0  0  0  0  0  0  0  0
    2.2934   -1.7250   -6.0963 H   0  0  0  0  0  0  0  0  0  0  0  0
    2.1604   -3.1421   -4.1567 H   0  0  0  0  0  0  0  0  0  0  0  0
    3.9797   -2.5479   -2.2181 H   0  0  0  0  0  0  0  0  0  0  0  0
    5.5251   -2.0083   -1.5392 H   0  0  0  0  0  0  0  0  0  0  0  0
    3.8019   -4.9674   -2.4350 H   0  0  0  0  0  0  0  0  0  0  0  0
    5.6897   -6.7084    0.9102 H   0  0  0  0  0  0  0  0  0  0  0  0
    6.5518   -4.1596    0.3300 H   0  0  0  0  0  0  0  0  0  0  0  0
    5.0280   -4.1849    1.3463 H   0  0  0  0  0  0  0  0  0  0  0  0
    5.5938    0.1483    2.9803 H   0  0  0  0  0  0  0  0  0  0  0  0
    6.5210   -1.3119    2.6369 H   0  0  0  0  0  0  0  0  0  0  0  0
    7.9910    0.5785    3.0084 H   0  0  0  0  0  0  0  0  0  0  0  0
    8.1633    0.0014    1.2932 H   0  0  0  0  0  0  0  0  0  0  0  0
    8.3185    2.3753    1.4692 H   0  0  0  0  0  0  0  0  0  0  0  0
    6.9442    1.8385    0.3878 H   0  0  0  0  0  0  0  0  0  0  0  0
    4.6115    2.2192    1.2444 H   0  0  0  0  0  0  0  0  0  0  0  0
    3.1674    3.7875    2.5240 H   0  0  0  0  0  0  0  0  0  0  0  0
    4.0835    5.2607    4.1834 H   0  0  0  0  0  0  0  0  0  0  0  0
    6.5732    5.1832    4.6089 H   0  0  0  0  0  0  0  0  0  0  0  0
    8.0011    3.6309    3.3440 H   0  0  0  0  0  0  0  0  0  0  0  0
  1  2  2  0
  2  3  1  0
  3  4  1  0
  4  5  1  0
  5  6  2  0
  5  7  1  0
  7  8  1  0
  8  9  1  0
  9 10  2  0
  9 11  1  0
 11 12  1  0
 12 13  1  0
 13 14  2  0
 13 15  1  0
 15 16  1  0
 16 17  1  0
 17 18  2  0
 17 19  1  0
 16 20  1  0
 20 21  1  0
 21 22  2  0
 22 23  1  0
 23 24  1  0
 24 25  2  0
 25 26  1  0
 26 27  2  0
 27 28  1  0
 28 29  2  0
 12 30  1  0
 30 31  1  0
 31 32  1  0
 32 33  1  0
 33 34  2  3
 34 35  1  0
 34 36  1  0
  8 37  1  0
 37 38  1  0
 38 39  2  0
 39 40  1  0
 40 41  2  0
 41 42  1  0
 42 43  2  0
  4 44  1  0
 44 45  1  0
 45 46  2  0
 46 47  1  0
 47 48  2  0
 48 49  1  0
  2 50  1  0
 50 51  1  0
 51 52  1  0
 52 53  1  0
 53 54  2  0
 54 55  1  0
 55 56  2  0
 56 57  1  0
 57 58  2  0
 25 21  1  0
 43 38  1  0
 49 45  1  0
 58 53  1  0
 29 24  1  0
  3 59  1  0
  4 60  1  6
  7 61  1  0
  8 62  1  1
 11 63  1  0
 12 64  1  6
 15 65  1  0
 16 66  1  6
 19 67  1  0
 19 68  1  0
 20 69  1  0
 20 70  1  0
 22 71  1  0
 23 72  1  0
 26 73  1  0
 27 74  1  0
 28 75  1  0
 29 76  1  0
 30 77  1  0
 30 78  1  0
 31 79  1  0
 31 80  1  0
 32 81  1  0
 32 82  1  0
 35 83  1  0
 35 84  1  0
 36 85  1  0
 36 86  1  0
 37 87  1  0
 37 88  1  0
 39 89  1  0
 40 90  1  0
 41 91  1  0
 42 92  1  0
 43 93  1  0
 44 94  1  0
 44 95  1  0
 46 96  1  0
 48 97  1  0
 49 98  1  0
 49 99  1  0
 50100  1  0
 50101  1  0
 51102  1  0
 51103  1  0
 52104  1  0
 52105  1  0
 54106  1  0
 55107  1  0
 56108  1  0
 57109  1  0
 58110  1  0
M  END
>  <Ligand ID>  (1) 
LIG0000845

>  <Ligand>  (1) 
CID 45487403

>  <SMILES>  (1) 
O=C(N[C@H](C(=O)N[C@@H](C(=O)N[C@H](C(=O)N[C@@H](C(=O)N)Cc1c[nH]c2c1cccc2)CCCN=C(N)N)Cc1ccccc1)CC1=CN=CC1)CCCc1ccccc1

>  <CID>  (1) 
45487403.0

>  <ChEMBL ID>  (1) 
nan

>  <InChiKey>  (1) 
JYATZOPCEQVXLS-TWHRXLCVSA-N

>  <InChi>  (1) 
InChI=1S/C43H52N10O5/c44-39(55)35(25-31-27-49-33-17-8-7-16-32(31)33)52-40(56)34(18-10-21-48-43(45)46)51-42(58)37(23-29-13-5-2-6-14-29)53-41(57)36(24-30-20-22-47-26-30)50-38(54)19-9-15-28-11-3-1-4-12-28/h1-8,11-14,16-17,22,26-27,34-37,49H,9-10,15,18-21,23-25H2,(H2,44,55)(H,50,54)(H,51,58)(H,52,56)(H,53,57)(H4,45,46,48)/t34-,35+,36-,37+/m0/s1

>  <IUPAC Name>  (1) 
(2S)-N-[(2R)-1-amino-3-(1H-indol-3-yl)-1-oxopropan-2-yl]-5-(diaminomethylideneamino)-2-[[(2R)-3-phenyl-2-[[(2S)-2-(4-phenylbutanoylamino)-3-(3H-pyrrol-4-yl)propanoyl]amino]propanoyl]amino]pentanamide

$$$$
