
     RDKit          3D

 89 91  0  0  0  0  0  0  0  0999 V2000
    8.2116    2.7729    2.0124 O   0  0  0  0  0  0  0  0  0  0  0  0
    7.9158    1.5879    2.6794 C   0  0  0  0  0  0  0  0  0  0  0  0
    7.8233    0.4975    1.6747 C   0  0  0  0  0  0  0  0  0  0  0  0
    6.5890    0.0028    1.2848 C   0  0  0  0  0  0  0  0  0  0  0  0
    6.4896   -1.0025    0.3614 C   0  0  0  0  0  0  0  0  0  0  0  0
    7.6947   -1.4888   -0.1535 C   0  0  0  0  0  0  0  0  0  0  0  0
    8.9149   -1.0035    0.2284 C   0  0  0  0  0  0  0  0  0  0  0  0
    9.0000    0.0070    1.1574 C   0  0  0  0  0  0  0  0  0  0  0  0
   10.2354    0.4972    1.5429 O   0  0  0  0  0  0  0  0  0  0  0  0
    5.2184   -1.5895   -0.1048 C   0  0  2  0  0  0  0  0  0  0  0  0
    4.5536   -0.5389   -1.0295 C   0  0  0  0  0  0  0  0  0  0  0  0
    5.4319   -0.2468   -2.0634 N   0  0  0  0  0  0  0  0  0  0  0  0
    5.1667    0.6451   -3.0929 C   0  0  0  0  0  0  0  0  0  0  0  0
    4.2151    0.2285   -4.1297 C   0  0  0  0  0  0  0  0  0  0  0  0
    2.8404   -0.0817   -3.6678 C   0  0  0  0  0  0  0  0  0  0  0  0
    2.1468    1.0420   -2.9503 C   0  0  0  0  0  0  0  0  0  0  0  0
    0.7429    0.6544   -2.5081 C   0  0  0  0  0  0  0  0  0  0  0  0
    0.7060   -0.4922   -1.5539 C   0  0  0  0  0  0  0  0  0  0  0  0
   -0.6246   -0.7636   -1.1965 O   0  0  0  0  0  0  0  0  0  0  0  0
   -0.7380   -1.8691   -0.4211 C   0  0  0  0  0  0  0  0  0  0  0  0
   -0.1305   -1.9809    0.8983 C   0  0  0  0  0  0  0  0  0  0  0  0
   -0.4891   -1.2321    2.0777 C   0  0  0  0  0  0  0  0  0  0  0  0
   -0.4356    0.2189    2.2780 C   0  0  0  0  0  0  0  0  0  0  0  0
   -1.2630    1.0974    1.4588 C   0  0  0  0  0  0  0  0  0  0  0  0
   -0.8642    1.8533    0.3909 C   0  0  0  0  0  0  0  0  0  0  0  0
   -1.7223    2.6526   -0.3487 C   0  0  0  0  0  0  0  0  0  0  0  0
   -3.0655    2.7195   -0.0224 C   0  0  0  0  0  0  0  0  0  0  0  0
   -3.4928    1.9683    1.0497 C   0  0  0  0  0  0  0  0  0  0  0  0
   -2.6259    1.1714    1.7831 C   0  0  0  0  0  0  0  0  0  0  0  0
   -4.8676    1.9520    1.4785 N   0  0  0  0  0  0  0  0  0  0  0  0
   -5.6727    0.9248    0.8825 C   0  0  0  0  0  0  0  0  0  0  0  0
   -5.1804    0.1228    0.0564 O   0  0  0  0  0  0  0  0  0  0  0  0
   -7.0303    0.7937    1.2116 N   0  0  0  0  0  0  0  0  0  0  0  0
   -7.9193   -0.2122    0.6673 C   0  0  0  0  0  0  0  0  0  0  0  0
   -8.5928   -1.0238    1.7270 C   0  0  0  0  0  0  0  0  0  0  0  0
  -10.0694   -1.1481    1.5487 C   0  0  0  0  0  0  0  0  0  0  0  0
  -10.5091   -1.4125    0.1453 C   0  0  0  0  0  0  0  0  0  0  0  0
   -9.7765   -0.5720   -0.8713 C   0  0  0  0  0  0  0  0  0  0  0  0
   -8.9854    0.5060   -0.1329 C   0  0  0  0  0  0  0  0  0  0  0  0
    4.3384   -1.8673    0.9202 O   0  0  0  0  0  0  0  0  0  0  0  0
    7.6676    2.7622    1.1878 H   0  0  0  0  0  0  0  0  0  0  0  0
    6.9226    1.7308    3.1919 H   0  0  0  0  0  0  0  0  0  0  0  0
    8.7193    1.3335    3.4065 H   0  0  0  0  0  0  0  0  0  0  0  0
    5.6854    0.4152    1.7146 H   0  0  0  0  0  0  0  0  0  0  0  0
    7.6975   -2.2899   -0.8929 H   0  0  0  0  0  0  0  0  0  0  0  0
    9.8375   -1.3976   -0.1858 H   0  0  0  0  0  0  0  0  0  0  0  0
   10.9660    0.5857    0.8436 H   0  0  0  0  0  0  0  0  0  0  0  0
    5.4152   -2.4486   -0.7621 H   0  0  0  0  0  0  0  0  0  0  0  0
    4.4631    0.4101   -0.3877 H   0  0  0  0  0  0  0  0  0  0  0  0
    3.5481   -0.8877   -1.2166 H   0  0  0  0  0  0  0  0  0  0  0  0
    6.3737   -0.6745   -2.0647 H   0  0  0  0  0  0  0  0  0  0  0  0
    4.8246    1.6443   -2.6190 H   0  0  0  0  0  0  0  0  0  0  0  0
    6.1462    0.9793   -3.5822 H   0  0  0  0  0  0  0  0  0  0  0  0
    4.1283    1.0638   -4.8873 H   0  0  0  0  0  0  0  0  0  0  0  0
    4.5838   -0.6716   -4.7085 H   0  0  0  0  0  0  0  0  0  0  0  0
    2.6719   -1.0526   -3.2033 H   0  0  0  0  0  0  0  0  0  0  0  0
    2.2361   -0.1405   -4.6636 H   0  0  0  0  0  0  0  0  0  0  0  0
    1.9960    1.8700   -3.6904 H   0  0  0  0  0  0  0  0  0  0  0  0
    2.7030    1.4216   -2.0702 H   0  0  0  0  0  0  0  0  0  0  0  0
    0.2260    1.5525   -2.1969 H   0  0  0  0  0  0  0  0  0  0  0  0
    0.2573    0.2746   -3.4650 H   0  0  0  0  0  0  0  0  0  0  0  0
    1.1912   -1.3948   -1.9233 H   0  0  0  0  0  0  0  0  0  0  0  0
    1.2781   -0.1793   -0.6478 H   0  0  0  0  0  0  0  0  0  0  0  0
   -1.8529   -2.0693   -0.3338 H   0  0  0  0  0  0  0  0  0  0  0  0
   -0.3929   -2.7571   -1.0617 H   0  0  0  0  0  0  0  0  0  0  0  0
    1.0253   -1.9480    0.8104 H   0  0  0  0  0  0  0  0  0  0  0  0
   -0.2523   -3.1050    1.1855 H   0  0  0  0  0  0  0  0  0  0  0  0
   -1.5251   -1.5927    2.4902 H   0  0  0  0  0  0  0  0  0  0  0  0
    0.1777   -1.6688    2.9383 H   0  0  0  0  0  0  0  0  0  0  0  0
    0.6574    0.5911    2.2336 H   0  0  0  0  0  0  0  0  0  0  0  0
   -0.6869    0.4890    3.3689 H   0  0  0  0  0  0  0  0  0  0  0  0
    0.1944    1.8071    0.1388 H   0  0  0  0  0  0  0  0  0  0  0  0
   -1.3829    3.2372   -1.1854 H   0  0  0  0  0  0  0  0  0  0  0  0
   -3.7763    3.3197   -0.5576 H   0  0  0  0  0  0  0  0  0  0  0  0
   -3.0050    0.5852    2.6344 H   0  0  0  0  0  0  0  0  0  0  0  0
   -5.2472    2.6346    2.1685 H   0  0  0  0  0  0  0  0  0  0  0  0
   -7.4469    1.4612    1.8965 H   0  0  0  0  0  0  0  0  0  0  0  0
   -7.3816   -0.8883   -0.0438 H   0  0  0  0  0  0  0  0  0  0  0  0
   -8.4428   -0.5248    2.7292 H   0  0  0  0  0  0  0  0  0  0  0  0
   -8.0977   -2.0273    1.8730 H   0  0  0  0  0  0  0  0  0  0  0  0
  -10.3773   -2.0595    2.1418 H   0  0  0  0  0  0  0  0  0  0  0  0
  -10.6289   -0.3059    2.0130 H   0  0  0  0  0  0  0  0  0  0  0  0
  -10.4697   -2.4944   -0.1079 H   0  0  0  0  0  0  0  0  0  0  0  0
  -11.5837   -1.1317    0.0690 H   0  0  0  0  0  0  0  0  0  0  0  0
  -10.4619   -0.1311   -1.6214 H   0  0  0  0  0  0  0  0  0  0  0  0
   -9.0326   -1.1799   -1.4251 H   0  0  0  0  0  0  0  0  0  0  0  0
   -8.5532    1.2390   -0.8398 H   0  0  0  0  0  0  0  0  0  0  0  0
   -9.6731    0.9603    0.6121 H   0  0  0  0  0  0  0  0  0  0  0  0
    4.4982   -2.7379    1.3197 H   0  0  0  0  0  0  0  0  0  0  0  0
  1  2  1  0
  2  3  1  0
  3  4  2  0
  4  5  1  0
  5  6  2  0
  6  7  1  0
  7  8  2  0
  8  9  1  0
  5 10  1  0
 10 11  1  0
 11 12  1  0
 12 13  1  0
 13 14  1  0
 14 15  1  0
 15 16  1  0
 16 17  1  0
 17 18  1  0
 18 19  1  0
 19 20  1  0
 20 21  1  0
 21 22  1  0
 22 23  1  0
 23 24  1  0
 24 25  2  0
 25 26  1  0
 26 27  2  0
 27 28  1  0
 28 29  2  0
 28 30  1  0
 30 31  1  0
 31 32  2  0
 31 33  1  0
 33 34  1  0
 34 35  1  0
 35 36  1  0
 36 37  1  0
 37 38  1  0
 38 39  1  0
 10 40  1  0
  8  3  1  0
 29 24  1  0
 39 34  1  0
  1 41  1  0
  2 42  1  0
  2 43  1  0
  4 44  1  0
  6 45  1  0
  7 46  1  0
  9 47  1  0
 10 48  1  6
 11 49  1  0
 11 50  1  0
 12 51  1  0
 13 52  1  0
 13 53  1  0
 14 54  1  0
 14 55  1  0
 15 56  1  0
 15 57  1  0
 16 58  1  0
 16 59  1  0
 17 60  1  0
 17 61  1  0
 18 62  1  0
 18 63  1  0
 20 64  1  0
 20 65  1  0
 21 66  1  0
 21 67  1  0
 22 68  1  0
 22 69  1  0
 23 70  1  0
 23 71  1  0
 25 72  1  0
 26 73  1  0
 27 74  1  0
 29 75  1  0
 30 76  1  0
 33 77  1  0
 34 78  1  0
 35 79  1  0
 35 80  1  0
 36 81  1  0
 36 82  1  0
 37 83  1  0
 37 84  1  0
 38 85  1  0
 38 86  1  0
 39 87  1  0
 39 88  1  0
 40 89  1  0
M  END
>  <Ligand ID>  (1) 
LIG0003064

>  <Ligand>  (1) 
CHEMBL1835855

>  <SMILES>  (1) 
OCc1cc(ccc1O)[C@H](CNCCCCCCOCCCCc1cccc(c1)NC(=O)NC1CCCCC1)O

>  <CID>  (1) 
56678973.0

>  <ChEMBL ID>  (1) 
nan

>  <InChiKey>  (1) 
GXDRIFNNDQHONW-HKBQPEDESA-N

>  <InChi>  (1) 
InChI=1S/C32H49N3O5/c36-24-27-22-26(16-17-30(27)37)31(38)23-33-18-7-1-2-8-19-40-20-9-6-11-25-12-10-15-29(21-25)35-32(39)34-28-13-4-3-5-14-28/h10,12,15-17,21-22,28,31,33,36-38H,1-9,11,13-14,18-20,23-24H2,(H2,34,35,39)/t31-/m0/s1

>  <IUPAC Name>  (1) 
1-cyclohexyl-3-[3-[4-[6-[[(2R)-2-hydroxy-2-[4-hydroxy-3-(hydroxymethyl)phenyl]ethyl]amino]hexoxy]butyl]phenyl]urea

$$$$
