
     RDKit          3D

133135  0  0  0  0  0  0  0  0999 V2000
   -9.4488    0.1416    0.5345 C   0  0  0  0  0  0  0  0  0  0  0  0
   -9.3165   -1.2015    1.1649 C   0  0  0  0  0  0  0  0  0  0  0  0
   -7.9984   -1.8720    0.8361 C   0  0  1  0  0  0  0  0  0  0  0  0
   -6.8670   -1.0924    1.3226 C   0  0  2  0  0  0  0  0  0  0  0  0
   -6.6238    0.2430    0.8578 N   0  0  0  0  0  0  0  0  0  0  0  0
   -5.7903    0.5526   -0.2917 C   0  0  0  0  0  0  0  0  0  0  0  0
   -5.4966   -0.4532   -0.9647 O   0  0  0  0  0  0  0  0  0  0  0  0
   -5.3125    1.8558   -0.6702 C   0  0  1  0  0  0  0  0  0  0  0  0
   -4.0205    1.7511   -1.4388 N   0  0  0  0  0  0  0  0  0  0  0  0
   -3.0124    2.6556   -1.0798 C   0  0  0  0  0  0  0  0  0  0  0  0
   -3.2641    3.4738   -0.1839 O   0  0  0  0  0  0  0  0  0  0  0  0
   -1.6271    2.7552   -1.6762 C   0  0  0  0  0  0  0  0  0  0  0  0
   -1.1723    4.1277   -1.1774 C   0  0  0  0  0  0  0  0  0  0  0  0
    0.3992    4.5994   -1.7608 S   0  0  0  0  0  0  0  0  0  0  0  0
    2.1063    3.7263   -1.0185 S   0  0  0  0  0  0  0  0  0  0  0  0
    2.7371    2.3258   -1.8384 C   0  0  0  0  0  0  0  0  0  0  0  0
    2.0315    0.9924   -1.7065 C   0  0  2  0  0  0  0  0  0  0  0  0
    1.9695    0.6258   -0.2785 N   0  0  0  0  0  0  0  0  0  0  0  0
    0.9093   -0.2390    0.0824 C   0  0  0  0  0  0  0  0  0  0  0  0
    0.2221   -0.6577   -0.8752 O   0  0  0  0  0  0  0  0  0  0  0  0
    0.5281   -0.7009    1.4335 C   0  0  1  0  0  0  0  0  0  0  0  0
   -0.5752   -1.6862    1.2914 N   0  0  0  0  0  0  0  0  0  0  0  0
   -1.9442   -1.2896    1.4091 C   0  0  0  0  0  0  0  0  0  0  0  0
   -2.0960   -0.0777    1.6657 O   0  0  0  0  0  0  0  0  0  0  0  0
   -3.0720   -2.1586    1.2521 C   0  0  1  0  0  0  0  0  0  0  0  0
   -4.2917   -1.3709    1.2408 N   0  0  0  0  0  0  0  0  0  0  0  0
   -5.5876   -1.9055    1.4302 C   0  0  0  0  0  0  0  0  0  0  0  0
   -5.6023   -3.1228    1.7050 O   0  0  0  0  0  0  0  0  0  0  0  0
   -2.9961   -3.1898    0.1673 C   0  0  0  0  0  0  0  0  0  0  0  0
   -2.8221   -2.7732   -1.2233 C   0  0  0  0  0  0  0  0  0  0  0  0
   -2.7832   -4.0393   -2.0566 C   0  0  0  0  0  0  0  0  0  0  0  0
   -2.9247   -5.1740   -1.5430 O   0  0  0  0  0  0  0  0  0  0  0  0
   -2.5741   -3.8462   -3.4662 N   0  0  0  0  0  0  0  0  0  0  0  0
    1.6240   -1.3204    2.2243 C   0  0  0  0  0  0  0  0  0  0  0  0
    2.2280   -2.5269    1.6521 C   0  0  0  0  0  0  0  0  0  0  0  0
    1.7899   -2.9376    0.5342 O   0  0  0  0  0  0  0  0  0  0  0  0
    3.2680   -3.1842    2.3621 N   0  0  0  0  0  0  0  0  0  0  0  0
    2.8733    0.0665   -2.5061 C   0  0  0  0  0  0  0  0  0  0  0  0
    2.6669    0.1256   -3.7793 O   0  0  0  0  0  0  0  0  0  0  0  0
    3.8449   -0.8420   -2.0940 N   0  0  0  0  0  0  0  0  0  0  0  0
    4.5241   -1.7321   -3.0586 C   0  0  0  0  0  0  0  0  0  0  0  0
    4.7472   -3.0189   -2.3163 C   0  0  0  0  0  0  0  0  0  0  0  0
    4.9964   -2.5502   -0.8848 C   0  0  0  0  0  0  0  0  0  0  0  0
    4.4790   -1.1348   -0.8343 C   0  0  1  0  0  0  0  0  0  0  0  0
    5.7009   -0.2498   -0.6774 C   0  0  0  0  0  0  0  0  0  0  0  0
    5.9528    0.4459   -1.7202 O   0  0  0  0  0  0  0  0  0  0  0  0
    6.4646   -0.2072    0.4943 N   0  0  0  0  0  0  0  0  0  0  0  0
    7.6350    0.7242    0.4817 C   0  0  2  0  0  0  0  0  0  0  0  0
    8.7970   -0.1327    0.7243 C   0  0  0  0  0  0  0  0  0  0  0  0
   10.0098    0.2656    0.6413 O   0  0  0  0  0  0  0  0  0  0  0  0
    8.6909   -1.5290    1.0849 N   0  0  0  0  0  0  0  0  0  0  0  0
    9.9039   -2.2939    1.3016 C   0  0  0  0  0  0  0  0  0  0  0  0
   10.6912   -2.2939    0.0464 C   0  0  0  0  0  0  0  0  0  0  0  0
   10.3368   -1.7258   -1.0117 O   0  0  0  0  0  0  0  0  0  0  0  0
   11.9500   -2.9810    0.0024 N   0  0  0  0  0  0  0  0  0  0  0  0
    7.3184    1.7058    1.5409 C   0  0  0  0  0  0  0  0  0  0  0  0
    8.2065    2.8308    1.8537 C   0  0  0  0  0  0  0  0  0  0  0  0
    9.5826    2.5790    2.3456 C   0  0  0  0  0  0  0  0  0  0  0  0
    8.2718    3.8451    0.6989 C   0  0  0  0  0  0  0  0  0  0  0  0
   -6.1110    2.7656   -1.5479 C   0  0  0  0  0  0  0  0  0  0  0  0
   -7.3941    3.1827   -1.0355 C   0  0  0  0  0  0  0  0  0  0  0  0
   -7.4059    4.2111   -0.0815 C   0  0  0  0  0  0  0  0  0  0  0  0
   -8.5863    4.7221    0.4159 C   0  0  0  0  0  0  0  0  0  0  0  0
   -9.8025    4.2396   -0.0070 C   0  0  0  0  0  0  0  0  0  0  0  0
   -9.8234    3.2294   -0.9433 C   0  0  0  0  0  0  0  0  0  0  0  0
   -8.6311    2.7369   -1.4244 C   0  0  0  0  0  0  0  0  0  0  0  0
  -10.9383    4.7931    0.5295 O   0  0  0  0  0  0  0  0  0  0  0  0
   -8.0511   -3.2256    1.5180 C   0  0  0  0  0  0  0  0  0  0  0  0
   -9.3570    0.9854    1.2330 H   0  0  0  0  0  0  0  0  0  0  0  0
  -10.4612    0.2872    0.0538 H   0  0  0  0  0  0  0  0  0  0  0  0
   -8.6963    0.2851   -0.2742 H   0  0  0  0  0  0  0  0  0  0  0  0
   -9.4650   -1.1242    2.2618 H   0  0  0  0  0  0  0  0  0  0  0  0
  -10.1757   -1.8168    0.8024 H   0  0  0  0  0  0  0  0  0  0  0  0
   -7.9544   -2.1172   -0.2599 H   0  0  0  0  0  0  0  0  0  0  0  0
   -7.0712   -0.9211    2.4569 H   0  0  0  0  0  0  0  0  0  0  0  0
   -7.0089    1.0942    1.2877 H   0  0  0  0  0  0  0  0  0  0  0  0
   -5.0570    2.4360    0.2865 H   0  0  0  0  0  0  0  0  0  0  0  0
   -3.8574    1.0898   -2.1679 H   0  0  0  0  0  0  0  0  0  0  0  0
   -0.9872    1.9449   -1.3472 H   0  0  0  0  0  0  0  0  0  0  0  0
   -1.7111    2.7614   -2.7752 H   0  0  0  0  0  0  0  0  0  0  0  0
   -1.1841    4.1367   -0.0519 H   0  0  0  0  0  0  0  0  0  0  0  0
   -1.9981    4.8584   -1.4329 H   0  0  0  0  0  0  0  0  0  0  0  0
    3.8358    2.1978   -1.6240 H   0  0  0  0  0  0  0  0  0  0  0  0
    2.7176    2.5183   -2.9717 H   0  0  0  0  0  0  0  0  0  0  0  0
    1.0275    0.9647   -2.1555 H   0  0  0  0  0  0  0  0  0  0  0  0
    2.5911    0.9399    0.4423 H   0  0  0  0  0  0  0  0  0  0  0  0
    0.1553    0.2040    1.9600 H   0  0  0  0  0  0  0  0  0  0  0  0
   -0.4270   -2.6754    1.1105 H   0  0  0  0  0  0  0  0  0  0  0  0
   -3.2026   -2.7989    2.1792 H   0  0  0  0  0  0  0  0  0  0  0  0
   -4.2021   -0.3662    1.1524 H   0  0  0  0  0  0  0  0  0  0  0  0
   -2.2043   -3.9417    0.4006 H   0  0  0  0  0  0  0  0  0  0  0  0
   -3.9470   -3.7946    0.2283 H   0  0  0  0  0  0  0  0  0  0  0  0
   -3.5859   -2.1711   -1.7038 H   0  0  0  0  0  0  0  0  0  0  0  0
   -1.7849   -2.3638   -1.3753 H   0  0  0  0  0  0  0  0  0  0  0  0
   -2.0015   -3.0431   -3.7974 H   0  0  0  0  0  0  0  0  0  0  0  0
   -2.9749   -4.4826   -4.1858 H   0  0  0  0  0  0  0  0  0  0  0  0
    1.2648   -1.5389    3.2775 H   0  0  0  0  0  0  0  0  0  0  0  0
    2.4814   -0.5981    2.3871 H   0  0  0  0  0  0  0  0  0  0  0  0
    3.5849   -4.1413    2.0494 H   0  0  0  0  0  0  0  0  0  0  0  0
    3.7040   -2.7332    3.1693 H   0  0  0  0  0  0  0  0  0  0  0  0
    3.8677   -1.9420   -3.9356 H   0  0  0  0  0  0  0  0  0  0  0  0
    5.4412   -1.2451   -3.3955 H   0  0  0  0  0  0  0  0  0  0  0  0
    5.6168   -3.5373   -2.7444 H   0  0  0  0  0  0  0  0  0  0  0  0
    3.8380   -3.6685   -2.3934 H   0  0  0  0  0  0  0  0  0  0  0  0
    4.4045   -3.1760   -0.1939 H   0  0  0  0  0  0  0  0  0  0  0  0
    6.0763   -2.6263   -0.6815 H   0  0  0  0  0  0  0  0  0  0  0  0
    3.8663   -0.9321    0.0434 H   0  0  0  0  0  0  0  0  0  0  0  0
    6.2347   -0.7740    1.3253 H   0  0  0  0  0  0  0  0  0  0  0  0
    7.6442    1.1718   -0.5425 H   0  0  0  0  0  0  0  0  0  0  0  0
    7.7902   -2.0065    1.1931 H   0  0  0  0  0  0  0  0  0  0  0  0
   10.4959   -1.8728    2.1499 H   0  0  0  0  0  0  0  0  0  0  0  0
    9.6880   -3.3424    1.5747 H   0  0  0  0  0  0  0  0  0  0  0  0
   12.7808   -2.4190    0.3315 H   0  0  0  0  0  0  0  0  0  0  0  0
   12.0649   -3.9509   -0.3226 H   0  0  0  0  0  0  0  0  0  0  0  0
    6.2487    2.0574    1.3920 H   0  0  0  0  0  0  0  0  0  0  0  0
    7.2276    1.1010    2.5143 H   0  0  0  0  0  0  0  0  0  0  0  0
    7.6920    3.4311    2.6743 H   0  0  0  0  0  0  0  0  0  0  0  0
    9.7407    1.6366    2.8800 H   0  0  0  0  0  0  0  0  0  0  0  0
   10.3783    2.7016    1.5844 H   0  0  0  0  0  0  0  0  0  0  0  0
    9.8714    3.3728    3.1316 H   0  0  0  0  0  0  0  0  0  0  0  0
    8.9366    3.4754   -0.0957 H   0  0  0  0  0  0  0  0  0  0  0  0
    7.2550    4.0905    0.3711 H   0  0  0  0  0  0  0  0  0  0  0  0
    8.7357    4.7544    1.1203 H   0  0  0  0  0  0  0  0  0  0  0  0
   -5.5084    3.7224   -1.7077 H   0  0  0  0  0  0  0  0  0  0  0  0
   -6.1767    2.3624   -2.6000 H   0  0  0  0  0  0  0  0  0  0  0  0
   -6.4656    4.6339    0.2939 H   0  0  0  0  0  0  0  0  0  0  0  0
   -8.5098    5.5231    1.1573 H   0  0  0  0  0  0  0  0  0  0  0  0
  -10.7567    2.8327   -1.2935 H   0  0  0  0  0  0  0  0  0  0  0  0
   -8.6632    1.9377   -2.1655 H   0  0  0  0  0  0  0  0  0  0  0  0
  -10.9368    5.7777    0.7830 H   0  0  0  0  0  0  0  0  0  0  0  0
   -7.5454   -4.0007    0.9208 H   0  0  0  0  0  0  0  0  0  0  0  0
   -9.1431   -3.5381    1.5360 H   0  0  0  0  0  0  0  0  0  0  0  0
   -7.7305   -3.1852    2.5708 H   0  0  0  0  0  0  0  0  0  0  0  0
  1  2  1  0
  2  3  1  0
  3  4  1  0
  4  5  1  0
  5  6  1  0
  6  7  2  0
  6  8  1  0
  8  9  1  0
  9 10  1  0
 10 11  2  0
 10 12  1  0
 12 13  1  0
 13 14  1  0
 14 15  1  0
 15 16  1  0
 16 17  1  0
 17 18  1  0
 18 19  1  0
 19 20  2  0
 19 21  1  0
 21 22  1  0
 22 23  1  0
 23 24  2  0
 23 25  1  0
 25 26  1  0
 26 27  1  0
 27 28  2  0
 25 29  1  0
 29 30  1  0
 30 31  1  0
 31 32  2  0
 31 33  1  0
 21 34  1  0
 34 35  1  0
 35 36  2  0
 35 37  1  0
 17 38  1  0
 38 39  2  0
 38 40  1  0
 40 41  1  0
 41 42  1  0
 42 43  1  0
 43 44  1  0
 44 45  1  0
 45 46  2  0
 45 47  1  0
 47 48  1  0
 48 49  1  0
 49 50  2  0
 49 51  1  0
 51 52  1  0
 52 53  1  0
 53 54  2  0
 53 55  1  0
 48 56  1  0
 56 57  1  0
 57 58  1  0
 57 59  1  0
  8 60  1  0
 60 61  1  0
 61 62  2  0
 62 63  1  0
 63 64  2  0
 64 65  1  0
 65 66  2  0
 64 67  1  0
  3 68  1  0
 27  4  1  0
 44 40  1  0
 66 61  1  0
  1 69  1  0
  1 70  1  0
  1 71  1  0
  2 72  1  0
  2 73  1  0
  3 74  1  6
  4 75  1  1
  5 76  1  0
  8 77  1  1
  9 78  1  0
 12 79  1  0
 12 80  1  0
 13 81  1  0
 13 82  1  0
 16 83  1  0
 16 84  1  0
 17 85  1  6
 18 86  1  0
 21 87  1  1
 22 88  1  0
 25 89  1  1
 26 90  1  0
 29 91  1  0
 29 92  1  0
 30 93  1  0
 30 94  1  0
 33 95  1  0
 33 96  1  0
 34 97  1  0
 34 98  1  0
 37 99  1  0
 37100  1  0
 41101  1  0
 41102  1  0
 42103  1  0
 42104  1  0
 43105  1  0
 43106  1  0
 44107  1  1
 47108  1  0
 48109  1  6
 51110  1  0
 52111  1  0
 52112  1  0
 55113  1  0
 55114  1  0
 56115  1  0
 56116  1  0
 57117  1  0
 58118  1  0
 58119  1  0
 58120  1  0
 59121  1  0
 59122  1  0
 59123  1  0
 60124  1  0
 60125  1  0
 62126  1  0
 63127  1  0
 65128  1  0
 66129  1  0
 67130  1  0
 68131  1  0
 68132  1  0
 68133  1  0
M  END
>  <Ligand ID>  (1) 
LIG0001652

>  <Ligand>  (1) 
DEMOXYTOCIN

>  <SMILES>  (1) 
CC[C@@H]([C@@H]1NC(=O)[C@@H](NC(=O)CCSSC[C@H](NC(=O)[C@@H](NC(=O)[C@@H](NC1=O)CCC(=O)N)CC(=O)N)C(=O)N1CCC[C@H]1C(=O)N[C@H](C(=O)NCC(=O)N)CC(C)C)Cc1ccc(cc1)O)C

>  <CID>  (1) 
449224.0

>  <ChEMBL ID>  (1) 
nan

>  <InChiKey>  (1) 
GTYWGUNQAMYZPF-QPLNMOKZSA-N

>  <InChi>  (1) 
InChI=1S/C43H65N11O12S2/c1-5-23(4)36-42(65)49-26(12-13-32(44)56)38(61)50-29(19-33(45)57)39(62)52-30(21-68-67-16-14-35(59)48-28(40(63)53-36)18-24-8-10-25(55)11-9-24)43(66)54-15-6-7-31(54)41(64)51-27(17-22(2)3)37(60)47-20-34(46)58/h8-11,22-23,26-31,36,55H,5-7,12-21H2,1-4H3,(H2,44,56)(H2,45,57)(H2,46,58)(H,47,60)(H,48,59)(H,49,65)(H,50,61)(H,51,64)(H,52,62)(H,53,63)/t23-,26-,27-,28-,29-,30-,31-,36-/m0/s1

>  <IUPAC Name>  (1) 
(2S)-N-[(2S)-1-[(2-amino-2-oxoethyl)amino]-4-methyl-1-oxopentan-2-yl]-1-[(4R,7S,10S,13S,16S)-7-(2-amino-2-oxoethyl)-10-(3-amino-3-oxopropyl)-13-[(2S)-butan-2-yl]-16-[(4-hydroxyphenyl)methyl]-6,9,12,15,18-pentaoxo-1,2-dithia-5,8,11,14,17-pentazacycloicosane-4-carbonyl]pyrrolidine-2-carboxamide

$$$$
