
     RDKit          3D

 63 63  0  0  0  0  0  0  0  0999 V2000
    9.7183   -1.5812   -0.1584 C   0  0  0  0  0  0  0  0  0  0  0  0
    8.3245   -1.1776    0.4387 C   0  0  0  0  0  0  0  0  0  0  0  0
    8.2572    0.2968    0.4474 C   0  0  0  0  0  0  0  0  0  0  0  0
    7.1089    1.0045    1.0288 C   0  0  0  0  0  0  0  0  0  0  0  0
    5.7246    0.8176    0.5291 C   0  0  0  0  0  0  0  0  0  0  0  0
    5.0714   -0.5023    0.6841 C   0  0  0  0  0  0  0  0  0  0  0  0
    3.6404   -0.5561    0.1135 C   0  0  0  0  0  0  0  0  0  0  0  0
    2.8054    0.4385    0.8339 C   0  0  0  0  0  0  0  0  0  0  0  0
    1.3885    0.4257    0.3467 C   0  0  0  0  0  0  0  0  0  0  0  0
    0.9831    1.2325   -0.6945 C   0  0  0  0  0  0  0  0  0  0  0  0
   -0.3143    1.2232   -1.1433 C   0  0  0  0  0  0  0  0  0  0  0  0
   -1.2240    0.3846   -0.5320 C   0  0  0  0  0  0  0  0  0  0  0  0
   -0.8157   -0.4210    0.5089 C   0  0  0  0  0  0  0  0  0  0  0  0
    0.4849   -0.4147    0.9621 C   0  0  0  0  0  0  0  0  0  0  0  0
   -2.6319    0.3209   -0.9594 C   0  0  0  0  0  0  0  0  0  0  0  0
   -3.1658    1.0815   -1.9951 C   0  0  0  0  0  0  0  0  0  0  0  0
   -4.4818    0.7348   -2.0749 N   0  0  0  0  0  0  0  0  0  0  0  0
   -4.7473   -0.2046   -1.1233 C   0  0  0  0  0  0  0  0  0  0  0  0
   -3.6196   -0.4458   -0.4557 N   0  0  0  0  0  0  0  0  0  0  0  0
   -6.0715   -0.8365   -0.8884 C   0  0  0  0  0  0  0  0  0  0  0  0
   -6.8911   -0.0597    0.1108 C   0  0  0  0  0  0  0  0  0  0  0  0
   -8.0886   -0.7150    0.3162 O   0  0  0  0  0  0  0  0  0  0  0  0
   -9.0720    0.0959    1.4306 P   0  0  0  0  0  0  0  0  0  0  0  0
  -10.7155   -0.2766    1.0555 S   0  0  0  0  0  0  0  0  0  0  0  0
   -8.8750    1.7683    1.3598 O   0  0  0  0  0  0  0  0  0  0  0  0
   -8.7429   -0.5050    2.9789 O   0  0  0  0  0  0  0  0  0  0  0  0
   -6.8120   -0.9915   -2.2088 C   0  0  0  0  0  0  0  0  0  0  0  0
   -7.0797    0.2243   -2.8031 O   0  0  0  0  0  0  0  0  0  0  0  0
   -5.8354   -2.1703   -0.3400 N   0  0  0  0  0  0  0  0  0  0  0  0
    0.6834    0.0000    0.0000 Cl  0  0  0  0  0  0  0  0  0  0  0  0
    9.7041   -1.4533   -1.2551 H   0  0  0  0  0  0  0  0  0  0  0  0
   10.4773   -0.9143    0.2887 H   0  0  0  0  0  0  0  0  0  0  0  0
    9.8768   -2.6303    0.1484 H   0  0  0  0  0  0  0  0  0  0  0  0
    8.2476   -1.6746    1.3937 H   0  0  0  0  0  0  0  0  0  0  0  0
    7.6523   -1.6531   -0.3251 H   0  0  0  0  0  0  0  0  0  0  0  0
    8.4448    0.7274   -0.5895 H   0  0  0  0  0  0  0  0  0  0  0  0
    9.1808    0.6811    1.0002 H   0  0  0  0  0  0  0  0  0  0  0  0
    7.1291    0.8176    2.1661 H   0  0  0  0  0  0  0  0  0  0  0  0
    7.3608    2.1264    1.0002 H   0  0  0  0  0  0  0  0  0  0  0  0
    5.6926    1.1487   -0.5675 H   0  0  0  0  0  0  0  0  0  0  0  0
    5.0699    1.6312    1.0012 H   0  0  0  0  0  0  0  0  0  0  0  0
    5.6465   -1.3492    0.3296 H   0  0  0  0  0  0  0  0  0  0  0  0
    4.8752   -0.6120    1.8087 H   0  0  0  0  0  0  0  0  0  0  0  0
    3.2755   -1.5718    0.3273 H   0  0  0  0  0  0  0  0  0  0  0  0
    3.6792   -0.4107   -0.9756 H   0  0  0  0  0  0  0  0  0  0  0  0
    3.1491    1.4894    0.6573 H   0  0  0  0  0  0  0  0  0  0  0  0
    2.7871    0.2247    1.9021 H   0  0  0  0  0  0  0  0  0  0  0  0
    1.7146    1.8836   -1.1603 H   0  0  0  0  0  0  0  0  0  0  0  0
   -0.6606    1.8443   -1.9569 H   0  0  0  0  0  0  0  0  0  0  0  0
   -1.5073   -1.0932    1.0121 H   0  0  0  0  0  0  0  0  0  0  0  0
    0.8121   -1.0411    1.7749 H   0  0  0  0  0  0  0  0  0  0  0  0
   -2.6309    1.8057   -2.6118 H   0  0  0  0  0  0  0  0  0  0  0  0
   -3.5408   -1.1210    0.3239 H   0  0  0  0  0  0  0  0  0  0  0  0
   -7.1245    0.9273   -0.3780 H   0  0  0  0  0  0  0  0  0  0  0  0
   -6.3014    0.1205    1.0113 H   0  0  0  0  0  0  0  0  0  0  0  0
   -8.1931    2.0966    1.9935 H   0  0  0  0  0  0  0  0  0  0  0  0
   -7.7698   -0.5566    3.1614 H   0  0  0  0  0  0  0  0  0  0  0  0
   -6.1833   -1.5887   -2.8936 H   0  0  0  0  0  0  0  0  0  0  0  0
   -7.7487   -1.5576   -2.0844 H   0  0  0  0  0  0  0  0  0  0  0  0
   -6.8316    0.2032   -3.7802 H   0  0  0  0  0  0  0  0  0  0  0  0
   -5.3172   -2.1041    0.5508 H   0  0  0  0  0  0  0  0  0  0  0  0
   -5.2893   -2.6870   -1.0416 H   0  0  0  0  0  0  0  0  0  0  0  0
   -0.6834    0.0000    0.0000 H   0  0  0  0  0  0  0  0  0  0  0  0
  1  2  1  0
  2  3  1  0
  3  4  1  0
  4  5  1  0
  5  6  1  0
  6  7  1  0
  7  8  1  0
  8  9  1  0
  9 10  2  0
 10 11  1  0
 11 12  2  0
 12 13  1  0
 13 14  2  0
 12 15  1  0
 15 16  2  0
 16 17  1  0
 17 18  2  0
 18 19  1  0
 18 20  1  0
 20 21  1  0
 21 22  1  0
 22 23  1  0
 23 24  2  0
 23 25  1  0
 23 26  1  0
 20 27  1  0
 27 28  1  0
 20 29  1  0
 14  9  1  0
 19 15  1  0
  1 31  1  0
  1 32  1  0
  1 33  1  0
  2 34  1  0
  2 35  1  0
  3 36  1  0
  3 37  1  0
  4 38  1  0
  4 39  1  0
  5 40  1  0
  5 41  1  0
  6 42  1  0
  6 43  1  0
  7 44  1  0
  7 45  1  0
  8 46  1  0
  8 47  1  0
 10 48  1  0
 11 49  1  0
 13 50  1  0
 14 51  1  0
 16 52  1  0
 19 53  1  0
 21 54  1  0
 21 55  1  0
 25 56  1  0
 26 57  1  0
 27 58  1  0
 27 59  1  0
 28 60  1  0
 29 61  1  0
 29 62  1  0
 30 63  1  0
M  END
>  <Ligand ID>  (1) 
LIG0004248

>  <Ligand>  (1) 
CHEMBL541890

>  <SMILES>  (1) 
CCCCCCCCc1ccc(cc1)c1cnc([nH]1)C(COP(=S)(O)O)(CO)N.Cl

>  <CID>  (1) 
45265686.0

>  <ChEMBL ID>  (1) 
nan

>  <InChiKey>  (1) 
OFJKBMXVADGQHW-UHFFFAOYSA-N

>  <InChi>  (1) 
InChI=1S/C20H32N3O4PS.ClH/c1-2-3-4-5-6-7-8-16-9-11-17(12-10-16)18-13-22-19(23-18)20(21,14-24)15-27-28(25,26)29;/h9-13,24H,2-8,14-15,21H2,1H3,(H,22,23)(H2,25,26,29);1H

>  <IUPAC Name>  (1) 
2-amino-3-dihydroxyphosphinothioyloxy-2-[5-(4-octylphenyl)-1H-imidazol-2-yl]propan-1-ol;hydrochloride

$$$$
