
     RDKit          3D

 75 74  0  0  0  0  0  0  0  0999 V2000
   -8.7844   -1.1099   -1.3637 C   0  0  0  0  0  0  0  0  0  0  0  0
   -8.5435   -0.6344    0.0532 C   0  0  0  0  0  0  0  0  0  0  0  0
   -8.5397    0.8921    0.0234 C   0  0  0  0  0  0  0  0  0  0  0  0
   -8.3163    1.4080    1.3800 C   0  0  0  0  0  0  0  0  0  0  0  0
   -7.1516    1.0759    2.1864 C   0  0  0  0  0  0  0  0  0  0  0  0
   -5.8078    1.4442    1.7407 C   0  0  0  0  0  0  0  0  0  0  0  0
   -5.3331    0.7970    0.4829 C   0  0  0  0  0  0  0  0  0  0  0  0
   -3.8861    1.2636    0.1975 C   0  0  0  0  0  0  0  0  0  0  0  0
   -3.3598    0.6454   -1.0674 C   0  0  0  0  0  0  0  0  0  0  0  0
   -3.3364   -0.8428   -0.9856 C   0  0  0  0  0  0  0  0  0  0  0  0
   -2.4990   -1.3536    0.1243 C   0  0  0  0  0  0  0  0  0  0  0  0
   -1.0203   -0.9429    0.0547 C   0  0  0  0  0  0  0  0  0  0  0  0
   -0.4277   -1.4754   -1.1836 C   0  0  0  0  0  0  0  0  0  0  0  0
    0.9591   -1.1997   -1.5790 C   0  0  0  0  0  0  0  0  0  0  0  0
    2.0411   -1.5801   -0.6556 C   0  0  0  0  0  0  0  0  0  0  0  0
    2.1812   -0.8512    0.6225 C   0  0  0  0  0  0  0  0  0  0  0  0
    3.3301   -1.4299    1.4375 C   0  0  0  0  0  0  0  0  0  0  0  0
    4.6290   -1.3313    0.7597 C   0  0  0  0  0  0  0  0  0  0  0  0
    5.5913   -1.9445    1.3641 O   0  0  0  0  0  0  0  0  0  0  0  0
    4.9002   -0.6798   -0.3993 O   0  0  0  0  0  0  0  0  0  0  0  0
    6.1381   -0.5895   -1.0166 C   0  0  0  0  0  0  0  0  0  0  0  0
    7.1012    0.2261   -0.2107 C   0  0  2  0  0  0  0  0  0  0  0  0
    8.4230    0.4062   -0.9742 C   0  0  0  0  0  0  0  0  0  0  0  0
    9.1612    1.3466   -0.2613 O   0  0  0  0  0  0  0  0  0  0  0  0
   10.6377    1.5599   -1.0546 P   0  0  0  0  0  0  0  0  0  0  0  0
   10.3075    1.5676   -2.7609 S   0  0  0  0  0  0  0  0  0  0  0  0
   11.6417    0.2703   -0.6395 O   0  0  0  0  0  0  0  0  0  0  0  0
   11.3565    3.0319   -0.5863 O   0  0  0  0  0  0  0  0  0  0  0  0
    7.3706   -0.2124    1.0705 O   0  0  0  0  0  0  0  0  0  0  0  0
    7.1412    0.7908    2.0194 C   0  0  0  0  0  0  0  0  0  0  0  0
   -9.7378   -0.6845   -1.7080 H   0  0  0  0  0  0  0  0  0  0  0  0
   -8.7918   -2.2222   -1.3452 H   0  0  0  0  0  0  0  0  0  0  0  0
   -7.9985   -0.6893   -2.0428 H   0  0  0  0  0  0  0  0  0  0  0  0
   -7.5915   -1.0203    0.4681 H   0  0  0  0  0  0  0  0  0  0  0  0
   -9.3571   -1.0151    0.6991 H   0  0  0  0  0  0  0  0  0  0  0  0
   -7.9683    1.2315   -0.8150 H   0  0  0  0  0  0  0  0  0  0  0  0
   -9.6182    1.2192   -0.2557 H   0  0  0  0  0  0  0  0  0  0  0  0
   -9.2399    1.0696    1.9933 H   0  0  0  0  0  0  0  0  0  0  0  0
   -8.4740    2.5528    1.4096 H   0  0  0  0  0  0  0  0  0  0  0  0
   -7.1359   -0.0663    2.3290 H   0  0  0  0  0  0  0  0  0  0  0  0
   -7.2921    1.4583    3.2646 H   0  0  0  0  0  0  0  0  0  0  0  0
   -5.0283    1.1537    2.5295 H   0  0  0  0  0  0  0  0  0  0  0  0
   -5.6907    2.5791    1.6434 H   0  0  0  0  0  0  0  0  0  0  0  0
   -5.8812    1.0323   -0.4168 H   0  0  0  0  0  0  0  0  0  0  0  0
   -5.2731   -0.3029    0.7125 H   0  0  0  0  0  0  0  0  0  0  0  0
   -3.2978    0.9947    1.0800 H   0  0  0  0  0  0  0  0  0  0  0  0
   -3.8944    2.3800    0.1016 H   0  0  0  0  0  0  0  0  0  0  0  0
   -4.0708    0.9225   -1.8959 H   0  0  0  0  0  0  0  0  0  0  0  0
   -2.3759    1.1034   -1.2904 H   0  0  0  0  0  0  0  0  0  0  0  0
   -4.3783   -1.1928   -0.8002 H   0  0  0  0  0  0  0  0  0  0  0  0
   -3.0685   -1.3185   -1.9638 H   0  0  0  0  0  0  0  0  0  0  0  0
   -2.9099   -1.1555    1.1128 H   0  0  0  0  0  0  0  0  0  0  0  0
   -2.4629   -2.4772    0.0114 H   0  0  0  0  0  0  0  0  0  0  0  0
   -0.8646    0.1141    0.2373 H   0  0  0  0  0  0  0  0  0  0  0  0
   -0.6208   -1.5090    0.9725 H   0  0  0  0  0  0  0  0  0  0  0  0
   -1.1161   -1.1649   -2.0346 H   0  0  0  0  0  0  0  0  0  0  0  0
   -0.5338   -2.6204   -1.1454 H   0  0  0  0  0  0  0  0  0  0  0  0
    1.1310   -1.7768   -2.5547 H   0  0  0  0  0  0  0  0  0  0  0  0
    1.0922   -0.1300   -1.9527 H   0  0  0  0  0  0  0  0  0  0  0  0
    1.8985   -2.7014   -0.4531 H   0  0  0  0  0  0  0  0  0  0  0  0
    3.0171   -1.5980   -1.2406 H   0  0  0  0  0  0  0  0  0  0  0  0
    2.5900    0.1901    0.3217 H   0  0  0  0  0  0  0  0  0  0  0  0
    1.3209   -0.6488    1.2294 H   0  0  0  0  0  0  0  0  0  0  0  0
    3.4118   -0.7682    2.3494 H   0  0  0  0  0  0  0  0  0  0  0  0
    3.0368   -2.4500    1.7403 H   0  0  0  0  0  0  0  0  0  0  0  0
    6.0667   -0.0498   -2.0165 H   0  0  0  0  0  0  0  0  0  0  0  0
    6.5669   -1.5934   -1.2759 H   0  0  0  0  0  0  0  0  0  0  0  0
    6.7387    1.2891   -0.0883 H   0  0  0  0  0  0  0  0  0  0  0  0
    8.9556   -0.5459   -1.1127 H   0  0  0  0  0  0  0  0  0  0  0  0
    8.2254    0.8391   -1.9760 H   0  0  0  0  0  0  0  0  0  0  0  0
   11.1959   -0.4278   -0.0965 H   0  0  0  0  0  0  0  0  0  0  0  0
   12.1703    3.1206   -1.1654 H   0  0  0  0  0  0  0  0  0  0  0  0
    7.3362    0.4995    3.0481 H   0  0  0  0  0  0  0  0  0  0  0  0
    7.8663    1.6092    1.7351 H   0  0  0  0  0  0  0  0  0  0  0  0
    6.1470    1.2606    1.8789 H   0  0  0  0  0  0  0  0  0  0  0  0
  1  2  1  0
  2  3  1  0
  3  4  1  0
  4  5  1  0
  5  6  1  0
  6  7  1  0
  7  8  1  0
  8  9  1  0
  9 10  1  0
 10 11  1  0
 11 12  1  0
 12 13  1  0
 13 14  1  0
 14 15  1  0
 15 16  1  0
 16 17  1  0
 17 18  1  0
 18 19  2  0
 18 20  1  0
 20 21  1  0
 21 22  1  0
 22 23  1  0
 23 24  1  0
 24 25  1  0
 25 26  2  0
 25 27  1  0
 25 28  1  0
 22 29  1  0
 29 30  1  0
  1 31  1  0
  1 32  1  0
  1 33  1  0
  2 34  1  0
  2 35  1  0
  3 36  1  0
  3 37  1  0
  4 38  1  0
  4 39  1  0
  5 40  1  0
  5 41  1  0
  6 42  1  0
  6 43  1  0
  7 44  1  0
  7 45  1  0
  8 46  1  0
  8 47  1  0
  9 48  1  0
  9 49  1  0
 10 50  1  0
 10 51  1  0
 11 52  1  0
 11 53  1  0
 12 54  1  0
 12 55  1  0
 13 56  1  0
 13 57  1  0
 14 58  1  0
 14 59  1  0
 15 60  1  0
 15 61  1  0
 16 62  1  0
 16 63  1  0
 17 64  1  0
 17 65  1  0
 21 66  1  0
 21 67  1  0
 22 68  1  1
 23 69  1  0
 23 70  1  0
 27 71  1  0
 28 72  1  0
 30 73  1  0
 30 74  1  0
 30 75  1  0
M  END
>  <Ligand ID>  (1) 
LIG0000697

>  <Ligand>  (1) 
CHEMBL153043

>  <SMILES>  (1) 
CCCCCCCCCCCCCCCCCC(=O)OC[C@H](COP(=S)(O)O)OC

>  <CID>  (1) 
44368508.0

>  <ChEMBL ID>  (1) 
nan

>  <InChiKey>  (1) 
AYKYANCQUONAPE-OAQYLSRUSA-N

>  <InChi>  (1) 
InChI=1S/C22H45O6PS/c1-3-4-5-6-7-8-9-10-11-12-13-14-15-16-17-18-22(23)27-19-21(26-2)20-28-29(24,25)30/h21H,3-20H2,1-2H3,(H2,24,25,30)/t21-/m1/s1

>  <IUPAC Name>  (1) 
[(2R)-3-dihydroxyphosphinothioyloxy-2-methoxypropyl] octadecanoate

$$$$
