
     RDKit          3D

 57 59  0  0  0  0  0  0  0  0999 V2000
   -3.7483    1.7646    2.6849 O   0  0  0  0  0  0  0  0  0  0  0  0
   -4.2138    1.1890    1.4651 C   0  0  2  0  0  0  0  0  0  0  0  0
   -4.5565   -0.2160    1.7740 C   0  0  0  0  0  0  0  0  0  0  0  0
   -5.1787   -0.9558    0.7694 O   0  0  0  0  0  0  0  0  0  0  0  0
   -6.4780   -0.6837    0.3541 C   0  0  0  0  0  0  0  0  0  0  0  0
   -7.0189   -1.4223   -0.6685 C   0  0  0  0  0  0  0  0  0  0  0  0
   -8.3199   -1.1876   -1.1031 C   0  0  0  0  0  0  0  0  0  0  0  0
   -9.0804   -0.2071   -0.5168 C   0  0  0  0  0  0  0  0  0  0  0  0
   -8.5704    0.5561    0.5088 C   0  0  0  0  0  0  0  0  0  0  0  0
   -7.2659    0.2936    0.9247 C   0  0  0  0  0  0  0  0  0  0  0  0
  -10.3920    0.0811   -0.9035 O   0  0  0  0  0  0  0  0  0  0  0  0
   -2.9413    1.2209    0.5263 C   0  0  0  0  0  0  0  0  0  0  0  0
   -2.0058    0.4151    1.2293 N   0  0  0  0  0  0  0  0  0  0  0  0
   -0.6727    0.3207    0.8395 C   0  0  0  0  0  0  0  0  0  0  0  0
   -0.4068   -0.3541   -0.4790 C   0  0  0  0  0  0  0  0  0  0  0  0
    1.1040   -0.3891   -0.6523 C   0  0  0  0  0  0  0  0  0  0  0  0
    1.8019    0.6476   -1.2415 C   0  0  0  0  0  0  0  0  0  0  0  0
    3.1914    0.5654   -1.2946 C   0  0  0  0  0  0  0  0  0  0  0  0
    3.8326   -0.5311   -0.7657 C   0  0  0  0  0  0  0  0  0  0  0  0
    3.1097   -1.5727   -0.1756 C   0  0  0  0  0  0  0  0  0  0  0  0
    1.7287   -1.5049   -0.1175 C   0  0  0  0  0  0  0  0  0  0  0  0
    5.2523   -0.6922   -0.7090 N   0  0  0  0  0  0  0  0  0  0  0  0
    5.8649   -0.2503    0.5200 C   0  0  0  0  0  0  0  0  0  0  0  0
    5.0078    0.2249    1.3607 O   0  0  0  0  0  0  0  0  0  0  0  0
    7.2569   -0.3003    0.8874 C   0  0  0  0  0  0  0  0  0  0  0  0
    8.1494   -0.0652   -0.2828 C   0  0  0  0  0  0  0  0  0  0  0  0
    8.5838    1.1669   -0.6974 C   0  0  0  0  0  0  0  0  0  0  0  0
    9.4156    1.2318   -1.7487 N   0  0  0  0  0  0  0  0  0  0  0  0
    9.8178    0.1318   -2.3842 C   0  0  0  0  0  0  0  0  0  0  0  0
    9.3732   -1.1003   -1.9541 C   0  0  0  0  0  0  0  0  0  0  0  0
    8.5494   -1.2180   -0.9177 N   0  0  0  0  0  0  0  0  0  0  0  0
   -4.2901    2.6054    2.7895 H   0  0  0  0  0  0  0  0  0  0  0  0
   -4.9954    1.7793    1.0476 H   0  0  0  0  0  0  0  0  0  0  0  0
   -5.2911   -0.2343    2.6478 H   0  0  0  0  0  0  0  0  0  0  0  0
   -3.6674   -0.8265    2.1051 H   0  0  0  0  0  0  0  0  0  0  0  0
   -6.4797   -2.2065   -1.1813 H   0  0  0  0  0  0  0  0  0  0  0  0
   -8.7913   -1.7503   -1.9049 H   0  0  0  0  0  0  0  0  0  0  0  0
   -9.1554    1.3363    0.9926 H   0  0  0  0  0  0  0  0  0  0  0  0
   -6.9241    0.9118    1.7605 H   0  0  0  0  0  0  0  0  0  0  0  0
  -10.8446   -0.5748   -1.5117 H   0  0  0  0  0  0  0  0  0  0  0  0
   -2.6977    2.2865    0.4632 H   0  0  0  0  0  0  0  0  0  0  0  0
   -3.2655    0.7456   -0.3973 H   0  0  0  0  0  0  0  0  0  0  0  0
   -2.1570    0.4359    2.2796 H   0  0  0  0  0  0  0  0  0  0  0  0
   -0.1627   -0.3558    1.6030 H   0  0  0  0  0  0  0  0  0  0  0  0
   -0.0810    1.2715    0.9309 H   0  0  0  0  0  0  0  0  0  0  0  0
   -0.7494   -1.4011   -0.4433 H   0  0  0  0  0  0  0  0  0  0  0  0
   -0.7854    0.1959   -1.3536 H   0  0  0  0  0  0  0  0  0  0  0  0
    1.2590    1.4907   -1.6435 H   0  0  0  0  0  0  0  0  0  0  0  0
    3.7854    1.3379   -1.7362 H   0  0  0  0  0  0  0  0  0  0  0  0
    3.6195   -2.4458    0.2466 H   0  0  0  0  0  0  0  0  0  0  0  0
    1.2032   -2.3233    0.3482 H   0  0  0  0  0  0  0  0  0  0  0  0
    5.8440   -1.0689   -1.4584 H   0  0  0  0  0  0  0  0  0  0  0  0
    7.5585   -1.2334    1.4404 H   0  0  0  0  0  0  0  0  0  0  0  0
    7.4498    0.5253    1.6194 H   0  0  0  0  0  0  0  0  0  0  0  0
    8.2544    2.0546   -0.1785 H   0  0  0  0  0  0  0  0  0  0  0  0
   10.4820    0.1398   -3.2347 H   0  0  0  0  0  0  0  0  0  0  0  0
    9.6922   -2.0138   -2.4632 H   0  0  0  0  0  0  0  0  0  0  0  0
  1  2  1  0
  2  3  1  0
  3  4  1  0
  4  5  1  0
  5  6  2  0
  6  7  1  0
  7  8  2  0
  8  9  1  0
  9 10  2  0
  8 11  1  0
  2 12  1  0
 12 13  1  0
 13 14  1  0
 14 15  1  0
 15 16  1  0
 16 17  2  0
 17 18  1  0
 18 19  2  0
 19 20  1  0
 20 21  2  0
 19 22  1  0
 22 23  1  0
 23 24  2  0
 23 25  1  0
 25 26  1  0
 26 27  2  0
 27 28  1  0
 28 29  2  0
 29 30  1  0
 30 31  2  0
 10  5  1  0
 21 16  1  0
 31 26  1  0
  1 32  1  0
  2 33  1  6
  3 34  1  0
  3 35  1  0
  6 36  1  0
  7 37  1  0
  9 38  1  0
 10 39  1  0
 11 40  1  0
 12 41  1  0
 12 42  1  0
 13 43  1  0
 14 44  1  0
 14 45  1  0
 15 46  1  0
 15 47  1  0
 17 48  1  0
 18 49  1  0
 20 50  1  0
 21 51  1  0
 22 52  1  0
 25 53  1  0
 25 54  1  0
 27 55  1  0
 29 56  1  0
 30 57  1  0
M  END
>  <Ligand ID>  (1) 
LIG0002559

>  <Ligand>  (1) 
CHEMBL552497

>  <SMILES>  (1) 
O[C@H](COc1ccc(cc1)O)CNCCc1ccc(cc1)NC(=O)Cc1cnccn1

>  <CID>  (1) 
44127679.0

>  <ChEMBL ID>  (1) 
nan

>  <InChiKey>  (1) 
XIOPYQYZZSGQJH-NRFANRHFSA-N

>  <InChi>  (1) 
InChI=1S/C23H26N4O4/c28-20-5-7-22(8-6-20)31-16-21(29)15-24-10-9-17-1-3-18(4-2-17)27-23(30)13-19-14-25-11-12-26-19/h1-8,11-12,14,21,24,28-29H,9-10,13,15-16H2,(H,27,30)/t21-/m0/s1

>  <IUPAC Name>  (1) 
N-[4-[2-[[(2S)-2-hydroxy-3-(4-hydroxyphenoxy)propyl]amino]ethyl]phenyl]-2-pyrazin-2-ylacetamide

$$$$
