
     RDKit          3D

 45 48  0  0  0  0  0  0  0  0999 V2000
   -5.1426   -3.3906   -1.1631 O   0  0  0  0  0  0  0  0  0  0  0  0
   -5.4335   -2.0364   -1.0932 C   0  0  0  0  0  0  0  0  0  0  0  0
   -5.0326   -1.4431    0.2411 C   0  0  1  0  0  0  0  0  0  0  0  0
   -3.6794   -1.6138    0.4069 O   0  0  0  0  0  0  0  0  0  0  0  0
   -3.1537   -0.4055    0.8493 C   0  0  2  0  0  0  0  0  0  0  0  0
   -3.8795    0.5605   -0.0650 C   0  0  1  0  0  0  0  0  0  0  0  0
   -5.2948    0.0596    0.1430 C   0  0  2  0  0  0  0  0  0  0  0  0
   -5.7635    0.5394    1.3641 O   0  0  0  0  0  0  0  0  0  0  0  0
   -3.8203    1.8800    0.3768 O   0  0  0  0  0  0  0  0  0  0  0  0
   -1.7255   -0.3880    0.6823 N   0  0  0  0  0  0  0  0  0  0  0  0
   -0.9592   -1.4967    0.7605 C   0  0  0  0  0  0  0  0  0  0  0  0
    0.3405   -1.1585    0.5601 N   0  0  0  0  0  0  0  0  0  0  0  0
    0.3887    0.1675    0.3554 C   0  0  0  0  0  0  0  0  0  0  0  0
   -0.9153    0.6568    0.4321 C   0  0  0  0  0  0  0  0  0  0  0  0
   -1.1460    1.9652    0.2622 N   0  0  0  0  0  0  0  0  0  0  0  0
   -0.1043    2.7816    0.0196 C   0  0  0  0  0  0  0  0  0  0  0  0
    1.1679    2.3338   -0.0596 N   0  0  0  0  0  0  0  0  0  0  0  0
    1.4540    1.0120    0.1060 C   0  0  0  0  0  0  0  0  0  0  0  0
    2.7847    0.5621    0.0203 N   0  0  0  0  0  0  0  0  0  0  0  0
    3.8953    1.4621   -0.2427 C   0  0  0  0  0  0  0  0  0  0  0  0
    5.1640    0.6626   -0.2687 C   0  0  0  0  0  0  0  0  0  0  0  0
    5.6078    0.1194   -1.4641 C   0  0  0  0  0  0  0  0  0  0  0  0
    6.7745   -0.6198   -1.5061 C   0  0  0  0  0  0  0  0  0  0  0  0
    7.4820   -0.8023   -0.3357 C   0  0  0  0  0  0  0  0  0  0  0  0
    7.0397   -0.2572    0.8725 C   0  0  0  0  0  0  0  0  0  0  0  0
    5.8594    0.4858    0.8933 C   0  0  0  0  0  0  0  0  0  0  0  0
    8.1510   -0.5568    2.6528 I   0  0  0  0  0  0  0  0  0  0  0  0
   -5.8679   -3.8426   -1.6771 H   0  0  0  0  0  0  0  0  0  0  0  0
   -4.9245   -1.4885   -1.8971 H   0  0  0  0  0  0  0  0  0  0  0  0
   -6.5424   -1.8993   -1.2525 H   0  0  0  0  0  0  0  0  0  0  0  0
   -5.6375   -1.8552    1.0706 H   0  0  0  0  0  0  0  0  0  0  0  0
   -3.4989   -0.1916    1.8709 H   0  0  0  0  0  0  0  0  0  0  0  0
   -3.5840    0.4376   -1.1263 H   0  0  0  0  0  0  0  0  0  0  0  0
   -5.9603    0.3102   -0.7045 H   0  0  0  0  0  0  0  0  0  0  0  0
   -5.1502    1.2348    1.7088 H   0  0  0  0  0  0  0  0  0  0  0  0
   -3.9002    2.4598   -0.4262 H   0  0  0  0  0  0  0  0  0  0  0  0
   -1.2532   -2.5148    0.9473 H   0  0  0  0  0  0  0  0  0  0  0  0
   -0.3467    3.8374   -0.1110 H   0  0  0  0  0  0  0  0  0  0  0  0
    2.9552   -0.4737    0.1563 H   0  0  0  0  0  0  0  0  0  0  0  0
    3.7023    1.9578   -1.2012 H   0  0  0  0  0  0  0  0  0  0  0  0
    3.8999    2.1795    0.6070 H   0  0  0  0  0  0  0  0  0  0  0  0
    5.0202    0.2847   -2.3744 H   0  0  0  0  0  0  0  0  0  0  0  0
    7.0850   -1.0263   -2.4614 H   0  0  0  0  0  0  0  0  0  0  0  0
    8.4062   -1.3889   -0.3737 H   0  0  0  0  0  0  0  0  0  0  0  0
    5.5375    0.8992    1.8479 H   0  0  0  0  0  0  0  0  0  0  0  0
  1  2  1  0
  2  3  1  0
  3  4  1  0
  4  5  1  0
  5  6  1  0
  6  7  1  0
  7  8  1  0
  6  9  1  0
  5 10  1  0
 10 11  1  0
 11 12  2  0
 12 13  1  0
 13 14  2  0
 14 15  1  0
 15 16  2  0
 16 17  1  0
 17 18  2  0
 18 19  1  0
 19 20  1  0
 20 21  1  0
 21 22  2  0
 22 23  1  0
 23 24  2  0
 24 25  1  0
 25 26  2  0
 25 27  1  0
  7  3  1  0
 14 10  1  0
 26 21  1  0
 18 13  1  0
  1 28  1  0
  2 29  1  0
  2 30  1  0
  3 31  1  1
  5 32  1  1
  6 33  1  6
  7 34  1  6
  8 35  1  0
  9 36  1  0
 11 37  1  0
 16 38  1  0
 19 39  1  0
 20 40  1  0
 20 41  1  0
 22 42  1  0
 23 43  1  0
 24 44  1  0
 26 45  1  0
M  END
>  <Ligand ID>  (1) 
LIG0002511

>  <Ligand>  (1) 
CHEMBL66393

>  <SMILES>  (1) 
OC[C@H]1O[C@H]([C@@H]([C@@H]1O)O)n1cnc2c1ncnc2NCc1cccc(c1)I

>  <CID>  (1) 
10254700.0

>  <ChEMBL ID>  (1) 
nan

>  <InChiKey>  (1) 
TWLWIJNPUVZDOB-LSCFUAHRSA-N

>  <InChi>  (1) 
InChI=1S/C17H18IN5O4/c18-10-3-1-2-9(4-10)5-19-15-12-16(21-7-20-15)23(8-22-12)17-14(26)13(25)11(6-24)27-17/h1-4,7-8,11,13-14,17,24-26H,5-6H2,(H,19,20,21)/t11-,13-,14-,17-/m1/s1

>  <IUPAC Name>  (1) 
(2R,3S,4R,5R)-2-(hydroxymethyl)-5-[6-[(3-iodophenyl)methylamino]purin-9-yl]oxolane-3,4-diol

$$$$
