
     RDKit          3D

 71 75  0  0  0  0  0  0  0  0999 V2000
   -0.0774   -0.2503   -2.4568 O   0  0  0  0  0  0  0  0  0  0  0  0
   -0.1613   -0.4606   -1.2203 C   0  0  0  0  0  0  0  0  0  0  0  0
    0.9574   -0.8664   -0.3851 C   0  0  0  0  0  0  0  0  0  0  0  0
    1.7513    0.1255    0.1987 C   0  0  0  0  0  0  0  0  0  0  0  0
    2.8195   -0.2411    0.9954 C   0  0  0  0  0  0  0  0  0  0  0  0
    3.1366   -1.5618    1.2398 C   0  0  0  0  0  0  0  0  0  0  0  0
    2.3387   -2.5224    0.6528 C   0  0  0  0  0  0  0  0  0  0  0  0
    1.2548   -2.1876   -0.1553 C   0  0  0  0  0  0  0  0  0  0  0  0
    0.5190   -3.2762   -0.6945 N   0  0  0  0  0  0  0  0  0  0  0  0
    0.2960   -3.7080   -2.0366 C   0  0  0  0  0  0  0  0  0  0  0  0
   -0.9773   -4.5591   -1.9721 C   0  0  0  0  0  0  0  0  0  0  0  0
   -0.6945   -5.3171   -0.6684 C   0  0  0  0  0  0  0  0  0  0  0  0
   -0.1949   -4.2095    0.1989 C   0  0  0  0  0  0  0  0  0  0  0  0
    3.8610    0.9605    1.7619 S   0  0  0  0  0  0  0  0  0  0  0  0
    3.0033    2.1705    2.0164 O   0  0  0  0  0  0  0  0  0  0  0  0
    4.3753    0.4472    3.0680 O   0  0  0  0  0  0  0  0  0  0  0  0
    5.1801    1.3782    0.7563 N   0  0  0  0  0  0  0  0  0  0  0  0
    4.8091    1.9565   -0.4705 C   0  0  0  0  0  0  0  0  0  0  0  0
    5.6825    2.9475   -1.1007 C   0  0  0  0  0  0  0  0  0  0  0  0
    6.9072    3.3549   -0.3542 C   0  0  0  0  0  0  0  0  0  0  0  0
    7.3647    2.2251    0.5640 C   0  0  0  0  0  0  0  0  0  0  0  0
    6.1940    2.0257    1.5078 C   0  0  0  0  0  0  0  0  0  0  0  0
   -1.4729   -0.2719   -0.6507 N   0  0  0  0  0  0  0  0  0  0  0  0
   -2.5323    0.1331   -1.5535 C   0  0  0  0  0  0  0  0  0  0  0  0
   -3.8591   -0.1806   -0.8498 C   0  0  0  0  0  0  0  0  0  0  0  0
   -3.8234    0.6561    0.3582 N   0  0  0  0  0  0  0  0  0  0  0  0
   -2.7311    0.5167    1.2867 C   0  0  0  0  0  0  0  0  0  0  0  0
   -1.7308   -0.4753    0.7608 C   0  0  0  0  0  0  0  0  0  0  0  0
   -4.8833    1.5776    0.5575 C   0  0  0  0  0  0  0  0  0  0  0  0
   -4.5705    2.9318    0.6447 C   0  0  0  0  0  0  0  0  0  0  0  0
   -5.6083    3.8319    0.8396 C   0  0  0  0  0  0  0  0  0  0  0  0
   -6.9139    3.3826    0.9428 C   0  0  0  0  0  0  0  0  0  0  0  0
   -7.2327    2.0404    0.8573 C   0  0  0  0  0  0  0  0  0  0  0  0
   -6.1879    1.1379    0.6614 C   0  0  0  0  0  0  0  0  0  0  0  0
   -6.5218   -0.3030    0.5688 C   0  0  0  0  0  0  0  0  0  0  0  0
    1.5512    1.1789    0.0431 H   0  0  0  0  0  0  0  0  0  0  0  0
    3.9881   -1.8357    1.8747 H   0  0  0  0  0  0  0  0  0  0  0  0
    2.5910   -3.5519    0.8472 H   0  0  0  0  0  0  0  0  0  0  0  0
    0.0928   -2.9377   -2.7771 H   0  0  0  0  0  0  0  0  0  0  0  0
    1.1301   -4.3870   -2.3323 H   0  0  0  0  0  0  0  0  0  0  0  0
   -1.8612   -3.9299   -1.7859 H   0  0  0  0  0  0  0  0  0  0  0  0
   -1.0397   -5.2175   -2.8404 H   0  0  0  0  0  0  0  0  0  0  0  0
    0.1178   -6.0658   -0.8894 H   0  0  0  0  0  0  0  0  0  0  0  0
   -1.6039   -5.7903   -0.2707 H   0  0  0  0  0  0  0  0  0  0  0  0
    0.4242   -4.5401    1.0413 H   0  0  0  0  0  0  0  0  0  0  0  0
   -1.0889   -3.6636    0.5878 H   0  0  0  0  0  0  0  0  0  0  0  0
    3.7933    2.4270   -0.3089 H   0  0  0  0  0  0  0  0  0  0  0  0
    4.5556    1.1045   -1.1691 H   0  0  0  0  0  0  0  0  0  0  0  0
    5.1515    3.8957   -1.3842 H   0  0  0  0  0  0  0  0  0  0  0  0
    6.0439    2.5431   -2.0852 H   0  0  0  0  0  0  0  0  0  0  0  0
    7.7387    3.6758   -1.0068 H   0  0  0  0  0  0  0  0  0  0  0  0
    6.6671    4.2035    0.3196 H   0  0  0  0  0  0  0  0  0  0  0  0
    7.4193    1.3192   -0.0819 H   0  0  0  0  0  0  0  0  0  0  0  0
    8.3068    2.4550    1.0667 H   0  0  0  0  0  0  0  0  0  0  0  0
    6.5003    1.3804    2.3463 H   0  0  0  0  0  0  0  0  0  0  0  0
    5.8548    2.9899    1.9453 H   0  0  0  0  0  0  0  0  0  0  0  0
   -2.4691    1.2418   -1.7066 H   0  0  0  0  0  0  0  0  0  0  0  0
   -2.5354   -0.4147   -2.4948 H   0  0  0  0  0  0  0  0  0  0  0  0
   -3.8371   -1.2460   -0.5798 H   0  0  0  0  0  0  0  0  0  0  0  0
   -4.6652    0.1132   -1.5212 H   0  0  0  0  0  0  0  0  0  0  0  0
   -3.1106    0.1643    2.2668 H   0  0  0  0  0  0  0  0  0  0  0  0
   -2.1904    1.4963    1.3857 H   0  0  0  0  0  0  0  0  0  0  0  0
   -2.1356   -1.5221    0.8670 H   0  0  0  0  0  0  0  0  0  0  0  0
   -0.8100   -0.3977    1.3693 H   0  0  0  0  0  0  0  0  0  0  0  0
   -3.5539    3.2924    0.5654 H   0  0  0  0  0  0  0  0  0  0  0  0
   -5.3888    4.8886    0.9103 H   0  0  0  0  0  0  0  0  0  0  0  0
   -7.7449    4.0769    1.0964 H   0  0  0  0  0  0  0  0  0  0  0  0
   -8.2453    1.6718    0.9355 H   0  0  0  0  0  0  0  0  0  0  0  0
   -7.4980   -0.4877    1.0867 H   0  0  0  0  0  0  0  0  0  0  0  0
   -5.7080   -0.9389    0.9409 H   0  0  0  0  0  0  0  0  0  0  0  0
   -6.7176   -0.6003   -0.5009 H   0  0  0  0  0  0  0  0  0  0  0  0
  1  2  2  0
  2  3  1  0
  3  4  2  0
  4  5  1  0
  5  6  2  0
  6  7  1  0
  7  8  2  0
  8  9  1  0
  9 10  1  0
 10 11  1  0
 11 12  1  0
 12 13  1  0
  5 14  1  0
 14 15  2  0
 14 16  2  0
 14 17  1  0
 17 18  1  0
 18 19  1  0
 19 20  1  0
 20 21  1  0
 21 22  1  0
  2 23  1  0
 23 24  1  0
 24 25  1  0
 25 26  1  0
 26 27  1  0
 27 28  1  0
 26 29  1  0
 29 30  2  0
 30 31  1  0
 31 32  2  0
 32 33  1  0
 33 34  2  0
 34 35  1  0
  8  3  1  0
 13  9  1  0
 22 17  1  0
 28 23  1  0
 34 29  1  0
  4 36  1  0
  6 37  1  0
  7 38  1  0
 10 39  1  0
 10 40  1  0
 11 41  1  0
 11 42  1  0
 12 43  1  0
 12 44  1  0
 13 45  1  0
 13 46  1  0
 18 47  1  0
 18 48  1  0
 19 49  1  0
 19 50  1  0
 20 51  1  0
 20 52  1  0
 21 53  1  0
 21 54  1  0
 22 55  1  0
 22 56  1  0
 24 57  1  0
 24 58  1  0
 25 59  1  0
 25 60  1  0
 27 61  1  0
 27 62  1  0
 28 63  1  0
 28 64  1  0
 30 65  1  0
 31 66  1  0
 32 67  1  0
 33 68  1  0
 35 69  1  0
 35 70  1  0
 35 71  1  0
M  END
>  <Ligand ID>  (1) 
LIG0001728

>  <Ligand>  (1) 
MLS-0435540.0001

>  <SMILES>  (1) 
O=C(c1cc(ccc1N1CCCC1)S(=O)(=O)N1CCCCC1)N1CCN(CC1)c1ccccc1C

>  <CID>  (1) 
17563969.0

>  <ChEMBL ID>  (1) 
nan

>  <InChiKey>  (1) 
DVXLIZQMENMCFX-UHFFFAOYSA-N

>  <InChi>  (1) 
InChI=1S/C27H36N4O3S/c1-22-9-3-4-10-25(22)29-17-19-30(20-18-29)27(32)24-21-23(11-12-26(24)28-13-7-8-14-28)35(33,34)31-15-5-2-6-16-31/h3-4,9-12,21H,2,5-8,13-20H2,1H3

>  <IUPAC Name>  (1) 
[4-(2-methylphenyl)piperazin-1-yl]-(5-piperidin-1-ylsulfonyl-2-pyrrolidin-1-ylphenyl)methanone

$$$$
