
     RDKit          3D

 50 54  0  0  0  0  0  0  0  0999 V2000
    6.9295   -0.6111   -3.9242 C   0  0  0  0  0  0  0  0  0  0  0  0
    6.0886    0.3913   -3.4507 O   0  0  0  0  0  0  0  0  0  0  0  0
    5.2273    0.2922   -2.3663 C   0  0  0  0  0  0  0  0  0  0  0  0
    5.0983   -0.8508   -1.6026 C   0  0  0  0  0  0  0  0  0  0  0  0
    4.2366   -0.9405   -0.5228 C   0  0  0  0  0  0  0  0  0  0  0  0
    3.4782    0.1892   -0.2167 C   0  0  0  0  0  0  0  0  0  0  0  0
    3.6053    1.3415   -0.9829 C   0  0  0  0  0  0  0  0  0  0  0  0
    4.4706    1.4152   -2.0584 C   0  0  0  0  0  0  0  0  0  0  0  0
    2.5600    0.2138    0.8709 N   0  0  0  0  0  0  0  0  0  0  0  0
    2.8506    0.3658    2.1645 N   0  0  0  0  0  0  0  0  0  0  0  0
    1.7227    0.3366    2.8819 C   0  0  0  0  0  0  0  0  0  0  0  0
    0.6877    0.1577    1.9843 C   0  0  0  0  0  0  0  0  0  0  0  0
    1.2327    0.0823    0.7209 C   0  0  0  0  0  0  0  0  0  0  0  0
   -0.6053    0.0921    2.4588 C   0  0  0  0  0  0  0  0  0  0  0  0
   -0.8174    0.2052    3.7867 N   0  0  0  0  0  0  0  0  0  0  0  0
    0.1821    0.3788    4.6624 N   0  0  0  0  0  0  0  0  0  0  0  0
    1.4491    0.4448    4.2163 C   0  0  0  0  0  0  0  0  0  0  0  0
    2.5268    0.6365    5.2065 C   0  0  0  0  0  0  0  0  0  0  0  0
   -1.7467   -0.0930    1.5710 C   0  0  0  0  0  0  0  0  0  0  0  0
   -2.8574    0.7344    1.7766 C   0  0  0  0  0  0  0  0  0  0  0  0
   -3.9870    0.6395    0.9957 C   0  0  0  0  0  0  0  0  0  0  0  0
   -3.9992   -0.3036   -0.0086 C   0  0  0  0  0  0  0  0  0  0  0  0
   -2.9136   -1.1364   -0.2349 C   0  0  0  0  0  0  0  0  0  0  0  0
   -1.7998   -1.0148    0.5646 C   0  0  0  0  0  0  0  0  0  0  0  0
   -5.1547   -0.4883   -0.9026 C   0  0  0  0  0  0  0  0  0  0  0  0
   -5.8867    0.6534   -1.1771 C   0  0  0  0  0  0  0  0  0  0  0  0
   -6.9783    0.4981   -2.0171 C   0  0  0  0  0  0  0  0  0  0  0  0
   -7.3348   -0.7176   -2.5616 C   0  0  0  0  0  0  0  0  0  0  0  0
   -6.5556   -1.8212   -2.2436 C   0  0  0  0  0  0  0  0  0  0  0  0
   -5.4605   -1.7262   -1.4149 C   0  0  0  0  0  0  0  0  0  0  0  0
    7.1602   -0.4647   -4.9961 H   0  0  0  0  0  0  0  0  0  0  0  0
    6.6051   -1.6399   -3.7369 H   0  0  0  0  0  0  0  0  0  0  0  0
    7.9189   -0.4621   -3.4041 H   0  0  0  0  0  0  0  0  0  0  0  0
    5.6979   -1.7304   -1.8520 H   0  0  0  0  0  0  0  0  0  0  0  0
    4.1283   -1.8308    0.0812 H   0  0  0  0  0  0  0  0  0  0  0  0
    3.0318    2.2383   -0.7745 H   0  0  0  0  0  0  0  0  0  0  0  0
    4.5550    2.3279   -2.6455 H   0  0  0  0  0  0  0  0  0  0  0  0
    0.7000   -0.0523   -0.1861 H   0  0  0  0  0  0  0  0  0  0  0  0
    2.6304    1.7165    5.4381 H   0  0  0  0  0  0  0  0  0  0  0  0
    2.4189    0.0095    6.1153 H   0  0  0  0  0  0  0  0  0  0  0  0
    3.4802    0.3179    4.7311 H   0  0  0  0  0  0  0  0  0  0  0  0
   -2.8264    1.4675    2.5705 H   0  0  0  0  0  0  0  0  0  0  0  0
   -4.8558    1.2766    1.1461 H   0  0  0  0  0  0  0  0  0  0  0  0
   -2.9252   -1.8880   -1.0361 H   0  0  0  0  0  0  0  0  0  0  0  0
   -0.9703   -1.6579    0.3883 H   0  0  0  0  0  0  0  0  0  0  0  0
   -5.6283    1.6272   -0.7610 H   0  0  0  0  0  0  0  0  0  0  0  0
   -7.5524    1.3775   -2.2361 H   0  0  0  0  0  0  0  0  0  0  0  0
   -8.1879   -0.8479   -3.2201 H   0  0  0  0  0  0  0  0  0  0  0  0
   -6.7856   -2.7970   -2.6392 H   0  0  0  0  0  0  0  0  0  0  0  0
   -4.8438   -2.5799   -1.1585 H   0  0  0  0  0  0  0  0  0  0  0  0
  1  2  1  0
  2  3  1  0
  3  4  2  0
  4  5  1  0
  5  6  2  0
  6  7  1  0
  7  8  2  0
  6  9  1  0
  9 10  1  0
 10 11  2  0
 11 12  1  0
 12 13  2  0
 12 14  1  0
 14 15  2  0
 15 16  1  0
 16 17  2  0
 17 18  1  0
 14 19  1  0
 19 20  2  0
 20 21  1  0
 21 22  2  0
 22 23  1  0
 23 24  2  0
 22 25  1  0
 25 26  2  0
 26 27  1  0
 27 28  2  0
 28 29  1  0
 29 30  2  0
  8  3  1  0
 13  9  1  0
 24 19  1  0
 30 25  1  0
 17 11  1  0
  1 31  1  0
  1 32  1  0
  1 33  1  0
  4 34  1  0
  5 35  1  0
  7 36  1  0
  8 37  1  0
 13 38  1  0
 18 39  1  0
 18 40  1  0
 18 41  1  0
 20 42  1  0
 21 43  1  0
 23 44  1  0
 24 45  1  0
 26 46  1  0
 27 47  1  0
 28 48  1  0
 29 49  1  0
 30 50  1  0
M  END
>  <Ligand ID>  (1) 
LIG0003983

>  <Ligand>  (1) 
MLS-0437171.0001

>  <SMILES>  (1) 
COc1ccc(cc1)n1nc2c(c1)c(nnc2C)c1ccc(cc1)c1ccccc1

>  <CID>  (1) 
1214658.0

>  <ChEMBL ID>  (1) 
nan

>  <InChiKey>  (1) 
SIQURXBDFQRPHT-UHFFFAOYSA-N

>  <InChi>  (1) 
InChI=1S/C25H20N4O/c1-17-24-23(16-29(28-24)21-12-14-22(30-2)15-13-21)25(27-26-17)20-10-8-19(9-11-20)18-6-4-3-5-7-18/h3-16H,1-2H3

>  <IUPAC Name>  (1) 
2-(4-methoxyphenyl)-7-methyl-4-(4-phenylphenyl)pyrazolo[3,4-d]pyridazine

$$$$
