
     RDKit          3D

 61 63  0  0  0  0  0  0  0  0999 V2000
    9.7490    1.7269    1.1582 C   0  0  0  0  0  0  0  0  0  0  0  0
   10.0528    0.5539   -0.1749 S   0  0  0  0  0  0  0  0  0  0  0  0
    9.5014   -1.1092    0.2440 C   0  0  0  0  0  0  0  0  0  0  0  0
    7.9874   -1.1637    0.3854 C   0  0  0  0  0  0  0  0  0  0  0  0
    7.4166   -0.7457   -0.9429 C   0  0  0  0  0  0  0  0  0  0  0  0
    5.9798   -0.7720   -0.9021 N   0  0  0  0  0  0  0  0  0  0  0  0
    5.1824   -0.0140   -0.0341 C   0  0  0  0  0  0  0  0  0  0  0  0
    5.7759    0.7616    0.7834 O   0  0  0  0  0  0  0  0  0  0  0  0
    3.7215   -0.0682   -0.0197 C   0  0  0  0  0  0  0  0  0  0  0  0
    2.9856   -0.8522   -0.8769 C   0  0  0  0  0  0  0  0  0  0  0  0
    1.6131   -0.8629   -0.8096 C   0  0  0  0  0  0  0  0  0  0  0  0
    0.8953   -0.1144    0.0908 C   0  0  0  0  0  0  0  0  0  0  0  0
    1.6376    0.6828    0.9626 C   0  0  0  0  0  0  0  0  0  0  0  0
    3.0144    0.6910    0.8923 C   0  0  0  0  0  0  0  0  0  0  0  0
   -0.4599   -0.0797    0.2104 O   0  0  0  0  0  0  0  0  0  0  0  0
   -1.4289   -0.7562   -0.5185 C   0  0  0  0  0  0  0  0  0  0  0  0
   -2.4001    0.1692   -1.2198 C   0  0  0  0  0  0  0  0  0  0  0  0
   -3.5574   -0.6739   -1.7047 C   0  0  0  0  0  0  0  0  0  0  0  0
   -4.3319   -1.1814   -0.6232 N   0  0  0  0  0  0  0  0  0  0  0  0
   -3.5877   -1.3224    0.6052 C   0  0  0  0  0  0  0  0  0  0  0  0
   -2.1951   -1.7670    0.3105 C   0  0  0  0  0  0  0  0  0  0  0  0
   -5.6115   -0.5962   -0.4170 C   0  0  0  0  0  0  0  0  0  0  0  0
   -5.5926    0.8392    0.0540 C   0  0  0  0  0  0  0  0  0  0  0  0
   -7.0185    1.2354    0.2067 C   0  0  0  0  0  0  0  0  0  0  0  0
   -7.5758    0.9985    1.4686 C   0  0  0  0  0  0  0  0  0  0  0  0
   -8.9078    1.3374    1.7070 C   0  0  0  0  0  0  0  0  0  0  0  0
   -9.6534    1.9011    0.6923 C   0  0  0  0  0  0  0  0  0  0  0  0
   -9.0871    2.1299   -0.5529 C   0  0  0  0  0  0  0  0  0  0  0  0
   -7.7769    1.7928   -0.7755 C   0  0  0  0  0  0  0  0  0  0  0  0
    9.4006    1.2115    2.0747 H   0  0  0  0  0  0  0  0  0  0  0  0
   10.7304    2.2131    1.4254 H   0  0  0  0  0  0  0  0  0  0  0  0
    9.0330    2.5015    0.8144 H   0  0  0  0  0  0  0  0  0  0  0  0
   10.0095   -1.4849    1.1543 H   0  0  0  0  0  0  0  0  0  0  0  0
    9.7712   -1.7823   -0.5951 H   0  0  0  0  0  0  0  0  0  0  0  0
    7.6609   -0.5291    1.2234 H   0  0  0  0  0  0  0  0  0  0  0  0
    7.6664   -2.1966    0.5913 H   0  0  0  0  0  0  0  0  0  0  0  0
    7.8228   -1.4392   -1.6948 H   0  0  0  0  0  0  0  0  0  0  0  0
    7.7543    0.2772   -1.2302 H   0  0  0  0  0  0  0  0  0  0  0  0
    5.4954   -1.4096   -1.5757 H   0  0  0  0  0  0  0  0  0  0  0  0
    3.4706   -1.4632   -1.6067 H   0  0  0  0  0  0  0  0  0  0  0  0
    1.0789   -1.4938   -1.5009 H   0  0  0  0  0  0  0  0  0  0  0  0
    1.1171    1.3010    1.7026 H   0  0  0  0  0  0  0  0  0  0  0  0
    3.5785    1.3122    1.5713 H   0  0  0  0  0  0  0  0  0  0  0  0
   -0.9312   -1.3608   -1.3310 H   0  0  0  0  0  0  0  0  0  0  0  0
   -2.7263    1.0141   -0.5781 H   0  0  0  0  0  0  0  0  0  0  0  0
   -1.8976    0.5760   -2.1400 H   0  0  0  0  0  0  0  0  0  0  0  0
   -3.0777   -1.5543   -2.2229 H   0  0  0  0  0  0  0  0  0  0  0  0
   -4.1456   -0.1720   -2.4914 H   0  0  0  0  0  0  0  0  0  0  0  0
   -4.0848   -2.1664    1.1627 H   0  0  0  0  0  0  0  0  0  0  0  0
   -3.6251   -0.4473    1.2653 H   0  0  0  0  0  0  0  0  0  0  0  0
   -1.6615   -1.8999    1.2909 H   0  0  0  0  0  0  0  0  0  0  0  0
   -2.2121   -2.7778   -0.1396 H   0  0  0  0  0  0  0  0  0  0  0  0
   -6.0931   -1.1810    0.4167 H   0  0  0  0  0  0  0  0  0  0  0  0
   -6.2699   -0.6707   -1.2963 H   0  0  0  0  0  0  0  0  0  0  0  0
   -5.1258    1.5203   -0.6746 H   0  0  0  0  0  0  0  0  0  0  0  0
   -5.0679    0.9710    1.0104 H   0  0  0  0  0  0  0  0  0  0  0  0
   -7.0046    0.5609    2.2628 H   0  0  0  0  0  0  0  0  0  0  0  0
   -9.3379    1.1468    2.7033 H   0  0  0  0  0  0  0  0  0  0  0  0
  -10.6983    2.1573    0.9081 H   0  0  0  0  0  0  0  0  0  0  0  0
   -9.6541    2.5641   -1.3400 H   0  0  0  0  0  0  0  0  0  0  0  0
   -7.3044    1.9612   -1.7454 H   0  0  0  0  0  0  0  0  0  0  0  0
  1  2  1  0
  2  3  1  0
  3  4  1  0
  4  5  1  0
  5  6  1  0
  6  7  1  0
  7  8  2  0
  7  9  1  0
  9 10  2  0
 10 11  1  0
 11 12  2  0
 12 13  1  0
 13 14  2  0
 12 15  1  0
 15 16  1  0
 16 17  1  0
 17 18  1  0
 18 19  1  0
 19 20  1  0
 20 21  1  0
 19 22  1  0
 22 23  1  0
 23 24  1  0
 24 25  2  0
 25 26  1  0
 26 27  2  0
 27 28  1  0
 28 29  2  0
 14  9  1  0
 21 16  1  0
 29 24  1  0
  1 30  1  0
  1 31  1  0
  1 32  1  0
  3 33  1  0
  3 34  1  0
  4 35  1  0
  4 36  1  0
  5 37  1  0
  5 38  1  0
  6 39  1  0
 10 40  1  0
 11 41  1  0
 13 42  1  0
 14 43  1  0
 16 44  1  0
 17 45  1  0
 17 46  1  0
 18 47  1  0
 18 48  1  0
 20 49  1  0
 20 50  1  0
 21 51  1  0
 21 52  1  0
 22 53  1  0
 22 54  1  0
 23 55  1  0
 23 56  1  0
 25 57  1  0
 26 58  1  0
 27 59  1  0
 28 60  1  0
 29 61  1  0
M  END
>  <Ligand ID>  (1) 
LIG0004972

>  <Ligand>  (1) 
MLS000733043

>  <SMILES>  (1) 
CSCCCNC(=O)c1ccc(cc1)OC1CCN(CC1)CCc1ccccc1

>  <CID>  (1) 
16191191.0

>  <ChEMBL ID>  (1) 
nan

>  <InChiKey>  (1) 
FRTPLUNTPKUTSJ-UHFFFAOYSA-N

>  <InChi>  (1) 
InChI=1S/C24H32N2O2S/c1-29-19-5-15-25-24(27)21-8-10-22(11-9-21)28-23-13-17-26(18-14-23)16-12-20-6-3-2-4-7-20/h2-4,6-11,23H,5,12-19H2,1H3,(H,25,27)

>  <IUPAC Name>  (1) 
N-(3-methylsulfanylpropyl)-4-[1-(2-phenylethyl)piperidin-4-yl]oxybenzamide

$$$$
