
     RDKit          3D

 43 46  0  0  0  0  0  0  0  0999 V2000
    0.5548    1.8780   -0.1054 O   0  0  0  0  0  0  0  0  0  0  0  0
    0.6364    0.7482   -0.6554 C   0  0  0  0  0  0  0  0  0  0  0  0
   -0.5031   -0.0368   -0.6229 C   0  0  0  0  0  0  0  0  0  0  0  0
   -1.6609    0.4385   -0.0023 C   0  0  0  0  0  0  0  0  0  0  0  0
   -2.7715   -0.3821    0.0035 C   0  0  0  0  0  0  0  0  0  0  0  0
   -2.7025   -1.6234   -0.5935 C   0  0  0  0  0  0  0  0  0  0  0  0
   -1.5828   -2.0835   -1.1939 N   0  0  0  0  0  0  0  0  0  0  0  0
   -0.4867   -1.2959   -1.2101 C   0  0  0  0  0  0  0  0  0  0  0  0
    0.6620   -1.6948   -1.7924 N   0  0  0  0  0  0  0  0  0  0  0  0
    1.7648   -0.9207   -1.8172 C   0  0  0  0  0  0  0  0  0  0  0  0
    2.7983   -1.3625   -2.3795 O   0  0  0  0  0  0  0  0  0  0  0  0
    1.7834    0.3163   -1.2525 N   0  0  0  0  0  0  0  0  0  0  0  0
    2.9515    1.1641   -1.2664 C   0  0  0  0  0  0  0  0  0  0  0  0
    3.8513    0.9970   -0.1235 C   0  0  0  0  0  0  0  0  0  0  0  0
    3.7261    1.7261    1.0466 C   0  0  0  0  0  0  0  0  0  0  0  0
    4.5778    1.5652    2.1221 C   0  0  0  0  0  0  0  0  0  0  0  0
    5.6106    0.6386    2.0496 C   0  0  0  0  0  0  0  0  0  0  0  0
    5.7577   -0.1007    0.8957 C   0  0  0  0  0  0  0  0  0  0  0  0
    4.8951    0.0663   -0.1860 C   0  0  0  0  0  0  0  0  0  0  0  0
    0.7217   -3.0033   -2.4171 C   0  0  0  0  0  0  0  0  0  0  0  0
   -3.9691    0.1292    0.6541 C   0  0  0  0  0  0  0  0  0  0  0  0
   -3.9668    0.9724    1.7279 C   0  0  0  0  0  0  0  0  0  0  0  0
   -5.1761    1.3951    2.2653 C   0  0  0  0  0  0  0  0  0  0  0  0
   -6.3770    0.9732    1.7271 C   0  0  0  0  0  0  0  0  0  0  0  0
   -6.3975    0.1280    0.6507 C   0  0  0  0  0  0  0  0  0  0  0  0
   -5.1843   -0.2779    0.1347 C   0  0  0  0  0  0  0  0  0  0  0  0
   -1.6637    1.4097    0.4472 H   0  0  0  0  0  0  0  0  0  0  0  0
   -3.6241   -2.2174   -0.5483 H   0  0  0  0  0  0  0  0  0  0  0  0
    2.6641    2.2440   -1.3412 H   0  0  0  0  0  0  0  0  0  0  0  0
    3.5791    0.9873   -2.1890 H   0  0  0  0  0  0  0  0  0  0  0  0
    2.9333    2.4633    1.1509 H   0  0  0  0  0  0  0  0  0  0  0  0
    4.4230    2.1711    3.0122 H   0  0  0  0  0  0  0  0  0  0  0  0
    6.2875    0.5054    2.8953 H   0  0  0  0  0  0  0  0  0  0  0  0
    6.5539   -0.8338    0.8035 H   0  0  0  0  0  0  0  0  0  0  0  0
    5.0673   -0.5457   -1.0598 H   0  0  0  0  0  0  0  0  0  0  0  0
    1.3812   -2.9920   -3.3126 H   0  0  0  0  0  0  0  0  0  0  0  0
   -0.2590   -3.3584   -2.7845 H   0  0  0  0  0  0  0  0  0  0  0  0
    1.1326   -3.7444   -1.7031 H   0  0  0  0  0  0  0  0  0  0  0  0
   -3.0102    1.2848    2.1263 H   0  0  0  0  0  0  0  0  0  0  0  0
   -5.1456    2.0634    3.1166 H   0  0  0  0  0  0  0  0  0  0  0  0
   -7.2723    1.3474    2.2028 H   0  0  0  0  0  0  0  0  0  0  0  0
   -7.3415   -0.1940    0.2400 H   0  0  0  0  0  0  0  0  0  0  0  0
   -5.2186   -0.9452   -0.7153 H   0  0  0  0  0  0  0  0  0  0  0  0
  1  2  2  0
  2  3  1  0
  3  4  2  0
  4  5  1  0
  5  6  2  0
  6  7  1  0
  7  8  2  0
  8  9  1  0
  9 10  1  0
 10 11  2  0
 10 12  1  0
 12 13  1  0
 13 14  1  0
 14 15  2  0
 15 16  1  0
 16 17  2  0
 17 18  1  0
 18 19  2  0
  9 20  1  0
  5 21  1  0
 21 22  2  0
 22 23  1  0
 23 24  2  0
 24 25  1  0
 25 26  2  0
 12  2  1  0
 19 14  1  0
 26 21  1  0
  8  3  1  0
  4 27  1  0
  6 28  1  0
 13 29  1  0
 13 30  1  0
 15 31  1  0
 16 32  1  0
 17 33  1  0
 18 34  1  0
 19 35  1  0
 20 36  1  0
 20 37  1  0
 20 38  1  0
 22 39  1  0
 23 40  1  0
 24 41  1  0
 25 42  1  0
 26 43  1  0
M  END
>  <Ligand ID>  (1) 
LIG0004583

>  <Ligand>  (1) 
CHEMBL155536

>  <SMILES>  (1) 
O=c1c2cc(cnc2n(c(=O)n1Cc1ccccc1)C)c1ccccc1

>  <CID>  (1) 
44370831.0

>  <ChEMBL ID>  (1) 
nan

>  <InChiKey>  (1) 
HMBCZJKPVZSWRE-UHFFFAOYSA-N

>  <InChi>  (1) 
InChI=1S/C21H17N3O2/c1-23-19-18(12-17(13-22-19)16-10-6-3-7-11-16)20(25)24(21(23)26)14-15-8-4-2-5-9-15/h2-13H,14H2,1H3

>  <IUPAC Name>  (1) 
3-benzyl-1-methyl-6-phenylpyrido[2,3-d]pyrimidine-2,4-dione

$$$$
