
     RDKit          3D

 27 28  0  0  0  0  0  0  0  0999 V2000
   -0.7302    2.6281    0.1619 C   0  0  0  0  0  0  0  0  0  0  0  0
   -0.7258    1.2213   -0.2456 C   0  0  2  0  0  0  0  0  0  0  0  0
   -1.6261    0.5341    0.8059 C   0  0  0  0  0  0  0  0  0  0  0  0
   -2.2336   -0.6527    0.4182 N   0  0  0  0  0  0  0  0  0  0  0  0
   -1.4673   -1.8524    0.5688 C   0  0  0  0  0  0  0  0  0  0  0  0
   -0.6005   -1.9396   -0.6643 C   0  0  0  0  0  0  0  0  0  0  0  0
    0.5072   -0.9679   -0.4770 C   0  0  0  0  0  0  0  0  0  0  0  0
    0.4696    0.4285   -0.2981 C   0  0  0  0  0  0  0  0  0  0  0  0
    1.6812    1.0405   -0.1654 C   0  0  0  0  0  0  0  0  0  0  0  0
    1.8249    2.7719    0.0506 Cl  0  0  0  0  0  0  0  0  0  0  0  0
    2.8972    0.3453   -0.2005 C   0  0  0  0  0  0  0  0  0  0  0  0
    2.9199   -1.0210   -0.3755 C   0  0  0  0  0  0  0  0  0  0  0  0
    1.7018   -1.6442   -0.5106 C   0  0  0  0  0  0  0  0  0  0  0  0
    4.4301    1.1646   -0.0263 Cl  0  0  0  0  0  0  0  0  0  0  0  0
   -0.4610    3.3530   -0.6360 H   0  0  0  0  0  0  0  0  0  0  0  0
   -1.8349    2.9535    0.2981 H   0  0  0  0  0  0  0  0  0  0  0  0
   -0.3502    2.8680    1.1732 H   0  0  0  0  0  0  0  0  0  0  0  0
   -1.3021    1.1150   -1.2054 H   0  0  0  0  0  0  0  0  0  0  0  0
   -2.4400    1.2763    1.0539 H   0  0  0  0  0  0  0  0  0  0  0  0
   -1.0180    0.3938    1.7070 H   0  0  0  0  0  0  0  0  0  0  0  0
   -2.9526   -0.6544   -0.2906 H   0  0  0  0  0  0  0  0  0  0  0  0
   -2.0557   -2.7458    0.7774 H   0  0  0  0  0  0  0  0  0  0  0  0
   -0.7863   -1.6969    1.4388 H   0  0  0  0  0  0  0  0  0  0  0  0
   -0.2335   -2.9567   -0.7263 H   0  0  0  0  0  0  0  0  0  0  0  0
   -1.1727   -1.6758   -1.5796 H   0  0  0  0  0  0  0  0  0  0  0  0
    3.8478   -1.5705   -0.4045 H   0  0  0  0  0  0  0  0  0  0  0  0
    1.7107   -2.7161   -0.6483 H   0  0  0  0  0  0  0  0  0  0  0  0
  1  2  1  0
  2  3  1  0
  3  4  1  0
  4  5  1  0
  5  6  1  0
  6  7  1  0
  7  8  2  0
  8  9  1  0
  9 10  1  0
  9 11  2  0
 11 12  1  0
 12 13  2  0
 11 14  1  0
  8  2  1  0
 13  7  1  0
  1 15  1  0
  1 16  1  0
  1 17  1  0
  2 18  1  6
  3 19  1  0
  3 20  1  0
  4 21  1  0
  5 22  1  0
  5 23  1  0
  6 24  1  0
  6 25  1  0
 12 26  1  0
 13 27  1  0
M  END
>  <Ligand ID>  (1) 
LIG0002179

>  <Ligand>  (1) 
CHEMBL181076

>  <SMILES>  (1) 
C[C@@H]1CNCCc2c1c(Cl)c(cc2)Cl

>  <CID>  (1) 
11608308.0

>  <ChEMBL ID>  (1) 
nan

>  <InChiKey>  (1) 
VUYGFWKOVMRUIC-SSDOTTSWSA-N

>  <InChi>  (1) 
InChI=1S/C11H13Cl2N/c1-7-6-14-5-4-8-2-3-9(12)11(13)10(7)8/h2-3,7,14H,4-6H2,1H3/t7-/m1/s1

>  <IUPAC Name>  (1) 
(5S)-6,7-dichloro-5-methyl-2,3,4,5-tetrahydro-1H-3-benzazepine

$$$$
