
     RDKit          3D

 53 57  0  0  0  0  0  0  0  0999 V2000
   -6.2098    1.6168   -2.2975 N   0  0  0  0  0  0  0  0  0  0  0  0
   -6.6125    1.2211   -1.2772 C   0  0  0  0  0  0  0  0  0  0  0  0
   -7.1069    0.7455   -0.0137 C   0  0  0  0  0  0  0  0  0  0  0  0
   -7.7826    1.6392    0.7736 C   0  0  0  0  0  0  0  0  0  0  0  0
   -8.2592    1.2188    1.9679 N   0  0  0  0  0  0  0  0  0  0  0  0
   -8.0943   -0.0354    2.4058 C   0  0  0  0  0  0  0  0  0  0  0  0
   -7.4051   -0.9371    1.5969 C   0  0  0  0  0  0  0  0  0  0  0  0
   -6.9047   -0.5486    0.3750 C   0  0  0  0  0  0  0  0  0  0  0  0
   -6.1488   -1.5207   -0.5169 C   0  0  0  0  0  0  0  0  0  0  0  0
   -4.8582   -1.3485   -0.5140 O   0  0  0  0  0  0  0  0  0  0  0  0
   -3.5883   -1.1393   -0.5256 C   0  0  0  0  0  0  0  0  0  0  0  0
   -2.6939   -2.1446   -0.1140 C   0  0  0  0  0  0  0  0  0  0  0  0
   -1.3567   -1.8823   -0.1416 N   0  0  0  0  0  0  0  0  0  0  0  0
   -0.9053   -0.6794   -0.5569 C   0  0  0  0  0  0  0  0  0  0  0  0
   -1.7363    0.3005   -0.9561 N   0  0  0  0  0  0  0  0  0  0  0  0
   -3.0737    0.1034   -0.9522 C   0  0  0  0  0  0  0  0  0  0  0  0
    0.4983   -0.4881   -0.5528 N   0  0  0  0  0  0  0  0  0  0  0  0
    1.3451   -1.5854   -0.1003 C   0  0  0  0  0  0  0  0  0  0  0  0
    2.6360   -1.0769    0.4909 C   0  0  0  0  0  0  0  0  0  0  0  0
    3.2940   -0.1255   -0.3944 N   0  0  0  0  0  0  0  0  0  0  0  0
    2.5019    0.4029   -1.4874 C   0  0  0  0  0  0  0  0  0  0  0  0
    1.1073    0.7561   -0.9807 C   0  0  1  0  0  0  0  0  0  0  0  0
    0.3180    1.3689   -2.0902 C   0  0  0  0  0  0  0  0  0  0  0  0
    4.6441    0.2834   -0.2200 C   0  0  0  0  0  0  0  0  0  0  0  0
    5.3568    1.1365   -0.9965 N   0  0  0  0  0  0  0  0  0  0  0  0
    6.5554    1.2502   -0.4984 O   0  0  0  0  0  0  0  0  0  0  0  0
    6.6906    0.5153    0.5789 C   0  0  0  0  0  0  0  0  0  0  0  0
    5.4966   -0.0876    0.7511 N   0  0  0  0  0  0  0  0  0  0  0  0
    7.9244    0.3901    1.4227 C   0  0  0  0  0  0  0  0  0  0  0  0
    8.7589    1.5929    1.4656 C   0  0  0  0  0  0  0  0  0  0  0  0
    9.2373    0.3431    0.7362 C   0  0  0  0  0  0  0  0  0  0  0  0
   -7.9366    2.6509    0.4610 H   0  0  0  0  0  0  0  0  0  0  0  0
   -8.4774   -0.3675    3.3629 H   0  0  0  0  0  0  0  0  0  0  0  0
   -7.2759   -1.9422    1.9544 H   0  0  0  0  0  0  0  0  0  0  0  0
   -6.4537   -2.5253   -0.0920 H   0  0  0  0  0  0  0  0  0  0  0  0
   -6.6761   -1.4847   -1.5266 H   0  0  0  0  0  0  0  0  0  0  0  0
   -3.0769   -3.0875    0.2098 H   0  0  0  0  0  0  0  0  0  0  0  0
   -3.7066    0.8953   -1.2733 H   0  0  0  0  0  0  0  0  0  0  0  0
    0.7902   -2.0871    0.7202 H   0  0  0  0  0  0  0  0  0  0  0  0
    1.5415   -2.3322   -0.8760 H   0  0  0  0  0  0  0  0  0  0  0  0
    2.4776   -0.5577    1.4571 H   0  0  0  0  0  0  0  0  0  0  0  0
    3.3422   -1.8957    0.6671 H   0  0  0  0  0  0  0  0  0  0  0  0
    2.3843   -0.2881   -2.3270 H   0  0  0  0  0  0  0  0  0  0  0  0
    2.9128    1.3586   -1.8730 H   0  0  0  0  0  0  0  0  0  0  0  0
    1.1616    1.4335   -0.1041 H   0  0  0  0  0  0  0  0  0  0  0  0
   -0.3808    2.1264   -1.6589 H   0  0  0  0  0  0  0  0  0  0  0  0
    0.9725    1.9724   -2.7778 H   0  0  0  0  0  0  0  0  0  0  0  0
   -0.1992    0.6465   -2.7471 H   0  0  0  0  0  0  0  0  0  0  0  0
    7.8673   -0.2390    2.3342 H   0  0  0  0  0  0  0  0  0  0  0  0
    8.5394    2.4327    0.7624 H   0  0  0  0  0  0  0  0  0  0  0  0
    9.2278    1.9023    2.4063 H   0  0  0  0  0  0  0  0  0  0  0  0
   10.0793   -0.2064    1.2051 H   0  0  0  0  0  0  0  0  0  0  0  0
    9.2584    0.3096   -0.3568 H   0  0  0  0  0  0  0  0  0  0  0  0
  1  2  3  0
  2  3  1  0
  3  4  2  0
  4  5  1  0
  5  6  2  0
  6  7  1  0
  7  8  2  0
  8  9  1  0
  9 10  1  0
 10 11  1  0
 11 12  2  0
 12 13  1  0
 13 14  2  0
 14 15  1  0
 15 16  2  0
 14 17  1  0
 17 18  1  0
 18 19  1  0
 19 20  1  0
 20 21  1  0
 21 22  1  0
 22 23  1  0
 20 24  1  0
 24 25  2  0
 25 26  1  0
 26 27  1  0
 27 28  2  0
 27 29  1  0
 29 30  1  0
 30 31  1  0
  8  3  1  0
 16 11  1  0
 22 17  1  0
 28 24  1  0
 31 29  1  0
  4 32  1  0
  6 33  1  0
  7 34  1  0
  9 35  1  0
  9 36  1  0
 12 37  1  0
 16 38  1  0
 18 39  1  0
 18 40  1  0
 19 41  1  0
 19 42  1  0
 21 43  1  0
 21 44  1  0
 22 45  1  1
 23 46  1  0
 23 47  1  0
 23 48  1  0
 29 49  1  0
 30 50  1  0
 30 51  1  0
 31 52  1  0
 31 53  1  0
M  END
>  <Ligand ID>  (1) 
LIG0005317

>  <Ligand>  (1) 
CHEMBL2086691

>  <SMILES>  (1) 
N#Cc1cnccc1COc1cnc(nc1)N1CCN(C[C@H]1C)c1noc(n1)C1CC1

>  <CID>  (1) 
51030987.0

>  <ChEMBL ID>  (1) 
nan

>  <InChiKey>  (1) 
NEUZVFSMXDYIRA-CQSZACIVSA-N

>  <InChi>  (1) 
InChI=1S/C21H22N8O2/c1-14-12-28(21-26-19(31-27-21)15-2-3-15)6-7-29(14)20-24-10-18(11-25-20)30-13-16-4-5-23-9-17(16)8-22/h4-5,9-11,14-15H,2-3,6-7,12-13H2,1H3/t14-/m1/s1

>  <IUPAC Name>  (1) 
4-[[2-[(2R)-4-(5-cyclopropyl-1,2,4-oxadiazol-3-yl)-2-methylpiperazin-1-yl]pyrimidin-5-yl]oxymethyl]pyridine-3-carbonitrile

$$$$
