
     RDKit          3D

 17 16  0  0  0  0  0  0  0  0999 V2000
   -1.7164    0.2921    0.8905 C   0  0  0  0  0  0  0  0  0  0  0  0
   -1.7188    0.2362   -0.6162 C   0  0  0  0  0  0  0  0  0  0  0  0
   -0.5685   -0.6063   -1.1345 C   0  0  0  0  0  0  0  0  0  0  0  0
    0.7347   -0.0202   -0.6913 C   0  0  0  0  0  0  0  0  0  0  0  0
    1.1643    0.9565   -1.3691 O   0  0  0  0  0  0  0  0  0  0  0  0
    1.4320   -0.5163    0.4018 O   0  0  0  0  0  0  0  0  0  0  0  0
    2.6670    0.0589    0.8071 C   0  0  0  0  0  0  0  0  0  0  0  0
   -2.0256   -0.6927    1.2928 H   0  0  0  0  0  0  0  0  0  0  0  0
   -0.7462    0.6207    1.3161 H   0  0  0  0  0  0  0  0  0  0  0  0
   -2.5205    0.9999    1.1949 H   0  0  0  0  0  0  0  0  0  0  0  0
   -1.6820    1.2604   -0.9870 H   0  0  0  0  0  0  0  0  0  0  0  0
   -2.6664   -0.2454   -0.9214 H   0  0  0  0  0  0  0  0  0  0  0  0
   -0.5789   -0.5988   -2.2337 H   0  0  0  0  0  0  0  0  0  0  0  0
   -0.7057   -1.6465   -0.7863 H   0  0  0  0  0  0  0  0  0  0  0  0
    3.4550   -0.7292    0.8357 H   0  0  0  0  0  0  0  0  0  0  0  0
    2.9666    0.8689    0.1419 H   0  0  0  0  0  0  0  0  0  0  0  0
    2.5096    0.3695    1.8587 H   0  0  0  0  0  0  0  0  0  0  0  0
  1  2  1  0
  2  3  1  0
  3  4  1  0
  4  5  2  0
  4  6  1  0
  6  7  1  0
  1  8  1  0
  1  9  1  0
  1 10  1  0
  2 11  1  0
  2 12  1  0
  3 13  1  0
  3 14  1  0
  7 15  1  0
  7 16  1  0
  7 17  1  0
M  END
>  <Ligand ID>  (1) 
LIG0000315

>  <Ligand>  (1) 
Methyl butanoate

>  <SMILES>  (1) 
CCCC(=O)OC

>  <CID>  (1) 
12180.0

>  <ChEMBL ID>  (1) 
nan

>  <InChiKey>  (1) 
UUIQMZJEGPQKFD-UHFFFAOYSA-N

>  <InChi>  (1) 
InChI=1S/C5H10O2/c1-3-4-5(6)7-2/h3-4H2,1-2H3

>  <IUPAC Name>  (1) 
methyl butanoate

$$$$
