
     RDKit          3D

 88 91  0  0  0  0  0  0  0  0999 V2000
    0.8764    6.6920   -0.2543 N   0  0  0  0  0  0  0  0  0  0  0  0
    1.2223    5.9188   -1.3951 C   0  0  0  0  0  0  0  0  0  0  0  0
    0.7425    4.7305   -1.6132 N   0  0  0  0  0  0  0  0  0  0  0  0
   -0.1954    4.1484   -0.6547 C   0  0  0  0  0  0  0  0  0  0  0  0
    0.5629    3.6885    0.5619 C   0  0  0  0  0  0  0  0  0  0  0  0
    1.5949    2.6610    0.2667 C   0  0  0  0  0  0  0  0  0  0  0  0
    1.0093    1.3520   -0.3053 C   0  0  1  0  0  0  0  0  0  0  0  0
    2.1762    0.4695   -0.5571 C   0  0  0  0  0  0  0  0  0  0  0  0
    2.9616    0.8820   -1.4847 O   0  0  0  0  0  0  0  0  0  0  0  0
    2.4765   -0.7276    0.1153 N   0  0  0  0  0  0  0  0  0  0  0  0
    3.6690   -1.4448   -0.2683 C   0  0  2  0  0  0  0  0  0  0  0  0
    3.3449   -2.8656   -0.4376 C   0  0  0  0  0  0  0  0  0  0  0  0
    4.2894   -3.6350   -0.8215 O   0  0  0  0  0  0  0  0  0  0  0  0
    2.0948   -3.4752   -0.2189 N   0  0  0  0  0  0  0  0  0  0  0  0
    4.7209   -1.3903    0.8351 C   0  0  0  0  0  0  0  0  0  0  0  0
    5.9623   -2.1211    0.4638 C   0  0  0  0  0  0  0  0  0  0  0  0
    6.4157   -3.3507    0.8939 C   0  0  0  0  0  0  0  0  0  0  0  0
    7.5847   -3.6509    0.3140 N   0  0  0  0  0  0  0  0  0  0  0  0
    7.9086   -2.6305   -0.4947 C   0  0  0  0  0  0  0  0  0  0  0  0
    6.9227   -1.6589   -0.4287 C   0  0  0  0  0  0  0  0  0  0  0  0
    7.0396   -0.5071   -1.1846 C   0  0  0  0  0  0  0  0  0  0  0  0
    8.1450   -0.3259   -2.0066 C   0  0  0  0  0  0  0  0  0  0  0  0
    9.1456   -1.2951   -2.0820 C   0  0  0  0  0  0  0  0  0  0  0  0
    9.0108   -2.4489   -1.3148 C   0  0  0  0  0  0  0  0  0  0  0  0
    0.1357    0.7500    0.6855 N   0  0  0  0  0  0  0  0  0  0  0  0
   -1.2808    0.6120    0.4909 C   0  0  0  0  0  0  0  0  0  0  0  0
   -1.8576    1.0046   -0.5610 O   0  0  0  0  0  0  0  0  0  0  0  0
   -2.1654   -0.0010    1.5217 C   0  0  1  0  0  0  0  0  0  0  0  0
   -3.5435    0.1276    1.0878 N   0  0  0  0  0  0  0  0  0  0  0  0
   -4.5593    0.7624    1.8427 C   0  0  0  0  0  0  0  0  0  0  0  0
   -4.3776    1.2771    2.9740 O   0  0  0  0  0  0  0  0  0  0  0  0
   -5.9198    0.8164    1.2514 C   0  0  2  0  0  0  0  0  0  0  0  0
   -6.8149   -0.0848    2.1113 C   0  0  0  0  0  0  0  0  0  0  0  0
   -8.1996   -0.0947    1.5968 C   0  0  0  0  0  0  0  0  0  0  0  0
   -9.2154    0.7251    1.9287 N   0  0  0  0  0  0  0  0  0  0  0  0
  -10.3186    0.3991    1.2417 C   0  0  0  0  0  0  0  0  0  0  0  0
  -10.0122   -0.6599    0.4434 N   0  0  0  0  0  0  0  0  0  0  0  0
   -8.7078   -0.9771    0.6509 C   0  0  0  0  0  0  0  0  0  0  0  0
   -5.9065    0.2605   -0.1023 N   0  0  0  0  0  0  0  0  0  0  0  0
   -1.8218   -1.4592    1.7401 C   0  0  0  0  0  0  0  0  0  0  0  0
   -2.0036   -2.2500    0.4965 C   0  0  0  0  0  0  0  0  0  0  0  0
   -1.0306   -2.3819   -0.4699 C   0  0  0  0  0  0  0  0  0  0  0  0
   -1.2748   -3.1445   -1.5893 C   0  0  0  0  0  0  0  0  0  0  0  0
   -2.4750   -3.7938   -1.7868 C   0  0  0  0  0  0  0  0  0  0  0  0
   -3.4613   -3.6721   -0.8286 C   0  0  0  0  0  0  0  0  0  0  0  0
   -3.1943   -2.9098    0.2728 C   0  0  0  0  0  0  0  0  0  0  0  0
    2.1313    6.4667   -2.3409 N   0  0  0  0  0  0  0  0  0  0  0  0
   -0.1211    6.9516   -0.0266 H   0  0  0  0  0  0  0  0  0  0  0  0
    1.5948    7.0373    0.4120 H   0  0  0  0  0  0  0  0  0  0  0  0
   -0.8598    3.4268   -1.1083 H   0  0  0  0  0  0  0  0  0  0  0  0
   -0.8231    5.0197   -0.3016 H   0  0  0  0  0  0  0  0  0  0  0  0
    1.0441    4.6004    0.9809 H   0  0  0  0  0  0  0  0  0  0  0  0
   -0.2285    3.3097    1.2754 H   0  0  0  0  0  0  0  0  0  0  0  0
    2.2727    3.0721   -0.5256 H   0  0  0  0  0  0  0  0  0  0  0  0
    2.2599    2.4365    1.1202 H   0  0  0  0  0  0  0  0  0  0  0  0
    0.5415    1.6223   -1.2421 H   0  0  0  0  0  0  0  0  0  0  0  0
    1.8185   -1.0365    0.8648 H   0  0  0  0  0  0  0  0  0  0  0  0
    4.0612   -0.9519   -1.1913 H   0  0  0  0  0  0  0  0  0  0  0  0
    1.5849   -3.2934    0.6950 H   0  0  0  0  0  0  0  0  0  0  0  0
    1.6064   -4.1068   -0.8878 H   0  0  0  0  0  0  0  0  0  0  0  0
    4.8965   -0.3240    1.0379 H   0  0  0  0  0  0  0  0  0  0  0  0
    4.2880   -1.9525    1.6879 H   0  0  0  0  0  0  0  0  0  0  0  0
    5.8599   -3.9507    1.6046 H   0  0  0  0  0  0  0  0  0  0  0  0
    8.1148   -4.5376    0.4914 H   0  0  0  0  0  0  0  0  0  0  0  0
    6.2593    0.2364   -1.1207 H   0  0  0  0  0  0  0  0  0  0  0  0
    8.2339    0.5819   -2.6013 H   0  0  0  0  0  0  0  0  0  0  0  0
   10.0109   -1.1342   -2.7347 H   0  0  0  0  0  0  0  0  0  0  0  0
    9.8019   -3.1729   -1.4005 H   0  0  0  0  0  0  0  0  0  0  0  0
    0.5705    0.4074    1.5684 H   0  0  0  0  0  0  0  0  0  0  0  0
   -2.0383    0.5306    2.4604 H   0  0  0  0  0  0  0  0  0  0  0  0
   -3.7706   -0.2936    0.1379 H   0  0  0  0  0  0  0  0  0  0  0  0
   -6.3269    1.8499    1.2034 H   0  0  0  0  0  0  0  0  0  0  0  0
   -6.7320    0.1690    3.1677 H   0  0  0  0  0  0  0  0  0  0  0  0
   -6.3858   -1.1145    1.9639 H   0  0  0  0  0  0  0  0  0  0  0  0
   -9.1984    1.5180    2.6156 H   0  0  0  0  0  0  0  0  0  0  0  0
  -11.3106    0.8517    1.2653 H   0  0  0  0  0  0  0  0  0  0  0  0
   -8.1588   -1.7813    0.1614 H   0  0  0  0  0  0  0  0  0  0  0  0
   -5.7808   -0.7683    0.0062 H   0  0  0  0  0  0  0  0  0  0  0  0
   -6.8270    0.4951   -0.5492 H   0  0  0  0  0  0  0  0  0  0  0  0
   -0.8119   -1.5366    2.1405 H   0  0  0  0  0  0  0  0  0  0  0  0
   -2.5388   -1.8501    2.4848 H   0  0  0  0  0  0  0  0  0  0  0  0
   -0.1063   -1.8538   -0.2882 H   0  0  0  0  0  0  0  0  0  0  0  0
   -0.4829   -3.2218   -2.3222 H   0  0  0  0  0  0  0  0  0  0  0  0
   -2.6748   -4.3984   -2.6724 H   0  0  0  0  0  0  0  0  0  0  0  0
   -4.4278   -4.1547   -0.9161 H   0  0  0  0  0  0  0  0  0  0  0  0
   -3.9708   -2.8181    1.0200 H   0  0  0  0  0  0  0  0  0  0  0  0
    3.0231    6.9572   -2.0558 H   0  0  0  0  0  0  0  0  0  0  0  0
    1.9240    6.3904   -3.3632 H   0  0  0  0  0  0  0  0  0  0  0  0
  1  2  1  0
  2  3  2  3
  3  4  1  0
  4  5  1  0
  5  6  1  0
  6  7  1  0
  7  8  1  0
  8  9  2  0
  8 10  1  0
 10 11  1  0
 11 12  1  0
 12 13  2  0
 12 14  1  0
 11 15  1  0
 15 16  1  0
 16 17  2  0
 17 18  1  0
 18 19  1  0
 19 20  2  0
 20 21  1  0
 21 22  2  0
 22 23  1  0
 23 24  2  0
  7 25  1  0
 25 26  1  0
 26 27  2  0
 26 28  1  0
 28 29  1  0
 29 30  1  0
 30 31  2  0
 30 32  1  0
 32 33  1  0
 33 34  1  0
 34 35  1  0
 35 36  1  0
 36 37  2  0
 37 38  1  0
 32 39  1  0
 28 40  1  0
 40 41  1  0
 41 42  2  0
 42 43  1  0
 43 44  2  0
 44 45  1  0
 45 46  2  0
  2 47  1  0
 20 16  1  0
 38 34  2  0
 46 41  1  0
 24 19  1  0
  1 48  1  0
  1 49  1  0
  4 50  1  0
  4 51  1  0
  5 52  1  0
  5 53  1  0
  6 54  1  0
  6 55  1  0
  7 56  1  6
 10 57  1  0
 11 58  1  6
 14 59  1  0
 14 60  1  0
 15 61  1  0
 15 62  1  0
 17 63  1  0
 18 64  1  0
 21 65  1  0
 22 66  1  0
 23 67  1  0
 24 68  1  0
 25 69  1  0
 28 70  1  1
 29 71  1  0
 32 72  1  6
 33 73  1  0
 33 74  1  0
 35 75  1  0
 36 76  1  0
 38 77  1  0
 39 78  1  0
 39 79  1  0
 40 80  1  0
 40 81  1  0
 42 82  1  0
 43 83  1  0
 44 84  1  0
 45 85  1  0
 46 86  1  0
 47 87  1  0
 47 88  1  0
M  END
>  <Ligand ID>  (1) 
LIG0002637

>  <Ligand>  (1) 
CHEMBL89270

>  <SMILES>  (1) 
NC(=NCCC[C@@H](C(=O)N[C@H](C(=O)N)Cc1c[nH]c2c1cccc2)NC(=O)[C@@H](NC(=O)[C@H](Cc1[nH]cnc1)N)Cc1ccccc1)N

>  <CID>  (1) 
16126683.0

>  <ChEMBL ID>  (1) 
nan

>  <InChiKey>  (1) 
OVIZBCMXCJAPHP-MNUOIFNESA-N

>  <InChi>  (1) 
InChI=1S/C32H41N11O4/c33-23(15-21-17-37-18-40-21)29(45)43-27(13-19-7-2-1-3-8-19)31(47)41-25(11-6-12-38-32(35)36)30(46)42-26(28(34)44)14-20-16-39-24-10-5-4-9-22(20)24/h1-5,7-10,16-18,23,25-27,39H,6,11-15,33H2,(H2,34,44)(H,37,40)(H,41,47)(H,42,46)(H,43,45)(H4,35,36,38)/t23-,25-,26-,27-/m0/s1

>  <IUPAC Name>  (1) 
(2S)-2-[[(2S)-2-[[(2S)-2-amino-3-(1H-imidazol-5-yl)propanoyl]amino]-3-phenylpropanoyl]amino]-N-[(2S)-1-amino-3-(1H-indol-3-yl)-1-oxopropan-2-yl]-5-(diaminomethylideneamino)pentanamide

$$$$
