
     RDKit          3D

 51 54  0  0  0  0  0  0  0  0999 V2000
    7.4650   -1.7174   -0.5028 C   0  0  0  0  0  0  0  0  0  0  0  0
    6.3485   -1.7524   -1.5193 C   0  0  0  0  0  0  0  0  0  0  0  0
    5.0527   -1.1663   -0.9653 C   0  0  0  0  0  0  0  0  0  0  0  0
    5.3561    0.4917   -0.4693 S   0  0  0  0  0  0  0  0  0  0  0  0
    5.9182    1.2518   -1.6642 O   0  0  0  0  0  0  0  0  0  0  0  0
    6.4528    0.4479    0.6109 O   0  0  0  0  0  0  0  0  0  0  0  0
    3.9961    1.3116    0.1479 N   0  0  0  0  0  0  0  0  0  0  0  0
    2.8000    1.6086   -0.5375 C   0  0  0  0  0  0  0  0  0  0  0  0
    2.8596    1.9768   -1.8792 C   0  0  0  0  0  0  0  0  0  0  0  0
    1.7521    2.3403   -2.5923 C   0  0  0  0  0  0  0  0  0  0  0  0
    0.5258    2.3358   -1.9332 C   0  0  0  0  0  0  0  0  0  0  0  0
    0.3986    1.9818   -0.6058 C   0  0  0  0  0  0  0  0  0  0  0  0
    1.5516    1.6253    0.0533 C   0  0  0  0  0  0  0  0  0  0  0  0
    1.4746    1.2465    1.3404 F   0  0  0  0  0  0  0  0  0  0  0  0
   -0.9180    2.0313   -0.0188 C   0  0  0  0  0  0  0  0  0  0  0  0
   -1.8860    2.3856   -0.7893 O   0  0  0  0  0  0  0  0  0  0  0  0
   -1.3017    1.7282    1.3350 C   0  0  0  0  0  0  0  0  0  0  0  0
   -0.8417    2.1307    2.5595 C   0  0  0  0  0  0  0  0  0  0  0  0
   -1.6081    1.5546    3.5353 N   0  0  0  0  0  0  0  0  0  0  0  0
   -2.5525    0.7890    2.9688 C   0  0  0  0  0  0  0  0  0  0  0  0
   -2.3919    0.8743    1.6111 C   0  0  0  0  0  0  0  0  0  0  0  0
   -3.2768    0.1759    0.7815 C   0  0  0  0  0  0  0  0  0  0  0  0
   -4.2974   -0.5913    1.3169 C   0  0  0  0  0  0  0  0  0  0  0  0
   -4.4244   -0.6533    2.6902 C   0  0  0  0  0  0  0  0  0  0  0  0
   -3.5474    0.0393    3.4730 N   0  0  0  0  0  0  0  0  0  0  0  0
   -5.2172   -1.2906    0.4101 C   0  0  0  0  0  0  0  0  0  0  0  0
   -6.5139   -1.4651    0.8232 C   0  0  0  0  0  0  0  0  0  0  0  0
   -7.3929   -2.1085   -0.0061 C   0  0  0  0  0  0  0  0  0  0  0  0
   -7.0420   -2.5993   -1.2539 C   0  0  0  0  0  0  0  0  0  0  0  0
   -5.7383   -2.4188   -1.6597 C   0  0  0  0  0  0  0  0  0  0  0  0
   -4.8216   -1.7609   -0.8228 C   0  0  0  0  0  0  0  0  0  0  0  0
   -8.2620   -3.3855   -2.2225 Cl  0  0  0  0  0  0  0  0  0  0  0  0
   -0.5433    2.7115   -2.6954 F   0  0  0  0  0  0  0  0  0  0  0  0
    8.0398   -0.7456   -0.6071 H   0  0  0  0  0  0  0  0  0  0  0  0
    7.0649   -1.7538    0.5111 H   0  0  0  0  0  0  0  0  0  0  0  0
    8.2134   -2.5177   -0.7097 H   0  0  0  0  0  0  0  0  0  0  0  0
    6.6750   -1.2102   -2.4325 H   0  0  0  0  0  0  0  0  0  0  0  0
    6.1993   -2.8229   -1.8306 H   0  0  0  0  0  0  0  0  0  0  0  0
    4.2098   -1.2610   -1.6481 H   0  0  0  0  0  0  0  0  0  0  0  0
    4.8318   -1.8175   -0.0699 H   0  0  0  0  0  0  0  0  0  0  0  0
    4.0366    1.6404    1.1547 H   0  0  0  0  0  0  0  0  0  0  0  0
    3.8370    1.9683   -2.3632 H   0  0  0  0  0  0  0  0  0  0  0  0
    1.8293    2.6198   -3.6203 H   0  0  0  0  0  0  0  0  0  0  0  0
   -0.0107    2.8225    2.7625 H   0  0  0  0  0  0  0  0  0  0  0  0
   -1.4751    1.6962    4.5829 H   0  0  0  0  0  0  0  0  0  0  0  0
   -3.1765    0.2271   -0.3013 H   0  0  0  0  0  0  0  0  0  0  0  0
   -5.2202   -1.2381    3.1414 H   0  0  0  0  0  0  0  0  0  0  0  0
   -6.7956   -1.0863    1.7894 H   0  0  0  0  0  0  0  0  0  0  0  0
   -8.4012   -2.2314    0.3416 H   0  0  0  0  0  0  0  0  0  0  0  0
   -5.4505   -2.8001   -2.6276 H   0  0  0  0  0  0  0  0  0  0  0  0
   -3.7814   -1.6189   -1.1265 H   0  0  0  0  0  0  0  0  0  0  0  0
  1  2  1  0
  2  3  1  0
  3  4  1  0
  4  5  2  0
  4  6  2  0
  4  7  1  0
  7  8  1  0
  8  9  2  0
  9 10  1  0
 10 11  2  0
 11 12  1  0
 12 13  2  0
 13 14  1  0
 12 15  1  0
 15 16  2  0
 15 17  1  0
 17 18  2  0
 18 19  1  0
 19 20  1  0
 20 21  2  0
 21 22  1  0
 22 23  2  0
 23 24  1  0
 24 25  2  0
 23 26  1  0
 26 27  2  0
 27 28  1  0
 28 29  2  0
 29 30  1  0
 30 31  2  0
 29 32  1  0
 11 33  1  0
 13  8  1  0
 21 17  1  0
 31 26  1  0
 25 20  1  0
  1 34  1  0
  1 35  1  0
  1 36  1  0
  2 37  1  0
  2 38  1  0
  3 39  1  0
  3 40  1  0
  7 41  1  0
  9 42  1  0
 10 43  1  0
 18 44  1  0
 19 45  1  0
 22 46  1  0
 24 47  1  0
 27 48  1  0
 28 49  1  0
 30 50  1  0
 31 51  1  0
M  END
>  <Ligand ID>  (1) 
LIG0004359

>  <Ligand>  (1) 
Vemurafenib

>  <SMILES>  (1) 
CCCS(=O)(=O)Nc1ccc(c(c1F)C(=O)c1c[nH]c2c1cc(cn2)c1ccc(cc1)Cl)F

>  <CID>  (1) 
42611257.0

>  <ChEMBL ID>  (1) 
nan

>  <InChiKey>  (1) 
GPXBXXGIAQBQNI-UHFFFAOYSA-N

>  <InChi>  (1) 
InChI=1S/C23H18ClF2N3O3S/c1-2-9-33(31,32)29-19-8-7-18(25)20(21(19)26)22(30)17-12-28-23-16(17)10-14(11-27-23)13-3-5-15(24)6-4-13/h3-8,10-12,29H,2,9H2,1H3,(H,27,28)

>  <IUPAC Name>  (1) 
N-[3-[5-(4-chlorophenyl)-1H-pyrrolo[2,3-b]pyridine-3-carbonyl]-2,4-difluorophenyl]propane-1-sulfonamide

$$$$
