
     RDKit          3D

 27 28  0  0  0  0  0  0  0  0999 V2000
    3.3515    1.4960    0.0466 C   0  0  0  0  0  0  0  0  0  0  0  0
    3.0975    0.3119   -0.0173 C   0  0  0  0  0  0  0  0  0  0  0  0
    2.7716   -1.1373   -0.0836 C   0  0  0  0  0  0  0  0  0  0  0  0
    1.5323   -1.2639    0.5042 O   0  0  0  0  0  0  0  0  0  0  0  0
    0.5200   -0.5743   -0.0740 C   0  0  1  0  0  0  0  0  0  0  0  0
   -0.5771   -1.3864   -0.6701 C   0  0  0  0  0  0  0  0  0  0  0  0
   -1.7997   -0.6334   -0.6100 N   0  0  0  0  0  0  0  0  0  0  0  0
   -2.2592   -0.7230    0.7742 C   0  0  0  0  0  0  0  0  0  0  0  0
   -1.2719    0.0655    1.5923 C   0  0  0  0  0  0  0  0  0  0  0  0
   -0.0648    0.5169    0.7824 C   0  0  0  0  0  0  0  0  0  0  0  0
   -0.6749    1.5330   -0.1927 C   0  0  0  0  0  0  0  0  0  0  0  0
   -1.6751    0.7325   -1.0041 C   0  0  0  0  0  0  0  0  0  0  0  0
    3.5603    2.5326    0.0987 H   0  0  0  0  0  0  0  0  0  0  0  0
    3.5799   -1.6225    0.4592 H   0  0  0  0  0  0  0  0  0  0  0  0
    2.8297   -1.4165   -1.1427 H   0  0  0  0  0  0  0  0  0  0  0  0
    1.0013   -0.0402   -0.9491 H   0  0  0  0  0  0  0  0  0  0  0  0
   -0.4051   -1.6069   -1.7584 H   0  0  0  0  0  0  0  0  0  0  0  0
   -0.7362   -2.3617   -0.1766 H   0  0  0  0  0  0  0  0  0  0  0  0
   -2.2379   -1.8120    1.0061 H   0  0  0  0  0  0  0  0  0  0  0  0
   -3.2985   -0.3703    0.8414 H   0  0  0  0  0  0  0  0  0  0  0  0
   -1.7982    1.0128    1.8943 H   0  0  0  0  0  0  0  0  0  0  0  0
   -0.9984   -0.4045    2.5511 H   0  0  0  0  0  0  0  0  0  0  0  0
    0.6482    0.9627    1.4728 H   0  0  0  0  0  0  0  0  0  0  0  0
   -1.0990    2.3980    0.3211 H   0  0  0  0  0  0  0  0  0  0  0  0
    0.1807    1.7824   -0.8792 H   0  0  0  0  0  0  0  0  0  0  0  0
   -1.5072    0.8034   -2.0967 H   0  0  0  0  0  0  0  0  0  0  0  0
   -2.6699    1.2053   -0.8155 H   0  0  0  0  0  0  0  0  0  0  0  0
  1  2  3  0
  2  3  1  0
  3  4  1  0
  4  5  1  0
  5  6  1  0
  6  7  1  0
  7  8  1  0
  8  9  1  0
  9 10  1  0
 10 11  1  0
 11 12  1  0
 10  5  1  0
 12  7  1  0
  1 13  1  0
  3 14  1  0
  3 15  1  0
  5 16  1  6
  6 17  1  0
  6 18  1  0
  8 19  1  0
  8 20  1  0
  9 21  1  0
  9 22  1  0
 10 23  1  0
 11 24  1  0
 11 25  1  0
 12 26  1  0
 12 27  1  0
M  END
>  <Ligand ID>  (1) 
LIG0000811

>  <Ligand>  (1) 
Talsaclidine

>  <SMILES>  (1) 
C#CCO[C@H]1CN2CCC1CC2

>  <CID>  (1) 
71792.0

>  <ChEMBL ID>  (1) 
nan

>  <InChiKey>  (1) 
XVFJONKUSLSKSW-JTQLQIEISA-N

>  <InChi>  (1) 
InChI=1S/C10H15NO/c1-2-7-12-10-8-11-5-3-9(10)4-6-11/h1,9-10H,3-8H2/t10-/m0/s1

>  <IUPAC Name>  (1) 
(3R)-3-prop-2-ynoxy-1-azabicyclo[2.2.2]octane

$$$$
