
     RDKit          3D

 27 28  0  0  0  0  0  0  0  0999 V2000
    4.3198    1.9158   -0.1281 Cl  0  0  0  0  0  0  0  0  0  0  0  0
    2.9194    0.8763   -0.2042 C   0  0  0  0  0  0  0  0  0  0  0  0
    3.0858   -0.4539   -0.5759 C   0  0  0  0  0  0  0  0  0  0  0  0
    1.9614   -1.2782   -0.6343 C   0  0  0  0  0  0  0  0  0  0  0  0
    0.6969   -0.8185   -0.3366 C   0  0  0  0  0  0  0  0  0  0  0  0
    0.5317    0.5014    0.0323 C   0  0  0  0  0  0  0  0  0  0  0  0
    1.6355    1.3460    0.0988 C   0  0  0  0  0  0  0  0  0  0  0  0
   -0.6861    1.2251    0.3925 C   0  0  0  0  0  0  0  0  0  0  0  0
   -1.2759    2.0664   -0.7081 C   0  0  0  0  0  0  0  0  0  0  0  0
   -1.7385    0.3707    1.0505 C   0  0  0  0  0  0  0  0  0  0  0  0
   -2.1958   -0.7244    0.2403 N   0  0  0  0  0  0  0  0  0  0  0  0
   -1.3756   -1.8801    0.5502 C   0  0  0  0  0  0  0  0  0  0  0  0
   -0.2738   -1.9180   -0.4886 C   0  0  0  0  0  0  0  0  0  0  0  0
    4.0656   -0.8543   -0.8181 H   0  0  0  0  0  0  0  0  0  0  0  0
    2.1178   -2.3260   -0.9306 H   0  0  0  0  0  0  0  0  0  0  0  0
    1.5021    2.3796    0.3883 H   0  0  0  0  0  0  0  0  0  0  0  0
   -0.3910    1.9572    1.1959 H   0  0  0  0  0  0  0  0  0  0  0  0
   -1.1249    3.1648   -0.5622 H   0  0  0  0  0  0  0  0  0  0  0  0
   -2.3981    1.9541   -0.6675 H   0  0  0  0  0  0  0  0  0  0  0  0
   -0.9075    1.7911   -1.7042 H   0  0  0  0  0  0  0  0  0  0  0  0
   -2.5844    1.0417    1.3139 H   0  0  0  0  0  0  0  0  0  0  0  0
   -1.2963    0.0357    2.0138 H   0  0  0  0  0  0  0  0  0  0  0  0
   -3.2212   -0.9281    0.3923 H   0  0  0  0  0  0  0  0  0  0  0  0
   -0.9006   -1.8121    1.5366 H   0  0  0  0  0  0  0  0  0  0  0  0
   -1.9222   -2.8355    0.4530 H   0  0  0  0  0  0  0  0  0  0  0  0
   -0.7796   -1.8916   -1.4885 H   0  0  0  0  0  0  0  0  0  0  0  0
    0.2355   -2.9053   -0.4114 H   0  0  0  0  0  0  0  0  0  0  0  0
  1  2  1  0
  2  3  2  0
  3  4  1  0
  4  5  2  0
  5  6  1  0
  6  7  2  0
  6  8  1  0
  8  9  1  0
  8 10  1  0
 10 11  1  0
 11 12  1  0
 12 13  1  0
  7  2  1  0
 13  5  1  0
  3 14  1  0
  4 15  1  0
  7 16  1  0
  8 17  1  0
  9 18  1  0
  9 19  1  0
  9 20  1  0
 10 21  1  0
 10 22  1  0
 11 23  1  0
 12 24  1  0
 12 25  1  0
 13 26  1  0
 13 27  1  0
M  END
>  <Ligand ID>  (1) 
LIG0004020

>  <Ligand>  (1) 
616201-80-0

>  <SMILES>  (1) 
Clc1ccc2c(c1)C(C)CNCC2

>  <CID>  (1) 
10465263.0

>  <ChEMBL ID>  (1) 
nan

>  <InChiKey>  (1) 
XTTZERNUQAFMOF-UHFFFAOYSA-N

>  <InChi>  (1) 
InChI=1S/C11H14ClN/c1-8-7-13-5-4-9-2-3-10(12)6-11(8)9/h2-3,6,8,13H,4-5,7H2,1H3

>  <IUPAC Name>  (1) 
7-chloro-5-methyl-2,3,4,5-tetrahydro-1H-3-benzazepine

$$$$
