
     RDKit          3D

135138  0  0  0  0  0  0  0  0999 V2000
    8.6578   -1.9616   -0.3144 N   0  0  0  0  0  0  0  0  0  0  0  0
    9.1789   -2.0143   -1.6253 C   0  0  0  0  0  0  0  0  0  0  0  0
    8.9668   -0.8049   -2.4899 C   0  0  0  0  0  0  0  0  0  0  0  0
    7.5628   -0.4137   -2.7322 C   0  0  0  0  0  0  0  0  0  0  0  0
    6.7431    0.0031   -1.5494 C   0  0  1  0  0  0  0  0  0  0  0  0
    7.1807    1.1810   -0.8270 C   0  0  0  0  0  0  0  0  0  0  0  0
    6.3556    2.1857   -0.8490 O   0  0  0  0  0  0  0  0  0  0  0  0
    8.3533    1.4155   -0.1050 N   0  0  0  0  0  0  0  0  0  0  0  0
    8.5984    2.6808    0.5385 C   0  0  0  0  0  0  0  0  0  0  0  0
    7.5829    3.0533    1.5539 C   0  0  0  0  0  0  0  0  0  0  0  0
    7.7732    4.1668    2.1408 O   0  0  0  0  0  0  0  0  0  0  0  0
    6.4618    2.2661    1.8879 N   0  0  0  0  0  0  0  0  0  0  0  0
    5.3291    0.1571   -1.9899 N   0  0  0  0  0  0  0  0  0  0  0  0
    4.4849   -1.0153   -1.9194 C   0  0  0  0  0  0  0  0  0  0  0  0
    4.9286   -2.1213   -1.5226 O   0  0  0  0  0  0  0  0  0  0  0  0
    3.0510   -0.9313   -2.3214 C   0  0  2  0  0  0  0  0  0  0  0  0
    2.9529   -1.4070   -3.7593 C   0  0  0  0  0  0  0  0  0  0  0  0
    3.3077   -0.1659   -4.5307 C   0  0  0  0  0  0  0  0  0  0  0  0
    2.5850    0.8921   -3.7331 C   0  0  0  0  0  0  0  0  0  0  0  0
    2.5784    0.4188   -2.3615 N   0  0  0  0  0  0  0  0  0  0  0  0
    2.2091    1.1910   -1.2578 C   0  0  0  0  0  0  0  0  0  0  0  0
    1.9111    2.4190   -1.4941 O   0  0  0  0  0  0  0  0  0  0  0  0
    2.1195    0.7766    0.1542 C   0  0  2  0  0  0  0  0  0  0  0  0
    3.1992    1.5330    0.9635 C   0  0  0  0  0  0  0  0  0  0  0  0
    2.6552    3.2853    0.8394 S   0  0  0  0  0  0  0  0  0  0  0  0
    1.0792    3.7033    2.1346 S   0  0  0  0  0  0  0  0  0  0  0  0
   -0.5774    3.3583    1.5119 C   0  0  0  0  0  0  0  0  0  0  0  0
   -1.5549    3.9873    2.4809 C   0  0  2  0  0  0  0  0  0  0  0  0
   -1.2202    3.5762    3.8608 N   0  0  0  0  0  0  0  0  0  0  0  0
   -2.9625    3.6016    2.2623 C   0  0  0  0  0  0  0  0  0  0  0  0
   -3.6903    3.4442    3.2542 O   0  0  0  0  0  0  0  0  0  0  0  0
   -3.5866    3.3797    1.0055 N   0  0  0  0  0  0  0  0  0  0  0  0
   -5.0186    3.0338    0.9183 C   0  0  1  0  0  0  0  0  0  0  0  0
   -5.7222    3.8802   -0.0868 C   0  0  0  0  0  0  0  0  0  0  0  0
   -7.1659    3.5719   -0.1990 C   0  0  0  0  0  0  0  0  0  0  0  0
   -8.0427    4.2554    0.6501 C   0  0  0  0  0  0  0  0  0  0  0  0
   -9.4024    4.0502    0.6271 C   0  0  0  0  0  0  0  0  0  0  0  0
   -9.9044    3.1342   -0.2707 C   0  0  0  0  0  0  0  0  0  0  0  0
   -9.0604    2.4330   -1.1338 C   0  0  0  0  0  0  0  0  0  0  0  0
   -7.6836    2.6582   -1.0924 C   0  0  0  0  0  0  0  0  0  0  0  0
  -11.2876    2.9256   -0.2938 O   0  0  0  0  0  0  0  0  0  0  0  0
   -5.1781    1.5652    0.7143 C   0  0  0  0  0  0  0  0  0  0  0  0
   -6.2509    0.9695    0.5825 O   0  0  0  0  0  0  0  0  0  0  0  0
   -4.0209    0.6916    0.6551 N   0  0  0  0  0  0  0  0  0  0  0  0
   -4.1169   -0.7373    0.4628 C   0  0  2  0  0  0  0  0  0  0  0  0
   -3.5157   -1.4819    1.5974 C   0  0  0  0  0  0  0  0  0  0  0  0
   -3.1649   -0.9292    2.6487 O   0  0  0  0  0  0  0  0  0  0  0  0
   -3.2832   -2.9004    1.5722 N   0  0  0  0  0  0  0  0  0  0  0  0
   -2.6924   -3.5789    2.7540 C   0  0  2  0  0  0  0  0  0  0  0  0
   -1.1826   -3.4700    2.6143 C   0  0  0  0  0  0  0  0  0  0  0  0
   -0.3839   -3.8329    3.4752 O   0  0  0  0  0  0  0  0  0  0  0  0
   -0.6410   -2.9243    1.4312 N   0  0  0  0  0  0  0  0  0  0  0  0
    0.7929   -2.6720    1.1959 C   0  0  2  0  0  0  0  0  0  0  0  0
    0.9631   -1.2541    0.8383 C   0  0  0  0  0  0  0  0  0  0  0  0
   -0.0493   -0.5321    0.8448 O   0  0  0  0  0  0  0  0  0  0  0  0
    2.1817   -0.5931    0.4770 N   0  0  0  0  0  0  0  0  0  0  0  0
    1.2799   -3.6758    0.2194 C   0  0  0  0  0  0  0  0  0  0  0  0
    0.5876   -3.6359   -1.0698 C   0  0  0  0  0  0  0  0  0  0  0  0
    0.9313   -4.5308   -1.9237 O   0  0  0  0  0  0  0  0  0  0  0  0
   -0.4076   -2.7392   -1.4894 N   0  0  0  0  0  0  0  0  0  0  0  0
   -3.1434   -4.9638    2.8844 C   0  0  0  0  0  0  0  0  0  0  0  0
   -2.5479   -5.6477    4.0860 C   0  0  0  0  0  0  0  0  0  0  0  0
   -2.8683   -5.0301    5.3751 C   0  0  0  0  0  0  0  0  0  0  0  0
   -3.6096   -4.0344    5.5540 O   0  0  0  0  0  0  0  0  0  0  0  0
   -2.2955   -5.5933    6.5745 N   0  0  0  0  0  0  0  0  0  0  0  0
   -3.3671   -1.0947   -0.7952 C   0  0  0  0  0  0  0  0  0  0  0  0
   -3.9397   -0.3963   -1.9836 C   0  0  0  0  0  0  0  0  0  0  0  0
   -3.4754    0.8682   -2.3476 C   0  0  0  0  0  0  0  0  0  0  0  0
   -3.9912    1.5199   -3.4465 C   0  0  0  0  0  0  0  0  0  0  0  0
   -4.9812    0.9350   -4.2151 C   0  0  0  0  0  0  0  0  0  0  0  0
   -5.4639   -0.3276   -3.8749 C   0  0  0  0  0  0  0  0  0  0  0  0
   -4.9234   -0.9607   -2.7586 C   0  0  0  0  0  0  0  0  0  0  0  0
    8.1272   -2.7991   -0.0098 H   0  0  0  0  0  0  0  0  0  0  0  0
    9.3737   -1.6903    0.3719 H   0  0  0  0  0  0  0  0  0  0  0  0
    8.9024   -2.9558   -2.1792 H   0  0  0  0  0  0  0  0  0  0  0  0
   10.3054   -2.1219   -1.5231 H   0  0  0  0  0  0  0  0  0  0  0  0
    9.6488   -0.0030   -2.1410 H   0  0  0  0  0  0  0  0  0  0  0  0
    9.3895   -1.0301   -3.5412 H   0  0  0  0  0  0  0  0  0  0  0  0
    7.5533    0.3491   -3.5461 H   0  0  0  0  0  0  0  0  0  0  0  0
    7.0505   -1.2980   -3.1936 H   0  0  0  0  0  0  0  0  0  0  0  0
    6.7010   -0.8794   -0.8834 H   0  0  0  0  0  0  0  0  0  0  0  0
    9.0562    0.6703   -0.0229 H   0  0  0  0  0  0  0  0  0  0  0  0
    9.5648    2.6099    1.1038 H   0  0  0  0  0  0  0  0  0  0  0  0
    8.6484    3.4742   -0.2409 H   0  0  0  0  0  0  0  0  0  0  0  0
    5.5686    2.7780    2.0914 H   0  0  0  0  0  0  0  0  0  0  0  0
    6.4457    1.2292    1.9500 H   0  0  0  0  0  0  0  0  0  0  0  0
    4.9749    1.0733   -2.3329 H   0  0  0  0  0  0  0  0  0  0  0  0
    2.4837   -1.6368   -1.7338 H   0  0  0  0  0  0  0  0  0  0  0  0
    3.6231   -2.2653   -3.9724 H   0  0  0  0  0  0  0  0  0  0  0  0
    1.8885   -1.6369   -3.9693 H   0  0  0  0  0  0  0  0  0  0  0  0
    4.3977    0.0104   -4.6287 H   0  0  0  0  0  0  0  0  0  0  0  0
    2.9010   -0.2718   -5.5526 H   0  0  0  0  0  0  0  0  0  0  0  0
    1.5323    0.9239   -4.1384 H   0  0  0  0  0  0  0  0  0  0  0  0
    2.9885    1.8975   -3.8529 H   0  0  0  0  0  0  0  0  0  0  0  0
    1.1521    1.1884    0.5207 H   0  0  0  0  0  0  0  0  0  0  0  0
    4.1871    1.3587    0.5624 H   0  0  0  0  0  0  0  0  0  0  0  0
    3.0323    1.2347    2.0179 H   0  0  0  0  0  0  0  0  0  0  0  0
   -0.7765    2.2980    1.3638 H   0  0  0  0  0  0  0  0  0  0  0  0
   -0.6732    3.9084    0.5497 H   0  0  0  0  0  0  0  0  0  0  0  0
   -1.5026    5.0926    2.4615 H   0  0  0  0  0  0  0  0  0  0  0  0
   -1.4984    4.3187    4.5125 H   0  0  0  0  0  0  0  0  0  0  0  0
   -1.7165    2.6843    4.0348 H   0  0  0  0  0  0  0  0  0  0  0  0
   -2.9781    3.4760    0.1948 H   0  0  0  0  0  0  0  0  0  0  0  0
   -5.4230    3.3166    1.9379 H   0  0  0  0  0  0  0  0  0  0  0  0
   -5.2234    3.8813   -1.0846 H   0  0  0  0  0  0  0  0  0  0  0  0
   -5.6430    4.9562    0.2437 H   0  0  0  0  0  0  0  0  0  0  0  0
   -7.6119    4.9832    1.3591 H   0  0  0  0  0  0  0  0  0  0  0  0
  -10.0259    4.6157    1.3156 H   0  0  0  0  0  0  0  0  0  0  0  0
   -9.4848    1.7092   -1.8406 H   0  0  0  0  0  0  0  0  0  0  0  0
   -7.0182    2.1232   -1.7632 H   0  0  0  0  0  0  0  0  0  0  0  0
  -11.7685    2.9825    0.5908 H   0  0  0  0  0  0  0  0  0  0  0  0
   -3.1336    1.1834    0.7616 H   0  0  0  0  0  0  0  0  0  0  0  0
   -5.1825   -1.0519    0.3773 H   0  0  0  0  0  0  0  0  0  0  0  0
   -3.5453   -3.3660    0.7162 H   0  0  0  0  0  0  0  0  0  0  0  0
   -2.9370   -2.9521    3.6286 H   0  0  0  0  0  0  0  0  0  0  0  0
   -1.2974   -2.6940    0.6871 H   0  0  0  0  0  0  0  0  0  0  0  0
    1.3620   -2.8509    2.1422 H   0  0  0  0  0  0  0  0  0  0  0  0
    2.9995   -1.2129    0.5082 H   0  0  0  0  0  0  0  0  0  0  0  0
    1.0431   -4.6934    0.6598 H   0  0  0  0  0  0  0  0  0  0  0  0
    2.3859   -3.6111    0.0616 H   0  0  0  0  0  0  0  0  0  0  0  0
   -1.3543   -3.1245   -1.6791 H   0  0  0  0  0  0  0  0  0  0  0  0
   -0.1431   -1.7356   -1.5939 H   0  0  0  0  0  0  0  0  0  0  0  0
   -2.7474   -5.5316    1.9858 H   0  0  0  0  0  0  0  0  0  0  0  0
   -4.2503   -5.0938    2.8461 H   0  0  0  0  0  0  0  0  0  0  0  0
   -2.9164   -6.7320    4.1229 H   0  0  0  0  0  0  0  0  0  0  0  0
   -1.4457   -5.7697    3.9788 H   0  0  0  0  0  0  0  0  0  0  0  0
   -2.1174   -5.0086    7.4175 H   0  0  0  0  0  0  0  0  0  0  0  0
   -2.0461   -6.6148    6.6191 H   0  0  0  0  0  0  0  0  0  0  0  0
   -3.4106   -2.1870   -1.0017 H   0  0  0  0  0  0  0  0  0  0  0  0
   -2.2992   -0.8277   -0.6969 H   0  0  0  0  0  0  0  0  0  0  0  0
   -2.6997    1.3415   -1.7564 H   0  0  0  0  0  0  0  0  0  0  0  0
   -3.6649    2.5038   -3.7748 H   0  0  0  0  0  0  0  0  0  0  0  0
   -5.4016    1.4405   -5.0933 H   0  0  0  0  0  0  0  0  0  0  0  0
   -6.2466   -0.8223   -4.4615 H   0  0  0  0  0  0  0  0  0  0  0  0
   -5.2735   -1.9406   -2.4653 H   0  0  0  0  0  0  0  0  0  0  0  0
  1  2  1  0
  2  3  1  0
  3  4  1  0
  4  5  1  0
  5  6  1  0
  6  7  2  0
  6  8  1  0
  8  9  1  0
  9 10  1  0
 10 11  2  0
 10 12  1  0
  5 13  1  0
 13 14  1  0
 14 15  2  0
 14 16  1  0
 16 17  1  0
 17 18  1  0
 18 19  1  0
 19 20  1  0
 20 21  1  0
 21 22  2  0
 21 23  1  0
 23 24  1  0
 24 25  1  0
 25 26  1  0
 26 27  1  0
 27 28  1  0
 28 29  1  0
 28 30  1  0
 30 31  2  0
 30 32  1  0
 32 33  1  0
 33 34  1  0
 34 35  1  0
 35 36  2  0
 36 37  1  0
 37 38  2  0
 38 39  1  0
 39 40  2  0
 38 41  1  0
 33 42  1  0
 42 43  2  0
 42 44  1  0
 44 45  1  0
 45 46  1  0
 46 47  2  0
 46 48  1  0
 48 49  1  0
 49 50  1  0
 50 51  2  0
 50 52  1  0
 52 53  1  0
 53 54  1  0
 54 55  2  0
 54 56  1  0
 53 57  1  0
 57 58  1  0
 58 59  2  0
 58 60  1  0
 49 61  1  0
 61 62  1  0
 62 63  1  0
 63 64  2  0
 63 65  1  0
 45 66  1  0
 66 67  1  0
 67 68  2  0
 68 69  1  0
 69 70  2  0
 70 71  1  0
 71 72  2  0
 20 16  1  0
 56 23  1  0
 72 67  1  0
 40 35  1  0
  1 73  1  0
  1 74  1  0
  2 75  1  0
  2 76  1  0
  3 77  1  0
  3 78  1  0
  4 79  1  0
  4 80  1  0
  5 81  1  1
  8 82  1  0
  9 83  1  0
  9 84  1  0
 12 85  1  0
 12 86  1  0
 13 87  1  0
 16 88  1  1
 17 89  1  0
 17 90  1  0
 18 91  1  0
 18 92  1  0
 19 93  1  0
 19 94  1  0
 23 95  1  1
 24 96  1  0
 24 97  1  0
 27 98  1  0
 27 99  1  0
 28100  1  1
 29101  1  0
 29102  1  0
 32103  1  0
 33104  1  1
 34105  1  0
 34106  1  0
 36107  1  0
 37108  1  0
 39109  1  0
 40110  1  0
 41111  1  0
 44112  1  0
 45113  1  6
 48114  1  0
 49115  1  1
 52116  1  0
 53117  1  1
 56118  1  0
 57119  1  0
 57120  1  0
 60121  1  0
 60122  1  0
 61123  1  0
 61124  1  0
 62125  1  0
 62126  1  0
 65127  1  0
 65128  1  0
 66129  1  0
 66130  1  0
 68131  1  0
 69132  1  0
 70133  1  0
 71134  1  0
 72135  1  0
M  END
>  <Ligand ID>  (1) 
LIG0000840

>  <Ligand>  (1) 
ORNIPRESSIN

>  <SMILES>  (1) 
NCCC[C@@H](C(=O)NCC(=O)N)NC(=O)[C@@H]1CCCN1C(=O)[C@@H]1CSSC[C@H](N)C(=O)N[C@@H](Cc2ccc(cc2)O)C(=O)N[C@H](C(=O)N[C@H](C(=O)N[C@H](C(=O)N1)CC(=O)N)CCC(=O)N)Cc1ccccc1

>  <CID>  (1) 
14257660.0

>  <ChEMBL ID>  (1) 
nan

>  <InChiKey>  (1) 
MUNMIGOEDGHVLE-LGYYRGKSSA-N

>  <InChi>  (1) 
InChI=1S/C45H63N13O12S2/c46-16-4-8-28(39(64)51-21-37(50)62)53-44(69)34-9-5-17-58(34)45(70)33-23-72-71-22-27(47)38(63)54-30(19-25-10-12-26(59)13-11-25)42(67)55-31(18-24-6-2-1-3-7-24)41(66)52-29(14-15-35(48)60)40(65)56-32(20-36(49)61)43(68)57-33/h1-3,6-7,10-13,27-34,59H,4-5,8-9,14-23,46-47H2,(H2,48,60)(H2,49,61)(H2,50,62)(H,51,64)(H,52,66)(H,53,69)(H,54,63)(H,55,67)(H,56,65)(H,57,68)/t27-,28-,29-,30-,31-,32-,33-,34-/m0/s1

>  <IUPAC Name>  (1) 
(2S)-N-[(2S)-5-amino-1-[(2-amino-2-oxoethyl)amino]-1-oxopentan-2-yl]-1-[(4R,7S,10S,13S,16S,19R)-19-amino-7-(2-amino-2-oxoethyl)-10-(3-amino-3-oxopropyl)-13-benzyl-16-[(4-hydroxyphenyl)methyl]-6,9,12,15,18-pentaoxo-1,2-dithia-5,8,11,14,17-pentazacycloicosane-4-carbonyl]pyrrolidine-2-carboxamide

$$$$
