
     RDKit          3D

 63 65  0  0  0  0  0  0  0  0999 V2000
    7.9453   -1.6369    0.1122 C   0  0  0  0  0  0  0  0  0  0  0  0
    6.9221   -0.5723    0.5166 C   0  0  0  0  0  0  0  0  0  0  0  0
    6.2699   -0.1196   -0.7513 C   0  0  0  0  0  0  0  0  0  0  0  0
    5.2638    0.9142   -0.5222 C   0  0  0  0  0  0  0  0  0  0  0  0
    3.9179    0.5301   -0.4576 C   0  0  0  0  0  0  0  0  0  0  0  0
    2.9065    1.4173   -0.2149 C   0  0  0  0  0  0  0  0  0  0  0  0
    3.2506    2.7394   -0.0293 C   0  0  0  0  0  0  0  0  0  0  0  0
    4.5710    3.1169   -0.0934 C   0  0  0  0  0  0  0  0  0  0  0  0
    5.6096    2.2255   -0.3399 C   0  0  0  0  0  0  0  0  0  0  0  0
    6.9547    2.7536   -0.4160 C   0  0  0  0  0  0  0  0  0  0  0  0
    7.1342    4.0029   -0.2080 O   0  0  0  0  0  0  0  0  0  0  0  0
    8.0934    2.0337   -0.6983 O   0  0  0  0  0  0  0  0  0  0  0  0
    1.4967    1.0536   -0.1381 C   0  0  0  0  0  0  0  0  0  0  0  0
    0.6430    1.7662    0.6908 C   0  0  0  0  0  0  0  0  0  0  0  0
   -0.7064    1.4662    0.8014 C   0  0  0  0  0  0  0  0  0  0  0  0
   -1.1989    0.4130    0.0488 C   0  0  0  0  0  0  0  0  0  0  0  0
   -0.3655   -0.3217   -0.7926 C   0  0  0  0  0  0  0  0  0  0  0  0
    0.9743   -0.0042   -0.8862 C   0  0  0  0  0  0  0  0  0  0  0  0
   -2.6463    0.0901    0.1492 C   0  0  0  0  0  0  0  0  0  0  0  0
   -2.8381   -0.8918    1.2730 C   0  0  0  0  0  0  0  0  0  0  0  0
   -4.2273   -1.2101    1.3832 N   0  0  0  0  0  0  0  0  0  0  0  0
   -4.7867   -1.9801    0.3275 C   0  0  0  0  0  0  0  0  0  0  0  0
   -6.2666   -2.2452    0.5481 C   0  0  1  0  0  0  0  0  0  0  0  0
   -7.0141   -0.9500    0.6278 C   0  0  0  0  0  0  0  0  0  0  0  0
   -7.2365   -0.2877    1.8131 C   0  0  0  0  0  0  0  0  0  0  0  0
   -7.9283    0.8741    1.7366 N   0  0  0  0  0  0  0  0  0  0  0  0
   -8.3830    1.3714    0.5677 C   0  0  0  0  0  0  0  0  0  0  0  0
   -8.1709    0.7205   -0.6463 C   0  0  0  0  0  0  0  0  0  0  0  0
   -7.4732   -0.4593   -0.5995 C   0  0  0  0  0  0  0  0  0  0  0  0
   -7.2210   -1.1786   -1.8154 N   0  0  0  0  0  0  0  0  0  0  0  0
   -6.7670   -3.0201   -0.5018 O   0  0  0  0  0  0  0  0  0  0  0  0
    5.8570   -1.2447    1.3888 C   0  0  0  0  0  0  0  0  0  0  0  0
    8.6070   -1.8724    0.9694 H   0  0  0  0  0  0  0  0  0  0  0  0
    7.3822   -2.5385   -0.2377 H   0  0  0  0  0  0  0  0  0  0  0  0
    8.5469   -1.2311   -0.7029 H   0  0  0  0  0  0  0  0  0  0  0  0
    7.4528    0.1814    1.0989 H   0  0  0  0  0  0  0  0  0  0  0  0
    6.9886    0.2276   -1.5333 H   0  0  0  0  0  0  0  0  0  0  0  0
    5.7434   -1.0304   -1.1648 H   0  0  0  0  0  0  0  0  0  0  0  0
    3.6810   -0.5101   -0.6065 H   0  0  0  0  0  0  0  0  0  0  0  0
    2.4712    3.4588    0.1633 H   0  0  0  0  0  0  0  0  0  0  0  0
    4.7737    4.1750    0.0614 H   0  0  0  0  0  0  0  0  0  0  0  0
    8.9501    2.5096   -0.9110 H   0  0  0  0  0  0  0  0  0  0  0  0
    0.9922    2.5936    1.2929 H   0  0  0  0  0  0  0  0  0  0  0  0
   -1.3768    2.0252    1.4502 H   0  0  0  0  0  0  0  0  0  0  0  0
   -0.8272   -1.1304   -1.3465 H   0  0  0  0  0  0  0  0  0  0  0  0
    1.6273   -0.5831   -1.5472 H   0  0  0  0  0  0  0  0  0  0  0  0
   -3.0143   -0.3535   -0.7788 H   0  0  0  0  0  0  0  0  0  0  0  0
   -3.2612    0.9791    0.3913 H   0  0  0  0  0  0  0  0  0  0  0  0
   -2.4264   -0.4662    2.2161 H   0  0  0  0  0  0  0  0  0  0  0  0
   -2.2042   -1.7898    1.0757 H   0  0  0  0  0  0  0  0  0  0  0  0
   -4.7719   -0.3540    1.6258 H   0  0  0  0  0  0  0  0  0  0  0  0
   -4.6834   -1.4348   -0.6414 H   0  0  0  0  0  0  0  0  0  0  0  0
   -4.2921   -2.9664    0.2560 H   0  0  0  0  0  0  0  0  0  0  0  0
   -6.3731   -2.7951    1.4872 H   0  0  0  0  0  0  0  0  0  0  0  0
   -6.8672   -0.6979    2.7422 H   0  0  0  0  0  0  0  0  0  0  0  0
   -8.9406    2.3076    0.5027 H   0  0  0  0  0  0  0  0  0  0  0  0
   -8.5382    1.1220   -1.5894 H   0  0  0  0  0  0  0  0  0  0  0  0
   -6.3301   -1.0951   -2.3470 H   0  0  0  0  0  0  0  0  0  0  0  0
   -8.0203   -1.8033   -2.1252 H   0  0  0  0  0  0  0  0  0  0  0  0
   -6.6472   -3.9586   -0.2437 H   0  0  0  0  0  0  0  0  0  0  0  0
    5.4959   -2.1199    0.7907 H   0  0  0  0  0  0  0  0  0  0  0  0
    4.9870   -0.5855    1.5271 H   0  0  0  0  0  0  0  0  0  0  0  0
    6.2946   -1.6298    2.3194 H   0  0  0  0  0  0  0  0  0  0  0  0
  1  2  1  0
  2  3  1  0
  3  4  1  0
  4  5  2  0
  5  6  1  0
  6  7  2  0
  7  8  1  0
  8  9  2  0
  9 10  1  0
 10 11  2  0
 10 12  1  0
  6 13  1  0
 13 14  2  0
 14 15  1  0
 15 16  2  0
 16 17  1  0
 17 18  2  0
 16 19  1  0
 19 20  1  0
 20 21  1  0
 21 22  1  0
 22 23  1  0
 23 24  1  0
 24 25  2  0
 25 26  1  0
 26 27  2  0
 27 28  1  0
 28 29  2  0
 29 30  1  0
 23 31  1  0
  2 32  1  0
  9  4  1  0
 18 13  1  0
 29 24  1  0
  1 33  1  0
  1 34  1  0
  1 35  1  0
  2 36  1  0
  3 37  1  0
  3 38  1  0
  5 39  1  0
  7 40  1  0
  8 41  1  0
 12 42  1  0
 14 43  1  0
 15 44  1  0
 17 45  1  0
 18 46  1  0
 19 47  1  0
 19 48  1  0
 20 49  1  0
 20 50  1  0
 21 51  1  0
 22 52  1  0
 22 53  1  0
 23 54  1  1
 25 55  1  0
 27 56  1  0
 28 57  1  0
 30 58  1  0
 30 59  1  0
 31 60  1  0
 32 61  1  0
 32 62  1  0
 32 63  1  0
M  END
>  <Ligand ID>  (1) 
LIG0001509

>  <Ligand>  (1) 
CHEMBL473702

>  <SMILES>  (1) 
CC(Cc1cc(ccc1C(=O)O)c1ccc(cc1)CCNC[C@@H](c1cnccc1N)O)C

>  <CID>  (1) 
44591507.0

>  <ChEMBL ID>  (1) 
nan

>  <InChiKey>  (1) 
LCAAUXMMXJQKOH-VWLOTQADSA-N

>  <InChi>  (1) 
InChI=1S/C26H31N3O3/c1-17(2)13-21-14-20(7-8-22(21)26(31)32)19-5-3-18(4-6-19)9-11-29-16-25(30)23-15-28-12-10-24(23)27/h3-8,10,12,14-15,17,25,29-30H,9,11,13,16H2,1-2H3,(H2,27,28)(H,31,32)/t25-/m0/s1

>  <IUPAC Name>  (1) 
4-[4-[2-[[(2R)-2-(4-aminopyridin-3-yl)-2-hydroxyethyl]amino]ethyl]phenyl]-2-(2-methylpropyl)benzoic acid

$$$$
