
     RDKit          3D

 47 52  0  0  0  0  0  0  0  0999 V2000
    5.6126    0.5689   -0.7659 C   0  0  0  0  0  0  0  0  0  0  0  0
    4.2857    0.1656   -0.2600 C   0  0  0  0  0  0  0  0  0  0  0  0
    4.2017   -0.4670    0.9130 N   0  0  0  0  0  0  0  0  0  0  0  0
    2.9937   -0.8378    1.3805 C   0  0  0  0  0  0  0  0  0  0  0  0
    1.8270   -0.5713    0.6581 C   0  0  0  0  0  0  0  0  0  0  0  0
    1.9726    0.0744   -0.5278 C   0  0  0  0  0  0  0  0  0  0  0  0
    3.1923    0.4322   -0.9686 N   0  0  0  0  0  0  0  0  0  0  0  0
    0.8113    0.3975   -1.3567 C   0  0  0  0  0  0  0  0  0  0  0  0
    0.6310    1.8177   -1.5186 O   0  0  0  0  0  0  0  0  0  0  0  0
   -0.1511    2.2955   -0.4823 C   0  0  0  0  0  0  0  0  0  0  0  0
   -0.8483    1.2152   -0.0080 C   0  0  0  0  0  0  0  0  0  0  0  0
   -0.4962    0.0008   -0.7776 C   0  0  0  0  0  0  0  0  0  0  0  0
   -0.4811   -1.1350    0.1998 C   0  0  0  0  0  0  0  0  0  0  0  0
    0.5617   -1.0171    1.2568 C   0  0  0  0  0  0  0  0  0  0  0  0
   -0.2319   -2.3044   -0.5170 O   0  0  0  0  0  0  0  0  0  0  0  0
   -1.8763   -1.2340    0.7336 C   0  0  0  0  0  0  0  0  0  0  0  0
   -2.4049   -0.0176    1.4133 C   0  0  0  0  0  0  0  0  0  0  0  0
   -1.7356    1.2426    1.0157 C   0  0  0  0  0  0  0  0  0  0  0  0
   -1.9680    2.4474    1.6420 C   0  0  0  0  0  0  0  0  0  0  0  0
   -1.2767    3.5694    1.1865 C   0  0  0  0  0  0  0  0  0  0  0  0
   -0.3766    3.5074    0.1382 C   0  0  0  0  0  0  0  0  0  0  0  0
    0.3152    4.6180   -0.3212 O   0  0  0  0  0  0  0  0  0  0  0  0
   -2.7255   -1.7604   -0.2821 N   0  0  0  0  0  0  0  0  0  0  0  0
   -2.5187   -1.2940   -1.6031 C   0  0  0  0  0  0  0  0  0  0  0  0
   -1.5038   -0.2560   -1.8328 C   0  0  0  0  0  0  0  0  0  0  0  0
   -2.8607   -3.2116   -0.2051 C   0  0  0  0  0  0  0  0  0  0  0  0
    6.3161   -0.2958   -0.7986 H   0  0  0  0  0  0  0  0  0  0  0  0
    5.5342    0.9958   -1.7699 H   0  0  0  0  0  0  0  0  0  0  0  0
    5.9962    1.3547   -0.0664 H   0  0  0  0  0  0  0  0  0  0  0  0
    2.9574   -1.3428    2.3226 H   0  0  0  0  0  0  0  0  0  0  0  0
    0.9294   -0.0726   -2.3521 H   0  0  0  0  0  0  0  0  0  0  0  0
    0.7362   -2.0574    1.6412 H   0  0  0  0  0  0  0  0  0  0  0  0
    0.2218   -0.3751    2.0924 H   0  0  0  0  0  0  0  0  0  0  0  0
    0.4448   -2.8772   -0.1234 H   0  0  0  0  0  0  0  0  0  0  0  0
   -1.8272   -2.0423    1.5237 H   0  0  0  0  0  0  0  0  0  0  0  0
   -3.4840    0.0931    1.1196 H   0  0  0  0  0  0  0  0  0  0  0  0
   -2.3905   -0.0986    2.5161 H   0  0  0  0  0  0  0  0  0  0  0  0
   -2.6690    2.5066    2.4618 H   0  0  0  0  0  0  0  0  0  0  0  0
   -1.4295    4.5453    1.6531 H   0  0  0  0  0  0  0  0  0  0  0  0
    1.0499    4.9761    0.2971 H   0  0  0  0  0  0  0  0  0  0  0  0
   -2.2791   -2.1781   -2.2395 H   0  0  0  0  0  0  0  0  0  0  0  0
   -3.5320   -0.9556   -1.9726 H   0  0  0  0  0  0  0  0  0  0  0  0
   -2.0283    0.7233   -2.0442 H   0  0  0  0  0  0  0  0  0  0  0  0
   -0.9424   -0.4314   -2.7990 H   0  0  0  0  0  0  0  0  0  0  0  0
   -2.3426   -3.5260    0.7228 H   0  0  0  0  0  0  0  0  0  0  0  0
   -2.2863   -3.6795   -1.0377 H   0  0  0  0  0  0  0  0  0  0  0  0
   -3.9245   -3.5088   -0.2578 H   0  0  0  0  0  0  0  0  0  0  0  0
  1  2  1  0
  2  3  2  0
  3  4  1  0
  4  5  2  0
  5  6  1  0
  6  7  2  0
  6  8  1  0
  8  9  1  0
  9 10  1  0
 10 11  2  0
 11 12  1  0
 12 13  1  0
 13 14  1  0
 13 15  1  0
 13 16  1  0
 16 17  1  0
 17 18  1  0
 18 19  2  0
 19 20  1  0
 20 21  2  0
 21 22  1  0
 16 23  1  0
 23 24  1  0
 24 25  1  0
 23 26  1  0
  7  2  1  0
 12  8  1  0
 14  5  1  0
 21 10  1  0
 18 11  1  0
 25 12  1  0
  1 27  1  0
  1 28  1  0
  1 29  1  0
  4 30  1  0
  8 31  1  0
 14 32  1  0
 14 33  1  0
 15 34  1  0
 16 35  1  0
 17 36  1  0
 17 37  1  0
 19 38  1  0
 20 39  1  0
 22 40  1  0
 24 41  1  0
 24 42  1  0
 25 43  1  0
 25 44  1  0
 26 45  1  0
 26 46  1  0
 26 47  1  0
M  END
>  <Ligand ID>  (1) 
LIG0003927

>  <Ligand>  (1) 
CHEMBL431074

>  <SMILES>  (1) 
Cc1ncc2c(n1)C1Oc3c4C51C(C2)(O)C(Cc4ccc3O)N(CC5)C

>  <CID>  (1) 
10315939.0

>  <ChEMBL ID>  (1) 
nan

>  <InChiKey>  (1) 
OCIKRCLBDNYUFW-UHFFFAOYSA-N

>  <InChi>  (1) 
InChI=1S/C20H21N3O3/c1-10-21-9-12-8-20(25)14-7-11-3-4-13(24)17-15(11)19(20,5-6-23(14)2)18(26-17)16(12)22-10/h3-4,9,14,18,24-25H,5-8H2,1-2H3

>  <IUPAC Name>  (1) 
7,19-dimethyl-11-oxa-6,8,19-triazahexacyclo[10.9.1.01,10.02,18.04,9.016,22]docosa-4,6,8,12,14,16(22)-hexaene-2,13-diol

$$$$
