
     RDKit          3D

 56 58  0  0  0  0  0  0  0  0999 V2000
   -6.1020    2.5763    1.7914 C   0  0  0  0  0  0  0  0  0  0  0  0
   -6.9653    1.3623    1.5780 C   0  0  0  0  0  0  0  0  0  0  0  0
   -6.2336    0.2516    0.9282 C   0  0  0  0  0  0  0  0  0  0  0  0
   -6.2442    0.1961   -0.4568 C   0  0  0  0  0  0  0  0  0  0  0  0
   -5.5804   -0.8170   -1.1518 C   0  0  0  0  0  0  0  0  0  0  0  0
   -4.8984   -1.7829   -0.4083 C   0  0  0  0  0  0  0  0  0  0  0  0
   -4.8732   -1.7491    0.9720 C   0  0  0  0  0  0  0  0  0  0  0  0
   -5.5475   -0.7227    1.6244 C   0  0  0  0  0  0  0  0  0  0  0  0
   -4.0839   -3.0296   -1.3269 S   0  0  0  0  0  0  0  0  0  0  0  0
   -4.8117   -3.4037   -2.5673 O   0  0  0  0  0  0  0  0  0  0  0  0
   -3.9774   -4.2768   -0.4827 O   0  0  0  0  0  0  0  0  0  0  0  0
   -2.4803   -2.4810   -1.6504 N   0  0  0  0  0  0  0  0  0  0  0  0
   -1.7232   -2.2595   -0.4625 C   0  0  0  0  0  0  0  0  0  0  0  0
   -0.3351   -1.7844   -0.7479 C   0  0  0  0  0  0  0  0  0  0  0  0
    0.6912   -2.6920   -0.9127 C   0  0  0  0  0  0  0  0  0  0  0  0
    2.0025   -2.2821   -1.1808 C   0  0  0  0  0  0  0  0  0  0  0  0
    2.2910   -0.9375   -1.2856 C   0  0  0  0  0  0  0  0  0  0  0  0
    1.2527   -0.0475   -1.1178 C   0  0  0  0  0  0  0  0  0  0  0  0
   -0.0454   -0.4347   -0.8531 C   0  0  0  0  0  0  0  0  0  0  0  0
    3.6621   -0.5348   -1.5648 C   0  0  0  0  0  0  0  0  0  0  0  0
    4.5021   -1.4853   -1.6916 O   0  0  0  0  0  0  0  0  0  0  0  0
    4.0908    0.8006   -1.6969 N   0  0  0  0  0  0  0  0  0  0  0  0
    5.4513    1.2033   -1.9735 C   0  0  0  0  0  0  0  0  0  0  0  0
    6.3506    0.7189   -0.8654 C   0  0  0  0  0  0  0  0  0  0  0  0
    5.9897    1.2723    0.4602 C   0  0  0  0  0  0  0  0  0  0  0  0
    6.5783    2.4876    0.8028 C   0  0  0  0  0  0  0  0  0  0  0  0
    6.3367    3.1138    2.0042 C   0  0  0  0  0  0  0  0  0  0  0  0
    5.4692    2.5088    2.9141 C   0  0  0  0  0  0  0  0  0  0  0  0
    4.9092    1.3179    2.5471 C   0  0  0  0  0  0  0  0  0  0  0  0
    5.1403    0.6796    1.3511 C   0  0  0  0  0  0  0  0  0  0  0  0
   -5.7021    2.9332    0.8192 H   0  0  0  0  0  0  0  0  0  0  0  0
   -5.2772    2.3717    2.5038 H   0  0  0  0  0  0  0  0  0  0  0  0
   -6.7299    3.3758    2.1965 H   0  0  0  0  0  0  0  0  0  0  0  0
   -7.8490    1.6393    1.0033 H   0  0  0  0  0  0  0  0  0  0  0  0
   -7.2783    1.0201    2.5901 H   0  0  0  0  0  0  0  0  0  0  0  0
   -6.7809    0.9566   -1.0335 H   0  0  0  0  0  0  0  0  0  0  0  0
   -5.5969   -0.8484   -2.2362 H   0  0  0  0  0  0  0  0  0  0  0  0
   -4.3347   -2.5132    1.5292 H   0  0  0  0  0  0  0  0  0  0  0  0
   -5.5529   -0.6583    2.7233 H   0  0  0  0  0  0  0  0  0  0  0  0
   -2.4503   -1.6444   -2.2422 H   0  0  0  0  0  0  0  0  0  0  0  0
   -2.2093   -1.4955    0.1415 H   0  0  0  0  0  0  0  0  0  0  0  0
   -1.6141   -3.1709    0.1599 H   0  0  0  0  0  0  0  0  0  0  0  0
    0.5013   -3.7546   -0.8372 H   0  0  0  0  0  0  0  0  0  0  0  0
    2.7530   -3.0605   -1.2972 H   0  0  0  0  0  0  0  0  0  0  0  0
    1.4354    1.0146   -1.1919 H   0  0  0  0  0  0  0  0  0  0  0  0
   -0.8297    0.3173   -0.7293 H   0  0  0  0  0  0  0  0  0  0  0  0
    3.3558    1.5464   -1.5832 H   0  0  0  0  0  0  0  0  0  0  0  0
    5.5282    2.3004   -2.0003 H   0  0  0  0  0  0  0  0  0  0  0  0
    5.7988    0.7270   -2.9128 H   0  0  0  0  0  0  0  0  0  0  0  0
    6.3285   -0.3932   -0.7390 H   0  0  0  0  0  0  0  0  0  0  0  0
    7.4291    0.9314   -1.1130 H   0  0  0  0  0  0  0  0  0  0  0  0
    7.2565    2.9883    0.1246 H   0  0  0  0  0  0  0  0  0  0  0  0
    6.8131    4.0572    2.2336 H   0  0  0  0  0  0  0  0  0  0  0  0
    5.2802    3.0059    3.8622 H   0  0  0  0  0  0  0  0  0  0  0  0
    4.2328    0.8487    3.2593 H   0  0  0  0  0  0  0  0  0  0  0  0
    4.6766   -0.2636    1.1068 H   0  0  0  0  0  0  0  0  0  0  0  0
  1  2  1  0
  2  3  1  0
  3  4  2  0
  4  5  1  0
  5  6  2  0
  6  7  1  0
  7  8  2  0
  6  9  1  0
  9 10  2  0
  9 11  2  0
  9 12  1  0
 12 13  1  0
 13 14  1  0
 14 15  2  0
 15 16  1  0
 16 17  2  0
 17 18  1  0
 18 19  2  0
 17 20  1  0
 20 21  2  0
 20 22  1  0
 22 23  1  0
 23 24  1  0
 24 25  1  0
 25 26  2  0
 26 27  1  0
 27 28  2  0
 28 29  1  0
 29 30  2  0
  8  3  1  0
 19 14  1  0
 30 25  1  0
  1 31  1  0
  1 32  1  0
  1 33  1  0
  2 34  1  0
  2 35  1  0
  4 36  1  0
  5 37  1  0
  7 38  1  0
  8 39  1  0
 12 40  1  0
 13 41  1  0
 13 42  1  0
 15 43  1  0
 16 44  1  0
 18 45  1  0
 19 46  1  0
 22 47  1  0
 23 48  1  0
 23 49  1  0
 24 50  1  0
 24 51  1  0
 26 52  1  0
 27 53  1  0
 28 54  1  0
 29 55  1  0
 30 56  1  0
M  END
>  <Ligand ID>  (1) 
LIG0004114

>  <Ligand>  (1) 
KUC103905N

>  <SMILES>  (1) 
CCc1ccc(cc1)S(=O)(=O)NCc1ccc(cc1)C(=O)NCCc1ccccc1

>  <CID>  (1) 
44601477.0

>  <ChEMBL ID>  (1) 
nan

>  <InChiKey>  (1) 
WODRAXKKRMEMTC-UHFFFAOYSA-N

>  <InChi>  (1) 
InChI=1S/C24H26N2O3S/c1-2-19-10-14-23(15-11-19)30(28,29)26-18-21-8-12-22(13-9-21)24(27)25-17-16-20-6-4-3-5-7-20/h3-15,26H,2,16-18H2,1H3,(H,25,27)

>  <IUPAC Name>  (1) 
4-[[(4-ethylphenyl)sulfonylamino]methyl]-N-(2-phenylethyl)benzamide

$$$$
