
     RDKit          3D

 37 39  0  0  0  0  0  0  0  0999 V2000
   -7.9513    0.2164    0.4806 Cl  0  0  0  0  0  0  0  0  0  0  0  0
   -6.2050    0.3080    0.4453 C   0  0  0  0  0  0  0  0  0  0  0  0
   -5.4466   -0.8169    0.1570 C   0  0  0  0  0  0  0  0  0  0  0  0
   -4.0943   -0.6874    0.1426 C   0  0  0  0  0  0  0  0  0  0  0  0
   -3.4240    0.5100    0.4004 C   0  0  0  0  0  0  0  0  0  0  0  0
   -4.1792    1.6238    0.6864 C   0  0  0  0  0  0  0  0  0  0  0  0
   -5.5700    1.4989    0.7033 C   0  0  0  0  0  0  0  0  0  0  0  0
   -1.9375    0.5245    0.3540 C   0  0  0  0  0  0  0  0  0  0  0  0
   -1.4103    0.8275   -0.9401 N   0  0  0  0  0  0  0  0  0  0  0  0
    0.0532    0.8326   -0.9398 C   0  0  0  0  0  0  0  0  0  0  0  0
    0.6532   -0.5163   -0.7318 C   0  0  0  0  0  0  0  0  0  0  0  0
    2.1792   -0.5116   -0.7271 C   0  0  2  0  0  0  0  0  0  0  0  0
    2.7336   -1.9271   -0.5153 C   0  0  0  0  0  0  0  0  0  0  0  0
    2.9420   -0.8409    0.4769 C   0  0  1  0  0  0  0  0  0  0  0  0
    4.3342   -0.2671    0.5471 C   0  0  0  0  0  0  0  0  0  0  0  0
    5.1115    0.0731   -0.5360 C   0  0  0  0  0  0  0  0  0  0  0  0
    6.2968    0.5469   -0.0594 N   0  0  0  0  0  0  0  0  0  0  0  0
    6.2393    0.4958    1.2810 C   0  0  0  0  0  0  0  0  0  0  0  0
    5.0422   -0.0012    1.6823 N   0  0  0  0  0  0  0  0  0  0  0  0
   -5.9074   -1.7803   -0.0541 H   0  0  0  0  0  0  0  0  0  0  0  0
   -3.4847   -1.5735   -0.0866 H   0  0  0  0  0  0  0  0  0  0  0  0
   -3.6736    2.5478    0.8853 H   0  0  0  0  0  0  0  0  0  0  0  0
   -6.1298    2.3861    0.9306 H   0  0  0  0  0  0  0  0  0  0  0  0
   -1.6258    1.3576    1.0359 H   0  0  0  0  0  0  0  0  0  0  0  0
   -1.6030   -0.4565    0.6922 H   0  0  0  0  0  0  0  0  0  0  0  0
   -1.7485    0.1902   -1.6924 H   0  0  0  0  0  0  0  0  0  0  0  0
    0.4114    1.3191   -1.8850 H   0  0  0  0  0  0  0  0  0  0  0  0
    0.3389    1.5397   -0.1392 H   0  0  0  0  0  0  0  0  0  0  0  0
    0.3668   -1.2568   -1.4986 H   0  0  0  0  0  0  0  0  0  0  0  0
    0.3515   -0.8689    0.2854 H   0  0  0  0  0  0  0  0  0  0  0  0
    2.6476    0.0267   -1.5731 H   0  0  0  0  0  0  0  0  0  0  0  0
    3.6002   -2.2452   -1.1454 H   0  0  0  0  0  0  0  0  0  0  0  0
    2.0716   -2.7448   -0.2361 H   0  0  0  0  0  0  0  0  0  0  0  0
    2.4417   -0.9565    1.4483 H   0  0  0  0  0  0  0  0  0  0  0  0
    4.8748   -0.0010   -1.5972 H   0  0  0  0  0  0  0  0  0  0  0  0
    6.9963    0.7877    2.0033 H   0  0  0  0  0  0  0  0  0  0  0  0
    4.7050   -0.1603    2.6615 H   0  0  0  0  0  0  0  0  0  0  0  0
  1  2  1  0
  2  3  2  0
  3  4  1  0
  4  5  2  0
  5  6  1  0
  6  7  2  0
  5  8  1  0
  8  9  1  0
  9 10  1  0
 10 11  1  0
 11 12  1  0
 12 13  1  0
 13 14  1  0
 14 15  1  0
 15 16  2  0
 16 17  1  0
 17 18  2  0
 18 19  1  0
  7  2  1  0
 14 12  1  0
 19 15  1  0
  3 20  1  0
  4 21  1  0
  6 22  1  0
  7 23  1  0
  8 24  1  0
  8 25  1  0
  9 26  1  0
 10 27  1  0
 10 28  1  0
 11 29  1  0
 11 30  1  0
 12 31  1  6
 13 32  1  0
 13 33  1  0
 14 34  1  1
 16 35  1  0
 18 36  1  0
 19 37  1  0
M  END
>  <Ligand ID>  (1) 
LIG0001192

>  <Ligand>  (1) 
CHEMBL213886

>  <SMILES>  (1) 
Clc1ccc(cc1)CNCC[C@@H]1C[C@H]1c1cnc[nH]1

>  <CID>  (1) 
16082828.0

>  <ChEMBL ID>  (1) 
nan

>  <InChiKey>  (1) 
BOQXUEKBVIXPKQ-TZMCWYRMSA-N

>  <InChi>  (1) 
InChI=1S/C15H18ClN3/c16-13-3-1-11(2-4-13)8-17-6-5-12-7-14(12)15-9-18-10-19-15/h1-4,9-10,12,14,17H,5-8H2,(H,18,19)/t12-,14-/m1/s1

>  <IUPAC Name>  (1) 
N-[(4-chlorophenyl)methyl]-2-[(1S,2R)-2-(1H-imidazol-5-yl)cyclopropyl]ethanamine

$$$$
