
     RDKit          3D

 32 33  0  0  0  0  0  0  0  0999 V2000
    4.5968    0.4912   -1.1042 N   0  0  0  0  0  0  0  0  0  0  0  0
    3.5038    0.9663   -0.2488 C   0  0  0  0  0  0  0  0  0  0  0  0
    2.3109    0.0833   -0.5398 C   0  0  1  0  0  0  0  0  0  0  0  0
    2.3536   -1.3624   -0.3260 C   0  0  0  0  0  0  0  0  0  0  0  0
    1.6728   -0.5723    0.6873 C   0  0  2  0  0  0  0  0  0  0  0  0
    0.2306   -0.3205    0.7606 C   0  0  0  0  0  0  0  0  0  0  0  0
   -0.3332    0.0873    1.9646 C   0  0  0  0  0  0  0  0  0  0  0  0
   -1.6838    0.3364    2.0838 C   0  0  0  0  0  0  0  0  0  0  0  0
   -2.4711    0.1651    0.9509 C   0  0  0  0  0  0  0  0  0  0  0  0
   -1.9096   -0.2371   -0.2329 C   0  0  0  0  0  0  0  0  0  0  0  0
   -0.5399   -0.4928   -0.3656 C   0  0  0  0  0  0  0  0  0  0  0  0
   -2.6862   -0.4104   -1.3668 C   0  0  0  0  0  0  0  0  0  0  0  0
   -4.0553   -0.1749   -1.3105 C   0  0  0  0  0  0  0  0  0  0  0  0
   -4.6383    0.2354   -0.1086 C   0  0  0  0  0  0  0  0  0  0  0  0
   -3.8195    0.3976    1.0087 C   0  0  0  0  0  0  0  0  0  0  0  0
    0.6831    0.0000    0.0000 Cl  0  0  0  0  0  0  0  0  0  0  0  0
    5.5085    0.4539   -0.5955 H   0  0  0  0  0  0  0  0  0  0  0  0
    4.6603    1.0538   -1.9798 H   0  0  0  0  0  0  0  0  0  0  0  0
    3.3058    2.0101   -0.5709 H   0  0  0  0  0  0  0  0  0  0  0  0
    3.7625    0.9132    0.8261 H   0  0  0  0  0  0  0  0  0  0  0  0
    1.6907    0.4480   -1.3550 H   0  0  0  0  0  0  0  0  0  0  0  0
    1.8166   -2.0353   -1.0311 H   0  0  0  0  0  0  0  0  0  0  0  0
    3.3392   -1.7950   -0.0356 H   0  0  0  0  0  0  0  0  0  0  0  0
    2.1927   -0.3969    1.6718 H   0  0  0  0  0  0  0  0  0  0  0  0
    0.2653    0.2280    2.8657 H   0  0  0  0  0  0  0  0  0  0  0  0
   -2.0946    0.6521    3.0315 H   0  0  0  0  0  0  0  0  0  0  0  0
   -0.1543   -0.8068   -1.3226 H   0  0  0  0  0  0  0  0  0  0  0  0
   -2.2540   -0.7294   -2.3139 H   0  0  0  0  0  0  0  0  0  0  0  0
   -4.6183   -0.3213   -2.2113 H   0  0  0  0  0  0  0  0  0  0  0  0
   -5.6931    0.4170   -0.0649 H   0  0  0  0  0  0  0  0  0  0  0  0
   -4.2589    0.7165    1.9510 H   0  0  0  0  0  0  0  0  0  0  0  0
   -0.6831    0.0000    0.0000 H   0  0  0  0  0  0  0  0  0  0  0  0
  1  2  1  0
  2  3  1  0
  3  4  1  0
  4  5  1  0
  5  6  1  0
  6  7  2  0
  7  8  1  0
  8  9  2  0
  9 10  1  0
 10 11  2  0
 10 12  1  0
 12 13  2  0
 13 14  1  0
 14 15  2  0
  5  3  1  0
 11  6  1  0
 15  9  1  0
  1 17  1  0
  1 18  1  0
  2 19  1  0
  2 20  1  0
  3 21  1  6
  4 22  1  0
  4 23  1  0
  5 24  1  1
  7 25  1  0
  8 26  1  0
 11 27  1  0
 12 28  1  0
 13 29  1  0
 14 30  1  0
 15 31  1  0
 16 32  1  0
M  END
>  <Ligand ID>  (1) 
LIG0005685

>  <Ligand>  (1) 
CHEMBL474885

>  <SMILES>  (1) 
NC[C@H]1C[C@@H]1c1ccc2c(c1)cccc2.Cl

>  <CID>  (1) 
44572697.0

>  <ChEMBL ID>  (1) 
nan

>  <InChiKey>  (1) 
PBTDVXHOWNSDHQ-DTPOWOMPSA-N

>  <InChi>  (1) 
InChI=1S/C14H15N.ClH/c15-9-13-8-14(13)12-6-5-10-3-1-2-4-11(10)7-12;/h1-7,13-14H,8-9,15H2;1H/t13-,14-;/m1./s1

>  <IUPAC Name>  (1) 
[(1S,2S)-2-naphthalen-2-ylcyclopropyl]methanamine;hydrochloride

$$$$
