
     RDKit          3D

205213  0  0  0  0  0  0  0  0999 V2000
    6.8708   -5.1995   -1.4679 N   0  0  0  0  0  0  0  0  0  0  0  0
    6.4875   -4.5412   -2.6894 C   0  0  0  0  0  0  0  0  0  0  0  0
    7.1169   -4.7128   -3.7897 N   0  0  0  0  0  0  0  0  0  0  0  0
    5.3667   -3.6489   -2.6141 N   0  0  0  0  0  0  0  0  0  0  0  0
    4.9669   -2.7864   -3.6735 C   0  0  0  0  0  0  0  0  0  0  0  0
    3.9170   -1.7786   -3.4212 C   0  0  0  0  0  0  0  0  0  0  0  0
    4.1996   -0.6680   -2.4672 C   0  0  0  0  0  0  0  0  0  0  0  0
    4.4671   -1.0384   -1.0905 C   0  0  2  0  0  0  0  0  0  0  0  0
    3.4278   -1.7255   -0.3550 N   0  0  0  0  0  0  0  0  0  0  0  0
    3.6454   -2.7375    0.6342 C   0  0  0  0  0  0  0  0  0  0  0  0
    4.8492   -3.0055    0.8120 O   0  0  0  0  0  0  0  0  0  0  0  0
    2.6214   -3.4274    1.3992 C   0  0  1  0  0  0  0  0  0  0  0  0
    2.8722   -3.4394    2.9122 C   0  0  0  0  0  0  0  0  0  0  0  0
    4.1292   -4.1532    3.2363 C   0  0  0  0  0  0  0  0  0  0  0  0
    5.3538   -3.5953    3.4342 C   0  0  0  0  0  0  0  0  0  0  0  0
    6.4613   -4.4105    3.6999 C   0  0  0  0  0  0  0  0  0  0  0  0
    6.3323   -5.7778    3.7645 C   0  0  0  0  0  0  0  0  0  0  0  0
    5.1144   -6.3592    3.5685 C   0  0  0  0  0  0  0  0  0  0  0  0
    4.0405   -5.5350    3.3085 C   0  0  0  0  0  0  0  0  0  0  0  0
    7.4649   -6.6754    4.0309 C   0  0  0  0  0  0  0  0  0  0  0  0
    8.7499   -6.3370    3.6015 C   0  0  0  0  0  0  0  0  0  0  0  0
    9.8325   -7.1869    3.8279 C   0  0  0  0  0  0  0  0  0  0  0  0
    9.6488   -8.3844    4.4873 C   0  0  0  0  0  0  0  0  0  0  0  0
    8.3985   -8.7353    4.9180 C   0  0  0  0  0  0  0  0  0  0  0  0
    7.3271   -7.8842    4.6856 C   0  0  0  0  0  0  0  0  0  0  0  0
    1.2366   -3.1544    1.0934 N   0  0  0  0  0  0  0  0  0  0  0  0
    0.2820   -4.1442    1.4303 C   0  0  0  0  0  0  0  0  0  0  0  0
    0.7729   -5.1634    2.0107 O   0  0  0  0  0  0  0  0  0  0  0  0
   -1.1647   -4.1649    1.2177 C   0  0  2  0  0  0  0  0  0  0  0  0
   -1.6548   -5.5572    1.0955 C   0  0  0  0  0  0  0  0  0  0  0  0
   -3.0814   -5.7784    0.8770 C   0  0  0  0  0  0  0  0  0  0  0  0
   -3.9968   -5.9017    1.9022 N   0  0  0  0  0  0  0  0  0  0  0  0
   -5.2092   -6.1296    1.4008 C   0  0  0  0  0  0  0  0  0  0  0  0
   -5.1230   -6.1635    0.0467 N   0  0  0  0  0  0  0  0  0  0  0  0
   -3.8211   -5.9481   -0.2631 C   0  0  0  0  0  0  0  0  0  0  0  0
   -1.7166   -3.1705    0.3376 N   0  0  0  0  0  0  0  0  0  0  0  0
   -2.1977   -1.9100    0.8315 C   0  0  0  0  0  0  0  0  0  0  0  0
   -2.0676   -1.7624    2.0589 O   0  0  0  0  0  0  0  0  0  0  0  0
   -2.7974   -0.8331    0.0389 C   0  0  1  0  0  0  0  0  0  0  0  0
   -3.0741   -1.2934   -1.3060 N   0  0  0  0  0  0  0  0  0  0  0  0
   -3.9946   -2.3052   -1.6340 C   0  0  0  0  0  0  0  0  0  0  0  0
   -4.6384   -2.8637   -0.6691 O   0  0  0  0  0  0  0  0  0  0  0  0
   -4.3152   -2.8211   -2.9707 C   0  0  2  0  0  0  0  0  0  0  0  0
   -5.1247   -1.7554   -3.7298 C   0  0  0  0  0  0  0  0  0  0  0  0
   -5.4037   -2.4111   -5.0575 C   0  0  0  0  0  0  0  0  0  0  0  0
   -6.5872   -3.1439   -5.2356 C   0  0  0  0  0  0  0  0  0  0  0  0
   -6.8274   -3.7782   -6.4380 C   0  0  0  0  0  0  0  0  0  0  0  0
   -5.9125   -3.6962   -7.4712 C   0  0  0  0  0  0  0  0  0  0  0  0
   -4.7450   -2.9752   -7.3096 C   0  0  0  0  0  0  0  0  0  0  0  0
   -4.5125   -2.3480   -6.1077 C   0  0  0  0  0  0  0  0  0  0  0  0
   -6.2020   -4.3586   -8.6738 O   0  0  0  0  0  0  0  0  0  0  0  0
   -5.2566   -3.9338   -2.8099 N   0  0  0  0  0  0  0  0  0  0  0  0
   -4.1020   -0.3273    0.6432 C   0  0  0  0  0  0  0  0  0  0  0  0
   -4.5595    0.8927   -0.0134 C   0  0  0  0  0  0  0  0  0  0  0  0
   -4.0150    1.3751   -0.9450 O   0  0  0  0  0  0  0  0  0  0  0  0
   -5.7506    1.6668    0.4032 N   0  0  0  0  0  0  0  0  0  0  0  0
   -6.4937    0.9441    1.3378 C   0  0  2  0  0  0  0  0  0  0  0  0
   -7.8127    0.4900    0.8846 C   0  0  0  0  0  0  0  0  0  0  0  0
   -8.8639    0.4259    1.5176 O   0  0  0  0  0  0  0  0  0  0  0  0
   -7.8972    0.0431   -0.4976 N   0  0  0  0  0  0  0  0  0  0  0  0
   -6.4084    1.3408    2.7836 C   0  0  0  0  0  0  0  0  0  0  0  0
   -7.2137    0.3620    3.5913 C   0  0  0  0  0  0  0  0  0  0  0  0
   -8.4566    0.6542    4.0743 C   0  0  0  0  0  0  0  0  0  0  0  0
   -9.1347   -0.3324    4.7293 C   0  0  0  0  0  0  0  0  0  0  0  0
   -8.5548   -1.5967    4.8949 C   0  0  0  0  0  0  0  0  0  0  0  0
   -7.2992   -1.8960    4.4112 C   0  0  0  0  0  0  0  0  0  0  0  0
   -6.6163   -0.8895    3.7440 C   0  0  0  0  0  0  0  0  0  0  0  0
   -9.2215   -2.6338    5.5622 O   0  0  0  0  0  0  0  0  0  0  0  0
   -5.8980    2.9652   -0.1325 C   0  0  0  0  0  0  0  0  0  0  0  0
   -7.1291    3.7293    0.2209 C   0  0  0  0  0  0  0  0  0  0  0  0
   -4.6956    3.7946    0.0781 N   0  0  0  0  0  0  0  0  0  0  0  0
   -4.4351    4.4651    1.3315 C   0  0  0  0  0  0  0  0  0  0  0  0
   -5.2818    4.3109    2.1998 O   0  0  0  0  0  0  0  0  0  0  0  0
   -3.2505    5.2834    1.5779 C   0  0  1  0  0  0  0  0  0  0  0  0
   -2.2644    5.2826    0.5263 N   0  0  0  0  0  0  0  0  0  0  0  0
   -0.8882    5.1637    0.9037 C   0  0  0  0  0  0  0  0  0  0  0  0
   -0.6779    5.2032    2.1297 O   0  0  0  0  0  0  0  0  0  0  0  0
    0.2533    5.0082    0.0002 C   0  0  1  0  0  0  0  0  0  0  0  0
    1.4504    5.0706    0.8219 N   0  0  0  0  0  0  0  0  0  0  0  0
    2.7784    5.1078    0.3211 C   0  0  0  0  0  0  0  0  0  0  0  0
    2.9239    5.0476   -0.8963 O   0  0  0  0  0  0  0  0  0  0  0  0
    3.9169    5.2019    1.3257 C   0  0  1  0  0  0  0  0  0  0  0  0
    5.1214    4.5537    0.8817 N   0  0  0  0  0  0  0  0  0  0  0  0
    4.9806    3.2281    0.3856 C   0  0  0  0  0  0  0  0  0  0  0  0
    3.8254    2.8444    0.1629 O   0  0  0  0  0  0  0  0  0  0  0  0
    6.1508    2.3141    0.1146 C   0  0  1  0  0  0  0  0  0  0  0  0
    5.7243    1.2067   -0.7174 N   0  0  0  0  0  0  0  0  0  0  0  0
    4.8696    0.1565   -0.2265 C   0  0  0  0  0  0  0  0  0  0  0  0
    4.4847    0.2939    0.9297 O   0  0  0  0  0  0  0  0  0  0  0  0
    7.3612    2.9972   -0.3052 C   0  0  0  0  0  0  0  0  0  0  0  0
    7.4267    3.7785   -1.5411 C   0  0  0  0  0  0  0  0  0  0  0  0
    7.1897    5.1375   -1.7688 C   0  0  0  0  0  0  0  0  0  0  0  0
    7.3490    5.4212   -3.0810 N   0  0  0  0  0  0  0  0  0  0  0  0
    7.6787    4.3173   -3.7335 C   0  0  0  0  0  0  0  0  0  0  0  0
    7.7332    3.2881   -2.8106 C   0  0  0  0  0  0  0  0  0  0  0  0
    8.0860    2.0482   -3.3028 C   0  0  0  0  0  0  0  0  0  0  0  0
    8.3710    1.8214   -4.6391 C   0  0  0  0  0  0  0  0  0  0  0  0
    8.3078    2.8568   -5.5391 C   0  0  0  0  0  0  0  0  0  0  0  0
    7.9574    4.1100   -5.0687 C   0  0  0  0  0  0  0  0  0  0  0  0
    4.0820    6.5889    1.8109 C   0  0  0  0  0  0  0  0  0  0  0  0
    5.1997    6.6904    2.7770 C   0  0  0  0  0  0  0  0  0  0  0  0
    5.9754    5.7549    3.0729 O   0  0  0  0  0  0  0  0  0  0  0  0
    5.3495    8.0088    3.3899 N   0  0  0  0  0  0  0  0  0  0  0  0
    0.1895    3.5758   -0.6292 C   0  0  0  0  0  0  0  0  0  0  0  0
   -3.5467    6.7274    1.9514 C   0  0  0  0  0  0  0  0  0  0  0  0
   -4.3117    7.4719    0.9528 C   0  0  0  0  0  0  0  0  0  0  0  0
   -3.7688    8.1632   -0.1075 C   0  0  0  0  0  0  0  0  0  0  0  0
   -4.6318    8.8294   -0.9547 C   0  0  0  0  0  0  0  0  0  0  0  0
   -6.0075    8.8256   -0.7771 C   0  0  0  0  0  0  0  0  0  0  0  0
   -6.5558    8.1308    0.2923 C   0  0  0  0  0  0  0  0  0  0  0  0
   -5.7055    7.4813    1.1153 C   0  0  0  0  0  0  0  0  0  0  0  0
   -5.9408    2.8398   -1.6384 C   0  0  0  0  0  0  0  0  0  0  0  0
   -6.8164    2.2165   -2.2729 O   0  0  0  0  0  0  0  0  0  0  0  0
   -4.9493    3.4485   -2.4464 O   0  0  0  0  0  0  0  0  0  0  0  0
    7.1081   -6.2317   -1.4367 H   0  0  0  0  0  0  0  0  0  0  0  0
    6.9360   -4.6969   -0.5708 H   0  0  0  0  0  0  0  0  0  0  0  0
    7.9500   -5.3771   -3.7574 H   0  0  0  0  0  0  0  0  0  0  0  0
    4.8133   -3.6823   -1.7503 H   0  0  0  0  0  0  0  0  0  0  0  0
    4.5525   -3.4863   -4.4816 H   0  0  0  0  0  0  0  0  0  0  0  0
    5.8568   -2.3437   -4.2152 H   0  0  0  0  0  0  0  0  0  0  0  0
    3.5056   -1.3795   -4.3947 H   0  0  0  0  0  0  0  0  0  0  0  0
    3.0117   -2.3508   -3.0118 H   0  0  0  0  0  0  0  0  0  0  0  0
    5.0981   -0.1330   -2.8910 H   0  0  0  0  0  0  0  0  0  0  0  0
    3.3123    0.0429   -2.5809 H   0  0  0  0  0  0  0  0  0  0  0  0
    5.4370   -1.6450   -1.0245 H   0  0  0  0  0  0  0  0  0  0  0  0
    2.4456   -1.4926   -0.5176 H   0  0  0  0  0  0  0  0  0  0  0  0
    2.7171   -4.5571    1.1644 H   0  0  0  0  0  0  0  0  0  0  0  0
    2.0507   -3.9408    3.4558 H   0  0  0  0  0  0  0  0  0  0  0  0
    2.9263   -2.3844    3.2518 H   0  0  0  0  0  0  0  0  0  0  0  0
    5.4621   -2.5272    3.4006 H   0  0  0  0  0  0  0  0  0  0  0  0
    7.4390   -3.9665    3.8654 H   0  0  0  0  0  0  0  0  0  0  0  0
    4.9620   -7.4587    3.6160 H   0  0  0  0  0  0  0  0  0  0  0  0
    3.0795   -6.0502    3.1668 H   0  0  0  0  0  0  0  0  0  0  0  0
    8.9528   -5.4173    3.0952 H   0  0  0  0  0  0  0  0  0  0  0  0
   10.8142   -6.8753    3.4752 H   0  0  0  0  0  0  0  0  0  0  0  0
   10.5207   -8.9973    4.6417 H   0  0  0  0  0  0  0  0  0  0  0  0
    8.2308   -9.6589    5.4374 H   0  0  0  0  0  0  0  0  0  0  0  0
    6.3236   -8.1689    5.0336 H   0  0  0  0  0  0  0  0  0  0  0  0
    0.8641   -2.3072    0.6576 H   0  0  0  0  0  0  0  0  0  0  0  0
   -1.5530   -3.8404    2.2821 H   0  0  0  0  0  0  0  0  0  0  0  0
   -1.3439   -6.1487    2.0244 H   0  0  0  0  0  0  0  0  0  0  0  0
   -1.0897   -6.1010    0.2832 H   0  0  0  0  0  0  0  0  0  0  0  0
   -3.7355   -5.8206    2.9150 H   0  0  0  0  0  0  0  0  0  0  0  0
   -6.1236   -6.2605    1.9862 H   0  0  0  0  0  0  0  0  0  0  0  0
   -3.3608   -5.9021   -1.2512 H   0  0  0  0  0  0  0  0  0  0  0  0
   -1.8114   -3.2664   -0.6799 H   0  0  0  0  0  0  0  0  0  0  0  0
   -2.1335    0.0722   -0.0026 H   0  0  0  0  0  0  0  0  0  0  0  0
   -2.5580   -0.8446   -2.0912 H   0  0  0  0  0  0  0  0  0  0  0  0
   -3.4280   -3.1051   -3.5677 H   0  0  0  0  0  0  0  0  0  0  0  0
   -4.5711   -0.8138   -3.8284 H   0  0  0  0  0  0  0  0  0  0  0  0
   -6.0841   -1.6264   -3.2119 H   0  0  0  0  0  0  0  0  0  0  0  0
   -7.3104   -3.1986   -4.4332 H   0  0  0  0  0  0  0  0  0  0  0  0
   -7.7363   -4.3341   -6.5653 H   0  0  0  0  0  0  0  0  0  0  0  0
   -4.0389   -2.9180   -8.1503 H   0  0  0  0  0  0  0  0  0  0  0  0
   -3.6136   -1.7752   -5.9429 H   0  0  0  0  0  0  0  0  0  0  0  0
   -5.8443   -5.3150   -8.7806 H   0  0  0  0  0  0  0  0  0  0  0  0
   -4.8290   -4.8556   -2.7537 H   0  0  0  0  0  0  0  0  0  0  0  0
   -5.8368   -3.7555   -1.9720 H   0  0  0  0  0  0  0  0  0  0  0  0
   -3.8971   -0.0288    1.7302 H   0  0  0  0  0  0  0  0  0  0  0  0
   -4.7671   -1.1774    0.7216 H   0  0  0  0  0  0  0  0  0  0  0  0
   -5.9083   -0.0789    1.4007 H   0  0  0  0  0  0  0  0  0  0  0  0
   -7.2019   -0.6507   -0.8376 H   0  0  0  0  0  0  0  0  0  0  0  0
   -8.6403    0.4263   -1.1286 H   0  0  0  0  0  0  0  0  0  0  0  0
   -6.8007    2.3179    3.0460 H   0  0  0  0  0  0  0  0  0  0  0  0
   -5.3832    1.2580    3.1762 H   0  0  0  0  0  0  0  0  0  0  0  0
   -8.8966    1.6530    3.9431 H   0  0  0  0  0  0  0  0  0  0  0  0
  -10.1329   -0.1880    5.1429 H   0  0  0  0  0  0  0  0  0  0  0  0
   -6.8573   -2.8876    4.5577 H   0  0  0  0  0  0  0  0  0  0  0  0
   -5.6135   -1.0811    3.3443 H   0  0  0  0  0  0  0  0  0  0  0  0
  -10.2461   -2.7356    5.4741 H   0  0  0  0  0  0  0  0  0  0  0  0
   -7.4261    3.7708    1.2593 H   0  0  0  0  0  0  0  0  0  0  0  0
   -6.8899    4.8015   -0.0594 H   0  0  0  0  0  0  0  0  0  0  0  0
   -7.9725    3.4230   -0.4124 H   0  0  0  0  0  0  0  0  0  0  0  0
   -3.9750    3.9475   -0.6244 H   0  0  0  0  0  0  0  0  0  0  0  0
   -2.7964    4.8882    2.5456 H   0  0  0  0  0  0  0  0  0  0  0  0
   -2.4279    5.3616   -0.4737 H   0  0  0  0  0  0  0  0  0  0  0  0
    0.3361    5.6842   -0.8190 H   0  0  0  0  0  0  0  0  0  0  0  0
    1.3639    5.0849    1.8378 H   0  0  0  0  0  0  0  0  0  0  0  0
    3.5144    4.5378    2.1578 H   0  0  0  0  0  0  0  0  0  0  0  0
    6.0703    4.9224    0.8895 H   0  0  0  0  0  0  0  0  0  0  0  0
    6.3762    1.8837    1.1741 H   0  0  0  0  0  0  0  0  0  0  0  0
    5.9924    1.1030   -1.6879 H   0  0  0  0  0  0  0  0  0  0  0  0
    8.2108    2.2159   -0.4091 H   0  0  0  0  0  0  0  0  0  0  0  0
    7.8093    3.6162    0.5583 H   0  0  0  0  0  0  0  0  0  0  0  0
    6.9210    5.8982   -1.0591 H   0  0  0  0  0  0  0  0  0  0  0  0
    7.2248    6.3822   -3.4935 H   0  0  0  0  0  0  0  0  0  0  0  0
    8.1549    1.2055   -2.6186 H   0  0  0  0  0  0  0  0  0  0  0  0
    8.6490    0.8285   -4.9541 H   0  0  0  0  0  0  0  0  0  0  0  0
    8.5263    2.7480   -6.6000 H   0  0  0  0  0  0  0  0  0  0  0  0
    7.9086    4.9358   -5.7697 H   0  0  0  0  0  0  0  0  0  0  0  0
    4.2003    7.3369    0.9898 H   0  0  0  0  0  0  0  0  0  0  0  0
    3.1410    6.8999    2.3612 H   0  0  0  0  0  0  0  0  0  0  0  0
    6.1558    8.1718    4.0385 H   0  0  0  0  0  0  0  0  0  0  0  0
    4.6810    8.7804    3.1901 H   0  0  0  0  0  0  0  0  0  0  0  0
    0.5674    2.8537    0.0845 H   0  0  0  0  0  0  0  0  0  0  0  0
    0.6843    3.5839   -1.6089 H   0  0  0  0  0  0  0  0  0  0  0  0
   -0.8832    3.4072   -0.7857 H   0  0  0  0  0  0  0  0  0  0  0  0
   -2.6020    7.2691    2.1602 H   0  0  0  0  0  0  0  0  0  0  0  0
   -4.0948    6.7851    2.9470 H   0  0  0  0  0  0  0  0  0  0  0  0
   -2.6896    8.1720   -0.2398 H   0  0  0  0  0  0  0  0  0  0  0  0
   -4.2243    9.3591   -1.7839 H   0  0  0  0  0  0  0  0  0  0  0  0
   -6.6306    9.3709   -1.4807 H   0  0  0  0  0  0  0  0  0  0  0  0
   -7.6240    8.1269    0.4444 H   0  0  0  0  0  0  0  0  0  0  0  0
   -6.1334    6.9190    1.9609 H   0  0  0  0  0  0  0  0  0  0  0  0
   -5.2513    3.7219   -3.4026 H   0  0  0  0  0  0  0  0  0  0  0  0
  1  2  1  0
  2  3  2  3
  2  4  1  0
  4  5  1  0
  5  6  1  0
  6  7  1  0
  7  8  1  0
  8  9  1  0
  9 10  1  0
 10 11  2  0
 10 12  1  0
 12 13  1  0
 13 14  1  0
 14 15  2  0
 15 16  1  0
 16 17  2  0
 17 18  1  0
 18 19  2  0
 17 20  1  0
 20 21  2  0
 21 22  1  0
 22 23  2  0
 23 24  1  0
 24 25  2  0
 12 26  1  0
 26 27  1  0
 27 28  2  0
 27 29  1  0
 29 30  1  0
 30 31  1  0
 31 32  1  0
 32 33  1  0
 33 34  2  0
 34 35  1  0
 29 36  1  0
 36 37  1  0
 37 38  2  0
 37 39  1  0
 39 40  1  0
 40 41  1  0
 41 42  2  0
 41 43  1  0
 43 44  1  0
 44 45  1  0
 45 46  2  0
 46 47  1  0
 47 48  2  0
 48 49  1  0
 49 50  2  0
 48 51  1  0
 43 52  1  0
 39 53  1  0
 53 54  1  0
 54 55  2  0
 54 56  1  0
 56 57  1  0
 57 58  1  0
 58 59  2  0
 58 60  1  0
 57 61  1  0
 61 62  1  0
 62 63  2  0
 63 64  1  0
 64 65  2  0
 65 66  1  0
 66 67  2  0
 65 68  1  0
 56 69  1  0
 69 70  1  0
 69 71  1  0
 71 72  1  0
 72 73  2  0
 72 74  1  0
 74 75  1  0
 75 76  1  0
 76 77  2  0
 76 78  1  0
 78 79  1  0
 79 80  1  0
 80 81  2  0
 80 82  1  0
 82 83  1  0
 83 84  1  0
 84 85  2  0
 84 86  1  0
 86 87  1  0
 87 88  1  0
 88 89  2  0
 86 90  1  0
 90 91  1  0
 91 92  2  0
 92 93  1  0
 93 94  1  0
 94 95  2  0
 95 96  1  0
 96 97  2  0
 97 98  1  0
 98 99  2  0
 82100  1  0
100101  1  0
101102  2  0
101103  1  0
 78104  1  0
 74105  1  0
105106  1  0
106107  2  0
107108  1  0
108109  2  0
109110  1  0
110111  2  0
 69112  1  0
112113  2  0
112114  1  0
 88  8  1  0
 95 91  1  0
111106  1  0
 19 14  1  0
 25 20  1  0
 35 31  2  0
 50 45  1  0
 67 62  1  0
 99 94  1  0
  1115  1  0
  1116  1  0
  3117  1  0
  4118  1  0
  5119  1  0
  5120  1  0
  6121  1  0
  6122  1  0
  7123  1  0
  7124  1  0
  8125  1  6
  9126  1  0
 12127  1  6
 13128  1  0
 13129  1  0
 15130  1  0
 16131  1  0
 18132  1  0
 19133  1  0
 21134  1  0
 22135  1  0
 23136  1  0
 24137  1  0
 25138  1  0
 26139  1  0
 29140  1  1
 30141  1  0
 30142  1  0
 32143  1  0
 33144  1  0
 35145  1  0
 36146  1  0
 39147  1  6
 40148  1  0
 43149  1  6
 44150  1  0
 44151  1  0
 46152  1  0
 47153  1  0
 49154  1  0
 50155  1  0
 51156  1  0
 52157  1  0
 52158  1  0
 53159  1  0
 53160  1  0
 57161  1  1
 60162  1  0
 60163  1  0
 61164  1  0
 61165  1  0
 63166  1  0
 64167  1  0
 66168  1  0
 67169  1  0
 68170  1  0
 70171  1  0
 70172  1  0
 70173  1  0
 71174  1  0
 74175  1  1
 75176  1  0
 78177  1  6
 79178  1  0
 82179  1  1
 83180  1  0
 86181  1  1
 87182  1  0
 90183  1  0
 90184  1  0
 92185  1  0
 93186  1  0
 96187  1  0
 97188  1  0
 98189  1  0
 99190  1  0
100191  1  0
100192  1  0
103193  1  0
103194  1  0
104195  1  0
104196  1  0
104197  1  0
105198  1  0
105199  1  0
107200  1  0
108201  1  0
109202  1  0
110203  1  0
111204  1  0
114205  1  0
M  END
>  <Ligand ID>  (1) 
LIG0001164

>  <Ligand>  (1) 
CHEMBL2096729

>  <SMILES>  (1) 
NC(=N)NCCC[C@@H]1NC(=O)[C@@H](Cc2ccc(cc2)c2ccccc2)NC(=O)[C@H](Cc2[nH]cnc2)NC(=O)[C@@H](NC(=O)[C@H](Cc2ccc(cc2)O)N)CC(=O)N([C@H](C(=O)N)Cc2ccc(cc2)O)C(C)(NC(=O)[C@@H](NC(=O)[C@@H](NC(=O)[C@@H](NC(=O)[C@@H](NC1=O)Cc1c[nH]c2c1cccc2)CC(=O)N)C)Cc1ccccc1)C(=O)O

>  <CID>  (1) 
91900702.0

>  <ChEMBL ID>  (1) 
nan

>  <InChiKey>  (1) 
MVCDKVTUKAVIJS-DJHXQOHVSA-N

>  <InChi>  (1) 
InChI=1S/C79H91N19O16/c1-43-68(104)91-59(33-44-12-5-3-6-13-44)76(112)97-79(2,77(113)114)98(64(67(82)103)35-47-23-29-53(100)30-24-47)66(102)39-63(92-69(105)55(80)32-45-21-27-52(99)28-22-45)75(111)95-61(37-51-41-85-42-88-51)74(110)93-58(34-46-19-25-49(26-20-46)48-14-7-4-8-15-48)72(108)90-57(18-11-31-86-78(83)84)70(106)94-60(36-50-40-87-56-17-10-9-16-54(50)56)73(109)96-62(38-65(81)101)71(107)89-43/h3-10,12-17,19-30,40-43,55,57-64,87,99-100H,11,18,31-39,80H2,1-2H3,(H2,81,101)(H2,82,103)(H,85,88)(H,89,107)(H,90,108)(H,91,104)(H,92,105)(H,93,110)(H,94,106)(H,95,111)(H,96,109)(H,97,112)(H,113,114)(H4,83,84,86)/t43-,55-,57-,58+,59-,60-,61-,62-,63-,64-,79?/m0/s1

>  <IUPAC Name>  (1) 
(5S,8S,11S,14S,17S,20R,23S,26S)-1-[(2S)-1-amino-3-(4-hydroxyphenyl)-1-oxopropan-2-yl]-26-[[(2S)-2-amino-3-(4-hydroxyphenyl)propanoyl]amino]-11-(2-amino-2-oxoethyl)-5-benzyl-17-(3-carbamimidamidopropyl)-23-(1H-imidazol-5-ylmethyl)-14-(1H-indol-3-ylmethyl)-2,8-dimethyl-4,7,10,13,16,19,22,25,28-nonaoxo-20-[(4-phenylphenyl)methyl]-1,3,6,9,12,15,18,21,24-nonazacyclooctacosane-2-carboxylic acid

$$$$
