
     RDKit          3D

 26 26  0  0  0  0  0  0  0  0999 V2000
   -3.0543    0.7402    0.5785 N   0  0  0  0  0  0  0  0  0  0  0  0
   -2.9400   -0.6824    0.4386 C   0  0  0  0  0  0  0  0  0  0  0  0
   -1.5123   -0.9472   -0.0834 C   0  0  1  0  0  0  0  0  0  0  0  0
   -1.2295   -0.2867   -1.4175 C   0  0  0  0  0  0  0  0  0  0  0  0
   -0.5664    0.1716   -0.1784 C   0  0  2  0  0  0  0  0  0  0  0  0
    0.8697    0.1336    0.0376 C   0  0  0  0  0  0  0  0  0  0  0  0
    1.6225    1.1919   -0.5074 C   0  0  0  0  0  0  0  0  0  0  0  0
    2.9702    1.2796   -0.3905 C   0  0  0  0  0  0  0  0  0  0  0  0
    3.6830    0.3304    0.2732 C   0  0  0  0  0  0  0  0  0  0  0  0
    2.9790   -0.7291    0.8253 C   0  0  0  0  0  0  0  0  0  0  0  0
    1.5870   -0.8182    0.7039 C   0  0  0  0  0  0  0  0  0  0  0  0
    0.7962   -2.1540    1.4267 Cl  0  0  0  0  0  0  0  0  0  0  0  0
    5.0282    0.4324    0.3809 F   0  0  0  0  0  0  0  0  0  0  0  0
    0.6839    0.0000    0.0000 Cl  0  0  0  0  0  0  0  0  0  0  0  0
   -3.1521    1.2716   -0.2905 H   0  0  0  0  0  0  0  0  0  0  0  0
   -3.5513    1.0773    1.4065 H   0  0  0  0  0  0  0  0  0  0  0  0
   -3.0776   -1.1302    1.4346 H   0  0  0  0  0  0  0  0  0  0  0  0
   -3.6125   -1.1302   -0.3102 H   0  0  0  0  0  0  0  0  0  0  0  0
   -1.2695   -1.9976    0.0622 H   0  0  0  0  0  0  0  0  0  0  0  0
   -2.0336    0.3284   -1.8720 H   0  0  0  0  0  0  0  0  0  0  0  0
   -0.6944   -0.8630   -2.1971 H   0  0  0  0  0  0  0  0  0  0  0  0
   -1.0082    1.1419    0.2196 H   0  0  0  0  0  0  0  0  0  0  0  0
    1.1144    1.9925   -1.0555 H   0  0  0  0  0  0  0  0  0  0  0  0
    3.5049    2.1265   -0.8352 H   0  0  0  0  0  0  0  0  0  0  0  0
    3.5466   -1.4794    1.3505 H   0  0  0  0  0  0  0  0  0  0  0  0
   -0.6839    0.0000    0.0000 H   0  0  0  0  0  0  0  0  0  0  0  0
  1  2  1  0
  2  3  1  0
  3  4  1  0
  4  5  1  0
  5  6  1  0
  6  7  2  0
  7  8  1  0
  8  9  2  0
  9 10  1  0
 10 11  2  0
 11 12  1  0
  9 13  1  0
  5  3  1  0
 11  6  1  0
  1 15  1  0
  1 16  1  0
  2 17  1  0
  2 18  1  0
  3 19  1  6
  4 20  1  0
  4 21  1  0
  5 22  1  1
  7 23  1  0
  8 24  1  0
 10 25  1  0
 14 26  1  0
M  END
>  <Ligand ID>  (1) 
LIG0002361

>  <Ligand>  (1) 
CHEMBL451232

>  <SMILES>  (1) 
NC[C@H]1C[C@@H]1c1ccc(cc1Cl)F.Cl

>  <CID>  (1) 
44572165.0

>  <ChEMBL ID>  (1) 
nan

>  <InChiKey>  (1) 
MSSKZLHARRXFKT-VNUWRVCDSA-N

>  <InChi>  (1) 
InChI=1S/C10H11ClFN.ClH/c11-10-4-7(12)1-2-8(10)9-3-6(9)5-13;/h1-2,4,6,9H,3,5,13H2;1H/t6-,9+;/m1./s1

>  <IUPAC Name>  (1) 
[(1S,2S)-2-(2-chloro-4-fluorophenyl)cyclopropyl]methanamine;hydrochloride

$$$$
