
     RDKit          3D

 58 59  0  0  0  0  0  0  0  0999 V2000
    5.4609    0.8123    3.3610 O   0  0  0  0  0  0  0  0  0  0  0  0
    5.8209    1.1974    2.0693 C   0  0  0  0  0  0  0  0  0  0  0  0
    6.9468    1.7133    1.8109 O   0  0  0  0  0  0  0  0  0  0  0  0
    4.8754    1.0143    0.9109 C   0  0  0  0  0  0  0  0  0  0  0  0
    5.5577    1.5283   -0.3131 C   0  0  0  0  0  0  0  0  0  0  0  0
    4.8088    1.4302   -1.5247 N   0  0  0  0  0  0  0  0  0  0  0  0
    4.6102    0.0892   -1.9743 C   0  0  0  0  0  0  0  0  0  0  0  0
    3.8351   -0.0298   -3.2406 C   0  0  0  0  0  0  0  0  0  0  0  0
    2.4514    0.5437   -3.0979 C   0  0  0  0  0  0  0  0  0  0  0  0
    1.6640   -0.1521   -2.0547 C   0  0  0  0  0  0  0  0  0  0  0  0
    0.9293   -1.2547   -2.4282 C   0  0  0  0  0  0  0  0  0  0  0  0
    0.1703   -1.9575   -1.5252 C   0  0  0  0  0  0  0  0  0  0  0  0
    0.0991   -1.5921   -0.1659 C   0  0  0  0  0  0  0  0  0  0  0  0
    0.8372   -0.4944    0.1835 C   0  0  0  0  0  0  0  0  0  0  0  0
    1.6113    0.2235   -0.7361 C   0  0  0  0  0  0  0  0  0  0  0  0
   -0.6797   -2.3645    0.6220 O   0  0  0  0  0  0  0  0  0  0  0  0
   -0.9603   -2.2523    1.9431 C   0  0  0  0  0  0  0  0  0  0  0  0
   -1.7206   -1.0457    2.3908 C   0  0  0  0  0  0  0  0  0  0  0  0
   -3.1018   -0.9691    1.8101 C   0  0  0  0  0  0  0  0  0  0  0  0
   -3.0821   -0.8998    0.3366 C   0  0  0  0  0  0  0  0  0  0  0  0
   -4.4802   -0.7790   -0.2668 C   0  0  0  0  0  0  0  0  0  0  0  0
   -5.2074    0.4186    0.1818 C   0  0  0  0  0  0  0  0  0  0  0  0
   -6.0105    0.3865    1.3040 C   0  0  0  0  0  0  0  0  0  0  0  0
   -6.6867    1.5479    1.6969 C   0  0  0  0  0  0  0  0  0  0  0  0
   -6.5663    2.7211    0.9862 C   0  0  0  0  0  0  0  0  0  0  0  0
   -5.7604    2.7123   -0.1207 C   0  0  0  0  0  0  0  0  0  0  0  0
   -5.0712    1.6010   -0.5548 C   0  0  0  0  0  0  0  0  0  0  0  0
    5.8709    1.3907    4.1047 H   0  0  0  0  0  0  0  0  0  0  0  0
    4.6060   -0.0416    0.8834 H   0  0  0  0  0  0  0  0  0  0  0  0
    3.9368    1.6155    1.1088 H   0  0  0  0  0  0  0  0  0  0  0  0
    6.5285    0.9982   -0.4051 H   0  0  0  0  0  0  0  0  0  0  0  0
    5.7841    2.6121   -0.1506 H   0  0  0  0  0  0  0  0  0  0  0  0
    4.0142    2.0663   -1.5702 H   0  0  0  0  0  0  0  0  0  0  0  0
    5.6163   -0.3838   -2.0876 H   0  0  0  0  0  0  0  0  0  0  0  0
    4.0188   -0.4664   -1.1902 H   0  0  0  0  0  0  0  0  0  0  0  0
    4.3619    0.3408   -4.1334 H   0  0  0  0  0  0  0  0  0  0  0  0
    3.6962   -1.1303   -3.4246 H   0  0  0  0  0  0  0  0  0  0  0  0
    2.4752    1.6225   -2.8301 H   0  0  0  0  0  0  0  0  0  0  0  0
    1.9585    0.4967   -4.0931 H   0  0  0  0  0  0  0  0  0  0  0  0
    0.9522   -1.5794   -3.4757 H   0  0  0  0  0  0  0  0  0  0  0  0
   -0.3794   -2.8131   -1.8960 H   0  0  0  0  0  0  0  0  0  0  0  0
    0.8709   -0.1416    1.1878 H   0  0  0  0  0  0  0  0  0  0  0  0
    2.1744    1.0849   -0.4109 H   0  0  0  0  0  0  0  0  0  0  0  0
   -0.0179   -2.3594    2.5706 H   0  0  0  0  0  0  0  0  0  0  0  0
   -1.5386   -3.1912    2.2552 H   0  0  0  0  0  0  0  0  0  0  0  0
   -1.1878   -0.0881    2.1310 H   0  0  0  0  0  0  0  0  0  0  0  0
   -1.7626   -1.1295    3.5187 H   0  0  0  0  0  0  0  0  0  0  0  0
   -3.6912   -0.1410    2.2787 H   0  0  0  0  0  0  0  0  0  0  0  0
   -3.5808   -1.9646    2.0814 H   0  0  0  0  0  0  0  0  0  0  0  0
   -2.3932   -0.1636   -0.1122 H   0  0  0  0  0  0  0  0  0  0  0  0
   -2.7446   -1.9130   -0.0417 H   0  0  0  0  0  0  0  0  0  0  0  0
   -4.3199   -0.8114   -1.3766 H   0  0  0  0  0  0  0  0  0  0  0  0
   -5.0412   -1.7078   -0.0394 H   0  0  0  0  0  0  0  0  0  0  0  0
   -6.0855   -0.5341    1.8342 H   0  0  0  0  0  0  0  0  0  0  0  0
   -7.3168    1.5250    2.5749 H   0  0  0  0  0  0  0  0  0  0  0  0
   -7.0712    3.6391    1.2566 H   0  0  0  0  0  0  0  0  0  0  0  0
   -5.6387    3.6251   -0.7132 H   0  0  0  0  0  0  0  0  0  0  0  0
   -4.4467    1.6497   -1.4398 H   0  0  0  0  0  0  0  0  0  0  0  0
  1  2  1  0
  2  3  2  0
  2  4  1  0
  4  5  1  0
  5  6  1  0
  6  7  1  0
  7  8  1  0
  8  9  1  0
  9 10  1  0
 10 11  2  0
 11 12  1  0
 12 13  2  0
 13 14  1  0
 14 15  2  0
 13 16  1  0
 16 17  1  0
 17 18  1  0
 18 19  1  0
 19 20  1  0
 20 21  1  0
 21 22  1  0
 22 23  2  0
 23 24  1  0
 24 25  2  0
 25 26  1  0
 26 27  2  0
 15 10  1  0
 27 22  1  0
  1 28  1  0
  4 29  1  0
  4 30  1  0
  5 31  1  0
  5 32  1  0
  6 33  1  0
  7 34  1  0
  7 35  1  0
  8 36  1  0
  8 37  1  0
  9 38  1  0
  9 39  1  0
 11 40  1  0
 12 41  1  0
 14 42  1  0
 15 43  1  0
 17 44  1  0
 17 45  1  0
 18 46  1  0
 18 47  1  0
 19 48  1  0
 19 49  1  0
 20 50  1  0
 20 51  1  0
 21 52  1  0
 21 53  1  0
 23 54  1  0
 24 55  1  0
 25 56  1  0
 26 57  1  0
 27 58  1  0
M  END
>  <Ligand ID>  (1) 
LIG0002676

>  <Ligand>  (1) 
CHEMBL1683041

>  <SMILES>  (1) 
OC(=O)CCNCCCc1ccc(cc1)OCCCCCc1ccccc1

>  <CID>  (1) 
9969355.0

>  <ChEMBL ID>  (1) 
nan

>  <InChiKey>  (1) 
LXQCLILJSSCULX-UHFFFAOYSA-N

>  <InChi>  (1) 
InChI=1S/C23H31NO3/c25-23(26)16-18-24-17-7-11-21-12-14-22(15-13-21)27-19-6-2-5-10-20-8-3-1-4-9-20/h1,3-4,8-9,12-15,24H,2,5-7,10-11,16-19H2,(H,25,26)

>  <IUPAC Name>  (1) 
3-[3-[4-(5-phenylpentoxy)phenyl]propylamino]propanoic acid

$$$$
