
     RDKit          3D

 58 61  0  0  0  0  0  0  0  0999 V2000
   -3.5555   -0.0647   -1.3624 O   0  0  0  0  0  0  0  0  0  0  0  0
   -2.5523    0.1382   -0.5731 C   0  0  0  0  0  0  0  0  0  0  0  0
   -1.7966   -0.9830   -0.0980 N   0  0  0  0  0  0  0  0  0  0  0  0
   -0.6381   -0.7994    0.7847 C   0  0  0  0  0  0  0  0  0  0  0  0
   -0.9584   -0.0660    2.0244 C   0  0  0  0  0  0  0  0  0  0  0  0
   -1.6324   -1.0764    2.9692 C   0  0  0  0  0  0  0  0  0  0  0  0
   -0.4966   -1.8099    3.6635 C   0  0  0  0  0  0  0  0  0  0  0  0
    0.5738   -2.0107    2.6131 C   0  0  0  0  0  0  0  0  0  0  0  0
   -0.0687   -2.1566    1.2258 C   0  0  0  0  0  0  0  0  0  0  0  0
    0.4049   -0.2161   -0.0854 C   0  0  0  0  0  0  0  0  0  0  0  0
    0.2493   -0.3782   -1.3466 O   0  0  0  0  0  0  0  0  0  0  0  0
    1.5409    0.4928    0.3295 N   0  0  0  0  0  0  0  0  0  0  0  0
    2.4583    0.9724   -0.6733 C   0  0  0  0  0  0  0  0  0  0  0  0
    2.4729    2.4807   -0.8209 C   0  0  0  0  0  0  0  0  0  0  0  0
    3.6447    2.6130   -1.8110 C   0  0  0  0  0  0  0  0  0  0  0  0
    4.6387    1.5548   -1.3364 C   0  0  0  0  0  0  0  0  0  0  0  0
    3.8816    0.6583   -0.3815 C   0  0  0  0  0  0  0  0  0  0  0  0
   -2.2457   -2.2781   -0.5730 C   0  0  0  0  0  0  0  0  0  0  0  0
   -1.5568   -2.6880   -1.8446 C   0  0  0  0  0  0  0  0  0  0  0  0
   -0.4360   -3.4841   -1.9385 C   0  0  0  0  0  0  0  0  0  0  0  0
   -0.1178   -3.6207   -3.2846 C   0  0  0  0  0  0  0  0  0  0  0  0
   -1.0776   -2.8900   -3.9460 C   0  0  0  0  0  0  0  0  0  0  0  0
   -1.9033   -2.3577   -3.0717 O   0  0  0  0  0  0  0  0  0  0  0  0
   -2.3164    1.5284   -0.2590 C   0  0  0  0  0  0  0  0  0  0  0  0
   -3.4158    2.2001    0.3194 C   0  0  0  0  0  0  0  0  0  0  0  0
   -3.3438    3.5310    0.6592 C   0  0  0  0  0  0  0  0  0  0  0  0
   -2.1563    4.2223    0.4230 C   0  0  0  0  0  0  0  0  0  0  0  0
   -1.1038    3.5152   -0.1483 C   0  0  0  0  0  0  0  0  0  0  0  0
   -1.2129    2.2180   -0.4655 N   0  0  0  0  0  0  0  0  0  0  0  0
   -0.0429    0.2757    2.5536 H   0  0  0  0  0  0  0  0  0  0  0  0
   -1.6047    0.8037    1.9630 H   0  0  0  0  0  0  0  0  0  0  0  0
   -2.2094   -0.5640    3.7377 H   0  0  0  0  0  0  0  0  0  0  0  0
   -2.3036   -1.7612    2.3968 H   0  0  0  0  0  0  0  0  0  0  0  0
   -0.1383   -1.1258    4.4621 H   0  0  0  0  0  0  0  0  0  0  0  0
   -0.8394   -2.7638    4.1169 H   0  0  0  0  0  0  0  0  0  0  0  0
    1.0907   -2.9769    2.8394 H   0  0  0  0  0  0  0  0  0  0  0  0
    1.3100   -1.1988    2.6686 H   0  0  0  0  0  0  0  0  0  0  0  0
   -0.8252   -2.9261    1.3656 H   0  0  0  0  0  0  0  0  0  0  0  0
    0.7430   -2.4565    0.5547 H   0  0  0  0  0  0  0  0  0  0  0  0
    1.7172    0.6705    1.3153 H   0  0  0  0  0  0  0  0  0  0  0  0
    2.1927    0.5990   -1.6920 H   0  0  0  0  0  0  0  0  0  0  0  0
    1.5379    2.8396   -1.2904 H   0  0  0  0  0  0  0  0  0  0  0  0
    2.7534    2.9487    0.1176 H   0  0  0  0  0  0  0  0  0  0  0  0
    3.2455    2.2665   -2.8057 H   0  0  0  0  0  0  0  0  0  0  0  0
    4.0617    3.6208   -1.8440 H   0  0  0  0  0  0  0  0  0  0  0  0
    5.0014    0.9395   -2.2100 H   0  0  0  0  0  0  0  0  0  0  0  0
    5.5193    2.0361   -0.8593 H   0  0  0  0  0  0  0  0  0  0  0  0
    4.1505   -0.4096   -0.4606 H   0  0  0  0  0  0  0  0  0  0  0  0
    4.0835    1.0446    0.6629 H   0  0  0  0  0  0  0  0  0  0  0  0
   -3.3527   -2.1826   -0.8397 H   0  0  0  0  0  0  0  0  0  0  0  0
   -2.2266   -3.0912    0.1424 H   0  0  0  0  0  0  0  0  0  0  0  0
    0.1488   -3.9591   -1.1677 H   0  0  0  0  0  0  0  0  0  0  0  0
    0.6936   -4.1713   -3.7035 H   0  0  0  0  0  0  0  0  0  0  0  0
   -1.1350   -2.7780   -5.0161 H   0  0  0  0  0  0  0  0  0  0  0  0
   -4.3466    1.6743    0.5155 H   0  0  0  0  0  0  0  0  0  0  0  0
   -4.1976    4.0412    1.1068 H   0  0  0  0  0  0  0  0  0  0  0  0
   -2.1059    5.2552    0.6889 H   0  0  0  0  0  0  0  0  0  0  0  0
   -0.2016    4.1040   -0.3113 H   0  0  0  0  0  0  0  0  0  0  0  0
  1  2  2  0
  2  3  1  0
  3  4  1  0
  4  5  1  0
  5  6  1  0
  6  7  1  0
  7  8  1  0
  8  9  1  0
  4 10  1  0
 10 11  2  0
 10 12  1  0
 12 13  1  0
 13 14  1  0
 14 15  1  0
 15 16  1  0
 16 17  1  0
  3 18  1  0
 18 19  1  0
 19 20  2  0
 20 21  1  0
 21 22  2  0
 22 23  1  0
  2 24  1  0
 24 25  2  0
 25 26  1  0
 26 27  2  0
 27 28  1  0
 28 29  2  0
  9  4  1  0
 17 13  1  0
 23 19  1  0
 29 24  1  0
  5 30  1  0
  5 31  1  0
  6 32  1  0
  6 33  1  0
  7 34  1  0
  7 35  1  0
  8 36  1  0
  8 37  1  0
  9 38  1  0
  9 39  1  0
 12 40  1  0
 13 41  1  0
 14 42  1  0
 14 43  1  0
 15 44  1  0
 15 45  1  0
 16 46  1  0
 16 47  1  0
 17 48  1  0
 17 49  1  0
 18 50  1  0
 18 51  1  0
 20 52  1  0
 21 53  1  0
 22 54  1  0
 25 55  1  0
 26 56  1  0
 27 57  1  0
 28 58  1  0
M  END
>  <Ligand ID>  (1) 
LIG0003045

>  <Ligand>  (1) 
MLS000519747

>  <SMILES>  (1) 
O=C(N(C1(CCCCC1)C(=O)NC1CCCC1)Cc1ccco1)c1ccccn1

>  <CID>  (1) 
3626869.0

>  <ChEMBL ID>  (1) 
nan

>  <InChiKey>  (1) 
VGYFEDMTCLKKJL-UHFFFAOYSA-N

>  <InChi>  (1) 
InChI=1S/C23H29N3O3/c27-21(20-12-4-7-15-24-20)26(17-19-11-8-16-29-19)23(13-5-1-6-14-23)22(28)25-18-9-2-3-10-18/h4,7-8,11-12,15-16,18H,1-3,5-6,9-10,13-14,17H2,(H,25,28)

>  <IUPAC Name>  (1) 
N-[1-(cyclopentylcarbamoyl)cyclohexyl]-N-(furan-2-ylmethyl)pyridine-2-carboxamide

$$$$
