
     RDKit          3D

 81 83  0  0  0  0  0  0  0  0999 V2000
   -9.0952   -4.1318    0.7132 C   0  0  0  0  0  0  0  0  0  0  0  0
   -9.9172   -2.9532    1.1093 C   0  0  0  0  0  0  0  0  0  0  0  0
   -8.9672   -1.8268    1.5827 C   0  0  0  0  0  0  0  0  0  0  0  0
   -9.7837   -0.6563    1.9616 C   0  0  0  0  0  0  0  0  0  0  0  0
   -9.1404    0.5567    2.5066 C   0  0  0  0  0  0  0  0  0  0  0  0
   -8.0983    1.1707    1.6453 C   0  0  0  0  0  0  0  0  0  0  0  0
   -6.9015    0.3978    1.4454 N   0  0  0  0  0  0  0  0  0  0  0  0
   -5.9184    0.9525    0.5699 C   0  0  0  0  0  0  0  0  0  0  0  0
   -6.1214    2.0640   -0.0186 O   0  0  0  0  0  0  0  0  0  0  0  0
   -4.6650    0.3057    0.3101 N   0  0  0  0  0  0  0  0  0  0  0  0
   -3.7611    0.9394   -0.6090 C   0  0  0  0  0  0  0  0  0  0  0  0
   -2.8832    1.9244   -0.2547 C   0  0  0  0  0  0  0  0  0  0  0  0
   -2.0603    2.4729   -1.2590 C   0  0  0  0  0  0  0  0  0  0  0  0
   -2.1089    2.0609   -2.5495 C   0  0  0  0  0  0  0  0  0  0  0  0
   -3.0390    1.0329   -2.8632 C   0  0  0  0  0  0  0  0  0  0  0  0
   -3.8460    0.4881   -1.9101 C   0  0  0  0  0  0  0  0  0  0  0  0
   -1.2414    2.6795   -3.9086 S   0  0  0  0  0  0  0  0  0  0  0  0
   -1.0984    4.1983   -3.6695 O   0  0  0  0  0  0  0  0  0  0  0  0
   -2.0754    2.5882   -5.1684 O   0  0  0  0  0  0  0  0  0  0  0  0
    0.3035    2.0107   -4.1701 N   0  0  0  0  0  0  0  0  0  0  0  0
    1.4423    2.0791   -3.3519 C   0  0  0  0  0  0  0  0  0  0  0  0
    2.6649    2.1533   -4.0452 C   0  0  0  0  0  0  0  0  0  0  0  0
    3.8737    2.2556   -3.4189 C   0  0  0  0  0  0  0  0  0  0  0  0
    3.9300    2.2874   -2.0191 C   0  0  0  0  0  0  0  0  0  0  0  0
    2.7300    2.2113   -1.2979 C   0  0  0  0  0  0  0  0  0  0  0  0
    1.5242    2.1066   -2.0010 C   0  0  0  0  0  0  0  0  0  0  0  0
    5.2414    2.4188   -1.3482 C   0  0  0  0  0  0  0  0  0  0  0  0
    5.7884    1.1515   -0.8383 C   0  0  0  0  0  0  0  0  0  0  0  0
    5.0388    0.4728    0.1449 N   0  0  0  0  0  0  0  0  0  0  0  0
    4.8910    1.0354    1.4231 C   0  0  0  0  0  0  0  0  0  0  0  0
    6.0782    1.1062    2.3204 C   0  0  1  0  0  0  0  0  0  0  0  0
    6.6311   -0.2474    2.7158 C   0  0  0  0  0  0  0  0  0  0  0  0
    7.1759   -0.8208    1.5612 O   0  0  0  0  0  0  0  0  0  0  0  0
    7.7806   -2.0437    1.5041 C   0  0  0  0  0  0  0  0  0  0  0  0
    7.9159   -2.8586    2.6177 C   0  0  0  0  0  0  0  0  0  0  0  0
    8.5277   -4.0783    2.5217 C   0  0  0  0  0  0  0  0  0  0  0  0
    9.0099   -4.4965    1.3103 C   0  0  0  0  0  0  0  0  0  0  0  0
    8.8999   -3.7205    0.1637 C   0  0  0  0  0  0  0  0  0  0  0  0
    8.2752   -2.4961    0.3067 C   0  0  0  0  0  0  0  0  0  0  0  0
    9.6464   -5.7361    1.1363 O   0  0  0  0  0  0  0  0  0  0  0  0
    7.1547    1.8512    1.8064 O   0  0  0  0  0  0  0  0  0  0  0  0
   -8.0342   -3.8369    0.5537 H   0  0  0  0  0  0  0  0  0  0  0  0
   -9.1418   -4.9071    1.5124 H   0  0  0  0  0  0  0  0  0  0  0  0
   -9.4610   -4.5659   -0.2599 H   0  0  0  0  0  0  0  0  0  0  0  0
  -10.5968   -3.2461    1.9438 H   0  0  0  0  0  0  0  0  0  0  0  0
  -10.5328   -2.6139    0.2583 H   0  0  0  0  0  0  0  0  0  0  0  0
   -8.3620   -2.2568    2.3896 H   0  0  0  0  0  0  0  0  0  0  0  0
   -8.2844   -1.6319    0.7155 H   0  0  0  0  0  0  0  0  0  0  0  0
  -10.4292   -0.3161    1.1097 H   0  0  0  0  0  0  0  0  0  0  0  0
  -10.5108   -0.9951    2.7708 H   0  0  0  0  0  0  0  0  0  0  0  0
   -8.7732    0.4313    3.5558 H   0  0  0  0  0  0  0  0  0  0  0  0
   -9.9661    1.3338    2.5983 H   0  0  0  0  0  0  0  0  0  0  0  0
   -7.8502    2.2256    1.9494 H   0  0  0  0  0  0  0  0  0  0  0  0
   -8.5376    1.3135    0.6039 H   0  0  0  0  0  0  0  0  0  0  0  0
   -6.6828   -0.5054    1.8880 H   0  0  0  0  0  0  0  0  0  0  0  0
   -4.4448   -0.5978    0.7891 H   0  0  0  0  0  0  0  0  0  0  0  0
   -2.8239    2.2703    0.7588 H   0  0  0  0  0  0  0  0  0  0  0  0
   -1.3463    3.2683   -1.0040 H   0  0  0  0  0  0  0  0  0  0  0  0
   -3.1161    0.6626   -3.8751 H   0  0  0  0  0  0  0  0  0  0  0  0
   -4.5384   -0.2991   -2.2080 H   0  0  0  0  0  0  0  0  0  0  0  0
    0.4448    1.4849   -5.0850 H   0  0  0  0  0  0  0  0  0  0  0  0
    2.6625    2.1264   -5.1531 H   0  0  0  0  0  0  0  0  0  0  0  0
    4.7885    2.3074   -4.0155 H   0  0  0  0  0  0  0  0  0  0  0  0
    2.7328    2.2298   -0.2174 H   0  0  0  0  0  0  0  0  0  0  0  0
    0.6517    2.0509   -1.4081 H   0  0  0  0  0  0  0  0  0  0  0  0
    5.9364    2.8825   -2.1196 H   0  0  0  0  0  0  0  0  0  0  0  0
    5.1574    3.2315   -0.5927 H   0  0  0  0  0  0  0  0  0  0  0  0
    6.8158    1.3350   -0.4387 H   0  0  0  0  0  0  0  0  0  0  0  0
    5.9486    0.4451   -1.6883 H   0  0  0  0  0  0  0  0  0  0  0  0
    5.0256   -0.5647    0.0870 H   0  0  0  0  0  0  0  0  0  0  0  0
    4.1510    0.3621    1.9697 H   0  0  0  0  0  0  0  0  0  0  0  0
    4.3209    2.0138    1.4144 H   0  0  0  0  0  0  0  0  0  0  0  0
    5.7486    1.6269    3.2853 H   0  0  0  0  0  0  0  0  0  0  0  0
    7.4723   -0.0591    3.4196 H   0  0  0  0  0  0  0  0  0  0  0  0
    5.8987   -0.8607    3.2479 H   0  0  0  0  0  0  0  0  0  0  0  0
    7.5265   -2.5081    3.5638 H   0  0  0  0  0  0  0  0  0  0  0  0
    8.6297   -4.7099    3.3737 H   0  0  0  0  0  0  0  0  0  0  0  0
    9.2668   -4.0357   -0.7970 H   0  0  0  0  0  0  0  0  0  0  0  0
    8.1654   -1.8398   -0.5651 H   0  0  0  0  0  0  0  0  0  0  0  0
   10.3497   -5.8559    0.4528 H   0  0  0  0  0  0  0  0  0  0  0  0
    7.9368    1.6983    2.3773 H   0  0  0  0  0  0  0  0  0  0  0  0
  1  2  1  0
  2  3  1  0
  3  4  1  0
  4  5  1  0
  5  6  1  0
  6  7  1  0
  7  8  1  0
  8  9  2  0
  8 10  1  0
 10 11  1  0
 11 12  2  0
 12 13  1  0
 13 14  2  0
 14 15  1  0
 15 16  2  0
 14 17  1  0
 17 18  2  0
 17 19  2  0
 17 20  1  0
 20 21  1  0
 21 22  2  0
 22 23  1  0
 23 24  2  0
 24 25  1  0
 25 26  2  0
 24 27  1  0
 27 28  1  0
 28 29  1  0
 29 30  1  0
 30 31  1  0
 31 32  1  0
 32 33  1  0
 33 34  1  0
 34 35  2  0
 35 36  1  0
 36 37  2  0
 37 38  1  0
 38 39  2  0
 37 40  1  0
 31 41  1  0
 16 11  1  0
 26 21  1  0
 39 34  1  0
  1 42  1  0
  1 43  1  0
  1 44  1  0
  2 45  1  0
  2 46  1  0
  3 47  1  0
  3 48  1  0
  4 49  1  0
  4 50  1  0
  5 51  1  0
  5 52  1  0
  6 53  1  0
  6 54  1  0
  7 55  1  0
 10 56  1  0
 12 57  1  0
 13 58  1  0
 15 59  1  0
 16 60  1  0
 20 61  1  0
 22 62  1  0
 23 63  1  0
 25 64  1  0
 26 65  1  0
 27 66  1  0
 27 67  1  0
 28 68  1  0
 28 69  1  0
 29 70  1  0
 30 71  1  0
 30 72  1  0
 31 73  1  1
 32 74  1  0
 32 75  1  0
 35 76  1  0
 36 77  1  0
 38 78  1  0
 39 79  1  0
 40 80  1  0
 41 81  1  0
M  END
>  <Ligand ID>  (1) 
LIG0004312

>  <Ligand>  (1) 
L 755507

>  <SMILES>  (1) 
CCCCCCNC(=O)Nc1ccc(cc1)S(=O)(=O)Nc1ccc(cc1)CCNC[C@@H](COc1ccc(cc1)O)O

>  <CID>  (1) 
9829836.0

>  <ChEMBL ID>  (1) 
nan

>  <InChiKey>  (1) 
NYYJKMXNVNFOFQ-MHZLTWQESA-N

>  <InChi>  (1) 
InChI=1S/C30H40N4O6S/c1-2-3-4-5-19-32-30(37)33-24-10-16-29(17-11-24)41(38,39)34-25-8-6-23(7-9-25)18-20-31-21-27(36)22-40-28-14-12-26(35)13-15-28/h6-17,27,31,34-36H,2-5,18-22H2,1H3,(H2,32,33,37)/t27-/m0/s1

>  <IUPAC Name>  (1) 
1-hexyl-3-[4-[[4-[2-[[(2S)-2-hydroxy-3-(4-hydroxyphenoxy)propyl]amino]ethyl]phenyl]sulfamoyl]phenyl]urea

$$$$
