
     RDKit          3D

 85 86  0  0  0  0  0  0  0  0999 V2000
   -0.9608   -0.0632   -0.0460 C   0  0  0  0  0  0  0  0  0  0  0  0
    0.4779    0.2273   -0.1181 C   0  0  0  0  0  0  0  0  0  0  0  0
    0.8290    1.4253   -0.2907 O   0  0  0  0  0  0  0  0  0  0  0  0
    1.4820   -0.7172   -0.0107 O   0  0  0  0  0  0  0  0  0  0  0  0
   -9.0271   -3.8872    2.7542 O   0  0  0  0  0  0  0  0  0  0  0  0
   -7.6660   -3.6387    2.4839 C   0  0  0  0  0  0  0  0  0  0  0  0
   -7.5405   -2.7701    1.2614 C   0  0  0  0  0  0  0  0  0  0  0  0
   -7.2468   -1.4362    1.3306 C   0  0  0  0  0  0  0  0  0  0  0  0
   -7.1469   -0.6629    0.1821 C   0  0  0  0  0  0  0  0  0  0  0  0
   -7.3551   -1.2942   -1.0193 C   0  0  0  0  0  0  0  0  0  0  0  0
   -7.6547   -2.6554   -1.0948 C   0  0  0  0  0  0  0  0  0  0  0  0
   -7.7509   -3.4128    0.0566 C   0  0  0  0  0  0  0  0  0  0  0  0
   -8.0478   -4.7586   -0.0210 O   0  0  0  0  0  0  0  0  0  0  0  0
   -6.8261    0.8107    0.2671 C   0  0  2  0  0  0  0  0  0  0  0  0
   -6.5947    1.3076   -1.1173 C   0  0  0  0  0  0  0  0  0  0  0  0
   -5.4762    0.7146   -1.7561 N   0  0  0  0  0  0  0  0  0  0  0  0
   -4.2235    1.1470   -1.2352 C   0  0  0  0  0  0  0  0  0  0  0  0
   -3.0546    0.6092   -2.0502 C   0  0  0  0  0  0  0  0  0  0  0  0
   -1.7683    1.1086   -1.4313 C   0  0  0  0  0  0  0  0  0  0  0  0
   -1.7170    2.6003   -1.4401 C   0  0  0  0  0  0  0  0  0  0  0  0
   -0.4527    3.1825   -0.8697 C   0  0  0  0  0  0  0  0  0  0  0  0
   -0.1720    2.8306    0.5423 C   0  0  0  0  0  0  0  0  0  0  0  0
    0.0546    1.5174    0.8354 O   0  0  0  0  0  0  0  0  0  0  0  0
    1.1958    0.9962    0.2315 C   0  0  0  0  0  0  0  0  0  0  0  0
    2.4483    1.7134    0.6912 C   0  0  0  0  0  0  0  0  0  0  0  0
    3.6801    1.1256   -0.0050 C   0  0  0  0  0  0  0  0  0  0  0  0
    4.9326    1.8409    0.4614 C   0  0  0  0  0  0  0  0  0  0  0  0
    6.1080    1.2721   -0.2244 C   0  0  0  0  0  0  0  0  0  0  0  0
    6.5408    1.8177   -1.4301 C   0  0  0  0  0  0  0  0  0  0  0  0
    7.6364    1.3173   -2.0982 C   0  0  0  0  0  0  0  0  0  0  0  0
    8.3316    0.2529   -1.5757 C   0  0  0  0  0  0  0  0  0  0  0  0
    7.9382   -0.3186   -0.3846 C   0  0  0  0  0  0  0  0  0  0  0  0
    6.8391    0.2095    0.2529 C   0  0  0  0  0  0  0  0  0  0  0  0
    8.6970   -1.4122    0.1013 N   0  0  0  0  0  0  0  0  0  0  0  0
    8.2150   -2.6694   -0.0379 C   0  0  0  0  0  0  0  0  0  0  0  0
    9.0154   -3.6885    0.4595 C   0  0  0  0  0  0  0  0  0  0  0  0
   10.2464   -3.4182    1.0674 C   0  0  0  0  0  0  0  0  0  0  0  0
   10.9773   -4.3361    1.5207 O   0  0  0  0  0  0  0  0  0  0  0  0
   10.6728   -2.1463    1.1768 N   0  0  0  0  0  0  0  0  0  0  0  0
    9.8803   -1.1568    0.6855 C   0  0  0  0  0  0  0  0  0  0  0  0
   10.2769    0.0266    0.7872 O   0  0  0  0  0  0  0  0  0  0  0  0
   -5.7483    1.0770    1.0831 O   0  0  0  0  0  0  0  0  0  0  0  0
   -1.4503    0.0164   -1.0386 H   0  0  0  0  0  0  0  0  0  0  0  0
   -1.5137    0.6472    0.6233 H   0  0  0  0  0  0  0  0  0  0  0  0
   -1.1783   -1.0748    0.3390 H   0  0  0  0  0  0  0  0  0  0  0  0
    2.3141   -0.4611    0.5418 H   0  0  0  0  0  0  0  0  0  0  0  0
   -9.5626   -3.3716    2.1015 H   0  0  0  0  0  0  0  0  0  0  0  0
   -7.1638   -4.6024    2.2482 H   0  0  0  0  0  0  0  0  0  0  0  0
   -7.2124   -3.1514    3.3613 H   0  0  0  0  0  0  0  0  0  0  0  0
   -7.0865   -0.9608    2.2892 H   0  0  0  0  0  0  0  0  0  0  0  0
   -7.2977   -0.7749   -1.9508 H   0  0  0  0  0  0  0  0  0  0  0  0
   -7.8192   -3.1612   -2.0345 H   0  0  0  0  0  0  0  0  0  0  0  0
   -8.5911   -5.0668   -0.8283 H   0  0  0  0  0  0  0  0  0  0  0  0
   -7.7520    1.3360    0.6873 H   0  0  0  0  0  0  0  0  0  0  0  0
   -7.5283    1.2223   -1.7495 H   0  0  0  0  0  0  0  0  0  0  0  0
   -6.4748    2.4312   -1.0194 H   0  0  0  0  0  0  0  0  0  0  0  0
   -5.5001    0.8090   -2.7873 H   0  0  0  0  0  0  0  0  0  0  0  0
   -4.2482    2.2700   -1.2819 H   0  0  0  0  0  0  0  0  0  0  0  0
   -4.0717    0.7445   -0.2273 H   0  0  0  0  0  0  0  0  0  0  0  0
   -3.1445    0.8318   -3.1134 H   0  0  0  0  0  0  0  0  0  0  0  0
   -3.0457   -0.4941   -1.9197 H   0  0  0  0  0  0  0  0  0  0  0  0
   -0.8872    0.7278   -1.9972 H   0  0  0  0  0  0  0  0  0  0  0  0
   -1.7447    0.7848   -0.3566 H   0  0  0  0  0  0  0  0  0  0  0  0
   -1.7573    2.9834   -2.5063 H   0  0  0  0  0  0  0  0  0  0  0  0
   -2.5392    3.0666   -0.8428 H   0  0  0  0  0  0  0  0  0  0  0  0
   -0.5966    4.3040   -0.9141 H   0  0  0  0  0  0  0  0  0  0  0  0
    0.3585    2.9024   -1.5757 H   0  0  0  0  0  0  0  0  0  0  0  0
    0.5805    3.5482    0.9780 H   0  0  0  0  0  0  0  0  0  0  0  0
   -1.1144    3.1071    1.1188 H   0  0  0  0  0  0  0  0  0  0  0  0
    1.2942   -0.0524    0.5836 H   0  0  0  0  0  0  0  0  0  0  0  0
    1.1409    0.9599   -0.8715 H   0  0  0  0  0  0  0  0  0  0  0  0
    2.6151    1.5033    1.7680 H   0  0  0  0  0  0  0  0  0  0  0  0
    2.4181    2.8011    0.5948 H   0  0  0  0  0  0  0  0  0  0  0  0
    3.5891    1.3649   -1.0843 H   0  0  0  0  0  0  0  0  0  0  0  0
    3.7185    0.0471    0.1123 H   0  0  0  0  0  0  0  0  0  0  0  0
    5.0648    1.7107    1.5740 H   0  0  0  0  0  0  0  0  0  0  0  0
    4.8691    2.9256    0.2944 H   0  0  0  0  0  0  0  0  0  0  0  0
    6.0348    2.6600   -1.8985 H   0  0  0  0  0  0  0  0  0  0  0  0
    7.9417    1.7689   -3.0308 H   0  0  0  0  0  0  0  0  0  0  0  0
    9.1871   -0.1369   -2.0979 H   0  0  0  0  0  0  0  0  0  0  0  0
    6.5474   -0.2538    1.1837 H   0  0  0  0  0  0  0  0  0  0  0  0
    7.2523   -2.8734   -0.5124 H   0  0  0  0  0  0  0  0  0  0  0  0
    8.6910   -4.7264    0.3835 H   0  0  0  0  0  0  0  0  0  0  0  0
   11.5775   -1.9259    1.6221 H   0  0  0  0  0  0  0  0  0  0  0  0
   -5.9602    0.9254    2.0555 H   0  0  0  0  0  0  0  0  0  0  0  0
  1  2  1  0
  2  3  2  0
  2  4  1  0
  5  6  1  0
  6  7  1  0
  7  8  2  0
  8  9  1  0
  9 10  2  0
 10 11  1  0
 11 12  2  0
 12 13  1  0
  9 14  1  0
 14 15  1  0
 15 16  1  0
 16 17  1  0
 17 18  1  0
 18 19  1  0
 19 20  1  0
 20 21  1  0
 21 22  1  0
 22 23  1  0
 23 24  1  0
 24 25  1  0
 25 26  1  0
 26 27  1  0
 27 28  1  0
 28 29  2  0
 29 30  1  0
 30 31  2  0
 31 32  1  0
 32 33  2  0
 32 34  1  0
 34 35  1  0
 35 36  2  0
 36 37  1  0
 37 38  2  0
 37 39  1  0
 39 40  1  0
 40 41  2  0
 14 42  1  0
 12  7  1  0
 33 28  1  0
 40 34  1  0
  1 43  1  0
  1 44  1  0
  1 45  1  0
  4 46  1  0
  5 47  1  0
  6 48  1  0
  6 49  1  0
  8 50  1  0
 10 51  1  0
 11 52  1  0
 13 53  1  0
 14 54  1  1
 15 55  1  0
 15 56  1  0
 16 57  1  0
 17 58  1  0
 17 59  1  0
 18 60  1  0
 18 61  1  0
 19 62  1  0
 19 63  1  0
 20 64  1  0
 20 65  1  0
 21 66  1  0
 21 67  1  0
 22 68  1  0
 22 69  1  0
 24 70  1  0
 24 71  1  0
 25 72  1  0
 25 73  1  0
 26 74  1  0
 26 75  1  0
 27 76  1  0
 27 77  1  0
 29 78  1  0
 30 79  1  0
 31 80  1  0
 33 81  1  0
 35 82  1  0
 36 83  1  0
 39 84  1  0
 42 85  1  0
M  END
>  <Ligand ID>  (1) 
LIG0003338

>  <Ligand>  (1) 
CHEMBL1814267

>  <SMILES>  (1) 
CC(=O)O.OCc1cc(ccc1O)[C@H](CNCCCCCCOCCCCc1cccc(c1)n1ccc(=O)[nH]c1=O)O

>  <CID>  (1) 
56665178.0

>  <ChEMBL ID>  (1) 
nan

>  <InChiKey>  (1) 
RJDWAMSJHJOIQV-YCBFMBTMSA-N

>  <InChi>  (1) 
InChI=1S/C29H39N3O6.C2H4O2/c33-21-24-19-23(11-12-26(24)34)27(35)20-30-14-4-1-2-5-16-38-17-6-3-8-22-9-7-10-25(18-22)32-15-13-28(36)31-29(32)37;1-2(3)4/h7,9-13,15,18-19,27,30,33-35H,1-6,8,14,16-17,20-21H2,(H,31,36,37);1H3,(H,3,4)/t27-;/m0./s1

>  <IUPAC Name>  (1) 
acetic acid;1-[3-[4-[6-[[(2R)-2-hydroxy-2-[4-hydroxy-3-(hydroxymethyl)phenyl]ethyl]amino]hexoxy]butyl]phenyl]pyrimidine-2,4-dione

$$$$
