
     RDKit          3D

 63 66  0  0  0  0  0  0  0  0999 V2000
   -4.8914    4.0100   -1.5662 O   0  0  0  0  0  0  0  0  0  0  0  0
   -6.2740    3.3898   -0.8134 P   0  0  0  0  0  0  0  0  0  0  0  0
   -7.4239    3.3872   -1.7850 O   0  0  0  0  0  0  0  0  0  0  0  0
   -5.9833    1.8349   -0.2281 O   0  0  0  0  0  0  0  0  0  0  0  0
   -6.8390    0.9494   -0.8457 C   0  0  0  0  0  0  0  0  0  0  0  0
   -6.6587   -0.4688   -0.3528 C   0  0  1  0  0  0  0  0  0  0  0  0
   -5.2890   -0.9686   -0.6357 C   0  0  0  0  0  0  0  0  0  0  0  0
   -4.8692   -1.6223   -1.7490 N   0  0  0  0  0  0  0  0  0  0  0  0
   -3.5611   -1.8884   -1.5809 C   0  0  0  0  0  0  0  0  0  0  0  0
   -3.1359   -1.3978   -0.3410 C   0  0  0  0  0  0  0  0  0  0  0  0
   -4.2423   -0.8416    0.1969 N   0  0  0  0  0  0  0  0  0  0  0  0
   -1.7892   -1.4901    0.2054 C   0  0  0  0  0  0  0  0  0  0  0  0
   -0.8046   -2.1139   -0.5294 C   0  0  0  0  0  0  0  0  0  0  0  0
    0.4474   -2.1788    0.0217 C   0  0  0  0  0  0  0  0  0  0  0  0
    0.7432   -1.6385    1.2853 C   0  0  0  0  0  0  0  0  0  0  0  0
   -0.3175   -1.0182    1.9714 C   0  0  0  0  0  0  0  0  0  0  0  0
   -1.5744   -0.9377    1.4493 C   0  0  0  0  0  0  0  0  0  0  0  0
    0.0236   -0.4470    3.3229 C   0  0  0  0  0  0  0  0  0  0  0  0
    0.4848   -1.4260    4.1798 F   0  0  0  0  0  0  0  0  0  0  0  0
    0.8726    0.6356    3.2256 F   0  0  0  0  0  0  0  0  0  0  0  0
   -1.1579    0.0251    3.8600 F   0  0  0  0  0  0  0  0  0  0  0  0
    1.9210   -1.7077    1.7870 O   0  0  0  0  0  0  0  0  0  0  0  0
    3.1219   -1.8012    2.2519 C   0  0  0  0  0  0  0  0  0  0  0  0
    4.2197   -1.1495    1.4274 C   0  0  0  0  0  0  0  0  0  0  0  0
    4.5046    0.1699    1.7134 C   0  0  0  0  0  0  0  0  0  0  0  0
    5.4979    0.7831    0.9755 C   0  0  0  0  0  0  0  0  0  0  0  0
    6.1919    0.1179   -0.0161 C   0  0  0  0  0  0  0  0  0  0  0  0
    5.8737   -1.2137   -0.2737 C   0  0  0  0  0  0  0  0  0  0  0  0
    4.8796   -1.8658    0.4482 C   0  0  0  0  0  0  0  0  0  0  0  0
    7.2310    0.8237   -0.7600 C   0  0  0  0  0  0  0  0  0  0  0  0
    7.5273    0.5395   -2.0755 C   0  0  0  0  0  0  0  0  0  0  0  0
    8.5241    1.2423   -2.7298 C   0  0  0  0  0  0  0  0  0  0  0  0
    9.2408    2.2416   -2.0775 C   0  0  0  0  0  0  0  0  0  0  0  0
    8.9341    2.5185   -0.7551 C   0  0  0  0  0  0  0  0  0  0  0  0
    7.9283    1.8105   -0.0919 C   0  0  0  0  0  0  0  0  0  0  0  0
   -6.9210   -0.4984    1.0862 N   0  0  0  0  0  0  0  0  0  0  0  0
   -7.6269   -1.4160   -0.9836 C   0  0  0  0  0  0  0  0  0  0  0  0
   -6.6593    4.3844    0.5090 O   0  0  0  0  0  0  0  0  0  0  0  0
   -5.0012    4.9413   -1.8436 H   0  0  0  0  0  0  0  0  0  0  0  0
   -6.6758    0.9159   -1.9448 H   0  0  0  0  0  0  0  0  0  0  0  0
   -7.9022    1.2359   -0.7154 H   0  0  0  0  0  0  0  0  0  0  0  0
   -2.9635   -2.4069   -2.3193 H   0  0  0  0  0  0  0  0  0  0  0  0
   -4.2575   -0.3787    1.1390 H   0  0  0  0  0  0  0  0  0  0  0  0
   -0.9961   -2.5440   -1.5108 H   0  0  0  0  0  0  0  0  0  0  0  0
    1.2468   -2.6734   -0.5509 H   0  0  0  0  0  0  0  0  0  0  0  0
   -2.3570   -0.4597    1.9967 H   0  0  0  0  0  0  0  0  0  0  0  0
    3.2208   -1.3648    3.2921 H   0  0  0  0  0  0  0  0  0  0  0  0
    3.4190   -2.8804    2.4325 H   0  0  0  0  0  0  0  0  0  0  0  0
    3.9649    0.6976    2.4894 H   0  0  0  0  0  0  0  0  0  0  0  0
    5.6993    1.8213    1.2237 H   0  0  0  0  0  0  0  0  0  0  0  0
    6.4178   -1.7507   -1.0577 H   0  0  0  0  0  0  0  0  0  0  0  0
    4.6146   -2.9036    0.2649 H   0  0  0  0  0  0  0  0  0  0  0  0
    6.9622   -0.2439   -2.5791 H   0  0  0  0  0  0  0  0  0  0  0  0
    8.7460    1.0082   -3.7642 H   0  0  0  0  0  0  0  0  0  0  0  0
   10.0170    2.7990   -2.5634 H   0  0  0  0  0  0  0  0  0  0  0  0
    9.4724    3.2907   -0.2162 H   0  0  0  0  0  0  0  0  0  0  0  0
    7.7230    2.0602    0.9400 H   0  0  0  0  0  0  0  0  0  0  0  0
   -6.3304   -1.2295    1.5399 H   0  0  0  0  0  0  0  0  0  0  0  0
   -6.7915    0.4391    1.5172 H   0  0  0  0  0  0  0  0  0  0  0  0
   -7.3773   -2.4408   -0.6194 H   0  0  0  0  0  0  0  0  0  0  0  0
   -7.3926   -1.4438   -2.0854 H   0  0  0  0  0  0  0  0  0  0  0  0
   -8.6631   -1.1122   -0.7743 H   0  0  0  0  0  0  0  0  0  0  0  0
   -6.9445    3.8501    1.2695 H   0  0  0  0  0  0  0  0  0  0  0  0
  1  2  1  0
  2  3  2  0
  2  4  1  0
  4  5  1  0
  5  6  1  0
  6  7  1  0
  7  8  2  0
  8  9  1  0
  9 10  2  0
 10 11  1  0
 10 12  1  0
 12 13  2  0
 13 14  1  0
 14 15  2  0
 15 16  1  0
 16 17  2  0
 16 18  1  0
 18 19  1  0
 18 20  1  0
 18 21  1  0
 15 22  1  0
 22 23  1  0
 23 24  1  0
 24 25  2  0
 25 26  1  0
 26 27  2  0
 27 28  1  0
 28 29  2  0
 27 30  1  0
 30 31  2  0
 31 32  1  0
 32 33  2  0
 33 34  1  0
 34 35  2  0
  6 36  1  1
  6 37  1  0
  2 38  1  0
 11  7  1  0
 17 12  1  0
 29 24  1  0
 35 30  1  0
  1 39  1  0
  5 40  1  0
  5 41  1  0
  9 42  1  0
 11 43  1  0
 13 44  1  0
 14 45  1  0
 17 46  1  0
 23 47  1  0
 23 48  1  0
 25 49  1  0
 26 50  1  0
 28 51  1  0
 29 52  1  0
 31 53  1  0
 32 54  1  0
 33 55  1  0
 34 56  1  0
 35 57  1  0
 36 58  1  0
 36 59  1  0
 37 60  1  0
 37 61  1  0
 37 62  1  0
 38 63  1  0
M  END
>  <Ligand ID>  (1) 
LIG0005102

>  <Ligand>  (1) 
CHEMBL1093823

>  <SMILES>  (1) 
OP(=O)(OC[C@@](c1ncc([nH]1)c1ccc(c(c1)C(F)(F)F)OCc1ccc(cc1)c1ccccc1)(N)C)O

>  <CID>  (1) 
25008420.0

>  <ChEMBL ID>  (1) 
nan

>  <InChiKey>  (1) 
LXNKUNKMYYJPKD-VWLOTQADSA-N

>  <InChi>  (1) 
InChI=1S/C26H25F3N3O5P/c1-25(30,16-37-38(33,34)35)24-31-14-22(32-24)20-11-12-23(21(13-20)26(27,28)29)36-15-17-7-9-19(10-8-17)18-5-3-2-4-6-18/h2-14H,15-16,30H2,1H3,(H,31,32)(H2,33,34,35)/t25-/m0/s1

>  <IUPAC Name>  (1) 
[(2R)-2-amino-2-[5-[4-[(4-phenylphenyl)methoxy]-3-(trifluoromethyl)phenyl]-1H-imidazol-2-yl]propyl] dihydrogen phosphate

$$$$
