
     RDKit          3D

 81 84  0  0  0  0  0  0  0  0999 V2000
   -6.5669    1.7707   -2.0486 O   0  0  0  0  0  0  0  0  0  0  0  0
   -7.0261    1.6008   -0.8924 C   0  0  0  0  0  0  0  0  0  0  0  0
   -7.5863    2.6981   -0.1465 N   0  0  0  0  0  0  0  0  0  0  0  0
   -7.5943    4.2487   -0.9128 S   0  0  0  0  0  0  0  0  0  0  0  0
   -6.2171    4.7091   -1.2893 O   0  0  0  0  0  0  0  0  0  0  0  0
   -8.4371    4.1745   -2.1422 O   0  0  0  0  0  0  0  0  0  0  0  0
   -8.3414    5.3969    0.2361 C   0  0  0  0  0  0  0  0  0  0  0  0
   -8.3764    6.6740   -0.3249 F   0  0  0  0  0  0  0  0  0  0  0  0
   -7.5388    5.4680    1.3489 F   0  0  0  0  0  0  0  0  0  0  0  0
   -9.6106    4.9848    0.5572 F   0  0  0  0  0  0  0  0  0  0  0  0
   -7.0373    0.2851   -0.1960 C   0  0  0  0  0  0  0  0  0  0  0  0
   -6.4264   -0.8141   -1.0632 C   0  0  0  0  0  0  0  0  0  0  0  0
   -6.4699   -2.0438   -0.2872 C   0  0  0  0  0  0  0  0  0  0  0  0
   -7.5598   -2.9056   -0.4774 C   0  0  0  0  0  0  0  0  0  0  0  0
   -7.7337   -4.0476    0.2651 C   0  0  0  0  0  0  0  0  0  0  0  0
   -6.8164   -4.3761    1.2363 C   0  0  0  0  0  0  0  0  0  0  0  0
   -5.7419   -3.5416    1.4333 C   0  0  0  0  0  0  0  0  0  0  0  0
   -5.5474   -2.3731    0.6836 C   0  0  0  0  0  0  0  0  0  0  0  0
   -4.3039   -1.6331    0.9387 C   0  0  0  0  0  0  0  0  0  0  0  0
   -3.2672   -2.0802    0.1199 N   0  0  0  0  0  0  0  0  0  0  0  0
   -3.2864   -2.1288   -1.2568 C   0  0  0  0  0  0  0  0  0  0  0  0
   -2.1085   -3.0597   -1.5933 C   0  0  0  0  0  0  0  0  0  0  0  0
   -1.5522   -3.5201   -0.2580 C   0  0  0  0  0  0  0  0  0  0  0  0
   -2.0021   -2.3795    0.6801 C   0  0  1  0  0  0  0  0  0  0  0  0
   -0.9929   -1.2995    0.4508 C   0  0  0  0  0  0  0  0  0  0  0  0
   -1.1538   -0.0144    0.5659 O   0  0  0  0  0  0  0  0  0  0  0  0
   -0.0595    0.6570    0.2907 C   0  0  0  0  0  0  0  0  0  0  0  0
    0.9093   -0.2684   -0.0348 C   0  0  0  0  0  0  0  0  0  0  0  0
    0.3008   -1.4643    0.0738 N   0  0  0  0  0  0  0  0  0  0  0  0
    2.3191   -0.0060   -0.4251 C   0  0  0  0  0  0  0  0  0  0  0  0
    3.0082   -0.9991   -0.6650 O   0  0  0  0  0  0  0  0  0  0  0  0
    2.7769    1.3340   -0.4970 N   0  0  0  0  0  0  0  0  0  0  0  0
    4.0506    1.8206   -0.8188 C   0  0  0  0  0  0  0  0  0  0  0  0
    5.2358    1.6094    0.0293 C   0  0  0  0  0  0  0  0  0  0  0  0
    5.6453    0.2089    0.3301 C   0  0  0  0  0  0  0  0  0  0  0  0
    6.8615    0.0307    1.1690 C   0  0  0  0  0  0  0  0  0  0  0  0
    8.1660    0.5289    0.7306 C   0  0  0  0  0  0  0  0  0  0  0  0
    8.3505    1.9825    0.4963 C   0  0  0  0  0  0  0  0  0  0  0  0
    9.7982    2.3087    0.9578 C   0  0  0  0  0  0  0  0  0  0  0  0
   10.6553    1.2058    0.3682 C   0  0  0  0  0  0  0  0  0  0  0  0
   10.0231    0.5332   -0.8175 C   0  0  0  0  0  0  0  0  0  0  0  0
    8.7413   -0.2095   -0.4694 C   0  0  0  0  0  0  0  0  0  0  0  0
   -7.0324   -5.8406    2.1964 Cl  0  0  0  0  0  0  0  0  0  0  0  0
   -7.9691    2.5445    0.8208 H   0  0  0  0  0  0  0  0  0  0  0  0
   -8.1179    0.0237    0.0303 H   0  0  0  0  0  0  0  0  0  0  0  0
   -6.5715    0.3529    0.7964 H   0  0  0  0  0  0  0  0  0  0  0  0
   -7.1616   -0.9178   -1.9167 H   0  0  0  0  0  0  0  0  0  0  0  0
   -5.5059   -0.5018   -1.5273 H   0  0  0  0  0  0  0  0  0  0  0  0
   -8.3153   -2.6880   -1.2359 H   0  0  0  0  0  0  0  0  0  0  0  0
   -8.5942   -4.6844    0.0805 H   0  0  0  0  0  0  0  0  0  0  0  0
   -5.0276   -3.8210    2.2090 H   0  0  0  0  0  0  0  0  0  0  0  0
   -4.4255   -0.5256    0.9818 H   0  0  0  0  0  0  0  0  0  0  0  0
   -4.0004   -1.8737    2.0073 H   0  0  0  0  0  0  0  0  0  0  0  0
   -4.2376   -2.6351   -1.5988 H   0  0  0  0  0  0  0  0  0  0  0  0
   -3.2022   -1.1705   -1.8096 H   0  0  0  0  0  0  0  0  0  0  0  0
   -2.4878   -3.9528   -2.1241 H   0  0  0  0  0  0  0  0  0  0  0  0
   -1.3826   -2.4687   -2.1662 H   0  0  0  0  0  0  0  0  0  0  0  0
   -0.4476   -3.5567   -0.3497 H   0  0  0  0  0  0  0  0  0  0  0  0
   -1.9772   -4.4753    0.0872 H   0  0  0  0  0  0  0  0  0  0  0  0
   -2.0276   -2.7519    1.7029 H   0  0  0  0  0  0  0  0  0  0  0  0
    0.0715    1.7409    0.3115 H   0  0  0  0  0  0  0  0  0  0  0  0
    2.0137    2.0607   -0.2637 H   0  0  0  0  0  0  0  0  0  0  0  0
    3.9389    2.9314   -1.0352 H   0  0  0  0  0  0  0  0  0  0  0  0
    4.3784    1.4639   -1.8734 H   0  0  0  0  0  0  0  0  0  0  0  0
    5.2562    2.2605    0.9433 H   0  0  0  0  0  0  0  0  0  0  0  0
    6.1172    2.0385   -0.5640 H   0  0  0  0  0  0  0  0  0  0  0  0
    4.8286   -0.2982    0.9689 H   0  0  0  0  0  0  0  0  0  0  0  0
    5.6610   -0.4129   -0.5970 H   0  0  0  0  0  0  0  0  0  0  0  0
    6.6217    0.5566    2.1528 H   0  0  0  0  0  0  0  0  0  0  0  0
    6.9117   -1.0490    1.4990 H   0  0  0  0  0  0  0  0  0  0  0  0
    8.8937    0.2423    1.5673 H   0  0  0  0  0  0  0  0  0  0  0  0
    7.7023    2.6631    1.0479 H   0  0  0  0  0  0  0  0  0  0  0  0
    8.3912    2.2849   -0.5858 H   0  0  0  0  0  0  0  0  0  0  0  0
    9.8467    2.2530    2.0535 H   0  0  0  0  0  0  0  0  0  0  0  0
   10.1074    3.2964    0.6218 H   0  0  0  0  0  0  0  0  0  0  0  0
   10.9703    0.4447    1.0893 H   0  0  0  0  0  0  0  0  0  0  0  0
   11.5750    1.6947   -0.0105 H   0  0  0  0  0  0  0  0  0  0  0  0
   10.7630   -0.1926   -1.2099 H   0  0  0  0  0  0  0  0  0  0  0  0
    9.8542    1.2932   -1.6215 H   0  0  0  0  0  0  0  0  0  0  0  0
    8.0981   -0.1664   -1.3615 H   0  0  0  0  0  0  0  0  0  0  0  0
    8.9957   -1.2287   -0.1344 H   0  0  0  0  0  0  0  0  0  0  0  0
  1  2  2  0
  2  3  1  0
  3  4  1  0
  4  5  2  0
  4  6  2  0
  4  7  1  0
  7  8  1  0
  7  9  1  0
  7 10  1  0
  2 11  1  0
 11 12  1  0
 12 13  1  0
 13 14  2  0
 14 15  1  0
 15 16  2  0
 16 17  1  0
 17 18  2  0
 18 19  1  0
 19 20  1  0
 20 21  1  0
 21 22  1  0
 22 23  1  0
 23 24  1  0
 24 25  1  0
 25 26  1  0
 26 27  1  0
 27 28  2  0
 28 29  1  0
 28 30  1  0
 30 31  2  0
 30 32  1  0
 32 33  1  0
 33 34  1  0
 34 35  1  0
 35 36  1  0
 36 37  1  0
 37 38  1  0
 38 39  1  0
 39 40  1  0
 40 41  1  0
 41 42  1  0
 16 43  1  0
 18 13  1  0
 24 20  1  0
 29 25  2  0
 42 37  1  0
  3 44  1  0
 11 45  1  0
 11 46  1  0
 12 47  1  0
 12 48  1  0
 14 49  1  0
 15 50  1  0
 17 51  1  0
 19 52  1  0
 19 53  1  0
 21 54  1  0
 21 55  1  0
 22 56  1  0
 22 57  1  0
 23 58  1  0
 23 59  1  0
 24 60  1  1
 27 61  1  0
 32 62  1  0
 33 63  1  0
 33 64  1  0
 34 65  1  0
 34 66  1  0
 35 67  1  0
 35 68  1  0
 36 69  1  0
 36 70  1  0
 37 71  1  0
 38 72  1  0
 38 73  1  0
 39 74  1  0
 39 75  1  0
 40 76  1  0
 40 77  1  0
 41 78  1  0
 41 79  1  0
 42 80  1  0
 42 81  1  0
M  END
>  <Ligand ID>  (1) 
LIG0000502

>  <Ligand>  (1) 
SCHEMBL671393

>  <SMILES>  (1) 
O=C(NS(=O)(=O)C(F)(F)F)CCc1ccc(cc1CN1CCC[C@H]1c1occ(n1)C(=O)NCCCCC1CCCCC1)Cl

>  <CID>  (1) 
56839342.0

>  <ChEMBL ID>  (1) 
nan

>  <InChiKey>  (1) 
XTSILTSKUZERSP-VWLOTQADSA-N

>  <InChi>  (1) 
InChI=1S/C29H38ClF3N4O5S/c30-23-13-11-21(12-14-26(38)36-43(40,41)29(31,32)33)22(17-23)18-37-16-6-10-25(37)28-35-24(19-42-28)27(39)34-15-5-4-9-20-7-2-1-3-8-20/h11,13,17,19-20,25H,1-10,12,14-16,18H2,(H,34,39)(H,36,38)/t25-/m0/s1

>  <IUPAC Name>  (1) 
2-[(2S)-1-[[5-chloro-2-[3-oxo-3-(trifluoromethylsulfonylamino)propyl]phenyl]methyl]pyrrolidin-2-yl]-N-(4-cyclohexylbutyl)-1,3-oxazole-4-carboxamide

$$$$
