
     RDKit          3D

 19 19  0  0  0  0  0  0  0  0999 V2000
   -2.6329    2.1386   -0.0386 O   0  0  0  0  0  0  0  0  0  0  0  0
   -1.7737    1.0549    0.0727 C   0  0  0  0  0  0  0  0  0  0  0  0
   -2.3269   -0.1949    0.3418 C   0  0  0  0  0  0  0  0  0  0  0  0
   -1.5241   -1.3092    0.4637 C   0  0  0  0  0  0  0  0  0  0  0  0
   -2.1164   -2.5364    0.7324 O   0  0  0  0  0  0  0  0  0  0  0  0
   -0.1383   -1.1786    0.3146 C   0  0  0  0  0  0  0  0  0  0  0  0
    0.4218    0.0515    0.0483 C   0  0  0  0  0  0  0  0  0  0  0  0
   -0.4055    1.1519   -0.0689 C   0  0  0  0  0  0  0  0  0  0  0  0
    2.2008    0.2459   -0.1478 P   0  0  0  0  0  0  0  0  0  0  0  0
    2.4662    0.3448   -1.6325 O   0  0  0  0  0  0  0  0  0  0  0  0
    2.7072    1.6607    0.6169 O   0  0  0  0  0  0  0  0  0  0  0  0
    2.9585   -1.1199    0.5013 O   0  0  0  0  0  0  0  0  0  0  0  0
   -2.3456    3.0239   -0.4133 H   0  0  0  0  0  0  0  0  0  0  0  0
   -3.4057   -0.3237    0.4626 H   0  0  0  0  0  0  0  0  0  0  0  0
   -2.0107   -3.3804    0.2191 H   0  0  0  0  0  0  0  0  0  0  0  0
    0.4894   -2.0700    0.4134 H   0  0  0  0  0  0  0  0  0  0  0  0
    0.0101    2.1482   -0.2810 H   0  0  0  0  0  0  0  0  0  0  0  0
    3.6178    1.5145    1.0211 H   0  0  0  0  0  0  0  0  0  0  0  0
    3.8079   -1.2217    0.0105 H   0  0  0  0  0  0  0  0  0  0  0  0
  1  2  1  0
  2  3  2  0
  3  4  1  0
  4  5  1  0
  4  6  2  0
  6  7  1  0
  7  8  2  0
  7  9  1  0
  9 10  2  0
  9 11  1  0
  9 12  1  0
  8  2  1  0
  1 13  1  0
  3 14  1  0
  5 15  1  0
  6 16  1  0
  8 17  1  0
 11 18  1  0
 12 19  1  0
M  END
>  <Ligand ID>  (1) 
LIG0005752

>  <Ligand>  (1) 
CHEMBL2146991

>  <SMILES>  (1) 
Oc1cc(O)cc(c1)P(=O)(O)O

>  <CID>  (1) 
66560365.0

>  <ChEMBL ID>  (1) 
nan

>  <InChiKey>  (1) 
ZQWGRBCDRGHFDK-UHFFFAOYSA-N

>  <InChi>  (1) 
InChI=1S/C6H7O5P/c7-4-1-5(8)3-6(2-4)12(9,10)11/h1-3,7-8H,(H2,9,10,11)

>  <IUPAC Name>  (1) 
(3,5-dihydroxyphenyl)phosphonic acid

$$$$
