
     RDKit          3D

 32 35  0  0  0  0  0  0  0  0999 V2000
   -1.1108   -3.3523    0.5009 C   0  0  0  0  0  0  0  0  0  0  0  0
   -2.3374   -2.9069    0.8811 C   0  0  0  0  0  0  0  0  0  0  0  0
   -2.6230   -1.5769    0.6896 C   0  0  0  0  0  0  0  0  0  0  0  0
   -1.7088   -0.6713    0.1241 C   0  0  0  0  0  0  0  0  0  0  0  0
   -0.4679   -1.1113   -0.2585 C   0  0  0  0  0  0  0  0  0  0  0  0
   -0.2234   -2.4799   -0.0447 C   0  0  0  0  0  0  0  0  0  0  0  0
    0.6299   -0.3066   -0.7967 C   0  0  2  0  0  0  0  0  0  0  0  0
    1.9102   -1.0541   -0.3622 C   0  0  0  0  0  0  0  0  0  0  0  0
    2.9331   -0.0353   -0.2120 C   0  0  0  0  0  0  0  0  0  0  0  0
    2.3532    1.1421   -0.1549 N   0  0  0  0  0  0  0  0  0  0  0  0
    0.8866    1.0429   -0.2763 C   0  0  0  0  0  0  0  0  0  0  0  0
    3.3653    2.0477   -0.0052 C   0  0  0  0  0  0  0  0  0  0  0  0
    4.5747    1.3930    0.0270 C   0  0  0  0  0  0  0  0  0  0  0  0
    4.2810    0.0898   -0.1041 N   0  0  0  0  0  0  0  0  0  0  0  0
   -2.1933    0.6827   -0.0530 C   0  0  0  0  0  0  0  0  0  0  0  0
   -3.3929    1.1189    0.4510 N   0  0  0  0  0  0  0  0  0  0  0  0
   -3.5951    2.4102    0.1446 C   0  0  0  0  0  0  0  0  0  0  0  0
   -2.4787    2.7841   -0.5751 C   0  0  0  0  0  0  0  0  0  0  0  0
   -1.7295    1.7396   -0.6418 O   0  0  0  0  0  0  0  0  0  0  0  0
   -0.8726   -4.3951    0.6437 H   0  0  0  0  0  0  0  0  0  0  0  0
   -3.0503   -3.5886    1.3167 H   0  0  0  0  0  0  0  0  0  0  0  0
   -3.6156   -1.2593    1.0063 H   0  0  0  0  0  0  0  0  0  0  0  0
    0.7462   -2.9192   -0.3379 H   0  0  0  0  0  0  0  0  0  0  0  0
    0.6465   -0.2986   -1.9177 H   0  0  0  0  0  0  0  0  0  0  0  0
    2.1660   -1.8163   -1.1304 H   0  0  0  0  0  0  0  0  0  0  0  0
    1.7318   -1.5122    0.6401 H   0  0  0  0  0  0  0  0  0  0  0  0
    0.6840    1.8561   -1.0411 H   0  0  0  0  0  0  0  0  0  0  0  0
    0.4833    1.2424    0.7132 H   0  0  0  0  0  0  0  0  0  0  0  0
    3.1910    3.1164    0.0725 H   0  0  0  0  0  0  0  0  0  0  0  0
    5.5643    1.8263    0.1352 H   0  0  0  0  0  0  0  0  0  0  0  0
   -4.4477    3.0231    0.4055 H   0  0  0  0  0  0  0  0  0  0  0  0
   -2.3004    3.7687   -0.9873 H   0  0  0  0  0  0  0  0  0  0  0  0
  1  2  2  0
  2  3  1  0
  3  4  2  0
  4  5  1  0
  5  6  2  0
  5  7  1  0
  7  8  1  0
  8  9  1  0
  9 10  1  0
 10 11  1  0
 10 12  1  0
 12 13  2  0
 13 14  1  0
  4 15  1  0
 15 16  2  0
 16 17  1  0
 17 18  2  0
 18 19  1  0
  6  1  1  0
 11  7  1  0
 19 15  1  0
 14  9  2  0
  1 20  1  0
  2 21  1  0
  3 22  1  0
  6 23  1  0
  7 24  1  6
  8 25  1  0
  8 26  1  0
 11 27  1  0
 11 28  1  0
 12 29  1  0
 13 30  1  0
 17 31  1  0
 18 32  1  0
M  END
>  <Ligand ID>  (1) 
LIG0002432

>  <Ligand>  (1) 
CHEMBL448802

>  <SMILES>  (1) 
c1ccc(c(c1)[C@@H]1Cc2n(C1)ccn2)c1ncco1

>  <CID>  (1) 
44574075.0

>  <ChEMBL ID>  (1) 
nan

>  <InChiKey>  (1) 
MIWWMVGPFZMLEG-LLVKDONJSA-N

>  <InChi>  (1) 
InChI=1S/C15H13N3O/c1-2-4-13(15-17-6-8-19-15)12(3-1)11-9-14-16-5-7-18(14)10-11/h1-8,11H,9-10H2/t11-/m1/s1

>  <IUPAC Name>  (1) 
2-[2-[(6S)-6,7-dihydro-5H-pyrrolo[1,2-a]imidazol-6-yl]phenyl]-1,3-oxazole

$$$$
