
     RDKit          3D

188194  0  0  0  0  0  0  0  0999 V2000
   -2.9000   -5.3255    3.9296 N   0  0  0  0  0  0  0  0  0  0  0  0
   -2.9524   -3.9172    3.6940 C   0  0  0  0  0  0  0  0  0  0  0  0
   -3.3003   -3.1251    4.6520 N   0  0  0  0  0  0  0  0  0  0  0  0
   -2.6347   -3.3721    2.4209 N   0  0  0  0  0  0  0  0  0  0  0  0
   -2.8439   -1.9998    2.0500 C   0  0  0  0  0  0  0  0  0  0  0  0
   -4.2668   -1.6045    1.9493 C   0  0  0  0  0  0  0  0  0  0  0  0
   -5.1650   -2.2878    1.0292 C   0  0  0  0  0  0  0  0  0  0  0  0
   -4.9716   -2.3472   -0.4129 C   0  0  2  0  0  0  0  0  0  0  0  0
   -3.7866   -2.9474   -0.9385 N   0  0  0  0  0  0  0  0  0  0  0  0
   -3.6953   -4.3358   -1.3531 C   0  0  0  0  0  0  0  0  0  0  0  0
   -4.7538   -4.9615   -1.1853 O   0  0  0  0  0  0  0  0  0  0  0  0
   -2.4480   -4.9112   -1.9111 C   0  0  1  0  0  0  0  0  0  0  0  0
   -2.7425   -5.4717   -3.2803 C   0  0  0  0  0  0  0  0  0  0  0  0
   -3.7458   -6.5251   -3.2615 C   0  0  0  0  0  0  0  0  0  0  0  0
   -5.1007   -6.3540   -3.5004 C   0  0  0  0  0  0  0  0  0  0  0  0
   -5.9314   -7.4673   -3.4351 C   0  0  0  0  0  0  0  0  0  0  0  0
   -5.4844   -8.7271   -3.1478 C   0  0  0  0  0  0  0  0  0  0  0  0
   -4.1502   -8.8949   -2.9123 C   0  0  0  0  0  0  0  0  0  0  0  0
   -3.2991   -7.8218   -2.9677 C   0  0  0  0  0  0  0  0  0  0  0  0
   -1.4258   -3.8817   -1.9855 N   0  0  0  0  0  0  0  0  0  0  0  0
   -0.1274   -4.0449   -1.3636 C   0  0  0  0  0  0  0  0  0  0  0  0
    0.0190   -5.1227   -0.7799 O   0  0  0  0  0  0  0  0  0  0  0  0
    0.8667   -2.9565   -1.4737 C   0  0  2  0  0  0  0  0  0  0  0  0
    1.0562   -2.6604   -2.9515 C   0  0  0  0  0  0  0  0  0  0  0  0
    2.1217   -3.1961   -0.8095 N   0  0  0  0  0  0  0  0  0  0  0  0
    2.5071   -2.3478    0.3148 C   0  0  0  0  0  0  0  0  0  0  0  0
    1.6186   -1.5351    0.6180 O   0  0  0  0  0  0  0  0  0  0  0  0
    3.7888   -2.4322    1.0198 C   0  0  1  0  0  0  0  0  0  0  0  0
    4.6139   -3.5390    0.5541 N   0  0  0  0  0  0  0  0  0  0  0  0
    5.1013   -4.4336    1.5164 C   0  0  0  0  0  0  0  0  0  0  0  0
    4.8028   -4.2578    2.7418 O   0  0  0  0  0  0  0  0  0  0  0  0
    5.9637   -5.6050    1.2300 C   0  0  2  0  0  0  0  0  0  0  0  0
    7.1946   -5.5001    2.1336 C   0  0  0  0  0  0  0  0  0  0  0  0
    8.1333   -6.6186    1.9366 C   0  0  0  0  0  0  0  0  0  0  0  0
    9.1378   -6.4404    0.9819 C   0  0  0  0  0  0  0  0  0  0  0  0
   10.0279   -7.4627    0.7877 C   0  0  0  0  0  0  0  0  0  0  0  0
    9.9958   -8.6610    1.4749 C   0  0  0  0  0  0  0  0  0  0  0  0
    8.9960   -8.8155    2.4116 C   0  0  0  0  0  0  0  0  0  0  0  0
    8.0766   -7.8053    2.6391 C   0  0  0  0  0  0  0  0  0  0  0  0
   10.9329   -9.6609    1.2306 O   0  0  0  0  0  0  0  0  0  0  0  0
    6.3527   -5.7495   -0.1359 N   0  0  0  0  0  0  0  0  0  0  0  0
    4.5888   -1.1150    0.6928 C   0  0  0  0  0  0  0  0  0  0  0  0
    3.8884    0.0627    1.1717 C   0  0  0  0  0  0  0  0  0  0  0  0
    3.0704   -0.0794    2.0872 O   0  0  0  0  0  0  0  0  0  0  0  0
    3.9737    1.4241    0.7459 N   0  0  0  0  0  0  0  0  0  0  0  0
    4.8531    1.6662   -0.3507 C   0  0  2  0  0  0  0  0  0  0  0  0
    4.4029    1.0572   -1.6074 C   0  0  0  0  0  0  0  0  0  0  0  0
    3.2547    0.4840   -1.6094 O   0  0  0  0  0  0  0  0  0  0  0  0
    5.0851    1.0275   -2.8403 N   0  0  0  0  0  0  0  0  0  0  0  0
    6.2864    1.4331   -0.0410 C   0  0  0  0  0  0  0  0  0  0  0  0
    7.1360    1.6834   -1.2226 C   0  0  0  0  0  0  0  0  0  0  0  0
    7.4466    2.9994   -1.5225 C   0  0  0  0  0  0  0  0  0  0  0  0
    8.2793    3.2509   -2.5977 C   0  0  0  0  0  0  0  0  0  0  0  0
    8.7624    2.1935   -3.3208 C   0  0  0  0  0  0  0  0  0  0  0  0
    8.4715    0.8716   -3.0475 C   0  0  0  0  0  0  0  0  0  0  0  0
    7.6478    0.6273   -1.9824 C   0  0  0  0  0  0  0  0  0  0  0  0
    9.5983    2.4486   -4.4009 O   0  0  0  0  0  0  0  0  0  0  0  0
    3.1655    2.4320    1.4445 C   0  0  0  0  0  0  0  0  0  0  0  0
    1.7167    1.8532    1.3722 C   0  0  0  0  0  0  0  0  0  0  0  0
    3.1211    3.7158    0.7524 N   0  0  0  0  0  0  0  0  0  0  0  0
    2.1482    4.6350    1.2759 C   0  0  0  0  0  0  0  0  0  0  0  0
    1.5186    4.2487    2.2678 O   0  0  0  0  0  0  0  0  0  0  0  0
    1.8268    5.9663    0.7196 C   0  0  1  0  0  0  0  0  0  0  0  0
    0.4281    6.1836    1.2052 N   0  0  0  0  0  0  0  0  0  0  0  0
   -0.5726    5.7496    0.3180 C   0  0  0  0  0  0  0  0  0  0  0  0
   -0.1772    5.3363   -0.8036 O   0  0  0  0  0  0  0  0  0  0  0  0
   -2.0360    5.7076    0.5189 C   0  0  1  0  0  0  0  0  0  0  0  0
   -2.6483    5.0554   -0.6319 N   0  0  0  0  0  0  0  0  0  0  0  0
   -4.0060    4.6811   -0.7714 C   0  0  0  0  0  0  0  0  0  0  0  0
   -4.7589    4.8961    0.1527 O   0  0  0  0  0  0  0  0  0  0  0  0
   -4.3535    4.0284   -2.0896 C   0  0  1  0  0  0  0  0  0  0  0  0
   -5.6138    3.3183   -2.0720 N   0  0  0  0  0  0  0  0  0  0  0  0
   -5.5502    1.9668   -1.6254 C   0  0  0  0  0  0  0  0  0  0  0  0
   -4.4427    1.6157   -1.1621 O   0  0  0  0  0  0  0  0  0  0  0  0
   -6.6224    0.9684   -1.6427 C   0  0  1  0  0  0  0  0  0  0  0  0
   -6.3101   -0.1750   -0.7987 N   0  0  0  0  0  0  0  0  0  0  0  0
   -5.3226   -1.1564   -1.1987 C   0  0  0  0  0  0  0  0  0  0  0  0
   -4.7735   -0.9154   -2.2728 O   0  0  0  0  0  0  0  0  0  0  0  0
   -7.9755    1.5104   -1.5500 C   0  0  0  0  0  0  0  0  0  0  0  0
   -8.3359    2.3154   -0.3840 C   0  0  0  0  0  0  0  0  0  0  0  0
   -7.6114    2.7222    0.7140 C   0  0  0  0  0  0  0  0  0  0  0  0
   -8.4159    3.4803    1.4923 N   0  0  0  0  0  0  0  0  0  0  0  0
   -9.6342    3.5744    0.9318 C   0  0  0  0  0  0  0  0  0  0  0  0
   -9.6212    2.8669   -0.2297 C   0  0  0  0  0  0  0  0  0  0  0  0
  -10.7645    2.7940   -1.0255 C   0  0  0  0  0  0  0  0  0  0  0  0
  -11.9448    3.4419   -0.6488 C   0  0  0  0  0  0  0  0  0  0  0  0
  -11.9356    4.1539    0.5314 C   0  0  0  0  0  0  0  0  0  0  0  0
  -10.8063    4.2304    1.3235 C   0  0  0  0  0  0  0  0  0  0  0  0
   -4.3456    5.0159   -3.1988 C   0  0  0  0  0  0  0  0  0  0  0  0
   -5.3186    6.1224   -2.9792 C   0  0  0  0  0  0  0  0  0  0  0  0
   -6.0127    6.0636   -1.9333 O   0  0  0  0  0  0  0  0  0  0  0  0
   -5.4752    7.2052   -3.8915 N   0  0  0  0  0  0  0  0  0  0  0  0
   -2.3483    4.8659    1.7831 C   0  0  0  0  0  0  0  0  0  0  0  0
    2.7161    7.0744    1.1071 C   0  0  0  0  0  0  0  0  0  0  0  0
    2.8247    7.3890    2.5422 C   0  0  0  0  0  0  0  0  0  0  0  0
    1.9400    8.1906    3.2338 C   0  0  0  0  0  0  0  0  0  0  0  0
    2.0780    8.4947    4.5784 C   0  0  0  0  0  0  0  0  0  0  0  0
    3.1585    7.9837    5.3132 C   0  0  0  0  0  0  0  0  0  0  0  0
    4.0405    7.1876    4.6287 C   0  0  0  0  0  0  0  0  0  0  0  0
    3.8938    6.8937    3.3015 C   0  0  0  0  0  0  0  0  0  0  0  0
    3.5087    2.5880    2.8640 C   0  0  0  0  0  0  0  0  0  0  0  0
    3.8235    3.7411    3.2608 O   0  0  0  0  0  0  0  0  0  0  0  0
    3.5242    1.5907    3.8166 O   0  0  0  0  0  0  0  0  0  0  0  0
   -3.4728   -5.9451    3.3171 H   0  0  0  0  0  0  0  0  0  0  0  0
   -2.3045   -5.7462    4.7019 H   0  0  0  0  0  0  0  0  0  0  0  0
   -3.5452   -3.5174    5.6067 H   0  0  0  0  0  0  0  0  0  0  0  0
   -2.2243   -4.0267    1.7258 H   0  0  0  0  0  0  0  0  0  0  0  0
   -2.4430   -1.4045    2.9328 H   0  0  0  0  0  0  0  0  0  0  0  0
   -2.1855   -1.6728    1.2206 H   0  0  0  0  0  0  0  0  0  0  0  0
   -4.2764   -0.4826    1.7891 H   0  0  0  0  0  0  0  0  0  0  0  0
   -4.7160   -1.7001    2.9841 H   0  0  0  0  0  0  0  0  0  0  0  0
   -6.2031   -1.9125    1.2268 H   0  0  0  0  0  0  0  0  0  0  0  0
   -5.2843   -3.3712    1.3853 H   0  0  0  0  0  0  0  0  0  0  0  0
   -5.7953   -3.0886   -0.7452 H   0  0  0  0  0  0  0  0  0  0  0  0
   -2.9127   -2.4349   -1.0554 H   0  0  0  0  0  0  0  0  0  0  0  0
   -2.0923   -5.7685   -1.2801 H   0  0  0  0  0  0  0  0  0  0  0  0
   -1.8022   -5.8006   -3.7958 H   0  0  0  0  0  0  0  0  0  0  0  0
   -3.0847   -4.5991   -3.9106 H   0  0  0  0  0  0  0  0  0  0  0  0
   -5.4794   -5.3606   -3.7441 H   0  0  0  0  0  0  0  0  0  0  0  0
   -6.9727   -7.3238   -3.6215 H   0  0  0  0  0  0  0  0  0  0  0  0
   -6.1375   -9.5761   -3.1015 H   0  0  0  0  0  0  0  0  0  0  0  0
   -3.6961   -9.8670   -2.6723 H   0  0  0  0  0  0  0  0  0  0  0  0
   -2.2262   -7.9822   -2.7723 H   0  0  0  0  0  0  0  0  0  0  0  0
   -1.5493   -2.9986   -2.4755 H   0  0  0  0  0  0  0  0  0  0  0  0
    0.3614   -2.0312   -1.0671 H   0  0  0  0  0  0  0  0  0  0  0  0
    1.2612   -3.5629   -3.5533 H   0  0  0  0  0  0  0  0  0  0  0  0
    0.2225   -2.0675   -3.3817 H   0  0  0  0  0  0  0  0  0  0  0  0
    2.0097   -2.0562   -3.0260 H   0  0  0  0  0  0  0  0  0  0  0  0
    2.8115   -3.9075   -1.0236 H   0  0  0  0  0  0  0  0  0  0  0  0
    3.6587   -2.4490    2.1086 H   0  0  0  0  0  0  0  0  0  0  0  0
    4.8401   -3.6820   -0.4490 H   0  0  0  0  0  0  0  0  0  0  0  0
    5.3889   -6.4857    1.6096 H   0  0  0  0  0  0  0  0  0  0  0  0
    7.7200   -4.5434    1.9429 H   0  0  0  0  0  0  0  0  0  0  0  0
    6.8685   -5.4257    3.2075 H   0  0  0  0  0  0  0  0  0  0  0  0
    9.2241   -5.5301    0.4023 H   0  0  0  0  0  0  0  0  0  0  0  0
   10.8000   -7.3036    0.0432 H   0  0  0  0  0  0  0  0  0  0  0  0
    8.9501   -9.7439    2.9628 H   0  0  0  0  0  0  0  0  0  0  0  0
    7.2809   -7.9029    3.3692 H   0  0  0  0  0  0  0  0  0  0  0  0
   11.5279   -9.5995    0.4190 H   0  0  0  0  0  0  0  0  0  0  0  0
    5.5991   -6.0590   -0.7542 H   0  0  0  0  0  0  0  0  0  0  0  0
    7.0041   -5.0411   -0.4764 H   0  0  0  0  0  0  0  0  0  0  0  0
    5.5639   -1.2832    1.2777 H   0  0  0  0  0  0  0  0  0  0  0  0
    4.8606   -1.1392   -0.3570 H   0  0  0  0  0  0  0  0  0  0  0  0
    4.8073    2.7904   -0.5946 H   0  0  0  0  0  0  0  0  0  0  0  0
    5.1998    0.0837   -3.3007 H   0  0  0  0  0  0  0  0  0  0  0  0
    5.4724    1.8786   -3.3281 H   0  0  0  0  0  0  0  0  0  0  0  0
    6.4843    0.4103    0.2749 H   0  0  0  0  0  0  0  0  0  0  0  0
    6.6710    2.1613    0.7421 H   0  0  0  0  0  0  0  0  0  0  0  0
    7.0264    3.7960   -0.9062 H   0  0  0  0  0  0  0  0  0  0  0  0
    8.5409    4.2573   -2.8542 H   0  0  0  0  0  0  0  0  0  0  0  0
    8.8584    0.0517   -3.6316 H   0  0  0  0  0  0  0  0  0  0  0  0
    7.4018   -0.3931   -1.7442 H   0  0  0  0  0  0  0  0  0  0  0  0
    9.4345    3.3261   -4.9171 H   0  0  0  0  0  0  0  0  0  0  0  0
    1.7636    1.0491    0.6123 H   0  0  0  0  0  0  0  0  0  0  0  0
    1.4383    1.5566    2.3736 H   0  0  0  0  0  0  0  0  0  0  0  0
    1.0267    2.6474    0.9731 H   0  0  0  0  0  0  0  0  0  0  0  0
    3.6458    4.0609   -0.0201 H   0  0  0  0  0  0  0  0  0  0  0  0
    1.8130    5.8816   -0.4073 H   0  0  0  0  0  0  0  0  0  0  0  0
    0.1676    6.5857    2.0722 H   0  0  0  0  0  0  0  0  0  0  0  0
   -2.5650    6.6349    0.7070 H   0  0  0  0  0  0  0  0  0  0  0  0
   -2.0324    4.8497   -1.4245 H   0  0  0  0  0  0  0  0  0  0  0  0
   -3.5016    3.3110   -2.2321 H   0  0  0  0  0  0  0  0  0  0  0  0
   -6.5293    3.6613   -2.3267 H   0  0  0  0  0  0  0  0  0  0  0  0
   -6.5318    0.6004   -2.7500 H   0  0  0  0  0  0  0  0  0  0  0  0
   -6.7435   -0.3789    0.1039 H   0  0  0  0  0  0  0  0  0  0  0  0
   -8.7700    0.7011   -1.6756 H   0  0  0  0  0  0  0  0  0  0  0  0
   -8.1859    2.1655   -2.4607 H   0  0  0  0  0  0  0  0  0  0  0  0
   -6.5749    2.4642    0.8992 H   0  0  0  0  0  0  0  0  0  0  0  0
   -8.1779    3.9487    2.4094 H   0  0  0  0  0  0  0  0  0  0  0  0
  -10.7524    2.2192   -1.9658 H   0  0  0  0  0  0  0  0  0  0  0  0
  -12.8407    3.3787   -1.2700 H   0  0  0  0  0  0  0  0  0  0  0  0
  -12.8699    4.6532    0.8014 H   0  0  0  0  0  0  0  0  0  0  0  0
  -10.8104    4.7992    2.2465 H   0  0  0  0  0  0  0  0  0  0  0  0
   -3.3383    5.4492   -3.3063 H   0  0  0  0  0  0  0  0  0  0  0  0
   -4.6737    4.4916   -4.1255 H   0  0  0  0  0  0  0  0  0  0  0  0
   -6.1792    7.2439   -4.6405 H   0  0  0  0  0  0  0  0  0  0  0  0
   -4.8002    8.0207   -3.7576 H   0  0  0  0  0  0  0  0  0  0  0  0
   -1.4253    4.4321    2.2145 H   0  0  0  0  0  0  0  0  0  0  0  0
   -2.9960    4.0416    1.4551 H   0  0  0  0  0  0  0  0  0  0  0  0
   -2.8080    5.4783    2.5768 H   0  0  0  0  0  0  0  0  0  0  0  0
    3.7779    6.9110    0.7599 H   0  0  0  0  0  0  0  0  0  0  0  0
    2.4332    8.0350    0.5614 H   0  0  0  0  0  0  0  0  0  0  0  0
    1.0968    8.6299    2.7354 H   0  0  0  0  0  0  0  0  0  0  0  0
    1.3993    9.1110    5.1300 H   0  0  0  0  0  0  0  0  0  0  0  0
    3.2705    8.2144    6.3585 H   0  0  0  0  0  0  0  0  0  0  0  0
    4.8724    6.7859    5.1676 H   0  0  0  0  0  0  0  0  0  0  0  0
    4.6237    6.2797    2.8097 H   0  0  0  0  0  0  0  0  0  0  0  0
    4.3043    1.5975    4.4802 H   0  0  0  0  0  0  0  0  0  0  0  0
  1  2  1  0
  2  3  2  3
  2  4  1  0
  4  5  1  0
  5  6  1  0
  6  7  1  0
  7  8  1  0
  8  9  1  0
  9 10  1  0
 10 11  2  0
 10 12  1  0
 12 13  1  0
 13 14  1  0
 14 15  2  0
 15 16  1  0
 16 17  2  0
 17 18  1  0
 18 19  2  0
 12 20  1  0
 20 21  1  0
 21 22  2  0
 21 23  1  0
 23 24  1  0
 23 25  1  0
 25 26  1  0
 26 27  2  0
 26 28  1  0
 28 29  1  0
 29 30  1  0
 30 31  2  0
 30 32  1  0
 32 33  1  0
 33 34  1  0
 34 35  2  0
 35 36  1  0
 36 37  2  0
 37 38  1  0
 38 39  2  0
 37 40  1  0
 32 41  1  0
 28 42  1  0
 42 43  1  0
 43 44  2  0
 43 45  1  0
 45 46  1  0
 46 47  1  0
 47 48  2  0
 47 49  1  0
 46 50  1  0
 50 51  1  0
 51 52  2  0
 52 53  1  0
 53 54  2  0
 54 55  1  0
 55 56  2  0
 54 57  1  0
 45 58  1  0
 58 59  1  0
 58 60  1  0
 60 61  1  0
 61 62  2  0
 61 63  1  0
 63 64  1  0
 64 65  1  0
 65 66  2  0
 65 67  1  0
 67 68  1  0
 68 69  1  0
 69 70  2  0
 69 71  1  0
 71 72  1  0
 72 73  1  0
 73 74  2  0
 73 75  1  0
 75 76  1  0
 76 77  1  0
 77 78  2  0
 75 79  1  0
 79 80  1  0
 80 81  2  0
 81 82  1  0
 82 83  1  0
 83 84  2  0
 84 85  1  0
 85 86  2  0
 86 87  1  0
 87 88  2  0
 71 89  1  0
 89 90  1  0
 90 91  2  0
 90 92  1  0
 67 93  1  0
 63 94  1  0
 94 95  1  0
 95 96  2  0
 96 97  1  0
 97 98  2  0
 98 99  1  0
 99100  2  0
 58101  1  0
101102  2  0
101103  1  0
 77  8  1  0
 84 80  1  0
100 95  1  0
 19 14  1  0
 39 34  1  0
 56 51  1  0
 88 83  1  0
  1104  1  0
  1105  1  0
  3106  1  0
  4107  1  0
  5108  1  0
  5109  1  0
  6110  1  0
  6111  1  0
  7112  1  0
  7113  1  0
  8114  1  6
  9115  1  0
 12116  1  1
 13117  1  0
 13118  1  0
 15119  1  0
 16120  1  0
 17121  1  0
 18122  1  0
 19123  1  0
 20124  1  0
 23125  1  1
 24126  1  0
 24127  1  0
 24128  1  0
 25129  1  0
 28130  1  1
 29131  1  0
 32132  1  1
 33133  1  0
 33134  1  0
 35135  1  0
 36136  1  0
 38137  1  0
 39138  1  0
 40139  1  0
 41140  1  0
 41141  1  0
 42142  1  0
 42143  1  0
 46144  1  6
 49145  1  0
 49146  1  0
 50147  1  0
 50148  1  0
 52149  1  0
 53150  1  0
 55151  1  0
 56152  1  0
 57153  1  0
 59154  1  0
 59155  1  0
 59156  1  0
 60157  1  0
 63158  1  6
 64159  1  0
 67160  1  1
 68161  1  0
 71162  1  6
 72163  1  0
 75164  1  6
 76165  1  0
 79166  1  0
 79167  1  0
 81168  1  0
 82169  1  0
 85170  1  0
 86171  1  0
 87172  1  0
 88173  1  0
 89174  1  0
 89175  1  0
 92176  1  0
 92177  1  0
 93178  1  0
 93179  1  0
 93180  1  0
 94181  1  0
 94182  1  0
 96183  1  0
 97184  1  0
 98185  1  0
 99186  1  0
100187  1  0
103188  1  0
M  END
>  <Ligand ID>  (1) 
LIG0001120

>  <Ligand>  (1) 
CHEMBL2096721

>  <SMILES>  (1) 
NC(=N)NCCC[C@@H]1NC(=O)[C@@H](Cc2ccccc2)NC(=O)[C@H](C)NC(=O)[C@@H](NC(=O)[C@H](Cc2ccc(cc2)O)N)CC(=O)N([C@H](C(=O)N)Cc2ccc(cc2)O)C(C)(NC(=O)[C@@H](NC(=O)[C@@H](NC(=O)[C@@H](NC(=O)[C@@H](NC1=O)Cc1c[nH]c2c1cccc2)CC(=O)N)C)Cc1ccccc1)C(=O)O

>  <CID>  (1) 
91900700.0

>  <ChEMBL ID>  (1) 
nan

>  <InChiKey>  (1) 
AHYBINIDLPZASF-QHCAJBRISA-N

>  <InChi>  (1) 
InChI=1S/C70H85N17O16/c1-37-59(93)81-50(30-39-13-6-4-7-14-39)65(99)80-49(19-12-28-76-69(74)75)62(96)84-52(33-43-36-77-48-18-11-10-17-46(43)48)66(100)85-53(34-56(72)90)63(97)78-38(2)60(94)82-51(31-40-15-8-5-9-16-40)67(101)86-70(3,68(102)103)87(55(58(73)92)32-42-22-26-45(89)27-23-42)57(91)35-54(64(98)79-37)83-61(95)47(71)29-41-20-24-44(88)25-21-41/h4-11,13-18,20-27,36-38,47,49-55,77,88-89H,12,19,28-35,71H2,1-3H3,(H2,72,90)(H2,73,92)(H,78,97)(H,79,98)(H,80,99)(H,81,93)(H,82,94)(H,83,95)(H,84,96)(H,85,100)(H,86,101)(H,102,103)(H4,74,75,76)/t37-,38-,47-,49-,50+,51-,52-,53-,54-,55-,70?/m0/s1

>  <IUPAC Name>  (1) 
(5S,8S,11S,14S,17S,20R,23S,26S)-1-[(2S)-1-amino-3-(4-hydroxyphenyl)-1-oxopropan-2-yl]-26-[[(2S)-2-amino-3-(4-hydroxyphenyl)propanoyl]amino]-11-(2-amino-2-oxoethyl)-5,20-dibenzyl-17-(3-carbamimidamidopropyl)-14-(1H-indol-3-ylmethyl)-2,8,23-trimethyl-4,7,10,13,16,19,22,25,28-nonaoxo-1,3,6,9,12,15,18,21,24-nonazacyclooctacosane-2-carboxylic acid

$$$$
