
     RDKit          3D

 54 58  0  0  0  0  0  0  0  0999 V2000
    3.5583    0.2360    1.5927 O   0  0  0  0  0  0  0  0  0  0  0  0
    3.0050   -0.6188    0.8312 C   0  0  0  0  0  0  0  0  0  0  0  0
    1.5649   -0.5519    0.6229 C   0  0  0  0  0  0  0  0  0  0  0  0
    0.8117   -1.6023    1.1235 C   0  0  0  0  0  0  0  0  0  0  0  0
   -0.5424   -1.5290    0.9252 C   0  0  0  0  0  0  0  0  0  0  0  0
   -1.1058   -0.4599    0.2617 C   0  0  0  0  0  0  0  0  0  0  0  0
   -0.3803    0.5710   -0.2308 N   0  0  0  0  0  0  0  0  0  0  0  0
    0.9728    0.5205   -0.0461 C   0  0  0  0  0  0  0  0  0  0  0  0
    1.7792    1.4245   -0.4638 N   0  0  0  0  0  0  0  0  0  0  0  0
   -0.9016    1.6882   -0.9146 C   0  0  0  0  0  0  0  0  0  0  0  0
   -2.3073    1.6490   -1.3986 C   0  0  0  0  0  0  0  0  0  0  0  0
   -2.4472    3.1245   -1.8726 C   0  0  0  0  0  0  0  0  0  0  0  0
   -1.5489    3.9080   -0.9230 C   0  0  0  0  0  0  0  0  0  0  0  0
   -1.0178    2.8756    0.0556 C   0  0  0  0  0  0  0  0  0  0  0  0
   -2.4355   -0.4752    0.1144 N   0  0  0  0  0  0  0  0  0  0  0  0
   -3.2095   -1.4690    0.5791 C   0  0  0  0  0  0  0  0  0  0  0  0
   -2.6558   -2.5072    1.2239 N   0  0  0  0  0  0  0  0  0  0  0  0
   -1.3301   -2.5508    1.4037 C   0  0  0  0  0  0  0  0  0  0  0  0
   -0.7927   -3.5132    2.0041 O   0  0  0  0  0  0  0  0  0  0  0  0
   -3.3679   -3.5409    1.7197 C   0  0  0  0  0  0  0  0  0  0  0  0
   -4.7394   -3.5904    1.5889 C   0  0  0  0  0  0  0  0  0  0  0  0
   -5.3367   -2.5353    0.9296 C   0  0  0  0  0  0  0  0  0  0  0  0
   -4.5879   -1.4840    0.4280 C   0  0  0  0  0  0  0  0  0  0  0  0
   -5.2692   -0.3839   -0.2651 C   0  0  0  0  0  0  0  0  0  0  0  0
    3.8311   -1.6039    0.2184 N   0  0  0  0  0  0  0  0  0  0  0  0
    5.2627   -1.6784    0.4205 C   0  0  0  0  0  0  0  0  0  0  0  0
    5.9246   -0.4258   -0.0206 C   0  0  0  0  0  0  0  0  0  0  0  0
    6.4122   -0.1328   -1.2703 C   0  0  0  0  0  0  0  0  0  0  0  0
    6.9281    1.1335   -1.1881 C   0  0  0  0  0  0  0  0  0  0  0  0
    6.7441    1.5802    0.1029 C   0  0  0  0  0  0  0  0  0  0  0  0
    6.1427    0.6185    0.7632 O   0  0  0  0  0  0  0  0  0  0  0  0
    1.2888   -2.4232    1.6378 H   0  0  0  0  0  0  0  0  0  0  0  0
    1.5410    2.2881   -0.9764 H   0  0  0  0  0  0  0  0  0  0  0  0
   -0.2760    2.0363   -1.7704 H   0  0  0  0  0  0  0  0  0  0  0  0
   -3.0800    1.5932   -0.5995 H   0  0  0  0  0  0  0  0  0  0  0  0
   -2.4921    1.0481   -2.2841 H   0  0  0  0  0  0  0  0  0  0  0  0
   -2.1475    3.2317   -2.9180 H   0  0  0  0  0  0  0  0  0  0  0  0
   -3.4862    3.4808   -1.7385 H   0  0  0  0  0  0  0  0  0  0  0  0
   -0.6635    4.2461   -1.5357 H   0  0  0  0  0  0  0  0  0  0  0  0
   -2.0436    4.7617   -0.4537 H   0  0  0  0  0  0  0  0  0  0  0  0
   -1.8383    2.6433    0.7832 H   0  0  0  0  0  0  0  0  0  0  0  0
   -0.0785    3.1244    0.5269 H   0  0  0  0  0  0  0  0  0  0  0  0
   -2.8826   -4.3477    2.2269 H   0  0  0  0  0  0  0  0  0  0  0  0
   -5.3164   -4.4027    1.9762 H   0  0  0  0  0  0  0  0  0  0  0  0
   -6.4320   -2.5670    0.8204 H   0  0  0  0  0  0  0  0  0  0  0  0
   -6.3808   -0.5418   -0.2391 H   0  0  0  0  0  0  0  0  0  0  0  0
   -4.9537   -0.2593   -1.3294 H   0  0  0  0  0  0  0  0  0  0  0  0
   -5.0655    0.5736    0.2466 H   0  0  0  0  0  0  0  0  0  0  0  0
    3.3238   -2.2901   -0.4050 H   0  0  0  0  0  0  0  0  0  0  0  0
    5.5413   -1.8481    1.4828 H   0  0  0  0  0  0  0  0  0  0  0  0
    5.6479   -2.5167   -0.1736 H   0  0  0  0  0  0  0  0  0  0  0  0
    6.3860   -0.7821   -2.1337 H   0  0  0  0  0  0  0  0  0  0  0  0
    7.4016    1.7242   -1.9530 H   0  0  0  0  0  0  0  0  0  0  0  0
    7.0448    2.5506    0.4936 H   0  0  0  0  0  0  0  0  0  0  0  0
  1  2  2  0
  2  3  1  0
  3  4  2  0
  4  5  1  0
  5  6  2  0
  6  7  1  0
  7  8  1  0
  8  9  2  3
  7 10  1  0
 10 11  1  0
 11 12  1  0
 12 13  1  0
 13 14  1  0
  6 15  1  0
 15 16  2  0
 16 17  1  0
 17 18  1  0
 18 19  2  0
 17 20  1  0
 20 21  2  0
 21 22  1  0
 22 23  2  0
 23 24  1  0
  2 25  1  0
 25 26  1  0
 26 27  1  0
 27 28  2  0
 28 29  1  0
 29 30  2  0
 30 31  1  0
  8  3  1  0
 14 10  1  0
 23 16  1  0
 31 27  1  0
 18  5  1  0
  4 32  1  0
  9 33  1  0
 10 34  1  0
 11 35  1  0
 11 36  1  0
 12 37  1  0
 12 38  1  0
 13 39  1  0
 13 40  1  0
 14 41  1  0
 14 42  1  0
 20 43  1  0
 21 44  1  0
 22 45  1  0
 24 46  1  0
 24 47  1  0
 24 48  1  0
 25 49  1  0
 26 50  1  0
 26 51  1  0
 28 52  1  0
 29 53  1  0
 30 54  1  0
M  END
>  <Ligand ID>  (1) 
LIG0003889

>  <Ligand>  (1) 
MLS001217746

>  <SMILES>  (1) 
O=C(c1cc2c(n(c1=N)C1CCCC1)nc1n(c2=O)cccc1C)NCc1ccco1

>  <CID>  (1) 
1077537.0

>  <ChEMBL ID>  (1) 
nan

>  <InChiKey>  (1) 
QTCBPDCQKFDOSJ-UHFFFAOYSA-N

>  <InChi>  (1) 
InChI=1S/C23H23N5O3/c1-14-6-4-10-27-20(14)26-21-18(23(27)30)12-17(19(24)28(21)15-7-2-3-8-15)22(29)25-13-16-9-5-11-31-16/h4-6,9-12,15,24H,2-3,7-8,13H2,1H3,(H,25,29)

>  <IUPAC Name>  (1) 
7-cyclopentyl-N-(furan-2-ylmethyl)-6-imino-11-methyl-2-oxo-1,7,9-triazatricyclo[8.4.0.03,8]tetradeca-3(8),4,9,11,13-pentaene-5-carboxamide

$$$$
