
     RDKit          3D

 46 48  0  0  0  0  0  0  0  0999 V2000
    5.8675    0.5724   -1.2511 O   0  0  0  0  0  0  0  0  0  0  0  0
    5.3346    0.7911    0.0127 C   0  0  0  0  0  0  0  0  0  0  0  0
    5.3326    1.9708    0.4427 O   0  0  0  0  0  0  0  0  0  0  0  0
    4.8152   -0.3736    0.7467 C   0  0  0  0  0  0  0  0  0  0  0  0
    3.3233   -0.5690    0.6247 C   0  0  0  0  0  0  0  0  0  0  0  0
    2.5549    0.5939    1.1432 C   0  0  0  0  0  0  0  0  0  0  0  0
    1.4531    1.0550    0.2306 C   0  0  0  0  0  0  0  0  0  0  0  0
    0.6774   -0.0871   -0.3774 C   0  0  0  0  0  0  0  0  0  0  0  0
    1.5632   -1.0612   -1.1048 C   0  0  0  0  0  0  0  0  0  0  0  0
    3.0301   -0.8041   -0.8408 C   0  0  0  0  0  0  0  0  0  0  0  0
   -0.2612    0.5115   -1.4031 C   0  0  0  0  0  0  0  0  0  0  0  0
   -1.5584   -0.2581   -1.5219 C   0  0  0  0  0  0  0  0  0  0  0  0
   -2.2400   -0.1642   -0.2671 N   0  0  0  0  0  0  0  0  0  0  0  0
   -1.4469   -0.2368    0.9453 C   0  0  0  0  0  0  0  0  0  0  0  0
   -0.0658   -0.7960    0.7258 C   0  0  0  0  0  0  0  0  0  0  0  0
   -3.6421   -0.0063   -0.1107 C   0  0  0  0  0  0  0  0  0  0  0  0
   -4.2471    0.1123    1.1276 C   0  0  0  0  0  0  0  0  0  0  0  0
   -5.6012    0.2651    1.3013 C   0  0  0  0  0  0  0  0  0  0  0  0
   -6.2774    0.4078    2.9077 Cl  0  0  0  0  0  0  0  0  0  0  0  0
   -6.4407    0.3076    0.2042 C   0  0  0  0  0  0  0  0  0  0  0  0
   -5.8748    0.1925   -1.0480 C   0  0  0  0  0  0  0  0  0  0  0  0
   -4.5106    0.0394   -1.2049 C   0  0  0  0  0  0  0  0  0  0  0  0
   -6.9554    0.2478   -2.4464 Cl  0  0  0  0  0  0  0  0  0  0  0  0
    6.2842    1.3306   -1.7400 H   0  0  0  0  0  0  0  0  0  0  0  0
    5.2930   -1.3258    0.4411 H   0  0  0  0  0  0  0  0  0  0  0  0
    5.0582   -0.2605    1.8425 H   0  0  0  0  0  0  0  0  0  0  0  0
    3.1054   -1.5203    1.1784 H   0  0  0  0  0  0  0  0  0  0  0  0
    3.2384    1.4519    1.2982 H   0  0  0  0  0  0  0  0  0  0  0  0
    2.1268    0.3802    2.1675 H   0  0  0  0  0  0  0  0  0  0  0  0
    0.7430    1.6580    0.8175 H   0  0  0  0  0  0  0  0  0  0  0  0
    1.8245    1.7072   -0.5911 H   0  0  0  0  0  0  0  0  0  0  0  0
    1.2670   -2.1005   -0.8278 H   0  0  0  0  0  0  0  0  0  0  0  0
    1.4456   -1.0158   -2.2233 H   0  0  0  0  0  0  0  0  0  0  0  0
    3.3192    0.0982   -1.3894 H   0  0  0  0  0  0  0  0  0  0  0  0
    3.5863   -1.6996   -1.1684 H   0  0  0  0  0  0  0  0  0  0  0  0
    0.2091    0.4568   -2.4156 H   0  0  0  0  0  0  0  0  0  0  0  0
   -0.4889    1.5782   -1.2261 H   0  0  0  0  0  0  0  0  0  0  0  0
   -1.3607   -1.3082   -1.8144 H   0  0  0  0  0  0  0  0  0  0  0  0
   -2.1396    0.2272   -2.3024 H   0  0  0  0  0  0  0  0  0  0  0  0
   -1.4042    0.7087    1.4943 H   0  0  0  0  0  0  0  0  0  0  0  0
   -1.9637   -0.9827    1.6134 H   0  0  0  0  0  0  0  0  0  0  0  0
   -0.1528   -1.8736    0.4660 H   0  0  0  0  0  0  0  0  0  0  0  0
    0.4589   -0.6927    1.6984 H   0  0  0  0  0  0  0  0  0  0  0  0
   -3.6450    0.0872    2.0317 H   0  0  0  0  0  0  0  0  0  0  0  0
   -7.4914    0.4285    0.3885 H   0  0  0  0  0  0  0  0  0  0  0  0
   -4.1437   -0.0438   -2.2050 H   0  0  0  0  0  0  0  0  0  0  0  0
  1  2  1  0
  2  3  2  0
  2  4  1  0
  4  5  1  0
  5  6  1  0
  6  7  1  0
  7  8  1  0
  8  9  1  0
  9 10  1  0
  8 11  1  0
 11 12  1  0
 12 13  1  0
 13 14  1  0
 14 15  1  0
 13 16  1  0
 16 17  2  0
 17 18  1  0
 18 19  1  0
 18 20  2  0
 20 21  1  0
 21 22  2  0
 21 23  1  0
 10  5  1  0
 22 16  1  0
 15  8  1  0
  1 24  1  0
  4 25  1  0
  4 26  1  0
  5 27  1  0
  6 28  1  0
  6 29  1  0
  7 30  1  0
  7 31  1  0
  9 32  1  0
  9 33  1  0
 10 34  1  0
 10 35  1  0
 11 36  1  0
 11 37  1  0
 12 38  1  0
 12 39  1  0
 14 40  1  0
 14 41  1  0
 15 42  1  0
 15 43  1  0
 17 44  1  0
 20 45  1  0
 22 46  1  0
M  END
>  <Ligand ID>  (1) 
LIG0002981

>  <Ligand>  (1) 
CHEMBL3893026

>  <SMILES>  (1) 
OC(=O)CC1CCC2(CC1)CCN(CC2)c1cc(Cl)cc(c1)Cl

>  <CID>  (1) 
73777153.0

>  <ChEMBL ID>  (1) 
nan

>  <InChiKey>  (1) 
LTCCGKRFGBBEHR-UHFFFAOYSA-N

>  <InChi>  (1) 
InChI=1S/C18H23Cl2NO2/c19-14-10-15(20)12-16(11-14)21-7-5-18(6-8-21)3-1-13(2-4-18)9-17(22)23/h10-13H,1-9H2,(H,22,23)

>  <IUPAC Name>  (1) 
2-[3-(3,5-dichlorophenyl)-3-azaspiro[5.5]undecan-9-yl]acetic acid

$$$$
