
     RDKit          3D

 61 64  0  0  0  0  0  0  0  0999 V2000
   -0.3820    1.0241    1.6620 O   0  0  0  0  0  0  0  0  0  0  0  0
   -1.0876    0.9817    0.6138 C   0  0  0  0  0  0  0  0  0  0  0  0
   -1.0866   -0.2550   -0.1402 N   0  0  0  0  0  0  0  0  0  0  0  0
   -0.2480   -1.2956    0.4174 C   0  0  0  0  0  0  0  0  0  0  0  0
   -0.7127   -1.5512    1.8325 C   0  0  0  0  0  0  0  0  0  0  0  0
   -0.9685   -2.9996    2.1038 C   0  0  0  0  0  0  0  0  0  0  0  0
    0.1768   -3.9026    1.7291 C   0  0  0  0  0  0  0  0  0  0  0  0
    0.5461   -3.6543    0.3044 C   0  0  0  0  0  0  0  0  0  0  0  0
   -0.3391   -2.5968   -0.3420 C   0  0  0  0  0  0  0  0  0  0  0  0
    1.1625   -0.8222    0.5032 C   0  0  0  0  0  0  0  0  0  0  0  0
    2.0158   -1.4754    1.1552 O   0  0  0  0  0  0  0  0  0  0  0  0
    1.6200    0.3627   -0.1303 N   0  0  0  0  0  0  0  0  0  0  0  0
    2.9675    0.8054   -0.0409 C   0  0  0  0  0  0  0  0  0  0  0  0
    3.3028    2.1199    0.4716 C   0  0  0  0  0  0  0  0  0  0  0  0
    4.6768    2.5456   -0.0206 C   0  0  0  0  0  0  0  0  0  0  0  0
    5.5687    1.3348   -0.1649 C   0  0  0  0  0  0  0  0  0  0  0  0
    5.0537    0.5369   -1.3524 C   0  0  0  0  0  0  0  0  0  0  0  0
    3.5481    0.6417   -1.4369 C   0  0  0  0  0  0  0  0  0  0  0  0
   -1.8595   -0.3454   -1.3466 C   0  0  0  0  0  0  0  0  0  0  0  0
   -3.2491   -0.7929   -1.1978 C   0  0  0  0  0  0  0  0  0  0  0  0
   -3.8817   -1.9984   -1.2951 C   0  0  0  0  0  0  0  0  0  0  0  0
   -5.1930   -2.0810   -1.0870 C   0  0  0  0  0  0  0  0  0  0  0  0
   -5.8906   -0.9367   -0.7758 C   0  0  0  0  0  0  0  0  0  0  0  0
   -4.5735    0.3957   -0.7737 S   0  0  0  0  0  0  0  0  0  0  0  0
   -1.8294    2.1469    0.2494 C   0  0  0  0  0  0  0  0  0  0  0  0
   -2.7633    2.6412    1.1632 C   0  0  0  0  0  0  0  0  0  0  0  0
   -3.4581    3.7671    0.7904 C   0  0  0  0  0  0  0  0  0  0  0  0
   -3.2364    4.3640   -0.4187 C   0  0  0  0  0  0  0  0  0  0  0  0
   -2.3085    3.8611   -1.3105 C   0  0  0  0  0  0  0  0  0  0  0  0
   -1.6301    2.7593   -0.9433 N   0  0  0  0  0  0  0  0  0  0  0  0
   -1.6355   -0.9836    2.0752 H   0  0  0  0  0  0  0  0  0  0  0  0
    0.0323   -1.2149    2.5891 H   0  0  0  0  0  0  0  0  0  0  0  0
   -1.9350   -3.3447    1.6791 H   0  0  0  0  0  0  0  0  0  0  0  0
   -1.0928   -3.0892    3.2191 H   0  0  0  0  0  0  0  0  0  0  0  0
   -0.1642   -4.9551    1.8746 H   0  0  0  0  0  0  0  0  0  0  0  0
    1.0392   -3.6978    2.3978 H   0  0  0  0  0  0  0  0  0  0  0  0
    0.3080   -4.5983   -0.2766 H   0  0  0  0  0  0  0  0  0  0  0  0
    1.6160   -3.4846    0.1069 H   0  0  0  0  0  0  0  0  0  0  0  0
   -1.3739   -2.9724   -0.2485 H   0  0  0  0  0  0  0  0  0  0  0  0
   -0.0634   -2.5425   -1.3966 H   0  0  0  0  0  0  0  0  0  0  0  0
    0.9563    0.9657   -0.7107 H   0  0  0  0  0  0  0  0  0  0  0  0
    3.5008    0.0416    0.5682 H   0  0  0  0  0  0  0  0  0  0  0  0
    3.4144    2.0735    1.5974 H   0  0  0  0  0  0  0  0  0  0  0  0
    2.6572    2.9705    0.2832 H   0  0  0  0  0  0  0  0  0  0  0  0
    5.0986    3.2764    0.7133 H   0  0  0  0  0  0  0  0  0  0  0  0
    4.5726    3.1307   -0.9606 H   0  0  0  0  0  0  0  0  0  0  0  0
    5.5090    0.7679    0.7720 H   0  0  0  0  0  0  0  0  0  0  0  0
    6.5867    1.7016   -0.3581 H   0  0  0  0  0  0  0  0  0  0  0  0
    5.5265    0.9416   -2.2658 H   0  0  0  0  0  0  0  0  0  0  0  0
    5.3224   -0.5181   -1.1856 H   0  0  0  0  0  0  0  0  0  0  0  0
    3.1686   -0.3202   -1.8518 H   0  0  0  0  0  0  0  0  0  0  0  0
    3.2242    1.4584   -2.1110 H   0  0  0  0  0  0  0  0  0  0  0  0
   -1.3921   -1.0574   -2.0821 H   0  0  0  0  0  0  0  0  0  0  0  0
   -1.8992    0.6205   -1.9037 H   0  0  0  0  0  0  0  0  0  0  0  0
   -3.2747   -2.9040   -1.5631 H   0  0  0  0  0  0  0  0  0  0  0  0
   -5.7588   -3.0404   -1.1536 H   0  0  0  0  0  0  0  0  0  0  0  0
   -6.9074   -0.7094   -0.5652 H   0  0  0  0  0  0  0  0  0  0  0  0
   -2.9211    2.1396    2.1315 H   0  0  0  0  0  0  0  0  0  0  0  0
   -4.1813    4.1882    1.4443 H   0  0  0  0  0  0  0  0  0  0  0  0
   -3.7656    5.2628   -0.7592 H   0  0  0  0  0  0  0  0  0  0  0  0
   -2.1091    4.3127   -2.2788 H   0  0  0  0  0  0  0  0  0  0  0  0
  1  2  2  0
  2  3  1  0
  3  4  1  0
  4  5  1  0
  5  6  1  0
  6  7  1  0
  7  8  1  0
  8  9  1  0
  4 10  1  0
 10 11  2  0
 10 12  1  0
 12 13  1  0
 13 14  1  0
 14 15  1  0
 15 16  1  0
 16 17  1  0
 17 18  1  0
  3 19  1  0
 19 20  1  0
 20 21  2  0
 21 22  1  0
 22 23  2  0
 23 24  1  0
  2 25  1  0
 25 26  2  0
 26 27  1  0
 27 28  2  0
 28 29  1  0
 29 30  2  0
  9  4  1  0
 18 13  1  0
 24 20  1  0
 30 25  1  0
  5 31  1  0
  5 32  1  0
  6 33  1  0
  6 34  1  0
  7 35  1  0
  7 36  1  0
  8 37  1  0
  8 38  1  0
  9 39  1  0
  9 40  1  0
 12 41  1  0
 13 42  1  0
 14 43  1  0
 14 44  1  0
 15 45  1  0
 15 46  1  0
 16 47  1  0
 16 48  1  0
 17 49  1  0
 17 50  1  0
 18 51  1  0
 18 52  1  0
 19 53  1  0
 19 54  1  0
 21 55  1  0
 22 56  1  0
 23 57  1  0
 26 58  1  0
 27 59  1  0
 28 60  1  0
 29 61  1  0
M  END
>  <Ligand ID>  (1) 
LIG0003060

>  <Ligand>  (1) 
MLS000729783

>  <SMILES>  (1) 
O=C(N(C1(CCCCC1)C(=O)NC1CCCCC1)Cc1cccs1)c1ccccn1

>  <CID>  (1) 
5236771.0

>  <ChEMBL ID>  (1) 
nan

>  <InChiKey>  (1) 
FIFDVZFCMSONTO-UHFFFAOYSA-N

>  <InChi>  (1) 
InChI=1S/C24H31N3O2S/c28-22(21-13-5-8-16-25-21)27(18-20-12-9-17-30-20)24(14-6-2-7-15-24)23(29)26-19-10-3-1-4-11-19/h5,8-9,12-13,16-17,19H,1-4,6-7,10-11,14-15,18H2,(H,26,29)

>  <IUPAC Name>  (1) 
N-[1-(cyclohexylcarbamoyl)cyclohexyl]-N-(thiophen-2-ylmethyl)pyridine-2-carboxamide

$$$$
