
     RDKit          3D

 23 23  0  0  0  0  0  0  0  0999 V2000
    4.6025    1.2106    0.0986 O   0  0  0  0  0  0  0  0  0  0  0  0
    3.9033    0.2066   -0.2687 C   0  0  0  0  0  0  0  0  0  0  0  0
    2.4581    0.1631   -0.0755 C   0  0  0  0  0  0  0  0  0  0  0  0
    1.6850   -0.9220   -0.4699 C   0  0  0  0  0  0  0  0  0  0  0  0
    0.3211   -0.8910   -0.2538 C   0  0  0  0  0  0  0  0  0  0  0  0
   -0.3080    0.1775    0.3400 C   0  0  0  0  0  0  0  0  0  0  0  0
    0.4882    1.2519    0.7260 C   0  0  0  0  0  0  0  0  0  0  0  0
    1.8540    1.2679    0.5316 C   0  0  0  0  0  0  0  0  0  0  0  0
   -1.7644    0.1602    0.5472 C   0  0  0  0  0  0  0  0  0  0  0  0
   -2.3428   -0.9596    1.2877 C   0  0  0  0  0  0  0  0  0  0  0  0
   -2.3756    0.2325   -0.8614 C   0  0  0  0  0  0  0  0  0  0  0  0
    4.4146   -0.6272   -0.7351 H   0  0  0  0  0  0  0  0  0  0  0  0
    2.1618   -1.7750   -0.9402 H   0  0  0  0  0  0  0  0  0  0  0  0
   -0.3133   -1.7349   -0.5556 H   0  0  0  0  0  0  0  0  0  0  0  0
    0.0299    2.1304    1.2055 H   0  0  0  0  0  0  0  0  0  0  0  0
    2.4576    2.1309    0.8469 H   0  0  0  0  0  0  0  0  0  0  0  0
   -2.0398    1.1320    1.0435 H   0  0  0  0  0  0  0  0  0  0  0  0
   -1.6516   -1.7387    1.6507 H   0  0  0  0  0  0  0  0  0  0  0  0
   -3.1332   -1.4722    0.6803 H   0  0  0  0  0  0  0  0  0  0  0  0
   -2.8850   -0.6066    2.2038 H   0  0  0  0  0  0  0  0  0  0  0  0
   -3.3835   -0.2426   -0.8377 H   0  0  0  0  0  0  0  0  0  0  0  0
   -2.3966    1.2960   -1.1770 H   0  0  0  0  0  0  0  0  0  0  0  0
   -1.7826   -0.3896   -1.5692 H   0  0  0  0  0  0  0  0  0  0  0  0
  1  2  2  0
  2  3  1  0
  3  4  2  0
  4  5  1  0
  5  6  2  0
  6  7  1  0
  7  8  2  0
  6  9  1  0
  9 10  1  0
  9 11  1  0
  8  3  1  0
  2 12  1  0
  4 13  1  0
  5 14  1  0
  7 15  1  0
  8 16  1  0
  9 17  1  0
 10 18  1  0
 10 19  1  0
 10 20  1  0
 11 21  1  0
 11 22  1  0
 11 23  1  0
M  END
>  <Ligand ID>  (1) 
LIG0000260

>  <Ligand>  (1) 
Cuminaldehyde

>  <SMILES>  (1) 
O=Cc1ccc(cc1)C(C)C

>  <CID>  (1) 
326.0

>  <ChEMBL ID>  (1) 
nan

>  <InChiKey>  (1) 
WTWBUQJHJGUZCY-UHFFFAOYSA-N

>  <InChi>  (1) 
InChI=1S/C10H12O/c1-8(2)10-5-3-9(7-11)4-6-10/h3-8H,1-2H3

>  <IUPAC Name>  (1) 
4-propan-2-ylbenzaldehyde

$$$$
