
     RDKit          3D

 36 37  0  0  0  0  0  0  0  0999 V2000
    4.3681    0.5585    0.1870 C   0  0  0  0  0  0  0  0  0  0  0  0
    3.4552    1.2622   -0.8132 C   0  0  0  0  0  0  0  0  0  0  0  0
    2.0818    0.7226   -0.5184 C   0  0  0  0  0  0  0  0  0  0  0  0
    1.9890   -0.7574   -0.4778 C   0  0  0  0  0  0  0  0  0  0  0  0
    3.2357   -1.5331   -0.6362 C   0  0  0  0  0  0  0  0  0  0  0  0
    4.5223   -0.8385   -0.3907 C   0  0  0  0  0  0  0  0  0  0  0  0
    1.1098   -1.2397    1.0521 S   0  0  0  0  0  0  0  0  0  0  0  0
   -0.3257    0.3095    1.3964 S   0  0  0  0  0  0  0  0  0  0  0  0
   -1.9543   -0.1865    0.7972 C   0  0  0  0  0  0  0  0  0  0  0  0
   -2.9676    0.2057    1.8497 C   0  0  0  0  0  0  0  0  0  0  0  0
   -4.3684    0.2922    1.3133 C   0  0  0  0  0  0  0  0  0  0  0  0
   -4.5366   -0.3937   -0.0131 C   0  0  0  0  0  0  0  0  0  0  0  0
   -3.6085    0.1864   -1.0420 C   0  0  0  0  0  0  0  0  0  0  0  0
   -2.2358    0.4886   -0.5138 C   0  0  0  0  0  0  0  0  0  0  0  0
    5.3560    1.0300    0.2573 H   0  0  0  0  0  0  0  0  0  0  0  0
    3.9218    0.5380    1.1973 H   0  0  0  0  0  0  0  0  0  0  0  0
    3.5105    2.3320   -0.5700 H   0  0  0  0  0  0  0  0  0  0  0  0
    3.8278    1.0094   -1.8158 H   0  0  0  0  0  0  0  0  0  0  0  0
    1.7985    1.1577    0.4746 H   0  0  0  0  0  0  0  0  0  0  0  0
    1.3434    1.1736   -1.2297 H   0  0  0  0  0  0  0  0  0  0  0  0
    1.2847   -1.0716   -1.2916 H   0  0  0  0  0  0  0  0  0  0  0  0
    3.2928   -2.0134   -1.6469 H   0  0  0  0  0  0  0  0  0  0  0  0
    3.1865   -2.3997    0.0733 H   0  0  0  0  0  0  0  0  0  0  0  0
    5.0857   -0.6943   -1.3482 H   0  0  0  0  0  0  0  0  0  0  0  0
    5.2155   -1.3750    0.2845 H   0  0  0  0  0  0  0  0  0  0  0  0
   -1.9330   -1.2766    0.6228 H   0  0  0  0  0  0  0  0  0  0  0  0
   -2.6808    1.2367    2.1738 H   0  0  0  0  0  0  0  0  0  0  0  0
   -2.8848   -0.4406    2.7370 H   0  0  0  0  0  0  0  0  0  0  0  0
   -4.7344    1.3373    1.2348 H   0  0  0  0  0  0  0  0  0  0  0  0
   -5.0493   -0.2189    2.0374 H   0  0  0  0  0  0  0  0  0  0  0  0
   -4.4522   -1.4953    0.0691 H   0  0  0  0  0  0  0  0  0  0  0  0
   -5.5865   -0.1992   -0.3449 H   0  0  0  0  0  0  0  0  0  0  0  0
   -3.5647   -0.4915   -1.9320 H   0  0  0  0  0  0  0  0  0  0  0  0
   -4.1004    1.1168   -1.4244 H   0  0  0  0  0  0  0  0  0  0  0  0
   -2.1029    1.5795   -0.4930 H   0  0  0  0  0  0  0  0  0  0  0  0
   -1.4995    0.0884   -1.2559 H   0  0  0  0  0  0  0  0  0  0  0  0
  1  2  1  0
  2  3  1  0
  3  4  1  0
  4  5  1  0
  5  6  1  0
  4  7  1  0
  7  8  1  0
  8  9  1  0
  9 10  1  0
 10 11  1  0
 11 12  1  0
 12 13  1  0
 13 14  1  0
  6  1  1  0
 14  9  1  0
  1 15  1  0
  1 16  1  0
  2 17  1  0
  2 18  1  0
  3 19  1  0
  3 20  1  0
  4 21  1  0
  5 22  1  0
  5 23  1  0
  6 24  1  0
  6 25  1  0
  9 26  1  0
 10 27  1  0
 10 28  1  0
 11 29  1  0
 11 30  1  0
 12 31  1  0
 12 32  1  0
 13 33  1  0
 13 34  1  0
 14 35  1  0
 14 36  1  0
M  END
>  <Ligand ID>  (1) 
LIG0000724

>  <Ligand>  (1) 
Dicyclohexyl disulfide

>  <SMILES>  (1) 
C1CCC(CC1)SSC1CCCCC1

>  <CID>  (1) 
17356.0

>  <ChEMBL ID>  (1) 
nan

>  <InChiKey>  (1) 
ODHAQPXNQDBHSH-UHFFFAOYSA-N

>  <InChi>  (1) 
InChI=1S/C12H22S2/c1-3-7-11(8-4-1)13-14-12-9-5-2-6-10-12/h11-12H,1-10H2

>  <IUPAC Name>  (1) 
(cyclohexyldisulfanyl)cyclohexane

$$$$
