
     RDKit          3D

 34 33  0  0  0  0  0  0  0  0999 V2000
   -2.1421   -1.4906   -1.6672 C   0  0  0  0  0  0  0  0  0  0  0  0
   -1.6215   -0.3020   -1.4097 C   0  0  0  0  0  0  0  0  0  0  0  0
   -1.1406    0.1402   -0.0729 C   0  0  0  0  0  0  0  0  0  0  0  0
   -2.1374    1.0021    0.5268 O   0  0  0  0  0  0  0  0  0  0  0  0
   -3.4186    0.6176    0.7894 C   0  0  0  0  0  0  0  0  0  0  0  0
   -3.7860   -0.5315    0.5087 O   0  0  0  0  0  0  0  0  0  0  0  0
   -4.3933    1.5578    1.4114 C   0  0  0  0  0  0  0  0  0  0  0  0
    0.0103    1.0810   -0.3000 C   0  0  0  0  0  0  0  0  0  0  0  0
    1.1822    0.5881   -1.0423 C   0  0  0  0  0  0  0  0  0  0  0  0
    1.8641   -0.5468   -0.4205 C   0  0  0  0  0  0  0  0  0  0  0  0
    3.1434   -0.4094    0.0112 C   0  0  0  0  0  0  0  0  0  0  0  0
    3.7892    0.9195   -0.1793 C   0  0  0  0  0  0  0  0  0  0  0  0
    3.8752   -1.5404    0.6504 C   0  0  0  0  0  0  0  0  0  0  0  0
   -0.8751   -1.0227    0.8111 C   0  0  0  0  0  0  0  0  0  0  0  0
   -2.4738   -1.7307   -2.6981 H   0  0  0  0  0  0  0  0  0  0  0  0
   -2.2850   -2.2808   -0.9587 H   0  0  0  0  0  0  0  0  0  0  0  0
   -1.5360    0.4162   -2.2383 H   0  0  0  0  0  0  0  0  0  0  0  0
   -4.1759    2.6123    1.1942 H   0  0  0  0  0  0  0  0  0  0  0  0
   -5.4335    1.3585    1.0730 H   0  0  0  0  0  0  0  0  0  0  0  0
   -4.3886    1.3553    2.5019 H   0  0  0  0  0  0  0  0  0  0  0  0
   -0.4439    1.9655   -0.8527 H   0  0  0  0  0  0  0  0  0  0  0  0
    0.3181    1.4719    0.7076 H   0  0  0  0  0  0  0  0  0  0  0  0
    1.9130    1.4570   -1.0698 H   0  0  0  0  0  0  0  0  0  0  0  0
    0.9821    0.4193   -2.1335 H   0  0  0  0  0  0  0  0  0  0  0  0
    1.4551   -1.5365   -0.2729 H   0  0  0  0  0  0  0  0  0  0  0  0
    3.2929    1.7354    0.3961 H   0  0  0  0  0  0  0  0  0  0  0  0
    4.8217    0.8395    0.2431 H   0  0  0  0  0  0  0  0  0  0  0  0
    3.9187    1.1882   -1.2607 H   0  0  0  0  0  0  0  0  0  0  0  0
    4.4111   -1.0901    1.5320 H   0  0  0  0  0  0  0  0  0  0  0  0
    4.5679   -2.0348   -0.0631 H   0  0  0  0  0  0  0  0  0  0  0  0
    3.1990   -2.2905    1.0786 H   0  0  0  0  0  0  0  0  0  0  0  0
   -1.7712   -1.1497    1.4786 H   0  0  0  0  0  0  0  0  0  0  0  0
   -0.7506   -1.9661    0.2956 H   0  0  0  0  0  0  0  0  0  0  0  0
    0.0293   -0.8029    1.4299 H   0  0  0  0  0  0  0  0  0  0  0  0
  1  2  2  0
  2  3  1  0
  3  4  1  0
  4  5  1  0
  5  6  2  0
  5  7  1  0
  3  8  1  0
  8  9  1  0
  9 10  1  0
 10 11  2  3
 11 12  1  0
 11 13  1  0
  3 14  1  0
  1 15  1  0
  1 16  1  0
  2 17  1  0
  7 18  1  0
  7 19  1  0
  7 20  1  0
  8 21  1  0
  8 22  1  0
  9 23  1  0
  9 24  1  0
 10 25  1  0
 12 26  1  0
 12 27  1  0
 12 28  1  0
 13 29  1  0
 13 30  1  0
 13 31  1  0
 14 32  1  0
 14 33  1  0
 14 34  1  0
M  END
>  <Ligand ID>  (1) 
LIG0000292

>  <Ligand>  (1) 
Linalyl acetate

>  <SMILES>  (1) 
C=CC(OC(=O)C)(CCC=C(C)C)C

>  <CID>  (1) 
8294.0

>  <ChEMBL ID>  (1) 
nan

>  <InChiKey>  (1) 
UWKAYLJWKGQEPM-UHFFFAOYSA-N

>  <InChi>  (1) 
InChI=1S/C12H20O2/c1-6-12(5,14-11(4)13)9-7-8-10(2)3/h6,8H,1,7,9H2,2-5H3

>  <IUPAC Name>  (1) 
3,7-dimethylocta-1,6-dien-3-yl acetate

$$$$
