
     RDKit          3D

 60 61  0  0  0  0  0  0  0  0999 V2000
   -1.4676   -0.2697   -1.8001 O   0  0  0  0  0  0  0  0  0  0  0  0
   -1.6716    0.2391   -0.6518 C   0  0  0  0  0  0  0  0  0  0  0  0
   -3.0489    0.7119   -0.3818 C   0  0  1  0  0  0  0  0  0  0  0  0
   -4.0821   -0.3304   -0.6770 C   0  0  0  0  0  0  0  0  0  0  0  0
   -5.4440    0.1990   -0.3878 C   0  0  0  0  0  0  0  0  0  0  0  0
   -6.1259    0.8396   -1.4053 C   0  0  0  0  0  0  0  0  0  0  0  0
   -7.3954    1.3517   -1.1935 C   0  0  0  0  0  0  0  0  0  0  0  0
   -7.9917    1.2180    0.0644 C   0  0  0  0  0  0  0  0  0  0  0  0
   -7.3028    0.5703    1.0941 C   0  0  0  0  0  0  0  0  0  0  0  0
   -6.0269    0.0646    0.8533 C   0  0  0  0  0  0  0  0  0  0  0  0
   -9.2225    1.7292    0.2245 F   0  0  0  0  0  0  0  0  0  0  0  0
   -3.1072    1.2515    0.9452 N   0  0  0  0  0  0  0  0  0  0  0  0
   -0.6241    0.3399    0.3059 N   0  0  0  0  0  0  0  0  0  0  0  0
    0.7291   -0.1614   -0.0524 C   0  0  2  0  0  0  0  0  0  0  0  0
    0.9823   -1.2205    0.9273 C   0  0  0  0  0  0  0  0  0  0  0  0
    0.2385   -1.2136    1.9747 O   0  0  0  0  0  0  0  0  0  0  0  0
    1.9362   -2.2530    0.8652 N   0  0  0  0  0  0  0  0  0  0  0  0
    1.9902   -3.1440    2.0412 C   0  0  0  0  0  0  0  0  0  0  0  0
    3.3937   -3.7040    2.0724 C   0  0  0  0  0  0  0  0  0  0  0  0
    3.5138   -4.6840    0.9122 C   0  0  0  0  0  0  0  0  0  0  0  0
    2.8370   -4.0937   -0.3296 C   0  0  0  0  0  0  0  0  0  0  0  0
    2.8148   -2.5609   -0.2110 C   0  0  0  0  0  0  0  0  0  0  0  0
    1.6719    0.9975   -0.0540 C   0  0  0  0  0  0  0  0  0  0  0  0
    3.0699    0.6613   -0.3692 C   0  0  0  0  0  0  0  0  0  0  0  0
    3.9721    1.8991   -0.4183 C   0  0  0  0  0  0  0  0  0  0  0  0
    3.4934    2.8225   -1.4448 N   0  0  0  0  0  0  0  0  0  0  0  0
    3.7828    4.0786   -1.4093 C   0  0  0  0  0  0  0  0  0  0  0  0
    4.5868    4.6026   -0.3543 N   0  0  0  0  0  0  0  0  0  0  0  0
    3.2817    4.9087   -2.4400 N   0  0  0  0  0  0  0  0  0  0  0  0
   -3.2441    1.5552   -1.0911 H   0  0  0  0  0  0  0  0  0  0  0  0
   -3.8826   -1.2509   -0.0813 H   0  0  0  0  0  0  0  0  0  0  0  0
   -4.0106   -0.5502   -1.7702 H   0  0  0  0  0  0  0  0  0  0  0  0
   -5.6868    0.9618   -2.4050 H   0  0  0  0  0  0  0  0  0  0  0  0
   -7.8959    1.8426   -2.0046 H   0  0  0  0  0  0  0  0  0  0  0  0
   -7.7662    0.4680    2.0668 H   0  0  0  0  0  0  0  0  0  0  0  0
   -5.5215   -0.4271    1.6597 H   0  0  0  0  0  0  0  0  0  0  0  0
   -2.4276    2.0418    0.9873 H   0  0  0  0  0  0  0  0  0  0  0  0
   -2.8480    0.5704    1.6804 H   0  0  0  0  0  0  0  0  0  0  0  0
   -0.8029    0.7592    1.2450 H   0  0  0  0  0  0  0  0  0  0  0  0
    0.6227   -0.5426   -1.0848 H   0  0  0  0  0  0  0  0  0  0  0  0
    1.7536   -2.5840    2.9653 H   0  0  0  0  0  0  0  0  0  0  0  0
    1.2131   -3.9294    1.9486 H   0  0  0  0  0  0  0  0  0  0  0  0
    4.0893   -2.8688    1.8691 H   0  0  0  0  0  0  0  0  0  0  0  0
    3.6177   -4.2023    3.0371 H   0  0  0  0  0  0  0  0  0  0  0  0
    4.5734   -4.8969    0.7230 H   0  0  0  0  0  0  0  0  0  0  0  0
    2.9856   -5.6097    1.1723 H   0  0  0  0  0  0  0  0  0  0  0  0
    3.4892   -4.3732   -1.1830 H   0  0  0  0  0  0  0  0  0  0  0  0
    1.8413   -4.5172   -0.5028 H   0  0  0  0  0  0  0  0  0  0  0  0
    3.8780   -2.2883   -0.0628 H   0  0  0  0  0  0  0  0  0  0  0  0
    2.4413   -2.2198   -1.2042 H   0  0  0  0  0  0  0  0  0  0  0  0
    1.6219    1.5327    0.9178 H   0  0  0  0  0  0  0  0  0  0  0  0
    1.3112    1.6696   -0.8904 H   0  0  0  0  0  0  0  0  0  0  0  0
    3.2248    0.1252   -1.3126 H   0  0  0  0  0  0  0  0  0  0  0  0
    3.5506    0.0143    0.4384 H   0  0  0  0  0  0  0  0  0  0  0  0
    4.9612    1.5348   -0.7641 H   0  0  0  0  0  0  0  0  0  0  0  0
    4.0918    2.3861    0.5463 H   0  0  0  0  0  0  0  0  0  0  0  0
    4.1852    5.0280    0.5154 H   0  0  0  0  0  0  0  0  0  0  0  0
    5.6341    4.5294   -0.5162 H   0  0  0  0  0  0  0  0  0  0  0  0
    2.7326    5.7567   -2.1733 H   0  0  0  0  0  0  0  0  0  0  0  0
    3.4843    4.6350   -3.4260 H   0  0  0  0  0  0  0  0  0  0  0  0
  1  2  2  0
  2  3  1  0
  3  4  1  0
  4  5  1  0
  5  6  2  0
  6  7  1  0
  7  8  2  0
  8  9  1  0
  9 10  2  0
  8 11  1  0
  3 12  1  0
  2 13  1  0
 13 14  1  0
 14 15  1  0
 15 16  2  0
 15 17  1  0
 17 18  1  0
 18 19  1  0
 19 20  1  0
 20 21  1  0
 21 22  1  0
 14 23  1  0
 23 24  1  0
 24 25  1  0
 25 26  1  0
 26 27  2  3
 27 28  1  0
 27 29  1  0
 10  5  1  0
 22 17  1  0
  3 30  1  6
  4 31  1  0
  4 32  1  0
  6 33  1  0
  7 34  1  0
  9 35  1  0
 10 36  1  0
 12 37  1  0
 12 38  1  0
 13 39  1  0
 14 40  1  6
 18 41  1  0
 18 42  1  0
 19 43  1  0
 19 44  1  0
 20 45  1  0
 20 46  1  0
 21 47  1  0
 21 48  1  0
 22 49  1  0
 22 50  1  0
 23 51  1  0
 23 52  1  0
 24 53  1  0
 24 54  1  0
 25 55  1  0
 25 56  1  0
 28 57  1  0
 28 58  1  0
 29 59  1  0
 29 60  1  0
M  END
>  <Ligand ID>  (1) 
LIG0003093

>  <Ligand>  (1) 
CHEMBL256630

>  <SMILES>  (1) 
O=C([C@@H](Cc1ccc(cc1)F)N)N[C@H](C(=O)N1CCCCC1)CCCN=C(N)N

>  <CID>  (1) 
44453850.0

>  <ChEMBL ID>  (1) 
nan

>  <InChiKey>  (1) 
KMLBTGNKLNCZLC-SJORKVTESA-N

>  <InChi>  (1) 
InChI=1S/C20H31FN6O2/c21-15-8-6-14(7-9-15)13-16(22)18(28)26-17(5-4-10-25-20(23)24)19(29)27-11-2-1-3-12-27/h6-9,16-17H,1-5,10-13,22H2,(H,26,28)(H4,23,24,25)/t16-,17+/m1/s1

>  <IUPAC Name>  (1) 
(2R)-2-amino-N-[(2S)-5-(diaminomethylideneamino)-1-oxo-1-piperidin-1-ylpentan-2-yl]-3-(4-fluorophenyl)propanamide

$$$$
