
     RDKit          3D

 55 57  0  0  0  0  0  0  0  0999 V2000
   -7.3827   -2.0311   -2.7802 Cl  0  0  0  0  0  0  0  0  0  0  0  0
   -6.8670   -0.7385   -1.6987 C   0  0  0  0  0  0  0  0  0  0  0  0
   -7.4580    0.5263   -1.7728 C   0  0  0  0  0  0  0  0  0  0  0  0
   -7.0143    1.4916   -0.9045 C   0  0  0  0  0  0  0  0  0  0  0  0
   -6.0160    1.2151    0.0097 C   0  0  0  0  0  0  0  0  0  0  0  0
   -5.4309   -0.0261    0.0886 C   0  0  0  0  0  0  0  0  0  0  0  0
   -5.8639   -1.0084   -0.7763 C   0  0  0  0  0  0  0  0  0  0  0  0
   -4.3580   -0.3690    1.0668 C   0  0  2  0  0  0  0  0  0  0  0  0
   -3.9129    0.8175    1.8733 C   0  0  0  0  0  0  0  0  0  0  0  0
   -3.0042    0.5166    2.9029 N   0  0  0  0  0  0  0  0  0  0  0  0
   -1.6886    0.1635    2.5437 C   0  0  0  0  0  0  0  0  0  0  0  0
   -0.9737    1.3982    2.0255 C   0  0  0  0  0  0  0  0  0  0  0  0
    0.4025    1.1709    1.6699 N   0  0  0  0  0  0  0  0  0  0  0  0
    0.8804    0.4453    0.5704 C   0  0  0  0  0  0  0  0  0  0  0  0
    0.1003   -0.1453   -0.3957 C   0  0  0  0  0  0  0  0  0  0  0  0
    0.6287   -0.8516   -1.4535 C   0  0  0  0  0  0  0  0  0  0  0  0
    1.9881   -1.0046   -1.5995 C   0  0  0  0  0  0  0  0  0  0  0  0
    2.7990   -0.4248   -0.6475 C   0  0  0  0  0  0  0  0  0  0  0  0
    2.2614    0.2827    0.4117 C   0  0  0  0  0  0  0  0  0  0  0  0
    4.2580   -0.5138   -0.6910 C   0  0  0  0  0  0  0  0  0  0  0  0
    4.9462    0.6623   -0.4354 C   0  0  0  0  0  0  0  0  0  0  0  0
    6.3135    0.6902   -0.4485 C   0  0  0  0  0  0  0  0  0  0  0  0
    6.9920   -0.4811   -0.7224 C   0  0  0  0  0  0  0  0  0  0  0  0
    6.3397   -1.6796   -0.9833 C   0  0  0  0  0  0  0  0  0  0  0  0
    4.9409   -1.6745   -0.9622 C   0  0  0  0  0  0  0  0  0  0  0  0
    4.2244   -2.9274   -1.2292 C   0  0  0  0  0  0  0  0  0  0  0  0
    7.0410    1.9247   -0.1779 C   0  0  0  0  0  0  0  0  0  0  0  0
    6.3834    2.9751    0.0725 O   0  0  0  0  0  0  0  0  0  0  0  0
    8.4279    1.9557   -0.1925 O   0  0  0  0  0  0  0  0  0  0  0  0
   -3.3243   -1.0272    0.4358 O   0  0  0  0  0  0  0  0  0  0  0  0
   -8.2390    0.7412   -2.4879 H   0  0  0  0  0  0  0  0  0  0  0  0
   -7.4370    2.4808   -0.9215 H   0  0  0  0  0  0  0  0  0  0  0  0
   -5.7053    2.0160    0.6671 H   0  0  0  0  0  0  0  0  0  0  0  0
   -5.4042   -2.0057   -0.7250 H   0  0  0  0  0  0  0  0  0  0  0  0
   -4.7725   -1.1005    1.8327 H   0  0  0  0  0  0  0  0  0  0  0  0
   -4.7844    1.3479    2.3357 H   0  0  0  0  0  0  0  0  0  0  0  0
   -3.4595    1.5725    1.1730 H   0  0  0  0  0  0  0  0  0  0  0  0
   -3.3633    0.2223    3.8119 H   0  0  0  0  0  0  0  0  0  0  0  0
   -1.5456   -0.7034    1.8966 H   0  0  0  0  0  0  0  0  0  0  0  0
   -1.1339   -0.0953    3.4987 H   0  0  0  0  0  0  0  0  0  0  0  0
   -1.0436    2.1918    2.8030 H   0  0  0  0  0  0  0  0  0  0  0  0
   -1.4626    1.8203    1.1109 H   0  0  0  0  0  0  0  0  0  0  0  0
    1.1198    1.5999    2.3133 H   0  0  0  0  0  0  0  0  0  0  0  0
   -0.9523   -0.0470   -0.3269 H   0  0  0  0  0  0  0  0  0  0  0  0
   -0.0415   -1.3035   -2.1964 H   0  0  0  0  0  0  0  0  0  0  0  0
    2.3958   -1.5473   -2.4202 H   0  0  0  0  0  0  0  0  0  0  0  0
    2.9298    0.7264    1.1437 H   0  0  0  0  0  0  0  0  0  0  0  0
    4.4110    1.5823   -0.2207 H   0  0  0  0  0  0  0  0  0  0  0  0
    8.0678   -0.4686   -0.7354 H   0  0  0  0  0  0  0  0  0  0  0  0
    6.8567   -2.5858   -1.1949 H   0  0  0  0  0  0  0  0  0  0  0  0
    3.2483   -3.0324   -0.7554 H   0  0  0  0  0  0  0  0  0  0  0  0
    4.8692   -3.7514   -0.8173 H   0  0  0  0  0  0  0  0  0  0  0  0
    4.1907   -3.1210   -2.3291 H   0  0  0  0  0  0  0  0  0  0  0  0
    8.9088    2.8045   -0.4641 H   0  0  0  0  0  0  0  0  0  0  0  0
   -3.2859   -0.6769   -0.5004 H   0  0  0  0  0  0  0  0  0  0  0  0
  1  2  1  0
  2  3  2  0
  3  4  1  0
  4  5  2  0
  5  6  1  0
  6  7  2  0
  6  8  1  0
  8  9  1  0
  9 10  1  0
 10 11  1  0
 11 12  1  0
 12 13  1  0
 13 14  1  0
 14 15  2  0
 15 16  1  0
 16 17  2  0
 17 18  1  0
 18 19  2  0
 18 20  1  0
 20 21  2  0
 21 22  1  0
 22 23  2  0
 23 24  1  0
 24 25  2  0
 25 26  1  0
 22 27  1  0
 27 28  2  0
 27 29  1  0
  8 30  1  0
  7  2  1  0
 19 14  1  0
 25 20  1  0
  3 31  1  0
  4 32  1  0
  5 33  1  0
  7 34  1  0
  8 35  1  1
  9 36  1  0
  9 37  1  0
 10 38  1  0
 11 39  1  0
 11 40  1  0
 12 41  1  0
 12 42  1  0
 13 43  1  0
 15 44  1  0
 16 45  1  0
 17 46  1  0
 19 47  1  0
 21 48  1  0
 23 49  1  0
 24 50  1  0
 26 51  1  0
 26 52  1  0
 26 53  1  0
 29 54  1  0
 30 55  1  0
M  END
>  <Ligand ID>  (1) 
LIG0003609

>  <Ligand>  (1) 
CHEMBL204827

>  <SMILES>  (1) 
Clc1cccc(c1)[C@H](CNCCNc1cccc(c1)c1cc(ccc1C)C(=O)O)O

>  <CID>  (1) 
9823696.0

>  <ChEMBL ID>  (1) 
nan

>  <InChiKey>  (1) 
OIDUKCQXSLVEJM-QHCPKHFHSA-N

>  <InChi>  (1) 
InChI=1S/C24H25ClN2O3/c1-16-8-9-19(24(29)30)14-22(16)17-4-3-7-21(13-17)27-11-10-26-15-23(28)18-5-2-6-20(25)12-18/h2-9,12-14,23,26-28H,10-11,15H2,1H3,(H,29,30)/t23-/m0/s1

>  <IUPAC Name>  (1) 
3-[3-[2-[[(2R)-2-(3-chlorophenyl)-2-hydroxyethyl]amino]ethylamino]phenyl]-4-methylbenzoic acid

$$$$
