
     RDKit          3D

 55 58  0  0  0  0  0  0  0  0999 V2000
    7.4451    2.8056    1.0874 N   0  0  0  0  0  0  0  0  0  0  0  0
    7.2205    1.6735    0.9987 C   0  0  0  0  0  0  0  0  0  0  0  0
    6.9538    0.2770    0.9056 C   0  0  0  0  0  0  0  0  0  0  0  0
    7.2335   -0.5121    2.0208 C   0  0  0  0  0  0  0  0  0  0  0  0
    7.0081   -1.8505    2.0124 N   0  0  0  0  0  0  0  0  0  0  0  0
    6.5072   -2.4550    0.9251 C   0  0  0  0  0  0  0  0  0  0  0  0
    6.2283   -1.6704   -0.1856 C   0  0  0  0  0  0  0  0  0  0  0  0
    6.4364   -0.3246   -0.2273 C   0  0  0  0  0  0  0  0  0  0  0  0
    6.1720    0.5541   -1.3893 C   0  0  0  0  0  0  0  0  0  0  0  0
    5.0731    1.3721   -1.2940 O   0  0  0  0  0  0  0  0  0  0  0  0
    3.7480    1.1481   -1.1571 C   0  0  0  0  0  0  0  0  0  0  0  0
    2.9148    2.2762   -1.0828 C   0  0  0  0  0  0  0  0  0  0  0  0
    1.5901    2.1390   -0.9477 N   0  0  0  0  0  0  0  0  0  0  0  0
    0.9925    0.9381   -0.8767 C   0  0  0  0  0  0  0  0  0  0  0  0
    1.7785   -0.1422   -0.9467 N   0  0  0  0  0  0  0  0  0  0  0  0
    3.1097   -0.0625   -1.0821 C   0  0  0  0  0  0  0  0  0  0  0  0
   -0.4254    0.8228   -0.7323 N   0  0  0  0  0  0  0  0  0  0  0  0
   -0.9733   -0.5116   -0.6771 C   0  0  0  0  0  0  0  0  0  0  0  0
   -2.0817   -0.4691    0.3724 C   0  0  0  0  0  0  0  0  0  0  0  0
   -3.0764    0.5359   -0.0335 N   0  0  0  0  0  0  0  0  0  0  0  0
   -2.6350    1.8767   -0.3427 C   0  0  0  0  0  0  0  0  0  0  0  0
   -1.1952    2.0337   -0.6532 C   0  0  1  0  0  0  0  0  0  0  0  0
   -0.5617    3.0514    0.2731 C   0  0  0  0  0  0  0  0  0  0  0  0
   -4.4591    0.2039   -0.1259 C   0  0  0  0  0  0  0  0  0  0  0  0
   -5.3449    1.0322   -0.4691 O   0  0  0  0  0  0  0  0  0  0  0  0
   -4.8476   -1.0856    0.1743 O   0  0  0  0  0  0  0  0  0  0  0  0
   -6.1333   -1.6117    0.1474 C   0  0  0  0  0  0  0  0  0  0  0  0
   -6.8627   -1.5814   -1.1654 C   0  0  0  0  0  0  0  0  0  0  0  0
   -6.0808   -3.0579    0.6582 C   0  0  0  0  0  0  0  0  0  0  0  0
   -7.3142   -2.8423    1.2335 O   0  0  0  0  0  0  0  0  0  0  0  0
   -6.9988   -1.4688    1.3554 C   0  0  0  0  0  0  0  0  0  0  0  0
    7.6407   -0.0915    2.9369 H   0  0  0  0  0  0  0  0  0  0  0  0
    6.3246   -3.5161    0.9082 H   0  0  0  0  0  0  0  0  0  0  0  0
    5.8190   -2.1512   -1.0787 H   0  0  0  0  0  0  0  0  0  0  0  0
    6.0184   -0.1467   -2.2549 H   0  0  0  0  0  0  0  0  0  0  0  0
    7.0826    1.1507   -1.6313 H   0  0  0  0  0  0  0  0  0  0  0  0
    3.3125    3.2802   -1.1319 H   0  0  0  0  0  0  0  0  0  0  0  0
    3.6619   -0.9680   -1.1365 H   0  0  0  0  0  0  0  0  0  0  0  0
   -0.2342   -1.2507   -0.3731 H   0  0  0  0  0  0  0  0  0  0  0  0
   -1.4881   -0.7201   -1.6304 H   0  0  0  0  0  0  0  0  0  0  0  0
   -2.5301   -1.4838    0.3823 H   0  0  0  0  0  0  0  0  0  0  0  0
   -1.7061   -0.2672    1.3875 H   0  0  0  0  0  0  0  0  0  0  0  0
   -2.8953    2.5022    0.5488 H   0  0  0  0  0  0  0  0  0  0  0  0
   -3.3132    2.2420   -1.1460 H   0  0  0  0  0  0  0  0  0  0  0  0
   -1.1428    2.4787   -1.6937 H   0  0  0  0  0  0  0  0  0  0  0  0
    0.1410    2.5684    0.9898 H   0  0  0  0  0  0  0  0  0  0  0  0
    0.0061    3.7872   -0.3064 H   0  0  0  0  0  0  0  0  0  0  0  0
   -1.3740    3.5696    0.8226 H   0  0  0  0  0  0  0  0  0  0  0  0
   -7.5892   -2.4189   -1.2092 H   0  0  0  0  0  0  0  0  0  0  0  0
   -7.3414   -0.6354   -1.4171 H   0  0  0  0  0  0  0  0  0  0  0  0
   -6.0965   -1.8467   -1.9481 H   0  0  0  0  0  0  0  0  0  0  0  0
   -5.2811   -3.1719    1.4419 H   0  0  0  0  0  0  0  0  0  0  0  0
   -6.0322   -3.8178   -0.1545 H   0  0  0  0  0  0  0  0  0  0  0  0
   -6.4618   -1.2957    2.2884 H   0  0  0  0  0  0  0  0  0  0  0  0
   -7.9424   -0.8916    1.2048 H   0  0  0  0  0  0  0  0  0  0  0  0
  1  2  3  0
  2  3  1  0
  3  4  2  0
  4  5  1  0
  5  6  2  0
  6  7  1  0
  7  8  2  0
  8  9  1  0
  9 10  1  0
 10 11  1  0
 11 12  2  0
 12 13  1  0
 13 14  2  0
 14 15  1  0
 15 16  2  0
 14 17  1  0
 17 18  1  0
 18 19  1  0
 19 20  1  0
 20 21  1  0
 21 22  1  0
 22 23  1  0
 20 24  1  0
 24 25  2  0
 24 26  1  0
 26 27  1  0
 27 28  1  0
 27 29  1  0
 29 30  1  0
 30 31  1  0
  8  3  1  0
 16 11  1  0
 22 17  1  0
 31 27  1  0
  4 32  1  0
  6 33  1  0
  7 34  1  0
  9 35  1  0
  9 36  1  0
 12 37  1  0
 16 38  1  0
 18 39  1  0
 18 40  1  0
 19 41  1  0
 19 42  1  0
 21 43  1  0
 21 44  1  0
 22 45  1  6
 23 46  1  0
 23 47  1  0
 23 48  1  0
 28 49  1  0
 28 50  1  0
 28 51  1  0
 29 52  1  0
 29 53  1  0
 31 54  1  0
 31 55  1  0
M  END
>  <Ligand ID>  (1) 
LIG0005295

>  <Ligand>  (1) 
CHEMBL3220240

>  <SMILES>  (1) 
N#Cc1cnccc1COc1cnc(nc1)N1CCN(C[C@H]1C)C(=O)OC1(C)COC1

>  <CID>  (1) 
90666913.0

>  <ChEMBL ID>  (1) 
nan

>  <InChiKey>  (1) 
HTHOBZGXJWTDBR-OAHLLOKOSA-N

>  <InChi>  (1) 
InChI=1S/C21H24N6O4/c1-15-11-26(20(28)31-21(2)13-29-14-21)5-6-27(15)19-24-9-18(10-25-19)30-12-16-3-4-23-8-17(16)7-22/h3-4,8-10,15H,5-6,11-14H2,1-2H3/t15-/m1/s1

>  <IUPAC Name>  (1) 
(3-methyloxetan-3-yl) (3R)-4-[5-[(3-cyanopyridin-4-yl)methoxy]pyrimidin-2-yl]-3-methylpiperazine-1-carboxylate

$$$$
