
     RDKit          3D

 42 43  0  0  0  0  0  0  0  0999 V2000
   -7.6425    1.9281   -0.3054 O   0  0  0  0  0  0  0  0  0  0  0  0
   -7.1243    0.6475   -0.0353 C   0  0  0  0  0  0  0  0  0  0  0  0
   -7.8679   -0.2624    0.4541 O   0  0  0  0  0  0  0  0  0  0  0  0
   -5.6885    0.3171   -0.3112 C   0  0  0  0  0  0  0  0  0  0  0  0
   -5.0611   -0.2261    0.9556 C   0  0  0  0  0  0  0  0  0  0  0  0
   -3.5860   -0.5864    0.7236 C   0  0  0  0  0  0  0  0  0  0  0  0
   -2.8727    0.5637    0.3019 O   0  0  0  0  0  0  0  0  0  0  0  0
   -1.4965    0.4138    0.0605 C   0  0  0  0  0  0  0  0  0  0  0  0
   -0.7278    1.4881   -0.3652 C   0  0  0  0  0  0  0  0  0  0  0  0
    0.6351    1.3536   -0.6045 C   0  0  0  0  0  0  0  0  0  0  0  0
    1.2617    0.1404   -0.4228 C   0  0  0  0  0  0  0  0  0  0  0  0
    0.5052   -0.9530    0.0053 C   0  0  0  0  0  0  0  0  0  0  0  0
   -0.8487   -0.7916    0.2353 C   0  0  0  0  0  0  0  0  0  0  0  0
    1.1494   -2.2812    0.2163 C   0  0  0  0  0  0  0  0  0  0  0  0
    2.6830   -0.0696   -0.6369 C   0  0  0  0  0  0  0  0  0  0  0  0
    3.6110    0.1707    0.3573 C   0  0  0  0  0  0  0  0  0  0  0  0
    4.9596   -0.0384    0.1224 C   0  0  0  0  0  0  0  0  0  0  0  0
    5.3491   -0.4889   -1.1204 C   0  0  0  0  0  0  0  0  0  0  0  0
    4.4517   -0.7427   -2.1494 C   0  0  0  0  0  0  0  0  0  0  0  0
    3.0991   -0.5202   -1.8726 C   0  0  0  0  0  0  0  0  0  0  0  0
    1.9632   -0.8402   -3.1761 Cl  0  0  0  0  0  0  0  0  0  0  0  0
    5.9433    0.1816    1.0758 O   0  0  0  0  0  0  0  0  0  0  0  0
    6.6185    1.4049    1.2637 C   0  0  0  0  0  0  0  0  0  0  0  0
    7.2729    1.7096    0.0726 F   0  0  0  0  0  0  0  0  0  0  0  0
    7.6076    1.2296    2.2155 F   0  0  0  0  0  0  0  0  0  0  0  0
    5.7643    2.4346    1.5280 F   0  0  0  0  0  0  0  0  0  0  0  0
   -8.6294    2.1488   -0.1961 H   0  0  0  0  0  0  0  0  0  0  0  0
   -5.1621    1.2342   -0.5853 H   0  0  0  0  0  0  0  0  0  0  0  0
   -5.6157   -0.4392   -1.1241 H   0  0  0  0  0  0  0  0  0  0  0  0
   -5.1384    0.5526    1.7662 H   0  0  0  0  0  0  0  0  0  0  0  0
   -5.6230   -1.1226    1.2731 H   0  0  0  0  0  0  0  0  0  0  0  0
   -3.1974   -1.0431    1.6496 H   0  0  0  0  0  0  0  0  0  0  0  0
   -3.6051   -1.3961   -0.0586 H   0  0  0  0  0  0  0  0  0  0  0  0
   -1.2340    2.4259   -0.5053 H   0  0  0  0  0  0  0  0  0  0  0  0
    1.2204    2.2031   -0.9434 H   0  0  0  0  0  0  0  0  0  0  0  0
   -1.4355   -1.6471    0.5689 H   0  0  0  0  0  0  0  0  0  0  0  0
    1.7469   -2.2951    1.1723 H   0  0  0  0  0  0  0  0  0  0  0  0
    1.8597   -2.5413   -0.5961 H   0  0  0  0  0  0  0  0  0  0  0  0
    0.3600   -3.0394    0.2292 H   0  0  0  0  0  0  0  0  0  0  0  0
    3.2882    0.5256    1.3349 H   0  0  0  0  0  0  0  0  0  0  0  0
    6.4279   -0.6503   -1.2959 H   0  0  0  0  0  0  0  0  0  0  0  0
    4.7787   -1.0989   -3.1326 H   0  0  0  0  0  0  0  0  0  0  0  0
  1  2  1  0
  2  3  2  0
  2  4  1  0
  4  5  1  0
  5  6  1  0
  6  7  1  0
  7  8  1  0
  8  9  2  0
  9 10  1  0
 10 11  2  0
 11 12  1  0
 12 13  2  0
 12 14  1  0
 11 15  1  0
 15 16  2  0
 16 17  1  0
 17 18  2  0
 18 19  1  0
 19 20  2  0
 20 21  1  0
 17 22  1  0
 22 23  1  0
 23 24  1  0
 23 25  1  0
 23 26  1  0
 13  8  1  0
 20 15  1  0
  1 27  1  0
  4 28  1  0
  4 29  1  0
  5 30  1  0
  5 31  1  0
  6 32  1  0
  6 33  1  0
  9 34  1  0
 10 35  1  0
 13 36  1  0
 14 37  1  0
 14 38  1  0
 14 39  1  0
 16 40  1  0
 18 41  1  0
 19 42  1  0
M  END
>  <Ligand ID>  (1) 
LIG0003629

>  <Ligand>  (1) 
CHEMBL3961009

>  <SMILES>  (1) 
OC(=O)CCCOc1ccc(c(c1)C)c1cc(ccc1Cl)OC(F)(F)F

>  <CID>  (1) 
134155277.0

>  <ChEMBL ID>  (1) 
nan

>  <InChiKey>  (1) 
IXCGAOKQTBZAKH-UHFFFAOYSA-N

>  <InChi>  (1) 
InChI=1S/C18H16ClF3O4/c1-11-9-12(25-8-2-3-17(23)24)4-6-14(11)15-10-13(5-7-16(15)19)26-18(20,21)22/h4-7,9-10H,2-3,8H2,1H3,(H,23,24)

>  <IUPAC Name>  (1) 
4-[4-[2-chloro-5-(trifluoromethoxy)phenyl]-3-methylphenoxy]butanoic acid

$$$$
