
     RDKit          3D

114117  0  0  0  0  0  0  0  0999 V2000
   11.3231   -0.3734   -2.3862 C   0  0  0  0  0  0  0  0  0  0  0  0
   11.0632   -0.0202   -0.9421 C   0  0  0  0  0  0  0  0  0  0  0  0
    9.8965    0.9957   -0.8911 C   0  0  0  0  0  0  0  0  0  0  0  0
    9.6042    1.3726    0.5114 C   0  0  0  0  0  0  0  0  0  0  0  0
    8.5801    2.3731    0.8350 C   0  0  0  0  0  0  0  0  0  0  0  0
    7.1639    2.2194    0.5104 C   0  0  0  0  0  0  0  0  0  0  0  0
    6.6905    2.1203   -0.8904 C   0  0  0  0  0  0  0  0  0  0  0  0
    5.1362    2.0279   -0.9273 C   0  0  0  0  0  0  0  0  0  0  0  0
    4.6709    0.8102   -0.2571 C   0  0  0  0  0  0  0  0  0  0  0  0
    5.4064   -0.1576    0.0895 O   0  0  0  0  0  0  0  0  0  0  0  0
    3.2890    0.6828    0.0400 N   0  0  0  0  0  0  0  0  0  0  0  0
    2.6900   -0.4478    0.6826 C   0  0  2  0  0  0  0  0  0  0  0  0
    1.5207   -0.8972   -0.0886 C   0  0  0  0  0  0  0  0  0  0  0  0
    1.2457   -0.2167   -1.1349 O   0  0  0  0  0  0  0  0  0  0  0  0
    0.7685   -2.0129    0.3321 N   0  0  0  0  0  0  0  0  0  0  0  0
   -0.3958   -2.5374   -0.3400 C   0  0  1  0  0  0  0  0  0  0  0  0
   -1.6083   -1.9164    0.1977 C   0  0  0  0  0  0  0  0  0  0  0  0
   -1.4102   -1.1083    1.1860 O   0  0  0  0  0  0  0  0  0  0  0  0
   -2.9261   -2.1051   -0.2396 N   0  0  0  0  0  0  0  0  0  0  0  0
   -4.0680   -1.4017    0.4024 C   0  0  2  0  0  0  0  0  0  0  0  0
   -3.8540    0.0394    0.3372 C   0  0  0  0  0  0  0  0  0  0  0  0
   -2.7810    0.4423   -0.2438 O   0  0  0  0  0  0  0  0  0  0  0  0
   -4.6795    1.0635    0.8341 N   0  0  0  0  0  0  0  0  0  0  0  0
   -4.2810    2.4262    0.6731 C   0  0  2  0  0  0  0  0  0  0  0  0
   -3.7945    2.8848    2.0371 C   0  0  0  0  0  0  0  0  0  0  0  0
   -3.3794    4.0659    2.1871 O   0  0  0  0  0  0  0  0  0  0  0  0
   -3.7914    2.0198    3.1572 N   0  0  0  0  0  0  0  0  0  0  0  0
   -5.4209    3.3224    0.2804 C   0  0  0  0  0  0  0  0  0  0  0  0
   -6.0844    2.9855   -0.9803 C   0  0  0  0  0  0  0  0  0  0  0  0
   -5.8050    2.0556   -1.9535 C   0  0  0  0  0  0  0  0  0  0  0  0
   -6.7299    2.1327   -2.9542 N   0  0  0  0  0  0  0  0  0  0  0  0
   -7.6011    3.1076   -2.6266 C   0  0  0  0  0  0  0  0  0  0  0  0
   -7.2377    3.6578   -1.4169 C   0  0  0  0  0  0  0  0  0  0  0  0
   -7.9630    4.6965   -0.8244 C   0  0  0  0  0  0  0  0  0  0  0  0
   -9.0944    5.2091   -1.4602 C   0  0  0  0  0  0  0  0  0  0  0  0
   -9.4689    4.6635   -2.6773 C   0  0  0  0  0  0  0  0  0  0  0  0
   -8.7329    3.6425   -3.2307 C   0  0  0  0  0  0  0  0  0  0  0  0
   -4.2305   -1.9524    1.7566 C   0  0  0  0  0  0  0  0  0  0  0  0
   -5.3085   -1.4526    2.6410 C   0  0  0  0  0  0  0  0  0  0  0  0
   -6.7054   -1.6078    2.1374 C   0  0  0  0  0  0  0  0  0  0  0  0
   -6.9770   -3.0329    1.9300 N   0  0  0  0  0  0  0  0  0  0  0  0
   -7.6338   -3.4138    0.8564 C   0  0  0  0  0  0  0  0  0  0  0  0
   -8.0688   -2.4391   -0.0855 N   0  0  0  0  0  0  0  0  0  0  0  0
   -7.8713   -4.8059    0.7024 N   0  0  0  0  0  0  0  0  0  0  0  0
   -0.3073   -2.6143   -1.8398 C   0  0  0  0  0  0  0  0  0  0  0  0
    0.7799   -3.5134   -2.2695 C   0  0  0  0  0  0  0  0  0  0  0  0
    0.4629   -4.8678   -2.3790 C   0  0  0  0  0  0  0  0  0  0  0  0
    1.3644   -5.8207   -2.7773 C   0  0  0  0  0  0  0  0  0  0  0  0
    2.6489   -5.4437   -3.0895 C   0  0  0  0  0  0  0  0  0  0  0  0
    3.0116   -4.1048   -2.9956 C   0  0  0  0  0  0  0  0  0  0  0  0
    2.0608   -3.1606   -2.5840 C   0  0  0  0  0  0  0  0  0  0  0  0
    2.3252   -0.1608    2.1310 C   0  0  0  0  0  0  0  0  0  0  0  0
    3.4990    0.2140    2.9468 C   0  0  0  0  0  0  0  0  0  0  0  0
    3.9160    1.4905    3.1018 N   0  0  0  0  0  0  0  0  0  0  0  0
    4.9954    1.4796    3.8951 C   0  0  0  0  0  0  0  0  0  0  0  0
    5.2904    0.2297    4.2599 N   0  0  0  0  0  0  0  0  0  0  0  0
    4.3697   -0.5656    3.6780 C   0  0  0  0  0  0  0  0  0  0  0  0
   10.4768   -0.9923   -2.7385 H   0  0  0  0  0  0  0  0  0  0  0  0
   11.4609    0.5473   -3.0169 H   0  0  0  0  0  0  0  0  0  0  0  0
   12.2803   -0.9775   -2.3962 H   0  0  0  0  0  0  0  0  0  0  0  0
   11.9955    0.4237   -0.5356 H   0  0  0  0  0  0  0  0  0  0  0  0
   10.7507   -0.9265   -0.4111 H   0  0  0  0  0  0  0  0  0  0  0  0
    9.0635    0.4522   -1.3570 H   0  0  0  0  0  0  0  0  0  0  0  0
   10.1994    1.8347   -1.5357 H   0  0  0  0  0  0  0  0  0  0  0  0
    9.3982    0.4401    1.1298 H   0  0  0  0  0  0  0  0  0  0  0  0
   10.6227    1.6815    0.9519 H   0  0  0  0  0  0  0  0  0  0  0  0
    8.9324    3.3920    0.4534 H   0  0  0  0  0  0  0  0  0  0  0  0
    8.6193    2.5185    1.9857 H   0  0  0  0  0  0  0  0  0  0  0  0
    6.5507    3.0542    1.0247 H   0  0  0  0  0  0  0  0  0  0  0  0
    6.7864    1.3179    1.1004 H   0  0  0  0  0  0  0  0  0  0  0  0
    7.0579    1.2002   -1.3792 H   0  0  0  0  0  0  0  0  0  0  0  0
    7.0277    2.9748   -1.4850 H   0  0  0  0  0  0  0  0  0  0  0  0
    4.9305    1.9721   -2.0381 H   0  0  0  0  0  0  0  0  0  0  0  0
    4.7395    2.9579   -0.4904 H   0  0  0  0  0  0  0  0  0  0  0  0
    2.6348    1.4794   -0.2277 H   0  0  0  0  0  0  0  0  0  0  0  0
    3.4305   -1.2635    0.7304 H   0  0  0  0  0  0  0  0  0  0  0  0
    1.1164   -2.4826    1.2282 H   0  0  0  0  0  0  0  0  0  0  0  0
   -0.3791   -3.6611   -0.0565 H   0  0  0  0  0  0  0  0  0  0  0  0
   -3.0845   -2.7627   -1.0370 H   0  0  0  0  0  0  0  0  0  0  0  0
   -4.9595   -1.6233   -0.2180 H   0  0  0  0  0  0  0  0  0  0  0  0
   -5.5709    0.8519    1.2959 H   0  0  0  0  0  0  0  0  0  0  0  0
   -3.4356    2.5412   -0.0519 H   0  0  0  0  0  0  0  0  0  0  0  0
   -3.3418    1.0862    3.0853 H   0  0  0  0  0  0  0  0  0  0  0  0
   -4.2600    2.3829    4.0305 H   0  0  0  0  0  0  0  0  0  0  0  0
   -6.1899    3.3946    1.0817 H   0  0  0  0  0  0  0  0  0  0  0  0
   -5.0327    4.3799    0.1589 H   0  0  0  0  0  0  0  0  0  0  0  0
   -4.9826    1.3664   -1.9431 H   0  0  0  0  0  0  0  0  0  0  0  0
   -6.7721    1.5432   -3.8316 H   0  0  0  0  0  0  0  0  0  0  0  0
   -7.6799    5.1318    0.1241 H   0  0  0  0  0  0  0  0  0  0  0  0
   -9.6384    6.0079   -0.9887 H   0  0  0  0  0  0  0  0  0  0  0  0
  -10.3326    5.0571   -3.1586 H   0  0  0  0  0  0  0  0  0  0  0  0
   -9.0145    3.1946   -4.1962 H   0  0  0  0  0  0  0  0  0  0  0  0
   -3.2653   -1.8221    2.3465 H   0  0  0  0  0  0  0  0  0  0  0  0
   -4.2981   -3.0786    1.6874 H   0  0  0  0  0  0  0  0  0  0  0  0
   -5.2736   -2.1705    3.5527 H   0  0  0  0  0  0  0  0  0  0  0  0
   -5.1570   -0.4746    3.1095 H   0  0  0  0  0  0  0  0  0  0  0  0
   -6.9354   -1.0931    1.2043 H   0  0  0  0  0  0  0  0  0  0  0  0
   -7.4209   -1.3198    2.9638 H   0  0  0  0  0  0  0  0  0  0  0  0
   -7.3618   -2.0542   -0.7572 H   0  0  0  0  0  0  0  0  0  0  0  0
   -9.0460   -2.0901   -0.1419 H   0  0  0  0  0  0  0  0  0  0  0  0
   -7.2542   -5.3227    0.0437 H   0  0  0  0  0  0  0  0  0  0  0  0
   -8.6126   -5.3361    1.1966 H   0  0  0  0  0  0  0  0  0  0  0  0
   -1.2678   -2.9552   -2.2912 H   0  0  0  0  0  0  0  0  0  0  0  0
   -0.1054   -1.6369   -2.3212 H   0  0  0  0  0  0  0  0  0  0  0  0
   -0.5383   -5.2120   -2.1414 H   0  0  0  0  0  0  0  0  0  0  0  0
    1.1304   -6.8787   -2.8662 H   0  0  0  0  0  0  0  0  0  0  0  0
    3.4161   -6.1565   -3.4144 H   0  0  0  0  0  0  0  0  0  0  0  0
    4.0280   -3.7667   -3.2345 H   0  0  0  0  0  0  0  0  0  0  0  0
    2.3863   -2.1594   -2.5363 H   0  0  0  0  0  0  0  0  0  0  0  0
    1.7522   -1.0134    2.5710 H   0  0  0  0  0  0  0  0  0  0  0  0
    1.6143    0.6907    2.1489 H   0  0  0  0  0  0  0  0  0  0  0  0
    3.4530    2.3350    2.6640 H   0  0  0  0  0  0  0  0  0  0  0  0
    5.5190    2.3869    4.1720 H   0  0  0  0  0  0  0  0  0  0  0  0
    4.2742   -1.6464    3.7361 H   0  0  0  0  0  0  0  0  0  0  0  0
  1  2  1  0
  2  3  1  0
  3  4  1  0
  4  5  1  0
  5  6  1  0
  6  7  1  0
  7  8  1  0
  8  9  1  0
  9 10  2  0
  9 11  1  0
 11 12  1  0
 12 13  1  0
 13 14  2  0
 13 15  1  0
 15 16  1  0
 16 17  1  0
 17 18  2  0
 17 19  1  0
 19 20  1  0
 20 21  1  0
 21 22  2  0
 21 23  1  0
 23 24  1  0
 24 25  1  0
 25 26  2  0
 25 27  1  0
 24 28  1  0
 28 29  1  0
 29 30  2  0
 30 31  1  0
 31 32  1  0
 32 33  2  0
 33 34  1  0
 34 35  2  0
 35 36  1  0
 36 37  2  0
 20 38  1  0
 38 39  1  0
 39 40  1  0
 40 41  1  0
 41 42  2  3
 42 43  1  0
 42 44  1  0
 16 45  1  0
 45 46  1  0
 46 47  2  0
 47 48  1  0
 48 49  2  0
 49 50  1  0
 50 51  2  0
 12 52  1  0
 52 53  1  0
 53 54  1  0
 54 55  1  0
 55 56  2  0
 56 57  1  0
 33 29  1  0
 51 46  1  0
 57 53  2  0
 37 32  1  0
  1 58  1  0
  1 59  1  0
  1 60  1  0
  2 61  1  0
  2 62  1  0
  3 63  1  0
  3 64  1  0
  4 65  1  0
  4 66  1  0
  5 67  1  0
  5 68  1  0
  6 69  1  0
  6 70  1  0
  7 71  1  0
  7 72  1  0
  8 73  1  0
  8 74  1  0
 11 75  1  0
 12 76  1  1
 15 77  1  0
 16 78  1  1
 19 79  1  0
 20 80  1  6
 23 81  1  0
 24 82  1  6
 27 83  1  0
 27 84  1  0
 28 85  1  0
 28 86  1  0
 30 87  1  0
 31 88  1  0
 34 89  1  0
 35 90  1  0
 36 91  1  0
 37 92  1  0
 38 93  1  0
 38 94  1  0
 39 95  1  0
 39 96  1  0
 40 97  1  0
 40 98  1  0
 43 99  1  0
 43100  1  0
 44101  1  0
 44102  1  0
 45103  1  0
 45104  1  0
 47105  1  0
 48106  1  0
 49107  1  0
 50108  1  0
 51109  1  0
 52110  1  0
 52111  1  0
 54112  1  0
 55113  1  0
 57114  1  0
M  END
>  <Ligand ID>  (1) 
LIG0001880

>  <Ligand>  (1) 
CHEMBL195439

>  <SMILES>  (1) 
CCCCCCCCC(=O)N[C@H](C(=O)N[C@@H](C(=O)N[C@H](C(=O)N[C@H](C(=O)N)Cc1c[nH]c2c1cccc2)CCCN=C(N)N)Cc1ccccc1)Cc1[nH]cnc1

>  <CID>  (1) 
11158573.0

>  <ChEMBL ID>  (1) 
nan

>  <InChiKey>  (1) 
UHJKAYUBNMRGHO-KMSCUOMXSA-N

>  <InChi>  (1) 
InChI=1S/C41H57N11O5/c1-2-3-4-5-6-10-19-36(53)49-35(23-29-25-45-26-48-29)40(57)52-34(21-27-14-8-7-9-15-27)39(56)50-32(18-13-20-46-41(43)44)38(55)51-33(37(42)54)22-28-24-47-31-17-12-11-16-30(28)31/h7-9,11-12,14-17,24-26,32-35,47H,2-6,10,13,18-23H2,1H3,(H2,42,54)(H,45,48)(H,49,53)(H,50,56)(H,51,55)(H,52,57)(H4,43,44,46)/t32-,33-,34+,35-/m0/s1

>  <IUPAC Name>  (1) 
N-[(2S)-1-[[(2R)-1-[[(2S)-1-[[(2S)-1-amino-3-(1H-indol-3-yl)-1-oxopropan-2-yl]amino]-5-(diaminomethylideneamino)-1-oxopentan-2-yl]amino]-1-oxo-3-phenylpropan-2-yl]amino]-3-(1H-imidazol-5-yl)-1-oxopropan-2-yl]nonanamide

$$$$
