
     RDKit          3D

 58 60  0  0  0  0  0  0  0  0999 V2000
    3.6221    0.9061   -2.3494 O   0  0  0  0  0  0  0  0  0  0  0  0
    3.1876   -0.3001   -1.7204 C   0  0  0  0  0  0  0  0  0  0  0  0
    4.3772   -0.9749   -1.1744 C   0  0  0  0  0  0  0  0  0  0  0  0
    5.1272    0.0657   -0.3193 C   0  0  0  0  0  0  0  0  0  0  0  0
    5.4056    1.1911   -1.0592 O   0  0  0  0  0  0  0  0  0  0  0  0
    6.2262    2.2888   -0.0657 P   0  0  0  0  0  0  0  0  0  0  0  0
    7.7076    2.3263   -0.4047 O   0  0  0  0  0  0  0  0  0  0  0  0
    5.5797    3.8049   -0.3480 O   0  0  0  0  0  0  0  0  0  0  0  0
    6.0974    1.8137    1.5493 O   0  0  0  0  0  0  0  0  0  0  0  0
    4.2488   -2.2298   -0.4255 C   0  0  0  0  0  0  0  0  0  0  0  0
    3.4995   -2.3394    0.8200 C   0  0  0  0  0  0  0  0  0  0  0  0
    2.0898   -2.0487    0.9186 C   0  0  0  0  0  0  0  0  0  0  0  0
    1.1745   -3.0213    0.5589 C   0  0  0  0  0  0  0  0  0  0  0  0
   -0.1895   -2.8535    0.6624 C   0  0  0  0  0  0  0  0  0  0  0  0
   -0.7063   -1.6699    1.1444 C   0  0  0  0  0  0  0  0  0  0  0  0
    0.1740   -0.6762    1.5133 C   0  0  0  0  0  0  0  0  0  0  0  0
    1.5348   -0.8618    1.4029 C   0  0  0  0  0  0  0  0  0  0  0  0
   -2.1556   -1.5260    1.2406 C   0  0  0  0  0  0  0  0  0  0  0  0
   -3.0182   -2.4938    0.8815 N   0  0  0  0  0  0  0  0  0  0  0  0
   -4.2659   -2.0528    1.0898 N   0  0  0  0  0  0  0  0  0  0  0  0
   -4.2013   -0.8116    1.5787 N   0  0  0  0  0  0  0  0  0  0  0  0
   -2.8898   -0.4462    1.6875 C   0  0  0  0  0  0  0  0  0  0  0  0
   -5.3645   -0.0161    1.9249 C   0  0  0  0  0  0  0  0  0  0  0  0
   -5.8138    0.7791    0.7532 C   0  0  0  0  0  0  0  0  0  0  0  0
   -5.3502    2.0506    0.4850 C   0  0  0  0  0  0  0  0  0  0  0  0
   -5.8008    2.7447   -0.6172 C   0  0  0  0  0  0  0  0  0  0  0  0
   -6.7193    2.2020   -1.4814 C   0  0  0  0  0  0  0  0  0  0  0  0
   -7.1805    0.9178   -1.2008 C   0  0  0  0  0  0  0  0  0  0  0  0
   -6.7446    0.2227   -0.1179 C   0  0  0  0  0  0  0  0  0  0  0  0
   -7.1794    2.9764   -2.6530 C   0  0  0  0  0  0  0  0  0  0  0  0
   -7.1199    4.3137   -2.3209 F   0  0  0  0  0  0  0  0  0  0  0  0
   -8.4842    2.6506   -2.9593 F   0  0  0  0  0  0  0  0  0  0  0  0
   -6.4176    2.7061   -3.7711 F   0  0  0  0  0  0  0  0  0  0  0  0
    5.3270   -1.2572   -2.2793 N   0  0  0  0  0  0  0  0  0  0  0  0
    4.2692    0.6913   -3.0680 H   0  0  0  0  0  0  0  0  0  0  0  0
    2.4160    0.0133   -1.0264 H   0  0  0  0  0  0  0  0  0  0  0  0
    2.6744   -0.8439   -2.5397 H   0  0  0  0  0  0  0  0  0  0  0  0
    6.0146   -0.3705    0.1524 H   0  0  0  0  0  0  0  0  0  0  0  0
    4.3954    0.3778    0.4720 H   0  0  0  0  0  0  0  0  0  0  0  0
    6.2828    4.4727   -0.3183 H   0  0  0  0  0  0  0  0  0  0  0  0
    6.1939    2.5677    2.1734 H   0  0  0  0  0  0  0  0  0  0  0  0
    4.0083   -3.0950   -1.1506 H   0  0  0  0  0  0  0  0  0  0  0  0
    5.3275   -2.5341   -0.1638 H   0  0  0  0  0  0  0  0  0  0  0  0
    3.6224   -3.3974    1.2436 H   0  0  0  0  0  0  0  0  0  0  0  0
    4.0578   -1.7418    1.6240 H   0  0  0  0  0  0  0  0  0  0  0  0
    1.5416   -3.9688    0.1744 H   0  0  0  0  0  0  0  0  0  0  0  0
   -0.8333   -3.6675    0.3580 H   0  0  0  0  0  0  0  0  0  0  0  0
   -0.2292    0.2663    1.8969 H   0  0  0  0  0  0  0  0  0  0  0  0
    2.2337   -0.0673    1.6980 H   0  0  0  0  0  0  0  0  0  0  0  0
   -2.5022    0.4869    2.0459 H   0  0  0  0  0  0  0  0  0  0  0  0
   -5.1679    0.7268    2.7242 H   0  0  0  0  0  0  0  0  0  0  0  0
   -6.1613   -0.6819    2.3096 H   0  0  0  0  0  0  0  0  0  0  0  0
   -4.6260    2.4814    1.1643 H   0  0  0  0  0  0  0  0  0  0  0  0
   -5.4441    3.7400   -0.8356 H   0  0  0  0  0  0  0  0  0  0  0  0
   -7.8970    0.5148   -1.8892 H   0  0  0  0  0  0  0  0  0  0  0  0
   -7.1102   -0.7790    0.0929 H   0  0  0  0  0  0  0  0  0  0  0  0
    6.2376   -1.5170   -1.8352 H   0  0  0  0  0  0  0  0  0  0  0  0
    4.9185   -2.0556   -2.8161 H   0  0  0  0  0  0  0  0  0  0  0  0
  1  2  1  0
  2  3  1  0
  3  4  1  0
  4  5  1  0
  5  6  1  0
  6  7  2  0
  6  8  1  0
  6  9  1  0
  3 10  1  0
 10 11  1  0
 11 12  1  0
 12 13  2  0
 13 14  1  0
 14 15  2  0
 15 16  1  0
 16 17  2  0
 15 18  1  0
 18 19  1  0
 19 20  2  0
 20 21  1  0
 21 22  1  0
 21 23  1  0
 23 24  1  0
 24 25  2  0
 25 26  1  0
 26 27  2  0
 27 28  1  0
 28 29  2  0
 27 30  1  0
 30 31  1  0
 30 32  1  0
 30 33  1  0
  3 34  1  0
 17 12  1  0
 22 18  2  0
 29 24  1  0
  1 35  1  0
  2 36  1  0
  2 37  1  0
  4 38  1  0
  4 39  1  0
  8 40  1  0
  9 41  1  0
 10 42  1  0
 10 43  1  0
 11 44  1  0
 11 45  1  0
 13 46  1  0
 14 47  1  0
 16 48  1  0
 17 49  1  0
 22 50  1  0
 23 51  1  0
 23 52  1  0
 25 53  1  0
 26 54  1  0
 28 55  1  0
 29 56  1  0
 34 57  1  0
 34 58  1  0
M  END
>  <Ligand ID>  (1) 
LIG0005917

>  <Ligand>  (1) 
CHEMBL3342015

>  <SMILES>  (1) 
OCC(COP(=O)(O)O)(CCc1ccc(cc1)c1nnn(c1)Cc1ccc(cc1)C(F)(F)F)N

>  <CID>  (1) 
118716190.0

>  <ChEMBL ID>  (1) 
nan

>  <InChiKey>  (1) 
CYEXLTVRVPIQSX-UHFFFAOYSA-N

>  <InChi>  (1) 
InChI=1S/C21H24F3N4O5P/c22-21(23,24)18-7-3-16(4-8-18)11-28-12-19(26-27-28)17-5-1-15(2-6-17)9-10-20(25,13-29)14-33-34(30,31)32/h1-8,12,29H,9-11,13-14,25H2,(H2,30,31,32)

>  <IUPAC Name>  (1) 
[2-amino-2-(hydroxymethyl)-4-[4-[1-[[4-(trifluoromethyl)phenyl]methyl]triazol-4-yl]phenyl]butyl] dihydrogen phosphate

$$$$
