
     RDKit          3D

 83 91  0  0  0  0  0  0  0  0999 V2000
   -0.1273    5.3958   -2.3807 O   0  0  0  0  0  0  0  0  0  0  0  0
    0.7523    4.5351   -1.7415 C   0  0  0  0  0  0  0  0  0  0  0  0
    1.9000    4.9751   -1.0956 C   0  0  0  0  0  0  0  0  0  0  0  0
    2.7795    4.1065   -0.4537 C   0  0  0  0  0  0  0  0  0  0  0  0
    2.4866    2.7438   -0.4672 C   0  0  0  0  0  0  0  0  0  0  0  0
    1.3588    2.3709   -1.1130 C   0  0  0  0  0  0  0  0  0  0  0  0
    0.4771    3.1754   -1.7455 C   0  0  0  0  0  0  0  0  0  0  0  0
   -0.5252    2.3547   -2.2501 O   0  0  0  0  0  0  0  0  0  0  0  0
   -0.3978    1.0671   -1.7447 C   0  0  1  0  0  0  0  0  0  0  0  0
    1.0141    0.9380   -1.2092 C   0  0  1  0  0  0  0  0  0  0  0  0
    1.9468    0.2837   -2.1456 C   0  0  0  0  0  0  0  0  0  0  0  0
    3.0212   -0.5171   -1.5179 C   0  0  0  0  0  0  0  0  0  0  0  0
    3.1107   -0.5935   -0.1318 N   0  0  0  0  0  0  0  0  0  0  0  0
    2.5279    0.5052    0.5954 C   0  0  1  0  0  0  0  0  0  0  0  0
    3.2990    1.7231    0.2215 C   0  0  0  0  0  0  0  0  0  0  0  0
    1.0728    0.5245    0.2243 C   0  0  1  0  0  0  0  0  0  0  0  0
    0.3602    1.5520    1.0445 C   0  0  0  0  0  0  0  0  0  0  0  0
   -1.1201    1.3900    0.6622 C   0  0  0  0  0  0  0  0  0  0  0  0
   -1.2834    0.6355   -0.6306 C   0  0  1  0  0  0  0  0  0  0  0  0
   -2.6220    0.7007   -0.9508 O   0  0  0  0  0  0  0  0  0  0  0  0
   -3.5016    0.0846   -0.1419 C   0  0  0  0  0  0  0  0  0  0  0  0
   -3.1705   -1.1189    0.3812 O   0  0  0  0  0  0  0  0  0  0  0  0
   -1.9707   -1.6910    0.1336 C   0  0  1  0  0  0  0  0  0  0  0  0
   -0.8901   -0.8060   -0.3442 C   0  0  2  0  0  0  0  0  0  0  0  0
    0.3723   -0.7849    0.4758 C   0  0  0  0  0  0  0  0  0  0  0  0
   -1.5154   -2.3101    1.4514 C   0  0  0  0  0  0  0  0  0  0  0  0
   -2.2760   -2.8360   -0.8335 C   0  0  0  0  0  0  0  0  0  0  0  0
   -1.0593   -3.6208   -1.2400 C   0  0  0  0  0  0  0  0  0  0  0  0
   -2.8968   -2.3096   -2.1100 C   0  0  0  0  0  0  0  0  0  0  0  0
   -3.2653   -3.8166   -0.2488 C   0  0  0  0  0  0  0  0  0  0  0  0
   -4.0769    0.9025    0.9651 C   0  0  0  0  0  0  0  0  0  0  0  0
   -4.4963    2.2089    0.7881 C   0  0  0  0  0  0  0  0  0  0  0  0
   -5.0295    2.9603    1.8221 C   0  0  0  0  0  0  0  0  0  0  0  0
   -5.1572    2.4083    3.0819 C   0  0  0  0  0  0  0  0  0  0  0  0
   -4.7487    1.1071    3.2917 C   0  0  0  0  0  0  0  0  0  0  0  0
   -4.2293    0.3959    2.2559 C   0  0  0  0  0  0  0  0  0  0  0  0
    3.6685   -1.6527    0.5546 C   0  0  0  0  0  0  0  0  0  0  0  0
    5.1849   -1.7382    0.3555 C   0  0  0  0  0  0  0  0  0  0  0  0
    5.8274   -2.9046    1.1094 C   0  0  0  0  0  0  0  0  0  0  0  0
    6.0812   -1.4880    1.5243 C   0  0  0  0  0  0  0  0  0  0  0  0
   -0.1420    5.5517   -3.3870 H   0  0  0  0  0  0  0  0  0  0  0  0
    2.1215    6.0569   -1.0908 H   0  0  0  0  0  0  0  0  0  0  0  0
    3.6733    4.4429    0.0513 H   0  0  0  0  0  0  0  0  0  0  0  0
   -0.4786    0.2768   -2.5347 H   0  0  0  0  0  0  0  0  0  0  0  0
    2.4388    1.0952   -2.7635 H   0  0  0  0  0  0  0  0  0  0  0  0
    1.4532   -0.3404   -2.9278 H   0  0  0  0  0  0  0  0  0  0  0  0
    4.0387   -0.1665   -1.8915 H   0  0  0  0  0  0  0  0  0  0  0  0
    2.9935   -1.5763   -1.9215 H   0  0  0  0  0  0  0  0  0  0  0  0
    2.6201    0.3153    1.6667 H   0  0  0  0  0  0  0  0  0  0  0  0
    3.6902    2.2409    1.1491 H   0  0  0  0  0  0  0  0  0  0  0  0
    4.2128    1.4531   -0.3531 H   0  0  0  0  0  0  0  0  0  0  0  0
    0.4954    1.3938    2.1398 H   0  0  0  0  0  0  0  0  0  0  0  0
    0.5824    2.5949    0.8596 H   0  0  0  0  0  0  0  0  0  0  0  0
   -1.5016    0.6863    1.4569 H   0  0  0  0  0  0  0  0  0  0  0  0
   -1.6202    2.3600    0.6482 H   0  0  0  0  0  0  0  0  0  0  0  0
   -4.4116   -0.1172   -0.7929 H   0  0  0  0  0  0  0  0  0  0  0  0
   -0.5748   -1.2505   -1.3385 H   0  0  0  0  0  0  0  0  0  0  0  0
    0.1906   -0.8075    1.5703 H   0  0  0  0  0  0  0  0  0  0  0  0
    1.0278   -1.6061    0.1862 H   0  0  0  0  0  0  0  0  0  0  0  0
   -1.6899   -1.5639    2.2519 H   0  0  0  0  0  0  0  0  0  0  0  0
   -0.4901   -2.7123    1.4059 H   0  0  0  0  0  0  0  0  0  0  0  0
   -2.1603   -3.1652    1.7384 H   0  0  0  0  0  0  0  0  0  0  0  0
   -0.4696   -3.1536   -2.0625 H   0  0  0  0  0  0  0  0  0  0  0  0
   -1.4492   -4.5549   -1.7013 H   0  0  0  0  0  0  0  0  0  0  0  0
   -0.4464   -3.9740   -0.3907 H   0  0  0  0  0  0  0  0  0  0  0  0
   -2.8116   -3.1654   -2.8427 H   0  0  0  0  0  0  0  0  0  0  0  0
   -2.3113   -1.4979   -2.5717 H   0  0  0  0  0  0  0  0  0  0  0  0
   -3.9785   -2.1295   -2.0249 H   0  0  0  0  0  0  0  0  0  0  0  0
   -2.7803   -4.6191    0.3439 H   0  0  0  0  0  0  0  0  0  0  0  0
   -4.0946   -3.3252    0.2773 H   0  0  0  0  0  0  0  0  0  0  0  0
   -3.7317   -4.3454   -1.1210 H   0  0  0  0  0  0  0  0  0  0  0  0
   -4.4083    2.6758   -0.2036 H   0  0  0  0  0  0  0  0  0  0  0  0
   -5.3560    3.9834    1.6797 H   0  0  0  0  0  0  0  0  0  0  0  0
   -5.5692    2.9617    3.9230 H   0  0  0  0  0  0  0  0  0  0  0  0
   -4.8477    0.6656    4.2894 H   0  0  0  0  0  0  0  0  0  0  0  0
   -3.9130   -0.6252    2.4414 H   0  0  0  0  0  0  0  0  0  0  0  0
    3.2144   -2.6109    0.2133 H   0  0  0  0  0  0  0  0  0  0  0  0
    3.5364   -1.5654    1.6697 H   0  0  0  0  0  0  0  0  0  0  0  0
    5.5550   -1.5091   -0.6472 H   0  0  0  0  0  0  0  0  0  0  0  0
    5.1764   -3.5025    1.7820 H   0  0  0  0  0  0  0  0  0  0  0  0
    6.5881   -3.4873    0.5884 H   0  0  0  0  0  0  0  0  0  0  0  0
    5.6751   -1.1797    2.4957 H   0  0  0  0  0  0  0  0  0  0  0  0
    7.0707   -1.0599    1.2965 H   0  0  0  0  0  0  0  0  0  0  0  0
  1  2  1  0
  2  3  2  0
  3  4  1  0
  4  5  2  0
  5  6  1  0
  6  7  2  0
  7  8  1  0
  8  9  1  0
  9 10  1  0
 10 11  1  6
 11 12  1  0
 12 13  1  0
 13 14  1  0
 14 15  1  0
 14 16  1  0
 16 17  1  1
 17 18  1  0
 18 19  1  0
 19 20  1  6
 20 21  1  0
 21 22  1  0
 22 23  1  0
 23 24  1  0
 24 25  1  0
 23 26  1  1
 23 27  1  0
 27 28  1  0
 27 29  1  0
 27 30  1  0
 21 31  1  0
 31 32  2  0
 32 33  1  0
 33 34  2  0
 34 35  1  0
 35 36  2  0
 13 37  1  0
 37 38  1  0
 38 39  1  0
 39 40  1  0
  7  2  1  0
 19  9  1  0
 36 31  1  0
 40 38  1  0
 15  5  1  0
 25 16  1  0
 10  6  1  0
 24 19  1  0
 16 10  1  0
  1 41  1  0
  3 42  1  0
  4 43  1  0
  9 44  1  6
 11 45  1  0
 11 46  1  0
 12 47  1  0
 12 48  1  0
 14 49  1  1
 15 50  1  0
 15 51  1  0
 17 52  1  0
 17 53  1  0
 18 54  1  0
 18 55  1  0
 21 56  1  0
 24 57  1  6
 25 58  1  0
 25 59  1  0
 26 60  1  0
 26 61  1  0
 26 62  1  0
 28 63  1  0
 28 64  1  0
 28 65  1  0
 29 66  1  0
 29 67  1  0
 29 68  1  0
 30 69  1  0
 30 70  1  0
 30 71  1  0
 32 72  1  0
 33 73  1  0
 34 74  1  0
 35 75  1  0
 36 76  1  0
 37 77  1  0
 37 78  1  0
 38 79  1  0
 39 80  1  0
 39 81  1  0
 40 82  1  0
 40 83  1  0
M  END
>  <Ligand ID>  (1) 
LIG0005134

>  <Ligand>  (1) 
CHEMBL3969683

>  <SMILES>  (1) 
Oc1ccc2c3c1O[C@H]1[C@]43CCN([C@@H](C2)[C@]24CC[C@]31OC(O[C@@]([C@@H]3C2)(C)C(C)(C)C)c1ccccc1)CC1CC1

>  <CID>  (1) 
134153961.0

>  <ChEMBL ID>  (1) 
nan

>  <InChiKey>  (1) 
HGBJMGMRNYTIHF-JZPSDNIQSA-N

>  <InChi>  (1) 
InChI=1S/C35H43NO4/c1-31(2,3)32(4)25-19-33-14-15-35(25,40-29(39-32)22-8-6-5-7-9-22)30-34(33)16-17-36(20-21-10-11-21)26(33)18-23-12-13-24(37)28(38-30)27(23)34/h5-9,12-13,21,25-26,29-30,37H,10-11,14-20H2,1-4H3/t25-,26-,29?,30-,32+,33-,34+,35-/m0/s1

>  <IUPAC Name>  (1) 
(1R,2R,6S,14S,15S,19R,20S)-19-tert-butyl-5-(cyclopropylmethyl)-19-methyl-17-phenyl-13,16,18-trioxa-5-azaheptacyclo[13.6.2.12,8.01,6.02,14.015,20.012,24]tetracosa-8(24),9,11-trien-11-ol

$$$$
