
     RDKit          3D

 46 47  0  0  0  0  0  0  0  0999 V2000
    0.6241   -0.0580    0.7635 O   0  0  0  0  0  0  0  0  0  0  0  0
    1.0495    0.1326   -0.3992 C   0  0  0  0  0  0  0  0  0  0  0  0
    2.4865    0.1295   -0.7710 C   0  0  0  0  0  0  0  0  0  0  0  0
    3.3048   -0.1295    0.4770 C   0  0  1  0  0  0  0  0  0  0  0  0
    4.7478   -0.1458    0.1653 C   0  0  0  0  0  0  0  0  0  0  0  0
    5.3728    1.0129   -0.2505 C   0  0  0  0  0  0  0  0  0  0  0  0
    6.7202    1.0722   -0.5595 C   0  0  0  0  0  0  0  0  0  0  0  0
    7.5059   -0.0488   -0.4614 C   0  0  0  0  0  0  0  0  0  0  0  0
    6.8965   -1.2150   -0.0472 C   0  0  0  0  0  0  0  0  0  0  0  0
    5.5420   -1.2730    0.2630 C   0  0  0  0  0  0  0  0  0  0  0  0
    2.9111    0.8408    1.5254 C   0  0  0  0  0  0  0  0  0  0  0  0
    0.0535    0.3652   -1.4079 N   0  0  0  0  0  0  0  0  0  0  0  0
   -1.3431    0.3689   -1.0503 C   0  0  0  0  0  0  0  0  0  0  0  0
   -1.6758    0.1620    0.1767 N   0  0  0  0  0  0  0  0  0  0  0  0
   -3.0472    0.1462    0.6347 C   0  0  0  0  0  0  0  0  0  0  0  0
   -3.5334   -1.2787    0.6255 C   0  0  0  0  0  0  0  0  0  0  0  0
   -4.9859   -1.3526    1.1037 C   0  0  0  0  0  0  0  0  0  0  0  0
   -5.8017   -0.5277    0.1692 C   0  0  0  0  0  0  0  0  0  0  0  0
   -6.4200   -0.9544   -0.9878 C   0  0  0  0  0  0  0  0  0  0  0  0
   -7.0568    0.1092   -1.5381 N   0  0  0  0  0  0  0  0  0  0  0  0
   -6.8316    1.1626   -0.7335 C   0  0  0  0  0  0  0  0  0  0  0  0
   -6.0698    0.7975    0.3120 N   0  0  0  0  0  0  0  0  0  0  0  0
   -2.3124    0.6024   -2.0709 N   0  0  0  0  0  0  0  0  0  0  0  0
    2.6529   -0.7013   -1.4880 H   0  0  0  0  0  0  0  0  0  0  0  0
    2.7572    1.1115   -1.2219 H   0  0  0  0  0  0  0  0  0  0  0  0
    3.0461   -1.1645    0.7829 H   0  0  0  0  0  0  0  0  0  0  0  0
    4.8236    1.9585   -0.3581 H   0  0  0  0  0  0  0  0  0  0  0  0
    7.1739    2.0059   -0.8836 H   0  0  0  0  0  0  0  0  0  0  0  0
    8.5588   -0.0228   -0.6979 H   0  0  0  0  0  0  0  0  0  0  0  0
    7.4711   -2.1347    0.0486 H   0  0  0  0  0  0  0  0  0  0  0  0
    5.0551   -2.1761    0.5870 H   0  0  0  0  0  0  0  0  0  0  0  0
    3.7577    1.2961    2.0746 H   0  0  0  0  0  0  0  0  0  0  0  0
    2.2221    1.6066    1.1133 H   0  0  0  0  0  0  0  0  0  0  0  0
    2.3275    0.3129    2.3128 H   0  0  0  0  0  0  0  0  0  0  0  0
    0.3167    0.5350   -2.4121 H   0  0  0  0  0  0  0  0  0  0  0  0
   -3.0542    0.5552    1.6789 H   0  0  0  0  0  0  0  0  0  0  0  0
   -3.7054    0.7877    0.0283 H   0  0  0  0  0  0  0  0  0  0  0  0
   -2.9552   -1.9048    1.3115 H   0  0  0  0  0  0  0  0  0  0  0  0
   -3.4229   -1.6932   -0.3820 H   0  0  0  0  0  0  0  0  0  0  0  0
   -5.0722   -0.9994    2.1452 H   0  0  0  0  0  0  0  0  0  0  0  0
   -5.3419   -2.3864    1.0438 H   0  0  0  0  0  0  0  0  0  0  0  0
   -6.4271   -1.9398   -1.4195 H   0  0  0  0  0  0  0  0  0  0  0  0
   -7.2289    2.1500   -0.9386 H   0  0  0  0  0  0  0  0  0  0  0  0
   -5.7639    1.4480    1.0718 H   0  0  0  0  0  0  0  0  0  0  0  0
   -2.5711   -0.1286   -2.7787 H   0  0  0  0  0  0  0  0  0  0  0  0
   -2.7571    1.5656   -2.0694 H   0  0  0  0  0  0  0  0  0  0  0  0
  1  2  2  0
  2  3  1  0
  3  4  1  0
  4  5  1  0
  5  6  2  0
  6  7  1  0
  7  8  2  0
  8  9  1  0
  9 10  2  0
  4 11  1  0
  2 12  1  0
 12 13  1  0
 13 14  2  3
 14 15  1  0
 15 16  1  0
 16 17  1  0
 17 18  1  0
 18 19  2  0
 19 20  1  0
 20 21  2  0
 21 22  1  0
 13 23  1  0
 10  5  1  0
 22 18  1  0
  3 24  1  0
  3 25  1  0
  4 26  1  1
  6 27  1  0
  7 28  1  0
  8 29  1  0
  9 30  1  0
 10 31  1  0
 11 32  1  0
 11 33  1  0
 11 34  1  0
 12 35  1  0
 15 36  1  0
 15 37  1  0
 16 38  1  0
 16 39  1  0
 17 40  1  0
 17 41  1  0
 19 42  1  0
 21 43  1  0
 22 44  1  0
 23 45  1  0
 23 46  1  0
M  END
>  <Ligand ID>  (1) 
LIG0000794

>  <Ligand>  (1) 
CHEMBL1096429

>  <SMILES>  (1) 
O=C(C[C@@H](c1ccccc1)C)NC(=NCCCc1cnc[nH]1)N

>  <CID>  (1) 
46830167.0

>  <ChEMBL ID>  (1) 
nan

>  <InChiKey>  (1) 
NTHUVTORAXKPJS-ZDUSSCGKSA-N

>  <InChi>  (1) 
InChI=1S/C17H23N5O/c1-13(14-6-3-2-4-7-14)10-16(23)22-17(18)20-9-5-8-15-11-19-12-21-15/h2-4,6-7,11-13H,5,8-10H2,1H3,(H,19,21)(H3,18,20,22,23)/t13-/m0/s1

>  <IUPAC Name>  (1) 
(3S)-N-[N'-[3-(1H-imidazol-5-yl)propyl]carbamimidoyl]-3-phenylbutanamide

$$$$
