
     RDKit          3D

 51 53  0  0  0  0  0  0  0  0999 V2000
   -7.5823   -1.5732   -1.4595 Cl  0  0  0  0  0  0  0  0  0  0  0  0
   -7.1308   -0.1287   -0.5769 C   0  0  0  0  0  0  0  0  0  0  0  0
   -8.0690    0.8077   -0.2046 C   0  0  0  0  0  0  0  0  0  0  0  0
   -7.7075    1.9504    0.4938 C   0  0  0  0  0  0  0  0  0  0  0  0
   -6.3656    2.1412    0.8177 C   0  0  0  0  0  0  0  0  0  0  0  0
   -5.3948    1.2170    0.4570 C   0  0  0  0  0  0  0  0  0  0  0  0
   -5.7986    0.0987   -0.2340 C   0  0  0  0  0  0  0  0  0  0  0  0
   -3.9633    1.4637    0.8372 C   0  0  2  0  0  0  0  0  0  0  0  0
   -3.1308    0.2747    0.4786 C   0  0  0  0  0  0  0  0  0  0  0  0
   -1.7316    0.5311    0.7815 N   0  0  0  0  0  0  0  0  0  0  0  0
   -0.9115   -0.6193    0.4539 C   0  0  0  0  0  0  0  0  0  0  0  0
   -0.8064   -0.8772   -1.0078 C   0  0  0  0  0  0  0  0  0  0  0  0
    0.0006   -2.0087   -1.3143 N   0  0  0  0  0  0  0  0  0  0  0  0
    1.4017   -2.1225   -1.1607 C   0  0  0  0  0  0  0  0  0  0  0  0
    2.0392   -3.3289   -1.4582 C   0  0  0  0  0  0  0  0  0  0  0  0
    3.3957   -3.5062   -1.3456 C   0  0  0  0  0  0  0  0  0  0  0  0
    4.1635   -2.4435   -0.9189 C   0  0  0  0  0  0  0  0  0  0  0  0
    3.5926   -1.2281   -0.6104 C   0  0  0  0  0  0  0  0  0  0  0  0
    2.2265   -1.1017   -0.7409 C   0  0  0  0  0  0  0  0  0  0  0  0
    4.4692   -0.1581   -0.1632 C   0  0  0  0  0  0  0  0  0  0  0  0
    4.0345    1.1025    0.1796 C   0  0  0  0  0  0  0  0  0  0  0  0
    4.9343    2.0720    0.6018 C   0  0  0  0  0  0  0  0  0  0  0  0
    6.2987    1.7894    0.6868 C   0  0  0  0  0  0  0  0  0  0  0  0
    6.6845    0.5119    0.3323 C   0  0  0  0  0  0  0  0  0  0  0  0
    5.7922   -0.4273   -0.0788 N   0  0  0  0  0  0  0  0  0  0  0  0
    8.0856    0.1056    0.3848 C   0  0  0  0  0  0  0  0  0  0  0  0
    8.4750   -1.0537    0.0682 O   0  0  0  0  0  0  0  0  0  0  0  0
    9.0776    0.9942    0.7940 O   0  0  0  0  0  0  0  0  0  0  0  0
   -3.8808    1.8225    2.1861 O   0  0  0  0  0  0  0  0  0  0  0  0
   -9.1034    0.5999   -0.4884 H   0  0  0  0  0  0  0  0  0  0  0  0
   -8.4799    2.6560    0.7611 H   0  0  0  0  0  0  0  0  0  0  0  0
   -6.1199    3.0473    1.3644 H   0  0  0  0  0  0  0  0  0  0  0  0
   -5.1009   -0.6641   -0.5466 H   0  0  0  0  0  0  0  0  0  0  0  0
   -3.6575    2.3554    0.2547 H   0  0  0  0  0  0  0  0  0  0  0  0
   -3.2657    0.1349   -0.6317 H   0  0  0  0  0  0  0  0  0  0  0  0
   -3.4536   -0.5931    1.0697 H   0  0  0  0  0  0  0  0  0  0  0  0
   -1.6989    0.6074    1.8403 H   0  0  0  0  0  0  0  0  0  0  0  0
   -1.3512   -1.5196    0.9630 H   0  0  0  0  0  0  0  0  0  0  0  0
    0.0503   -0.4588    0.9631 H   0  0  0  0  0  0  0  0  0  0  0  0
   -0.3912    0.0401   -1.4873 H   0  0  0  0  0  0  0  0  0  0  0  0
   -1.8488   -1.0750   -1.3747 H   0  0  0  0  0  0  0  0  0  0  0  0
   -0.4857   -2.8760   -1.7025 H   0  0  0  0  0  0  0  0  0  0  0  0
    1.4596   -4.1958   -1.8010 H   0  0  0  0  0  0  0  0  0  0  0  0
    3.8567   -4.4557   -1.5850 H   0  0  0  0  0  0  0  0  0  0  0  0
    5.2308   -2.6291   -0.8443 H   0  0  0  0  0  0  0  0  0  0  0  0
    1.8068   -0.1382   -0.5086 H   0  0  0  0  0  0  0  0  0  0  0  0
    3.0008    1.3577    0.1275 H   0  0  0  0  0  0  0  0  0  0  0  0
    4.6153    3.0713    0.8793 H   0  0  0  0  0  0  0  0  0  0  0  0
    7.0202    2.5317    1.0124 H   0  0  0  0  0  0  0  0  0  0  0  0
   10.0669    0.7166    0.7461 H   0  0  0  0  0  0  0  0  0  0  0  0
   -4.3492    1.1220    2.7090 H   0  0  0  0  0  0  0  0  0  0  0  0
  1  2  1  0
  2  3  2  0
  3  4  1  0
  4  5  2  0
  5  6  1  0
  6  7  2  0
  6  8  1  0
  8  9  1  0
  9 10  1  0
 10 11  1  0
 11 12  1  0
 12 13  1  0
 13 14  1  0
 14 15  2  0
 15 16  1  0
 16 17  2  0
 17 18  1  0
 18 19  2  0
 18 20  1  0
 20 21  2  0
 21 22  1  0
 22 23  2  0
 23 24  1  0
 24 25  2  0
 24 26  1  0
 26 27  2  0
 26 28  1  0
  8 29  1  0
  7  2  1  0
 19 14  1  0
 25 20  1  0
  3 30  1  0
  4 31  1  0
  5 32  1  0
  7 33  1  0
  8 34  1  6
  9 35  1  0
  9 36  1  0
 10 37  1  0
 11 38  1  0
 11 39  1  0
 12 40  1  0
 12 41  1  0
 13 42  1  0
 15 43  1  0
 16 44  1  0
 17 45  1  0
 19 46  1  0
 21 47  1  0
 22 48  1  0
 23 49  1  0
 28 50  1  0
 29 51  1  0
M  END
>  <Ligand ID>  (1) 
LIG0002520

>  <Ligand>  (1) 
CHEMBL424866

>  <SMILES>  (1) 
Clc1cccc(c1)[C@H](CNCCNc1cccc(c1)c1cccc(n1)C(=O)O)O

>  <CID>  (1) 
11718543.0

>  <ChEMBL ID>  (1) 
nan

>  <InChiKey>  (1) 
CQECFJNZZPYKHL-NRFANRHFSA-N

>  <InChi>  (1) 
InChI=1S/C22H22ClN3O3/c23-17-6-1-5-16(12-17)21(27)14-24-10-11-25-18-7-2-4-15(13-18)19-8-3-9-20(26-19)22(28)29/h1-9,12-13,21,24-25,27H,10-11,14H2,(H,28,29)/t21-/m0/s1

>  <IUPAC Name>  (1) 
6-[3-[2-[[(2R)-2-(3-chlorophenyl)-2-hydroxyethyl]amino]ethylamino]phenyl]pyridine-2-carboxylic acid

$$$$
