
     RDKit          3D

 80 84  0  0  0  0  0  0  0  0999 V2000
    1.6378    8.1055   -0.3916 C   0  0  0  0  0  0  0  0  0  0  0  0
    1.9960    7.1840    0.7408 C   0  0  0  0  0  0  0  0  0  0  0  0
    1.9027    5.7215    0.2999 C   0  0  0  0  0  0  0  0  0  0  0  0
    2.3260    4.9114    1.5149 C   0  0  0  0  0  0  0  0  0  0  0  0
    2.0974    3.5375    1.1640 N   0  0  0  0  0  0  0  0  0  0  0  0
    1.9026    2.2876    0.8416 C   0  0  0  0  0  0  0  0  0  0  0  0
    2.6248    1.2962    0.2226 N   0  0  0  0  0  0  0  0  0  0  0  0
    2.0282    0.1489   -0.0651 C   0  0  0  0  0  0  0  0  0  0  0  0
    2.8568   -0.8608   -0.6866 N   0  0  0  0  0  0  0  0  0  0  0  0
    2.1487   -1.9982   -1.2154 C   0  0  0  0  0  0  0  0  0  0  0  0
    3.0645   -3.0943   -1.6611 C   0  0  0  0  0  0  0  0  0  0  0  0
    3.8282   -3.6191   -0.4718 C   0  0  0  0  0  0  0  0  0  0  0  0
    3.7106   -3.0664    0.7306 N   0  0  0  0  0  0  0  0  0  0  0  0
    4.4544   -3.8318    1.5993 C   0  0  0  0  0  0  0  0  0  0  0  0
    5.0087   -4.8410    0.8661 N   0  0  0  0  0  0  0  0  0  0  0  0
    4.6372   -4.7316   -0.4315 C   0  0  0  0  0  0  0  0  0  0  0  0
    5.8055   -5.8669    1.4719 C   0  0  0  0  0  0  0  0  0  0  0  0
    7.2648   -5.4726    1.4411 C   0  0  0  0  0  0  0  0  0  0  0  0
    0.7417   -0.1628    0.1829 N   0  0  0  0  0  0  0  0  0  0  0  0
   -0.0308    0.7240    0.7722 C   0  0  0  0  0  0  0  0  0  0  0  0
    0.4808    1.9356    1.1240 C   0  0  0  0  0  0  0  0  0  0  0  0
   -0.4632    2.6433    1.6749 N   0  0  0  0  0  0  0  0  0  0  0  0
   -1.5997    1.9830    1.7134 C   0  0  0  0  0  0  0  0  0  0  0  0
   -1.3163    0.7305    1.1239 N   0  0  0  0  0  0  0  0  0  0  0  0
   -2.4018   -0.1523    1.0087 C   0  0  2  0  0  0  0  0  0  0  0  0
   -2.3610   -1.3845    0.1597 C   0  0  0  0  0  0  0  0  0  0  0  0
   -3.8776   -1.6412    0.1639 C   0  0  1  0  0  0  0  0  0  0  0  0
   -4.2752   -0.3096   -0.5468 C   0  0  2  0  0  0  0  0  0  0  0  0
   -3.6295    0.6445    0.4072 C   0  0  1  0  0  0  0  0  0  0  0  0
   -4.5212    0.9954    1.3931 O   0  0  0  0  0  0  0  0  0  0  0  0
   -5.5961   -0.2064   -0.7738 O   0  0  0  0  0  0  0  0  0  0  0  0
   -4.3648   -2.7438   -0.5407 N   0  0  0  0  0  0  0  0  0  0  0  0
   -3.8107   -3.6902   -1.3292 N   0  0  0  0  0  0  0  0  0  0  0  0
   -4.8123   -4.5160   -1.7700 C   0  0  0  0  0  0  0  0  0  0  0  0
   -6.0126   -4.0901   -1.2603 C   0  0  0  0  0  0  0  0  0  0  0  0
   -5.7334   -2.9966   -0.5045 C   0  0  0  0  0  0  0  0  0  0  0  0
   -7.3958   -4.6067   -1.4382 C   0  0  0  0  0  0  0  0  0  0  0  0
   -8.0280   -3.9759   -2.5171 O   0  0  0  0  0  0  0  0  0  0  0  0
    0.5559    5.3869   -0.2300 C   0  0  0  0  0  0  0  0  0  0  0  0
   -0.5163    5.6930    0.8226 C   0  0  0  0  0  0  0  0  0  0  0  0
    2.3124    7.8870   -1.2683 H   0  0  0  0  0  0  0  0  0  0  0  0
    0.6061    7.9188   -0.7294 H   0  0  0  0  0  0  0  0  0  0  0  0
    1.7624    9.1675   -0.0707 H   0  0  0  0  0  0  0  0  0  0  0  0
    2.9830    7.3885    1.1091 H   0  0  0  0  0  0  0  0  0  0  0  0
    1.1957    7.2816    1.5510 H   0  0  0  0  0  0  0  0  0  0  0  0
    2.6504    5.5687   -0.4998 H   0  0  0  0  0  0  0  0  0  0  0  0
    3.3106    5.2601    1.7953 H   0  0  0  0  0  0  0  0  0  0  0  0
    1.6243    5.1779    2.3897 H   0  0  0  0  0  0  0  0  0  0  0  0
    3.4428    3.3796    1.1106 H   0  0  0  0  0  0  0  0  0  0  0  0
    3.8974   -0.7314   -0.7172 H   0  0  0  0  0  0  0  0  0  0  0  0
    1.4613   -1.6737   -2.0347 H   0  0  0  0  0  0  0  0  0  0  0  0
    1.4750   -2.4460   -0.4132 H   0  0  0  0  0  0  0  0  0  0  0  0
    2.5298   -3.9344   -2.1276 H   0  0  0  0  0  0  0  0  0  0  0  0
    3.7894   -2.6803   -2.4308 H   0  0  0  0  0  0  0  0  0  0  0  0
    4.5809   -3.6595    2.6750 H   0  0  0  0  0  0  0  0  0  0  0  0
    4.8644   -5.3222   -1.2903 H   0  0  0  0  0  0  0  0  0  0  0  0
    5.5319   -5.9972    2.5489 H   0  0  0  0  0  0  0  0  0  0  0  0
    5.6859   -6.8432    0.9660 H   0  0  0  0  0  0  0  0  0  0  0  0
    7.3545   -4.3955    1.3048 H   0  0  0  0  0  0  0  0  0  0  0  0
    7.7857   -5.7695    2.3602 H   0  0  0  0  0  0  0  0  0  0  0  0
    7.7139   -6.0025    0.5462 H   0  0  0  0  0  0  0  0  0  0  0  0
   -2.6055    2.2854    2.0733 H   0  0  0  0  0  0  0  0  0  0  0  0
   -2.8159   -0.4822    1.9995 H   0  0  0  0  0  0  0  0  0  0  0  0
   -1.8079   -2.2327    0.6478 H   0  0  0  0  0  0  0  0  0  0  0  0
   -2.0712   -1.2252   -0.9012 H   0  0  0  0  0  0  0  0  0  0  0  0
   -4.3011   -1.5302    1.1963 H   0  0  0  0  0  0  0  0  0  0  0  0
   -3.6666   -0.3844   -1.5172 H   0  0  0  0  0  0  0  0  0  0  0  0
   -3.2221    1.5652   -0.0647 H   0  0  0  0  0  0  0  0  0  0  0  0
   -4.5464    0.3790    2.1476 H   0  0  0  0  0  0  0  0  0  0  0  0
   -5.8586   -0.6581   -1.6585 H   0  0  0  0  0  0  0  0  0  0  0  0
   -4.7197   -5.3834   -2.4221 H   0  0  0  0  0  0  0  0  0  0  0  0
   -6.4749   -2.4093    0.0521 H   0  0  0  0  0  0  0  0  0  0  0  0
   -8.0139   -4.3542   -0.5127 H   0  0  0  0  0  0  0  0  0  0  0  0
   -7.4550   -5.7064   -1.5375 H   0  0  0  0  0  0  0  0  0  0  0  0
   -7.6550   -3.0413   -2.6020 H   0  0  0  0  0  0  0  0  0  0  0  0
    0.3396    5.9795   -1.1398 H   0  0  0  0  0  0  0  0  0  0  0  0
    0.4787    4.3067   -0.5121 H   0  0  0  0  0  0  0  0  0  0  0  0
   -0.7984    6.7520    0.7652 H   0  0  0  0  0  0  0  0  0  0  0  0
   -1.4426    5.1063    0.5303 H   0  0  0  0  0  0  0  0  0  0  0  0
   -0.2484    5.3891    1.8259 H   0  0  0  0  0  0  0  0  0  0  0  0
  1  2  1  0
  2  3  1  0
  3  4  1  0
  4  5  1  0
  5  6  1  0
  6  7  2  0
  7  8  1  0
  8  9  1  0
  9 10  1  0
 10 11  1  0
 11 12  1  0
 12 13  1  0
 13 14  2  0
 14 15  1  0
 15 16  1  0
 15 17  1  0
 17 18  1  0
  8 19  2  0
 19 20  1  0
 20 21  2  0
 21 22  1  0
 22 23  2  0
 23 24  1  0
 24 25  1  0
 25 26  1  0
 26 27  1  0
 27 28  1  0
 28 29  1  0
 29 30  1  0
 28 31  1  0
 27 32  1  0
 32 33  1  0
 33 34  2  0
 34 35  1  0
 35 36  2  0
 35 37  1  0
 37 38  1  0
  3 39  1  0
 39 40  1  0
 21  6  1  0
 29 25  1  0
 36 32  1  0
 16 12  2  0
 24 20  1  0
  1 41  1  0
  1 42  1  0
  1 43  1  0
  2 44  1  0
  2 45  1  0
  3 46  1  0
  4 47  1  0
  4 48  1  0
  5 49  1  0
  9 50  1  0
 10 51  1  0
 10 52  1  0
 11 53  1  0
 11 54  1  0
 14 55  1  0
 16 56  1  0
 17 57  1  0
 17 58  1  0
 18 59  1  0
 18 60  1  0
 18 61  1  0
 23 62  1  0
 25 63  1  1
 26 64  1  0
 26 65  1  0
 27 66  1  1
 28 67  1  6
 29 68  1  6
 30 69  1  0
 31 70  1  0
 34 71  1  0
 36 72  1  0
 37 73  1  0
 37 74  1  0
 38 75  1  0
 39 76  1  0
 39 77  1  0
 40 78  1  0
 40 79  1  0
 40 80  1  0
M  END
>  <Ligand ID>  (1) 
LIG0004061

>  <Ligand>  (1) 
CHEMBL604591

>  <SMILES>  (1) 
CCC(CNc1nc(NCCc2ncn(c2)CC)nc2c1ncn2[C@@H]1C[C@@H]([C@H]([C@H]1O)O)n1ncc(c1)CO)CC

>  <CID>  (1) 
46230290.0

>  <ChEMBL ID>  (1) 
nan

>  <InChiKey>  (1) 
NCSZDLWKVPXZCB-AWAHEQQVSA-N

>  <InChi>  (1) 
InChI=1S/C27H40N10O3/c1-4-17(5-2)10-29-25-22-26(34-27(33-25)28-8-7-19-13-35(6-3)15-30-19)36(16-31-22)20-9-21(24(40)23(20)39)37-12-18(14-38)11-32-37/h11-13,15-17,20-21,23-24,38-40H,4-10,14H2,1-3H3,(H2,28,29,33,34)/t20-,21+,23+,24-/m1/s1

>  <IUPAC Name>  (1) 
(1R,2S,3R,5S)-3-[6-(2-ethylbutylamino)-2-[2-(1-ethylimidazol-4-yl)ethylamino]purin-9-yl]-5-[4-(hydroxymethyl)pyrazol-1-yl]cyclopentane-1,2-diol

$$$$
