
     RDKit          3D

 45 46  0  0  0  0  0  0  0  0999 V2000
   -6.5773    2.6377   -0.5234 O   0  0  0  0  0  0  0  0  0  0  0  0
   -5.4537    1.9552   -0.9692 C   0  0  0  0  0  0  0  0  0  0  0  0
   -4.7929    2.3664   -1.9492 O   0  0  0  0  0  0  0  0  0  0  0  0
   -5.0785    0.7231   -0.2311 C   0  0  0  0  0  0  0  0  0  0  0  0
   -3.8258    0.0851   -0.8368 C   0  0  0  0  0  0  0  0  0  0  0  0
   -3.5659   -1.1425    0.0049 C   0  0  0  0  0  0  0  0  0  0  0  0
   -2.4548   -1.8873   -0.3721 O   0  0  0  0  0  0  0  0  0  0  0  0
   -1.1498   -1.4916   -0.4275 C   0  0  0  0  0  0  0  0  0  0  0  0
   -0.5197   -0.9394   -1.5100 C   0  0  0  0  0  0  0  0  0  0  0  0
   -1.3085   -0.7424   -2.7546 C   0  0  0  0  0  0  0  0  0  0  0  0
    0.8134   -0.5592   -1.4961 C   0  0  0  0  0  0  0  0  0  0  0  0
    1.5658   -0.7332   -0.3519 C   0  0  0  0  0  0  0  0  0  0  0  0
    0.9598   -1.2880    0.7587 C   0  0  0  0  0  0  0  0  0  0  0  0
   -0.3794   -1.6617    0.7204 C   0  0  0  0  0  0  0  0  0  0  0  0
   -0.9318   -2.2481    1.9685 C   0  0  0  0  0  0  0  0  0  0  0  0
    2.9720   -0.3533   -0.2752 C   0  0  0  0  0  0  0  0  0  0  0  0
    3.3940    0.3377    0.8606 C   0  0  0  0  0  0  0  0  0  0  0  0
    4.7237    0.7028    0.9444 C   0  0  0  0  0  0  0  0  0  0  0  0
    5.6450    0.4110   -0.0485 C   0  0  0  0  0  0  0  0  0  0  0  0
    5.2156   -0.2731   -1.1674 C   0  0  0  0  0  0  0  0  0  0  0  0
    3.8933   -0.6332   -1.2450 C   0  0  0  0  0  0  0  0  0  0  0  0
    3.3765   -1.5013   -2.6782 Cl  0  0  0  0  0  0  0  0  0  0  0  0
    5.1965    1.3979    2.0643 O   0  0  0  0  0  0  0  0  0  0  0  0
    5.1474    2.8083    2.0075 C   0  0  0  0  0  0  0  0  0  0  0  0
    5.6574    3.2720    3.2039 F   0  0  0  0  0  0  0  0  0  0  0  0
    3.8295    3.1996    1.8511 F   0  0  0  0  0  0  0  0  0  0  0  0
    5.8982    3.2218    0.9229 F   0  0  0  0  0  0  0  0  0  0  0  0
   -6.8070    3.5807   -0.8597 H   0  0  0  0  0  0  0  0  0  0  0  0
   -4.8155    0.9845    0.8147 H   0  0  0  0  0  0  0  0  0  0  0  0
   -5.9042    0.0014   -0.2616 H   0  0  0  0  0  0  0  0  0  0  0  0
   -4.0240   -0.1978   -1.9069 H   0  0  0  0  0  0  0  0  0  0  0  0
   -2.9674    0.7510   -0.7530 H   0  0  0  0  0  0  0  0  0  0  0  0
   -4.4707   -1.7934   -0.1185 H   0  0  0  0  0  0  0  0  0  0  0  0
   -3.5864   -0.8085    1.0601 H   0  0  0  0  0  0  0  0  0  0  0  0
   -1.7151    0.2935   -2.8172 H   0  0  0  0  0  0  0  0  0  0  0  0
   -2.1672   -1.4511   -2.7680 H   0  0  0  0  0  0  0  0  0  0  0  0
   -0.7081   -1.0152   -3.6468 H   0  0  0  0  0  0  0  0  0  0  0  0
    1.2459   -0.1328   -2.3774 H   0  0  0  0  0  0  0  0  0  0  0  0
    1.5531   -1.4300    1.6748 H   0  0  0  0  0  0  0  0  0  0  0  0
   -2.0138   -2.3728    1.9764 H   0  0  0  0  0  0  0  0  0  0  0  0
   -0.6602   -1.5656    2.8032 H   0  0  0  0  0  0  0  0  0  0  0  0
   -0.4847   -3.2445    2.1795 H   0  0  0  0  0  0  0  0  0  0  0  0
    2.6818    0.5644    1.6301 H   0  0  0  0  0  0  0  0  0  0  0  0
    6.6908    0.6961    0.0136 H   0  0  0  0  0  0  0  0  0  0  0  0
    5.9028   -0.5245   -1.9729 H   0  0  0  0  0  0  0  0  0  0  0  0
  1  2  1  0
  2  3  2  0
  2  4  1  0
  4  5  1  0
  5  6  1  0
  6  7  1  0
  7  8  1  0
  8  9  2  0
  9 10  1  0
  9 11  1  0
 11 12  2  0
 12 13  1  0
 13 14  2  0
 14 15  1  0
 12 16  1  0
 16 17  2  0
 17 18  1  0
 18 19  2  0
 19 20  1  0
 20 21  2  0
 21 22  1  0
 18 23  1  0
 23 24  1  0
 24 25  1  0
 24 26  1  0
 24 27  1  0
 14  8  1  0
 21 16  1  0
  1 28  1  0
  4 29  1  0
  4 30  1  0
  5 31  1  0
  5 32  1  0
  6 33  1  0
  6 34  1  0
 10 35  1  0
 10 36  1  0
 10 37  1  0
 11 38  1  0
 13 39  1  0
 15 40  1  0
 15 41  1  0
 15 42  1  0
 17 43  1  0
 19 44  1  0
 20 45  1  0
M  END
>  <Ligand ID>  (1) 
LIG0003771

>  <Ligand>  (1) 
CHEMBL3909872

>  <SMILES>  (1) 
OC(=O)CCCOc1c(C)cc(cc1C)c1cc(ccc1Cl)OC(F)(F)F

>  <CID>  (1) 
134132142.0

>  <ChEMBL ID>  (1) 
nan

>  <InChiKey>  (1) 
KRJOUGOTSWPYDG-UHFFFAOYSA-N

>  <InChi>  (1) 
InChI=1S/C19H18ClF3O4/c1-11-8-13(9-12(2)18(11)26-7-3-4-17(24)25)15-10-14(5-6-16(15)20)27-19(21,22)23/h5-6,8-10H,3-4,7H2,1-2H3,(H,24,25)

>  <IUPAC Name>  (1) 
4-[4-[2-chloro-5-(trifluoromethoxy)phenyl]-2,6-dimethylphenoxy]butanoic acid

$$$$
