
     RDKit          3D

 27 28  0  0  0  0  0  0  0  0999 V2000
    3.7288   -1.3754   -0.0763 N   0  0  0  0  0  0  0  0  0  0  0  0
    3.3830   -0.1612    0.5833 C   0  0  0  0  0  0  0  0  0  0  0  0
    2.1465    0.5100    0.1001 C   0  0  1  0  0  0  0  0  0  0  0  0
    1.9713    0.9751   -1.2901 C   0  0  0  0  0  0  0  0  0  0  0  0
    1.2123   -0.2004   -0.8545 C   0  0  2  0  0  0  0  0  0  0  0  0
   -0.2634   -0.0950   -0.6033 C   0  0  0  0  0  0  0  0  0  0  0  0
   -0.8524    1.1237   -0.3062 C   0  0  0  0  0  0  0  0  0  0  0  0
   -2.2248    1.2125   -0.0741 C   0  0  0  0  0  0  0  0  0  0  0  0
   -3.0014    0.0851   -0.1398 C   0  0  0  0  0  0  0  0  0  0  0  0
   -2.4497   -1.1348   -0.4312 C   0  0  0  0  0  0  0  0  0  0  0  0
   -1.0926   -1.2008   -0.6570 C   0  0  0  0  0  0  0  0  0  0  0  0
   -4.4656    0.1938    0.1102 C   0  0  0  0  0  0  0  0  0  0  0  0
   -5.0304    1.0277   -0.8185 F   0  0  0  0  0  0  0  0  0  0  0  0
   -5.0732   -1.0340    0.0717 F   0  0  0  0  0  0  0  0  0  0  0  0
   -4.6162    0.7306    1.3725 F   0  0  0  0  0  0  0  0  0  0  0  0
    4.0506   -2.1249    0.5465 H   0  0  0  0  0  0  0  0  0  0  0  0
    4.2869   -1.3174   -0.9273 H   0  0  0  0  0  0  0  0  0  0  0  0
    3.2626   -0.4014    1.6597 H   0  0  0  0  0  0  0  0  0  0  0  0
    4.2323    0.5349    0.4919 H   0  0  0  0  0  0  0  0  0  0  0  0
    1.6141    1.1028    0.8764 H   0  0  0  0  0  0  0  0  0  0  0  0
    2.8077    0.9000   -2.0334 H   0  0  0  0  0  0  0  0  0  0  0  0
    1.4006    1.9115   -1.4620 H   0  0  0  0  0  0  0  0  0  0  0  0
    1.5420   -1.2481   -1.0821 H   0  0  0  0  0  0  0  0  0  0  0  0
   -0.2589    2.0276   -0.2489 H   0  0  0  0  0  0  0  0  0  0  0  0
   -2.6902    2.1619    0.1584 H   0  0  0  0  0  0  0  0  0  0  0  0
   -3.0234   -2.0594   -0.4951 H   0  0  0  0  0  0  0  0  0  0  0  0
   -0.5965   -2.1446   -0.8934 H   0  0  0  0  0  0  0  0  0  0  0  0
  1  2  1  0
  2  3  1  0
  3  4  1  0
  4  5  1  0
  5  6  1  0
  6  7  2  0
  7  8  1  0
  8  9  2  0
  9 10  1  0
 10 11  2  0
  9 12  1  0
 12 13  1  0
 12 14  1  0
 12 15  1  0
  5  3  1  0
 11  6  1  0
  1 16  1  0
  1 17  1  0
  2 18  1  0
  2 19  1  0
  3 20  1  1
  4 21  1  0
  4 22  1  0
  5 23  1  6
  7 24  1  0
  8 25  1  0
 10 26  1  0
 11 27  1  0
M  END
>  <Ligand ID>  (1) 
LIG0005668

>  <Ligand>  (1) 
CHEMBL493111

>  <SMILES>  (1) 
NC[C@H]1C[C@@H]1c1ccc(cc1)C(F)(F)F

>  <CID>  (1) 
44573006.0

>  <ChEMBL ID>  (1) 
nan

>  <InChiKey>  (1) 
YOWILGGJTLQJCW-PSASIEDQSA-N

>  <InChi>  (1) 
InChI=1S/C11H12F3N/c12-11(13,14)9-3-1-7(2-4-9)10-5-8(10)6-15/h1-4,8,10H,5-6,15H2/t8-,10-/m1/s1

>  <IUPAC Name>  (1) 
[(1S,2S)-2-[4-(trifluoromethyl)phenyl]cyclopropyl]methanamine

$$$$
