
     RDKit          3D

 51 54  0  0  0  0  0  0  0  0999 V2000
    1.7022   -1.8421    0.6829 O   0  0  0  0  0  0  0  0  0  0  0  0
    0.9101   -0.8242    1.2398 C   0  0  2  0  0  0  0  0  0  0  0  0
   -0.4118   -1.4618    1.6191 C   0  0  0  0  0  0  0  0  0  0  0  0
   -1.5116   -0.5551    1.0979 C   0  0  1  0  0  0  0  0  0  0  0  0
   -0.8030    0.6774    0.6542 C   0  0  1  0  0  0  0  0  0  0  0  0
    0.5439    0.2073    0.2177 C   0  0  1  0  0  0  0  0  0  0  0  0
    1.5444    1.3424    0.2495 C   0  0  0  0  0  0  0  0  0  0  0  0
    2.8194    1.1334    0.0046 O   0  0  0  0  0  0  0  0  0  0  0  0
    4.0131    0.6211    0.2107 C   0  0  0  0  0  0  0  0  0  0  0  0
    4.4100   -0.2198    1.2289 C   0  0  0  0  0  0  0  0  0  0  0  0
    5.6842   -0.7152    1.3731 C   0  0  0  0  0  0  0  0  0  0  0  0
    6.6171   -0.3434    0.4381 C   0  0  0  0  0  0  0  0  0  0  0  0
    6.3075    0.4902   -0.6072 C   0  0  0  0  0  0  0  0  0  0  0  0
    5.0299    0.9545   -0.7062 C   0  0  0  0  0  0  0  0  0  0  0  0
    7.3346    0.8824   -1.6118 C   0  0  0  0  0  0  0  0  0  0  0  0
    8.2320   -0.9426    0.5804 Cl  0  0  0  0  0  0  0  0  0  0  0  0
   -1.5683    1.4685   -0.3707 C   0  0  0  0  0  0  0  0  0  0  0  0
   -2.1731    0.5822   -1.4330 C   0  0  0  0  0  0  0  0  0  0  0  0
   -2.8497   -0.6040   -0.8333 C   0  0  1  0  0  0  0  0  0  0  0  0
   -2.2093   -1.2503    0.1681 O   0  0  0  0  0  0  0  0  0  0  0  0
   -4.2857   -0.2595   -0.5332 C   0  0  0  0  0  0  0  0  0  0  0  0
   -4.8010    0.2966    0.6184 C   0  0  0  0  0  0  0  0  0  0  0  0
   -6.1662    0.4427    0.4659 C   0  0  0  0  0  0  0  0  0  0  0  0
   -6.4343   -0.0408   -0.8006 C   0  0  0  0  0  0  0  0  0  0  0  0
   -5.3283   -0.4336   -1.3396 O   0  0  0  0  0  0  0  0  0  0  0  0
   -7.7333   -0.1213   -1.4760 C   0  0  0  0  0  0  0  0  0  0  0  0
   -7.8820   -0.5767   -2.6305 O   0  0  0  0  0  0  0  0  0  0  0  0
   -8.8839    0.3296   -0.8133 O   0  0  0  0  0  0  0  0  0  0  0  0
    1.4923   -2.7095    1.1206 H   0  0  0  0  0  0  0  0  0  0  0  0
    1.3743   -0.3082    2.0838 H   0  0  0  0  0  0  0  0  0  0  0  0
   -0.4735   -2.4777    1.1839 H   0  0  0  0  0  0  0  0  0  0  0  0
   -0.4758   -1.6286    2.7248 H   0  0  0  0  0  0  0  0  0  0  0  0
   -2.1072   -0.2727    2.0008 H   0  0  0  0  0  0  0  0  0  0  0  0
   -0.6495    1.3648    1.5183 H   0  0  0  0  0  0  0  0  0  0  0  0
    0.4423   -0.2130   -0.8051 H   0  0  0  0  0  0  0  0  0  0  0  0
    1.0801    2.1156   -0.4661 H   0  0  0  0  0  0  0  0  0  0  0  0
    1.4283    1.8967    1.2525 H   0  0  0  0  0  0  0  0  0  0  0  0
    3.6936   -0.5169    1.9778 H   0  0  0  0  0  0  0  0  0  0  0  0
    5.9744   -1.3707    2.1746 H   0  0  0  0  0  0  0  0  0  0  0  0
    4.8098    1.6161   -1.5470 H   0  0  0  0  0  0  0  0  0  0  0  0
    7.0103    1.7465   -2.1992 H   0  0  0  0  0  0  0  0  0  0  0  0
    7.5167    0.0320   -2.3209 H   0  0  0  0  0  0  0  0  0  0  0  0
    8.3311    1.0679   -1.1512 H   0  0  0  0  0  0  0  0  0  0  0  0
   -2.3498    2.0793    0.1090 H   0  0  0  0  0  0  0  0  0  0  0  0
   -0.8830    2.1752   -0.8690 H   0  0  0  0  0  0  0  0  0  0  0  0
   -1.4581    0.2653   -2.1913 H   0  0  0  0  0  0  0  0  0  0  0  0
   -2.9686    1.1803   -1.9604 H   0  0  0  0  0  0  0  0  0  0  0  0
   -2.9281   -1.3575   -1.6841 H   0  0  0  0  0  0  0  0  0  0  0  0
   -4.2690    0.5863    1.5120 H   0  0  0  0  0  0  0  0  0  0  0  0
   -6.9116    0.8313    1.1284 H   0  0  0  0  0  0  0  0  0  0  0  0
   -9.7856    0.3321   -1.2862 H   0  0  0  0  0  0  0  0  0  0  0  0
  1  2  1  0
  2  3  1  0
  3  4  1  0
  4  5  1  0
  5  6  1  0
  6  7  1  0
  7  8  1  0
  8  9  1  0
  9 10  2  0
 10 11  1  0
 11 12  2  0
 12 13  1  0
 13 14  2  0
 13 15  1  0
 12 16  1  0
  5 17  1  0
 17 18  1  0
 18 19  1  0
 19 20  1  0
 19 21  1  0
 21 22  2  0
 22 23  1  0
 23 24  2  0
 24 25  1  0
 24 26  1  0
 26 27  2  0
 26 28  1  0
  6  2  1  0
 14  9  1  0
 25 21  1  0
 20  4  1  0
  1 29  1  0
  2 30  1  1
  3 31  1  0
  3 32  1  0
  4 33  1  1
  5 34  1  1
  6 35  1  6
  7 36  1  0
  7 37  1  0
 10 38  1  0
 11 39  1  0
 14 40  1  0
 15 41  1  0
 15 42  1  0
 15 43  1  0
 17 44  1  0
 17 45  1  0
 18 46  1  0
 18 47  1  0
 19 48  1  6
 22 49  1  0
 23 50  1  0
 28 51  1  0
M  END
>  <Ligand ID>  (1) 
LIG0000938

>  <Ligand>  (1) 
CHEMBL3794226

>  <SMILES>  (1) 
O[C@@H]1C[C@H]2[C@@H]([C@H]1COc1ccc(c(c1)C)Cl)CC[C@@H](O2)c1ccc(o1)C(=O)O

>  <CID>  (1) 
118352285.0

>  <ChEMBL ID>  (1) 
nan

>  <InChiKey>  (1) 
XQSJIUXLYLOZTG-SODDHMGDSA-N

>  <InChi>  (1) 
InChI=1S/C21H23ClO6/c1-11-8-12(2-4-15(11)22)26-10-14-13-3-5-17(28-20(13)9-16(14)23)18-6-7-19(27-18)21(24)25/h2,4,6-8,13-14,16-17,20,23H,3,5,9-10H2,1H3,(H,24,25)/t13-,14-,16-,17-,20+/m1/s1

>  <IUPAC Name>  (1) 
5-[(2R,4aR,5S,6R,7aS)-5-[(4-chloro-3-methylphenoxy)methyl]-6-hydroxy-2,3,4,4a,5,6,7,7a-octahydrocyclopenta[b]pyran-2-yl]furan-2-carboxylic acid

$$$$
