
     RDKit          3D

 82 89  0  0  0  0  0  0  0  0999 V2000
    2.0020   -3.6842   -0.0691 C   0  0  0  0  0  0  0  0  0  0  0  0
    1.0444   -3.1279    0.6820 O   0  0  0  0  0  0  0  0  0  0  0  0
    0.2922   -2.0798    0.2793 C   0  0  2  0  0  0  0  0  0  0  0  0
   -0.3464   -2.2988   -1.0733 C   0  0  0  0  0  0  0  0  0  0  0  0
   -1.0838   -1.1073   -1.5684 C   0  0  0  0  0  0  0  0  0  0  0  0
   -1.4072   -0.2243   -0.3431 C   0  0  2  0  0  0  0  0  0  0  0  0
   -0.0674    0.3735   -0.0280 C   0  0  0  0  0  0  0  0  0  0  0  0
    0.8003   -0.7361    0.5737 C   0  0  2  0  0  0  0  0  0  0  0  0
    2.2811   -0.4169    0.4516 C   0  0  1  0  0  0  0  0  0  0  0  0
    2.3859    1.0250    0.8762 C   0  0  0  0  0  0  0  0  0  0  0  0
    3.6523    1.7219    1.0009 C   0  0  0  0  0  0  0  0  0  0  0  0
    4.6445    1.9286   -0.0702 C   0  0  0  0  0  0  0  0  0  0  0  0
    5.7392    2.8284    0.6284 C   0  0  0  0  0  0  0  0  0  0  0  0
    6.9122    2.5513   -0.2551 C   0  0  0  0  0  0  0  0  0  0  0  0
    6.9315    1.0238   -0.1901 C   0  0  0  0  0  0  0  0  0  0  0  0
    5.4785    0.6960   -0.3573 C   0  0  0  0  0  0  0  0  0  0  0  0
    2.9683   -1.1585    1.3684 O   0  0  0  0  0  0  0  0  0  0  0  0
    2.7125   -0.4964   -0.9809 C   0  0  0  0  0  0  0  0  0  0  0  0
   -1.8963   -1.1348    0.7451 C   0  0  2  0  0  0  0  0  0  0  0  0
   -0.9348   -2.1516    1.2670 C   0  0  1  0  0  0  0  0  0  0  0  0
   -1.6472   -3.3302    1.2846 O   0  0  0  0  0  0  0  0  0  0  0  0
   -2.7892   -3.2769    0.4578 C   0  0  0  0  0  0  0  0  0  0  0  0
   -2.9115   -1.9828    0.0464 C   0  0  0  0  0  0  0  0  0  0  0  0
   -3.8367   -1.4556   -0.7761 C   0  0  0  0  0  0  0  0  0  0  0  0
   -3.7293   -0.0558   -1.2086 C   0  0  0  0  0  0  0  0  0  0  0  0
   -2.5114    0.6974   -0.6550 C   0  0  1  0  0  0  0  0  0  0  0  0
   -3.0764    1.4892    0.4051 N   0  0  0  0  0  0  0  0  0  0  0  0
   -3.3901    0.6789    1.5602 C   0  0  0  0  0  0  0  0  0  0  0  0
   -2.4659   -0.4163    1.8962 C   0  0  0  0  0  0  0  0  0  0  0  0
   -2.4825    2.7217    0.7127 C   0  0  0  0  0  0  0  0  0  0  0  0
   -3.4509    3.6713    1.3785 C   0  0  0  0  0  0  0  0  0  0  0  0
   -4.6713    4.0877    0.5630 C   0  0  0  0  0  0  0  0  0  0  0  0
   -4.7852    3.3224    1.8629 C   0  0  0  0  0  0  0  0  0  0  0  0
   -4.8002   -2.3446   -1.2594 C   0  0  0  0  0  0  0  0  0  0  0  0
   -4.7343   -3.6879   -0.8669 C   0  0  0  0  0  0  0  0  0  0  0  0
   -3.7334   -4.1589   -0.0117 C   0  0  0  0  0  0  0  0  0  0  0  0
   -3.6568   -5.4843    0.3817 O   0  0  0  0  0  0  0  0  0  0  0  0
    1.6379   -4.0826   -1.0559 H   0  0  0  0  0  0  0  0  0  0  0  0
    2.2744   -4.6747    0.4682 H   0  0  0  0  0  0  0  0  0  0  0  0
    2.9688   -3.2258   -0.2164 H   0  0  0  0  0  0  0  0  0  0  0  0
    0.4150   -2.6701   -1.8209 H   0  0  0  0  0  0  0  0  0  0  0  0
   -1.0317   -3.1526   -0.9974 H   0  0  0  0  0  0  0  0  0  0  0  0
   -0.3643   -0.5015   -2.2000 H   0  0  0  0  0  0  0  0  0  0  0  0
   -1.9351   -1.2802   -2.2174 H   0  0  0  0  0  0  0  0  0  0  0  0
    0.4567    0.6881   -0.9668 H   0  0  0  0  0  0  0  0  0  0  0  0
   -0.1465    1.2319    0.6056 H   0  0  0  0  0  0  0  0  0  0  0  0
    0.6445   -0.5561    1.6923 H   0  0  0  0  0  0  0  0  0  0  0  0
    1.7579    1.6696    0.1432 H   0  0  0  0  0  0  0  0  0  0  0  0
    1.7393    1.1792    1.8209 H   0  0  0  0  0  0  0  0  0  0  0  0
    4.2697    1.3273    1.8938 H   0  0  0  0  0  0  0  0  0  0  0  0
    3.3877    2.7968    1.3641 H   0  0  0  0  0  0  0  0  0  0  0  0
    4.3136    2.4576   -0.9691 H   0  0  0  0  0  0  0  0  0  0  0  0
    5.9066    2.3640    1.6105 H   0  0  0  0  0  0  0  0  0  0  0  0
    5.3859    3.8584    0.6411 H   0  0  0  0  0  0  0  0  0  0  0  0
    7.8459    2.9866    0.1110 H   0  0  0  0  0  0  0  0  0  0  0  0
    6.6506    2.8648   -1.2958 H   0  0  0  0  0  0  0  0  0  0  0  0
    7.5458    0.6133   -1.0262 H   0  0  0  0  0  0  0  0  0  0  0  0
    7.3540    0.7550    0.7949 H   0  0  0  0  0  0  0  0  0  0  0  0
    5.2557   -0.1311    0.3382 H   0  0  0  0  0  0  0  0  0  0  0  0
    5.3424    0.4176   -1.4394 H   0  0  0  0  0  0  0  0  0  0  0  0
    2.7753   -0.7713    2.2587 H   0  0  0  0  0  0  0  0  0  0  0  0
    2.9170    0.5020   -1.4078 H   0  0  0  0  0  0  0  0  0  0  0  0
    1.9203   -0.9119   -1.6473 H   0  0  0  0  0  0  0  0  0  0  0  0
    3.5739   -1.1542   -1.1129 H   0  0  0  0  0  0  0  0  0  0  0  0
   -0.5001   -1.8852    2.2648 H   0  0  0  0  0  0  0  0  0  0  0  0
   -4.6601    0.4472   -0.8786 H   0  0  0  0  0  0  0  0  0  0  0  0
   -3.7510    0.0423   -2.3244 H   0  0  0  0  0  0  0  0  0  0  0  0
   -2.1687    1.4217   -1.4449 H   0  0  0  0  0  0  0  0  0  0  0  0
   -4.4014    0.2615    1.4211 H   0  0  0  0  0  0  0  0  0  0  0  0
   -3.4229    1.3750    2.4323 H   0  0  0  0  0  0  0  0  0  0  0  0
   -1.6850   -0.1171    2.6452 H   0  0  0  0  0  0  0  0  0  0  0  0
   -3.0747   -1.1828    2.4800 H   0  0  0  0  0  0  0  0  0  0  0  0
   -1.6231    2.6665    1.4589 H   0  0  0  0  0  0  0  0  0  0  0  0
   -2.0914    3.2372   -0.1762 H   0  0  0  0  0  0  0  0  0  0  0  0
   -3.0024    4.5800    1.8848 H   0  0  0  0  0  0  0  0  0  0  0  0
   -4.8353    3.5752   -0.3919 H   0  0  0  0  0  0  0  0  0  0  0  0
   -5.0349    5.1181    0.5861 H   0  0  0  0  0  0  0  0  0  0  0  0
   -5.2071    3.9084    2.7432 H   0  0  0  0  0  0  0  0  0  0  0  0
   -5.3313    2.3916    1.7339 H   0  0  0  0  0  0  0  0  0  0  0  0
   -5.5607   -1.9693   -1.9166 H   0  0  0  0  0  0  0  0  0  0  0  0
   -5.4761   -4.3930   -1.2307 H   0  0  0  0  0  0  0  0  0  0  0  0
   -4.4721   -6.0845    0.3764 H   0  0  0  0  0  0  0  0  0  0  0  0
  1  2  1  0
  3  2  1  1
  3  4  1  0
  4  5  1  0
  6  5  1  6
  6  7  1  0
  7  8  1  0
  8  9  1  0
  9 10  1  0
 10 11  1  0
 11 12  1  0
 12 13  1  0
 13 14  1  0
 14 15  1  0
 15 16  1  0
  9 17  1  1
  9 18  1  0
  6 19  1  0
 19 20  1  0
 20 21  1  0
 21 22  1  0
 22 23  2  0
 23 24  1  0
 24 25  1  0
 25 26  1  0
 26 27  1  0
 27 28  1  0
 28 29  1  0
 27 30  1  0
 30 31  1  0
 31 32  1  0
 32 33  1  0
 24 34  2  0
 34 35  1  0
 35 36  2  0
 36 37  1  0
  8  3  1  0
 16 12  1  0
 19 29  1  1
 33 31  1  0
 20  3  1  0
 36 22  1  0
 26  6  1  0
 23 19  1  0
  1 38  1  0
  1 39  1  0
  1 40  1  0
  4 41  1  0
  4 42  1  0
  5 43  1  0
  5 44  1  0
  7 45  1  0
  7 46  1  0
  8 47  1  1
 10 48  1  0
 10 49  1  0
 11 50  1  0
 11 51  1  0
 12 52  1  0
 13 53  1  0
 13 54  1  0
 14 55  1  0
 14 56  1  0
 15 57  1  0
 15 58  1  0
 16 59  1  0
 16 60  1  0
 17 61  1  0
 18 62  1  0
 18 63  1  0
 18 64  1  0
 20 65  1  1
 25 66  1  0
 25 67  1  0
 26 68  1  6
 28 69  1  0
 28 70  1  0
 29 71  1  0
 29 72  1  0
 30 73  1  0
 30 74  1  0
 31 75  1  0
 32 76  1  0
 32 77  1  0
 33 78  1  0
 33 79  1  0
 34 80  1  0
 35 81  1  0
 37 82  1  0
M  END
>  <Ligand ID>  (1) 
LIG0005132

>  <Ligand>  (1) 
CHEMBL2338748

>  <SMILES>  (1) 
CO[C@]12CC[C@]3(C[C@@H]1[C@@](CCC1CCCC1)(O)C)[C@@]14[C@H]2Oc2c4c(C[C@H]3N(CC1)CC1CC1)ccc2O

>  <CID>  (1) 
71624553.0

>  <ChEMBL ID>  (1) 
nan

>  <InChiKey>  (1) 
UPZKEWGLPMGEIV-PPMCTTEPSA-N

>  <InChi>  (1) 
InChI=1S/C32H45NO4/c1-29(35,12-11-20-5-3-4-6-20)24-18-30-13-14-32(24,36-2)28-31(30)15-16-33(19-21-7-8-21)25(30)17-22-9-10-23(34)27(37-28)26(22)31/h9-10,20-21,24-25,28,34-35H,3-8,11-19H2,1-2H3/t24-,25-,28-,29-,30-,31+,32-/m1/s1

>  <IUPAC Name>  (1) 
(1S,2S,6R,14R,15R,16R)-16-[(2R)-4-cyclopentyl-2-hydroxybutan-2-yl]-5-(cyclopropylmethyl)-15-methoxy-13-oxa-5-azahexacyclo[13.2.2.12,8.01,6.02,14.012,20]icosa-8(20),9,11-trien-11-ol

$$$$
