
     RDKit          3D

 48 50  0  0  0  0  0  0  0  0999 V2000
   -0.5063    0.4325   -0.8933 C   0  0  0  0  0  0  0  0  0  0  0  0
   -0.4357    0.4750    0.5827 C   0  0  1  0  0  0  0  0  0  0  0  0
   -1.6183   -0.0774    1.2743 C   0  0  0  0  0  0  0  0  0  0  0  0
   -2.8381    0.6513    0.9075 C   0  0  0  0  0  0  0  0  0  0  0  0
   -3.1509    1.8061    1.6438 C   0  0  0  0  0  0  0  0  0  0  0  0
   -4.2086    2.6065    1.3469 C   0  0  0  0  0  0  0  0  0  0  0  0
   -5.0383    2.3067    0.2822 C   0  0  0  0  0  0  0  0  0  0  0  0
   -4.7571    1.1736   -0.4613 C   0  0  0  0  0  0  0  0  0  0  0  0
   -3.6723    0.3724   -0.1383 C   0  0  0  0  0  0  0  0  0  0  0  0
   -3.4594   -0.7596   -0.8903 C   0  0  0  0  0  0  0  0  0  0  0  0
   -4.3212   -1.0444   -1.9237 C   0  0  0  0  0  0  0  0  0  0  0  0
   -5.4038   -0.2488   -2.2544 C   0  0  0  0  0  0  0  0  0  0  0  0
   -5.6138    0.8826   -1.4969 C   0  0  0  0  0  0  0  0  0  0  0  0
    0.8281    0.0122    1.1164 N   0  0  0  0  0  0  0  0  0  0  0  0
    1.1790   -1.3299    0.8123 C   0  0  0  0  0  0  0  0  0  0  0  0
    2.4978   -1.7393    1.3829 C   0  0  1  0  0  0  0  0  0  0  0  0
    3.6741   -1.0849    0.8249 C   0  0  0  0  0  0  0  0  0  0  0  0
    3.7078   -0.3142   -0.3136 C   0  0  0  0  0  0  0  0  0  0  0  0
    4.8820    0.2794   -0.7632 C   0  0  0  0  0  0  0  0  0  0  0  0
    4.9314    1.0592   -1.9096 O   0  0  0  0  0  0  0  0  0  0  0  0
    6.0679    0.1069   -0.0648 C   0  0  0  0  0  0  0  0  0  0  0  0
    6.0513   -0.6632    1.0788 C   0  0  0  0  0  0  0  0  0  0  0  0
    4.8823   -1.2460    1.5146 C   0  0  0  0  0  0  0  0  0  0  0  0
    7.2241   -0.8741    1.8293 O   0  0  0  0  0  0  0  0  0  0  0  0
    2.5280   -1.6161    2.7729 O   0  0  0  0  0  0  0  0  0  0  0  0
   -1.3407    1.0585   -1.2779 H   0  0  0  0  0  0  0  0  0  0  0  0
    0.4047    0.9476   -1.3627 H   0  0  0  0  0  0  0  0  0  0  0  0
   -0.6090   -0.5710   -1.3478 H   0  0  0  0  0  0  0  0  0  0  0  0
   -0.4268    1.5890    0.8519 H   0  0  0  0  0  0  0  0  0  0  0  0
   -1.5267    0.0536    2.4028 H   0  0  0  0  0  0  0  0  0  0  0  0
   -1.7541   -1.1694    1.0821 H   0  0  0  0  0  0  0  0  0  0  0  0
   -2.5287    2.0778    2.4846 H   0  0  0  0  0  0  0  0  0  0  0  0
   -4.4322    3.4954    1.9296 H   0  0  0  0  0  0  0  0  0  0  0  0
   -5.8653    2.9676    0.0782 H   0  0  0  0  0  0  0  0  0  0  0  0
   -2.6496   -1.4355   -0.6798 H   0  0  0  0  0  0  0  0  0  0  0  0
   -4.1889   -1.9315   -2.5476 H   0  0  0  0  0  0  0  0  0  0  0  0
   -6.0723   -0.5071   -3.0890 H   0  0  0  0  0  0  0  0  0  0  0  0
   -6.4574    1.5545   -1.7121 H   0  0  0  0  0  0  0  0  0  0  0  0
    1.5412    0.7189    0.9064 H   0  0  0  0  0  0  0  0  0  0  0  0
    1.2945   -1.3992   -0.3091 H   0  0  0  0  0  0  0  0  0  0  0  0
    0.3742   -2.0629    1.0325 H   0  0  0  0  0  0  0  0  0  0  0  0
    2.5994   -2.8426    1.1688 H   0  0  0  0  0  0  0  0  0  0  0  0
    2.8033   -0.1657   -0.8830 H   0  0  0  0  0  0  0  0  0  0  0  0
    4.4871    0.7891   -2.7780 H   0  0  0  0  0  0  0  0  0  0  0  0
    7.0075    0.5562   -0.3865 H   0  0  0  0  0  0  0  0  0  0  0  0
    4.9181   -1.8500    2.4300 H   0  0  0  0  0  0  0  0  0  0  0  0
    7.3299   -1.7470    2.3263 H   0  0  0  0  0  0  0  0  0  0  0  0
    1.6619   -1.2930    3.1121 H   0  0  0  0  0  0  0  0  0  0  0  0
  1  2  1  0
  2  3  1  0
  3  4  1  0
  4  5  2  0
  5  6  1  0
  6  7  2  0
  7  8  1  0
  8  9  2  0
  9 10  1  0
 10 11  2  0
 11 12  1  0
 12 13  2  0
  2 14  1  0
 14 15  1  0
 15 16  1  0
 16 17  1  0
 17 18  2  0
 18 19  1  0
 19 20  1  0
 19 21  2  0
 21 22  1  0
 22 23  2  0
 22 24  1  0
 16 25  1  0
  9  4  1  0
 23 17  1  0
 13  8  1  0
  1 26  1  0
  1 27  1  0
  1 28  1  0
  2 29  1  6
  3 30  1  0
  3 31  1  0
  5 32  1  0
  6 33  1  0
  7 34  1  0
 10 35  1  0
 11 36  1  0
 12 37  1  0
 13 38  1  0
 14 39  1  0
 15 40  1  0
 15 41  1  0
 16 42  1  1
 18 43  1  0
 20 44  1  0
 21 45  1  0
 23 46  1  0
 24 47  1  0
 25 48  1  0
M  END
>  <Ligand ID>  (1) 
LIG0005210

>  <Ligand>  (1) 
CHEMBL229614

>  <SMILES>  (1) 
C[C@@H](Cc1cccc2c1cccc2)NC[C@@H](c1cc(O)cc(c1)O)O

>  <CID>  (1) 
16735272.0

>  <ChEMBL ID>  (1) 
nan

>  <InChiKey>  (1) 
QGUPDXLZKDANGO-QKKBWIMNSA-N

>  <InChi>  (1) 
InChI=1S/C21H23NO3/c1-14(9-16-7-4-6-15-5-2-3-8-20(15)16)22-13-21(25)17-10-18(23)12-19(24)11-17/h2-8,10-12,14,21-25H,9,13H2,1H3/t14-,21-/m0/s1

>  <IUPAC Name>  (1) 
5-[(1R)-1-hydroxy-2-[[(2S)-1-naphthalen-1-ylpropan-2-yl]amino]ethyl]benzene-1,3-diol

$$$$
