
     RDKit          3D

 13 12  0  0  0  0  0  0  0  0999 V2000
   -2.1880    0.1089   -1.0001 S   0  0  0  0  0  0  0  0  0  0  0  0
   -1.0711    0.6720    0.2914 C   0  0  0  0  0  0  0  0  0  0  0  0
    0.3669    0.4674   -0.0877 C   0  0  0  0  0  0  0  0  0  0  0  0
    0.7172   -0.9708   -0.3467 C   0  0  0  0  0  0  0  0  0  0  0  0
    2.4994   -0.9739   -0.7866 S   0  0  0  0  0  0  0  0  0  0  0  0
   -3.4455   -0.2226   -0.4573 H   0  0  0  0  0  0  0  0  0  0  0  0
   -1.2755    0.1876    1.2565 H   0  0  0  0  0  0  0  0  0  0  0  0
   -1.2250    1.7598    0.4485 H   0  0  0  0  0  0  0  0  0  0  0  0
    0.9991    0.7941    0.7781 H   0  0  0  0  0  0  0  0  0  0  0  0
    0.6635    1.0629   -0.9547 H   0  0  0  0  0  0  0  0  0  0  0  0
    0.1947   -1.4237   -1.1938 H   0  0  0  0  0  0  0  0  0  0  0  0
    0.6165   -1.5464    0.5815 H   0  0  0  0  0  0  0  0  0  0  0  0
    3.1478    0.0845   -0.0787 H   0  0  0  0  0  0  0  0  0  0  0  0
  1  2  1  0
  2  3  1  0
  3  4  1  0
  4  5  1  0
  1  6  1  0
  2  7  1  0
  2  8  1  0
  3  9  1  0
  3 10  1  0
  4 11  1  0
  4 12  1  0
  5 13  1  0
M  END
>  <Ligand ID>  (1) 
LIG0005067

>  <Ligand>  (1) 
1,3-Propanedithiol

>  <SMILES>  (1) 
SCCCS

>  <CID>  (1) 
8013.0

>  <ChEMBL ID>  (1) 
nan

>  <InChiKey>  (1) 
ZJLMKPKYJBQJNH-UHFFFAOYSA-N

>  <InChi>  (1) 
InChI=1S/C3H8S2/c4-2-1-3-5/h4-5H,1-3H2

>  <IUPAC Name>  (1) 
propane-1,3-dithiol

$$$$
