
     RDKit          3D

 26 26  0  0  0  0  0  0  0  0999 V2000
   -3.4765    0.5579    1.2761 N   0  0  0  0  0  0  0  0  0  0  0  0
   -2.9474   -0.0498    0.0849 C   0  0  0  0  0  0  0  0  0  0  0  0
   -1.5174   -0.4988    0.1907 C   0  0  1  0  0  0  0  0  0  0  0  0
   -1.0243   -1.1345   -1.1125 C   0  0  0  0  0  0  0  0  0  0  0  0
   -0.4873    0.2207   -0.5634 C   0  0  2  0  0  0  0  0  0  0  0  0
    0.9423    0.1723   -0.2110 C   0  0  0  0  0  0  0  0  0  0  0  0
    1.5133   -0.9150    0.4346 C   0  0  0  0  0  0  0  0  0  0  0  0
    2.8573   -0.9334    0.7531 C   0  0  0  0  0  0  0  0  0  0  0  0
    3.6507    0.1658    0.4164 C   0  0  0  0  0  0  0  0  0  0  0  0
    3.1101    1.2601   -0.2255 C   0  0  0  0  0  0  0  0  0  0  0  0
    1.7787    1.2496   -0.5274 C   0  0  0  0  0  0  0  0  0  0  0  0
    3.9281    2.3085   -0.5326 F   0  0  0  0  0  0  0  0  0  0  0  0
    0.6906    0.0000    0.0000 Cl  0  0  0  0  0  0  0  0  0  0  0  0
   -3.3458    1.5925    1.2216 H   0  0  0  0  0  0  0  0  0  0  0  0
   -4.5296    0.4163    1.2443 H   0  0  0  0  0  0  0  0  0  0  0  0
   -3.6029   -0.9144   -0.2231 H   0  0  0  0  0  0  0  0  0  0  0  0
   -3.0485    0.6923   -0.7601 H   0  0  0  0  0  0  0  0  0  0  0  0
   -1.3035   -1.0203    1.1452 H   0  0  0  0  0  0  0  0  0  0  0  0
   -1.6075   -1.0394   -2.0275 H   0  0  0  0  0  0  0  0  0  0  0  0
   -0.3967   -2.0167   -0.9601 H   0  0  0  0  0  0  0  0  0  0  0  0
   -0.8342    1.1389   -1.0779 H   0  0  0  0  0  0  0  0  0  0  0  0
    0.9209   -1.7656    0.7002 H   0  0  0  0  0  0  0  0  0  0  0  0
    3.3433   -1.7592    1.2554 H   0  0  0  0  0  0  0  0  0  0  0  0
    4.6921    0.1389    0.6692 H   0  0  0  0  0  0  0  0  0  0  0  0
    1.3850    2.1333   -1.0360 H   0  0  0  0  0  0  0  0  0  0  0  0
   -0.6906    0.0000    0.0000 H   0  0  0  0  0  0  0  0  0  0  0  0
  1  2  1  0
  2  3  1  0
  3  4  1  0
  4  5  1  0
  5  6  1  0
  6  7  2  0
  7  8  1  0
  8  9  2  0
  9 10  1  0
 10 11  2  0
 10 12  1  0
  5  3  1  0
 11  6  1  0
  1 14  1  0
  1 15  1  0
  2 16  1  0
  2 17  1  0
  3 18  1  1
  4 19  1  0
  4 20  1  0
  5 21  1  6
  7 22  1  0
  8 23  1  0
  9 24  1  0
 11 25  1  0
 13 26  1  0
M  END
>  <Ligand ID>  (1) 
LIG0002377

>  <Ligand>  (1) 
CHEMBL492926

>  <SMILES>  (1) 
NC[C@H]1C[C@@H]1c1cccc(c1)F.Cl

>  <CID>  (1) 
44572797.0

>  <ChEMBL ID>  (1) 
nan

>  <InChiKey>  (1) 
AXSMTSASKAIQRQ-GHXDPTCOSA-N

>  <InChi>  (1) 
InChI=1S/C10H12FN.ClH/c11-9-3-1-2-7(4-9)10-5-8(10)6-12;/h1-4,8,10H,5-6,12H2;1H/t8-,10-;/m1./s1

>  <IUPAC Name>  (1) 
[(1S,2S)-2-(3-fluorophenyl)cyclopropyl]methanamine;hydrochloride

$$$$
