
     RDKit          3D

 75 74  0  0  0  0  0  0  0  0999 V2000
   -7.5169   -2.0705    0.7913 C   0  0  0  0  0  0  0  0  0  0  0  0
   -6.3207   -2.2217   -0.0908 C   0  0  0  0  0  0  0  0  0  0  0  0
   -6.5807   -1.6922   -1.4497 C   0  0  0  0  0  0  0  0  0  0  0  0
   -6.9983   -0.3144   -1.6106 C   0  0  0  0  0  0  0  0  0  0  0  0
   -6.2939    0.8986   -1.2740 C   0  0  0  0  0  0  0  0  0  0  0  0
   -5.9090    1.4245    0.0220 C   0  0  0  0  0  0  0  0  0  0  0  0
   -5.0058    0.7570    0.9606 C   0  0  0  0  0  0  0  0  0  0  0  0
   -3.6676    0.4800    0.2958 C   0  0  0  0  0  0  0  0  0  0  0  0
   -2.7897   -0.2001    1.3442 C   0  0  0  0  0  0  0  0  0  0  0  0
   -1.4414   -0.5355    0.7964 C   0  0  0  0  0  0  0  0  0  0  0  0
   -0.6976    0.7144    0.2761 C   0  0  0  0  0  0  0  0  0  0  0  0
   -0.5105    1.6471    1.4109 C   0  0  0  0  0  0  0  0  0  0  0  0
    0.1345    2.9286    1.1398 C   0  0  0  0  0  0  0  0  0  0  0  0
    1.5348    2.9969    0.7438 C   0  0  0  0  0  0  0  0  0  0  0  0
    1.9482    2.2984   -0.4819 C   0  0  0  0  0  0  0  0  0  0  0  0
    3.4355    2.6466   -0.8259 C   0  0  0  0  0  0  0  0  0  0  0  0
    4.2692    2.1914    0.3393 C   0  0  0  0  0  0  0  0  0  0  0  0
    4.0969    0.7252    0.4815 C   0  0  0  0  0  0  0  0  0  0  0  0
    4.0100    0.2498    1.6173 O   0  0  0  0  0  0  0  0  0  0  0  0
    4.0465   -0.0264   -0.6761 O   0  0  0  0  0  0  0  0  0  0  0  0
    3.9066   -1.3998   -0.7163 C   0  0  0  0  0  0  0  0  0  0  0  0
    5.0226   -2.1955   -0.0747 C   0  0  1  0  0  0  0  0  0  0  0  0
    6.2778   -2.1133   -0.9435 C   0  0  0  0  0  0  0  0  0  0  0  0
    6.8810   -0.8703   -0.8488 O   0  0  0  0  0  0  0  0  0  0  0  0
    7.9638   -0.6485   -2.1240 P   0  0  0  0  0  0  0  0  0  0  0  0
    7.2132   -0.9399   -3.6498 S   0  0  0  0  0  0  0  0  0  0  0  0
    8.4391    0.9914   -2.0463 O   0  0  0  0  0  0  0  0  0  0  0  0
    9.3777   -1.5491   -1.9275 O   0  0  0  0  0  0  0  0  0  0  0  0
    5.2449   -1.9854    1.2385 O   0  0  0  0  0  0  0  0  0  0  0  0
    5.0801   -2.9736    2.1389 C   0  0  0  0  0  0  0  0  0  0  0  0
   -7.6413   -3.0094    1.3989 H   0  0  0  0  0  0  0  0  0  0  0  0
   -8.4052   -1.9705    0.1102 H   0  0  0  0  0  0  0  0  0  0  0  0
   -7.4190   -1.2182    1.4617 H   0  0  0  0  0  0  0  0  0  0  0  0
   -6.1071   -3.3692   -0.1911 H   0  0  0  0  0  0  0  0  0  0  0  0
   -5.4105   -1.8841    0.3881 H   0  0  0  0  0  0  0  0  0  0  0  0
   -5.7157   -1.9552   -2.1540 H   0  0  0  0  0  0  0  0  0  0  0  0
   -7.4030   -2.3866   -1.8740 H   0  0  0  0  0  0  0  0  0  0  0  0
   -7.2641   -0.2052   -2.7487 H   0  0  0  0  0  0  0  0  0  0  0  0
   -8.0980   -0.1987   -1.1987 H   0  0  0  0  0  0  0  0  0  0  0  0
   -5.3836    0.9669   -2.0147 H   0  0  0  0  0  0  0  0  0  0  0  0
   -6.9366    1.7573   -1.7687 H   0  0  0  0  0  0  0  0  0  0  0  0
   -5.4523    2.4771   -0.1428 H   0  0  0  0  0  0  0  0  0  0  0  0
   -6.8729    1.7189    0.5750 H   0  0  0  0  0  0  0  0  0  0  0  0
   -5.3836   -0.0355    1.5951 H   0  0  0  0  0  0  0  0  0  0  0  0
   -4.7218    1.5737    1.7352 H   0  0  0  0  0  0  0  0  0  0  0  0
   -3.2376    1.4824    0.0604 H   0  0  0  0  0  0  0  0  0  0  0  0
   -3.7630   -0.1719   -0.5793 H   0  0  0  0  0  0  0  0  0  0  0  0
   -2.7416    0.4270    2.2313 H   0  0  0  0  0  0  0  0  0  0  0  0
   -3.2887   -1.1758    1.6141 H   0  0  0  0  0  0  0  0  0  0  0  0
   -0.7981   -0.9210    1.6233 H   0  0  0  0  0  0  0  0  0  0  0  0
   -1.4862   -1.2729   -0.0134 H   0  0  0  0  0  0  0  0  0  0  0  0
    0.2031    0.3395   -0.2231 H   0  0  0  0  0  0  0  0  0  0  0  0
   -1.3387    1.1792   -0.5367 H   0  0  0  0  0  0  0  0  0  0  0  0
    0.0052    1.0774    2.2572 H   0  0  0  0  0  0  0  0  0  0  0  0
   -1.5186    1.8810    1.8957 H   0  0  0  0  0  0  0  0  0  0  0  0
   -0.4698    3.5243    0.3611 H   0  0  0  0  0  0  0  0  0  0  0  0
    0.0471    3.6076    2.0778 H   0  0  0  0  0  0  0  0  0  0  0  0
    2.1292    2.6122    1.6486 H   0  0  0  0  0  0  0  0  0  0  0  0
    1.9001    4.0841    0.6694 H   0  0  0  0  0  0  0  0  0  0  0  0
    2.0501    1.1926   -0.3039 H   0  0  0  0  0  0  0  0  0  0  0  0
    1.3877    2.4682   -1.3936 H   0  0  0  0  0  0  0  0  0  0  0  0
    3.5346    3.7047   -1.0797 H   0  0  0  0  0  0  0  0  0  0  0  0
    3.6578    1.9603   -1.6762 H   0  0  0  0  0  0  0  0  0  0  0  0
    4.0954    2.7331    1.2783 H   0  0  0  0  0  0  0  0  0  0  0  0
    5.3524    2.4135    0.0634 H   0  0  0  0  0  0  0  0  0  0  0  0
    3.9061   -1.7061   -1.7832 H   0  0  0  0  0  0  0  0  0  0  0  0
    2.9044   -1.7219   -0.3365 H   0  0  0  0  0  0  0  0  0  0  0  0
    4.7099   -3.2565   -0.1982 H   0  0  0  0  0  0  0  0  0  0  0  0
    5.9353   -2.2209   -1.9914 H   0  0  0  0  0  0  0  0  0  0  0  0
    6.9350   -2.9598   -0.7366 H   0  0  0  0  0  0  0  0  0  0  0  0
    8.7196    1.2214   -1.1254 H   0  0  0  0  0  0  0  0  0  0  0  0
    9.4273   -2.3127   -2.5302 H   0  0  0  0  0  0  0  0  0  0  0  0
    4.0023   -3.3113    2.0757 H   0  0  0  0  0  0  0  0  0  0  0  0
    5.1073   -2.4919    3.1630 H   0  0  0  0  0  0  0  0  0  0  0  0
    5.6970   -3.8608    2.0889 H   0  0  0  0  0  0  0  0  0  0  0  0
  1  2  1  0
  2  3  1  0
  3  4  1  0
  4  5  1  0
  5  6  1  0
  6  7  1  0
  7  8  1  0
  8  9  1  0
  9 10  1  0
 10 11  1  0
 11 12  1  0
 12 13  1  0
 13 14  1  0
 14 15  1  0
 15 16  1  0
 16 17  1  0
 17 18  1  0
 18 19  2  0
 18 20  1  0
 20 21  1  0
 21 22  1  0
 22 23  1  0
 23 24  1  0
 24 25  1  0
 25 26  2  0
 25 27  1  0
 25 28  1  0
 22 29  1  0
 29 30  1  0
  1 31  1  0
  1 32  1  0
  1 33  1  0
  2 34  1  0
  2 35  1  0
  3 36  1  0
  3 37  1  0
  4 38  1  0
  4 39  1  0
  5 40  1  0
  5 41  1  0
  6 42  1  0
  6 43  1  0
  7 44  1  0
  7 45  1  0
  8 46  1  0
  8 47  1  0
  9 48  1  0
  9 49  1  0
 10 50  1  0
 10 51  1  0
 11 52  1  0
 11 53  1  0
 12 54  1  0
 12 55  1  0
 13 56  1  0
 13 57  1  0
 14 58  1  0
 14 59  1  0
 15 60  1  0
 15 61  1  0
 16 62  1  0
 16 63  1  0
 17 64  1  0
 17 65  1  0
 21 66  1  0
 21 67  1  0
 22 68  1  1
 23 69  1  0
 23 70  1  0
 27 71  1  0
 28 72  1  0
 30 73  1  0
 30 74  1  0
 30 75  1  0
M  END
>  <Ligand ID>  (1) 
LIG0000696

>  <Ligand>  (1) 
CHEMBL357053

>  <SMILES>  (1) 
CCCCCCCCCCCCCCCCCC(=O)OC[C@@H](COP(=S)(O)O)OC

>  <CID>  (1) 
10322404.0

>  <ChEMBL ID>  (1) 
nan

>  <InChiKey>  (1) 
AYKYANCQUONAPE-NRFANRHFSA-N

>  <InChi>  (1) 
InChI=1S/C22H45O6PS/c1-3-4-5-6-7-8-9-10-11-12-13-14-15-16-17-18-22(23)27-19-21(26-2)20-28-29(24,25)30/h21H,3-20H2,1-2H3,(H2,24,25,30)/t21-/m0/s1

>  <IUPAC Name>  (1) 
[(2S)-3-dihydroxyphosphinothioyloxy-2-methoxypropyl] octadecanoate

$$$$
