
     RDKit          3D

 62 66  0  0  0  0  0  0  0  0999 V2000
   -8.7716    3.6120    0.0101 C   0  0  0  0  0  0  0  0  0  0  0  0
   -9.0096    2.2428   -0.2827 O   0  0  0  0  0  0  0  0  0  0  0  0
   -7.8902    1.3984   -0.1941 C   0  0  0  0  0  0  0  0  0  0  0  0
   -6.6599    1.9335    0.1584 C   0  0  0  0  0  0  0  0  0  0  0  0
   -5.5544    1.0883    0.2451 C   0  0  0  0  0  0  0  0  0  0  0  0
   -5.6383   -0.2608   -0.0058 C   0  0  0  0  0  0  0  0  0  0  0  0
   -6.8854   -0.7482   -0.3534 C   0  0  0  0  0  0  0  0  0  0  0  0
   -7.9927    0.0522   -0.4486 C   0  0  0  0  0  0  0  0  0  0  0  0
   -4.4962   -1.1729    0.0719 C   0  0  0  0  0  0  0  0  0  0  0  0
   -4.7005   -2.4735   -0.1887 N   0  0  0  0  0  0  0  0  0  0  0  0
   -3.7184   -3.3667   -0.1510 C   0  0  0  0  0  0  0  0  0  0  0  0
   -4.0396   -4.6948   -0.4404 C   0  0  0  0  0  0  0  0  0  0  0  0
   -3.0143   -5.6173   -0.4002 C   0  0  0  0  0  0  0  0  0  0  0  0
   -1.7282   -5.2108   -0.0819 C   0  0  0  0  0  0  0  0  0  0  0  0
   -1.4094   -3.9113    0.2002 C   0  0  0  0  0  0  0  0  0  0  0  0
   -2.4303   -2.9849    0.1616 C   0  0  0  0  0  0  0  0  0  0  0  0
   -2.1874   -1.6599    0.4340 C   0  0  0  0  0  0  0  0  0  0  0  0
   -3.2317   -0.7433    0.3893 C   0  0  0  0  0  0  0  0  0  0  0  0
   -0.8473   -1.1400    0.7610 C   0  0  0  0  0  0  0  0  0  0  0  0
   -0.2431   -1.6434    1.7015 O   0  0  0  0  0  0  0  0  0  0  0  0
   -0.3404   -0.0866   -0.0368 N   0  0  0  0  0  0  0  0  0  0  0  0
    0.9129    0.5334    0.1153 C   0  0  0  0  0  0  0  0  0  0  0  0
    1.9077    0.1509    0.9835 C   0  0  0  0  0  0  0  0  0  0  0  0
    3.1102    0.8646    1.0811 C   0  0  0  0  0  0  0  0  0  0  0  0
    3.3620    1.9713    0.3266 C   0  0  0  0  0  0  0  0  0  0  0  0
    2.3585    2.3679   -0.5593 C   0  0  0  0  0  0  0  0  0  0  0  0
    1.1836    1.6632   -0.6486 C   0  0  0  0  0  0  0  0  0  0  0  0
    4.7970    2.9328    0.3800 S   0  0  0  0  0  0  0  0  0  0  0  0
    5.3400    2.8160    1.7991 O   0  0  0  0  0  0  0  0  0  0  0  0
    4.3886    4.3823    0.2168 O   0  0  0  0  0  0  0  0  0  0  0  0
    5.9817    2.5415   -0.7717 N   0  0  0  0  0  0  0  0  0  0  0  0
    6.6607    1.3075   -0.8933 C   0  0  0  0  0  0  0  0  0  0  0  0
    6.2575    0.2973   -1.6176 O   0  0  0  0  0  0  0  0  0  0  0  0
    7.1021   -0.7135   -1.5319 N   0  0  0  0  0  0  0  0  0  0  0  0
    8.1302   -0.3995   -0.7203 C   0  0  0  0  0  0  0  0  0  0  0  0
    7.8641    0.9113   -0.2926 C   0  0  0  0  0  0  0  0  0  0  0  0
    8.7012    1.7194    0.6211 C   0  0  0  0  0  0  0  0  0  0  0  0
    9.2951   -1.2516   -0.3592 C   0  0  0  0  0  0  0  0  0  0  0  0
   -8.4318    3.6621    1.0474 H   0  0  0  0  0  0  0  0  0  0  0  0
   -8.0084    4.0432   -0.6460 H   0  0  0  0  0  0  0  0  0  0  0  0
   -9.7098    4.2047   -0.1241 H   0  0  0  0  0  0  0  0  0  0  0  0
   -6.5500    3.0089    0.3693 H   0  0  0  0  0  0  0  0  0  0  0  0
   -4.6191    1.5345    0.5208 H   0  0  0  0  0  0  0  0  0  0  0  0
   -7.0155   -1.8053   -0.5681 H   0  0  0  0  0  0  0  0  0  0  0  0
   -8.9454   -0.3537   -0.7190 H   0  0  0  0  0  0  0  0  0  0  0  0
   -5.0630   -4.9411   -0.6756 H   0  0  0  0  0  0  0  0  0  0  0  0
   -3.2539   -6.6338   -0.6139 H   0  0  0  0  0  0  0  0  0  0  0  0
   -0.8943   -5.9318   -0.0416 H   0  0  0  0  0  0  0  0  0  0  0  0
   -0.3895   -3.5861    0.4527 H   0  0  0  0  0  0  0  0  0  0  0  0
   -3.0308    0.2813    0.6008 H   0  0  0  0  0  0  0  0  0  0  0  0
   -0.9614    0.2435   -0.8132 H   0  0  0  0  0  0  0  0  0  0  0  0
    1.7918   -0.7115    1.6126 H   0  0  0  0  0  0  0  0  0  0  0  0
    3.8910    0.5405    1.7779 H   0  0  0  0  0  0  0  0  0  0  0  0
    2.4868    3.2236   -1.1818 H   0  0  0  0  0  0  0  0  0  0  0  0
    0.4352    2.0265   -1.3642 H   0  0  0  0  0  0  0  0  0  0  0  0
    6.2606    3.2784   -1.4895 H   0  0  0  0  0  0  0  0  0  0  0  0
    9.3935    2.3704    0.0355 H   0  0  0  0  0  0  0  0  0  0  0  0
    9.3403    1.0708    1.2372 H   0  0  0  0  0  0  0  0  0  0  0  0
    8.0720    2.3519    1.2752 H   0  0  0  0  0  0  0  0  0  0  0  0
    8.8750   -2.2758   -0.2219 H   0  0  0  0  0  0  0  0  0  0  0  0
    9.7550   -0.9712    0.5834 H   0  0  0  0  0  0  0  0  0  0  0  0
   10.0078   -1.3376   -1.2059 H   0  0  0  0  0  0  0  0  0  0  0  0
  1  2  1  0
  2  3  1  0
  3  4  2  0
  4  5  1  0
  5  6  2  0
  6  7  1  0
  7  8  2  0
  6  9  1  0
  9 10  2  0
 10 11  1  0
 11 12  2  0
 12 13  1  0
 13 14  2  0
 14 15  1  0
 15 16  2  0
 16 17  1  0
 17 18  2  0
 17 19  1  0
 19 20  2  0
 19 21  1  0
 21 22  1  0
 22 23  2  0
 23 24  1  0
 24 25  2  0
 25 26  1  0
 26 27  2  0
 25 28  1  0
 28 29  2  0
 28 30  2  0
 28 31  1  0
 31 32  1  0
 32 33  1  0
 33 34  1  0
 34 35  2  0
 35 36  1  0
 36 37  1  0
 35 38  1  0
  8  3  1  0
 18  9  1  0
 27 22  1  0
 36 32  2  0
 16 11  1  0
  1 39  1  0
  1 40  1  0
  1 41  1  0
  4 42  1  0
  5 43  1  0
  7 44  1  0
  8 45  1  0
 12 46  1  0
 13 47  1  0
 14 48  1  0
 15 49  1  0
 18 50  1  0
 21 51  1  0
 23 52  1  0
 24 53  1  0
 26 54  1  0
 27 55  1  0
 31 56  1  0
 37 57  1  0
 37 58  1  0
 37 59  1  0
 38 60  1  0
 38 61  1  0
 38 62  1  0
M  END
>  <Ligand ID>  (1) 
LIG0003680

>  <Ligand>  (1) 
MLS-0295640.0001

>  <SMILES>  (1) 
COc1ccc(cc1)c1nc2ccccc2c(c1)C(=O)Nc1ccc(cc1)S(=O)(=O)Nc1onc(c1C)C

>  <CID>  (1) 
2333197.0

>  <ChEMBL ID>  (1) 
nan

>  <InChiKey>  (1) 
UDIKDAMDJUXXDX-UHFFFAOYSA-N

>  <InChi>  (1) 
InChI=1S/C28H24N4O5S/c1-17-18(2)31-37-28(17)32-38(34,35)22-14-10-20(11-15-22)29-27(33)24-16-26(19-8-12-21(36-3)13-9-19)30-25-7-5-4-6-23(24)25/h4-16,32H,1-3H3,(H,29,33)

>  <IUPAC Name>  (1) 
N-[4-[(3,4-dimethyl-1,2-oxazol-5-yl)sulfamoyl]phenyl]-2-(4-methoxyphenyl)quinoline-4-carboxamide

$$$$
