
     RDKit          3D

 32 34  0  0  0  0  0  0  0  0999 V2000
    0.1739    2.5758    0.3533 O   0  0  0  0  0  0  0  0  0  0  0  0
   -0.0490    1.3394    0.2477 C   0  0  0  0  0  0  0  0  0  0  0  0
   -1.3999    0.8358    0.2790 N   0  0  0  0  0  0  0  0  0  0  0  0
   -2.4549    1.7433   -0.0511 C   0  0  0  0  0  0  0  0  0  0  0  0
   -3.5833    1.0726   -0.7581 C   0  0  0  0  0  0  0  0  0  0  0  0
   -3.4877   -0.3419   -0.8876 N   0  0  0  0  0  0  0  0  0  0  0  0
   -2.9700   -0.9991    0.2908 C   0  0  0  0  0  0  0  0  0  0  0  0
   -1.5737   -0.5348    0.6390 C   0  0  1  0  0  0  0  0  0  0  0  0
   -0.5614   -1.4548    0.0095 C   0  0  0  0  0  0  0  0  0  0  0  0
    0.7961   -0.9099   -0.0180 C   0  0  0  0  0  0  0  0  0  0  0  0
    1.0926    0.4240    0.0926 C   0  0  0  0  0  0  0  0  0  0  0  0
    2.4013    0.9059    0.0618 C   0  0  0  0  0  0  0  0  0  0  0  0
    3.4078   -0.0239   -0.0867 C   0  0  0  0  0  0  0  0  0  0  0  0
    3.1607   -1.3586   -0.2002 C   0  0  0  0  0  0  0  0  0  0  0  0
    1.8478   -1.8120   -0.1665 C   0  0  0  0  0  0  0  0  0  0  0  0
    4.8299    0.4540   -0.1245 C   0  0  0  0  0  0  0  0  0  0  0  0
    4.8972    1.8003    0.1867 F   0  0  0  0  0  0  0  0  0  0  0  0
    5.5394   -0.2695    0.8157 F   0  0  0  0  0  0  0  0  0  0  0  0
    5.3601    0.2177   -1.3819 F   0  0  0  0  0  0  0  0  0  0  0  0
   -2.7998    2.2168    0.9122 H   0  0  0  0  0  0  0  0  0  0  0  0
   -2.0692    2.6035   -0.6603 H   0  0  0  0  0  0  0  0  0  0  0  0
   -3.6583    1.4797   -1.8089 H   0  0  0  0  0  0  0  0  0  0  0  0
   -4.5406    1.3997   -0.2708 H   0  0  0  0  0  0  0  0  0  0  0  0
   -3.0433   -0.6648   -1.7625 H   0  0  0  0  0  0  0  0  0  0  0  0
   -3.6667   -0.8647    1.1362 H   0  0  0  0  0  0  0  0  0  0  0  0
   -2.9332   -2.0877    0.0749 H   0  0  0  0  0  0  0  0  0  0  0  0
   -1.4510   -0.6459    1.7436 H   0  0  0  0  0  0  0  0  0  0  0  0
   -0.5208   -2.4080    0.6023 H   0  0  0  0  0  0  0  0  0  0  0  0
   -0.8957   -1.6865   -1.0356 H   0  0  0  0  0  0  0  0  0  0  0  0
    2.5485    1.9538    0.1537 H   0  0  0  0  0  0  0  0  0  0  0  0
    3.9656   -2.0946   -0.3183 H   0  0  0  0  0  0  0  0  0  0  0  0
    1.6374   -2.8655   -0.2552 H   0  0  0  0  0  0  0  0  0  0  0  0
  1  2  2  0
  2  3  1  0
  3  4  1  0
  4  5  1  0
  5  6  1  0
  6  7  1  0
  7  8  1  0
  8  9  1  0
  9 10  1  0
 10 11  2  0
 11 12  1  0
 12 13  2  0
 13 14  1  0
 14 15  2  0
 13 16  1  0
 16 17  1  0
 16 18  1  0
 16 19  1  0
 11  2  1  0
  8  3  1  0
 15 10  1  0
  4 20  1  0
  4 21  1  0
  5 22  1  0
  5 23  1  0
  6 24  1  0
  7 25  1  0
  7 26  1  0
  8 27  1  1
  9 28  1  0
  9 29  1  0
 12 30  1  0
 14 31  1  0
 15 32  1  0
M  END
>  <Ligand ID>  (1) 
LIG0003212

>  <Ligand>  (1) 
SCHEMBL3559233

>  <SMILES>  (1) 
O=C1N2CCNC[C@H]2Cc2c1cc(cc2)C(F)(F)F

>  <CID>  (1) 
11176570.0

>  <ChEMBL ID>  (1) 
nan

>  <InChiKey>  (1) 
KGYOIHNXJRJXJD-SNVBAGLBSA-N

>  <InChi>  (1) 
InChI=1S/C13H13F3N2O/c14-13(15,16)9-2-1-8-5-10-7-17-3-4-18(10)12(19)11(8)6-9/h1-2,6,10,17H,3-5,7H2/t10-/m1/s1

>  <IUPAC Name>  (1) 
(11aR)-8-(trifluoromethyl)-1,2,3,4,11,11a-hexahydropyrazino[1,2-b]isoquinolin-6-one

$$$$
