
     RDKit          3D

 58 62  0  0  0  0  0  0  0  0999 V2000
   -0.6301    4.9356   -0.4977 C   0  0  0  0  0  0  0  0  0  0  0  0
   -1.9897    4.5767   -0.5547 O   0  0  0  0  0  0  0  0  0  0  0  0
   -2.3308    3.2420   -0.4235 C   0  0  0  0  0  0  0  0  0  0  0  0
   -1.3503    2.2934   -0.2422 C   0  0  0  0  0  0  0  0  0  0  0  0
   -1.6720    0.9833   -0.1123 C   0  0  0  0  0  0  0  0  0  0  0  0
   -3.0070    0.6315   -0.1670 C   0  0  0  0  0  0  0  0  0  0  0  0
   -4.0072    1.5762   -0.3494 C   0  0  0  0  0  0  0  0  0  0  0  0
   -3.6650    2.9124   -0.4810 C   0  0  0  0  0  0  0  0  0  0  0  0
   -4.6102    3.9032   -0.6645 O   0  0  0  0  0  0  0  0  0  0  0  0
   -5.9824    3.6690   -0.7364 C   0  0  0  0  0  0  0  0  0  0  0  0
   -3.2963   -0.6745   -0.0296 N   0  0  0  0  0  0  0  0  0  0  0  0
   -2.3686   -1.6266    0.1537 C   0  0  0  0  0  0  0  0  0  0  0  0
   -1.0823   -1.2395    0.2001 N   0  0  0  0  0  0  0  0  0  0  0  0
   -0.6887    0.0487    0.0721 C   0  0  0  0  0  0  0  0  0  0  0  0
    0.6986    0.3108    0.1211 N   0  0  0  0  0  0  0  0  0  0  0  0
    1.4890    0.7834   -0.9974 C   0  0  0  0  0  0  0  0  0  0  0  0
    2.8122    0.0247   -1.0542 C   0  0  0  0  0  0  0  0  0  0  0  0
    3.4834    0.1055    0.2340 N   0  0  0  0  0  0  0  0  0  0  0  0
    2.7408    0.7277    1.3113 C   0  0  0  0  0  0  0  0  0  0  0  0
    1.3821    0.0798    1.3736 C   0  0  0  0  0  0  0  0  0  0  0  0
    4.7962   -0.4121    0.3664 C   0  0  0  0  0  0  0  0  0  0  0  0
    5.5320   -0.3774    1.5268 C   0  0  0  0  0  0  0  0  0  0  0  0
    6.8206   -0.8925    1.6301 C   0  0  0  0  0  0  0  0  0  0  0  0
    7.4121   -1.4792    0.5046 C   0  0  0  0  0  0  0  0  0  0  0  0
    6.6723   -1.5097   -0.6493 C   0  0  0  0  0  0  0  0  0  0  0  0
    5.3996   -0.9963   -0.7353 C   0  0  0  0  0  0  0  0  0  0  0  0
    8.6677   -1.9774    0.6144 F   0  0  0  0  0  0  0  0  0  0  0  0
   -2.7949   -3.0159    0.2905 C   0  0  0  0  0  0  0  0  0  0  0  0
   -1.9454   -4.0587    0.4835 C   0  0  0  0  0  0  0  0  0  0  0  0
   -2.4251   -5.3611    0.6062 C   0  0  0  0  0  0  0  0  0  0  0  0
   -3.7873   -5.5966    0.5305 C   0  0  0  0  0  0  0  0  0  0  0  0
   -4.6782   -4.5396    0.3325 C   0  0  0  0  0  0  0  0  0  0  0  0
   -4.1480   -3.2699    0.2177 C   0  0  0  0  0  0  0  0  0  0  0  0
   -0.1262    4.5215    0.4220 H   0  0  0  0  0  0  0  0  0  0  0  0
   -0.6049    6.0590   -0.4507 H   0  0  0  0  0  0  0  0  0  0  0  0
   -0.1469    4.5999   -1.4333 H   0  0  0  0  0  0  0  0  0  0  0  0
   -0.3340    2.5965   -0.1986 H   0  0  0  0  0  0  0  0  0  0  0  0
   -5.0518    1.2883   -0.3905 H   0  0  0  0  0  0  0  0  0  0  0  0
   -6.3246    2.9225    0.0255 H   0  0  0  0  0  0  0  0  0  0  0  0
   -6.2310    3.2815   -1.7557 H   0  0  0  0  0  0  0  0  0  0  0  0
   -6.5429    4.6083   -0.5617 H   0  0  0  0  0  0  0  0  0  0  0  0
    1.7465    1.8413   -0.9093 H   0  0  0  0  0  0  0  0  0  0  0  0
    0.9040    0.6101   -1.9151 H   0  0  0  0  0  0  0  0  0  0  0  0
    3.4303    0.5276   -1.8209 H   0  0  0  0  0  0  0  0  0  0  0  0
    2.6302   -1.0131   -1.3910 H   0  0  0  0  0  0  0  0  0  0  0  0
    2.5660    1.7895    0.9521 H   0  0  0  0  0  0  0  0  0  0  0  0
    3.2581    0.7347    2.2799 H   0  0  0  0  0  0  0  0  0  0  0  0
    1.5185   -1.0220    1.5241 H   0  0  0  0  0  0  0  0  0  0  0  0
    0.8315    0.5436    2.2184 H   0  0  0  0  0  0  0  0  0  0  0  0
    5.1284    0.0588    2.4142 H   0  0  0  0  0  0  0  0  0  0  0  0
    7.3848   -0.8547    2.5588 H   0  0  0  0  0  0  0  0  0  0  0  0
    7.1408   -1.9690   -1.5253 H   0  0  0  0  0  0  0  0  0  0  0  0
    4.8510   -1.0424   -1.6691 H   0  0  0  0  0  0  0  0  0  0  0  0
   -0.8777   -3.8585    0.5410 H   0  0  0  0  0  0  0  0  0  0  0  0
   -1.7493   -6.2046    0.7610 H   0  0  0  0  0  0  0  0  0  0  0  0
   -4.2082   -6.6083    0.6225 H   0  0  0  0  0  0  0  0  0  0  0  0
   -5.7547   -4.7166    0.2701 H   0  0  0  0  0  0  0  0  0  0  0  0
   -4.8853   -2.4707    0.0643 H   0  0  0  0  0  0  0  0  0  0  0  0
  1  2  1  0
  2  3  1  0
  3  4  2  0
  4  5  1  0
  5  6  2  0
  6  7  1  0
  7  8  2  0
  8  9  1  0
  9 10  1  0
  6 11  1  0
 11 12  2  0
 12 13  1  0
 13 14  2  0
 14 15  1  0
 15 16  1  0
 16 17  1  0
 17 18  1  0
 18 19  1  0
 19 20  1  0
 18 21  1  0
 21 22  2  0
 22 23  1  0
 23 24  2  0
 24 25  1  0
 25 26  2  0
 24 27  1  0
 12 28  1  0
 28 29  2  0
 29 30  1  0
 30 31  2  0
 31 32  1  0
 32 33  2  0
  8  3  1  0
 20 15  1  0
 26 21  1  0
 33 28  1  0
 14  5  1  0
  1 34  1  0
  1 35  1  0
  1 36  1  0
  4 37  1  0
  7 38  1  0
 10 39  1  0
 10 40  1  0
 10 41  1  0
 16 42  1  0
 16 43  1  0
 17 44  1  0
 17 45  1  0
 19 46  1  0
 19 47  1  0
 20 48  1  0
 20 49  1  0
 22 50  1  0
 23 51  1  0
 25 52  1  0
 26 53  1  0
 29 54  1  0
 30 55  1  0
 31 56  1  0
 32 57  1  0
 33 58  1  0
M  END
>  <Ligand ID>  (1) 
LIG0004744

>  <Ligand>  (1) 
CHEMBL2431136

>  <SMILES>  (1) 
COc1cc2c(cc1OC)nc(nc2N1CCN(CC1)c1ccc(cc1)F)c1ccccc1

>  <CID>  (1) 
1941471.0

>  <ChEMBL ID>  (1) 
nan

>  <InChiKey>  (1) 
QJSSVXHQDQGEIJ-UHFFFAOYSA-N

>  <InChi>  (1) 
InChI=1S/C26H25FN4O2/c1-32-23-16-21-22(17-24(23)33-2)28-25(18-6-4-3-5-7-18)29-26(21)31-14-12-30(13-15-31)20-10-8-19(27)9-11-20/h3-11,16-17H,12-15H2,1-2H3

>  <IUPAC Name>  (1) 
4-[4-(4-fluorophenyl)piperazin-1-yl]-6,7-dimethoxy-2-phenylquinazoline

$$$$
