
     RDKit          3D

 15 14  0  0  0  0  0  0  0  0999 V2000
   -1.8618    0.2575    0.0935 C   0  0  0  0  0  0  0  0  0  0  0  0
   -0.5950   -0.5266    0.0758 C   0  0  0  0  0  0  0  0  0  0  0  0
    0.5898    0.2804   -0.3913 C   0  0  0  0  0  0  0  0  0  0  0  0
    0.9285    1.7070    0.6280 S   0  0  0  0  0  0  0  0  0  0  0  0
    1.8117   -0.6411   -0.3783 C   0  0  0  0  0  0  0  0  0  0  0  0
   -1.8483    1.1626   -0.5556 H   0  0  0  0  0  0  0  0  0  0  0  0
   -2.1160    0.5737    1.1465 H   0  0  0  0  0  0  0  0  0  0  0  0
   -2.7265   -0.3812   -0.2267 H   0  0  0  0  0  0  0  0  0  0  0  0
   -0.3904   -0.9700    1.0707 H   0  0  0  0  0  0  0  0  0  0  0  0
   -0.7349   -1.3304   -0.7033 H   0  0  0  0  0  0  0  0  0  0  0  0
    0.4546    0.6024   -1.4333 H   0  0  0  0  0  0  0  0  0  0  0  0
    0.0486    1.8734    1.7059 H   0  0  0  0  0  0  0  0  0  0  0  0
    1.5430   -1.6595   -0.0239 H   0  0  0  0  0  0  0  0  0  0  0  0
    2.3207   -0.6936   -1.3533 H   0  0  0  0  0  0  0  0  0  0  0  0
    2.5760   -0.2546    0.3453 H   0  0  0  0  0  0  0  0  0  0  0  0
  1  2  1  0
  2  3  1  0
  3  4  1  0
  3  5  1  0
  1  6  1  0
  1  7  1  0
  1  8  1  0
  2  9  1  0
  2 10  1  0
  3 11  1  0
  4 12  1  0
  5 13  1  0
  5 14  1  0
  5 15  1  0
M  END
>  <Ligand ID>  (1) 
LIG0000540

>  <Ligand>  (1) 
butane-2-thiol

>  <SMILES>  (1) 
CCC(S)C

>  <CID>  (1) 
10560.0

>  <ChEMBL ID>  (1) 
nan

>  <InChiKey>  (1) 
LOCHFZBWPCLPAN-UHFFFAOYSA-N

>  <InChi>  (1) 
InChI=1S/C4H10S/c1-3-4(2)5/h4-5H,3H2,1-2H3

>  <IUPAC Name>  (1) 
butane-2-thiol

$$$$
