
     RDKit          3D

 63 64  0  0  0  0  0  0  0  0999 V2000
    8.0642   -0.1133    0.3302 C   0  0  0  0  0  0  0  0  0  0  0  0
    7.3989    1.0717   -0.3470 C   0  0  0  0  0  0  0  0  0  0  0  0
    7.1045    0.7658   -1.8068 C   0  0  0  0  0  0  0  0  0  0  0  0
    6.1830   -0.4207   -1.9474 C   0  0  0  0  0  0  0  0  0  0  0  0
    4.8526   -0.1761   -1.2573 C   0  0  0  0  0  0  0  0  0  0  0  0
    3.9629   -1.3837   -1.4214 C   0  0  0  0  0  0  0  0  0  0  0  0
    2.6468   -1.1863   -0.7590 C   0  0  0  0  0  0  0  0  0  0  0  0
    1.6740   -2.1280   -0.9439 C   0  0  0  0  0  0  0  0  0  0  0  0
    0.4553   -1.9343   -0.3236 C   0  0  0  0  0  0  0  0  0  0  0  0
    0.2031   -0.8147    0.4743 C   0  0  0  0  0  0  0  0  0  0  0  0
    1.1913    0.1138    0.6447 C   0  0  0  0  0  0  0  0  0  0  0  0
    2.4076   -0.0781    0.0265 C   0  0  0  0  0  0  0  0  0  0  0  0
   -1.1107   -0.6502    1.1156 C   0  0  1  0  0  0  0  0  0  0  0  0
   -1.0901   -0.5887    2.5911 C   0  0  1  0  0  0  0  0  0  0  0  0
    0.2545   -1.4543    3.3457 Cl  0  0  0  0  0  0  0  0  0  0  0  0
   -1.1357    0.8689    2.9965 C   0  0  0  0  0  0  0  0  0  0  0  0
   -1.8079    1.5703    1.8238 C   0  0  2  0  0  0  0  0  0  0  0  0
   -1.7592    0.6182    0.6775 C   0  0  2  0  0  0  0  0  0  0  0  0
   -3.1289    0.3825    0.0553 C   0  0  0  0  0  0  0  0  0  0  0  0
   -4.0688   -0.2559    0.9657 C   0  0  0  0  0  0  0  0  0  0  0  0
   -5.2260    0.2351    1.3753 C   0  0  0  0  0  0  0  0  0  0  0  0
   -5.7774    1.5448    0.9714 C   0  0  0  0  0  0  0  0  0  0  0  0
   -7.1153    1.2358    0.2836 C   0  0  0  0  0  0  0  0  0  0  0  0
   -6.8988    0.3458   -0.9221 C   0  0  0  0  0  0  0  0  0  0  0  0
   -8.2333    0.0946   -1.5282 C   0  0  0  0  0  0  0  0  0  0  0  0
   -9.2809    0.6086   -1.0075 O   0  0  0  0  0  0  0  0  0  0  0  0
   -8.3721   -0.7033   -2.6726 O   0  0  0  0  0  0  0  0  0  0  0  0
   -1.0377    3.1208    1.4417 Cl  0  0  0  0  0  0  0  0  0  0  0  0
    3.7657   -1.7740   -2.7239 O   0  0  0  0  0  0  0  0  0  0  0  0
    7.3223   -0.5938    0.9995 H   0  0  0  0  0  0  0  0  0  0  0  0
    8.4321   -0.8090   -0.4473 H   0  0  0  0  0  0  0  0  0  0  0  0
    8.9210    0.1913    0.9664 H   0  0  0  0  0  0  0  0  0  0  0  0
    6.4723    1.3958    0.1515 H   0  0  0  0  0  0  0  0  0  0  0  0
    8.1271    1.9052   -0.3372 H   0  0  0  0  0  0  0  0  0  0  0  0
    6.6325    1.6655   -2.2371 H   0  0  0  0  0  0  0  0  0  0  0  0
    8.0670    0.4937   -2.2796 H   0  0  0  0  0  0  0  0  0  0  0  0
    5.9857   -0.5459   -3.0317 H   0  0  0  0  0  0  0  0  0  0  0  0
    6.6623   -1.3331   -1.5549 H   0  0  0  0  0  0  0  0  0  0  0  0
    5.0660   -0.1001   -0.1600 H   0  0  0  0  0  0  0  0  0  0  0  0
    4.3453    0.7129   -1.6289 H   0  0  0  0  0  0  0  0  0  0  0  0
    4.4474   -2.2230   -0.8607 H   0  0  0  0  0  0  0  0  0  0  0  0
    1.8108   -3.0245   -1.5560 H   0  0  0  0  0  0  0  0  0  0  0  0
   -0.3081   -2.6891   -0.4785 H   0  0  0  0  0  0  0  0  0  0  0  0
    1.0779    1.0034    1.2429 H   0  0  0  0  0  0  0  0  0  0  0  0
    3.1972    0.6681    0.1652 H   0  0  0  0  0  0  0  0  0  0  0  0
   -1.7080   -1.5559    0.8002 H   0  0  0  0  0  0  0  0  0  0  0  0
   -2.0254   -1.0544    2.9765 H   0  0  0  0  0  0  0  0  0  0  0  0
   -0.1707    1.2957    3.2746 H   0  0  0  0  0  0  0  0  0  0  0  0
   -1.8120    1.0296    3.8677 H   0  0  0  0  0  0  0  0  0  0  0  0
   -2.8707    1.8021    2.0317 H   0  0  0  0  0  0  0  0  0  0  0  0
   -1.1258    1.0994   -0.1245 H   0  0  0  0  0  0  0  0  0  0  0  0
   -2.9164   -0.3735   -0.7592 H   0  0  0  0  0  0  0  0  0  0  0  0
   -3.4781    1.2582   -0.4750 H   0  0  0  0  0  0  0  0  0  0  0  0
   -3.7984   -1.2522    1.3608 H   0  0  0  0  0  0  0  0  0  0  0  0
   -5.8500   -0.3549    2.0722 H   0  0  0  0  0  0  0  0  0  0  0  0
   -5.2015    2.0822    0.2303 H   0  0  0  0  0  0  0  0  0  0  0  0
   -6.0347    2.0976    1.8916 H   0  0  0  0  0  0  0  0  0  0  0  0
   -7.5766    2.1735   -0.0915 H   0  0  0  0  0  0  0  0  0  0  0  0
   -7.8262    0.7443    0.9553 H   0  0  0  0  0  0  0  0  0  0  0  0
   -6.4884   -0.6447   -0.6652 H   0  0  0  0  0  0  0  0  0  0  0  0
   -6.1974    0.7953   -1.6497 H   0  0  0  0  0  0  0  0  0  0  0  0
   -9.2085   -1.2805   -2.7583 H   0  0  0  0  0  0  0  0  0  0  0  0
    3.9085   -1.0174   -3.3489 H   0  0  0  0  0  0  0  0  0  0  0  0
  1  2  1  0
  2  3  1  0
  3  4  1  0
  4  5  1  0
  5  6  1  0
  6  7  1  0
  7  8  2  0
  8  9  1  0
  9 10  2  0
 10 11  1  0
 11 12  2  0
 10 13  1  0
 13 14  1  0
 14 15  1  0
 14 16  1  0
 16 17  1  0
 17 18  1  0
 18 19  1  0
 19 20  1  0
 20 21  2  0
 21 22  1  0
 22 23  1  0
 23 24  1  0
 24 25  1  0
 25 26  2  0
 25 27  1  0
 17 28  1  0
  6 29  1  0
 12  7  1  0
 18 13  1  0
  1 30  1  0
  1 31  1  0
  1 32  1  0
  2 33  1  0
  2 34  1  0
  3 35  1  0
  3 36  1  0
  4 37  1  0
  4 38  1  0
  5 39  1  0
  5 40  1  0
  6 41  1  0
  8 42  1  0
  9 43  1  0
 11 44  1  0
 12 45  1  0
 13 46  1  1
 14 47  1  1
 16 48  1  0
 16 49  1  0
 17 50  1  1
 18 51  1  6
 19 52  1  0
 19 53  1  0
 20 54  1  0
 21 55  1  0
 22 56  1  0
 22 57  1  0
 23 58  1  0
 23 59  1  0
 24 60  1  0
 24 61  1  0
 27 62  1  0
 29 63  1  0
M  END
>  <Ligand ID>  (1) 
LIG0004204

>  <Ligand>  (1) 
SCHEMBL3912660

>  <SMILES>  (1) 
CCCCCC(c1ccc(cc1)[C@H]1[C@@H](Cl)C[C@H]([C@@H]1C/C=C\CCCC(=O)O)Cl)O

>  <CID>  (1) 
57564500.0

>  <ChEMBL ID>  (1) 
nan

>  <InChiKey>  (1) 
ZZPVJHFTTJXWMD-LQUPIGEUSA-N

>  <InChi>  (1) 
InChI=1S/C24H34Cl2O3/c1-2-3-6-10-22(27)17-12-14-18(15-13-17)24-19(20(25)16-21(24)26)9-7-4-5-8-11-23(28)29/h4,7,12-15,19-22,24,27H,2-3,5-6,8-11,16H2,1H3,(H,28,29)/b7-4-/t19-,20+,21-,22?,24+/m0/s1

>  <IUPAC Name>  (1) 
(Z)-7-[(1R,2S,3S,5R)-3,5-dichloro-2-[4-(1-hydroxyhexyl)phenyl]cyclopentyl]hept-5-enoic acid

$$$$
