
     RDKit          3D

 53 57  0  0  0  0  0  0  0  0999 V2000
   -4.1665    3.7857   -0.8241 C   0  0  0  0  0  0  0  0  0  0  0  0
   -4.6406    2.3741   -0.6253 C   0  0  0  0  0  0  0  0  0  0  0  0
   -5.9707    2.0561   -0.4829 C   0  0  0  0  0  0  0  0  0  0  0  0
   -6.4451    0.7805   -0.2999 C   0  0  0  0  0  0  0  0  0  0  0  0
   -5.4802   -0.2309   -0.2617 C   0  0  0  0  0  0  0  0  0  0  0  0
   -4.1344    0.0355   -0.3994 C   0  0  0  0  0  0  0  0  0  0  0  0
   -3.7113    1.3246   -0.5799 C   0  0  0  0  0  0  0  0  0  0  0  0
   -3.2788   -0.9765   -0.3529 N   0  0  0  0  0  0  0  0  0  0  0  0
   -1.9500   -1.0359   -0.4527 C   0  0  0  0  0  0  0  0  0  0  0  0
   -0.7404    0.2509   -0.6937 S   0  0  0  0  0  0  0  0  0  0  0  0
   -0.2501    0.8308    0.9777 C   0  0  0  0  0  0  0  0  0  0  0  0
    0.4606   -0.2328    1.6952 C   0  0  0  0  0  0  0  0  0  0  0  0
   -0.2359   -0.9693    2.4800 O   0  0  0  0  0  0  0  0  0  0  0  0
    1.8247   -0.5340    1.6170 N   0  0  0  0  0  0  0  0  0  0  0  0
    2.7594    0.1368    0.7700 C   0  0  0  0  0  0  0  0  0  0  0  0
    2.2951    1.4747   -0.3806 S   0  0  0  0  0  0  0  0  0  0  0  0
    4.0312    1.6750   -0.9687 C   0  0  0  0  0  0  0  0  0  0  0  0
    4.6862    0.7302   -0.2315 C   0  0  0  0  0  0  0  0  0  0  0  0
    3.9440    0.0383    0.5897 N   0  0  0  0  0  0  0  0  0  0  0  0
    6.1481    0.5186   -0.3695 C   0  0  0  0  0  0  0  0  0  0  0  0
    6.8793    1.2773   -1.2509 C   0  0  0  0  0  0  0  0  0  0  0  0
    8.2307    1.1264   -1.4199 C   0  0  0  0  0  0  0  0  0  0  0  0
    8.8977    0.1765   -0.6805 C   0  0  0  0  0  0  0  0  0  0  0  0
    8.1877   -0.5991    0.2118 C   0  0  0  0  0  0  0  0  0  0  0  0
    6.8273   -0.4274    0.3633 C   0  0  0  0  0  0  0  0  0  0  0  0
    2.4065   -1.6073    2.4386 C   0  0  0  0  0  0  0  0  0  0  0  0
   -1.5948   -2.3411   -0.3333 N   0  0  0  0  0  0  0  0  0  0  0  0
   -2.6840   -3.0704   -0.1634 N   0  0  0  0  0  0  0  0  0  0  0  0
   -3.7430   -2.2166   -0.1752 C   0  0  0  0  0  0  0  0  0  0  0  0
   -5.0710   -2.5427   -0.0321 C   0  0  0  0  0  0  0  0  0  0  0  0
   -5.9818   -1.5096   -0.0766 C   0  0  0  0  0  0  0  0  0  0  0  0
   -5.5474   -3.9437    0.1650 C   0  0  0  0  0  0  0  0  0  0  0  0
   -3.1687    3.8546   -0.3438 H   0  0  0  0  0  0  0  0  0  0  0  0
   -3.9893    3.8918   -1.9174 H   0  0  0  0  0  0  0  0  0  0  0  0
   -4.8643    4.5112   -0.3973 H   0  0  0  0  0  0  0  0  0  0  0  0
   -6.6926    2.8743   -0.5184 H   0  0  0  0  0  0  0  0  0  0  0  0
   -7.4991    0.5649   -0.1913 H   0  0  0  0  0  0  0  0  0  0  0  0
   -2.6930    1.6174   -0.6941 H   0  0  0  0  0  0  0  0  0  0  0  0
    0.2342    1.8119    0.9616 H   0  0  0  0  0  0  0  0  0  0  0  0
   -1.2502    0.9975    1.4934 H   0  0  0  0  0  0  0  0  0  0  0  0
    4.3188    2.3878   -1.7049 H   0  0  0  0  0  0  0  0  0  0  0  0
    6.3940    2.0411   -1.8570 H   0  0  0  0  0  0  0  0  0  0  0  0
    8.7748    1.7385   -2.1202 H   0  0  0  0  0  0  0  0  0  0  0  0
    9.9754    0.0228   -0.7839 H   0  0  0  0  0  0  0  0  0  0  0  0
    8.6469   -1.3640    0.8253 H   0  0  0  0  0  0  0  0  0  0  0  0
    6.2804   -1.0408    1.0651 H   0  0  0  0  0  0  0  0  0  0  0  0
    3.0086   -1.2398    3.2677 H   0  0  0  0  0  0  0  0  0  0  0  0
    3.0518   -2.1961    1.7292 H   0  0  0  0  0  0  0  0  0  0  0  0
    1.5949   -2.2889    2.7105 H   0  0  0  0  0  0  0  0  0  0  0  0
   -7.0433   -1.6894    0.0287 H   0  0  0  0  0  0  0  0  0  0  0  0
   -4.9762   -4.6489   -0.4541 H   0  0  0  0  0  0  0  0  0  0  0  0
   -5.4143   -4.2286    1.2381 H   0  0  0  0  0  0  0  0  0  0  0  0
   -6.6411   -3.9722   -0.0168 H   0  0  0  0  0  0  0  0  0  0  0  0
  1  2  1  0
  2  3  2  0
  3  4  1  0
  4  5  2  0
  5  6  1  0
  6  7  2  0
  6  8  1  0
  8  9  1  0
  9 10  1  0
 10 11  1  0
 11 12  1  0
 12 13  2  0
 12 14  1  0
 14 15  1  0
 15 16  1  0
 16 17  1  0
 17 18  2  0
 18 19  1  0
 18 20  1  0
 20 21  2  0
 21 22  1  0
 22 23  2  0
 23 24  1  0
 24 25  2  0
 14 26  1  0
  9 27  2  0
 27 28  1  0
 28 29  2  0
 29 30  1  0
 30 31  2  0
 30 32  1  0
  7  2  1  0
 29  8  1  0
 31  5  1  0
 19 15  2  0
 25 20  1  0
  1 33  1  0
  1 34  1  0
  1 35  1  0
  3 36  1  0
  4 37  1  0
  7 38  1  0
 11 39  1  0
 11 40  1  0
 17 41  1  0
 21 42  1  0
 22 43  1  0
 23 44  1  0
 24 45  1  0
 25 46  1  0
 26 47  1  0
 26 48  1  0
 26 49  1  0
 31 50  1  0
 32 51  1  0
 32 52  1  0
 32 53  1  0
M  END
>  <Ligand ID>  (1) 
LIG0001732

>  <Ligand>  (1) 
ASN 03800676

>  <SMILES>  (1) 
Cc1ccc2c(c1)n1c(SCC(=O)N(c3scc(n3)c3ccccc3)C)nnc1c(c2)C

>  <CID>  (1) 
1153409.0

>  <ChEMBL ID>  (1) 
nan

>  <InChiKey>  (1) 
MITZTRNYXFKKKQ-UHFFFAOYSA-N

>  <InChi>  (1) 
InChI=1S/C24H21N5OS2/c1-15-9-10-18-12-16(2)22-26-27-24(29(22)20(18)11-15)32-14-21(30)28(3)23-25-19(13-31-23)17-7-5-4-6-8-17/h4-13H,14H2,1-3H3

>  <IUPAC Name>  (1) 
2-[(4,8-dimethyl-[1,2,4]triazolo[4,3-a]quinolin-1-yl)sulfanyl]-N-methyl-N-(4-phenyl-1,3-thiazol-2-yl)acetamide

$$$$
