
     RDKit          3D

 65 67  0  0  0  0  0  0  0  0999 V2000
    7.8452   -1.3695   -1.3523 N   0  0  0  0  0  0  0  0  0  0  0  0
    7.7662   -2.3682   -0.3041 C   0  0  0  0  0  0  0  0  0  0  0  0
    6.8363   -1.8070    0.7707 C   0  0  0  0  0  0  0  0  0  0  0  0
    5.4975   -1.5743    0.0989 C   0  0  0  0  0  0  0  0  0  0  0  0
    4.5561   -1.0149    1.1585 C   0  0  0  0  0  0  0  0  0  0  0  0
    3.2229   -0.7851    0.4835 C   0  0  0  0  0  0  0  0  0  0  0  0
    2.1821   -0.2320    1.4102 C   0  0  0  0  0  0  0  0  0  0  0  0
    0.9212   -0.0282    0.7252 N   0  0  0  0  0  0  0  0  0  0  0  0
    0.7667    0.8384   -0.3920 C   0  0  0  0  0  0  0  0  0  0  0  0
    1.7407    1.4998   -0.8657 O   0  0  0  0  0  0  0  0  0  0  0  0
   -0.5396    1.0223   -1.0723 C   0  0  2  0  0  0  0  0  0  0  0  0
   -0.9806    2.4166   -1.2581 C   0  0  0  0  0  0  0  0  0  0  0  0
   -1.1630    3.2317   -0.0631 C   0  0  0  0  0  0  0  0  0  0  0  0
   -0.9965    2.9771    1.2769 C   0  0  0  0  0  0  0  0  0  0  0  0
   -1.2850    4.0403    2.0277 N   0  0  0  0  0  0  0  0  0  0  0  0
   -1.6497    5.0220    1.1862 C   0  0  0  0  0  0  0  0  0  0  0  0
   -1.5883    4.5653   -0.1125 C   0  0  0  0  0  0  0  0  0  0  0  0
   -1.9241    5.4142   -1.1627 C   0  0  0  0  0  0  0  0  0  0  0  0
   -2.3204    6.7109   -0.9447 C   0  0  0  0  0  0  0  0  0  0  0  0
   -2.3826    7.1716    0.3630 C   0  0  0  0  0  0  0  0  0  0  0  0
   -2.0505    6.3311    1.3963 C   0  0  0  0  0  0  0  0  0  0  0  0
   -1.5422    0.2328   -0.4218 N   0  0  0  0  0  0  0  0  0  0  0  0
   -2.1030   -0.8743   -1.1610 C   0  0  0  0  0  0  0  0  0  0  0  0
   -1.7396   -1.1471   -2.3297 O   0  0  0  0  0  0  0  0  0  0  0  0
   -3.1037   -1.7048   -0.5739 N   0  0  0  0  0  0  0  0  0  0  0  0
   -3.6527   -2.8116   -1.3337 C   0  0  0  0  0  0  0  0  0  0  0  0
   -4.6438   -3.5601   -0.5514 C   0  0  0  0  0  0  0  0  0  0  0  0
   -5.9919   -3.2694   -0.5349 C   0  0  0  0  0  0  0  0  0  0  0  0
   -6.8211   -4.0634    0.2534 C   0  0  0  0  0  0  0  0  0  0  0  0
   -6.3451   -5.1066    0.9998 C   0  0  0  0  0  0  0  0  0  0  0  0
   -5.0007   -5.4041    0.9893 C   0  0  0  0  0  0  0  0  0  0  0  0
   -4.1640   -4.6289    0.2147 C   0  0  0  0  0  0  0  0  0  0  0  0
    7.6546   -0.4142   -0.9481 H   0  0  0  0  0  0  0  0  0  0  0  0
    7.0861   -1.5208   -2.0767 H   0  0  0  0  0  0  0  0  0  0  0  0
    7.3194   -3.2718   -0.7398 H   0  0  0  0  0  0  0  0  0  0  0  0
    8.7828   -2.5296    0.1301 H   0  0  0  0  0  0  0  0  0  0  0  0
    6.7101   -2.5415    1.5971 H   0  0  0  0  0  0  0  0  0  0  0  0
    7.2397   -0.8660    1.1749 H   0  0  0  0  0  0  0  0  0  0  0  0
    5.6647   -0.8529   -0.7198 H   0  0  0  0  0  0  0  0  0  0  0  0
    5.1260   -2.5376   -0.2907 H   0  0  0  0  0  0  0  0  0  0  0  0
    4.9258   -0.0427    1.5360 H   0  0  0  0  0  0  0  0  0  0  0  0
    4.4795   -1.7722    1.9650 H   0  0  0  0  0  0  0  0  0  0  0  0
    2.8931   -1.7836    0.1138 H   0  0  0  0  0  0  0  0  0  0  0  0
    3.3523   -0.1088   -0.3646 H   0  0  0  0  0  0  0  0  0  0  0  0
    2.5259    0.7186    1.8684 H   0  0  0  0  0  0  0  0  0  0  0  0
    2.0044   -0.9184    2.2478 H   0  0  0  0  0  0  0  0  0  0  0  0
    0.0323   -0.5265    1.0301 H   0  0  0  0  0  0  0  0  0  0  0  0
   -0.3992    0.5941   -2.1161 H   0  0  0  0  0  0  0  0  0  0  0  0
   -1.9883    2.3705   -1.7677 H   0  0  0  0  0  0  0  0  0  0  0  0
   -0.3494    2.9630   -2.0117 H   0  0  0  0  0  0  0  0  0  0  0  0
   -0.6713    2.0354    1.6881 H   0  0  0  0  0  0  0  0  0  0  0  0
   -1.2610    4.1737    3.0614 H   0  0  0  0  0  0  0  0  0  0  0  0
   -1.8650    5.0247   -2.1655 H   0  0  0  0  0  0  0  0  0  0  0  0
   -2.5825    7.3711   -1.7733 H   0  0  0  0  0  0  0  0  0  0  0  0
   -2.6947    8.1919    0.5330 H   0  0  0  0  0  0  0  0  0  0  0  0
   -2.1017    6.6968    2.4068 H   0  0  0  0  0  0  0  0  0  0  0  0
   -1.9155    0.3654    0.5261 H   0  0  0  0  0  0  0  0  0  0  0  0
   -3.4579   -1.5371    0.4012 H   0  0  0  0  0  0  0  0  0  0  0  0
   -2.8430   -3.4872   -1.7154 H   0  0  0  0  0  0  0  0  0  0  0  0
   -4.0843   -2.3618   -2.2633 H   0  0  0  0  0  0  0  0  0  0  0  0
   -6.3633   -2.4446   -1.1263 H   0  0  0  0  0  0  0  0  0  0  0  0
   -7.8808   -3.8613    0.2874 H   0  0  0  0  0  0  0  0  0  0  0  0
   -6.9749   -5.7292    1.6144 H   0  0  0  0  0  0  0  0  0  0  0  0
   -4.6034   -6.2402    1.5843 H   0  0  0  0  0  0  0  0  0  0  0  0
   -3.1073   -4.8820    0.2219 H   0  0  0  0  0  0  0  0  0  0  0  0
  1  2  1  0
  2  3  1  0
  3  4  1  0
  4  5  1  0
  5  6  1  0
  6  7  1  0
  7  8  1  0
  8  9  1  0
  9 10  2  0
  9 11  1  0
 11 12  1  0
 12 13  1  0
 13 14  2  0
 14 15  1  0
 15 16  1  0
 16 17  2  0
 17 18  1  0
 18 19  2  0
 19 20  1  0
 20 21  2  0
 11 22  1  0
 22 23  1  0
 23 24  2  0
 23 25  1  0
 25 26  1  0
 26 27  1  0
 27 28  2  0
 28 29  1  0
 29 30  2  0
 30 31  1  0
 31 32  2  0
 17 13  1  0
 32 27  1  0
 21 16  1  0
  1 33  1  0
  1 34  1  0
  2 35  1  0
  2 36  1  0
  3 37  1  0
  3 38  1  0
  4 39  1  0
  4 40  1  0
  5 41  1  0
  5 42  1  0
  6 43  1  0
  6 44  1  0
  7 45  1  0
  7 46  1  0
  8 47  1  0
 11 48  1  6
 12 49  1  0
 12 50  1  0
 14 51  1  0
 15 52  1  0
 18 53  1  0
 19 54  1  0
 20 55  1  0
 21 56  1  0
 22 57  1  0
 25 58  1  0
 26 59  1  0
 26 60  1  0
 28 61  1  0
 29 62  1  0
 30 63  1  0
 31 64  1  0
 32 65  1  0
M  END
>  <Ligand ID>  (1) 
LIG0001267

>  <Ligand>  (1) 
CHEMBL303283

>  <SMILES>  (1) 
NCCCCCCNC(=O)[C@H](Cc1c[nH]c2c1cccc2)NC(=O)NCc1ccccc1

>  <CID>  (1) 
44305806.0

>  <ChEMBL ID>  (1) 
nan

>  <InChiKey>  (1) 
UGXCXESQVHWUAG-QHCPKHFHSA-N

>  <InChi>  (1) 
InChI=1S/C25H33N5O2/c26-14-8-1-2-9-15-27-24(31)23(16-20-18-28-22-13-7-6-12-21(20)22)30-25(32)29-17-19-10-4-3-5-11-19/h3-7,10-13,18,23,28H,1-2,8-9,14-17,26H2,(H,27,31)(H2,29,30,32)/t23-/m0/s1

>  <IUPAC Name>  (1) 
(2S)-N-(6-aminohexyl)-2-(benzylcarbamoylamino)-3-(1H-indol-3-yl)propanamide

$$$$
