
     RDKit          3D

137139  0  0  0  0  0  0  0  0999 V2000
   10.8429   -3.1656   -0.5131 N   0  0  0  0  0  0  0  0  0  0  0  0
   10.1709   -2.7881    0.7158 C   0  0  0  0  0  0  0  0  0  0  0  0
    8.7176   -2.6106    0.5910 C   0  0  0  0  0  0  0  0  0  0  0  0
    8.0989   -1.6695   -0.3333 C   0  0  0  0  0  0  0  0  0  0  0  0
    8.3221   -0.2077   -0.2834 C   0  0  1  0  0  0  0  0  0  0  0  0
    9.6362    0.3446   -0.5041 C   0  0  0  0  0  0  0  0  0  0  0  0
   10.7235    0.0344    0.0410 O   0  0  0  0  0  0  0  0  0  0  0  0
    9.7807    1.4059   -1.4825 N   0  0  0  0  0  0  0  0  0  0  0  0
   11.1111    1.9194   -1.6855 C   0  0  0  0  0  0  0  0  0  0  0  0
   12.0611    0.8731   -2.1554 C   0  0  0  0  0  0  0  0  0  0  0  0
   13.2634    1.2588   -2.3548 O   0  0  0  0  0  0  0  0  0  0  0  0
   11.6834   -0.4681   -2.3762 N   0  0  0  0  0  0  0  0  0  0  0  0
    7.2500    0.5002   -1.0185 N   0  0  0  0  0  0  0  0  0  0  0  0
    6.0409    0.8464   -0.3489 C   0  0  0  0  0  0  0  0  0  0  0  0
    5.9485    0.5038    0.8544 O   0  0  0  0  0  0  0  0  0  0  0  0
    4.9161    1.5671   -0.9799 C   0  0  2  0  0  0  0  0  0  0  0  0
    4.9281    3.0405   -0.5048 C   0  0  0  0  0  0  0  0  0  0  0  0
    4.6007    2.8636    0.9837 C   0  0  0  0  0  0  0  0  0  0  0  0
    3.6238    1.6890    1.0279 C   0  0  0  0  0  0  0  0  0  0  0  0
    3.6170    1.2151   -0.3297 N   0  0  0  0  0  0  0  0  0  0  0  0
    2.6670    0.4492   -1.0656 C   0  0  0  0  0  0  0  0  0  0  0  0
    2.9532    0.3705   -2.3406 O   0  0  0  0  0  0  0  0  0  0  0  0
    1.4901   -0.2370   -0.6744 C   0  0  2  0  0  0  0  0  0  0  0  0
    0.2270    0.5057   -1.1806 C   0  0  0  0  0  0  0  0  0  0  0  0
   -0.0681    2.0219   -0.3076 S   0  0  0  0  0  0  0  0  0  0  0  0
    1.1384    3.6453   -0.7308 S   0  0  0  0  0  0  0  0  0  0  0  0
    0.4505    4.7595   -1.9777 C   0  0  0  0  0  0  0  0  0  0  0  0
   -0.7827    5.4007   -1.3603 C   0  0  2  0  0  0  0  0  0  0  0  0
   -0.5012    5.7862   -0.0136 N   0  0  0  0  0  0  0  0  0  0  0  0
   -2.0333    4.6917   -1.6032 C   0  0  0  0  0  0  0  0  0  0  0  0
   -2.5562    4.8221   -2.7384 O   0  0  0  0  0  0  0  0  0  0  0  0
   -2.7420    3.8597   -0.7161 N   0  0  0  0  0  0  0  0  0  0  0  0
   -4.0403    3.2094   -1.0104 C   0  0  1  0  0  0  0  0  0  0  0  0
   -3.9049    2.3441   -2.2760 C   0  0  0  0  0  0  0  0  0  0  0  0
   -5.1492    1.6586   -2.6607 C   0  0  0  0  0  0  0  0  0  0  0  0
   -6.1363    2.4268   -3.2742 C   0  0  0  0  0  0  0  0  0  0  0  0
   -7.3314    1.8592   -3.7028 C   0  0  0  0  0  0  0  0  0  0  0  0
   -7.5868    0.5186   -3.5400 C   0  0  0  0  0  0  0  0  0  0  0  0
   -6.5835   -0.2234   -2.9253 C   0  0  0  0  0  0  0  0  0  0  0  0
   -5.3956    0.3168   -2.4949 C   0  0  0  0  0  0  0  0  0  0  0  0
   -4.4961    2.4865    0.1670 C   0  0  0  0  0  0  0  0  0  0  0  0
   -3.7035    2.5182    1.1769 O   0  0  0  0  0  0  0  0  0  0  0  0
   -5.6664    1.7473    0.4047 N   0  0  0  0  0  0  0  0  0  0  0  0
   -5.7851    1.0700    1.7405 C   0  0  2  0  0  0  0  0  0  0  0  0
   -5.0714   -0.2340    1.6355 C   0  0  0  0  0  0  0  0  0  0  0  0
   -4.8448   -0.6811    0.5215 O   0  0  0  0  0  0  0  0  0  0  0  0
   -4.6105   -1.0113    2.7274 N   0  0  0  0  0  0  0  0  0  0  0  0
   -3.8301   -2.2546    2.5301 C   0  0  2  0  0  0  0  0  0  0  0  0
   -2.4392   -1.7690    2.6633 C   0  0  0  0  0  0  0  0  0  0  0  0
   -2.3011   -0.5681    2.9864 O   0  0  0  0  0  0  0  0  0  0  0  0
   -1.2466   -2.4959    2.4665 N   0  0  0  0  0  0  0  0  0  0  0  0
    0.0030   -1.7185    2.6089 C   0  0  2  0  0  0  0  0  0  0  0  0
    0.3184   -1.4444    1.1587 C   0  0  0  0  0  0  0  0  0  0  0  0
   -0.2239   -2.0428    0.2226 O   0  0  0  0  0  0  0  0  0  0  0  0
    1.2777   -0.4468    0.7713 N   0  0  0  0  0  0  0  0  0  0  0  0
    1.0780   -2.4810    3.3127 C   0  0  0  0  0  0  0  0  0  0  0  0
    1.4533   -3.7219    2.6124 C   0  0  0  0  0  0  0  0  0  0  0  0
    1.7965   -3.6198    1.3940 O   0  0  0  0  0  0  0  0  0  0  0  0
    1.4445   -5.0156    3.2378 N   0  0  0  0  0  0  0  0  0  0  0  0
   -4.0069   -2.9046    1.1910 C   0  0  0  0  0  0  0  0  0  0  0  0
   -5.4162   -3.2983    0.9579 C   0  0  0  0  0  0  0  0  0  0  0  0
   -6.2535   -3.1116    1.8488 O   0  0  0  0  0  0  0  0  0  0  0  0
   -5.7313   -3.8895   -0.3231 N   0  0  0  0  0  0  0  0  0  0  0  0
   -7.1184   -4.2685   -0.5170 C   0  0  0  0  0  0  0  0  0  0  0  0
   -7.3238   -4.8787   -1.8931 C   0  0  0  0  0  0  0  0  0  0  0  0
   -6.9722   -3.9474   -2.8557 O   0  0  0  0  0  0  0  0  0  0  0  0
   -7.2058    0.8486    2.0924 C   0  0  2  0  0  0  0  0  0  0  0  0
   -7.4213    0.1683    3.3999 C   0  0  0  0  0  0  0  0  0  0  0  0
   -8.9500    0.0615    3.5920 C   0  0  0  0  0  0  0  0  0  0  0  0
   -7.7814   -0.0929    1.0163 C   0  0  0  0  0  0  0  0  0  0  0  0
   10.3802   -2.7855   -1.3570 H   0  0  0  0  0  0  0  0  0  0  0  0
   11.8635   -3.0245   -0.4514 H   0  0  0  0  0  0  0  0  0  0  0  0
   10.2714   -3.7780    1.3403 H   0  0  0  0  0  0  0  0  0  0  0  0
   10.7582   -2.1061    1.3140 H   0  0  0  0  0  0  0  0  0  0  0  0
    8.3023   -3.6462    0.3042 H   0  0  0  0  0  0  0  0  0  0  0  0
    8.2550   -2.4793    1.6306 H   0  0  0  0  0  0  0  0  0  0  0  0
    6.9651   -1.7965   -0.1984 H   0  0  0  0  0  0  0  0  0  0  0  0
    8.2186   -2.0798   -1.3875 H   0  0  0  0  0  0  0  0  0  0  0  0
    8.0617    0.0610    0.8104 H   0  0  0  0  0  0  0  0  0  0  0  0
    8.9962    1.7901   -2.0125 H   0  0  0  0  0  0  0  0  0  0  0  0
   11.0757    2.7064   -2.4810 H   0  0  0  0  0  0  0  0  0  0  0  0
   11.4852    2.3707   -0.7622 H   0  0  0  0  0  0  0  0  0  0  0  0
   10.8370   -0.7286   -2.8894 H   0  0  0  0  0  0  0  0  0  0  0  0
   12.2824   -1.2403   -2.0089 H   0  0  0  0  0  0  0  0  0  0  0  0
    7.3349    0.7507   -2.0215 H   0  0  0  0  0  0  0  0  0  0  0  0
    4.8871    1.4641   -2.0545 H   0  0  0  0  0  0  0  0  0  0  0  0
    4.1519    3.6224   -1.0344 H   0  0  0  0  0  0  0  0  0  0  0  0
    5.9270    3.4528   -0.6439 H   0  0  0  0  0  0  0  0  0  0  0  0
    4.0551    3.7772    1.2968 H   0  0  0  0  0  0  0  0  0  0  0  0
    5.5151    2.6877    1.5704 H   0  0  0  0  0  0  0  0  0  0  0  0
    3.9074    0.9470    1.7848 H   0  0  0  0  0  0  0  0  0  0  0  0
    2.6050    2.1005    1.3252 H   0  0  0  0  0  0  0  0  0  0  0  0
    1.3666   -1.2533   -1.1310 H   0  0  0  0  0  0  0  0  0  0  0  0
   -0.6397   -0.1901   -1.1473 H   0  0  0  0  0  0  0  0  0  0  0  0
    0.3713    0.6949   -2.2802 H   0  0  0  0  0  0  0  0  0  0  0  0
    1.1554    5.4651   -2.4083 H   0  0  0  0  0  0  0  0  0  0  0  0
    0.0689    4.1011   -2.8082 H   0  0  0  0  0  0  0  0  0  0  0  0
   -0.8848    6.4162   -1.9122 H   0  0  0  0  0  0  0  0  0  0  0  0
   -0.8722    5.0794    0.6708 H   0  0  0  0  0  0  0  0  0  0  0  0
    0.5375    5.8667    0.1111 H   0  0  0  0  0  0  0  0  0  0  0  0
   -2.3328    3.7175    0.2035 H   0  0  0  0  0  0  0  0  0  0  0  0
   -4.6648    4.0523   -1.3893 H   0  0  0  0  0  0  0  0  0  0  0  0
   -3.6393    2.9924   -3.1235 H   0  0  0  0  0  0  0  0  0  0  0  0
   -3.0657    1.6268   -2.1632 H   0  0  0  0  0  0  0  0  0  0  0  0
   -6.0280    3.4800   -3.4505 H   0  0  0  0  0  0  0  0  0  0  0  0
   -8.1036    2.4512   -4.1800 H   0  0  0  0  0  0  0  0  0  0  0  0
   -8.4942    0.0276   -3.8545 H   0  0  0  0  0  0  0  0  0  0  0  0
   -6.7780   -1.2712   -2.7878 H   0  0  0  0  0  0  0  0  0  0  0  0
   -4.6032   -0.2616   -2.0422 H   0  0  0  0  0  0  0  0  0  0  0  0
   -6.3784    1.7138   -0.2968 H   0  0  0  0  0  0  0  0  0  0  0  0
   -5.2579    1.6599    2.4829 H   0  0  0  0  0  0  0  0  0  0  0  0
   -4.8289   -0.6648    3.6562 H   0  0  0  0  0  0  0  0  0  0  0  0
   -4.0499   -2.9983    3.2982 H   0  0  0  0  0  0  0  0  0  0  0  0
   -1.3082   -3.4702    2.2478 H   0  0  0  0  0  0  0  0  0  0  0  0
   -0.1644   -0.7582    3.1342 H   0  0  0  0  0  0  0  0  0  0  0  0
    1.7367    0.0246    1.5241 H   0  0  0  0  0  0  0  0  0  0  0  0
    0.7318   -2.7424    4.3149 H   0  0  0  0  0  0  0  0  0  0  0  0
    1.9401   -1.7776    3.4083 H   0  0  0  0  0  0  0  0  0  0  0  0
    1.8429   -5.2200    4.1546 H   0  0  0  0  0  0  0  0  0  0  0  0
    0.9718   -5.7697    2.6524 H   0  0  0  0  0  0  0  0  0  0  0  0
   -3.4850   -2.4605    0.3528 H   0  0  0  0  0  0  0  0  0  0  0  0
   -3.4836   -3.9222    1.3014 H   0  0  0  0  0  0  0  0  0  0  0  0
   -5.0046   -4.0317   -1.0579 H   0  0  0  0  0  0  0  0  0  0  0  0
   -7.8355   -3.4515   -0.2982 H   0  0  0  0  0  0  0  0  0  0  0  0
   -7.3967   -5.1094    0.1933 H   0  0  0  0  0  0  0  0  0  0  0  0
   -6.6907   -5.7950   -1.9833 H   0  0  0  0  0  0  0  0  0  0  0  0
   -8.3799   -5.2230   -1.9986 H   0  0  0  0  0  0  0  0  0  0  0  0
   -7.3083   -4.2753   -3.7295 H   0  0  0  0  0  0  0  0  0  0  0  0
   -7.8206    1.7864    2.0063 H   0  0  0  0  0  0  0  0  0  0  0  0
   -6.9411    0.6925    4.2210 H   0  0  0  0  0  0  0  0  0  0  0  0
   -7.0817   -0.8986    3.2564 H   0  0  0  0  0  0  0  0  0  0  0  0
   -9.1208    0.0130    4.6911 H   0  0  0  0  0  0  0  0  0  0  0  0
   -9.3354   -0.8121    3.0558 H   0  0  0  0  0  0  0  0  0  0  0  0
   -9.4135    0.9933    3.2115 H   0  0  0  0  0  0  0  0  0  0  0  0
   -7.1332   -0.1100    0.1139 H   0  0  0  0  0  0  0  0  0  0  0  0
   -8.7587    0.2934    0.6667 H   0  0  0  0  0  0  0  0  0  0  0  0
   -7.9988   -1.0892    1.4409 H   0  0  0  0  0  0  0  0  0  0  0  0
  1  2  1  0
  2  3  1  0
  3  4  1  0
  4  5  1  0
  5  6  1  0
  6  7  2  0
  6  8  1  0
  8  9  1  0
  9 10  1  0
 10 11  2  0
 10 12  1  0
  5 13  1  0
 13 14  1  0
 14 15  2  0
 14 16  1  0
 16 17  1  0
 17 18  1  0
 18 19  1  0
 19 20  1  0
 20 21  1  0
 21 22  2  0
 21 23  1  0
 23 24  1  0
 24 25  1  0
 25 26  1  0
 26 27  1  0
 27 28  1  0
 28 29  1  0
 28 30  1  0
 30 31  2  0
 30 32  1  0
 32 33  1  0
 33 34  1  0
 34 35  1  0
 35 36  2  0
 36 37  1  0
 37 38  2  0
 38 39  1  0
 39 40  2  0
 33 41  1  0
 41 42  2  0
 41 43  1  0
 43 44  1  0
 44 45  1  0
 45 46  2  0
 45 47  1  0
 47 48  1  0
 48 49  1  0
 49 50  2  0
 49 51  1  0
 51 52  1  0
 52 53  1  0
 53 54  2  0
 53 55  1  0
 52 56  1  0
 56 57  1  0
 57 58  2  0
 57 59  1  0
 48 60  1  0
 60 61  1  0
 61 62  2  0
 61 63  1  0
 63 64  1  0
 64 65  1  0
 65 66  1  0
 44 67  1  0
 67 68  1  0
 68 69  1  0
 67 70  1  0
 20 16  1  0
 55 23  1  0
 40 35  1  0
  1 71  1  0
  1 72  1  0
  2 73  1  0
  2 74  1  0
  3 75  1  0
  3 76  1  0
  4 77  1  0
  4 78  1  0
  5 79  1  1
  8 80  1  0
  9 81  1  0
  9 82  1  0
 12 83  1  0
 12 84  1  0
 13 85  1  0
 16 86  1  6
 17 87  1  0
 17 88  1  0
 18 89  1  0
 18 90  1  0
 19 91  1  0
 19 92  1  0
 23 93  1  6
 24 94  1  0
 24 95  1  0
 27 96  1  0
 27 97  1  0
 28 98  1  6
 29 99  1  0
 29100  1  0
 32101  1  0
 33102  1  6
 34103  1  0
 34104  1  0
 36105  1  0
 37106  1  0
 38107  1  0
 39108  1  0
 40109  1  0
 43110  1  0
 44111  1  1
 47112  1  0
 48113  1  1
 51114  1  0
 52115  1  1
 55116  1  0
 56117  1  0
 56118  1  0
 59119  1  0
 59120  1  0
 60121  1  0
 60122  1  0
 63123  1  0
 64124  1  0
 64125  1  0
 65126  1  0
 65127  1  0
 66128  1  0
 67129  1  1
 68130  1  0
 68131  1  0
 69132  1  0
 69133  1  0
 69134  1  0
 70135  1  0
 70136  1  0
 70137  1  0
M  END
>  <Ligand ID>  (1) 
LIG0001591

>  <Ligand>  (1) 
CHEMBL1817697

>  <SMILES>  (1) 
NCCC[C@@H](C(=O)NCC(=O)N)NC(=O)[C@@H]1CCCN1C(=O)[C@@H]1CSSC[C@H](N)C(=O)N[C@@H](Cc2ccccc2)C(=O)N[C@H](C(=O)N[C@H](C(=O)N[C@H](C(=O)N1)CC(=O)N)CC(=O)NCCO)[C@H](CC)C

>  <CID>  (1) 
53362310.0

>  <ChEMBL ID>  (1) 
nan

>  <InChiKey>  (1) 
SXCJYTVHEWISEK-GHDRINTISA-N

>  <InChi>  (1) 
InChI=1S/C43H67N13O12S2/c1-3-23(2)35-42(67)53-29(19-34(60)48-14-16-57)39(64)52-28(18-32(46)58)38(63)54-30(22-70-69-21-25(45)36(61)51-27(40(65)55-35)17-24-9-5-4-6-10-24)43(68)56-15-8-12-31(56)41(66)50-26(11-7-13-44)37(62)49-20-33(47)59/h4-6,9-10,23,25-31,35,57H,3,7-8,11-22,44-45H2,1-2H3,(H2,46,58)(H2,47,59)(H,48,60)(H,49,62)(H,50,66)(H,51,61)(H,52,64)(H,53,67)(H,54,63)(H,55,65)/t23-,25-,26-,27-,28-,29-,30-,31-,35-/m0/s1

>  <IUPAC Name>  (1) 
(2S)-N-[(2S)-5-amino-1-[(2-amino-2-oxoethyl)amino]-1-oxopentan-2-yl]-1-[(4R,7S,10S,13S,16S,19R)-19-amino-7-(2-amino-2-oxoethyl)-16-benzyl-13-[(2S)-butan-2-yl]-10-[2-(2-hydroxyethylamino)-2-oxoethyl]-6,9,12,15,18-pentaoxo-1,2-dithia-5,8,11,14,17-pentazacycloicosane-4-carbonyl]pyrrolidine-2-carboxamide

$$$$
