
     RDKit          3D

 48 51  0  0  0  0  0  0  0  0999 V2000
    1.8125    1.3324    1.7943 C   0  0  0  0  0  0  0  0  0  0  0  0
    1.4952    1.0452    0.3599 C   0  0  2  0  0  0  0  0  0  0  0  0
    0.0353    0.6721    0.2099 C   0  0  0  0  0  0  0  0  0  0  0  0
   -0.3025   -0.5779    0.7609 N   0  0  0  0  0  0  0  0  0  0  0  0
    0.6918   -1.5020    1.1047 C   0  0  0  0  0  0  0  0  0  0  0  0
    2.0831   -1.2738    0.6728 C   0  0  0  0  0  0  0  0  0  0  0  0
    2.2535   -0.0884   -0.2476 C   0  0  2  0  0  0  0  0  0  0  0  0
    3.6438    0.1610   -0.5832 C   0  0  0  0  0  0  0  0  0  0  0  0
    4.5165    0.9764    0.0875 C   0  0  0  0  0  0  0  0  0  0  0  0
    5.8358    1.1663   -0.2942 C   0  0  0  0  0  0  0  0  0  0  0  0
    6.3295    0.5146   -1.4046 C   0  0  0  0  0  0  0  0  0  0  0  0
    5.4773   -0.3147   -2.1036 C   0  0  0  0  0  0  0  0  0  0  0  0
    4.1676   -0.4916   -1.7091 C   0  0  0  0  0  0  0  0  0  0  0  0
    3.3966   -1.3135   -2.4376 F   0  0  0  0  0  0  0  0  0  0  0  0
    7.9892    0.7337   -1.9114 Cl  0  0  0  0  0  0  0  0  0  0  0  0
   -1.4571   -0.5646    1.6233 C   0  0  0  0  0  0  0  0  0  0  0  0
   -2.6798   -0.1124    0.9337 C   0  0  0  0  0  0  0  0  0  0  0  0
   -3.0822    1.1644    0.8652 N   0  0  0  0  0  0  0  0  0  0  0  0
   -4.2242    1.2425    0.1728 C   0  0  0  0  0  0  0  0  0  0  0  0
   -4.5685   -0.0334   -0.2184 C   0  0  0  0  0  0  0  0  0  0  0  0
   -3.5932   -0.8415    0.2688 N   0  0  0  0  0  0  0  0  0  0  0  0
   -3.5326   -2.2641    0.1063 C   0  0  0  0  0  0  0  0  0  0  0  0
   -5.7017   -0.3135   -0.9557 C   0  0  0  0  0  0  0  0  0  0  0  0
   -6.5174    0.7558   -1.3080 C   0  0  0  0  0  0  0  0  0  0  0  0
   -6.1769    2.0345   -0.9187 C   0  0  0  0  0  0  0  0  0  0  0  0
   -5.0532    2.2348   -0.1984 N   0  0  0  0  0  0  0  0  0  0  0  0
    0.8377    1.3256    2.3670 H   0  0  0  0  0  0  0  0  0  0  0  0
    2.2075    2.3600    1.9753 H   0  0  0  0  0  0  0  0  0  0  0  0
    2.4349    0.5914    2.3044 H   0  0  0  0  0  0  0  0  0  0  0  0
    1.6648    1.9676   -0.2278 H   0  0  0  0  0  0  0  0  0  0  0  0
   -0.5550    1.4652    0.7302 H   0  0  0  0  0  0  0  0  0  0  0  0
   -0.1932    0.7019   -0.8791 H   0  0  0  0  0  0  0  0  0  0  0  0
    0.3263   -2.5269    0.8008 H   0  0  0  0  0  0  0  0  0  0  0  0
    0.7007   -1.5775    2.2330 H   0  0  0  0  0  0  0  0  0  0  0  0
    2.4202   -2.1558    0.0661 H   0  0  0  0  0  0  0  0  0  0  0  0
    2.8135   -1.2523    1.5200 H   0  0  0  0  0  0  0  0  0  0  0  0
    1.6933   -0.3674   -1.1843 H   0  0  0  0  0  0  0  0  0  0  0  0
    4.1783    1.4962    0.9458 H   0  0  0  0  0  0  0  0  0  0  0  0
    6.5120    1.8092    0.2402 H   0  0  0  0  0  0  0  0  0  0  0  0
    5.8896   -0.8193   -2.9778 H   0  0  0  0  0  0  0  0  0  0  0  0
   -1.2295    0.1133    2.4710 H   0  0  0  0  0  0  0  0  0  0  0  0
   -1.6328   -1.5654    2.0334 H   0  0  0  0  0  0  0  0  0  0  0  0
   -2.8403   -2.6062   -0.6946 H   0  0  0  0  0  0  0  0  0  0  0  0
   -3.3153   -2.8209    1.0469 H   0  0  0  0  0  0  0  0  0  0  0  0
   -4.5368   -2.6466   -0.2371 H   0  0  0  0  0  0  0  0  0  0  0  0
   -5.9726   -1.3203   -1.2640 H   0  0  0  0  0  0  0  0  0  0  0  0
   -7.4292    0.6134   -1.8896 H   0  0  0  0  0  0  0  0  0  0  0  0
   -6.8125    2.8726   -1.1925 H   0  0  0  0  0  0  0  0  0  0  0  0
  1  2  1  0
  2  3  1  0
  3  4  1  0
  4  5  1  0
  5  6  1  0
  6  7  1  0
  7  8  1  0
  8  9  2  0
  9 10  1  0
 10 11  2  0
 11 12  1  0
 12 13  2  0
 13 14  1  0
 11 15  1  0
  4 16  1  0
 16 17  1  0
 17 18  2  0
 18 19  1  0
 19 20  2  0
 20 21  1  0
 21 22  1  0
 20 23  1  0
 23 24  2  0
 24 25  1  0
 25 26  2  0
  7  2  1  0
 13  8  1  0
 21 17  1  0
 26 19  1  0
  1 27  1  0
  1 28  1  0
  1 29  1  0
  2 30  1  6
  3 31  1  0
  3 32  1  0
  5 33  1  0
  5 34  1  0
  6 35  1  0
  6 36  1  0
  7 37  1  6
  9 38  1  0
 10 39  1  0
 12 40  1  0
 16 41  1  0
 16 42  1  0
 22 43  1  0
 22 44  1  0
 22 45  1  0
 23 46  1  0
 24 47  1  0
 25 48  1  0
M  END
>  <Ligand ID>  (1) 
LIG0005263

>  <Ligand>  (1) 
CHEMBL1774230

>  <SMILES>  (1) 
C[C@@H]1CN(CC[C@@H]1c1ccc(cc1F)Cl)Cc1nc2c(n1C)cccn2

>  <CID>  (1) 
51354011.0

>  <ChEMBL ID>  (1) 
nan

>  <InChiKey>  (1) 
HUDWYYYFRVUKIA-HIFRSBDPSA-N

>  <InChi>  (1) 
InChI=1S/C20H22ClFN4/c1-13-11-26(9-7-15(13)16-6-5-14(21)10-17(16)22)12-19-24-20-18(25(19)2)4-3-8-23-20/h3-6,8,10,13,15H,7,9,11-12H2,1-2H3/t13-,15+/m1/s1

>  <IUPAC Name>  (1) 
2-[[(3S,4S)-4-(4-chloro-2-fluorophenyl)-3-methylpiperidin-1-yl]methyl]-1-methylimidazo[4,5-b]pyridine

$$$$
