
     RDKit          3D

 25 24  0  0  0  0  0  0  0  0999 V2000
   -2.2179   -2.9776    0.0748 O   0  0  0  0  0  0  0  0  0  0  0  0
   -1.3033   -2.1188   -0.5751 C   0  0  0  0  0  0  0  0  0  0  0  0
   -1.1258   -0.8877    0.2628 C   0  0  0  0  0  0  0  0  0  0  0  0
   -0.2066    0.0037   -0.3704 N   0  0  0  0  0  0  0  0  0  0  0  0
    1.1126   -0.6231   -0.2391 C   0  0  0  0  0  0  0  0  0  0  0  0
    2.2390    0.1489   -0.8495 C   0  0  0  0  0  0  0  0  0  0  0  0
    3.3953   -0.6542   -0.6110 O   0  0  0  0  0  0  0  0  0  0  0  0
   -0.0683    1.2866    0.2396 C   0  0  0  0  0  0  0  0  0  0  0  0
   -1.2538    2.1967    0.2304 C   0  0  0  0  0  0  0  0  0  0  0  0
   -0.8455    3.3807    0.8797 O   0  0  0  0  0  0  0  0  0  0  0  0
   -2.6321   -2.4626    0.8016 H   0  0  0  0  0  0  0  0  0  0  0  0
   -0.3807   -2.6557   -0.7770 H   0  0  0  0  0  0  0  0  0  0  0  0
   -1.8354   -1.8666   -1.5291 H   0  0  0  0  0  0  0  0  0  0  0  0
   -2.1266   -0.4741    0.4527 H   0  0  0  0  0  0  0  0  0  0  0  0
   -0.7063   -1.2612    1.2494 H   0  0  0  0  0  0  0  0  0  0  0  0
    1.1807   -1.6505   -0.5543 H   0  0  0  0  0  0  0  0  0  0  0  0
    1.3462   -0.6314    0.8737 H   0  0  0  0  0  0  0  0  0  0  0  0
    2.4759    1.0930   -0.3627 H   0  0  0  0  0  0  0  0  0  0  0  0
    2.1562    0.2391   -1.9674 H   0  0  0  0  0  0  0  0  0  0  0  0
    3.6011   -0.6183    0.3267 H   0  0  0  0  0  0  0  0  0  0  0  0
    0.3194    1.1927    1.2563 H   0  0  0  0  0  0  0  0  0  0  0  0
    0.6794    1.8453   -0.4026 H   0  0  0  0  0  0  0  0  0  0  0  0
   -1.5347    2.5048   -0.7984 H   0  0  0  0  0  0  0  0  0  0  0  0
   -2.1121    1.8604    0.8473 H   0  0  0  0  0  0  0  0  0  0  0  0
   -0.1569    3.1299    1.5416 H   0  0  0  0  0  0  0  0  0  0  0  0
  1  2  1  0
  2  3  1  0
  3  4  1  0
  4  5  1  0
  5  6  1  0
  6  7  1  0
  4  8  1  0
  8  9  1  0
  9 10  1  0
  1 11  1  0
  2 12  1  0
  2 13  1  0
  3 14  1  0
  3 15  1  0
  5 16  1  0
  5 17  1  0
  6 18  1  0
  6 19  1  0
  7 20  1  0
  8 21  1  0
  8 22  1  0
  9 23  1  0
  9 24  1  0
 10 25  1  0
M  END
>  <Ligand ID>  (1) 
LIG0000782

>  <Ligand>  (1) 
Triethanolamine

>  <SMILES>  (1) 
OCCN(CCO)CCO

>  <CID>  (1) 
7618.0

>  <ChEMBL ID>  (1) 
nan

>  <InChiKey>  (1) 
GSEJCLTVZPLZKY-UHFFFAOYSA-N

>  <InChi>  (1) 
InChI=1S/C6H15NO3/c8-4-1-7(2-5-9)3-6-10/h8-10H,1-6H2

>  <IUPAC Name>  (1) 
2-[bis(2-hydroxyethyl)amino]ethanol

$$$$
