
     RDKit          3D

 44 47  0  0  0  0  0  0  0  0999 V2000
    6.1066    0.5555    3.4852 C   0  0  0  0  0  0  0  0  0  0  0  0
    4.6774    0.6443    3.5524 O   0  0  0  0  0  0  0  0  0  0  0  0
    3.9496    0.2481    2.4410 C   0  0  0  0  0  0  0  0  0  0  0  0
    2.5820    0.3415    2.5210 C   0  0  0  0  0  0  0  0  0  0  0  0
    1.8061   -0.0474    1.4275 C   0  0  0  0  0  0  0  0  0  0  0  0
    2.3284   -0.5227    0.2627 C   0  0  0  0  0  0  0  0  0  0  0  0
    3.7206   -0.6146    0.1885 C   0  0  0  0  0  0  0  0  0  0  0  0
    4.5144   -0.2292    1.2770 C   0  0  0  0  0  0  0  0  0  0  0  0
    4.3027   -1.0892   -0.9687 C   0  0  0  0  0  0  0  0  0  0  0  0
    3.4931   -1.4555   -2.0129 C   0  0  0  0  0  0  0  0  0  0  0  0
    2.1101   -1.3495   -1.9055 C   0  0  0  0  0  0  0  0  0  0  0  0
    1.5393   -0.8854   -0.7715 N   0  0  0  0  0  0  0  0  0  0  0  0
    0.2110   -0.9068   -1.0009 C   0  0  0  0  0  0  0  0  0  0  0  0
   -1.0269   -0.3695    0.1747 S   0  0  0  0  0  0  0  0  0  0  0  0
   -1.3630    1.3998   -0.0064 C   0  0  0  0  0  0  0  0  0  0  0  0
   -2.8340    1.5806   -0.0203 C   0  0  0  0  0  0  0  0  0  0  0  0
   -3.2314    2.7725   -0.2506 O   0  0  0  0  0  0  0  0  0  0  0  0
   -3.7442    0.5138    0.2113 N   0  0  0  0  0  0  0  0  0  0  0  0
   -5.1479    0.7119    0.2158 C   0  0  0  0  0  0  0  0  0  0  0  0
   -5.7563    2.4849   -0.1448 S   0  0  0  0  0  0  0  0  0  0  0  0
   -7.5098    1.9218    0.0632 C   0  0  0  0  0  0  0  0  0  0  0  0
   -7.3928    0.5489    0.3592 C   0  0  0  0  0  0  0  0  0  0  0  0
   -6.1418    0.1538    0.3856 N   0  0  0  0  0  0  0  0  0  0  0  0
   -8.5750   -0.3125    0.6122 C   0  0  0  0  0  0  0  0  0  0  0  0
    0.0086   -1.3745   -2.2420 N   0  0  0  0  0  0  0  0  0  0  0  0
    1.1707   -1.6545   -2.8180 N   0  0  0  0  0  0  0  0  0  0  0  0
    4.1530   -1.9581   -3.2495 C   0  0  0  0  0  0  0  0  0  0  0  0
    6.4772    1.0539    2.5717 H   0  0  0  0  0  0  0  0  0  0  0  0
    6.5698    1.0760    4.3508 H   0  0  0  0  0  0  0  0  0  0  0  0
    6.4313   -0.4983    3.4579 H   0  0  0  0  0  0  0  0  0  0  0  0
    2.0731    0.7136    3.4298 H   0  0  0  0  0  0  0  0  0  0  0  0
    0.7470    0.0503    1.5623 H   0  0  0  0  0  0  0  0  0  0  0  0
    5.5953   -0.2947    1.2290 H   0  0  0  0  0  0  0  0  0  0  0  0
    5.3821   -1.1392   -0.9762 H   0  0  0  0  0  0  0  0  0  0  0  0
   -0.9293    1.8037   -0.9661 H   0  0  0  0  0  0  0  0  0  0  0  0
   -0.8754    1.8919    0.8882 H   0  0  0  0  0  0  0  0  0  0  0  0
   -3.4071   -0.4558    0.3879 H   0  0  0  0  0  0  0  0  0  0  0  0
   -8.3699    2.5831   -0.0421 H   0  0  0  0  0  0  0  0  0  0  0  0
   -8.5896   -0.6888    1.6608 H   0  0  0  0  0  0  0  0  0  0  0  0
   -8.5840   -1.1901   -0.0412 H   0  0  0  0  0  0  0  0  0  0  0  0
   -9.5119    0.2443    0.4470 H   0  0  0  0  0  0  0  0  0  0  0  0
    3.4119   -2.2419   -4.0144 H   0  0  0  0  0  0  0  0  0  0  0  0
    4.8514   -1.1704   -3.6667 H   0  0  0  0  0  0  0  0  0  0  0  0
    4.7776   -2.8456   -3.0754 H   0  0  0  0  0  0  0  0  0  0  0  0
  1  2  1  0
  2  3  1  0
  3  4  2  0
  4  5  1  0
  5  6  2  0
  6  7  1  0
  7  8  2  0
  7  9  1  0
  9 10  2  0
 10 11  1  0
 11 12  1  0
 12 13  1  0
 13 14  1  0
 14 15  1  0
 15 16  1  0
 16 17  2  0
 16 18  1  0
 18 19  1  0
 19 20  1  0
 20 21  1  0
 21 22  2  0
 22 23  1  0
 22 24  1  0
 13 25  2  0
 25 26  1  0
 10 27  1  0
  8  3  1  0
 26 11  2  0
 12  6  1  0
 23 19  2  0
  1 28  1  0
  1 29  1  0
  1 30  1  0
  4 31  1  0
  5 32  1  0
  8 33  1  0
  9 34  1  0
 15 35  1  0
 15 36  1  0
 18 37  1  0
 21 38  1  0
 24 39  1  0
 24 40  1  0
 24 41  1  0
 27 42  1  0
 27 43  1  0
 27 44  1  0
M  END
>  <Ligand ID>  (1) 
LIG0001733

>  <Ligand>  (1) 
MLS-0435560.0001

>  <SMILES>  (1) 
COc1ccc2c(c1)cc(c1n2c(SCC(=O)Nc2scc(n2)C)nn1)C

>  <CID>  (1) 
1135732.0

>  <ChEMBL ID>  (1) 
nan

>  <InChiKey>  (1) 
YBAMKQFFVRKROL-UHFFFAOYSA-N

>  <InChi>  (1) 
InChI=1S/C18H17N5O2S2/c1-10-6-12-7-13(25-3)4-5-14(12)23-16(10)21-22-18(23)27-9-15(24)20-17-19-11(2)8-26-17/h4-8H,9H2,1-3H3,(H,19,20,24)

>  <IUPAC Name>  (1) 
2-[(7-methoxy-4-methyl-[1,2,4]triazolo[4,3-a]quinolin-1-yl)sulfanyl]-N-(4-methyl-1,3-thiazol-2-yl)acetamide

$$$$
