
     RDKit          3D

 42 43  0  0  0  0  0  0  0  0999 V2000
   -1.3397    0.3357   -1.8811 O   0  0  0  0  0  0  0  0  0  0  0  0
   -1.6898    0.3788   -0.6731 C   0  0  0  0  0  0  0  0  0  0  0  0
   -0.7846    0.7430    0.3104 N   0  0  0  0  0  0  0  0  0  0  0  0
    0.6238    1.1058    0.0925 C   0  0  0  0  0  0  0  0  0  0  0  0
    0.8266    2.5640    0.4153 C   0  0  0  0  0  0  0  0  0  0  0  0
    0.3607    2.8391    2.1394 Cl  0  0  0  0  0  0  0  0  0  0  0  0
   -0.2017    3.5984   -0.5957 Cl  0  0  0  0  0  0  0  0  0  0  0  0
    2.5017    3.0996    0.2856 Cl  0  0  0  0  0  0  0  0  0  0  0  0
    1.4785    0.1983    0.7742 N   0  0  0  0  0  0  0  0  0  0  0  0
    2.8071   -0.1585    0.5113 C   0  0  0  0  0  0  0  0  0  0  0  0
    3.5158   -1.2423    1.5659 S   0  0  0  0  0  0  0  0  0  0  0  0
    3.6344    0.2835   -0.5330 N   0  0  0  0  0  0  0  0  0  0  0  0
    5.0068   -0.1737   -0.6547 C   0  0  0  0  0  0  0  0  0  0  0  0
    5.9637    0.3710    0.2044 C   0  0  0  0  0  0  0  0  0  0  0  0
    5.5446    1.5551    1.4264 Cl  0  0  0  0  0  0  0  0  0  0  0  0
    7.2730   -0.0253    0.1118 C   0  0  0  0  0  0  0  0  0  0  0  0
    7.6908   -0.9744   -0.8301 C   0  0  0  0  0  0  0  0  0  0  0  0
    6.7110   -1.5048   -1.6797 C   0  0  0  0  0  0  0  0  0  0  0  0
    5.3859   -1.1064   -1.5901 C   0  0  0  0  0  0  0  0  0  0  0  0
    4.1982   -1.7914   -2.6740 Cl  0  0  0  0  0  0  0  0  0  0  0  0
    9.3614   -1.4855   -0.9424 Cl  0  0  0  0  0  0  0  0  0  0  0  0
   -2.9992    0.0628   -0.2767 O   0  0  0  0  0  0  0  0  0  0  0  0
   -4.0165   -0.3140   -1.1898 C   0  0  0  0  0  0  0  0  0  0  0  0
   -5.2597   -0.5844   -0.4352 C   0  0  0  0  0  0  0  0  0  0  0  0
   -6.0869    0.5219   -0.1887 C   0  0  0  0  0  0  0  0  0  0  0  0
   -7.2732    0.3842    0.5002 C   0  0  0  0  0  0  0  0  0  0  0  0
   -7.6453   -0.8671    0.9507 C   0  0  0  0  0  0  0  0  0  0  0  0
   -6.8325   -1.9599    0.7088 C   0  0  0  0  0  0  0  0  0  0  0  0
   -5.6254   -1.8392    0.0119 C   0  0  0  0  0  0  0  0  0  0  0  0
   -1.0962    0.7789    1.3283 H   0  0  0  0  0  0  0  0  0  0  0  0
    0.8120    0.9808   -1.0177 H   0  0  0  0  0  0  0  0  0  0  0  0
    1.0280   -0.2872    1.6267 H   0  0  0  0  0  0  0  0  0  0  0  0
    3.3540    0.9332   -1.3045 H   0  0  0  0  0  0  0  0  0  0  0  0
    8.0713    0.3588    0.7512 H   0  0  0  0  0  0  0  0  0  0  0  0
    7.0074   -2.2527   -2.4326 H   0  0  0  0  0  0  0  0  0  0  0  0
   -4.1756    0.5537   -1.8653 H   0  0  0  0  0  0  0  0  0  0  0  0
   -3.7115   -1.1865   -1.8047 H   0  0  0  0  0  0  0  0  0  0  0  0
   -5.8156    1.5161   -0.5326 H   0  0  0  0  0  0  0  0  0  0  0  0
   -7.9201    1.2568    0.6935 H   0  0  0  0  0  0  0  0  0  0  0  0
   -8.5843   -1.0269    1.5064 H   0  0  0  0  0  0  0  0  0  0  0  0
   -7.1141   -2.9518    1.0578 H   0  0  0  0  0  0  0  0  0  0  0  0
   -4.9849   -2.6874   -0.1829 H   0  0  0  0  0  0  0  0  0  0  0  0
  1  2  2  0
  2  3  1  0
  3  4  1  0
  4  5  1  0
  5  6  1  0
  5  7  1  0
  5  8  1  0
  4  9  1  0
  9 10  1  0
 10 11  2  0
 10 12  1  0
 12 13  1  0
 13 14  2  0
 14 15  1  0
 14 16  1  0
 16 17  2  0
 17 18  1  0
 18 19  2  0
 19 20  1  0
 17 21  1  0
  2 22  1  0
 22 23  1  0
 23 24  1  0
 24 25  2  0
 25 26  1  0
 26 27  2  0
 27 28  1  0
 28 29  2  0
 19 13  1  0
 29 24  1  0
  3 30  1  0
  4 31  1  0
  9 32  1  0
 12 33  1  0
 16 34  1  0
 18 35  1  0
 23 36  1  0
 23 37  1  0
 25 38  1  0
 26 39  1  0
 27 40  1  0
 28 41  1  0
 29 42  1  0
M  END
>  <Ligand ID>  (1) 
LIG0002695

>  <Ligand>  (1) 
MLS000562423

>  <SMILES>  (1) 
O=C(NC(C(Cl)(Cl)Cl)NC(=S)Nc1c(Cl)cc(cc1Cl)Cl)OCc1ccccc1

>  <CID>  (1) 
3091267.0

>  <ChEMBL ID>  (1) 
nan

>  <InChiKey>  (1) 
OGHHRXANWYACPJ-UHFFFAOYSA-N

>  <InChi>  (1) 
InChI=1S/C17H13Cl6N3O2S/c18-10-6-11(19)13(12(20)7-10)24-15(29)25-14(17(21,22)23)26-16(27)28-8-9-4-2-1-3-5-9/h1-7,14H,8H2,(H,26,27)(H2,24,25,29)

>  <IUPAC Name>  (1) 
benzyl N-[2,2,2-trichloro-1-[(2,4,6-trichlorophenyl)carbamothioylamino]ethyl]carbamate

$$$$
