
     RDKit          3D

 50 51  0  0  0  0  0  0  0  0999 V2000
   -1.4370   -0.7600    0.9368 O   0  0  0  0  0  0  0  0  0  0  0  0
   -1.6211    0.2286    0.1943 C   0  0  0  0  0  0  0  0  0  0  0  0
   -2.9382    0.8037   -0.0926 C   0  0  0  0  0  0  0  0  0  0  0  0
   -4.0809    0.1333    0.6006 C   0  0  0  0  0  0  0  0  0  0  0  0
   -5.3182    0.8737    0.1694 C   0  0  0  0  0  0  0  0  0  0  0  0
   -5.6829    0.8330   -1.1645 C   0  0  0  0  0  0  0  0  0  0  0  0
   -6.7973    1.4901   -1.6109 C   0  0  0  0  0  0  0  0  0  0  0  0
   -7.5787    2.2090   -0.7257 C   0  0  0  0  0  0  0  0  0  0  0  0
   -7.2084    2.2435    0.5974 C   0  0  0  0  0  0  0  0  0  0  0  0
   -6.0911    1.5876    1.0591 C   0  0  0  0  0  0  0  0  0  0  0  0
   -4.2019   -1.3359    0.3490 C   0  0  0  0  0  0  0  0  0  0  0  0
   -0.4801    0.8244   -0.4028 N   0  0  0  0  0  0  0  0  0  0  0  0
    0.8502    0.3223   -0.1739 C   0  0  0  0  0  0  0  0  0  0  0  0
    0.9335   -0.7030    0.5989 N   0  0  0  0  0  0  0  0  0  0  0  0
    2.2259   -1.2707    0.8824 C   0  0  0  0  0  0  0  0  0  0  0  0
    2.7637   -1.9533   -0.3441 C   0  0  0  0  0  0  0  0  0  0  0  0
    4.1273   -2.5669   -0.0785 C   0  0  0  0  0  0  0  0  0  0  0  0
    5.0765   -1.5412    0.3235 C   0  0  0  0  0  0  0  0  0  0  0  0
    5.6396   -1.2512    1.9914 S   0  0  0  0  0  0  0  0  0  0  0  0
    6.7474    0.1712    1.4779 C   0  0  0  0  0  0  0  0  0  0  0  0
    6.5384    0.1974    0.2626 N   0  0  0  0  0  0  0  0  0  0  0  0
    5.7558   -0.5747   -0.4116 C   0  0  0  0  0  0  0  0  0  0  0  0
    5.5481   -0.4862   -1.9060 C   0  0  0  0  0  0  0  0  0  0  0  0
    7.5199    0.8695    2.4303 N   0  0  0  0  0  0  0  0  0  0  0  0
    1.9689    0.9532   -0.7822 N   0  0  0  0  0  0  0  0  0  0  0  0
   -2.9438    1.8639    0.1916 H   0  0  0  0  0  0  0  0  0  0  0  0
   -3.1192    0.6777   -1.1974 H   0  0  0  0  0  0  0  0  0  0  0  0
   -4.0099    0.2787    1.7176 H   0  0  0  0  0  0  0  0  0  0  0  0
   -5.0877    0.2798   -1.8688 H   0  0  0  0  0  0  0  0  0  0  0  0
   -7.0798    1.4558   -2.6563 H   0  0  0  0  0  0  0  0  0  0  0  0
   -8.4439    2.7080   -1.1263 H   0  0  0  0  0  0  0  0  0  0  0  0
   -7.8299    2.8087    1.2673 H   0  0  0  0  0  0  0  0  0  0  0  0
   -5.7795    1.5997    2.0929 H   0  0  0  0  0  0  0  0  0  0  0  0
   -3.4905   -1.8697    0.9826 H   0  0  0  0  0  0  0  0  0  0  0  0
   -5.2185   -1.6321    0.7355 H   0  0  0  0  0  0  0  0  0  0  0  0
   -4.0843   -1.6118   -0.7109 H   0  0  0  0  0  0  0  0  0  0  0  0
   -0.5945    1.6593   -1.0342 H   0  0  0  0  0  0  0  0  0  0  0  0
    2.8751   -0.4132    1.1986 H   0  0  0  0  0  0  0  0  0  0  0  0
    2.1299   -2.0068    1.7074 H   0  0  0  0  0  0  0  0  0  0  0  0
    2.0247   -2.6974   -0.6788 H   0  0  0  0  0  0  0  0  0  0  0  0
    2.9257   -1.1881   -1.1226 H   0  0  0  0  0  0  0  0  0  0  0  0
    4.0915   -3.3549    0.6888 H   0  0  0  0  0  0  0  0  0  0  0  0
    4.4837   -3.0398   -1.0156 H   0  0  0  0  0  0  0  0  0  0  0  0
    6.4125    0.0137   -2.3860 H   0  0  0  0  0  0  0  0  0  0  0  0
    5.4548   -1.4858   -2.3519 H   0  0  0  0  0  0  0  0  0  0  0  0
    4.6608    0.1082   -2.1533 H   0  0  0  0  0  0  0  0  0  0  0  0
    7.4971    1.9064    2.5205 H   0  0  0  0  0  0  0  0  0  0  0  0
    8.1373    0.2893    3.0641 H   0  0  0  0  0  0  0  0  0  0  0  0
    1.9911    0.9814   -1.8313 H   0  0  0  0  0  0  0  0  0  0  0  0
    2.7378    1.3714   -0.2144 H   0  0  0  0  0  0  0  0  0  0  0  0
  1  2  2  0
  2  3  1  0
  3  4  1  0
  4  5  1  0
  5  6  2  0
  6  7  1  0
  7  8  2  0
  8  9  1  0
  9 10  2  0
  4 11  1  0
  2 12  1  0
 12 13  1  0
 13 14  2  3
 14 15  1  0
 15 16  1  0
 16 17  1  0
 17 18  1  0
 18 19  1  0
 19 20  1  0
 20 21  2  0
 21 22  1  0
 22 23  1  0
 20 24  1  0
 13 25  1  0
 10  5  1  0
 22 18  2  0
  3 26  1  0
  3 27  1  0
  4 28  1  0
  6 29  1  0
  7 30  1  0
  8 31  1  0
  9 32  1  0
 10 33  1  0
 11 34  1  0
 11 35  1  0
 11 36  1  0
 12 37  1  0
 15 38  1  0
 15 39  1  0
 16 40  1  0
 16 41  1  0
 17 42  1  0
 17 43  1  0
 23 44  1  0
 23 45  1  0
 23 46  1  0
 24 47  1  0
 24 48  1  0
 25 49  1  0
 25 50  1  0
M  END
>  <Ligand ID>  (1) 
LIG0000950

>  <Ligand>  (1) 
CHEMBL1098110

>  <SMILES>  (1) 
O=C(CC(c1ccccc1)C)NC(=NCCCc1sc(nc1C)N)N

>  <CID>  (1) 
46887076.0

>  <ChEMBL ID>  (1) 
nan

>  <InChiKey>  (1) 
QFKNUCVKOWGNCX-UHFFFAOYSA-N

>  <InChi>  (1) 
InChI=1S/C18H25N5OS/c1-12(14-7-4-3-5-8-14)11-16(24)23-17(19)21-10-6-9-15-13(2)22-18(20)25-15/h3-5,7-8,12H,6,9-11H2,1-2H3,(H2,20,22)(H3,19,21,23,24)

>  <IUPAC Name>  (1) 
N-[N'-[3-(2-amino-4-methyl-1,3-thiazol-5-yl)propyl]carbamimidoyl]-3-phenylbutanamide

$$$$
