
     RDKit          3D

 80 80  0  0  0  0  0  0  0  0999 V2000
   -0.9604   -0.1094    0.0186 C   0  0  0  0  0  0  0  0  0  0  0  0
    0.4628    0.2353   -0.0971 C   0  0  0  0  0  0  0  0  0  0  0  0
    0.7738    1.4341   -0.3206 O   0  0  0  0  0  0  0  0  0  0  0  0
    1.4786   -0.6839    0.0257 O   0  0  0  0  0  0  0  0  0  0  0  0
    9.4516    1.3721    1.1868 O   0  0  0  0  0  0  0  0  0  0  0  0
    9.4708    0.2282    0.3893 C   0  0  0  0  0  0  0  0  0  0  0  0
    8.3696    0.2512   -0.6098 C   0  0  0  0  0  0  0  0  0  0  0  0
    7.2207   -0.5110   -0.4706 C   0  0  0  0  0  0  0  0  0  0  0  0
    6.1996   -0.4737   -1.4126 C   0  0  0  0  0  0  0  0  0  0  0  0
    6.2842    0.3258   -2.5315 C   0  0  0  0  0  0  0  0  0  0  0  0
    7.4380    1.0937   -2.6754 C   0  0  0  0  0  0  0  0  0  0  0  0
    8.4584    1.0526   -1.7281 C   0  0  0  0  0  0  0  0  0  0  0  0
    9.6169    1.8157   -1.8603 O   0  0  0  0  0  0  0  0  0  0  0  0
    5.0200   -1.3485   -1.1302 C   0  0  2  0  0  0  0  0  0  0  0  0
    4.3017   -0.7477    0.0870 C   0  0  0  0  0  0  0  0  0  0  0  0
    3.7235    0.5324   -0.1777 N   0  0  0  0  0  0  0  0  0  0  0  0
    3.1139    1.0000    1.0373 C   0  0  0  0  0  0  0  0  0  0  0  0
    1.9224    0.2075    1.4507 C   0  0  0  0  0  0  0  0  0  0  0  0
    0.8699    0.2893    0.3439 C   0  0  0  0  0  0  0  0  0  0  0  0
   -0.2917   -0.5574    0.8475 C   0  0  0  0  0  0  0  0  0  0  0  0
   -1.3553   -0.6016   -0.0409 O   0  0  0  0  0  0  0  0  0  0  0  0
   -1.9327    0.6011   -0.2979 C   0  0  0  0  0  0  0  0  0  0  0  0
   -2.5902    1.2602    0.8669 C   0  0  0  0  0  0  0  0  0  0  0  0
   -3.7623    0.4617    1.3702 C   0  0  0  0  0  0  0  0  0  0  0  0
   -3.4782   -0.8908    1.8571 C   0  0  0  0  0  0  0  0  0  0  0  0
   -4.5821   -1.7181    2.4059 C   0  0  0  0  0  0  0  0  0  0  0  0
   -5.7106   -2.1506    1.5833 C   0  0  0  0  0  0  0  0  0  0  0  0
   -6.6023   -1.2235    0.9326 C   0  0  0  0  0  0  0  0  0  0  0  0
   -7.6117   -0.6310    1.7066 C   0  0  0  0  0  0  0  0  0  0  0  0
   -8.5395    0.2071    1.1658 C   0  0  0  0  0  0  0  0  0  0  0  0
   -8.5157    0.5038   -0.1785 C   0  0  0  0  0  0  0  0  0  0  0  0
   -7.5451   -0.0531   -0.9773 C   0  0  0  0  0  0  0  0  0  0  0  0
   -6.6291   -0.8888   -0.4075 C   0  0  0  0  0  0  0  0  0  0  0  0
   -7.5647    0.3523   -2.6740 S   0  0  0  0  0  0  0  0  0  0  0  0
   -6.9413   -0.7681   -3.4876 O   0  0  0  0  0  0  0  0  0  0  0  0
   -8.9962    0.5587   -3.0868 O   0  0  0  0  0  0  0  0  0  0  0  0
   -6.5995    1.7655   -2.8998 N   0  0  0  0  0  0  0  0  0  0  0  0
    5.5478   -2.6057   -0.7699 O   0  0  0  0  0  0  0  0  0  0  0  0
   -1.1838   -1.1770   -0.1497 H   0  0  0  0  0  0  0  0  0  0  0  0
   -1.5760    0.4877   -0.7062 H   0  0  0  0  0  0  0  0  0  0  0  0
   -1.4102    0.1473    1.0115 H   0  0  0  0  0  0  0  0  0  0  0  0
    2.4152   -0.3342    0.2178 H   0  0  0  0  0  0  0  0  0  0  0  0
    9.6038    2.1434    0.5861 H   0  0  0  0  0  0  0  0  0  0  0  0
    9.3633   -0.6968    1.0274 H   0  0  0  0  0  0  0  0  0  0  0  0
   10.4207    0.1160   -0.1545 H   0  0  0  0  0  0  0  0  0  0  0  0
    7.1653   -1.1402    0.4206 H   0  0  0  0  0  0  0  0  0  0  0  0
    5.4782    0.3305   -3.2390 H   0  0  0  0  0  0  0  0  0  0  0  0
    7.5455    1.7406   -3.5473 H   0  0  0  0  0  0  0  0  0  0  0  0
    9.4733    2.8104   -2.0992 H   0  0  0  0  0  0  0  0  0  0  0  0
    4.3402   -1.3804   -1.9727 H   0  0  0  0  0  0  0  0  0  0  0  0
    3.5803   -1.5101    0.4832 H   0  0  0  0  0  0  0  0  0  0  0  0
    5.0335   -0.6140    0.9322 H   0  0  0  0  0  0  0  0  0  0  0  0
    3.1430    0.5998   -1.0184 H   0  0  0  0  0  0  0  0  0  0  0  0
    3.9103    0.9613    1.8203 H   0  0  0  0  0  0  0  0  0  0  0  0
    2.8036    2.0628    0.9564 H   0  0  0  0  0  0  0  0  0  0  0  0
    2.0810   -0.8477    1.6595 H   0  0  0  0  0  0  0  0  0  0  0  0
    1.5285    0.6559    2.3923 H   0  0  0  0  0  0  0  0  0  0  0  0
    0.4899    1.3245    0.2425 H   0  0  0  0  0  0  0  0  0  0  0  0
    1.2573   -0.1482   -0.5939 H   0  0  0  0  0  0  0  0  0  0  0  0
    0.0639   -1.5847    1.0650 H   0  0  0  0  0  0  0  0  0  0  0  0
   -0.6628   -0.1665    1.8125 H   0  0  0  0  0  0  0  0  0  0  0  0
   -1.2399    1.3238   -0.8118 H   0  0  0  0  0  0  0  0  0  0  0  0
   -2.7328    0.4318   -1.0668 H   0  0  0  0  0  0  0  0  0  0  0  0
   -1.8578    1.4613    1.6963 H   0  0  0  0  0  0  0  0  0  0  0  0
   -2.9105    2.2807    0.5326 H   0  0  0  0  0  0  0  0  0  0  0  0
   -4.2654    1.1161    2.1432 H   0  0  0  0  0  0  0  0  0  0  0  0
   -4.5188    0.4566    0.5344 H   0  0  0  0  0  0  0  0  0  0  0  0
   -3.0472   -1.5009    1.0127 H   0  0  0  0  0  0  0  0  0  0  0  0
   -2.6859   -0.8772    2.6731 H   0  0  0  0  0  0  0  0  0  0  0  0
   -4.0561   -2.6400    2.8551 H   0  0  0  0  0  0  0  0  0  0  0  0
   -4.9410   -1.2204    3.3834 H   0  0  0  0  0  0  0  0  0  0  0  0
   -6.3849   -2.7906    2.2642 H   0  0  0  0  0  0  0  0  0  0  0  0
   -5.3626   -2.9752    0.8498 H   0  0  0  0  0  0  0  0  0  0  0  0
   -7.6543   -0.8489    2.7774 H   0  0  0  0  0  0  0  0  0  0  0  0
   -9.3170    0.6602    1.7738 H   0  0  0  0  0  0  0  0  0  0  0  0
   -9.2528    1.1682   -0.6026 H   0  0  0  0  0  0  0  0  0  0  0  0
   -5.8554   -1.3344   -1.0374 H   0  0  0  0  0  0  0  0  0  0  0  0
   -6.6843    2.3327   -2.0185 H   0  0  0  0  0  0  0  0  0  0  0  0
   -7.0892    2.3328   -3.6288 H   0  0  0  0  0  0  0  0  0  0  0  0
    5.4763   -2.7423    0.2230 H   0  0  0  0  0  0  0  0  0  0  0  0
  1  2  1  0
  2  3  2  0
  2  4  1  0
  5  6  1  0
  6  7  1  0
  7  8  2  0
  8  9  1  0
  9 10  2  0
 10 11  1  0
 11 12  2  0
 12 13  1  0
  9 14  1  0
 14 15  1  0
 15 16  1  0
 16 17  1  0
 17 18  1  0
 18 19  1  0
 19 20  1  0
 20 21  1  0
 21 22  1  0
 22 23  1  0
 23 24  1  0
 24 25  1  0
 25 26  1  0
 26 27  1  0
 27 28  1  0
 28 29  2  0
 29 30  1  0
 30 31  2  0
 31 32  1  0
 32 33  2  0
 32 34  1  0
 34 35  2  0
 34 36  2  0
 34 37  1  0
 14 38  1  0
 12  7  1  0
 33 28  1  0
  1 39  1  0
  1 40  1  0
  1 41  1  0
  4 42  1  0
  5 43  1  0
  6 44  1  0
  6 45  1  0
  8 46  1  0
 10 47  1  0
 11 48  1  0
 13 49  1  0
 14 50  1  6
 15 51  1  0
 15 52  1  0
 16 53  1  0
 17 54  1  0
 17 55  1  0
 18 56  1  0
 18 57  1  0
 19 58  1  0
 19 59  1  0
 20 60  1  0
 20 61  1  0
 22 62  1  0
 22 63  1  0
 23 64  1  0
 23 65  1  0
 24 66  1  0
 24 67  1  0
 25 68  1  0
 25 69  1  0
 26 70  1  0
 26 71  1  0
 27 72  1  0
 27 73  1  0
 29 74  1  0
 30 75  1  0
 31 76  1  0
 33 77  1  0
 37 78  1  0
 37 79  1  0
 38 80  1  0
M  END
>  <Ligand ID>  (1) 
LIG0003341

>  <Ligand>  (1) 
CHEMBL483407

>  <SMILES>  (1) 
CC(=O)O.OCc1cc(ccc1O)[C@H](CNCCCCOCCCCCCc1cccc(c1)S(=O)(=O)N)O

>  <CID>  (1) 
42625742.0

>  <ChEMBL ID>  (1) 
nan

>  <InChiKey>  (1) 
XRNFXZGABDPCHY-UQIIZPHYSA-N

>  <InChi>  (1) 
InChI=1S/C25H38N2O6S.C2H4O2/c26-34(31,32)23-10-7-9-20(16-23)8-3-1-2-5-14-33-15-6-4-13-27-18-25(30)21-11-12-24(29)22(17-21)19-28;1-2(3)4/h7,9-12,16-17,25,27-30H,1-6,8,13-15,18-19H2,(H2,26,31,32);1H3,(H,3,4)/t25-;/m0./s1

>  <IUPAC Name>  (1) 
acetic acid;3-[6-[4-[[(2R)-2-hydroxy-2-[4-hydroxy-3-(hydroxymethyl)phenyl]ethyl]amino]butoxy]hexyl]benzenesulfonamide

$$$$
