
     RDKit          3D

 51 53  0  0  0  0  0  0  0  0999 V2000
   -7.0395    3.6290    1.9115 Cl  0  0  0  0  0  0  0  0  0  0  0  0
   -6.9101    2.1795    0.9492 C   0  0  0  0  0  0  0  0  0  0  0  0
   -8.0481    1.6699    0.3154 C   0  0  0  0  0  0  0  0  0  0  0  0
   -7.9838    0.5186   -0.4583 C   0  0  0  0  0  0  0  0  0  0  0  0
   -6.7676   -0.1033   -0.5812 C   0  0  0  0  0  0  0  0  0  0  0  0
   -5.6102    0.3778    0.0379 C   0  0  0  0  0  0  0  0  0  0  0  0
   -5.6918    1.5165    0.7985 C   0  0  0  0  0  0  0  0  0  0  0  0
   -4.3764   -0.3992   -0.1879 C   0  0  2  0  0  0  0  0  0  0  0  0
   -3.1830    0.4849    0.1444 C   0  0  0  0  0  0  0  0  0  0  0  0
   -1.9541   -0.1622   -0.1835 N   0  0  0  0  0  0  0  0  0  0  0  0
   -1.6466   -1.2953    0.6400 C   0  0  0  0  0  0  0  0  0  0  0  0
   -0.3084   -1.8562    0.1443 C   0  0  0  0  0  0  0  0  0  0  0  0
    0.6765   -0.8229    0.2860 N   0  0  0  0  0  0  0  0  0  0  0  0
    2.0143   -1.1247   -0.1647 C   0  0  0  0  0  0  0  0  0  0  0  0
    2.2908   -2.3648   -0.6991 C   0  0  0  0  0  0  0  0  0  0  0  0
    3.5624   -2.7089   -1.1537 C   0  0  0  0  0  0  0  0  0  0  0  0
    4.5547   -1.7570   -1.0518 C   0  0  0  0  0  0  0  0  0  0  0  0
    4.3007   -0.4891   -0.5126 C   0  0  0  0  0  0  0  0  0  0  0  0
    3.0223   -0.1687   -0.0657 C   0  0  0  0  0  0  0  0  0  0  0  0
    5.4086    0.4505   -0.4834 C   0  0  0  0  0  0  0  0  0  0  0  0
    5.9730    0.7531   -1.7323 C   0  0  0  0  0  0  0  0  0  0  0  0
    6.9838    1.6565   -1.8069 N   0  0  0  0  0  0  0  0  0  0  0  0
    7.4600    2.2716   -0.7103 C   0  0  0  0  0  0  0  0  0  0  0  0
    6.9051    1.9748    0.5270 C   0  0  0  0  0  0  0  0  0  0  0  0
    5.8664    1.0550    0.6643 C   0  0  0  0  0  0  0  0  0  0  0  0
    5.3546    0.7447    1.9653 C   0  0  0  0  0  0  0  0  0  0  0  0
    5.8327    1.3887    2.9636 O   0  0  0  0  0  0  0  0  0  0  0  0
    4.3906   -0.1859    2.2749 O   0  0  0  0  0  0  0  0  0  0  0  0
   -4.3684   -0.6954   -1.5742 O   0  0  0  0  0  0  0  0  0  0  0  0
   -9.0069    2.1599    0.4118 H   0  0  0  0  0  0  0  0  0  0  0  0
   -8.8768    0.1184   -0.9558 H   0  0  0  0  0  0  0  0  0  0  0  0
   -6.7355   -1.0004   -1.1888 H   0  0  0  0  0  0  0  0  0  0  0  0
   -4.8198    1.8926    1.2735 H   0  0  0  0  0  0  0  0  0  0  0  0
   -4.3258   -1.3568    0.3367 H   0  0  0  0  0  0  0  0  0  0  0  0
   -3.2119    0.6527    1.2411 H   0  0  0  0  0  0  0  0  0  0  0  0
   -3.2764    1.4184   -0.4367 H   0  0  0  0  0  0  0  0  0  0  0  0
   -1.1779    0.4788   -0.3737 H   0  0  0  0  0  0  0  0  0  0  0  0
   -2.4020   -2.0894    0.5702 H   0  0  0  0  0  0  0  0  0  0  0  0
   -1.4933   -0.9427    1.6773 H   0  0  0  0  0  0  0  0  0  0  0  0
   -0.0344   -2.7665    0.7531 H   0  0  0  0  0  0  0  0  0  0  0  0
   -0.3943   -2.1139   -0.9303 H   0  0  0  0  0  0  0  0  0  0  0  0
    0.5073    0.1244    0.6880 H   0  0  0  0  0  0  0  0  0  0  0  0
    1.4962   -3.1235   -0.7789 H   0  0  0  0  0  0  0  0  0  0  0  0
    3.7624   -3.7002   -1.5759 H   0  0  0  0  0  0  0  0  0  0  0  0
    5.5411   -2.0341   -1.4085 H   0  0  0  0  0  0  0  0  0  0  0  0
    2.8091    0.8170    0.3450 H   0  0  0  0  0  0  0  0  0  0  0  0
    5.6151    0.2771   -2.6430 H   0  0  0  0  0  0  0  0  0  0  0  0
    8.2709    2.9889   -0.8196 H   0  0  0  0  0  0  0  0  0  0  0  0
    7.3105    2.4895    1.4101 H   0  0  0  0  0  0  0  0  0  0  0  0
    4.5271   -0.8538    3.0330 H   0  0  0  0  0  0  0  0  0  0  0  0
   -4.7934    0.0259   -2.0943 H   0  0  0  0  0  0  0  0  0  0  0  0
  1  2  1  0
  2  3  2  0
  3  4  1  0
  4  5  2  0
  5  6  1  0
  6  7  2  0
  6  8  1  0
  8  9  1  0
  9 10  1  0
 10 11  1  0
 11 12  1  0
 12 13  1  0
 13 14  1  0
 14 15  2  0
 15 16  1  0
 16 17  2  0
 17 18  1  0
 18 19  2  0
 18 20  1  0
 20 21  2  0
 21 22  1  0
 22 23  2  0
 23 24  1  0
 24 25  2  0
 25 26  1  0
 26 27  2  0
 26 28  1  0
  8 29  1  0
  7  2  1  0
 19 14  1  0
 25 20  1  0
  3 30  1  0
  4 31  1  0
  5 32  1  0
  7 33  1  0
  8 34  1  1
  9 35  1  0
  9 36  1  0
 10 37  1  0
 11 38  1  0
 11 39  1  0
 12 40  1  0
 12 41  1  0
 13 42  1  0
 15 43  1  0
 16 44  1  0
 17 45  1  0
 19 46  1  0
 21 47  1  0
 23 48  1  0
 24 49  1  0
 28 50  1  0
 29 51  1  0
M  END
>  <Ligand ID>  (1) 
LIG0002516

>  <Ligand>  (1) 
CHEMBL207943

>  <SMILES>  (1) 
Clc1cccc(c1)[C@H](CNCCNc1cccc(c1)c1cnccc1C(=O)O)O

>  <CID>  (1) 
11575154.0

>  <ChEMBL ID>  (1) 
nan

>  <InChiKey>  (1) 
GDTIPNINUYSPCT-NRFANRHFSA-N

>  <InChi>  (1) 
InChI=1S/C22H22ClN3O3/c23-17-5-1-4-16(11-17)21(27)14-25-9-10-26-18-6-2-3-15(12-18)20-13-24-8-7-19(20)22(28)29/h1-8,11-13,21,25-27H,9-10,14H2,(H,28,29)/t21-/m0/s1

>  <IUPAC Name>  (1) 
3-[3-[2-[[(2R)-2-(3-chlorophenyl)-2-hydroxyethyl]amino]ethylamino]phenyl]pyridine-4-carboxylic acid

$$$$
