
     RDKit          3D

131133  0  0  0  0  0  0  0  0999 V2000
   10.2994   -1.9616   -1.8044 N   0  0  0  0  0  0  0  0  0  0  0  0
   10.2056   -0.6189   -1.2275 C   0  0  0  0  0  0  0  0  0  0  0  0
    9.1396    0.1285   -2.0335 C   0  0  0  0  0  0  0  0  0  0  0  0
    7.8454   -0.5928   -1.8942 C   0  0  0  0  0  0  0  0  0  0  0  0
    7.3626   -0.6620   -0.4748 C   0  0  1  0  0  0  0  0  0  0  0  0
    7.1292    0.6681    0.0994 C   0  0  0  0  0  0  0  0  0  0  0  0
    5.9085    1.0193    0.2343 O   0  0  0  0  0  0  0  0  0  0  0  0
    8.0916    1.5977    0.5213 N   0  0  0  0  0  0  0  0  0  0  0  0
    7.6867    2.8851    1.0642 C   0  0  0  0  0  0  0  0  0  0  0  0
    8.8839    3.6791    1.4267 C   0  0  0  0  0  0  0  0  0  0  0  0
   10.0175    3.1301    1.2184 O   0  0  0  0  0  0  0  0  0  0  0  0
    8.8007    4.9751    1.9745 N   0  0  0  0  0  0  0  0  0  0  0  0
    6.0434   -1.3775   -0.5075 N   0  0  0  0  0  0  0  0  0  0  0  0
    5.8077   -2.5095    0.3060 C   0  0  0  0  0  0  0  0  0  0  0  0
    6.6600   -2.9740    1.1143 O   0  0  0  0  0  0  0  0  0  0  0  0
    4.4503   -3.1622    0.1612 C   0  0  2  0  0  0  0  0  0  0  0  0
    4.6214   -4.6598   -0.0453 C   0  0  0  0  0  0  0  0  0  0  0  0
    4.8865   -4.8321   -1.5034 C   0  0  0  0  0  0  0  0  0  0  0  0
    4.5962   -3.4531   -2.1044 C   0  0  0  0  0  0  0  0  0  0  0  0
    3.8156   -2.7476   -1.0456 N   0  0  0  0  0  0  0  0  0  0  0  0
    2.7641   -1.8948   -1.4077 C   0  0  0  0  0  0  0  0  0  0  0  0
    2.6707   -1.7875   -2.7306 O   0  0  0  0  0  0  0  0  0  0  0  0
    1.8052   -1.1432   -0.6901 C   0  0  2  0  0  0  0  0  0  0  0  0
    1.9904    0.3675   -1.0158 C   0  0  0  0  0  0  0  0  0  0  0  0
    1.6303    0.6560   -2.7687 S   0  0  0  0  0  0  0  0  0  0  0  0
   -0.2989   -0.1154   -3.1918 S   0  0  0  0  0  0  0  0  0  0  0  0
   -1.6383    0.9593   -2.8347 C   0  0  0  0  0  0  0  0  0  0  0  0
   -1.6785    2.2160   -3.6770 C   0  0  2  0  0  0  0  0  0  0  0  0
   -0.4845    3.0184   -3.5575 N   0  0  0  0  0  0  0  0  0  0  0  0
   -2.7597    3.0976   -3.0306 C   0  0  0  0  0  0  0  0  0  0  0  0
   -2.5766    4.2360   -2.6526 O   0  0  0  0  0  0  0  0  0  0  0  0
   -4.0217    2.5138   -2.8874 N   0  0  0  0  0  0  0  0  0  0  0  0
   -5.1674    3.1027   -2.1710 C   0  0  1  0  0  0  0  0  0  0  0  0
   -6.3948    3.0852   -2.9828 C   0  0  0  0  0  0  0  0  0  0  0  0
   -6.8402    1.7491   -3.3995 C   0  0  0  0  0  0  0  0  0  0  0  0
   -6.3582    1.2158   -4.5989 C   0  0  0  0  0  0  0  0  0  0  0  0
   -6.7174   -0.0122   -5.0707 C   0  0  0  0  0  0  0  0  0  0  0  0
   -7.6001   -0.7984   -4.3543 C   0  0  0  0  0  0  0  0  0  0  0  0
   -8.1053   -0.3021   -3.1487 C   0  0  0  0  0  0  0  0  0  0  0  0
   -7.7183    0.9548   -2.6971 C   0  0  0  0  0  0  0  0  0  0  0  0
   -5.2111    2.3353   -0.8900 C   0  0  0  0  0  0  0  0  0  0  0  0
   -4.2338    1.5933   -0.6698 O   0  0  0  0  0  0  0  0  0  0  0  0
   -6.2212    2.3463    0.0877 N   0  0  0  0  0  0  0  0  0  0  0  0
   -5.9976    1.5336    1.2816 C   0  0  2  0  0  0  0  0  0  0  0  0
   -4.7184    1.8865    1.9384 C   0  0  0  0  0  0  0  0  0  0  0  0
   -4.0983    2.8675    1.5765 O   0  0  0  0  0  0  0  0  0  0  0  0
   -4.1259    1.1240    3.0108 N   0  0  0  0  0  0  0  0  0  0  0  0
   -2.9134    1.6209    3.6140 C   0  0  2  0  0  0  0  0  0  0  0  0
   -1.6861    0.8847    3.4292 C   0  0  0  0  0  0  0  0  0  0  0  0
   -0.6251    1.3413    3.9210 O   0  0  0  0  0  0  0  0  0  0  0  0
   -1.4976   -0.3552    2.7308 N   0  0  0  0  0  0  0  0  0  0  0  0
   -0.1694   -0.9628    2.5974 C   0  0  2  0  0  0  0  0  0  0  0  0
    0.2676   -0.9166    1.1906 C   0  0  0  0  0  0  0  0  0  0  0  0
   -0.5336   -0.5643    0.3260 O   0  0  0  0  0  0  0  0  0  0  0  0
    1.5937   -1.2522    0.7257 N   0  0  0  0  0  0  0  0  0  0  0  0
   -0.0585   -2.2838    3.2592 C   0  0  0  0  0  0  0  0  0  0  0  0
   -0.9863   -3.3174    2.7591 C   0  0  0  0  0  0  0  0  0  0  0  0
   -1.7531   -2.9685    1.7927 O   0  0  0  0  0  0  0  0  0  0  0  0
   -1.0027   -4.5956    3.3322 N   0  0  0  0  0  0  0  0  0  0  0  0
   -3.2133    1.8276    5.1122 C   0  0  0  0  0  0  0  0  0  0  0  0
   -3.5982    0.5772    5.7656 C   0  0  0  0  0  0  0  0  0  0  0  0
   -3.6772   -0.5470    5.1835 O   0  0  0  0  0  0  0  0  0  0  0  0
   -3.9108    0.5905    7.1478 N   0  0  0  0  0  0  0  0  0  0  0  0
   -4.2658   -0.5826    7.7372 O   0  0  0  0  0  0  0  0  0  0  0  0
   -6.3569    0.1233    1.2065 C   0  0  2  0  0  0  0  0  0  0  0  0
   -5.6936   -0.7474    0.2017 C   0  0  0  0  0  0  0  0  0  0  0  0
   -6.3054   -2.1451    0.4056 C   0  0  0  0  0  0  0  0  0  0  0  0
   -7.8641    0.0466    0.8973 C   0  0  0  0  0  0  0  0  0  0  0  0
   11.3300   -2.1954   -1.8614 H   0  0  0  0  0  0  0  0  0  0  0  0
    9.9729   -1.9347   -2.7799 H   0  0  0  0  0  0  0  0  0  0  0  0
   11.1585   -0.0926   -1.3927 H   0  0  0  0  0  0  0  0  0  0  0  0
    9.9357   -0.7248   -0.1643 H   0  0  0  0  0  0  0  0  0  0  0  0
    9.0930    1.1831   -1.7850 H   0  0  0  0  0  0  0  0  0  0  0  0
    9.4755    0.0990   -3.1317 H   0  0  0  0  0  0  0  0  0  0  0  0
    7.0885   -0.1157   -2.5635 H   0  0  0  0  0  0  0  0  0  0  0  0
    8.0214   -1.6332   -2.3008 H   0  0  0  0  0  0  0  0  0  0  0  0
    8.0036   -1.2475    0.1987 H   0  0  0  0  0  0  0  0  0  0  0  0
    9.0924    1.3876    0.4777 H   0  0  0  0  0  0  0  0  0  0  0  0
    7.0754    3.4365    0.3185 H   0  0  0  0  0  0  0  0  0  0  0  0
    7.1052    2.6489    2.0015 H   0  0  0  0  0  0  0  0  0  0  0  0
    8.0119    5.6037    1.7974 H   0  0  0  0  0  0  0  0  0  0  0  0
    9.5661    5.3520    2.5993 H   0  0  0  0  0  0  0  0  0  0  0  0
    5.3684   -0.9451   -1.1572 H   0  0  0  0  0  0  0  0  0  0  0  0
    3.9361   -3.0098    1.0951 H   0  0  0  0  0  0  0  0  0  0  0  0
    3.6609   -5.1455    0.1857 H   0  0  0  0  0  0  0  0  0  0  0  0
    5.3821   -5.1089    0.6198 H   0  0  0  0  0  0  0  0  0  0  0  0
    5.9448   -5.0823   -1.7454 H   0  0  0  0  0  0  0  0  0  0  0  0
    4.2331   -5.5620   -2.0176 H   0  0  0  0  0  0  0  0  0  0  0  0
    3.9865   -3.5216   -3.0011 H   0  0  0  0  0  0  0  0  0  0  0  0
    5.5275   -2.9321   -2.3357 H   0  0  0  0  0  0  0  0  0  0  0  0
    0.7659   -1.3283   -1.1897 H   0  0  0  0  0  0  0  0  0  0  0  0
    3.0428    0.6629   -0.8519 H   0  0  0  0  0  0  0  0  0  0  0  0
    1.3598    0.9791   -0.3510 H   0  0  0  0  0  0  0  0  0  0  0  0
   -2.6135    0.4159   -3.0399 H   0  0  0  0  0  0  0  0  0  0  0  0
   -1.7358    1.2196   -1.7406 H   0  0  0  0  0  0  0  0  0  0  0  0
   -1.9681    1.9989   -4.6931 H   0  0  0  0  0  0  0  0  0  0  0  0
   -0.5859    3.8179   -4.2175 H   0  0  0  0  0  0  0  0  0  0  0  0
   -0.4760    3.4225   -2.5926 H   0  0  0  0  0  0  0  0  0  0  0  0
   -4.1902    1.6058   -3.3146 H   0  0  0  0  0  0  0  0  0  0  0  0
   -4.9506    4.1559   -1.8506 H   0  0  0  0  0  0  0  0  0  0  0  0
   -6.1675    3.6494   -3.9308 H   0  0  0  0  0  0  0  0  0  0  0  0
   -7.2073    3.6826   -2.5143 H   0  0  0  0  0  0  0  0  0  0  0  0
   -5.6505    1.7864   -5.2178 H   0  0  0  0  0  0  0  0  0  0  0  0
   -6.3458   -0.4301   -5.9968 H   0  0  0  0  0  0  0  0  0  0  0  0
   -7.9032   -1.7824   -4.7076 H   0  0  0  0  0  0  0  0  0  0  0  0
   -8.8083   -0.8925   -2.5485 H   0  0  0  0  0  0  0  0  0  0  0  0
   -8.0945    1.3755   -1.7604 H   0  0  0  0  0  0  0  0  0  0  0  0
   -7.0397    2.9161   -0.1035 H   0  0  0  0  0  0  0  0  0  0  0  0
   -6.7513    2.0040    2.0105 H   0  0  0  0  0  0  0  0  0  0  0  0
   -4.6345    0.2786    3.2472 H   0  0  0  0  0  0  0  0  0  0  0  0
   -2.6884    2.6718    3.2412 H   0  0  0  0  0  0  0  0  0  0  0  0
   -2.3593   -0.7544    2.3528 H   0  0  0  0  0  0  0  0  0  0  0  0
    0.5250   -0.2862    3.1333 H   0  0  0  0  0  0  0  0  0  0  0  0
    2.2291   -1.5221    1.4590 H   0  0  0  0  0  0  0  0  0  0  0  0
   -0.0729   -2.1288    4.3442 H   0  0  0  0  0  0  0  0  0  0  0  0
    0.9771   -2.6596    3.0187 H   0  0  0  0  0  0  0  0  0  0  0  0
   -1.9334   -5.0315    3.5244 H   0  0  0  0  0  0  0  0  0  0  0  0
   -0.1726   -5.1660    3.5935 H   0  0  0  0  0  0  0  0  0  0  0  0
   -4.0371    2.5725    5.2538 H   0  0  0  0  0  0  0  0  0  0  0  0
   -2.3432    2.2496    5.6378 H   0  0  0  0  0  0  0  0  0  0  0  0
   -3.8897    1.4353    7.7553 H   0  0  0  0  0  0  0  0  0  0  0  0
   -4.0378   -1.3542    7.1611 H   0  0  0  0  0  0  0  0  0  0  0  0
   -6.2790   -0.3080    2.2322 H   0  0  0  0  0  0  0  0  0  0  0  0
   -6.0097   -0.4632   -0.8173 H   0  0  0  0  0  0  0  0  0  0  0  0
   -4.6131   -0.8959    0.3373 H   0  0  0  0  0  0  0  0  0  0  0  0
   -5.5443   -2.9468    0.2829 H   0  0  0  0  0  0  0  0  0  0  0  0
   -6.7022   -2.2733    1.4324 H   0  0  0  0  0  0  0  0  0  0  0  0
   -7.1867   -2.2987   -0.2699 H   0  0  0  0  0  0  0  0  0  0  0  0
   -8.3951   -0.6266    1.5945 H   0  0  0  0  0  0  0  0  0  0  0  0
   -8.3331    1.0484    0.8781 H   0  0  0  0  0  0  0  0  0  0  0  0
   -8.0456   -0.3705   -0.1220 H   0  0  0  0  0  0  0  0  0  0  0  0
  1  2  1  0
  2  3  1  0
  3  4  1  0
  4  5  1  0
  5  6  1  0
  6  7  2  0
  6  8  1  0
  8  9  1  0
  9 10  1  0
 10 11  2  0
 10 12  1  0
  5 13  1  0
 13 14  1  0
 14 15  2  0
 14 16  1  0
 16 17  1  0
 17 18  1  0
 18 19  1  0
 19 20  1  0
 20 21  1  0
 21 22  2  0
 21 23  1  0
 23 24  1  0
 24 25  1  0
 25 26  1  0
 26 27  1  0
 27 28  1  0
 28 29  1  0
 28 30  1  0
 30 31  2  0
 30 32  1  0
 32 33  1  0
 33 34  1  0
 34 35  1  0
 35 36  2  0
 36 37  1  0
 37 38  2  0
 38 39  1  0
 39 40  2  0
 33 41  1  0
 41 42  2  0
 41 43  1  0
 43 44  1  0
 44 45  1  0
 45 46  2  0
 45 47  1  0
 47 48  1  0
 48 49  1  0
 49 50  2  0
 49 51  1  0
 51 52  1  0
 52 53  1  0
 53 54  2  0
 53 55  1  0
 52 56  1  0
 56 57  1  0
 57 58  2  0
 57 59  1  0
 48 60  1  0
 60 61  1  0
 61 62  2  0
 61 63  1  0
 63 64  1  0
 44 65  1  0
 65 66  1  0
 66 67  1  0
 65 68  1  0
 20 16  1  0
 55 23  1  0
 40 35  1  0
  1 69  1  0
  1 70  1  0
  2 71  1  0
  2 72  1  0
  3 73  1  0
  3 74  1  0
  4 75  1  0
  4 76  1  0
  5 77  1  1
  8 78  1  0
  9 79  1  0
  9 80  1  0
 12 81  1  0
 12 82  1  0
 13 83  1  0
 16 84  1  1
 17 85  1  0
 17 86  1  0
 18 87  1  0
 18 88  1  0
 19 89  1  0
 19 90  1  0
 23 91  1  6
 24 92  1  0
 24 93  1  0
 27 94  1  0
 27 95  1  0
 28 96  1  6
 29 97  1  0
 29 98  1  0
 32 99  1  0
 33100  1  1
 34101  1  0
 34102  1  0
 36103  1  0
 37104  1  0
 38105  1  0
 39106  1  0
 40107  1  0
 43108  1  0
 44109  1  1
 47110  1  0
 48111  1  6
 51112  1  0
 52113  1  1
 55114  1  0
 56115  1  0
 56116  1  0
 59117  1  0
 59118  1  0
 60119  1  0
 60120  1  0
 63121  1  0
 64122  1  0
 65123  1  1
 66124  1  0
 66125  1  0
 67126  1  0
 67127  1  0
 67128  1  0
 68129  1  0
 68130  1  0
 68131  1  0
M  END
>  <Ligand ID>  (1) 
LIG0001593

>  <Ligand>  (1) 
CHEMBL1817696

>  <SMILES>  (1) 
NCCC[C@@H](C(=O)NCC(=O)N)NC(=O)[C@@H]1CCCN1C(=O)[C@@H]1CSSC[C@H](N)C(=O)N[C@@H](Cc2ccccc2)C(=O)N[C@H](C(=O)N[C@H](C(=O)N[C@H](C(=O)N1)CC(=O)N)CC(=O)NO)[C@H](CC)C

>  <CID>  (1) 
53362259.0

>  <ChEMBL ID>  (1) 
nan

>  <InChiKey>  (1) 
YFNWLTLBGUFXRP-VIZGXHJBSA-N

>  <InChi>  (1) 
InChI=1S/C41H63N13O12S2/c1-3-21(2)33-40(64)50-27(17-32(57)53-66)37(61)49-26(16-30(44)55)36(60)51-28(20-68-67-19-23(43)34(58)48-25(38(62)52-33)15-22-9-5-4-6-10-22)41(65)54-14-8-12-29(54)39(63)47-24(11-7-13-42)35(59)46-18-31(45)56/h4-6,9-10,21,23-29,33,66H,3,7-8,11-20,42-43H2,1-2H3,(H2,44,55)(H2,45,56)(H,46,59)(H,47,63)(H,48,58)(H,49,61)(H,50,64)(H,51,60)(H,52,62)(H,53,57)/t21-,23-,24-,25-,26-,27-,28-,29-,33-/m0/s1

>  <IUPAC Name>  (1) 
(2S)-N-[(2S)-5-amino-1-[(2-amino-2-oxoethyl)amino]-1-oxopentan-2-yl]-1-[(4R,7S,10S,13S,16S,19R)-19-amino-7-(2-amino-2-oxoethyl)-16-benzyl-13-[(2S)-butan-2-yl]-10-[2-(hydroxyamino)-2-oxoethyl]-6,9,12,15,18-pentaoxo-1,2-dithia-5,8,11,14,17-pentazacycloicosane-4-carbonyl]pyrrolidine-2-carboxamide

$$$$
