
     RDKit          3D

141143  0  0  0  0  0  0  0  0999 V2000
   -8.2822    3.5277   -3.5642 C   0  0  0  0  0  0  0  0  0  0  0  0
   -7.4429    2.4959   -2.8702 C   0  0  0  0  0  0  0  0  0  0  0  0
   -6.7236    3.0212   -1.6451 C   0  0  1  0  0  0  0  0  0  0  0  0
   -5.9184    1.9380   -1.0186 C   0  0  2  0  0  0  0  0  0  0  0  0
   -6.8106    0.8184   -0.6187 N   0  0  0  0  0  0  0  0  0  0  0  0
   -6.1453   -0.4203   -0.5832 C   0  0  0  0  0  0  0  0  0  0  0  0
   -4.9167   -0.4112   -0.7761 O   0  0  0  0  0  0  0  0  0  0  0  0
   -6.7337   -1.7943   -0.3262 C   0  0  1  0  0  0  0  0  0  0  0  0
   -5.4751   -2.5655   -0.1273 N   0  0  0  0  0  0  0  0  0  0  0  0
   -4.6246   -2.8696   -1.2444 C   0  0  0  0  0  0  0  0  0  0  0  0
   -5.0649   -2.5262   -2.3393 O   0  0  0  0  0  0  0  0  0  0  0  0
   -3.3408   -3.5388   -0.9617 C   0  0  0  0  0  0  0  0  0  0  0  0
   -2.3461   -3.4524   -2.0951 C   0  0  0  0  0  0  0  0  0  0  0  0
   -1.0286   -4.0244   -1.4935 C   0  0  0  0  0  0  0  0  0  0  0  0
   -0.6724   -3.1132    0.0146 S   0  0  0  0  0  0  0  0  0  0  0  0
   -0.1811   -1.4454   -0.1908 C   0  0  0  0  0  0  0  0  0  0  0  0
    1.2912   -1.1022   -0.3182 C   0  0  2  0  0  0  0  0  0  0  0  0
    1.3035    0.3090   -0.6337 N   0  0  0  0  0  0  0  0  0  0  0  0
    0.9696    1.2467    0.3991 C   0  0  0  0  0  0  0  0  0  0  0  0
    0.7583    0.7708    1.5119 O   0  0  0  0  0  0  0  0  0  0  0  0
    0.8719    2.7394    0.1082 C   0  0  1  0  0  0  0  0  0  0  0  0
   -0.2201    3.2097    1.0328 N   0  0  0  0  0  0  0  0  0  0  0  0
   -1.5047    2.9406    0.5588 C   0  0  0  0  0  0  0  0  0  0  0  0
   -1.5078    2.4207   -0.6344 O   0  0  0  0  0  0  0  0  0  0  0  0
   -2.8475    3.1126    1.1015 C   0  0  1  0  0  0  0  0  0  0  0  0
   -3.7860    2.6381    0.0378 N   0  0  0  0  0  0  0  0  0  0  0  0
   -5.1630    2.4308    0.1946 C   0  0  0  0  0  0  0  0  0  0  0  0
   -5.6580    2.6443    1.2924 O   0  0  0  0  0  0  0  0  0  0  0  0
   -2.9816    2.0914    2.2580 C   0  0  0  0  0  0  0  0  0  0  0  0
   -2.0094    2.2682    3.3585 C   0  0  0  0  0  0  0  0  0  0  0  0
   -2.1319    3.6076    3.9672 C   0  0  0  0  0  0  0  0  0  0  0  0
   -2.9541    4.4920    3.6620 O   0  0  0  0  0  0  0  0  0  0  0  0
   -1.2145    3.9592    5.0349 N   0  0  0  0  0  0  0  0  0  0  0  0
    2.1330    3.4387    0.3809 C   0  0  0  0  0  0  0  0  0  0  0  0
    2.5992    3.3438    1.7698 C   0  0  0  0  0  0  0  0  0  0  0  0
    2.0274    2.7274    2.6944 O   0  0  0  0  0  0  0  0  0  0  0  0
    3.8217    4.0113    2.1272 N   0  0  0  0  0  0  0  0  0  0  0  0
    2.2021   -2.0237   -0.8766 C   0  0  0  0  0  0  0  0  0  0  0  0
    1.8515   -3.2960   -0.7382 O   0  0  0  0  0  0  0  0  0  0  0  0
    3.4171   -1.9076   -1.5541 N   0  0  0  0  0  0  0  0  0  0  0  0
    3.9791   -3.1838   -2.0752 C   0  0  0  0  0  0  0  0  0  0  0  0
    3.6626   -3.4167   -3.4787 C   0  0  0  0  0  0  0  0  0  0  0  0
    4.5975   -2.9890   -4.4296 C   0  0  0  0  0  0  0  0  0  0  0  0
    4.4099   -3.1509   -5.7788 C   0  0  0  0  0  0  0  0  0  0  0  0
    3.2450   -3.7630   -6.1984 C   0  0  0  0  0  0  0  0  0  0  0  0
    2.2780   -4.2106   -5.3210 C   0  0  0  0  0  0  0  0  0  0  0  0
    2.5339   -4.0139   -3.9766 C   0  0  0  0  0  0  0  0  0  0  0  0
    3.0400   -3.9359   -7.5294 F   0  0  0  0  0  0  0  0  0  0  0  0
    4.2609   -0.7635   -1.7581 C   0  0  0  0  0  0  0  0  0  0  0  0
    5.2977   -0.6750   -0.6759 C   0  0  0  0  0  0  0  0  0  0  0  0
    5.2552   -1.5460    0.2359 O   0  0  0  0  0  0  0  0  0  0  0  0
    6.2992    0.2968   -0.6170 N   0  0  0  0  0  0  0  0  0  0  0  0
    7.2607    0.2665    0.4968 C   0  0  2  0  0  0  0  0  0  0  0  0
    7.4497    1.6532    0.8930 C   0  0  0  0  0  0  0  0  0  0  0  0
    6.9829    2.5718    0.1334 O   0  0  0  0  0  0  0  0  0  0  0  0
    8.1090    2.1148    2.0627 N   0  0  0  0  0  0  0  0  0  0  0  0
    8.2141    3.5218    2.2924 C   0  0  0  0  0  0  0  0  0  0  0  0
    8.9433    3.8292    3.5643 C   0  0  0  0  0  0  0  0  0  0  0  0
    9.1248    5.0255    3.9169 O   0  0  0  0  0  0  0  0  0  0  0  0
    9.4516    2.8029    4.4111 N   0  0  0  0  0  0  0  0  0  0  0  0
    8.4728   -0.4948    0.0531 C   0  0  0  0  0  0  0  0  0  0  0  0
    9.6094   -0.6734    0.9397 C   0  0  0  0  0  0  0  0  0  0  0  0
    9.2743   -1.3630    2.2574 C   0  0  0  0  0  0  0  0  0  0  0  0
   10.5589    0.4278    1.1905 C   0  0  0  0  0  0  0  0  0  0  0  0
   -7.5950   -1.7229    0.8529 C   0  0  0  0  0  0  0  0  0  0  0  0
   -8.2717   -2.9702    1.2670 C   0  0  0  0  0  0  0  0  0  0  0  0
   -7.5896   -3.7808    2.1823 C   0  0  0  0  0  0  0  0  0  0  0  0
   -8.1743   -4.9629    2.6125 C   0  0  0  0  0  0  0  0  0  0  0  0
   -9.4182   -5.3827    2.1704 C   0  0  0  0  0  0  0  0  0  0  0  0
  -10.0884   -4.5614    1.2539 C   0  0  0  0  0  0  0  0  0  0  0  0
   -9.4977   -3.3691    0.8214 C   0  0  0  0  0  0  0  0  0  0  0  0
   -9.9926   -6.5742    2.6124 O   0  0  0  0  0  0  0  0  0  0  0  0
   -5.8942    4.2194   -2.0054 C   0  0  0  0  0  0  0  0  0  0  0  0
   -9.0112    2.9949   -4.2174 H   0  0  0  0  0  0  0  0  0  0  0  0
   -7.6904    4.1610   -4.2711 H   0  0  0  0  0  0  0  0  0  0  0  0
   -8.8734    4.1442   -2.8585 H   0  0  0  0  0  0  0  0  0  0  0  0
   -8.1179    1.6590   -2.5970 H   0  0  0  0  0  0  0  0  0  0  0  0
   -6.7072    2.1006   -3.6220 H   0  0  0  0  0  0  0  0  0  0  0  0
   -7.5217    3.3484   -0.9331 H   0  0  0  0  0  0  0  0  0  0  0  0
   -5.1537    1.5386   -1.7337 H   0  0  0  0  0  0  0  0  0  0  0  0
   -7.7737    0.8745   -0.3893 H   0  0  0  0  0  0  0  0  0  0  0  0
   -7.1968   -2.0244   -1.3011 H   0  0  0  0  0  0  0  0  0  0  0  0
   -5.1673   -2.9016    0.7750 H   0  0  0  0  0  0  0  0  0  0  0  0
   -3.4629   -4.6187   -0.7310 H   0  0  0  0  0  0  0  0  0  0  0  0
   -2.8757   -3.0501   -0.0896 H   0  0  0  0  0  0  0  0  0  0  0  0
   -2.1588   -2.4219   -2.4153 H   0  0  0  0  0  0  0  0  0  0  0  0
   -2.6429   -4.1196   -2.9192 H   0  0  0  0  0  0  0  0  0  0  0  0
   -0.2417   -3.8379   -2.2355 H   0  0  0  0  0  0  0  0  0  0  0  0
   -1.1641   -5.0880   -1.2775 H   0  0  0  0  0  0  0  0  0  0  0  0
   -0.6066   -0.7450    0.5892 H   0  0  0  0  0  0  0  0  0  0  0  0
   -0.6592   -1.0472   -1.1623 H   0  0  0  0  0  0  0  0  0  0  0  0
    1.5582   -1.1471    0.8520 H   0  0  0  0  0  0  0  0  0  0  0  0
    1.5065    0.7358   -1.5356 H   0  0  0  0  0  0  0  0  0  0  0  0
    0.5594    2.8055   -0.9320 H   0  0  0  0  0  0  0  0  0  0  0  0
   -0.0646    3.6830    1.8882 H   0  0  0  0  0  0  0  0  0  0  0  0
   -3.1913    4.0624    1.4616 H   0  0  0  0  0  0  0  0  0  0  0  0
   -3.3968    2.4479   -0.8941 H   0  0  0  0  0  0  0  0  0  0  0  0
   -3.9958    2.1263    2.6949 H   0  0  0  0  0  0  0  0  0  0  0  0
   -2.9149    1.0495    1.8198 H   0  0  0  0  0  0  0  0  0  0  0  0
   -0.9616    2.0123    3.1502 H   0  0  0  0  0  0  0  0  0  0  0  0
   -2.3834    1.5626    4.1877 H   0  0  0  0  0  0  0  0  0  0  0  0
   -0.4758    4.6741    4.9076 H   0  0  0  0  0  0  0  0  0  0  0  0
   -1.3257    3.4608    5.9414 H   0  0  0  0  0  0  0  0  0  0  0  0
    2.9117    3.0407   -0.3257 H   0  0  0  0  0  0  0  0  0  0  0  0
    1.9915    4.5239    0.1097 H   0  0  0  0  0  0  0  0  0  0  0  0
    3.8306    5.0626    2.2007 H   0  0  0  0  0  0  0  0  0  0  0  0
    4.6877    3.4298    2.3059 H   0  0  0  0  0  0  0  0  0  0  0  0
    5.0867   -3.1478   -1.9310 H   0  0  0  0  0  0  0  0  0  0  0  0
    3.6189   -4.0120   -1.4096 H   0  0  0  0  0  0  0  0  0  0  0  0
    5.5331   -2.5086   -4.1306 H   0  0  0  0  0  0  0  0  0  0  0  0
    5.1680   -2.8000   -6.4812 H   0  0  0  0  0  0  0  0  0  0  0  0
    1.3570   -4.7008   -5.6584 H   0  0  0  0  0  0  0  0  0  0  0  0
    1.8035   -4.3612   -3.2635 H   0  0  0  0  0  0  0  0  0  0  0  0
    4.7368   -0.7828   -2.7497 H   0  0  0  0  0  0  0  0  0  0  0  0
    3.6684    0.1661   -1.7200 H   0  0  0  0  0  0  0  0  0  0  0  0
    6.3684    1.0326   -1.3483 H   0  0  0  0  0  0  0  0  0  0  0  0
    6.7845   -0.3661    1.2806 H   0  0  0  0  0  0  0  0  0  0  0  0
    8.4934    1.4444    2.7558 H   0  0  0  0  0  0  0  0  0  0  0  0
    8.7237    4.0645    1.4706 H   0  0  0  0  0  0  0  0  0  0  0  0
    7.1926    3.9605    2.4198 H   0  0  0  0  0  0  0  0  0  0  0  0
    8.9215    2.5537    5.2692 H   0  0  0  0  0  0  0  0  0  0  0  0
   10.3418    2.2909    4.1979 H   0  0  0  0  0  0  0  0  0  0  0  0
    8.0811   -1.5289   -0.1871 H   0  0  0  0  0  0  0  0  0  0  0  0
    8.8220    0.0041   -0.8852 H   0  0  0  0  0  0  0  0  0  0  0  0
   10.2622   -1.4936    0.4228 H   0  0  0  0  0  0  0  0  0  0  0  0
    9.7975   -2.3281    2.3984 H   0  0  0  0  0  0  0  0  0  0  0  0
    8.1906   -1.6106    2.3228 H   0  0  0  0  0  0  0  0  0  0  0  0
    9.6181   -0.7372    3.1296 H   0  0  0  0  0  0  0  0  0  0  0  0
   10.3584    1.3619    0.5868 H   0  0  0  0  0  0  0  0  0  0  0  0
   11.5724    0.1294    0.8518 H   0  0  0  0  0  0  0  0  0  0  0  0
   10.7099    0.6912    2.2660 H   0  0  0  0  0  0  0  0  0  0  0  0
   -7.0298   -1.2805    1.7044 H   0  0  0  0  0  0  0  0  0  0  0  0
   -8.4054   -0.9757    0.6465 H   0  0  0  0  0  0  0  0  0  0  0  0
   -6.6170   -3.5114    2.5729 H   0  0  0  0  0  0  0  0  0  0  0  0
   -7.6173   -5.5619    3.3222 H   0  0  0  0  0  0  0  0  0  0  0  0
  -11.0774   -4.8670    0.8821 H   0  0  0  0  0  0  0  0  0  0  0  0
  -10.0212   -2.7591    0.1264 H   0  0  0  0  0  0  0  0  0  0  0  0
   -9.9252   -7.4301    2.0903 H   0  0  0  0  0  0  0  0  0  0  0  0
   -5.5480    4.7264   -1.0824 H   0  0  0  0  0  0  0  0  0  0  0  0
   -6.5880    4.9440   -2.5053 H   0  0  0  0  0  0  0  0  0  0  0  0
   -5.0415    3.9582   -2.6490 H   0  0  0  0  0  0  0  0  0  0  0  0
  1  2  1  0
  2  3  1  0
  3  4  1  0
  4  5  1  0
  5  6  1  0
  6  7  2  0
  6  8  1  0
  8  9  1  0
  9 10  1  0
 10 11  2  0
 10 12  1  0
 12 13  1  0
 13 14  1  0
 14 15  1  0
 15 16  1  0
 16 17  1  0
 17 18  1  0
 18 19  1  0
 19 20  2  0
 19 21  1  0
 21 22  1  0
 22 23  1  0
 23 24  2  0
 23 25  1  0
 25 26  1  0
 26 27  1  0
 27 28  2  0
 25 29  1  0
 29 30  1  0
 30 31  1  0
 31 32  2  0
 31 33  1  0
 21 34  1  0
 34 35  1  0
 35 36  2  0
 35 37  1  0
 17 38  1  0
 38 39  2  0
 38 40  1  0
 40 41  1  0
 41 42  1  0
 42 43  2  0
 43 44  1  0
 44 45  2  0
 45 46  1  0
 46 47  2  0
 45 48  1  0
 40 49  1  0
 49 50  1  0
 50 51  2  0
 50 52  1  0
 52 53  1  0
 53 54  1  0
 54 55  2  0
 54 56  1  0
 56 57  1  0
 57 58  1  0
 58 59  2  0
 58 60  1  0
 53 61  1  0
 61 62  1  0
 62 63  1  0
 62 64  1  0
  8 65  1  0
 65 66  1  0
 66 67  2  0
 67 68  1  0
 68 69  2  0
 69 70  1  0
 70 71  2  0
 69 72  1  0
  3 73  1  0
 27  4  1  0
 47 42  1  0
 71 66  1  0
  1 74  1  0
  1 75  1  0
  1 76  1  0
  2 77  1  0
  2 78  1  0
  3 79  1  1
  4 80  1  6
  5 81  1  0
  8 82  1  6
  9 83  1  0
 12 84  1  0
 12 85  1  0
 13 86  1  0
 13 87  1  0
 14 88  1  0
 14 89  1  0
 16 90  1  0
 16 91  1  0
 17 92  1  1
 18 93  1  0
 21 94  1  6
 22 95  1  0
 25 96  1  1
 26 97  1  0
 29 98  1  0
 29 99  1  0
 30100  1  0
 30101  1  0
 33102  1  0
 33103  1  0
 34104  1  0
 34105  1  0
 37106  1  0
 37107  1  0
 41108  1  0
 41109  1  0
 43110  1  0
 44111  1  0
 46112  1  0
 47113  1  0
 49114  1  0
 49115  1  0
 52116  1  0
 53117  1  1
 56118  1  0
 57119  1  0
 57120  1  0
 60121  1  0
 60122  1  0
 61123  1  0
 61124  1  0
 62125  1  0
 63126  1  0
 63127  1  0
 63128  1  0
 64129  1  0
 64130  1  0
 64131  1  0
 65132  1  0
 65133  1  0
 67134  1  0
 68135  1  0
 70136  1  0
 71137  1  0
 72138  1  0
 73139  1  0
 73140  1  0
 73141  1  0
M  END
>  <Ligand ID>  (1) 
LIG0001568

>  <Ligand>  (1) 
Merotocin

>  <SMILES>  (1) 
CC[C@@H]([C@@H]1NC(=O)[C@@H](NC(=O)CCCSC[C@H](NC(=O)[C@@H](NC(=O)[C@@H](NC1=O)CCC(=O)N)CC(=O)N)C(=O)N(Cc1ccc(cc1)F)CC(=O)N[C@H](C(=O)NCC(=O)N)CC(C)C)Cc1ccc(cc1)O)C

>  <CID>  (1) 
76073634.0

>  <ChEMBL ID>  (1) 
nan

>  <InChiKey>  (1) 
PVVHQWISMVJHFK-NIFJBHDKSA-N

>  <InChi>  (1) 
InChI=1S/C48H68FN11O12S/c1-5-27(4)42-47(71)56-32(16-17-37(50)62)44(68)57-35(21-38(51)63)45(69)58-36(25-73-18-6-7-40(65)54-34(46(70)59-42)20-28-10-14-31(61)15-11-28)48(72)60(23-29-8-12-30(49)13-9-29)24-41(66)55-33(19-26(2)3)43(67)53-22-39(52)64/h8-15,26-27,32-36,42,61H,5-7,16-25H2,1-4H3,(H2,50,62)(H2,51,63)(H2,52,64)(H,53,67)(H,54,65)(H,55,66)(H,56,71)(H,57,68)(H,58,69)(H,59,70)/t27-,32-,33-,34-,35-,36-,42-/m0/s1

>  <IUPAC Name>  (1) 
(3R,6S,9S,12S,15S)-6-(2-amino-2-oxoethyl)-N-[2-[[(2S)-1-[(2-amino-2-oxoethyl)amino]-4-methyl-1-oxopentan-2-yl]amino]-2-oxoethyl]-9-(3-amino-3-oxopropyl)-12-[(2S)-butan-2-yl]-N-[(4-fluorophenyl)methyl]-15-[(4-hydroxyphenyl)methyl]-5,8,11,14,17-pentaoxo-1-thia-4,7,10,13,16-pentazacycloicosane-3-carboxamide

$$$$
