
     RDKit          3D

 17 17  0  0  0  0  0  0  0  0999 V2000
   -2.3121   -0.4945    0.5405 C   0  0  0  0  0  0  0  0  0  0  0  0
   -1.3718   -0.0542   -0.5570 C   0  0  0  0  0  0  0  0  0  0  0  0
   -0.2716   -0.9455   -0.6834 O   0  0  0  0  0  0  0  0  0  0  0  0
    0.9108   -0.3369   -0.3119 C   0  0  0  0  0  0  0  0  0  0  0  0
    0.7156    0.9444   -0.0586 C   0  0  0  0  0  0  0  0  0  0  0  0
   -0.7014    1.2237   -0.2741 C   0  0  0  0  0  0  0  0  0  0  0  0
   -1.2300    2.3545   -0.2227 O   0  0  0  0  0  0  0  0  0  0  0  0
    1.6442    1.9132    0.3449 O   0  0  0  0  0  0  0  0  0  0  0  0
    2.2192   -1.0247   -0.2108 C   0  0  0  0  0  0  0  0  0  0  0  0
   -2.5187   -1.5836    0.4073 H   0  0  0  0  0  0  0  0  0  0  0  0
   -1.8994   -0.2625    1.5310 H   0  0  0  0  0  0  0  0  0  0  0  0
   -3.2713    0.0574    0.3361 H   0  0  0  0  0  0  0  0  0  0  0  0
   -1.9155    0.0585   -1.5254 H   0  0  0  0  0  0  0  0  0  0  0  0
    2.2689    1.6123    1.0891 H   0  0  0  0  0  0  0  0  0  0  0  0
    2.6222   -0.8362    0.8197 H   0  0  0  0  0  0  0  0  0  0  0  0
    2.1472   -2.1029   -0.3464 H   0  0  0  0  0  0  0  0  0  0  0  0
    2.9637   -0.5230   -0.8781 H   0  0  0  0  0  0  0  0  0  0  0  0
  1  2  1  0
  2  3  1  0
  3  4  1  0
  4  5  2  0
  5  6  1  0
  6  7  2  0
  5  8  1  0
  4  9  1  0
  6  2  1  0
  1 10  1  0
  1 11  1  0
  1 12  1  0
  2 13  1  0
  8 14  1  0
  9 15  1  0
  9 16  1  0
  9 17  1  0
M  END
>  <Ligand ID>  (1) 
LIG0000741

>  <Ligand>  (1) 
Furaneol

>  <SMILES>  (1) 
CC1OC(=C(C1=O)O)C

>  <CID>  (1) 
19309.0

>  <ChEMBL ID>  (1) 
nan

>  <InChiKey>  (1) 
INAXVXBDKKUCGI-UHFFFAOYSA-N

>  <InChi>  (1) 
InChI=1S/C6H8O3/c1-3-5(7)6(8)4(2)9-3/h3,8H,1-2H3

>  <IUPAC Name>  (1) 
4-hydroxy-2,5-dimethylfuran-3-one

$$$$
