
     RDKit          3D

 27 28  0  0  0  0  0  0  0  0999 V2000
    0.6724   -1.6475    1.6348 O   0  0  0  0  0  0  0  0  0  0  0  0
    0.2987   -0.8553    0.7902 C   0  0  0  0  0  0  0  0  0  0  0  0
   -1.1070   -0.5156    0.3904 C   0  0  0  0  0  0  0  0  0  0  0  0
   -2.1225   -1.5027    0.8172 C   0  0  0  0  0  0  0  0  0  0  0  0
   -1.4361    0.9247    0.7074 C   0  0  0  0  0  0  0  0  0  0  0  0
   -0.6665    1.7328   -0.3292 C   0  0  0  0  0  0  0  0  0  0  0  0
    0.1646    0.6836   -1.0052 C   0  0  0  0  0  0  0  0  0  0  0  0
    1.1485    0.0186   -0.1032 C   0  0  0  0  0  0  0  0  0  0  0  0
    2.0781   -0.8214   -0.9642 C   0  0  0  0  0  0  0  0  0  0  0  0
    1.9704    0.8826    0.7682 C   0  0  0  0  0  0  0  0  0  0  0  0
   -0.8918   -0.4263   -1.1115 C   0  0  0  0  0  0  0  0  0  0  0  0
   -1.6483   -2.5066    0.7933 H   0  0  0  0  0  0  0  0  0  0  0  0
   -2.3731   -1.2944    1.8681 H   0  0  0  0  0  0  0  0  0  0  0  0
   -3.0180   -1.4086    0.1949 H   0  0  0  0  0  0  0  0  0  0  0  0
   -1.1919    1.2183    1.7456 H   0  0  0  0  0  0  0  0  0  0  0  0
   -2.5065    1.0717    0.5050 H   0  0  0  0  0  0  0  0  0  0  0  0
   -0.1158    2.5676    0.1020 H   0  0  0  0  0  0  0  0  0  0  0  0
   -1.3269    2.1610   -1.1060 H   0  0  0  0  0  0  0  0  0  0  0  0
    0.5484    0.9875   -1.9928 H   0  0  0  0  0  0  0  0  0  0  0  0
    1.9928   -1.9024   -0.7815 H   0  0  0  0  0  0  0  0  0  0  0  0
    3.1603   -0.5599   -0.8002 H   0  0  0  0  0  0  0  0  0  0  0  0
    1.9059   -0.6566   -2.0545 H   0  0  0  0  0  0  0  0  0  0  0  0
    1.6239    1.8951    0.9283 H   0  0  0  0  0  0  0  0  0  0  0  0
    3.0193    0.9632    0.3719 H   0  0  0  0  0  0  0  0  0  0  0  0
    2.0822    0.4250    1.7832 H   0  0  0  0  0  0  0  0  0  0  0  0
   -1.7888   -0.0786   -1.6614 H   0  0  0  0  0  0  0  0  0  0  0  0
   -0.4722   -1.3559   -1.4908 H   0  0  0  0  0  0  0  0  0  0  0  0
  1  2  2  0
  2  3  1  0
  3  4  1  0
  3  5  1  0
  5  6  1  0
  6  7  1  0
  7  8  1  0
  8  9  1  0
  8 10  1  0
  7 11  1  0
  8  2  1  0
 11  3  1  0
  4 12  1  0
  4 13  1  0
  4 14  1  0
  5 15  1  0
  5 16  1  0
  6 17  1  0
  6 18  1  0
  7 19  1  0
  9 20  1  0
  9 21  1  0
  9 22  1  0
 10 23  1  0
 10 24  1  0
 10 25  1  0
 11 26  1  0
 11 27  1  0
M  END
>  <Ligand ID>  (1) 
LIG0000337

>  <Ligand>  (1) 
Fenchone

>  <SMILES>  (1) 
O=C1C2(C)CCC(C1(C)C)C2

>  <CID>  (1) 
14525.0

>  <ChEMBL ID>  (1) 
nan

>  <InChiKey>  (1) 
LHXDLQBQYFFVNW-UHFFFAOYSA-N

>  <InChi>  (1) 
InChI=1S/C10H16O/c1-9(2)7-4-5-10(3,6-7)8(9)11/h7H,4-6H2,1-3H3

>  <IUPAC Name>  (1) 
1,3,3-trimethylbicyclo[2.2.1]heptan-2-one

$$$$
