
     RDKit          3D

 53 55  0  0  0  0  0  0  0  0999 V2000
   -6.6946   -1.8874   -1.4778 C   0  0  0  0  0  0  0  0  0  0  0  0
   -6.3420   -1.5621   -0.1277 N   0  0  0  0  0  0  0  0  0  0  0  0
   -5.3211   -0.5575   -0.1109 C   0  0  0  0  0  0  0  0  0  0  0  0
   -4.9298   -0.1950    1.3158 C   0  0  0  0  0  0  0  0  0  0  0  0
   -3.8633    0.8565    1.2107 C   0  0  0  0  0  0  0  0  0  0  0  0
   -3.3873    1.3042    2.5269 N   0  0  0  0  0  0  0  0  0  0  0  0
   -2.1806    2.4972    2.1971 S   0  0  0  0  0  0  0  0  0  0  0  0
   -1.6771    3.0247    3.5164 O   0  0  0  0  0  0  0  0  0  0  0  0
   -2.8010    3.6505    1.4601 O   0  0  0  0  0  0  0  0  0  0  0  0
   -0.8332    1.8779    1.3080 C   0  0  0  0  0  0  0  0  0  0  0  0
    0.2399    1.3639    2.0112 C   0  0  0  0  0  0  0  0  0  0  0  0
    1.3635    0.8456    1.4006 C   0  0  0  0  0  0  0  0  0  0  0  0
    1.4237    0.8376    0.0211 C   0  0  0  0  0  0  0  0  0  0  0  0
    0.3656    1.3449   -0.7043 C   0  0  0  0  0  0  0  0  0  0  0  0
   -0.7635    1.8655   -0.0730 C   0  0  0  0  0  0  0  0  0  0  0  0
    2.5498    0.3195   -0.6814 N   0  0  0  0  0  0  0  0  0  0  0  0
    2.7336    0.2542   -2.1147 C   0  0  0  0  0  0  0  0  0  0  0  0
    4.2336    0.4291   -2.2207 C   0  0  0  0  0  0  0  0  0  0  0  0
    4.6868   -0.1868   -0.9429 C   0  0  0  0  0  0  0  0  0  0  0  0
    3.7058   -0.2316   -0.0958 N   0  0  0  0  0  0  0  0  0  0  0  0
    6.0680   -0.6610   -0.7260 C   0  0  0  0  0  0  0  0  0  0  0  0
    7.0371   -0.5662   -1.6950 C   0  0  0  0  0  0  0  0  0  0  0  0
    8.3340   -1.0042   -1.5108 C   0  0  0  0  0  0  0  0  0  0  0  0
    8.6928   -1.5648   -0.3077 C   0  0  0  0  0  0  0  0  0  0  0  0
    7.7373   -1.6653    0.6663 C   0  0  0  0  0  0  0  0  0  0  0  0
    6.4361   -1.2247    0.4781 C   0  0  0  0  0  0  0  0  0  0  0  0
   10.3397   -2.1120   -0.0969 Cl  0  0  0  0  0  0  0  0  0  0  0  0
   -7.4608   -1.1209    0.6724 C   0  0  0  0  0  0  0  0  0  0  0  0
   -7.2282   -2.8573   -1.5745 H   0  0  0  0  0  0  0  0  0  0  0  0
   -7.3070   -1.0542   -1.8810 H   0  0  0  0  0  0  0  0  0  0  0  0
   -5.7638   -1.9275   -2.0802 H   0  0  0  0  0  0  0  0  0  0  0  0
   -5.7521    0.3529   -0.5706 H   0  0  0  0  0  0  0  0  0  0  0  0
   -4.4178   -0.8215   -0.6654 H   0  0  0  0  0  0  0  0  0  0  0  0
   -4.6058   -1.0541    1.9097 H   0  0  0  0  0  0  0  0  0  0  0  0
   -5.8150    0.2932    1.7602 H   0  0  0  0  0  0  0  0  0  0  0  0
   -4.2630    1.7655    0.7309 H   0  0  0  0  0  0  0  0  0  0  0  0
   -3.0178    0.4204    0.6757 H   0  0  0  0  0  0  0  0  0  0  0  0
   -2.9109    0.4899    3.0065 H   0  0  0  0  0  0  0  0  0  0  0  0
    0.2386    1.3483    3.1098 H   0  0  0  0  0  0  0  0  0  0  0  0
    2.1998    0.4448    1.9617 H   0  0  0  0  0  0  0  0  0  0  0  0
    0.3553    1.3657   -1.7923 H   0  0  0  0  0  0  0  0  0  0  0  0
   -1.5980    2.2655   -0.6325 H   0  0  0  0  0  0  0  0  0  0  0  0
    2.1869    1.0322   -2.6782 H   0  0  0  0  0  0  0  0  0  0  0  0
    2.5092   -0.7831   -2.4940 H   0  0  0  0  0  0  0  0  0  0  0  0
    4.6736   -0.0764   -3.1010 H   0  0  0  0  0  0  0  0  0  0  0  0
    4.4885    1.5118   -2.1670 H   0  0  0  0  0  0  0  0  0  0  0  0
    6.7477   -0.1240   -2.6392 H   0  0  0  0  0  0  0  0  0  0  0  0
    9.0078   -0.8778   -2.3429 H   0  0  0  0  0  0  0  0  0  0  0  0
    8.0625   -2.1187    1.6132 H   0  0  0  0  0  0  0  0  0  0  0  0
    5.7336   -1.3375    1.2962 H   0  0  0  0  0  0  0  0  0  0  0  0
   -8.3870   -1.5829    0.2848 H   0  0  0  0  0  0  0  0  0  0  0  0
   -7.5682   -0.0056    0.6297 H   0  0  0  0  0  0  0  0  0  0  0  0
   -7.2620   -1.3833    1.7413 H   0  0  0  0  0  0  0  0  0  0  0  0
  1  2  1  0
  2  3  1  0
  3  4  1  0
  4  5  1  0
  5  6  1  0
  6  7  1  0
  7  8  2  0
  7  9  2  0
  7 10  1  0
 10 11  2  0
 11 12  1  0
 12 13  2  0
 13 14  1  0
 14 15  2  0
 13 16  1  0
 16 17  1  0
 17 18  1  0
 18 19  1  0
 19 20  2  0
 19 21  1  0
 21 22  2  0
 22 23  1  0
 23 24  2  0
 24 25  1  0
 25 26  2  0
 24 27  1  0
  2 28  1  0
 15 10  1  0
 20 16  1  0
 26 21  1  0
  1 29  1  0
  1 30  1  0
  1 31  1  0
  3 32  1  0
  3 33  1  0
  4 34  1  0
  4 35  1  0
  5 36  1  0
  5 37  1  0
  6 38  1  0
 11 39  1  0
 12 40  1  0
 14 41  1  0
 15 42  1  0
 17 43  1  0
 17 44  1  0
 18 45  1  0
 18 46  1  0
 22 47  1  0
 23 48  1  0
 25 49  1  0
 26 50  1  0
 28 51  1  0
 28 52  1  0
 28 53  1  0
M  END
>  <Ligand ID>  (1) 
LIG0004549

>  <Ligand>  (1) 
MLS000530254

>  <SMILES>  (1) 
CN(CCCNS(=O)(=O)c1ccc(cc1)N1CCC(=N1)c1ccc(cc1)Cl)C

>  <CID>  (1) 
2837694.0

>  <ChEMBL ID>  (1) 
nan

>  <InChiKey>  (1) 
FXYFDLSNCLJHMY-UHFFFAOYSA-N

>  <InChi>  (1) 
InChI=1S/C20H25ClN4O2S/c1-24(2)14-3-13-22-28(26,27)19-10-8-18(9-11-19)25-15-12-20(23-25)16-4-6-17(21)7-5-16/h4-11,22H,3,12-15H2,1-2H3

>  <IUPAC Name>  (1) 
4-[5-(4-chlorophenyl)-3,4-dihydropyrazol-2-yl]-N-[3-(dimethylamino)propyl]benzenesulfonamide

$$$$
