
     RDKit          3D

 51 54  0  0  0  0  0  0  0  0999 V2000
    8.9721    1.9340    0.2520 F   0  0  0  0  0  0  0  0  0  0  0  0
    7.8728    1.1553    0.3653 C   0  0  0  0  0  0  0  0  0  0  0  0
    7.7403    0.1262    1.2635 C   0  0  0  0  0  0  0  0  0  0  0  0
    6.6014   -0.6495    1.3557 C   0  0  0  0  0  0  0  0  0  0  0  0
    5.5115   -0.4018    0.5095 C   0  0  0  0  0  0  0  0  0  0  0  0
    5.6550    0.6247   -0.3804 C   0  0  0  0  0  0  0  0  0  0  0  0
    6.8043    1.4118   -0.4770 C   0  0  0  0  0  0  0  0  0  0  0  0
    4.4224   -1.2159    0.6617 O   0  0  0  0  0  0  0  0  0  0  0  0
    3.2255   -1.1502   -0.0307 C   0  0  0  0  0  0  0  0  0  0  0  0
    2.4155    0.1162    0.2014 C   0  0  0  0  0  0  0  0  0  0  0  0
    1.2013    0.0255   -0.6774 C   0  0  0  0  0  0  0  0  0  0  0  0
    0.4060   -1.1274   -0.2951 N   0  0  0  0  0  0  0  0  0  0  0  0
   -0.6489   -1.3465   -1.2828 C   0  0  0  0  0  0  0  0  0  0  0  0
   -1.6880   -0.2856   -1.3100 C   0  0  0  0  0  0  0  0  0  0  0  0
   -2.3074   -0.1389    0.0662 C   0  0  0  0  0  0  0  0  0  0  0  0
   -1.6656   -1.1341    0.9815 C   0  0  0  0  0  0  0  0  0  0  0  0
   -0.1626   -0.9613    1.0285 C   0  0  0  0  0  0  0  0  0  0  0  0
   -3.7248   -0.3827   -0.0049 N   0  0  0  0  0  0  0  0  0  0  0  0
   -4.4084   -1.5219   -0.1731 C   0  0  0  0  0  0  0  0  0  0  0  0
   -3.9308   -2.6746   -0.2990 O   0  0  0  0  0  0  0  0  0  0  0  0
   -5.7314   -1.2832   -0.1942 N   0  0  0  0  0  0  0  0  0  0  0  0
   -5.9187    0.0366   -0.0361 C   0  0  0  0  0  0  0  0  0  0  0  0
   -4.6474    0.6075    0.0838 C   0  0  0  0  0  0  0  0  0  0  0  0
   -4.5301    1.9777    0.2577 C   0  0  0  0  0  0  0  0  0  0  0  0
   -5.6668    2.7694    0.3099 C   0  0  0  0  0  0  0  0  0  0  0  0
   -6.9102    2.1985    0.1904 C   0  0  0  0  0  0  0  0  0  0  0  0
   -7.0401    0.8515    0.0196 C   0  0  0  0  0  0  0  0  0  0  0  0
    8.5805   -0.0676    1.9135 H   0  0  0  0  0  0  0  0  0  0  0  0
    6.5587   -1.4574    2.0925 H   0  0  0  0  0  0  0  0  0  0  0  0
    4.8777    0.8631   -1.0767 H   0  0  0  0  0  0  0  0  0  0  0  0
    6.8762    2.2123   -1.1926 H   0  0  0  0  0  0  0  0  0  0  0  0
    2.6222   -2.0562    0.1921 H   0  0  0  0  0  0  0  0  0  0  0  0
    3.3943   -1.2001   -1.1464 H   0  0  0  0  0  0  0  0  0  0  0  0
    2.9840    1.0277    0.1158 H   0  0  0  0  0  0  0  0  0  0  0  0
    2.0410    0.0425    1.2593 H   0  0  0  0  0  0  0  0  0  0  0  0
    0.6343    0.9761   -0.5925 H   0  0  0  0  0  0  0  0  0  0  0  0
    1.5526   -0.0891   -1.7154 H   0  0  0  0  0  0  0  0  0  0  0  0
   -1.0801   -2.3384   -1.1136 H   0  0  0  0  0  0  0  0  0  0  0  0
   -0.1026   -1.3591   -2.2645 H   0  0  0  0  0  0  0  0  0  0  0  0
   -1.3183    0.6927   -1.6884 H   0  0  0  0  0  0  0  0  0  0  0  0
   -2.4792   -0.5870   -2.0253 H   0  0  0  0  0  0  0  0  0  0  0  0
   -2.1052    0.9087    0.3948 H   0  0  0  0  0  0  0  0  0  0  0  0
   -2.0082   -0.9176    2.0315 H   0  0  0  0  0  0  0  0  0  0  0  0
   -1.9151   -2.1427    0.6786 H   0  0  0  0  0  0  0  0  0  0  0  0
    0.0723    0.0938    1.3461 H   0  0  0  0  0  0  0  0  0  0  0  0
    0.3029   -1.6886    1.7152 H   0  0  0  0  0  0  0  0  0  0  0  0
   -6.4787   -1.9976   -0.3114 H   0  0  0  0  0  0  0  0  0  0  0  0
   -3.5329    2.4084    0.3503 H   0  0  0  0  0  0  0  0  0  0  0  0
   -5.5203    3.8481    0.4484 H   0  0  0  0  0  0  0  0  0  0  0  0
   -7.7837    2.8572    0.2359 H   0  0  0  0  0  0  0  0  0  0  0  0
   -8.0192    0.4094   -0.0741 H   0  0  0  0  0  0  0  0  0  0  0  0
  1  2  1  0
  2  3  2  0
  3  4  1  0
  4  5  2  0
  5  6  1  0
  6  7  2  0
  5  8  1  0
  8  9  1  0
  9 10  1  0
 10 11  1  0
 11 12  1  0
 12 13  1  0
 13 14  1  0
 14 15  1  0
 15 16  1  0
 16 17  1  0
 15 18  1  0
 18 19  1  0
 19 20  2  0
 19 21  1  0
 21 22  1  0
 22 23  2  0
 23 24  1  0
 24 25  2  0
 25 26  1  0
 26 27  2  0
  7  2  1  0
 17 12  1  0
 23 18  1  0
 27 22  1  0
  3 28  1  0
  4 29  1  0
  6 30  1  0
  7 31  1  0
  9 32  1  0
  9 33  1  0
 10 34  1  0
 10 35  1  0
 11 36  1  0
 11 37  1  0
 13 38  1  0
 13 39  1  0
 14 40  1  0
 14 41  1  0
 15 42  1  0
 16 43  1  0
 16 44  1  0
 17 45  1  0
 17 46  1  0
 21 47  1  0
 24 48  1  0
 25 49  1  0
 26 50  1  0
 27 51  1  0
M  END
>  <Ligand ID>  (1) 
LIG0000677

>  <Ligand>  (1) 
CHEMBL1802360

>  <SMILES>  (1) 
Fc1ccc(cc1)OCCCN1CCC(CC1)n1c(=O)[nH]c2c1cccc2

>  <CID>  (1) 
44204999.0

>  <ChEMBL ID>  (1) 
nan

>  <InChiKey>  (1) 
VNSQNNPGGZXQAN-UHFFFAOYSA-N

>  <InChi>  (1) 
InChI=1S/C21H24FN3O2/c22-16-6-8-18(9-7-16)27-15-3-12-24-13-10-17(11-14-24)25-20-5-2-1-4-19(20)23-21(25)26/h1-2,4-9,17H,3,10-15H2,(H,23,26)

>  <IUPAC Name>  (1) 
3-[1-[3-(4-fluorophenoxy)propyl]piperidin-4-yl]-1H-benzimidazol-2-one

$$$$
