
     RDKit          3D

 95 96  0  0  0  0  0  0  0  0999 V2000
    6.2448   -0.3614   -1.8415 C   0  0  0  0  0  0  0  0  0  0  0  0
    5.6523    0.3110   -0.6189 C   0  0  0  0  0  0  0  0  0  0  0  0
    5.7804    1.5538   -0.6012 O   0  0  0  0  0  0  0  0  0  0  0  0
    5.0328   -0.4890    0.3549 N   0  0  0  0  0  0  0  0  0  0  0  0
    4.4291   -0.1093    1.5841 C   0  0  2  0  0  0  0  0  0  0  0  0
    3.0612   -0.5058    1.8339 C   0  0  0  0  0  0  0  0  0  0  0  0
    2.3882   -0.2726    2.8735 O   0  0  0  0  0  0  0  0  0  0  0  0
    2.3686   -1.2446    0.8074 N   0  0  0  0  0  0  0  0  0  0  0  0
    1.0099   -1.6874    0.9489 C   0  0  1  0  0  0  0  0  0  0  0  0
    0.0871   -0.9652    0.0148 C   0  0  0  0  0  0  0  0  0  0  0  0
    0.6536   -0.0913   -0.7221 O   0  0  0  0  0  0  0  0  0  0  0  0
   -1.2885   -1.2027   -0.0695 N   0  0  0  0  0  0  0  0  0  0  0  0
   -2.0788   -0.4493   -0.9974 C   0  0  2  0  0  0  0  0  0  0  0  0
   -3.0578    0.3967   -0.2683 C   0  0  0  0  0  0  0  0  0  0  0  0
   -3.0688    0.3177    0.9816 O   0  0  0  0  0  0  0  0  0  0  0  0
   -3.9678    1.2776   -0.9065 N   0  0  0  0  0  0  0  0  0  0  0  0
   -4.9090    2.0852   -0.1140 C   0  0  2  0  0  0  0  0  0  0  0  0
   -6.3120    1.8197   -0.4973 C   0  0  0  0  0  0  0  0  0  0  0  0
   -7.3099    2.3671    0.0287 O   0  0  0  0  0  0  0  0  0  0  0  0
   -6.5867    0.8697   -1.5476 N   0  0  0  0  0  0  0  0  0  0  0  0
   -4.5447    3.5388   -0.2633 C   0  0  0  0  0  0  0  0  0  0  0  0
   -5.4073    4.4663    0.4765 C   0  0  0  0  0  0  0  0  0  0  0  0
   -5.0725    4.7903    1.7925 C   0  0  0  0  0  0  0  0  0  0  0  0
   -5.8797    5.6750    2.5134 C   0  0  0  0  0  0  0  0  0  0  0  0
   -7.0050    6.2158    1.8999 C   0  0  0  0  0  0  0  0  0  0  0  0
   -7.3448    5.9012    0.5973 C   0  0  0  0  0  0  0  0  0  0  0  0
   -6.5364    5.0293   -0.0919 C   0  0  0  0  0  0  0  0  0  0  0  0
   -8.1974    7.5562    3.0375 I   0  0  0  0  0  0  0  0  0  0  0  0
   -2.7744   -1.2086   -2.0467 C   0  0  0  0  0  0  0  0  0  0  0  0
   -3.7679   -2.2432   -1.5486 C   0  0  0  0  0  0  0  0  0  0  0  0
   -4.4158   -2.9611   -2.7337 C   0  0  0  0  0  0  0  0  0  0  0  0
   -5.3533   -3.9369   -2.2593 N   0  0  0  0  0  0  0  0  0  0  0  0
   -5.0147   -4.9635   -1.5599 C   0  0  0  0  0  0  0  0  0  0  0  0
   -3.6789   -5.2552   -1.1740 N   0  0  0  0  0  0  0  0  0  0  0  0
   -6.0243   -5.8683   -1.1424 N   0  0  0  0  0  0  0  0  0  0  0  0
    0.9382   -3.1678    0.8488 C   0  0  0  0  0  0  0  0  0  0  0  0
    1.4163   -3.7432   -0.4098 C   0  0  0  0  0  0  0  0  0  0  0  0
    2.7505   -4.1214   -0.6079 C   0  0  0  0  0  0  0  0  0  0  0  0
    3.1049   -4.6587   -1.8328 C   0  0  0  0  0  0  0  0  0  0  0  0
    2.1954   -4.8258   -2.8382 C   0  0  0  0  0  0  0  0  0  0  0  0
    0.8881   -4.4584   -2.6529 C   0  0  0  0  0  0  0  0  0  0  0  0
    0.5153   -3.9233   -1.4452 C   0  0  0  0  0  0  0  0  0  0  0  0
    2.7129   -5.6457   -4.7175 I   0  0  0  0  0  0  0  0  0  0  0  0
    4.7777    1.3114    2.0534 C   0  0  0  0  0  0  0  0  0  0  0  0
    6.2278    1.3832    2.3311 C   0  0  0  0  0  0  0  0  0  0  0  0
    6.7000    2.7583    2.7528 C   0  0  0  0  0  0  0  0  0  0  0  0
    8.1303    2.6714    2.9859 N   0  0  0  0  0  0  0  0  0  0  0  0
    8.9530    3.5790    2.5686 C   0  0  0  0  0  0  0  0  0  0  0  0
   10.3457    3.5443    2.7667 N   0  0  0  0  0  0  0  0  0  0  0  0
    8.4161    4.7012    1.8513 N   0  0  0  0  0  0  0  0  0  0  0  0
    7.2706   -0.0097   -2.0093 H   0  0  0  0  0  0  0  0  0  0  0  0
    5.5910   -0.0385   -2.6871 H   0  0  0  0  0  0  0  0  0  0  0  0
    6.2422   -1.4436   -1.7059 H   0  0  0  0  0  0  0  0  0  0  0  0
    5.0123   -1.5409    0.1405 H   0  0  0  0  0  0  0  0  0  0  0  0
    5.0801   -0.6846    2.3672 H   0  0  0  0  0  0  0  0  0  0  0  0
    2.8583   -1.4869   -0.1014 H   0  0  0  0  0  0  0  0  0  0  0  0
    0.6763   -1.3940    1.9842 H   0  0  0  0  0  0  0  0  0  0  0  0
   -1.7019   -1.9421    0.5650 H   0  0  0  0  0  0  0  0  0  0  0  0
   -1.3767    0.2612   -1.5091 H   0  0  0  0  0  0  0  0  0  0  0  0
   -3.9733    1.3556   -1.9430 H   0  0  0  0  0  0  0  0  0  0  0  0
   -4.7773    1.8416    0.9747 H   0  0  0  0  0  0  0  0  0  0  0  0
   -7.4735    0.3215   -1.5746 H   0  0  0  0  0  0  0  0  0  0  0  0
   -5.8766    0.7136   -2.3198 H   0  0  0  0  0  0  0  0  0  0  0  0
   -4.6339    3.7948   -1.3550 H   0  0  0  0  0  0  0  0  0  0  0  0
   -3.4916    3.7160    0.0362 H   0  0  0  0  0  0  0  0  0  0  0  0
   -4.1990    4.3727    2.2728 H   0  0  0  0  0  0  0  0  0  0  0  0
   -5.6359    5.9429    3.5431 H   0  0  0  0  0  0  0  0  0  0  0  0
   -8.2317    6.3529    0.1712 H   0  0  0  0  0  0  0  0  0  0  0  0
   -6.8346    4.8062   -1.1193 H   0  0  0  0  0  0  0  0  0  0  0  0
   -3.4059   -0.4813   -2.6066 H   0  0  0  0  0  0  0  0  0  0  0  0
   -2.1154   -1.6273   -2.8405 H   0  0  0  0  0  0  0  0  0  0  0  0
   -3.3426   -2.9289   -0.8067 H   0  0  0  0  0  0  0  0  0  0  0  0
   -4.6334   -1.7428   -1.0442 H   0  0  0  0  0  0  0  0  0  0  0  0
   -3.6672   -3.4690   -3.3560 H   0  0  0  0  0  0  0  0  0  0  0  0
   -4.9029   -2.1808   -3.3342 H   0  0  0  0  0  0  0  0  0  0  0  0
   -2.8925   -5.4021   -1.8394 H   0  0  0  0  0  0  0  0  0  0  0  0
   -3.4817   -5.3249   -0.1622 H   0  0  0  0  0  0  0  0  0  0  0  0
   -6.1767   -6.1630   -0.1552 H   0  0  0  0  0  0  0  0  0  0  0  0
   -6.6554   -6.2588   -1.8889 H   0  0  0  0  0  0  0  0  0  0  0  0
   -0.1015   -3.4763    1.1016 H   0  0  0  0  0  0  0  0  0  0  0  0
    1.5624   -3.5883    1.6673 H   0  0  0  0  0  0  0  0  0  0  0  0
    3.4755   -3.9885    0.1953 H   0  0  0  0  0  0  0  0  0  0  0  0
    4.1417   -4.9676   -2.0293 H   0  0  0  0  0  0  0  0  0  0  0  0
    0.1529   -4.5734   -3.4152 H   0  0  0  0  0  0  0  0  0  0  0  0
   -0.5122   -3.6388   -1.3065 H   0  0  0  0  0  0  0  0  0  0  0  0
    4.2497    1.4121    3.0466 H   0  0  0  0  0  0  0  0  0  0  0  0
    4.3705    2.0914    1.4179 H   0  0  0  0  0  0  0  0  0  0  0  0
    6.8998    0.9833    1.5821 H   0  0  0  0  0  0  0  0  0  0  0  0
    6.4439    0.6972    3.2432 H   0  0  0  0  0  0  0  0  0  0  0  0
    6.5795    3.4190    1.8443 H   0  0  0  0  0  0  0  0  0  0  0  0
    6.1655    3.1401    3.6289 H   0  0  0  0  0  0  0  0  0  0  0  0
   10.7462    4.1387    3.5518 H   0  0  0  0  0  0  0  0  0  0  0  0
   11.0061    2.9685    2.1874 H   0  0  0  0  0  0  0  0  0  0  0  0
    7.5521    5.2014    2.2094 H   0  0  0  0  0  0  0  0  0  0  0  0
    8.8329    5.0613    0.9835 H   0  0  0  0  0  0  0  0  0  0  0  0
  1  2  1  0
  2  3  2  0
  2  4  1  0
  4  5  1  0
  5  6  1  0
  6  7  2  0
  6  8  1  0
  8  9  1  0
  9 10  1  0
 10 11  2  0
 10 12  1  0
 12 13  1  0
 13 14  1  0
 14 15  2  0
 14 16  1  0
 16 17  1  0
 17 18  1  0
 18 19  2  0
 18 20  1  0
 17 21  1  0
 21 22  1  0
 22 23  2  0
 23 24  1  0
 24 25  2  0
 25 26  1  0
 26 27  2  0
 25 28  1  0
 13 29  1  0
 29 30  1  0
 30 31  1  0
 31 32  1  0
 32 33  2  3
 33 34  1  0
 33 35  1  0
  9 36  1  0
 36 37  1  0
 37 38  2  0
 38 39  1  0
 39 40  2  0
 40 41  1  0
 41 42  2  0
 40 43  1  0
  5 44  1  0
 44 45  1  0
 45 46  1  0
 46 47  1  0
 47 48  2  3
 48 49  1  0
 48 50  1  0
 27 22  1  0
 42 37  1  0
  1 51  1  0
  1 52  1  0
  1 53  1  0
  4 54  1  0
  5 55  1  1
  8 56  1  0
  9 57  1  1
 12 58  1  0
 13 59  1  6
 16 60  1  0
 17 61  1  1
 20 62  1  0
 20 63  1  0
 21 64  1  0
 21 65  1  0
 23 66  1  0
 24 67  1  0
 26 68  1  0
 27 69  1  0
 29 70  1  0
 29 71  1  0
 30 72  1  0
 30 73  1  0
 31 74  1  0
 31 75  1  0
 34 76  1  0
 34 77  1  0
 35 78  1  0
 35 79  1  0
 36 80  1  0
 36 81  1  0
 38 82  1  0
 39 83  1  0
 41 84  1  0
 42 85  1  0
 44 86  1  0
 44 87  1  0
 45 88  1  0
 45 89  1  0
 46 90  1  0
 46 91  1  0
 49 92  1  0
 49 93  1  0
 50 94  1  0
 50 95  1  0
M  END
>  <Ligand ID>  (1) 
LIG0000891

>  <Ligand>  (1) 
CHEMBL3287325

>  <SMILES>  (1) 
CC(=O)N[C@H](C(=O)N[C@@H](C(=O)N[C@H](C(=O)N[C@H](C(=O)N)Cc1ccc(cc1)I)CCCN=C(N)N)Cc1ccc(cc1)I)CCCN=C(N)N

>  <CID>  (1) 
90643805.0

>  <ChEMBL ID>  (1) 
nan

>  <InChiKey>  (1) 
PHPBSUCWKAPUKN-ASDGIDEWSA-N

>  <InChi>  (1) 
InChI=1S/C32H45I2N11O5/c1-18(46)42-23(4-2-14-40-31(36)37)28(48)45-26(17-20-8-12-22(34)13-9-20)30(50)43-24(5-3-15-41-32(38)39)29(49)44-25(27(35)47)16-19-6-10-21(33)11-7-19/h6-13,23-26H,2-5,14-17H2,1H3,(H2,35,47)(H,42,46)(H,43,50)(H,44,49)(H,45,48)(H4,36,37,40)(H4,38,39,41)/t23-,24-,25-,26+/m0/s1

>  <IUPAC Name>  (1) 
(2S)-2-acetamido-N-[(2R)-1-[[(2S)-1-[[(2S)-1-amino-3-(4-iodophenyl)-1-oxopropan-2-yl]amino]-5-(diaminomethylideneamino)-1-oxopentan-2-yl]amino]-3-(4-iodophenyl)-1-oxopropan-2-yl]-5-(diaminomethylideneamino)pentanamide

$$$$
