
     RDKit          3D

 53 55  0  0  0  0  0  0  0  0999 V2000
    6.1293    1.5027    1.7347 N   0  0  0  0  0  0  0  0  0  0  0  0
    5.4221    1.5900    0.4758 C   0  0  0  0  0  0  0  0  0  0  0  0
    6.1038    1.9618   -0.4962 O   0  0  0  0  0  0  0  0  0  0  0  0
    3.9942    1.2390    0.4654 C   0  0  0  0  0  0  0  0  0  0  0  0
    3.6482   -0.2001    0.4731 C   0  0  0  0  0  0  0  0  0  0  0  0
    4.0937   -1.0609   -0.6449 C   0  0  0  0  0  0  0  0  0  0  0  0
    5.5008   -1.2867   -1.0359 C   0  0  0  0  0  0  0  0  0  0  0  0
    4.5732   -0.5822   -1.9655 C   0  0  0  0  0  0  0  0  0  0  0  0
    2.2056   -0.3963    0.7508 N   0  0  0  0  0  0  0  0  0  0  0  0
    1.2173    0.1554   -0.1170 C   0  0  0  0  0  0  0  0  0  0  0  0
    1.5025    0.8242   -1.1424 O   0  0  0  0  0  0  0  0  0  0  0  0
   -0.2072   -0.0656    0.1974 C   0  0  0  0  0  0  0  0  0  0  0  0
   -0.5612   -0.7752    1.2759 N   0  0  0  0  0  0  0  0  0  0  0  0
   -1.8384   -1.0126    1.6155 C   0  0  0  0  0  0  0  0  0  0  0  0
   -2.8566   -0.5054    0.8210 C   0  0  0  0  0  0  0  0  0  0  0  0
   -2.5708    0.2479   -0.3278 C   0  0  0  0  0  0  0  0  0  0  0  0
   -1.1943    0.4402   -0.5950 C   0  0  0  0  0  0  0  0  0  0  0  0
   -3.4276    0.7780   -1.1585 O   0  0  0  0  0  0  0  0  0  0  0  0
   -4.6402    1.0337   -1.6185 C   0  0  2  0  0  0  0  0  0  0  0  0
   -4.7898    0.6764   -3.1220 C   0  0  0  0  0  0  0  0  0  0  0  0
   -3.8673    1.4442   -3.7901 F   0  0  0  0  0  0  0  0  0  0  0  0
   -4.5764   -0.6697   -3.2575 F   0  0  0  0  0  0  0  0  0  0  0  0
   -6.0559    1.0872   -3.4675 F   0  0  0  0  0  0  0  0  0  0  0  0
   -5.0667    2.5058   -1.5632 C   0  0  0  0  0  0  0  0  0  0  0  0
   -4.2332   -0.7401    1.2435 C   0  0  0  0  0  0  0  0  0  0  0  0
   -4.9575    0.4338    1.3964 F   0  0  0  0  0  0  0  0  0  0  0  0
   -4.3744   -1.6032    2.4960 C   0  0  0  0  0  0  0  0  0  0  0  0
   -5.6454   -1.9688    1.9682 O   0  0  0  0  0  0  0  0  0  0  0  0
   -5.0097   -1.8715    0.7012 C   0  0  0  0  0  0  0  0  0  0  0  0
    4.3373   -0.7804    1.7325 C   0  0  0  0  0  0  0  0  0  0  0  0
    5.8835    2.2609    2.4209 H   0  0  0  0  0  0  0  0  0  0  0  0
    6.8212    0.7463    1.9271 H   0  0  0  0  0  0  0  0  0  0  0  0
    3.4271    1.8185   -0.3059 H   0  0  0  0  0  0  0  0  0  0  0  0
    3.5834    1.6601    1.4374 H   0  0  0  0  0  0  0  0  0  0  0  0
    3.4936   -2.0420   -0.6486 H   0  0  0  0  0  0  0  0  0  0  0  0
    6.3319   -0.7063   -0.6415 H   0  0  0  0  0  0  0  0  0  0  0  0
    5.8308   -2.3278   -1.3506 H   0  0  0  0  0  0  0  0  0  0  0  0
    4.2799   -1.1806   -2.8873 H   0  0  0  0  0  0  0  0  0  0  0  0
    4.5895    0.5064   -2.1363 H   0  0  0  0  0  0  0  0  0  0  0  0
    1.8647   -0.9278    1.5637 H   0  0  0  0  0  0  0  0  0  0  0  0
   -1.9991   -1.5917    2.5057 H   0  0  0  0  0  0  0  0  0  0  0  0
   -0.8869    1.0165   -1.4693 H   0  0  0  0  0  0  0  0  0  0  0  0
   -5.4966    0.4936   -1.1230 H   0  0  0  0  0  0  0  0  0  0  0  0
   -5.3822    2.8198   -0.5689 H   0  0  0  0  0  0  0  0  0  0  0  0
   -5.9585    2.5963   -2.2294 H   0  0  0  0  0  0  0  0  0  0  0  0
   -4.2906    3.1536   -1.9989 H   0  0  0  0  0  0  0  0  0  0  0  0
   -3.7571   -2.5092    2.4573 H   0  0  0  0  0  0  0  0  0  0  0  0
   -4.3991   -1.0208    3.4157 H   0  0  0  0  0  0  0  0  0  0  0  0
   -4.4302   -2.8170    0.5771 H   0  0  0  0  0  0  0  0  0  0  0  0
   -5.6930   -1.6416   -0.1157 H   0  0  0  0  0  0  0  0  0  0  0  0
    3.7068   -1.6269    2.1207 H   0  0  0  0  0  0  0  0  0  0  0  0
    5.3551   -1.0899    1.4995 H   0  0  0  0  0  0  0  0  0  0  0  0
    4.2704    0.0080    2.5050 H   0  0  0  0  0  0  0  0  0  0  0  0
  1  2  1  0
  2  3  2  0
  2  4  1  0
  4  5  1  0
  5  6  1  0
  6  7  1  0
  7  8  1  0
  5  9  1  0
  9 10  1  0
 10 11  2  0
 10 12  1  0
 12 13  2  0
 13 14  1  0
 14 15  2  0
 15 16  1  0
 16 17  2  0
 16 18  1  0
 18 19  1  0
 19 20  1  0
 20 21  1  0
 20 22  1  0
 20 23  1  0
 19 24  1  0
 15 25  1  0
 25 26  1  0
 25 27  1  0
 27 28  1  0
 28 29  1  0
  5 30  1  0
  8  6  1  0
 17 12  1  0
 29 25  1  0
  1 31  1  0
  1 32  1  0
  4 33  1  0
  4 34  1  0
  6 35  1  0
  7 36  1  0
  7 37  1  0
  8 38  1  0
  8 39  1  0
  9 40  1  0
 14 41  1  0
 17 42  1  0
 19 43  1  1
 24 44  1  0
 24 45  1  0
 24 46  1  0
 27 47  1  0
 27 48  1  0
 29 49  1  0
 29 50  1  0
 30 51  1  0
 30 52  1  0
 30 53  1  0
M  END
>  <Ligand ID>  (1) 
LIG0005176

>  <Ligand>  (1) 
CHEMBL3926374

>  <SMILES>  (1) 
NC(=O)CC(C1CC1)(NC(=O)c1ncc(c(c1)O[C@H](C(F)(F)F)C)C1(F)COC1)C

>  <CID>  (1) 
90204453.0

>  <ChEMBL ID>  (1) 
nan

>  <InChiKey>  (1) 
SLMBKCIBIYWVPD-YOZOHBORSA-N

>  <InChi>  (1) 
InChI=1S/C19H23F4N3O4/c1-10(19(21,22)23)30-14-5-13(25-7-12(14)18(20)8-29-9-18)16(28)26-17(2,6-15(24)27)11-3-4-11/h5,7,10-11H,3-4,6,8-9H2,1-2H3,(H2,24,27)(H,26,28)/t10-,17?/m0/s1

>  <IUPAC Name>  (1) 
N-(4-amino-2-cyclopropyl-4-oxobutan-2-yl)-5-(3-fluorooxetan-3-yl)-4-[(2S)-1,1,1-trifluoropropan-2-yl]oxypyridine-2-carboxamide

$$$$
