
     RDKit          3D

 74 81  0  0  0  0  0  0  0  0999 V2000
    1.4653    6.6765    0.7504 C   0  0  0  0  0  0  0  0  0  0  0  0
    0.9970    5.4082    1.0927 O   0  0  0  0  0  0  0  0  0  0  0  0
    1.4643    4.2263    0.5433 C   0  0  0  0  0  0  0  0  0  0  0  0
    2.4725    4.1997   -0.4280 C   0  0  0  0  0  0  0  0  0  0  0  0
    2.9313    2.9910   -0.9727 C   0  0  0  0  0  0  0  0  0  0  0  0
    2.3695    1.7860   -0.5341 C   0  0  0  0  0  0  0  0  0  0  0  0
    1.4087    1.9053    0.4043 C   0  0  0  0  0  0  0  0  0  0  0  0
    0.9030    3.0287    0.9814 C   0  0  0  0  0  0  0  0  0  0  0  0
   -0.0799    2.6374    1.8792 O   0  0  0  0  0  0  0  0  0  0  0  0
   -0.4912    1.2816    1.5766 C   0  0  2  0  0  0  0  0  0  0  0  0
    0.7772    0.7039    0.9622 C   0  0  2  0  0  0  0  0  0  0  0  0
    1.4865   -0.0515    1.9876 C   0  0  0  0  0  0  0  0  0  0  0  0
    2.5358   -1.0358    1.5527 C   0  0  0  0  0  0  0  0  0  0  0  0
    2.4964   -1.4556    0.2367 N   0  0  0  0  0  0  0  0  0  0  0  0
    1.7828   -0.6607   -0.7131 C   0  0  2  0  0  0  0  0  0  0  0  0
    2.7201    0.4758   -1.0759 C   0  0  0  0  0  0  0  0  0  0  0  0
    0.4840   -0.1418   -0.2599 C   0  0  2  0  0  0  0  0  0  0  0  0
   -0.0009    0.8790   -1.2848 C   0  0  0  0  0  0  0  0  0  0  0  0
   -0.9378    1.7080   -0.7861 C   0  0  0  0  0  0  0  0  0  0  0  0
   -1.5480    1.2104    0.5081 C   0  0  2  0  0  0  0  0  0  0  0  0
   -2.6290    1.9532    0.8847 O   0  0  0  0  0  0  0  0  0  0  0  0
   -3.7544    1.7147    0.0954 C   0  0  0  0  0  0  0  0  0  0  0  0
   -4.0987    0.4033    0.0145 O   0  0  0  0  0  0  0  0  0  0  0  0
   -3.1056   -0.4686   -0.4533 C   0  0  2  0  0  0  0  0  0  0  0  0
   -1.8828   -0.2623    0.3595 C   0  0  1  0  0  0  0  0  0  0  0  0
   -0.6683   -1.0499   -0.0681 C   0  0  0  0  0  0  0  0  0  0  0  0
   -2.9408   -0.2478   -1.9162 C   0  0  0  0  0  0  0  0  0  0  0  0
   -3.7444   -1.8309   -0.2106 C   0  0  0  0  0  0  0  0  0  0  0  0
   -5.0379   -1.8214   -1.0387 C   0  0  0  0  0  0  0  0  0  0  0  0
   -2.9496   -2.9968   -0.6526 C   0  0  0  0  0  0  0  0  0  0  0  0
   -4.1390   -1.9801    1.2190 C   0  0  0  0  0  0  0  0  0  0  0  0
    2.4005   -2.8289   -0.0284 C   0  0  0  0  0  0  0  0  0  0  0  0
    3.5547   -3.7175    0.2488 C   0  0  0  0  0  0  0  0  0  0  0  0
    4.8685   -3.5329   -0.4138 C   0  0  0  0  0  0  0  0  0  0  0  0
    4.7529   -3.3313    1.0523 C   0  0  0  0  0  0  0  0  0  0  0  0
    2.5343    6.7658    0.9768 H   0  0  0  0  0  0  0  0  0  0  0  0
    1.2915    6.8043   -0.3557 H   0  0  0  0  0  0  0  0  0  0  0  0
    0.8823    7.4467    1.2678 H   0  0  0  0  0  0  0  0  0  0  0  0
    2.9136    5.1481   -0.7704 H   0  0  0  0  0  0  0  0  0  0  0  0
    3.7077    2.9611   -1.7233 H   0  0  0  0  0  0  0  0  0  0  0  0
   -0.7963    0.7531    2.4960 H   0  0  0  0  0  0  0  0  0  0  0  0
    0.7178   -0.6564    2.5539 H   0  0  0  0  0  0  0  0  0  0  0  0
    1.8611    0.6599    2.7624 H   0  0  0  0  0  0  0  0  0  0  0  0
    2.6082   -1.8860    2.2552 H   0  0  0  0  0  0  0  0  0  0  0  0
    3.5031   -0.4585    1.6970 H   0  0  0  0  0  0  0  0  0  0  0  0
    1.6138   -1.2446   -1.6424 H   0  0  0  0  0  0  0  0  0  0  0  0
    3.7866    0.1881   -0.8316 H   0  0  0  0  0  0  0  0  0  0  0  0
    2.7476    0.5804   -2.2082 H   0  0  0  0  0  0  0  0  0  0  0  0
    0.3733    0.9160   -2.2826 H   0  0  0  0  0  0  0  0  0  0  0  0
   -1.2284    2.6272   -1.2501 H   0  0  0  0  0  0  0  0  0  0  0  0
   -3.6063    2.2402   -0.8487 H   0  0  0  0  0  0  0  0  0  0  0  0
   -4.5843    2.2279    0.6245 H   0  0  0  0  0  0  0  0  0  0  0  0
   -2.1373   -0.6075    1.4042 H   0  0  0  0  0  0  0  0  0  0  0  0
   -0.3896   -1.8046    0.7106 H   0  0  0  0  0  0  0  0  0  0  0  0
   -0.8073   -1.6104   -1.0158 H   0  0  0  0  0  0  0  0  0  0  0  0
   -2.1531   -0.8565   -2.3836 H   0  0  0  0  0  0  0  0  0  0  0  0
   -2.7524    0.8034   -2.1940 H   0  0  0  0  0  0  0  0  0  0  0  0
   -3.9081   -0.5074   -2.4128 H   0  0  0  0  0  0  0  0  0  0  0  0
   -5.4524   -0.7962   -1.1149 H   0  0  0  0  0  0  0  0  0  0  0  0
   -4.8673   -2.2626   -2.0218 H   0  0  0  0  0  0  0  0  0  0  0  0
   -5.8041   -2.4173   -0.5002 H   0  0  0  0  0  0  0  0  0  0  0  0
   -3.6587   -3.8807   -0.6129 H   0  0  0  0  0  0  0  0  0  0  0  0
   -2.1318   -3.3020    0.0323 H   0  0  0  0  0  0  0  0  0  0  0  0
   -2.6336   -2.9772   -1.7133 H   0  0  0  0  0  0  0  0  0  0  0  0
   -4.5914   -1.0093    1.5660 H   0  0  0  0  0  0  0  0  0  0  0  0
   -3.3173   -2.2813    1.8961 H   0  0  0  0  0  0  0  0  0  0  0  0
   -4.9489   -2.7419    1.2945 H   0  0  0  0  0  0  0  0  0  0  0  0
    1.4636   -3.2114    0.5045 H   0  0  0  0  0  0  0  0  0  0  0  0
    2.1069   -3.0085   -1.1194 H   0  0  0  0  0  0  0  0  0  0  0  0
    3.2789   -4.8102    0.3796 H   0  0  0  0  0  0  0  0  0  0  0  0
    5.4434   -4.4196   -0.7451 H   0  0  0  0  0  0  0  0  0  0  0  0
    5.0086   -2.6735   -1.1160 H   0  0  0  0  0  0  0  0  0  0  0  0
    4.8188   -2.3553    1.5149 H   0  0  0  0  0  0  0  0  0  0  0  0
    5.2445   -4.1188    1.7030 H   0  0  0  0  0  0  0  0  0  0  0  0
  1  2  1  0
  2  3  1  0
  3  4  2  0
  4  5  1  0
  5  6  2  0
  6  7  1  0
  7  8  2  0
  8  9  1  0
  9 10  1  0
 10 11  1  0
 11 12  1  1
 12 13  1  0
 13 14  1  0
 14 15  1  0
 15 16  1  0
 15 17  1  0
 17 18  1  0
 18 19  2  0
 19 20  1  0
 20 21  1  1
 21 22  1  0
 22 23  1  0
 23 24  1  0
 24 25  1  0
 25 26  1  0
 24 27  1  6
 24 28  1  0
 28 29  1  0
 28 30  1  0
 28 31  1  0
 14 32  1  0
 32 33  1  0
 33 34  1  0
 34 35  1  0
  8  3  1  0
 20 10  1  0
 35 33  1  0
 16  6  1  0
 17 26  1  1
 11  7  1  0
 25 20  1  0
 17 11  1  0
  1 36  1  0
  1 37  1  0
  1 38  1  0
  4 39  1  0
  5 40  1  0
 10 41  1  1
 12 42  1  0
 12 43  1  0
 13 44  1  0
 13 45  1  0
 15 46  1  6
 16 47  1  0
 16 48  1  0
 18 49  1  0
 19 50  1  0
 22 51  1  0
 22 52  1  0
 25 53  1  1
 26 54  1  0
 26 55  1  0
 27 56  1  0
 27 57  1  0
 27 58  1  0
 29 59  1  0
 29 60  1  0
 29 61  1  0
 30 62  1  0
 30 63  1  0
 30 64  1  0
 31 65  1  0
 31 66  1  0
 31 67  1  0
 32 68  1  0
 32 69  1  0
 33 70  1  0
 34 71  1  0
 34 72  1  0
 35 73  1  0
 35 74  1  0
M  END
>  <Ligand ID>  (1) 
LIG0005109

>  <Ligand>  (1) 
SCHEMBL15493842

>  <SMILES>  (1) 
COc1ccc2c3c1O[C@@H]1[C@@]43CCN([C@H](C2)[C@@]24C=C[C@@]31OCO[C@]([C@H]3C2)(C)C(C)(C)C)CC1CC1

>  <CID>  (1) 
89985167.0

>  <ChEMBL ID>  (1) 
nan

>  <InChiKey>  (1) 
GDHAFQLKNVBNOD-VQWWACLZSA-N

>  <InChi>  (1) 
InChI=1S/C30H39NO4/c1-26(2,3)27(4)21-15-28-10-11-30(21,34-17-33-27)25-29(28)12-13-31(16-18-6-7-18)22(28)14-19-8-9-20(32-5)24(35-25)23(19)29/h8-11,18,21-22,25H,6-7,12-17H2,1-5H3/t21-,22-,25-,27+,28-,29+,30-/m1/s1

>  <IUPAC Name>  (1) 
(1R,2S,6R,14R,15R,19S,20R)-19-tert-butyl-5-(cyclopropylmethyl)-11-methoxy-19-methyl-13,16,18-trioxa-5-azaheptacyclo[13.6.2.12,8.01,6.02,14.015,20.012,24]tetracosa-8(24),9,11,22-tetraene

$$$$
