
     RDKit          3D

 29 28  0  0  0  0  0  0  0  0999 V2000
   -5.3596    0.8610    1.0459 O   0  0  0  0  0  0  0  0  0  0  0  0
   -4.3784    0.6229    0.1063 C   0  0  0  0  0  0  0  0  0  0  0  0
   -4.5344    1.0499   -1.0661 O   0  0  0  0  0  0  0  0  0  0  0  0
   -3.1290   -0.1227    0.4129 C   0  0  0  0  0  0  0  0  0  0  0  0
   -2.3286   -0.1666   -0.8642 C   0  0  0  0  0  0  0  0  0  0  0  0
   -0.7636   -1.0383   -0.6918 P   0  0  0  0  0  0  0  0  0  0  0  0
   -0.9083   -2.3647   -0.0317 O   0  0  0  0  0  0  0  0  0  0  0  0
    0.4474   -0.0864    0.2703 C   0  0  0  0  0  0  0  0  0  0  0  0
    1.7992   -0.5634   -0.1953 C   0  0  0  0  0  0  0  0  0  0  0  0
    2.9414    0.1240    0.5017 C   0  0  2  0  0  0  0  0  0  0  0  0
    2.9559    1.5753    0.3094 C   0  0  0  0  0  0  0  0  0  0  0  0
    3.6883    2.2706    1.0629 O   0  0  0  0  0  0  0  0  0  0  0  0
    2.2010    2.1840   -0.6584 O   0  0  0  0  0  0  0  0  0  0  0  0
    4.1664   -0.4958    0.0111 N   0  0  0  0  0  0  0  0  0  0  0  0
   -0.1213   -1.2093   -2.2526 O   0  0  0  0  0  0  0  0  0  0  0  0
   -5.9903    1.6691    0.9745 H   0  0  0  0  0  0  0  0  0  0  0  0
   -3.4428   -1.1350    0.7554 H   0  0  0  0  0  0  0  0  0  0  0  0
   -2.5612    0.3441    1.2426 H   0  0  0  0  0  0  0  0  0  0  0  0
   -2.1715    0.8530   -1.2093 H   0  0  0  0  0  0  0  0  0  0  0  0
   -2.9262   -0.7391   -1.6084 H   0  0  0  0  0  0  0  0  0  0  0  0
    0.3187    1.0106    0.0814 H   0  0  0  0  0  0  0  0  0  0  0  0
    0.3007   -0.2617    1.3634 H   0  0  0  0  0  0  0  0  0  0  0  0
    1.8635   -1.6406   -0.0345 H   0  0  0  0  0  0  0  0  0  0  0  0
    1.8528   -0.2992   -1.2828 H   0  0  0  0  0  0  0  0  0  0  0  0
    2.8631   -0.1523    1.5852 H   0  0  0  0  0  0  0  0  0  0  0  0
    4.9697   -0.3058    0.6443 H   0  0  0  0  0  0  0  0  0  0  0  0
    4.3457   -0.1573   -0.9681 H   0  0  0  0  0  0  0  0  0  0  0  0
    3.9727   -1.5194   -0.0619 H   0  0  0  0  0  0  0  0  0  0  0  0
   -0.0713   -0.3071   -2.6435 H   0  0  0  0  0  0  0  0  0  0  0  0
  1  2  1  0
  2  3  2  0
  2  4  1  0
  4  5  1  0
  5  6  1  0
  6  7  2  0
  6  8  1  0
  8  9  1  0
  9 10  1  0
 10 11  1  0
 11 12  2  0
 11 13  1  0
 10 14  1  0
  6 15  1  0
  1 16  1  0
  4 17  1  0
  4 18  1  0
  5 19  1  0
  5 20  1  0
  8 21  1  0
  8 22  1  0
  9 23  1  0
  9 24  1  0
 10 25  1  1
 14 26  1  0
 14 27  1  0
 14 28  1  0
 15 29  1  0
M  CHG  2  13  -1  14   1
M  END
>  <Ligand ID>  (1) 
LIG0002121

>  <Ligand>  (1) 
MolPort-000-743-361

>  <SMILES>  (1) 
OC(=O)CCP(=O)(CC[C@H](C(=O)[O-])[NH3+])O

>  <CID>  (1) 
44660046.0

>  <ChEMBL ID>  (1) 
nan

>  <InChiKey>  (1) 
CIOKCIBFBZYLCA-RXMQYKEDSA-N

>  <InChi>  (1) 
InChI=1S/C7H14NO6P/c8-5(7(11)12)1-3-15(13,14)4-2-6(9)10/h5H,1-4,8H2,(H,9,10)(H,11,12)(H,13,14)/t5-/m1/s1

>  <IUPAC Name>  (1) 
(2R)-2-azaniumyl-4-[2-carboxyethyl(hydroxy)phosphoryl]butanoate

$$$$
