
     RDKit          3D

 65 67  0  0  0  0  0  0  0  0999 V2000
    9.1443    0.1840    2.8948 O   0  0  0  0  0  0  0  0  0  0  0  0
    8.7682   -1.1059    2.5589 C   0  0  0  0  0  0  0  0  0  0  0  0
    8.7267   -1.9465    3.4975 O   0  0  0  0  0  0  0  0  0  0  0  0
    8.4216   -1.5328    1.1834 C   0  0  0  0  0  0  0  0  0  0  0  0
    8.5007   -0.5574    0.2332 O   0  0  0  0  0  0  0  0  0  0  0  0
    7.6874    0.5264    0.3649 C   0  0  0  0  0  0  0  0  0  0  0  0
    6.2691    0.1058    0.3329 C   0  0  0  0  0  0  0  0  0  0  0  0
    5.5398   -0.2184    1.4675 C   0  0  0  0  0  0  0  0  0  0  0  0
    4.2005   -0.6062    1.3701 C   0  0  0  0  0  0  0  0  0  0  0  0
    3.5462   -0.6845    0.1553 C   0  0  0  0  0  0  0  0  0  0  0  0
    4.3037   -0.3551   -0.9564 C   0  0  0  0  0  0  0  0  0  0  0  0
    5.6245    0.0291   -0.8793 C   0  0  0  0  0  0  0  0  0  0  0  0
    2.1810   -1.0674    0.0259 N   0  0  0  0  0  0  0  0  0  0  0  0
    1.5919   -0.9006   -1.2988 C   0  0  0  0  0  0  0  0  0  0  0  0
    0.0891   -0.8604   -1.1266 C   0  0  0  0  0  0  0  0  0  0  0  0
   -0.2159   -0.0222    0.0757 C   0  0  0  0  0  0  0  0  0  0  0  0
    0.1713   -0.7210    1.3586 C   0  0  0  0  0  0  0  0  0  0  0  0
    1.3906   -1.5944    1.1187 C   0  0  0  0  0  0  0  0  0  0  0  0
   -1.5668    0.4153    0.0671 N   0  0  0  0  0  0  0  0  0  0  0  0
   -1.8209    1.4191   -0.9385 C   0  0  0  0  0  0  0  0  0  0  0  0
   -3.2753    1.8168   -0.8748 C   0  0  1  0  0  0  0  0  0  0  0  0
   -4.2202    0.7872   -1.2878 C   0  0  0  0  0  0  0  0  0  0  0  0
   -3.8379   -0.3844   -1.9488 C   0  0  0  0  0  0  0  0  0  0  0  0
   -4.8093   -1.3026   -2.3251 C   0  0  0  0  0  0  0  0  0  0  0  0
   -6.1568   -1.0623   -2.0466 C   0  0  0  0  0  0  0  0  0  0  0  0
   -6.5525    0.1025   -1.3881 C   0  0  0  0  0  0  0  0  0  0  0  0
   -5.5638    0.9901   -1.0299 C   0  0  0  0  0  0  0  0  0  0  0  0
   -7.9231    0.3211   -1.1332 N   0  0  0  0  0  0  0  0  0  0  0  0
   -8.5012    1.4334    0.0661 S   0  0  0  0  0  0  0  0  0  0  0  0
   -7.9672    2.8254   -0.1468 O   0  0  0  0  0  0  0  0  0  0  0  0
  -10.0019    1.4355    0.0718 O   0  0  0  0  0  0  0  0  0  0  0  0
   -7.8930    0.8498    1.6374 C   0  0  0  0  0  0  0  0  0  0  0  0
   -7.0501   -2.0226   -2.4563 O   0  0  0  0  0  0  0  0  0  0  0  0
   -3.5925    2.2899    0.3901 O   0  0  0  0  0  0  0  0  0  0  0  0
    9.9394    0.3520    3.4783 H   0  0  0  0  0  0  0  0  0  0  0  0
    7.4257   -2.0725    1.1699 H   0  0  0  0  0  0  0  0  0  0  0  0
    9.1414   -2.3428    0.8668 H   0  0  0  0  0  0  0  0  0  0  0  0
    7.8682    1.1770    1.2398 H   0  0  0  0  0  0  0  0  0  0  0  0
    7.8485    1.1700   -0.5569 H   0  0  0  0  0  0  0  0  0  0  0  0
    6.0334   -0.1631    2.4336 H   0  0  0  0  0  0  0  0  0  0  0  0
    3.7131   -0.8335    2.2965 H   0  0  0  0  0  0  0  0  0  0  0  0
    3.8875   -0.3848   -1.9725 H   0  0  0  0  0  0  0  0  0  0  0  0
    6.1786    0.2791   -1.7751 H   0  0  0  0  0  0  0  0  0  0  0  0
    1.9729    0.0959   -1.6543 H   0  0  0  0  0  0  0  0  0  0  0  0
    1.9058   -1.7347   -1.9439 H   0  0  0  0  0  0  0  0  0  0  0  0
   -0.3882   -0.4627   -2.0246 H   0  0  0  0  0  0  0  0  0  0  0  0
   -0.2268   -1.9083   -0.9035 H   0  0  0  0  0  0  0  0  0  0  0  0
    0.4315    0.9033   -0.0387 H   0  0  0  0  0  0  0  0  0  0  0  0
   -0.6967   -1.2462    1.7582 H   0  0  0  0  0  0  0  0  0  0  0  0
    0.4823    0.0534    2.0797 H   0  0  0  0  0  0  0  0  0  0  0  0
    1.9811   -1.7632    2.0244 H   0  0  0  0  0  0  0  0  0  0  0  0
    0.9863   -2.5726    0.7885 H   0  0  0  0  0  0  0  0  0  0  0  0
   -2.2694   -0.3281    0.1429 H   0  0  0  0  0  0  0  0  0  0  0  0
   -1.2465    2.3597   -0.6647 H   0  0  0  0  0  0  0  0  0  0  0  0
   -1.4936    1.1796   -1.9462 H   0  0  0  0  0  0  0  0  0  0  0  0
   -3.4041    2.7300   -1.5492 H   0  0  0  0  0  0  0  0  0  0  0  0
   -2.7938   -0.5711   -2.1646 H   0  0  0  0  0  0  0  0  0  0  0  0
   -4.4918   -2.2051   -2.8353 H   0  0  0  0  0  0  0  0  0  0  0  0
   -5.8694    1.8903   -0.5198 H   0  0  0  0  0  0  0  0  0  0  0  0
   -8.6290   -0.2113   -1.6941 H   0  0  0  0  0  0  0  0  0  0  0  0
   -7.7191    1.7255    2.2822 H   0  0  0  0  0  0  0  0  0  0  0  0
   -8.6536    0.1588    2.0656 H   0  0  0  0  0  0  0  0  0  0  0  0
   -6.9277    0.3376    1.4957 H   0  0  0  0  0  0  0  0  0  0  0  0
   -7.4371   -2.7057   -1.8214 H   0  0  0  0  0  0  0  0  0  0  0  0
   -2.7569    2.3747    0.9099 H   0  0  0  0  0  0  0  0  0  0  0  0
  1  2  1  0
  2  3  2  0
  2  4  1  0
  4  5  1  0
  5  6  1  0
  6  7  1  0
  7  8  2  0
  8  9  1  0
  9 10  2  0
 10 11  1  0
 11 12  2  0
 10 13  1  0
 13 14  1  0
 14 15  1  0
 15 16  1  0
 16 17  1  0
 17 18  1  0
 16 19  1  0
 19 20  1  0
 20 21  1  0
 21 22  1  0
 22 23  2  0
 23 24  1  0
 24 25  2  0
 25 26  1  0
 26 27  2  0
 26 28  1  0
 28 29  1  0
 29 30  2  0
 29 31  2  0
 29 32  1  0
 25 33  1  0
 21 34  1  0
 12  7  1  0
 18 13  1  0
 27 22  1  0
  1 35  1  0
  4 36  1  0
  4 37  1  0
  6 38  1  0
  6 39  1  0
  8 40  1  0
  9 41  1  0
 11 42  1  0
 12 43  1  0
 14 44  1  0
 14 45  1  0
 15 46  1  0
 15 47  1  0
 16 48  1  0
 17 49  1  0
 17 50  1  0
 18 51  1  0
 18 52  1  0
 19 53  1  0
 20 54  1  0
 20 55  1  0
 21 56  1  6
 23 57  1  0
 24 58  1  0
 27 59  1  0
 28 60  1  0
 32 61  1  0
 32 62  1  0
 32 63  1  0
 33 64  1  0
 34 65  1  0
M  END
>  <Ligand ID>  (1) 
LIG0004940

>  <Ligand>  (1) 
CHEMBL32888

>  <SMILES>  (1) 
OC(=O)COCc1ccc(cc1)N1CCC(CC1)NC[C@@H](c1ccc(c(c1)NS(=O)(=O)C)O)O

>  <CID>  (1) 
10601234.0

>  <ChEMBL ID>  (1) 
nan

>  <InChiKey>  (1) 
SDGBOACSFGQGSM-QFIPXVFZSA-N

>  <InChi>  (1) 
InChI=1S/C23H31N3O7S/c1-34(31,32)25-20-12-17(4-7-21(20)27)22(28)13-24-18-8-10-26(11-9-18)19-5-2-16(3-6-19)14-33-15-23(29)30/h2-7,12,18,22,24-25,27-28H,8-11,13-15H2,1H3,(H,29,30)/t22-/m0/s1

>  <IUPAC Name>  (1) 
2-[[4-[4-[[(2R)-2-hydroxy-2-[4-hydroxy-3-(methanesulfonamido)phenyl]ethyl]amino]piperidin-1-yl]phenyl]methoxy]acetic acid

$$$$
