
     RDKit          3D

 57 60  0  0  0  0  0  0  0  0999 V2000
    2.6073    2.6589   -0.9572 O   0  0  0  0  0  0  0  0  0  0  0  0
    3.3031    1.6771   -0.5780 C   0  0  0  0  0  0  0  0  0  0  0  0
    4.7764    1.7768   -0.4001 C   0  0  0  0  0  0  0  0  0  0  0  0
    5.3599    2.0760   -1.7736 C   0  0  0  0  0  0  0  0  0  0  0  0
    5.1261    0.4196    0.0384 C   0  0  0  0  0  0  0  0  0  0  0  0
    4.0032   -0.3913    0.1135 C   0  0  0  0  0  0  0  0  0  0  0  0
    2.8530    0.3595   -0.2632 N   0  0  0  0  0  0  0  0  0  0  0  0
    1.5105   -0.0751   -0.3268 C   0  0  0  0  0  0  0  0  0  0  0  0
    0.8914   -0.4490    1.0085 C   0  0  0  0  0  0  0  0  0  0  0  0
   -0.6185   -0.1696    0.9446 C   0  0  0  0  0  0  0  0  0  0  0  0
   -0.9879   -0.2181   -0.4261 N   0  0  0  0  0  0  0  0  0  0  0  0
   -0.3850   -1.2813   -1.1871 C   0  0  0  0  0  0  0  0  0  0  0  0
    1.1329   -1.1409   -1.2917 C   0  0  0  0  0  0  0  0  0  0  0  0
   -2.3347    0.0637   -0.7485 C   0  0  0  0  0  0  0  0  0  0  0  0
   -2.7687    1.4277   -0.3331 C   0  0  0  0  0  0  0  0  0  0  0  0
   -3.8029    1.4936    0.7381 C   0  0  0  0  0  0  0  0  0  0  0  0
   -5.2076    1.4089    0.2053 C   0  0  0  0  0  0  0  0  0  0  0  0
   -5.8475    0.1304    0.6798 C   0  0  0  0  0  0  0  0  0  0  0  0
   -5.8247   -0.8730   -0.4233 C   0  0  0  0  0  0  0  0  0  0  0  0
   -4.5271   -1.0221   -1.1482 C   0  0  0  0  0  0  0  0  0  0  0  0
   -3.3023   -1.0351   -0.3017 C   0  0  0  0  0  0  0  0  0  0  0  0
    4.1929   -1.6970    0.5147 C   0  0  0  0  0  0  0  0  0  0  0  0
    5.4347   -2.2142    0.8373 C   0  0  0  0  0  0  0  0  0  0  0  0
    6.5509   -1.4093    0.7629 C   0  0  0  0  0  0  0  0  0  0  0  0
    6.3681   -0.1022    0.3623 C   0  0  0  0  0  0  0  0  0  0  0  0
    5.0537    2.5567    0.3355 H   0  0  0  0  0  0  0  0  0  0  0  0
    6.2747    2.6990   -1.7203 H   0  0  0  0  0  0  0  0  0  0  0  0
    5.5112    1.1160   -2.2998 H   0  0  0  0  0  0  0  0  0  0  0  0
    4.6359    2.6565   -2.4134 H   0  0  0  0  0  0  0  0  0  0  0  0
    0.8947    0.8134   -0.6679 H   0  0  0  0  0  0  0  0  0  0  0  0
    1.3638    0.0522    1.8658 H   0  0  0  0  0  0  0  0  0  0  0  0
    1.0215   -1.5371    1.1630 H   0  0  0  0  0  0  0  0  0  0  0  0
   -0.7385    0.8671    1.3139 H   0  0  0  0  0  0  0  0  0  0  0  0
   -1.1643   -0.8702    1.5912 H   0  0  0  0  0  0  0  0  0  0  0  0
   -0.8852   -1.2990   -2.1737 H   0  0  0  0  0  0  0  0  0  0  0  0
   -0.6972   -2.2249   -0.6883 H   0  0  0  0  0  0  0  0  0  0  0  0
    1.3409   -0.8894   -2.3491 H   0  0  0  0  0  0  0  0  0  0  0  0
    1.5375   -2.1045   -0.9623 H   0  0  0  0  0  0  0  0  0  0  0  0
   -2.4004    0.0271   -1.8679 H   0  0  0  0  0  0  0  0  0  0  0  0
   -3.1661    2.0403   -1.1911 H   0  0  0  0  0  0  0  0  0  0  0  0
   -1.8486    1.9734   -0.0003 H   0  0  0  0  0  0  0  0  0  0  0  0
   -3.7093    2.5252    1.1900 H   0  0  0  0  0  0  0  0  0  0  0  0
   -3.6789    0.8114    1.5807 H   0  0  0  0  0  0  0  0  0  0  0  0
   -5.1219    1.4199   -0.9104 H   0  0  0  0  0  0  0  0  0  0  0  0
   -5.8286    2.3027    0.4536 H   0  0  0  0  0  0  0  0  0  0  0  0
   -6.9355    0.3772    0.8595 H   0  0  0  0  0  0  0  0  0  0  0  0
   -5.4754   -0.2281    1.6577 H   0  0  0  0  0  0  0  0  0  0  0  0
   -6.5688   -0.5102   -1.1927 H   0  0  0  0  0  0  0  0  0  0  0  0
   -6.2503   -1.8367   -0.0544 H   0  0  0  0  0  0  0  0  0  0  0  0
   -4.6365   -1.9594   -1.7633 H   0  0  0  0  0  0  0  0  0  0  0  0
   -4.4517   -0.2203   -1.9220 H   0  0  0  0  0  0  0  0  0  0  0  0
   -2.7497   -1.9959   -0.5244 H   0  0  0  0  0  0  0  0  0  0  0  0
   -3.4691   -1.0526    0.7785 H   0  0  0  0  0  0  0  0  0  0  0  0
    3.3577   -2.3437    0.5831 H   0  0  0  0  0  0  0  0  0  0  0  0
    5.5140   -3.2636    1.1495 H   0  0  0  0  0  0  0  0  0  0  0  0
    7.4917   -1.8361    1.0173 H   0  0  0  0  0  0  0  0  0  0  0  0
    7.2748    0.5197    0.3110 H   0  0  0  0  0  0  0  0  0  0  0  0
  1  2  2  0
  2  3  1  0
  3  4  1  0
  3  5  1  0
  5  6  2  0
  6  7  1  0
  7  8  1  0
  8  9  1  0
  9 10  1  0
 10 11  1  0
 11 12  1  0
 12 13  1  0
 11 14  1  0
 14 15  1  0
 15 16  1  0
 16 17  1  0
 17 18  1  0
 18 19  1  0
 19 20  1  0
 20 21  1  0
  6 22  1  0
 22 23  2  0
 23 24  1  0
 24 25  2  0
  7  2  1  0
 13  8  1  0
 21 14  1  0
 25  5  1  0
  3 26  1  0
  4 27  1  0
  4 28  1  0
  4 29  1  0
  8 30  1  0
  9 31  1  0
  9 32  1  0
 10 33  1  0
 10 34  1  0
 12 35  1  0
 12 36  1  0
 13 37  1  0
 13 38  1  0
 14 39  1  0
 15 40  1  0
 15 41  1  0
 16 42  1  0
 16 43  1  0
 17 44  1  0
 17 45  1  0
 18 46  1  0
 18 47  1  0
 19 48  1  0
 19 49  1  0
 20 50  1  0
 20 51  1  0
 21 52  1  0
 21 53  1  0
 22 54  1  0
 23 55  1  0
 24 56  1  0
 25 57  1  0
M  END
>  <Ligand ID>  (1) 
LIG0003992

>  <Ligand>  (1) 
CHEMBL2387195

>  <SMILES>  (1) 
O=C1C(C)c2c(N1C1CCN(CC1)C1CCCCCCC1)cccc2

>  <CID>  (1) 
71624387.0

>  <ChEMBL ID>  (1) 
nan

>  <InChiKey>  (1) 
YLJQVYWTNUVLEP-UHFFFAOYSA-N

>  <InChi>  (1) 
InChI=1S/C22H32N2O/c1-17-20-11-7-8-12-21(20)24(22(17)25)19-13-15-23(16-14-19)18-9-5-3-2-4-6-10-18/h7-8,11-12,17-19H,2-6,9-10,13-16H2,1H3

>  <IUPAC Name>  (1) 
1-(1-cyclooctylpiperidin-4-yl)-3-methyl-3H-indol-2-one

$$$$
