
     RDKit          3D

 37 39  0  0  0  0  0  0  0  0999 V2000
   -0.4780   -1.8139   -2.9971 O   0  0  0  0  0  0  0  0  0  0  0  0
    0.3435   -1.4038   -2.1342 C   0  0  0  0  0  0  0  0  0  0  0  0
    1.4184   -2.2301   -1.5854 C   0  0  0  0  0  0  0  0  0  0  0  0
    1.6701   -3.4313   -1.8861 O   0  0  0  0  0  0  0  0  0  0  0  0
    2.1120   -1.3600   -0.6337 C   0  0  0  0  0  0  0  0  0  0  0  0
    1.5069   -0.1192   -0.6123 C   0  0  0  0  0  0  0  0  0  0  0  0
    0.4124   -0.1018   -1.5219 N   0  0  0  0  0  0  0  0  0  0  0  0
   -0.5067    0.9504   -1.8438 C   0  0  0  0  0  0  0  0  0  0  0  0
   -1.7157    0.9845   -1.0065 C   0  0  0  0  0  0  0  0  0  0  0  0
   -1.8129    1.6878    0.1608 C   0  0  0  0  0  0  0  0  0  0  0  0
   -2.9828    1.6919    0.9257 C   0  0  0  0  0  0  0  0  0  0  0  0
   -4.0740    0.9687    0.4977 C   0  0  0  0  0  0  0  0  0  0  0  0
   -4.0041    0.2412   -0.6897 C   0  0  0  0  0  0  0  0  0  0  0  0
   -2.8236    0.2589   -1.4273 C   0  0  0  0  0  0  0  0  0  0  0  0
   -5.2760    0.9125    1.1888 O   0  0  0  0  0  0  0  0  0  0  0  0
   -5.4591   -0.1060    2.1603 C   0  0  0  0  0  0  0  0  0  0  0  0
   -5.3482   -1.3562    1.5730 F   0  0  0  0  0  0  0  0  0  0  0  0
   -6.6706    0.0014    2.7835 F   0  0  0  0  0  0  0  0  0  0  0  0
   -4.4511    0.0445    3.0923 F   0  0  0  0  0  0  0  0  0  0  0  0
    1.9854    0.8757    0.2123 C   0  0  0  0  0  0  0  0  0  0  0  0
    3.0626    0.6597    1.0228 C   0  0  0  0  0  0  0  0  0  0  0  0
    3.6792   -0.5864    1.0087 C   0  0  0  0  0  0  0  0  0  0  0  0
    3.2144   -1.5874    0.1930 C   0  0  0  0  0  0  0  0  0  0  0  0
    4.7813   -0.8136    1.8354 O   0  0  0  0  0  0  0  0  0  0  0  0
    6.0498   -0.5083    1.2451 C   0  0  0  0  0  0  0  0  0  0  0  0
    7.0874   -0.7526    2.1062 F   0  0  0  0  0  0  0  0  0  0  0  0
    5.9827    0.8086    0.8345 F   0  0  0  0  0  0  0  0  0  0  0  0
    6.2480   -1.3252    0.1256 F   0  0  0  0  0  0  0  0  0  0  0  0
   -0.8448    0.8930   -2.9176 H   0  0  0  0  0  0  0  0  0  0  0  0
   -0.0454    1.9745   -1.7535 H   0  0  0  0  0  0  0  0  0  0  0  0
   -0.9650    2.2609    0.5107 H   0  0  0  0  0  0  0  0  0  0  0  0
   -3.0668    2.2442    1.8472 H   0  0  0  0  0  0  0  0  0  0  0  0
   -4.8547   -0.3368   -1.0457 H   0  0  0  0  0  0  0  0  0  0  0  0
   -2.8255   -0.3215   -2.3373 H   0  0  0  0  0  0  0  0  0  0  0  0
    1.5183    1.8601    0.2402 H   0  0  0  0  0  0  0  0  0  0  0  0
    3.4761    1.3992    1.6842 H   0  0  0  0  0  0  0  0  0  0  0  0
    3.6560   -2.5633    0.1474 H   0  0  0  0  0  0  0  0  0  0  0  0
  1  2  2  0
  2  3  1  0
  3  4  2  0
  3  5  1  0
  5  6  2  0
  6  7  1  0
  7  8  1  0
  8  9  1  0
  9 10  2  0
 10 11  1  0
 11 12  2  0
 12 13  1  0
 13 14  2  0
 12 15  1  0
 15 16  1  0
 16 17  1  0
 16 18  1  0
 16 19  1  0
  6 20  1  0
 20 21  2  0
 21 22  1  0
 22 23  2  0
 22 24  1  0
 24 25  1  0
 25 26  1  0
 25 27  1  0
 25 28  1  0
  7  2  1  0
 14  9  1  0
 23  5  1  0
  8 29  1  0
  8 30  1  0
 10 31  1  0
 11 32  1  0
 13 33  1  0
 14 34  1  0
 20 35  1  0
 21 36  1  0
 23 37  1  0
M  END
>  <Ligand ID>  (1) 
LIG0005946

>  <Ligand>  (1) 
CHEMBL494190

>  <SMILES>  (1) 
O=C1C(=O)c2c(N1Cc1ccc(cc1)OC(F)(F)F)ccc(c2)OC(F)(F)F

>  <CID>  (1) 
44157243.0

>  <ChEMBL ID>  (1) 
nan

>  <InChiKey>  (1) 
LVFZKDWFNZONNO-UHFFFAOYSA-N

>  <InChi>  (1) 
InChI=1S/C17H9F6NO4/c18-16(19,20)27-10-3-1-9(2-4-10)8-24-13-6-5-11(28-17(21,22)23)7-12(13)14(25)15(24)26/h1-7H,8H2

>  <IUPAC Name>  (1) 
5-(trifluoromethoxy)-1-[[4-(trifluoromethoxy)phenyl]methyl]indole-2,3-dione

$$$$
