
     RDKit          3D

 69 71  0  0  0  0  0  0  0  0999 V2000
    8.7213   -2.4527   -0.2076 O   0  0  0  0  0  0  0  0  0  0  0  0
    8.8762   -1.4003   -1.1218 C   0  0  0  0  0  0  0  0  0  0  0  0
    9.8259   -0.3950   -0.5300 C   0  0  0  0  0  0  0  0  0  0  0  0
    9.1951    0.2728    0.6976 C   0  0  1  0  0  0  0  0  0  0  0  0
    9.9978    1.3251    1.1143 O   0  0  0  0  0  0  0  0  0  0  0  0
    7.8263    0.7498    0.2487 C   0  0  1  0  0  0  0  0  0  0  0  0
    7.0622   -0.4867   -0.1747 C   0  0  2  0  0  0  0  0  0  0  0  0
    7.6180   -0.8986   -1.3815 O   0  0  0  0  0  0  0  0  0  0  0  0
    5.5882   -0.2401   -0.2795 C   0  0  0  0  0  0  0  0  0  0  0  0
    5.0863    0.1684    0.9528 O   0  0  0  0  0  0  0  0  0  0  0  0
    3.4166    0.4577    0.8744 P   0  0  0  0  0  0  0  0  0  0  0  0
    3.1904    1.7753    1.5791 O   0  0  0  0  0  0  0  0  0  0  0  0
    2.9090    0.6047   -0.7307 O   0  0  0  0  0  0  0  0  0  0  0  0
    1.7877    1.8683   -0.8016 P   0  0  0  0  0  0  0  0  0  0  0  0
    2.5964    3.1244   -1.1298 O   0  0  0  0  0  0  0  0  0  0  0  0
    1.0678    2.0102    0.7208 O   0  0  0  0  0  0  0  0  0  0  0  0
   -0.6073    1.8850    0.5545 P   0  0  0  0  0  0  0  0  0  0  0  0
   -1.2023    1.6977    1.9525 O   0  0  0  0  0  0  0  0  0  0  0  0
   -0.9256    0.5206   -0.3582 O   0  0  0  0  0  0  0  0  0  0  0  0
   -0.9892   -0.8854    0.5614 P   0  0  0  0  0  0  0  0  0  0  0  0
   -0.6302   -0.6099    1.9984 O   0  0  0  0  0  0  0  0  0  0  0  0
   -2.5638   -1.4932    0.4675 O   0  0  0  0  0  0  0  0  0  0  0  0
   -3.5125   -0.4924    0.6717 C   0  0  0  0  0  0  0  0  0  0  0  0
   -4.8764   -1.1249    0.5709 C   0  0  1  0  0  0  0  0  0  0  0  0
   -5.9009   -0.2084    0.7601 O   0  0  0  0  0  0  0  0  0  0  0  0
   -6.9788   -0.7357    0.0462 C   0  0  2  0  0  0  0  0  0  0  0  0
   -6.3118   -1.0227   -1.2845 C   0  0  1  0  0  0  0  0  0  0  0  0
   -5.0362   -1.7157   -0.7921 C   0  0  2  0  0  0  0  0  0  0  0  0
   -5.3604   -3.0674   -0.6302 O   0  0  0  0  0  0  0  0  0  0  0  0
   -7.0475   -1.8432   -2.1107 O   0  0  0  0  0  0  0  0  0  0  0  0
   -8.0848    0.1561   -0.0370 N   0  0  0  0  0  0  0  0  0  0  0  0
   -7.8689    1.4560   -0.2270 C   0  0  0  0  0  0  0  0  0  0  0  0
   -8.9527    2.3228   -0.3075 C   0  0  0  0  0  0  0  0  0  0  0  0
  -10.2556    1.8361   -0.1905 C   0  0  0  0  0  0  0  0  0  0  0  0
  -11.2300    2.6276   -0.2646 O   0  0  0  0  0  0  0  0  0  0  0  0
  -10.3913    0.5082    0.0004 N   0  0  0  0  0  0  0  0  0  0  0  0
   -9.3388   -0.3203    0.0768 C   0  0  0  0  0  0  0  0  0  0  0  0
   -9.5371   -1.5493    0.2562 O   0  0  0  0  0  0  0  0  0  0  0  0
    0.0768   -2.0188   -0.1133 O   0  0  0  0  0  0  0  0  0  0  0  0
   -1.3012    3.2893   -0.0681 O   0  0  0  0  0  0  0  0  0  0  0  0
    0.6115    1.5689   -1.9844 O   0  0  0  0  0  0  0  0  0  0  0  0
    2.5186   -0.7608    1.6238 O   0  0  0  0  0  0  0  0  0  0  0  0
    7.1675    1.4665    1.2248 O   0  0  0  0  0  0  0  0  0  0  0  0
    8.0745   -3.0810   -0.6522 H   0  0  0  0  0  0  0  0  0  0  0  0
    9.3389   -1.8058   -2.0306 H   0  0  0  0  0  0  0  0  0  0  0  0
   10.0004    0.4280   -1.2480 H   0  0  0  0  0  0  0  0  0  0  0  0
   10.7641   -0.9006   -0.2907 H   0  0  0  0  0  0  0  0  0  0  0  0
    9.0406   -0.4891    1.4934 H   0  0  0  0  0  0  0  0  0  0  0  0
   10.2496    1.1443    2.0578 H   0  0  0  0  0  0  0  0  0  0  0  0
    7.9770    1.4207   -0.6215 H   0  0  0  0  0  0  0  0  0  0  0  0
    7.2327   -1.2943    0.5665 H   0  0  0  0  0  0  0  0  0  0  0  0
    5.1255   -1.1963   -0.5987 H   0  0  0  0  0  0  0  0  0  0  0  0
    5.3786    0.4825   -1.0838 H   0  0  0  0  0  0  0  0  0  0  0  0
   -3.3889    0.2129   -0.1837 H   0  0  0  0  0  0  0  0  0  0  0  0
   -3.3494    0.0065    1.6492 H   0  0  0  0  0  0  0  0  0  0  0  0
   -4.9445   -1.8774    1.4045 H   0  0  0  0  0  0  0  0  0  0  0  0
   -7.2524   -1.7381    0.4638 H   0  0  0  0  0  0  0  0  0  0  0  0
   -6.0044   -0.0689   -1.7929 H   0  0  0  0  0  0  0  0  0  0  0  0
   -4.1815   -1.5635   -1.4701 H   0  0  0  0  0  0  0  0  0  0  0  0
   -4.7312   -3.4337    0.0603 H   0  0  0  0  0  0  0  0  0  0  0  0
   -7.9404   -1.4099   -2.2061 H   0  0  0  0  0  0  0  0  0  0  0  0
   -6.8927    1.9151   -0.3279 H   0  0  0  0  0  0  0  0  0  0  0  0
   -8.7991    3.3805   -0.4613 H   0  0  0  0  0  0  0  0  0  0  0  0
  -11.3601    0.0966    0.0944 H   0  0  0  0  0  0  0  0  0  0  0  0
    0.4255   -2.6605    0.5590 H   0  0  0  0  0  0  0  0  0  0  0  0
   -1.9617    3.0381   -0.7745 H   0  0  0  0  0  0  0  0  0  0  0  0
    0.6003    0.6276   -2.2774 H   0  0  0  0  0  0  0  0  0  0  0  0
    3.0010   -1.6259    1.6656 H   0  0  0  0  0  0  0  0  0  0  0  0
    7.3609    2.4223    1.2283 H   0  0  0  0  0  0  0  0  0  0  0  0
  1  2  1  0
  2  3  1  0
  3  4  1  0
  4  5  1  0
  4  6  1  0
  6  7  1  0
  7  8  1  0
  7  9  1  0
  9 10  1  0
 10 11  1  0
 11 12  2  0
 11 13  1  0
 13 14  1  0
 14 15  2  0
 14 16  1  0
 16 17  1  0
 17 18  2  0
 17 19  1  0
 19 20  1  0
 20 21  2  0
 20 22  1  0
 22 23  1  0
 23 24  1  0
 24 25  1  0
 25 26  1  0
 26 27  1  0
 27 28  1  0
 28 29  1  0
 27 30  1  0
 26 31  1  0
 31 32  1  0
 32 33  2  0
 33 34  1  0
 34 35  2  0
 34 36  1  0
 36 37  1  0
 37 38  2  0
 20 39  1  0
 17 40  1  0
 14 41  1  0
 11 42  1  0
  6 43  1  0
  8  2  1  0
 28 24  1  0
 37 31  1  0
  1 44  1  0
  2 45  1  0
  3 46  1  0
  3 47  1  0
  4 48  1  1
  5 49  1  0
  6 50  1  6
  7 51  1  1
  9 52  1  0
  9 53  1  0
 23 54  1  0
 23 55  1  0
 24 56  1  1
 26 57  1  1
 27 58  1  6
 28 59  1  6
 29 60  1  0
 30 61  1  0
 32 62  1  0
 33 63  1  0
 36 64  1  0
 39 65  1  0
 40 66  1  0
 41 67  1  0
 42 68  1  0
 43 69  1  0
M  END
>  <Ligand ID>  (1) 
LIG0002416

>  <Ligand>  (1) 
CHEMBL454230

>  <SMILES>  (1) 
OC1C[C@@H](O)[C@@H]([C@H](O1)COP(=O)(OP(=O)(OP(=O)(OP(=O)(OC[C@H]1O[C@H]([C@@H]([C@@H]1O)O)n1ccc(=O)[nH]c1=O)O)O)O)O)O

>  <CID>  (1) 
44585521.0

>  <ChEMBL ID>  (1) 
nan

>  <InChiKey>  (1) 
HBRQZJDFQWHINU-SELJRJPRSA-N

>  <InChi>  (1) 
InChI=1S/C15H26N2O22P4/c18-6-3-10(20)35-7(11(6)21)4-33-40(25,26)37-42(29,30)39-43(31,32)38-41(27,28)34-5-8-12(22)13(23)14(36-8)17-2-1-9(19)16-15(17)24/h1-2,6-8,10-14,18,20-23H,3-5H2,(H,25,26)(H,27,28)(H,29,30)(H,31,32)(H,16,19,24)/t6-,7-,8-,10?,11+,12-,13-,14-/m1/s1

>  <IUPAC Name>  (1) 
[[(2R,3S,4R,5R)-5-(2,4-dioxopyrimidin-1-yl)-3,4-dihydroxyoxolan-2-yl]methoxy-hydroxyphosphoryl] [hydroxy-[hydroxy-[[(2R,3S,4R)-3,4,6-trihydroxyoxan-2-yl]methoxy]phosphoryl]oxyphosphoryl] hydrogen phosphate

$$$$
