
     RDKit          3D

 31 33  0  0  0  0  0  0  0  0999 V2000
    3.5068   -0.8825    0.7589 C   0  0  0  0  0  0  0  0  0  0  0  0
    4.1746   -0.3362   -0.4624 C   0  0  0  0  0  0  0  0  0  0  0  0
    3.1019   -0.1299   -1.4013 N   0  0  0  0  0  0  0  0  0  0  0  0
    2.0767   -0.8064   -1.0270 C   0  0  0  0  0  0  0  0  0  0  0  0
    2.3254   -1.5276    0.1708 N   0  0  0  0  0  0  0  0  0  0  0  0
    0.7729   -0.8581   -1.7379 C   0  0  0  0  0  0  0  0  0  0  0  0
   -0.3236   -0.4634   -0.9871 O   0  0  0  0  0  0  0  0  0  0  0  0
   -0.5830    0.7326   -0.3892 C   0  0  0  0  0  0  0  0  0  0  0  0
    0.2245    1.8431   -0.4107 C   0  0  0  0  0  0  0  0  0  0  0  0
   -0.0868    3.0329    0.2131 C   0  0  0  0  0  0  0  0  0  0  0  0
   -1.2779    3.1269    0.9037 C   0  0  0  0  0  0  0  0  0  0  0  0
   -2.1137    2.0310    0.9461 C   0  0  0  0  0  0  0  0  0  0  0  0
   -1.7868    0.8486    0.3166 C   0  0  0  0  0  0  0  0  0  0  0  0
   -2.6701   -0.3061    0.3628 C   0  0  0  0  0  0  0  0  0  0  0  0
   -2.7199   -1.4836   -0.0578 N   0  0  0  0  0  0  0  0  0  0  0  0
   -3.6606   -2.3330    0.1361 C   0  0  0  0  0  0  0  0  0  0  0  0
   -4.7599   -1.9262    0.8953 C   0  0  0  0  0  0  0  0  0  0  0  0
   -4.3087   -0.1860    1.3094 S   0  0  0  0  0  0  0  0  0  0  0  0
    3.2219   -0.0530    1.4184 H   0  0  0  0  0  0  0  0  0  0  0  0
    4.1468   -1.5870    1.3099 H   0  0  0  0  0  0  0  0  0  0  0  0
    4.9551   -1.0121   -0.8704 H   0  0  0  0  0  0  0  0  0  0  0  0
    4.6433    0.6593   -0.3021 H   0  0  0  0  0  0  0  0  0  0  0  0
    1.8368   -2.3290    0.5975 H   0  0  0  0  0  0  0  0  0  0  0  0
    0.8034   -0.2158   -2.6603 H   0  0  0  0  0  0  0  0  0  0  0  0
    0.6312   -1.9045   -2.0753 H   0  0  0  0  0  0  0  0  0  0  0  0
    1.1512    1.7959   -0.9402 H   0  0  0  0  0  0  0  0  0  0  0  0
    0.5993    3.8716    0.1551 H   0  0  0  0  0  0  0  0  0  0  0  0
   -1.5496    4.0487    1.4037 H   0  0  0  0  0  0  0  0  0  0  0  0
   -3.0473    2.1197    1.4931 H   0  0  0  0  0  0  0  0  0  0  0  0
   -3.6612   -3.3717   -0.2588 H   0  0  0  0  0  0  0  0  0  0  0  0
   -5.6228   -2.3983    1.1900 H   0  0  0  0  0  0  0  0  0  0  0  0
  1  2  1  0
  2  3  1  0
  3  4  2  0
  4  5  1  0
  4  6  1  0
  6  7  1  0
  7  8  1  0
  8  9  2  0
  9 10  1  0
 10 11  2  0
 11 12  1  0
 12 13  2  0
 13 14  1  0
 14 15  2  0
 15 16  1  0
 16 17  2  0
 17 18  1  0
  5  1  1  0
 13  8  1  0
 18 14  1  0
  1 19  1  0
  1 20  1  0
  2 21  1  0
  2 22  1  0
  5 23  1  0
  6 24  1  0
  6 25  1  0
  9 26  1  0
 10 27  1  0
 11 28  1  0
 12 29  1  0
 16 30  1  0
 17 31  1  0
M  END
>  <Ligand ID>  (1) 
LIG0003203

>  <Ligand>  (1) 
CHEMBL142871

>  <SMILES>  (1) 
C1CN=C(N1)COc1ccccc1c1nccs1

>  <CID>  (1) 
44362196.0

>  <ChEMBL ID>  (1) 
nan

>  <InChiKey>  (1) 
WQQMEKYYFTXIEE-UHFFFAOYSA-N

>  <InChi>  (1) 
InChI=1S/C13H13N3OS/c1-2-4-11(17-9-12-14-5-6-15-12)10(3-1)13-16-7-8-18-13/h1-4,7-8H,5-6,9H2,(H,14,15)

>  <IUPAC Name>  (1) 
2-[2-(4,5-dihydro-1H-imidazol-2-ylmethoxy)phenyl]-1,3-thiazole

$$$$
