
     RDKit          3D

 69 72  0  0  0  0  0  0  0  0999 V2000
  -10.9022   -1.0674   -1.7583 O   0  0  0  0  0  0  0  0  0  0  0  0
   -9.7905   -1.6829   -1.2004 C   0  0  0  0  0  0  0  0  0  0  0  0
   -9.8601   -2.8964   -0.8761 O   0  0  0  0  0  0  0  0  0  0  0  0
   -8.5762   -0.8528   -1.0220 C   0  0  0  0  0  0  0  0  0  0  0  0
   -7.4486   -1.6770   -0.3975 C   0  0  2  0  0  0  0  0  0  0  0  0
   -7.8792   -2.1983    0.9497 C   0  0  0  0  0  0  0  0  0  0  0  0
   -6.6784   -2.1188    1.7036 O   0  0  0  0  0  0  0  0  0  0  0  0
   -5.9174   -1.0493    1.2524 C   0  0  0  0  0  0  0  0  0  0  0  0
   -6.3521   -0.7489   -0.0193 C   0  0  0  0  0  0  0  0  0  0  0  0
   -5.7496    0.2830   -0.6866 C   0  0  0  0  0  0  0  0  0  0  0  0
   -4.7360    0.9876   -0.0788 C   0  0  0  0  0  0  0  0  0  0  0  0
   -4.2637    0.7308    1.1854 C   0  0  0  0  0  0  0  0  0  0  0  0
   -4.9045   -0.3380    1.8475 C   0  0  0  0  0  0  0  0  0  0  0  0
   -3.2890    1.3580    1.8512 O   0  0  0  0  0  0  0  0  0  0  0  0
   -2.4191    2.3839    1.6451 C   0  0  0  0  0  0  0  0  0  0  0  0
   -1.4561    2.2553    0.5397 C   0  0  0  0  0  0  0  0  0  0  0  0
   -1.6177    2.7542   -0.7257 C   0  0  0  0  0  0  0  0  0  0  0  0
   -0.6770    2.5921   -1.7338 C   0  0  0  0  0  0  0  0  0  0  0  0
    0.4937    1.9031   -1.4997 C   0  0  0  0  0  0  0  0  0  0  0  0
    0.6750    1.3932   -0.2315 C   0  0  0  0  0  0  0  0  0  0  0  0
   -0.2627    1.5562    0.7690 C   0  0  0  0  0  0  0  0  0  0  0  0
    1.9068    0.6573    0.0466 C   0  0  0  0  0  0  0  0  0  0  0  0
    3.0542    1.2549    0.5092 C   0  0  0  0  0  0  0  0  0  0  0  0
    3.0365    2.7175    0.7351 C   0  0  0  0  0  0  0  0  0  0  0  0
    4.1754    0.4699    0.7445 C   0  0  0  0  0  0  0  0  0  0  0  0
    4.1953   -0.8896    0.5352 C   0  0  0  0  0  0  0  0  0  0  0  0
    3.0074   -1.4437    0.0667 C   0  0  0  0  0  0  0  0  0  0  0  0
    1.8805   -0.7010   -0.1769 C   0  0  0  0  0  0  0  0  0  0  0  0
    0.6404   -1.3836   -0.6826 C   0  0  0  0  0  0  0  0  0  0  0  0
    5.2387   -1.7260    0.7351 O   0  0  0  0  0  0  0  0  0  0  0  0
    6.5281   -1.5484    1.1591 C   0  0  0  0  0  0  0  0  0  0  0  0
    7.4052   -0.6789    0.2911 C   0  0  0  0  0  0  0  0  0  0  0  0
    7.4430   -1.3595   -1.0754 C   0  0  0  0  0  0  0  0  0  0  0  0
    8.4526   -0.4311   -2.2078 S   0  0  0  0  0  0  0  0  0  0  0  0
    7.8519    0.9351   -2.4398 O   0  0  0  0  0  0  0  0  0  0  0  0
    8.5243   -1.1677   -3.5107 O   0  0  0  0  0  0  0  0  0  0  0  0
   10.1075   -0.3221   -1.5722 C   0  0  0  0  0  0  0  0  0  0  0  0
  -11.8490   -1.3907   -1.5549 H   0  0  0  0  0  0  0  0  0  0  0  0
   -8.2078   -0.3996   -1.9649 H   0  0  0  0  0  0  0  0  0  0  0  0
   -8.7870   -0.0034   -0.3267 H   0  0  0  0  0  0  0  0  0  0  0  0
   -7.1251   -2.4858   -1.0507 H   0  0  0  0  0  0  0  0  0  0  0  0
   -8.1813   -3.2770    0.8749 H   0  0  0  0  0  0  0  0  0  0  0  0
   -8.6471   -1.5799    1.4360 H   0  0  0  0  0  0  0  0  0  0  0  0
   -6.0664    0.5431   -1.6824 H   0  0  0  0  0  0  0  0  0  0  0  0
   -4.2994    1.7925   -0.6427 H   0  0  0  0  0  0  0  0  0  0  0  0
   -4.6019   -0.6204    2.8555 H   0  0  0  0  0  0  0  0  0  0  0  0
   -2.9155    3.4056    1.6305 H   0  0  0  0  0  0  0  0  0  0  0  0
   -1.7761    2.4691    2.5807 H   0  0  0  0  0  0  0  0  0  0  0  0
   -2.5133    3.3071   -0.9594 H   0  0  0  0  0  0  0  0  0  0  0  0
   -0.8509    3.0035   -2.7133 H   0  0  0  0  0  0  0  0  0  0  0  0
    1.2093    1.7849   -2.2825 H   0  0  0  0  0  0  0  0  0  0  0  0
   -0.0365    1.1223    1.7336 H   0  0  0  0  0  0  0  0  0  0  0  0
    3.0766    3.2964   -0.2148 H   0  0  0  0  0  0  0  0  0  0  0  0
    3.9498    2.9813    1.3104 H   0  0  0  0  0  0  0  0  0  0  0  0
    2.1656    3.0253    1.3594 H   0  0  0  0  0  0  0  0  0  0  0  0
    5.0416    0.9880    1.1165 H   0  0  0  0  0  0  0  0  0  0  0  0
    2.9463   -2.5121   -0.1221 H   0  0  0  0  0  0  0  0  0  0  0  0
    0.8385   -1.9345   -1.6327 H   0  0  0  0  0  0  0  0  0  0  0  0
   -0.1487   -0.6445   -0.8663 H   0  0  0  0  0  0  0  0  0  0  0  0
    0.2370   -2.1031    0.0860 H   0  0  0  0  0  0  0  0  0  0  0  0
    6.6174   -1.1481    2.2031 H   0  0  0  0  0  0  0  0  0  0  0  0
    7.0428   -2.5576    1.2329 H   0  0  0  0  0  0  0  0  0  0  0  0
    7.0611    0.3551    0.1868 H   0  0  0  0  0  0  0  0  0  0  0  0
    8.4310   -0.6315    0.7302 H   0  0  0  0  0  0  0  0  0  0  0  0
    7.8980   -2.3388   -0.9358 H   0  0  0  0  0  0  0  0  0  0  0  0
    6.4014   -1.4345   -1.4293 H   0  0  0  0  0  0  0  0  0  0  0  0
   10.2841   -1.2898   -1.0252 H   0  0  0  0  0  0  0  0  0  0  0  0
   10.1739    0.5513   -0.8870 H   0  0  0  0  0  0  0  0  0  0  0  0
   10.7948   -0.2251   -2.4390 H   0  0  0  0  0  0  0  0  0  0  0  0
  1  2  1  0
  2  3  2  0
  2  4  1  0
  4  5  1  0
  5  6  1  0
  6  7  1  0
  7  8  1  0
  8  9  2  0
  9 10  1  0
 10 11  2  0
 11 12  1  0
 12 13  2  0
 12 14  1  0
 14 15  1  0
 15 16  1  0
 16 17  2  0
 17 18  1  0
 18 19  2  0
 19 20  1  0
 20 21  2  0
 20 22  1  0
 22 23  2  0
 23 24  1  0
 23 25  1  0
 25 26  2  0
 26 27  1  0
 27 28  2  0
 28 29  1  0
 26 30  1  0
 30 31  1  0
 31 32  1  0
 32 33  1  0
 33 34  1  0
 34 35  2  0
 34 36  2  0
 34 37  1  0
  9  5  1  0
 21 16  1  0
 28 22  1  0
 13  8  1  0
  1 38  1  0
  4 39  1  0
  4 40  1  0
  5 41  1  6
  6 42  1  0
  6 43  1  0
 10 44  1  0
 11 45  1  0
 13 46  1  0
 15 47  1  0
 15 48  1  0
 17 49  1  0
 18 50  1  0
 19 51  1  0
 21 52  1  0
 24 53  1  0
 24 54  1  0
 24 55  1  0
 25 56  1  0
 27 57  1  0
 29 58  1  0
 29 59  1  0
 29 60  1  0
 31 61  1  0
 31 62  1  0
 32 63  1  0
 32 64  1  0
 33 65  1  0
 33 66  1  0
 37 67  1  0
 37 68  1  0
 37 69  1  0
M  END
>  <Ligand ID>  (1) 
LIG0000954

>  <Ligand>  (1) 
fasiglifam

>  <SMILES>  (1) 
OC(=O)C[C@@H]1COc2c1ccc(c2)OCc1cccc(c1)c1c(C)cc(cc1C)OCCCS(=O)(=O)C

>  <CID>  (1) 
24857286.0

>  <ChEMBL ID>  (1) 
nan

>  <InChiKey>  (1) 
BZCALJIHZVNMGJ-HSZRJFAPSA-N

>  <InChi>  (1) 
InChI=1S/C29H32O7S/c1-19-12-25(34-10-5-11-37(3,32)33)13-20(2)29(19)22-7-4-6-21(14-22)17-35-24-8-9-26-23(15-28(30)31)18-36-27(26)16-24/h4,6-9,12-14,16,23H,5,10-11,15,17-18H2,1-3H3,(H,30,31)/t23-/m1/s1

>  <IUPAC Name>  (1) 
2-[(3S)-6-[[3-[2,6-dimethyl-4-(3-methylsulfonylpropoxy)phenyl]phenyl]methoxy]-2,3-dihydro-1-benzofuran-3-yl]acetic acid

$$$$
