
     RDKit          3D

123132  0  0  0  0  0  0  0  0999 V2000
   13.9822    2.1994   -0.8617 C   0  0  0  0  0  0  0  0  0  0  0  0
   12.6970    2.4949   -0.6826 C   0  0  0  0  0  0  0  0  0  0  0  0
   11.6632    1.5665   -1.2173 C   0  0  0  0  0  0  0  0  0  0  0  0
   10.8506    1.0702   -0.1584 N   0  0  0  0  0  0  0  0  0  0  0  0
    9.9964    2.0253    0.4638 C   0  0  0  0  0  0  0  0  0  0  0  0
    9.3817    1.4913    1.7131 C   0  0  0  0  0  0  0  0  0  0  0  0
    8.9291    0.0794    1.5712 C   0  0  2  0  0  0  0  0  0  0  0  0
    9.9019   -0.8432    0.9156 C   0  0  2  0  0  0  0  0  0  0  0  0
   10.2179   -0.2066   -0.4348 C   0  0  1  0  0  0  0  0  0  0  0  0
    9.0435   -0.0712   -1.3404 C   0  0  0  0  0  0  0  0  0  0  0  0
    7.7398   -0.0298   -0.6520 C   0  0  0  0  0  0  0  0  0  0  0  0
    7.7169    0.0396    0.7048 C   0  0  0  0  0  0  0  0  0  0  0  0
    6.5790    0.0759    1.4444 C   0  0  0  0  0  0  0  0  0  0  0  0
    6.9929    0.1435    2.7745 O   0  0  0  0  0  0  0  0  0  0  0  0
    8.3138   -0.4389    2.8529 C   0  0  1  0  0  0  0  0  0  0  0  0
    8.2669   -1.9003    2.9198 C   0  0  0  0  0  0  0  0  0  0  0  0
    7.9605   -2.4135    3.9944 O   0  0  0  0  0  0  0  0  0  0  0  0
    8.5593   -2.7976    1.7971 C   0  0  0  0  0  0  0  0  0  0  0  0
    9.3199   -2.1871    0.6643 C   0  0  0  0  0  0  0  0  0  0  0  0
    5.3702    0.0418    0.7892 C   0  0  0  0  0  0  0  0  0  0  0  0
    5.3845   -0.0296   -0.6012 C   0  0  0  0  0  0  0  0  0  0  0  0
    6.5554   -0.0655   -1.3300 C   0  0  0  0  0  0  0  0  0  0  0  0
    4.1592    0.0781    1.4901 O   0  0  0  0  0  0  0  0  0  0  0  0
    3.5991    1.3529    1.5991 C   0  0  0  0  0  0  0  0  0  0  0  0
    4.2018    2.3292    1.0885 O   0  0  0  0  0  0  0  0  0  0  0  0
    2.3014    1.5980    2.3042 C   0  0  0  0  0  0  0  0  0  0  0  0
    1.2615    1.6252    1.1697 C   0  0  0  0  0  0  0  0  0  0  0  0
    1.2908    0.2567    0.4716 C   0  0  0  0  0  0  0  0  0  0  0  0
    0.3041    0.2945   -0.6507 C   0  0  0  0  0  0  0  0  0  0  0  0
    0.2118   -0.9901   -1.4425 C   0  0  0  0  0  0  0  0  0  0  0  0
   -0.2480   -2.0861   -0.5518 C   0  0  0  0  0  0  0  0  0  0  0  0
   -0.3830   -3.4387   -1.2026 C   0  0  0  0  0  0  0  0  0  0  0  0
   -1.3122   -3.4739   -2.3624 C   0  0  0  0  0  0  0  0  0  0  0  0
   -2.7047   -3.0561   -2.0600 C   0  0  0  0  0  0  0  0  0  0  0  0
   -3.4596   -3.8905   -1.5020 O   0  0  0  0  0  0  0  0  0  0  0  0
   -3.0622   -1.7795   -2.4186 O   0  0  0  0  0  0  0  0  0  0  0  0
   -4.2845   -1.1652   -2.2499 C   0  0  0  0  0  0  0  0  0  0  0  0
   -5.0345   -0.9779   -3.4192 C   0  0  0  0  0  0  0  0  0  0  0  0
   -6.2714   -0.3742   -3.3833 C   0  0  0  0  0  0  0  0  0  0  0  0
   -6.7743    0.0521   -2.1639 C   0  0  0  0  0  0  0  0  0  0  0  0
   -6.0323   -0.1335   -0.9936 C   0  0  0  0  0  0  0  0  0  0  0  0
   -4.7801   -0.7443   -1.0330 C   0  0  0  0  0  0  0  0  0  0  0  0
   -6.6398    0.3308    0.2752 C   0  0  1  0  0  0  0  0  0  0  0  0
   -5.5702    0.4837    1.3333 C   0  0  0  0  0  0  0  0  0  0  0  0
   -6.1151    1.0466    2.6020 C   0  0  0  0  0  0  0  0  0  0  0  0
   -6.8312    2.3488    2.4035 C   0  0  0  0  0  0  0  0  0  0  0  0
   -7.7800    2.3452    1.2567 C   0  0  0  0  0  0  0  0  0  0  0  0
   -7.2488    1.6909    0.0076 C   0  0  0  0  0  0  0  0  0  0  0  0
   -8.4120    1.4643   -0.9048 C   0  0  1  0  0  0  0  0  0  0  0  0
   -8.0871    0.7055   -2.1681 C   0  0  0  0  0  0  0  0  0  0  0  0
   -9.4357    0.7374   -0.1307 N   0  0  0  0  0  0  0  0  0  0  0  0
   -9.0127   -0.5702    0.0959 C   0  0  0  0  0  0  0  0  0  0  0  0
   -7.6475   -0.6781    0.6966 C   0  0  0  0  0  0  0  0  0  0  0  0
  -10.6967    1.0712   -0.6269 C   0  0  0  0  0  0  0  0  0  0  0  0
  -11.9415    0.4388   -0.1560 C   0  0  0  0  0  0  0  0  0  0  0  0
  -12.2867    0.5014    1.3006 C   0  0  0  0  0  0  0  0  0  0  0  0
  -12.5259   -1.0095    1.3167 C   0  0  0  0  0  0  0  0  0  0  0  0
  -12.1936   -1.0062   -0.1817 C   0  0  0  0  0  0  0  0  0  0  0  0
   11.0975   -0.9029    1.6283 O   0  0  0  0  0  0  0  0  0  0  0  0
   14.1731    1.2666   -1.4059 H   0  0  0  0  0  0  0  0  0  0  0  0
   14.7728    2.8367   -0.4966 H   0  0  0  0  0  0  0  0  0  0  0  0
   12.4020    3.4019   -0.1525 H   0  0  0  0  0  0  0  0  0  0  0  0
   11.0840    2.0497   -2.0361 H   0  0  0  0  0  0  0  0  0  0  0  0
   12.1834    0.6953   -1.6866 H   0  0  0  0  0  0  0  0  0  0  0  0
   10.6434    2.8953    0.7562 H   0  0  0  0  0  0  0  0  0  0  0  0
    9.2389    2.4659   -0.2166 H   0  0  0  0  0  0  0  0  0  0  0  0
    8.4598    2.1086    1.9138 H   0  0  0  0  0  0  0  0  0  0  0  0
   10.0189    1.6518    2.6075 H   0  0  0  0  0  0  0  0  0  0  0  0
   10.9611   -0.8412   -0.9313 H   0  0  0  0  0  0  0  0  0  0  0  0
    9.0750   -0.8157   -2.1887 H   0  0  0  0  0  0  0  0  0  0  0  0
    9.1584    0.9315   -1.8528 H   0  0  0  0  0  0  0  0  0  0  0  0
    8.7940    0.0365    3.7262 H   0  0  0  0  0  0  0  0  0  0  0  0
    9.0146   -3.7661    2.1668 H   0  0  0  0  0  0  0  0  0  0  0  0
    7.5616   -3.1201    1.3882 H   0  0  0  0  0  0  0  0  0  0  0  0
    8.7585   -2.2195   -0.2920 H   0  0  0  0  0  0  0  0  0  0  0  0
   10.2012   -2.8756    0.4724 H   0  0  0  0  0  0  0  0  0  0  0  0
    4.4668   -0.0591   -1.1493 H   0  0  0  0  0  0  0  0  0  0  0  0
    6.5989   -0.1177   -2.4067 H   0  0  0  0  0  0  0  0  0  0  0  0
    2.0710    0.7614    2.9577 H   0  0  0  0  0  0  0  0  0  0  0  0
    2.2795    2.5945    2.7644 H   0  0  0  0  0  0  0  0  0  0  0  0
    0.2771    1.8562    1.5757 H   0  0  0  0  0  0  0  0  0  0  0  0
    1.5631    2.4215    0.4626 H   0  0  0  0  0  0  0  0  0  0  0  0
    1.1635   -0.5376    1.2030 H   0  0  0  0  0  0  0  0  0  0  0  0
    2.3381    0.1588    0.0598 H   0  0  0  0  0  0  0  0  0  0  0  0
    0.6416    1.1057   -1.3548 H   0  0  0  0  0  0  0  0  0  0  0  0
   -0.6960    0.6422   -0.3031 H   0  0  0  0  0  0  0  0  0  0  0  0
   -0.4869   -0.7689   -2.2785 H   0  0  0  0  0  0  0  0  0  0  0  0
    1.2585   -1.1506   -1.8345 H   0  0  0  0  0  0  0  0  0  0  0  0
    0.4969   -2.1852    0.2854 H   0  0  0  0  0  0  0  0  0  0  0  0
   -1.1796   -1.7634   -0.0568 H   0  0  0  0  0  0  0  0  0  0  0  0
   -0.7830   -4.1253   -0.4200 H   0  0  0  0  0  0  0  0  0  0  0  0
    0.6329   -3.8143   -1.4560 H   0  0  0  0  0  0  0  0  0  0  0  0
   -1.3860   -4.5362   -2.6885 H   0  0  0  0  0  0  0  0  0  0  0  0
   -0.8916   -2.9402   -3.2341 H   0  0  0  0  0  0  0  0  0  0  0  0
   -4.6722   -1.3003   -4.3822 H   0  0  0  0  0  0  0  0  0  0  0  0
   -6.8256   -0.2440   -4.3139 H   0  0  0  0  0  0  0  0  0  0  0  0
   -4.1972   -0.8949   -0.1620 H   0  0  0  0  0  0  0  0  0  0  0  0
   -4.8155    1.1903    0.9338 H   0  0  0  0  0  0  0  0  0  0  0  0
   -5.1465   -0.5154    1.5787 H   0  0  0  0  0  0  0  0  0  0  0  0
   -6.7061    0.3200    3.1998 H   0  0  0  0  0  0  0  0  0  0  0  0
   -5.2222    1.2707    3.2488 H   0  0  0  0  0  0  0  0  0  0  0  0
   -6.1250    3.2120    2.3129 H   0  0  0  0  0  0  0  0  0  0  0  0
   -7.4136    2.5594    3.3309 H   0  0  0  0  0  0  0  0  0  0  0  0
   -8.7868    1.9270    1.4763 H   0  0  0  0  0  0  0  0  0  0  0  0
   -7.9672    3.4295    0.9948 H   0  0  0  0  0  0  0  0  0  0  0  0
   -6.4912    2.3316   -0.4754 H   0  0  0  0  0  0  0  0  0  0  0  0
   -8.8437    2.4612   -1.1473 H   0  0  0  0  0  0  0  0  0  0  0  0
   -8.9196   -0.0007   -2.3778 H   0  0  0  0  0  0  0  0  0  0  0  0
   -8.1552    1.4513   -3.0138 H   0  0  0  0  0  0  0  0  0  0  0  0
   -9.1513   -1.2757   -0.7615 H   0  0  0  0  0  0  0  0  0  0  0  0
   -9.7027   -1.0075    0.8898 H   0  0  0  0  0  0  0  0  0  0  0  0
   -7.2477   -1.6889    0.3790 H   0  0  0  0  0  0  0  0  0  0  0  0
   -7.7452   -0.7692    1.7994 H   0  0  0  0  0  0  0  0  0  0  0  0
  -10.8344    2.1949   -0.4253 H   0  0  0  0  0  0  0  0  0  0  0  0
  -10.6532    1.0876   -1.7728 H   0  0  0  0  0  0  0  0  0  0  0  0
  -12.8228    1.0376   -0.6746 H   0  0  0  0  0  0  0  0  0  0  0  0
  -13.1940    1.0557    1.5998 H   0  0  0  0  0  0  0  0  0  0  0  0
  -11.4477    0.7278    1.9900 H   0  0  0  0  0  0  0  0  0  0  0  0
  -11.7885   -1.5795    1.9214 H   0  0  0  0  0  0  0  0  0  0  0  0
  -13.5702   -1.2864    1.5349 H   0  0  0  0  0  0  0  0  0  0  0  0
  -13.1643   -1.2097   -0.7443 H   0  0  0  0  0  0  0  0  0  0  0  0
  -11.4238   -1.7411   -0.3909 H   0  0  0  0  0  0  0  0  0  0  0  0
   11.0890   -1.7056    2.2063 H   0  0  0  0  0  0  0  0  0  0  0  0
  1  2  2  0
  2  3  1  0
  3  4  1  0
  4  5  1  0
  5  6  1  0
  7  6  1  1
  7  8  1  0
  8  9  1  0
  9 10  1  0
 10 11  1  0
 11 12  2  0
 12 13  1  0
 13 14  1  0
 14 15  1  0
 15 16  1  0
 16 17  2  0
 16 18  1  0
 18 19  1  0
 13 20  2  0
 20 21  1  0
 21 22  2  0
 20 23  1  0
 23 24  1  0
 24 25  2  0
 24 26  1  0
 26 27  1  0
 27 28  1  0
 28 29  1  0
 29 30  1  0
 30 31  1  0
 31 32  1  0
 32 33  1  0
 33 34  1  0
 34 35  2  0
 34 36  1  0
 36 37  1  0
 37 38  2  0
 38 39  1  0
 39 40  2  0
 40 41  1  0
 41 42  2  0
 41 43  1  0
 43 44  1  1
 44 45  1  0
 45 46  1  0
 46 47  1  0
 47 48  1  0
 48 49  1  0
 49 50  1  0
 49 51  1  0
 51 52  1  0
 52 53  1  0
 51 54  1  0
 54 55  1  0
 55 56  1  0
 56 57  1  0
 57 58  1  0
  8 59  1  1
  9  4  1  0
 22 11  1  0
 42 37  1  0
 53 43  1  0
 58 55  1  0
 15  7  1  0
 50 40  1  0
 12  7  1  0
 48 43  1  0
 19  8  1  0
  1 60  1  0
  1 61  1  0
  2 62  1  0
  3 63  1  0
  3 64  1  0
  5 65  1  0
  5 66  1  0
  6 67  1  0
  6 68  1  0
  9 69  1  6
 10 70  1  0
 10 71  1  0
 15 72  1  1
 18 73  1  0
 18 74  1  0
 19 75  1  0
 19 76  1  0
 21 77  1  0
 22 78  1  0
 26 79  1  0
 26 80  1  0
 27 81  1  0
 27 82  1  0
 28 83  1  0
 28 84  1  0
 29 85  1  0
 29 86  1  0
 30 87  1  0
 30 88  1  0
 31 89  1  0
 31 90  1  0
 32 91  1  0
 32 92  1  0
 33 93  1  0
 33 94  1  0
 38 95  1  0
 39 96  1  0
 42 97  1  0
 44 98  1  0
 44 99  1  0
 45100  1  0
 45101  1  0
 46102  1  0
 46103  1  0
 47104  1  0
 47105  1  0
 48106  1  0
 49107  1  6
 50108  1  0
 50109  1  0
 52110  1  0
 52111  1  0
 53112  1  0
 53113  1  0
 54114  1  0
 54115  1  0
 55116  1  0
 56117  1  0
 56118  1  0
 57119  1  0
 57120  1  0
 58121  1  0
 58122  1  0
 59123  1  0
M  END
>  <Ligand ID>  (1) 
LIG0005628

>  <Ligand>  (1) 
CHEMBL2113275

>  <SMILES>  (1) 
C=CCN1CC[C@@]23[C@@]4([C@H]1Cc1c3c(O[C@H]2C(=O)CC4)c(cc1)OC(=O)CCCCCCCCC(=O)Oc1ccc2c(c1)[C@]13CCCCC3[C@@H](C2)N(CC1)CC1CCC1)O

>  <CID>  (1) 
71452742.0

>  <ChEMBL ID>  (1) 
nan

>  <InChiKey>  (1) 
HJZFHFVNSCRUMR-UITDNDJWSA-N

>  <InChi>  (1) 
InChI=1S/C50H64N2O7/c1-2-26-51-28-25-49-45-35-18-20-41(46(45)59-47(49)40(53)21-23-50(49,56)42(51)30-35)58-44(55)16-8-6-4-3-5-7-15-43(54)57-36-19-17-34-29-39-37-14-9-10-22-48(37,38(34)31-36)24-27-52(39)32-33-12-11-13-33/h2,17-20,31,33,37,39,42,47,56H,1,3-16,21-30,32H2/t37?,39-,42-,47+,48-,49+,50-/m1/s1

>  <IUPAC Name>  (1) 
10-O-[(4R,4aS,7aR,12bS)-4a-hydroxy-7-oxo-3-prop-2-enyl-2,4,5,6,7a,13-hexahydro-1H-4,12-methanobenzofuro[3,2-e]isoquinolin-9-yl] 1-O-[(1R,9R)-17-(cyclobutylmethyl)-17-azatetracyclo[7.5.3.01,10.02,7]heptadeca-2(7),3,5-trien-4-yl] decanedioate

$$$$
