
     RDKit          3D

 36 37  0  0  0  0  0  0  0  0999 V2000
    2.9533    1.6865    0.4324 C   0  0  0  0  0  0  0  0  0  0  0  0
    2.1449    0.4180    0.6020 C   0  0  0  0  0  0  0  0  0  0  0  0
    2.2153   -0.3229   -0.7141 C   0  0  0  0  0  0  0  0  0  0  0  0
    0.8569   -0.0814   -1.2776 C   0  0  0  0  0  0  0  0  0  0  0  0
    0.0007    0.1334   -0.0490 C   0  0  0  0  0  0  0  0  0  0  0  0
    0.8418    0.5994    0.9482 O   0  0  0  0  0  0  0  0  0  0  0  0
   -0.9723    1.2225   -0.3042 C   0  0  0  0  0  0  0  0  0  0  0  0
   -2.2864    1.1025   -0.2399 C   0  0  0  0  0  0  0  0  0  0  0  0
   -2.9930   -0.1627    0.1035 C   0  0  0  0  0  0  0  0  0  0  0  0
   -2.0415   -0.9066    1.0217 C   0  0  0  0  0  0  0  0  0  0  0  0
   -0.6975   -1.1157    0.3548 C   0  0  0  0  0  0  0  0  0  0  0  0
    0.1306   -1.8937    1.3851 C   0  0  0  0  0  0  0  0  0  0  0  0
   -0.9548   -2.0690   -0.7859 C   0  0  0  0  0  0  0  0  0  0  0  0
   -0.4509    2.5920   -0.6686 C   0  0  0  0  0  0  0  0  0  0  0  0
    2.7394    2.4649    1.1656 H   0  0  0  0  0  0  0  0  0  0  0  0
    4.0250    1.3615    0.5296 H   0  0  0  0  0  0  0  0  0  0  0  0
    2.8327    2.0336   -0.6273 H   0  0  0  0  0  0  0  0  0  0  0  0
    2.6335   -0.1882    1.4174 H   0  0  0  0  0  0  0  0  0  0  0  0
    2.9883    0.1130   -1.4002 H   0  0  0  0  0  0  0  0  0  0  0  0
    2.4575   -1.3815   -0.4985 H   0  0  0  0  0  0  0  0  0  0  0  0
    0.8884    0.8606   -1.8658 H   0  0  0  0  0  0  0  0  0  0  0  0
    0.5108   -0.9072   -1.9263 H   0  0  0  0  0  0  0  0  0  0  0  0
   -2.9354    1.9638   -0.4450 H   0  0  0  0  0  0  0  0  0  0  0  0
   -3.8836    0.0660    0.6874 H   0  0  0  0  0  0  0  0  0  0  0  0
   -3.2639   -0.7536   -0.7867 H   0  0  0  0  0  0  0  0  0  0  0  0
   -1.9831   -0.3769    1.9795 H   0  0  0  0  0  0  0  0  0  0  0  0
   -2.4832   -1.9368    1.1134 H   0  0  0  0  0  0  0  0  0  0  0  0
   -0.5427   -2.5930    1.9585 H   0  0  0  0  0  0  0  0  0  0  0  0
    0.5890   -1.2137    2.1298 H   0  0  0  0  0  0  0  0  0  0  0  0
    0.9076   -2.5076    0.9376 H   0  0  0  0  0  0  0  0  0  0  0  0
   -1.6874   -2.8170   -0.4130 H   0  0  0  0  0  0  0  0  0  0  0  0
   -1.4314   -1.5876   -1.6642 H   0  0  0  0  0  0  0  0  0  0  0  0
   -0.0621   -2.6606   -1.0602 H   0  0  0  0  0  0  0  0  0  0  0  0
   -0.1651    2.5983   -1.7316 H   0  0  0  0  0  0  0  0  0  0  0  0
   -1.2331    3.3694   -0.5659 H   0  0  0  0  0  0  0  0  0  0  0  0
    0.3516    2.8905    0.0293 H   0  0  0  0  0  0  0  0  0  0  0  0
  1  2  1  0
  2  3  1  0
  3  4  1  0
  4  5  1  0
  5  6  1  0
  5  7  1  0
  7  8  2  0
  8  9  1  0
  9 10  1  0
 10 11  1  0
 11 12  1  0
 11 13  1  0
  7 14  1  0
  6  2  1  0
 11  5  1  0
  1 15  1  0
  1 16  1  0
  1 17  1  0
  2 18  1  0
  3 19  1  0
  3 20  1  0
  4 21  1  0
  4 22  1  0
  8 23  1  0
  9 24  1  0
  9 25  1  0
 10 26  1  0
 10 27  1  0
 12 28  1  0
 12 29  1  0
 12 30  1  0
 13 31  1  0
 13 32  1  0
 13 33  1  0
 14 34  1  0
 14 35  1  0
 14 36  1  0
M  END
>  <Ligand ID>  (1) 
LIG0001034

>  <Ligand>  (1) 
Theaspirane

>  <SMILES>  (1) 
CC1CCC2(O1)C(=CCCC2(C)C)C

>  <CID>  (1) 
61953.0

>  <ChEMBL ID>  (1) 
nan

>  <InChiKey>  (1) 
GYUZHTWCNKINPY-UHFFFAOYSA-N

>  <InChi>  (1) 
InChI=1S/C13H22O/c1-10-6-5-8-12(3,4)13(10)9-7-11(2)14-13/h6,11H,5,7-9H2,1-4H3

>  <IUPAC Name>  (1) 
2,6,6,10-tetramethyl-1-oxaspiro[4.5]dec-9-ene

$$$$
