
     RDKit          3D

 26 26  0  0  0  0  0  0  0  0999 V2000
    2.8886   -0.2676   -1.5741 O   0  0  0  0  0  0  0  0  0  0  0  0
    3.0305   -0.2495   -0.1768 C   0  0  0  0  0  0  0  0  0  0  0  0
    3.9930   -0.9165    0.2762 O   0  0  0  0  0  0  0  0  0  0  0  0
    2.0819    0.5198    0.6552 C   0  0  0  0  0  0  0  0  0  0  0  0
    0.6569    0.0497    0.5671 C   0  0  0  0  0  0  0  0  0  0  0  0
    0.0470    0.0996   -0.7867 C   0  0  0  0  0  0  0  0  0  0  0  0
   -1.3553   -0.3913   -0.6767 C   0  0  0  0  0  0  0  0  0  0  0  0
   -2.4443    0.2920   -0.1707 C   0  0  0  0  0  0  0  0  0  0  0  0
   -2.4730    1.6674    0.3780 C   0  0  0  0  0  0  0  0  0  0  0  0
   -3.5078   -0.4743   -0.2418 O   0  0  0  0  0  0  0  0  0  0  0  0
   -3.1582   -1.6240   -0.7712 N   0  0  0  0  0  0  0  0  0  0  0  0
   -1.8470   -1.6229   -1.0558 C   0  0  0  0  0  0  0  0  0  0  0  0
   -1.2172   -2.5716   -1.5670 O   0  0  0  0  0  0  0  0  0  0  0  0
    2.4923    0.3970    2.0629 N   0  0  0  0  0  0  0  0  0  0  0  0
    3.6659   -0.3623   -2.2065 H   0  0  0  0  0  0  0  0  0  0  0  0
    2.1110    1.6127    0.4363 H   0  0  0  0  0  0  0  0  0  0  0  0
    0.0240    0.6361    1.2478 H   0  0  0  0  0  0  0  0  0  0  0  0
    0.6629   -1.0149    0.9185 H   0  0  0  0  0  0  0  0  0  0  0  0
    0.0623    1.0878   -1.2399 H   0  0  0  0  0  0  0  0  0  0  0  0
    0.6041   -0.6015   -1.4740 H   0  0  0  0  0  0  0  0  0  0  0  0
   -3.2736    2.2048   -0.2085 H   0  0  0  0  0  0  0  0  0  0  0  0
   -2.8406    1.7082    1.4349 H   0  0  0  0  0  0  0  0  0  0  0  0
   -1.5387    2.2158    0.2543 H   0  0  0  0  0  0  0  0  0  0  0  0
   -3.7837   -2.4507   -0.9613 H   0  0  0  0  0  0  0  0  0  0  0  0
    3.3916   -0.0752    2.1876 H   0  0  0  0  0  0  0  0  0  0  0  0
    1.7276    0.1311    2.6922 H   0  0  0  0  0  0  0  0  0  0  0  0
  1  2  1  0
  2  3  2  0
  2  4  1  0
  4  5  1  0
  5  6  1  0
  6  7  1  0
  7  8  2  0
  8  9  1  0
  8 10  1  0
 10 11  1  0
 11 12  1  0
 12 13  2  0
  4 14  1  0
 12  7  1  0
  1 15  1  0
  4 16  1  0
  5 17  1  0
  5 18  1  0
  6 19  1  0
  6 20  1  0
  9 21  1  0
  9 22  1  0
  9 23  1  0
 11 24  1  0
 14 25  1  0
 14 26  1  0
M  END
>  <Ligand ID>  (1) 
LIG0000511

>  <Ligand>  (1) 
homo-AMPA

>  <SMILES>  (1) 
OC(=O)C(CCc1c(C)o[nH]c1=O)N

>  <CID>  (1) 
4236420.0

>  <ChEMBL ID>  (1) 
nan

>  <InChiKey>  (1) 
NZDIZJGEDFARSV-UHFFFAOYSA-N

>  <InChi>  (1) 
InChI=1S/C8H12N2O4/c1-4-5(7(11)10-14-4)2-3-6(9)8(12)13/h6H,2-3,9H2,1H3,(H,10,11)(H,12,13)

>  <IUPAC Name>  (1) 
2-amino-4-(5-methyl-3-oxo-1,2-oxazol-4-yl)butanoic acid

$$$$
