
     RDKit          3D

 35 37  0  0  0  0  0  0  0  0999 V2000
   -4.3931    2.8568   -0.9934 C   0  0  0  0  0  0  0  0  0  0  0  0
   -3.7953    1.4796   -0.9674 C   0  0  0  0  0  0  0  0  0  0  0  0
   -4.3410    0.4280   -1.5134 O   0  0  0  0  0  0  0  0  0  0  0  0
   -3.5721   -0.6229   -1.3171 C   0  0  0  0  0  0  0  0  0  0  0  0
   -2.4540   -0.2141   -0.5934 C   0  0  0  0  0  0  0  0  0  0  0  0
   -2.6534    1.0977   -0.4092 N   0  0  0  0  0  0  0  0  0  0  0  0
   -1.3874   -1.1087   -0.1935 C   0  0  0  0  0  0  0  0  0  0  0  0
   -1.4680   -2.4445   -0.5435 C   0  0  0  0  0  0  0  0  0  0  0  0
   -0.5172   -3.3822   -0.2208 C   0  0  0  0  0  0  0  0  0  0  0  0
    0.5922   -2.9965    0.4934 C   0  0  0  0  0  0  0  0  0  0  0  0
    0.6811   -1.6672    0.8468 C   0  0  0  0  0  0  0  0  0  0  0  0
   -0.2753   -0.7244    0.5217 C   0  0  0  0  0  0  0  0  0  0  0  0
   -0.1039    0.6226    0.9420 N   0  0  0  0  0  0  0  0  0  0  0  0
    1.0909    0.9790    1.6790 C   0  0  0  0  0  0  0  0  0  0  0  0
    2.3139    0.8336    0.8092 C   0  0  0  0  0  0  0  0  0  0  0  0
    2.3695    0.4950   -0.4326 N   0  0  0  0  0  0  0  0  0  0  0  0
    3.7227    0.4611   -0.9364 C   0  0  0  0  0  0  0  0  0  0  0  0
    4.5463    0.4703    0.3310 C   0  0  0  0  0  0  0  0  0  0  0  0
    3.6341    1.0733    1.2802 N   0  0  0  0  0  0  0  0  0  0  0  0
   -5.1741    2.9153   -0.1975 H   0  0  0  0  0  0  0  0  0  0  0  0
   -4.8233    3.0947   -1.9725 H   0  0  0  0  0  0  0  0  0  0  0  0
   -3.6228    3.6111   -0.7023 H   0  0  0  0  0  0  0  0  0  0  0  0
   -3.8324   -1.6013   -1.6854 H   0  0  0  0  0  0  0  0  0  0  0  0
   -2.3272   -2.8288   -1.1159 H   0  0  0  0  0  0  0  0  0  0  0  0
   -0.6331   -4.4317   -0.5255 H   0  0  0  0  0  0  0  0  0  0  0  0
    1.3454   -3.7224    0.7529 H   0  0  0  0  0  0  0  0  0  0  0  0
    1.5841   -1.4085    1.4253 H   0  0  0  0  0  0  0  0  0  0  0  0
   -0.7761    1.3904    0.7630 H   0  0  0  0  0  0  0  0  0  0  0  0
    1.0464    2.0347    2.0021 H   0  0  0  0  0  0  0  0  0  0  0  0
    1.2164    0.2768    2.5220 H   0  0  0  0  0  0  0  0  0  0  0  0
    3.9397   -0.4273   -1.5672 H   0  0  0  0  0  0  0  0  0  0  0  0
    3.9105    1.3970   -1.5205 H   0  0  0  0  0  0  0  0  0  0  0  0
    4.7376   -0.5662    0.6747 H   0  0  0  0  0  0  0  0  0  0  0  0
    5.4860    1.0448    0.2189 H   0  0  0  0  0  0  0  0  0  0  0  0
    3.9328    1.5849    2.1455 H   0  0  0  0  0  0  0  0  0  0  0  0
  1  2  1  0
  2  3  1  0
  3  4  1  0
  4  5  2  0
  5  6  1  0
  5  7  1  0
  7  8  2  0
  8  9  1  0
  9 10  2  0
 10 11  1  0
 11 12  2  0
 12 13  1  0
 13 14  1  0
 14 15  1  0
 15 16  2  0
 16 17  1  0
 17 18  1  0
 18 19  1  0
  6  2  2  0
 12  7  1  0
 19 15  1  0
  1 20  1  0
  1 21  1  0
  1 22  1  0
  4 23  1  0
  8 24  1  0
  9 25  1  0
 10 26  1  0
 11 27  1  0
 13 28  1  0
 14 29  1  0
 14 30  1  0
 17 31  1  0
 17 32  1  0
 18 33  1  0
 18 34  1  0
 19 35  1  0
M  END
>  <Ligand ID>  (1) 
LIG0003922

>  <Ligand>  (1) 
CHEMBL152154

>  <SMILES>  (1) 
Cc1occ(n1)c1ccccc1NCC1=NCCN1

>  <CID>  (1) 
22493272.0

>  <ChEMBL ID>  (1) 
nan

>  <InChiKey>  (1) 
JIXBFNDMCXDDHF-UHFFFAOYSA-N

>  <InChi>  (1) 
InChI=1S/C14H16N4O/c1-10-18-13(9-19-10)11-4-2-3-5-12(11)17-8-14-15-6-7-16-14/h2-5,9,17H,6-8H2,1H3,(H,15,16)

>  <IUPAC Name>  (1) 
N-(4,5-dihydro-1H-imidazol-2-ylmethyl)-2-(2-methyl-1,3-oxazol-4-yl)aniline

$$$$
