
     RDKit          3D

 42 42  0  0  0  0  0  0  0  0999 V2000
    4.4609   -0.3741   -0.0348 C   0  0  0  0  0  0  0  0  0  0  0  0
    2.9320   -0.2193    0.0413 C   0  0  0  0  0  0  0  0  0  0  0  0
    2.3843    0.7211   -1.0048 C   0  0  0  0  0  0  0  0  0  0  0  0
    1.0702    1.2683   -0.5311 C   0  0  0  0  0  0  0  0  0  0  0  0
    0.7199    2.5274   -0.4327 C   0  0  0  0  0  0  0  0  0  0  0  0
   -0.5703    3.0440    0.0430 C   0  0  0  0  0  0  0  0  0  0  0  0
   -1.6070    2.1030    0.5242 C   0  0  0  0  0  0  0  0  0  0  0  0
   -2.2222    1.2334   -0.4936 C   0  0  0  0  0  0  0  0  0  0  0  0
   -3.3128    0.3495   -0.0028 C   0  0  0  0  0  0  0  0  0  0  0  0
   -3.1793   -0.6063    1.0752 C   0  0  0  0  0  0  0  0  0  0  0  0
   -2.3982   -1.8790    0.9125 C   0  0  0  0  0  0  0  0  0  0  0  0
   -1.0488   -1.5913    0.4475 C   0  0  0  0  0  0  0  0  0  0  0  0
    0.0104   -2.6289    0.3428 C   0  0  0  0  0  0  0  0  0  0  0  0
    1.1096   -1.9458   -0.4387 C   0  0  0  0  0  0  0  0  0  0  0  0
    0.6870   -1.5872   -1.5836 O   0  0  0  0  0  0  0  0  0  0  0  0
    2.4582   -1.6557   -0.1307 C   0  0  0  0  0  0  0  0  0  0  0  0
    4.7038   -0.5668   -1.1060 H   0  0  0  0  0  0  0  0  0  0  0  0
    4.8821    0.6157    0.2530 H   0  0  0  0  0  0  0  0  0  0  0  0
    4.7391   -1.1792    0.6501 H   0  0  0  0  0  0  0  0  0  0  0  0
    2.6891    0.1578    1.0344 H   0  0  0  0  0  0  0  0  0  0  0  0
    2.3095    0.2709   -1.9947 H   0  0  0  0  0  0  0  0  0  0  0  0
    3.0801    1.5787   -1.0684 H   0  0  0  0  0  0  0  0  0  0  0  0
    0.3565    0.5546   -0.2063 H   0  0  0  0  0  0  0  0  0  0  0  0
    1.4655    3.2769   -0.7369 H   0  0  0  0  0  0  0  0  0  0  0  0
   -0.3499    3.8067    0.8677 H   0  0  0  0  0  0  0  0  0  0  0  0
   -0.9747    3.7134   -0.7982 H   0  0  0  0  0  0  0  0  0  0  0  0
   -1.1210    1.5255    1.3629 H   0  0  0  0  0  0  0  0  0  0  0  0
   -2.4217    2.6620    1.0957 H   0  0  0  0  0  0  0  0  0  0  0  0
   -2.8372    2.0243   -1.1317 H   0  0  0  0  0  0  0  0  0  0  0  0
   -1.5651    0.8795   -1.2814 H   0  0  0  0  0  0  0  0  0  0  0  0
   -3.7033   -0.2169   -0.9164 H   0  0  0  0  0  0  0  0  0  0  0  0
   -4.2031    1.0285    0.2409 H   0  0  0  0  0  0  0  0  0  0  0  0
   -2.9379   -0.1311    2.0798 H   0  0  0  0  0  0  0  0  0  0  0  0
   -4.2414   -0.9883    1.3045 H   0  0  0  0  0  0  0  0  0  0  0  0
   -2.9385   -2.4492    0.0959 H   0  0  0  0  0  0  0  0  0  0  0  0
   -2.4733   -2.4984    1.8310 H   0  0  0  0  0  0  0  0  0  0  0  0
   -0.6435   -0.8021    1.1493 H   0  0  0  0  0  0  0  0  0  0  0  0
   -1.1125   -1.1685   -0.6068 H   0  0  0  0  0  0  0  0  0  0  0  0
   -0.4187   -3.4597   -0.2714 H   0  0  0  0  0  0  0  0  0  0  0  0
    0.3683   -3.0622    1.2824 H   0  0  0  0  0  0  0  0  0  0  0  0
    2.7197   -2.1518    0.8617 H   0  0  0  0  0  0  0  0  0  0  0  0
    3.1342   -2.1794   -0.8578 H   0  0  0  0  0  0  0  0  0  0  0  0
  1  2  1  0
  2  3  1  0
  3  4  1  0
  4  5  2  0
  5  6  1  0
  6  7  1  0
  7  8  1  0
  8  9  1  0
  9 10  1  0
 10 11  1  0
 11 12  1  0
 12 13  1  0
 13 14  1  0
 14 15  2  0
 14 16  1  0
 16  2  1  0
  1 17  1  0
  1 18  1  0
  1 19  1  0
  2 20  1  0
  3 21  1  0
  3 22  1  0
  4 23  1  0
  5 24  1  0
  6 25  1  0
  6 26  1  0
  7 27  1  0
  7 28  1  0
  8 29  1  0
  8 30  1  0
  9 31  1  0
  9 32  1  0
 10 33  1  0
 10 34  1  0
 11 35  1  0
 11 36  1  0
 12 37  1  0
 12 38  1  0
 13 39  1  0
 13 40  1  0
 16 41  1  0
 16 42  1  0
M  END
>  <Ligand ID>  (1) 
LIG0000534

>  <Ligand>  (1) 
(5E)-3-methylcyclotetradec-5-en-1-one

>  <SMILES>  (1) 
CC1C/C=C/CCCCCCCCC(=O)C1

>  <CID>  (1) 
66823518.0

>  <ChEMBL ID>  (1) 
nan

>  <InChiKey>  (1) 
ZFGBKXBPHOUSJX-VQHVLOKHSA-N

>  <InChi>  (1) 
InChI=1S/C15H26O/c1-14-11-9-7-5-3-2-4-6-8-10-12-15(16)13-14/h7,9,14H,2-6,8,10-13H2,1H3/b9-7+

>  <IUPAC Name>  (1) 
(5E)-3-methylcyclotetradec-5-en-1-one

$$$$
