
     RDKit          3D

 22 21  0  0  0  0  0  0  0  0999 V2000
    3.0763    0.3909    0.3915 C   0  0  0  0  0  0  0  0  0  0  0  0
    2.4603   -0.0902   -0.8928 C   0  0  0  0  0  0  0  0  0  0  0  0
    0.9669    0.0656   -0.8372 C   0  0  0  0  0  0  0  0  0  0  0  0
    0.3469   -0.7272    0.2981 C   0  0  0  0  0  0  0  0  0  0  0  0
   -1.1290   -0.5572    0.3323 C   0  0  0  0  0  0  0  0  0  0  0  0
   -1.7822    0.2059   -0.5448 C   0  0  0  0  0  0  0  0  0  0  0  0
   -3.2635    0.3587   -0.4874 C   0  0  0  0  0  0  0  0  0  0  0  0
   -3.7644   -0.3890    0.5689 O   0  0  0  0  0  0  0  0  0  0  0  0
    4.1529    0.6144    0.1844 H   0  0  0  0  0  0  0  0  0  0  0  0
    2.5282    1.2986    0.7462 H   0  0  0  0  0  0  0  0  0  0  0  0
    3.0867   -0.3877    1.1802 H   0  0  0  0  0  0  0  0  0  0  0  0
    2.8107    0.5939   -1.7046 H   0  0  0  0  0  0  0  0  0  0  0  0
    2.7203   -1.1478   -1.0833 H   0  0  0  0  0  0  0  0  0  0  0  0
    0.6796    1.1217   -0.7380 H   0  0  0  0  0  0  0  0  0  0  0  0
    0.5254   -0.3278   -1.7772 H   0  0  0  0  0  0  0  0  0  0  0  0
    0.5911   -1.7915    0.2486 H   0  0  0  0  0  0  0  0  0  0  0  0
    0.7555   -0.3109    1.2347 H   0  0  0  0  0  0  0  0  0  0  0  0
   -1.6638   -1.0859    1.1104 H   0  0  0  0  0  0  0  0  0  0  0  0
   -1.2365    0.7336   -1.3236 H   0  0  0  0  0  0  0  0  0  0  0  0
   -3.6931    0.0460   -1.4583 H   0  0  0  0  0  0  0  0  0  0  0  0
   -3.5064    1.4361   -0.2985 H   0  0  0  0  0  0  0  0  0  0  0  0
   -4.6619   -0.0500    0.7676 H   0  0  0  0  0  0  0  0  0  0  0  0
  1  2  1  0
  2  3  1  0
  3  4  1  0
  4  5  1  0
  5  6  2  0
  6  7  1  0
  7  8  1  0
  1  9  1  0
  1 10  1  0
  1 11  1  0
  2 12  1  0
  2 13  1  0
  3 14  1  0
  3 15  1  0
  4 16  1  0
  4 17  1  0
  5 18  1  0
  6 19  1  0
  7 20  1  0
  7 21  1  0
  8 22  1  0
M  END
>  <Ligand ID>  (1) 
LIG0000402

>  <Ligand>  (1) 
2-Heptenol

>  <SMILES>  (1) 
CCCC/C=C/CO

>  <CID>  (1) 
5318017.0

>  <ChEMBL ID>  (1) 
nan

>  <InChiKey>  (1) 
ASFYPVGAALGVNR-AATRIKPKSA-N

>  <InChi>  (1) 
InChI=1S/C7H14O/c1-2-3-4-5-6-7-8/h5-6,8H,2-4,7H2,1H3/b6-5+

>  <IUPAC Name>  (1) 
(E)-hept-2-en-1-ol

$$$$
