
     RDKit          3D

 57 60  0  0  0  0  0  0  0  0999 V2000
    3.0690   -3.2879    1.6695 O   0  0  0  0  0  0  0  0  0  0  0  0
    3.5156   -2.2391    0.8810 C   0  0  0  0  0  0  0  0  0  0  0  0
    4.3464   -1.2481    1.6743 C   0  0  0  0  0  0  0  0  0  0  0  0
    4.7648   -0.1795    0.7327 C   0  0  0  0  0  0  0  0  0  0  0  0
    4.0190    0.9428    0.5200 C   0  0  0  0  0  0  0  0  0  0  0  0
    4.3937    1.9369   -0.3458 C   0  0  0  0  0  0  0  0  0  0  0  0
    5.5969    1.8582   -1.0838 C   0  0  0  0  0  0  0  0  0  0  0  0
    6.3142    0.6934   -0.8259 C   0  0  0  0  0  0  0  0  0  0  0  0
    5.9430   -0.2962    0.0347 C   0  0  0  0  0  0  0  0  0  0  0  0
    7.7991    0.8341   -1.8851 S   0  0  0  0  0  0  0  0  0  0  0  0
    7.2816    2.4980   -2.5852 C   0  0  0  0  0  0  0  0  0  0  0  0
    6.0897    2.7332   -1.9524 C   0  0  0  0  0  0  0  0  0  0  0  0
    2.3745   -1.5133    0.2110 C   0  0  0  0  0  0  0  0  0  0  0  0
    1.2623   -1.2657    0.8816 C   0  0  0  0  0  0  0  0  0  0  0  0
    0.0738   -0.5788    0.3842 C   0  0  1  0  0  0  0  0  0  0  0  0
    0.1766   -0.2274   -1.0533 C   0  0  0  0  0  0  0  0  0  0  0  0
   -0.2066   -1.4818   -1.8283 C   0  0  0  0  0  0  0  0  0  0  0  0
   -1.0502   -2.2379   -0.8280 C   0  0  0  0  0  0  0  0  0  0  0  0
   -1.5536   -3.3307   -1.0405 O   0  0  0  0  0  0  0  0  0  0  0  0
   -1.1666   -1.4535    0.4305 C   0  0  2  0  0  0  0  0  0  0  0  0
   -2.3586   -0.5295    0.4001 C   0  0  0  0  0  0  0  0  0  0  0  0
   -3.6649   -1.2953    0.4438 C   0  0  0  0  0  0  0  0  0  0  0  0
   -4.7327   -0.2334    0.4065 C   0  0  0  0  0  0  0  0  0  0  0  0
   -5.2331    0.2017   -0.8148 C   0  0  0  0  0  0  0  0  0  0  0  0
   -6.2086    1.1691   -0.8993 C   0  0  0  0  0  0  0  0  0  0  0  0
   -6.7105    1.7301    0.2772 C   0  0  0  0  0  0  0  0  0  0  0  0
   -6.2134    1.2979    1.4906 C   0  0  0  0  0  0  0  0  0  0  0  0
   -5.2250    0.3177    1.5776 C   0  0  0  0  0  0  0  0  0  0  0  0
   -7.7418    2.7551    0.2349 C   0  0  0  0  0  0  0  0  0  0  0  0
   -8.2167    3.2828    1.2852 O   0  0  0  0  0  0  0  0  0  0  0  0
   -8.2430    3.1909   -0.9824 O   0  0  0  0  0  0  0  0  0  0  0  0
    3.0537   -4.1429    1.1421 H   0  0  0  0  0  0  0  0  0  0  0  0
    4.1475   -2.6828    0.0872 H   0  0  0  0  0  0  0  0  0  0  0  0
    3.7078   -0.7555    2.4427 H   0  0  0  0  0  0  0  0  0  0  0  0
    5.2193   -1.7480    2.0935 H   0  0  0  0  0  0  0  0  0  0  0  0
    3.0921    1.0447    1.0627 H   0  0  0  0  0  0  0  0  0  0  0  0
    3.7297    2.7818   -0.4387 H   0  0  0  0  0  0  0  0  0  0  0  0
    6.6138   -1.1553    0.1322 H   0  0  0  0  0  0  0  0  0  0  0  0
    7.8547    3.0032   -3.2755 H   0  0  0  0  0  0  0  0  0  0  0  0
    5.5630    3.6949   -2.2082 H   0  0  0  0  0  0  0  0  0  0  0  0
    2.4894   -1.2092   -0.8175 H   0  0  0  0  0  0  0  0  0  0  0  0
    1.2455   -1.6186    1.9172 H   0  0  0  0  0  0  0  0  0  0  0  0
   -0.1321    0.2961    1.0411 H   0  0  0  0  0  0  0  0  0  0  0  0
   -0.5276    0.6083   -1.2863 H   0  0  0  0  0  0  0  0  0  0  0  0
    1.1665    0.1420   -1.3400 H   0  0  0  0  0  0  0  0  0  0  0  0
    0.6768   -2.0556   -2.1341 H   0  0  0  0  0  0  0  0  0  0  0  0
   -0.8227   -1.1462   -2.6832 H   0  0  0  0  0  0  0  0  0  0  0  0
   -1.1697   -2.1092    1.3262 H   0  0  0  0  0  0  0  0  0  0  0  0
   -2.3309    0.1366    1.2674 H   0  0  0  0  0  0  0  0  0  0  0  0
   -2.3304    0.0190   -0.5637 H   0  0  0  0  0  0  0  0  0  0  0  0
   -3.7814   -1.8363    1.3931 H   0  0  0  0  0  0  0  0  0  0  0  0
   -3.8137   -1.9236   -0.4394 H   0  0  0  0  0  0  0  0  0  0  0  0
   -4.8435   -0.2337   -1.7253 H   0  0  0  0  0  0  0  0  0  0  0  0
   -6.6208    1.5311   -1.8358 H   0  0  0  0  0  0  0  0  0  0  0  0
   -6.6305    1.7593    2.3762 H   0  0  0  0  0  0  0  0  0  0  0  0
   -4.8477   -0.0079    2.5432 H   0  0  0  0  0  0  0  0  0  0  0  0
   -9.2037    3.5639   -1.0394 H   0  0  0  0  0  0  0  0  0  0  0  0
  1  2  1  0
  2  3  1  0
  3  4  1  0
  4  5  2  0
  5  6  1  0
  6  7  2  0
  7  8  1  0
  8  9  2  0
  8 10  1  0
 10 11  1  0
 11 12  2  0
  2 13  1  0
 13 14  2  0
 14 15  1  0
 15 16  1  0
 16 17  1  0
 17 18  1  0
 18 19  2  0
 18 20  1  0
 20 21  1  0
 21 22  1  0
 22 23  1  0
 23 24  2  0
 24 25  1  0
 25 26  2  0
 26 27  1  0
 27 28  2  0
 26 29  1  0
 29 30  2  0
 29 31  1  0
  9  4  1  0
 20 15  1  0
 28 23  1  0
 12  7  1  0
  1 32  1  0
  2 33  1  0
  3 34  1  0
  3 35  1  0
  5 36  1  0
  6 37  1  0
  9 38  1  0
 11 39  1  0
 12 40  1  0
 13 41  1  0
 14 42  1  0
 15 43  1  1
 16 44  1  0
 16 45  1  0
 17 46  1  0
 17 47  1  0
 20 48  1  1
 21 49  1  0
 21 50  1  0
 22 51  1  0
 22 52  1  0
 24 53  1  0
 25 54  1  0
 27 55  1  0
 28 56  1  0
 31 57  1  0
M  END
>  <Ligand ID>  (1) 
LIG0002921

>  <Ligand>  (1) 
CHEMBL3965850

>  <SMILES>  (1) 
OC(Cc1ccc2c(c1)scc2)/C=C/[C@H]1CCC(=O)[C@@H]1CCc1ccc(cc1)C(=O)O

>  <CID>  (1) 
118517453.0

>  <ChEMBL ID>  (1) 
nan

>  <InChiKey>  (1) 
VJHDOMGAUGDZBU-JWZNCFRCSA-N

>  <InChi>  (1) 
InChI=1S/C26H26O4S/c27-22(15-18-3-5-20-13-14-31-25(20)16-18)10-8-19-9-12-24(28)23(19)11-4-17-1-6-21(7-2-17)26(29)30/h1-3,5-8,10,13-14,16,19,22-23,27H,4,9,11-12,15H2,(H,29,30)/b10-8+/t19-,22?,23+/m0/s1

>  <IUPAC Name>  (1) 
4-[2-[(1R,2R)-2-[(E)-4-(1-benzothiophen-6-yl)-3-hydroxybut-1-enyl]-5-oxocyclopentyl]ethyl]benzoic acid

$$$$
