
     RDKit          3D

 39 41  0  0  0  0  0  0  0  0999 V2000
   -1.4098    3.2333    0.7885 C   0  0  0  0  0  0  0  0  0  0  0  0
   -0.7643    1.9706    0.4384 N   0  0  0  0  0  0  0  0  0  0  0  0
   -1.3101    0.9558   -0.1436 C   0  0  0  0  0  0  0  0  0  0  0  0
   -2.7369    0.8933   -0.5725 C   0  0  0  0  0  0  0  0  0  0  0  0
   -3.4360   -0.3141    0.0206 C   0  0  0  0  0  0  0  0  0  0  0  0
   -2.8360   -1.6212   -0.3855 C   0  0  0  0  0  0  0  0  0  0  0  0
   -1.6036   -2.0120    0.4007 C   0  0  0  0  0  0  0  0  0  0  0  0
   -0.4184   -1.4653   -0.3629 C   0  0  0  0  0  0  0  0  0  0  0  0
   -0.3028   -0.0435   -0.2835 N   0  0  0  0  0  0  0  0  0  0  0  0
    0.9524    0.7272   -0.3324 C   0  0  0  0  0  0  0  0  0  0  0  0
    0.6342    1.7173    0.7310 C   0  0  0  0  0  0  0  0  0  0  0  0
    0.9825    1.4056   -1.5547 O   0  0  0  0  0  0  0  0  0  0  0  0
    2.1484   -0.0759   -0.1260 C   0  0  0  0  0  0  0  0  0  0  0  0
    2.9698    0.0479    0.9885 C   0  0  0  0  0  0  0  0  0  0  0  0
    4.0943   -0.7283    1.1521 C   0  0  0  0  0  0  0  0  0  0  0  0
    4.4282   -1.6586    0.1928 C   0  0  0  0  0  0  0  0  0  0  0  0
    3.6155   -1.7974   -0.9333 C   0  0  0  0  0  0  0  0  0  0  0  0
    2.4929   -1.0118   -1.0813 C   0  0  0  0  0  0  0  0  0  0  0  0
   -0.6525    4.0602    0.6545 H   0  0  0  0  0  0  0  0  0  0  0  0
   -1.6375    3.2571    1.8761 H   0  0  0  0  0  0  0  0  0  0  0  0
   -2.2598    3.4913    0.1574 H   0  0  0  0  0  0  0  0  0  0  0  0
   -2.8665    0.8263   -1.6731 H   0  0  0  0  0  0  0  0  0  0  0  0
   -3.2857    1.7737   -0.2364 H   0  0  0  0  0  0  0  0  0  0  0  0
   -3.5861   -0.2201    1.1166 H   0  0  0  0  0  0  0  0  0  0  0  0
   -4.4660   -0.2890   -0.4132 H   0  0  0  0  0  0  0  0  0  0  0  0
   -3.6028   -2.4045   -0.1801 H   0  0  0  0  0  0  0  0  0  0  0  0
   -2.5727   -1.5550   -1.4616 H   0  0  0  0  0  0  0  0  0  0  0  0
   -1.6369   -1.6431    1.4317 H   0  0  0  0  0  0  0  0  0  0  0  0
   -1.5183   -3.1063    0.4107 H   0  0  0  0  0  0  0  0  0  0  0  0
    0.4946   -1.9951    0.0003 H   0  0  0  0  0  0  0  0  0  0  0  0
   -0.5538   -1.7897   -1.4141 H   0  0  0  0  0  0  0  0  0  0  0  0
    1.2471    2.6392    0.6838 H   0  0  0  0  0  0  0  0  0  0  0  0
    0.7392    1.2094    1.7251 H   0  0  0  0  0  0  0  0  0  0  0  0
    0.1194    1.3409   -2.0370 H   0  0  0  0  0  0  0  0  0  0  0  0
    2.7320    0.7683    1.7549 H   0  0  0  0  0  0  0  0  0  0  0  0
    4.7203   -0.6229    2.0175 H   0  0  0  0  0  0  0  0  0  0  0  0
    5.3190   -2.2801    0.3130 H   0  0  0  0  0  0  0  0  0  0  0  0
    3.8803   -2.5240   -1.6781 H   0  0  0  0  0  0  0  0  0  0  0  0
    1.8861   -1.1590   -1.9849 H   0  0  0  0  0  0  0  0  0  0  0  0
  1  2  1  0
  2  3  2  0
  3  4  1  0
  4  5  1  0
  5  6  1  0
  6  7  1  0
  7  8  1  0
  8  9  1  0
  9 10  1  0
 10 11  1  0
 10 12  1  0
 10 13  1  0
 13 14  2  0
 14 15  1  0
 15 16  2  0
 16 17  1  0
 17 18  2  0
 11  2  1  0
 18 13  1  0
  9  3  1  0
  1 19  1  0
  1 20  1  0
  1 21  1  0
  4 22  1  0
  4 23  1  0
  5 24  1  0
  5 25  1  0
  6 26  1  0
  6 27  1  0
  7 28  1  0
  7 29  1  0
  8 30  1  0
  8 31  1  0
 11 32  1  0
 11 33  1  0
 12 34  1  0
 14 35  1  0
 15 36  1  0
 16 37  1  0
 17 38  1  0
 18 39  1  0
M  CHG  1   2   1
M  END
>  <Ligand ID>  (1) 
LIG0002319

>  <Ligand>  (1) 
MLS000048587

>  <SMILES>  (1) 
C[N+]1=C2CCCCCN2C(C1)(O)c1ccccc1

>  <CID>  (1) 
2998814.0

>  <ChEMBL ID>  (1) 
nan

>  <InChiKey>  (1) 
SYVAXBZGMNXKSU-UHFFFAOYSA-N

>  <InChi>  (1) 
InChI=1S/C15H21N2O/c1-16-12-15(18,13-8-4-2-5-9-13)17-11-7-3-6-10-14(16)17/h2,4-5,8-9,18H,3,6-7,10-12H2,1H3/q+1

>  <IUPAC Name>  (1) 
1-methyl-3-phenyl-2,5,6,7,8,9-hexahydroimidazo[1,2-a]azepin-1-ium-3-ol

$$$$
