
     RDKit          3D

 26 26  0  0  0  0  0  0  0  0999 V2000
   -3.8537    0.1333    0.0519 N   0  0  0  0  0  0  0  0  0  0  0  0
   -2.8790   -0.9414   -0.0229 C   0  0  0  0  0  0  0  0  0  0  0  0
   -1.5291   -0.3003    0.2711 C   0  0  2  0  0  0  0  0  0  0  0  0
   -1.2014    0.7985   -0.7583 C   0  0  0  0  0  0  0  0  0  0  0  0
   -0.3852   -0.5077   -0.6023 C   0  0  1  0  0  0  0  0  0  0  0  0
    0.9854   -0.2445   -0.1502 C   0  0  0  0  0  0  0  0  0  0  0  0
    1.8558    0.3343   -1.0788 C   0  0  0  0  0  0  0  0  0  0  0  0
    3.1614    0.6458   -0.7626 C   0  0  0  0  0  0  0  0  0  0  0  0
    3.6668    0.3989    0.4874 C   0  0  0  0  0  0  0  0  0  0  0  0
    2.8192   -0.1719    1.4123 C   0  0  0  0  0  0  0  0  0  0  0  0
    1.4941   -0.4890    1.0932 C   0  0  0  0  0  0  0  0  0  0  0  0
    0.4475   -1.2929    2.4376 Br  0  0  0  0  0  0  0  0  0  0  0  0
    0.6879    0.0000    0.0000 Cl  0  0  0  0  0  0  0  0  0  0  0  0
   -3.8003    0.4877    1.0429 H   0  0  0  0  0  0  0  0  0  0  0  0
   -3.4781    0.9286   -0.5217 H   0  0  0  0  0  0  0  0  0  0  0  0
   -3.1378   -1.7110    0.7308 H   0  0  0  0  0  0  0  0  0  0  0  0
   -2.9149   -1.3616   -1.0498 H   0  0  0  0  0  0  0  0  0  0  0  0
   -1.4441   -0.0054    1.3210 H   0  0  0  0  0  0  0  0  0  0  0  0
   -0.8037    1.7270   -0.3418 H   0  0  0  0  0  0  0  0  0  0  0  0
   -1.7888    0.8727   -1.6749 H   0  0  0  0  0  0  0  0  0  0  0  0
   -0.4633   -1.2190   -1.4629 H   0  0  0  0  0  0  0  0  0  0  0  0
    1.5324    0.5581   -2.0807 H   0  0  0  0  0  0  0  0  0  0  0  0
    3.8166    1.0983   -1.5132 H   0  0  0  0  0  0  0  0  0  0  0  0
    4.6831    0.6287    0.7732 H   0  0  0  0  0  0  0  0  0  0  0  0
    3.2171   -0.3671    2.3988 H   0  0  0  0  0  0  0  0  0  0  0  0
   -0.6879    0.0000    0.0000 H   0  0  0  0  0  0  0  0  0  0  0  0
  1  2  1  0
  2  3  1  0
  3  4  1  0
  4  5  1  0
  5  6  1  0
  6  7  2  0
  7  8  1  0
  8  9  2  0
  9 10  1  0
 10 11  2  0
 11 12  1  0
  5  3  1  0
 11  6  1  0
  1 14  1  0
  1 15  1  0
  2 16  1  0
  2 17  1  0
  3 18  1  1
  4 19  1  0
  4 20  1  0
  5 21  1  6
  7 22  1  0
  8 23  1  0
  9 24  1  0
 10 25  1  0
 13 26  1  0
M  END
>  <Ligand ID>  (1) 
LIG0005720

>  <Ligand>  (1) 
CHEMBL509418

>  <SMILES>  (1) 
NC[C@@H]1C[C@H]1c1ccccc1Br.Cl

>  <CID>  (1) 
44572752.0

>  <ChEMBL ID>  (1) 
nan

>  <InChiKey>  (1) 
SYDKDXKLTMXNAA-DKXTVVGFSA-N

>  <InChi>  (1) 
InChI=1S/C10H12BrN.ClH/c11-10-4-2-1-3-8(10)9-5-7(9)6-12;/h1-4,7,9H,5-6,12H2;1H/t7-,9+;/m0./s1

>  <IUPAC Name>  (1) 
[(1R,2R)-2-(2-bromophenyl)cyclopropyl]methanamine;hydrochloride

$$$$
