
     RDKit          3D

 60 62  0  0  0  0  0  0  0  0999 V2000
    5.5503   -3.5119    0.6004 O   0  0  0  0  0  0  0  0  0  0  0  0
    5.2697   -2.1511    0.2484 C   0  0  2  0  0  0  0  0  0  0  0  0
    5.6117   -1.3007    1.4219 C   0  0  0  0  0  0  0  0  0  0  0  0
    5.4849    0.0612    1.3003 O   0  0  0  0  0  0  0  0  0  0  0  0
    6.0943    0.9658    0.4920 C   0  0  0  0  0  0  0  0  0  0  0  0
    5.7087    2.3047    0.6256 C   0  0  0  0  0  0  0  0  0  0  0  0
    6.2599    3.3050   -0.1403 C   0  0  0  0  0  0  0  0  0  0  0  0
    7.2204    3.0287   -1.0764 C   0  0  0  0  0  0  0  0  0  0  0  0
    7.6238    1.7182   -1.2335 C   0  0  0  0  0  0  0  0  0  0  0  0
    7.0577    0.7143   -0.4513 C   0  0  0  0  0  0  0  0  0  0  0  0
    7.7416    4.0789   -1.8217 O   0  0  0  0  0  0  0  0  0  0  0  0
    3.7786   -2.1269   -0.0009 C   0  0  0  0  0  0  0  0  0  0  0  0
    3.2928   -0.8466   -0.3772 N   0  0  0  0  0  0  0  0  0  0  0  0
    1.8593   -0.8838   -0.6896 C   0  0  0  0  0  0  0  0  0  0  0  0
    1.0331   -1.1489    0.5380 C   0  0  0  0  0  0  0  0  0  0  0  0
   -0.3894   -1.1540    0.1112 C   0  0  0  0  0  0  0  0  0  0  0  0
   -1.0420    0.0801    0.1517 C   0  0  0  0  0  0  0  0  0  0  0  0
   -2.3618    0.2194   -0.2157 C   0  0  0  0  0  0  0  0  0  0  0  0
   -3.0260   -0.9391   -0.6350 C   0  0  0  0  0  0  0  0  0  0  0  0
   -2.4012   -2.1642   -0.6823 C   0  0  0  0  0  0  0  0  0  0  0  0
   -1.0587   -2.2837   -0.3043 C   0  0  0  0  0  0  0  0  0  0  0  0
   -4.3943   -0.7455   -1.0072 N   0  0  0  0  0  0  0  0  0  0  0  0
   -5.3500   -0.8777    0.0471 C   0  0  0  0  0  0  0  0  0  0  0  0
   -4.9279   -1.1499    1.2006 O   0  0  0  0  0  0  0  0  0  0  0  0
   -6.7918   -0.6911   -0.2504 C   0  0  0  0  0  0  0  0  0  0  0  0
   -7.3815    0.4137    0.5468 C   0  0  0  0  0  0  0  0  0  0  0  0
   -7.1533    1.7068    0.0673 C   0  0  0  0  0  0  0  0  0  0  0  0
   -7.6534    2.8110    0.7307 C   0  0  0  0  0  0  0  0  0  0  0  0
   -8.3851    2.6201    1.8791 C   0  0  0  0  0  0  0  0  0  0  0  0
   -8.6030    1.3458    2.3407 C   0  0  0  0  0  0  0  0  0  0  0  0
   -8.1144    0.2154    1.6976 C   0  0  0  0  0  0  0  0  0  0  0  0
   -7.0616   -0.4145   -1.5753 O   0  0  0  0  0  0  0  0  0  0  0  0
    5.6634   -4.0231   -0.2483 H   0  0  0  0  0  0  0  0  0  0  0  0
    5.8120   -1.9771   -0.6724 H   0  0  0  0  0  0  0  0  0  0  0  0
    4.9792   -1.6082    2.3145 H   0  0  0  0  0  0  0  0  0  0  0  0
    6.6604   -1.6032    1.7466 H   0  0  0  0  0  0  0  0  0  0  0  0
    4.9569    2.5823    1.3460 H   0  0  0  0  0  0  0  0  0  0  0  0
    5.9336    4.3348   -0.0075 H   0  0  0  0  0  0  0  0  0  0  0  0
    8.3849    1.5152   -1.9780 H   0  0  0  0  0  0  0  0  0  0  0  0
    7.4117   -0.2741   -0.6096 H   0  0  0  0  0  0  0  0  0  0  0  0
    7.7974    5.0055   -1.3791 H   0  0  0  0  0  0  0  0  0  0  0  0
    3.5410   -2.8213   -0.8589 H   0  0  0  0  0  0  0  0  0  0  0  0
    3.2336   -2.5574    0.8835 H   0  0  0  0  0  0  0  0  0  0  0  0
    3.4473   -0.1099    0.3666 H   0  0  0  0  0  0  0  0  0  0  0  0
    1.5599    0.1058   -1.0876 H   0  0  0  0  0  0  0  0  0  0  0  0
    1.7103   -1.7122   -1.3956 H   0  0  0  0  0  0  0  0  0  0  0  0
    1.1663   -0.3899    1.3209 H   0  0  0  0  0  0  0  0  0  0  0  0
    1.2411   -2.1426    0.9866 H   0  0  0  0  0  0  0  0  0  0  0  0
   -0.5290    0.9780    0.4766 H   0  0  0  0  0  0  0  0  0  0  0  0
   -2.8630    1.1776   -0.1824 H   0  0  0  0  0  0  0  0  0  0  0  0
   -2.9528   -3.0329   -1.0130 H   0  0  0  0  0  0  0  0  0  0  0  0
   -0.5369   -3.2301   -0.3291 H   0  0  0  0  0  0  0  0  0  0  0  0
   -4.6692   -0.5219   -1.9887 H   0  0  0  0  0  0  0  0  0  0  0  0
   -7.3135   -1.6307    0.0186 H   0  0  0  0  0  0  0  0  0  0  0  0
   -6.5704    1.8718   -0.8487 H   0  0  0  0  0  0  0  0  0  0  0  0
   -7.4491    3.8115    0.3170 H   0  0  0  0  0  0  0  0  0  0  0  0
   -8.7709    3.5112    2.3873 H   0  0  0  0  0  0  0  0  0  0  0  0
   -9.1799    1.1923    3.2461 H   0  0  0  0  0  0  0  0  0  0  0  0
   -8.2820   -0.7847    2.0546 H   0  0  0  0  0  0  0  0  0  0  0  0
   -7.8736   -0.8666   -1.9353 H   0  0  0  0  0  0  0  0  0  0  0  0
  1  2  1  0
  2  3  1  0
  3  4  1  0
  4  5  1  0
  5  6  2  0
  6  7  1  0
  7  8  2  0
  8  9  1  0
  9 10  2  0
  8 11  1  0
  2 12  1  0
 12 13  1  0
 13 14  1  0
 14 15  1  0
 15 16  1  0
 16 17  2  0
 17 18  1  0
 18 19  2  0
 19 20  1  0
 20 21  2  0
 19 22  1  0
 22 23  1  0
 23 24  2  0
 23 25  1  0
 25 26  1  0
 26 27  2  0
 27 28  1  0
 28 29  2  0
 29 30  1  0
 30 31  2  0
 25 32  1  0
 10  5  1  0
 21 16  1  0
 31 26  1  0
  1 33  1  0
  2 34  1  6
  3 35  1  0
  3 36  1  0
  6 37  1  0
  7 38  1  0
  9 39  1  0
 10 40  1  0
 11 41  1  0
 12 42  1  0
 12 43  1  0
 13 44  1  0
 14 45  1  0
 14 46  1  0
 15 47  1  0
 15 48  1  0
 17 49  1  0
 18 50  1  0
 20 51  1  0
 21 52  1  0
 22 53  1  0
 25 54  1  0
 27 55  1  0
 28 56  1  0
 29 57  1  0
 30 58  1  0
 31 59  1  0
 32 60  1  0
M  END
>  <Ligand ID>  (1) 
LIG0002606

>  <Ligand>  (1) 
CHEMBL551832

>  <SMILES>  (1) 
O[C@H](COc1ccc(cc1)O)CNCCc1ccc(cc1)NC(=O)C(c1ccccc1)O

>  <CID>  (1) 
44127048.0

>  <ChEMBL ID>  (1) 
nan

>  <InChiKey>  (1) 
JRGYLOCJPAITNI-OWJIYDKWSA-N

>  <InChi>  (1) 
InChI=1S/C25H28N2O5/c28-21-10-12-23(13-11-21)32-17-22(29)16-26-15-14-18-6-8-20(9-7-18)27-25(31)24(30)19-4-2-1-3-5-19/h1-13,22,24,26,28-30H,14-17H2,(H,27,31)/t22-,24?/m0/s1

>  <IUPAC Name>  (1) 
2-hydroxy-N-[4-[2-[[(2S)-2-hydroxy-3-(4-hydroxyphenoxy)propyl]amino]ethyl]phenyl]-2-phenylacetamide

$$$$
