
     RDKit          3D

 56 58  0  0  0  0  0  0  0  0999 V2000
   -3.3868    5.5480   -0.5638 N   0  0  0  0  0  0  0  0  0  0  0  0
   -3.2160    4.1085   -0.2431 C   0  0  0  0  0  0  0  0  0  0  0  0
   -4.2434    3.3048   -0.9523 C   0  0  0  0  0  0  0  0  0  0  0  0
   -4.2266    1.8648   -0.6779 C   0  0  0  0  0  0  0  0  0  0  0  0
   -3.1003    1.0609   -0.9357 N   0  0  0  0  0  0  0  0  0  0  0  0
   -1.8303    1.0782   -0.3211 C   0  0  0  0  0  0  0  0  0  0  0  0
   -1.5075    1.8549    0.6162 O   0  0  0  0  0  0  0  0  0  0  0  0
   -0.7837    0.1374   -0.7806 C   0  0  2  0  0  0  0  0  0  0  0  0
   -1.2310   -1.2642   -0.9834 C   0  0  0  0  0  0  0  0  0  0  0  0
   -1.7706   -1.9629    0.1760 C   0  0  0  0  0  0  0  0  0  0  0  0
   -2.1893   -1.5310    1.4152 C   0  0  0  0  0  0  0  0  0  0  0  0
   -2.6185   -2.5603    2.1667 N   0  0  0  0  0  0  0  0  0  0  0  0
   -2.4863   -3.6742    1.4323 C   0  0  0  0  0  0  0  0  0  0  0  0
   -1.9672   -3.3522    0.1979 C   0  0  0  0  0  0  0  0  0  0  0  0
   -1.7582   -4.3658   -0.6971 C   0  0  0  0  0  0  0  0  0  0  0  0
   -2.0463   -5.6836   -0.4059 C   0  0  0  0  0  0  0  0  0  0  0  0
   -2.5683   -5.9918    0.8427 C   0  0  0  0  0  0  0  0  0  0  0  0
   -2.7934   -4.9934    1.7719 C   0  0  0  0  0  0  0  0  0  0  0  0
    0.4548    0.2359   -0.0340 N   0  0  0  0  0  0  0  0  0  0  0  0
    1.6390    0.6518   -0.6848 C   0  0  0  0  0  0  0  0  0  0  0  0
    1.6804    0.9610   -1.9091 O   0  0  0  0  0  0  0  0  0  0  0  0
    2.8962    0.7497    0.0152 N   0  0  0  0  0  0  0  0  0  0  0  0
    4.0247    1.1818   -0.7896 C   0  0  0  0  0  0  0  0  0  0  0  0
    5.3243    0.9964   -0.0929 C   0  0  0  0  0  0  0  0  0  0  0  0
    5.9376   -0.2453   -0.2984 C   0  0  0  0  0  0  0  0  0  0  0  0
    7.1516   -0.5506    0.2955 C   0  0  0  0  0  0  0  0  0  0  0  0
    7.7042    0.4352    1.0884 C   0  0  0  0  0  0  0  0  0  0  0  0
    7.1244    1.6579    1.3055 C   0  0  0  0  0  0  0  0  0  0  0  0
    5.9065    1.9553    0.7058 C   0  0  0  0  0  0  0  0  0  0  0  0
   -2.8880    6.0584    0.1986 H   0  0  0  0  0  0  0  0  0  0  0  0
   -4.4091    5.7581   -0.4151 H   0  0  0  0  0  0  0  0  0  0  0  0
   -3.1809    3.9632    0.8261 H   0  0  0  0  0  0  0  0  0  0  0  0
   -2.2299    3.8930   -0.7436 H   0  0  0  0  0  0  0  0  0  0  0  0
   -5.2882    3.6696   -0.6542 H   0  0  0  0  0  0  0  0  0  0  0  0
   -4.1821    3.5486   -2.0529 H   0  0  0  0  0  0  0  0  0  0  0  0
   -5.1309    1.4075   -1.1915 H   0  0  0  0  0  0  0  0  0  0  0  0
   -4.5078    1.7707    0.4404 H   0  0  0  0  0  0  0  0  0  0  0  0
   -3.2017    0.3223   -1.7094 H   0  0  0  0  0  0  0  0  0  0  0  0
   -0.5093    0.5142   -1.8148 H   0  0  0  0  0  0  0  0  0  0  0  0
   -0.3711   -1.8868   -1.3669 H   0  0  0  0  0  0  0  0  0  0  0  0
   -1.9400   -1.2634   -1.8606 H   0  0  0  0  0  0  0  0  0  0  0  0
   -2.1812   -0.5275    1.7460 H   0  0  0  0  0  0  0  0  0  0  0  0
   -2.9841   -2.4705    3.1510 H   0  0  0  0  0  0  0  0  0  0  0  0
   -1.3478   -4.0916   -1.6644 H   0  0  0  0  0  0  0  0  0  0  0  0
   -1.8570   -6.4388   -1.1496 H   0  0  0  0  0  0  0  0  0  0  0  0
   -2.7990   -7.0116    1.0987 H   0  0  0  0  0  0  0  0  0  0  0  0
   -3.2020   -5.2208    2.7553 H   0  0  0  0  0  0  0  0  0  0  0  0
    0.5217    0.0119    0.9878 H   0  0  0  0  0  0  0  0  0  0  0  0
    2.9633    0.5189    1.0330 H   0  0  0  0  0  0  0  0  0  0  0  0
    3.8261    2.2582   -1.0395 H   0  0  0  0  0  0  0  0  0  0  0  0
    3.9919    0.6460   -1.7729 H   0  0  0  0  0  0  0  0  0  0  0  0
    5.4765   -1.0013   -0.9274 H   0  0  0  0  0  0  0  0  0  0  0  0
    7.6126   -1.5123    0.1234 H   0  0  0  0  0  0  0  0  0  0  0  0
    8.6732    0.1837    1.5528 H   0  0  0  0  0  0  0  0  0  0  0  0
    7.6148    2.3913    1.9411 H   0  0  0  0  0  0  0  0  0  0  0  0
    5.4100    2.9018    0.8492 H   0  0  0  0  0  0  0  0  0  0  0  0
  1  2  1  0
  2  3  1  0
  3  4  1  0
  4  5  1  0
  5  6  1  0
  6  7  2  0
  6  8  1  0
  8  9  1  0
  9 10  1  0
 10 11  2  0
 11 12  1  0
 12 13  1  0
 13 14  2  0
 14 15  1  0
 15 16  2  0
 16 17  1  0
 17 18  2  0
  8 19  1  0
 19 20  1  0
 20 21  2  0
 20 22  1  0
 22 23  1  0
 23 24  1  0
 24 25  2  0
 25 26  1  0
 26 27  2  0
 27 28  1  0
 28 29  2  0
 14 10  1  0
 29 24  1  0
 18 13  1  0
  1 30  1  0
  1 31  1  0
  2 32  1  0
  2 33  1  0
  3 34  1  0
  3 35  1  0
  4 36  1  0
  4 37  1  0
  5 38  1  0
  8 39  1  6
  9 40  1  0
  9 41  1  0
 11 42  1  0
 12 43  1  0
 15 44  1  0
 16 45  1  0
 17 46  1  0
 18 47  1  0
 19 48  1  0
 22 49  1  0
 23 50  1  0
 23 51  1  0
 25 52  1  0
 26 53  1  0
 27 54  1  0
 28 55  1  0
 29 56  1  0
M  END
>  <Ligand ID>  (1) 
LIG0001270

>  <Ligand>  (1) 
CHEMBL293673

>  <SMILES>  (1) 
NCCCNC(=O)[C@H](Cc1c[nH]c2c1cccc2)NC(=O)NCc1ccccc1

>  <CID>  (1) 
44305805.0

>  <ChEMBL ID>  (1) 
nan

>  <InChiKey>  (1) 
LTPXHKJHVKQPSW-FQEVSTJZSA-N

>  <InChi>  (1) 
InChI=1S/C22H27N5O2/c23-11-6-12-24-21(28)20(13-17-15-25-19-10-5-4-9-18(17)19)27-22(29)26-14-16-7-2-1-3-8-16/h1-5,7-10,15,20,25H,6,11-14,23H2,(H,24,28)(H2,26,27,29)/t20-/m0/s1

>  <IUPAC Name>  (1) 
(2S)-N-(3-aminopropyl)-2-(benzylcarbamoylamino)-3-(1H-indol-3-yl)propanamide

$$$$
