
     RDKit          3D

 79 83  0  0  0  0  0  0  0  0999 V2000
    9.5561   -2.4810    3.2685 O   0  0  0  0  0  0  0  0  0  0  0  0
    9.2192   -1.5298    2.2771 C   0  0  2  0  0  0  0  0  0  0  0  0
   10.3543   -1.4544    1.3535 C   0  0  0  0  0  0  0  0  0  0  0  0
   10.9483   -0.3118    0.8977 C   0  0  0  0  0  0  0  0  0  0  0  0
   12.0152   -0.3642    0.0209 C   0  0  0  0  0  0  0  0  0  0  0  0
   12.5094   -1.5695   -0.4178 C   0  0  0  0  0  0  0  0  0  0  0  0
   11.9146   -2.6846    0.0397 N   0  0  0  0  0  0  0  0  0  0  0  0
   10.8773   -2.6546    0.8917 C   0  0  0  0  0  0  0  0  0  0  0  0
    8.7989   -0.2553    2.9091 C   0  0  0  0  0  0  0  0  0  0  0  0
    8.4171    0.7643    1.9750 N   0  0  0  0  0  0  0  0  0  0  0  0
    7.1884    0.4641    1.2539 C   0  0  0  0  0  0  0  0  0  0  0  0
    6.8857    1.5990    0.3153 C   0  0  0  0  0  0  0  0  0  0  0  0
    5.6425    1.3200   -0.4303 C   0  0  0  0  0  0  0  0  0  0  0  0
    4.4161    1.7241    0.0753 C   0  0  0  0  0  0  0  0  0  0  0  0
    3.2239    1.4912   -0.5883 C   0  0  0  0  0  0  0  0  0  0  0  0
    3.2168    0.8362   -1.7990 C   0  0  0  0  0  0  0  0  0  0  0  0
    4.4369    0.4206   -2.3266 C   0  0  0  0  0  0  0  0  0  0  0  0
    5.6336    0.6555   -1.6581 C   0  0  0  0  0  0  0  0  0  0  0  0
    2.0572    0.5580   -2.5538 N   0  0  0  0  0  0  0  0  0  0  0  0
    0.8467    1.7617   -2.7736 S   0  0  0  0  0  0  0  0  0  0  0  0
    0.5168    1.8818   -4.2514 O   0  0  0  0  0  0  0  0  0  0  0  0
    1.3323    3.1193   -2.3513 O   0  0  0  0  0  0  0  0  0  0  0  0
   -0.5645    1.2726   -1.8783 C   0  0  0  0  0  0  0  0  0  0  0  0
   -0.7974    1.6180   -0.5649 C   0  0  0  0  0  0  0  0  0  0  0  0
   -1.9719    1.1653    0.0441 C   0  0  0  0  0  0  0  0  0  0  0  0
   -2.8826    0.3912   -0.6440 C   0  0  0  0  0  0  0  0  0  0  0  0
   -2.6532    0.0398   -1.9689 C   0  0  0  0  0  0  0  0  0  0  0  0
   -1.4947    0.4857   -2.5704 C   0  0  0  0  0  0  0  0  0  0  0  0
   -4.0917   -0.0931   -0.0708 N   0  0  0  0  0  0  0  0  0  0  0  0
   -4.3000   -0.6861    1.0929 N   0  0  0  0  0  0  0  0  0  0  0  0
   -5.6090   -0.9700    1.2077 N   0  0  0  0  0  0  0  0  0  0  0  0
   -6.2149   -0.5481    0.1034 N   0  0  0  0  0  0  0  0  0  0  0  0
   -5.2837    0.0001   -0.7017 C   0  0  0  0  0  0  0  0  0  0  0  0
   -5.5160    0.4921   -1.8152 O   0  0  0  0  0  0  0  0  0  0  0  0
   -7.6732   -0.6642   -0.1899 C   0  0  0  0  0  0  0  0  0  0  0  0
   -8.2826    0.5703    0.3408 C   0  0  0  0  0  0  0  0  0  0  0  0
   -9.7215    0.8206    0.1836 C   0  0  0  0  0  0  0  0  0  0  0  0
  -10.6221   -0.1842    0.8058 C   0  0  0  0  0  0  0  0  0  0  0  0
  -10.5601   -1.5811    0.3191 C   0  0  0  0  0  0  0  0  0  0  0  0
  -12.0443   -1.9755    0.1261 C   0  0  0  0  0  0  0  0  0  0  0  0
  -12.7078   -0.6684   -0.2620 C   0  0  0  0  0  0  0  0  0  0  0  0
  -12.0487    0.3206    0.6465 C   0  0  0  0  0  0  0  0  0  0  0  0
   10.5496   -2.5118    3.3658 H   0  0  0  0  0  0  0  0  0  0  0  0
    8.3432   -1.9703    1.7534 H   0  0  0  0  0  0  0  0  0  0  0  0
   10.6103    0.6417    1.2063 H   0  0  0  0  0  0  0  0  0  0  0  0
   12.4688    0.5393   -0.3269 H   0  0  0  0  0  0  0  0  0  0  0  0
   13.3506   -1.6284   -1.1091 H   0  0  0  0  0  0  0  0  0  0  0  0
   10.4422   -3.5938    1.2224 H   0  0  0  0  0  0  0  0  0  0  0  0
    9.6482    0.1615    3.4978 H   0  0  0  0  0  0  0  0  0  0  0  0
    7.9486   -0.4591    3.6058 H   0  0  0  0  0  0  0  0  0  0  0  0
    8.3250    1.6500    2.5199 H   0  0  0  0  0  0  0  0  0  0  0  0
    7.2337   -0.5035    0.7407 H   0  0  0  0  0  0  0  0  0  0  0  0
    6.4051    0.3715    2.0333 H   0  0  0  0  0  0  0  0  0  0  0  0
    7.7546    1.8234   -0.3286 H   0  0  0  0  0  0  0  0  0  0  0  0
    6.7545    2.5064    0.9496 H   0  0  0  0  0  0  0  0  0  0  0  0
    4.4432    2.2439    1.0398 H   0  0  0  0  0  0  0  0  0  0  0  0
    2.2860    1.8186   -0.1678 H   0  0  0  0  0  0  0  0  0  0  0  0
    4.4590   -0.1041   -3.2900 H   0  0  0  0  0  0  0  0  0  0  0  0
    6.5716    0.3273   -2.0795 H   0  0  0  0  0  0  0  0  0  0  0  0
    1.9033   -0.3624   -2.9901 H   0  0  0  0  0  0  0  0  0  0  0  0
   -0.0727    2.2249   -0.0418 H   0  0  0  0  0  0  0  0  0  0  0  0
   -2.1856    1.4184    1.0752 H   0  0  0  0  0  0  0  0  0  0  0  0
   -3.3479   -0.5670   -2.5391 H   0  0  0  0  0  0  0  0  0  0  0  0
   -1.3142    0.2060   -3.6205 H   0  0  0  0  0  0  0  0  0  0  0  0
   -7.7945   -0.7203   -1.2840 H   0  0  0  0  0  0  0  0  0  0  0  0
   -8.0247   -1.6228    0.2423 H   0  0  0  0  0  0  0  0  0  0  0  0
   -7.9486    0.7496    1.4230 H   0  0  0  0  0  0  0  0  0  0  0  0
   -7.7352    1.4285   -0.1817 H   0  0  0  0  0  0  0  0  0  0  0  0
  -10.0120    1.8127    0.6702 H   0  0  0  0  0  0  0  0  0  0  0  0
   -9.9468    0.9201   -0.9160 H   0  0  0  0  0  0  0  0  0  0  0  0
  -10.3751   -0.2204    1.9191 H   0  0  0  0  0  0  0  0  0  0  0  0
  -10.0985   -2.2961    1.0272 H   0  0  0  0  0  0  0  0  0  0  0  0
  -10.1238   -1.7428   -0.6775 H   0  0  0  0  0  0  0  0  0  0  0  0
  -12.1446   -2.7489   -0.6613 H   0  0  0  0  0  0  0  0  0  0  0  0
  -12.3945   -2.2933    1.1243 H   0  0  0  0  0  0  0  0  0  0  0  0
  -12.5181   -0.4266   -1.3174 H   0  0  0  0  0  0  0  0  0  0  0  0
  -13.7948   -0.7575   -0.0486 H   0  0  0  0  0  0  0  0  0  0  0  0
  -12.5528    0.3865    1.6263 H   0  0  0  0  0  0  0  0  0  0  0  0
  -12.0807    1.3157    0.2058 H   0  0  0  0  0  0  0  0  0  0  0  0
  1  2  1  0
  2  3  1  0
  3  4  2  0
  4  5  1  0
  5  6  2  0
  6  7  1  0
  7  8  2  0
  2  9  1  0
  9 10  1  0
 10 11  1  0
 11 12  1  0
 12 13  1  0
 13 14  2  0
 14 15  1  0
 15 16  2  0
 16 17  1  0
 17 18  2  0
 16 19  1  0
 19 20  1  0
 20 21  2  0
 20 22  2  0
 20 23  1  0
 23 24  2  0
 24 25  1  0
 25 26  2  0
 26 27  1  0
 27 28  2  0
 26 29  1  0
 29 30  1  0
 30 31  2  0
 31 32  1  0
 32 33  1  0
 33 34  2  0
 32 35  1  0
 35 36  1  0
 36 37  1  0
 37 38  1  0
 38 39  1  0
 39 40  1  0
 40 41  1  0
 41 42  1  0
  8  3  1  0
 18 13  1  0
 28 23  1  0
 33 29  1  0
 42 38  1  0
  1 43  1  0
  2 44  1  6
  4 45  1  0
  5 46  1  0
  6 47  1  0
  8 48  1  0
  9 49  1  0
  9 50  1  0
 10 51  1  0
 11 52  1  0
 11 53  1  0
 12 54  1  0
 12 55  1  0
 14 56  1  0
 15 57  1  0
 17 58  1  0
 18 59  1  0
 19 60  1  0
 24 61  1  0
 25 62  1  0
 27 63  1  0
 28 64  1  0
 35 65  1  0
 35 66  1  0
 36 67  1  0
 36 68  1  0
 37 69  1  0
 37 70  1  0
 38 71  1  0
 39 72  1  0
 39 73  1  0
 40 74  1  0
 40 75  1  0
 41 76  1  0
 41 77  1  0
 42 78  1  0
 42 79  1  0
M  END
>  <Ligand ID>  (1) 
LIG0003028

>  <Ligand>  (1) 
l-770644

>  <SMILES>  (1) 
O[C@H](c1cccnc1)CNCCc1ccc(cc1)NS(=O)(=O)c1ccc(cc1)n1nnn(c1=O)CCCC1CCCC1

>  <CID>  (1) 
9873257.0

>  <ChEMBL ID>  (1) 
nan

>  <InChiKey>  (1) 
GCRTUWDFTYDUFB-LJAQVGFWSA-N

>  <InChi>  (1) 
InChI=1S/C30H37N7O4S/c38-29(25-8-3-18-31-21-25)22-32-19-17-24-9-11-26(12-10-24)33-42(40,41)28-15-13-27(14-16-28)37-30(39)36(34-35-37)20-4-7-23-5-1-2-6-23/h3,8-16,18,21,23,29,32-33,38H,1-2,4-7,17,19-20,22H2/t29-/m0/s1

>  <IUPAC Name>  (1) 
4-[4-(3-cyclopentylpropyl)-5-oxotetrazol-1-yl]-N-[4-[2-[[(2R)-2-hydroxy-2-pyridin-3-ylethyl]amino]ethyl]phenyl]benzenesulfonamide

$$$$
