
     RDKit          3D

 81 86  0  0  0  0  0  0  0  0999 V2000
    7.3361   -5.3215   -0.8816 C   0  0  0  0  0  0  0  0  0  0  0  0
    6.0640   -4.5874   -0.5715 C   0  0  0  0  0  0  0  0  0  0  0  0
    6.3704   -3.1316   -0.5113 C   0  0  0  0  0  0  0  0  0  0  0  0
    7.5417   -2.7047   -0.6785 O   0  0  0  0  0  0  0  0  0  0  0  0
    5.2974   -2.2485   -0.2608 N   0  0  0  0  0  0  0  0  0  0  0  0
    5.4542   -0.7978   -0.1760 C   0  0  1  0  0  0  0  0  0  0  0  0
    4.6674   -0.2338   -1.3427 C   0  0  0  0  0  0  0  0  0  0  0  0
    3.6431    0.6962   -0.7922 C   0  0  2  0  0  0  0  0  0  0  0  0
    3.8443    0.7894    0.6835 C   0  0  1  0  0  0  0  0  0  0  0  0
    4.8277   -0.2974    1.0799 C   0  0  2  0  0  0  0  0  0  0  0  0
    5.8420    0.1731    1.9096 O   0  0  0  0  0  0  0  0  0  0  0  0
    4.4664    2.0055    1.0507 O   0  0  0  0  0  0  0  0  0  0  0  0
    2.2926    0.3562   -1.1953 N   0  0  0  0  0  0  0  0  0  0  0  0
    1.9190   -0.3840   -2.2586 C   0  0  0  0  0  0  0  0  0  0  0  0
    0.5572   -0.4786   -2.2965 N   0  0  0  0  0  0  0  0  0  0  0  0
    0.0557    0.1967   -1.2635 C   0  0  0  0  0  0  0  0  0  0  0  0
    1.1423    0.7100   -0.5884 C   0  0  0  0  0  0  0  0  0  0  0  0
    0.8609    1.4497    0.5124 N   0  0  0  0  0  0  0  0  0  0  0  0
   -0.4042    1.6623    0.9115 C   0  0  0  0  0  0  0  0  0  0  0  0
   -0.5579    2.4707    2.0902 N   0  0  0  0  0  0  0  0  0  0  0  0
   -0.3056    3.9046    1.8614 C   0  0  0  0  0  0  0  0  0  0  0  0
   -1.2467    4.3040    0.7530 C   0  0  0  0  0  0  0  0  0  0  0  0
   -1.1113    5.7287    0.3613 C   0  0  0  0  0  0  0  0  0  0  0  0
   -0.3058    6.6786    0.8364 N   0  0  0  0  0  0  0  0  0  0  0  0
   -0.5189    7.8215    0.1819 C   0  0  0  0  0  0  0  0  0  0  0  0
   -1.4771    7.5828   -0.7210 N   0  0  0  0  0  0  0  0  0  0  0  0
   -1.8734    6.2967   -0.6446 C   0  0  0  0  0  0  0  0  0  0  0  0
   -1.4385    1.1508    0.2388 N   0  0  0  0  0  0  0  0  0  0  0  0
   -1.2477    0.3937   -0.8817 C   0  0  0  0  0  0  0  0  0  0  0  0
   -2.3388   -0.1206   -1.5808 N   0  0  0  0  0  0  0  0  0  0  0  0
   -3.7238    0.0859   -1.1486 C   0  0  0  0  0  0  0  0  0  0  0  0
   -3.9036   -0.6473    0.1364 C   0  0  0  0  0  0  0  0  0  0  0  0
   -5.2689   -0.5406    0.7216 C   0  0  0  0  0  0  0  0  0  0  0  0
   -6.3754   -0.1814   -0.0171 C   0  0  0  0  0  0  0  0  0  0  0  0
   -7.6197   -0.1128    0.6010 C   0  0  0  0  0  0  0  0  0  0  0  0
   -7.7186   -0.4115    1.9600 C   0  0  0  0  0  0  0  0  0  0  0  0
   -6.5922   -0.7744    2.6966 C   0  0  0  0  0  0  0  0  0  0  0  0
   -5.3597   -0.8408    2.0826 C   0  0  0  0  0  0  0  0  0  0  0  0
   -3.6649   -2.1092   -0.1269 C   0  0  0  0  0  0  0  0  0  0  0  0
   -3.0365   -2.8831    0.8461 C   0  0  0  0  0  0  0  0  0  0  0  0
   -2.8177   -4.2173    0.6145 C   0  0  0  0  0  0  0  0  0  0  0  0
   -3.2175   -4.7920   -0.5787 C   0  0  0  0  0  0  0  0  0  0  0  0
   -3.8381   -4.0646   -1.5589 C   0  0  0  0  0  0  0  0  0  0  0  0
   -4.0499   -2.7074   -1.2979 C   0  0  0  0  0  0  0  0  0  0  0  0
    8.1650   -4.8396   -0.3262 H   0  0  0  0  0  0  0  0  0  0  0  0
    7.5284   -5.1896   -1.9714 H   0  0  0  0  0  0  0  0  0  0  0  0
    7.2758   -6.3726   -0.5889 H   0  0  0  0  0  0  0  0  0  0  0  0
    5.2498   -4.7768   -1.2860 H   0  0  0  0  0  0  0  0  0  0  0  0
    5.7518   -4.8706    0.4544 H   0  0  0  0  0  0  0  0  0  0  0  0
    4.3169   -2.6259   -0.1236 H   0  0  0  0  0  0  0  0  0  0  0  0
    6.5257   -0.5148   -0.2804 H   0  0  0  0  0  0  0  0  0  0  0  0
    4.2020   -1.0091   -1.9545 H   0  0  0  0  0  0  0  0  0  0  0  0
    5.3922    0.2898   -2.0356 H   0  0  0  0  0  0  0  0  0  0  0  0
    3.8745    1.7190   -1.2073 H   0  0  0  0  0  0  0  0  0  0  0  0
    2.9396    0.7360    1.2961 H   0  0  0  0  0  0  0  0  0  0  0  0
    4.3012   -1.0926    1.6524 H   0  0  0  0  0  0  0  0  0  0  0  0
    5.6492    0.0758    2.8652 H   0  0  0  0  0  0  0  0  0  0  0  0
    5.3061    2.0746    0.5028 H   0  0  0  0  0  0  0  0  0  0  0  0
    2.5195   -0.8641   -3.0153 H   0  0  0  0  0  0  0  0  0  0  0  0
   -0.8231    2.0866    3.0159 H   0  0  0  0  0  0  0  0  0  0  0  0
   -0.5063    4.5053    2.7851 H   0  0  0  0  0  0  0  0  0  0  0  0
    0.7628    4.0795    1.6255 H   0  0  0  0  0  0  0  0  0  0  0  0
   -1.0242    3.6113   -0.1065 H   0  0  0  0  0  0  0  0  0  0  0  0
   -2.2761    4.0646    1.1358 H   0  0  0  0  0  0  0  0  0  0  0  0
    0.3739    6.5218    1.6003 H   0  0  0  0  0  0  0  0  0  0  0  0
    0.0315    8.7315    0.4078 H   0  0  0  0  0  0  0  0  0  0  0  0
   -2.6235    5.7741   -1.2292 H   0  0  0  0  0  0  0  0  0  0  0  0
   -2.1779   -0.6772   -2.4532 H   0  0  0  0  0  0  0  0  0  0  0  0
   -3.8633    1.1826   -0.9081 H   0  0  0  0  0  0  0  0  0  0  0  0
   -4.4449   -0.1393   -1.9421 H   0  0  0  0  0  0  0  0  0  0  0  0
   -3.1730   -0.2775    0.8711 H   0  0  0  0  0  0  0  0  0  0  0  0
   -6.2782    0.0492   -1.0809 H   0  0  0  0  0  0  0  0  0  0  0  0
   -8.5074    0.1648    0.0571 H   0  0  0  0  0  0  0  0  0  0  0  0
   -8.6794   -0.3623    2.4689 H   0  0  0  0  0  0  0  0  0  0  0  0
   -6.6441   -1.0108    3.7540 H   0  0  0  0  0  0  0  0  0  0  0  0
   -4.5065   -1.1239    2.6732 H   0  0  0  0  0  0  0  0  0  0  0  0
   -2.7180   -2.4490    1.7805 H   0  0  0  0  0  0  0  0  0  0  0  0
   -2.3364   -4.8469    1.3424 H   0  0  0  0  0  0  0  0  0  0  0  0
   -3.0432   -5.8634   -0.7616 H   0  0  0  0  0  0  0  0  0  0  0  0
   -4.1705   -4.4792   -2.5105 H   0  0  0  0  0  0  0  0  0  0  0  0
   -4.5402   -2.1497   -2.0791 H   0  0  0  0  0  0  0  0  0  0  0  0
  1  2  1  0
  2  3  1  0
  3  4  2  0
  3  5  1  0
  5  6  1  0
  6  7  1  0
  7  8  1  0
  8  9  1  0
  9 10  1  0
 10 11  1  0
  9 12  1  0
  8 13  1  0
 13 14  1  0
 14 15  2  0
 15 16  1  0
 16 17  2  0
 17 18  1  0
 18 19  2  0
 19 20  1  0
 20 21  1  0
 21 22  1  0
 22 23  1  0
 23 24  1  0
 24 25  1  0
 25 26  2  0
 26 27  1  0
 19 28  1  0
 28 29  2  0
 29 30  1  0
 30 31  1  0
 31 32  1  0
 32 33  1  0
 33 34  2  0
 34 35  1  0
 35 36  2  0
 36 37  1  0
 37 38  2  0
 32 39  1  0
 39 40  2  0
 40 41  1  0
 41 42  2  0
 42 43  1  0
 43 44  2  0
 10  6  1  0
 17 13  1  0
 27 23  2  0
 38 33  1  0
 44 39  1  0
 29 16  1  0
  1 45  1  0
  1 46  1  0
  1 47  1  0
  2 48  1  0
  2 49  1  0
  5 50  1  0
  6 51  1  6
  7 52  1  0
  7 53  1  0
  8 54  1  6
  9 55  1  1
 10 56  1  1
 11 57  1  0
 12 58  1  0
 14 59  1  0
 20 60  1  0
 21 61  1  0
 21 62  1  0
 22 63  1  0
 22 64  1  0
 24 65  1  0
 25 66  1  0
 27 67  1  0
 30 68  1  0
 31 69  1  0
 31 70  1  0
 32 71  1  0
 34 72  1  0
 35 73  1  0
 36 74  1  0
 37 75  1  0
 38 76  1  0
 40 77  1  0
 41 78  1  0
 42 79  1  0
 43 80  1  0
 44 81  1  0
M  END
>  <Ligand ID>  (1) 
LIG0004040

>  <Ligand>  (1) 
CHEMBL601514

>  <SMILES>  (1) 
CCC(=O)N[C@H]1C[C@H]([C@@H]([C@@H]1O)O)n1cnc2c1nc(NCCc1[nH]cnc1)nc2NCC(c1ccccc1)c1ccccc1

>  <CID>  (1) 
46230238.0

>  <ChEMBL ID>  (1) 
nan

>  <InChiKey>  (1) 
XEBIBTRFVZVYQI-QEJHQWKJSA-N

>  <InChi>  (1) 
InChI=1S/C32H37N9O3/c1-2-26(42)38-24-15-25(29(44)28(24)43)41-19-37-27-30(39-32(40-31(27)41)34-14-13-22-16-33-18-36-22)35-17-23(20-9-5-3-6-10-20)21-11-7-4-8-12-21/h3-12,16,18-19,23-25,28-29,43-44H,2,13-15,17H2,1H3,(H,33,36)(H,38,42)(H2,34,35,39,40)/t24-,25+,28+,29-/m0/s1

>  <IUPAC Name>  (1) 
N-[(1S,2R,3S,4R)-4-[6-(2,2-diphenylethylamino)-2-[2-(1H-imidazol-5-yl)ethylamino]purin-9-yl]-2,3-dihydroxycyclopentyl]propanamide

$$$$
