
     RDKit          3D

 23 22  0  0  0  0  0  0  0  0999 V2000
    3.9556    0.6416    0.6365 C   0  0  0  0  0  0  0  0  0  0  0  0
    2.8281    0.1274   -0.1950 C   0  0  0  0  0  0  0  0  0  0  0  0
    1.5730    0.1805    0.2680 C   0  0  0  0  0  0  0  0  0  0  0  0
    0.4572   -0.3176   -0.5309 C   0  0  0  0  0  0  0  0  0  0  0  0
    0.6949   -0.7945   -1.6550 O   0  0  0  0  0  0  0  0  0  0  0  0
   -0.8987   -0.2147    0.0703 C   0  0  0  0  0  0  0  0  0  0  0  0
   -1.9677   -0.7584   -0.8424 C   0  0  0  0  0  0  0  0  0  0  0  0
   -3.2947   -0.6039   -0.1345 C   0  0  0  0  0  0  0  0  0  0  0  0
   -1.1631    1.2582    0.3060 C   0  0  0  0  0  0  0  0  0  0  0  0
    4.9043    0.3731    0.1655 H   0  0  0  0  0  0  0  0  0  0  0  0
    3.8274    1.7292    0.8133 H   0  0  0  0  0  0  0  0  0  0  0  0
    3.9539    0.1811    1.6635 H   0  0  0  0  0  0  0  0  0  0  0  0
    3.0290   -0.2950   -1.1878 H   0  0  0  0  0  0  0  0  0  0  0  0
    1.4590    0.6101    1.2530 H   0  0  0  0  0  0  0  0  0  0  0  0
   -0.9485   -0.8157    1.0057 H   0  0  0  0  0  0  0  0  0  0  0  0
   -1.8225   -1.8034   -1.1169 H   0  0  0  0  0  0  0  0  0  0  0  0
   -2.0023   -0.0843   -1.7259 H   0  0  0  0  0  0  0  0  0  0  0  0
   -3.4989   -1.5801    0.3860 H   0  0  0  0  0  0  0  0  0  0  0  0
   -4.1206   -0.4662   -0.8655 H   0  0  0  0  0  0  0  0  0  0  0  0
   -3.2816    0.2313    0.5947 H   0  0  0  0  0  0  0  0  0  0  0  0
   -2.0504    1.6255   -0.2473 H   0  0  0  0  0  0  0  0  0  0  0  0
   -1.3104    1.3971    1.3973 H   0  0  0  0  0  0  0  0  0  0  0  0
   -0.3232    1.9106   -0.0587 H   0  0  0  0  0  0  0  0  0  0  0  0
  1  2  1  0
  2  3  2  0
  3  4  1  0
  4  5  2  0
  4  6  1  0
  6  7  1  0
  7  8  1  0
  6  9  1  0
  1 10  1  0
  1 11  1  0
  1 12  1  0
  2 13  1  0
  3 14  1  0
  6 15  1  0
  7 16  1  0
  7 17  1  0
  8 18  1  0
  8 19  1  0
  8 20  1  0
  9 21  1  0
  9 22  1  0
  9 23  1  0
M  END
>  <Ligand ID>  (1) 
LIG0000604

>  <Ligand>  (1) 
5-methylhept-2-en-4-one

>  <SMILES>  (1) 
C/C=C/C(=O)C(CC)C

>  <CID>  (1) 
5362588.0

>  <ChEMBL ID>  (1) 
nan

>  <InChiKey>  (1) 
ARJWAURHQDJJAC-GQCTYLIASA-N

>  <InChi>  (1) 
InChI=1S/C8H14O/c1-4-6-8(9)7(3)5-2/h4,6-7H,5H2,1-3H3/b6-4+

>  <IUPAC Name>  (1) 
(E)-5-methylhept-2-en-4-one

$$$$
