
     RDKit          3D

 41 44  0  0  0  0  0  0  0  0999 V2000
   -4.2050   -3.1255   -1.0095 O   0  0  0  0  0  0  0  0  0  0  0  0
   -3.3844   -2.2602   -0.5926 C   0  0  0  0  0  0  0  0  0  0  0  0
   -3.2150   -1.8247    0.7389 O   0  0  0  0  0  0  0  0  0  0  0  0
   -2.7060   -0.4758    0.5807 C   0  0  1  0  0  0  0  0  0  0  0  0
   -1.7327   -0.5849   -0.5432 C   0  0  2  0  0  0  0  0  0  0  0  0
   -2.4423   -1.5352   -1.4151 N   0  0  0  0  0  0  0  0  0  0  0  0
   -0.4703   -1.2623   -0.1509 C   0  0  0  0  0  0  0  0  0  0  0  0
   -0.4025   -2.5716    0.2624 C   0  0  0  0  0  0  0  0  0  0  0  0
    0.7512   -3.1746    0.6155 N   0  0  0  0  0  0  0  0  0  0  0  0
    1.9176   -2.4980    0.5762 C   0  0  0  0  0  0  0  0  0  0  0  0
    1.9148   -1.1655    0.1652 C   0  0  0  0  0  0  0  0  0  0  0  0
    0.7280   -0.5595   -0.1937 C   0  0  0  0  0  0  0  0  0  0  0  0
    3.1802   -0.4584    0.1309 C   0  0  0  0  0  0  0  0  0  0  0  0
    4.2336    0.1315    0.1234 C   0  0  0  0  0  0  0  0  0  0  0  0
    5.4914    0.8260    0.1351 C   0  0  0  0  0  0  0  0  0  0  0  0
    6.2509    0.7155    1.2873 C   0  0  0  0  0  0  0  0  0  0  0  0
    7.4470    1.3208    1.4177 N   0  0  0  0  0  0  0  0  0  0  0  0
    7.9140    2.0612    0.3791 C   0  0  0  0  0  0  0  0  0  0  0  0
    7.1855    2.1966   -0.7897 C   0  0  0  0  0  0  0  0  0  0  0  0
    5.9533    1.5714   -0.9202 C   0  0  0  0  0  0  0  0  0  0  0  0
    7.6558    2.9286   -1.8059 F   0  0  0  0  0  0  0  0  0  0  0  0
   -3.8859    0.3210    0.2099 C   0  0  0  0  0  0  0  0  0  0  0  0
   -5.0557    0.0816    0.9356 C   0  0  0  0  0  0  0  0  0  0  0  0
   -6.2271    0.7636    0.6860 C   0  0  0  0  0  0  0  0  0  0  0  0
   -6.2818    1.7121   -0.2966 C   0  0  0  0  0  0  0  0  0  0  0  0
   -5.1308    1.9533   -1.0165 C   0  0  0  0  0  0  0  0  0  0  0  0
   -3.9499    1.2699   -0.7693 C   0  0  0  0  0  0  0  0  0  0  0  0
   -7.4475    2.3551   -0.5073 F   0  0  0  0  0  0  0  0  0  0  0  0
   -2.2147   -0.1236    1.5129 H   0  0  0  0  0  0  0  0  0  0  0  0
   -1.5553    0.3745   -1.0134 H   0  0  0  0  0  0  0  0  0  0  0  0
   -2.3021   -1.6710   -2.4367 H   0  0  0  0  0  0  0  0  0  0  0  0
   -1.2996   -3.1712    0.3174 H   0  0  0  0  0  0  0  0  0  0  0  0
    2.8424   -2.9932    0.8629 H   0  0  0  0  0  0  0  0  0  0  0  0
    0.7736    0.4675   -0.5035 H   0  0  0  0  0  0  0  0  0  0  0  0
    5.9024    0.1289    2.1360 H   0  0  0  0  0  0  0  0  0  0  0  0
    8.8838    2.5425    0.5054 H   0  0  0  0  0  0  0  0  0  0  0  0
    5.3398    1.6347   -1.7949 H   0  0  0  0  0  0  0  0  0  0  0  0
   -5.0646   -0.6683    1.7335 H   0  0  0  0  0  0  0  0  0  0  0  0
   -7.1184    0.5393    1.2832 H   0  0  0  0  0  0  0  0  0  0  0  0
   -5.1621    2.7095   -1.8049 H   0  0  0  0  0  0  0  0  0  0  0  0
   -3.1116    1.5183   -1.3689 H   0  0  0  0  0  0  0  0  0  0  0  0
  1  2  2  0
  2  3  1  0
  3  4  1  0
  4  5  1  0
  5  6  1  0
  5  7  1  0
  7  8  2  0
  8  9  1  0
  9 10  2  0
 10 11  1  0
 11 12  2  0
 11 13  1  0
 13 14  3  0
 14 15  1  0
 15 16  2  0
 16 17  1  0
 17 18  2  0
 18 19  1  0
 19 20  2  0
 19 21  1  0
  4 22  1  0
 22 23  2  0
 23 24  1  0
 24 25  2  0
 25 26  1  0
 26 27  2  0
 25 28  1  0
  6  2  1  0
 12  7  1  0
 20 15  1  0
 27 22  1  0
  4 29  1  1
  5 30  1  6
  6 31  1  0
  8 32  1  0
 10 33  1  0
 12 34  1  0
 16 35  1  0
 18 36  1  0
 20 37  1  0
 23 38  1  0
 24 39  1  0
 26 40  1  0
 27 41  1  0
M  END
>  <Ligand ID>  (1) 
LIG0005872

>  <Ligand>  (1) 
CHEMBL3806078

>  <SMILES>  (1) 
O=C1O[C@@H]([C@H](N1)c1cncc(c1)C#Cc1cncc(c1)F)c1ccc(cc1)F

>  <CID>  (1) 
69084420.0

>  <ChEMBL ID>  (1) 
nan

>  <InChiKey>  (1) 
OBOYWTBAOJHNNO-WOJBJXKFSA-N

>  <InChi>  (1) 
InChI=1S/C21H13F2N3O2/c22-17-5-3-15(4-6-17)20-19(26-21(27)28-20)16-7-13(9-24-11-16)1-2-14-8-18(23)12-25-10-14/h3-12,19-20H,(H,26,27)/t19-,20-/m1/s1

>  <IUPAC Name>  (1) 
(4R,5R)-5-(4-fluorophenyl)-4-[5-[2-(5-fluoropyridin-3-yl)ethynyl]pyridin-3-yl]-1,3-oxazolidin-2-one

$$$$
