
     RDKit          3D

 39 42  0  0  0  0  0  0  0  0999 V2000
   -6.7288   -0.2911    0.0094 C   0  0  0  0  0  0  0  0  0  0  0  0
   -5.8142   -0.6332   -1.1505 C   0  0  0  0  0  0  0  0  0  0  0  0
   -4.5208   -0.0058   -0.9544 N   0  0  0  0  0  0  0  0  0  0  0  0
   -4.0863    1.1794   -1.3349 N   0  0  0  0  0  0  0  0  0  0  0  0
   -2.8156    1.3615   -0.9434 N   0  0  0  0  0  0  0  0  0  0  0  0
   -2.4695    0.2332   -0.2972 C   0  0  0  0  0  0  0  0  0  0  0  0
   -3.5172   -0.6119   -0.3017 N   0  0  0  0  0  0  0  0  0  0  0  0
   -1.1581   -0.0086    0.3037 C   0  0  1  0  0  0  0  0  0  0  0  0
   -0.0754    0.3558   -0.5069 O   0  0  0  0  0  0  0  0  0  0  0  0
    0.9802   -0.0566    0.3375 C   0  0  2  0  0  0  0  0  0  0  0  0
    0.6192    0.4808    1.7162 C   0  0  1  0  0  0  0  0  0  0  0  0
   -0.8655    0.8228    1.5303 C   0  0  2  0  0  0  0  0  0  0  0  0
   -1.6264    0.4505    2.6239 O   0  0  0  0  0  0  0  0  0  0  0  0
    0.6849   -0.5774    2.6121 O   0  0  0  0  0  0  0  0  0  0  0  0
    2.2643    0.3948   -0.1179 N   0  0  0  0  0  0  0  0  0  0  0  0
    2.6674    1.6534   -0.3263 C   0  0  0  0  0  0  0  0  0  0  0  0
    3.9589    1.6526   -0.7577 N   0  0  0  0  0  0  0  0  0  0  0  0
    4.3680    0.3821   -0.8199 C   0  0  0  0  0  0  0  0  0  0  0  0
    3.3231   -0.4021   -0.4249 C   0  0  0  0  0  0  0  0  0  0  0  0
    3.4385   -1.7379   -0.3852 N   0  0  0  0  0  0  0  0  0  0  0  0
    4.6087   -2.3225   -0.7418 C   0  0  0  0  0  0  0  0  0  0  0  0
    5.6624   -1.5768   -1.1375 N   0  0  0  0  0  0  0  0  0  0  0  0
    5.5558   -0.2225   -1.1813 C   0  0  0  0  0  0  0  0  0  0  0  0
    6.6861    0.5621   -1.6048 N   0  0  0  0  0  0  0  0  0  0  0  0
   -6.7063    0.7986    0.1352 H   0  0  0  0  0  0  0  0  0  0  0  0
   -6.3271   -0.8591    0.8815 H   0  0  0  0  0  0  0  0  0  0  0  0
   -7.7375   -0.6693   -0.2571 H   0  0  0  0  0  0  0  0  0  0  0  0
   -5.7078   -1.7233   -1.1479 H   0  0  0  0  0  0  0  0  0  0  0  0
   -6.2494   -0.3214   -2.1257 H   0  0  0  0  0  0  0  0  0  0  0  0
   -0.9773   -1.0551    0.5866 H   0  0  0  0  0  0  0  0  0  0  0  0
    0.9404   -1.1704    0.3178 H   0  0  0  0  0  0  0  0  0  0  0  0
    1.2183    1.3553    1.9909 H   0  0  0  0  0  0  0  0  0  0  0  0
   -0.9133    1.9213    1.3336 H   0  0  0  0  0  0  0  0  0  0  0  0
   -1.2175    0.8777    3.4149 H   0  0  0  0  0  0  0  0  0  0  0  0
    1.5264   -1.0987    2.5292 H   0  0  0  0  0  0  0  0  0  0  0  0
    2.1052    2.5720   -0.1923 H   0  0  0  0  0  0  0  0  0  0  0  0
    4.7548   -3.3971   -0.7277 H   0  0  0  0  0  0  0  0  0  0  0  0
    6.7936    1.5084   -1.1720 H   0  0  0  0  0  0  0  0  0  0  0  0
    7.3579    0.1787   -2.3178 H   0  0  0  0  0  0  0  0  0  0  0  0
  1  2  1  0
  2  3  1  0
  3  4  1  0
  4  5  2  0
  5  6  1  0
  6  7  2  0
  6  8  1  0
  8  9  1  0
  9 10  1  0
 10 11  1  0
 11 12  1  0
 12 13  1  0
 11 14  1  0
 10 15  1  0
 15 16  1  0
 16 17  2  0
 17 18  1  0
 18 19  2  0
 19 20  1  0
 20 21  2  0
 21 22  1  0
 22 23  2  0
 23 24  1  0
  7  3  1  0
 12  8  1  0
 19 15  1  0
 23 18  1  0
  1 25  1  0
  1 26  1  0
  1 27  1  0
  2 28  1  0
  2 29  1  0
  8 30  1  1
 10 31  1  1
 11 32  1  1
 12 33  1  6
 13 34  1  0
 14 35  1  0
 16 36  1  0
 21 37  1  0
 24 38  1  0
 24 39  1  0
M  END
>  <Ligand ID>  (1) 
LIG0001925

>  <Ligand>  (1) 
CHEMBL3414936

>  <SMILES>  (1) 
CCn1nnc(n1)[C@H]1O[C@H]([C@@H]([C@@H]1O)O)n1cnc2c1ncnc2N

>  <CID>  (1) 
118732971.0

>  <ChEMBL ID>  (1) 
nan

>  <InChiKey>  (1) 
MAIBBTQWLYABNH-FLNNQWSLSA-N

>  <InChi>  (1) 
InChI=1S/C12H15N9O3/c1-2-21-18-10(17-19-21)8-6(22)7(23)12(24-8)20-4-16-5-9(13)14-3-15-11(5)20/h3-4,6-8,12,22-23H,2H2,1H3,(H2,13,14,15)/t6-,7+,8-,12+/m0/s1

>  <IUPAC Name>  (1) 
(2R,3R,4S,5R)-2-(6-aminopurin-9-yl)-5-(2-ethyltetrazol-5-yl)oxolane-3,4-diol

$$$$
