
     RDKit          3D

 80 80  0  0  0  0  0  0  0  0999 V2000
   -0.9634   -0.1171    0.0169 C   0  0  0  0  0  0  0  0  0  0  0  0
    0.4381    0.2883   -0.1117 C   0  0  0  0  0  0  0  0  0  0  0  0
    0.7144    1.5199   -0.0139 O   0  0  0  0  0  0  0  0  0  0  0  0
    1.5007   -0.5666   -0.3334 O   0  0  0  0  0  0  0  0  0  0  0  0
  -10.0680   -0.2357    0.0836 O   0  0  0  0  0  0  0  0  0  0  0  0
   -9.4759   -0.7699    1.2279 C   0  0  0  0  0  0  0  0  0  0  0  0
   -8.1034   -0.1901    1.3972 C   0  0  0  0  0  0  0  0  0  0  0  0
   -6.9600   -0.8917    1.0985 C   0  0  0  0  0  0  0  0  0  0  0  0
   -5.6918   -0.3696    1.2493 C   0  0  0  0  0  0  0  0  0  0  0  0
   -5.6173    0.9401    1.7327 C   0  0  0  0  0  0  0  0  0  0  0  0
   -6.7527    1.6341    2.0284 C   0  0  0  0  0  0  0  0  0  0  0  0
   -8.0287    1.1093    1.8767 C   0  0  0  0  0  0  0  0  0  0  0  0
   -9.1479    1.8529    2.1901 O   0  0  0  0  0  0  0  0  0  0  0  0
   -4.4633   -1.1398    0.9155 C   0  0  2  0  0  0  0  0  0  0  0  0
   -4.1469   -1.0927   -0.5487 C   0  0  0  0  0  0  0  0  0  0  0  0
   -2.8986   -1.7526   -0.8405 N   0  0  0  0  0  0  0  0  0  0  0  0
   -1.7633   -1.0390   -0.3010 C   0  0  0  0  0  0  0  0  0  0  0  0
   -0.4879   -1.7590   -0.6944 C   0  0  0  0  0  0  0  0  0  0  0  0
   -0.2882   -1.8614   -2.1474 C   0  0  0  0  0  0  0  0  0  0  0  0
   -0.2204   -0.6762   -3.0070 C   0  0  0  0  0  0  0  0  0  0  0  0
    0.8403    0.3391   -2.8889 C   0  0  0  0  0  0  0  0  0  0  0  0
    0.9190    1.0593   -1.5966 C   0  0  0  0  0  0  0  0  0  0  0  0
    1.9264    2.0456   -1.6054 O   0  0  0  0  0  0  0  0  0  0  0  0
    1.9418    2.7231   -0.4045 C   0  0  0  0  0  0  0  0  0  0  0  0
    2.2097    1.8843    0.7927 C   0  0  0  0  0  0  0  0  0  0  0  0
    3.5270    1.1624    0.7474 C   0  0  0  0  0  0  0  0  0  0  0  0
    4.7042    2.0776    0.6566 C   0  0  0  0  0  0  0  0  0  0  0  0
    5.9230    1.2203    0.6164 C   0  0  0  0  0  0  0  0  0  0  0  0
    6.5858    0.8055    1.7543 C   0  0  0  0  0  0  0  0  0  0  0  0
    7.7238    0.0048    1.6018 C   0  0  0  0  0  0  0  0  0  0  0  0
    8.1800   -0.3656    0.3642 C   0  0  0  0  0  0  0  0  0  0  0  0
    7.5022    0.0599   -0.7643 C   0  0  0  0  0  0  0  0  0  0  0  0
    6.3968    0.8375   -0.6225 C   0  0  0  0  0  0  0  0  0  0  0  0
    9.6007   -1.3717    0.1256 S   0  0  0  0  0  0  0  0  0  0  0  0
   10.2127   -1.0013   -1.1943 O   0  0  0  0  0  0  0  0  0  0  0  0
   10.5614   -1.1418    1.2596 O   0  0  0  0  0  0  0  0  0  0  0  0
    9.1100   -3.0221    0.0411 N   0  0  0  0  0  0  0  0  0  0  0  0
   -4.5770   -2.4114    1.4147 O   0  0  0  0  0  0  0  0  0  0  0  0
   -1.6434    0.6705   -0.3469 H   0  0  0  0  0  0  0  0  0  0  0  0
   -1.2062   -0.2781    1.0963 H   0  0  0  0  0  0  0  0  0  0  0  0
   -1.2157   -1.0591   -0.5111 H   0  0  0  0  0  0  0  0  0  0  0  0
    2.3755   -0.4579    0.2038 H   0  0  0  0  0  0  0  0  0  0  0  0
   -9.3789    0.0068   -0.6008 H   0  0  0  0  0  0  0  0  0  0  0  0
   -9.3234   -1.8568    1.0313 H   0  0  0  0  0  0  0  0  0  0  0  0
  -10.0784   -0.5726    2.1206 H   0  0  0  0  0  0  0  0  0  0  0  0
   -7.0905   -1.8993    0.7292 H   0  0  0  0  0  0  0  0  0  0  0  0
   -4.6051    1.3349    1.8455 H   0  0  0  0  0  0  0  0  0  0  0  0
   -6.6446    2.6545    2.4030 H   0  0  0  0  0  0  0  0  0  0  0  0
   -9.7160    2.1652    1.4014 H   0  0  0  0  0  0  0  0  0  0  0  0
   -3.6403   -0.6394    1.4645 H   0  0  0  0  0  0  0  0  0  0  0  0
   -4.0689   -0.0584   -0.9380 H   0  0  0  0  0  0  0  0  0  0  0  0
   -4.9177   -1.5867   -1.1745 H   0  0  0  0  0  0  0  0  0  0  0  0
   -2.8784   -2.7450   -0.5169 H   0  0  0  0  0  0  0  0  0  0  0  0
   -1.7629   -1.0416    0.8131 H   0  0  0  0  0  0  0  0  0  0  0  0
   -1.7965    0.0070   -0.6147 H   0  0  0  0  0  0  0  0  0  0  0  0
    0.3607   -1.4692   -0.0796 H   0  0  0  0  0  0  0  0  0  0  0  0
   -0.6959   -2.8421   -0.3434 H   0  0  0  0  0  0  0  0  0  0  0  0
   -1.0542   -2.6134   -2.5602 H   0  0  0  0  0  0  0  0  0  0  0  0
    0.6755   -2.4693   -2.2908 H   0  0  0  0  0  0  0  0  0  0  0  0
   -1.2310   -0.1306   -3.0148 H   0  0  0  0  0  0  0  0  0  0  0  0
   -0.2080   -1.0467   -4.1035 H   0  0  0  0  0  0  0  0  0  0  0  0
    1.8289   -0.1541   -3.1095 H   0  0  0  0  0  0  0  0  0  0  0  0
    0.6412    1.0980   -3.7188 H   0  0  0  0  0  0  0  0  0  0  0  0
    1.3231    0.3302   -0.8317 H   0  0  0  0  0  0  0  0  0  0  0  0
   -0.0217    1.4520   -1.2029 H   0  0  0  0  0  0  0  0  0  0  0  0
    0.8973    3.1419   -0.2543 H   0  0  0  0  0  0  0  0  0  0  0  0
    2.5670    3.6456   -0.4480 H   0  0  0  0  0  0  0  0  0  0  0  0
    2.1624    2.5135    1.7365 H   0  0  0  0  0  0  0  0  0  0  0  0
    1.4037    1.1499    0.9328 H   0  0  0  0  0  0  0  0  0  0  0  0
    3.6230    0.6390    1.7435 H   0  0  0  0  0  0  0  0  0  0  0  0
    3.5757    0.3836   -0.0107 H   0  0  0  0  0  0  0  0  0  0  0  0
    4.7260    2.7210   -0.2341 H   0  0  0  0  0  0  0  0  0  0  0  0
    4.8147    2.7045    1.5828 H   0  0  0  0  0  0  0  0  0  0  0  0
    6.2192    1.1024    2.7279 H   0  0  0  0  0  0  0  0  0  0  0  0
    8.2670   -0.3374    2.4813 H   0  0  0  0  0  0  0  0  0  0  0  0
    7.8361   -0.2145   -1.7529 H   0  0  0  0  0  0  0  0  0  0  0  0
    5.8634    1.1725   -1.5194 H   0  0  0  0  0  0  0  0  0  0  0  0
    9.6026   -3.4899   -0.7662 H   0  0  0  0  0  0  0  0  0  0  0  0
    8.0894   -3.0386   -0.2118 H   0  0  0  0  0  0  0  0  0  0  0  0
   -4.5381   -3.1153    0.7252 H   0  0  0  0  0  0  0  0  0  0  0  0
  1  2  1  0
  2  3  2  0
  2  4  1  0
  5  6  1  0
  6  7  1  0
  7  8  2  0
  8  9  1  0
  9 10  2  0
 10 11  1  0
 11 12  2  0
 12 13  1  0
  9 14  1  0
 14 15  1  0
 15 16  1  0
 16 17  1  0
 17 18  1  0
 18 19  1  0
 19 20  1  0
 20 21  1  0
 21 22  1  0
 22 23  1  0
 23 24  1  0
 24 25  1  0
 25 26  1  0
 26 27  1  0
 27 28  1  0
 28 29  2  0
 29 30  1  0
 30 31  2  0
 31 32  1  0
 32 33  2  0
 31 34  1  0
 34 35  2  0
 34 36  2  0
 34 37  1  0
 14 38  1  0
 12  7  1  0
 33 28  1  0
  1 39  1  0
  1 40  1  0
  1 41  1  0
  4 42  1  0
  5 43  1  0
  6 44  1  0
  6 45  1  0
  8 46  1  0
 10 47  1  0
 11 48  1  0
 13 49  1  0
 14 50  1  1
 15 51  1  0
 15 52  1  0
 16 53  1  0
 17 54  1  0
 17 55  1  0
 18 56  1  0
 18 57  1  0
 19 58  1  0
 19 59  1  0
 20 60  1  0
 20 61  1  0
 21 62  1  0
 21 63  1  0
 22 64  1  0
 22 65  1  0
 24 66  1  0
 24 67  1  0
 25 68  1  0
 25 69  1  0
 26 70  1  0
 26 71  1  0
 27 72  1  0
 27 73  1  0
 29 74  1  0
 30 75  1  0
 32 76  1  0
 33 77  1  0
 37 78  1  0
 37 79  1  0
 38 80  1  0
M  END
>  <Ligand ID>  (1) 
LIG0003345

>  <Ligand>  (1) 
CHEMBL475389

>  <SMILES>  (1) 
CC(=O)O.OCc1cc(ccc1O)[C@H](CNCCCCCCOCCCCc1ccc(cc1)S(=O)(=O)N)O

>  <CID>  (1) 
42625512.0

>  <ChEMBL ID>  (1) 
nan

>  <InChiKey>  (1) 
GHXINAYGWMDMBQ-UQIIZPHYSA-N

>  <InChi>  (1) 
InChI=1S/C25H38N2O6S.C2H4O2/c26-34(31,32)23-11-8-20(9-12-23)7-3-6-16-33-15-5-2-1-4-14-27-18-25(30)21-10-13-24(29)22(17-21)19-28;1-2(3)4/h8-13,17,25,27-30H,1-7,14-16,18-19H2,(H2,26,31,32);1H3,(H,3,4)/t25-;/m0./s1

>  <IUPAC Name>  (1) 
acetic acid;4-[4-[6-[[(2R)-2-hydroxy-2-[4-hydroxy-3-(hydroxymethyl)phenyl]ethyl]amino]hexoxy]butyl]benzenesulfonamide

$$$$
