
     RDKit          3D

 37 38  0  0  0  0  0  0  0  0999 V2000
   -2.0256    3.3431   -0.1942 C   0  0  0  0  0  0  0  0  0  0  0  0
   -1.6575    1.9972    0.1233 O   0  0  0  0  0  0  0  0  0  0  0  0
   -2.5224    0.9928   -0.3445 C   0  0  0  0  0  0  0  0  0  0  0  0
   -3.6291    1.3337   -1.0519 N   0  0  0  0  0  0  0  0  0  0  0  0
   -4.4902    0.3985   -1.5221 C   0  0  0  0  0  0  0  0  0  0  0  0
   -5.5187    0.7277   -2.1802 O   0  0  0  0  0  0  0  0  0  0  0  0
   -4.1823   -0.9171   -1.2437 C   0  0  0  0  0  0  0  0  0  0  0  0
   -3.0380   -1.2502   -0.5137 C   0  0  0  0  0  0  0  0  0  0  0  0
   -2.2118   -0.2867   -0.0669 N   0  0  0  0  0  0  0  0  0  0  0  0
   -1.0522   -0.6958    0.6776 C   0  0  2  0  0  0  0  0  0  0  0  0
   -0.1855    0.3791    0.9224 O   0  0  0  0  0  0  0  0  0  0  0  0
    1.0356   -0.1462    1.2519 C   0  0  1  0  0  0  0  0  0  0  0  0
    1.0218   -1.6260    0.9328 C   0  0  2  0  0  0  0  0  0  0  0  0
   -0.1187   -1.6057   -0.0970 C   0  0  1  0  0  0  0  0  0  0  0  0
   -0.6071   -2.8547   -0.3444 O   0  0  0  0  0  0  0  0  0  0  0  0
    0.5778   -2.2954    2.0549 O   0  0  0  0  0  0  0  0  0  0  0  0
    2.1967    0.4338    0.4787 C   0  0  0  0  0  0  0  0  0  0  0  0
    3.4265   -0.1446    0.8601 O   0  0  0  0  0  0  0  0  0  0  0  0
    4.7066    0.5049   -0.0040 P   0  0  0  0  0  0  0  0  0  0  0  0
    5.7834    1.0981    0.8923 O   0  0  0  0  0  0  0  0  0  0  0  0
    5.4306   -0.7096   -0.9483 O   0  0  0  0  0  0  0  0  0  0  0  0
    4.0876    1.6804   -1.0733 O   0  0  0  0  0  0  0  0  0  0  0  0
   -1.3568    4.0512    0.3246 H   0  0  0  0  0  0  0  0  0  0  0  0
   -2.0033    3.5404   -1.2758 H   0  0  0  0  0  0  0  0  0  0  0  0
   -3.0522    3.5544    0.2254 H   0  0  0  0  0  0  0  0  0  0  0  0
   -4.8643   -1.6747   -1.6149 H   0  0  0  0  0  0  0  0  0  0  0  0
   -2.8793   -2.3068   -0.3449 H   0  0  0  0  0  0  0  0  0  0  0  0
   -1.2910   -1.2122    1.6290 H   0  0  0  0  0  0  0  0  0  0  0  0
    1.1846    0.0395    2.3406 H   0  0  0  0  0  0  0  0  0  0  0  0
    1.9591   -2.0040    0.4976 H   0  0  0  0  0  0  0  0  0  0  0  0
    0.2697   -1.0809   -0.9911 H   0  0  0  0  0  0  0  0  0  0  0  0
   -0.2133   -3.1861   -1.1909 H   0  0  0  0  0  0  0  0  0  0  0  0
   -0.1692   -2.9170    1.7902 H   0  0  0  0  0  0  0  0  0  0  0  0
    2.0932    0.1945   -0.5925 H   0  0  0  0  0  0  0  0  0  0  0  0
    2.3051    1.5171    0.6863 H   0  0  0  0  0  0  0  0  0  0  0  0
    6.1546   -1.1269   -0.3855 H   0  0  0  0  0  0  0  0  0  0  0  0
    4.8357    2.2541   -1.3671 H   0  0  0  0  0  0  0  0  0  0  0  0
  1  2  1  0
  2  3  1  0
  3  4  2  0
  4  5  1  0
  5  6  2  0
  5  7  1  0
  7  8  2  0
  8  9  1  0
  9 10  1  0
 10 11  1  0
 11 12  1  0
 12 13  1  0
 13 14  1  0
 14 15  1  0
 13 16  1  0
 12 17  1  0
 17 18  1  0
 18 19  1  0
 19 20  2  0
 19 21  1  0
 19 22  1  0
  9  3  1  0
 14 10  1  0
  1 23  1  0
  1 24  1  0
  1 25  1  0
  7 26  1  0
  8 27  1  0
 10 28  1  1
 12 29  1  1
 13 30  1  6
 14 31  1  6
 15 32  1  0
 16 33  1  0
 17 34  1  0
 17 35  1  0
 21 36  1  0
 22 37  1  0
M  END
>  <Ligand ID>  (1) 
LIG0004892

>  <Ligand>  (1) 
CHEMBL1767422

>  <SMILES>  (1) 
COc1nc(=O)ccn1[C@@H]1O[C@@H]([C@H]([C@H]1O)O)COP(=O)(O)O

>  <CID>  (1) 
52952495.0

>  <ChEMBL ID>  (1) 
nan

>  <InChiKey>  (1) 
YZHHOKQNKLNAMB-ZOQUXTDFSA-N

>  <InChi>  (1) 
InChI=1S/C10H15N2O9P/c1-19-10-11-6(13)2-3-12(10)9-8(15)7(14)5(21-9)4-20-22(16,17)18/h2-3,5,7-9,14-15H,4H2,1H3,(H2,16,17,18)/t5-,7-,8-,9-/m1/s1

>  <IUPAC Name>  (1) 
[(2R,3S,4R,5R)-3,4-dihydroxy-5-(2-methoxy-4-oxopyrimidin-1-yl)oxolan-2-yl]methyl dihydrogen phosphate

$$$$
