
     RDKit          3D

 64 66  0  0  0  0  0  0  0  0999 V2000
   -7.9473    1.4088    1.3698 C   0  0  0  0  0  0  0  0  0  0  0  0
   -7.1549    0.1204    1.1225 C   0  0  0  0  0  0  0  0  0  0  0  0
   -6.9346    0.0287   -0.2487 O   0  0  0  0  0  0  0  0  0  0  0  0
   -5.7032    0.0208   -0.8724 C   0  0  0  0  0  0  0  0  0  0  0  0
   -4.4982    0.1016   -0.2406 C   0  0  0  0  0  0  0  0  0  0  0  0
   -3.2921    0.0885   -0.9363 C   0  0  0  0  0  0  0  0  0  0  0  0
   -3.2804   -0.0095   -2.3249 C   0  0  0  0  0  0  0  0  0  0  0  0
   -4.4970   -0.0907   -2.9552 C   0  0  0  0  0  0  0  0  0  0  0  0
   -5.6957   -0.0772   -2.2573 C   0  0  0  0  0  0  0  0  0  0  0  0
   -6.9534   -0.1664   -2.9773 C   0  0  0  0  0  0  0  0  0  0  0  0
   -8.0409   -0.1557   -2.3466 O   0  0  0  0  0  0  0  0  0  0  0  0
   -6.9544   -0.2638   -4.3670 O   0  0  0  0  0  0  0  0  0  0  0  0
   -2.0381    0.1754   -0.1983 C   0  0  0  0  0  0  0  0  0  0  0  0
   -1.9125   -0.3640    1.0645 C   0  0  0  0  0  0  0  0  0  0  0  0
   -0.7378   -0.2692    1.7389 C   0  0  0  0  0  0  0  0  0  0  0  0
    0.4022    0.3687    1.2105 C   0  0  0  0  0  0  0  0  0  0  0  0
    0.2585    0.8933   -0.0325 C   0  0  0  0  0  0  0  0  0  0  0  0
   -0.9401    0.7996   -0.7279 C   0  0  0  0  0  0  0  0  0  0  0  0
    1.6221    0.4144    2.0475 C   0  0  0  0  0  0  0  0  0  0  0  0
    2.4144   -0.8247    1.8447 C   0  0  0  0  0  0  0  0  0  0  0  0
    2.9672   -1.1870    0.6396 N   0  0  0  0  0  0  0  0  0  0  0  0
    4.0711   -0.6203    0.0164 C   0  0  2  0  0  0  0  0  0  0  0  0
    5.3413   -0.6396    0.8401 C   0  0  1  0  0  0  0  0  0  0  0  0
    6.5454   -0.2109    0.1579 C   0  0  0  0  0  0  0  0  0  0  0  0
    6.7477   -0.1748   -1.2024 C   0  0  0  0  0  0  0  0  0  0  0  0
    7.9320    0.2621   -1.7812 C   0  0  0  0  0  0  0  0  0  0  0  0
    8.9680    0.6839   -0.9658 C   0  0  0  0  0  0  0  0  0  0  0  0
    8.8008    0.6608    0.4024 C   0  0  0  0  0  0  0  0  0  0  0  0
    7.6170    0.2238    0.9534 C   0  0  0  0  0  0  0  0  0  0  0  0
   10.1350    1.1129   -1.5825 O   0  0  0  0  0  0  0  0  0  0  0  0
    5.1111    0.1082    1.9639 O   0  0  0  0  0  0  0  0  0  0  0  0
    3.8004    0.7133   -0.5897 C   0  0  0  0  0  0  0  0  0  0  0  0
   -7.9820   -1.0366    1.6565 C   0  0  0  0  0  0  0  0  0  0  0  0
   -7.6385    1.9099    2.2932 H   0  0  0  0  0  0  0  0  0  0  0  0
   -7.8078    2.0972    0.5135 H   0  0  0  0  0  0  0  0  0  0  0  0
   -9.0227    1.1383    1.3573 H   0  0  0  0  0  0  0  0  0  0  0  0
   -6.2523    0.1683    1.7548 H   0  0  0  0  0  0  0  0  0  0  0  0
   -4.4522    0.1788    0.8329 H   0  0  0  0  0  0  0  0  0  0  0  0
   -2.3302   -0.0171   -2.8340 H   0  0  0  0  0  0  0  0  0  0  0  0
   -4.4904   -0.1670   -4.0374 H   0  0  0  0  0  0  0  0  0  0  0  0
   -7.8167   -0.3748   -4.8851 H   0  0  0  0  0  0  0  0  0  0  0  0
   -2.7657   -0.8605    1.5015 H   0  0  0  0  0  0  0  0  0  0  0  0
   -0.6828   -0.7135    2.7436 H   0  0  0  0  0  0  0  0  0  0  0  0
    1.0526    1.4023   -0.5148 H   0  0  0  0  0  0  0  0  0  0  0  0
   -1.0373    1.2214   -1.7152 H   0  0  0  0  0  0  0  0  0  0  0  0
    2.1586    1.3653    2.0434 H   0  0  0  0  0  0  0  0  0  0  0  0
    1.2378    0.3520    3.1284 H   0  0  0  0  0  0  0  0  0  0  0  0
    3.1153   -0.8659    2.7321 H   0  0  0  0  0  0  0  0  0  0  0  0
    1.6833   -1.6667    2.1302 H   0  0  0  0  0  0  0  0  0  0  0  0
    2.6229   -2.0949    0.2148 H   0  0  0  0  0  0  0  0  0  0  0  0
    4.3321   -1.2986   -0.8655 H   0  0  0  0  0  0  0  0  0  0  0  0
    5.5076   -1.7335    1.0791 H   0  0  0  0  0  0  0  0  0  0  0  0
    5.9757   -0.5044   -1.8643 H   0  0  0  0  0  0  0  0  0  0  0  0
    8.0654    0.2807   -2.8666 H   0  0  0  0  0  0  0  0  0  0  0  0
    9.6299    0.9967    1.0173 H   0  0  0  0  0  0  0  0  0  0  0  0
    7.5508    0.2307    2.0369 H   0  0  0  0  0  0  0  0  0  0  0  0
   11.0542    0.9902   -1.2251 H   0  0  0  0  0  0  0  0  0  0  0  0
    5.5908    0.9504    2.0105 H   0  0  0  0  0  0  0  0  0  0  0  0
    3.3323    1.4554    0.0844 H   0  0  0  0  0  0  0  0  0  0  0  0
    4.7504    1.2404   -0.9198 H   0  0  0  0  0  0  0  0  0  0  0  0
    3.1022    0.6440   -1.4775 H   0  0  0  0  0  0  0  0  0  0  0  0
   -7.8965   -1.8904    0.9353 H   0  0  0  0  0  0  0  0  0  0  0  0
   -7.6903   -1.3369    2.6728 H   0  0  0  0  0  0  0  0  0  0  0  0
   -9.0499   -0.7191    1.7019 H   0  0  0  0  0  0  0  0  0  0  0  0
  1  2  1  0
  2  3  1  0
  3  4  1  0
  4  5  2  0
  5  6  1  0
  6  7  2  0
  7  8  1  0
  8  9  2  0
  9 10  1  0
 10 11  2  0
 10 12  1  0
  6 13  1  0
 13 14  2  0
 14 15  1  0
 15 16  2  0
 16 17  1  0
 17 18  2  0
 16 19  1  0
 19 20  1  0
 20 21  1  0
 21 22  1  0
 22 23  1  0
 23 24  1  0
 24 25  2  0
 25 26  1  0
 26 27  2  0
 27 28  1  0
 28 29  2  0
 27 30  1  0
 23 31  1  0
 22 32  1  0
  2 33  1  0
  9  4  1  0
 18 13  1  0
 29 24  1  0
  1 34  1  0
  1 35  1  0
  1 36  1  0
  2 37  1  0
  5 38  1  0
  7 39  1  0
  8 40  1  0
 12 41  1  0
 14 42  1  0
 15 43  1  0
 17 44  1  0
 18 45  1  0
 19 46  1  0
 19 47  1  0
 20 48  1  0
 20 49  1  0
 21 50  1  0
 22 51  1  6
 23 52  1  1
 25 53  1  0
 26 54  1  0
 28 55  1  0
 29 56  1  0
 30 57  1  0
 31 58  1  0
 32 59  1  0
 32 60  1  0
 32 61  1  0
 33 62  1  0
 33 63  1  0
 33 64  1  0
M  END
>  <Ligand ID>  (1) 
LIG0005156

>  <Ligand>  (1) 
CHEMBL510100

>  <SMILES>  (1) 
CC(Oc1cc(ccc1C(=O)O)c1ccc(cc1)CCN[C@H]([C@@H](c1ccc(cc1)O)O)C)C

>  <CID>  (1) 
10003858.0

>  <ChEMBL ID>  (1) 
nan

>  <InChiKey>  (1) 
DEYPUPDCHHTJFV-QYBDOPJKSA-N

>  <InChi>  (1) 
InChI=1S/C27H31NO5/c1-17(2)33-25-16-22(10-13-24(25)27(31)32)20-6-4-19(5-7-20)14-15-28-18(3)26(30)21-8-11-23(29)12-9-21/h4-13,16-18,26,28-30H,14-15H2,1-3H3,(H,31,32)/t18-,26-/m0/s1

>  <IUPAC Name>  (1) 
4-[4-[2-[[(1R,2S)-1-hydroxy-1-(4-hydroxyphenyl)propan-2-yl]amino]ethyl]phenyl]-2-propan-2-yloxybenzoic acid

$$$$
