
     RDKit          3D

 72 79  0  0  0  0  0  0  0  0999 V2000
    2.9523   -2.7939    0.9201 C   0  0  0  0  0  0  0  0  0  0  0  0
    2.7032   -1.5336    0.4672 O   0  0  0  0  0  0  0  0  0  0  0  0
    1.3802   -1.1934    0.2668 C   0  0  2  0  0  0  0  0  0  0  0  0
    0.7761   -2.1222   -0.7536 C   0  0  0  0  0  0  0  0  0  0  0  0
   -0.5939   -1.6758   -1.2257 C   0  0  0  0  0  0  0  0  0  0  0  0
   -0.9678   -0.4377   -0.4397 C   0  0  2  0  0  0  0  0  0  0  0  0
    0.0528    0.5761   -0.8879 C   0  0  0  0  0  0  0  0  0  0  0  0
    1.4130    0.1982   -0.3554 C   0  0  2  0  0  0  0  0  0  0  0  0
    2.4781    0.1731   -1.4577 C   0  0  0  0  0  0  0  0  0  0  0  0
    2.6224    1.3783   -2.0845 O   0  0  0  0  0  0  0  0  0  0  0  0
    3.0619    2.4335   -1.3315 C   0  0  0  0  0  0  0  0  0  0  0  0
    4.4170    2.2837   -0.7575 C   0  0  0  0  0  0  0  0  0  0  0  0
    5.5010    2.6965   -1.5132 C   0  0  0  0  0  0  0  0  0  0  0  0
    6.8052    2.6048   -1.0680 C   0  0  0  0  0  0  0  0  0  0  0  0
    7.0593    2.0790    0.1882 C   0  0  0  0  0  0  0  0  0  0  0  0
    5.9976    1.6567    0.9703 C   0  0  0  0  0  0  0  0  0  0  0  0
    4.6919    1.7668    0.4832 C   0  0  0  0  0  0  0  0  0  0  0  0
   -0.8421   -0.7628    1.0244 C   0  0  2  0  0  0  0  0  0  0  0  0
    0.5701   -1.0806    1.5004 C   0  0  1  0  0  0  0  0  0  0  0  0
    0.3483   -2.2625    2.2546 O   0  0  0  0  0  0  0  0  0  0  0  0
   -0.8394   -2.8851    1.8992 C   0  0  0  0  0  0  0  0  0  0  0  0
   -1.5481   -2.0427    1.1347 C   0  0  0  0  0  0  0  0  0  0  0  0
   -2.7502   -2.1911    0.5405 C   0  0  0  0  0  0  0  0  0  0  0  0
   -3.3344   -1.1737   -0.3485 C   0  0  0  0  0  0  0  0  0  0  0  0
   -2.4030   -0.0451   -0.6079 C   0  0  1  0  0  0  0  0  0  0  0  0
   -2.7487    1.1732    0.0498 N   0  0  0  0  0  0  0  0  0  0  0  0
   -2.0275    1.4529    1.2593 C   0  0  0  0  0  0  0  0  0  0  0  0
   -1.4565    0.2397    1.9432 C   0  0  0  0  0  0  0  0  0  0  0  0
   -4.1419    1.4325    0.2365 C   0  0  0  0  0  0  0  0  0  0  0  0
   -4.9146    1.6694   -1.0418 C   0  0  0  0  0  0  0  0  0  0  0  0
   -4.5824    2.7800   -1.9673 C   0  0  0  0  0  0  0  0  0  0  0  0
   -5.7965    2.9459   -1.1310 C   0  0  0  0  0  0  0  0  0  0  0  0
   -3.3586   -3.4453    0.7760 C   0  0  0  0  0  0  0  0  0  0  0  0
   -2.6955   -4.3938    1.5686 C   0  0  0  0  0  0  0  0  0  0  0  0
   -1.4394   -4.1323    2.1356 C   0  0  0  0  0  0  0  0  0  0  0  0
   -0.7894   -5.0286    2.8966 F   0  0  0  0  0  0  0  0  0  0  0  0
    2.6030   -3.6261    0.2690 H   0  0  0  0  0  0  0  0  0  0  0  0
    2.6604   -2.9963    1.9628 H   0  0  0  0  0  0  0  0  0  0  0  0
    4.0783   -2.9093    0.9062 H   0  0  0  0  0  0  0  0  0  0  0  0
    0.7052   -3.1249   -0.2357 H   0  0  0  0  0  0  0  0  0  0  0  0
    1.4711   -2.3182   -1.5952 H   0  0  0  0  0  0  0  0  0  0  0  0
   -1.2362   -2.5368   -1.1389 H   0  0  0  0  0  0  0  0  0  0  0  0
   -0.4186   -1.3945   -2.3128 H   0  0  0  0  0  0  0  0  0  0  0  0
   -0.2168    1.6185   -0.7595 H   0  0  0  0  0  0  0  0  0  0  0  0
    0.1520    0.4617   -2.0125 H   0  0  0  0  0  0  0  0  0  0  0  0
    1.7755    0.9323    0.3961 H   0  0  0  0  0  0  0  0  0  0  0  0
    3.4089   -0.2080   -0.9963 H   0  0  0  0  0  0  0  0  0  0  0  0
    2.2150   -0.5651   -2.2586 H   0  0  0  0  0  0  0  0  0  0  0  0
    3.0531    3.3277   -2.0226 H   0  0  0  0  0  0  0  0  0  0  0  0
    2.3361    2.7275   -0.5268 H   0  0  0  0  0  0  0  0  0  0  0  0
    5.3632    3.1144   -2.5025 H   0  0  0  0  0  0  0  0  0  0  0  0
    7.6515    2.9392   -1.6829 H   0  0  0  0  0  0  0  0  0  0  0  0
    8.0987    2.0089    0.5371 H   0  0  0  0  0  0  0  0  0  0  0  0
    6.1771    1.2411    1.9595 H   0  0  0  0  0  0  0  0  0  0  0  0
    3.9224    1.4216    1.1485 H   0  0  0  0  0  0  0  0  0  0  0  0
    0.9397   -0.2354    2.0878 H   0  0  0  0  0  0  0  0  0  0  0  0
   -4.3520   -0.8621   -0.0294 H   0  0  0  0  0  0  0  0  0  0  0  0
   -3.5783   -1.6552   -1.3669 H   0  0  0  0  0  0  0  0  0  0  0  0
   -2.4948    0.2072   -1.7218 H   0  0  0  0  0  0  0  0  0  0  0  0
   -2.7923    1.8369    2.0070 H   0  0  0  0  0  0  0  0  0  0  0  0
   -1.3302    2.3150    1.2009 H   0  0  0  0  0  0  0  0  0  0  0  0
   -0.7024    0.6509    2.6817 H   0  0  0  0  0  0  0  0  0  0  0  0
   -2.1926   -0.2730    2.5996 H   0  0  0  0  0  0  0  0  0  0  0  0
   -4.6943    0.8183    0.9328 H   0  0  0  0  0  0  0  0  0  0  0  0
   -4.1633    2.4560    0.7510 H   0  0  0  0  0  0  0  0  0  0  0  0
   -5.4373    0.7852   -1.4869 H   0  0  0  0  0  0  0  0  0  0  0  0
   -3.7565    3.4701   -1.7706 H   0  0  0  0  0  0  0  0  0  0  0  0
   -4.8139    2.6150   -3.0523 H   0  0  0  0  0  0  0  0  0  0  0  0
   -6.8176    2.8529   -1.4982 H   0  0  0  0  0  0  0  0  0  0  0  0
   -5.7276    3.5817   -0.2074 H   0  0  0  0  0  0  0  0  0  0  0  0
   -4.3228   -3.6491    0.3405 H   0  0  0  0  0  0  0  0  0  0  0  0
   -3.1643   -5.3683    1.7559 H   0  0  0  0  0  0  0  0  0  0  0  0
  1  2  1  0
  3  2  1  1
  3  4  1  0
  4  5  1  0
  6  5  1  6
  6  7  1  0
  7  8  1  0
  8  9  1  0
  9 10  1  0
 10 11  1  0
 11 12  1  0
 12 13  2  0
 13 14  1  0
 14 15  2  0
 15 16  1  0
 16 17  2  0
  6 18  1  0
 18 19  1  0
 19 20  1  0
 20 21  1  0
 21 22  2  0
 22 23  1  0
 23 24  1  0
 24 25  1  0
 25 26  1  0
 26 27  1  0
 27 28  1  0
 26 29  1  0
 29 30  1  0
 30 31  1  0
 31 32  1  0
 23 33  2  0
 33 34  1  0
 34 35  2  0
 35 36  1  0
  8  3  1  0
 17 12  1  0
 18 28  1  1
 32 30  1  0
 19  3  1  0
 35 21  1  0
 25  6  1  0
 22 18  1  0
  1 37  1  0
  1 38  1  0
  1 39  1  0
  4 40  1  0
  4 41  1  0
  5 42  1  0
  5 43  1  0
  7 44  1  0
  7 45  1  0
  8 46  1  1
  9 47  1  0
  9 48  1  0
 11 49  1  0
 11 50  1  0
 13 51  1  0
 14 52  1  0
 15 53  1  0
 16 54  1  0
 17 55  1  0
 19 56  1  1
 24 57  1  0
 24 58  1  0
 25 59  1  6
 27 60  1  0
 27 61  1  0
 28 62  1  0
 28 63  1  0
 29 64  1  0
 29 65  1  0
 30 66  1  0
 31 67  1  0
 31 68  1  0
 32 69  1  0
 32 70  1  0
 33 71  1  0
 34 72  1  0
M  END
>  <Ligand ID>  (1) 
LIG0004694

>  <Ligand>  (1) 
SCHEMBL15485958

>  <SMILES>  (1) 
CO[C@]12CC[C@]3(C[C@@H]1COCc1ccccc1)[C@@]14[C@H]2Oc2c4c(C[C@H]3N(CC1)CC1CC1)ccc2F

>  <CID>  (1) 
86711652.0

>  <ChEMBL ID>  (1) 
nan

>  <InChiKey>  (1) 
WMVWSQOJKZZWCI-VTPACTEHSA-N

>  <InChi>  (1) 
InChI=1S/C31H36FNO3/c1-34-31-12-11-29(16-23(31)19-35-18-21-5-3-2-4-6-21)25-15-22-9-10-24(32)27-26(22)30(29,28(31)36-27)13-14-33(25)17-20-7-8-20/h2-6,9-10,20,23,25,28H,7-8,11-19H2,1H3/t23-,25-,28-,29-,30+,31-/m1/s1

>  <IUPAC Name>  (1) 
(1S,2S,6R,14R,15R,16R)-5-(cyclopropylmethyl)-11-fluoro-15-methoxy-16-(phenylmethoxymethyl)-13-oxa-5-azahexacyclo[13.2.2.12,8.01,6.02,14.012,20]icosa-8(20),9,11-triene

$$$$
