
     RDKit          3D

 25 24  0  0  0  0  0  0  0  0999 V2000
   -5.0619   -0.3284   -0.3931 O   0  0  0  0  0  0  0  0  0  0  0  0
   -3.9156    0.1107    0.2539 C   0  0  0  0  0  0  0  0  0  0  0  0
   -3.9240    0.8415    1.2732 O   0  0  0  0  0  0  0  0  0  0  0  0
   -2.6142   -0.3141   -0.2996 C   0  0  0  0  0  0  0  0  0  0  0  0
   -1.4578    0.2398    0.5081 C   0  0  0  0  0  0  0  0  0  0  0  0
   -0.2059   -0.2576   -0.1483 C   0  0  0  0  0  0  0  0  0  0  0  0
    1.0577    0.2125    0.5456 C   0  0  0  0  0  0  0  0  0  0  0  0
    2.1935   -0.3943   -0.2670 C   0  0  0  0  0  0  0  0  0  0  0  0
    3.5276   -0.0527    0.2498 C   0  0  0  0  0  0  0  0  0  0  0  0
    3.8993   -0.3087    1.4309 O   0  0  0  0  0  0  0  0  0  0  0  0
    4.4736    0.5868   -0.5567 O   0  0  0  0  0  0  0  0  0  0  0  0
    1.9765   -0.0112   -1.6464 N   0  0  0  0  0  0  0  0  0  0  0  0
   -5.9275    0.1761   -0.1478 H   0  0  0  0  0  0  0  0  0  0  0  0
   -2.4965   -1.4127   -0.3796 H   0  0  0  0  0  0  0  0  0  0  0  0
   -2.4821    0.1298   -1.3269 H   0  0  0  0  0  0  0  0  0  0  0  0
   -1.5293   -0.1108    1.5766 H   0  0  0  0  0  0  0  0  0  0  0  0
   -1.4771    1.3578    0.4749 H   0  0  0  0  0  0  0  0  0  0  0  0
   -0.1931   -1.3462   -0.2259 H   0  0  0  0  0  0  0  0  0  0  0  0
   -0.1712    0.1840   -1.1660 H   0  0  0  0  0  0  0  0  0  0  0  0
    1.1465   -0.1935    1.5672 H   0  0  0  0  0  0  0  0  0  0  0  0
    1.1232    1.2997    0.6244 H   0  0  0  0  0  0  0  0  0  0  0  0
    2.0527   -1.5067   -0.1635 H   0  0  0  0  0  0  0  0  0  0  0  0
    5.4639    0.3166   -0.4864 H   0  0  0  0  0  0  0  0  0  0  0  0
    1.6962    0.9900   -1.6434 H   0  0  0  0  0  0  0  0  0  0  0  0
    2.8456   -0.2083   -2.1918 H   0  0  0  0  0  0  0  0  0  0  0  0
  1  2  1  0
  2  3  2  0
  2  4  1  0
  4  5  1  0
  5  6  1  0
  6  7  1  0
  7  8  1  0
  8  9  1  0
  9 10  2  0
  9 11  1  0
  8 12  1  0
  1 13  1  0
  4 14  1  0
  4 15  1  0
  5 16  1  0
  5 17  1  0
  6 18  1  0
  6 19  1  0
  7 20  1  0
  7 21  1  0
  8 22  1  0
 11 23  1  0
 12 24  1  0
 12 25  1  0
M  END
>  <Ligand ID>  (1) 
LIG0002118

>  <Ligand>  (1) 
2-Aminoheptanedioic acid

>  <SMILES>  (1) 
OC(=O)CCCCC(C(=O)O)N

>  <CID>  (1) 
101122.0

>  <ChEMBL ID>  (1) 
nan

>  <InChiKey>  (1) 
JUQLUIFNNFIIKC-UHFFFAOYSA-N

>  <InChi>  (1) 
InChI=1S/C7H13NO4/c8-5(7(11)12)3-1-2-4-6(9)10/h5H,1-4,8H2,(H,9,10)(H,11,12)

>  <IUPAC Name>  (1) 
2-aminoheptanedioic acid

$$$$
