
     RDKit          3D

 65 69  0  0  0  0  0  0  0  0999 V2000
   -5.9819    3.9609    1.1678 C   0  0  0  0  0  0  0  0  0  0  0  0
   -6.0780    2.7539    0.4666 O   0  0  0  0  0  0  0  0  0  0  0  0
   -5.0352    1.9297    0.1427 C   0  0  0  0  0  0  0  0  0  0  0  0
   -3.7157    2.2127    0.4886 C   0  0  0  0  0  0  0  0  0  0  0  0
   -2.7167    1.3236    0.1215 C   0  0  0  0  0  0  0  0  0  0  0  0
   -3.0125    0.1704   -0.5773 C   0  0  0  0  0  0  0  0  0  0  0  0
   -4.3246   -0.1246   -0.9290 C   0  0  0  0  0  0  0  0  0  0  0  0
   -5.3156    0.7640   -0.5610 C   0  0  0  0  0  0  0  0  0  0  0  0
   -6.5957    0.4583   -0.9144 F   0  0  0  0  0  0  0  0  0  0  0  0
   -1.9856   -0.7842   -0.9777 C   0  0  0  0  0  0  0  0  0  0  0  0
   -1.0143   -0.3463   -1.7972 N   0  0  0  0  0  0  0  0  0  0  0  0
   -0.0144   -1.1164   -2.2385 N   0  0  0  0  0  0  0  0  0  0  0  0
    0.9502   -0.5175   -3.0970 C   0  0  0  0  0  0  0  0  0  0  0  0
    2.1185    0.1383   -2.3838 C   0  0  0  0  0  0  0  0  0  0  0  0
    2.9010   -0.8429   -1.5513 C   0  0  0  0  0  0  0  0  0  0  0  0
    4.2104   -0.1351   -1.1505 C   0  0  0  0  0  0  0  0  0  0  0  0
    3.7701    0.8974   -0.1471 C   0  0  0  0  0  0  0  0  0  0  0  0
    2.5812    1.5205   -0.4097 C   0  0  0  0  0  0  0  0  0  0  0  0
    1.7024    1.2983   -1.5562 C   0  0  0  0  0  0  0  0  0  0  0  0
    2.1703    2.4765    0.5293 C   0  0  0  0  0  0  0  0  0  0  0  0
    2.9422    2.7482    1.6398 C   0  0  0  0  0  0  0  0  0  0  0  0
    4.1396    2.0971    1.8712 C   0  0  0  0  0  0  0  0  0  0  0  0
    4.5557    1.1558    0.9578 C   0  0  0  0  0  0  0  0  0  0  0  0
    5.7330    0.4347    1.0718 O   0  0  0  0  0  0  0  0  0  0  0  0
    6.6601    0.5555    2.1231 C   0  0  0  0  0  0  0  0  0  0  0  0
    7.8211   -0.3493    1.9579 C   0  0  0  0  0  0  0  0  0  0  0  0
    7.9644   -1.1368    0.9879 O   0  0  0  0  0  0  0  0  0  0  0  0
    8.8022   -0.3167    2.9389 O   0  0  0  0  0  0  0  0  0  0  0  0
   -0.0215   -2.3875   -1.8154 C   0  0  0  0  0  0  0  0  0  0  0  0
    0.8827   -3.1736   -2.1872 O   0  0  0  0  0  0  0  0  0  0  0  0
   -0.9862   -2.9090   -0.9727 C   0  0  0  0  0  0  0  0  0  0  0  0
   -2.0100   -2.0920   -0.5298 C   0  0  0  0  0  0  0  0  0  0  0  0
   -3.0691   -2.5562    0.3600 C   0  0  0  0  0  0  0  0  0  0  0  0
   -3.1568   -1.9528    1.5936 C   0  0  0  0  0  0  0  0  0  0  0  0
   -4.1335   -2.3246    2.5164 C   0  0  0  0  0  0  0  0  0  0  0  0
   -5.0309   -3.3275    2.1693 C   0  0  0  0  0  0  0  0  0  0  0  0
   -4.9256   -3.9280    0.9123 C   0  0  0  0  0  0  0  0  0  0  0  0
   -3.9581   -3.5543    0.0079 C   0  0  0  0  0  0  0  0  0  0  0  0
   -6.8027    4.6464    0.8094 H   0  0  0  0  0  0  0  0  0  0  0  0
   -5.0338    4.5099    0.9413 H   0  0  0  0  0  0  0  0  0  0  0  0
   -6.1800    3.8232    2.2379 H   0  0  0  0  0  0  0  0  0  0  0  0
   -3.4862    3.1159    1.0356 H   0  0  0  0  0  0  0  0  0  0  0  0
   -1.6711    1.5315    0.3864 H   0  0  0  0  0  0  0  0  0  0  0  0
   -4.5516   -1.0273   -1.4754 H   0  0  0  0  0  0  0  0  0  0  0  0
    0.5271    0.2422   -3.7873 H   0  0  0  0  0  0  0  0  0  0  0  0
    1.4330   -1.2646   -3.7944 H   0  0  0  0  0  0  0  0  0  0  0  0
    2.8558    0.5114   -3.1578 H   0  0  0  0  0  0  0  0  0  0  0  0
    3.1718   -1.7509   -2.1726 H   0  0  0  0  0  0  0  0  0  0  0  0
    2.4140   -1.1260   -0.6003 H   0  0  0  0  0  0  0  0  0  0  0  0
    4.8059   -0.9100   -0.6195 H   0  0  0  0  0  0  0  0  0  0  0  0
    4.7059    0.3181   -2.0084 H   0  0  0  0  0  0  0  0  0  0  0  0
    0.6234    1.2724   -1.2699 H   0  0  0  0  0  0  0  0  0  0  0  0
    1.8017    2.2278   -2.2002 H   0  0  0  0  0  0  0  0  0  0  0  0
    1.2424    3.0049    0.3827 H   0  0  0  0  0  0  0  0  0  0  0  0
    2.5872    3.4944    2.3402 H   0  0  0  0  0  0  0  0  0  0  0  0
    4.7541    2.3004    2.7375 H   0  0  0  0  0  0  0  0  0  0  0  0
    6.1497    0.2144    3.0720 H   0  0  0  0  0  0  0  0  0  0  0  0
    6.9558    1.6039    2.2456 H   0  0  0  0  0  0  0  0  0  0  0  0
    9.7945   -0.4775    2.7044 H   0  0  0  0  0  0  0  0  0  0  0  0
   -0.9782   -3.9343   -0.6405 H   0  0  0  0  0  0  0  0  0  0  0  0
   -2.4645   -1.1635    1.8891 H   0  0  0  0  0  0  0  0  0  0  0  0
   -4.1986   -1.8385    3.5008 H   0  0  0  0  0  0  0  0  0  0  0  0
   -5.8090   -3.6454    2.8658 H   0  0  0  0  0  0  0  0  0  0  0  0
   -5.6257   -4.7088    0.6450 H   0  0  0  0  0  0  0  0  0  0  0  0
   -3.8438   -3.9907   -0.9667 H   0  0  0  0  0  0  0  0  0  0  0  0
  1  2  1  0
  2  3  1  0
  3  4  2  0
  4  5  1  0
  5  6  2  0
  6  7  1  0
  7  8  2  0
  8  9  1  0
  6 10  1  0
 10 11  2  0
 11 12  1  0
 12 13  1  0
 13 14  1  0
 14 15  1  0
 15 16  1  0
 16 17  1  0
 17 18  2  0
 18 19  1  0
 18 20  1  0
 20 21  2  0
 21 22  1  0
 22 23  2  0
 23 24  1  0
 24 25  1  0
 25 26  1  0
 26 27  2  0
 26 28  1  0
 12 29  1  0
 29 30  2  0
 29 31  1  0
 31 32  2  0
 32 33  1  0
 33 34  2  0
 34 35  1  0
 35 36  2  0
 36 37  1  0
 37 38  2  0
  8  3  1  0
 32 10  1  0
 38 33  1  0
 19 14  1  0
 23 17  1  0
  1 39  1  0
  1 40  1  0
  1 41  1  0
  4 42  1  0
  5 43  1  0
  7 44  1  0
 13 45  1  0
 13 46  1  0
 14 47  1  0
 15 48  1  0
 15 49  1  0
 16 50  1  0
 16 51  1  0
 19 52  1  0
 19 53  1  0
 20 54  1  0
 21 55  1  0
 22 56  1  0
 25 57  1  0
 25 58  1  0
 28 59  1  0
 31 60  1  0
 34 61  1  0
 35 62  1  0
 36 63  1  0
 37 64  1  0
 38 65  1  0
M  END
>  <Ligand ID>  (1) 
LIG0004731

>  <Ligand>  (1) 
CHEMBL3398219

>  <SMILES>  (1) 
COc1ccc(cc1F)c1nn(CC2CCc3c(C2)cccc3OCC(=O)O)c(=O)cc1c1ccccc1

>  <CID>  (1) 
118727298.0

>  <ChEMBL ID>  (1) 
nan

>  <InChiKey>  (1) 
VKPPVAUTZJFQSM-UHFFFAOYSA-N

>  <InChi>  (1) 
InChI=1S/C30H27FN2O5/c1-37-27-13-11-22(15-25(27)31)30-24(20-6-3-2-4-7-20)16-28(34)33(32-30)17-19-10-12-23-21(14-19)8-5-9-26(23)38-18-29(35)36/h2-9,11,13,15-16,19H,10,12,14,17-18H2,1H3,(H,35,36)

>  <IUPAC Name>  (1) 
2-[[6-[[3-(3-fluoro-4-methoxyphenyl)-6-oxo-4-phenylpyridazin-1-yl]methyl]-5,6,7,8-tetrahydronaphthalen-1-yl]oxy]acetic acid

$$$$
