
     RDKit          3D

 26 25  0  0  0  0  0  0  0  0999 V2000
   -3.7276   -0.8196   -0.1936 C   0  0  0  0  0  0  0  0  0  0  0  0
   -3.4101    0.6254   -0.4751 C   0  0  0  0  0  0  0  0  0  0  0  0
   -2.1096    1.0142    0.2264 C   0  0  0  0  0  0  0  0  0  0  0  0
   -0.9998    0.1390   -0.2949 C   0  0  0  0  0  0  0  0  0  0  0  0
    0.3374    0.4781    0.3694 C   0  0  0  0  0  0  0  0  0  0  0  0
    1.3228   -0.4828   -0.2638 C   0  0  0  0  0  0  0  0  0  0  0  0
    2.6927   -0.2957    0.2680 C   0  0  0  0  0  0  0  0  0  0  0  0
    2.9900    0.5603    1.1394 O   0  0  0  0  0  0  0  0  0  0  0  0
    3.6894   -1.1133   -0.2292 O   0  0  0  0  0  0  0  0  0  0  0  0
    5.0352   -1.0114    0.2174 C   0  0  0  0  0  0  0  0  0  0  0  0
   -3.6006   -1.4278   -1.0917 H   0  0  0  0  0  0  0  0  0  0  0  0
   -3.0559   -1.2272    0.6144 H   0  0  0  0  0  0  0  0  0  0  0  0
   -4.7845   -0.9075    0.1763 H   0  0  0  0  0  0  0  0  0  0  0  0
   -4.2386    1.2699   -0.1121 H   0  0  0  0  0  0  0  0  0  0  0  0
   -3.2151    0.7477   -1.5517 H   0  0  0  0  0  0  0  0  0  0  0  0
   -1.8937    2.0850    0.1174 H   0  0  0  0  0  0  0  0  0  0  0  0
   -2.2493    0.7654    1.2989 H   0  0  0  0  0  0  0  0  0  0  0  0
   -0.8586    0.2785   -1.3846 H   0  0  0  0  0  0  0  0  0  0  0  0
   -1.1719   -0.9302   -0.1090 H   0  0  0  0  0  0  0  0  0  0  0  0
    0.3203    0.2666    1.4522 H   0  0  0  0  0  0  0  0  0  0  0  0
    0.6238    1.5256    0.1778 H   0  0  0  0  0  0  0  0  0  0  0  0
    1.2456   -0.3352   -1.3406 H   0  0  0  0  0  0  0  0  0  0  0  0
    0.9552   -1.5122   -0.0190 H   0  0  0  0  0  0  0  0  0  0  0  0
    5.6620   -1.6341   -0.4688 H   0  0  0  0  0  0  0  0  0  0  0  0
    5.3043    0.0667    0.1909 H   0  0  0  0  0  0  0  0  0  0  0  0
    5.1366   -1.2998    1.2857 H   0  0  0  0  0  0  0  0  0  0  0  0
  1  2  1  0
  2  3  1  0
  3  4  1  0
  4  5  1  0
  5  6  1  0
  6  7  1  0
  7  8  2  0
  7  9  1  0
  9 10  1  0
  1 11  1  0
  1 12  1  0
  1 13  1  0
  2 14  1  0
  2 15  1  0
  3 16  1  0
  3 17  1  0
  4 18  1  0
  4 19  1  0
  5 20  1  0
  5 21  1  0
  6 22  1  0
  6 23  1  0
 10 24  1  0
 10 25  1  0
 10 26  1  0
M  END
>  <Ligand ID>  (1) 
LIG0005024

>  <Ligand>  (1) 
methyl heptanoate

>  <SMILES>  (1) 
CCCCCCC(=O)OC

>  <CID>  (1) 
7826.0

>  <ChEMBL ID>  (1) 
nan

>  <InChiKey>  (1) 
XNCNNDVCAUWAIT-UHFFFAOYSA-N

>  <InChi>  (1) 
InChI=1S/C8H16O2/c1-3-4-5-6-7-8(9)10-2/h3-7H2,1-2H3

>  <IUPAC Name>  (1) 
methyl heptanoate

$$$$
