
     RDKit          3D

 60 62  0  0  0  0  0  0  0  0999 V2000
   -2.0534   -4.2023    0.2676 O   0  0  0  0  0  0  0  0  0  0  0  0
   -0.8457   -3.6178    0.6921 C   0  0  0  0  0  0  0  0  0  0  0  0
   -0.2008   -3.0237   -0.5523 C   0  0  0  0  0  0  0  0  0  0  0  0
    1.1045   -2.3628   -0.2459 C   0  0  0  0  0  0  0  0  0  0  0  0
    1.1572   -1.2699    0.7250 C   0  0  0  0  0  0  0  0  0  0  0  0
    2.6254   -0.8090    0.9022 C   0  0  0  0  0  0  0  0  0  0  0  0
    3.2847   -0.8112    2.0780 N   0  0  0  0  0  0  0  0  0  0  0  0
    4.5520   -0.3451    1.8728 C   0  0  0  0  0  0  0  0  0  0  0  0
    4.6193   -0.0624    0.5096 C   0  0  0  0  0  0  0  0  0  0  0  0
    3.4195   -0.3569   -0.0652 N   0  0  0  0  0  0  0  0  0  0  0  0
    5.8148    0.4667   -0.1529 C   0  0  0  0  0  0  0  0  0  0  0  0
    5.8695    1.9903   -0.1780 C   0  0  0  0  0  0  0  0  0  0  0  0
    7.1622    2.3538   -0.8951 C   0  0  0  0  0  0  0  0  0  0  0  0
    7.3641    3.8366   -1.0020 C   0  0  0  0  0  0  0  0  0  0  0  0
    0.4743   -0.0097    0.3499 C   0  0  0  0  0  0  0  0  0  0  0  0
   -0.9433    0.0403    0.0744 C   0  0  0  0  0  0  0  0  0  0  0  0
   -1.5569    0.0586   -1.1582 C   0  0  0  0  0  0  0  0  0  0  0  0
   -2.9243    0.1075   -1.3304 C   0  0  0  0  0  0  0  0  0  0  0  0
   -3.7826    0.1419   -0.2383 C   0  0  0  0  0  0  0  0  0  0  0  0
   -3.1865    0.1236    1.0034 C   0  0  0  0  0  0  0  0  0  0  0  0
   -1.8189    0.0751    1.1732 C   0  0  0  0  0  0  0  0  0  0  0  0
   -5.1957    0.1609   -0.4847 C   0  0  0  0  0  0  0  0  0  0  0  0
   -5.7215   -0.9155   -1.2118 C   0  0  0  0  0  0  0  0  0  0  0  0
   -7.0679   -1.0318   -1.4755 C   0  0  0  0  0  0  0  0  0  0  0  0
   -7.9109   -0.0496   -1.0019 C   0  0  0  0  0  0  0  0  0  0  0  0
   -7.3787    1.0020   -0.2898 C   0  0  0  0  0  0  0  0  0  0  0  0
   -6.0340    1.1388   -0.0149 C   0  0  0  0  0  0  0  0  0  0  0  0
   -5.5702    2.3091    0.7058 C   0  0  0  0  0  0  0  0  0  0  0  0
   -4.3737    2.5762    0.9602 O   0  0  0  0  0  0  0  0  0  0  0  0
   -6.5127    3.2318    1.1664 O   0  0  0  0  0  0  0  0  0  0  0  0
   -2.2774   -4.9878    0.8457 H   0  0  0  0  0  0  0  0  0  0  0  0
   -0.2337   -4.4093    1.1531 H   0  0  0  0  0  0  0  0  0  0  0  0
   -1.0827   -2.7748    1.3714 H   0  0  0  0  0  0  0  0  0  0  0  0
    0.0822   -3.9608   -1.1755 H   0  0  0  0  0  0  0  0  0  0  0  0
   -0.9123   -2.5194   -1.1705 H   0  0  0  0  0  0  0  0  0  0  0  0
    1.8190   -3.2021   -0.0145 H   0  0  0  0  0  0  0  0  0  0  0  0
    1.4917   -2.0214   -1.2684 H   0  0  0  0  0  0  0  0  0  0  0  0
    0.8720   -1.5652    1.7695 H   0  0  0  0  0  0  0  0  0  0  0  0
    5.3255   -0.2271    2.6199 H   0  0  0  0  0  0  0  0  0  0  0  0
    3.1668   -0.2464   -1.0909 H   0  0  0  0  0  0  0  0  0  0  0  0
    6.7129    0.0911    0.3544 H   0  0  0  0  0  0  0  0  0  0  0  0
    5.7927    0.1519   -1.2327 H   0  0  0  0  0  0  0  0  0  0  0  0
    5.8901    2.4137    0.8346 H   0  0  0  0  0  0  0  0  0  0  0  0
    5.0524    2.4130   -0.7903 H   0  0  0  0  0  0  0  0  0  0  0  0
    7.1465    1.8318   -1.8634 H   0  0  0  0  0  0  0  0  0  0  0  0
    8.0126    1.9052   -0.3128 H   0  0  0  0  0  0  0  0  0  0  0  0
    7.3985    4.1721   -2.0740 H   0  0  0  0  0  0  0  0  0  0  0  0
    6.4900    4.3373   -0.5348 H   0  0  0  0  0  0  0  0  0  0  0  0
    8.3380    4.1552   -0.5414 H   0  0  0  0  0  0  0  0  0  0  0  0
    0.7108    0.7172    1.2145 H   0  0  0  0  0  0  0  0  0  0  0  0
    1.0859    0.4719   -0.4800 H   0  0  0  0  0  0  0  0  0  0  0  0
   -0.8919    0.0319   -2.0227 H   0  0  0  0  0  0  0  0  0  0  0  0
   -3.3474    0.1196   -2.3441 H   0  0  0  0  0  0  0  0  0  0  0  0
   -3.7925    0.1342    1.8929 H   0  0  0  0  0  0  0  0  0  0  0  0
   -1.4051    0.0633    2.1923 H   0  0  0  0  0  0  0  0  0  0  0  0
   -5.0671   -1.7026   -1.5943 H   0  0  0  0  0  0  0  0  0  0  0  0
   -7.4339   -1.8852   -2.0446 H   0  0  0  0  0  0  0  0  0  0  0  0
   -8.9856   -0.0980   -1.1847 H   0  0  0  0  0  0  0  0  0  0  0  0
   -8.0684    1.7511    0.0647 H   0  0  0  0  0  0  0  0  0  0  0  0
   -6.2595    4.0943    1.6117 H   0  0  0  0  0  0  0  0  0  0  0  0
  1  2  1  0
  2  3  1  0
  3  4  1  0
  4  5  1  0
  5  6  1  0
  6  7  2  0
  7  8  1  0
  8  9  2  0
  9 10  1  0
  9 11  1  0
 11 12  1  0
 12 13  1  0
 13 14  1  0
  5 15  1  0
 15 16  1  0
 16 17  2  0
 17 18  1  0
 18 19  2  0
 19 20  1  0
 20 21  2  0
 19 22  1  0
 22 23  2  0
 23 24  1  0
 24 25  2  0
 25 26  1  0
 26 27  2  0
 27 28  1  0
 28 29  2  0
 28 30  1  0
 10  6  1  0
 21 16  1  0
 27 22  1  0
  1 31  1  0
  2 32  1  0
  2 33  1  0
  3 34  1  0
  3 35  1  0
  4 36  1  0
  4 37  1  0
  5 38  1  0
  8 39  1  0
 10 40  1  0
 11 41  1  0
 11 42  1  0
 12 43  1  0
 12 44  1  0
 13 45  1  0
 13 46  1  0
 14 47  1  0
 14 48  1  0
 14 49  1  0
 15 50  1  0
 15 51  1  0
 17 52  1  0
 18 53  1  0
 20 54  1  0
 21 55  1  0
 23 56  1  0
 24 57  1  0
 25 58  1  0
 26 59  1  0
 30 60  1  0
M  END
>  <Ligand ID>  (1) 
LIG0004202

>  <Ligand>  (1) 
CHEMBL1079517

>  <SMILES>  (1) 
OCCCC(c1ncc([nH]1)CCCC)Cc1ccc(cc1)c1ccccc1C(=O)O

>  <CID>  (1) 
46882011.0

>  <ChEMBL ID>  (1) 
nan

>  <InChiKey>  (1) 
IZKNYADXWAWXCN-UHFFFAOYSA-N

>  <InChi>  (1) 
InChI=1S/C25H30N2O3/c1-2-3-8-21-17-26-24(27-21)20(7-6-15-28)16-18-11-13-19(14-12-18)22-9-4-5-10-23(22)25(29)30/h4-5,9-14,17,20,28H,2-3,6-8,15-16H2,1H3,(H,26,27)(H,29,30)

>  <IUPAC Name>  (1) 
2-[4-[2-(5-butyl-1H-imidazol-2-yl)-5-hydroxypentyl]phenyl]benzoic acid

$$$$
