
     RDKit          3D

 30 32  0  0  0  0  0  0  0  0999 V2000
    4.1404    2.7275   -1.7213 Cl  0  0  0  0  0  0  0  0  0  0  0  0
    3.9523    1.2437   -0.8099 C   0  0  0  0  0  0  0  0  0  0  0  0
    5.0903    0.4990   -0.5421 C   0  0  0  0  0  0  0  0  0  0  0  0
    4.9403   -0.6661    0.1888 C   0  0  0  0  0  0  0  0  0  0  0  0
    3.6837   -1.0778    0.6407 C   0  0  0  0  0  0  0  0  0  0  0  0
    2.5510   -0.3464    0.3799 C   0  0  0  0  0  0  0  0  0  0  0  0
    2.7317    0.8162   -0.3541 C   0  0  0  0  0  0  0  0  0  0  0  0
    1.2182   -0.6818    0.8442 C   0  0  0  0  0  0  0  0  0  0  0  0
    0.7683   -1.6720    1.6854 C   0  0  0  0  0  0  0  0  0  0  0  0
   -0.6217   -1.5632    1.8183 C   0  0  0  0  0  0  0  0  0  0  0  0
   -0.9450   -0.4636    1.0127 C   0  0  0  0  0  0  0  0  0  0  0  0
    0.1569   -0.0219    0.4949 O   0  0  0  0  0  0  0  0  0  0  0  0
   -2.3178    0.0011    0.8719 C   0  0  0  0  0  0  0  0  0  0  0  0
   -2.8892    0.3041   -0.2739 C   0  0  0  0  0  0  0  0  0  0  0  0
   -2.2320    0.2130   -1.5834 C   0  0  0  0  0  0  0  0  0  0  0  0
   -1.0477   -0.1626   -1.8292 O   0  0  0  0  0  0  0  0  0  0  0  0
   -3.2068    0.6338   -2.5056 O   0  0  0  0  0  0  0  0  0  0  0  0
   -4.3665    0.9587   -1.8447 N   0  0  0  0  0  0  0  0  0  0  0  0
   -4.2296    0.7839   -0.5524 C   0  0  0  0  0  0  0  0  0  0  0  0
   -5.2817    1.0561    0.4609 C   0  0  0  0  0  0  0  0  0  0  0  0
    3.6333   -2.5644    1.5390 Cl  0  0  0  0  0  0  0  0  0  0  0  0
    6.0642    0.8387   -0.9061 H   0  0  0  0  0  0  0  0  0  0  0  0
    5.8211   -1.2745    0.4144 H   0  0  0  0  0  0  0  0  0  0  0  0
    1.8790    1.4383   -0.5992 H   0  0  0  0  0  0  0  0  0  0  0  0
    1.3236   -2.4135    2.1849 H   0  0  0  0  0  0  0  0  0  0  0  0
   -1.2896   -2.1796    2.4059 H   0  0  0  0  0  0  0  0  0  0  0  0
   -2.9262    0.1098    1.7790 H   0  0  0  0  0  0  0  0  0  0  0  0
   -4.8181    1.1777    1.4660 H   0  0  0  0  0  0  0  0  0  0  0  0
   -5.7574    2.0384    0.2251 H   0  0  0  0  0  0  0  0  0  0  0  0
   -6.0253    0.2474    0.4249 H   0  0  0  0  0  0  0  0  0  0  0  0
  1  2  1  0
  2  3  2  0
  3  4  1  0
  4  5  2  0
  5  6  1  0
  6  7  2  0
  6  8  1  0
  8  9  2  0
  9 10  1  0
 10 11  2  0
 11 12  1  0
 11 13  1  0
 13 14  2  0
 14 15  1  0
 15 16  2  0
 15 17  1  0
 17 18  1  0
 18 19  2  0
 19 20  1  0
  5 21  1  0
  7  2  1  0
 12  8  1  0
 19 14  1  0
  3 22  1  0
  4 23  1  0
  7 24  1  0
  9 25  1  0
 10 26  1  0
 13 27  1  0
 20 28  1  0
 20 29  1  0
 20 30  1  0
M  END
>  <Ligand ID>  (1) 
LIG0003550

>  <Ligand>  (1) 
SMR000141784

>  <SMILES>  (1) 
Clc1ccc(c(c1)c1ccc(o1)/C=C/1\C(=O)ON=C1C)Cl

>  <CID>  (1) 
5733602.0

>  <ChEMBL ID>  (1) 
nan

>  <InChiKey>  (1) 
YDZWCYQLYKMZKK-XFFZJAGNSA-N

>  <InChi>  (1) 
InChI=1S/C15H9Cl2NO3/c1-8-11(15(19)21-18-8)7-10-3-5-14(20-10)12-6-9(16)2-4-13(12)17/h2-7H,1H3/b11-7-

>  <IUPAC Name>  (1) 
(4Z)-4-[[5-(2,5-dichlorophenyl)furan-2-yl]methylidene]-3-methyl-1,2-oxazol-5-one

$$$$
