
     RDKit          3D

 74 79  0  0  0  0  0  0  0  0999 V2000
    4.6370    3.5208   -0.2894 C   0  0  0  0  0  0  0  0  0  0  0  0
    4.1690    2.1997   -0.8034 C   0  0  1  0  0  0  0  0  0  0  0  0
    5.2506    1.2059   -1.0865 C   0  0  0  0  0  0  0  0  0  0  0  0
    4.6485    0.1781   -2.0459 C   0  0  0  0  0  0  0  0  0  0  0  0
    3.2610   -0.1741   -1.6856 C   0  0  0  0  0  0  0  0  0  0  0  0
    2.5305    0.4561   -0.7013 C   0  0  0  0  0  0  0  0  0  0  0  0
    3.1189    1.5734    0.0878 C   0  0  2  0  0  0  0  0  0  0  0  0
    2.0653    2.5859    0.4740 C   0  0  0  0  0  0  0  0  0  0  0  0
    3.7290    1.0086    1.3255 C   0  0  0  0  0  0  0  0  0  0  0  0
    4.8193    0.0345    0.9370 C   0  0  0  0  0  0  0  0  0  0  0  0
    5.7680    0.5053    0.0145 N   0  0  0  0  0  0  0  0  0  0  0  0
    7.0979    0.7112    0.4177 C   0  0  0  0  0  0  0  0  0  0  0  0
    7.9078   -0.5055    0.7407 C   0  0  0  0  0  0  0  0  0  0  0  0
    8.1533   -1.5535   -0.2861 C   0  0  0  0  0  0  0  0  0  0  0  0
    7.3515   -1.8350    0.9907 C   0  0  0  0  0  0  0  0  0  0  0  0
    1.2356    0.0566   -0.4328 C   0  0  0  0  0  0  0  0  0  0  0  0
    0.6175   -0.9526   -1.1017 C   0  0  0  0  0  0  0  0  0  0  0  0
    1.3633   -1.5893   -2.1001 C   0  0  0  0  0  0  0  0  0  0  0  0
    2.6628   -1.2013   -2.3820 C   0  0  0  0  0  0  0  0  0  0  0  0
   -0.7473   -1.4083   -0.8532 C   0  0  0  0  0  0  0  0  0  0  0  0
   -1.2124   -2.3569   -1.5377 O   0  0  0  0  0  0  0  0  0  0  0  0
   -1.5965   -0.8388    0.1287 N   0  0  0  0  0  0  0  0  0  0  0  0
   -2.9347   -1.2408    0.4122 C   0  0  0  0  0  0  0  0  0  0  0  0
   -3.7924   -1.0642   -0.8017 C   0  0  0  0  0  0  0  0  0  0  0  0
   -5.2055   -1.4694   -0.5392 C   0  0  0  0  0  0  0  0  0  0  0  0
   -5.5211   -2.7943   -0.7750 C   0  0  0  0  0  0  0  0  0  0  0  0
   -6.8110   -3.1912   -0.5420 C   0  0  0  0  0  0  0  0  0  0  0  0
   -7.7924   -2.3313   -0.0876 C   0  0  0  0  0  0  0  0  0  0  0  0
   -7.4453   -1.0057    0.1403 C   0  0  0  0  0  0  0  0  0  0  0  0
   -6.1462   -0.5697   -0.0857 C   0  0  0  0  0  0  0  0  0  0  0  0
   -8.4406   -0.0304    0.6260 C   0  0  0  0  0  0  0  0  0  0  0  0
   -8.0629    1.0249    1.4282 C   0  0  0  0  0  0  0  0  0  0  0  0
   -9.0671    1.8940    1.8394 C   0  0  0  0  0  0  0  0  0  0  0  0
  -10.3779    1.6927    1.4514 C   0  0  0  0  0  0  0  0  0  0  0  0
  -10.7166    0.6297    0.6512 C   0  0  0  0  0  0  0  0  0  0  0  0
   -9.7412   -0.2539    0.2246 C   0  0  0  0  0  0  0  0  0  0  0  0
    5.5207    3.8457   -0.8588 H   0  0  0  0  0  0  0  0  0  0  0  0
    3.8333    4.2649   -0.5484 H   0  0  0  0  0  0  0  0  0  0  0  0
    4.7330    3.5831    0.8076 H   0  0  0  0  0  0  0  0  0  0  0  0
    3.6452    2.3822   -1.7787 H   0  0  0  0  0  0  0  0  0  0  0  0
    6.0945    1.7420   -1.6003 H   0  0  0  0  0  0  0  0  0  0  0  0
    5.3142   -0.7138   -2.1053 H   0  0  0  0  0  0  0  0  0  0  0  0
    4.6629    0.6434   -3.0396 H   0  0  0  0  0  0  0  0  0  0  0  0
    1.3422    2.8146   -0.3192 H   0  0  0  0  0  0  0  0  0  0  0  0
    1.5281    2.1469    1.3654 H   0  0  0  0  0  0  0  0  0  0  0  0
    2.5870    3.4768    0.8613 H   0  0  0  0  0  0  0  0  0  0  0  0
    4.0792    1.7742    2.0392 H   0  0  0  0  0  0  0  0  0  0  0  0
    2.9466    0.4132    1.8503 H   0  0  0  0  0  0  0  0  0  0  0  0
    5.2570   -0.3256    1.8936 H   0  0  0  0  0  0  0  0  0  0  0  0
    4.2929   -0.8629    0.4979 H   0  0  0  0  0  0  0  0  0  0  0  0
    7.0933    1.4368    1.2722 H   0  0  0  0  0  0  0  0  0  0  0  0
    7.6420    1.2151   -0.4358 H   0  0  0  0  0  0  0  0  0  0  0  0
    8.8170   -0.2478    1.3607 H   0  0  0  0  0  0  0  0  0  0  0  0
    9.1620   -2.0062   -0.3822 H   0  0  0  0  0  0  0  0  0  0  0  0
    7.5812   -1.5633   -1.2351 H   0  0  0  0  0  0  0  0  0  0  0  0
    7.8713   -2.5182    1.7258 H   0  0  0  0  0  0  0  0  0  0  0  0
    6.3240   -2.1567    0.8195 H   0  0  0  0  0  0  0  0  0  0  0  0
    0.7151    0.5761    0.3369 H   0  0  0  0  0  0  0  0  0  0  0  0
    0.9624   -2.3940   -2.6798 H   0  0  0  0  0  0  0  0  0  0  0  0
    3.2126   -1.7155   -3.1621 H   0  0  0  0  0  0  0  0  0  0  0  0
   -1.1648   -0.0409    0.6875 H   0  0  0  0  0  0  0  0  0  0  0  0
   -3.0009   -2.2712    0.8279 H   0  0  0  0  0  0  0  0  0  0  0  0
   -3.3457   -0.5799    1.2076 H   0  0  0  0  0  0  0  0  0  0  0  0
   -3.8116    0.0208   -1.0474 H   0  0  0  0  0  0  0  0  0  0  0  0
   -3.3825   -1.6120   -1.6577 H   0  0  0  0  0  0  0  0  0  0  0  0
   -4.8017   -3.5177   -1.1304 H   0  0  0  0  0  0  0  0  0  0  0  0
   -7.0729   -4.2405   -0.7256 H   0  0  0  0  0  0  0  0  0  0  0  0
   -8.7895   -2.6772    0.0830 H   0  0  0  0  0  0  0  0  0  0  0  0
   -5.8634    0.4780    0.0920 H   0  0  0  0  0  0  0  0  0  0  0  0
   -7.0263    1.1716    1.7264 H   0  0  0  0  0  0  0  0  0  0  0  0
   -8.8161    2.7467    2.4773 H   0  0  0  0  0  0  0  0  0  0  0  0
  -11.1505    2.3976    1.7926 H   0  0  0  0  0  0  0  0  0  0  0  0
  -11.7673    0.5109    0.3701 H   0  0  0  0  0  0  0  0  0  0  0  0
  -10.0000   -1.1083   -0.4156 H   0  0  0  0  0  0  0  0  0  0  0  0
  1  2  1  0
  2  3  1  0
  3  4  1  0
  4  5  1  0
  5  6  2  0
  6  7  1  0
  7  8  1  1
  7  9  1  0
  9 10  1  0
 10 11  1  0
 11 12  1  0
 12 13  1  0
 13 14  1  0
 14 15  1  0
  6 16  1  0
 16 17  2  0
 17 18  1  0
 18 19  2  0
 17 20  1  0
 20 21  2  0
 20 22  1  0
 22 23  1  0
 23 24  1  0
 24 25  1  0
 25 26  2  0
 26 27  1  0
 27 28  2  0
 28 29  1  0
 29 30  2  0
 29 31  1  0
 31 32  2  0
 32 33  1  0
 33 34  2  0
 34 35  1  0
 35 36  2  0
  7  2  1  0
 15 13  1  0
 30 25  1  0
 36 31  1  0
 11  3  1  0
 19  5  1  0
  1 37  1  0
  1 38  1  0
  1 39  1  0
  2 40  1  6
  3 41  1  0
  4 42  1  0
  4 43  1  0
  8 44  1  0
  8 45  1  0
  8 46  1  0
  9 47  1  0
  9 48  1  0
 10 49  1  0
 10 50  1  0
 12 51  1  0
 12 52  1  0
 13 53  1  0
 14 54  1  0
 14 55  1  0
 15 56  1  0
 15 57  1  0
 16 58  1  0
 18 59  1  0
 19 60  1  0
 22 61  1  0
 23 62  1  0
 23 63  1  0
 24 64  1  0
 24 65  1  0
 26 66  1  0
 27 67  1  0
 28 68  1  0
 30 69  1  0
 32 70  1  0
 33 71  1  0
 34 72  1  0
 35 73  1  0
 36 74  1  0
M  END
>  <Ligand ID>  (1) 
LIG0002296

>  <Ligand>  (1) 
CHEMBL401278

>  <SMILES>  (1) 
C[C@H]1C2Cc3c([C@@]1(C)CCN2CC1CC1)cc(cc3)C(=O)NCCc1cccc(c1)c1ccccc1

>  <CID>  (1) 
16048941.0

>  <ChEMBL ID>  (1) 
nan

>  <InChiKey>  (1) 
FXAPPSUTMKSLEJ-CHCCDMOGSA-N

>  <InChi>  (1) 
InChI=1S/C33H38N2O/c1-23-31-21-28-13-14-29(20-30(28)33(23,2)16-18-35(31)22-25-11-12-25)32(36)34-17-15-24-7-6-10-27(19-24)26-8-4-3-5-9-26/h3-10,13-14,19-20,23,25,31H,11-12,15-18,21-22H2,1-2H3,(H,34,36)/t23-,31?,33-/m0/s1

>  <IUPAC Name>  (1) 
(1S,13R)-10-(cyclopropylmethyl)-1,13-dimethyl-N-[2-(3-phenylphenyl)ethyl]-10-azatricyclo[7.3.1.02,7]trideca-2(7),3,5-triene-4-carboxamide

$$$$
