
     RDKit          3D

 26 26  0  0  0  0  0  0  0  0999 V2000
   -3.4099    0.9107    0.1432 C   0  0  0  0  0  0  0  0  0  0  0  0
   -3.2482   -0.2951   -0.7464 C   0  0  0  0  0  0  0  0  0  0  0  0
   -2.0262   -1.0692   -0.2762 C   0  0  0  0  0  0  0  0  0  0  0  0
   -0.7796   -0.2151   -0.3556 C   0  0  0  0  0  0  0  0  0  0  0  0
    0.3618   -1.1106    0.1422 C   0  0  0  0  0  0  0  0  0  0  0  0
    1.6578   -0.3898    0.1165 C   0  0  0  0  0  0  0  0  0  0  0  0
    2.1251    0.3455    1.1986 C   0  0  0  0  0  0  0  0  0  0  0  0
    3.3454    1.0092    1.1400 C   0  0  0  0  0  0  0  0  0  0  0  0
    4.0706    0.9024   -0.0452 C   0  0  0  0  0  0  0  0  0  0  0  0
    3.5825    0.1661   -1.1024 C   0  0  0  0  0  0  0  0  0  0  0  0
    2.3861   -0.4751   -1.0232 N   0  0  0  0  0  0  0  0  0  0  0  0
   -4.3762    1.4304   -0.0394 H   0  0  0  0  0  0  0  0  0  0  0  0
   -2.5939    1.6248   -0.0775 H   0  0  0  0  0  0  0  0  0  0  0  0
   -3.3781    0.5166    1.1919 H   0  0  0  0  0  0  0  0  0  0  0  0
   -4.1316   -0.9450   -0.7147 H   0  0  0  0  0  0  0  0  0  0  0  0
   -3.0029    0.0531   -1.7714 H   0  0  0  0  0  0  0  0  0  0  0  0
   -1.9388   -1.9949   -0.8760 H   0  0  0  0  0  0  0  0  0  0  0  0
   -2.1272   -1.3455    0.8086 H   0  0  0  0  0  0  0  0  0  0  0  0
   -0.5973    0.1750   -1.3590 H   0  0  0  0  0  0  0  0  0  0  0  0
   -0.8890    0.6046    0.3883 H   0  0  0  0  0  0  0  0  0  0  0  0
    0.4218   -2.0289   -0.4720 H   0  0  0  0  0  0  0  0  0  0  0  0
    0.1432   -1.3370    1.2110 H   0  0  0  0  0  0  0  0  0  0  0  0
    1.5032    0.3827    2.0899 H   0  0  0  0  0  0  0  0  0  0  0  0
    3.7157    1.5849    1.9814 H   0  0  0  0  0  0  0  0  0  0  0  0
    5.0265    1.4079   -0.1240 H   0  0  0  0  0  0  0  0  0  0  0  0
    4.1590    0.0926   -2.0183 H   0  0  0  0  0  0  0  0  0  0  0  0
  1  2  1  0
  2  3  1  0
  3  4  1  0
  4  5  1  0
  5  6  1  0
  6  7  2  0
  7  8  1  0
  8  9  2  0
  9 10  1  0
 10 11  2  0
 11  6  1  0
  1 12  1  0
  1 13  1  0
  1 14  1  0
  2 15  1  0
  2 16  1  0
  3 17  1  0
  3 18  1  0
  4 19  1  0
  4 20  1  0
  5 21  1  0
  5 22  1  0
  7 23  1  0
  8 24  1  0
  9 25  1  0
 10 26  1  0
M  END
>  <Ligand ID>  (1) 
LIG0000464

>  <Ligand>  (1) 
2-Pentylpyridine

>  <SMILES>  (1) 
CCCCCc1ccccn1

>  <CID>  (1) 
16800.0

>  <ChEMBL ID>  (1) 
nan

>  <InChiKey>  (1) 
HSDXVAOHEOSTFZ-UHFFFAOYSA-N

>  <InChi>  (1) 
InChI=1S/C10H15N/c1-2-3-4-7-10-8-5-6-9-11-10/h5-6,8-9H,2-4,7H2,1H3

>  <IUPAC Name>  (1) 
2-pentylpyridine

$$$$
