
     RDKit          3D

 71 75  0  0  0  0  0  0  0  0999 V2000
   -3.3658   -3.0702    0.1290 O   0  0  0  0  0  0  0  0  0  0  0  0
   -2.8828   -1.8742    0.5892 C   0  0  1  0  0  0  0  0  0  0  0  0
   -1.3550   -1.7630    0.4430 C   0  0  0  0  0  0  0  0  0  0  0  0
   -1.0465   -0.4685    0.9684 N   0  0  0  0  0  0  0  0  0  0  0  0
    0.3310   -0.0830    0.9610 C   0  0  0  0  0  0  0  0  0  0  0  0
    0.9524   -0.0461   -0.3971 C   0  0  0  0  0  0  0  0  0  0  0  0
    2.3751    0.3490   -0.4353 C   0  0  0  0  0  0  0  0  0  0  0  0
    3.3690   -0.6033   -0.3382 C   0  0  0  0  0  0  0  0  0  0  0  0
    4.7112   -0.2435   -0.3730 C   0  0  0  0  0  0  0  0  0  0  0  0
    5.1367    1.0557   -0.5036 C   0  0  0  0  0  0  0  0  0  0  0  0
    4.1087    2.0114   -0.6011 C   0  0  0  0  0  0  0  0  0  0  0  0
    2.7823    1.6596   -0.5671 C   0  0  0  0  0  0  0  0  0  0  0  0
    6.4021    1.5119   -0.5482 O   0  0  0  0  0  0  0  0  0  0  0  0
    7.5463    0.7759   -0.4726 C   0  0  0  0  0  0  0  0  0  0  0  0
    8.7506    1.4817   -0.5425 C   0  0  0  0  0  0  0  0  0  0  0  0
    9.9745    0.8778   -0.4802 C   0  0  0  0  0  0  0  0  0  0  0  0
   10.0364   -0.4905   -0.3421 C   0  0  0  0  0  0  0  0  0  0  0  0
    8.8386   -1.1672   -0.2751 C   0  0  0  0  0  0  0  0  0  0  0  0
    7.6530   -0.5446   -0.3393 N   0  0  0  0  0  0  0  0  0  0  0  0
   11.2789   -1.2405   -0.2650 C   0  0  0  0  0  0  0  0  0  0  0  0
   11.2943   -2.4873   -0.1392 O   0  0  0  0  0  0  0  0  0  0  0  0
   12.5265   -0.5685   -0.3313 N   0  0  0  0  0  0  0  0  0  0  0  0
    0.3466    1.3191    1.5614 C   0  0  0  0  0  0  0  0  0  0  0  0
    1.1114   -1.0353    1.8383 C   0  0  0  0  0  0  0  0  0  0  0  0
   -3.4457   -0.6851   -0.1704 C   0  0  0  0  0  0  0  0  0  0  0  0
   -4.8390   -0.5770   -0.0987 O   0  0  0  0  0  0  0  0  0  0  0  0
   -5.4969    0.4769   -0.7552 C   0  0  0  0  0  0  0  0  0  0  0  0
   -4.7464    1.4065   -1.4737 C   0  0  0  0  0  0  0  0  0  0  0  0
   -5.3377    2.4633   -2.1392 C   0  0  0  0  0  0  0  0  0  0  0  0
   -6.6994    2.6016   -2.0916 C   0  0  0  0  0  0  0  0  0  0  0  0
   -7.4241    1.6794   -1.3809 C   0  0  0  0  0  0  0  0  0  0  0  0
   -6.8574    0.6175   -0.7094 C   0  0  0  0  0  0  0  0  0  0  0  0
   -7.8624   -0.0996   -0.1105 C   0  0  0  0  0  0  0  0  0  0  0  0
   -7.8413   -1.2362    0.6697 C   0  0  0  0  0  0  0  0  0  0  0  0
   -9.0303   -1.7374    1.1393 C   0  0  0  0  0  0  0  0  0  0  0  0
  -10.2012   -1.0802    0.8096 C   0  0  0  0  0  0  0  0  0  0  0  0
  -10.2396    0.0548    0.0324 C   0  0  0  0  0  0  0  0  0  0  0  0
   -9.0419    0.5480   -0.4326 C   0  0  0  0  0  0  0  0  0  0  0  0
   -8.7612    1.6195   -1.1996 N   0  0  0  0  0  0  0  0  0  0  0  0
   -2.6279   -3.7391    0.2316 H   0  0  0  0  0  0  0  0  0  0  0  0
   -3.1054   -1.7060    1.6580 H   0  0  0  0  0  0  0  0  0  0  0  0
   -0.8987   -2.6050    0.9915 H   0  0  0  0  0  0  0  0  0  0  0  0
   -1.1976   -1.8217   -0.6546 H   0  0  0  0  0  0  0  0  0  0  0  0
   -1.3678   -0.4423    1.9583 H   0  0  0  0  0  0  0  0  0  0  0  0
    0.3160    0.5710   -1.0546 H   0  0  0  0  0  0  0  0  0  0  0  0
    0.8887   -1.0769   -0.8105 H   0  0  0  0  0  0  0  0  0  0  0  0
    3.0841   -1.6285   -0.2351 H   0  0  0  0  0  0  0  0  0  0  0  0
    5.4142   -1.0523   -0.2907 H   0  0  0  0  0  0  0  0  0  0  0  0
    4.3395    3.0695   -0.7076 H   0  0  0  0  0  0  0  0  0  0  0  0
    2.0295    2.4156   -0.6442 H   0  0  0  0  0  0  0  0  0  0  0  0
    8.7449    2.5672   -0.6520 H   0  0  0  0  0  0  0  0  0  0  0  0
   10.8965    1.4259   -0.5344 H   0  0  0  0  0  0  0  0  0  0  0  0
    8.8308   -2.2467   -0.1662 H   0  0  0  0  0  0  0  0  0  0  0  0
   12.7771    0.0681    0.4529 H   0  0  0  0  0  0  0  0  0  0  0  0
   13.1972   -0.6862   -1.1282 H   0  0  0  0  0  0  0  0  0  0  0  0
    0.1081    2.0892    0.8107 H   0  0  0  0  0  0  0  0  0  0  0  0
   -0.4172    1.4516    2.3578 H   0  0  0  0  0  0  0  0  0  0  0  0
    1.3263    1.4459    2.0495 H   0  0  0  0  0  0  0  0  0  0  0  0
    2.1705   -0.7484    1.9424 H   0  0  0  0  0  0  0  0  0  0  0  0
    1.1026   -2.0219    1.3455 H   0  0  0  0  0  0  0  0  0  0  0  0
    0.6823   -1.1217    2.8569 H   0  0  0  0  0  0  0  0  0  0  0  0
   -2.9816    0.2640    0.1623 H   0  0  0  0  0  0  0  0  0  0  0  0
   -3.1961   -0.7658   -1.2648 H   0  0  0  0  0  0  0  0  0  0  0  0
   -3.6647    1.2826   -1.5018 H   0  0  0  0  0  0  0  0  0  0  0  0
   -4.6980    3.1407   -2.6725 H   0  0  0  0  0  0  0  0  0  0  0  0
   -7.1398    3.4342   -2.6186 H   0  0  0  0  0  0  0  0  0  0  0  0
   -6.8953   -1.7047    0.8930 H   0  0  0  0  0  0  0  0  0  0  0  0
   -8.9976   -2.6210    1.7441 H   0  0  0  0  0  0  0  0  0  0  0  0
  -11.1412   -1.4850    1.1868 H   0  0  0  0  0  0  0  0  0  0  0  0
  -11.1664    0.5516   -0.2124 H   0  0  0  0  0  0  0  0  0  0  0  0
   -9.4642    2.2877   -1.5858 H   0  0  0  0  0  0  0  0  0  0  0  0
  1  2  1  0
  2  3  1  0
  3  4  1  0
  4  5  1  0
  5  6  1  0
  6  7  1  0
  7  8  2  0
  8  9  1  0
  9 10  2  0
 10 11  1  0
 11 12  2  0
 10 13  1  0
 13 14  1  0
 14 15  2  0
 15 16  1  0
 16 17  2  0
 17 18  1  0
 18 19  2  0
 17 20  1  0
 20 21  2  0
 20 22  1  0
  5 23  1  0
  5 24  1  0
  2 25  1  0
 25 26  1  0
 26 27  1  0
 27 28  2  0
 28 29  1  0
 29 30  2  0
 30 31  1  0
 31 32  2  0
 32 33  1  0
 33 34  2  0
 34 35  1  0
 35 36  2  0
 36 37  1  0
 37 38  2  0
 38 39  1  0
 12  7  1  0
 19 14  1  0
 32 27  1  0
 38 33  1  0
 39 31  1  0
  1 40  1  0
  2 41  1  1
  3 42  1  0
  3 43  1  0
  4 44  1  0
  6 45  1  0
  6 46  1  0
  8 47  1  0
  9 48  1  0
 11 49  1  0
 12 50  1  0
 15 51  1  0
 16 52  1  0
 18 53  1  0
 22 54  1  0
 22 55  1  0
 23 56  1  0
 23 57  1  0
 23 58  1  0
 24 59  1  0
 24 60  1  0
 24 61  1  0
 25 62  1  0
 25 63  1  0
 28 64  1  0
 29 65  1  0
 30 66  1  0
 34 67  1  0
 35 68  1  0
 36 69  1  0
 37 70  1  0
 39 71  1  0
M  END
>  <Ligand ID>  (1) 
LIG0001483

>  <Ligand>  (1) 
LY-377604

>  <SMILES>  (1) 
O[C@@H](CNC(Cc1ccc(cc1)Oc1ccc(cn1)C(=O)N)(C)C)COc1cccc2c1c1ccccc1[nH]2

>  <CID>  (1) 
9849699.0

>  <ChEMBL ID>  (1) 
nan

>  <InChiKey>  (1) 
RBSGUQYXRDKPAE-QFIPXVFZSA-N

>  <InChi>  (1) 
InChI=1S/C31H32N4O4/c1-31(2,16-20-10-13-23(14-11-20)39-28-15-12-21(17-33-28)30(32)37)34-18-22(36)19-38-27-9-5-8-26-29(27)24-6-3-4-7-25(24)35-26/h3-15,17,22,34-36H,16,18-19H2,1-2H3,(H2,32,37)/t22-/m0/s1

>  <IUPAC Name>  (1) 
6-[4-[2-[[(2S)-3-(9H-carbazol-4-yloxy)-2-hydroxypropyl]amino]-2-methylpropyl]phenoxy]pyridine-3-carboxamide

$$$$
