
     RDKit          3D

 39 41  0  0  0  0  0  0  0  0999 V2000
   -1.6760    2.4514    0.8709 O   0  0  0  0  0  0  0  0  0  0  0  0
   -1.4491    1.1926    1.4534 C   0  0  1  0  0  0  0  0  0  0  0  0
   -2.6850    0.3653    1.1125 C   0  0  1  0  0  0  0  0  0  0  0  0
   -3.2027    0.6247   -0.2879 C   0  0  1  0  0  0  0  0  0  0  0  0
   -2.3184   -0.5408    0.0092 C   0  0  1  0  0  0  0  0  0  0  0  0
   -0.8609   -0.3322   -0.3154 C   0  0  2  0  0  0  0  0  0  0  0  0
   -0.2860    0.4724    0.8433 C   0  0  2  0  0  0  0  0  0  0  0  0
    0.5495   -0.1774    1.6413 O   0  0  0  0  0  0  0  0  0  0  0  0
    1.8380    0.0703    1.8231 C   0  0  0  0  0  0  0  0  0  0  0  0
    2.7170   -0.0222    0.6260 C   0  0  0  0  0  0  0  0  0  0  0  0
    3.3137   -1.2434    0.2919 C   0  0  0  0  0  0  0  0  0  0  0  0
    4.1337   -1.3820   -0.8006 C   0  0  0  0  0  0  0  0  0  0  0  0
    4.3971   -0.3108   -1.6105 C   0  0  0  0  0  0  0  0  0  0  0  0
    3.8146    0.8949   -1.2897 C   0  0  0  0  0  0  0  0  0  0  0  0
    2.9887    1.0509   -0.1960 C   0  0  0  0  0  0  0  0  0  0  0  0
    4.1247    2.3077   -2.3055 Cl  0  0  0  0  0  0  0  0  0  0  0  0
    5.4442   -0.4795   -3.0091 Cl  0  0  0  0  0  0  0  0  0  0  0  0
   -0.8383    0.4225   -1.5688 N   0  0  0  0  0  0  0  0  0  0  0  0
   -0.2024   -1.6142   -0.5546 C   0  0  0  0  0  0  0  0  0  0  0  0
    0.2769   -1.9284   -1.6932 O   0  0  0  0  0  0  0  0  0  0  0  0
   -0.0976   -2.5275    0.5133 O   0  0  0  0  0  0  0  0  0  0  0  0
   -4.6332    0.2730   -0.5188 C   0  0  0  0  0  0  0  0  0  0  0  0
   -5.3038    0.9782   -1.3102 O   0  0  0  0  0  0  0  0  0  0  0  0
   -5.1940   -0.8055    0.1294 O   0  0  0  0  0  0  0  0  0  0  0  0
   -0.8016    2.8003    0.5757 H   0  0  0  0  0  0  0  0  0  0  0  0
   -1.4362    1.3368    2.5267 H   0  0  0  0  0  0  0  0  0  0  0  0
   -3.3628    0.0455    1.9118 H   0  0  0  0  0  0  0  0  0  0  0  0
   -2.8590    1.5047   -0.8572 H   0  0  0  0  0  0  0  0  0  0  0  0
   -2.7195   -1.5521   -0.1033 H   0  0  0  0  0  0  0  0  0  0  0  0
    0.3130    1.2747    0.3519 H   0  0  0  0  0  0  0  0  0  0  0  0
    2.1291    1.0029    2.3373 H   0  0  0  0  0  0  0  0  0  0  0  0
    2.2100   -0.7297    2.5325 H   0  0  0  0  0  0  0  0  0  0  0  0
    3.1017   -2.1022    0.9423 H   0  0  0  0  0  0  0  0  0  0  0  0
    4.5633   -2.3476   -1.0057 H   0  0  0  0  0  0  0  0  0  0  0  0
    2.5666    2.0025    0.0060 H   0  0  0  0  0  0  0  0  0  0  0  0
   -0.8550    1.4527   -1.4164 H   0  0  0  0  0  0  0  0  0  0  0  0
   -1.6356    0.0796   -2.1500 H   0  0  0  0  0  0  0  0  0  0  0  0
    0.1138   -3.4933    0.2302 H   0  0  0  0  0  0  0  0  0  0  0  0
   -6.1782   -1.0149    0.0380 H   0  0  0  0  0  0  0  0  0  0  0  0
  1  2  1  0
  2  3  1  0
  3  4  1  0
  4  5  1  0
  5  6  1  0
  6  7  1  0
  7  8  1  0
  8  9  1  0
  9 10  1  0
 10 11  2  0
 11 12  1  0
 12 13  2  0
 13 14  1  0
 14 15  2  0
 14 16  1  0
 13 17  1  0
  6 18  1  6
  6 19  1  0
 19 20  2  0
 19 21  1  0
  4 22  1  0
 22 23  2  0
 22 24  1  0
  7  2  1  0
 15 10  1  0
  5  3  1  0
  1 25  1  0
  2 26  1  1
  3 27  1  1
  4 28  1  6
  5 29  1  1
  7 30  1  6
  9 31  1  0
  9 32  1  0
 11 33  1  0
 12 34  1  0
 15 35  1  0
 18 36  1  0
 18 37  1  0
 21 38  1  0
 24 39  1  0
M  END
>  <Ligand ID>  (1) 
LIG0000496

>  <Ligand>  (1) 
CHEMBL3947221

>  <SMILES>  (1) 
O[C@H]1[C@H]2[C@@H]([C@H]2[C@]([C@@H]1OCc1ccc(c(c1)Cl)Cl)(N)C(=O)O)C(=O)O

>  <CID>  (1) 
57338826.0

>  <ChEMBL ID>  (1) 
nan

>  <InChiKey>  (1) 
WNOZOUHFGZKGNT-ANYOLZDRSA-N

>  <InChi>  (1) 
InChI=1S/C15H15Cl2NO6/c16-6-2-1-5(3-7(6)17)4-24-12-11(19)8-9(13(20)21)10(8)15(12,18)14(22)23/h1-3,8-12,19H,4,18H2,(H,20,21)(H,22,23)/t8-,9-,10-,11-,12+,15+/m0/s1

>  <IUPAC Name>  (1) 
(1S,2R,3S,4S,5R,6R)-2-amino-3-[(3,4-dichlorophenyl)methoxy]-4-hydroxybicyclo[3.1.0]hexane-2,6-dicarboxylic acid

$$$$
