
     RDKit          3D

 70 74  0  0  0  0  0  0  0  0999 V2000
    0.4136    1.7468    0.9296 C   0  0  0  0  0  0  0  0  0  0  0  0
    0.0220    0.8847   -0.2669 C   0  0  2  0  0  0  0  0  0  0  0  0
    1.1811    0.4664   -1.1114 C   0  0  0  0  0  0  0  0  0  0  0  0
    2.2240   -0.3101   -0.3713 C   0  0  0  0  0  0  0  0  0  0  0  0
    2.3640   -1.6987   -0.2989 C   0  0  0  0  0  0  0  0  0  0  0  0
    3.4071   -2.0030    0.4924 N   0  0  0  0  0  0  0  0  0  0  0  0
    3.9757   -0.8854    0.9547 C   0  0  0  0  0  0  0  0  0  0  0  0
    3.2510    0.1671    0.4256 C   0  0  0  0  0  0  0  0  0  0  0  0
    3.6720    1.4348    0.7631 C   0  0  0  0  0  0  0  0  0  0  0  0
    4.7541    1.6842    1.5841 C   0  0  0  0  0  0  0  0  0  0  0  0
    5.4368    0.5942    2.0824 C   0  0  0  0  0  0  0  0  0  0  0  0
    5.0720   -0.6935    1.7862 C   0  0  0  0  0  0  0  0  0  0  0  0
    5.8008   -1.7214    2.3200 O   0  0  0  0  0  0  0  0  0  0  0  0
    7.1431   -2.3691    1.5104 S   0  0  0  0  0  0  0  0  0  0  0  0
    6.7824   -3.5927    0.7174 O   0  0  0  0  0  0  0  0  0  0  0  0
    8.1480   -2.7848    2.5682 O   0  0  0  0  0  0  0  0  0  0  0  0
    7.9071   -1.2175    0.4445 C   0  0  0  0  0  0  0  0  0  0  0  0
    7.5302   -1.0780   -0.8806 C   0  0  0  0  0  0  0  0  0  0  0  0
    8.1439   -0.1586   -1.7252 C   0  0  0  0  0  0  0  0  0  0  0  0
    9.1531    0.6199   -1.1934 C   0  0  0  0  0  0  0  0  0  0  0  0
    9.5645    0.5216    0.1104 C   0  0  0  0  0  0  0  0  0  0  0  0
    8.9265   -0.4087    0.9222 C   0  0  0  0  0  0  0  0  0  0  0  0
   -0.8840    1.6844   -1.0566 N   0  0  0  0  0  0  0  0  0  0  0  0
   -1.2946    1.0054   -2.2388 C   0  0  0  0  0  0  0  0  0  0  0  0
   -2.1604   -0.1748   -1.9041 C   0  0  1  0  0  0  0  0  0  0  0  0
   -3.4935    0.3287   -1.4331 C   0  0  0  0  0  0  0  0  0  0  0  0
   -3.7494    1.6162   -1.0685 C   0  0  0  0  0  0  0  0  0  0  0  0
   -5.0195    1.9732   -0.6519 C   0  0  0  0  0  0  0  0  0  0  0  0
   -5.9955    1.0003   -0.6206 C   0  0  0  0  0  0  0  0  0  0  0  0
   -5.8030   -0.3051   -0.9721 C   0  0  0  0  0  0  0  0  0  0  0  0
   -4.5007   -0.6355   -1.3908 C   0  0  0  0  0  0  0  0  0  0  0  0
   -6.7417   -1.3332   -0.9997 N   0  0  0  0  0  0  0  0  0  0  0  0
   -7.7737   -1.9098    0.2214 S   0  0  0  0  0  0  0  0  0  0  0  0
   -6.9185   -2.4013    1.4099 O   0  0  0  0  0  0  0  0  0  0  0  0
   -8.5335   -3.1329   -0.2542 O   0  0  0  0  0  0  0  0  0  0  0  0
   -8.9267   -0.8321    0.8772 C   0  0  0  0  0  0  0  0  0  0  0  0
  -10.3361   -0.8196    0.7780 C   0  0  0  0  0  0  0  0  0  0  0  0
  -11.0281    0.1223    1.3642 C   0  0  0  0  0  0  0  0  0  0  0  0
  -10.4184    1.1325    2.0963 C   0  0  0  0  0  0  0  0  0  0  0  0
   -8.5894    0.6522    1.9103 S   0  0  0  0  0  0  0  0  0  0  0  0
   -2.4789   -0.8514   -3.1109 O   0  0  0  0  0  0  0  0  0  0  0  0
    0.9572    1.1709    1.6897 H   0  0  0  0  0  0  0  0  0  0  0  0
   -0.5775    1.9879    1.4203 H   0  0  0  0  0  0  0  0  0  0  0  0
    0.8268    2.7103    0.6437 H   0  0  0  0  0  0  0  0  0  0  0  0
   -0.4576   -0.0215    0.1590 H   0  0  0  0  0  0  0  0  0  0  0  0
    0.7603   -0.2998   -1.8358 H   0  0  0  0  0  0  0  0  0  0  0  0
    1.5961    1.2645   -1.7291 H   0  0  0  0  0  0  0  0  0  0  0  0
    1.7026   -2.3774   -0.8224 H   0  0  0  0  0  0  0  0  0  0  0  0
    3.7545   -2.9645    0.7352 H   0  0  0  0  0  0  0  0  0  0  0  0
    3.1565    2.2938    0.3746 H   0  0  0  0  0  0  0  0  0  0  0  0
    5.0522    2.7121    1.8252 H   0  0  0  0  0  0  0  0  0  0  0  0
    6.2822    0.8046    2.7240 H   0  0  0  0  0  0  0  0  0  0  0  0
    6.7307   -1.7125   -1.2583 H   0  0  0  0  0  0  0  0  0  0  0  0
    7.8568   -0.0412   -2.7616 H   0  0  0  0  0  0  0  0  0  0  0  0
    9.6620    1.3535   -1.8153 H   0  0  0  0  0  0  0  0  0  0  0  0
   10.3487    1.1151    0.5530 H   0  0  0  0  0  0  0  0  0  0  0  0
    9.2504   -0.4883    1.9569 H   0  0  0  0  0  0  0  0  0  0  0  0
   -0.5301    2.6524   -1.1883 H   0  0  0  0  0  0  0  0  0  0  0  0
   -1.9237    1.7665   -2.8113 H   0  0  0  0  0  0  0  0  0  0  0  0
   -0.4431    0.7311   -2.9216 H   0  0  0  0  0  0  0  0  0  0  0  0
   -1.6696   -0.8446   -1.2054 H   0  0  0  0  0  0  0  0  0  0  0  0
   -3.0187    2.4040   -1.0871 H   0  0  0  0  0  0  0  0  0  0  0  0
   -5.2387    2.9959   -0.3572 H   0  0  0  0  0  0  0  0  0  0  0  0
   -6.9763    1.3104   -0.3182 H   0  0  0  0  0  0  0  0  0  0  0  0
   -4.2880   -1.6690   -1.6850 H   0  0  0  0  0  0  0  0  0  0  0  0
   -6.8215   -1.8383   -1.9516 H   0  0  0  0  0  0  0  0  0  0  0  0
  -10.7854   -1.6491    0.1796 H   0  0  0  0  0  0  0  0  0  0  0  0
  -12.1551    0.1709    1.3092 H   0  0  0  0  0  0  0  0  0  0  0  0
  -10.7032    1.9417    2.6231 H   0  0  0  0  0  0  0  0  0  0  0  0
   -2.5758   -1.7971   -2.8628 H   0  0  0  0  0  0  0  0  0  0  0  0
  1  2  1  0
  2  3  1  0
  3  4  1  0
  4  5  2  0
  5  6  1  0
  6  7  1  0
  7  8  2  0
  8  9  1  0
  9 10  2  0
 10 11  1  0
 11 12  2  0
 12 13  1  0
 13 14  1  0
 14 15  2  0
 14 16  2  0
 14 17  1  0
 17 18  2  0
 18 19  1  0
 19 20  2  0
 20 21  1  0
 21 22  2  0
  2 23  1  0
 23 24  1  0
 24 25  1  0
 25 26  1  0
 26 27  2  0
 27 28  1  0
 28 29  2  0
 29 30  1  0
 30 31  2  0
 30 32  1  0
 32 33  1  0
 33 34  2  0
 33 35  2  0
 33 36  1  0
 36 37  2  0
 37 38  1  0
 38 39  2  0
 39 40  1  0
 25 41  1  0
  8  4  1  0
 22 17  1  0
 31 26  1  0
 40 36  1  0
 12  7  1  0
  1 42  1  0
  1 43  1  0
  1 44  1  0
  2 45  1  1
  3 46  1  0
  3 47  1  0
  5 48  1  0
  6 49  1  0
  9 50  1  0
 10 51  1  0
 11 52  1  0
 18 53  1  0
 19 54  1  0
 20 55  1  0
 21 56  1  0
 22 57  1  0
 23 58  1  0
 24 59  1  0
 24 60  1  0
 25 61  1  1
 27 62  1  0
 28 63  1  0
 29 64  1  0
 31 65  1  0
 32 66  1  0
 37 67  1  0
 38 68  1  0
 39 69  1  0
 41 70  1  0
M  END
>  <Ligand ID>  (1) 
LIG0002227

>  <Ligand>  (1) 
CHEMBL187209

>  <SMILES>  (1) 
C[C@H](Cc1c[nH]c2c1cccc2OS(=O)(=O)c1ccccc1)NC[C@@H](c1cccc(c1)NS(=O)(=O)c1cccs1)O

>  <CID>  (1) 
44396779.0

>  <ChEMBL ID>  (1) 
nan

>  <InChiKey>  (1) 
GCQVZQCNVVPWFA-IBVKSMDESA-N

>  <InChi>  (1) 
InChI=1S/C29H29N3O6S3/c1-20(30-19-26(33)21-8-5-9-23(17-21)32-40(34,35)28-14-7-15-39-28)16-22-18-31-29-25(22)12-6-13-27(29)38-41(36,37)24-10-3-2-4-11-24/h2-15,17-18,20,26,30-33H,16,19H2,1H3/t20-,26+/m1/s1

>  <IUPAC Name>  (1) 
[3-[(2R)-2-[[(2R)-2-hydroxy-2-[3-(thiophen-2-ylsulfonylamino)phenyl]ethyl]amino]propyl]-1H-indol-7-yl] benzenesulfonate

$$$$
