
     RDKit          3D

 26 27  0  0  0  0  0  0  0  0999 V2000
    1.7363    1.2994    1.6253 C   0  0  0  0  0  0  0  0  0  0  0  0
    1.2777    0.4755    0.7102 C   0  0  0  0  0  0  0  0  0  0  0  0
    1.8983    0.4333   -0.6575 C   0  0  0  0  0  0  0  0  0  0  0  0
    0.7948    0.0914   -1.6208 C   0  0  0  0  0  0  0  0  0  0  0  0
   -0.2603   -0.7813   -1.0215 C   0  0  1  0  0  0  0  0  0  0  0  0
    0.3460   -1.6570    0.0655 C   0  0  0  0  0  0  0  0  0  0  0  0
    0.1493   -0.4372    0.9686 C   0  0  2  0  0  0  0  0  0  0  0  0
   -1.0316   -0.1173    0.0940 C   0  0  0  0  0  0  0  0  0  0  0  0
   -1.3129    1.3378   -0.1251 C   0  0  0  0  0  0  0  0  0  0  0  0
   -2.2342   -0.9175    0.4632 C   0  0  0  0  0  0  0  0  0  0  0  0
    1.3429    1.3902    2.6363 H   0  0  0  0  0  0  0  0  0  0  0  0
    2.5723    1.9566    1.3907 H   0  0  0  0  0  0  0  0  0  0  0  0
    2.3165    1.4230   -0.9373 H   0  0  0  0  0  0  0  0  0  0  0  0
    2.7248   -0.2757   -0.6244 H   0  0  0  0  0  0  0  0  0  0  0  0
    0.3872    1.0311   -2.0543 H   0  0  0  0  0  0  0  0  0  0  0  0
    1.2442   -0.4793   -2.4578 H   0  0  0  0  0  0  0  0  0  0  0  0
   -0.8776   -1.3128   -1.7554 H   0  0  0  0  0  0  0  0  0  0  0  0
   -0.3216   -2.5018    0.3035 H   0  0  0  0  0  0  0  0  0  0  0  0
    1.3767   -1.9731   -0.0842 H   0  0  0  0  0  0  0  0  0  0  0  0
   -0.0833   -0.6696    2.0226 H   0  0  0  0  0  0  0  0  0  0  0  0
   -1.9898    1.4033   -1.0269 H   0  0  0  0  0  0  0  0  0  0  0  0
   -0.4129    1.9181   -0.3160 H   0  0  0  0  0  0  0  0  0  0  0  0
   -1.8957    1.7218    0.7142 H   0  0  0  0  0  0  0  0  0  0  0  0
   -3.0196   -0.2414    0.8895 H   0  0  0  0  0  0  0  0  0  0  0  0
   -2.0516   -1.7079    1.2233 H   0  0  0  0  0  0  0  0  0  0  0  0
   -2.6759   -1.4097   -0.4255 H   0  0  0  0  0  0  0  0  0  0  0  0
  1  2  2  0
  2  3  1  0
  3  4  1  0
  4  5  1  0
  5  6  1  0
  6  7  1  0
  7  8  1  0
  8  9  1  0
  8 10  1  0
  7  2  1  0
  8  5  1  0
  1 11  1  0
  1 12  1  0
  3 13  1  0
  3 14  1  0
  4 15  1  0
  4 16  1  0
  5 17  1  6
  6 18  1  0
  6 19  1  0
  7 20  1  1
  9 21  1  0
  9 22  1  0
  9 23  1  0
 10 24  1  0
 10 25  1  0
 10 26  1  0
M  END
>  <Ligand ID>  (1) 
LIG0000723

>  <Ligand>  (1) 
(-)-beta-Pinene

>  <SMILES>  (1) 
C=C1CC[C@H]2C[C@@H]1C2(C)C

>  <CID>  (1) 
440967.0

>  <ChEMBL ID>  (1) 
nan

>  <InChiKey>  (1) 
WTARULDDTDQWMU-IUCAKERBSA-N

>  <InChi>  (1) 
InChI=1S/C10H16/c1-7-4-5-8-6-9(7)10(8,2)3/h8-9H,1,4-6H2,2-3H3/t8-,9-/m0/s1

>  <IUPAC Name>  (1) 
(1S,5S)-6,6-dimethyl-2-methylidenebicyclo[3.1.1]heptane

$$$$
