
     RDKit          3D

 50 52  0  0  0  0  0  0  0  0999 V2000
   -4.6721    3.2954    0.8040 Cl  0  0  0  0  0  0  0  0  0  0  0  0
   -5.5715    1.8202    0.4242 C   0  0  0  0  0  0  0  0  0  0  0  0
   -6.8788    1.9417    0.0300 C   0  0  0  0  0  0  0  0  0  0  0  0
   -7.5709    0.7759   -0.2646 C   0  0  0  0  0  0  0  0  0  0  0  0
   -6.9909   -0.4714   -0.1731 C   0  0  0  0  0  0  0  0  0  0  0  0
   -5.6663   -0.5874    0.2269 C   0  0  0  0  0  0  0  0  0  0  0  0
   -4.9947    0.5735    0.5149 C   0  0  0  0  0  0  0  0  0  0  0  0
   -5.0540   -1.9386    0.3200 C   0  0  2  0  0  0  0  0  0  0  0  0
   -3.5461   -1.8309    0.4131 C   0  0  0  0  0  0  0  0  0  0  0  0
   -2.9707   -1.1514   -0.7010 N   0  0  0  0  0  0  0  0  0  0  0  0
   -1.5519   -1.0157   -0.6925 C   0  0  0  0  0  0  0  0  0  0  0  0
   -1.1312   -0.0754    0.4061 C   0  0  0  0  0  0  0  0  0  0  0  0
    0.3554    0.0061    0.3345 C   0  0  0  0  0  0  0  0  0  0  0  0
    0.9186    0.9773   -0.4675 C   0  0  0  0  0  0  0  0  0  0  0  0
    2.3040    1.1179   -0.5882 C   0  0  0  0  0  0  0  0  0  0  0  0
    3.1131    0.2539    0.1204 C   0  0  0  0  0  0  0  0  0  0  0  0
    2.5620   -0.7246    0.9282 C   0  0  0  0  0  0  0  0  0  0  0  0
    1.1749   -0.8591    1.0440 C   0  0  0  0  0  0  0  0  0  0  0  0
    4.5709    0.4093   -0.0139 C   0  0  0  0  0  0  0  0  0  0  0  0
    5.1080    0.8561   -1.2030 C   0  0  0  0  0  0  0  0  0  0  0  0
    6.4813    1.0006   -1.3219 C   0  0  0  0  0  0  0  0  0  0  0  0
    7.3104    0.7027   -0.2660 C   0  0  0  0  0  0  0  0  0  0  0  0
    6.7709    0.2495    0.9412 C   0  0  0  0  0  0  0  0  0  0  0  0
    5.4004    0.1096    1.0472 C   0  0  0  0  0  0  0  0  0  0  0  0
    7.6009   -0.0440    1.9834 F   0  0  0  0  0  0  0  0  0  0  0  0
    8.7523    0.8705   -0.4369 C   0  0  0  0  0  0  0  0  0  0  0  0
    9.2545    1.2815   -1.5311 O   0  0  0  0  0  0  0  0  0  0  0  0
    9.6447    0.5898    0.5863 O   0  0  0  0  0  0  0  0  0  0  0  0
   -5.3960   -2.6344   -0.8166 O   0  0  0  0  0  0  0  0  0  0  0  0
   -7.3458    2.9272   -0.0452 H   0  0  0  0  0  0  0  0  0  0  0  0
   -8.6088    0.8639   -0.5781 H   0  0  0  0  0  0  0  0  0  0  0  0
   -7.5666   -1.3527   -0.4123 H   0  0  0  0  0  0  0  0  0  0  0  0
   -3.9484    0.5156    0.8329 H   0  0  0  0  0  0  0  0  0  0  0  0
   -5.4592   -2.3942    1.2384 H   0  0  0  0  0  0  0  0  0  0  0  0
   -3.1164   -2.8543    0.4294 H   0  0  0  0  0  0  0  0  0  0  0  0
   -3.2290   -1.3403    1.3479 H   0  0  0  0  0  0  0  0  0  0  0  0
   -3.4038   -1.3340   -1.6184 H   0  0  0  0  0  0  0  0  0  0  0  0
   -1.2316   -0.6691   -1.6882 H   0  0  0  0  0  0  0  0  0  0  0  0
   -1.0108   -1.9694   -0.5119 H   0  0  0  0  0  0  0  0  0  0  0  0
   -1.5281    0.9574    0.2792 H   0  0  0  0  0  0  0  0  0  0  0  0
   -1.4376   -0.4159    1.4037 H   0  0  0  0  0  0  0  0  0  0  0  0
    0.2624    1.6466   -1.0165 H   0  0  0  0  0  0  0  0  0  0  0  0
    2.6720    1.8918   -1.2272 H   0  0  0  0  0  0  0  0  0  0  0  0
    3.2111   -1.3911    1.4745 H   0  0  0  0  0  0  0  0  0  0  0  0
    0.7443   -1.6164    1.6694 H   0  0  0  0  0  0  0  0  0  0  0  0
    4.4800    1.1014   -2.0618 H   0  0  0  0  0  0  0  0  0  0  0  0
    6.9323    1.3518   -2.2481 H   0  0  0  0  0  0  0  0  0  0  0  0
    4.9671   -0.2444    1.9875 H   0  0  0  0  0  0  0  0  0  0  0  0
   10.6054    0.9034    0.6220 H   0  0  0  0  0  0  0  0  0  0  0  0
   -5.3157   -2.0761   -1.6302 H   0  0  0  0  0  0  0  0  0  0  0  0
  1  2  1  0
  2  3  2  0
  3  4  1  0
  4  5  2  0
  5  6  1  0
  6  7  2  0
  6  8  1  0
  8  9  1  0
  9 10  1  0
 10 11  1  0
 11 12  1  0
 12 13  1  0
 13 14  2  0
 14 15  1  0
 15 16  2  0
 16 17  1  0
 17 18  2  0
 16 19  1  0
 19 20  2  0
 20 21  1  0
 21 22  2  0
 22 23  1  0
 23 24  2  0
 23 25  1  0
 22 26  1  0
 26 27  2  0
 26 28  1  0
  8 29  1  0
  7  2  1  0
 18 13  1  0
 24 19  1  0
  3 30  1  0
  4 31  1  0
  5 32  1  0
  7 33  1  0
  8 34  1  1
  9 35  1  0
  9 36  1  0
 10 37  1  0
 11 38  1  0
 11 39  1  0
 12 40  1  0
 12 41  1  0
 14 42  1  0
 15 43  1  0
 17 44  1  0
 18 45  1  0
 20 46  1  0
 21 47  1  0
 24 48  1  0
 28 49  1  0
 29 50  1  0
M  END
>  <Ligand ID>  (1) 
LIG0005822

>  <Ligand>  (1) 
CHEMBL271367

>  <SMILES>  (1) 
Clc1cccc(c1)[C@H](CNCCc1ccc(cc1)c1ccc(c(c1)F)C(=O)O)O

>  <CID>  (1) 
24823130.0

>  <ChEMBL ID>  (1) 
nan

>  <InChiKey>  (1) 
WBFWOCOUPSZWOW-QFIPXVFZSA-N

>  <InChi>  (1) 
InChI=1S/C23H21ClFNO3/c24-19-3-1-2-18(12-19)22(27)14-26-11-10-15-4-6-16(7-5-15)17-8-9-20(23(28)29)21(25)13-17/h1-9,12-13,22,26-27H,10-11,14H2,(H,28,29)/t22-/m0/s1

>  <IUPAC Name>  (1) 
4-[4-[2-[[(2R)-2-(3-chlorophenyl)-2-hydroxyethyl]amino]ethyl]phenyl]-2-fluorobenzoic acid

$$$$
