
     RDKit          3D

 60 65  0  0  0  0  0  0  0  0999 V2000
    1.2293   -5.4733   -1.0684 O   0  0  0  0  0  0  0  0  0  0  0  0
    1.1854   -4.2109   -0.4721 C   0  0  0  0  0  0  0  0  0  0  0  0
    1.4506   -4.0601    0.8663 C   0  0  0  0  0  0  0  0  0  0  0  0
    1.3920   -2.7918    1.3994 C   0  0  0  0  0  0  0  0  0  0  0  0
    1.0750   -1.6898    0.6100 C   0  0  0  0  0  0  0  0  0  0  0  0
    0.8197   -1.9049   -0.7190 C   0  0  0  0  0  0  0  0  0  0  0  0
    0.8624   -3.1565   -1.3121 C   0  0  0  0  0  0  0  0  0  0  0  0
    0.4790   -0.7455   -1.5653 C   0  0  2  0  0  0  0  0  0  0  0  0
    1.7506   -0.2768   -2.2145 C   0  0  0  0  0  0  0  0  0  0  0  0
    2.2778    0.9864   -1.6827 C   0  0  0  0  0  0  0  0  0  0  0  0
    2.2114    1.2052   -0.2461 N   0  0  0  0  0  0  0  0  0  0  0  0
    0.9507    0.7540    0.3002 C   0  0  2  0  0  0  0  0  0  0  0  0
    1.0408   -0.3657    1.2799 C   0  0  0  0  0  0  0  0  0  0  0  0
   -0.0265    0.4287   -0.7645 C   0  0  1  0  0  0  0  0  0  0  0  0
   -0.2465    1.4823   -1.6394 O   0  0  0  0  0  0  0  0  0  0  0  0
   -1.4116    0.0809   -0.1722 C   0  0  0  0  0  0  0  0  0  0  0  0
   -2.3000    0.2045   -1.3834 C   0  0  0  0  0  0  0  0  0  0  0  0
   -3.5302    0.6703   -1.3265 C   0  0  0  0  0  0  0  0  0  0  0  0
   -4.1747    1.1160   -0.0965 C   0  0  0  0  0  0  0  0  0  0  0  0
   -4.9273    2.2961   -0.0913 C   0  0  0  0  0  0  0  0  0  0  0  0
   -5.5265    2.6682    1.1174 C   0  0  0  0  0  0  0  0  0  0  0  0
   -5.3954    1.9202    2.2646 C   0  0  0  0  0  0  0  0  0  0  0  0
   -4.6526    0.7626    2.2428 C   0  0  0  0  0  0  0  0  0  0  0  0
   -4.0424    0.3595    1.0645 C   0  0  0  0  0  0  0  0  0  0  0  0
   -1.6701   -0.2349   -2.6455 C   0  0  0  0  0  0  0  0  0  0  0  0
   -2.1145    0.2311   -3.7326 O   0  0  0  0  0  0  0  0  0  0  0  0
   -0.5400   -1.2076   -2.5867 C   0  0  0  0  0  0  0  0  0  0  0  0
    3.3384    0.5911    0.4112 C   0  0  0  0  0  0  0  0  0  0  0  0
    3.7583    1.1313    1.7311 C   0  0  0  0  0  0  0  0  0  0  0  0
    4.2448    2.6196    1.7189 C   0  0  0  0  0  0  0  0  0  0  0  0
    3.0801    2.1825    2.5002 C   0  0  0  0  0  0  0  0  0  0  0  0
    0.6369   -6.2473   -0.8323 H   0  0  0  0  0  0  0  0  0  0  0  0
    1.6954   -4.9318    1.4615 H   0  0  0  0  0  0  0  0  0  0  0  0
    1.5981   -2.6533    2.4646 H   0  0  0  0  0  0  0  0  0  0  0  0
    0.6616   -3.3255   -2.3599 H   0  0  0  0  0  0  0  0  0  0  0  0
    1.4918   -0.1041   -3.2937 H   0  0  0  0  0  0  0  0  0  0  0  0
    2.5042   -1.0980   -2.2534 H   0  0  0  0  0  0  0  0  0  0  0  0
    1.9283    1.9069   -2.1795 H   0  0  0  0  0  0  0  0  0  0  0  0
    3.3911    0.9886   -1.8982 H   0  0  0  0  0  0  0  0  0  0  0  0
    0.4853    1.6224    0.8675 H   0  0  0  0  0  0  0  0  0  0  0  0
    1.8257   -0.2828    2.0399 H   0  0  0  0  0  0  0  0  0  0  0  0
    0.0816   -0.3580    1.8823 H   0  0  0  0  0  0  0  0  0  0  0  0
   -0.1945    2.3119   -1.1268 H   0  0  0  0  0  0  0  0  0  0  0  0
   -1.6146    0.8282    0.5907 H   0  0  0  0  0  0  0  0  0  0  0  0
   -1.3649   -0.9720    0.1813 H   0  0  0  0  0  0  0  0  0  0  0  0
   -4.0824    0.7159   -2.2628 H   0  0  0  0  0  0  0  0  0  0  0  0
   -5.0263    2.8791   -0.9820 H   0  0  0  0  0  0  0  0  0  0  0  0
   -6.1160    3.5972    1.1141 H   0  0  0  0  0  0  0  0  0  0  0  0
   -5.8799    2.2386    3.2023 H   0  0  0  0  0  0  0  0  0  0  0  0
   -4.5411    0.1526    3.1429 H   0  0  0  0  0  0  0  0  0  0  0  0
   -3.4889   -0.5512    1.0983 H   0  0  0  0  0  0  0  0  0  0  0  0
   -1.0186   -2.1692   -2.2379 H   0  0  0  0  0  0  0  0  0  0  0  0
   -0.1014   -1.3942   -3.5686 H   0  0  0  0  0  0  0  0  0  0  0  0
    3.2289   -0.5234    0.4504 H   0  0  0  0  0  0  0  0  0  0  0  0
    4.2049    0.7300   -0.3040 H   0  0  0  0  0  0  0  0  0  0  0  0
    4.4643    0.4366    2.2944 H   0  0  0  0  0  0  0  0  0  0  0  0
    5.2288    2.7905    2.1629 H   0  0  0  0  0  0  0  0  0  0  0  0
    4.0764    3.1642    0.7595 H   0  0  0  0  0  0  0  0  0  0  0  0
    2.0983    2.5447    2.1728 H   0  0  0  0  0  0  0  0  0  0  0  0
    3.2395    2.1305    3.6260 H   0  0  0  0  0  0  0  0  0  0  0  0
  1  2  1  0
  2  3  2  0
  3  4  1  0
  4  5  2  0
  5  6  1  0
  6  7  2  0
  6  8  1  0
  8  9  1  6
  9 10  1  0
 10 11  1  0
 11 12  1  0
 12 13  1  0
 12 14  1  0
 14 15  1  6
 14 16  1  0
 16 17  1  0
 17 18  2  0
 18 19  1  0
 19 20  2  0
 20 21  1  0
 21 22  2  0
 22 23  1  0
 23 24  2  0
 17 25  1  0
 25 26  2  0
 25 27  1  0
 11 28  1  0
 28 29  1  0
 29 30  1  0
 30 31  1  0
  7  2  1  0
 27  8  1  0
 31 29  1  0
 13  5  1  0
 24 19  1  0
 14  8  1  0
  1 32  1  0
  3 33  1  0
  4 34  1  0
  7 35  1  0
  9 36  1  0
  9 37  1  0
 10 38  1  0
 10 39  1  0
 12 40  1  1
 13 41  1  0
 13 42  1  0
 15 43  1  0
 16 44  1  0
 16 45  1  0
 18 46  1  0
 20 47  1  0
 21 48  1  0
 22 49  1  0
 23 50  1  0
 24 51  1  0
 27 52  1  0
 27 53  1  0
 28 54  1  0
 28 55  1  0
 29 56  1  0
 30 57  1  0
 30 58  1  0
 31 59  1  0
 31 60  1  0
M  END
>  <Ligand ID>  (1) 
LIG0002956

>  <Ligand>  (1) 
CHEMBL3786970

>  <SMILES>  (1) 
Oc1ccc2c(c1)[C@@]13CCN([C@H](C2)[C@]3(O)C/C(=C\c2ccccc2)/C(=O)C1)CC1CC1

>  <CID>  (1) 
127032211.0

>  <ChEMBL ID>  (1) 
nan

>  <InChiKey>  (1) 
IGVCBUFJKDIFNJ-ZKAOPGHISA-N

>  <InChi>  (1) 
InChI=1S/C27H29NO3/c29-22-9-8-20-13-25-27(31)15-21(12-18-4-2-1-3-5-18)24(30)16-26(27,23(20)14-22)10-11-28(25)17-19-6-7-19/h1-5,8-9,12,14,19,25,29,31H,6-7,10-11,13,15-17H2/b21-12+/t25-,26-,27-/m1/s1

>  <IUPAC Name>  (1) 
(1R,9R,10S,12E)-12-benzylidene-17-(cyclopropylmethyl)-4,10-dihydroxy-17-azatetracyclo[7.5.3.01,10.02,7]heptadeca-2(7),3,5-trien-13-one

$$$$
