
     RDKit          3D

 53 56  0  0  0  0  0  0  0  0999 V2000
    8.9304   -1.6359    0.1985 C   0  0  0  0  0  0  0  0  0  0  0  0
    7.9254   -0.6208   -0.1148 N   0  0  0  0  0  0  0  0  0  0  0  0
    6.5669   -0.8190    0.2513 C   0  0  0  0  0  0  0  0  0  0  0  0
    6.2109   -1.8789    0.8543 O   0  0  0  0  0  0  0  0  0  0  0  0
    5.5859    0.2174   -0.0775 C   0  0  0  0  0  0  0  0  0  0  0  0
    5.9643    1.3484   -0.7208 N   0  0  0  0  0  0  0  0  0  0  0  0
    5.1234    2.3211   -1.0453 C   0  0  0  0  0  0  0  0  0  0  0  0
    3.7930    2.1739   -0.7101 C   0  0  0  0  0  0  0  0  0  0  0  0
    3.3646    1.0291   -0.0500 C   0  0  0  0  0  0  0  0  0  0  0  0
    4.2550    0.0280    0.2790 C   0  0  0  0  0  0  0  0  0  0  0  0
    1.9181    0.9455    0.2760 C   0  0  0  0  0  0  0  0  0  0  0  0
    1.0555    0.1545   -1.1050 S   0  0  0  0  0  0  0  0  0  0  0  0
   -0.7007    0.0163   -0.7876 C   0  0  0  0  0  0  0  0  0  0  0  0
   -1.4819    1.0368   -1.1720 N   0  0  0  0  0  0  0  0  0  0  0  0
   -2.8022    1.0990   -1.0141 C   0  0  0  0  0  0  0  0  0  0  0  0
   -3.6011    2.1929   -1.4296 N   0  0  0  0  0  0  0  0  0  0  0  0
   -3.2174    3.4385   -2.1063 C   0  0  0  0  0  0  0  0  0  0  0  0
   -4.3972    4.0933   -1.4233 C   0  0  0  0  0  0  0  0  0  0  0  0
   -4.9419    2.6577   -1.4474 C   0  0  0  0  0  0  0  0  0  0  0  0
   -3.9953    4.5095   -0.1524 O   0  0  0  0  0  0  0  0  0  0  0  0
   -3.4139    0.0137   -0.4000 C   0  0  0  0  0  0  0  0  0  0  0  0
   -2.6318   -1.0704    0.0152 C   0  0  0  0  0  0  0  0  0  0  0  0
   -1.2624   -1.0841   -0.1732 C   0  0  0  0  0  0  0  0  0  0  0  0
   -0.4227   -2.1660    0.2327 C   0  0  0  0  0  0  0  0  0  0  0  0
    0.2444   -3.0435    0.5450 N   0  0  0  0  0  0  0  0  0  0  0  0
   -3.2407   -2.2343    0.6674 C   0  0  0  0  0  0  0  0  0  0  0  0
   -3.3497   -2.2092    2.0487 C   0  0  0  0  0  0  0  0  0  0  0  0
   -3.9113   -3.2662    2.7391 C   0  0  0  0  0  0  0  0  0  0  0  0
   -4.3542   -4.3367    1.9991 C   0  0  0  0  0  0  0  0  0  0  0  0
   -4.2634   -4.3986    0.6258 C   0  0  0  0  0  0  0  0  0  0  0  0
   -3.6968   -3.3267   -0.0405 C   0  0  0  0  0  0  0  0  0  0  0  0
   -4.8144   -0.0687   -0.1629 C   0  0  0  0  0  0  0  0  0  0  0  0
   -5.9377   -0.1510    0.0394 N   0  0  0  0  0  0  0  0  0  0  0  0
    9.9524   -1.1745    0.2092 H   0  0  0  0  0  0  0  0  0  0  0  0
    8.9156   -2.3835   -0.6193 H   0  0  0  0  0  0  0  0  0  0  0  0
    8.7654   -2.0831    1.2050 H   0  0  0  0  0  0  0  0  0  0  0  0
    8.2229    0.2533   -0.6126 H   0  0  0  0  0  0  0  0  0  0  0  0
    5.4114    3.2246   -1.5565 H   0  0  0  0  0  0  0  0  0  0  0  0
    3.0973    2.9678   -0.9730 H   0  0  0  0  0  0  0  0  0  0  0  0
    3.9145   -0.8519    0.7886 H   0  0  0  0  0  0  0  0  0  0  0  0
    1.7750    0.3640    1.2161 H   0  0  0  0  0  0  0  0  0  0  0  0
    1.5382    1.9748    0.4680 H   0  0  0  0  0  0  0  0  0  0  0  0
   -2.2172    3.8276   -1.8171 H   0  0  0  0  0  0  0  0  0  0  0  0
   -3.3919    3.3669   -3.2188 H   0  0  0  0  0  0  0  0  0  0  0  0
   -4.9698    4.8206   -2.0112 H   0  0  0  0  0  0  0  0  0  0  0  0
   -5.5660    2.5514   -0.5433 H   0  0  0  0  0  0  0  0  0  0  0  0
   -5.5370    2.5082   -2.3637 H   0  0  0  0  0  0  0  0  0  0  0  0
   -4.4195    3.9940    0.5807 H   0  0  0  0  0  0  0  0  0  0  0  0
   -2.9809   -1.3314    2.5918 H   0  0  0  0  0  0  0  0  0  0  0  0
   -3.9909   -3.2345    3.8183 H   0  0  0  0  0  0  0  0  0  0  0  0
   -4.8075   -5.1989    2.5061 H   0  0  0  0  0  0  0  0  0  0  0  0
   -4.6232   -5.2590    0.0738 H   0  0  0  0  0  0  0  0  0  0  0  0
   -3.5898   -3.3017   -1.1285 H   0  0  0  0  0  0  0  0  0  0  0  0
  1  2  1  0
  2  3  1  0
  3  4  2  0
  3  5  1  0
  5  6  2  0
  6  7  1  0
  7  8  2  0
  8  9  1  0
  9 10  2  0
  9 11  1  0
 11 12  1  0
 12 13  1  0
 13 14  2  0
 14 15  1  0
 15 16  1  0
 16 17  1  0
 17 18  1  0
 18 19  1  0
 18 20  1  0
 15 21  2  0
 21 22  1  0
 22 23  2  0
 23 24  1  0
 24 25  3  0
 22 26  1  0
 26 27  2  0
 27 28  1  0
 28 29  2  0
 29 30  1  0
 30 31  2  0
 21 32  1  0
 32 33  3  0
 10  5  1  0
 23 13  1  0
 31 26  1  0
 19 16  1  0
  1 34  1  0
  1 35  1  0
  1 36  1  0
  2 37  1  0
  7 38  1  0
  8 39  1  0
 10 40  1  0
 11 41  1  0
 11 42  1  0
 17 43  1  0
 17 44  1  0
 18 45  1  0
 19 46  1  0
 19 47  1  0
 20 48  1  0
 27 49  1  0
 28 50  1  0
 29 51  1  0
 30 52  1  0
 31 53  1  0
M  END
>  <Ligand ID>  (1) 
LIG0004670

>  <Ligand>  (1) 
SCHEMBL246212

>  <SMILES>  (1) 
CNC(=O)c1nccc(c1)CSc1nc(N2CC(C2)O)c(c(c1C#N)c1ccccc1)C#N

>  <CID>  (1) 
56592181.0

>  <ChEMBL ID>  (1) 
nan

>  <InChiKey>  (1) 
TVKRXMKEVFIJGJ-UHFFFAOYSA-N

>  <InChi>  (1) 
InChI=1S/C24H20N6O2S/c1-27-23(32)20-9-15(7-8-28-20)14-33-24-19(11-26)21(16-5-3-2-4-6-16)18(10-25)22(29-24)30-12-17(31)13-30/h2-9,17,31H,12-14H2,1H3,(H,27,32)

>  <IUPAC Name>  (1) 
4-[[3,5-dicyano-6-(3-hydroxyazetidin-1-yl)-4-phenylpyridin-2-yl]sulfanylmethyl]-N-methylpyridine-2-carboxamide

$$$$
