
     RDKit          3D

 74 78  0  0  0  0  0  0  0  0999 V2000
   -5.9989    5.6573    1.1254 C   0  0  0  0  0  0  0  0  0  0  0  0
   -6.4312    4.8846    0.0398 O   0  0  0  0  0  0  0  0  0  0  0  0
   -5.6854    3.7669   -0.3154 C   0  0  0  0  0  0  0  0  0  0  0  0
   -6.1344    3.0200   -1.3926 C   0  0  0  0  0  0  0  0  0  0  0  0
   -5.4674    1.8857   -1.8326 C   0  0  0  0  0  0  0  0  0  0  0  0
   -4.3163    1.5031   -1.1598 C   0  0  0  0  0  0  0  0  0  0  0  0
   -3.8832    2.2598   -0.0879 C   0  0  0  0  0  0  0  0  0  0  0  0
   -4.5578    3.3925    0.3439 C   0  0  0  0  0  0  0  0  0  0  0  0
   -3.5651    0.3508   -1.5416 N   0  0  0  0  0  0  0  0  0  0  0  0
   -4.1976   -0.8276   -1.5240 N   0  0  0  0  0  0  0  0  0  0  0  0
   -3.5560   -1.9706   -1.8728 C   0  0  0  0  0  0  0  0  0  0  0  0
   -4.5172   -3.4740   -1.8065 S   0  0  0  0  0  0  0  0  0  0  0  0
   -4.3977   -4.2395   -0.1760 C   0  0  0  0  0  0  0  0  0  0  0  0
   -3.3786   -5.1670    0.0650 C   0  0  0  0  0  0  0  0  0  0  0  0
   -3.3267   -5.7249    1.3243 C   0  0  0  0  0  0  0  0  0  0  0  0
   -4.2406   -5.3793    2.2949 C   0  0  0  0  0  0  0  0  0  0  0  0
   -5.2482   -4.4675    2.0689 C   0  0  0  0  0  0  0  0  0  0  0  0
   -5.3121   -3.8994    0.8088 C   0  0  0  0  0  0  0  0  0  0  0  0
   -4.1242   -6.1192    3.8690 Cl  0  0  0  0  0  0  0  0  0  0  0  0
   -2.2306   -1.9407   -2.2545 C   0  0  0  0  0  0  0  0  0  0  0  0
   -1.5474   -0.7196   -2.2803 C   0  0  0  0  0  0  0  0  0  0  0  0
   -2.2732    0.4197   -1.9086 C   0  0  0  0  0  0  0  0  0  0  0  0
   -1.7159    1.5705   -1.9129 O   0  0  0  0  0  0  0  0  0  0  0  0
   -0.1329   -0.6880   -2.6572 C   0  0  0  0  0  0  0  0  0  0  0  0
    0.9052   -0.7667   -1.6180 C   0  0  0  0  0  0  0  0  0  0  0  0
    0.9154    0.2401   -0.5125 C   0  0  2  0  0  0  0  0  0  0  0  0
    2.1273   -0.0972    0.2879 N   0  0  0  0  0  0  0  0  0  0  0  0
    3.0002    0.9846    0.5739 C   0  0  0  0  0  0  0  0  0  0  0  0
    2.7131    2.1548    0.1457 O   0  0  0  0  0  0  0  0  0  0  0  0
    4.2240    0.7954    1.3487 C   0  0  1  0  0  0  0  0  0  0  0  0
    3.8450    0.2492    2.7238 C   0  0  0  0  0  0  0  0  0  0  0  0
    4.7654   -0.7978    3.0414 N   0  0  0  0  0  0  0  0  0  0  0  0
    5.7712   -0.8759    2.0267 C   0  0  0  0  0  0  0  0  0  0  0  0
    5.1840   -0.2217    0.7794 C   0  0  2  0  0  0  0  0  0  0  0  0
    6.2392    0.4923    0.0168 C   0  0  0  0  0  0  0  0  0  0  0  0
    6.4785    0.1047   -1.2897 C   0  0  0  0  0  0  0  0  0  0  0  0
    7.4583    0.7472   -2.0413 C   0  0  0  0  0  0  0  0  0  0  0  0
    8.1799    1.7795   -1.4411 C   0  0  0  0  0  0  0  0  0  0  0  0
    7.9350    2.1627   -0.1316 C   0  0  0  0  0  0  0  0  0  0  0  0
    6.9542    1.5063    0.5931 C   0  0  0  0  0  0  0  0  0  0  0  0
    9.1484    2.4240   -2.1663 F   0  0  0  0  0  0  0  0  0  0  0  0
   -0.3013   -0.0754    0.3899 C   0  0  0  0  0  0  0  0  0  0  0  0
   -5.0975    6.2233    0.8036 H   0  0  0  0  0  0  0  0  0  0  0  0
   -6.7858    6.3617    1.4853 H   0  0  0  0  0  0  0  0  0  0  0  0
   -5.7148    5.0556    2.0126 H   0  0  0  0  0  0  0  0  0  0  0  0
   -7.0379    3.3029   -1.9366 H   0  0  0  0  0  0  0  0  0  0  0  0
   -5.7923    1.2873   -2.6644 H   0  0  0  0  0  0  0  0  0  0  0  0
   -2.9895    2.0047    0.4722 H   0  0  0  0  0  0  0  0  0  0  0  0
   -4.1885    3.9604    1.1864 H   0  0  0  0  0  0  0  0  0  0  0  0
   -2.6751   -5.4229   -0.7067 H   0  0  0  0  0  0  0  0  0  0  0  0
   -2.5230   -6.4476    1.4918 H   0  0  0  0  0  0  0  0  0  0  0  0
   -5.9792   -4.1722    2.7978 H   0  0  0  0  0  0  0  0  0  0  0  0
   -6.0682   -3.1812    0.5571 H   0  0  0  0  0  0  0  0  0  0  0  0
   -1.7613   -2.8707   -2.5230 H   0  0  0  0  0  0  0  0  0  0  0  0
    0.0626    0.2333   -3.2775 H   0  0  0  0  0  0  0  0  0  0  0  0
    0.0370   -1.5568   -3.3537 H   0  0  0  0  0  0  0  0  0  0  0  0
    1.8986   -0.7400   -2.1848 H   0  0  0  0  0  0  0  0  0  0  0  0
    0.9597   -1.8223   -1.1755 H   0  0  0  0  0  0  0  0  0  0  0  0
    0.8645    1.2770   -0.7833 H   0  0  0  0  0  0  0  0  0  0  0  0
    2.2953   -1.0742    0.6027 H   0  0  0  0  0  0  0  0  0  0  0  0
    4.7315    1.7623    1.5413 H   0  0  0  0  0  0  0  0  0  0  0  0
    2.8261   -0.2335    2.6801 H   0  0  0  0  0  0  0  0  0  0  0  0
    3.7535    1.0351    3.4782 H   0  0  0  0  0  0  0  0  0  0  0  0
    5.2142   -0.5925    3.9579 H   0  0  0  0  0  0  0  0  0  0  0  0
    6.6875   -0.3599    2.3644 H   0  0  0  0  0  0  0  0  0  0  0  0
    6.0166   -1.9420    1.8546 H   0  0  0  0  0  0  0  0  0  0  0  0
    4.6967   -1.0047    0.2015 H   0  0  0  0  0  0  0  0  0  0  0  0
    5.9310   -0.6953   -1.7793 H   0  0  0  0  0  0  0  0  0  0  0  0
    7.6463    0.4428   -3.0653 H   0  0  0  0  0  0  0  0  0  0  0  0
    8.4931    2.9639    0.3384 H   0  0  0  0  0  0  0  0  0  0  0  0
    6.7679    1.8138    1.6216 H   0  0  0  0  0  0  0  0  0  0  0  0
    0.1507   -0.3227    1.3983 H   0  0  0  0  0  0  0  0  0  0  0  0
   -0.8071   -0.9901    0.0834 H   0  0  0  0  0  0  0  0  0  0  0  0
   -0.9168    0.8050    0.5767 H   0  0  0  0  0  0  0  0  0  0  0  0
  1  2  1  0
  2  3  1  0
  3  4  2  0
  4  5  1  0
  5  6  2  0
  6  7  1  0
  7  8  2  0
  6  9  1  0
  9 10  1  0
 10 11  2  0
 11 12  1  0
 12 13  1  0
 13 14  2  0
 14 15  1  0
 15 16  2  0
 16 17  1  0
 17 18  2  0
 16 19  1  0
 11 20  1  0
 20 21  2  0
 21 22  1  0
 22 23  2  0
 21 24  1  0
 24 25  1  0
 25 26  1  0
 26 27  1  0
 27 28  1  0
 28 29  2  0
 28 30  1  0
 30 31  1  0
 31 32  1  0
 32 33  1  0
 33 34  1  0
 34 35  1  0
 35 36  2  0
 36 37  1  0
 37 38  2  0
 38 39  1  0
 39 40  2  0
 38 41  1  0
 26 42  1  0
  8  3  1  0
 22  9  1  0
 34 30  1  0
 40 35  1  0
 18 13  1  0
  1 43  1  0
  1 44  1  0
  1 45  1  0
  4 46  1  0
  5 47  1  0
  7 48  1  0
  8 49  1  0
 14 50  1  0
 15 51  1  0
 17 52  1  0
 18 53  1  0
 20 54  1  0
 24 55  1  0
 24 56  1  0
 25 57  1  0
 25 58  1  0
 26 59  1  6
 27 60  1  0
 30 61  1  1
 31 62  1  0
 31 63  1  0
 32 64  1  0
 33 65  1  0
 33 66  1  0
 34 67  1  6
 36 68  1  0
 37 69  1  0
 39 70  1  0
 40 71  1  0
 42 72  1  0
 42 73  1  0
 42 74  1  0
M  END
>  <Ligand ID>  (1) 
LIG0005474

>  <Ligand>  (1) 
CHEMBL365005

>  <SMILES>  (1) 
COc1ccc(cc1)n1nc(Sc2ccc(cc2)Cl)cc(c1=O)CC[C@H](NC(=O)[C@H]1CNC[C@@H]1c1ccc(cc1)F)C

>  <CID>  (1) 
44397461.0

>  <ChEMBL ID>  (1) 
nan

>  <InChiKey>  (1) 
WPMCUSYCPMBJCW-FXAGJUNHSA-N

>  <InChi>  (1) 
InChI=1S/C32H32ClFN4O3S/c1-20(36-31(39)29-19-35-18-28(29)21-5-9-24(34)10-6-21)3-4-22-17-30(42-27-15-7-23(33)8-16-27)37-38(32(22)40)25-11-13-26(41-2)14-12-25/h5-17,20,28-29,35H,3-4,18-19H2,1-2H3,(H,36,39)/t20-,28-,29+/m1/s1

>  <IUPAC Name>  (1) 
(3R,4S)-N-[(2R)-4-[6-(4-chlorophenyl)sulfanyl-2-(4-methoxyphenyl)-3-oxopyridazin-4-yl]butan-2-yl]-4-(4-fluorophenyl)pyrrolidine-3-carboxamide

$$$$
