
     RDKit          3D

 67 70  0  0  0  0  0  0  0  0999 V2000
    4.3129    0.7698   -0.6885 O   0  0  0  0  0  0  0  0  0  0  0  0
    3.8857    1.7573   -0.0688 C   0  0  0  0  0  0  0  0  0  0  0  0
    4.9315    2.6552    0.4056 N   0  0  0  0  0  0  0  0  0  0  0  0
    6.2885    2.2727    0.0938 C   0  0  0  0  0  0  0  0  0  0  0  0
    6.9080    2.6781   -1.0696 C   0  0  0  0  0  0  0  0  0  0  0  0
    8.2071    2.2686   -1.2911 C   0  0  0  0  0  0  0  0  0  0  0  0
    8.8319    1.4823   -0.3599 C   0  0  0  0  0  0  0  0  0  0  0  0
    8.2260    1.0654    0.8140 C   0  0  0  0  0  0  0  0  0  0  0  0
    6.9149    1.4769    1.0406 C   0  0  0  0  0  0  0  0  0  0  0  0
    2.5601    2.0785    0.2066 N   0  0  0  0  0  0  0  0  0  0  0  0
    1.3485    1.3873   -0.0929 C   0  0  0  0  0  0  0  0  0  0  0  0
    1.1892    0.0965    0.6102 C   0  0  2  0  0  0  0  0  0  0  0  0
    2.1720   -0.9618    0.3433 C   0  0  0  0  0  0  0  0  0  0  0  0
    1.6123   -2.3457    0.5760 C   0  0  0  0  0  0  0  0  0  0  0  0
    2.4056   -3.3511    1.1123 C   0  0  0  0  0  0  0  0  0  0  0  0
    1.8909   -4.6234    1.3138 C   0  0  0  0  0  0  0  0  0  0  0  0
    0.5762   -4.8849    0.9754 C   0  0  0  0  0  0  0  0  0  0  0  0
   -0.2135   -3.8875    0.4427 C   0  0  0  0  0  0  0  0  0  0  0  0
    0.3186   -2.6432    0.2549 C   0  0  0  0  0  0  0  0  0  0  0  0
   -0.4918   -1.4964   -0.3146 C   0  0  0  0  0  0  0  0  0  0  0  0
   -0.2073   -0.3084    0.4516 N   0  0  0  0  0  0  0  0  0  0  0  0
   -1.1796    0.5134    1.0661 C   0  0  0  0  0  0  0  0  0  0  0  0
   -0.8850    1.5267    1.7729 O   0  0  0  0  0  0  0  0  0  0  0  0
   -2.6621    0.2637    0.9405 C   0  0  2  0  0  0  0  0  0  0  0  0
   -3.1387    0.5873   -0.4576 C   0  0  0  0  0  0  0  0  0  0  0  0
   -4.5657    0.3862   -0.7019 C   0  0  0  0  0  0  0  0  0  0  0  0
   -5.5567    1.2961   -0.3508 C   0  0  0  0  0  0  0  0  0  0  0  0
   -5.2736    2.6086    0.2606 C   0  0  0  0  0  0  0  0  0  0  0  0
   -6.9032    1.0116   -0.5933 C   0  0  0  0  0  0  0  0  0  0  0  0
   -7.3007   -0.1479   -1.1749 C   0  0  0  0  0  0  0  0  0  0  0  0
   -6.3331   -1.0619   -1.5308 C   0  0  0  0  0  0  0  0  0  0  0  0
   -4.9738   -0.8110   -1.3026 C   0  0  0  0  0  0  0  0  0  0  0  0
   -4.0325   -1.8584   -1.7214 C   0  0  0  0  0  0  0  0  0  0  0  0
   -8.6444   -0.4180   -1.4103 O   0  0  0  0  0  0  0  0  0  0  0  0
   -3.3120    1.0746    1.9325 N   0  0  0  0  0  0  0  0  0  0  0  0
    4.7166    3.5144    0.9338 H   0  0  0  0  0  0  0  0  0  0  0  0
    6.3738    3.2994   -1.7757 H   0  0  0  0  0  0  0  0  0  0  0  0
    8.7197    2.5735   -2.1999 H   0  0  0  0  0  0  0  0  0  0  0  0
    9.8438    1.1564   -0.5208 H   0  0  0  0  0  0  0  0  0  0  0  0
    8.7378    0.4448    1.5352 H   0  0  0  0  0  0  0  0  0  0  0  0
    6.3918    1.1723    1.9572 H   0  0  0  0  0  0  0  0  0  0  0  0
    2.4168    3.0061    0.7379 H   0  0  0  0  0  0  0  0  0  0  0  0
    1.3153    1.1274   -1.2137 H   0  0  0  0  0  0  0  0  0  0  0  0
    0.4697    2.0619   -0.0012 H   0  0  0  0  0  0  0  0  0  0  0  0
    1.2493    0.2775    1.7506 H   0  0  0  0  0  0  0  0  0  0  0  0
    2.3975   -0.9670   -0.7420 H   0  0  0  0  0  0  0  0  0  0  0  0
    3.1028   -0.9061    0.9073 H   0  0  0  0  0  0  0  0  0  0  0  0
    3.4378   -3.1127    1.3687 H   0  0  0  0  0  0  0  0  0  0  0  0
    2.5528   -5.3769    1.7371 H   0  0  0  0  0  0  0  0  0  0  0  0
    0.2283   -5.8914    1.1531 H   0  0  0  0  0  0  0  0  0  0  0  0
   -1.2413   -4.0902    0.1772 H   0  0  0  0  0  0  0  0  0  0  0  0
   -0.1550   -1.3856   -1.3606 H   0  0  0  0  0  0  0  0  0  0  0  0
   -1.5446   -1.8328   -0.2346 H   0  0  0  0  0  0  0  0  0  0  0  0
   -2.8053   -0.8031    1.1880 H   0  0  0  0  0  0  0  0  0  0  0  0
   -2.8423    1.6793   -0.5982 H   0  0  0  0  0  0  0  0  0  0  0  0
   -2.5065    0.0647   -1.1985 H   0  0  0  0  0  0  0  0  0  0  0  0
   -5.5034    2.6231    1.3446 H   0  0  0  0  0  0  0  0  0  0  0  0
   -4.2287    2.9531    0.1443 H   0  0  0  0  0  0  0  0  0  0  0  0
   -5.9919    3.3543   -0.1739 H   0  0  0  0  0  0  0  0  0  0  0  0
   -7.6886    1.7263   -0.3174 H   0  0  0  0  0  0  0  0  0  0  0  0
   -6.6708   -1.9795   -1.9930 H   0  0  0  0  0  0  0  0  0  0  0  0
   -3.1455   -1.5311   -2.2539 H   0  0  0  0  0  0  0  0  0  0  0  0
   -4.5384   -2.5945   -2.4030 H   0  0  0  0  0  0  0  0  0  0  0  0
   -3.7868   -2.4505   -0.7920 H   0  0  0  0  0  0  0  0  0  0  0  0
   -9.3323   -0.3492   -0.6616 H   0  0  0  0  0  0  0  0  0  0  0  0
   -2.6768    1.1512    2.7592 H   0  0  0  0  0  0  0  0  0  0  0  0
   -4.2018    0.6279    2.2493 H   0  0  0  0  0  0  0  0  0  0  0  0
  1  2  2  0
  2  3  1  0
  3  4  1  0
  4  5  2  0
  5  6  1  0
  6  7  2  0
  7  8  1  0
  8  9  2  0
  2 10  1  0
 10 11  1  0
 11 12  1  0
 12 13  1  0
 13 14  1  0
 14 15  2  0
 15 16  1  0
 16 17  2  0
 17 18  1  0
 18 19  2  0
 19 20  1  0
 20 21  1  0
 21 22  1  0
 22 23  2  0
 22 24  1  0
 24 25  1  0
 25 26  1  0
 26 27  2  0
 27 28  1  0
 27 29  1  0
 29 30  2  0
 30 31  1  0
 31 32  2  0
 32 33  1  0
 30 34  1  0
 24 35  1  0
  9  4  1  0
 21 12  1  0
 32 26  1  0
 19 14  1  0
  3 36  1  0
  5 37  1  0
  6 38  1  0
  7 39  1  0
  8 40  1  0
  9 41  1  0
 10 42  1  0
 11 43  1  0
 11 44  1  0
 12 45  1  1
 13 46  1  0
 13 47  1  0
 15 48  1  0
 16 49  1  0
 17 50  1  0
 18 51  1  0
 20 52  1  0
 20 53  1  0
 24 54  1  1
 25 55  1  0
 25 56  1  0
 28 57  1  0
 28 58  1  0
 28 59  1  0
 29 60  1  0
 31 61  1  0
 33 62  1  0
 33 63  1  0
 33 64  1  0
 34 65  1  0
 35 66  1  0
 35 67  1  0
M  END
>  <Ligand ID>  (1) 
LIG0003766

>  <Ligand>  (1) 
CHEMBL80463

>  <SMILES>  (1) 
O=C(Nc1ccccc1)NC[C@@H]1Cc2ccccc2CN1C(=O)[C@H](Cc1c(C)cc(cc1C)O)N

>  <CID>  (1) 
9890982.0

>  <ChEMBL ID>  (1) 
nan

>  <InChiKey>  (1) 
HQWSXGRKYMNJKY-OZXSUGGESA-N

>  <InChi>  (1) 
InChI=1S/C28H32N4O3/c1-18-12-24(33)13-19(2)25(18)15-26(29)27(34)32-17-21-9-7-6-8-20(21)14-23(32)16-30-28(35)31-22-10-4-3-5-11-22/h3-13,23,26,33H,14-17,29H2,1-2H3,(H2,30,31,35)/t23-,26-/m0/s1

>  <IUPAC Name>  (1) 
1-[[(3S)-2-[(2S)-2-amino-3-(4-hydroxy-2,6-dimethylphenyl)propanoyl]-3,4-dihydro-1H-isoquinolin-3-yl]methyl]-3-phenylurea

$$$$
