
     RDKit          3D

 43 45  0  0  0  0  0  0  0  0999 V2000
   -6.2886   -1.8873    2.8711 F   0  0  0  0  0  0  0  0  0  0  0  0
   -5.6535   -1.3421    1.7977 C   0  0  0  0  0  0  0  0  0  0  0  0
   -5.0944   -2.1363    0.8209 C   0  0  0  0  0  0  0  0  0  0  0  0
   -4.4418   -1.6208   -0.2907 C   0  0  0  0  0  0  0  0  0  0  0  0
   -4.3346   -0.2384   -0.4468 C   0  0  0  0  0  0  0  0  0  0  0  0
   -4.8983    0.5499    0.5388 C   0  0  0  0  0  0  0  0  0  0  0  0
   -5.5462    0.0453    1.6420 C   0  0  0  0  0  0  0  0  0  0  0  0
   -3.6491    0.2943   -1.6408 C   0  0  0  0  0  0  0  0  0  0  0  0
   -2.2318    0.3933   -1.4099 N   0  0  0  0  0  0  0  0  0  0  0  0
   -1.5874    1.3939   -0.6476 C   0  0  0  0  0  0  0  0  0  0  0  0
   -2.2495    2.3107   -0.0962 O   0  0  0  0  0  0  0  0  0  0  0  0
   -0.1410    1.4262   -0.4546 C   0  0  0  0  0  0  0  0  0  0  0  0
    0.6181    1.4879   -1.6277 C   0  0  0  0  0  0  0  0  0  0  0  0
    1.9556    1.5105   -1.5087 N   0  0  0  0  0  0  0  0  0  0  0  0
    2.5980    1.4767   -0.3090 C   0  0  0  0  0  0  0  0  0  0  0  0
    1.8718    1.4174    0.8517 C   0  0  0  0  0  0  0  0  0  0  0  0
    0.4785    1.3917    0.7648 C   0  0  0  0  0  0  0  0  0  0  0  0
   -0.3704    1.3184    1.9960 C   0  0  0  0  0  0  0  0  0  0  0  0
   -1.1502    0.1722    1.9871 F   0  0  0  0  0  0  0  0  0  0  0  0
    0.4925    1.2097    3.0691 F   0  0  0  0  0  0  0  0  0  0  0  0
   -1.1086    2.4478    2.2129 F   0  0  0  0  0  0  0  0  0  0  0  0
    4.0175    1.4969   -0.3688 N   0  0  0  0  0  0  0  0  0  0  0  0
    4.6808    0.2164   -0.4203 C   0  0  0  0  0  0  0  0  0  0  0  0
    6.0378    0.1116   -0.6267 C   0  0  0  0  0  0  0  0  0  0  0  0
    6.7192   -1.0866   -0.6783 C   0  0  0  0  0  0  0  0  0  0  0  0
    5.9592   -2.2300   -0.5074 C   0  0  0  0  0  0  0  0  0  0  0  0
    4.5989   -2.1760   -0.2980 C   0  0  0  0  0  0  0  0  0  0  0  0
    3.9477   -0.9579   -0.2527 C   0  0  0  0  0  0  0  0  0  0  0  0
    3.5247   -3.7376   -0.0526 Br  0  0  0  0  0  0  0  0  0  0  0  0
   -5.1721   -3.2045    0.9342 H   0  0  0  0  0  0  0  0  0  0  0  0
   -4.0166   -2.3079   -1.0355 H   0  0  0  0  0  0  0  0  0  0  0  0
   -4.8316    1.6098    0.4453 H   0  0  0  0  0  0  0  0  0  0  0  0
   -5.9910    0.6402    2.4148 H   0  0  0  0  0  0  0  0  0  0  0  0
   -4.0886    1.3025   -1.8967 H   0  0  0  0  0  0  0  0  0  0  0  0
   -3.8813   -0.3392   -2.5143 H   0  0  0  0  0  0  0  0  0  0  0  0
   -1.6144   -0.3397   -1.8419 H   0  0  0  0  0  0  0  0  0  0  0  0
    0.1574    1.5195   -2.6099 H   0  0  0  0  0  0  0  0  0  0  0  0
    2.3770    1.3914    1.7970 H   0  0  0  0  0  0  0  0  0  0  0  0
    4.5910    2.3674   -0.3772 H   0  0  0  0  0  0  0  0  0  0  0  0
    6.5891    1.0386   -0.7540 H   0  0  0  0  0  0  0  0  0  0  0  0
    7.7793   -1.0806   -0.8436 H   0  0  0  0  0  0  0  0  0  0  0  0
    6.4457   -3.1957   -0.5390 H   0  0  0  0  0  0  0  0  0  0  0  0
    2.9012   -0.8667   -0.0948 H   0  0  0  0  0  0  0  0  0  0  0  0
  1  2  1  0
  2  3  2  0
  3  4  1  0
  4  5  2  0
  5  6  1  0
  6  7  2  0
  5  8  1  0
  8  9  1  0
  9 10  1  0
 10 11  2  0
 10 12  1  0
 12 13  2  0
 13 14  1  0
 14 15  2  0
 15 16  1  0
 16 17  2  0
 17 18  1  0
 18 19  1  0
 18 20  1  0
 18 21  1  0
 15 22  1  0
 22 23  1  0
 23 24  2  0
 24 25  1  0
 25 26  2  0
 26 27  1  0
 27 28  2  0
 27 29  1  0
  7  2  1  0
 17 12  1  0
 28 23  1  0
  3 30  1  0
  4 31  1  0
  6 32  1  0
  7 33  1  0
  8 34  1  0
  8 35  1  0
  9 36  1  0
 13 37  1  0
 16 38  1  0
 22 39  1  0
 24 40  1  0
 25 41  1  0
 26 42  1  0
 28 43  1  0
M  END
>  <Ligand ID>  (1) 
LIG0005799

>  <Ligand>  (1) 
CHEMBL464069

>  <SMILES>  (1) 
Fc1ccc(cc1)CNC(=O)c1cnc(cc1C(F)(F)F)Nc1cccc(c1)Br

>  <CID>  (1) 
10073313.0

>  <ChEMBL ID>  (1) 
nan

>  <InChiKey>  (1) 
XOGVVEYHWCVGSM-UHFFFAOYSA-N

>  <InChi>  (1) 
InChI=1S/C20H14BrF4N3O/c21-13-2-1-3-15(8-13)28-18-9-17(20(23,24)25)16(11-26-18)19(29)27-10-12-4-6-14(22)7-5-12/h1-9,11H,10H2,(H,26,28)(H,27,29)

>  <IUPAC Name>  (1) 
6-(3-bromoanilino)-N-[(4-fluorophenyl)methyl]-4-(trifluoromethyl)pyridine-3-carboxamide

$$$$
