
     RDKit          3D

 48 51  0  0  0  0  0  0  0  0999 V2000
    5.2220    3.8203   -0.8515 O   0  0  0  0  0  0  0  0  0  0  0  0
    4.9818    2.8628    0.1526 C   0  0  0  0  0  0  0  0  0  0  0  0
    3.8273    2.7613    0.6406 O   0  0  0  0  0  0  0  0  0  0  0  0
    6.0844    1.9859    0.6252 C   0  0  0  0  0  0  0  0  0  0  0  0
    5.8948    0.6338   -0.0339 C   0  0  0  0  0  0  0  0  0  0  0  0
    4.5814    0.0368    0.3314 C   0  0  0  0  0  0  0  0  0  0  0  0
    3.4080    0.2368   -0.3965 C   0  0  0  0  0  0  0  0  0  0  0  0
    2.4481   -0.4910    0.2882 C   0  0  0  0  0  0  0  0  0  0  0  0
    3.0568   -1.0878    1.3739 C   0  0  0  0  0  0  0  0  0  0  0  0
    4.3095   -0.7439    1.3505 O   0  0  0  0  0  0  0  0  0  0  0  0
    2.3213   -1.8844    2.2418 C   0  0  0  0  0  0  0  0  0  0  0  0
    0.9770   -2.0502    1.9751 C   0  0  0  0  0  0  0  0  0  0  0  0
    0.3635   -1.4572    0.8928 C   0  0  0  0  0  0  0  0  0  0  0  0
    1.0953   -0.6522    0.0114 C   0  0  0  0  0  0  0  0  0  0  0  0
   -1.0463   -1.6155    0.5880 C   0  0  0  0  0  0  0  0  0  0  0  0
   -1.6166   -2.8418    0.9465 C   0  0  0  0  0  0  0  0  0  0  0  0
   -2.9549   -3.0182    0.6660 C   0  0  0  0  0  0  0  0  0  0  0  0
   -3.5878   -4.3284    1.0429 C   0  0  0  0  0  0  0  0  0  0  0  0
   -3.6874   -2.0212    0.0581 C   0  0  0  0  0  0  0  0  0  0  0  0
   -3.1306   -0.7973   -0.3029 C   0  0  0  0  0  0  0  0  0  0  0  0
   -1.8036   -0.6252   -0.0235 C   0  0  0  0  0  0  0  0  0  0  0  0
   -3.9606    0.1098   -0.8989 O   0  0  0  0  0  0  0  0  0  0  0  0
   -3.5481    1.3825   -1.3162 C   0  0  0  0  0  0  0  0  0  0  0  0
   -4.4435    2.5051   -0.8114 C   0  0  0  0  0  0  0  0  0  0  0  0
   -4.5739    3.0329   -2.2201 C   0  0  0  0  0  0  0  0  0  0  0  0
   -3.9755    1.7524   -2.7258 C   0  0  0  0  0  0  0  0  0  0  0  0
    4.4507    4.3105   -1.2819 H   0  0  0  0  0  0  0  0  0  0  0  0
    7.0584    2.3849    0.2177 H   0  0  0  0  0  0  0  0  0  0  0  0
    6.1657    1.9235    1.7085 H   0  0  0  0  0  0  0  0  0  0  0  0
    5.9264    0.7247   -1.1296 H   0  0  0  0  0  0  0  0  0  0  0  0
    6.7564   -0.0470    0.2205 H   0  0  0  0  0  0  0  0  0  0  0  0
    3.2531    0.8128   -1.2825 H   0  0  0  0  0  0  0  0  0  0  0  0
    2.8015   -2.3493    3.0894 H   0  0  0  0  0  0  0  0  0  0  0  0
    0.3654   -2.6698    2.6356 H   0  0  0  0  0  0  0  0  0  0  0  0
    0.6114   -0.1876   -0.8373 H   0  0  0  0  0  0  0  0  0  0  0  0
   -1.0554   -3.6263    1.4211 H   0  0  0  0  0  0  0  0  0  0  0  0
   -3.2009   -5.1574    0.4319 H   0  0  0  0  0  0  0  0  0  0  0  0
   -4.6834   -4.2507    0.8882 H   0  0  0  0  0  0  0  0  0  0  0  0
   -3.3747   -4.5404    2.1187 H   0  0  0  0  0  0  0  0  0  0  0  0
   -4.7272   -2.2251   -0.1325 H   0  0  0  0  0  0  0  0  0  0  0  0
   -1.2995    0.2816   -0.2673 H   0  0  0  0  0  0  0  0  0  0  0  0
   -2.4866    1.6275   -1.1210 H   0  0  0  0  0  0  0  0  0  0  0  0
   -5.4218    2.1001   -0.4415 H   0  0  0  0  0  0  0  0  0  0  0  0
   -3.9644    3.2471   -0.1580 H   0  0  0  0  0  0  0  0  0  0  0  0
   -5.6400    3.1439   -2.5355 H   0  0  0  0  0  0  0  0  0  0  0  0
   -3.9782    3.9668   -2.4240 H   0  0  0  0  0  0  0  0  0  0  0  0
   -3.1168    2.0095   -3.3986 H   0  0  0  0  0  0  0  0  0  0  0  0
   -4.6827    1.0144   -3.1509 H   0  0  0  0  0  0  0  0  0  0  0  0
  1  2  1  0
  2  3  2  0
  2  4  1  0
  4  5  1  0
  5  6  1  0
  6  7  2  0
  7  8  1  0
  8  9  2  0
  9 10  1  0
  9 11  1  0
 11 12  2  0
 12 13  1  0
 13 14  2  0
 13 15  1  0
 15 16  2  0
 16 17  1  0
 17 18  1  0
 17 19  2  0
 19 20  1  0
 20 21  2  0
 20 22  1  0
 22 23  1  0
 23 24  1  0
 24 25  1  0
 25 26  1  0
 10  6  1  0
 21 15  1  0
 26 23  1  0
 14  8  1  0
  1 27  1  0
  4 28  1  0
  4 29  1  0
  5 30  1  0
  5 31  1  0
  7 32  1  0
 11 33  1  0
 12 34  1  0
 14 35  1  0
 16 36  1  0
 18 37  1  0
 18 38  1  0
 18 39  1  0
 19 40  1  0
 21 41  1  0
 23 42  1  0
 24 43  1  0
 24 44  1  0
 25 45  1  0
 25 46  1  0
 26 47  1  0
 26 48  1  0
M  END
>  <Ligand ID>  (1) 
LIG0003744

>  <Ligand>  (1) 
CHEMBL3920591

>  <SMILES>  (1) 
OC(=O)CCc1cc2c(o1)ccc(c2)c1cc(C)cc(c1)OC1CCC1

>  <CID>  (1) 
134139171.0

>  <ChEMBL ID>  (1) 
nan

>  <InChiKey>  (1) 
ONECIFACQAJVRO-UHFFFAOYSA-N

>  <InChi>  (1) 
InChI=1S/C22H22O4/c1-14-9-16(12-20(10-14)25-18-3-2-4-18)15-5-7-21-17(11-15)13-19(26-21)6-8-22(23)24/h5,7,9-13,18H,2-4,6,8H2,1H3,(H,23,24)

>  <IUPAC Name>  (1) 
3-[5-(3-cyclobutyloxy-5-methylphenyl)-1-benzofuran-2-yl]propanoic acid

$$$$
