
     RDKit          3D

136137  0  0  0  0  0  0  0  0999 V2000
    5.2106    1.7529   -1.5647 O   0  0  0  0  0  0  0  0  0  0  0  0
    4.4588    0.7021   -0.9854 C   0  0  0  0  0  0  0  0  0  0  0  0
    4.8516   -0.5603   -1.6662 C   0  0  0  0  0  0  0  0  0  0  0  0
    4.1429   -1.8031   -1.1736 C   0  0  0  0  0  0  0  0  0  0  0  0
    4.3312   -2.0057    0.2420 N   0  0  0  0  0  0  0  0  0  0  0  0
    3.4852   -1.4893    1.2544 C   0  0  0  0  0  0  0  0  0  0  0  0
    3.9709   -1.6557    2.4623 O   0  0  0  0  0  0  0  0  0  0  0  0
    2.2097   -0.8317    1.2278 C   0  0  2  0  0  0  0  0  0  0  0  0
    1.2351   -1.5543    2.2445 C   0  0  0  0  0  0  0  0  0  0  0  0
    1.0571   -3.2906    1.8715 S   0  0  0  0  0  0  0  0  0  0  0  0
    0.0378   -3.6081    0.0661 S   0  0  0  0  0  0  0  0  0  0  0  0
   -1.7162   -3.8196    0.1813 C   0  0  0  0  0  0  0  0  0  0  0  0
   -2.4847   -2.6861    0.8081 C   0  0  0  0  0  0  0  0  0  0  0  0
   -3.9481   -2.9267    0.5846 C   0  0  0  0  0  0  0  0  0  0  0  0
   -4.4091   -3.7565   -0.2033 O   0  0  0  0  0  0  0  0  0  0  0  0
   -4.9505   -2.1787    1.3120 N   0  0  0  0  0  0  0  0  0  0  0  0
   -6.3791   -2.3154    0.9756 C   0  0  1  0  0  0  0  0  0  0  0  0
   -7.1592   -2.8947    2.0925 C   0  0  0  0  0  0  0  0  0  0  0  0
   -8.5806   -3.0096    1.6919 C   0  0  0  0  0  0  0  0  0  0  0  0
   -8.9972   -4.1559    1.0378 C   0  0  0  0  0  0  0  0  0  0  0  0
  -10.2944   -4.3728    0.6316 C   0  0  0  0  0  0  0  0  0  0  0  0
  -11.2349   -3.3891    0.8921 C   0  0  0  0  0  0  0  0  0  0  0  0
  -10.8426   -2.2457    1.5388 C   0  0  0  0  0  0  0  0  0  0  0  0
   -9.5271   -2.0537    1.9373 C   0  0  0  0  0  0  0  0  0  0  0  0
  -12.5572   -3.5928    0.4855 O   0  0  0  0  0  0  0  0  0  0  0  0
   -6.8867   -0.9709    0.5023 C   0  0  0  0  0  0  0  0  0  0  0  0
   -8.0039   -0.7586    0.0460 O   0  0  0  0  0  0  0  0  0  0  0  0
   -6.0064    0.1075    0.6008 N   0  0  0  0  0  0  0  0  0  0  0  0
   -6.2048    1.5064    0.1996 C   0  0  2  0  0  0  0  0  0  0  0  0
   -5.0457    1.7093   -0.7012 C   0  0  0  0  0  0  0  0  0  0  0  0
   -4.7325    0.7469   -1.4367 O   0  0  0  0  0  0  0  0  0  0  0  0
   -4.2391    2.8533   -0.8190 N   0  0  0  0  0  0  0  0  0  0  0  0
   -3.1222    2.8499   -1.7851 C   0  0  2  0  0  0  0  0  0  0  0  0
   -2.1902    1.7760   -1.3021 C   0  0  0  0  0  0  0  0  0  0  0  0
   -2.4407    1.0156   -0.3636 O   0  0  0  0  0  0  0  0  0  0  0  0
   -0.8939    1.5538   -1.9121 N   0  0  0  0  0  0  0  0  0  0  0  0
   -0.1697    0.3768   -1.5055 C   0  0  2  0  0  0  0  0  0  0  0  0
    0.7394    0.4886   -0.3755 C   0  0  0  0  0  0  0  0  0  0  0  0
    1.0566    1.4812    0.2765 O   0  0  0  0  0  0  0  0  0  0  0  0
    1.3876   -0.7376    0.0824 N   0  0  0  0  0  0  0  0  0  0  0  0
    0.5416   -0.1597   -2.7106 C   0  0  0  0  0  0  0  0  0  0  0  0
    1.4692    0.8806   -3.2187 C   0  0  0  0  0  0  0  0  0  0  0  0
    1.6137    2.0182   -2.7402 O   0  0  0  0  0  0  0  0  0  0  0  0
    2.2563    0.5322   -4.3550 N   0  0  0  0  0  0  0  0  0  0  0  0
   -2.5486    4.2007   -1.8729 C   0  0  0  0  0  0  0  0  0  0  0  0
   -3.6019    5.1795   -2.3375 C   0  0  0  0  0  0  0  0  0  0  0  0
   -4.1191    4.8654   -3.6832 C   0  0  0  0  0  0  0  0  0  0  0  0
   -3.6987    3.9878   -4.4501 O   0  0  0  0  0  0  0  0  0  0  0  0
   -5.2186    5.6616   -4.1460 N   0  0  0  0  0  0  0  0  0  0  0  0
   -6.2713    2.4112    1.3888 C   0  0  2  0  0  0  0  0  0  0  0  0
   -7.4383    1.9651    2.2882 C   0  0  0  0  0  0  0  0  0  0  0  0
   -8.7588    2.0261    1.5989 C   0  0  0  0  0  0  0  0  0  0  0  0
   -6.5221    3.8406    1.0645 C   0  0  0  0  0  0  0  0  0  0  0  0
    5.3880   -2.8947    0.6704 C   0  0  0  0  0  0  0  0  0  0  0  0
    6.6929   -2.4516    1.0210 C   0  0  0  0  0  0  0  0  0  0  0  0
    7.4888   -3.3847    1.4969 O   0  0  0  0  0  0  0  0  0  0  0  0
    7.3429   -1.1871    0.9705 N   0  0  0  0  0  0  0  0  0  0  0  0
    8.6788   -1.1362    1.4889 C   0  0  2  0  0  0  0  0  0  0  0  0
    8.9138    0.1504    2.2029 C   0  0  0  0  0  0  0  0  0  0  0  0
    8.0249    1.0309    2.2579 O   0  0  0  0  0  0  0  0  0  0  0  0
   10.2080    0.3262    2.8248 N   0  0  0  0  0  0  0  0  0  0  0  0
   10.5617    1.5176    3.5447 C   0  0  0  0  0  0  0  0  0  0  0  0
   10.5410    2.6911    2.6646 C   0  0  0  0  0  0  0  0  0  0  0  0
   10.8234    3.8234    3.1743 O   0  0  0  0  0  0  0  0  0  0  0  0
   10.2366    2.6954    1.2841 N   0  0  0  0  0  0  0  0  0  0  0  0
    9.7195   -1.4402    0.4685 C   0  0  0  0  0  0  0  0  0  0  0  0
    9.8558   -0.5716   -0.7138 C   0  0  0  0  0  0  0  0  0  0  0  0
    8.6747   -0.4631   -1.6190 C   0  0  0  0  0  0  0  0  0  0  0  0
   11.0156   -1.0661   -1.6040 C   0  0  0  0  0  0  0  0  0  0  0  0
    5.2024    1.7062   -2.5530 H   0  0  0  0  0  0  0  0  0  0  0  0
    4.7740    0.7215    0.0911 H   0  0  0  0  0  0  0  0  0  0  0  0
    3.4255    1.0069   -1.0671 H   0  0  0  0  0  0  0  0  0  0  0  0
    4.4891   -0.4502   -2.7411 H   0  0  0  0  0  0  0  0  0  0  0  0
    5.9159   -0.6656   -1.7400 H   0  0  0  0  0  0  0  0  0  0  0  0
    3.1428   -1.8262   -1.5564 H   0  0  0  0  0  0  0  0  0  0  0  0
    4.6705   -2.6439   -1.7530 H   0  0  0  0  0  0  0  0  0  0  0  0
    2.3459    0.1653    1.7442 H   0  0  0  0  0  0  0  0  0  0  0  0
    1.6419   -1.3444    3.2489 H   0  0  0  0  0  0  0  0  0  0  0  0
    0.2443   -1.0652    2.1770 H   0  0  0  0  0  0  0  0  0  0  0  0
   -1.8999   -4.7836    0.7495 H   0  0  0  0  0  0  0  0  0  0  0  0
   -2.1630   -4.0096   -0.8426 H   0  0  0  0  0  0  0  0  0  0  0  0
   -2.2042   -1.7275    0.3477 H   0  0  0  0  0  0  0  0  0  0  0  0
   -2.2429   -2.6527    1.8900 H   0  0  0  0  0  0  0  0  0  0  0  0
   -4.5784   -1.6008    2.0569 H   0  0  0  0  0  0  0  0  0  0  0  0
   -6.4396   -2.9934    0.1182 H   0  0  0  0  0  0  0  0  0  0  0  0
   -6.7829   -3.9273    2.2703 H   0  0  0  0  0  0  0  0  0  0  0  0
   -7.1480   -2.2854    3.0206 H   0  0  0  0  0  0  0  0  0  0  0  0
   -8.2825   -4.9482    0.8187 H   0  0  0  0  0  0  0  0  0  0  0  0
  -10.6192   -5.2663    0.1206 H   0  0  0  0  0  0  0  0  0  0  0  0
  -11.6055   -1.4953    1.7275 H   0  0  0  0  0  0  0  0  0  0  0  0
   -9.2129   -1.1603    2.4517 H   0  0  0  0  0  0  0  0  0  0  0  0
  -12.8064   -4.2156   -0.2738 H   0  0  0  0  0  0  0  0  0  0  0  0
   -5.0781   -0.0806    1.0089 H   0  0  0  0  0  0  0  0  0  0  0  0
   -7.1287    1.6220   -0.3948 H   0  0  0  0  0  0  0  0  0  0  0  0
   -4.4463    3.6461   -0.2302 H   0  0  0  0  0  0  0  0  0  0  0  0
   -3.4753    2.4782   -2.7693 H   0  0  0  0  0  0  0  0  0  0  0  0
   -0.6271    2.2683   -2.5766 H   0  0  0  0  0  0  0  0  0  0  0  0
   -0.9274   -0.4332   -1.1978 H   0  0  0  0  0  0  0  0  0  0  0  0
    1.1881   -1.5402   -0.4974 H   0  0  0  0  0  0  0  0  0  0  0  0
   -0.2317   -0.4096   -3.5024 H   0  0  0  0  0  0  0  0  0  0  0  0
    1.1250   -1.0456   -2.4476 H   0  0  0  0  0  0  0  0  0  0  0  0
    1.9234    0.0151   -5.1716 H   0  0  0  0  0  0  0  0  0  0  0  0
    3.2491    0.8340   -4.3395 H   0  0  0  0  0  0  0  0  0  0  0  0
   -2.1330    4.5786   -0.9025 H   0  0  0  0  0  0  0  0  0  0  0  0
   -1.7272    4.2704   -2.6405 H   0  0  0  0  0  0  0  0  0  0  0  0
   -4.4876    5.1548   -1.6328 H   0  0  0  0  0  0  0  0  0  0  0  0
   -3.2511    6.2343   -2.2823 H   0  0  0  0  0  0  0  0  0  0  0  0
   -5.9744    5.1872   -4.7248 H   0  0  0  0  0  0  0  0  0  0  0  0
   -5.3101    6.6782   -3.9400 H   0  0  0  0  0  0  0  0  0  0  0  0
   -5.3631    2.3421    2.0191 H   0  0  0  0  0  0  0  0  0  0  0  0
   -7.2775    0.9169    2.6300 H   0  0  0  0  0  0  0  0  0  0  0  0
   -7.4187    2.5784    3.2101 H   0  0  0  0  0  0  0  0  0  0  0  0
   -9.3934    1.1120    1.7420 H   0  0  0  0  0  0  0  0  0  0  0  0
   -9.3602    2.8289    2.1270 H   0  0  0  0  0  0  0  0  0  0  0  0
   -8.7439    2.3549    0.5509 H   0  0  0  0  0  0  0  0  0  0  0  0
   -6.7665    4.0285   -0.0229 H   0  0  0  0  0  0  0  0  0  0  0  0
   -5.7870    4.5635    1.4743 H   0  0  0  0  0  0  0  0  0  0  0  0
   -7.4870    4.1524    1.5693 H   0  0  0  0  0  0  0  0  0  0  0  0
    4.9567   -3.5995    1.4830 H   0  0  0  0  0  0  0  0  0  0  0  0
    5.5455   -3.6929   -0.1572 H   0  0  0  0  0  0  0  0  0  0  0  0
    6.8048   -0.4123    0.5681 H   0  0  0  0  0  0  0  0  0  0  0  0
    8.8287   -1.9244    2.2951 H   0  0  0  0  0  0  0  0  0  0  0  0
   10.8918   -0.4626    2.7287 H   0  0  0  0  0  0  0  0  0  0  0  0
    9.8314    1.7329    4.3663 H   0  0  0  0  0  0  0  0  0  0  0  0
   11.5607    1.3467    4.0150 H   0  0  0  0  0  0  0  0  0  0  0  0
   11.0152    2.3982    0.6379 H   0  0  0  0  0  0  0  0  0  0  0  0
    9.3202    2.9706    0.8705 H   0  0  0  0  0  0  0  0  0  0  0  0
   10.7308   -1.5593    0.9497 H   0  0  0  0  0  0  0  0  0  0  0  0
    9.5111   -2.4899    0.0904 H   0  0  0  0  0  0  0  0  0  0  0  0
   10.1440    0.4846   -0.4499 H   0  0  0  0  0  0  0  0  0  0  0  0
    7.9997    0.3557   -1.3516 H   0  0  0  0  0  0  0  0  0  0  0  0
    8.9715   -0.2729   -2.6820 H   0  0  0  0  0  0  0  0  0  0  0  0
    8.1325   -1.4168   -1.6329 H   0  0  0  0  0  0  0  0  0  0  0  0
   11.3137   -0.2742   -2.3023 H   0  0  0  0  0  0  0  0  0  0  0  0
   11.8282   -1.4546   -0.9756 H   0  0  0  0  0  0  0  0  0  0  0  0
   10.6286   -1.9092   -2.2276 H   0  0  0  0  0  0  0  0  0  0  0  0
  1  2  1  0
  2  3  1  0
  3  4  1  0
  4  5  1  0
  5  6  1  0
  6  7  2  0
  6  8  1  0
  8  9  1  0
  9 10  1  0
 10 11  1  0
 11 12  1  0
 12 13  1  0
 13 14  1  0
 14 15  2  0
 14 16  1  0
 16 17  1  0
 17 18  1  0
 18 19  1  0
 19 20  2  0
 20 21  1  0
 21 22  2  0
 22 23  1  0
 23 24  2  0
 22 25  1  0
 17 26  1  0
 26 27  2  0
 26 28  1  0
 28 29  1  0
 29 30  1  0
 30 31  2  0
 30 32  1  0
 32 33  1  0
 33 34  1  0
 34 35  2  0
 34 36  1  0
 36 37  1  0
 37 38  1  0
 38 39  2  0
 38 40  1  0
 37 41  1  0
 41 42  1  0
 42 43  2  0
 42 44  1  0
 33 45  1  0
 45 46  1  0
 46 47  1  0
 47 48  2  0
 47 49  1  0
 29 50  1  0
 50 51  1  0
 51 52  1  0
 50 53  1  0
  5 54  1  0
 54 55  1  0
 55 56  2  0
 55 57  1  0
 57 58  1  0
 58 59  1  0
 59 60  2  0
 59 61  1  0
 61 62  1  0
 62 63  1  0
 63 64  2  0
 63 65  1  0
 58 66  1  0
 66 67  1  0
 67 68  1  0
 67 69  1  0
 40  8  1  0
 24 19  1  0
  1 70  1  0
  2 71  1  0
  2 72  1  0
  3 73  1  0
  3 74  1  0
  4 75  1  0
  4 76  1  0
  8 77  1  1
  9 78  1  0
  9 79  1  0
 12 80  1  0
 12 81  1  0
 13 82  1  0
 13 83  1  0
 16 84  1  0
 17 85  1  6
 18 86  1  0
 18 87  1  0
 20 88  1  0
 21 89  1  0
 23 90  1  0
 24 91  1  0
 25 92  1  0
 28 93  1  0
 29 94  1  6
 32 95  1  0
 33 96  1  6
 36 97  1  0
 37 98  1  1
 40 99  1  0
 41100  1  0
 41101  1  0
 44102  1  0
 44103  1  0
 45104  1  0
 45105  1  0
 46106  1  0
 46107  1  0
 49108  1  0
 49109  1  0
 50110  1  1
 51111  1  0
 51112  1  0
 52113  1  0
 52114  1  0
 52115  1  0
 53116  1  0
 53117  1  0
 53118  1  0
 54119  1  0
 54120  1  0
 57121  1  0
 58122  1  1
 61123  1  0
 62124  1  0
 62125  1  0
 65126  1  0
 65127  1  0
 66128  1  0
 66129  1  0
 67130  1  0
 68131  1  0
 68132  1  0
 68133  1  0
 69134  1  0
 69135  1  0
 69136  1  0
M  END
>  <Ligand ID>  (1) 
LIG0001649

>  <Ligand>  (1) 
CHEMBL3353943

>  <SMILES>  (1) 
OCCCN(C(=O)[C@@H]1CSSCCC(=O)N[C@@H](Cc2ccc(cc2)O)C(=O)N[C@H](C(=O)N[C@H](C(=O)N[C@H](C(=O)N1)CC(=O)N)CCC(=O)N)[C@H](CC)C)CC(=O)N[C@H](C(=O)NCC(=O)N)CC(C)C

>  <CID>  (1) 
118719832.0

>  <ChEMBL ID>  (1) 
nan

>  <InChiKey>  (1) 
RHMYDRIDVHFDSF-WSCPPPQASA-N

>  <InChi>  (1) 
InChI=1S/C43H67N11O13S2/c1-5-24(4)37-42(66)50-27(11-12-32(44)57)39(63)51-30(19-33(45)58)40(64)52-31(22-69-68-16-13-35(60)48-29(41(65)53-37)18-25-7-9-26(56)10-8-25)43(67)54(14-6-15-55)21-36(61)49-28(17-23(2)3)38(62)47-20-34(46)59/h7-10,23-24,27-31,37,55-56H,5-6,11-22H2,1-4H3,(H2,44,57)(H2,45,58)(H2,46,59)(H,47,62)(H,48,60)(H,49,61)(H,50,66)(H,51,63)(H,52,64)(H,53,65)/t24-,27-,28-,29-,30-,31-,37-/m0/s1

>  <IUPAC Name>  (1) 
(4R,7S,10S,13S,16S)-7-(2-amino-2-oxoethyl)-N-[2-[[(2S)-1-[(2-amino-2-oxoethyl)amino]-4-methyl-1-oxopentan-2-yl]amino]-2-oxoethyl]-10-(3-amino-3-oxopropyl)-13-[(2S)-butan-2-yl]-16-[(4-hydroxyphenyl)methyl]-N-(3-hydroxypropyl)-6,9,12,15,18-pentaoxo-1,2-dithia-5,8,11,14,17-pentazacycloicosane-4-carboxamide

$$$$
