
     RDKit          3D

 96 99  0  0  0  0  0  0  0  0999 V2000
   11.6345   -1.7519    1.4159 O   0  0  0  0  0  0  0  0  0  0  0  0
   10.2387   -1.7459    1.3031 C   0  0  0  0  0  0  0  0  0  0  0  0
    9.5894   -2.6025    0.4296 C   0  0  0  0  0  0  0  0  0  0  0  0
    8.2191   -2.5911    0.3241 C   0  0  0  0  0  0  0  0  0  0  0  0
    7.4490   -1.7326    1.0790 C   0  0  0  0  0  0  0  0  0  0  0  0
    8.1063   -0.8742    1.9547 C   0  0  0  0  0  0  0  0  0  0  0  0
    9.4807   -0.8562    2.0884 C   0  0  0  0  0  0  0  0  0  0  0  0
    5.9500   -1.7154    0.9822 C   0  0  0  0  0  0  0  0  0  0  0  0
    5.4559   -0.8046   -0.1054 C   0  0  1  0  0  0  0  0  0  0  0  0
    3.9506   -0.8235   -0.1519 C   0  0  0  0  0  0  0  0  0  0  0  0
    3.3520   -1.8938    0.1252 O   0  0  0  0  0  0  0  0  0  0  0  0
    3.2837    0.3811   -0.5148 N   0  0  0  0  0  0  0  0  0  0  0  0
    1.8813    0.5455   -0.6122 C   0  0  2  0  0  0  0  0  0  0  0  0
    1.2300    0.2990   -1.9308 C   0  0  0  0  0  0  0  0  0  0  0  0
    1.3750   -1.2053   -2.2938 C   0  0  0  0  0  0  0  0  0  0  0  0
    0.4939   -1.4553   -3.4697 C   0  0  0  0  0  0  0  0  0  0  0  0
    0.3549   -2.9584   -3.7307 C   0  0  0  0  0  0  0  0  0  0  0  0
   -0.0242   -3.5909   -2.4519 N   0  0  0  0  0  0  0  0  0  0  0  0
   -1.2282   -3.2130   -1.7492 C   0  0  0  0  0  0  0  0  0  0  0  0
   -1.9025   -2.3521   -2.3274 O   0  0  0  0  0  0  0  0  0  0  0  0
   -1.5925   -3.8187   -0.4441 C   0  0  0  0  0  0  0  0  0  0  0  0
   -2.8191   -3.1995    0.1070 C   0  0  2  0  0  0  0  0  0  0  0  0
   -2.7655   -1.7438    0.2283 N   0  0  0  0  0  0  0  0  0  0  0  0
   -3.9877   -0.9506    0.1721 C   0  0  0  0  0  0  0  0  0  0  0  0
   -5.0065   -1.6654    0.1068 O   0  0  0  0  0  0  0  0  0  0  0  0
   -3.9885    0.5222    0.1963 C   0  0  1  0  0  0  0  0  0  0  0  0
   -2.6491    1.1051    0.2479 N   0  0  0  0  0  0  0  0  0  0  0  0
   -2.2624    2.1890    1.0821 C   0  0  0  0  0  0  0  0  0  0  0  0
   -3.1391    2.6161    1.8407 O   0  0  0  0  0  0  0  0  0  0  0  0
   -0.8597    2.7623    1.0230 C   0  0  1  0  0  0  0  0  0  0  0  0
   -0.0813    1.9891    0.0756 N   0  0  0  0  0  0  0  0  0  0  0  0
    1.2321    1.4974    0.3027 C   0  0  0  0  0  0  0  0  0  0  0  0
    1.7863    1.9412    1.3217 O   0  0  0  0  0  0  0  0  0  0  0  0
   -0.8890    4.2233    0.5823 C   0  0  0  0  0  0  0  0  0  0  0  0
   -1.6630    5.0712    1.4853 C   0  0  0  0  0  0  0  0  0  0  0  0
   -3.0034    5.3136    1.2664 C   0  0  0  0  0  0  0  0  0  0  0  0
   -3.7530    6.1173    2.1167 C   0  0  0  0  0  0  0  0  0  0  0  0
   -3.1344    6.6874    3.2100 C   0  0  0  0  0  0  0  0  0  0  0  0
   -1.7819    6.4665    3.4648 C   0  0  0  0  0  0  0  0  0  0  0  0
   -1.0689    5.6658    2.6035 C   0  0  0  0  0  0  0  0  0  0  0  0
   -4.6923    1.0411   -1.0554 C   0  0  0  0  0  0  0  0  0  0  0  0
   -6.0773    0.5695   -1.1117 C   0  0  0  0  0  0  0  0  0  0  0  0
   -6.5225   -0.5290   -1.8112 C   0  0  0  0  0  0  0  0  0  0  0  0
   -7.8379   -0.9423   -1.8282 C   0  0  0  0  0  0  0  0  0  0  0  0
   -8.7534   -0.1993   -1.0952 C   0  0  0  0  0  0  0  0  0  0  0  0
   -8.3476    0.9232   -0.3713 C   0  0  0  0  0  0  0  0  0  0  0  0
   -7.0191    1.3075   -0.3776 C   0  0  0  0  0  0  0  0  0  0  0  0
  -10.0373   -0.5968   -1.1073 F   0  0  0  0  0  0  0  0  0  0  0  0
   -2.9383   -3.7367    1.5474 C   0  0  0  0  0  0  0  0  0  0  0  0
   -2.9559   -2.8959    2.5019 O   0  0  0  0  0  0  0  0  0  0  0  0
   -3.0247   -5.1359    1.7671 N   0  0  0  0  0  0  0  0  0  0  0  0
    5.9901    0.5132   -0.0033 N   0  0  0  0  0  0  0  0  0  0  0  0
   12.0188   -2.1450    2.2812 H   0  0  0  0  0  0  0  0  0  0  0  0
   10.2125   -3.2730   -0.1572 H   0  0  0  0  0  0  0  0  0  0  0  0
    7.7506   -3.2827   -0.3793 H   0  0  0  0  0  0  0  0  0  0  0  0
    7.5226   -0.1749    2.5779 H   0  0  0  0  0  0  0  0  0  0  0  0
    9.9579   -0.1743    2.7801 H   0  0  0  0  0  0  0  0  0  0  0  0
    5.6133   -2.7598    0.7053 H   0  0  0  0  0  0  0  0  0  0  0  0
    5.5354   -1.4505    1.9788 H   0  0  0  0  0  0  0  0  0  0  0  0
    5.7887   -1.1937   -1.1106 H   0  0  0  0  0  0  0  0  0  0  0  0
    3.8972    1.2186   -0.7326 H   0  0  0  0  0  0  0  0  0  0  0  0
    1.5337   -0.4885   -0.0572 H   0  0  0  0  0  0  0  0  0  0  0  0
    0.1363    0.4086   -1.8467 H   0  0  0  0  0  0  0  0  0  0  0  0
    1.5615    0.9232   -2.7560 H   0  0  0  0  0  0  0  0  0  0  0  0
    2.4372   -1.4551   -2.4224 H   0  0  0  0  0  0  0  0  0  0  0  0
    1.0226   -1.7874   -1.3947 H   0  0  0  0  0  0  0  0  0  0  0  0
   -0.4519   -0.9394   -3.3678 H   0  0  0  0  0  0  0  0  0  0  0  0
    1.0304   -1.0564   -4.3672 H   0  0  0  0  0  0  0  0  0  0  0  0
   -0.4288   -3.0737   -4.4963 H   0  0  0  0  0  0  0  0  0  0  0  0
    1.3177   -3.3212   -4.0699 H   0  0  0  0  0  0  0  0  0  0  0  0
    0.5201   -4.3154   -1.9926 H   0  0  0  0  0  0  0  0  0  0  0  0
   -0.7357   -3.8159    0.2640 H   0  0  0  0  0  0  0  0  0  0  0  0
   -1.8418   -4.9002   -0.6441 H   0  0  0  0  0  0  0  0  0  0  0  0
   -3.7164   -3.5881   -0.3565 H   0  0  0  0  0  0  0  0  0  0  0  0
   -1.9269   -1.1908    0.3580 H   0  0  0  0  0  0  0  0  0  0  0  0
   -4.5956    0.8648    1.0669 H   0  0  0  0  0  0  0  0  0  0  0  0
   -1.9427    0.7021   -0.3479 H   0  0  0  0  0  0  0  0  0  0  0  0
   -0.4726    2.7741    2.0405 H   0  0  0  0  0  0  0  0  0  0  0  0
   -0.4831    1.8159   -0.8366 H   0  0  0  0  0  0  0  0  0  0  0  0
    0.1463    4.5363    0.4278 H   0  0  0  0  0  0  0  0  0  0  0  0
   -1.3944    4.2594   -0.4265 H   0  0  0  0  0  0  0  0  0  0  0  0
   -3.5525    4.9005    0.4221 H   0  0  0  0  0  0  0  0  0  0  0  0
   -4.8165    6.2971    1.9243 H   0  0  0  0  0  0  0  0  0  0  0  0
   -3.7145    7.3190    3.8825 H   0  0  0  0  0  0  0  0  0  0  0  0
   -1.3841    6.9480    4.3362 H   0  0  0  0  0  0  0  0  0  0  0  0
   -0.0103    5.5102    2.8292 H   0  0  0  0  0  0  0  0  0  0  0  0
   -4.1855    0.6378   -1.9763 H   0  0  0  0  0  0  0  0  0  0  0  0
   -4.6157    2.1334   -1.1515 H   0  0  0  0  0  0  0  0  0  0  0  0
   -5.8203   -1.1109   -2.3981 H   0  0  0  0  0  0  0  0  0  0  0  0
   -8.1117   -1.8199   -2.4013 H   0  0  0  0  0  0  0  0  0  0  0  0
   -9.0298    1.5133    0.2007 H   0  0  0  0  0  0  0  0  0  0  0  0
   -6.7317    2.1830    0.1909 H   0  0  0  0  0  0  0  0  0  0  0  0
   -4.0136   -5.5255    1.8192 H   0  0  0  0  0  0  0  0  0  0  0  0
   -2.2163   -5.7782    1.8754 H   0  0  0  0  0  0  0  0  0  0  0  0
    5.9422    1.0508   -0.9108 H   0  0  0  0  0  0  0  0  0  0  0  0
    7.0003    0.4578    0.2302 H   0  0  0  0  0  0  0  0  0  0  0  0
  1  2  1  0
  2  3  2  0
  3  4  1  0
  4  5  2  0
  5  6  1  0
  6  7  2  0
  5  8  1  0
  8  9  1  0
  9 10  1  0
 10 11  2  0
 10 12  1  0
 12 13  1  0
 13 14  1  0
 14 15  1  0
 15 16  1  0
 16 17  1  0
 17 18  1  0
 18 19  1  0
 19 20  2  0
 19 21  1  0
 21 22  1  0
 22 23  1  0
 23 24  1  0
 24 25  2  0
 24 26  1  0
 26 27  1  0
 27 28  1  0
 28 29  2  0
 28 30  1  0
 30 31  1  0
 31 32  1  0
 32 33  2  0
 30 34  1  0
 34 35  1  0
 35 36  2  0
 36 37  1  0
 37 38  2  0
 38 39  1  0
 39 40  2  0
 26 41  1  0
 41 42  1  0
 42 43  2  0
 43 44  1  0
 44 45  2  0
 45 46  1  0
 46 47  2  0
 45 48  1  0
 22 49  1  0
 49 50  2  0
 49 51  1  0
  9 52  1  0
  7  2  1  0
 32 13  1  0
 40 35  1  0
 47 42  1  0
  1 53  1  0
  3 54  1  0
  4 55  1  0
  6 56  1  0
  7 57  1  0
  8 58  1  0
  8 59  1  0
  9 60  1  6
 12 61  1  0
 13 62  1  1
 14 63  1  0
 14 64  1  0
 15 65  1  0
 15 66  1  0
 16 67  1  0
 16 68  1  0
 17 69  1  0
 17 70  1  0
 18 71  1  0
 21 72  1  0
 21 73  1  0
 22 74  1  6
 23 75  1  0
 26 76  1  1
 27 77  1  0
 30 78  1  1
 31 79  1  0
 34 80  1  0
 34 81  1  0
 36 82  1  0
 37 83  1  0
 38 84  1  0
 39 85  1  0
 40 86  1  0
 41 87  1  0
 41 88  1  0
 43 89  1  0
 44 90  1  0
 46 91  1  0
 47 92  1  0
 51 93  1  0
 51 94  1  0
 52 95  1  0
 52 96  1  0
M  END
>  <Ligand ID>  (1) 
LIG0003106

>  <Ligand>  (1) 
CHEMBL3582487

>  <SMILES>  (1) 
Oc1ccc(cc1)C[C@@H](C(=O)N[C@@H]1CCCCNC(=O)C[C@H](NC(=O)[C@@H](NC(=O)[C@@H](NC1=O)Cc1ccccc1)Cc1ccc(cc1)F)C(=O)N)N

>  <CID>  (1) 
122179560.0

>  <ChEMBL ID>  (1) 
nan

>  <InChiKey>  (1) 
VMSBCHKIZLVMCK-JZVHMONDSA-N

>  <InChi>  (1) 
InChI=1S/C37H44FN7O7/c38-25-13-9-24(10-14-25)20-31-36(51)43-29(33(40)48)21-32(47)41-17-5-4-8-28(42-34(49)27(39)18-23-11-15-26(46)16-12-23)35(50)44-30(37(52)45-31)19-22-6-2-1-3-7-22/h1-3,6-7,9-16,27-31,46H,4-5,8,17-21,39H2,(H2,40,48)(H,41,47)(H,42,49)(H,43,51)(H,44,50)(H,45,52)/t27-,28+,29-,30-,31-/m0/s1

>  <IUPAC Name>  (1) 
(2S,5S,8S,16R)-16-[[(2S)-2-amino-3-(4-hydroxyphenyl)propanoyl]amino]-2-benzyl-5-[(4-fluorophenyl)methyl]-3,6,10,17-tetraoxo-1,4,7,11-tetrazacycloheptadecane-8-carboxamide

$$$$
