
     RDKit          3D

 17 18  0  0  0  0  0  0  0  0999 V2000
    2.3718   -0.6255    0.0180 C   0  0  0  0  0  0  0  0  0  0  0  0
    2.2639    0.7562   -0.1212 C   0  0  0  0  0  0  0  0  0  0  0  0
    0.9973    1.3497   -0.1574 C   0  0  0  0  0  0  0  0  0  0  0  0
   -0.1372    0.5569   -0.0543 C   0  0  0  0  0  0  0  0  0  0  0  0
   -0.0099   -0.8119    0.0832 C   0  0  0  0  0  0  0  0  0  0  0  0
    1.2456   -1.4187    0.1210 C   0  0  0  0  0  0  0  0  0  0  0  0
   -1.0990   -1.5934    0.1843 N   0  0  0  0  0  0  0  0  0  0  0  0
   -2.3396   -1.0728    0.1551 C   0  0  0  0  0  0  0  0  0  0  0  0
   -2.4763    0.2934    0.0180 C   0  0  0  0  0  0  0  0  0  0  0  0
   -1.3898    1.1360   -0.0893 C   0  0  0  0  0  0  0  0  0  0  0  0
    3.3551   -1.0783    0.0453 H   0  0  0  0  0  0  0  0  0  0  0  0
    3.1593    1.3900   -0.2034 H   0  0  0  0  0  0  0  0  0  0  0  0
    0.9277    2.4381   -0.2674 H   0  0  0  0  0  0  0  0  0  0  0  0
    1.2854   -2.4936    0.2302 H   0  0  0  0  0  0  0  0  0  0  0  0
   -3.1870   -1.7497    0.2408 H   0  0  0  0  0  0  0  0  0  0  0  0
   -3.4665    0.7134   -0.0058 H   0  0  0  0  0  0  0  0  0  0  0  0
   -1.5007    2.2101   -0.1970 H   0  0  0  0  0  0  0  0  0  0  0  0
  1  2  2  0
  2  3  1  0
  3  4  2  0
  4  5  1  0
  5  6  2  0
  5  7  1  0
  7  8  2  0
  8  9  1  0
  9 10  2  0
  6  1  1  0
 10  4  1  0
  1 11  1  0
  2 12  1  0
  3 13  1  0
  6 14  1  0
  8 15  1  0
  9 16  1  0
 10 17  1  0
M  END
>  <Ligand ID>  (1) 
LIG0000090

>  <Ligand>  (1) 
quinoline

>  <SMILES>  (1) 
c1ccc2c(c1)nccc2

>  <CID>  (1) 
7047.0

>  <ChEMBL ID>  (1) 
nan

>  <InChiKey>  (1) 
SMWDFEZZVXVKRB-UHFFFAOYSA-N

>  <InChi>  (1) 
InChI=1S/C9H7N/c1-2-6-9-8(4-1)5-3-7-10-9/h1-7H

>  <IUPAC Name>  (1) 
quinoline

$$$$
