
     RDKit          3D

 52 55  0  0  0  0  0  0  0  0999 V2000
    2.9646   -3.0656    1.1923 C   0  0  0  0  0  0  0  0  0  0  0  0
    4.0807   -2.2152    0.9579 O   0  0  0  0  0  0  0  0  0  0  0  0
    3.9039   -0.9273    0.4716 C   0  0  0  0  0  0  0  0  0  0  0  0
    2.6648   -0.3934    0.1881 C   0  0  0  0  0  0  0  0  0  0  0  0
    2.5726    0.8931   -0.2918 C   0  0  0  0  0  0  0  0  0  0  0  0
    3.7216    1.6328   -0.4831 C   0  0  0  0  0  0  0  0  0  0  0  0
    4.9854    1.1373   -0.2119 C   0  0  0  0  0  0  0  0  0  0  0  0
    5.0346   -0.1634    0.2701 C   0  0  0  0  0  0  0  0  0  0  0  0
    6.2820   -0.6925    0.5524 O   0  0  0  0  0  0  0  0  0  0  0  0
    7.4506    0.0861    0.3482 C   0  0  0  0  0  0  0  0  0  0  0  0
    3.6047    2.8922   -0.9539 N   0  0  0  0  0  0  0  0  0  0  0  0
    2.3898    3.4050   -1.2274 C   0  0  0  0  0  0  0  0  0  0  0  0
    1.2692    2.6832   -1.0407 N   0  0  0  0  0  0  0  0  0  0  0  0
    1.3346    1.4240   -0.5736 C   0  0  0  0  0  0  0  0  0  0  0  0
    0.1122    0.7300   -0.4067 N   0  0  0  0  0  0  0  0  0  0  0  0
   -0.2262   -0.4966   -1.0989 C   0  0  0  0  0  0  0  0  0  0  0  0
   -1.4932   -0.1800   -1.9218 C   0  0  0  0  0  0  0  0  0  0  0  0
   -2.5116    0.2936   -0.9488 N   0  0  0  0  0  0  0  0  0  0  0  0
   -2.1595    1.5515   -0.3248 C   0  0  0  0  0  0  0  0  0  0  0  0
   -0.9232    1.2447    0.5155 C   0  0  0  0  0  0  0  0  0  0  0  0
   -3.6990   -0.4271   -0.7062 C   0  0  0  0  0  0  0  0  0  0  0  0
   -4.1722   -1.3454   -1.6219 C   0  0  0  0  0  0  0  0  0  0  0  0
   -5.3633   -2.0551   -1.4205 C   0  0  0  0  0  0  0  0  0  0  0  0
   -6.1218   -1.8645   -0.2873 C   0  0  0  0  0  0  0  0  0  0  0  0
   -5.6615   -0.9556    0.6279 C   0  0  0  0  0  0  0  0  0  0  0  0
   -4.4826   -0.2477    0.4381 C   0  0  0  0  0  0  0  0  0  0  0  0
   -4.1020    0.6431    1.4188 O   0  0  0  0  0  0  0  0  0  0  0  0
   -4.9101    0.8040    2.5608 C   0  0  0  0  0  0  0  0  0  0  0  0
    2.6319   -3.4913    0.2358 H   0  0  0  0  0  0  0  0  0  0  0  0
    3.2320   -3.8890    1.8773 H   0  0  0  0  0  0  0  0  0  0  0  0
    2.1291   -2.5083    1.6533 H   0  0  0  0  0  0  0  0  0  0  0  0
    1.7742   -0.9833    0.3433 H   0  0  0  0  0  0  0  0  0  0  0  0
    5.8740    1.7374   -0.3702 H   0  0  0  0  0  0  0  0  0  0  0  0
    8.3467   -0.4501    0.6588 H   0  0  0  0  0  0  0  0  0  0  0  0
    7.3519    1.0127    0.9831 H   0  0  0  0  0  0  0  0  0  0  0  0
    7.4879    0.4039   -0.7219 H   0  0  0  0  0  0  0  0  0  0  0  0
    2.3306    4.4194   -1.6042 H   0  0  0  0  0  0  0  0  0  0  0  0
   -0.5062   -1.2372   -0.3032 H   0  0  0  0  0  0  0  0  0  0  0  0
    0.5522   -0.8439   -1.7756 H   0  0  0  0  0  0  0  0  0  0  0  0
   -1.7930   -1.1042   -2.4256 H   0  0  0  0  0  0  0  0  0  0  0  0
   -1.2271    0.6335   -2.6095 H   0  0  0  0  0  0  0  0  0  0  0  0
   -2.9090    2.0779    0.2193 H   0  0  0  0  0  0  0  0  0  0  0  0
   -1.8766    2.2305   -1.1830 H   0  0  0  0  0  0  0  0  0  0  0  0
   -1.2280    0.4189    1.1890 H   0  0  0  0  0  0  0  0  0  0  0  0
   -0.5584    2.1291    1.0474 H   0  0  0  0  0  0  0  0  0  0  0  0
   -3.6746   -1.5815   -2.5539 H   0  0  0  0  0  0  0  0  0  0  0  0
   -5.7167   -2.7795   -2.1643 H   0  0  0  0  0  0  0  0  0  0  0  0
   -7.0292   -2.4370   -0.1844 H   0  0  0  0  0  0  0  0  0  0  0  0
   -6.2673   -0.8108    1.5210 H   0  0  0  0  0  0  0  0  0  0  0  0
   -5.8954    1.2625    2.2674 H   0  0  0  0  0  0  0  0  0  0  0  0
   -5.1286   -0.1480    3.0839 H   0  0  0  0  0  0  0  0  0  0  0  0
   -4.4455    1.5471    3.2447 H   0  0  0  0  0  0  0  0  0  0  0  0
  1  2  1  0
  2  3  1  0
  3  4  2  0
  4  5  1  0
  5  6  2  0
  6  7  1  0
  7  8  2  0
  8  9  1  0
  9 10  1  0
  6 11  1  0
 11 12  2  0
 12 13  1  0
 13 14  2  0
 14 15  1  0
 15 16  1  0
 16 17  1  0
 17 18  1  0
 18 19  1  0
 19 20  1  0
 18 21  1  0
 21 22  2  0
 22 23  1  0
 23 24  2  0
 24 25  1  0
 25 26  2  0
 26 27  1  0
 27 28  1  0
  8  3  1  0
 20 15  1  0
 26 21  1  0
 14  5  1  0
  1 29  1  0
  1 30  1  0
  1 31  1  0
  4 32  1  0
  7 33  1  0
 10 34  1  0
 10 35  1  0
 10 36  1  0
 12 37  1  0
 16 38  1  0
 16 39  1  0
 17 40  1  0
 17 41  1  0
 19 42  1  0
 19 43  1  0
 20 44  1  0
 20 45  1  0
 22 46  1  0
 23 47  1  0
 24 48  1  0
 25 49  1  0
 28 50  1  0
 28 51  1  0
 28 52  1  0
M  END
>  <Ligand ID>  (1) 
LIG0004871

>  <Ligand>  (1) 
CHEMBL2431112

>  <SMILES>  (1) 
COc1cc2c(cc1OC)ncnc2N1CCN(CC1)c1ccccc1OC

>  <CID>  (1) 
10339735.0

>  <ChEMBL ID>  (1) 
nan

>  <InChiKey>  (1) 
OTRKBWNAVFQFNL-UHFFFAOYSA-N

>  <InChi>  (1) 
InChI=1S/C21H24N4O3/c1-26-18-7-5-4-6-17(18)24-8-10-25(11-9-24)21-15-12-19(27-2)20(28-3)13-16(15)22-14-23-21/h4-7,12-14H,8-11H2,1-3H3

>  <IUPAC Name>  (1) 
6,7-dimethoxy-4-[4-(2-methoxyphenyl)piperazin-1-yl]quinazoline

$$$$
