
     RDKit          3D

 59 61  0  0  0  0  0  0  0  0999 V2000
    4.5340   -1.1331    0.0603 O   0  0  0  0  0  0  0  0  0  0  0  0
    3.8575   -0.7275   -1.0322 C   0  0  2  0  0  0  0  0  0  0  0  0
    4.6959   -0.0716   -2.0674 C   0  0  0  0  0  0  0  0  0  0  0  0
    5.4985    0.9383   -1.6112 O   0  0  0  0  0  0  0  0  0  0  0  0
    6.6015    0.9918   -0.8223 C   0  0  0  0  0  0  0  0  0  0  0  0
    7.1105    2.2696   -0.5508 C   0  0  0  0  0  0  0  0  0  0  0  0
    8.2280    2.4664    0.2244 C   0  0  0  0  0  0  0  0  0  0  0  0
    8.9081    1.4032    0.7786 C   0  0  0  0  0  0  0  0  0  0  0  0
    8.4306    0.1253    0.5300 C   0  0  0  0  0  0  0  0  0  0  0  0
    7.2879   -0.0497   -0.2660 C   0  0  0  0  0  0  0  0  0  0  0  0
   10.0407    1.5629    1.5633 O   0  0  0  0  0  0  0  0  0  0  0  0
    2.5767    0.0391   -0.8318 C   0  0  0  0  0  0  0  0  0  0  0  0
    1.5841   -0.7019   -0.1392 N   0  0  0  0  0  0  0  0  0  0  0  0
    1.7354   -0.9183    1.2480 C   0  0  0  0  0  0  0  0  0  0  0  0
    0.6817   -1.9557    1.6590 C   0  0  0  0  0  0  0  0  0  0  0  0
   -0.6247   -1.4438    1.1954 C   0  0  0  0  0  0  0  0  0  0  0  0
   -1.0482   -1.9160   -0.0452 C   0  0  0  0  0  0  0  0  0  0  0  0
   -2.2170   -1.5428   -0.6391 C   0  0  0  0  0  0  0  0  0  0  0  0
   -3.0541   -0.6297    0.0239 C   0  0  0  0  0  0  0  0  0  0  0  0
   -2.6499   -0.1551    1.2483 C   0  0  0  0  0  0  0  0  0  0  0  0
   -1.4364   -0.5615    1.8340 C   0  0  0  0  0  0  0  0  0  0  0  0
   -4.2322   -0.2940   -0.6527 N   0  0  0  0  0  0  0  0  0  0  0  0
   -5.4907   -0.9224   -0.4833 C   0  0  0  0  0  0  0  0  0  0  0  0
   -5.5750   -1.8564    0.3625 O   0  0  0  0  0  0  0  0  0  0  0  0
   -6.6746   -0.5052   -1.2710 C   0  0  0  0  0  0  0  0  0  0  0  0
   -7.6301    0.2191   -0.4000 C   0  0  0  0  0  0  0  0  0  0  0  0
   -8.5351   -0.3916    0.4336 C   0  0  0  0  0  0  0  0  0  0  0  0
   -9.3667    0.4604    1.1579 C   0  0  0  0  0  0  0  0  0  0  0  0
   -9.3157    1.8215    1.0718 C   0  0  0  0  0  0  0  0  0  0  0  0
   -8.4053    2.4247    0.2334 C   0  0  0  0  0  0  0  0  0  0  0  0
   -7.5748    1.6168   -0.4905 C   0  0  0  0  0  0  0  0  0  0  0  0
  -10.3726    2.8876    1.9894 Cl  0  0  0  0  0  0  0  0  0  0  0  0
    4.8543   -2.0618   -0.0496 H   0  0  0  0  0  0  0  0  0  0  0  0
    3.5070   -1.7343   -1.5963 H   0  0  0  0  0  0  0  0  0  0  0  0
    5.3651   -0.8410   -2.5867 H   0  0  0  0  0  0  0  0  0  0  0  0
    4.0521    0.3764   -2.8960 H   0  0  0  0  0  0  0  0  0  0  0  0
    6.6418    3.1658   -0.9492 H   0  0  0  0  0  0  0  0  0  0  0  0
    8.6285    3.4630    0.4343 H   0  0  0  0  0  0  0  0  0  0  0  0
    8.9501   -0.7252    0.9551 H   0  0  0  0  0  0  0  0  0  0  0  0
    7.0174   -1.0756   -0.4226 H   0  0  0  0  0  0  0  0  0  0  0  0
   10.8104    2.1297    1.2139 H   0  0  0  0  0  0  0  0  0  0  0  0
    2.8098    0.9923   -0.3363 H   0  0  0  0  0  0  0  0  0  0  0  0
    2.1633    0.3112   -1.8231 H   0  0  0  0  0  0  0  0  0  0  0  0
    0.6693   -0.1747   -0.2709 H   0  0  0  0  0  0  0  0  0  0  0  0
    2.6883   -1.3369    1.5925 H   0  0  0  0  0  0  0  0  0  0  0  0
    1.5028   -0.0236    1.8924 H   0  0  0  0  0  0  0  0  0  0  0  0
    0.6952   -2.1145    2.7759 H   0  0  0  0  0  0  0  0  0  0  0  0
    0.9718   -2.8721    1.1246 H   0  0  0  0  0  0  0  0  0  0  0  0
   -0.4191   -2.6327   -0.5930 H   0  0  0  0  0  0  0  0  0  0  0  0
   -2.5185   -1.9354   -1.6200 H   0  0  0  0  0  0  0  0  0  0  0  0
   -3.3003    0.5456    1.7518 H   0  0  0  0  0  0  0  0  0  0  0  0
   -1.1151   -0.1947    2.7967 H   0  0  0  0  0  0  0  0  0  0  0  0
   -4.1941    0.4894   -1.3403 H   0  0  0  0  0  0  0  0  0  0  0  0
   -6.3860    0.0772   -2.1715 H   0  0  0  0  0  0  0  0  0  0  0  0
   -7.1330   -1.4669   -1.6521 H   0  0  0  0  0  0  0  0  0  0  0  0
   -8.5621   -1.4571    0.4939 H   0  0  0  0  0  0  0  0  0  0  0  0
  -10.0992    0.0343    1.8352 H   0  0  0  0  0  0  0  0  0  0  0  0
   -8.3176    3.5063    0.1200 H   0  0  0  0  0  0  0  0  0  0  0  0
   -6.8500    2.1049   -1.1565 H   0  0  0  0  0  0  0  0  0  0  0  0
  1  2  1  0
  2  3  1  0
  3  4  1  0
  4  5  1  0
  5  6  2  0
  6  7  1  0
  7  8  2  0
  8  9  1  0
  9 10  2  0
  8 11  1  0
  2 12  1  0
 12 13  1  0
 13 14  1  0
 14 15  1  0
 15 16  1  0
 16 17  2  0
 17 18  1  0
 18 19  2  0
 19 20  1  0
 20 21  2  0
 19 22  1  0
 22 23  1  0
 23 24  2  0
 23 25  1  0
 25 26  1  0
 26 27  2  0
 27 28  1  0
 28 29  2  0
 29 30  1  0
 30 31  2  0
 29 32  1  0
 10  5  1  0
 21 16  1  0
 31 26  1  0
  1 33  1  0
  2 34  1  6
  3 35  1  0
  3 36  1  0
  6 37  1  0
  7 38  1  0
  9 39  1  0
 10 40  1  0
 11 41  1  0
 12 42  1  0
 12 43  1  0
 13 44  1  0
 14 45  1  0
 14 46  1  0
 15 47  1  0
 15 48  1  0
 17 49  1  0
 18 50  1  0
 20 51  1  0
 21 52  1  0
 22 53  1  0
 25 54  1  0
 25 55  1  0
 27 56  1  0
 28 57  1  0
 30 58  1  0
 31 59  1  0
M  END
>  <Ligand ID>  (1) 
LIG0002556

>  <Ligand>  (1) 
CHEMBL563810

>  <SMILES>  (1) 
O[C@H](COc1ccc(cc1)O)CNCCc1ccc(cc1)NC(=O)Cc1ccc(cc1)Cl

>  <CID>  (1) 
44127480.0

>  <ChEMBL ID>  (1) 
nan

>  <InChiKey>  (1) 
VFZWDKCDQQXMIZ-QHCPKHFHSA-N

>  <InChi>  (1) 
InChI=1S/C25H27ClN2O4/c26-20-5-1-19(2-6-20)15-25(31)28-21-7-3-18(4-8-21)13-14-27-16-23(30)17-32-24-11-9-22(29)10-12-24/h1-12,23,27,29-30H,13-17H2,(H,28,31)/t23-/m0/s1

>  <IUPAC Name>  (1) 
2-(4-chlorophenyl)-N-[4-[2-[[(2S)-2-hydroxy-3-(4-hydroxyphenoxy)propyl]amino]ethyl]phenyl]acetamide

$$$$
