
     RDKit          3D

 71 75  0  0  0  0  0  0  0  0999 V2000
   -0.8387    7.7050   -1.0132 Cl  0  0  0  0  0  0  0  0  0  0  0  0
    0.0052    6.1655   -0.8684 C   0  0  0  0  0  0  0  0  0  0  0  0
   -0.1316    5.2125   -1.8108 C   0  0  0  0  0  0  0  0  0  0  0  0
    0.3012    3.9006   -1.7364 C   0  0  0  0  0  0  0  0  0  0  0  0
    0.8718    3.6823   -0.4667 C   0  0  0  0  0  0  0  0  0  0  0  0
    1.0087    4.5741    0.4804 C   0  0  0  0  0  0  0  0  0  0  0  0
    0.6031    5.8853    0.3716 C   0  0  0  0  0  0  0  0  0  0  0  0
    1.9742    4.2110    1.9115 Cl  0  0  0  0  0  0  0  0  0  0  0  0
    1.1487    2.2102   -0.2461 N   0  0  0  0  0  0  0  0  0  0  0  0
    2.2527    1.5852   -0.4216 N   0  0  0  0  0  0  0  0  0  0  0  0
    2.0446    0.2800   -0.2535 C   0  0  0  0  0  0  0  0  0  0  0  0
    0.6853    0.0983    0.0036 C   0  0  0  0  0  0  0  0  0  0  0  0
    0.1500    1.3033    0.0598 C   0  0  0  0  0  0  0  0  0  0  0  0
   -1.2654    1.6624    0.4141 C   0  0  0  0  0  0  0  0  0  0  0  0
   -1.6030    2.7629    0.9482 C   0  0  0  0  0  0  0  0  0  0  0  0
   -3.0441    3.1842    1.2406 C   0  0  0  0  0  0  0  0  0  0  0  0
   -4.0349    2.3604    1.4873 C   0  0  0  0  0  0  0  0  0  0  0  0
   -5.2559    2.7427    0.8605 C   0  0  0  0  0  0  0  0  0  0  0  0
   -5.3759    3.8610    0.0604 C   0  0  0  0  0  0  0  0  0  0  0  0
   -4.2706    4.6693   -0.2494 C   0  0  0  0  0  0  0  0  0  0  0  0
   -3.1282    4.3234    0.3711 C   0  0  0  0  0  0  0  0  0  0  0  0
   -6.8614    4.2873   -0.7768 Cl  0  0  0  0  0  0  0  0  0  0  0  0
   -2.2346    0.5721    0.4454 C   0  0  0  0  0  0  0  0  0  0  0  0
   -1.6415   -0.6470   -0.0485 N   0  0  0  0  0  0  0  0  0  0  0  0
   -0.2554   -1.0590    0.0727 C   0  0  0  0  0  0  0  0  0  0  0  0
   -2.6091   -1.5115   -0.6166 C   0  0  0  0  0  0  0  0  0  0  0  0
   -2.9866   -1.5919   -1.7510 O   0  0  0  0  0  0  0  0  0  0  0  0
   -3.1820   -2.4866    0.4813 C   0  0  0  0  0  0  0  0  0  0  0  0
   -3.6728   -3.3401   -0.6149 N   0  0  0  0  0  0  0  0  0  0  0  0
   -3.8657   -4.9136   -0.1823 S   0  0  0  0  0  0  0  0  0  0  0  0
   -2.8553   -5.0909    1.0135 O   0  0  0  0  0  0  0  0  0  0  0  0
   -2.7417   -5.4184   -1.3343 O   0  0  0  0  0  0  0  0  0  0  0  0
   -5.0632   -6.0306   -0.1279 C   0  0  0  0  0  0  0  0  0  0  0  0
    3.0300   -0.7807   -0.1263 C   0  0  0  0  0  0  0  0  0  0  0  0
    4.0164   -0.3693    0.6070 O   0  0  0  0  0  0  0  0  0  0  0  0
    3.0256   -2.0564   -0.6241 N   0  0  0  0  0  0  0  0  0  0  0  0
    3.9912   -3.0870   -0.3081 C   0  0  1  0  0  0  0  0  0  0  0  0
    5.4052   -2.7542   -0.6157 C   0  0  0  0  0  0  0  0  0  0  0  0
    6.3349   -3.6517   -0.1419 C   0  0  0  0  0  0  0  0  0  0  0  0
    7.6359   -3.1796   -0.0800 C   0  0  0  0  0  0  0  0  0  0  0  0
    7.7785   -1.9069   -0.5091 C   0  0  0  0  0  0  0  0  0  0  0  0
    6.9093   -1.0159   -1.0358 C   0  0  0  0  0  0  0  0  0  0  0  0
    5.6231   -1.5173   -1.0731 N   0  0  0  0  0  0  0  0  0  0  0  0
    4.0223   -2.9902    1.3044 C   0  0  0  0  0  0  0  0  0  0  0  0
   -0.6104    5.5334   -2.7487 H   0  0  0  0  0  0  0  0  0  0  0  0
    0.1791    3.1697   -2.5277 H   0  0  0  0  0  0  0  0  0  0  0  0
    0.7622    6.6414    1.1449 H   0  0  0  0  0  0  0  0  0  0  0  0
   -0.8566    3.3537    1.4218 H   0  0  0  0  0  0  0  0  0  0  0  0
   -3.9769    1.5622    2.1650 H   0  0  0  0  0  0  0  0  0  0  0  0
   -6.1143    2.1191    1.0148 H   0  0  0  0  0  0  0  0  0  0  0  0
   -4.3503    5.5292   -0.9011 H   0  0  0  0  0  0  0  0  0  0  0  0
   -2.2409    4.9243    0.2711 H   0  0  0  0  0  0  0  0  0  0  0  0
   -3.1899    0.7225   -0.0009 H   0  0  0  0  0  0  0  0  0  0  0  0
   -2.3755    0.1887    1.5561 H   0  0  0  0  0  0  0  0  0  0  0  0
   -0.1093   -1.6407    1.0206 H   0  0  0  0  0  0  0  0  0  0  0  0
   -0.0106   -1.7548   -0.7456 H   0  0  0  0  0  0  0  0  0  0  0  0
   -3.9933   -1.7780    0.9087 H   0  0  0  0  0  0  0  0  0  0  0  0
   -2.5487   -2.8389    1.1411 H   0  0  0  0  0  0  0  0  0  0  0  0
   -4.9036   -3.0510   -0.3182 H   0  0  0  0  0  0  0  0  0  0  0  0
   -4.7650   -6.8834   -0.9399 H   0  0  0  0  0  0  0  0  0  0  0  0
   -6.1005   -5.7569   -0.4459 H   0  0  0  0  0  0  0  0  0  0  0  0
   -5.1356   -6.7388    0.7630 H   0  0  0  0  0  0  0  0  0  0  0  0
    2.2708   -2.3072   -1.3176 H   0  0  0  0  0  0  0  0  0  0  0  0
    3.6206   -4.0887   -0.4447 H   0  0  0  0  0  0  0  0  0  0  0  0
    6.1054   -4.6757    0.1692 H   0  0  0  0  0  0  0  0  0  0  0  0
    8.4455   -3.7614    0.3159 H   0  0  0  0  0  0  0  0  0  0  0  0
    8.7955   -1.4513   -0.2548 H   0  0  0  0  0  0  0  0  0  0  0  0
    7.1559   -0.0612   -1.4385 H   0  0  0  0  0  0  0  0  0  0  0  0
    3.9147   -3.9535    1.7491 H   0  0  0  0  0  0  0  0  0  0  0  0
    3.1845   -2.3458    1.6233 H   0  0  0  0  0  0  0  0  0  0  0  0
    4.9467   -2.4969    1.6192 H   0  0  0  0  0  0  0  0  0  0  0  0
  1  2  1  0
  2  3  2  0
  3  4  1  0
  4  5  2  0
  5  6  1  0
  6  7  2  0
  6  8  1  0
  5  9  1  0
  9 10  1  0
 10 11  2  0
 11 12  1  0
 12 13  2  0
 13 14  1  0
 14 15  2  0
 15 16  1  0
 16 17  2  0
 17 18  1  0
 18 19  2  0
 19 20  1  0
 20 21  2  0
 19 22  1  0
 14 23  1  0
 23 24  1  0
 24 25  1  0
 24 26  1  0
 26 27  2  0
 26 28  1  0
 28 29  1  0
 29 30  1  0
 30 31  2  0
 30 32  2  0
 30 33  1  0
 11 34  1  0
 34 35  2  0
 34 36  1  0
 36 37  1  0
 37 38  1  0
 38 39  2  0
 39 40  1  0
 40 41  2  0
 41 42  1  0
 42 43  2  0
 37 44  1  0
  7  2  1  0
 13  9  1  0
 21 16  1  0
 43 38  1  0
 25 12  1  0
  3 45  1  0
  4 46  1  0
  7 47  1  0
 15 48  1  0
 17 49  1  0
 18 50  1  0
 20 51  1  0
 21 52  1  0
 23 53  1  0
 23 54  1  0
 25 55  1  0
 25 56  1  0
 28 57  1  0
 28 58  1  0
 29 59  1  0
 33 60  1  0
 33 61  1  0
 33 62  1  0
 36 63  1  0
 37 64  1  1
 39 65  1  0
 40 66  1  0
 41 67  1  0
 42 68  1  0
 44 69  1  0
 44 70  1  0
 44 71  1  0
M  END
>  <Ligand ID>  (1) 
LIG0005434

>  <Ligand>  (1) 
CHEMBL3977281

>  <SMILES>  (1) 
Clc1ccc(c(c1)Cl)n1nc(c2c1/C(=C/c1ccc(cc1)Cl)/CN(C2)C(=O)CNS(=O)(=O)C)C(=O)N[C@@H](c1ccccn1)C

>  <CID>  (1) 
134152278.0

>  <ChEMBL ID>  (1) 
nan

>  <InChiKey>  (1) 
XVXWQXRAIFLXMM-JZQBQCRLSA-N

>  <InChi>  (1) 
InChI=1S/C30H27Cl3N6O4S/c1-18(25-5-3-4-12-34-25)36-30(41)28-23-17-38(27(40)15-35-44(2,42)43)16-20(13-19-6-8-21(31)9-7-19)29(23)39(37-28)26-11-10-22(32)14-24(26)33/h3-14,18,35H,15-17H2,1-2H3,(H,36,41)/b20-13+/t18-/m1/s1

>  <IUPAC Name>  (1) 
(7E)-7-[(4-chlorophenyl)methylidene]-1-(2,4-dichlorophenyl)-5-[2-(methanesulfonamido)acetyl]-N-[(1R)-1-pyridin-2-ylethyl]-4,6-dihydropyrazolo[4,3-c]pyridine-3-carboxamide

$$$$
