
     RDKit          3D

103107  0  0  0  0  0  0  0  0999 V2000
    3.5098   -3.1878    4.8896 N   0  0  0  0  0  0  0  0  0  0  0  0
    2.4770   -3.9049    4.2339 C   0  0  0  0  0  0  0  0  0  0  0  0
    1.2244   -3.6124    4.3196 N   0  0  0  0  0  0  0  0  0  0  0  0
    0.8123   -2.5007    5.1196 C   0  0  0  0  0  0  0  0  0  0  0  0
    1.0860   -1.2107    4.3590 C   0  0  0  0  0  0  0  0  0  0  0  0
    0.3096   -1.2593    3.0517 C   0  0  0  0  0  0  0  0  0  0  0  0
    0.5118    0.0753    2.3445 C   0  0  1  0  0  0  0  0  0  0  0  0
    1.8880    0.4031    2.0019 C   0  0  0  0  0  0  0  0  0  0  0  0
    2.9121    0.2685    2.6960 O   0  0  0  0  0  0  0  0  0  0  0  0
    2.1086    0.9559    0.6808 N   0  0  0  0  0  0  0  0  0  0  0  0
    3.4625    1.2994    0.2225 C   0  0  2  0  0  0  0  0  0  0  0  0
    3.6001    2.7434    0.3506 C   0  0  0  0  0  0  0  0  0  0  0  0
    4.7452    3.2987    0.1443 O   0  0  0  0  0  0  0  0  0  0  0  0
    2.5671    3.6564    0.6941 N   0  0  0  0  0  0  0  0  0  0  0  0
    3.6261    0.6943   -1.1241 C   0  0  0  0  0  0  0  0  0  0  0  0
    4.9196    0.9270   -1.7645 C   0  0  0  0  0  0  0  0  0  0  0  0
    5.9685   -0.0115   -1.6670 C   0  0  0  0  0  0  0  0  0  0  0  0
    7.0429    0.4651   -2.3309 N   0  0  0  0  0  0  0  0  0  0  0  0
    6.7287    1.6591   -2.8460 C   0  0  0  0  0  0  0  0  0  0  0  0
    5.4171    1.9690   -2.5091 C   0  0  0  0  0  0  0  0  0  0  0  0
    4.8580    3.1617   -2.9470 C   0  0  0  0  0  0  0  0  0  0  0  0
    5.6325    3.9972   -3.7039 C   0  0  0  0  0  0  0  0  0  0  0  0
    6.9297    3.6856   -4.0331 C   0  0  0  0  0  0  0  0  0  0  0  0
    7.5092    2.5164   -3.6161 C   0  0  0  0  0  0  0  0  0  0  0  0
   -0.4512    0.3211    1.2800 N   0  0  0  0  0  0  0  0  0  0  0  0
   -1.3445   -0.5872    0.7232 C   0  0  0  0  0  0  0  0  0  0  0  0
   -1.2702   -1.7989    1.2173 O   0  0  0  0  0  0  0  0  0  0  0  0
   -2.3529   -0.4562   -0.3083 C   0  0  2  0  0  0  0  0  0  0  0  0
   -2.8045   -1.8193   -0.6177 N   0  0  0  0  0  0  0  0  0  0  0  0
   -4.0872   -2.3091   -0.2789 C   0  0  0  0  0  0  0  0  0  0  0  0
   -4.9749   -1.6539    0.3080 O   0  0  0  0  0  0  0  0  0  0  0  0
   -4.3856   -3.7189   -0.6586 C   0  0  2  0  0  0  0  0  0  0  0  0
   -4.6996   -4.4684    0.6236 C   0  0  0  0  0  0  0  0  0  0  0  0
   -4.9905   -5.8804    0.2526 C   0  0  0  0  0  0  0  0  0  0  0  0
   -6.1929   -6.4008   -0.0640 N   0  0  0  0  0  0  0  0  0  0  0  0
   -6.0329   -7.7249   -0.3385 C   0  0  0  0  0  0  0  0  0  0  0  0
   -4.7293   -8.0172   -0.1895 N   0  0  0  0  0  0  0  0  0  0  0  0
   -4.0468   -6.9060    0.1757 C   0  0  0  0  0  0  0  0  0  0  0  0
   -3.2999   -4.3946   -1.2964 N   0  0  0  0  0  0  0  0  0  0  0  0
   -3.3539   -5.0094   -2.5749 C   0  0  0  0  0  0  0  0  0  0  0  0
   -4.4053   -5.0041   -3.2619 O   0  0  0  0  0  0  0  0  0  0  0  0
   -2.1140   -5.6739   -3.0975 C   0  0  0  0  0  0  0  0  0  0  0  0
   -2.2398    0.4147   -1.4696 C   0  0  0  0  0  0  0  0  0  0  0  0
   -2.1492    1.8683   -1.2817 C   0  0  0  0  0  0  0  0  0  0  0  0
   -3.3667    2.5361   -1.0595 C   0  0  0  0  0  0  0  0  0  0  0  0
   -3.4181    3.9049   -0.8972 C   0  0  0  0  0  0  0  0  0  0  0  0
   -2.2556    4.6806   -0.9464 C   0  0  0  0  0  0  0  0  0  0  0  0
   -1.0654    4.0201   -1.1656 C   0  0  0  0  0  0  0  0  0  0  0  0
   -1.0389    2.6497   -1.3266 C   0  0  0  0  0  0  0  0  0  0  0  0
   -2.3338    6.1131   -0.7475 C   0  0  0  0  0  0  0  0  0  0  0  0
   -3.3859    6.9134   -1.1161 C   0  0  0  0  0  0  0  0  0  0  0  0
   -3.4197    8.2777   -0.8620 C   0  0  0  0  0  0  0  0  0  0  0  0
   -2.3451    8.8739   -0.2049 C   0  0  0  0  0  0  0  0  0  0  0  0
   -1.2723    8.0904    0.1767 C   0  0  0  0  0  0  0  0  0  0  0  0
   -1.2673    6.7276   -0.0914 C   0  0  0  0  0  0  0  0  0  0  0  0
    2.7819   -5.0535    3.4105 N   0  0  0  0  0  0  0  0  0  0  0  0
    4.4140   -2.9627    4.4062 H   0  0  0  0  0  0  0  0  0  0  0  0
    3.3851   -2.8690    5.8785 H   0  0  0  0  0  0  0  0  0  0  0  0
   -0.2672   -2.4961    5.3914 H   0  0  0  0  0  0  0  0  0  0  0  0
    1.3995   -2.5013    6.0839 H   0  0  0  0  0  0  0  0  0  0  0  0
    2.1659   -1.0612    4.2444 H   0  0  0  0  0  0  0  0  0  0  0  0
    0.7020   -0.3810    5.0082 H   0  0  0  0  0  0  0  0  0  0  0  0
   -0.7553   -1.3110    3.3444 H   0  0  0  0  0  0  0  0  0  0  0  0
    0.5769   -2.1298    2.4558 H   0  0  0  0  0  0  0  0  0  0  0  0
    0.1477    0.7879    3.1710 H   0  0  0  0  0  0  0  0  0  0  0  0
    1.3358    1.1322    0.0137 H   0  0  0  0  0  0  0  0  0  0  0  0
    4.1308    0.7594    0.9509 H   0  0  0  0  0  0  0  0  0  0  0  0
    2.3768    3.7431    1.7379 H   0  0  0  0  0  0  0  0  0  0  0  0
    2.0283    4.2077   -0.0046 H   0  0  0  0  0  0  0  0  0  0  0  0
    3.4192   -0.4241   -1.0564 H   0  0  0  0  0  0  0  0  0  0  0  0
    2.7960    1.0606   -1.8164 H   0  0  0  0  0  0  0  0  0  0  0  0
    5.9533   -0.9625   -1.1547 H   0  0  0  0  0  0  0  0  0  0  0  0
    7.9808   -0.0199   -2.4305 H   0  0  0  0  0  0  0  0  0  0  0  0
    3.8409    3.3448   -2.6531 H   0  0  0  0  0  0  0  0  0  0  0  0
    5.2041    4.9309   -4.0539 H   0  0  0  0  0  0  0  0  0  0  0  0
    7.4991    4.3707   -4.6286 H   0  0  0  0  0  0  0  0  0  0  0  0
    8.5472    2.2392   -3.8653 H   0  0  0  0  0  0  0  0  0  0  0  0
   -0.4606    1.3016    0.9242 H   0  0  0  0  0  0  0  0  0  0  0  0
   -3.2512    0.0284    0.2950 H   0  0  0  0  0  0  0  0  0  0  0  0
   -2.1147   -2.4238   -1.1153 H   0  0  0  0  0  0  0  0  0  0  0  0
   -5.3054   -3.6814   -1.2786 H   0  0  0  0  0  0  0  0  0  0  0  0
   -3.7992   -4.4307    1.2802 H   0  0  0  0  0  0  0  0  0  0  0  0
   -5.5200   -4.0063    1.2074 H   0  0  0  0  0  0  0  0  0  0  0  0
   -7.1182   -5.9261   -0.1063 H   0  0  0  0  0  0  0  0  0  0  0  0
   -6.8413   -8.4142   -0.6299 H   0  0  0  0  0  0  0  0  0  0  0  0
   -2.9773   -6.8504    0.3653 H   0  0  0  0  0  0  0  0  0  0  0  0
   -2.3876   -4.4397   -0.7789 H   0  0  0  0  0  0  0  0  0  0  0  0
   -2.2616   -6.7629   -2.9715 H   0  0  0  0  0  0  0  0  0  0  0  0
   -1.2288   -5.3732   -2.4925 H   0  0  0  0  0  0  0  0  0  0  0  0
   -2.0217   -5.4295   -4.1585 H   0  0  0  0  0  0  0  0  0  0  0  0
   -1.2380    0.1392   -1.9758 H   0  0  0  0  0  0  0  0  0  0  0  0
   -2.9446    0.1500   -2.3097 H   0  0  0  0  0  0  0  0  0  0  0  0
   -4.3001    1.9898   -1.0103 H   0  0  0  0  0  0  0  0  0  0  0  0
   -4.3992    4.3584   -0.7303 H   0  0  0  0  0  0  0  0  0  0  0  0
   -0.1457    4.6142   -1.2064 H   0  0  0  0  0  0  0  0  0  0  0  0
   -0.0924    2.1822   -1.5028 H   0  0  0  0  0  0  0  0  0  0  0  0
   -4.2276    6.4271   -1.6373 H   0  0  0  0  0  0  0  0  0  0  0  0
   -4.2885    8.8324   -1.1880 H   0  0  0  0  0  0  0  0  0  0  0  0
   -2.4070    9.9374   -0.0215 H   0  0  0  0  0  0  0  0  0  0  0  0
   -0.4269    8.5299    0.6886 H   0  0  0  0  0  0  0  0  0  0  0  0
   -0.4170    6.1413    0.2178 H   0  0  0  0  0  0  0  0  0  0  0  0
    3.6563   -5.0963    2.8506 H   0  0  0  0  0  0  0  0  0  0  0  0
    2.1027   -5.8588    3.3821 H   0  0  0  0  0  0  0  0  0  0  0  0
  1  2  1  0
  2  3  2  3
  3  4  1  0
  4  5  1  0
  5  6  1  0
  6  7  1  0
  7  8  1  0
  8  9  2  0
  8 10  1  0
 10 11  1  0
 11 12  1  0
 12 13  2  0
 12 14  1  0
 11 15  1  0
 15 16  1  0
 16 17  2  0
 17 18  1  0
 18 19  1  0
 19 20  2  0
 20 21  1  0
 21 22  2  0
 22 23  1  0
 23 24  2  0
  7 25  1  0
 25 26  1  0
 26 27  2  0
 26 28  1  0
 28 29  1  0
 29 30  1  0
 30 31  2  0
 30 32  1  0
 32 33  1  0
 33 34  1  0
 34 35  1  0
 35 36  1  0
 36 37  2  0
 37 38  1  0
 32 39  1  0
 39 40  1  0
 40 41  2  0
 40 42  1  0
 28 43  1  0
 43 44  1  0
 44 45  2  0
 45 46  1  0
 46 47  2  0
 47 48  1  0
 48 49  2  0
 47 50  1  0
 50 51  2  0
 51 52  1  0
 52 53  2  0
 53 54  1  0
 54 55  2  0
  2 56  1  0
 20 16  1  0
 38 34  2  0
 49 44  1  0
 55 50  1  0
 24 19  1  0
  1 57  1  0
  1 58  1  0
  4 59  1  0
  4 60  1  0
  5 61  1  0
  5 62  1  0
  6 63  1  0
  6 64  1  0
  7 65  1  1
 10 66  1  0
 11 67  1  1
 14 68  1  0
 14 69  1  0
 15 70  1  0
 15 71  1  0
 17 72  1  0
 18 73  1  0
 21 74  1  0
 22 75  1  0
 23 76  1  0
 24 77  1  0
 25 78  1  0
 28 79  1  1
 29 80  1  0
 32 81  1  6
 33 82  1  0
 33 83  1  0
 35 84  1  0
 36 85  1  0
 38 86  1  0
 39 87  1  0
 42 88  1  0
 42 89  1  0
 42 90  1  0
 43 91  1  0
 43 92  1  0
 45 93  1  0
 46 94  1  0
 48 95  1  0
 49 96  1  0
 51 97  1  0
 52 98  1  0
 53 99  1  0
 54100  1  0
 55101  1  0
 56102  1  0
 56103  1  0
M  END
>  <Ligand ID>  (1) 
LIG0001429

>  <Ligand>  (1) 
CHEMBL319871

>  <SMILES>  (1) 
NC(=NCCC[C@@H](C(=O)N[C@H](C(=O)N)Cc1c[nH]c2c1cccc2)NC(=O)[C@H](NC(=O)[C@H](Cc1[nH]cnc1)NC(=O)C)Cc1ccc(cc1)c1ccccc1)N

>  <CID>  (1) 
10974712.0

>  <ChEMBL ID>  (1) 
nan

>  <InChiKey>  (1) 
UBLNHOLZZIWLTH-KMSCUOMXSA-N

>  <InChi>  (1) 
InChI=1S/C40H47N11O5/c1-24(52)48-35(20-29-22-44-23-47-29)39(56)51-34(18-25-13-15-27(16-14-25)26-8-3-2-4-9-26)38(55)49-32(12-7-17-45-40(42)43)37(54)50-33(36(41)53)19-28-21-46-31-11-6-5-10-30(28)31/h2-6,8-11,13-16,21-23,32-35,46H,7,12,17-20H2,1H3,(H2,41,53)(H,44,47)(H,48,52)(H,49,55)(H,50,54)(H,51,56)(H4,42,43,45)/t32-,33-,34+,35-/m0/s1

>  <IUPAC Name>  (1) 
(2S)-2-[[(2R)-2-[[(2S)-2-acetamido-3-(1H-imidazol-5-yl)propanoyl]amino]-3-(4-phenylphenyl)propanoyl]amino]-N-[(2S)-1-amino-3-(1H-indol-3-yl)-1-oxopropan-2-yl]-5-(diaminomethylideneamino)pentanamide

$$$$
