
     RDKit          3D

 48 48  0  0  0  0  0  0  0  0999 V2000
    2.1042    0.9541    2.7377 O   0  0  0  0  0  0  0  0  0  0  0  0
    2.7748    2.1220    2.4822 C   0  0  0  0  0  0  0  0  0  0  0  0
    2.5515    3.0942    3.2767 O   0  0  0  0  0  0  0  0  0  0  0  0
    3.7200    2.3595    1.3891 C   0  0  0  0  0  0  0  0  0  0  0  0
    3.9341    1.2936    0.5223 O   0  0  0  0  0  0  0  0  0  0  0  0
    2.9857    0.6785   -0.2590 C   0  0  0  0  0  0  0  0  0  0  0  0
    1.6564    1.0350   -0.3080 C   0  0  0  0  0  0  0  0  0  0  0  0
    0.7863    0.3470   -1.1299 C   0  0  0  0  0  0  0  0  0  0  0  0
    1.1930   -0.7055   -1.9240 C   0  0  0  0  0  0  0  0  0  0  0  0
    2.5225   -1.0684   -1.8807 C   0  0  0  0  0  0  0  0  0  0  0  0
    3.3821   -0.3725   -1.0546 C   0  0  0  0  0  0  0  0  0  0  0  0
    4.7065   -0.7731   -1.0450 O   0  0  0  0  0  0  0  0  0  0  0  0
    5.2234   -1.8194   -1.8045 C   0  0  0  0  0  0  0  0  0  0  0  0
    6.6782   -2.0198   -1.5883 C   0  0  0  0  0  0  0  0  0  0  0  0
    7.2671   -2.9309   -2.2127 O   0  0  0  0  0  0  0  0  0  0  0  0
    7.3605   -1.1879   -0.6927 O   0  0  0  0  0  0  0  0  0  0  0  0
   -0.6302    0.7440   -1.1671 C   0  0  0  0  0  0  0  0  0  0  0  0
   -1.6051    0.1400    0.2190 P   0  0  0  0  0  0  0  0  0  0  0  0
   -1.2533   -1.2791    0.5861 O   0  0  0  0  0  0  0  0  0  0  0  0
   -3.3671    0.1915   -0.2818 C   0  0  0  0  0  0  0  0  0  0  0  0
   -4.2190   -0.7225    0.5386 C   0  0  0  0  0  0  0  0  0  0  0  0
   -5.6726   -0.7035    0.1522 C   0  0  1  0  0  0  0  0  0  0  0  0
   -6.4639   -1.6309    1.0028 C   0  0  0  0  0  0  0  0  0  0  0  0
   -6.1272   -2.8376    1.1286 O   0  0  0  0  0  0  0  0  0  0  0  0
   -7.6062   -1.1743    1.6840 O   0  0  0  0  0  0  0  0  0  0  0  0
   -6.2690    0.5885    0.1872 N   0  0  0  0  0  0  0  0  0  0  0  0
   -1.3625    1.1188    1.5825 O   0  0  0  0  0  0  0  0  0  0  0  0
   -0.7703    2.1315   -1.2503 O   0  0  0  0  0  0  0  0  0  0  0  0
    1.9634    0.6029    3.6805 H   0  0  0  0  0  0  0  0  0  0  0  0
    4.7045    2.6126    1.8661 H   0  0  0  0  0  0  0  0  0  0  0  0
    3.4013    3.2782    0.8360 H   0  0  0  0  0  0  0  0  0  0  0  0
    1.3009    1.8444    0.2867 H   0  0  0  0  0  0  0  0  0  0  0  0
    0.4820   -1.2242   -2.5583 H   0  0  0  0  0  0  0  0  0  0  0  0
    2.8890   -1.8922   -2.4894 H   0  0  0  0  0  0  0  0  0  0  0  0
    4.9678   -1.7558   -2.8818 H   0  0  0  0  0  0  0  0  0  0  0  0
    4.7283   -2.7594   -1.4503 H   0  0  0  0  0  0  0  0  0  0  0  0
    8.3645   -1.3196   -0.6796 H   0  0  0  0  0  0  0  0  0  0  0  0
   -1.1428    0.3557   -2.0956 H   0  0  0  0  0  0  0  0  0  0  0  0
   -3.4787   -0.0405   -1.3531 H   0  0  0  0  0  0  0  0  0  0  0  0
   -3.6750    1.2519   -0.0905 H   0  0  0  0  0  0  0  0  0  0  0  0
   -3.8593   -1.7690    0.4521 H   0  0  0  0  0  0  0  0  0  0  0  0
   -4.1546   -0.4588    1.6155 H   0  0  0  0  0  0  0  0  0  0  0  0
   -5.7749   -1.0944   -0.8928 H   0  0  0  0  0  0  0  0  0  0  0  0
   -8.3796   -1.8206    1.8840 H   0  0  0  0  0  0  0  0  0  0  0  0
   -5.8988    1.2633    0.8587 H   0  0  0  0  0  0  0  0  0  0  0  0
   -6.5020    0.9840   -0.7475 H   0  0  0  0  0  0  0  0  0  0  0  0
   -1.8062    1.9984    1.4080 H   0  0  0  0  0  0  0  0  0  0  0  0
   -1.6294    2.3704   -0.8134 H   0  0  0  0  0  0  0  0  0  0  0  0
  1  2  1  0
  2  3  2  0
  2  4  1  0
  4  5  1  0
  5  6  1  0
  6  7  2  0
  7  8  1  0
  8  9  2  0
  9 10  1  0
 10 11  2  0
 11 12  1  0
 12 13  1  0
 13 14  1  0
 14 15  2  0
 14 16  1  0
  8 17  1  0
 17 18  1  0
 18 19  2  0
 18 20  1  0
 20 21  1  0
 21 22  1  0
 22 23  1  0
 23 24  2  0
 23 25  1  0
 22 26  1  0
 18 27  1  0
 17 28  1  0
 11  6  1  0
  1 29  1  0
  4 30  1  0
  4 31  1  0
  7 32  1  0
  9 33  1  0
 10 34  1  0
 13 35  1  0
 13 36  1  0
 16 37  1  0
 17 38  1  0
 20 39  1  0
 20 40  1  0
 21 41  1  0
 21 42  1  0
 22 43  1  6
 25 44  1  0
 26 45  1  0
 26 46  1  0
 27 47  1  0
 28 48  1  0
M  END
>  <Ligand ID>  (1) 
LIG0005782

>  <Ligand>  (1) 
CHEMBL3917132

>  <SMILES>  (1) 
OC(=O)COc1cc(ccc1OCC(=O)O)C(P(=O)(CC[C@@H](C(=O)O)N)O)O

>  <CID>  (1) 
71041748.0

>  <ChEMBL ID>  (1) 
nan

>  <InChiKey>  (1) 
LIXSYEXTLWDJIL-HJULIUOESA-N

>  <InChi>  (1) 
InChI=1S/C15H20NO11P/c16-9(14(21)22)3-4-28(24,25)15(23)8-1-2-10(26-6-12(17)18)11(5-8)27-7-13(19)20/h1-2,5,9,15,23H,3-4,6-7,16H2,(H,17,18)(H,19,20)(H,21,22)(H,24,25)/t9-,15?/m0/s1

>  <IUPAC Name>  (1) 
(2S)-2-amino-4-[[[3,4-bis(carboxymethoxy)phenyl]-hydroxymethyl]-hydroxyphosphoryl]butanoic acid

$$$$
