
     RDKit          3D

 62 64  0  0  0  0  0  0  0  0999 V2000
    0.3268    1.2548    2.3303 O   0  0  0  0  0  0  0  0  0  0  0  0
    0.2207    0.1323    1.5223 C   0  0  2  0  0  0  0  0  0  0  0  0
    1.4770   -0.7290    1.7088 C   0  0  2  0  0  0  0  0  0  0  0  0
    2.0076   -0.5304    2.9853 O   0  0  0  0  0  0  0  0  0  0  0  0
    2.3466   -0.0808    0.6684 C   0  0  2  0  0  0  0  0  0  0  0  0
    1.4947   -0.0818   -0.4374 O   0  0  0  0  0  0  0  0  0  0  0  0
    0.3967    0.5815    0.0732 C   0  0  1  0  0  0  0  0  0  0  0  0
   -0.7682    0.2702   -0.7042 N   0  0  0  0  0  0  0  0  0  0  0  0
   -1.5682    1.3047   -1.0545 C   0  0  0  0  0  0  0  0  0  0  0  0
   -2.7281    1.0906   -1.7672 C   0  0  0  0  0  0  0  0  0  0  0  0
   -3.0539   -0.2264   -2.1167 C   0  0  0  0  0  0  0  0  0  0  0  0
   -2.2437   -1.2315   -1.7563 N   0  0  0  0  0  0  0  0  0  0  0  0
   -1.0965   -0.9983   -1.0496 C   0  0  0  0  0  0  0  0  0  0  0  0
   -0.3478   -1.9637   -0.7216 O   0  0  0  0  0  0  0  0  0  0  0  0
   -4.2794   -0.4260   -2.8503 N   0  0  0  0  0  0  0  0  0  0  0  0
   -5.4029   -0.2305   -2.0891 O   0  0  0  0  0  0  0  0  0  0  0  0
   -6.4469    0.3094   -2.8212 C   0  0  0  0  0  0  0  0  0  0  0  0
   -7.2083    1.2574   -1.9144 C   0  0  0  0  0  0  0  0  0  0  0  0
   -7.7600    0.6012   -0.7120 C   0  0  0  0  0  0  0  0  0  0  0  0
   -6.8887    0.5214    0.3786 C   0  0  0  0  0  0  0  0  0  0  0  0
   -7.3384   -0.0721    1.5324 C   0  0  0  0  0  0  0  0  0  0  0  0
   -8.6090   -0.5914    1.6643 C   0  0  0  0  0  0  0  0  0  0  0  0
   -9.4621   -0.4990    0.5645 C   0  0  0  0  0  0  0  0  0  0  0  0
   -9.0443    0.0973   -0.6309 C   0  0  0  0  0  0  0  0  0  0  0  0
    3.6847   -0.7132    0.4585 C   0  0  0  0  0  0  0  0  0  0  0  0
    4.4371   -0.6951    1.6388 O   0  0  0  0  0  0  0  0  0  0  0  0
    6.0181   -0.2222    1.4538 P   0  0  0  0  0  0  0  0  0  0  0  0
    6.1265    1.1677    0.8452 O   0  0  0  0  0  0  0  0  0  0  0  0
    6.9939   -1.3106    0.6173 O   0  0  0  0  0  0  0  0  0  0  0  0
    7.6393   -0.5789   -0.7682 P   0  0  0  0  0  0  0  0  0  0  0  0
    6.6851   -0.7744   -1.9229 O   0  0  0  0  0  0  0  0  0  0  0  0
    7.9114    1.0466   -0.4529 O   0  0  0  0  0  0  0  0  0  0  0  0
    9.1757    1.2316    0.6294 P   0  0  0  0  0  0  0  0  0  0  0  0
    8.9320    2.3941    1.5816 O   0  0  0  0  0  0  0  0  0  0  0  0
   10.6440    1.5353   -0.1718 O   0  0  0  0  0  0  0  0  0  0  0  0
    9.4149   -0.1293    1.5938 O   0  0  0  0  0  0  0  0  0  0  0  0
    9.0672   -1.3527   -1.1709 O   0  0  0  0  0  0  0  0  0  0  0  0
    6.6673   -0.0750    3.0338 O   0  0  0  0  0  0  0  0  0  0  0  0
    1.2516    1.5014    2.5189 H   0  0  0  0  0  0  0  0  0  0  0  0
   -0.6992   -0.4463    1.6460 H   0  0  0  0  0  0  0  0  0  0  0  0
    1.2197   -1.7789    1.5125 H   0  0  0  0  0  0  0  0  0  0  0  0
    2.3631   -1.3777    3.3264 H   0  0  0  0  0  0  0  0  0  0  0  0
    2.4798    0.9817    1.0093 H   0  0  0  0  0  0  0  0  0  0  0  0
    0.6356    1.6621    0.0119 H   0  0  0  0  0  0  0  0  0  0  0  0
   -1.3290    2.3220   -0.7933 H   0  0  0  0  0  0  0  0  0  0  0  0
   -3.3957    1.8694   -2.0688 H   0  0  0  0  0  0  0  0  0  0  0  0
   -4.3059   -0.6872   -3.8497 H   0  0  0  0  0  0  0  0  0  0  0  0
   -7.1301   -0.4900   -3.1663 H   0  0  0  0  0  0  0  0  0  0  0  0
   -6.0767    0.8632   -3.6896 H   0  0  0  0  0  0  0  0  0  0  0  0
   -8.0607    1.6614   -2.4761 H   0  0  0  0  0  0  0  0  0  0  0  0
   -6.5549    2.0905   -1.5770 H   0  0  0  0  0  0  0  0  0  0  0  0
   -5.8841    0.9080    0.3336 H   0  0  0  0  0  0  0  0  0  0  0  0
   -6.6432   -0.1152    2.3635 H   0  0  0  0  0  0  0  0  0  0  0  0
   -8.9290   -1.0539    2.5914 H   0  0  0  0  0  0  0  0  0  0  0  0
  -10.4614   -0.8974    0.6548 H   0  0  0  0  0  0  0  0  0  0  0  0
   -9.6898    0.1769   -1.4792 H   0  0  0  0  0  0  0  0  0  0  0  0
    4.1891   -0.1455   -0.3518 H   0  0  0  0  0  0  0  0  0  0  0  0
    3.5332   -1.7837    0.1971 H   0  0  0  0  0  0  0  0  0  0  0  0
   11.4232    1.1780    0.3114 H   0  0  0  0  0  0  0  0  0  0  0  0
    9.7346   -0.8926    1.0570 H   0  0  0  0  0  0  0  0  0  0  0  0
    8.9547   -2.0079   -1.9153 H   0  0  0  0  0  0  0  0  0  0  0  0
    5.9544    0.2022    3.6654 H   0  0  0  0  0  0  0  0  0  0  0  0
  1  2  1  0
  2  3  1  0
  3  4  1  0
  3  5  1  0
  5  6  1  0
  6  7  1  0
  7  8  1  0
  8  9  1  0
  9 10  2  0
 10 11  1  0
 11 12  2  0
 12 13  1  0
 13 14  2  0
 11 15  1  0
 15 16  1  0
 16 17  1  0
 17 18  1  0
 18 19  1  0
 19 20  2  0
 20 21  1  0
 21 22  2  0
 22 23  1  0
 23 24  2  0
  5 25  1  0
 25 26  1  0
 26 27  1  0
 27 28  2  0
 27 29  1  0
 29 30  1  0
 30 31  2  0
 30 32  1  0
 32 33  1  0
 33 34  2  0
 33 35  1  0
 33 36  1  0
 30 37  1  0
 27 38  1  0
  7  2  1  0
 13  8  1  0
 24 19  1  0
  1 39  1  0
  2 40  1  6
  3 41  1  6
  4 42  1  0
  5 43  1  1
  7 44  1  1
  9 45  1  0
 10 46  1  0
 15 47  1  0
 17 48  1  0
 17 49  1  0
 18 50  1  0
 18 51  1  0
 20 52  1  0
 21 53  1  0
 22 54  1  0
 23 55  1  0
 24 56  1  0
 25 57  1  0
 25 58  1  0
 35 59  1  0
 36 60  1  0
 37 61  1  0
 38 62  1  0
M  END
>  <Ligand ID>  (1) 
LIG0002685

>  <Ligand>  (1) 
N4-(phenylethoxy)-CTP

>  <SMILES>  (1) 
O[C@@H]1[C@H](O)[C@H](O[C@H]1n1ccc(nc1=O)NOCCc1ccccc1)COP(=O)(OP(=O)(OP(=O)(O)O)O)O

>  <CID>  (1) 
53262890.0

>  <ChEMBL ID>  (1) 
nan

>  <InChiKey>  (1) 
WREOTYWODABZMH-DTZQCDIJSA-N

>  <InChi>  (1) 
InChI=1S/C17H24N3O15P3/c21-14-12(10-32-37(27,28)35-38(29,30)34-36(24,25)26)33-16(15(14)22)20-8-6-13(18-17(20)23)19-31-9-7-11-4-2-1-3-5-11/h1-6,8,12,14-16,21-22H,7,9-10H2,(H,27,28)(H,29,30)(H,18,19,23)(H2,24,25,26)/t12-,14-,15-,16-/m1/s1

>  <IUPAC Name>  (1) 
[[(2R,3S,4R,5R)-3,4-dihydroxy-5-[2-oxo-4-(2-phenylethoxyamino)pyrimidin-1-yl]oxolan-2-yl]methoxy-hydroxyphosphoryl] phosphono hydrogen phosphate

$$$$
