
     RDKit          3D

 32 32  0  0  0  0  0  0  0  0999 V2000
    3.3374   -0.7340   -1.7041 N   0  0  0  0  0  0  0  0  0  0  0  0
    2.5516   -0.1695   -0.6149 C   0  0  0  0  0  0  0  0  0  0  0  0
    3.5081    0.5037    0.2946 C   0  0  0  0  0  0  0  0  0  0  0  0
    4.7616    0.4860    0.0568 O   0  0  0  0  0  0  0  0  0  0  0  0
    3.1305    1.1865    1.4420 O   0  0  0  0  0  0  0  0  0  0  0  0
    1.8313   -1.3357    0.0363 C   0  0  0  0  0  0  0  0  0  0  0  0
    0.9727   -0.9220    1.1815 C   0  0  0  0  0  0  0  0  0  0  0  0
   -0.1111    0.0667    0.8374 C   0  0  0  0  0  0  0  0  0  0  0  0
   -1.0168   -0.5351   -0.1781 C   0  0  0  0  0  0  0  0  0  0  0  0
   -2.1291    0.3709   -0.5716 C   0  0  0  0  0  0  0  0  0  0  0  0
   -3.2645    0.6404    0.1885 C   0  0  0  0  0  0  0  0  0  0  0  0
   -3.5890    0.0905    1.5184 C   0  0  0  0  0  0  0  0  0  0  0  0
   -4.0115    1.4689   -0.4675 O   0  0  0  0  0  0  0  0  0  0  0  0
   -3.4305    1.7549   -1.6089 N   0  0  0  0  0  0  0  0  0  0  0  0
   -2.2729    1.1066   -1.7206 C   0  0  0  0  0  0  0  0  0  0  0  0
   -1.4628    1.1484   -2.6783 O   0  0  0  0  0  0  0  0  0  0  0  0
    4.1158   -1.3130   -1.3452 H   0  0  0  0  0  0  0  0  0  0  0  0
    2.7138   -1.2968   -2.3098 H   0  0  0  0  0  0  0  0  0  0  0  0
    1.7732    0.4885   -1.0293 H   0  0  0  0  0  0  0  0  0  0  0  0
    3.6556    1.9969    1.8033 H   0  0  0  0  0  0  0  0  0  0  0  0
    2.5893   -2.0974    0.3318 H   0  0  0  0  0  0  0  0  0  0  0  0
    1.2076   -1.8162   -0.7390 H   0  0  0  0  0  0  0  0  0  0  0  0
    1.6427   -0.5135    1.9831 H   0  0  0  0  0  0  0  0  0  0  0  0
    0.5433   -1.8657    1.6112 H   0  0  0  0  0  0  0  0  0  0  0  0
   -0.6538    0.3207    1.7706 H   0  0  0  0  0  0  0  0  0  0  0  0
    0.3867    0.9794    0.4058 H   0  0  0  0  0  0  0  0  0  0  0  0
   -1.4668   -1.4533    0.2512 H   0  0  0  0  0  0  0  0  0  0  0  0
   -0.4671   -0.7922   -1.1064 H   0  0  0  0  0  0  0  0  0  0  0  0
   -4.6931    0.0568    1.6596 H   0  0  0  0  0  0  0  0  0  0  0  0
   -3.1796   -0.9434    1.5718 H   0  0  0  0  0  0  0  0  0  0  0  0
   -3.1254    0.7184    2.3247 H   0  0  0  0  0  0  0  0  0  0  0  0
   -3.8472    2.4036   -2.3063 H   0  0  0  0  0  0  0  0  0  0  0  0
  1  2  1  0
  2  3  1  0
  3  4  2  0
  3  5  1  0
  2  6  1  0
  6  7  1  0
  7  8  1  0
  8  9  1  0
  9 10  1  0
 10 11  2  0
 11 12  1  0
 11 13  1  0
 13 14  1  0
 14 15  1  0
 15 16  2  0
 15 10  1  0
  1 17  1  0
  1 18  1  0
  2 19  1  0
  5 20  1  0
  6 21  1  0
  6 22  1  0
  7 23  1  0
  7 24  1  0
  8 25  1  0
  8 26  1  0
  9 27  1  0
  9 28  1  0
 12 29  1  0
 12 30  1  0
 12 31  1  0
 14 32  1  0
M  END
>  <Ligand ID>  (1) 
LIG0003603

>  <Ligand>  (1) 
CHEMBL111441

>  <SMILES>  (1) 
NC(C(=O)O)CCCCc1c(C)o[nH]c1=O

>  <CID>  (1) 
10609381.0

>  <ChEMBL ID>  (1) 
nan

>  <InChiKey>  (1) 
YRSCUAMRFSMJFN-UHFFFAOYSA-N

>  <InChi>  (1) 
InChI=1S/C10H16N2O4/c1-6-7(9(13)12-16-6)4-2-3-5-8(11)10(14)15/h8H,2-5,11H2,1H3,(H,12,13)(H,14,15)

>  <IUPAC Name>  (1) 
2-amino-6-(5-methyl-3-oxo-1,2-oxazol-4-yl)hexanoic acid

$$$$
