
     RDKit          3D

 58 61  0  0  0  0  0  0  0  0999 V2000
    0.7923   -2.2102    1.0807 C   0  0  0  0  0  0  0  0  0  0  0  0
    0.8282   -1.0238    0.2882 N   0  0  0  0  0  0  0  0  0  0  0  0
   -0.3542   -0.2347   -0.0519 C   0  0  1  0  0  0  0  0  0  0  0  0
   -1.3115   -0.9610   -0.9103 C   0  0  0  0  0  0  0  0  0  0  0  0
   -2.6571   -1.2721   -0.3798 C   0  0  2  0  0  0  0  0  0  0  0  0
   -2.9085   -2.7727   -0.2643 C   0  0  0  0  0  0  0  0  0  0  0  0
   -4.4213   -2.9040   -0.3363 C   0  0  0  0  0  0  0  0  0  0  0  0
   -4.8046   -1.5749   -0.9105 C   0  0  0  0  0  0  0  0  0  0  0  0
   -3.6490   -0.9398   -1.3067 O   0  0  0  0  0  0  0  0  0  0  0  0
   -3.0641   -0.6259    0.8976 C   0  0  0  0  0  0  0  0  0  0  0  0
   -1.9560   -0.3294    1.8505 C   0  0  0  0  0  0  0  0  0  0  0  0
   -0.9328    0.4873    1.1309 C   0  0  2  0  0  0  0  0  0  0  0  0
   -1.4807    1.7812    0.7773 N   0  0  0  0  0  0  0  0  0  0  0  0
   -0.4631    2.6459    0.2079 C   0  0  0  0  0  0  0  0  0  0  0  0
   -0.8631    4.0721    0.5270 C   0  0  0  0  0  0  0  0  0  0  0  0
   -1.7498    3.9555    1.7289 C   0  0  0  0  0  0  0  0  0  0  0  0
   -1.8280    2.4811    1.9979 C   0  0  0  0  0  0  0  0  0  0  0  0
    2.0787   -0.5505   -0.2194 C   0  0  0  0  0  0  0  0  0  0  0  0
    2.1883    0.4820   -0.9213 O   0  0  0  0  0  0  0  0  0  0  0  0
    3.3434   -1.2909    0.0759 C   0  0  0  0  0  0  0  0  0  0  0  0
    4.4339   -0.5479   -0.5858 C   0  0  0  0  0  0  0  0  0  0  0  0
    4.8498   -0.7902   -1.8720 C   0  0  0  0  0  0  0  0  0  0  0  0
    5.8822   -0.0459   -2.4172 C   0  0  0  0  0  0  0  0  0  0  0  0
    6.5115    0.9541   -1.6752 C   0  0  0  0  0  0  0  0  0  0  0  0
    6.0874    1.1919   -0.3821 C   0  0  0  0  0  0  0  0  0  0  0  0
    5.0624    0.4458    0.1452 C   0  0  0  0  0  0  0  0  0  0  0  0
    1.5437   -2.9186    0.6308 H   0  0  0  0  0  0  0  0  0  0  0  0
   -0.1711   -2.7334    0.9849 H   0  0  0  0  0  0  0  0  0  0  0  0
    1.1441   -2.0846    2.1286 H   0  0  0  0  0  0  0  0  0  0  0  0
    0.0994    0.5959   -0.6731 H   0  0  0  0  0  0  0  0  0  0  0  0
   -1.4150   -0.4969   -1.9345 H   0  0  0  0  0  0  0  0  0  0  0  0
   -0.8229   -1.9485   -1.1715 H   0  0  0  0  0  0  0  0  0  0  0  0
   -2.4998   -3.2450   -1.1914 H   0  0  0  0  0  0  0  0  0  0  0  0
   -2.5001   -3.2099    0.6594 H   0  0  0  0  0  0  0  0  0  0  0  0
   -4.6977   -3.7502   -1.0307 H   0  0  0  0  0  0  0  0  0  0  0  0
   -4.8694   -3.0537    0.6679 H   0  0  0  0  0  0  0  0  0  0  0  0
   -5.4187   -0.9569   -0.2435 H   0  0  0  0  0  0  0  0  0  0  0  0
   -5.4061   -1.7679   -1.8398 H   0  0  0  0  0  0  0  0  0  0  0  0
   -3.6167    0.3289    0.7116 H   0  0  0  0  0  0  0  0  0  0  0  0
   -3.7966   -1.2767    1.4184 H   0  0  0  0  0  0  0  0  0  0  0  0
   -2.3751    0.2514    2.6905 H   0  0  0  0  0  0  0  0  0  0  0  0
   -1.5482   -1.2542    2.2798 H   0  0  0  0  0  0  0  0  0  0  0  0
   -0.1029    0.6976    1.8366 H   0  0  0  0  0  0  0  0  0  0  0  0
   -0.4534    2.5519   -0.8951 H   0  0  0  0  0  0  0  0  0  0  0  0
    0.5397    2.4871    0.6581 H   0  0  0  0  0  0  0  0  0  0  0  0
   -1.4056    4.5604   -0.3033 H   0  0  0  0  0  0  0  0  0  0  0  0
    0.0372    4.7081    0.7592 H   0  0  0  0  0  0  0  0  0  0  0  0
   -2.7202    4.4425    1.5848 H   0  0  0  0  0  0  0  0  0  0  0  0
   -1.2534    4.4632    2.5972 H   0  0  0  0  0  0  0  0  0  0  0  0
   -1.0345    2.2200    2.7310 H   0  0  0  0  0  0  0  0  0  0  0  0
   -2.8409    2.2065    2.3541 H   0  0  0  0  0  0  0  0  0  0  0  0
    3.4630   -1.2464    1.1853 H   0  0  0  0  0  0  0  0  0  0  0  0
    3.3015   -2.3520   -0.2351 H   0  0  0  0  0  0  0  0  0  0  0  0
    4.3647   -1.5614   -2.4449 H   0  0  0  0  0  0  0  0  0  0  0  0
    6.2137   -0.2340   -3.4327 H   0  0  0  0  0  0  0  0  0  0  0  0
    7.3223    1.5398   -2.1013 H   0  0  0  0  0  0  0  0  0  0  0  0
    6.5563    1.9640    0.2241 H   0  0  0  0  0  0  0  0  0  0  0  0
    4.7484    0.6500    1.1575 H   0  0  0  0  0  0  0  0  0  0  0  0
  1  2  1  0
  2  3  1  0
  3  4  1  0
  4  5  1  0
  5  6  1  0
  6  7  1  0
  7  8  1  0
  8  9  1  0
  5 10  1  0
 10 11  1  0
 11 12  1  0
 12 13  1  0
 13 14  1  0
 14 15  1  0
 15 16  1  0
 16 17  1  0
  2 18  1  0
 18 19  2  0
 18 20  1  0
 20 21  1  0
 21 22  2  0
 22 23  1  0
 23 24  2  0
 24 25  1  0
 25 26  2  0
 12  3  1  0
 17 13  1  0
 26 21  1  0
  5  9  1  6
  1 27  1  0
  1 28  1  0
  1 29  1  0
  3 30  1  6
  4 31  1  0
  4 32  1  0
  6 33  1  0
  6 34  1  0
  7 35  1  0
  7 36  1  0
  8 37  1  0
  8 38  1  0
 10 39  1  0
 10 40  1  0
 11 41  1  0
 11 42  1  0
 12 43  1  1
 14 44  1  0
 14 45  1  0
 15 46  1  0
 15 47  1  0
 16 48  1  0
 16 49  1  0
 17 50  1  0
 17 51  1  0
 20 52  1  0
 20 53  1  0
 22 54  1  0
 23 55  1  0
 24 56  1  0
 25 57  1  0
 26 58  1  0
M  END
>  <Ligand ID>  (1) 
LIG0001960

>  <Ligand>  (1) 
CHEMBL1256748

>  <SMILES>  (1) 
CN([C@H]1C[C@@]2(CCCO2)CC[C@@H]1N1CCCC1)C(=O)Cc1ccccc1

>  <CID>  (1) 
52947240.0

>  <ChEMBL ID>  (1) 
nan

>  <InChiKey>  (1) 
PGJPPWQHDNODBR-JAXLGGSGSA-N

>  <InChi>  (1) 
InChI=1S/C22H32N2O2/c1-23(21(25)16-18-8-3-2-4-9-18)20-17-22(11-7-15-26-22)12-10-19(20)24-13-5-6-14-24/h2-4,8-9,19-20H,5-7,10-17H2,1H3/t19-,20-,22+/m0/s1

>  <IUPAC Name>  (1) 
N-methyl-2-phenyl-N-[(5S,7S,8S)-8-pyrrolidin-1-yl-1-oxaspiro[4.5]decan-7-yl]acetamide

$$$$
