
     RDKit          3D

 38 40  0  0  0  0  0  0  0  0999 V2000
    3.0842   -4.1639    0.1001 O   0  0  0  0  0  0  0  0  0  0  0  0
    2.7895   -2.9610   -0.0085 C   0  0  0  0  0  0  0  0  0  0  0  0
    1.5800   -2.6075   -0.5810 C   0  0  0  0  0  0  0  0  0  0  0  0
    1.2128   -1.2576   -0.7192 C   0  0  0  0  0  0  0  0  0  0  0  0
   -0.0753   -0.8375   -1.2590 C   0  0  0  0  0  0  0  0  0  0  0  0
   -1.1590   -0.5826   -0.2473 C   0  0  0  0  0  0  0  0  0  0  0  0
   -2.3938   -0.1302   -0.9661 C   0  0  0  0  0  0  0  0  0  0  0  0
   -3.5648    0.1647   -0.0948 C   0  0  0  0  0  0  0  0  0  0  0  0
   -4.7871    0.6207   -0.8650 C   0  0  0  0  0  0  0  0  0  0  0  0
   -3.8837   -0.5937    1.1234 C   0  0  0  0  0  0  0  0  0  0  0  0
   -3.3650    0.8396    1.2297 C   0  0  0  0  0  0  0  0  0  0  0  0
    2.1748   -0.3653   -0.2326 C   0  0  0  0  0  0  0  0  0  0  0  0
    3.3567   -0.7863    0.3252 C   0  0  0  0  0  0  0  0  0  0  0  0
    3.6536   -2.0689    0.4337 O   0  0  0  0  0  0  0  0  0  0  0  0
    4.2871    0.0784    0.7934 N   0  0  0  0  0  0  0  0  0  0  0  0
    4.0169    1.4023    0.6926 C   0  0  0  0  0  0  0  0  0  0  0  0
    2.8716    1.8604    0.1494 N   0  0  0  0  0  0  0  0  0  0  0  0
    1.9524    0.9922   -0.3125 C   0  0  0  0  0  0  0  0  0  0  0  0
    0.9077    1.4813   -0.8115 O   0  0  0  0  0  0  0  0  0  0  0  0
    5.0375    2.3450    1.2076 C   0  0  0  0  0  0  0  0  0  0  0  0
    5.1865    2.1953    2.5899 F   0  0  0  0  0  0  0  0  0  0  0  0
    6.2670    2.1635    0.6031 F   0  0  0  0  0  0  0  0  0  0  0  0
    0.9030   -3.3765   -0.9290 H   0  0  0  0  0  0  0  0  0  0  0  0
   -0.0704   -0.1290   -2.1019 H   0  0  0  0  0  0  0  0  0  0  0  0
   -0.4545   -1.7679   -1.7976 H   0  0  0  0  0  0  0  0  0  0  0  0
   -0.8068    0.0717    0.5549 H   0  0  0  0  0  0  0  0  0  0  0  0
   -1.3722   -1.5525    0.3229 H   0  0  0  0  0  0  0  0  0  0  0  0
   -2.7061   -0.8919   -1.7089 H   0  0  0  0  0  0  0  0  0  0  0  0
   -2.1354    0.7827   -1.5384 H   0  0  0  0  0  0  0  0  0  0  0  0
   -4.5731    0.6996   -1.9412 H   0  0  0  0  0  0  0  0  0  0  0  0
   -5.1069    1.6122   -0.4461 H   0  0  0  0  0  0  0  0  0  0  0  0
   -5.6444   -0.0750   -0.7513 H   0  0  0  0  0  0  0  0  0  0  0  0
   -4.9372   -0.7449    1.4339 H   0  0  0  0  0  0  0  0  0  0  0  0
   -3.2102   -1.3207    1.5957 H   0  0  0  0  0  0  0  0  0  0  0  0
   -2.3604    1.0102    1.6478 H   0  0  0  0  0  0  0  0  0  0  0  0
   -4.0975    1.5949    1.5999 H   0  0  0  0  0  0  0  0  0  0  0  0
    2.7489    2.9040    0.1125 H   0  0  0  0  0  0  0  0  0  0  0  0
    4.6737    3.3945    1.0447 H   0  0  0  0  0  0  0  0  0  0  0  0
  1  2  2  0
  2  3  1  0
  3  4  2  0
  4  5  1  0
  5  6  1  0
  6  7  1  0
  7  8  1  0
  8  9  1  0
  8 10  1  0
 10 11  1  0
  4 12  1  0
 12 13  2  0
 13 14  1  0
 13 15  1  0
 15 16  2  0
 16 17  1  0
 17 18  1  0
 18 19  2  0
 16 20  1  0
 20 21  1  0
 20 22  1  0
 14  2  1  0
 11  8  1  0
 18 12  1  0
  3 23  1  0
  5 24  1  0
  5 25  1  0
  6 26  1  0
  6 27  1  0
  7 28  1  0
  7 29  1  0
  9 30  1  0
  9 31  1  0
  9 32  1  0
 10 33  1  0
 10 34  1  0
 11 35  1  0
 11 36  1  0
 17 37  1  0
 20 38  1  0
M  END
>  <Ligand ID>  (1) 
LIG0001660

>  <Ligand>  (1) 
CHEMBL1672639

>  <SMILES>  (1) 
O=c1cc(CCCC2(C)CC2)c2c(o1)nc([nH]c2=O)C(F)F

>  <CID>  (1) 
24955646.0

>  <ChEMBL ID>  (1) 
nan

>  <InChiKey>  (1) 
BRWOJXBDKLPQCT-UHFFFAOYSA-N

>  <InChi>  (1) 
InChI=1S/C15H16F2N2O3/c1-15(5-6-15)4-2-3-8-7-9(20)22-14-10(8)13(21)18-12(19-14)11(16)17/h7,11H,2-6H2,1H3,(H,18,19,21)

>  <IUPAC Name>  (1) 
2-(difluoromethyl)-5-[3-(1-methylcyclopropyl)propyl]-3H-pyrano[2,3-d]pyrimidine-4,7-dione

$$$$
