
     RDKit          3D

 47 50  0  0  0  0  0  0  0  0999 V2000
    1.9800    1.2061    1.2515 O   0  0  0  0  0  0  0  0  0  0  0  0
    1.5838    0.0088    1.4561 C   0  0  0  0  0  0  0  0  0  0  0  0
    0.2311   -0.2990    1.9353 C   0  0  0  0  0  0  0  0  0  0  0  0
   -0.6986   -0.6363    0.8538 N   0  0  0  0  0  0  0  0  0  0  0  0
   -0.7696   -1.9246    0.5472 N   0  0  0  0  0  0  0  0  0  0  0  0
   -1.6032   -2.3043   -0.4310 C   0  0  0  0  0  0  0  0  0  0  0  0
   -1.6313   -3.7796   -0.7283 C   0  0  0  0  0  0  0  0  0  0  0  0
   -2.3835   -1.4048   -1.1226 C   0  0  0  0  0  0  0  0  0  0  0  0
   -2.2799   -0.0544   -0.7695 C   0  0  0  0  0  0  0  0  0  0  0  0
   -1.4184    0.3145    0.2367 C   0  0  0  0  0  0  0  0  0  0  0  0
   -1.3209    1.5105    0.5549 O   0  0  0  0  0  0  0  0  0  0  0  0
   -3.1289    0.8873   -1.5282 C   0  0  0  0  0  0  0  0  0  0  0  0
   -4.3116    1.3580   -0.7376 C   0  0  0  0  0  0  0  0  0  0  0  0
   -4.1963    2.6002   -0.1167 C   0  0  0  0  0  0  0  0  0  0  0  0
   -5.2182    3.1206    0.6448 C   0  0  0  0  0  0  0  0  0  0  0  0
   -6.3696    2.3490    0.7646 C   0  0  0  0  0  0  0  0  0  0  0  0
   -6.5003    1.1173    0.1557 C   0  0  0  0  0  0  0  0  0  0  0  0
   -5.4615    0.5957   -0.6145 C   0  0  0  0  0  0  0  0  0  0  0  0
    2.4985   -1.0507    1.2045 N   0  0  0  0  0  0  0  0  0  0  0  0
    3.7947   -0.6655    0.7452 C   0  0  0  0  0  0  0  0  0  0  0  0
    4.7487   -0.4747    1.7501 C   0  0  0  0  0  0  0  0  0  0  0  0
    6.0281   -0.0965    1.4432 C   0  0  0  0  0  0  0  0  0  0  0  0
    6.3654    0.0959    0.0964 C   0  0  0  0  0  0  0  0  0  0  0  0
    5.4122   -0.0965   -0.8880 C   0  0  0  0  0  0  0  0  0  0  0  0
    4.1050   -0.4823   -0.5799 C   0  0  0  0  0  0  0  0  0  0  0  0
    6.0446    0.1694   -2.1038 O   0  0  0  0  0  0  0  0  0  0  0  0
    7.3036    0.7954   -1.8120 C   0  0  0  0  0  0  0  0  0  0  0  0
    7.5790    0.4737   -0.4548 O   0  0  0  0  0  0  0  0  0  0  0  0
   -0.1397    0.6496    2.4282 H   0  0  0  0  0  0  0  0  0  0  0  0
    0.1626   -1.0876    2.6799 H   0  0  0  0  0  0  0  0  0  0  0  0
   -2.0782   -4.2560    0.1725 H   0  0  0  0  0  0  0  0  0  0  0  0
   -2.2639   -3.9997   -1.6326 H   0  0  0  0  0  0  0  0  0  0  0  0
   -0.6025   -4.1428   -0.9114 H   0  0  0  0  0  0  0  0  0  0  0  0
   -3.0378   -1.7424   -1.8964 H   0  0  0  0  0  0  0  0  0  0  0  0
   -2.5399    1.7704   -1.8663 H   0  0  0  0  0  0  0  0  0  0  0  0
   -3.5355    0.4251   -2.4481 H   0  0  0  0  0  0  0  0  0  0  0  0
   -3.3063    3.2166   -0.2053 H   0  0  0  0  0  0  0  0  0  0  0  0
   -5.1124    4.0886    1.1218 H   0  0  0  0  0  0  0  0  0  0  0  0
   -7.1849    2.7200    1.3492 H   0  0  0  0  0  0  0  0  0  0  0  0
   -7.4101    0.5078    0.2533 H   0  0  0  0  0  0  0  0  0  0  0  0
   -5.5288   -0.3674   -1.1046 H   0  0  0  0  0  0  0  0  0  0  0  0
    2.2255   -2.0474    1.3509 H   0  0  0  0  0  0  0  0  0  0  0  0
    4.4838   -0.6283    2.8091 H   0  0  0  0  0  0  0  0  0  0  0  0
    6.7891    0.0558    2.2197 H   0  0  0  0  0  0  0  0  0  0  0  0
    3.3546   -0.6334   -1.3475 H   0  0  0  0  0  0  0  0  0  0  0  0
    7.2448    1.8689   -2.0081 H   0  0  0  0  0  0  0  0  0  0  0  0
    8.0965    0.2690   -2.3999 H   0  0  0  0  0  0  0  0  0  0  0  0
  1  2  2  0
  2  3  1  0
  3  4  1  0
  4  5  1  0
  5  6  2  0
  6  7  1  0
  6  8  1  0
  8  9  2  0
  9 10  1  0
 10 11  2  0
  9 12  1  0
 12 13  1  0
 13 14  2  0
 14 15  1  0
 15 16  2  0
 16 17  1  0
 17 18  2  0
  2 19  1  0
 19 20  1  0
 20 21  2  0
 21 22  1  0
 22 23  2  0
 23 24  1  0
 24 25  2  0
 24 26  1  0
 26 27  1  0
 27 28  1  0
 10  4  1  0
 18 13  1  0
 25 20  1  0
 28 23  1  0
  3 29  1  0
  3 30  1  0
  7 31  1  0
  7 32  1  0
  7 33  1  0
  8 34  1  0
 12 35  1  0
 12 36  1  0
 14 37  1  0
 15 38  1  0
 16 39  1  0
 17 40  1  0
 18 41  1  0
 19 42  1  0
 21 43  1  0
 22 44  1  0
 25 45  1  0
 27 46  1  0
 27 47  1  0
M  END
>  <Ligand ID>  (1) 
LIG0003949

>  <Ligand>  (1) 
CHEMBL2391279

>  <SMILES>  (1) 
O=C(Cn1nc(C)cc(c1=O)Cc1ccccc1)Nc1ccc2c(c1)OCO2

>  <CID>  (1) 
71698966.0

>  <ChEMBL ID>  (1) 
nan

>  <InChiKey>  (1) 
ONFIEJUCDATLHE-UHFFFAOYSA-N

>  <InChi>  (1) 
InChI=1S/C21H19N3O4/c1-14-9-16(10-15-5-3-2-4-6-15)21(26)24(23-14)12-20(25)22-17-7-8-18-19(11-17)28-13-27-18/h2-9,11H,10,12-13H2,1H3,(H,22,25)

>  <IUPAC Name>  (1) 
N-(1,3-benzodioxol-5-yl)-2-(5-benzyl-3-methyl-6-oxopyridazin-1-yl)acetamide

$$$$
