
     RDKit          3D

 47 49  0  0  0  0  0  0  0  0999 V2000
   -0.4306    1.0203   -2.2667 O   0  0  0  0  0  0  0  0  0  0  0  0
   -1.0536    0.5492   -1.2583 C   0  0  0  0  0  0  0  0  0  0  0  0
   -0.3215    0.0784   -0.1318 N   0  0  0  0  0  0  0  0  0  0  0  0
    1.0993    0.1681   -0.2100 C   0  0  0  0  0  0  0  0  0  0  0  0
    1.8327   -0.8995   -0.7404 C   0  0  0  0  0  0  0  0  0  0  0  0
    3.2172   -0.8275   -0.8233 C   0  0  0  0  0  0  0  0  0  0  0  0
    3.8636    0.3118   -0.3756 C   0  0  0  0  0  0  0  0  0  0  0  0
    3.1272    1.3619    0.1473 C   0  0  0  0  0  0  0  0  0  0  0  0
    1.7509    1.3118    0.2392 C   0  0  0  0  0  0  0  0  0  0  0  0
    5.2856    0.3678   -0.4687 N   0  0  0  0  0  0  0  0  0  0  0  0
    6.0651   -0.1015    0.6146 C   0  0  0  0  0  0  0  0  0  0  0  0
    5.5136   -0.5624    1.6470 O   0  0  0  0  0  0  0  0  0  0  0  0
    7.4937   -0.0423    0.5147 C   0  0  0  0  0  0  0  0  0  0  0  0
    8.3661    0.3782   -0.4181 C   0  0  0  0  0  0  0  0  0  0  0  0
    9.6814    0.2935   -0.1944 C   0  0  0  0  0  0  0  0  0  0  0  0
   10.0886   -0.2373    1.0194 C   0  0  0  0  0  0  0  0  0  0  0  0
    8.5474   -0.6366    1.8882 S   0  0  0  0  0  0  0  0  0  0  0  0
   -2.5208    0.5280   -1.3388 C   0  0  0  0  0  0  0  0  0  0  0  0
   -3.1588   -0.0012   -0.2003 O   0  0  0  0  0  0  0  0  0  0  0  0
   -4.5373   -0.1067   -0.0829 C   0  0  0  0  0  0  0  0  0  0  0  0
   -5.2988    0.3421   -1.1623 C   0  0  0  0  0  0  0  0  0  0  0  0
   -6.6667    0.2558   -1.0872 C   0  0  0  0  0  0  0  0  0  0  0  0
   -7.2635   -0.2679    0.0423 C   0  0  0  0  0  0  0  0  0  0  0  0
   -6.5201   -0.7141    1.1143 C   0  0  0  0  0  0  0  0  0  0  0  0
   -5.1278   -0.6310    1.0487 C   0  0  0  0  0  0  0  0  0  0  0  0
   -4.2840   -1.1067    2.1959 C   0  0  0  0  0  0  0  0  0  0  0  0
   -8.7532   -0.3511    0.0998 C   0  0  0  0  0  0  0  0  0  0  0  0
   -0.8300   -0.3075    0.6945 H   0  0  0  0  0  0  0  0  0  0  0  0
    1.2949   -1.7641   -1.0762 H   0  0  0  0  0  0  0  0  0  0  0  0
    3.8059   -1.6400   -1.2294 H   0  0  0  0  0  0  0  0  0  0  0  0
    3.6864    2.2257    0.4810 H   0  0  0  0  0  0  0  0  0  0  0  0
    1.2205    2.1587    0.6557 H   0  0  0  0  0  0  0  0  0  0  0  0
    5.7677    0.7465   -1.3162 H   0  0  0  0  0  0  0  0  0  0  0  0
    7.9751    0.8017   -1.3882 H   0  0  0  0  0  0  0  0  0  0  0  0
   10.4574    0.6200   -0.9165 H   0  0  0  0  0  0  0  0  0  0  0  0
   11.0828   -0.4044    1.4222 H   0  0  0  0  0  0  0  0  0  0  0  0
   -2.8202   -0.0874   -2.1917 H   0  0  0  0  0  0  0  0  0  0  0  0
   -2.9695    1.5391   -1.5099 H   0  0  0  0  0  0  0  0  0  0  0  0
   -4.8077    0.7424   -2.0227 H   0  0  0  0  0  0  0  0  0  0  0  0
   -7.2788    0.6062   -1.9314 H   0  0  0  0  0  0  0  0  0  0  0  0
   -6.9935   -1.1264    2.0033 H   0  0  0  0  0  0  0  0  0  0  0  0
   -3.7792   -2.0467    1.9589 H   0  0  0  0  0  0  0  0  0  0  0  0
   -4.9284   -1.2239    3.0938 H   0  0  0  0  0  0  0  0  0  0  0  0
   -3.4840   -0.3484    2.4189 H   0  0  0  0  0  0  0  0  0  0  0  0
   -9.1993   -0.0027   -0.8350 H   0  0  0  0  0  0  0  0  0  0  0  0
   -9.1168    0.3730    0.8856 H   0  0  0  0  0  0  0  0  0  0  0  0
   -9.0789   -1.3429    0.4213 H   0  0  0  0  0  0  0  0  0  0  0  0
  1  2  2  0
  2  3  1  0
  3  4  1  0
  4  5  2  0
  5  6  1  0
  6  7  2  0
  7  8  1  0
  8  9  2  0
  7 10  1  0
 10 11  1  0
 11 12  2  0
 11 13  1  0
 13 14  2  0
 14 15  1  0
 15 16  2  0
 16 17  1  0
  2 18  1  0
 18 19  1  0
 19 20  1  0
 20 21  2  0
 21 22  1  0
 22 23  2  0
 23 24  1  0
 24 25  2  0
 25 26  1  0
 23 27  1  0
  9  4  1  0
 17 13  1  0
 25 20  1  0
  3 28  1  0
  5 29  1  0
  6 30  1  0
  8 31  1  0
  9 32  1  0
 10 33  1  0
 14 34  1  0
 15 35  1  0
 16 36  1  0
 18 37  1  0
 18 38  1  0
 21 39  1  0
 22 40  1  0
 24 41  1  0
 26 42  1  0
 26 43  1  0
 26 44  1  0
 27 45  1  0
 27 46  1  0
 27 47  1  0
M  END
>  <Ligand ID>  (1) 
LIG0003715

>  <Ligand>  (1) 
MLS000950173

>  <SMILES>  (1) 
O=C(Nc1ccc(cc1)NC(=O)c1cccs1)COc1ccc(cc1C)C

>  <CID>  (1) 
1016249.0

>  <ChEMBL ID>  (1) 
nan

>  <InChiKey>  (1) 
JNOUJXYFQNKREP-UHFFFAOYSA-N

>  <InChi>  (1) 
InChI=1S/C21H20N2O3S/c1-14-5-10-18(15(2)12-14)26-13-20(24)22-16-6-8-17(9-7-16)23-21(25)19-4-3-11-27-19/h3-12H,13H2,1-2H3,(H,22,24)(H,23,25)

>  <IUPAC Name>  (1) 
N-[4-[[2-(2,4-dimethylphenoxy)acetyl]amino]phenyl]thiophene-2-carboxamide

$$$$
