
     RDKit          3D

 27 27  0  0  0  0  0  0  0  0999 V2000
   -3.2795    0.1116    0.5026 C   0  0  0  0  0  0  0  0  0  0  0  0
   -2.4869    0.2477   -0.7914 C   0  0  0  0  0  0  0  0  0  0  0  0
   -1.1417    0.8992   -0.5301 C   0  0  0  0  0  0  0  0  0  0  0  0
   -0.3026    0.0707    0.4520 C   0  0  0  0  0  0  0  0  0  0  0  0
    0.9857    0.7809    0.6455 C   0  0  0  0  0  0  0  0  0  0  0  0
    2.1835    0.1102    0.1293 C   0  0  0  0  0  0  0  0  0  0  0  0
    2.2766   -1.1869   -0.1207 C   0  0  0  0  0  0  0  0  0  0  0  0
    1.0779   -1.9933    0.1466 C   0  0  0  0  0  0  0  0  0  0  0  0
    1.2149   -3.1988    0.5109 O   0  0  0  0  0  0  0  0  0  0  0  0
   -0.2271   -1.3336   -0.0305 C   0  0  0  0  0  0  0  0  0  0  0  0
    3.4112    0.9212   -0.1471 C   0  0  0  0  0  0  0  0  0  0  0  0
   -3.3344    1.1420    0.9444 H   0  0  0  0  0  0  0  0  0  0  0  0
   -2.8434   -0.6110    1.1914 H   0  0  0  0  0  0  0  0  0  0  0  0
   -4.3335   -0.1350    0.2164 H   0  0  0  0  0  0  0  0  0  0  0  0
   -3.0538    0.9803   -1.4041 H   0  0  0  0  0  0  0  0  0  0  0  0
   -2.4284   -0.6895   -1.3501 H   0  0  0  0  0  0  0  0  0  0  0  0
   -0.5866    0.9315   -1.4740 H   0  0  0  0  0  0  0  0  0  0  0  0
   -1.3086    1.8866   -0.0975 H   0  0  0  0  0  0  0  0  0  0  0  0
   -0.8326    0.0706    1.4501 H   0  0  0  0  0  0  0  0  0  0  0  0
    1.1944    1.0088    1.7324 H   0  0  0  0  0  0  0  0  0  0  0  0
    0.9813    1.8090    0.1791 H   0  0  0  0  0  0  0  0  0  0  0  0
    3.1830   -1.6565   -0.5040 H   0  0  0  0  0  0  0  0  0  0  0  0
   -0.9865   -1.9687    0.5092 H   0  0  0  0  0  0  0  0  0  0  0  0
   -0.5445   -1.4339   -1.1100 H   0  0  0  0  0  0  0  0  0  0  0  0
    4.2530    0.5618    0.4751 H   0  0  0  0  0  0  0  0  0  0  0  0
    3.7027    0.6694   -1.1978 H   0  0  0  0  0  0  0  0  0  0  0  0
    3.2260    2.0056   -0.0023 H   0  0  0  0  0  0  0  0  0  0  0  0
  1  2  1  0
  2  3  1  0
  3  4  1  0
  4  5  1  0
  5  6  1  0
  6  7  2  0
  7  8  1  0
  8  9  2  0
  8 10  1  0
  6 11  1  0
 10  4  1  0
  1 12  1  0
  1 13  1  0
  1 14  1  0
  2 15  1  0
  2 16  1  0
  3 17  1  0
  3 18  1  0
  4 19  1  0
  5 20  1  0
  5 21  1  0
  7 22  1  0
 10 23  1  0
 10 24  1  0
 11 25  1  0
 11 26  1  0
 11 27  1  0
M  END
>  <Ligand ID>  (1) 
LIG0000745

>  <Ligand>  (1) 
3-methyl-5-propylcyclohex-2-en-1-one

>  <SMILES>  (1) 
CCCC1CC(=CC(=O)C1)C

>  <CID>  (1) 
3782139.0

>  <ChEMBL ID>  (1) 
nan

>  <InChiKey>  (1) 
URQMEZRQHLCJKR-UHFFFAOYSA-N

>  <InChi>  (1) 
InChI=1S/C10H16O/c1-3-4-9-5-8(2)6-10(11)7-9/h6,9H,3-5,7H2,1-2H3

>  <IUPAC Name>  (1) 
3-methyl-5-propylcyclohex-2-en-1-one

$$$$
