
     RDKit          3D

 29 30  0  0  0  0  0  0  0  0999 V2000
    6.1441   -0.8375    1.3466 C   0  0  0  0  0  0  0  0  0  0  0  0
    5.7616   -0.7225    0.2071 C   0  0  0  0  0  0  0  0  0  0  0  0
    5.2953   -0.5802   -1.1705 C   0  0  0  0  0  0  0  0  0  0  0  0
    3.9284   -0.0583   -1.1162 C   0  0  0  0  0  0  0  0  0  0  0  0
    2.8012    0.3838   -1.0591 C   0  0  0  0  0  0  0  0  0  0  0  0
    1.4280    0.9414   -0.9872 C   0  0  0  0  0  0  0  0  0  0  0  0
    0.9733    0.6775    0.3088 O   0  0  0  0  0  0  0  0  0  0  0  0
   -0.2706    1.0439    0.7653 N   0  0  0  0  0  0  0  0  0  0  0  0
   -1.3463    0.4384    0.4899 C   0  0  0  0  0  0  0  0  0  0  0  0
   -1.4742   -0.7872   -0.3811 C   0  0  0  0  0  0  0  0  0  0  0  0
   -2.8725   -1.1977   -0.2095 N   0  0  0  0  0  0  0  0  0  0  0  0
   -3.2059   -0.7080    1.1260 C   0  0  0  0  0  0  0  0  0  0  0  0
   -2.7335    0.7354    0.9178 C   0  0  0  0  0  0  0  0  0  0  0  0
   -3.4914    1.0900   -0.3368 C   0  0  0  0  0  0  0  0  0  0  0  0
   -3.6716   -0.2690   -0.9977 C   0  0  0  0  0  0  0  0  0  0  0  0
    6.4673   -0.9361    2.3573 H   0  0  0  0  0  0  0  0  0  0  0  0
    5.3249   -1.6032   -1.6471 H   0  0  0  0  0  0  0  0  0  0  0  0
    5.9766    0.0657   -1.7498 H   0  0  0  0  0  0  0  0  0  0  0  0
    0.8193    0.4424   -1.7834 H   0  0  0  0  0  0  0  0  0  0  0  0
    1.4444    2.0454   -1.1260 H   0  0  0  0  0  0  0  0  0  0  0  0
   -1.3870   -0.4293   -1.4169 H   0  0  0  0  0  0  0  0  0  0  0  0
   -0.7602   -1.5742   -0.0912 H   0  0  0  0  0  0  0  0  0  0  0  0
   -2.5898   -1.2162    1.8848 H   0  0  0  0  0  0  0  0  0  0  0  0
   -4.2812   -0.7472    1.3105 H   0  0  0  0  0  0  0  0  0  0  0  0
   -2.8561    1.3812    1.7637 H   0  0  0  0  0  0  0  0  0  0  0  0
   -2.8067    1.6517   -1.0094 H   0  0  0  0  0  0  0  0  0  0  0  0
   -4.4418    1.6011   -0.1609 H   0  0  0  0  0  0  0  0  0  0  0  0
   -4.7528   -0.5409   -0.8559 H   0  0  0  0  0  0  0  0  0  0  0  0
   -3.4228   -0.2904   -2.0551 H   0  0  0  0  0  0  0  0  0  0  0  0
  1  2  3  0
  2  3  1  0
  3  4  1  0
  4  5  3  0
  5  6  1  0
  6  7  1  0
  7  8  1  0
  8  9  2  0
  9 10  1  0
 10 11  1  0
 11 12  1  0
 12 13  1  0
 13 14  1  0
 14 15  1  0
 13  9  1  0
 15 11  1  0
  1 16  1  0
  3 17  1  0
  3 18  1  0
  6 19  1  0
  6 20  1  0
 10 21  1  0
 10 22  1  0
 12 23  1  0
 12 24  1  0
 13 25  1  0
 14 26  1  0
 14 27  1  0
 15 28  1  0
 15 29  1  0
M  END
>  <Ligand ID>  (1) 
LIG0005597

>  <Ligand>  (1) 
CHEMBL313918

>  <SMILES>  (1) 
C#CCC#CCO/N=C/1\CN2CC1CC2

>  <CID>  (1) 
9990434.0

>  <ChEMBL ID>  (1) 
nan

>  <InChiKey>  (1) 
IVALIPSTPXYJMQ-OUKQBFOZSA-N

>  <InChi>  (1) 
InChI=1S/C12H14N2O/c1-2-3-4-5-8-15-13-12-10-14-7-6-11(12)9-14/h1,11H,3,6-10H2/b13-12+

>  <IUPAC Name>  (1) 
(Z)-N-hexa-2,5-diynoxy-1-azabicyclo[2.2.1]heptan-3-imine

$$$$
