
     RDKit          3D

 59 62  0  0  0  0  0  0  0  0999 V2000
   -7.2588    2.6832   -1.2076 C   0  0  0  0  0  0  0  0  0  0  0  0
   -7.5906    1.3032   -1.2172 O   0  0  0  0  0  0  0  0  0  0  0  0
   -6.7703    0.4362   -0.4784 C   0  0  0  0  0  0  0  0  0  0  0  0
   -5.6986    0.9681    0.2084 C   0  0  0  0  0  0  0  0  0  0  0  0
   -4.8780    0.1071    0.9464 C   0  0  0  0  0  0  0  0  0  0  0  0
   -3.8210    0.7142    1.6099 O   0  0  0  0  0  0  0  0  0  0  0  0
   -2.6320    0.8193    0.9172 C   0  0  0  0  0  0  0  0  0  0  0  0
   -2.3009    1.8944    0.1224 C   0  0  0  0  0  0  0  0  0  0  0  0
   -1.0957    1.8900   -0.5157 C   0  0  0  0  0  0  0  0  0  0  0  0
   -0.1867    0.8392   -0.3942 C   0  0  0  0  0  0  0  0  0  0  0  0
   -0.5151   -0.2219    0.3909 C   0  0  0  0  0  0  0  0  0  0  0  0
   -1.7358   -0.2274    1.0430 C   0  0  0  0  0  0  0  0  0  0  0  0
    0.4187   -1.3920    0.5693 C   0  0  0  0  0  0  0  0  0  0  0  0
    1.8024   -0.8229    0.2812 C   0  0  2  0  0  0  0  0  0  0  0  0
    1.7491   -0.3757   -1.1618 C   0  0  0  0  0  0  0  0  0  0  0  0
    1.0814    0.9838   -1.1496 C   0  0  0  0  0  0  0  0  0  0  0  0
    2.8450   -1.7226    0.6058 N   0  0  0  0  0  0  0  0  0  0  0  0
    4.1571   -1.2645    0.3386 C   0  0  0  0  0  0  0  0  0  0  0  0
    4.6766   -0.1433    1.1663 C   0  0  1  0  0  0  0  0  0  0  0  0
    6.0516    0.2058    0.7089 C   0  0  0  0  0  0  0  0  0  0  0  0
    6.6055    1.3857    1.2192 C   0  0  0  0  0  0  0  0  0  0  0  0
    7.8772    1.7905    0.8491 C   0  0  0  0  0  0  0  0  0  0  0  0
    8.5892    1.0089   -0.0329 C   0  0  0  0  0  0  0  0  0  0  0  0
    8.0493   -0.1725   -0.5513 C   0  0  0  0  0  0  0  0  0  0  0  0
    6.7779   -0.5619   -0.1710 C   0  0  0  0  0  0  0  0  0  0  0  0
    8.9577   -1.1725   -1.6780 Cl  0  0  0  0  0  0  0  0  0  0  0  0
    3.9303    1.0338    1.0744 O   0  0  0  0  0  0  0  0  0  0  0  0
   -5.1217   -1.2528    0.9973 C   0  0  0  0  0  0  0  0  0  0  0  0
   -6.2008   -1.7705    0.3027 C   0  0  0  0  0  0  0  0  0  0  0  0
   -7.0200   -0.9197   -0.4325 C   0  0  0  0  0  0  0  0  0  0  0  0
   -6.5131   -3.1842    0.3132 C   0  0  0  0  0  0  0  0  0  0  0  0
   -7.4991   -3.6555   -0.3218 O   0  0  0  0  0  0  0  0  0  0  0  0
   -5.7341   -4.0829    1.0277 O   0  0  0  0  0  0  0  0  0  0  0  0
   -6.2481    2.8912   -1.5831 H   0  0  0  0  0  0  0  0  0  0  0  0
   -8.0039    3.2315   -1.8228 H   0  0  0  0  0  0  0  0  0  0  0  0
   -7.2797    3.0592   -0.1524 H   0  0  0  0  0  0  0  0  0  0  0  0
   -5.4859    2.0488    0.1815 H   0  0  0  0  0  0  0  0  0  0  0  0
   -3.0255    2.6948    0.0473 H   0  0  0  0  0  0  0  0  0  0  0  0
   -0.8611    2.7614   -1.1423 H   0  0  0  0  0  0  0  0  0  0  0  0
   -1.9558   -1.0796    1.6506 H   0  0  0  0  0  0  0  0  0  0  0  0
    0.3702   -1.6958    1.6179 H   0  0  0  0  0  0  0  0  0  0  0  0
    0.1548   -2.2390   -0.0684 H   0  0  0  0  0  0  0  0  0  0  0  0
    1.8583    0.0756    0.9520 H   0  0  0  0  0  0  0  0  0  0  0  0
    2.7260   -0.3588   -1.6694 H   0  0  0  0  0  0  0  0  0  0  0  0
    1.0318   -1.0318   -1.7398 H   0  0  0  0  0  0  0  0  0  0  0  0
    0.9339    1.3829   -2.1718 H   0  0  0  0  0  0  0  0  0  0  0  0
    1.7472    1.6540   -0.5409 H   0  0  0  0  0  0  0  0  0  0  0  0
    2.7081   -2.6191    0.0950 H   0  0  0  0  0  0  0  0  0  0  0  0
    4.3870   -1.0265   -0.7220 H   0  0  0  0  0  0  0  0  0  0  0  0
    4.8436   -2.1438    0.5589 H   0  0  0  0  0  0  0  0  0  0  0  0
    4.6910   -0.4662    2.2414 H   0  0  0  0  0  0  0  0  0  0  0  0
    6.0476    2.0128    1.9205 H   0  0  0  0  0  0  0  0  0  0  0  0
    8.2605    2.7142    1.2741 H   0  0  0  0  0  0  0  0  0  0  0  0
    9.5851    1.3194   -0.3271 H   0  0  0  0  0  0  0  0  0  0  0  0
    6.3696   -1.4743   -0.5774 H   0  0  0  0  0  0  0  0  0  0  0  0
    4.0443    1.4458    0.1821 H   0  0  0  0  0  0  0  0  0  0  0  0
   -4.4676   -1.8928    1.5778 H   0  0  0  0  0  0  0  0  0  0  0  0
   -7.8557   -1.3487   -0.9659 H   0  0  0  0  0  0  0  0  0  0  0  0
   -5.5724   -5.0360    0.7115 H   0  0  0  0  0  0  0  0  0  0  0  0
  1  2  1  0
  2  3  1  0
  3  4  2  0
  4  5  1  0
  5  6  1  0
  6  7  1  0
  7  8  2  0
  8  9  1  0
  9 10  2  0
 10 11  1  0
 11 12  2  0
 11 13  1  0
 13 14  1  0
 14 15  1  0
 15 16  1  0
 14 17  1  0
 17 18  1  0
 18 19  1  0
 19 20  1  0
 20 21  2  0
 21 22  1  0
 22 23  2  0
 23 24  1  0
 24 25  2  0
 24 26  1  0
 19 27  1  0
  5 28  2  0
 28 29  1  0
 29 30  2  0
 29 31  1  0
 31 32  2  0
 31 33  1  0
 30  3  1  0
 12  7  1  0
 25 20  1  0
 16 10  1  0
  1 34  1  0
  1 35  1  0
  1 36  1  0
  4 37  1  0
  8 38  1  0
  9 39  1  0
 12 40  1  0
 13 41  1  0
 13 42  1  0
 14 43  1  1
 15 44  1  0
 15 45  1  0
 16 46  1  0
 16 47  1  0
 17 48  1  0
 18 49  1  0
 18 50  1  0
 19 51  1  1
 21 52  1  0
 22 53  1  0
 23 54  1  0
 25 55  1  0
 27 56  1  0
 28 57  1  0
 30 58  1  0
 33 59  1  0
M  END
>  <Ligand ID>  (1) 
LIG0004792

>  <Ligand>  (1) 
CHEMBL456352

>  <SMILES>  (1) 
COc1cc(Oc2ccc3c(c2)C[C@H](CC3)NC[C@@H](c2cccc(c2)Cl)O)cc(c1)C(=O)O

>  <CID>  (1) 
24950059.0

>  <ChEMBL ID>  (1) 
nan

>  <InChiKey>  (1) 
HELINHYFLXXSFF-OFVILXPXSA-N

>  <InChi>  (1) 
InChI=1S/C26H26ClNO5/c1-32-23-12-19(26(30)31)13-24(14-23)33-22-8-6-16-5-7-21(10-18(16)11-22)28-15-25(29)17-3-2-4-20(27)9-17/h2-4,6,8-9,11-14,21,25,28-29H,5,7,10,15H2,1H3,(H,30,31)/t21-,25-/m0/s1

>  <IUPAC Name>  (1) 
3-[[(7S)-7-[[(2R)-2-(3-chlorophenyl)-2-hydroxyethyl]amino]-5,6,7,8-tetrahydronaphthalen-2-yl]oxy]-5-methoxybenzoic acid

$$$$
