
     RDKit          3D

 15 14  0  0  0  0  0  0  0  0999 V2000
    1.9552   -0.1275   -0.9576 S   0  0  0  0  0  0  0  0  0  0  0  0
    1.0924   -0.4229    0.5830 C   0  0  0  0  0  0  0  0  0  0  0  0
   -0.3778   -0.1333    0.5067 C   0  0  0  0  0  0  0  0  0  0  0  0
   -0.6922    1.2962    0.1452 C   0  0  0  0  0  0  0  0  0  0  0  0
   -0.9560   -1.0097   -0.5703 C   0  0  0  0  0  0  0  0  0  0  0  0
    2.9160    0.8689   -0.9179 H   0  0  0  0  0  0  0  0  0  0  0  0
    1.5906    0.1321    1.4282 H   0  0  0  0  0  0  0  0  0  0  0  0
    1.1859   -1.4993    0.8407 H   0  0  0  0  0  0  0  0  0  0  0  0
   -0.8108   -0.3086    1.5140 H   0  0  0  0  0  0  0  0  0  0  0  0
   -0.3299    1.4964   -0.8791 H   0  0  0  0  0  0  0  0  0  0  0  0
   -0.3810    2.0328    0.8955 H   0  0  0  0  0  0  0  0  0  0  0  0
   -1.8142    1.3182    0.0307 H   0  0  0  0  0  0  0  0  0  0  0  0
   -1.5210   -0.4224   -1.3465 H   0  0  0  0  0  0  0  0  0  0  0  0
   -1.6831   -1.6879   -0.1142 H   0  0  0  0  0  0  0  0  0  0  0  0
   -0.1741   -1.5331   -1.1584 H   0  0  0  0  0  0  0  0  0  0  0  0
  1  2  1  0
  2  3  1  0
  3  4  1  0
  3  5  1  0
  1  6  1  0
  2  7  1  0
  2  8  1  0
  3  9  1  0
  4 10  1  0
  4 11  1  0
  4 12  1  0
  5 13  1  0
  5 14  1  0
  5 15  1  0
M  END
>  <Ligand ID>  (1) 
LIG0000174

>  <Ligand>  (1) 
Isobutyl mercaptan

>  <SMILES>  (1) 
SCC(C)C

>  <CID>  (1) 
10558.0

>  <ChEMBL ID>  (1) 
nan

>  <InChiKey>  (1) 
BDFAOUQQXJIZDG-UHFFFAOYSA-N

>  <InChi>  (1) 
InChI=1S/C4H10S/c1-4(2)3-5/h4-5H,3H2,1-2H3

>  <IUPAC Name>  (1) 
2-methylpropane-1-thiol

$$$$
