
     RDKit          3D

 43 43  0  0  0  0  0  0  0  0999 V2000
   -6.6660    1.3874   -0.2794 O   0  0  0  0  0  0  0  0  0  0  0  0
   -5.8816    0.2553   -0.4891 C   0  0  0  0  0  0  0  0  0  0  0  0
   -5.1016    0.1841   -1.4704 O   0  0  0  0  0  0  0  0  0  0  0  0
   -6.0258   -0.8411    0.5070 C   0  0  0  0  0  0  0  0  0  0  0  0
   -4.8845   -2.1778   -0.0087 S   0  0  0  0  0  0  0  0  0  0  0  0
   -3.2017   -1.5912    0.1643 C   0  0  0  0  0  0  0  0  0  0  0  0
   -2.8891   -0.3378    0.6231 C   0  0  0  0  0  0  0  0  0  0  0  0
   -1.5712    0.1081    0.7522 C   0  0  0  0  0  0  0  0  0  0  0  0
   -0.5958   -0.7931    0.3889 C   0  0  0  0  0  0  0  0  0  0  0  0
   -0.8465   -2.0601   -0.0771 C   0  0  0  0  0  0  0  0  0  0  0  0
   -2.1691   -2.4431   -0.1829 C   0  0  0  0  0  0  0  0  0  0  0  0
   -2.4587   -3.7538   -0.6656 N   0  0  0  0  0  0  0  0  0  0  0  0
   -1.6339   -4.3013   -1.4410 O   0  0  0  0  0  0  0  0  0  0  0  0
   -3.5748   -4.4498   -0.3385 O   0  0  0  0  0  0  0  0  0  0  0  0
    0.8247   -0.2964    0.5378 C   0  0  0  0  0  0  0  0  0  0  0  0
    1.2759    0.7333   -0.8790 P   0  0  0  0  0  0  0  0  0  0  0  0
    1.9046   -0.1124   -1.9876 O   0  0  0  0  0  0  0  0  0  0  0  0
    2.3681    2.0662   -0.3723 C   0  0  0  0  0  0  0  0  0  0  0  0
    3.8144    1.8316   -0.7079 C   0  0  0  0  0  0  0  0  0  0  0  0
    4.2635    0.5664    0.0095 C   0  0  1  0  0  0  0  0  0  0  0  0
    5.6777    0.3080   -0.3068 C   0  0  0  0  0  0  0  0  0  0  0  0
    6.1391    0.0632   -1.4378 O   0  0  0  0  0  0  0  0  0  0  0  0
    6.5958    0.3378    0.7485 O   0  0  0  0  0  0  0  0  0  0  0  0
    4.0777    0.8083    1.4419 N   0  0  0  0  0  0  0  0  0  0  0  0
   -0.1435    1.3928   -1.5738 O   0  0  0  0  0  0  0  0  0  0  0  0
    0.9918    0.3317    1.7455 O   0  0  0  0  0  0  0  0  0  0  0  0
   -6.9284    1.9583   -1.0799 H   0  0  0  0  0  0  0  0  0  0  0  0
   -5.7402   -0.4669    1.4997 H   0  0  0  0  0  0  0  0  0  0  0  0
   -7.0331   -1.2515    0.5472 H   0  0  0  0  0  0  0  0  0  0  0  0
   -3.7150    0.3120    0.8905 H   0  0  0  0  0  0  0  0  0  0  0  0
   -1.3312    1.0998    1.1142 H   0  0  0  0  0  0  0  0  0  0  0  0
   -0.0117   -2.6893   -0.3369 H   0  0  0  0  0  0  0  0  0  0  0  0
    1.4750   -1.1950    0.5340 H   0  0  0  0  0  0  0  0  0  0  0  0
    2.0147    3.0250   -0.7978 H   0  0  0  0  0  0  0  0  0  0  0  0
    2.3412    2.1736    0.7489 H   0  0  0  0  0  0  0  0  0  0  0  0
    4.3747    2.6957   -0.2965 H   0  0  0  0  0  0  0  0  0  0  0  0
    4.0303    1.7964   -1.7871 H   0  0  0  0  0  0  0  0  0  0  0  0
    3.6231   -0.2990   -0.2453 H   0  0  0  0  0  0  0  0  0  0  0  0
    7.5893    0.3353    0.5515 H   0  0  0  0  0  0  0  0  0  0  0  0
    4.4661    0.0606    2.0263 H   0  0  0  0  0  0  0  0  0  0  0  0
    4.3342    1.7626    1.7181 H   0  0  0  0  0  0  0  0  0  0  0  0
   -0.3808    2.2516   -1.1475 H   0  0  0  0  0  0  0  0  0  0  0  0
    0.6020    1.2146    1.8391 H   0  0  0  0  0  0  0  0  0  0  0  0
  1  2  1  0
  2  3  2  0
  2  4  1  0
  4  5  1  0
  5  6  1  0
  6  7  2  0
  7  8  1  0
  8  9  2  0
  9 10  1  0
 10 11  2  0
 11 12  1  0
 12 13  2  0
 12 14  1  0
  9 15  1  0
 15 16  1  0
 16 17  2  0
 16 18  1  0
 18 19  1  0
 19 20  1  0
 20 21  1  0
 21 22  2  0
 21 23  1  0
 20 24  1  0
 16 25  1  0
 15 26  1  0
 11  6  1  0
  1 27  1  0
  4 28  1  0
  4 29  1  0
  7 30  1  0
  8 31  1  0
 10 32  1  0
 15 33  1  0
 18 34  1  0
 18 35  1  0
 19 36  1  0
 19 37  1  0
 20 38  1  6
 23 39  1  0
 24 40  1  0
 24 41  1  0
 25 42  1  0
 26 43  1  0
M  CHG  2  12   1  14  -1
M  END
>  <Ligand ID>  (1) 
LIG0002469

>  <Ligand>  (1) 
CHEMBL3924880

>  <SMILES>  (1) 
OC(=O)CSc1ccc(cc1[N+](=O)[O-])C(P(=O)(CC[C@@H](C(=O)O)N)O)O

>  <CID>  (1) 
71042047.0

>  <ChEMBL ID>  (1) 
nan

>  <InChiKey>  (1) 
ZDPGMBDQVVWLAD-OADYLZGLSA-N

>  <InChi>  (1) 
InChI=1S/C13H17N2O9PS/c14-8(12(18)19)3-4-25(23,24)13(20)7-1-2-10(26-6-11(16)17)9(5-7)15(21)22/h1-2,5,8,13,20H,3-4,6,14H2,(H,16,17)(H,18,19)(H,23,24)/t8-,13?/m0/s1

>  <IUPAC Name>  (1) 
(2S)-2-amino-4-[[[4-(carboxymethylsulfanyl)-3-nitrophenyl]-hydroxymethyl]-hydroxyphosphoryl]butanoic acid

$$$$
