
     RDKit          3D

 63 67  0  0  0  0  0  0  0  0999 V2000
   -2.6584    2.3247    3.9728 C   0  0  0  0  0  0  0  0  0  0  0  0
   -3.3953    1.8516    2.7464 C   0  0  0  0  0  0  0  0  0  0  0  0
   -4.7206    2.2132    2.6057 C   0  0  0  0  0  0  0  0  0  0  0  0
   -5.4639    1.8030    1.4864 C   0  0  0  0  0  0  0  0  0  0  0  0
   -6.8963    2.1872    1.3241 C   0  0  0  0  0  0  0  0  0  0  0  0
   -4.8000    1.0238    0.5374 C   0  0  0  0  0  0  0  0  0  0  0  0
   -3.4810    0.6844    0.7133 C   0  0  0  0  0  0  0  0  0  0  0  0
   -2.7331    1.0743    1.8023 C   0  0  0  0  0  0  0  0  0  0  0  0
   -2.9047   -0.0958   -0.2586 C   0  0  0  0  0  0  0  0  0  0  0  0
   -3.6517   -0.5143   -1.3716 C   0  0  0  0  0  0  0  0  0  0  0  0
   -4.9758   -0.1607   -1.5240 C   0  0  0  0  0  0  0  0  0  0  0  0
   -5.5032    0.6167   -0.5320 N   0  0  0  0  0  0  0  0  0  0  0  0
   -5.8007   -0.5934   -2.6454 C   0  0  0  0  0  0  0  0  0  0  0  0
   -5.3105   -1.3821   -3.6897 C   0  0  0  0  0  0  0  0  0  0  0  0
   -6.0985   -1.8012   -4.7359 C   0  0  0  0  0  0  0  0  0  0  0  0
   -7.4388   -1.4101   -4.7330 C   0  0  0  0  0  0  0  0  0  0  0  0
   -7.9326   -0.6552   -3.7474 N   0  0  0  0  0  0  0  0  0  0  0  0
   -7.1324   -0.2469   -2.7130 C   0  0  0  0  0  0  0  0  0  0  0  0
   -1.5321   -0.5968   -0.2079 C   0  0  0  0  0  0  0  0  0  0  0  0
   -1.5003   -1.8840   -0.0875 O   0  0  0  0  0  0  0  0  0  0  0  0
   -0.3728    0.1845   -0.2800 N   0  0  0  0  0  0  0  0  0  0  0  0
    0.9704   -0.3583   -0.2220 C   0  0  0  0  0  0  0  0  0  0  0  0
    1.2176   -1.6384    0.1444 C   0  0  0  0  0  0  0  0  0  0  0  0
    2.5105   -2.1493    0.0950 C   0  0  0  0  0  0  0  0  0  0  0  0
    3.5938   -1.3713   -0.3300 C   0  0  0  0  0  0  0  0  0  0  0  0
    3.3332   -0.0770   -0.6953 C   0  0  0  0  0  0  0  0  0  0  0  0
    2.0200    0.4443   -0.6461 C   0  0  0  0  0  0  0  0  0  0  0  0
    5.1197   -2.1707   -0.3944 S   0  0  0  0  0  0  0  0  0  0  0  0
    5.9371   -1.5679   -1.5407 O   0  0  0  0  0  0  0  0  0  0  0  0
    4.9753   -3.6247   -0.7662 O   0  0  0  0  0  0  0  0  0  0  0  0
    6.0348   -1.9803    1.0336 N   0  0  0  0  0  0  0  0  0  0  0  0
    6.5190   -0.7431    1.5302 C   0  0  0  0  0  0  0  0  0  0  0  0
    6.0200    0.1568    2.3134 O   0  0  0  0  0  0  0  0  0  0  0  0
    6.8605    1.1378    2.4883 N   0  0  0  0  0  0  0  0  0  0  0  0
    7.9876    0.9021    1.7929 C   0  0  0  0  0  0  0  0  0  0  0  0
    7.7959   -0.2944    1.1712 C   0  0  0  0  0  0  0  0  0  0  0  0
    8.7713   -0.9821    0.2846 C   0  0  0  0  0  0  0  0  0  0  0  0
    9.2251    1.7220    1.6761 C   0  0  0  0  0  0  0  0  0  0  0  0
   -1.7329    1.7843    4.1571 H   0  0  0  0  0  0  0  0  0  0  0  0
   -2.5316    3.4265    3.9542 H   0  0  0  0  0  0  0  0  0  0  0  0
   -3.3354    2.0921    4.8458 H   0  0  0  0  0  0  0  0  0  0  0  0
   -5.1713    2.8134    3.3766 H   0  0  0  0  0  0  0  0  0  0  0  0
   -7.4078    1.3410    0.7769 H   0  0  0  0  0  0  0  0  0  0  0  0
   -7.4199    2.2616    2.2875 H   0  0  0  0  0  0  0  0  0  0  0  0
   -7.0122    3.0512    0.6507 H   0  0  0  0  0  0  0  0  0  0  0  0
   -1.7052    0.7858    1.8983 H   0  0  0  0  0  0  0  0  0  0  0  0
   -3.1509   -1.1373   -2.1294 H   0  0  0  0  0  0  0  0  0  0  0  0
   -4.2725   -1.6751   -3.6890 H   0  0  0  0  0  0  0  0  0  0  0  0
   -5.6857   -2.4136   -5.5347 H   0  0  0  0  0  0  0  0  0  0  0  0
   -8.0672   -1.7470   -5.5787 H   0  0  0  0  0  0  0  0  0  0  0  0
   -7.6234    0.3527   -1.9598 H   0  0  0  0  0  0  0  0  0  0  0  0
   -0.4924    1.2233   -0.3752 H   0  0  0  0  0  0  0  0  0  0  0  0
    0.4681   -2.3225    0.5021 H   0  0  0  0  0  0  0  0  0  0  0  0
    2.6711   -3.1993    0.4028 H   0  0  0  0  0  0  0  0  0  0  0  0
    4.1649    0.5285   -1.0259 H   0  0  0  0  0  0  0  0  0  0  0  0
    1.8653    1.4853   -0.9538 H   0  0  0  0  0  0  0  0  0  0  0  0
    6.2560   -2.8383    1.5885 H   0  0  0  0  0  0  0  0  0  0  0  0
    8.6242   -0.7374   -0.7921 H   0  0  0  0  0  0  0  0  0  0  0  0
    8.5351   -2.0789    0.3514 H   0  0  0  0  0  0  0  0  0  0  0  0
    9.8214   -0.8054    0.5770 H   0  0  0  0  0  0  0  0  0  0  0  0
    9.0149    2.7280    1.2542 H   0  0  0  0  0  0  0  0  0  0  0  0
    9.9449    1.2266    0.9718 H   0  0  0  0  0  0  0  0  0  0  0  0
    9.6536    1.8258    2.6831 H   0  0  0  0  0  0  0  0  0  0  0  0
  1  2  1  0
  2  3  2  0
  3  4  1  0
  4  5  1  0
  4  6  2  0
  6  7  1  0
  7  8  2  0
  7  9  1  0
  9 10  2  0
 10 11  1  0
 11 12  2  0
 11 13  1  0
 13 14  2  0
 14 15  1  0
 15 16  2  0
 16 17  1  0
 17 18  2  0
  9 19  1  0
 19 20  2  0
 19 21  1  0
 21 22  1  0
 22 23  2  0
 23 24  1  0
 24 25  2  0
 25 26  1  0
 26 27  2  0
 25 28  1  0
 28 29  2  0
 28 30  2  0
 28 31  1  0
 31 32  1  0
 32 33  1  0
 33 34  1  0
 34 35  2  0
 35 36  1  0
 36 37  1  0
 35 38  1  0
  8  2  1  0
 18 13  1  0
 27 22  1  0
 36 32  2  0
 12  6  1  0
  1 39  1  0
  1 40  1  0
  1 41  1  0
  3 42  1  0
  5 43  1  0
  5 44  1  0
  5 45  1  0
  8 46  1  0
 10 47  1  0
 14 48  1  0
 15 49  1  0
 16 50  1  0
 18 51  1  0
 21 52  1  0
 23 53  1  0
 24 54  1  0
 26 55  1  0
 27 56  1  0
 31 57  1  0
 37 58  1  0
 37 59  1  0
 37 60  1  0
 38 61  1  0
 38 62  1  0
 38 63  1  0
M  END
>  <Ligand ID>  (1) 
LIG0003741

>  <Ligand>  (1) 
MLS000862515

>  <SMILES>  (1) 
Cc1cc(C)c2c(c1)c(cc(n2)c1cccnc1)C(=O)Nc1ccc(cc1)S(=O)(=O)Nc1onc(c1C)C

>  <CID>  (1) 
1261290.0

>  <ChEMBL ID>  (1) 
nan

>  <InChiKey>  (1) 
DOQFHXQSFNOXOF-UHFFFAOYSA-N

>  <InChi>  (1) 
InChI=1S/C28H25N5O4S/c1-16-12-17(2)26-23(13-16)24(14-25(31-26)20-6-5-11-29-15-20)27(34)30-21-7-9-22(10-8-21)38(35,36)33-28-18(3)19(4)32-37-28/h5-15,33H,1-4H3,(H,30,34)

>  <IUPAC Name>  (1) 
N-[4-[(3,4-dimethyl-1,2-oxazol-5-yl)sulfamoyl]phenyl]-6,8-dimethyl-2-pyridin-3-ylquinoline-4-carboxamide

$$$$
