
     RDKit          3D

 48 49  0  0  0  0  0  0  0  0999 V2000
    7.5625   -2.1011    0.2681 C   0  0  0  0  0  0  0  0  0  0  0  0
    6.1435   -2.4540    0.5899 C   0  0  0  0  0  0  0  0  0  0  0  0
    5.1808   -1.5961    0.0604 O   0  0  0  0  0  0  0  0  0  0  0  0
    5.0467   -0.2488    0.2988 C   0  0  0  0  0  0  0  0  0  0  0  0
    5.8618    0.3144    1.0748 O   0  0  0  0  0  0  0  0  0  0  0  0
    3.9814    0.4620   -0.3477 N   0  0  0  0  0  0  0  0  0  0  0  0
    3.0618   -0.2130   -1.2333 C   0  0  0  0  0  0  0  0  0  0  0  0
    1.6571    0.2951   -1.1759 C   0  0  0  0  0  0  0  0  0  0  0  0
    1.4271    1.0726    0.0795 C   0  0  0  0  0  0  0  0  0  0  0  0
    2.3746    2.2459    0.1930 C   0  0  0  0  0  0  0  0  0  0  0  0
    3.7930    1.8769   -0.1344 C   0  0  0  0  0  0  0  0  0  0  0  0
    0.0933    1.6186    0.0762 N   0  0  0  0  0  0  0  0  0  0  0  0
   -0.9520    0.6437    0.0005 C   0  0  0  0  0  0  0  0  0  0  0  0
   -2.2787    1.4117    0.0089 C   0  0  0  0  0  0  0  0  0  0  0  0
   -3.4018    0.4990   -0.0654 N   0  0  0  0  0  0  0  0  0  0  0  0
   -4.7450    0.9511   -0.0737 C   0  0  0  0  0  0  0  0  0  0  0  0
   -4.9980    2.1871   -0.0153 O   0  0  0  0  0  0  0  0  0  0  0  0
   -5.8915    0.0538   -0.1478 C   0  0  0  0  0  0  0  0  0  0  0  0
   -7.1492    0.5954   -0.1493 C   0  0  0  0  0  0  0  0  0  0  0  0
   -8.2668   -0.2411   -0.2195 C   0  0  0  0  0  0  0  0  0  0  0  0
   -8.1111   -1.6182   -0.2877 C   0  0  0  0  0  0  0  0  0  0  0  0
   -6.8649   -2.1651   -0.2867 C   0  0  0  0  0  0  0  0  0  0  0  0
   -5.7815   -1.3159   -0.2167 C   0  0  0  0  0  0  0  0  0  0  0  0
    8.1615   -3.0184   -0.0053 H   0  0  0  0  0  0  0  0  0  0  0  0
    8.0825   -1.6974    1.1793 H   0  0  0  0  0  0  0  0  0  0  0  0
    7.6864   -1.3804   -0.5552 H   0  0  0  0  0  0  0  0  0  0  0  0
    5.9538   -3.4603    0.1147 H   0  0  0  0  0  0  0  0  0  0  0  0
    6.0476   -2.6550    1.6773 H   0  0  0  0  0  0  0  0  0  0  0  0
    3.3830   -0.1647   -2.3131 H   0  0  0  0  0  0  0  0  0  0  0  0
    3.1040   -1.2906   -0.9595 H   0  0  0  0  0  0  0  0  0  0  0  0
    1.3922    0.8783   -2.0829 H   0  0  0  0  0  0  0  0  0  0  0  0
    0.9737   -0.5823   -1.1688 H   0  0  0  0  0  0  0  0  0  0  0  0
    1.5596    0.4001    0.9500 H   0  0  0  0  0  0  0  0  0  0  0  0
    2.2397    2.6910    1.2023 H   0  0  0  0  0  0  0  0  0  0  0  0
    1.9935    3.0102   -0.5288 H   0  0  0  0  0  0  0  0  0  0  0  0
    4.4351    2.1806    0.7171 H   0  0  0  0  0  0  0  0  0  0  0  0
    4.1204    2.4547   -1.0314 H   0  0  0  0  0  0  0  0  0  0  0  0
   -0.0018    2.2289   -0.7750 H   0  0  0  0  0  0  0  0  0  0  0  0
   -0.9247   -0.1233    0.7755 H   0  0  0  0  0  0  0  0  0  0  0  0
   -0.9428    0.0927   -0.9847 H   0  0  0  0  0  0  0  0  0  0  0  0
   -2.2920    2.0940   -0.8617 H   0  0  0  0  0  0  0  0  0  0  0  0
   -2.3741    2.0199    0.9351 H   0  0  0  0  0  0  0  0  0  0  0  0
   -3.1996   -0.5165   -0.1135 H   0  0  0  0  0  0  0  0  0  0  0  0
   -7.3608    1.6533   -0.0991 H   0  0  0  0  0  0  0  0  0  0  0  0
   -9.2665    0.1562   -0.2224 H   0  0  0  0  0  0  0  0  0  0  0  0
   -8.9749   -2.2402   -0.3406 H   0  0  0  0  0  0  0  0  0  0  0  0
   -6.7358   -3.2313   -0.3393 H   0  0  0  0  0  0  0  0  0  0  0  0
   -4.8031   -1.7734   -0.2174 H   0  0  0  0  0  0  0  0  0  0  0  0
  1  2  1  0
  2  3  1  0
  3  4  1  0
  4  5  2  0
  4  6  1  0
  6  7  1  0
  7  8  1  0
  8  9  1  0
  9 10  1  0
 10 11  1  0
  9 12  1  0
 12 13  1  0
 13 14  1  0
 14 15  1  0
 15 16  1  0
 16 17  2  0
 16 18  1  0
 18 19  2  0
 19 20  1  0
 20 21  2  0
 21 22  1  0
 22 23  2  0
 11  6  1  0
 23 18  1  0
  1 24  1  0
  1 25  1  0
  1 26  1  0
  2 27  1  0
  2 28  1  0
  7 29  1  0
  7 30  1  0
  8 31  1  0
  8 32  1  0
  9 33  1  0
 10 34  1  0
 10 35  1  0
 11 36  1  0
 11 37  1  0
 12 38  1  0
 13 39  1  0
 13 40  1  0
 14 41  1  0
 14 42  1  0
 15 43  1  0
 19 44  1  0
 20 45  1  0
 21 46  1  0
 22 47  1  0
 23 48  1  0
M  END
>  <Ligand ID>  (1) 
LIG0001950

>  <Ligand>  (1) 
CHEMBL1609153

>  <SMILES>  (1) 
CCOC(=O)N1CCC(CC1)NCCNC(=O)c1ccccc1

>  <CID>  (1) 
650899.0

>  <ChEMBL ID>  (1) 
nan

>  <InChiKey>  (1) 
VNRSRVXFGIQMBW-UHFFFAOYSA-N

>  <InChi>  (1) 
InChI=1S/C17H25N3O3/c1-2-23-17(22)20-12-8-15(9-13-20)18-10-11-19-16(21)14-6-4-3-5-7-14/h3-7,15,18H,2,8-13H2,1H3,(H,19,21)

>  <IUPAC Name>  (1) 
ethyl 4-(2-benzamidoethylamino)piperidine-1-carboxylate

$$$$
