
     RDKit          3D

 12 11  0  0  0  0  0  0  0  0999 V2000
    2.0695    0.4593   -0.1091 O   0  0  0  0  0  0  0  0  0  0  0  0
    1.0804   -0.4035    0.2996 C   0  0  0  0  0  0  0  0  0  0  0  0
    1.3666   -1.2137    1.2399 O   0  0  0  0  0  0  0  0  0  0  0  0
   -0.2910   -0.4140   -0.3182 C   0  0  1  0  0  0  0  0  0  0  0  0
   -1.0008   -1.3953    0.3367 O   0  0  0  0  0  0  0  0  0  0  0  0
   -0.9137    0.9481   -0.0856 C   0  0  0  0  0  0  0  0  0  0  0  0
    3.0466    0.2056   -0.0249 H   0  0  0  0  0  0  0  0  0  0  0  0
   -0.1906   -0.6282   -1.3841 H   0  0  0  0  0  0  0  0  0  0  0  0
   -1.9549   -1.4234    0.0700 H   0  0  0  0  0  0  0  0  0  0  0  0
   -1.2604    1.3793   -1.0296 H   0  0  0  0  0  0  0  0  0  0  0  0
   -1.7448    0.8286    0.6431 H   0  0  0  0  0  0  0  0  0  0  0  0
   -0.2069    1.6573    0.3624 H   0  0  0  0  0  0  0  0  0  0  0  0
  1  2  1  0
  2  3  2  0
  2  4  1  0
  4  5  1  0
  4  6  1  0
  1  7  1  0
  4  8  1  6
  5  9  1  0
  6 10  1  0
  6 11  1  0
  6 12  1  0
M  END
>  <Ligand ID>  (1) 
LIG0005171

>  <Ligand>  (1) 
L-lactic acid

>  <SMILES>  (1) 
OC(=O)[C@@H](O)C

>  <CID>  (1) 
107689.0

>  <ChEMBL ID>  (1) 
nan

>  <InChiKey>  (1) 
JVTAAEKCZFNVCJ-REOHCLBHSA-N

>  <InChi>  (1) 
InChI=1S/C3H6O3/c1-2(4)3(5)6/h2,4H,1H3,(H,5,6)/t2-/m0/s1

>  <IUPAC Name>  (1) 
(2S)-2-hydroxypropanoic acid

$$$$
