
     RDKit          3D

 71 78  0  0  0  0  0  0  0  0999 V2000
   -3.7057    1.6190    0.8357 C   0  0  0  0  0  0  0  0  0  0  0  0
   -3.1926    1.3370   -0.3783 O   0  0  0  0  0  0  0  0  0  0  0  0
   -1.8954    0.9901   -0.5382 C   0  0  1  0  0  0  0  0  0  0  0  0
   -1.6447    0.9301   -2.1026 C   0  0  0  0  0  0  0  0  0  0  0  0
   -0.3359    0.8095   -2.4290 C   0  0  0  0  0  0  0  0  0  0  0  0
    0.5165    0.4048   -1.2775 C   0  0  0  0  0  0  0  0  0  0  0  0
    0.4137    1.2631   -0.0910 C   0  0  0  0  0  0  0  0  0  0  0  0
   -0.9191    1.9227   -0.1475 C   0  0  2  0  0  0  0  0  0  0  0  0
   -0.6988    2.8052    0.9177 O   0  0  0  0  0  0  0  0  0  0  0  0
    0.4685    3.4646    0.5256 C   0  0  0  0  0  0  0  0  0  0  0  0
    1.1560    2.5330   -0.2059 C   0  0  0  0  0  0  0  0  0  0  0  0
    2.3336    2.6625   -0.8271 C   0  0  0  0  0  0  0  0  0  0  0  0
    2.8025    1.4966   -1.6250 C   0  0  0  0  0  0  0  0  0  0  0  0
    1.9665    0.2681   -1.4865 C   0  0  0  0  0  0  0  0  0  0  0  0
    2.4033   -0.5167   -0.3143 N   0  0  0  0  0  0  0  0  0  0  0  0
    2.3454    0.2886    0.8813 C   0  0  0  0  0  0  0  0  0  0  0  0
    0.9451    0.7686    1.1734 C   0  0  0  0  0  0  0  0  0  0  0  0
    3.6020   -1.2260   -0.5248 C   0  0  0  0  0  0  0  0  0  0  0  0
    4.0557   -2.0215    0.6437 C   0  0  0  0  0  0  0  0  0  0  0  0
    3.2285   -3.1045    1.2313 C   0  0  0  0  0  0  0  0  0  0  0  0
    4.3928   -3.4800    0.3434 C   0  0  0  0  0  0  0  0  0  0  0  0
    2.9667    3.8796   -0.7274 C   0  0  0  0  0  0  0  0  0  0  0  0
    2.3474    4.9134    0.0128 C   0  0  0  0  0  0  0  0  0  0  0  0
    1.0968    4.6913    0.6338 C   0  0  0  0  0  0  0  0  0  0  0  0
    0.4504    5.6640    1.3640 O   0  0  0  0  0  0  0  0  0  0  0  0
   -0.1760   -0.8547   -0.7889 C   0  0  0  0  0  0  0  0  0  0  0  0
   -1.6210   -0.4894   -0.3998 C   0  0  0  0  0  0  0  0  0  0  0  0
   -2.4821   -1.2719   -1.4064 C   0  0  0  0  0  0  0  0  0  0  0  0
   -3.8041   -1.4984   -0.7421 C   0  0  0  0  0  0  0  0  0  0  0  0
   -3.2908   -1.9792    0.6142 C   0  0  0  0  0  0  0  0  0  0  0  0
   -2.0632   -1.1706    0.8408 C   0  0  1  0  0  0  0  0  0  0  0  0
   -1.0437   -2.1369    1.1388 O   0  0  0  0  0  0  0  0  0  0  0  0
   -2.9328   -3.4567    0.3583 C   0  0  0  0  0  0  0  0  0  0  0  0
   -4.3415   -1.9124    1.6654 C   0  0  0  0  0  0  0  0  0  0  0  0
   -3.1961    2.4625    1.3674 H   0  0  0  0  0  0  0  0  0  0  0  0
   -4.7436    2.0703    0.6302 H   0  0  0  0  0  0  0  0  0  0  0  0
   -3.8897    0.8543    1.5647 H   0  0  0  0  0  0  0  0  0  0  0  0
   -2.4507    0.9986   -2.7650 H   0  0  0  0  0  0  0  0  0  0  0  0
    0.0299    0.9922   -3.4250 H   0  0  0  0  0  0  0  0  0  0  0  0
   -0.9004    2.6819   -0.9849 H   0  0  0  0  0  0  0  0  0  0  0  0
    2.8326    1.8164   -2.7079 H   0  0  0  0  0  0  0  0  0  0  0  0
    3.8474    1.2865   -1.3689 H   0  0  0  0  0  0  0  0  0  0  0  0
    2.1615   -0.3897   -2.3570 H   0  0  0  0  0  0  0  0  0  0  0  0
    3.0843    1.1132    0.9145 H   0  0  0  0  0  0  0  0  0  0  0  0
    2.6893   -0.4090    1.7015 H   0  0  0  0  0  0  0  0  0  0  0  0
    0.4784   -0.0302    1.7272 H   0  0  0  0  0  0  0  0  0  0  0  0
    1.0146    1.6202    1.9152 H   0  0  0  0  0  0  0  0  0  0  0  0
    4.4589   -0.5763   -0.8328 H   0  0  0  0  0  0  0  0  0  0  0  0
    3.4414   -1.8977   -1.4125 H   0  0  0  0  0  0  0  0  0  0  0  0
    4.7918   -1.5228    1.3127 H   0  0  0  0  0  0  0  0  0  0  0  0
    3.4291   -3.3482    2.3099 H   0  0  0  0  0  0  0  0  0  0  0  0
    2.2100   -3.3104    0.8951 H   0  0  0  0  0  0  0  0  0  0  0  0
    4.1117   -3.9285   -0.6147 H   0  0  0  0  0  0  0  0  0  0  0  0
    5.3109   -3.9080    0.7825 H   0  0  0  0  0  0  0  0  0  0  0  0
    3.9151    4.0203   -1.2119 H   0  0  0  0  0  0  0  0  0  0  0  0
    2.8239    5.8779    0.1090 H   0  0  0  0  0  0  0  0  0  0  0  0
    0.2357    5.4945    2.3339 H   0  0  0  0  0  0  0  0  0  0  0  0
   -0.1275   -1.5718   -1.6305 H   0  0  0  0  0  0  0  0  0  0  0  0
    0.3485   -1.3311    0.0517 H   0  0  0  0  0  0  0  0  0  0  0  0
   -1.9869   -2.2955   -1.4112 H   0  0  0  0  0  0  0  0  0  0  0  0
   -2.4760   -0.9109   -2.4105 H   0  0  0  0  0  0  0  0  0  0  0  0
   -4.3110   -2.3314   -1.2810 H   0  0  0  0  0  0  0  0  0  0  0  0
   -4.4915   -0.6697   -0.7070 H   0  0  0  0  0  0  0  0  0  0  0  0
   -2.1318   -0.5790    1.7544 H   0  0  0  0  0  0  0  0  0  0  0  0
   -1.3428   -2.5851    1.9546 H   0  0  0  0  0  0  0  0  0  0  0  0
   -3.2233   -4.0683    1.2372 H   0  0  0  0  0  0  0  0  0  0  0  0
   -1.8504   -3.5657    0.1583 H   0  0  0  0  0  0  0  0  0  0  0  0
   -3.4811   -3.8538   -0.5082 H   0  0  0  0  0  0  0  0  0  0  0  0
   -4.8344   -2.9065    1.7515 H   0  0  0  0  0  0  0  0  0  0  0  0
   -3.9726   -1.6593    2.6770 H   0  0  0  0  0  0  0  0  0  0  0  0
   -5.1493   -1.2325    1.3130 H   0  0  0  0  0  0  0  0  0  0  0  0
  1  2  1  0
  3  2  1  6
  3  4  1  0
  4  5  2  0
  5  6  1  0
  6  7  1  0
  7  8  1  0
  8  9  1  0
  9 10  1  0
 10 11  2  0
 11 12  1  0
 12 13  1  0
 13 14  1  0
 14 15  1  0
 15 16  1  0
 16 17  1  0
 15 18  1  0
 18 19  1  0
 19 20  1  0
 20 21  1  0
 12 22  2  0
 22 23  1  0
 23 24  2  0
 24 25  1  0
  6 26  1  0
 26 27  1  0
 27 28  1  0
 28 29  1  0
 29 30  1  0
 30 31  1  0
 31 32  1  0
 30 33  1  0
 30 34  1  0
  8  3  1  0
 24 10  1  0
 31 27  1  0
 27  3  1  0
 14  6  1  0
 21 19  1  0
 17  7  1  0
 11  7  1  0
  1 35  1  0
  1 36  1  0
  1 37  1  0
  4 38  1  0
  5 39  1  0
  8 40  1  6
 13 41  1  0
 13 42  1  0
 14 43  1  0
 16 44  1  0
 16 45  1  0
 17 46  1  0
 17 47  1  0
 18 48  1  0
 18 49  1  0
 19 50  1  0
 20 51  1  0
 20 52  1  0
 21 53  1  0
 21 54  1  0
 22 55  1  0
 23 56  1  0
 25 57  1  0
 26 58  1  0
 26 59  1  0
 28 60  1  0
 28 61  1  0
 29 62  1  0
 29 63  1  0
 31 64  1  1
 32 65  1  0
 33 66  1  0
 33 67  1  0
 33 68  1  0
 34 69  1  0
 34 70  1  0
 34 71  1  0
M  END
>  <Ligand ID>  (1) 
LIG0003569

>  <Ligand>  (1) 
CHEMBL31030

>  <SMILES>  (1) 
CO[C@@]12C=CC3(C45[C@@H]1Oc1c5c(CC3N(CC4)CC3CC3)ccc1O)CC12CCC([C@H]1O)(C)C

>  <CID>  (1) 
44279686.0

>  <ChEMBL ID>  (1) 
nan

>  <InChiKey>  (1) 
ZKAKTJKHXAIHBA-DDXVUPJYSA-N

>  <InChi>  (1) 
InChI=1S/C29H37NO4/c1-25(2)8-9-27(23(25)32)16-26-10-11-29(27,33-3)24-28(26)12-13-30(15-17-4-5-17)20(26)14-18-6-7-19(31)22(34-24)21(18)28/h6-7,10-11,17,20,23-24,31-32H,4-5,8-9,12-16H2,1-3H3/t20?,23-,24+,26?,27?,28?,29+/m1/s1

>  <IUPAC Name>  (1) 
(1'R,14S,15R)-5-(cyclopropylmethyl)-15-methoxy-5',5'-dimethylspiro[13-oxa-5-azahexacyclo[13.2.2.12,8.01,6.02,14.012,20]icosa-8(20),9,11,16-tetraene-19,2'-cyclopentane]-1',11-diol

$$$$
