
     RDKit          3D

 22 22  0  0  0  0  0  0  0  0999 V2000
   -2.5385    1.7147    0.4724 O   0  0  0  0  0  0  0  0  0  0  0  0
   -2.4903    0.7940   -0.5443 C   0  0  0  0  0  0  0  0  0  0  0  0
   -3.3511    0.8693   -1.4535 O   0  0  0  0  0  0  0  0  0  0  0  0
   -1.4329   -0.2694   -0.5589 C   0  0  2  0  0  0  0  0  0  0  0  0
   -1.7608   -1.3667   -1.4299 N   0  0  0  0  0  0  0  0  0  0  0  0
   -0.8590   -0.6558    0.7690 C   0  0  0  0  0  0  0  0  0  0  0  0
   -0.0578    0.0946   -0.2210 C   0  0  1  0  0  0  0  0  0  0  0  0
    1.1606   -0.5624   -0.7670 C   0  0  0  0  0  0  0  0  0  0  0  0
    2.6292    0.2535   -0.0374 P   0  0  0  0  0  0  0  0  0  0  0  0
    3.7620    0.2384   -1.0339 O   0  0  0  0  0  0  0  0  0  0  0  0
    2.2347    1.8718    0.2721 O   0  0  0  0  0  0  0  0  0  0  0  0
    3.0551   -0.4491    1.4320 O   0  0  0  0  0  0  0  0  0  0  0  0
   -3.3031    2.3686    0.5134 H   0  0  0  0  0  0  0  0  0  0  0  0
   -2.7938   -1.5390   -1.3319 H   0  0  0  0  0  0  0  0  0  0  0  0
   -1.2401   -2.2443   -1.2437 H   0  0  0  0  0  0  0  0  0  0  0  0
   -1.1974   -0.1246    1.6971 H   0  0  0  0  0  0  0  0  0  0  0  0
   -0.5847   -1.7313    0.9662 H   0  0  0  0  0  0  0  0  0  0  0  0
    0.0954    1.1875    0.0192 H   0  0  0  0  0  0  0  0  0  0  0  0
    1.1941   -1.6119   -0.4176 H   0  0  0  0  0  0  0  0  0  0  0  0
    1.2298   -0.5646   -1.8801 H   0  0  0  0  0  0  0  0  0  0  0  0
    2.2449    2.4152   -0.5412 H   0  0  0  0  0  0  0  0  0  0  0  0
    4.0039   -0.6883    1.4960 H   0  0  0  0  0  0  0  0  0  0  0  0
  1  2  1  0
  2  3  2  0
  2  4  1  0
  4  5  1  6
  4  6  1  0
  6  7  1  0
  7  8  1  0
  8  9  1  0
  9 10  2  0
  9 11  1  0
  9 12  1  0
  7  4  1  0
  1 13  1  0
  5 14  1  0
  5 15  1  0
  6 16  1  0
  6 17  1  0
  7 18  1  1
  8 19  1  0
  8 20  1  0
 11 21  1  0
 12 22  1  0
M  END
>  <Ligand ID>  (1) 
LIG0000818

>  <Ligand>  (1) 
CHEMBL229697

>  <SMILES>  (1) 
OC(=O)[C@]1(N)C[C@H]1CP(=O)(O)O

>  <CID>  (1) 
16747847.0

>  <ChEMBL ID>  (1) 
nan

>  <InChiKey>  (1) 
RACNCOSUCJNQDH-UCORVYFPSA-N

>  <InChi>  (1) 
InChI=1S/C5H10NO5P/c6-5(4(7)8)1-3(5)2-12(9,10)11/h3H,1-2,6H2,(H,7,8)(H2,9,10,11)/t3-,5-/m0/s1

>  <IUPAC Name>  (1) 
(1S,2R)-1-amino-2-(phosphonomethyl)cyclopropane-1-carboxylic acid

$$$$
