
     RDKit          3D

 92 93  0  0  0  0  0  0  0  0999 V2000
    5.9326   -4.4029    2.1321 C   0  0  0  0  0  0  0  0  0  0  0  0
    5.5441   -3.5277    0.9779 C   0  0  1  0  0  0  0  0  0  0  0  0
    4.0661   -3.2678    1.0707 C   0  0  0  0  0  0  0  0  0  0  0  0
    3.6988   -2.3248    2.0726 N   0  0  0  0  0  0  0  0  0  0  0  0
    4.6176   -1.3238    2.3947 C   0  0  1  0  0  0  0  0  0  0  0  0
    6.0530   -1.5362    2.0648 C   0  0  0  0  0  0  0  0  0  0  0  0
    6.2991   -2.2999    0.8795 N   0  0  0  0  0  0  0  0  0  0  0  0
    4.1670   -0.0044    1.8897 C   0  0  0  0  0  0  0  0  0  0  0  0
    4.9862    0.9473    1.9740 O   0  0  0  0  0  0  0  0  0  0  0  0
    2.8410    0.1961    1.3240 N   0  0  0  0  0  0  0  0  0  0  0  0
    2.5588    1.5175    0.8791 C   0  0  1  0  0  0  0  0  0  0  0  0
    1.6684    1.7320   -0.2350 C   0  0  0  0  0  0  0  0  0  0  0  0
    1.7655    2.9016   -0.7878 O   0  0  0  0  0  0  0  0  0  0  0  0
    0.7062    0.8955   -0.8261 N   0  0  0  0  0  0  0  0  0  0  0  0
    0.3368   -0.4407   -0.4036 C   0  0  0  0  0  0  0  0  0  0  0  0
   -0.8856   -0.9053   -1.1858 C   0  0  0  0  0  0  0  0  0  0  0  0
   -2.0001    0.0773   -1.2326 C   0  0  0  0  0  0  0  0  0  0  0  0
   -1.4809    1.4720   -1.5921 C   0  0  0  0  0  0  0  0  0  0  0  0
   -0.0480    1.3655   -2.0147 C   0  0  0  0  0  0  0  0  0  0  0  0
   -2.8764    0.1569   -0.0246 C   0  0  0  0  0  0  0  0  0  0  0  0
   -3.5977   -1.1190    0.2533 C   0  0  0  0  0  0  0  0  0  0  0  0
   -4.2573   -0.9996    1.6461 C   0  0  0  0  0  0  0  0  0  0  0  0
   -4.5500    0.4330    1.9776 C   0  0  0  0  0  0  0  0  0  0  0  0
   -3.2452    1.1922    2.1369 C   0  0  0  0  0  0  0  0  0  0  0  0
   -2.1679    0.5382    1.2580 C   0  0  0  0  0  0  0  0  0  0  0  0
   -2.9286   -0.2572   -2.3837 C   0  0  0  0  0  0  0  0  0  0  0  0
   -3.3104    0.6354   -3.1983 O   0  0  0  0  0  0  0  0  0  0  0  0
   -3.4122   -1.5645   -2.6127 N   0  0  0  0  0  0  0  0  0  0  0  0
   -4.3116   -1.7269   -3.7604 C   0  0  0  0  0  0  0  0  0  0  0  0
   -4.7900   -3.1294   -3.9173 C   0  0  0  0  0  0  0  0  0  0  0  0
   -5.4719   -0.7954   -3.5638 C   0  0  0  0  0  0  0  0  0  0  0  0
   -3.5866   -1.3138   -5.0253 C   0  0  0  0  0  0  0  0  0  0  0  0
    1.9381    2.3118    2.0691 C   0  0  0  0  0  0  0  0  0  0  0  0
    1.6445    3.6911    1.6675 C   0  0  0  0  0  0  0  0  0  0  0  0
    2.6688    4.6293    1.8201 C   0  0  0  0  0  0  0  0  0  0  0  0
    2.5243    5.9499    1.5029 C   0  0  0  0  0  0  0  0  0  0  0  0
    1.3132    6.4053    1.0042 C   0  0  0  0  0  0  0  0  0  0  0  0
    0.2652    5.4952    0.8378 C   0  0  0  0  0  0  0  0  0  0  0  0
    0.4429    4.1447    1.1722 C   0  0  0  0  0  0  0  0  0  0  0  0
    1.1636    7.7179    0.6866 F   0  0  0  0  0  0  0  0  0  0  0  0
    0.6884    0.0000    0.0000 Cl  0  0  0  0  0  0  0  0  0  0  0  0
    0.6866    0.0000    0.0000 Cl  0  0  0  0  0  0  0  0  0  0  0  0
    6.1303   -5.4584    1.8551 H   0  0  0  0  0  0  0  0  0  0  0  0
    5.1753   -4.3644    2.9621 H   0  0  0  0  0  0  0  0  0  0  0  0
    6.8962   -4.0595    2.5999 H   0  0  0  0  0  0  0  0  0  0  0  0
    5.7657   -4.0930    0.0378 H   0  0  0  0  0  0  0  0  0  0  0  0
    3.5358   -4.2372    1.2078 H   0  0  0  0  0  0  0  0  0  0  0  0
    3.7557   -2.8768    0.0814 H   0  0  0  0  0  0  0  0  0  0  0  0
    2.7430   -2.2908    2.3848 H   0  0  0  0  0  0  0  0  0  0  0  0
    4.5723   -1.1952    3.5351 H   0  0  0  0  0  0  0  0  0  0  0  0
    6.6234   -0.5575    2.0664 H   0  0  0  0  0  0  0  0  0  0  0  0
    6.5306   -2.0913    2.9253 H   0  0  0  0  0  0  0  0  0  0  0  0
    7.3175   -2.5249    0.8290 H   0  0  0  0  0  0  0  0  0  0  0  0
    2.2629   -0.6473    1.3175 H   0  0  0  0  0  0  0  0  0  0  0  0
    3.5368    2.0467    0.7077 H   0  0  0  0  0  0  0  0  0  0  0  0
    1.1290   -1.1657   -0.6600 H   0  0  0  0  0  0  0  0  0  0  0  0
    0.1502   -0.5027    0.6822 H   0  0  0  0  0  0  0  0  0  0  0  0
   -0.5387   -1.1427   -2.2102 H   0  0  0  0  0  0  0  0  0  0  0  0
   -1.1623   -1.8801   -0.7442 H   0  0  0  0  0  0  0  0  0  0  0  0
   -1.5478    2.1094   -0.6880 H   0  0  0  0  0  0  0  0  0  0  0  0
   -2.0951    1.8940   -2.4243 H   0  0  0  0  0  0  0  0  0  0  0  0
    0.1373    0.6134   -2.8011 H   0  0  0  0  0  0  0  0  0  0  0  0
    0.3746    2.3580   -2.3121 H   0  0  0  0  0  0  0  0  0  0  0  0
   -3.5997    0.9873   -0.2212 H   0  0  0  0  0  0  0  0  0  0  0  0
   -2.8877   -1.9497    0.2778 H   0  0  0  0  0  0  0  0  0  0  0  0
   -4.4248   -1.2153   -0.4763 H   0  0  0  0  0  0  0  0  0  0  0  0
   -3.5309   -1.4168    2.3703 H   0  0  0  0  0  0  0  0  0  0  0  0
   -5.2275   -1.5708    1.6428 H   0  0  0  0  0  0  0  0  0  0  0  0
   -5.0722    0.4668    2.9470 H   0  0  0  0  0  0  0  0  0  0  0  0
   -5.2084    0.9197    1.2221 H   0  0  0  0  0  0  0  0  0  0  0  0
   -2.9708    1.1683    3.2028 H   0  0  0  0  0  0  0  0  0  0  0  0
   -3.3995    2.2474    1.8493 H   0  0  0  0  0  0  0  0  0  0  0  0
   -1.3896    1.2657    1.0788 H   0  0  0  0  0  0  0  0  0  0  0  0
   -1.8639   -0.3621    1.8607 H   0  0  0  0  0  0  0  0  0  0  0  0
   -3.1466   -2.3790   -2.0250 H   0  0  0  0  0  0  0  0  0  0  0  0
   -3.9601   -3.8554   -3.8754 H   0  0  0  0  0  0  0  0  0  0  0  0
   -5.5751   -3.3889   -3.1561 H   0  0  0  0  0  0  0  0  0  0  0  0
   -5.2168   -3.2373   -4.9397 H   0  0  0  0  0  0  0  0  0  0  0  0
   -5.4323   -0.2975   -2.5720 H   0  0  0  0  0  0  0  0  0  0  0  0
   -5.5267   -0.0197   -4.3547 H   0  0  0  0  0  0  0  0  0  0  0  0
   -6.4217   -1.3607   -3.5921 H   0  0  0  0  0  0  0  0  0  0  0  0
   -2.4892   -1.2217   -4.8957 H   0  0  0  0  0  0  0  0  0  0  0  0
   -4.0421   -0.3924   -5.4603 H   0  0  0  0  0  0  0  0  0  0  0  0
   -3.7332   -2.0953   -5.8242 H   0  0  0  0  0  0  0  0  0  0  0  0
    0.9794    1.8038    2.3686 H   0  0  0  0  0  0  0  0  0  0  0  0
    2.6123    2.3111    2.9362 H   0  0  0  0  0  0  0  0  0  0  0  0
    3.6345    4.3077    2.2114 H   0  0  0  0  0  0  0  0  0  0  0  0
    3.3726    6.6164    1.6531 H   0  0  0  0  0  0  0  0  0  0  0  0
   -0.6973    5.8439    0.4423 H   0  0  0  0  0  0  0  0  0  0  0  0
   -0.3565    3.4238    1.0498 H   0  0  0  0  0  0  0  0  0  0  0  0
   -0.6884    0.0000    0.0000 H   0  0  0  0  0  0  0  0  0  0  0  0
   -0.6866    0.0000    0.0000 H   0  0  0  0  0  0  0  0  0  0  0  0
  1  2  1  0
  2  3  1  0
  3  4  1  0
  4  5  1  0
  5  6  1  0
  6  7  1  0
  5  8  1  0
  8  9  2  0
  8 10  1  0
 10 11  1  0
 11 12  1  0
 12 13  2  0
 12 14  1  0
 14 15  1  0
 15 16  1  0
 16 17  1  0
 17 18  1  0
 18 19  1  0
 17 20  1  0
 20 21  1  0
 21 22  1  0
 22 23  1  0
 23 24  1  0
 24 25  1  0
 17 26  1  0
 26 27  2  0
 26 28  1  0
 28 29  1  0
 29 30  1  0
 29 31  1  0
 29 32  1  0
 11 33  1  0
 33 34  1  0
 34 35  2  0
 35 36  1  0
 36 37  2  0
 37 38  1  0
 38 39  2  0
 37 40  1  0
  7  2  1  0
 19 14  1  0
 25 20  1  0
 39 34  1  0
  1 43  1  0
  1 44  1  0
  1 45  1  0
  2 46  1  6
  3 47  1  0
  3 48  1  0
  4 49  1  0
  5 50  1  1
  6 51  1  0
  6 52  1  0
  7 53  1  0
 10 54  1  0
 11 55  1  6
 15 56  1  0
 15 57  1  0
 16 58  1  0
 16 59  1  0
 18 60  1  0
 18 61  1  0
 19 62  1  0
 19 63  1  0
 20 64  1  0
 21 65  1  0
 21 66  1  0
 22 67  1  0
 22 68  1  0
 23 69  1  0
 23 70  1  0
 24 71  1  0
 24 72  1  0
 25 73  1  0
 25 74  1  0
 28 75  1  0
 30 76  1  0
 30 77  1  0
 30 78  1  0
 31 79  1  0
 31 80  1  0
 31 81  1  0
 32 82  1  0
 32 83  1  0
 32 84  1  0
 33 85  1  0
 33 86  1  0
 35 87  1  0
 36 88  1  0
 38 89  1  0
 39 90  1  0
 41 91  1  0
 42 92  1  0
M  END
>  <Ligand ID>  (1) 
LIG0005545

>  <Ligand>  (1) 
CHEMBL534930

>  <SMILES>  (1) 
C[C@H]1CN[C@@H](CN1)C(=O)N[C@@H](C(=O)N1CCC(CC1)(C1CCCCC1)C(=O)NC(C)(C)C)Cc1ccc(cc1)F.Cl.Cl

>  <CID>  (1) 
45263273.0

>  <ChEMBL ID>  (1) 
nan

>  <InChiKey>  (1) 
QSQPOAQIHWOWKW-DQWWOMFWSA-N

>  <InChi>  (1) 
InChI=1S/C31H48FN5O3.2ClH/c1-21-19-34-26(20-33-21)27(38)35-25(18-22-10-12-24(32)13-11-22)28(39)37-16-14-31(15-17-37,23-8-6-5-7-9-23)29(40)36-30(2,3)4;;/h10-13,21,23,25-26,33-34H,5-9,14-20H2,1-4H3,(H,35,38)(H,36,40);2*1H/t21-,25+,26-;;/m0../s1

>  <IUPAC Name>  (1) 
(2S,5S)-N-[(2R)-1-[4-(tert-butylcarbamoyl)-4-cyclohexylpiperidin-1-yl]-3-(4-fluorophenyl)-1-oxopropan-2-yl]-5-methylpiperazine-2-carboxamide;dihydrochloride

$$$$
