
     RDKit          3D

 48 50  0  0  0  0  0  0  0  0999 V2000
    7.3102   -1.2183    0.5774 O   0  0  0  0  0  0  0  0  0  0  0  0
    7.4114   -0.0586    1.3040 C   0  0  0  0  0  0  0  0  0  0  0  0
    6.9414    1.1568    0.5913 C   0  0  0  0  0  0  0  0  0  0  0  0
    5.5742    1.0989    0.2104 N   0  0  0  0  0  0  0  0  0  0  0  0
    4.9716    0.1787   -0.6778 C   0  0  0  0  0  0  0  0  0  0  0  0
    5.6454   -0.7300   -1.2538 O   0  0  0  0  0  0  0  0  0  0  0  0
    3.5430    0.1919   -1.0059 C   0  0  0  0  0  0  0  0  0  0  0  0
    3.0504   -0.7625   -1.8829 C   0  0  0  0  0  0  0  0  0  0  0  0
    1.6998   -0.7946   -2.2309 C   0  0  0  0  0  0  0  0  0  0  0  0
    0.8285    0.1334   -1.7006 C   0  0  0  0  0  0  0  0  0  0  0  0
    1.2947    1.0931   -0.8259 C   0  0  0  0  0  0  0  0  0  0  0  0
    2.6508    1.1001   -0.4964 C   0  0  0  0  0  0  0  0  0  0  0  0
    0.3588    2.0877   -0.2587 C   0  0  0  0  0  0  0  0  0  0  0  0
   -0.3609    1.4839    1.2906 S   0  0  0  0  0  0  0  0  0  0  0  0
   -1.4162    0.0535    0.9757 C   0  0  0  0  0  0  0  0  0  0  0  0
   -0.9109   -1.1959    0.9951 N   0  0  0  0  0  0  0  0  0  0  0  0
   -1.7546   -2.2302    0.7514 C   0  0  0  0  0  0  0  0  0  0  0  0
   -3.1037   -1.9980    0.4894 C   0  0  0  0  0  0  0  0  0  0  0  0
   -3.6129   -0.7177    0.4712 C   0  0  0  0  0  0  0  0  0  0  0  0
   -2.7425    0.3221    0.7208 C   0  0  0  0  0  0  0  0  0  0  0  0
   -3.2487    1.6729    0.7078 C   0  0  0  0  0  0  0  0  0  0  0  0
   -3.6662    2.7540    0.7130 N   0  0  0  0  0  0  0  0  0  0  0  0
   -5.0202   -0.4293    0.2008 C   0  0  0  0  0  0  0  0  0  0  0  0
   -5.9761   -0.3582    1.1941 C   0  0  0  0  0  0  0  0  0  0  0  0
   -7.2740   -0.0786    0.8196 C   0  0  0  0  0  0  0  0  0  0  0  0
   -7.6403    0.1289   -0.4955 C   0  0  0  0  0  0  0  0  0  0  0  0
   -6.6688    0.0563   -1.5012 C   0  0  0  0  0  0  0  0  0  0  0  0
   -5.3737   -0.2231   -1.1237 C   0  0  0  0  0  0  0  0  0  0  0  0
   -3.9664   -3.0947    0.2374 C   0  0  0  0  0  0  0  0  0  0  0  0
   -4.6756   -3.9941    0.0499 N   0  0  0  0  0  0  0  0  0  0  0  0
    8.1642   -1.3902    0.1010 H   0  0  0  0  0  0  0  0  0  0  0  0
    8.4841    0.1374    1.5892 H   0  0  0  0  0  0  0  0  0  0  0  0
    6.8716   -0.2148    2.2844 H   0  0  0  0  0  0  0  0  0  0  0  0
    7.1507    2.0931    1.1530 H   0  0  0  0  0  0  0  0  0  0  0  0
    7.5484    1.2602   -0.3651 H   0  0  0  0  0  0  0  0  0  0  0  0
    4.9231    1.8164    0.6306 H   0  0  0  0  0  0  0  0  0  0  0  0
    3.6684   -1.5211   -2.3388 H   0  0  0  0  0  0  0  0  0  0  0  0
    1.3310   -1.5533   -2.9227 H   0  0  0  0  0  0  0  0  0  0  0  0
   -0.2231    0.0718   -2.0007 H   0  0  0  0  0  0  0  0  0  0  0  0
    2.9667    1.8555    0.1810 H   0  0  0  0  0  0  0  0  0  0  0  0
    0.9626    2.9846    0.0057 H   0  0  0  0  0  0  0  0  0  0  0  0
   -0.4034    2.3325   -1.0072 H   0  0  0  0  0  0  0  0  0  0  0  0
   -1.3573   -3.2525    0.7633 H   0  0  0  0  0  0  0  0  0  0  0  0
   -5.6823   -0.5210    2.2165 H   0  0  0  0  0  0  0  0  0  0  0  0
   -8.0607   -0.0113    1.5530 H   0  0  0  0  0  0  0  0  0  0  0  0
   -8.6743    0.3500   -0.7729 H   0  0  0  0  0  0  0  0  0  0  0  0
   -6.9275    0.2153   -2.5447 H   0  0  0  0  0  0  0  0  0  0  0  0
   -4.6106   -0.2810   -1.9133 H   0  0  0  0  0  0  0  0  0  0  0  0
  1  2  1  0
  2  3  1  0
  3  4  1  0
  4  5  1  0
  5  6  2  0
  5  7  1  0
  7  8  2  0
  8  9  1  0
  9 10  2  0
 10 11  1  0
 11 12  2  0
 11 13  1  0
 13 14  1  0
 14 15  1  0
 15 16  2  0
 16 17  1  0
 17 18  2  0
 18 19  1  0
 19 20  2  0
 20 21  1  0
 21 22  3  0
 19 23  1  0
 23 24  2  0
 24 25  1  0
 25 26  2  0
 26 27  1  0
 27 28  2  0
 18 29  1  0
 29 30  3  0
 12  7  1  0
 20 15  1  0
 28 23  1  0
  1 31  1  0
  2 32  1  0
  2 33  1  0
  3 34  1  0
  3 35  1  0
  4 36  1  0
  8 37  1  0
  9 38  1  0
 10 39  1  0
 12 40  1  0
 13 41  1  0
 13 42  1  0
 17 43  1  0
 24 44  1  0
 25 45  1  0
 26 46  1  0
 27 47  1  0
 28 48  1  0
M  END
>  <Ligand ID>  (1) 
LIG0002661

>  <Ligand>  (1) 
SCHEMBL245389

>  <SMILES>  (1) 
OCCNC(=O)c1cccc(c1)CSc1ncc(c(c1C#N)c1ccccc1)C#N

>  <CID>  (1) 
56592179.0

>  <ChEMBL ID>  (1) 
nan

>  <InChiKey>  (1) 
RYNDARWSEZMFCR-UHFFFAOYSA-N

>  <InChi>  (1) 
InChI=1S/C23H18N4O2S/c24-12-19-14-27-23(20(13-25)21(19)17-6-2-1-3-7-17)30-15-16-5-4-8-18(11-16)22(29)26-9-10-28/h1-8,11,14,28H,9-10,15H2,(H,26,29)

>  <IUPAC Name>  (1) 
3-[(3,5-dicyano-4-phenylpyridin-2-yl)sulfanylmethyl]-N-(2-hydroxyethyl)benzamide

$$$$
