
     RDKit          3D

 93 96  0  0  0  0  0  0  0  0999 V2000
    3.1758    6.3946   -1.6348 N   0  0  0  0  0  0  0  0  0  0  0  0
    2.1867    6.4712   -2.6645 C   0  0  0  0  0  0  0  0  0  0  0  0
    1.9759    5.4955   -3.4986 N   0  0  0  0  0  0  0  0  0  0  0  0
    2.7240    4.2424   -3.4599 C   0  0  0  0  0  0  0  0  0  0  0  0
    1.8084    3.1208   -2.9257 C   0  0  0  0  0  0  0  0  0  0  0  0
    2.5266    1.8223   -2.8578 C   0  0  0  0  0  0  0  0  0  0  0  0
    1.7625    0.6417   -2.3802 C   0  0  1  0  0  0  0  0  0  0  0  0
    2.7013   -0.5561   -2.3709 C   0  0  0  0  0  0  0  0  0  0  0  0
    3.2668   -0.8088   -3.4827 O   0  0  0  0  0  0  0  0  0  0  0  0
    2.9191   -1.3195   -1.2030 N   0  0  0  0  0  0  0  0  0  0  0  0
    3.8406   -2.4426   -1.3134 C   0  0  2  0  0  0  0  0  0  0  0  0
    3.2362   -3.6822   -0.8534 C   0  0  0  0  0  0  0  0  0  0  0  0
    2.1060   -3.6959   -0.2504 O   0  0  0  0  0  0  0  0  0  0  0  0
    3.9407   -4.9091   -1.0988 N   0  0  0  0  0  0  0  0  0  0  0  0
    5.1397   -2.1660   -0.6423 C   0  0  0  0  0  0  0  0  0  0  0  0
    5.1106   -1.8368    0.7810 C   0  0  0  0  0  0  0  0  0  0  0  0
    5.1407   -0.5091    1.2305 C   0  0  0  0  0  0  0  0  0  0  0  0
    5.0753   -0.5026    2.5881 N   0  0  0  0  0  0  0  0  0  0  0  0
    5.0043   -1.7522    3.0506 C   0  0  0  0  0  0  0  0  0  0  0  0
    5.0268   -2.5766    1.9265 C   0  0  0  0  0  0  0  0  0  0  0  0
    4.9747   -3.9206    2.1534 C   0  0  0  0  0  0  0  0  0  0  0  0
    4.9020   -4.4541    3.4140 C   0  0  0  0  0  0  0  0  0  0  0  0
    4.8777   -3.6380    4.5443 C   0  0  0  0  0  0  0  0  0  0  0  0
    4.9313   -2.2618    4.3290 C   0  0  0  0  0  0  0  0  0  0  0  0
    1.1251    0.7522   -1.1057 N   0  0  0  0  0  0  0  0  0  0  0  0
   -0.2184    0.2664   -1.0009 C   0  0  0  0  0  0  0  0  0  0  0  0
   -0.7609   -0.2191   -2.0196 O   0  0  0  0  0  0  0  0  0  0  0  0
   -0.9807    0.3097    0.2467 C   0  0  2  0  0  0  0  0  0  0  0  0
   -2.2741   -0.3603    0.1010 N   0  0  0  0  0  0  0  0  0  0  0  0
   -2.8094   -1.2320    1.0800 C   0  0  0  0  0  0  0  0  0  0  0  0
   -2.1222   -1.4216    2.1290 O   0  0  0  0  0  0  0  0  0  0  0  0
   -4.0915   -1.9240    0.9662 C   0  0  2  0  0  0  0  0  0  0  0  0
   -5.2432   -1.0429    0.5285 C   0  0  0  0  0  0  0  0  0  0  0  0
   -6.4607   -1.8620    0.4180 C   0  0  0  0  0  0  0  0  0  0  0  0
   -6.8100   -2.5077   -0.7364 N   0  0  0  0  0  0  0  0  0  0  0  0
   -7.9654   -3.1624   -0.5540 C   0  0  0  0  0  0  0  0  0  0  0  0
   -8.3977   -2.9683    0.6994 N   0  0  0  0  0  0  0  0  0  0  0  0
   -7.4657   -2.1651    1.2944 C   0  0  0  0  0  0  0  0  0  0  0  0
   -4.3377   -2.6206    2.2088 N   0  0  0  0  0  0  0  0  0  0  0  0
   -4.9406   -2.0546    3.3508 C   0  0  0  0  0  0  0  0  0  0  0  0
   -5.3186   -0.8427    3.3766 O   0  0  0  0  0  0  0  0  0  0  0  0
   -5.1659   -2.8640    4.5960 C   0  0  0  0  0  0  0  0  0  0  0  0
   -1.3384    1.7365    0.6569 C   0  0  0  0  0  0  0  0  0  0  0  0
   -2.1838    2.4398   -0.3131 C   0  0  0  0  0  0  0  0  0  0  0  0
   -1.7613    3.2151   -1.3523 C   0  0  0  0  0  0  0  0  0  0  0  0
   -2.6387    3.8519   -2.2135 C   0  0  0  0  0  0  0  0  0  0  0  0
   -4.0014    3.7356   -2.0663 C   0  0  0  0  0  0  0  0  0  0  0  0
   -4.4633    2.9370   -0.9988 C   0  0  0  0  0  0  0  0  0  0  0  0
   -3.5685    2.3164   -0.1587 C   0  0  0  0  0  0  0  0  0  0  0  0
   -4.8510    4.3586   -2.9037 F   0  0  0  0  0  0  0  0  0  0  0  0
    1.3715    7.6228   -2.8332 N   0  0  0  0  0  0  0  0  0  0  0  0
    2.9210    6.2180   -0.6290 H   0  0  0  0  0  0  0  0  0  0  0  0
    4.1624    6.5230   -1.9396 H   0  0  0  0  0  0  0  0  0  0  0  0
    3.0155    4.0077   -4.5061 H   0  0  0  0  0  0  0  0  0  0  0  0
    3.6093    4.3876   -2.8399 H   0  0  0  0  0  0  0  0  0  0  0  0
    1.5704    3.4974   -1.8798 H   0  0  0  0  0  0  0  0  0  0  0  0
    0.8769    3.1204   -3.5022 H   0  0  0  0  0  0  0  0  0  0  0  0
    3.3947    1.9502   -2.1577 H   0  0  0  0  0  0  0  0  0  0  0  0
    2.9754    1.6578   -3.8713 H   0  0  0  0  0  0  0  0  0  0  0  0
    1.0122    0.3464   -3.1750 H   0  0  0  0  0  0  0  0  0  0  0  0
    2.4446   -1.0915   -0.3050 H   0  0  0  0  0  0  0  0  0  0  0  0
    4.1080   -2.5954   -2.4097 H   0  0  0  0  0  0  0  0  0  0  0  0
    3.8701   -5.7248   -0.4512 H   0  0  0  0  0  0  0  0  0  0  0  0
    4.5460   -5.0062   -1.9463 H   0  0  0  0  0  0  0  0  0  0  0  0
    5.7225   -3.1369   -0.7181 H   0  0  0  0  0  0  0  0  0  0  0  0
    5.7853   -1.4547   -1.2252 H   0  0  0  0  0  0  0  0  0  0  0  0
    5.2038    0.3903    0.6356 H   0  0  0  0  0  0  0  0  0  0  0  0
    5.0774    0.3459    3.2269 H   0  0  0  0  0  0  0  0  0  0  0  0
    5.0028   -4.5826    1.3237 H   0  0  0  0  0  0  0  0  0  0  0  0
    4.8621   -5.5207    3.5514 H   0  0  0  0  0  0  0  0  0  0  0  0
    4.8190   -4.0468    5.5481 H   0  0  0  0  0  0  0  0  0  0  0  0
    4.9138   -1.6046    5.1921 H   0  0  0  0  0  0  0  0  0  0  0  0
    1.6154    1.1694   -0.2884 H   0  0  0  0  0  0  0  0  0  0  0  0
   -0.4960   -0.1274    1.1345 H   0  0  0  0  0  0  0  0  0  0  0  0
   -2.8348   -0.1835   -0.7742 H   0  0  0  0  0  0  0  0  0  0  0  0
   -4.0133   -2.6876    0.1317 H   0  0  0  0  0  0  0  0  0  0  0  0
   -4.9651   -0.6801   -0.4896 H   0  0  0  0  0  0  0  0  0  0  0  0
   -5.3712   -0.1483    1.1713 H   0  0  0  0  0  0  0  0  0  0  0  0
   -6.2984   -2.5246   -1.6452 H   0  0  0  0  0  0  0  0  0  0  0  0
   -8.5005   -3.7635   -1.2773 H   0  0  0  0  0  0  0  0  0  0  0  0
   -7.5740   -1.8515    2.3022 H   0  0  0  0  0  0  0  0  0  0  0  0
   -4.0518   -3.6394    2.2893 H   0  0  0  0  0  0  0  0  0  0  0  0
   -5.9554   -2.3980    5.2267 H   0  0  0  0  0  0  0  0  0  0  0  0
   -5.3244   -3.9308    4.3798 H   0  0  0  0  0  0  0  0  0  0  0  0
   -4.2027   -2.7904    5.1773 H   0  0  0  0  0  0  0  0  0  0  0  0
   -0.4197    2.3094    0.9222 H   0  0  0  0  0  0  0  0  0  0  0  0
   -1.9042    1.6657    1.6228 H   0  0  0  0  0  0  0  0  0  0  0  0
   -0.7014    3.3269   -1.4965 H   0  0  0  0  0  0  0  0  0  0  0  0
   -2.1803    4.4522   -3.0171 H   0  0  0  0  0  0  0  0  0  0  0  0
   -5.5284    2.8752   -0.9229 H   0  0  0  0  0  0  0  0  0  0  0  0
   -3.9593    1.7148    0.6432 H   0  0  0  0  0  0  0  0  0  0  0  0
    1.7395    8.6068   -2.7172 H   0  0  0  0  0  0  0  0  0  0  0  0
    0.3515    7.4727   -3.0848 H   0  0  0  0  0  0  0  0  0  0  0  0
  1  2  1  0
  2  3  2  3
  3  4  1  0
  4  5  1  0
  5  6  1  0
  6  7  1  0
  7  8  1  0
  8  9  2  0
  8 10  1  0
 10 11  1  0
 11 12  1  0
 12 13  2  0
 12 14  1  0
 11 15  1  0
 15 16  1  0
 16 17  2  0
 17 18  1  0
 18 19  1  0
 19 20  2  0
 20 21  1  0
 21 22  2  0
 22 23  1  0
 23 24  2  0
  7 25  1  0
 25 26  1  0
 26 27  2  0
 26 28  1  0
 28 29  1  0
 29 30  1  0
 30 31  2  0
 30 32  1  0
 32 33  1  0
 33 34  1  0
 34 35  1  0
 35 36  1  0
 36 37  2  0
 37 38  1  0
 32 39  1  0
 39 40  1  0
 40 41  2  0
 40 42  1  0
 28 43  1  0
 43 44  1  0
 44 45  2  0
 45 46  1  0
 46 47  2  0
 47 48  1  0
 48 49  2  0
 47 50  1  0
  2 51  1  0
 20 16  1  0
 38 34  2  0
 49 44  1  0
 24 19  1  0
  1 52  1  0
  1 53  1  0
  4 54  1  0
  4 55  1  0
  5 56  1  0
  5 57  1  0
  6 58  1  0
  6 59  1  0
  7 60  1  6
 10 61  1  0
 11 62  1  6
 14 63  1  0
 14 64  1  0
 15 65  1  0
 15 66  1  0
 17 67  1  0
 18 68  1  0
 21 69  1  0
 22 70  1  0
 23 71  1  0
 24 72  1  0
 25 73  1  0
 28 74  1  1
 29 75  1  0
 32 76  1  6
 33 77  1  0
 33 78  1  0
 35 79  1  0
 36 80  1  0
 38 81  1  0
 39 82  1  0
 42 83  1  0
 42 84  1  0
 42 85  1  0
 43 86  1  0
 43 87  1  0
 45 88  1  0
 46 89  1  0
 48 90  1  0
 49 91  1  0
 51 92  1  0
 51 93  1  0
M  END
>  <Ligand ID>  (1) 
LIG0001430

>  <Ligand>  (1) 
CHEMBL444219

>  <SMILES>  (1) 
NC(=NCCC[C@@H](C(=O)N[C@H](C(=O)N)Cc1c[nH]c2c1cccc2)NC(=O)[C@H](NC(=O)[C@H](Cc1[nH]cnc1)NC(=O)C)Cc1ccc(cc1)F)N

>  <CID>  (1) 
25108143.0

>  <ChEMBL ID>  (1) 
nan

>  <InChiKey>  (1) 
PWNJSQCLUARPLM-FKWFRFQNSA-N

>  <InChi>  (1) 
InChI=1S/C34H42FN11O5/c1-19(47)43-29(15-23-17-39-18-42-23)33(51)46-28(13-20-8-10-22(35)11-9-20)32(50)44-26(7-4-12-40-34(37)38)31(49)45-27(30(36)48)14-21-16-41-25-6-3-2-5-24(21)25/h2-3,5-6,8-11,16-18,26-29,41H,4,7,12-15H2,1H3,(H2,36,48)(H,39,42)(H,43,47)(H,44,50)(H,45,49)(H,46,51)(H4,37,38,40)/t26-,27-,28+,29-/m0/s1

>  <IUPAC Name>  (1) 
(2S)-2-[[(2R)-2-[[(2S)-2-acetamido-3-(1H-imidazol-5-yl)propanoyl]amino]-3-(4-fluorophenyl)propanoyl]amino]-N-[(2S)-1-amino-3-(1H-indol-3-yl)-1-oxopropan-2-yl]-5-(diaminomethylideneamino)pentanamide

$$$$
