
     RDKit          3D

 92 96  0  0  0  0  0  0  0  0999 V2000
    2.9173    5.9842   -1.4676 N   0  0  0  0  0  0  0  0  0  0  0  0
    1.7543    5.3271   -1.0062 C   0  0  0  0  0  0  0  0  0  0  0  0
    1.6804    4.0474   -0.8728 N   0  0  0  0  0  0  0  0  0  0  0  0
    2.8094    3.1792   -1.1937 C   0  0  0  0  0  0  0  0  0  0  0  0
    3.1286    2.3269    0.0259 C   0  0  0  0  0  0  0  0  0  0  0  0
    1.9442    1.4911    0.3971 C   0  0  0  0  0  0  0  0  0  0  0  0
    1.4539    0.5406   -0.6263 C   0  0  1  0  0  0  0  0  0  0  0  0
    2.4115   -0.4913   -1.0810 C   0  0  0  0  0  0  0  0  0  0  0  0
    2.5797   -1.3433    0.1155 C   0  0  1  0  0  0  0  0  0  0  0  0
    1.2639   -1.2499    0.8032 C   0  0  0  0  0  0  0  0  0  0  0  0
    0.4696   -0.3222    0.0421 N   0  0  0  0  0  0  0  0  0  0  0  0
   -0.9352   -0.1818   -0.0962 C   0  0  0  0  0  0  0  0  0  0  0  0
   -1.4120    0.7229   -0.8558 O   0  0  0  0  0  0  0  0  0  0  0  0
   -1.9222   -1.0356    0.5984 C   0  0  2  0  0  0  0  0  0  0  0  0
   -3.2861   -0.6965    0.1971 N   0  0  0  0  0  0  0  0  0  0  0  0
   -4.0717   -1.7452   -0.3470 C   0  0  0  0  0  0  0  0  0  0  0  0
   -3.6473   -2.9203   -0.4897 O   0  0  0  0  0  0  0  0  0  0  0  0
   -5.4694   -1.4399   -0.7696 C   0  0  2  0  0  0  0  0  0  0  0  0
   -6.3077   -0.9012    0.3402 C   0  0  0  0  0  0  0  0  0  0  0  0
   -7.7059   -0.5912   -0.0556 C   0  0  0  0  0  0  0  0  0  0  0  0
   -8.7651   -1.4358   -0.0047 N   0  0  0  0  0  0  0  0  0  0  0  0
   -9.8624   -0.7955   -0.4433 C   0  0  0  0  0  0  0  0  0  0  0  0
   -9.5261    0.4692   -0.7830 N   0  0  0  0  0  0  0  0  0  0  0  0
   -8.2002    0.6022   -0.5469 C   0  0  0  0  0  0  0  0  0  0  0  0
   -6.0533   -2.6824   -1.2393 N   0  0  0  0  0  0  0  0  0  0  0  0
   -6.5212   -2.8696   -2.5558 C   0  0  0  0  0  0  0  0  0  0  0  0
   -6.4880   -2.0099   -3.4483 O   0  0  0  0  0  0  0  0  0  0  0  0
   -7.0987   -4.2103   -2.8864 C   0  0  0  0  0  0  0  0  0  0  0  0
   -1.7929   -0.9820    2.1070 C   0  0  0  0  0  0  0  0  0  0  0  0
   -1.9755    0.3526    2.6831 C   0  0  0  0  0  0  0  0  0  0  0  0
   -3.2470    0.7938    3.0753 C   0  0  0  0  0  0  0  0  0  0  0  0
   -3.4305    2.0539    3.6210 C   0  0  0  0  0  0  0  0  0  0  0  0
   -2.3889    2.9232    3.8023 C   0  0  0  0  0  0  0  0  0  0  0  0
   -1.1270    2.5010    3.4194 C   0  0  0  0  0  0  0  0  0  0  0  0
   -0.9347    1.2389    2.8716 C   0  0  0  0  0  0  0  0  0  0  0  0
    3.0490   -2.5952   -0.1133 O   0  0  0  0  0  0  0  0  0  0  0  0
    4.1640   -3.0541    0.4763 C   0  0  0  0  0  0  0  0  0  0  0  0
    5.4032   -2.2755    0.2367 C   0  0  0  0  0  0  0  0  0  0  0  0
    5.8156   -1.3264    1.1639 C   0  0  0  0  0  0  0  0  0  0  0  0
    6.9519   -0.5639    0.9976 C   0  0  0  0  0  0  0  0  0  0  0  0
    7.7247   -0.7374   -0.1310 C   0  0  0  0  0  0  0  0  0  0  0  0
    7.3301   -1.6739   -1.0592 C   0  0  0  0  0  0  0  0  0  0  0  0
    6.1842   -2.4502   -0.9027 C   0  0  0  0  0  0  0  0  0  0  0  0
    8.1207   -1.8291   -2.1827 C   0  0  0  0  0  0  0  0  0  0  0  0
    9.2682   -1.0782   -2.3798 C   0  0  0  0  0  0  0  0  0  0  0  0
    9.6047   -0.1586   -1.4094 C   0  0  0  0  0  0  0  0  0  0  0  0
    8.8615    0.0415   -0.2742 C   0  0  0  0  0  0  0  0  0  0  0  0
    0.6014    6.0793   -0.6675 N   0  0  0  0  0  0  0  0  0  0  0  0
    3.6890    6.1813   -0.7700 H   0  0  0  0  0  0  0  0  0  0  0  0
    3.0821    6.2918   -2.4396 H   0  0  0  0  0  0  0  0  0  0  0  0
    2.4835    2.5170   -2.0158 H   0  0  0  0  0  0  0  0  0  0  0  0
    3.6993    3.7938   -1.4400 H   0  0  0  0  0  0  0  0  0  0  0  0
    4.0569    1.7838   -0.1155 H   0  0  0  0  0  0  0  0  0  0  0  0
    3.2824    3.0511    0.8511 H   0  0  0  0  0  0  0  0  0  0  0  0
    2.1534    0.9744    1.3713 H   0  0  0  0  0  0  0  0  0  0  0  0
    1.1121    2.1990    0.6105 H   0  0  0  0  0  0  0  0  0  0  0  0
    0.9679    1.0594   -1.4808 H   0  0  0  0  0  0  0  0  0  0  0  0
    1.8708   -1.1112   -1.8480 H   0  0  0  0  0  0  0  0  0  0  0  0
    3.3308   -0.1306   -1.5534 H   0  0  0  0  0  0  0  0  0  0  0  0
    3.3175   -0.8492    0.8096 H   0  0  0  0  0  0  0  0  0  0  0  0
    0.7023   -2.2104    0.8110 H   0  0  0  0  0  0  0  0  0  0  0  0
    1.3472   -0.9532    1.8738 H   0  0  0  0  0  0  0  0  0  0  0  0
   -1.7282   -2.0837    0.3172 H   0  0  0  0  0  0  0  0  0  0  0  0
   -3.6314    0.2874    0.3209 H   0  0  0  0  0  0  0  0  0  0  0  0
   -5.4979   -0.7405   -1.6373 H   0  0  0  0  0  0  0  0  0  0  0  0
   -6.3828   -1.7138    1.1156 H   0  0  0  0  0  0  0  0  0  0  0  0
   -5.8245   -0.0245    0.8273 H   0  0  0  0  0  0  0  0  0  0  0  0
   -8.6536   -2.4150    0.3361 H   0  0  0  0  0  0  0  0  0  0  0  0
  -10.8438   -1.2732   -0.4947 H   0  0  0  0  0  0  0  0  0  0  0  0
   -7.5695    1.4735   -0.6963 H   0  0  0  0  0  0  0  0  0  0  0  0
   -6.1184   -3.4619   -0.5465 H   0  0  0  0  0  0  0  0  0  0  0  0
   -6.3624   -4.9722   -2.5777 H   0  0  0  0  0  0  0  0  0  0  0  0
   -7.3691   -4.2777   -3.9464 H   0  0  0  0  0  0  0  0  0  0  0  0
   -8.0138   -4.3933   -2.2845 H   0  0  0  0  0  0  0  0  0  0  0  0
   -2.6623   -1.6051    2.4819 H   0  0  0  0  0  0  0  0  0  0  0  0
   -0.9069   -1.5304    2.4085 H   0  0  0  0  0  0  0  0  0  0  0  0
   -4.0783    0.1108    2.9344 H   0  0  0  0  0  0  0  0  0  0  0  0
   -4.4671    2.3072    3.8979 H   0  0  0  0  0  0  0  0  0  0  0  0
   -2.5612    3.8979    4.2284 H   0  0  0  0  0  0  0  0  0  0  0  0
   -0.3139    3.1964    3.5676 H   0  0  0  0  0  0  0  0  0  0  0  0
    0.0688    0.9719    2.5944 H   0  0  0  0  0  0  0  0  0  0  0  0
    4.0542   -3.3280    1.5523 H   0  0  0  0  0  0  0  0  0  0  0  0
    4.3763   -4.0619   -0.0023 H   0  0  0  0  0  0  0  0  0  0  0  0
    5.2592   -1.1375    2.0903 H   0  0  0  0  0  0  0  0  0  0  0  0
    7.2682    0.1845    1.7410 H   0  0  0  0  0  0  0  0  0  0  0  0
    5.8789   -3.1876   -1.6396 H   0  0  0  0  0  0  0  0  0  0  0  0
    7.8210   -2.5680   -2.9320 H   0  0  0  0  0  0  0  0  0  0  0  0
    9.8768   -1.2072   -3.2594 H   0  0  0  0  0  0  0  0  0  0  0  0
   10.4954    0.4369   -1.5431 H   0  0  0  0  0  0  0  0  0  0  0  0
    9.1475    0.7751    0.4826 H   0  0  0  0  0  0  0  0  0  0  0  0
    0.6727    7.0094   -0.2015 H   0  0  0  0  0  0  0  0  0  0  0  0
   -0.3519    5.7052   -0.8838 H   0  0  0  0  0  0  0  0  0  0  0  0
  1  2  1  0
  2  3  2  3
  3  4  1  0
  4  5  1  0
  5  6  1  0
  6  7  1  0
  7  8  1  0
  8  9  1  0
  9 10  1  0
 10 11  1  0
 11 12  1  0
 12 13  2  0
 12 14  1  0
 14 15  1  0
 15 16  1  0
 16 17  2  0
 16 18  1  0
 18 19  1  0
 19 20  1  0
 20 21  1  0
 21 22  1  0
 22 23  2  0
 23 24  1  0
 18 25  1  0
 25 26  1  0
 26 27  2  0
 26 28  1  0
 14 29  1  0
 29 30  1  0
 30 31  2  0
 31 32  1  0
 32 33  2  0
 33 34  1  0
 34 35  2  0
  9 36  1  0
 36 37  1  0
 37 38  1  0
 38 39  2  0
 39 40  1  0
 40 41  2  0
 41 42  1  0
 42 43  2  0
 42 44  1  0
 44 45  2  0
 45 46  1  0
 46 47  2  0
  2 48  1  0
 11  7  1  0
 24 20  2  0
 35 30  1  0
 43 38  1  0
 47 41  1  0
  1 49  1  0
  1 50  1  0
  4 51  1  0
  4 52  1  0
  5 53  1  0
  5 54  1  0
  6 55  1  0
  6 56  1  0
  7 57  1  6
  8 58  1  0
  8 59  1  0
  9 60  1  1
 10 61  1  0
 10 62  1  0
 14 63  1  6
 15 64  1  0
 18 65  1  6
 19 66  1  0
 19 67  1  0
 21 68  1  0
 22 69  1  0
 24 70  1  0
 25 71  1  0
 28 72  1  0
 28 73  1  0
 28 74  1  0
 29 75  1  0
 29 76  1  0
 31 77  1  0
 32 78  1  0
 33 79  1  0
 34 80  1  0
 35 81  1  0
 37 82  1  0
 37 83  1  0
 39 84  1  0
 40 85  1  0
 43 86  1  0
 44 87  1  0
 45 88  1  0
 46 89  1  0
 47 90  1  0
 48 91  1  0
 48 92  1  0
M  END
>  <Ligand ID>  (1) 
LIG0003308

>  <Ligand>  (1) 
CHEMBL377465

>  <SMILES>  (1) 
NC(=NCCC[C@H]1C[C@@H](CN1C(=O)[C@H](NC(=O)[C@H](Cc1[nH]cnc1)NC(=O)C)Cc1ccccc1)OCc1ccc2c(c1)cccc2)N

>  <CID>  (1) 
11845450.0

>  <ChEMBL ID>  (1) 
nan

>  <InChiKey>  (1) 
NSMUITYTUDRYSP-ZWDYZTTJSA-N

>  <InChi>  (1) 
InChI=1S/C36H44N8O4/c1-24(45)42-32(18-29-20-39-23-41-29)34(46)43-33(17-25-8-3-2-4-9-25)35(47)44-21-31(19-30(44)12-7-15-40-36(37)38)48-22-26-13-14-27-10-5-6-11-28(27)16-26/h2-6,8-11,13-14,16,20,23,30-33H,7,12,15,17-19,21-22H2,1H3,(H,39,41)(H,42,45)(H,43,46)(H4,37,38,40)/t30-,31-,32-,33+/m0/s1

>  <IUPAC Name>  (1) 
(2S)-2-acetamido-N-[(2R)-1-[(2S,4S)-2-[3-(diaminomethylideneamino)propyl]-4-(naphthalen-2-ylmethoxy)pyrrolidin-1-yl]-1-oxo-3-phenylpropan-2-yl]-3-(1H-imidazol-5-yl)propanamide

$$$$
