
     RDKit          3D

 20 21  0  0  0  0  0  0  0  0999 V2000
   -4.6281    0.4312   -0.1743 N   0  0  0  0  0  0  0  0  0  0  0  0
   -3.2126    0.1696   -0.0366 C   0  0  0  0  0  0  0  0  0  0  0  0
   -2.3885   -0.1873    0.7006 N   0  0  0  0  0  0  0  0  0  0  0  0
   -1.0992   -0.3452    0.5678 C   0  0  0  0  0  0  0  0  0  0  0  0
   -0.6201   -0.0275   -0.6905 C   0  0  0  0  0  0  0  0  0  0  0  0
   -2.1381    0.4889   -1.5957 S   0  0  0  0  0  0  0  0  0  0  0  0
    0.6847   -0.0994   -1.1071 C   0  0  0  0  0  0  0  0  0  0  0  0
    1.6296   -0.5318   -0.1873 C   0  0  0  0  0  0  0  0  0  0  0  0
    1.1639   -0.8500    1.0658 C   0  0  0  0  0  0  0  0  0  0  0  0
   -0.1248   -0.7790    1.4775 C   0  0  0  0  0  0  0  0  0  0  0  0
    2.9584   -0.6181   -0.5697 O   0  0  0  0  0  0  0  0  0  0  0  0
    3.7555    0.5536   -0.3681 C   0  0  0  0  0  0  0  0  0  0  0  0
    3.1691    1.5570   -1.1119 F   0  0  0  0  0  0  0  0  0  0  0  0
    5.0749    0.3553   -0.6547 F   0  0  0  0  0  0  0  0  0  0  0  0
    3.5845    0.9500    0.9649 F   0  0  0  0  0  0  0  0  0  0  0  0
   -5.2829   -0.3649   -0.1106 H   0  0  0  0  0  0  0  0  0  0  0  0
   -5.0110    1.3695   -0.3321 H   0  0  0  0  0  0  0  0  0  0  0  0
    0.9352    0.1750   -2.1127 H   0  0  0  0  0  0  0  0  0  0  0  0
    1.9200   -1.1907    1.7848 H   0  0  0  0  0  0  0  0  0  0  0  0
   -0.3706   -1.0562    2.4897 H   0  0  0  0  0  0  0  0  0  0  0  0
  1  2  1  0
  2  3  2  0
  3  4  1  0
  4  5  2  0
  5  6  1  0
  5  7  1  0
  7  8  2  0
  8  9  1  0
  9 10  2  0
  8 11  1  0
 11 12  1  0
 12 13  1  0
 12 14  1  0
 12 15  1  0
  6  2  1  0
 10  4  1  0
  1 16  1  0
  1 17  1  0
  7 18  1  0
  9 19  1  0
 10 20  1  0
M  END
>  <Ligand ID>  (1) 
LIG0002795

>  <Ligand>  (1) 
riluzole

>  <SMILES>  (1) 
Nc1nc2c(s1)cc(cc2)OC(F)(F)F

>  <CID>  (1) 
5070.0

>  <ChEMBL ID>  (1) 
nan

>  <InChiKey>  (1) 
FTALBRSUTCGOEG-UHFFFAOYSA-N

>  <InChi>  (1) 
InChI=1S/C8H5F3N2OS/c9-8(10,11)14-4-1-2-5-6(3-4)15-7(12)13-5/h1-3H,(H2,12,13)

>  <IUPAC Name>  (1) 
6-(trifluoromethoxy)-1,3-benzothiazol-2-amine

$$$$
