
     RDKit          3D

 63 65  0  0  0  0  0  0  0  0999 V2000
   -0.8339    2.0958    1.7307 C   0  0  0  0  0  0  0  0  0  0  0  0
   -1.3465    0.9068    0.9876 C   0  0  0  0  0  0  0  0  0  0  0  0
   -0.4518    0.2777    0.1496 C   0  0  0  0  0  0  0  0  0  0  0  0
    0.8426    0.7395    0.0141 O   0  0  0  0  0  0  0  0  0  0  0  0
    1.8026    0.1266   -0.8358 C   0  0  0  0  0  0  0  0  0  0  0  0
    3.0889    0.8986   -0.7228 C   0  0  0  0  0  0  0  0  0  0  0  0
    3.6366    0.9365    0.6953 C   0  0  0  0  0  0  0  0  0  0  0  0
    3.9034   -0.4690    1.1554 C   0  0  0  0  0  0  0  0  0  0  0  0
    4.8003   -1.1071    0.3544 O   0  0  0  0  0  0  0  0  0  0  0  0
    6.1043   -0.8983    0.0602 C   0  0  0  0  0  0  0  0  0  0  0  0
    6.9354    0.0697    0.5414 C   0  0  0  0  0  0  0  0  0  0  0  0
    8.2773    0.1853    0.1547 C   0  0  0  0  0  0  0  0  0  0  0  0
    8.8191   -0.7001   -0.7498 C   0  0  0  0  0  0  0  0  0  0  0  0
    7.9978   -1.6866   -1.2484 C   0  0  0  0  0  0  0  0  0  0  0  0
    6.6828   -1.7916   -0.8632 C   0  0  0  0  0  0  0  0  0  0  0  0
    8.6327   -2.8419   -2.4016 Cl  0  0  0  0  0  0  0  0  0  0  0  0
   10.1959   -0.6422   -1.1941 C   0  0  0  0  0  0  0  0  0  0  0  0
   10.5973   -1.4876   -2.0105 O   0  0  0  0  0  0  0  0  0  0  0  0
   11.0253    0.3708   -0.6826 O   0  0  0  0  0  0  0  0  0  0  0  0
   -0.8994   -0.8150   -0.5358 C   0  0  0  0  0  0  0  0  0  0  0  0
   -2.1887   -1.2539   -0.3837 C   0  0  0  0  0  0  0  0  0  0  0  0
   -3.1269   -0.6370    0.4619 C   0  0  0  0  0  0  0  0  0  0  0  0
   -2.6596    0.4575    1.1402 C   0  0  0  0  0  0  0  0  0  0  0  0
   -3.5127    1.2300    2.0599 C   0  0  0  0  0  0  0  0  0  0  0  0
   -4.4341   -1.2180    0.5329 C   0  0  0  0  0  0  0  0  0  0  0  0
   -4.6061   -2.2574   -0.2341 O   0  0  0  0  0  0  0  0  0  0  0  0
   -5.6309   -0.8977    1.2877 C   0  0  0  0  0  0  0  0  0  0  0  0
   -6.7910   -0.3449    0.5432 C   0  0  0  0  0  0  0  0  0  0  0  0
   -7.3626   -1.2362   -0.5337 C   0  0  0  0  0  0  0  0  0  0  0  0
   -8.2114   -0.2786   -1.3910 C   0  0  0  0  0  0  0  0  0  0  0  0
   -7.6151    1.0711   -1.1921 C   0  0  0  0  0  0  0  0  0  0  0  0
   -6.6337    1.0023   -0.0676 C   0  0  0  0  0  0  0  0  0  0  0  0
    0.2801    2.1793    1.5959 H   0  0  0  0  0  0  0  0  0  0  0  0
   -1.3522    2.9997    1.3826 H   0  0  0  0  0  0  0  0  0  0  0  0
   -1.0303    1.9999    2.8305 H   0  0  0  0  0  0  0  0  0  0  0  0
    1.9105   -0.9533   -0.6477 H   0  0  0  0  0  0  0  0  0  0  0  0
    1.4074    0.1846   -1.8966 H   0  0  0  0  0  0  0  0  0  0  0  0
    2.9716    1.9365   -1.0919 H   0  0  0  0  0  0  0  0  0  0  0  0
    3.8280    0.4282   -1.4164 H   0  0  0  0  0  0  0  0  0  0  0  0
    2.8942    1.4214    1.3816 H   0  0  0  0  0  0  0  0  0  0  0  0
    4.5383    1.5590    0.7159 H   0  0  0  0  0  0  0  0  0  0  0  0
    2.9166   -1.0208    1.0751 H   0  0  0  0  0  0  0  0  0  0  0  0
    4.2024   -0.4714    2.2462 H   0  0  0  0  0  0  0  0  0  0  0  0
    6.6019    0.7829    1.2562 H   0  0  0  0  0  0  0  0  0  0  0  0
    8.9034    0.9843    0.5725 H   0  0  0  0  0  0  0  0  0  0  0  0
    6.0783   -2.5999   -1.2963 H   0  0  0  0  0  0  0  0  0  0  0  0
   11.8755    0.6037   -1.1881 H   0  0  0  0  0  0  0  0  0  0  0  0
   -0.2074   -1.3137   -1.1938 H   0  0  0  0  0  0  0  0  0  0  0  0
   -2.4524   -2.1372   -0.9756 H   0  0  0  0  0  0  0  0  0  0  0  0
   -4.4437    1.5588    1.5946 H   0  0  0  0  0  0  0  0  0  0  0  0
   -3.6830    0.7558    3.0355 H   0  0  0  0  0  0  0  0  0  0  0  0
   -2.9588    2.2071    2.3094 H   0  0  0  0  0  0  0  0  0  0  0  0
   -5.4339   -0.3142    2.1758 H   0  0  0  0  0  0  0  0  0  0  0  0
   -6.0577   -1.8814    1.7474 H   0  0  0  0  0  0  0  0  0  0  0  0
   -7.6210   -0.2470    1.3061 H   0  0  0  0  0  0  0  0  0  0  0  0
   -6.6396   -1.7600   -1.1494 H   0  0  0  0  0  0  0  0  0  0  0  0
   -8.0794   -1.9827   -0.1314 H   0  0  0  0  0  0  0  0  0  0  0  0
   -9.2808   -0.3227   -1.0965 H   0  0  0  0  0  0  0  0  0  0  0  0
   -8.1647   -0.6043   -2.4468 H   0  0  0  0  0  0  0  0  0  0  0  0
   -7.1561    1.3891   -2.1511 H   0  0  0  0  0  0  0  0  0  0  0  0
   -8.4183    1.8130   -0.9972 H   0  0  0  0  0  0  0  0  0  0  0  0
   -5.6038    1.1501   -0.4620 H   0  0  0  0  0  0  0  0  0  0  0  0
   -6.8630    1.8499    0.6359 H   0  0  0  0  0  0  0  0  0  0  0  0
  1  2  1  0
  2  3  2  0
  3  4  1  0
  4  5  1  0
  5  6  1  0
  6  7  1  0
  7  8  1  0
  8  9  1  0
  9 10  1  0
 10 11  2  0
 11 12  1  0
 12 13  2  0
 13 14  1  0
 14 15  2  0
 14 16  1  0
 13 17  1  0
 17 18  2  0
 17 19  1  0
  3 20  1  0
 20 21  2  0
 21 22  1  0
 22 23  2  0
 23 24  1  0
 22 25  1  0
 25 26  2  0
 25 27  1  0
 27 28  1  0
 28 29  1  0
 29 30  1  0
 30 31  1  0
 31 32  1  0
 23  2  1  0
 32 28  1  0
 15 10  1  0
  1 33  1  0
  1 34  1  0
  1 35  1  0
  5 36  1  0
  5 37  1  0
  6 38  1  0
  6 39  1  0
  7 40  1  0
  7 41  1  0
  8 42  1  0
  8 43  1  0
 11 44  1  0
 12 45  1  0
 15 46  1  0
 19 47  1  0
 20 48  1  0
 21 49  1  0
 24 50  1  0
 24 51  1  0
 24 52  1  0
 27 53  1  0
 27 54  1  0
 28 55  1  0
 29 56  1  0
 29 57  1  0
 30 58  1  0
 30 59  1  0
 31 60  1  0
 31 61  1  0
 32 62  1  0
 32 63  1  0
M  END
>  <Ligand ID>  (1) 
LIG0003633

>  <Ligand>  (1) 
CHEMBL3287682

>  <SMILES>  (1) 
Cc1c(OCCCCOc2ccc(c(c2)Cl)C(=O)O)ccc(c1C)C(=O)CC1CCCC1

>  <CID>  (1) 
90643862.0

>  <ChEMBL ID>  (1) 
nan

>  <InChiKey>  (1) 
AZZBYVJNGSNGGS-UHFFFAOYSA-N

>  <InChi>  (1) 
InChI=1S/C26H31ClO5/c1-17-18(2)25(12-11-21(17)24(28)15-19-7-3-4-8-19)32-14-6-5-13-31-20-9-10-22(26(29)30)23(27)16-20/h9-12,16,19H,3-8,13-15H2,1-2H3,(H,29,30)

>  <IUPAC Name>  (1) 
2-chloro-4-[4-[4-(2-cyclopentylacetyl)-2,3-dimethylphenoxy]butoxy]benzoic acid

$$$$
