
     RDKit          3D

140141  0  0  0  0  0  0  0  0999 V2000
    2.1538   -4.0959    4.3746 C   0  0  0  0  0  0  0  0  0  0  0  0
    2.3589   -2.6372    4.6340 C   0  0  0  0  0  0  0  0  0  0  0  0
    3.7323   -2.1380    4.4101 C   0  0  0  0  0  0  0  0  0  0  0  0
    4.3260   -2.1835    3.0660 C   0  0  0  0  0  0  0  0  0  0  0  0
    3.6491   -1.3624    2.0460 N   0  0  0  0  0  0  0  0  0  0  0  0
    2.6868   -1.9620    1.2408 C   0  0  0  0  0  0  0  0  0  0  0  0
    2.5134   -3.2378    1.4579 O   0  0  0  0  0  0  0  0  0  0  0  0
    1.8244   -1.4354    0.1866 C   0  0  2  0  0  0  0  0  0  0  0  0
    0.8092   -0.3731    0.6969 C   0  0  0  0  0  0  0  0  0  0  0  0
   -0.1093   -0.0590   -0.4939 C   0  0  0  0  0  0  0  0  0  0  0  0
    0.7919    0.8241   -1.7335 S   0  0  0  0  0  0  0  0  0  0  0  0
    1.1494    2.5410   -1.3052 C   0  0  0  0  0  0  0  0  0  0  0  0
   -0.1300    3.3344   -1.2777 C   0  0  0  0  0  0  0  0  0  0  0  0
   -0.9053    3.0126   -0.0666 C   0  0  0  0  0  0  0  0  0  0  0  0
   -0.4322    2.6218    1.0166 O   0  0  0  0  0  0  0  0  0  0  0  0
   -2.3577    3.1241   -0.0292 N   0  0  0  0  0  0  0  0  0  0  0  0
   -3.1289    2.8305    1.1554 C   0  0  1  0  0  0  0  0  0  0  0  0
   -3.8648    4.0526    1.6614 C   0  0  0  0  0  0  0  0  0  0  0  0
   -4.8127    4.6228    0.7014 C   0  0  0  0  0  0  0  0  0  0  0  0
   -6.1435    4.2123    0.7298 C   0  0  0  0  0  0  0  0  0  0  0  0
   -7.0781    4.7044   -0.1540 C   0  0  0  0  0  0  0  0  0  0  0  0
   -6.7345    5.6370   -1.1181 C   0  0  0  0  0  0  0  0  0  0  0  0
   -5.4335    6.0492   -1.1578 C   0  0  0  0  0  0  0  0  0  0  0  0
   -4.4928    5.5525   -0.2669 C   0  0  0  0  0  0  0  0  0  0  0  0
   -7.7315    6.0841   -1.9708 O   0  0  0  0  0  0  0  0  0  0  0  0
   -4.0487    1.6704    1.0101 C   0  0  0  0  0  0  0  0  0  0  0  0
   -4.7934    1.3317    1.9418 O   0  0  0  0  0  0  0  0  0  0  0  0
   -4.1433    0.8837   -0.1635 N   0  0  0  0  0  0  0  0  0  0  0  0
   -5.0723   -0.2828   -0.2985 C   0  0  2  0  0  0  0  0  0  0  0  0
   -4.2132   -1.4638   -0.0874 C   0  0  0  0  0  0  0  0  0  0  0  0
   -3.0404   -1.1864    0.3440 O   0  0  0  0  0  0  0  0  0  0  0  0
   -4.4348   -2.8329   -0.2748 N   0  0  0  0  0  0  0  0  0  0  0  0
   -3.2764   -3.7052    0.0822 C   0  0  2  0  0  0  0  0  0  0  0  0
   -2.3391   -3.6732   -1.1219 C   0  0  0  0  0  0  0  0  0  0  0  0
   -2.7941   -3.2728   -2.1749 O   0  0  0  0  0  0  0  0  0  0  0  0
   -0.9985   -4.0753   -1.0383 N   0  0  0  0  0  0  0  0  0  0  0  0
    0.0144   -4.0220   -2.0787 C   0  0  2  0  0  0  0  0  0  0  0  0
    1.0997   -3.0941   -1.6537 C   0  0  0  0  0  0  0  0  0  0  0  0
    2.1049   -2.7830   -2.2886 O   0  0  0  0  0  0  0  0  0  0  0  0
    0.9697   -2.5026   -0.3788 N   0  0  0  0  0  0  0  0  0  0  0  0
   -0.5715   -3.5410   -3.4139 C   0  0  0  0  0  0  0  0  0  0  0  0
    0.4282   -3.5117   -4.5128 C   0  0  0  0  0  0  0  0  0  0  0  0
    1.5881   -3.9669   -4.4467 O   0  0  0  0  0  0  0  0  0  0  0  0
    0.0134   -2.9110   -5.7348 N   0  0  0  0  0  0  0  0  0  0  0  0
   -3.8008   -5.0746    0.2945 C   0  0  0  0  0  0  0  0  0  0  0  0
   -4.8251   -5.1552    1.4010 C   0  0  0  0  0  0  0  0  0  0  0  0
   -5.2735   -6.5773    1.5106 C   0  0  0  0  0  0  0  0  0  0  0  0
   -4.8205   -7.4736    0.7510 O   0  0  0  0  0  0  0  0  0  0  0  0
   -6.2400   -6.8738    2.5170 N   0  0  0  0  0  0  0  0  0  0  0  0
   -5.8021   -0.2042   -1.5857 C   0  0  2  0  0  0  0  0  0  0  0  0
   -6.5673    1.1257   -1.5685 C   0  0  0  0  0  0  0  0  0  0  0  0
   -7.5466    1.2108   -0.4430 C   0  0  0  0  0  0  0  0  0  0  0  0
   -6.8675   -1.2777   -1.6298 C   0  0  0  0  0  0  0  0  0  0  0  0
    4.0942    0.0144    2.0058 C   0  0  0  0  0  0  0  0  0  0  0  0
    5.2490    0.2281    1.0782 C   0  0  0  0  0  0  0  0  0  0  0  0
    5.7592   -0.7089    0.4216 O   0  0  0  0  0  0  0  0  0  0  0  0
    5.7270    1.5871    0.9973 N   0  0  0  0  0  0  0  0  0  0  0  0
    6.8257    1.9880    0.1630 C   0  0  2  0  0  0  0  0  0  0  0  0
    6.4482    2.4060   -1.1896 C   0  0  0  0  0  0  0  0  0  0  0  0
    5.2052    2.3778   -1.4924 O   0  0  0  0  0  0  0  0  0  0  0  0
    7.4320    2.8247   -2.1213 N   0  0  0  0  0  0  0  0  0  0  0  0
    6.9988    3.2301   -3.4556 C   0  0  0  0  0  0  0  0  0  0  0  0
    6.0619    4.3880   -3.3749 C   0  0  0  0  0  0  0  0  0  0  0  0
    5.7845    4.8388   -2.2340 O   0  0  0  0  0  0  0  0  0  0  0  0
    5.5396    4.9116   -4.5827 N   0  0  0  0  0  0  0  0  0  0  0  0
    8.0404    1.0929    0.2254 C   0  0  0  0  0  0  0  0  0  0  0  0
    8.6917    1.0228    1.5637 C   0  0  0  0  0  0  0  0  0  0  0  0
    7.8809    0.5249    2.7038 C   0  0  0  0  0  0  0  0  0  0  0  0
    9.3432    2.3749    1.9181 C   0  0  0  0  0  0  0  0  0  0  0  0
    1.9115   -4.6509    5.3027 H   0  0  0  0  0  0  0  0  0  0  0  0
    1.2625   -4.2070    3.7109 H   0  0  0  0  0  0  0  0  0  0  0  0
    2.9833   -4.5743    3.8092 H   0  0  0  0  0  0  0  0  0  0  0  0
    2.1276   -2.4714    5.7294 H   0  0  0  0  0  0  0  0  0  0  0  0
    1.5730   -2.0338    4.1160 H   0  0  0  0  0  0  0  0  0  0  0  0
    3.7761   -1.0657    4.7550 H   0  0  0  0  0  0  0  0  0  0  0  0
    4.4002   -2.7040    5.1144 H   0  0  0  0  0  0  0  0  0  0  0  0
    4.4362   -3.2270    2.6567 H   0  0  0  0  0  0  0  0  0  0  0  0
    5.3656   -1.8098    3.1247 H   0  0  0  0  0  0  0  0  0  0  0  0
    2.4462   -0.9392   -0.5519 H   0  0  0  0  0  0  0  0  0  0  0  0
    1.3135    0.5674    0.9087 H   0  0  0  0  0  0  0  0  0  0  0  0
    0.2475   -0.7119    1.5536 H   0  0  0  0  0  0  0  0  0  0  0  0
   -0.9952    0.4287   -0.1113 H   0  0  0  0  0  0  0  0  0  0  0  0
   -0.4147   -1.0838   -0.8587 H   0  0  0  0  0  0  0  0  0  0  0  0
    1.7952    3.0327   -2.0719 H   0  0  0  0  0  0  0  0  0  0  0  0
    1.6506    2.5985   -0.3113 H   0  0  0  0  0  0  0  0  0  0  0  0
   -0.6982    3.1199   -2.2115 H   0  0  0  0  0  0  0  0  0  0  0  0
    0.1058    4.4368   -1.2141 H   0  0  0  0  0  0  0  0  0  0  0  0
   -2.7608    3.4253   -0.9122 H   0  0  0  0  0  0  0  0  0  0  0  0
   -2.4544    2.5351    2.0135 H   0  0  0  0  0  0  0  0  0  0  0  0
   -4.4298    3.7565    2.5686 H   0  0  0  0  0  0  0  0  0  0  0  0
   -3.1468    4.8288    1.9802 H   0  0  0  0  0  0  0  0  0  0  0  0
   -6.4171    3.4909    1.4809 H   0  0  0  0  0  0  0  0  0  0  0  0
   -8.1100    4.3625   -0.1047 H   0  0  0  0  0  0  0  0  0  0  0  0
   -5.1524    6.7748   -1.9022 H   0  0  0  0  0  0  0  0  0  0  0  0
   -3.4864    5.8939   -0.3250 H   0  0  0  0  0  0  0  0  0  0  0  0
   -7.5095    6.8031   -2.6452 H   0  0  0  0  0  0  0  0  0  0  0  0
   -3.5302    1.1604   -0.9316 H   0  0  0  0  0  0  0  0  0  0  0  0
   -5.7919   -0.2795    0.5416 H   0  0  0  0  0  0  0  0  0  0  0  0
   -5.3049   -3.1730   -0.6164 H   0  0  0  0  0  0  0  0  0  0  0  0
   -2.7562   -3.2620    0.9324 H   0  0  0  0  0  0  0  0  0  0  0  0
   -0.7122   -4.4757   -0.1321 H   0  0  0  0  0  0  0  0  0  0  0  0
    0.3739   -5.0104   -2.2832 H   0  0  0  0  0  0  0  0  0  0  0  0
    0.2259   -2.8253    0.2287 H   0  0  0  0  0  0  0  0  0  0  0  0
   -0.9553   -2.5184   -3.2224 H   0  0  0  0  0  0  0  0  0  0  0  0
   -1.4433   -4.1657   -3.7014 H   0  0  0  0  0  0  0  0  0  0  0  0
    0.2033   -1.8891   -5.8282 H   0  0  0  0  0  0  0  0  0  0  0  0
   -0.4520   -3.4813   -6.4778 H   0  0  0  0  0  0  0  0  0  0  0  0
   -3.0143   -5.8198    0.5242 H   0  0  0  0  0  0  0  0  0  0  0  0
   -4.3173   -5.4641   -0.6223 H   0  0  0  0  0  0  0  0  0  0  0  0
   -4.3907   -4.7831    2.3497 H   0  0  0  0  0  0  0  0  0  0  0  0
   -5.7333   -4.5771    1.1535 H   0  0  0  0  0  0  0  0  0  0  0  0
   -7.1907   -6.4534    2.5223 H   0  0  0  0  0  0  0  0  0  0  0  0
   -5.9050   -7.5564    3.2600 H   0  0  0  0  0  0  0  0  0  0  0  0
   -5.1869   -0.2472   -2.4815 H   0  0  0  0  0  0  0  0  0  0  0  0
   -7.1318    1.1615   -2.5214 H   0  0  0  0  0  0  0  0  0  0  0  0
   -5.8936    1.9889   -1.5317 H   0  0  0  0  0  0  0  0  0  0  0  0
   -8.2578    2.0444   -0.7146 H   0  0  0  0  0  0  0  0  0  0  0  0
   -7.1387    1.4299    0.5414 H   0  0  0  0  0  0  0  0  0  0  0  0
   -8.1736    0.3011   -0.3370 H   0  0  0  0  0  0  0  0  0  0  0  0
   -7.0540   -1.6242   -0.5977 H   0  0  0  0  0  0  0  0  0  0  0  0
   -6.5720   -2.1353   -2.2469 H   0  0  0  0  0  0  0  0  0  0  0  0
   -7.8444   -0.8466   -1.9768 H   0  0  0  0  0  0  0  0  0  0  0  0
    3.3458    0.7535    1.7179 H   0  0  0  0  0  0  0  0  0  0  0  0
    4.4851    0.3386    3.0070 H   0  0  0  0  0  0  0  0  0  0  0  0
    5.2306    2.3227    1.5902 H   0  0  0  0  0  0  0  0  0  0  0  0
    7.2345    2.9436    0.6785 H   0  0  0  0  0  0  0  0  0  0  0  0
    8.4542    2.8615   -1.9127 H   0  0  0  0  0  0  0  0  0  0  0  0
    6.4237    2.3716   -3.8580 H   0  0  0  0  0  0  0  0  0  0  0  0
    7.8380    3.4431   -4.1256 H   0  0  0  0  0  0  0  0  0  0  0  0
    4.7038    4.4277   -5.0177 H   0  0  0  0  0  0  0  0  0  0  0  0
    5.9682    5.7518   -5.0298 H   0  0  0  0  0  0  0  0  0  0  0  0
    7.8572    0.0577   -0.1261 H   0  0  0  0  0  0  0  0  0  0  0  0
    8.8399    1.4736   -0.4800 H   0  0  0  0  0  0  0  0  0  0  0  0
    9.5614    0.3038    1.4646 H   0  0  0  0  0  0  0  0  0  0  0  0
    7.0750    1.2308    2.9864 H   0  0  0  0  0  0  0  0  0  0  0  0
    7.5235   -0.5024    2.5818 H   0  0  0  0  0  0  0  0  0  0  0  0
    8.5213    0.4733    3.6513 H   0  0  0  0  0  0  0  0  0  0  0  0
    9.8615    2.7803    1.0322 H   0  0  0  0  0  0  0  0  0  0  0  0
    8.6182    3.0860    2.3138 H   0  0  0  0  0  0  0  0  0  0  0  0
   10.1146    2.2269    2.7025 H   0  0  0  0  0  0  0  0  0  0  0  0
  1  2  1  0
  2  3  1  0
  3  4  1  0
  4  5  1  0
  5  6  1  0
  6  7  2  0
  6  8  1  0
  8  9  1  0
  9 10  1  0
 10 11  1  0
 11 12  1  0
 12 13  1  0
 13 14  1  0
 14 15  2  0
 14 16  1  0
 16 17  1  0
 17 18  1  0
 18 19  1  0
 19 20  2  0
 20 21  1  0
 21 22  2  0
 22 23  1  0
 23 24  2  0
 22 25  1  0
 17 26  1  0
 26 27  2  0
 26 28  1  0
 28 29  1  0
 29 30  1  0
 30 31  2  0
 30 32  1  0
 32 33  1  0
 33 34  1  0
 34 35  2  0
 34 36  1  0
 36 37  1  0
 37 38  1  0
 38 39  2  0
 38 40  1  0
 37 41  1  0
 41 42  1  0
 42 43  2  0
 42 44  1  0
 33 45  1  0
 45 46  1  0
 46 47  1  0
 47 48  2  0
 47 49  1  0
 29 50  1  0
 50 51  1  0
 51 52  1  0
 50 53  1  0
  5 54  1  0
 54 55  1  0
 55 56  2  0
 55 57  1  0
 57 58  1  0
 58 59  1  0
 59 60  2  0
 59 61  1  0
 61 62  1  0
 62 63  1  0
 63 64  2  0
 63 65  1  0
 58 66  1  0
 66 67  1  0
 67 68  1  0
 67 69  1  0
 40  8  1  0
 24 19  1  0
  1 70  1  0
  1 71  1  0
  1 72  1  0
  2 73  1  0
  2 74  1  0
  3 75  1  0
  3 76  1  0
  4 77  1  0
  4 78  1  0
  8 79  1  6
  9 80  1  0
  9 81  1  0
 10 82  1  0
 10 83  1  0
 12 84  1  0
 12 85  1  0
 13 86  1  0
 13 87  1  0
 16 88  1  0
 17 89  1  1
 18 90  1  0
 18 91  1  0
 20 92  1  0
 21 93  1  0
 23 94  1  0
 24 95  1  0
 25 96  1  0
 28 97  1  0
 29 98  1  1
 32 99  1  0
 33100  1  1
 36101  1  0
 37102  1  6
 40103  1  0
 41104  1  0
 41105  1  0
 44106  1  0
 44107  1  0
 45108  1  0
 45109  1  0
 46110  1  0
 46111  1  0
 49112  1  0
 49113  1  0
 50114  1  6
 51115  1  0
 51116  1  0
 52117  1  0
 52118  1  0
 52119  1  0
 53120  1  0
 53121  1  0
 53122  1  0
 54123  1  0
 54124  1  0
 57125  1  0
 58126  1  1
 61127  1  0
 62128  1  0
 62129  1  0
 65130  1  0
 65131  1  0
 66132  1  0
 66133  1  0
 67134  1  0
 68135  1  0
 68136  1  0
 68137  1  0
 69138  1  0
 69139  1  0
 69140  1  0
M  END
>  <Ligand ID>  (1) 
LIG0001899

>  <Ligand>  (1) 
CHEMBL3354582

>  <SMILES>  (1) 
CCCCN(C(=O)[C@@H]1CCSCCC(=O)N[C@@H](Cc2ccc(cc2)O)C(=O)N[C@H](C(=O)N[C@H](C(=O)N[C@H](C(=O)N1)CC(=O)N)CCC(=O)N)[C@H](CC)C)CC(=O)N[C@H](C(=O)NCC(=O)N)CC(C)C

>  <CID>  (1) 
118720272.0

>  <ChEMBL ID>  (1) 
nan

>  <InChiKey>  (1) 
JPLMTCHBWPJLLL-GESINAPRSA-N

>  <InChi>  (1) 
InChI=1S/C45H71N11O12S/c1-6-8-17-56(24-38(62)51-31(20-25(3)4)40(63)49-23-36(48)60)45(68)30-15-18-69-19-16-37(61)50-32(21-27-9-11-28(57)12-10-27)43(66)55-39(26(5)7-2)44(67)52-29(13-14-34(46)58)41(64)54-33(22-35(47)59)42(65)53-30/h9-12,25-26,29-33,39,57H,6-8,13-24H2,1-5H3,(H2,46,58)(H2,47,59)(H2,48,60)(H,49,63)(H,50,61)(H,51,62)(H,52,67)(H,53,65)(H,54,64)(H,55,66)/t26-,29-,30-,31-,32-,33-,39-/m0/s1

>  <IUPAC Name>  (1) 
(4S,7S,10S,13S,16S)-7-(2-amino-2-oxoethyl)-N-[2-[[(2S)-1-[(2-amino-2-oxoethyl)amino]-4-methyl-1-oxopentan-2-yl]amino]-2-oxoethyl]-10-(3-amino-3-oxopropyl)-13-[(2S)-butan-2-yl]-N-butyl-16-[(4-hydroxyphenyl)methyl]-6,9,12,15,18-pentaoxo-1-thia-5,8,11,14,17-pentazacycloicosane-4-carboxamide

$$$$
