
     RDKit          3D

 64 67  0  0  0  0  0  0  0  0999 V2000
   -5.6021   -1.8796    0.5966 O   0  0  0  0  0  0  0  0  0  0  0  0
   -5.7226   -0.5063    0.3393 C   0  0  2  0  0  0  0  0  0  0  0  0
   -6.7860   -0.3275   -0.6856 C   0  0  0  0  0  0  0  0  0  0  0  0
   -8.0077   -0.8029   -0.2770 O   0  0  0  0  0  0  0  0  0  0  0  0
   -8.7883   -0.3692    0.7291 C   0  0  0  0  0  0  0  0  0  0  0  0
   -8.5961    0.6711    1.5921 C   0  0  0  0  0  0  0  0  0  0  0  0
   -9.4845    1.0164    2.5998 C   0  0  0  0  0  0  0  0  0  0  0  0
  -10.6345    0.3040    2.7794 C   0  0  0  0  0  0  0  0  0  0  0  0
  -10.8667   -0.7535    1.9284 C   0  0  0  0  0  0  0  0  0  0  0  0
   -9.9906   -1.0994    0.9294 C   0  0  0  0  0  0  0  0  0  0  0  0
  -11.5231    0.6618    3.7992 O   0  0  0  0  0  0  0  0  0  0  0  0
   -4.3627   -0.0300   -0.1506 C   0  0  0  0  0  0  0  0  0  0  0  0
   -3.4097   -0.3147    0.8937 N   0  0  0  0  0  0  0  0  0  0  0  0
   -2.0739    0.1030    0.6045 C   0  0  0  0  0  0  0  0  0  0  0  0
   -1.4713   -0.6973   -0.5216 C   0  0  0  0  0  0  0  0  0  0  0  0
   -0.0839   -0.2373   -0.7833 C   0  0  0  0  0  0  0  0  0  0  0  0
    0.1381    0.8227   -1.6549 C   0  0  0  0  0  0  0  0  0  0  0  0
    1.3958    1.2976   -1.9509 C   0  0  0  0  0  0  0  0  0  0  0  0
    2.5280    0.7147   -1.3694 C   0  0  0  0  0  0  0  0  0  0  0  0
    2.3090   -0.3166   -0.5216 C   0  0  0  0  0  0  0  0  0  0  0  0
    1.0322   -0.8041   -0.2158 C   0  0  0  0  0  0  0  0  0  0  0  0
    3.7820    1.2671   -1.7139 N   0  0  0  0  0  0  0  0  0  0  0  0
    5.0443    0.7988   -1.3201 C   0  0  0  0  0  0  0  0  0  0  0  0
    5.1848   -0.1972   -0.6011 O   0  0  0  0  0  0  0  0  0  0  0  0
    6.2641    1.5140   -1.7747 C   0  0  0  0  0  0  0  0  0  0  0  0
    7.4494    0.8051   -1.2609 C   0  0  0  0  0  0  0  0  0  0  0  0
    8.0639   -0.0901   -2.1414 C   0  0  0  0  0  0  0  0  0  0  0  0
    9.1763   -0.8177   -1.8056 C   0  0  0  0  0  0  0  0  0  0  0  0
    9.6729   -0.6159   -0.5155 C   0  0  0  0  0  0  0  0  0  0  0  0
    9.0621    0.2765    0.3659 C   0  0  0  0  0  0  0  0  0  0  0  0
    7.9571    0.9757   -0.0189 N   0  0  0  0  0  0  0  0  0  0  0  0
    9.6151    0.4197    1.6199 C   0  0  0  0  0  0  0  0  0  0  0  0
   10.7340   -0.2899    2.0027 C   0  0  0  0  0  0  0  0  0  0  0  0
   11.3061   -1.1639    1.0967 C   0  0  0  0  0  0  0  0  0  0  0  0
   10.7908   -1.3409   -0.1673 C   0  0  0  0  0  0  0  0  0  0  0  0
   -6.5088   -2.1812    0.8554 H   0  0  0  0  0  0  0  0  0  0  0  0
   -5.9202   -0.0018    1.2633 H   0  0  0  0  0  0  0  0  0  0  0  0
   -6.8811    0.7456   -0.9985 H   0  0  0  0  0  0  0  0  0  0  0  0
   -6.5144   -0.8880   -1.6264 H   0  0  0  0  0  0  0  0  0  0  0  0
   -7.7311    1.2896    1.4984 H   0  0  0  0  0  0  0  0  0  0  0  0
   -9.2748    1.8596    3.2557 H   0  0  0  0  0  0  0  0  0  0  0  0
  -11.7714   -1.3216    2.0604 H   0  0  0  0  0  0  0  0  0  0  0  0
  -10.2291   -1.9442    0.2868 H   0  0  0  0  0  0  0  0  0  0  0  0
  -12.1313    1.4459    3.5653 H   0  0  0  0  0  0  0  0  0  0  0  0
   -4.3865    1.0733   -0.2842 H   0  0  0  0  0  0  0  0  0  0  0  0
   -4.0928   -0.4905   -1.1011 H   0  0  0  0  0  0  0  0  0  0  0  0
   -3.7494   -0.0930    1.8345 H   0  0  0  0  0  0  0  0  0  0  0  0
   -2.0782    1.1866    0.3687 H   0  0  0  0  0  0  0  0  0  0  0  0
   -1.4838    0.0052    1.5460 H   0  0  0  0  0  0  0  0  0  0  0  0
   -2.0872   -0.5213   -1.4334 H   0  0  0  0  0  0  0  0  0  0  0  0
   -1.4824   -1.7799   -0.2744 H   0  0  0  0  0  0  0  0  0  0  0  0
   -0.7262    1.2782   -2.1084 H   0  0  0  0  0  0  0  0  0  0  0  0
    1.4625    2.1254   -2.6391 H   0  0  0  0  0  0  0  0  0  0  0  0
    3.1192   -0.8221   -0.0316 H   0  0  0  0  0  0  0  0  0  0  0  0
    0.9161   -1.6378    0.4708 H   0  0  0  0  0  0  0  0  0  0  0  0
    3.7875    2.1346   -2.3377 H   0  0  0  0  0  0  0  0  0  0  0  0
    6.2244    2.5399   -1.3572 H   0  0  0  0  0  0  0  0  0  0  0  0
    6.3121    1.5871   -2.8828 H   0  0  0  0  0  0  0  0  0  0  0  0
    7.6620   -0.2398   -3.1490 H   0  0  0  0  0  0  0  0  0  0  0  0
    9.6554   -1.5043   -2.4661 H   0  0  0  0  0  0  0  0  0  0  0  0
    9.1899    1.0948    2.3458 H   0  0  0  0  0  0  0  0  0  0  0  0
   11.1845   -0.1887    2.9976 H   0  0  0  0  0  0  0  0  0  0  0  0
   12.1838   -1.7080    1.4158 H   0  0  0  0  0  0  0  0  0  0  0  0
   11.2494   -2.0375   -0.8883 H   0  0  0  0  0  0  0  0  0  0  0  0
  1  2  1  0
  2  3  1  0
  3  4  1  0
  4  5  1  0
  5  6  2  0
  6  7  1  0
  7  8  2  0
  8  9  1  0
  9 10  2  0
  8 11  1  0
  2 12  1  0
 12 13  1  0
 13 14  1  0
 14 15  1  0
 15 16  1  0
 16 17  2  0
 17 18  1  0
 18 19  2  0
 19 20  1  0
 20 21  2  0
 19 22  1  0
 22 23  1  0
 23 24  2  0
 23 25  1  0
 25 26  1  0
 26 27  2  0
 27 28  1  0
 28 29  2  0
 29 30  1  0
 30 31  2  0
 30 32  1  0
 32 33  2  0
 33 34  1  0
 34 35  2  0
 10  5  1  0
 21 16  1  0
 31 26  1  0
 35 29  1  0
  1 36  1  0
  2 37  1  1
  3 38  1  0
  3 39  1  0
  6 40  1  0
  7 41  1  0
  9 42  1  0
 10 43  1  0
 11 44  1  0
 12 45  1  0
 12 46  1  0
 13 47  1  0
 14 48  1  0
 14 49  1  0
 15 50  1  0
 15 51  1  0
 17 52  1  0
 18 53  1  0
 20 54  1  0
 21 55  1  0
 22 56  1  0
 25 57  1  0
 25 58  1  0
 27 59  1  0
 28 60  1  0
 32 61  1  0
 33 62  1  0
 34 63  1  0
 35 64  1  0
M  END
>  <Ligand ID>  (1) 
LIG0002745

>  <Ligand>  (1) 
CHEMBL552089

>  <SMILES>  (1) 
O[C@H](COc1ccc(cc1)O)CNCCc1ccc(cc1)NC(=O)Cc1ccc2c(n1)cccc2

>  <CID>  (1) 
44127677.0

>  <ChEMBL ID>  (1) 
nan

>  <InChiKey>  (1) 
WYOIDQDVBJBJFI-VWLOTQADSA-N

>  <InChi>  (1) 
InChI=1S/C28H29N3O4/c32-24-11-13-26(14-12-24)35-19-25(33)18-29-16-15-20-5-8-22(9-6-20)31-28(34)17-23-10-7-21-3-1-2-4-27(21)30-23/h1-14,25,29,32-33H,15-19H2,(H,31,34)/t25-/m0/s1

>  <IUPAC Name>  (1) 
N-[4-[2-[[(2S)-2-hydroxy-3-(4-hydroxyphenoxy)propyl]amino]ethyl]phenyl]-2-quinolin-2-ylacetamide

$$$$
