
     RDKit          3D

 58 60  0  0  0  0  0  0  0  0999 V2000
   -3.2138    1.4069    0.8510 O   0  0  0  0  0  0  0  0  0  0  0  0
   -3.6380    0.5423   -0.0049 C   0  0  0  0  0  0  0  0  0  0  0  0
   -2.7114   -0.5569   -0.3041 C   0  0  0  0  0  0  0  0  0  0  0  0
   -3.1985   -1.8288    0.3226 C   0  0  0  0  0  0  0  0  0  0  0  0
   -4.5408   -2.3007   -0.1374 C   0  0  0  0  0  0  0  0  0  0  0  0
   -3.3066   -1.6128    1.8282 C   0  0  0  0  0  0  0  0  0  0  0  0
   -2.2193   -2.9771    0.0495 C   0  0  0  0  0  0  0  0  0  0  0  0
   -1.3952   -0.2087    0.3211 N   0  0  0  0  0  0  0  0  0  0  0  0
   -0.2299   -0.1101   -0.4863 C   0  0  0  0  0  0  0  0  0  0  0  0
   -0.2361   -0.3010   -1.7169 O   0  0  0  0  0  0  0  0  0  0  0  0
    1.0335    0.2367    0.1955 C   0  0  0  0  0  0  0  0  0  0  0  0
    1.0973    0.4525    1.5170 N   0  0  0  0  0  0  0  0  0  0  0  0
    2.2569    0.7678    2.1229 C   0  0  0  0  0  0  0  0  0  0  0  0
    3.4517    0.8918    1.4436 C   0  0  0  0  0  0  0  0  0  0  0  0
    3.4011    0.6699    0.0659 C   0  0  0  0  0  0  0  0  0  0  0  0
    2.2093    0.3471   -0.5485 C   0  0  0  0  0  0  0  0  0  0  0  0
    4.6042    0.7961   -0.6096 O   0  0  0  0  0  0  0  0  0  0  0  0
    4.8238    0.6283   -1.9713 C   0  0  2  0  0  0  0  0  0  0  0  0
    5.9221   -0.4224   -2.1776 C   0  0  0  0  0  0  0  0  0  0  0  0
    7.0862    0.0304   -1.5537 F   0  0  0  0  0  0  0  0  0  0  0  0
    5.5520   -1.6587   -1.7448 F   0  0  0  0  0  0  0  0  0  0  0  0
    6.2342   -0.5117   -3.5275 F   0  0  0  0  0  0  0  0  0  0  0  0
    5.4010    1.9306   -2.5424 C   0  0  0  0  0  0  0  0  0  0  0  0
    4.7336    1.2403    2.1131 C   0  0  0  0  0  0  0  0  0  0  0  0
    5.4994    0.0051    2.5868 C   0  0  0  0  0  0  0  0  0  0  0  0
    4.9272    0.9540    3.5554 C   0  0  0  0  0  0  0  0  0  0  0  0
   -4.9152    0.7802   -0.5253 N   0  0  0  0  0  0  0  0  0  0  0  0
   -5.8632    1.8657   -0.2201 C   0  0  0  0  0  0  0  0  0  0  0  0
   -6.4070    1.7044   -1.6311 C   0  0  0  0  0  0  0  0  0  0  0  0
   -5.8929    0.2868   -1.4732 C   0  0  0  0  0  0  0  0  0  0  0  0
   -5.7107    2.4345   -2.5479 F   0  0  0  0  0  0  0  0  0  0  0  0
   -7.7733    1.8173   -1.6695 F   0  0  0  0  0  0  0  0  0  0  0  0
   -2.5920   -0.7016   -1.3886 H   0  0  0  0  0  0  0  0  0  0  0  0
   -4.6226   -2.2352   -1.2384 H   0  0  0  0  0  0  0  0  0  0  0  0
   -4.5915   -3.4238    0.0761 H   0  0  0  0  0  0  0  0  0  0  0  0
   -5.3841   -1.8134    0.3652 H   0  0  0  0  0  0  0  0  0  0  0  0
   -3.7073   -0.6082    1.9712 H   0  0  0  0  0  0  0  0  0  0  0  0
   -2.3308   -1.7036    2.3376 H   0  0  0  0  0  0  0  0  0  0  0  0
   -4.0243   -2.3480    2.2264 H   0  0  0  0  0  0  0  0  0  0  0  0
   -1.3642   -2.9500    0.7679 H   0  0  0  0  0  0  0  0  0  0  0  0
   -2.7118   -3.9583    0.2044 H   0  0  0  0  0  0  0  0  0  0  0  0
   -1.8829   -2.9532   -1.0003 H   0  0  0  0  0  0  0  0  0  0  0  0
   -1.4080   -0.0522    1.3521 H   0  0  0  0  0  0  0  0  0  0  0  0
    2.2380    0.9297    3.1978 H   0  0  0  0  0  0  0  0  0  0  0  0
    2.1847    0.1780   -1.6160 H   0  0  0  0  0  0  0  0  0  0  0  0
    3.9639    0.3688   -2.5854 H   0  0  0  0  0  0  0  0  0  0  0  0
    4.5876    2.5947   -2.8951 H   0  0  0  0  0  0  0  0  0  0  0  0
    6.0167    1.6527   -3.4197 H   0  0  0  0  0  0  0  0  0  0  0  0
    6.0474    2.4076   -1.7787 H   0  0  0  0  0  0  0  0  0  0  0  0
    5.2728    2.0741    1.6679 H   0  0  0  0  0  0  0  0  0  0  0  0
    6.5760    0.0320    2.3223 H   0  0  0  0  0  0  0  0  0  0  0  0
    5.0378   -0.9866    2.4951 H   0  0  0  0  0  0  0  0  0  0  0  0
    4.0775    0.6338    4.1922 H   0  0  0  0  0  0  0  0  0  0  0  0
    5.6724    1.5751    4.0940 H   0  0  0  0  0  0  0  0  0  0  0  0
   -5.3487    2.8226   -0.0954 H   0  0  0  0  0  0  0  0  0  0  0  0
   -6.5883    1.6010    0.5611 H   0  0  0  0  0  0  0  0  0  0  0  0
   -6.6724   -0.3326   -1.0032 H   0  0  0  0  0  0  0  0  0  0  0  0
   -5.4276   -0.1029   -2.3908 H   0  0  0  0  0  0  0  0  0  0  0  0
  1  2  2  0
  2  3  1  0
  3  4  1  0
  4  5  1  0
  4  6  1  0
  4  7  1  0
  3  8  1  0
  8  9  1  0
  9 10  2  0
  9 11  1  0
 11 12  2  0
 12 13  1  0
 13 14  2  0
 14 15  1  0
 15 16  2  0
 15 17  1  0
 17 18  1  0
 18 19  1  0
 19 20  1  0
 19 21  1  0
 19 22  1  0
 18 23  1  0
 14 24  1  0
 24 25  1  0
 25 26  1  0
  2 27  1  0
 27 28  1  0
 28 29  1  0
 29 30  1  0
 29 31  1  0
 29 32  1  0
 16 11  1  0
 26 24  1  0
 30 27  1  0
  3 33  1  0
  5 34  1  0
  5 35  1  0
  5 36  1  0
  6 37  1  0
  6 38  1  0
  6 39  1  0
  7 40  1  0
  7 41  1  0
  7 42  1  0
  8 43  1  0
 13 44  1  0
 16 45  1  0
 18 46  1  6
 23 47  1  0
 23 48  1  0
 23 49  1  0
 24 50  1  0
 25 51  1  0
 25 52  1  0
 26 53  1  0
 26 54  1  0
 28 55  1  0
 28 56  1  0
 30 57  1  0
 30 58  1  0
M  END
>  <Ligand ID>  (1) 
LIG0005182

>  <Ligand>  (1) 
CHEMBL3957631

>  <SMILES>  (1) 
O=C(C(C(C)(C)C)NC(=O)c1ncc(c(c1)O[C@H](C(F)(F)F)C)C1CC1)N1CC(C1)(F)F

>  <CID>  (1) 
90204378.0

>  <ChEMBL ID>  (1) 
nan

>  <InChiKey>  (1) 
VLLTWAIEGAIZNI-CHPOKUKFSA-N

>  <InChi>  (1) 
InChI=1S/C21H26F5N3O3/c1-11(21(24,25)26)32-15-7-14(27-8-13(15)12-5-6-12)17(30)28-16(19(2,3)4)18(31)29-9-20(22,23)10-29/h7-8,11-12,16H,5-6,9-10H2,1-4H3,(H,28,30)/t11-,16?/m0/s1

>  <IUPAC Name>  (1) 
5-cyclopropyl-N-[1-(3,3-difluoroazetidin-1-yl)-3,3-dimethyl-1-oxobutan-2-yl]-4-[(2S)-1,1,1-trifluoropropan-2-yl]oxypyridine-2-carboxamide

$$$$
