
     RDKit          3D

 29 30  0  0  0  0  0  0  0  0999 V2000
    0.0365   -0.1895    1.6177 O   0  0  0  0  0  0  0  0  0  0  0  0
    0.6100    0.4847    0.7351 C   0  0  0  0  0  0  0  0  0  0  0  0
    2.0428    0.2110    0.5359 C   0  0  0  0  0  0  0  0  0  0  0  0
    2.7859    0.8965   -0.4152 C   0  0  0  0  0  0  0  0  0  0  0  0
    4.1245    0.6254   -0.5855 C   0  0  0  0  0  0  0  0  0  0  0  0
    4.7534   -0.3387    0.1919 C   0  0  0  0  0  0  0  0  0  0  0  0
    4.0065   -1.0140    1.1339 C   0  0  0  0  0  0  0  0  0  0  0  0
    2.6519   -0.7649    1.3320 C   0  0  0  0  0  0  0  0  0  0  0  0
    1.9521   -1.4720    2.2908 O   0  0  0  0  0  0  0  0  0  0  0  0
    0.0199    1.4305   -0.0366 O   0  0  0  0  0  0  0  0  0  0  0  0
   -1.3178    1.7967    0.0350 C   0  0  0  0  0  0  0  0  0  0  0  0
   -2.2977    0.7344   -0.2307 C   0  0  0  0  0  0  0  0  0  0  0  0
   -2.8884   -0.0545    0.7299 C   0  0  0  0  0  0  0  0  0  0  0  0
   -3.8070   -1.0551    0.4106 C   0  0  0  0  0  0  0  0  0  0  0  0
   -4.1626   -1.2925   -0.9113 C   0  0  0  0  0  0  0  0  0  0  0  0
   -3.5732   -0.5053   -1.8651 C   0  0  0  0  0  0  0  0  0  0  0  0
   -2.6533    0.4966   -1.5463 C   0  0  0  0  0  0  0  0  0  0  0  0
    2.2836    1.6484   -1.0176 H   0  0  0  0  0  0  0  0  0  0  0  0
    4.6986    1.1736   -1.3393 H   0  0  0  0  0  0  0  0  0  0  0  0
    5.8056   -0.5609    0.0674 H   0  0  0  0  0  0  0  0  0  0  0  0
    4.5381   -1.7590    1.7193 H   0  0  0  0  0  0  0  0  0  0  0  0
    1.2544   -2.1627    2.1274 H   0  0  0  0  0  0  0  0  0  0  0  0
   -1.4547    2.6269   -0.7067 H   0  0  0  0  0  0  0  0  0  0  0  0
   -1.5804    2.2667    1.0280 H   0  0  0  0  0  0  0  0  0  0  0  0
   -2.6524    0.0938    1.7672 H   0  0  0  0  0  0  0  0  0  0  0  0
   -4.2365   -1.6441    1.2292 H   0  0  0  0  0  0  0  0  0  0  0  0
   -4.8729   -2.0729   -1.1046 H   0  0  0  0  0  0  0  0  0  0  0  0
   -3.8622   -0.7029   -2.9008 H   0  0  0  0  0  0  0  0  0  0  0  0
   -2.2048    1.1038   -2.3387 H   0  0  0  0  0  0  0  0  0  0  0  0
  1  2  2  0
  2  3  1  0
  3  4  2  0
  4  5  1  0
  5  6  2  0
  6  7  1  0
  7  8  2  0
  8  9  1  0
  2 10  1  0
 10 11  1  0
 11 12  1  0
 12 13  2  0
 13 14  1  0
 14 15  2  0
 15 16  1  0
 16 17  2  0
  8  3  1  0
 17 12  1  0
  4 18  1  0
  5 19  1  0
  6 20  1  0
  7 21  1  0
  9 22  1  0
 11 23  1  0
 11 24  1  0
 13 25  1  0
 14 26  1  0
 15 27  1  0
 16 28  1  0
 17 29  1  0
M  END
>  <Ligand ID>  (1) 
LIG0000148

>  <Ligand>  (1) 
Benzyl salicylate

>  <SMILES>  (1) 
O=C(c1ccccc1O)OCc1ccccc1

>  <CID>  (1) 
8363.0

>  <ChEMBL ID>  (1) 
nan

>  <InChiKey>  (1) 
ZCTQGTTXIYCGGC-UHFFFAOYSA-N

>  <InChi>  (1) 
InChI=1S/C14H12O3/c15-13-9-5-4-8-12(13)14(16)17-10-11-6-2-1-3-7-11/h1-9,15H,10H2

>  <IUPAC Name>  (1) 
benzyl 2-hydroxybenzoate

$$$$
