
     RDKit          3D

 36 39  0  0  0  0  0  0  0  0999 V2000
   -6.6875    2.3847    0.6062 Cl  0  0  0  0  0  0  0  0  0  0  0  0
   -5.1607    1.5549    0.3994 C   0  0  0  0  0  0  0  0  0  0  0  0
   -4.8003    0.4579    1.1617 C   0  0  0  0  0  0  0  0  0  0  0  0
   -3.5830   -0.1589    0.9566 C   0  0  0  0  0  0  0  0  0  0  0  0
   -2.7246    0.3214   -0.0120 C   0  0  0  0  0  0  0  0  0  0  0  0
   -3.0871    1.4309   -0.7843 C   0  0  0  0  0  0  0  0  0  0  0  0
   -4.3065    2.0354   -0.5668 C   0  0  0  0  0  0  0  0  0  0  0  0
   -1.4654   -0.2848   -0.2530 N   0  0  0  0  0  0  0  0  0  0  0  0
   -1.2991   -1.3879   -0.9633 N   0  0  0  0  0  0  0  0  0  0  0  0
    0.0020   -1.6862   -0.9948 C   0  0  0  0  0  0  0  0  0  0  0  0
    0.6584   -0.7148   -0.2665 C   0  0  0  0  0  0  0  0  0  0  0  0
   -0.2855    0.1746    0.2025 C   0  0  0  0  0  0  0  0  0  0  0  0
    2.0295   -0.7584   -0.1215 C   0  0  0  0  0  0  0  0  0  0  0  0
    2.7364   -1.7626   -0.6989 N   0  0  0  0  0  0  0  0  0  0  0  0
    2.1092   -2.7096   -1.4074 N   0  0  0  0  0  0  0  0  0  0  0  0
    0.7672   -2.6880   -1.5630 C   0  0  0  0  0  0  0  0  0  0  0  0
    0.0853   -3.7571   -2.3594 C   0  0  0  0  0  0  0  0  0  0  0  0
    2.7885    0.2328    0.6311 C   0  0  0  0  0  0  0  0  0  0  0  0
    3.9435    0.7132    0.0031 C   0  0  0  0  0  0  0  0  0  0  0  0
    4.7521    1.6574    0.6194 C   0  0  0  0  0  0  0  0  0  0  0  0
    4.3947    2.1132    1.8637 C   0  0  0  0  0  0  0  0  0  0  0  0
    3.2465    1.6413    2.4979 C   0  0  0  0  0  0  0  0  0  0  0  0
    2.4378    0.6913    1.8718 C   0  0  0  0  0  0  0  0  0  0  0  0
   -5.4940    0.0984    1.9187 H   0  0  0  0  0  0  0  0  0  0  0  0
   -3.3212   -1.0172    1.5657 H   0  0  0  0  0  0  0  0  0  0  0  0
   -2.3972    1.8034   -1.5507 H   0  0  0  0  0  0  0  0  0  0  0  0
   -4.5570    2.8922   -1.1816 H   0  0  0  0  0  0  0  0  0  0  0  0
   -0.1082    1.0451    0.8010 H   0  0  0  0  0  0  0  0  0  0  0  0
   -0.9687   -3.8531   -2.0929 H   0  0  0  0  0  0  0  0  0  0  0  0
    0.1041   -3.4050   -3.4307 H   0  0  0  0  0  0  0  0  0  0  0  0
    0.6817   -4.6678   -2.3185 H   0  0  0  0  0  0  0  0  0  0  0  0
    4.2538    0.3787   -0.9708 H   0  0  0  0  0  0  0  0  0  0  0  0
    5.6398    2.0135    0.1140 H   0  0  0  0  0  0  0  0  0  0  0  0
    5.0424    2.8552    2.3323 H   0  0  0  0  0  0  0  0  0  0  0  0
    3.0120    2.0330    3.4751 H   0  0  0  0  0  0  0  0  0  0  0  0
    1.5613    0.3230    2.3470 H   0  0  0  0  0  0  0  0  0  0  0  0
  1  2  1  0
  2  3  2  0
  3  4  1  0
  4  5  2  0
  5  6  1  0
  6  7  2  0
  5  8  1  0
  8  9  1  0
  9 10  2  0
 10 11  1  0
 11 12  2  0
 11 13  1  0
 13 14  2  0
 14 15  1  0
 15 16  2  0
 16 17  1  0
 13 18  1  0
 18 19  2  0
 19 20  1  0
 20 21  2  0
 21 22  1  0
 22 23  2  0
  7  2  1  0
 12  8  1  0
 23 18  1  0
 16 10  1  0
  3 24  1  0
  4 25  1  0
  6 26  1  0
  7 27  1  0
 12 28  1  0
 17 29  1  0
 17 30  1  0
 17 31  1  0
 19 32  1  0
 20 33  1  0
 21 34  1  0
 22 35  1  0
 23 36  1  0
M  END
>  <Ligand ID>  (1) 
LIG0003981

>  <Ligand>  (1) 
2-(4-chlorophenyl)-7-methyl-4-phenylpyrazolo[3,4-d]pyridazine

>  <SMILES>  (1) 
Clc1ccc(cc1)n1nc2c(c1)c(nnc2C)c1ccccc1

>  <CID>  (1) 
4623233.0

>  <ChEMBL ID>  (1) 
nan

>  <InChiKey>  (1) 
PWUHTKASVHDMBY-UHFFFAOYSA-N

>  <InChi>  (1) 
InChI=1S/C18H13ClN4/c1-12-17-16(18(21-20-12)13-5-3-2-4-6-13)11-23(22-17)15-9-7-14(19)8-10-15/h2-11H,1H3

>  <IUPAC Name>  (1) 
2-(4-chlorophenyl)-7-methyl-4-phenylpyrazolo[3,4-d]pyridazine

$$$$
