
     RDKit          3D

 59 63  0  0  0  0  0  0  0  0999 V2000
   -8.9408    2.0878   -0.0225 Cl  0  0  0  0  0  0  0  0  0  0  0  0
   -7.2222    2.2479   -0.2962 C   0  0  0  0  0  0  0  0  0  0  0  0
   -6.4196    3.2790   -0.6628 C   0  0  0  0  0  0  0  0  0  0  0  0
   -5.1018    3.0411   -0.7857 C   0  0  0  0  0  0  0  0  0  0  0  0
   -4.6182    1.8220   -0.5494 C   0  0  0  0  0  0  0  0  0  0  0  0
   -6.0355    0.8141   -0.1039 S   0  0  0  0  0  0  0  0  0  0  0  0
   -3.3270    1.1808   -0.5453 C   0  0  0  0  0  0  0  0  0  0  0  0
   -2.2358    1.6601    0.0274 C   0  0  0  0  0  0  0  0  0  0  0  0
   -2.1755    2.9422    0.7597 C   0  0  0  0  0  0  0  0  0  0  0  0
   -0.7415    3.2314    1.1406 C   0  0  0  0  0  0  0  0  0  0  0  0
    0.1910    2.9467   -0.0343 C   0  0  0  0  0  0  0  0  0  0  0  0
    0.2240    1.4656   -0.1354 C   0  0  0  0  0  0  0  0  0  0  0  0
   -1.0248    0.8370   -0.0896 C   0  0  0  0  0  0  0  0  0  0  0  0
   -0.7844   -0.4734   -0.1834 N   0  0  0  0  0  0  0  0  0  0  0  0
    0.5406   -0.6713   -0.2864 N   0  0  0  0  0  0  0  0  0  0  0  0
    1.1766    0.4846   -0.2599 C   0  0  0  0  0  0  0  0  0  0  0  0
    2.6061    0.7763   -0.3265 C   0  0  0  0  0  0  0  0  0  0  0  0
    3.0253    1.9571   -0.1809 O   0  0  0  0  0  0  0  0  0  0  0  0
    3.5877   -0.2299   -0.5538 N   0  0  0  0  0  0  0  0  0  0  0  0
    4.9703    0.2106   -0.5859 C   0  0  1  0  0  0  0  0  0  0  0  0
    5.8722   -0.6616    0.1701 C   0  0  0  0  0  0  0  0  0  0  0  0
    6.8002   -0.2280    1.0942 C   0  0  0  0  0  0  0  0  0  0  0  0
    7.6153   -1.0760    1.7649 C   0  0  0  0  0  0  0  0  0  0  0  0
    7.5191   -2.4322    1.5188 C   0  0  0  0  0  0  0  0  0  0  0  0
    6.5914   -2.8503    0.5964 C   0  0  0  0  0  0  0  0  0  0  0  0
    5.7813   -2.0000   -0.0697 N   0  0  0  0  0  0  0  0  0  0  0  0
    5.3271    0.1897   -2.0890 C   0  0  0  0  0  0  0  0  0  0  0  0
   -1.7753   -1.4846   -0.1509 C   0  0  0  0  0  0  0  0  0  0  0  0
   -2.5204   -1.5562    1.0397 C   0  0  0  0  0  0  0  0  0  0  0  0
   -3.5099   -2.5217    1.1765 C   0  0  0  0  0  0  0  0  0  0  0  0
   -3.7485   -3.3967    0.1438 C   0  0  0  0  0  0  0  0  0  0  0  0
   -3.0203   -3.3326   -1.0289 C   0  0  0  0  0  0  0  0  0  0  0  0
   -2.0278   -2.3693   -1.1746 C   0  0  0  0  0  0  0  0  0  0  0  0
   -1.0747   -2.2416   -2.6391 Cl  0  0  0  0  0  0  0  0  0  0  0  0
   -4.8292   -4.4080    0.3564 C   0  0  0  0  0  0  0  0  0  0  0  0
   -4.4722   -5.1684    1.4487 F   0  0  0  0  0  0  0  0  0  0  0  0
   -6.0222   -3.7429    0.5570 F   0  0  0  0  0  0  0  0  0  0  0  0
   -4.9441   -5.1253   -0.8099 F   0  0  0  0  0  0  0  0  0  0  0  0
   -6.8636    4.2834   -0.8498 H   0  0  0  0  0  0  0  0  0  0  0  0
   -4.4107    3.8753   -1.1026 H   0  0  0  0  0  0  0  0  0  0  0  0
   -3.2807    0.2123   -1.0859 H   0  0  0  0  0  0  0  0  0  0  0  0
   -2.5381    3.8124    0.2039 H   0  0  0  0  0  0  0  0  0  0  0  0
   -2.7331    2.8504    1.7360 H   0  0  0  0  0  0  0  0  0  0  0  0
   -0.3927    2.5954    1.9767 H   0  0  0  0  0  0  0  0  0  0  0  0
   -0.6394    4.2864    1.4737 H   0  0  0  0  0  0  0  0  0  0  0  0
   -0.3421    3.3128   -0.9367 H   0  0  0  0  0  0  0  0  0  0  0  0
    1.1722    3.3942    0.1092 H   0  0  0  0  0  0  0  0  0  0  0  0
    3.3109   -1.2229   -0.6860 H   0  0  0  0  0  0  0  0  0  0  0  0
    5.1196    1.2547   -0.2642 H   0  0  0  0  0  0  0  0  0  0  0  0
    6.8438    0.8431    1.2577 H   0  0  0  0  0  0  0  0  0  0  0  0
    8.3372   -0.7418    2.4832 H   0  0  0  0  0  0  0  0  0  0  0  0
    8.1432   -3.1566    2.0222 H   0  0  0  0  0  0  0  0  0  0  0  0
    6.4979   -3.9057    0.3845 H   0  0  0  0  0  0  0  0  0  0  0  0
    5.7004   -0.8106   -2.3632 H   0  0  0  0  0  0  0  0  0  0  0  0
    6.0323    1.0010   -2.3257 H   0  0  0  0  0  0  0  0  0  0  0  0
    4.4162    0.3579   -2.7139 H   0  0  0  0  0  0  0  0  0  0  0  0
   -2.3331   -0.8645    1.8593 H   0  0  0  0  0  0  0  0  0  0  0  0
   -4.0686   -2.5401    2.1218 H   0  0  0  0  0  0  0  0  0  0  0  0
   -3.2282   -4.0408   -1.8439 H   0  0  0  0  0  0  0  0  0  0  0  0
  1  2  1  0
  2  3  2  0
  3  4  1  0
  4  5  2  0
  5  6  1  0
  5  7  1  0
  7  8  2  0
  8  9  1  0
  9 10  1  0
 10 11  1  0
 11 12  1  0
 12 13  2  0
 13 14  1  0
 14 15  1  0
 15 16  2  0
 16 17  1  0
 17 18  2  0
 17 19  1  0
 19 20  1  0
 20 21  1  0
 21 22  2  0
 22 23  1  0
 23 24  2  0
 24 25  1  0
 25 26  2  0
 20 27  1  0
 14 28  1  0
 28 29  2  0
 29 30  1  0
 30 31  2  0
 31 32  1  0
 32 33  2  0
 33 34  1  0
 31 35  1  0
 35 36  1  0
 35 37  1  0
 35 38  1  0
  6  2  1  0
 13  8  1  0
 26 21  1  0
 33 28  1  0
 16 12  1  0
  3 39  1  0
  4 40  1  0
  7 41  1  0
  9 42  1  0
  9 43  1  0
 10 44  1  0
 10 45  1  0
 11 46  1  0
 11 47  1  0
 19 48  1  0
 20 49  1  1
 22 50  1  0
 23 51  1  0
 24 52  1  0
 25 53  1  0
 27 54  1  0
 27 55  1  0
 27 56  1  0
 29 57  1  0
 30 58  1  0
 32 59  1  0
M  END
>  <Ligand ID>  (1) 
LIG0005419

>  <Ligand>  (1) 
CHEMBL3913457

>  <SMILES>  (1) 
Clc1ccc(s1)/C=C/1\CCCc2c1n(nc2C(=O)N[C@@H](c1ccccn1)C)c1ccc(cc1Cl)C(F)(F)F

>  <CID>  (1) 
134143205.0

>  <ChEMBL ID>  (1) 
nan

>  <InChiKey>  (1) 
BEJMVKMGIMTOQH-WTNDLDAUSA-N

>  <InChi>  (1) 
InChI=1S/C27H21Cl2F3N4OS/c1-15(21-7-2-3-12-33-21)34-26(37)24-19-6-4-5-16(13-18-9-11-23(29)38-18)25(19)36(35-24)22-10-8-17(14-20(22)28)27(30,31)32/h2-3,7-15H,4-6H2,1H3,(H,34,37)/b16-13+/t15-/m1/s1

>  <IUPAC Name>  (1) 
(7E)-7-[(5-chlorothiophen-2-yl)methylidene]-1-[2-chloro-4-(trifluoromethyl)phenyl]-N-[(1R)-1-pyridin-2-ylethyl]-5,6-dihydro-4H-indazole-3-carboxamide

$$$$
