
     RDKit          3D

 61 64  0  0  0  0  0  0  0  0999 V2000
   -1.5463    1.9190    0.2918 O   0  0  0  0  0  0  0  0  0  0  0  0
   -2.8856    1.6509   -0.0509 C   0  0  2  0  0  0  0  0  0  0  0  0
   -3.6340    1.2393    1.1729 C   0  0  0  0  0  0  0  0  0  0  0  0
   -4.9358    0.9843    1.1333 O   0  0  0  0  0  0  0  0  0  0  0  0
   -5.9542    0.2881    0.6897 C   0  0  0  0  0  0  0  0  0  0  0  0
   -5.9312   -0.7800   -0.1857 C   0  0  0  0  0  0  0  0  0  0  0  0
   -7.0572   -1.4578   -0.5997 C   0  0  0  0  0  0  0  0  0  0  0  0
   -8.2725   -1.0491   -0.1147 C   0  0  0  0  0  0  0  0  0  0  0  0
   -8.3772    0.0032    0.7584 C   0  0  0  0  0  0  0  0  0  0  0  0
   -7.2419    0.6515    1.1470 C   0  0  0  0  0  0  0  0  0  0  0  0
   -7.6452    1.6344    1.9994 N   0  0  0  0  0  0  0  0  0  0  0  0
   -8.9760    1.6040    2.1394 C   0  0  0  0  0  0  0  0  0  0  0  0
   -9.6768    2.3724    2.8535 O   0  0  0  0  0  0  0  0  0  0  0  0
   -9.4459    0.5836    1.3647 N   0  0  0  0  0  0  0  0  0  0  0  0
   -2.8736    0.7164   -1.1945 C   0  0  0  0  0  0  0  0  0  0  0  0
   -2.2473   -0.5454   -1.0325 N   0  0  0  0  0  0  0  0  0  0  0  0
   -0.8260   -0.5241   -0.9162 C   0  0  0  0  0  0  0  0  0  0  0  0
   -0.3932   -2.0053   -0.8203 C   0  0  0  0  0  0  0  0  0  0  0  0
    1.0895   -1.9524   -0.7021 C   0  0  0  0  0  0  0  0  0  0  0  0
    1.7062   -1.8794    0.5334 C   0  0  0  0  0  0  0  0  0  0  0  0
    3.0952   -1.8303    0.6144 C   0  0  0  0  0  0  0  0  0  0  0  0
    3.8776   -1.8539   -0.5383 C   0  0  0  0  0  0  0  0  0  0  0  0
    3.2643   -1.9274   -1.7846 C   0  0  0  0  0  0  0  0  0  0  0  0
    1.8876   -1.9755   -1.8504 C   0  0  0  0  0  0  0  0  0  0  0  0
    5.2918   -1.8006   -0.3860 N   0  0  0  0  0  0  0  0  0  0  0  0
    5.9927   -0.5664   -0.3541 C   0  0  0  0  0  0  0  0  0  0  0  0
    5.4098    0.5422   -0.4575 O   0  0  0  0  0  0  0  0  0  0  0  0
    7.4818   -0.6577   -0.1886 C   0  0  0  0  0  0  0  0  0  0  0  0
    8.1235    0.6779   -0.1621 C   0  0  0  0  0  0  0  0  0  0  0  0
    8.2678    1.2864    1.0668 C   0  0  0  0  0  0  0  0  0  0  0  0
    8.8433    2.5220    1.2393 C   0  0  0  0  0  0  0  0  0  0  0  0
    9.2945    3.1667    0.0884 C   0  0  0  0  0  0  0  0  0  0  0  0
    9.1373    2.5325   -1.1363 C   0  0  0  0  0  0  0  0  0  0  0  0
    8.5649    1.3168   -1.2545 N   0  0  0  0  0  0  0  0  0  0  0  0
   -1.3615    2.8787    0.3905 H   0  0  0  0  0  0  0  0  0  0  0  0
   -3.2729    2.6343   -0.4410 H   0  0  0  0  0  0  0  0  0  0  0  0
   -3.3236    2.0098    1.9641 H   0  0  0  0  0  0  0  0  0  0  0  0
   -3.1006    0.3111    1.5916 H   0  0  0  0  0  0  0  0  0  0  0  0
   -4.9975   -1.1192   -0.5679 H   0  0  0  0  0  0  0  0  0  0  0  0
   -6.9778   -2.2909   -1.2904 H   0  0  0  0  0  0  0  0  0  0  0  0
   -9.1471   -1.5866   -0.4454 H   0  0  0  0  0  0  0  0  0  0  0  0
   -7.0499    2.3390    2.5008 H   0  0  0  0  0  0  0  0  0  0  0  0
  -10.4604    0.2913    1.2516 H   0  0  0  0  0  0  0  0  0  0  0  0
   -3.8851    0.6210   -1.6958 H   0  0  0  0  0  0  0  0  0  0  0  0
   -2.2851    1.2579   -2.0135 H   0  0  0  0  0  0  0  0  0  0  0  0
   -2.6738   -1.1384   -0.2753 H   0  0  0  0  0  0  0  0  0  0  0  0
   -0.3319   -0.1526   -1.8354 H   0  0  0  0  0  0  0  0  0  0  0  0
   -0.4041    0.0299   -0.0722 H   0  0  0  0  0  0  0  0  0  0  0  0
   -0.6435   -2.5310   -1.7618 H   0  0  0  0  0  0  0  0  0  0  0  0
   -0.8593   -2.4876    0.0550 H   0  0  0  0  0  0  0  0  0  0  0  0
    1.0707   -1.8626    1.4129 H   0  0  0  0  0  0  0  0  0  0  0  0
    3.5487   -1.7727    1.6068 H   0  0  0  0  0  0  0  0  0  0  0  0
    3.8937   -1.9443   -2.6580 H   0  0  0  0  0  0  0  0  0  0  0  0
    1.4296   -2.0335   -2.8475 H   0  0  0  0  0  0  0  0  0  0  0  0
    5.7967   -2.7285   -0.2974 H   0  0  0  0  0  0  0  0  0  0  0  0
    7.6463   -1.2053    0.7617 H   0  0  0  0  0  0  0  0  0  0  0  0
    7.8768   -1.2254   -1.0591 H   0  0  0  0  0  0  0  0  0  0  0  0
    7.9172    0.7849    1.9590 H   0  0  0  0  0  0  0  0  0  0  0  0
    8.9364    2.9628    2.2255 H   0  0  0  0  0  0  0  0  0  0  0  0
    9.7498    4.1370    0.1941 H   0  0  0  0  0  0  0  0  0  0  0  0
    9.5006    3.0639   -2.0158 H   0  0  0  0  0  0  0  0  0  0  0  0
  1  2  1  0
  2  3  1  0
  3  4  1  0
  4  5  1  0
  5  6  2  0
  6  7  1  0
  7  8  2  0
  8  9  1  0
  9 10  2  0
 10 11  1  0
 11 12  1  0
 12 13  2  0
 12 14  1  0
  2 15  1  0
 15 16  1  0
 16 17  1  0
 17 18  1  0
 18 19  1  0
 19 20  2  0
 20 21  1  0
 21 22  2  0
 22 23  1  0
 23 24  2  0
 22 25  1  0
 25 26  1  0
 26 27  2  0
 26 28  1  0
 28 29  1  0
 29 30  2  0
 30 31  1  0
 31 32  2  0
 32 33  1  0
 33 34  2  0
 10  5  1  0
 24 19  1  0
 34 29  1  0
 14  9  1  0
  1 35  1  0
  2 36  1  6
  3 37  1  0
  3 38  1  0
  6 39  1  0
  7 40  1  0
  8 41  1  0
 11 42  1  0
 14 43  1  0
 15 44  1  0
 15 45  1  0
 16 46  1  0
 17 47  1  0
 17 48  1  0
 18 49  1  0
 18 50  1  0
 20 51  1  0
 21 52  1  0
 23 53  1  0
 24 54  1  0
 25 55  1  0
 28 56  1  0
 28 57  1  0
 30 58  1  0
 31 59  1  0
 32 60  1  0
 33 61  1  0
M  END
>  <Ligand ID>  (1) 
LIG0002784

>  <Ligand>  (1) 
CHEMBL466519

>  <SMILES>  (1) 
O[C@H](COc1cccc2c1[nH]c(=O)[nH]2)CNCCc1ccc(cc1)NC(=O)Cc1ccccn1

>  <CID>  (1) 
44574688.0

>  <ChEMBL ID>  (1) 
nan

>  <InChiKey>  (1) 
XTWIHJARHCYNFX-FQEVSTJZSA-N

>  <InChi>  (1) 
InChI=1S/C25H27N5O4/c31-20(16-34-22-6-3-5-21-24(22)30-25(33)29-21)15-26-13-11-17-7-9-18(10-8-17)28-23(32)14-19-4-1-2-12-27-19/h1-10,12,20,26,31H,11,13-16H2,(H,28,32)(H2,29,30,33)/t20-/m0/s1

>  <IUPAC Name>  (1) 
N-[4-[2-[[(2S)-2-hydroxy-3-[(2-oxo-1,3-dihydrobenzimidazol-4-yl)oxy]propyl]amino]ethyl]phenyl]-2-pyridin-2-ylacetamide

$$$$
