
     RDKit          3D

 66 65  0  0  0  0  0  0  0  0999 V2000
   -7.2028    1.8093   -1.7892 C   0  0  0  0  0  0  0  0  0  0  0  0
   -8.0245    0.6777   -1.2301 C   0  0  0  0  0  0  0  0  0  0  0  0
   -8.1668    0.6563    0.2394 C   0  0  0  0  0  0  0  0  0  0  0  0
   -6.9958    0.6118    1.1172 C   0  0  0  0  0  0  0  0  0  0  0  0
   -6.0323   -0.5142    1.0528 C   0  0  0  0  0  0  0  0  0  0  0  0
   -5.2714   -0.7020   -0.2002 C   0  0  0  0  0  0  0  0  0  0  0  0
   -4.3460   -1.8997   -0.0590 C   0  0  0  0  0  0  0  0  0  0  0  0
   -3.3574   -1.7455    1.0423 C   0  0  0  0  0  0  0  0  0  0  0  0
   -2.4591   -0.5365    0.8837 C   0  0  0  0  0  0  0  0  0  0  0  0
   -1.6454   -0.5608   -0.3820 C   0  0  0  0  0  0  0  0  0  0  0  0
   -0.7422   -1.7466   -0.4741 C   0  0  0  0  0  0  0  0  0  0  0  0
    0.2626   -1.8598    0.6230 C   0  0  0  0  0  0  0  0  0  0  0  0
    1.2091   -0.7082    0.7354 C   0  0  0  0  0  0  0  0  0  0  0  0
    2.0325   -0.4828   -0.4942 C   0  0  0  0  0  0  0  0  0  0  0  0
    2.9793    0.6902   -0.3439 C   0  0  0  0  0  0  0  0  0  0  0  0
    3.9280    0.4874    0.7751 C   0  0  0  0  0  0  0  0  0  0  0  0
    3.6029    0.5885    1.9920 O   0  0  0  0  0  0  0  0  0  0  0  0
    5.2611    0.1663    0.5277 O   0  0  0  0  0  0  0  0  0  0  0  0
    6.1669   -0.0278    1.6001 C   0  0  0  0  0  0  0  0  0  0  0  0
    7.5135   -0.3585    0.9898 C   0  0  2  0  0  0  0  0  0  0  0  0
    7.9192    0.7961    0.1176 C   0  0  0  0  0  0  0  0  0  0  0  0
    9.1207    0.6127   -0.5177 O   0  0  0  0  0  0  0  0  0  0  0  0
    9.6120    1.8742   -1.4969 P   0  0  0  0  0  0  0  0  0  0  0  0
   10.8497    2.4965   -0.8802 O   0  0  0  0  0  0  0  0  0  0  0  0
    8.4264    3.0434   -1.7538 O   0  0  0  0  0  0  0  0  0  0  0  0
   10.0448    1.2384   -3.0086 O   0  0  0  0  0  0  0  0  0  0  0  0
    7.3964   -1.5112    0.2270 O   0  0  0  0  0  0  0  0  0  0  0  0
   -6.9457    2.5706   -1.0542 H   0  0  0  0  0  0  0  0  0  0  0  0
   -6.2198    1.3944   -2.1592 H   0  0  0  0  0  0  0  0  0  0  0  0
   -7.6586    2.3118   -2.6668 H   0  0  0  0  0  0  0  0  0  0  0  0
   -9.0995    0.9577   -1.5993 H   0  0  0  0  0  0  0  0  0  0  0  0
   -7.8946   -0.2921   -1.7011 H   0  0  0  0  0  0  0  0  0  0  0  0
   -8.8652    1.4873    0.5568 H   0  0  0  0  0  0  0  0  0  0  0  0
   -8.7689   -0.2916    0.4694 H   0  0  0  0  0  0  0  0  0  0  0  0
   -7.4104    0.5894    2.1881 H   0  0  0  0  0  0  0  0  0  0  0  0
   -6.4235    1.5896    1.1396 H   0  0  0  0  0  0  0  0  0  0  0  0
   -6.5602   -1.4616    1.3585 H   0  0  0  0  0  0  0  0  0  0  0  0
   -5.2680   -0.3772    1.8874 H   0  0  0  0  0  0  0  0  0  0  0  0
   -4.6414    0.2052   -0.4226 H   0  0  0  0  0  0  0  0  0  0  0  0
   -5.8587   -0.8732   -1.1040 H   0  0  0  0  0  0  0  0  0  0  0  0
   -3.8180   -2.0864   -1.0202 H   0  0  0  0  0  0  0  0  0  0  0  0
   -4.9850   -2.7666    0.1619 H   0  0  0  0  0  0  0  0  0  0  0  0
   -3.8234   -1.7024    2.0299 H   0  0  0  0  0  0  0  0  0  0  0  0
   -2.7311   -2.6886    1.0519 H   0  0  0  0  0  0  0  0  0  0  0  0
   -3.0978    0.3601    0.8977 H   0  0  0  0  0  0  0  0  0  0  0  0
   -1.7625   -0.5375    1.7569 H   0  0  0  0  0  0  0  0  0  0  0  0
   -2.3136   -0.5589   -1.2696 H   0  0  0  0  0  0  0  0  0  0  0  0
   -1.0858    0.3972   -0.4362 H   0  0  0  0  0  0  0  0  0  0  0  0
   -1.3570   -2.6682   -0.4510 H   0  0  0  0  0  0  0  0  0  0  0  0
   -0.2792   -1.7327   -1.4833 H   0  0  0  0  0  0  0  0  0  0  0  0
   -0.2921   -1.9486    1.5723 H   0  0  0  0  0  0  0  0  0  0  0  0
    0.8542   -2.7853    0.4206 H   0  0  0  0  0  0  0  0  0  0  0  0
    1.8944   -0.9517    1.5939 H   0  0  0  0  0  0  0  0  0  0  0  0
    0.6575    0.1943    1.0596 H   0  0  0  0  0  0  0  0  0  0  0  0
    1.3380   -0.2649   -1.3234 H   0  0  0  0  0  0  0  0  0  0  0  0
    2.6406   -1.3545   -0.7489 H   0  0  0  0  0  0  0  0  0  0  0  0
    2.4015    1.6128   -0.1610 H   0  0  0  0  0  0  0  0  0  0  0  0
    3.5648    0.8527   -1.2681 H   0  0  0  0  0  0  0  0  0  0  0  0
    6.2262    0.8832    2.2228 H   0  0  0  0  0  0  0  0  0  0  0  0
    5.7666   -0.8906    2.1932 H   0  0  0  0  0  0  0  0  0  0  0  0
    8.2231   -0.5426    1.8215 H   0  0  0  0  0  0  0  0  0  0  0  0
    7.8580    1.7661    0.6440 H   0  0  0  0  0  0  0  0  0  0  0  0
    7.1223    0.8589   -0.6779 H   0  0  0  0  0  0  0  0  0  0  0  0
    8.5825    3.7628   -1.0669 H   0  0  0  0  0  0  0  0  0  0  0  0
   11.0347    1.1998   -3.0976 H   0  0  0  0  0  0  0  0  0  0  0  0
    6.9143   -1.3265   -0.6080 H   0  0  0  0  0  0  0  0  0  0  0  0
  1  2  1  0
  2  3  1  0
  3  4  1  0
  4  5  1  0
  5  6  1  0
  6  7  1  0
  7  8  1  0
  8  9  1  0
  9 10  1  0
 10 11  1  0
 11 12  1  0
 12 13  1  0
 13 14  1  0
 14 15  1  0
 15 16  1  0
 16 17  2  0
 16 18  1  0
 18 19  1  0
 19 20  1  0
 20 21  1  0
 21 22  1  0
 22 23  1  0
 23 24  2  0
 23 25  1  0
 23 26  1  0
 20 27  1  0
  1 28  1  0
  1 29  1  0
  1 30  1  0
  2 31  1  0
  2 32  1  0
  3 33  1  0
  3 34  1  0
  4 35  1  0
  4 36  1  0
  5 37  1  0
  5 38  1  0
  6 39  1  0
  6 40  1  0
  7 41  1  0
  7 42  1  0
  8 43  1  0
  8 44  1  0
  9 45  1  0
  9 46  1  0
 10 47  1  0
 10 48  1  0
 11 49  1  0
 11 50  1  0
 12 51  1  0
 12 52  1  0
 13 53  1  0
 13 54  1  0
 14 55  1  0
 14 56  1  0
 15 57  1  0
 15 58  1  0
 19 59  1  0
 19 60  1  0
 20 61  1  1
 21 62  1  0
 21 63  1  0
 25 64  1  0
 26 65  1  0
 27 66  1  0
M  END
>  <Ligand ID>  (1) 
LIG0000693

>  <Ligand>  (1) 
1-Hexadecanoyl-sn-glycero-3-phosphate

>  <SMILES>  (1) 
CCCCCCCCCCCCCCCC(=O)OC[C@H](COP(=O)(O)O)O

>  <CID>  (1) 
6419701.0

>  <ChEMBL ID>  (1) 
nan

>  <InChiKey>  (1) 
YNDYKPRNFWPPFU-GOSISDBHSA-N

>  <InChi>  (1) 
InChI=1S/C19H39O7P/c1-2-3-4-5-6-7-8-9-10-11-12-13-14-15-19(21)25-16-18(20)17-26-27(22,23)24/h18,20H,2-17H2,1H3,(H2,22,23,24)/t18-/m1/s1

>  <IUPAC Name>  (1) 
[(2R)-2-hydroxy-3-phosphonooxypropyl] hexadecanoate

$$$$
