
     RDKit          3D

 47 50  0  0  0  0  0  0  0  0999 V2000
    4.7380    1.5098    2.6062 C   0  0  0  0  0  0  0  0  0  0  0  0
    3.8411    0.7851    1.6554 C   0  0  0  0  0  0  0  0  0  0  0  0
    2.6922    0.4886    2.0881 O   0  0  0  0  0  0  0  0  0  0  0  0
    4.3006    0.4891    0.3994 O   0  0  0  0  0  0  0  0  0  0  0  0
    3.5077   -0.1880   -0.5349 C   0  0  0  0  0  0  0  0  0  0  0  0
    2.7225    0.6093   -1.3461 C   0  0  0  0  0  0  0  0  0  0  0  0
    1.9225   -0.0104   -2.2838 C   0  0  0  0  0  0  0  0  0  0  0  0
    1.8978   -1.4028   -2.4193 C   0  0  0  0  0  0  0  0  0  0  0  0
    2.6976   -2.1568   -1.5883 C   0  0  0  0  0  0  0  0  0  0  0  0
    3.5105   -1.5697   -0.6389 C   0  0  0  0  0  0  0  0  0  0  0  0
    1.0066   -1.9686   -3.4533 C   0  0  0  0  0  0  0  0  0  0  0  0
   -0.6534   -2.3211   -2.8387 S   0  0  0  0  0  0  0  0  0  0  0  0
   -1.5165   -0.8088   -2.3815 C   0  0  0  0  0  0  0  0  0  0  0  0
   -2.2568   -0.0921   -3.2427 N   0  0  0  0  0  0  0  0  0  0  0  0
   -2.7301    0.9427   -2.5438 N   0  0  0  0  0  0  0  0  0  0  0  0
   -2.2978    0.8787   -1.2721 C   0  0  0  0  0  0  0  0  0  0  0  0
   -1.5330   -0.2176   -1.1518 N   0  0  0  0  0  0  0  0  0  0  0  0
   -0.8774   -0.6718    0.0391 C   0  0  0  0  0  0  0  0  0  0  0  0
   -1.7636   -1.6018    0.8252 C   0  0  0  0  0  0  0  0  0  0  0  0
   -1.8253   -2.9917    0.6696 C   0  0  0  0  0  0  0  0  0  0  0  0
   -2.7654   -3.4841    1.5819 C   0  0  0  0  0  0  0  0  0  0  0  0
   -3.2187   -2.3589    2.2380 C   0  0  0  0  0  0  0  0  0  0  0  0
   -2.6158   -1.2826    1.7735 O   0  0  0  0  0  0  0  0  0  0  0  0
   -2.6492    1.8753   -0.2710 C   0  0  0  0  0  0  0  0  0  0  0  0
   -1.6360    2.5970    0.3567 C   0  0  0  0  0  0  0  0  0  0  0  0
   -1.9067    3.5579    1.3157 C   0  0  0  0  0  0  0  0  0  0  0  0
   -3.2272    3.7905    1.6432 C   0  0  0  0  0  0  0  0  0  0  0  0
   -4.2376    3.0769    1.0231 C   0  0  0  0  0  0  0  0  0  0  0  0
   -3.9249    2.1426    0.0870 N   0  0  0  0  0  0  0  0  0  0  0  0
    5.7752    1.1627    2.3807 H   0  0  0  0  0  0  0  0  0  0  0  0
    4.6870    2.5957    2.3647 H   0  0  0  0  0  0  0  0  0  0  0  0
    4.4733    1.3038    3.6604 H   0  0  0  0  0  0  0  0  0  0  0  0
    2.7353    1.6934   -1.2476 H   0  0  0  0  0  0  0  0  0  0  0  0
    1.2914    0.5897   -2.9374 H   0  0  0  0  0  0  0  0  0  0  0  0
    2.6775   -3.2356   -1.6937 H   0  0  0  0  0  0  0  0  0  0  0  0
    4.1434   -2.1535    0.0201 H   0  0  0  0  0  0  0  0  0  0  0  0
    0.9052   -1.3082   -4.3380 H   0  0  0  0  0  0  0  0  0  0  0  0
    1.3962   -2.9312   -3.8592 H   0  0  0  0  0  0  0  0  0  0  0  0
   -0.0060   -1.2884   -0.2571 H   0  0  0  0  0  0  0  0  0  0  0  0
   -0.4696    0.1217    0.6867 H   0  0  0  0  0  0  0  0  0  0  0  0
   -1.2379   -3.5914   -0.0437 H   0  0  0  0  0  0  0  0  0  0  0  0
   -3.0595   -4.5111    1.7279 H   0  0  0  0  0  0  0  0  0  0  0  0
   -3.9800   -2.4079    3.0323 H   0  0  0  0  0  0  0  0  0  0  0  0
   -0.5869    2.4457    0.1285 H   0  0  0  0  0  0  0  0  0  0  0  0
   -1.1229    4.1221    1.8067 H   0  0  0  0  0  0  0  0  0  0  0  0
   -3.5309    4.5231    2.3796 H   0  0  0  0  0  0  0  0  0  0  0  0
   -5.2926    3.2527    1.2741 H   0  0  0  0  0  0  0  0  0  0  0  0
  1  2  1  0
  2  3  2  0
  2  4  1  0
  4  5  1  0
  5  6  2  0
  6  7  1  0
  7  8  2  0
  8  9  1  0
  9 10  2  0
  8 11  1  0
 11 12  1  0
 12 13  1  0
 13 14  2  0
 14 15  1  0
 15 16  2  0
 16 17  1  0
 17 18  1  0
 18 19  1  0
 19 20  2  0
 20 21  1  0
 21 22  2  0
 22 23  1  0
 16 24  1  0
 24 25  2  0
 25 26  1  0
 26 27  2  0
 27 28  1  0
 28 29  2  0
 10  5  1  0
 17 13  1  0
 23 19  1  0
 29 24  1  0
  1 30  1  0
  1 31  1  0
  1 32  1  0
  6 33  1  0
  7 34  1  0
  9 35  1  0
 10 36  1  0
 11 37  1  0
 11 38  1  0
 18 39  1  0
 18 40  1  0
 20 41  1  0
 21 42  1  0
 22 43  1  0
 25 44  1  0
 26 45  1  0
 27 46  1  0
 28 47  1  0
M  END
>  <Ligand ID>  (1) 
LIG0003364

>  <Ligand>  (1) 
KUC104180N

>  <SMILES>  (1) 
CC(=O)Oc1ccc(cc1)CSc1nnc(n1Cc1ccco1)c1ccccn1

>  <CID>  (1) 
44620915.0

>  <ChEMBL ID>  (1) 
nan

>  <InChiKey>  (1) 
RAKSDDMORMGWQQ-UHFFFAOYSA-N

>  <InChi>  (1) 
InChI=1S/C21H18N4O3S/c1-15(26)28-17-9-7-16(8-10-17)14-29-21-24-23-20(19-6-2-3-11-22-19)25(21)13-18-5-4-12-27-18/h2-12H,13-14H2,1H3

>  <IUPAC Name>  (1) 
[4-[[4-(furan-2-ylmethyl)-5-pyridin-2-yl-1,2,4-triazol-3-yl]sulfanylmethyl]phenyl] acetate

$$$$
