
     RDKit          3D

 70 74  0  0  0  0  0  0  0  0999 V2000
    3.0827    2.2841   -0.6934 C   0  0  0  0  0  0  0  0  0  0  0  0
    2.9599    0.7712   -0.5444 C   0  0  0  0  0  0  0  0  0  0  0  0
    3.6688    0.2254   -1.7411 C   0  0  0  0  0  0  0  0  0  0  0  0
    5.0855    0.7227   -1.8584 C   0  0  0  0  0  0  0  0  0  0  0  0
    6.0936   -0.2681   -1.2952 C   0  0  0  0  0  0  0  0  0  0  0  0
    6.4429    0.1014    0.1207 C   0  0  0  0  0  0  0  0  0  0  0  0
    5.7666   -0.7743    1.1349 C   0  0  0  0  0  0  0  0  0  0  0  0
    4.2651   -0.9063    0.8439 C   0  0  0  0  0  0  0  0  0  0  0  0
    3.5960    0.4203    0.7550 C   0  0  0  0  0  0  0  0  0  0  0  0
    1.5498    0.5361   -0.6163 N   0  0  0  0  0  0  0  0  0  0  0  0
    0.7756    1.1779    0.3791 C   0  0  0  0  0  0  0  0  0  0  0  0
   -0.2433    0.1600    0.9126 C   0  0  0  0  0  0  0  0  0  0  0  0
   -1.1767   -0.0788   -0.2831 C   0  0  0  0  0  0  0  0  0  0  0  0
   -0.3312   -0.7588   -1.3276 C   0  0  0  0  0  0  0  0  0  0  0  0
    1.1472   -0.7700   -0.9870 C   0  0  0  0  0  0  0  0  0  0  0  0
   -2.3623   -0.7654    0.0894 N   0  0  0  0  0  0  0  0  0  0  0  0
   -3.6185   -0.2853    0.1161 C   0  0  0  0  0  0  0  0  0  0  0  0
   -4.4446   -1.2771    0.5318 N   0  0  0  0  0  0  0  0  0  0  0  0
   -3.7558   -2.3859    0.7748 C   0  0  0  0  0  0  0  0  0  0  0  0
   -2.4262   -2.0566    0.4916 C   0  0  0  0  0  0  0  0  0  0  0  0
   -1.5126   -3.0744    0.6760 C   0  0  0  0  0  0  0  0  0  0  0  0
   -1.8659   -4.3363    1.1092 C   0  0  0  0  0  0  0  0  0  0  0  0
   -3.1746   -4.6262    1.3775 C   0  0  0  0  0  0  0  0  0  0  0  0
   -4.1196   -3.6393    1.2068 C   0  0  0  0  0  0  0  0  0  0  0  0
   -4.1294    1.0655   -0.2243 C   0  0  2  0  0  0  0  0  0  0  0  0
   -4.7853    1.7417    0.9424 C   0  0  0  0  0  0  0  0  0  0  0  0
   -5.9879    2.5491    0.6527 C   0  0  0  0  0  0  0  0  0  0  0  0
   -6.4732    2.5886   -0.7487 C   0  0  0  0  0  0  0  0  0  0  0  0
   -5.4720    2.2948   -1.7505 N   0  0  0  0  0  0  0  0  0  0  0  0
   -5.0075    0.9513   -1.4465 C   0  0  0  0  0  0  0  0  0  0  0  0
    3.2080    2.6044   -1.7433 H   0  0  0  0  0  0  0  0  0  0  0  0
    3.9452    2.6743   -0.1041 H   0  0  0  0  0  0  0  0  0  0  0  0
    2.1967    2.8217   -0.3180 H   0  0  0  0  0  0  0  0  0  0  0  0
    3.1173    0.6239   -2.6368 H   0  0  0  0  0  0  0  0  0  0  0  0
    3.6910   -0.8514   -1.8619 H   0  0  0  0  0  0  0  0  0  0  0  0
    5.2632    1.6837   -1.3698 H   0  0  0  0  0  0  0  0  0  0  0  0
    5.3379    0.8653   -2.9492 H   0  0  0  0  0  0  0  0  0  0  0  0
    7.0260   -0.2126   -1.9131 H   0  0  0  0  0  0  0  0  0  0  0  0
    5.7436   -1.3118   -1.3323 H   0  0  0  0  0  0  0  0  0  0  0  0
    7.5376   -0.0204    0.2742 H   0  0  0  0  0  0  0  0  0  0  0  0
    6.2450    1.1820    0.2596 H   0  0  0  0  0  0  0  0  0  0  0  0
    6.1951   -1.7820    1.0794 H   0  0  0  0  0  0  0  0  0  0  0  0
    5.9094   -0.2944    2.1301 H   0  0  0  0  0  0  0  0  0  0  0  0
    3.8919   -1.5123    1.7170 H   0  0  0  0  0  0  0  0  0  0  0  0
    4.1741   -1.5694   -0.0145 H   0  0  0  0  0  0  0  0  0  0  0  0
    4.3634    1.1956    1.0478 H   0  0  0  0  0  0  0  0  0  0  0  0
    2.8494    0.4821    1.5828 H   0  0  0  0  0  0  0  0  0  0  0  0
    1.2893    1.7266    1.1616 H   0  0  0  0  0  0  0  0  0  0  0  0
    0.1413    1.9464   -0.1537 H   0  0  0  0  0  0  0  0  0  0  0  0
    0.2487   -0.7489    1.2548 H   0  0  0  0  0  0  0  0  0  0  0  0
   -0.8399    0.5688    1.7411 H   0  0  0  0  0  0  0  0  0  0  0  0
   -1.3979    0.9414   -0.6541 H   0  0  0  0  0  0  0  0  0  0  0  0
   -0.3830   -0.1882   -2.3021 H   0  0  0  0  0  0  0  0  0  0  0  0
   -0.7113   -1.7723   -1.6189 H   0  0  0  0  0  0  0  0  0  0  0  0
    1.3833   -1.5534   -0.2443 H   0  0  0  0  0  0  0  0  0  0  0  0
    1.6628   -1.0592   -1.9279 H   0  0  0  0  0  0  0  0  0  0  0  0
   -0.4646   -2.8998    0.4789 H   0  0  0  0  0  0  0  0  0  0  0  0
   -1.1113   -5.0918    1.2356 H   0  0  0  0  0  0  0  0  0  0  0  0
   -3.4236   -5.6054    1.7101 H   0  0  0  0  0  0  0  0  0  0  0  0
   -5.1452   -3.8352    1.4075 H   0  0  0  0  0  0  0  0  0  0  0  0
   -3.2644    1.6850   -0.5261 H   0  0  0  0  0  0  0  0  0  0  0  0
   -4.0200    2.3399    1.5159 H   0  0  0  0  0  0  0  0  0  0  0  0
   -5.0653    0.9337    1.6674 H   0  0  0  0  0  0  0  0  0  0  0  0
   -5.7861    3.6210    0.9477 H   0  0  0  0  0  0  0  0  0  0  0  0
   -6.8492    2.2700    1.3271 H   0  0  0  0  0  0  0  0  0  0  0  0
   -7.2989    1.8424   -0.9027 H   0  0  0  0  0  0  0  0  0  0  0  0
   -6.9223    3.5715   -1.0303 H   0  0  0  0  0  0  0  0  0  0  0  0
   -5.9733    2.2779   -2.6706 H   0  0  0  0  0  0  0  0  0  0  0  0
   -4.4161    0.5022   -2.2436 H   0  0  0  0  0  0  0  0  0  0  0  0
   -5.8948    0.3613   -1.1286 H   0  0  0  0  0  0  0  0  0  0  0  0
  1  2  1  0
  2  3  1  0
  3  4  1  0
  4  5  1  0
  5  6  1  0
  6  7  1  0
  7  8  1  0
  8  9  1  0
  2 10  1  0
 10 11  1  0
 11 12  1  0
 12 13  1  0
 13 14  1  0
 14 15  1  0
 13 16  1  0
 16 17  1  0
 17 18  2  0
 18 19  1  0
 19 20  2  0
 20 21  1  0
 21 22  2  0
 22 23  1  0
 23 24  2  0
 17 25  1  0
 25 26  1  0
 26 27  1  0
 27 28  1  0
 28 29  1  0
 29 30  1  0
  9  2  1  0
 15 10  1  0
 20 16  1  0
 30 25  1  0
 24 19  1  0
  1 31  1  0
  1 32  1  0
  1 33  1  0
  3 34  1  0
  3 35  1  0
  4 36  1  0
  4 37  1  0
  5 38  1  0
  5 39  1  0
  6 40  1  0
  6 41  1  0
  7 42  1  0
  7 43  1  0
  8 44  1  0
  8 45  1  0
  9 46  1  0
  9 47  1  0
 11 48  1  0
 11 49  1  0
 12 50  1  0
 12 51  1  0
 13 52  1  0
 14 53  1  0
 14 54  1  0
 15 55  1  0
 15 56  1  0
 21 57  1  0
 22 58  1  0
 23 59  1  0
 24 60  1  0
 25 61  1  6
 26 62  1  0
 26 63  1  0
 27 64  1  0
 27 65  1  0
 28 66  1  0
 28 67  1  0
 29 68  1  0
 30 69  1  0
 30 70  1  0
M  END
>  <Ligand ID>  (1) 
LIG0001663

>  <Ligand>  (1) 
MCOPPB

>  <SMILES>  (1) 
CC1(CCCCCCC1)N1CCC(CC1)n1c(nc2c1cccc2)[C@@H]1CCCNC1

>  <CID>  (1) 
24800108.0

>  <ChEMBL ID>  (1) 
nan

>  <InChiKey>  (1) 
CYYNMPPFEJPBJD-OAQYLSRUSA-N

>  <InChi>  (1) 
InChI=1S/C26H40N4/c1-26(15-7-3-2-4-8-16-26)29-18-13-22(14-19-29)30-24-12-6-5-11-23(24)28-25(30)21-10-9-17-27-20-21/h5-6,11-12,21-22,27H,2-4,7-10,13-20H2,1H3/t21-/m1/s1

>  <IUPAC Name>  (1) 
1-[1-(1-methylcyclooctyl)piperidin-4-yl]-2-[(3R)-piperidin-3-yl]benzimidazole

$$$$
