
     RDKit          3D

 39 39  0  0  0  0  0  0  0  0999 V2000
   -3.4720    0.8120    0.4511 C   0  0  0  0  0  0  0  0  0  0  0  0
   -2.1820    0.0411    0.1902 C   0  0  1  0  0  0  0  0  0  0  0  0
   -1.2857    0.7520   -0.7675 C   0  0  0  0  0  0  0  0  0  0  0  0
   -0.0838   -0.0508   -0.9579 N   0  0  0  0  0  0  0  0  0  0  0  0
    0.0858   -1.0053   -1.8964 C   0  0  0  0  0  0  0  0  0  0  0  0
    1.3709   -1.5394   -1.7486 C   0  0  0  0  0  0  0  0  0  0  0  0
    1.9697   -0.8658   -0.6799 C   0  0  0  0  0  0  0  0  0  0  0  0
    1.0447    0.0560   -0.2039 C   0  0  0  0  0  0  0  0  0  0  0  0
    1.3598    0.8868    0.8747 C   0  0  0  0  0  0  0  0  0  0  0  0
    2.6209    0.7662    1.4571 C   0  0  0  0  0  0  0  0  0  0  0  0
    3.0069    1.8129    2.8099 Cl  0  0  0  0  0  0  0  0  0  0  0  0
    3.5408   -0.1628    0.9704 C   0  0  0  0  0  0  0  0  0  0  0  0
    3.2213   -0.9861   -0.1026 C   0  0  0  0  0  0  0  0  0  0  0  0
    4.7745   -0.2572    1.5658 F   0  0  0  0  0  0  0  0  0  0  0  0
   -1.5758   -0.2535    1.4513 N   0  0  0  0  0  0  0  0  0  0  0  0
    2.4752    0.0140    0.8105 O   0  0  0  0  0  0  0  0  0  0  0  0
    1.8106    0.3285   -0.3657 C   0  0  0  0  0  0  0  0  0  0  0  0
    2.5000    0.7794   -1.3165 O   0  0  0  0  0  0  0  0  0  0  0  0
    0.3716    0.1481   -0.5063 C   0  0  0  0  0  0  0  0  0  0  0  0
   -0.3457   -0.3214    0.4843 C   0  0  0  0  0  0  0  0  0  0  0  0
   -1.7848   -0.4891    0.3083 C   0  0  0  0  0  0  0  0  0  0  0  0
   -2.5173   -0.9385    1.2358 O   0  0  0  0  0  0  0  0  0  0  0  0
   -2.4008   -0.1621   -0.8811 O   0  0  0  0  0  0  0  0  0  0  0  0
   -4.2045    0.6977   -0.3500 H   0  0  0  0  0  0  0  0  0  0  0  0
   -3.2379    1.9039    0.5404 H   0  0  0  0  0  0  0  0  0  0  0  0
   -3.9417    0.4912    1.4026 H   0  0  0  0  0  0  0  0  0  0  0  0
   -2.5111   -0.9147   -0.2904 H   0  0  0  0  0  0  0  0  0  0  0  0
   -1.0907    1.7955   -0.5142 H   0  0  0  0  0  0  0  0  0  0  0  0
   -1.8237    0.7851   -1.7510 H   0  0  0  0  0  0  0  0  0  0  0  0
   -0.6147   -1.3383   -2.6536 H   0  0  0  0  0  0  0  0  0  0  0  0
    1.8266   -2.3248   -2.3422 H   0  0  0  0  0  0  0  0  0  0  0  0
    0.6220    1.5939    1.2239 H   0  0  0  0  0  0  0  0  0  0  0  0
    3.9309   -1.7201   -0.4968 H   0  0  0  0  0  0  0  0  0  0  0  0
   -1.9048    0.2986    2.2578 H   0  0  0  0  0  0  0  0  0  0  0  0
   -1.4465   -1.2738    1.6231 H   0  0  0  0  0  0  0  0  0  0  0  0
    3.2543    0.6075    1.1400 H   0  0  0  0  0  0  0  0  0  0  0  0
   -0.1025    0.4035   -1.4319 H   0  0  0  0  0  0  0  0  0  0  0  0
    0.0929   -0.5950    1.4451 H   0  0  0  0  0  0  0  0  0  0  0  0
   -3.3536    0.2252   -0.9225 H   0  0  0  0  0  0  0  0  0  0  0  0
  1  2  1  0
  2  3  1  0
  3  4  1  0
  4  5  1  0
  5  6  2  0
  6  7  1  0
  7  8  2  0
  8  9  1  0
  9 10  2  0
 10 11  1  0
 10 12  1  0
 12 13  2  0
 12 14  1  0
  2 15  1  0
 16 17  1  0
 17 18  2  0
 17 19  1  0
 19 20  2  0
 20 21  1  0
 21 22  2  0
 21 23  1  0
  8  4  1  0
 13  7  1  0
  1 24  1  0
  1 25  1  0
  1 26  1  0
  2 27  1  6
  3 28  1  0
  3 29  1  0
  5 30  1  0
  6 31  1  0
  9 32  1  0
 13 33  1  0
 15 34  1  0
 15 35  1  0
 16 36  1  0
 19 37  1  0
 20 38  1  0
 23 39  1  0
M  END
>  <Ligand ID>  (1) 
LIG0005227

>  <Ligand>  (1) 
Ro 60-0175 fumarate

>  <SMILES>  (1) 
C[C@@H](Cn1ccc2c1cc(Cl)c(c2)F)N.OC(=O)/C=C/C(=O)O

>  <CID>  (1) 
6446435.0

>  <ChEMBL ID>  (1) 
nan

>  <InChiKey>  (1) 
CEPHEXXZGQBXGT-XZTIXWOLSA-N

>  <InChi>  (1) 
InChI=1S/C11H12ClFN2.C4H4O4/c1-7(14)6-15-3-2-8-4-10(13)9(12)5-11(8)15;5-3(6)1-2-4(7)8/h2-5,7H,6,14H2,1H3;1-2H,(H,5,6)(H,7,8)/b;2-1+/t7-;/m0./s1

>  <IUPAC Name>  (1) 
(E)-but-2-enedioic acid;(2S)-1-(6-chloro-5-fluoroindol-1-yl)propan-2-amine

$$$$
