
     RDKit          3D

131132  0  0  0  0  0  0  0  0999 V2000
   -9.5821   -2.4165    0.0887 C   0  0  0  0  0  0  0  0  0  0  0  0
   -8.7069   -1.5731   -0.8119 C   0  0  0  0  0  0  0  0  0  0  0  0
   -7.3118   -2.0788   -0.9203 C   0  0  1  0  0  0  0  0  0  0  0  0
   -6.5882   -2.1322    0.3668 C   0  0  2  0  0  0  0  0  0  0  0  0
   -6.4027   -0.8817    1.0638 N   0  0  0  0  0  0  0  0  0  0  0  0
   -5.4342    0.1103    0.6431 C   0  0  0  0  0  0  0  0  0  0  0  0
   -4.8809   -0.1396   -0.4346 O   0  0  0  0  0  0  0  0  0  0  0  0
   -5.1189    1.3174    1.4161 C   0  0  1  0  0  0  0  0  0  0  0  0
   -3.8771    1.9637    0.9550 N   0  0  0  0  0  0  0  0  0  0  0  0
   -2.9566    2.3351    1.9509 C   0  0  0  0  0  0  0  0  0  0  0  0
   -3.2748    2.1732    3.1285 O   0  0  0  0  0  0  0  0  0  0  0  0
   -1.5865    2.9349    1.7025 C   0  0  0  0  0  0  0  0  0  0  0  0
   -1.1554    3.5093    3.0153 C   0  0  0  0  0  0  0  0  0  0  0  0
    0.1535    4.1852    3.1391 C   0  0  0  0  0  0  0  0  0  0  0  0
    1.6629    3.3433    3.0468 S   0  0  0  0  0  0  0  0  0  0  0  0
    2.3891    2.6813    1.6309 C   0  0  0  0  0  0  0  0  0  0  0  0
    1.8126    1.4997    0.9352 C   0  0  2  0  0  0  0  0  0  0  0  0
    1.6647    0.4069    1.8997 N   0  0  0  0  0  0  0  0  0  0  0  0
    0.7818   -0.6273    1.5437 C   0  0  0  0  0  0  0  0  0  0  0  0
    0.2403   -0.5530    0.4353 O   0  0  0  0  0  0  0  0  0  0  0  0
    0.4342   -1.8262    2.3873 C   0  0  1  0  0  0  0  0  0  0  0  0
   -0.3941   -2.7123    1.5248 N   0  0  0  0  0  0  0  0  0  0  0  0
   -1.7624   -2.4192    1.3775 C   0  0  0  0  0  0  0  0  0  0  0  0
   -2.1708   -1.4740    2.1105 O   0  0  0  0  0  0  0  0  0  0  0  0
   -2.7472   -3.0549    0.5074 C   0  0  1  0  0  0  0  0  0  0  0  0
   -4.0635   -2.3963    0.7834 N   0  0  0  0  0  0  0  0  0  0  0  0
   -5.2673   -2.8574    0.2099 C   0  0  0  0  0  0  0  0  0  0  0  0
   -5.1641   -3.9186   -0.4372 O   0  0  0  0  0  0  0  0  0  0  0  0
   -2.4823   -2.7889   -0.9889 C   0  0  0  0  0  0  0  0  0  0  0  0
   -1.1624   -3.2944   -1.4643 C   0  0  0  0  0  0  0  0  0  0  0  0
   -0.9947   -4.7622   -1.3026 C   0  0  0  0  0  0  0  0  0  0  0  0
   -1.8821   -5.5322   -0.8733 O   0  0  0  0  0  0  0  0  0  0  0  0
    0.2865   -5.2990   -1.6744 N   0  0  0  0  0  0  0  0  0  0  0  0
    1.5839   -2.5636    2.9338 C   0  0  0  0  0  0  0  0  0  0  0  0
    1.1164   -3.7286    3.7473 C   0  0  0  0  0  0  0  0  0  0  0  0
    0.5067   -3.4875    4.8391 O   0  0  0  0  0  0  0  0  0  0  0  0
    1.3449   -5.0855    3.3116 N   0  0  0  0  0  0  0  0  0  0  0  0
    2.9222    1.0621   -0.0382 C   0  0  0  0  0  0  0  0  0  0  0  0
    3.3681   -0.0940    0.2272 O   0  0  0  0  0  0  0  0  0  0  0  0
    3.3573    1.8777   -1.0794 N   0  0  0  0  0  0  0  0  0  0  0  0
    4.4203    1.3733   -1.9566 C   0  0  0  0  0  0  0  0  0  0  0  0
    5.6210    1.0952   -1.1468 C   0  0  0  0  0  0  0  0  0  0  0  0
    5.5838    1.3042    0.0923 O   0  0  0  0  0  0  0  0  0  0  0  0
    6.8434    0.5974   -1.6753 N   0  0  0  0  0  0  0  0  0  0  0  0
    7.9989    0.3455   -0.7773 C   0  0  2  0  0  0  0  0  0  0  0  0
    9.0174    1.3290   -1.1467 C   0  0  0  0  0  0  0  0  0  0  0  0
    8.7949    2.0254   -2.1963 O   0  0  0  0  0  0  0  0  0  0  0  0
   10.2176    1.5944   -0.4669 N   0  0  0  0  0  0  0  0  0  0  0  0
   11.1311    2.6004   -0.9591 C   0  0  0  0  0  0  0  0  0  0  0  0
   11.6175    2.2857   -2.3395 C   0  0  0  0  0  0  0  0  0  0  0  0
   11.2575    1.2590   -2.9656 O   0  0  0  0  0  0  0  0  0  0  0  0
   12.5257    3.2286   -2.9150 N   0  0  0  0  0  0  0  0  0  0  0  0
    8.4450   -1.0455   -1.0710 C   0  0  0  0  0  0  0  0  0  0  0  0
    9.6056   -1.5545   -0.2957 C   0  0  0  0  0  0  0  0  0  0  0  0
    9.3223   -1.5339    1.1899 C   0  0  0  0  0  0  0  0  0  0  0  0
    9.8013   -3.0242   -0.6929 C   0  0  0  0  0  0  0  0  0  0  0  0
   -6.1769    2.3552    1.5237 C   0  0  0  0  0  0  0  0  0  0  0  0
   -6.6720    2.9341    0.2697 C   0  0  0  0  0  0  0  0  0  0  0  0
   -6.0971    4.0012   -0.3871 C   0  0  0  0  0  0  0  0  0  0  0  0
   -6.6797    4.4760   -1.5701 C   0  0  0  0  0  0  0  0  0  0  0  0
   -7.8160    3.8991   -2.0920 C   0  0  0  0  0  0  0  0  0  0  0  0
   -8.3995    2.8297   -1.4418 C   0  0  0  0  0  0  0  0  0  0  0  0
   -7.8111    2.3832   -0.2855 C   0  0  0  0  0  0  0  0  0  0  0  0
   -8.4356    4.3266   -3.2574 O   0  0  0  0  0  0  0  0  0  0  0  0
   -7.9803    5.3970   -4.0397 C   0  0  0  0  0  0  0  0  0  0  0  0
   -7.3572   -3.4756   -1.5239 C   0  0  0  0  0  0  0  0  0  0  0  0
  -10.6425   -2.4043   -0.2968 H   0  0  0  0  0  0  0  0  0  0  0  0
   -9.6578   -1.8648    1.0574 H   0  0  0  0  0  0  0  0  0  0  0  0
   -9.2681   -3.4521    0.2002 H   0  0  0  0  0  0  0  0  0  0  0  0
   -9.1607   -1.7106   -1.8430 H   0  0  0  0  0  0  0  0  0  0  0  0
   -8.8452   -0.5229   -0.5871 H   0  0  0  0  0  0  0  0  0  0  0  0
   -6.8007   -1.4370   -1.6859 H   0  0  0  0  0  0  0  0  0  0  0  0
   -7.1619   -2.7862    1.0793 H   0  0  0  0  0  0  0  0  0  0  0  0
   -6.9324   -0.6007    1.8892 H   0  0  0  0  0  0  0  0  0  0  0  0
   -4.9255    0.9686    2.4945 H   0  0  0  0  0  0  0  0  0  0  0  0
   -3.6381    2.1607   -0.0051 H   0  0  0  0  0  0  0  0  0  0  0  0
   -1.5782    3.6392    0.8756 H   0  0  0  0  0  0  0  0  0  0  0  0
   -0.9623    2.0576    1.4469 H   0  0  0  0  0  0  0  0  0  0  0  0
   -1.2193    2.6965    3.8184 H   0  0  0  0  0  0  0  0  0  0  0  0
   -1.9283    4.2920    3.3567 H   0  0  0  0  0  0  0  0  0  0  0  0
    0.1662    5.0828    2.3988 H   0  0  0  0  0  0  0  0  0  0  0  0
    0.1165    4.7992    4.1324 H   0  0  0  0  0  0  0  0  0  0  0  0
    2.6459    3.4929    0.8569 H   0  0  0  0  0  0  0  0  0  0  0  0
    3.4684    2.3530    1.9064 H   0  0  0  0  0  0  0  0  0  0  0  0
    0.9739    1.6353    0.2664 H   0  0  0  0  0  0  0  0  0  0  0  0
    2.1388    0.3329    2.7893 H   0  0  0  0  0  0  0  0  0  0  0  0
   -0.2047   -1.3658    3.1876 H   0  0  0  0  0  0  0  0  0  0  0  0
   -0.0189   -3.5247    1.0669 H   0  0  0  0  0  0  0  0  0  0  0  0
   -2.8968   -4.1146    0.6159 H   0  0  0  0  0  0  0  0  0  0  0  0
   -4.0869   -1.6375    1.4388 H   0  0  0  0  0  0  0  0  0  0  0  0
   -3.2787   -3.2130   -1.6028 H   0  0  0  0  0  0  0  0  0  0  0  0
   -2.4364   -1.6632   -1.0968 H   0  0  0  0  0  0  0  0  0  0  0  0
   -0.2825   -2.7828   -1.0644 H   0  0  0  0  0  0  0  0  0  0  0  0
   -1.1090   -3.0796   -2.5954 H   0  0  0  0  0  0  0  0  0  0  0  0
    0.5249   -5.4406   -2.6793 H   0  0  0  0  0  0  0  0  0  0  0  0
    0.9808   -5.5488   -0.9132 H   0  0  0  0  0  0  0  0  0  0  0  0
    2.2509   -2.9800    2.1579 H   0  0  0  0  0  0  0  0  0  0  0  0
    2.2155   -1.8862    3.5732 H   0  0  0  0  0  0  0  0  0  0  0  0
    2.3309   -5.3865    3.0977 H   0  0  0  0  0  0  0  0  0  0  0  0
    0.5133   -5.6796    3.2366 H   0  0  0  0  0  0  0  0  0  0  0  0
    2.9293    2.8224   -1.2223 H   0  0  0  0  0  0  0  0  0  0  0  0
    4.6436    2.0863   -2.7690 H   0  0  0  0  0  0  0  0  0  0  0  0
    4.0328    0.4385   -2.3852 H   0  0  0  0  0  0  0  0  0  0  0  0
    6.9058    0.4151   -2.6951 H   0  0  0  0  0  0  0  0  0  0  0  0
    7.6374    0.5203    0.2513 H   0  0  0  0  0  0  0  0  0  0  0  0
   10.4625    1.0922    0.3965 H   0  0  0  0  0  0  0  0  0  0  0  0
   12.0224    2.6974   -0.3073 H   0  0  0  0  0  0  0  0  0  0  0  0
   10.6297    3.6020   -1.0073 H   0  0  0  0  0  0  0  0  0  0  0  0
   13.4452    2.9637   -3.2927 H   0  0  0  0  0  0  0  0  0  0  0  0
   12.2064    4.2239   -2.9372 H   0  0  0  0  0  0  0  0  0  0  0  0
    8.6842   -1.0920   -2.1692 H   0  0  0  0  0  0  0  0  0  0  0  0
    7.5792   -1.7550   -0.9573 H   0  0  0  0  0  0  0  0  0  0  0  0
   10.5263   -1.0225   -0.5378 H   0  0  0  0  0  0  0  0  0  0  0  0
    8.7620   -0.6351    1.5100 H   0  0  0  0  0  0  0  0  0  0  0  0
    8.7300   -2.4264    1.4999 H   0  0  0  0  0  0  0  0  0  0  0  0
   10.3031   -1.5130    1.7180 H   0  0  0  0  0  0  0  0  0  0  0  0
   10.4618   -3.5245    0.0448 H   0  0  0  0  0  0  0  0  0  0  0  0
    8.8174   -3.5020   -0.7302 H   0  0  0  0  0  0  0  0  0  0  0  0
   10.2849   -3.0100   -1.6881 H   0  0  0  0  0  0  0  0  0  0  0  0
   -5.7603    3.1509    2.2135 H   0  0  0  0  0  0  0  0  0  0  0  0
   -7.0074    1.9113    2.1418 H   0  0  0  0  0  0  0  0  0  0  0  0
   -5.2177    4.4485    0.0174 H   0  0  0  0  0  0  0  0  0  0  0  0
   -6.2506    5.3176   -2.1132 H   0  0  0  0  0  0  0  0  0  0  0  0
   -9.2923    2.3709   -1.8443 H   0  0  0  0  0  0  0  0  0  0  0  0
   -8.2639    1.5627    0.2337 H   0  0  0  0  0  0  0  0  0  0  0  0
   -8.8638    5.8185   -4.5930 H   0  0  0  0  0  0  0  0  0  0  0  0
   -7.5897    6.2408   -3.4320 H   0  0  0  0  0  0  0  0  0  0  0  0
   -7.2291    5.1204   -4.8048 H   0  0  0  0  0  0  0  0  0  0  0  0
   -6.5363   -3.6545   -2.2576 H   0  0  0  0  0  0  0  0  0  0  0  0
   -7.4492   -4.2733   -0.7624 H   0  0  0  0  0  0  0  0  0  0  0  0
   -8.3308   -3.5337   -2.1003 H   0  0  0  0  0  0  0  0  0  0  0  0
  1  2  1  0
  2  3  1  0
  3  4  1  0
  4  5  1  0
  5  6  1  0
  6  7  2  0
  6  8  1  0
  8  9  1  0
  9 10  1  0
 10 11  2  0
 10 12  1  0
 12 13  1  0
 13 14  1  0
 14 15  1  0
 15 16  1  0
 16 17  1  0
 17 18  1  0
 18 19  1  0
 19 20  2  0
 19 21  1  0
 21 22  1  0
 22 23  1  0
 23 24  2  0
 23 25  1  0
 25 26  1  0
 26 27  1  0
 27 28  2  0
 25 29  1  0
 29 30  1  0
 30 31  1  0
 31 32  2  0
 31 33  1  0
 21 34  1  0
 34 35  1  0
 35 36  2  0
 35 37  1  0
 17 38  1  0
 38 39  2  0
 38 40  1  0
 40 41  1  0
 41 42  1  0
 42 43  2  0
 42 44  1  0
 44 45  1  0
 45 46  1  0
 46 47  2  0
 46 48  1  0
 48 49  1  0
 49 50  1  0
 50 51  2  0
 50 52  1  0
 45 53  1  0
 53 54  1  0
 54 55  1  0
 54 56  1  0
  8 57  1  0
 57 58  1  0
 58 59  2  0
 59 60  1  0
 60 61  2  0
 61 62  1  0
 62 63  2  0
 61 64  1  0
 64 65  1  0
  3 66  1  0
 27  4  1  0
 63 58  1  0
  1 67  1  0
  1 68  1  0
  1 69  1  0
  2 70  1  0
  2 71  1  0
  3 72  1  6
  4 73  1  1
  5 74  1  0
  8 75  1  1
  9 76  1  0
 12 77  1  0
 12 78  1  0
 13 79  1  0
 13 80  1  0
 14 81  1  0
 14 82  1  0
 16 83  1  0
 16 84  1  0
 17 85  1  6
 18 86  1  0
 21 87  1  1
 22 88  1  0
 25 89  1  6
 26 90  1  0
 29 91  1  0
 29 92  1  0
 30 93  1  0
 30 94  1  0
 33 95  1  0
 33 96  1  0
 34 97  1  0
 34 98  1  0
 37 99  1  0
 37100  1  0
 40101  1  0
 41102  1  0
 41103  1  0
 44104  1  0
 45105  1  1
 48106  1  0
 49107  1  0
 49108  1  0
 52109  1  0
 52110  1  0
 53111  1  0
 53112  1  0
 54113  1  0
 55114  1  0
 55115  1  0
 55116  1  0
 56117  1  0
 56118  1  0
 56119  1  0
 57120  1  0
 57121  1  0
 59122  1  0
 60123  1  0
 62124  1  0
 63125  1  0
 65126  1  0
 65127  1  0
 65128  1  0
 66129  1  0
 66130  1  0
 66131  1  0
M  END
>  <Ligand ID>  (1) 
LIG0001578

>  <Ligand>  (1) 
CHEMBL3353937

>  <SMILES>  (1) 
CC[C@@H]([C@@H]1NC(=O)[C@@H](NC(=O)CCCSC[C@H](NC(=O)[C@@H](NC(=O)[C@@H](NC1=O)CCC(=O)N)CC(=O)N)C(=O)NCC(=O)N[C@H](C(=O)NCC(=O)N)CC(C)C)Cc1ccc(cc1)OC)C

>  <CID>  (1) 
118719826.0

>  <ChEMBL ID>  (1) 
nan

>  <InChiKey>  (1) 
DZEVULXVNNNNGX-DACMYBEBSA-N

>  <InChi>  (1) 
InChI=1S/C42H65N11O12S/c1-6-23(4)36-42(64)50-26(13-14-31(43)54)39(61)51-29(18-32(44)55)40(62)52-30(38(60)47-20-35(58)49-27(16-22(2)3)37(59)46-19-33(45)56)21-66-15-7-8-34(57)48-28(41(63)53-36)17-24-9-11-25(65-5)12-10-24/h9-12,22-23,26-30,36H,6-8,13-21H2,1-5H3,(H2,43,54)(H2,44,55)(H2,45,56)(H,46,59)(H,47,60)(H,48,57)(H,49,58)(H,50,64)(H,51,61)(H,52,62)(H,53,63)/t23-,26-,27-,28-,29-,30-,36-/m0/s1

>  <IUPAC Name>  (1) 
(3R,6S,9S,12S,15S)-6-(2-amino-2-oxoethyl)-N-[2-[[(2S)-1-[(2-amino-2-oxoethyl)amino]-4-methyl-1-oxopentan-2-yl]amino]-2-oxoethyl]-9-(3-amino-3-oxopropyl)-12-[(2S)-butan-2-yl]-15-[(4-methoxyphenyl)methyl]-5,8,11,14,17-pentaoxo-1-thia-4,7,10,13,16-pentazacycloicosane-3-carboxamide

$$$$
