
     RDKit          3D

 36 39  0  0  0  0  0  0  0  0999 V2000
   -4.3570   -0.8635   -0.0345 C   0  0  0  0  0  0  0  0  0  0  0  0
   -3.7432    0.3636    0.4099 N   0  0  0  0  0  0  0  0  0  0  0  0
   -4.3931    1.3525    1.0157 N   0  0  0  0  0  0  0  0  0  0  0  0
   -3.5170    2.3365    1.2889 C   0  0  0  0  0  0  0  0  0  0  0  0
   -2.2822    1.9270    0.8290 C   0  0  0  0  0  0  0  0  0  0  0  0
   -2.4424    0.6673    0.2712 C   0  0  0  0  0  0  0  0  0  0  0  0
   -1.3990   -0.1364   -0.3327 C   0  0  0  0  0  0  0  0  0  0  0  0
   -1.6250   -0.7824   -1.5462 C   0  0  0  0  0  0  0  0  0  0  0  0
   -0.6364   -1.5578   -2.1412 C   0  0  0  0  0  0  0  0  0  0  0  0
    0.6045   -1.7113   -1.5439 C   0  0  0  0  0  0  0  0  0  0  0  0
    0.8355   -1.0743   -0.3418 C   0  0  0  0  0  0  0  0  0  0  0  0
   -0.1432   -0.3060    0.2482 C   0  0  0  0  0  0  0  0  0  0  0  0
    0.3535    0.2664    1.5230 C   0  0  0  0  0  0  0  0  0  0  0  0
    1.5500   -0.5734    1.8543 C   0  0  0  0  0  0  0  0  0  0  0  0
    2.0248   -1.0544    0.5076 C   0  0  0  0  0  0  0  0  0  0  0  0
    3.1402   -0.2318   -0.0430 C   0  0  0  0  0  0  0  0  0  0  0  0
    4.0880   -0.7045   -0.8999 N   0  0  0  0  0  0  0  0  0  0  0  0
    4.9346    0.2903   -1.1929 C   0  0  0  0  0  0  0  0  0  0  0  0
    4.5337    1.4249   -0.5189 C   0  0  0  0  0  0  0  0  0  0  0  0
    3.4379    1.0594    0.1678 N   0  0  0  0  0  0  0  0  0  0  0  0
   -3.7600   -1.7724    0.2008 H   0  0  0  0  0  0  0  0  0  0  0  0
   -4.7383   -0.8352   -1.0743 H   0  0  0  0  0  0  0  0  0  0  0  0
   -5.3049   -1.0380    0.5538 H   0  0  0  0  0  0  0  0  0  0  0  0
   -3.7810    3.2704    1.7853 H   0  0  0  0  0  0  0  0  0  0  0  0
   -1.3854    2.5287    0.9180 H   0  0  0  0  0  0  0  0  0  0  0  0
   -2.5550   -0.7135   -2.0693 H   0  0  0  0  0  0  0  0  0  0  0  0
   -0.8260   -2.0511   -3.0795 H   0  0  0  0  0  0  0  0  0  0  0  0
    1.3804   -2.3152   -2.0033 H   0  0  0  0  0  0  0  0  0  0  0  0
    0.6557    1.3210    1.4280 H   0  0  0  0  0  0  0  0  0  0  0  0
   -0.4331    0.1086    2.2894 H   0  0  0  0  0  0  0  0  0  0  0  0
    1.2670   -1.4575    2.4708 H   0  0  0  0  0  0  0  0  0  0  0  0
    2.3483    0.0022    2.3668 H   0  0  0  0  0  0  0  0  0  0  0  0
    2.4596   -2.0813    0.6617 H   0  0  0  0  0  0  0  0  0  0  0  0
    5.7899    0.2112   -1.8503 H   0  0  0  0  0  0  0  0  0  0  0  0
    5.0030    2.4096   -0.5368 H   0  0  0  0  0  0  0  0  0  0  0  0
    2.9155    1.7202    0.7743 H   0  0  0  0  0  0  0  0  0  0  0  0
  1  2  1  0
  2  3  1  0
  3  4  2  0
  4  5  1  0
  5  6  2  0
  6  7  1  0
  7  8  2  0
  8  9  1  0
  9 10  2  0
 10 11  1  0
 11 12  2  0
 12 13  1  0
 13 14  1  0
 14 15  1  0
 15 16  1  0
 16 17  2  0
 17 18  1  0
 18 19  2  0
 19 20  1  0
  6  2  1  0
 12  7  1  0
 20 16  1  0
 15 11  1  0
  1 21  1  0
  1 22  1  0
  1 23  1  0
  4 24  1  0
  5 25  1  0
  8 26  1  0
  9 27  1  0
 10 28  1  0
 13 29  1  0
 13 30  1  0
 14 31  1  0
 14 32  1  0
 15 33  1  0
 18 34  1  0
 19 35  1  0
 20 36  1  0
M  END
>  <Ligand ID>  (1) 
LIG0001969

>  <Ligand>  (1) 
CHEMBL406348

>  <SMILES>  (1) 
Cn1nccc1c1cccc2c1CCC2c1ncc[nH]1

>  <CID>  (1) 
44449723.0

>  <ChEMBL ID>  (1) 
nan

>  <InChiKey>  (1) 
FYRLXCDBIMGTKV-UHFFFAOYSA-N

>  <InChi>  (1) 
InChI=1S/C16H16N4/c1-20-15(7-8-19-20)13-4-2-3-11-12(13)5-6-14(11)16-17-9-10-18-16/h2-4,7-10,14H,5-6H2,1H3,(H,17,18)

>  <IUPAC Name>  (1) 
5-[1-(1H-imidazol-2-yl)-2,3-dihydro-1H-inden-4-yl]-1-methylpyrazole

$$$$
