
     RDKit          3D

 64 66  0  0  0  0  0  0  0  0999 V2000
   12.3241    0.5096    0.5386 O   0  0  0  0  0  0  0  0  0  0  0  0
   11.6737   -0.7326    0.4617 C   0  0  0  0  0  0  0  0  0  0  0  0
   12.2875   -1.7834    0.8358 O   0  0  0  0  0  0  0  0  0  0  0  0
   10.2743   -0.7886   -0.0587 C   0  0  0  0  0  0  0  0  0  0  0  0
    9.3495   -0.9470    1.1156 C   0  0  0  0  0  0  0  0  0  0  0  0
    7.9569   -1.0223    0.7488 N   0  0  0  0  0  0  0  0  0  0  0  0
    7.4713    0.2185    0.2419 C   0  0  0  0  0  0  0  0  0  0  0  0
    6.0127    0.1357   -0.1301 C   0  0  0  0  0  0  0  0  0  0  0  0
    5.0129    0.4175    0.7761 C   0  0  0  0  0  0  0  0  0  0  0  0
    3.6965    0.3210    0.3717 C   0  0  0  0  0  0  0  0  0  0  0  0
    3.3439   -0.0529   -0.9253 C   0  0  0  0  0  0  0  0  0  0  0  0
    4.3944   -0.3186   -1.7744 C   0  0  0  0  0  0  0  0  0  0  0  0
    5.6858   -0.2258   -1.3846 N   0  0  0  0  0  0  0  0  0  0  0  0
    1.9434   -0.1463   -1.3074 C   0  0  0  0  0  0  0  0  0  0  0  0
    1.0642    0.1175   -0.4256 N   0  0  0  0  0  0  0  0  0  0  0  0
   -0.2590    0.1169   -0.4802 O   0  0  0  0  0  0  0  0  0  0  0  0
   -1.1982    0.1613   -1.4769 C   0  0  0  0  0  0  0  0  0  0  0  0
   -2.6054    0.1437   -0.9852 C   0  0  0  0  0  0  0  0  0  0  0  0
   -3.2522   -1.0400   -0.8071 C   0  0  0  0  0  0  0  0  0  0  0  0
   -4.5437   -1.0636   -0.3571 C   0  0  0  0  0  0  0  0  0  0  0  0
   -5.2916    0.0827   -0.0495 C   0  0  0  0  0  0  0  0  0  0  0  0
   -4.6150    1.3000   -0.2373 C   0  0  0  0  0  0  0  0  0  0  0  0
   -3.2911    1.3010   -0.6993 C   0  0  0  0  0  0  0  0  0  0  0  0
   -5.2411    2.5853    0.0112 C   0  0  0  0  0  0  0  0  0  0  0  0
   -6.3227    2.9039   -0.7838 F   0  0  0  0  0  0  0  0  0  0  0  0
   -4.3382    3.5868   -0.3262 F   0  0  0  0  0  0  0  0  0  0  0  0
   -5.4739    2.8643    1.3417 F   0  0  0  0  0  0  0  0  0  0  0  0
   -6.6416   -0.0418    0.4452 C   0  0  0  0  0  0  0  0  0  0  0  0
   -6.7723   -0.0382    1.9587 C   0  0  0  0  0  0  0  0  0  0  0  0
   -7.9820   -0.8854    2.3097 C   0  0  0  0  0  0  0  0  0  0  0  0
   -9.1826   -0.2803    1.6155 C   0  0  0  0  0  0  0  0  0  0  0  0
   -9.0388   -0.2594    0.1034 C   0  0  0  0  0  0  0  0  0  0  0  0
   -7.7940    0.6538   -0.1399 C   0  0  0  0  0  0  0  0  0  0  0  0
    1.4713   -0.5268   -2.6579 C   0  0  0  0  0  0  0  0  0  0  0  0
   13.3288    0.5665    0.6638 H   0  0  0  0  0  0  0  0  0  0  0  0
   10.2122   -1.7105   -0.6813 H   0  0  0  0  0  0  0  0  0  0  0  0
   10.0439    0.1300   -0.5971 H   0  0  0  0  0  0  0  0  0  0  0  0
    9.6569   -1.7901    1.7707 H   0  0  0  0  0  0  0  0  0  0  0  0
    9.4463    0.0122    1.7044 H   0  0  0  0  0  0  0  0  0  0  0  0
    7.3821   -1.3928    1.5099 H   0  0  0  0  0  0  0  0  0  0  0  0
    8.0814    0.5414   -0.5988 H   0  0  0  0  0  0  0  0  0  0  0  0
    7.5553    0.9927    1.0272 H   0  0  0  0  0  0  0  0  0  0  0  0
    5.2930    0.7058    1.7768 H   0  0  0  0  0  0  0  0  0  0  0  0
    2.9448    0.5473    1.1024 H   0  0  0  0  0  0  0  0  0  0  0  0
    4.2284   -0.6156   -2.7953 H   0  0  0  0  0  0  0  0  0  0  0  0
   -1.1149    1.1353   -2.0281 H   0  0  0  0  0  0  0  0  0  0  0  0
   -1.1155   -0.7245   -2.1412 H   0  0  0  0  0  0  0  0  0  0  0  0
   -2.7131   -1.9532   -1.0318 H   0  0  0  0  0  0  0  0  0  0  0  0
   -4.9870   -2.0662   -0.2421 H   0  0  0  0  0  0  0  0  0  0  0  0
   -2.7445    2.2295   -0.8521 H   0  0  0  0  0  0  0  0  0  0  0  0
   -6.8934   -1.1443    0.2336 H   0  0  0  0  0  0  0  0  0  0  0  0
   -5.8552   -0.4015    2.4727 H   0  0  0  0  0  0  0  0  0  0  0  0
   -7.0146    0.9435    2.3913 H   0  0  0  0  0  0  0  0  0  0  0  0
   -7.8406   -1.9526    2.0443 H   0  0  0  0  0  0  0  0  0  0  0  0
   -8.1611   -0.7483    3.3942 H   0  0  0  0  0  0  0  0  0  0  0  0
   -9.1909    0.7935    1.9225 H   0  0  0  0  0  0  0  0  0  0  0  0
  -10.1322   -0.7718    1.9174 H   0  0  0  0  0  0  0  0  0  0  0  0
   -8.8092   -1.2627   -0.2590 H   0  0  0  0  0  0  0  0  0  0  0  0
   -9.9324    0.2181   -0.2970 H   0  0  0  0  0  0  0  0  0  0  0  0
   -7.8114    0.7776   -1.2251 H   0  0  0  0  0  0  0  0  0  0  0  0
   -8.1607    1.5578    0.4386 H   0  0  0  0  0  0  0  0  0  0  0  0
    0.8112    0.2493   -3.1072 H   0  0  0  0  0  0  0  0  0  0  0  0
    2.3346   -0.5831   -3.3525 H   0  0  0  0  0  0  0  0  0  0  0  0
    1.0386   -1.5497   -2.6708 H   0  0  0  0  0  0  0  0  0  0  0  0
  1  2  1  0
  2  3  2  0
  2  4  1  0
  4  5  1  0
  5  6  1  0
  6  7  1  0
  7  8  1  0
  8  9  2  0
  9 10  1  0
 10 11  2  0
 11 12  1  0
 12 13  2  0
 11 14  1  0
 14 15  2  0
 15 16  1  0
 16 17  1  0
 17 18  1  0
 18 19  2  0
 19 20  1  0
 20 21  2  0
 21 22  1  0
 22 23  2  0
 22 24  1  0
 24 25  1  0
 24 26  1  0
 24 27  1  0
 21 28  1  0
 28 29  1  0
 29 30  1  0
 30 31  1  0
 31 32  1  0
 32 33  1  0
 14 34  1  0
 13  8  1  0
 23 18  1  0
 33 28  1  0
  1 35  1  0
  4 36  1  0
  4 37  1  0
  5 38  1  0
  5 39  1  0
  6 40  1  0
  7 41  1  0
  7 42  1  0
  9 43  1  0
 10 44  1  0
 12 45  1  0
 17 46  1  0
 17 47  1  0
 19 48  1  0
 20 49  1  0
 23 50  1  0
 28 51  1  0
 29 52  1  0
 29 53  1  0
 30 54  1  0
 30 55  1  0
 31 56  1  0
 31 57  1  0
 32 58  1  0
 32 59  1  0
 33 60  1  0
 33 61  1  0
 34 62  1  0
 34 63  1  0
 34 64  1  0
M  END
>  <Ligand ID>  (1) 
LIG0005578

>  <Ligand>  (1) 
CHEMBL2336087

>  <SMILES>  (1) 
OC(=O)CCNCc1ccc(cn1)/C(=N/OCc1ccc(c(c1)C(F)(F)F)C1CCCCC1)/C

>  <CID>  (1) 
57570461.0

>  <ChEMBL ID>  (1) 
nan

>  <InChiKey>  (1) 
UNMOQFONKPAXTM-KBVAKVRCSA-N

>  <InChi>  (1) 
InChI=1S/C25H30F3N3O3/c1-17(20-8-9-21(30-14-20)15-29-12-11-24(32)33)31-34-16-18-7-10-22(19-5-3-2-4-6-19)23(13-18)25(26,27)28/h7-10,13-14,19,29H,2-6,11-12,15-16H2,1H3,(H,32,33)/b31-17+

>  <IUPAC Name>  (1) 
3-[[5-[(E)-N-[[4-cyclohexyl-3-(trifluoromethyl)phenyl]methoxy]-C-methylcarbonimidoyl]pyridin-2-yl]methylamino]propanoic acid

$$$$
