
     RDKit          3D

 43 45  0  0  0  0  0  0  0  0999 V2000
    8.7279   -0.9281   -0.0947 O   0  0  0  0  0  0  0  0  0  0  0  0
    7.8295    0.1275   -0.0443 C   0  0  0  0  0  0  0  0  0  0  0  0
    7.5316    0.5534    1.1160 O   0  0  0  0  0  0  0  0  0  0  0  0
    7.2659    0.7053   -1.2839 C   0  0  0  0  0  0  0  0  0  0  0  0
    6.3277    1.8277   -0.8903 C   0  0  0  0  0  0  0  0  0  0  0  0
    5.2412    1.3027   -0.0412 C   0  0  0  0  0  0  0  0  0  0  0  0
    4.9095    1.0792    1.0830 N   0  0  0  0  0  0  0  0  0  0  0  0
    3.7670    0.5670    1.4307 N   0  0  0  0  0  0  0  0  0  0  0  0
    2.8947    0.2458    0.7414 C   0  0  0  0  0  0  0  0  0  0  0  0
    3.6737    0.7018   -0.9564 S   0  0  0  0  0  0  0  0  0  0  0  0
    1.5610   -0.3225    0.7414 C   0  0  0  0  0  0  0  0  0  0  0  0
    1.0738   -0.6138    1.8867 O   0  0  0  0  0  0  0  0  0  0  0  0
    0.8066   -0.5575   -0.4423 N   0  0  0  0  0  0  0  0  0  0  0  0
   -0.5027   -1.1163   -0.4322 C   0  0  0  0  0  0  0  0  0  0  0  0
   -0.6042   -2.5040   -0.5102 C   0  0  0  0  0  0  0  0  0  0  0  0
   -1.8832   -3.0668   -0.5011 C   0  0  0  0  0  0  0  0  0  0  0  0
   -3.0209   -2.2773   -0.4174 C   0  0  0  0  0  0  0  0  0  0  0  0
   -2.8583   -0.9138   -0.3428 C   0  0  0  0  0  0  0  0  0  0  0  0
   -1.6174   -0.3029   -0.3479 C   0  0  0  0  0  0  0  0  0  0  0  0
   -4.0226   -0.0365   -0.2532 C   0  0  0  0  0  0  0  0  0  0  0  0
   -3.9611    1.2293   -0.8052 C   0  0  0  0  0  0  0  0  0  0  0  0
   -5.0425    2.1098   -0.7493 C   0  0  0  0  0  0  0  0  0  0  0  0
   -6.1980    1.6737   -0.1152 C   0  0  0  0  0  0  0  0  0  0  0  0
   -6.3030    0.4196    0.4489 C   0  0  0  0  0  0  0  0  0  0  0  0
   -5.1996   -0.4008    0.3594 C   0  0  0  0  0  0  0  0  0  0  0  0
   -7.5600   -0.0308    1.1287 C   0  0  0  0  0  0  0  0  0  0  0  0
    9.4652   -0.9852    0.5932 H   0  0  0  0  0  0  0  0  0  0  0  0
    8.0750    1.0525   -1.9430 H   0  0  0  0  0  0  0  0  0  0  0  0
    6.7039   -0.0916   -1.8110 H   0  0  0  0  0  0  0  0  0  0  0  0
    6.8306    2.6334   -0.3584 H   0  0  0  0  0  0  0  0  0  0  0  0
    5.9261    2.2600   -1.8445 H   0  0  0  0  0  0  0  0  0  0  0  0
    1.2165   -0.3150   -1.3721 H   0  0  0  0  0  0  0  0  0  0  0  0
    0.2814   -3.1094   -0.5749 H   0  0  0  0  0  0  0  0  0  0  0  0
   -1.9266   -4.1433   -0.5627 H   0  0  0  0  0  0  0  0  0  0  0  0
   -3.9879   -2.7598   -0.4137 H   0  0  0  0  0  0  0  0  0  0  0  0
   -1.4804    0.7544   -0.2904 H   0  0  0  0  0  0  0  0  0  0  0  0
   -3.0781    1.5835   -1.2985 H   0  0  0  0  0  0  0  0  0  0  0  0
   -4.9646    3.1045   -1.1946 H   0  0  0  0  0  0  0  0  0  0  0  0
   -7.0609    2.3149   -0.0450 H   0  0  0  0  0  0  0  0  0  0  0  0
   -5.2747   -1.3815    0.7977 H   0  0  0  0  0  0  0  0  0  0  0  0
   -7.4621    0.0655    2.2153 H   0  0  0  0  0  0  0  0  0  0  0  0
   -8.3685    0.6078    0.7349 H   0  0  0  0  0  0  0  0  0  0  0  0
   -7.7317   -1.0624    0.7786 H   0  0  0  0  0  0  0  0  0  0  0  0
  1  2  1  0
  2  3  2  0
  2  4  1  0
  4  5  1  0
  5  6  1  0
  6  7  2  0
  7  8  1  0
  8  9  2  0
  9 10  1  0
  9 11  1  0
 11 12  2  0
 11 13  1  0
 13 14  1  0
 14 15  2  0
 15 16  1  0
 16 17  2  0
 17 18  1  0
 18 19  2  0
 18 20  1  0
 20 21  2  0
 21 22  1  0
 22 23  2  0
 23 24  1  0
 24 25  2  0
 24 26  1  0
 10  6  1  0
 19 14  1  0
 25 20  1  0
  1 27  1  0
  4 28  1  0
  4 29  1  0
  5 30  1  0
  5 31  1  0
 13 32  1  0
 15 33  1  0
 16 34  1  0
 17 35  1  0
 19 36  1  0
 21 37  1  0
 22 38  1  0
 23 39  1  0
 25 40  1  0
 26 41  1  0
 26 42  1  0
 26 43  1  0
M  END
>  <Ligand ID>  (1) 
LIG0001726

>  <Ligand>  (1) 
CHEMBL3805328

>  <SMILES>  (1) 
OC(=O)CCc1nnc(s1)C(=O)Nc1cccc(c1)c1cccc(c1)C

>  <CID>  (1) 
127048842.0

>  <ChEMBL ID>  (1) 
nan

>  <InChiKey>  (1) 
UAEIGMSYOHQESR-UHFFFAOYSA-N

>  <InChi>  (1) 
InChI=1S/C19H17N3O3S/c1-12-4-2-5-13(10-12)14-6-3-7-15(11-14)20-18(25)19-22-21-16(26-19)8-9-17(23)24/h2-7,10-11H,8-9H2,1H3,(H,20,25)(H,23,24)

>  <IUPAC Name>  (1) 
3-[5-[[3-(3-methylphenyl)phenyl]carbamoyl]-1,3,4-thiadiazol-2-yl]propanoic acid

$$$$
