
     RDKit          3D

102106  0  0  0  0  0  0  0  0999 V2000
   -3.0012    6.8602   -0.6546 N   0  0  0  0  0  0  0  0  0  0  0  0
   -2.5490    6.3021    0.5964 C   0  0  0  0  0  0  0  0  0  0  0  0
   -1.7359    5.3071    0.5231 N   0  0  0  0  0  0  0  0  0  0  0  0
   -1.1937    4.6392    1.6933 C   0  0  0  0  0  0  0  0  0  0  0  0
   -2.2745    3.9155    2.4459 C   0  0  0  0  0  0  0  0  0  0  0  0
   -2.9229    2.8480    1.6354 C   0  0  0  0  0  0  0  0  0  0  0  0
   -2.1229    1.7020    1.1951 C   0  0  1  0  0  0  0  0  0  0  0  0
   -3.1136    0.8045    0.4177 C   0  0  0  0  0  0  0  0  0  0  0  0
   -2.7828    0.5588   -0.7834 O   0  0  0  0  0  0  0  0  0  0  0  0
   -4.2737    0.3235    1.0346 N   0  0  0  0  0  0  0  0  0  0  0  0
   -5.2498   -0.5262    0.3538 C   0  0  2  0  0  0  0  0  0  0  0  0
   -6.5747    0.1850    0.3424 C   0  0  0  0  0  0  0  0  0  0  0  0
   -6.6026    1.3113    0.8877 O   0  0  0  0  0  0  0  0  0  0  0  0
   -7.7013   -0.4208   -0.2618 N   0  0  0  0  0  0  0  0  0  0  0  0
   -5.3987   -1.7851    1.1852 C   0  0  0  0  0  0  0  0  0  0  0  0
   -6.3573   -2.7463    0.6245 C   0  0  0  0  0  0  0  0  0  0  0  0
   -7.6477   -2.9927    1.0805 C   0  0  0  0  0  0  0  0  0  0  0  0
   -8.2159   -3.9452    0.3073 N   0  0  0  0  0  0  0  0  0  0  0  0
   -7.3195   -4.3175   -0.6365 C   0  0  0  0  0  0  0  0  0  0  0  0
   -6.1562   -3.5882   -0.4624 C   0  0  0  0  0  0  0  0  0  0  0  0
   -5.0882   -3.8071   -1.3282 C   0  0  0  0  0  0  0  0  0  0  0  0
   -5.1565   -4.7327   -2.3574 C   0  0  0  0  0  0  0  0  0  0  0  0
   -6.3236   -5.4572   -2.5238 C   0  0  0  0  0  0  0  0  0  0  0  0
   -7.3712   -5.2442   -1.6766 C   0  0  0  0  0  0  0  0  0  0  0  0
   -1.0943    1.9284    0.2095 N   0  0  0  0  0  0  0  0  0  0  0  0
    0.1292    1.2420    0.3857 C   0  0  0  0  0  0  0  0  0  0  0  0
    0.1624    0.5203    1.4661 O   0  0  0  0  0  0  0  0  0  0  0  0
    1.3220    1.1899   -0.4098 C   0  0  2  0  0  0  0  0  0  0  0  0
    2.3396    0.3110    0.2216 N   0  0  0  0  0  0  0  0  0  0  0  0
    2.7364   -0.8875   -0.3954 C   0  0  0  0  0  0  0  0  0  0  0  0
    2.2228   -1.2354   -1.5123 O   0  0  0  0  0  0  0  0  0  0  0  0
    3.7444   -1.8163    0.1699 C   0  0  1  0  0  0  0  0  0  0  0  0
    4.8222   -1.9382   -0.9145 C   0  0  0  0  0  0  0  0  0  0  0  0
    5.9138   -2.8379   -0.5670 C   0  0  0  0  0  0  0  0  0  0  0  0
    5.7561   -4.1904   -0.8683 C   0  0  0  0  0  0  0  0  0  0  0  0
    6.7339   -5.1244   -0.5894 C   0  0  0  0  0  0  0  0  0  0  0  0
    7.9176   -4.7632    0.0027 C   0  0  0  0  0  0  0  0  0  0  0  0
    8.0890   -3.4293    0.3068 C   0  0  0  0  0  0  0  0  0  0  0  0
    7.1031   -2.4910    0.0250 C   0  0  0  0  0  0  0  0  0  0  0  0
    9.2836   -3.0625    0.9043 C   0  0  0  0  0  0  0  0  0  0  0  0
   10.2652   -4.0182    1.1813 C   0  0  0  0  0  0  0  0  0  0  0  0
   10.0460   -5.3497    0.8562 C   0  0  0  0  0  0  0  0  0  0  0  0
    8.8593   -5.7328    0.2594 C   0  0  0  0  0  0  0  0  0  0  0  0
    4.2638   -1.3534    1.4284 N   0  0  0  0  0  0  0  0  0  0  0  0
    5.0975   -0.2219    1.5927 C   0  0  0  0  0  0  0  0  0  0  0  0
    5.4539    0.4862    0.6215 O   0  0  0  0  0  0  0  0  0  0  0  0
    5.5619    0.1333    2.9637 C   0  0  0  0  0  0  0  0  0  0  0  0
    1.9530    2.4266   -0.8921 C   0  0  0  0  0  0  0  0  0  0  0  0
    1.2072    3.3128   -1.7792 C   0  0  0  0  0  0  0  0  0  0  0  0
    1.0746    2.9162   -3.1155 C   0  0  0  0  0  0  0  0  0  0  0  0
    0.4503    3.6945   -4.0454 C   0  0  0  0  0  0  0  0  0  0  0  0
   -0.0861    4.9225   -3.7116 C   0  0  0  0  0  0  0  0  0  0  0  0
    0.0336    5.3340   -2.3991 C   0  0  0  0  0  0  0  0  0  0  0  0
    0.6710    4.5326   -1.4651 C   0  0  0  0  0  0  0  0  0  0  0  0
   -3.0068    6.8581    1.8194 N   0  0  0  0  0  0  0  0  0  0  0  0
   -3.3179    7.8506   -0.6434 H   0  0  0  0  0  0  0  0  0  0  0  0
   -3.0024    6.2701   -1.5358 H   0  0  0  0  0  0  0  0  0  0  0  0
   -0.4015    3.9500    1.3402 H   0  0  0  0  0  0  0  0  0  0  0  0
   -0.7064    5.4038    2.3198 H   0  0  0  0  0  0  0  0  0  0  0  0
   -1.9118    3.5607    3.4359 H   0  0  0  0  0  0  0  0  0  0  0  0
   -3.0928    4.6457    2.7117 H   0  0  0  0  0  0  0  0  0  0  0  0
   -3.3923    3.3896    0.7490 H   0  0  0  0  0  0  0  0  0  0  0  0
   -3.8422    2.4456    2.1660 H   0  0  0  0  0  0  0  0  0  0  0  0
   -1.7848    1.0620    2.0501 H   0  0  0  0  0  0  0  0  0  0  0  0
   -4.5095    0.5465    2.0352 H   0  0  0  0  0  0  0  0  0  0  0  0
   -4.9710   -0.7462   -0.6756 H   0  0  0  0  0  0  0  0  0  0  0  0
   -7.5327   -1.0709   -1.0849 H   0  0  0  0  0  0  0  0  0  0  0  0
   -8.6876   -0.2390    0.0869 H   0  0  0  0  0  0  0  0  0  0  0  0
   -4.3718   -2.2387    1.2808 H   0  0  0  0  0  0  0  0  0  0  0  0
   -5.7299   -1.5402    2.2197 H   0  0  0  0  0  0  0  0  0  0  0  0
   -8.1566   -2.5105    1.9289 H   0  0  0  0  0  0  0  0  0  0  0  0
   -9.1742   -4.3490    0.3909 H   0  0  0  0  0  0  0  0  0  0  0  0
   -4.1779   -3.2380   -1.1942 H   0  0  0  0  0  0  0  0  0  0  0  0
   -4.2982   -4.8604   -2.9979 H   0  0  0  0  0  0  0  0  0  0  0  0
   -6.3408   -6.1738   -3.3411 H   0  0  0  0  0  0  0  0  0  0  0  0
   -8.2682   -5.8176   -1.8236 H   0  0  0  0  0  0  0  0  0  0  0  0
   -1.1730    2.5426   -0.6165 H   0  0  0  0  0  0  0  0  0  0  0  0
    1.0028    0.6379   -1.3815 H   0  0  0  0  0  0  0  0  0  0  0  0
    2.7540    0.6003    1.1321 H   0  0  0  0  0  0  0  0  0  0  0  0
    3.3122   -2.8181    0.2453 H   0  0  0  0  0  0  0  0  0  0  0  0
    5.1688   -0.9230   -1.2243 H   0  0  0  0  0  0  0  0  0  0  0  0
    4.2906   -2.3373   -1.8024 H   0  0  0  0  0  0  0  0  0  0  0  0
    4.8337   -4.5269   -1.3390 H   0  0  0  0  0  0  0  0  0  0  0  0
    6.5349   -6.1459   -0.8532 H   0  0  0  0  0  0  0  0  0  0  0  0
    7.3075   -1.4781    0.2816 H   0  0  0  0  0  0  0  0  0  0  0  0
    9.4894   -2.0394    1.1709 H   0  0  0  0  0  0  0  0  0  0  0  0
   11.1974   -3.7243    1.6492 H   0  0  0  0  0  0  0  0  0  0  0  0
   10.7765   -6.1294    1.0506 H   0  0  0  0  0  0  0  0  0  0  0  0
    8.6916   -6.7627    0.0087 H   0  0  0  0  0  0  0  0  0  0  0  0
    4.0016   -1.9019    2.2946 H   0  0  0  0  0  0  0  0  0  0  0  0
    5.2007   -0.5619    3.7189 H   0  0  0  0  0  0  0  0  0  0  0  0
    6.6722    0.2161    3.0270 H   0  0  0  0  0  0  0  0  0  0  0  0
    5.1704    1.1655    3.1616 H   0  0  0  0  0  0  0  0  0  0  0  0
    2.3439    3.0720   -0.0400 H   0  0  0  0  0  0  0  0  0  0  0  0
    2.9507    2.1221   -1.3813 H   0  0  0  0  0  0  0  0  0  0  0  0
    1.4743    1.9632   -3.4418 H   0  0  0  0  0  0  0  0  0  0  0  0
    0.3507    3.3767   -5.0892 H   0  0  0  0  0  0  0  0  0  0  0  0
   -0.5731    5.5072   -4.4818 H   0  0  0  0  0  0  0  0  0  0  0  0
   -0.3779    6.2823   -2.1308 H   0  0  0  0  0  0  0  0  0  0  0  0
    0.7768    4.8738   -0.4547 H   0  0  0  0  0  0  0  0  0  0  0  0
   -2.3400    7.2324    2.5261 H   0  0  0  0  0  0  0  0  0  0  0  0
   -4.0588    6.8658    1.9612 H   0  0  0  0  0  0  0  0  0  0  0  0
  1  2  1  0
  2  3  2  3
  3  4  1  0
  4  5  1  0
  5  6  1  0
  6  7  1  0
  7  8  1  0
  8  9  2  0
  8 10  1  0
 10 11  1  0
 11 12  1  0
 12 13  2  0
 12 14  1  0
 11 15  1  0
 15 16  1  0
 16 17  2  0
 17 18  1  0
 18 19  1  0
 19 20  2  0
 20 21  1  0
 21 22  2  0
 22 23  1  0
 23 24  2  0
  7 25  1  0
 25 26  1  0
 26 27  2  0
 26 28  1  0
 28 29  1  0
 29 30  1  0
 30 31  2  0
 30 32  1  0
 32 33  1  0
 33 34  1  0
 34 35  2  0
 35 36  1  0
 36 37  2  0
 37 38  1  0
 38 39  2  0
 38 40  1  0
 40 41  2  0
 41 42  1  0
 42 43  2  0
 32 44  1  0
 44 45  1  0
 45 46  2  0
 45 47  1  0
 28 48  1  0
 48 49  1  0
 49 50  2  0
 50 51  1  0
 51 52  2  0
 52 53  1  0
 53 54  2  0
  2 55  1  0
 20 16  1  0
 39 34  1  0
 54 49  1  0
 24 19  1  0
 43 37  1  0
  1 56  1  0
  1 57  1  0
  4 58  1  0
  4 59  1  0
  5 60  1  0
  5 61  1  0
  6 62  1  0
  6 63  1  0
  7 64  1  1
 10 65  1  0
 11 66  1  6
 14 67  1  0
 14 68  1  0
 15 69  1  0
 15 70  1  0
 17 71  1  0
 18 72  1  0
 21 73  1  0
 22 74  1  0
 23 75  1  0
 24 76  1  0
 25 77  1  0
 28 78  1  6
 29 79  1  0
 32 80  1  1
 33 81  1  0
 33 82  1  0
 35 83  1  0
 36 84  1  0
 39 85  1  0
 40 86  1  0
 41 87  1  0
 42 88  1  0
 43 89  1  0
 44 90  1  0
 47 91  1  0
 47 92  1  0
 47 93  1  0
 48 94  1  0
 48 95  1  0
 50 96  1  0
 51 97  1  0
 52 98  1  0
 53 99  1  0
 54100  1  0
 55101  1  0
 55102  1  0
M  END
>  <Ligand ID>  (1) 
LIG0001455

>  <Ligand>  (1) 
CHEMBL329490

>  <SMILES>  (1) 
NC(=NCCC[C@@H](C(=O)N[C@H](C(=O)N)Cc1c[nH]c2c1cccc2)NC(=O)[C@H](NC(=O)[C@@H](Cc1ccc2c(c1)cccc2)NC(=O)C)Cc1ccccc1)N

>  <CID>  (1) 
11072679.0

>  <ChEMBL ID>  (1) 
nan

>  <InChiKey>  (1) 
KUGJWPLOGLBSEC-CLLHQPRTSA-N

>  <InChi>  (1) 
InChI=1S/C41H47N9O5/c1-25(51)47-35(22-27-17-18-28-12-5-6-13-29(28)20-27)39(54)50-36(21-26-10-3-2-4-11-26)40(55)48-33(16-9-19-45-41(43)44)38(53)49-34(37(42)52)23-30-24-46-32-15-8-7-14-31(30)32/h2-8,10-15,17-18,20,24,33-36,46H,9,16,19,21-23H2,1H3,(H2,42,52)(H,47,51)(H,48,55)(H,49,53)(H,50,54)(H4,43,44,45)/t33-,34-,35+,36+/m0/s1

>  <IUPAC Name>  (1) 
(2S)-2-[[(2R)-2-[[(2R)-2-acetamido-3-naphthalen-2-ylpropanoyl]amino]-3-phenylpropanoyl]amino]-N-[(2S)-1-amino-3-(1H-indol-3-yl)-1-oxopropan-2-yl]-5-(diaminomethylideneamino)pentanamide

$$$$
