
     RDKit          3D

 75 79  0  0  0  0  0  0  0  0999 V2000
   -6.6500    3.3115   -0.3263 C   0  0  0  0  0  0  0  0  0  0  0  0
   -6.7888    1.9039   -0.4133 O   0  0  0  0  0  0  0  0  0  0  0  0
   -5.6971    1.0445   -0.5368 C   0  0  0  0  0  0  0  0  0  0  0  0
   -4.4057    1.4904   -0.5841 C   0  0  0  0  0  0  0  0  0  0  0  0
   -3.3608    0.5991   -0.7069 C   0  0  0  0  0  0  0  0  0  0  0  0
   -3.5676   -0.7812   -0.7870 C   0  0  0  0  0  0  0  0  0  0  0  0
   -4.8689   -1.2262   -0.7402 C   0  0  0  0  0  0  0  0  0  0  0  0
   -5.9187   -0.3254   -0.6165 C   0  0  0  0  0  0  0  0  0  0  0  0
   -7.2941   -0.8547   -0.5489 C   0  0  0  0  0  0  0  0  0  0  0  0
   -7.7774   -1.7692   -1.4577 C   0  0  0  0  0  0  0  0  0  0  0  0
   -9.0651   -2.2115   -1.3008 C   0  0  0  0  0  0  0  0  0  0  0  0
   -9.8381   -1.7323   -0.2432 C   0  0  0  0  0  0  0  0  0  0  0  0
   -9.3541   -0.8179    0.6652 C   0  0  0  0  0  0  0  0  0  0  0  0
   -8.0613   -0.3811    0.4978 C   0  0  0  0  0  0  0  0  0  0  0  0
  -10.2312   -0.3545    1.7697 C   0  0  0  0  0  0  0  0  0  0  0  0
  -10.9529    0.8155    1.3408 N   0  0  0  0  0  0  0  0  0  0  0  0
   -2.4514   -1.6844   -0.8857 N   0  0  0  0  0  0  0  0  0  0  0  0
   -1.1727   -1.3508   -0.3184 C   0  0  0  0  0  0  0  0  0  0  0  0
    0.0079   -1.8569   -0.8246 C   0  0  0  0  0  0  0  0  0  0  0  0
    1.2494   -1.5439   -0.2672 C   0  0  0  0  0  0  0  0  0  0  0  0
    1.2526   -0.7004    0.8195 C   0  0  0  0  0  0  0  0  0  0  0  0
    0.0975   -0.1711    1.3605 C   0  0  0  0  0  0  0  0  0  0  0  0
   -1.1244   -0.5089    0.7747 C   0  0  0  0  0  0  0  0  0  0  0  0
    2.5310   -0.2695    1.4969 C   0  0  0  0  0  0  0  0  0  0  0  0
    2.9347    1.0150    0.7693 C   0  0  0  0  0  0  0  0  0  0  0  0
    4.1212    1.6138    1.2575 N   0  0  0  0  0  0  0  0  0  0  0  0
    5.3128    0.8863    1.0304 C   0  0  0  0  0  0  0  0  0  0  0  0
    5.7549    0.7756   -0.4104 C   0  0  1  0  0  0  0  0  0  0  0  0
    6.9905   -0.0311   -0.4148 C   0  0  0  0  0  0  0  0  0  0  0  0
    6.8746   -1.4166   -0.5696 C   0  0  0  0  0  0  0  0  0  0  0  0
    8.0151   -2.2278   -0.5819 C   0  0  0  0  0  0  0  0  0  0  0  0
    9.2830   -1.6899   -0.4422 C   0  0  0  0  0  0  0  0  0  0  0  0
    9.3879   -0.3265   -0.2906 C   0  0  0  0  0  0  0  0  0  0  0  0
    8.2520    0.4633   -0.2803 C   0  0  0  0  0  0  0  0  0  0  0  0
    8.4255    1.8086   -0.1237 C   0  0  0  0  0  0  0  0  0  0  0  0
    9.6932    2.3679    0.0194 C   0  0  0  0  0  0  0  0  0  0  0  0
   10.8119    1.5427    0.0035 C   0  0  0  0  0  0  0  0  0  0  0  0
   11.9474    2.0718    0.1340 O   0  0  0  0  0  0  0  0  0  0  0  0
   10.6195    0.2217   -0.1509 N   0  0  0  0  0  0  0  0  0  0  0  0
   10.4294   -2.4494   -0.4481 O   0  0  0  0  0  0  0  0  0  0  0  0
    4.8112    0.1041   -1.2072 O   0  0  0  0  0  0  0  0  0  0  0  0
   -6.3743    3.6226    0.6855 H   0  0  0  0  0  0  0  0  0  0  0  0
   -7.6397    3.7537   -0.6117 H   0  0  0  0  0  0  0  0  0  0  0  0
   -5.8571    3.6406   -1.0534 H   0  0  0  0  0  0  0  0  0  0  0  0
   -4.2025    2.5650   -0.5252 H   0  0  0  0  0  0  0  0  0  0  0  0
   -2.3690    1.0359   -0.7524 H   0  0  0  0  0  0  0  0  0  0  0  0
   -5.0892   -2.2934   -0.8002 H   0  0  0  0  0  0  0  0  0  0  0  0
   -7.1130   -2.0891   -2.2474 H   0  0  0  0  0  0  0  0  0  0  0  0
   -9.4777   -2.9324   -2.0000 H   0  0  0  0  0  0  0  0  0  0  0  0
  -10.8527   -2.0985   -0.1402 H   0  0  0  0  0  0  0  0  0  0  0  0
   -7.6804    0.3293    1.2021 H   0  0  0  0  0  0  0  0  0  0  0  0
  -10.9128   -1.1735    2.1068 H   0  0  0  0  0  0  0  0  0  0  0  0
   -9.5597   -0.0396    2.6143 H   0  0  0  0  0  0  0  0  0  0  0  0
  -10.6285    1.6924    1.7806 H   0  0  0  0  0  0  0  0  0  0  0  0
  -10.9876    0.9474    0.3139 H   0  0  0  0  0  0  0  0  0  0  0  0
   -2.6084   -2.5986   -1.3898 H   0  0  0  0  0  0  0  0  0  0  0  0
   -0.0431   -2.5178   -1.6821 H   0  0  0  0  0  0  0  0  0  0  0  0
    2.1736   -1.9368   -0.6582 H   0  0  0  0  0  0  0  0  0  0  0  0
    0.1255    0.4919    2.2189 H   0  0  0  0  0  0  0  0  0  0  0  0
   -1.9922   -0.0773    1.2478 H   0  0  0  0  0  0  0  0  0  0  0  0
    3.2743   -1.0376    1.2020 H   0  0  0  0  0  0  0  0  0  0  0  0
    2.4140   -0.1046    2.5647 H   0  0  0  0  0  0  0  0  0  0  0  0
    2.0845    1.7301    1.0214 H   0  0  0  0  0  0  0  0  0  0  0  0
    2.8446    0.8756   -0.3118 H   0  0  0  0  0  0  0  0  0  0  0  0
    4.1729    2.5810    0.8989 H   0  0  0  0  0  0  0  0  0  0  0  0
    5.2451   -0.1157    1.5135 H   0  0  0  0  0  0  0  0  0  0  0  0
    6.1573    1.4039    1.5771 H   0  0  0  0  0  0  0  0  0  0  0  0
    5.8849    1.8206   -0.7643 H   0  0  0  0  0  0  0  0  0  0  0  0
    5.8859   -1.8720   -0.6815 H   0  0  0  0  0  0  0  0  0  0  0  0
    7.9333   -3.3108   -0.7043 H   0  0  0  0  0  0  0  0  0  0  0  0
    7.6061    2.5090   -0.0981 H   0  0  0  0  0  0  0  0  0  0  0  0
    9.8043    3.4379    0.1413 H   0  0  0  0  0  0  0  0  0  0  0  0
   11.4669   -0.4023   -0.1619 H   0  0  0  0  0  0  0  0  0  0  0  0
   10.8009   -2.8452    0.4155 H   0  0  0  0  0  0  0  0  0  0  0  0
    5.2910   -0.3463   -1.9644 H   0  0  0  0  0  0  0  0  0  0  0  0
  1  2  1  0
  2  3  1  0
  3  4  2  0
  4  5  1  0
  5  6  2  0
  6  7  1  0
  7  8  2  0
  8  9  1  0
  9 10  2  0
 10 11  1  0
 11 12  2  0
 12 13  1  0
 13 14  2  0
 13 15  1  0
 15 16  1  0
  6 17  1  0
 17 18  1  0
 18 19  2  0
 19 20  1  0
 20 21  2  0
 21 22  1  0
 22 23  2  0
 21 24  1  0
 24 25  1  0
 25 26  1  0
 26 27  1  0
 27 28  1  0
 28 29  1  0
 29 30  2  0
 30 31  1  0
 31 32  2  0
 32 33  1  0
 33 34  2  0
 34 35  1  0
 35 36  2  0
 36 37  1  0
 37 38  2  0
 37 39  1  0
 32 40  1  0
 28 41  1  0
  8  3  1  0
 14  9  1  0
 23 18  1  0
 34 29  1  0
 39 33  1  0
  1 42  1  0
  1 43  1  0
  1 44  1  0
  4 45  1  0
  5 46  1  0
  7 47  1  0
 10 48  1  0
 11 49  1  0
 12 50  1  0
 14 51  1  0
 15 52  1  0
 15 53  1  0
 16 54  1  0
 16 55  1  0
 17 56  1  0
 19 57  1  0
 20 58  1  0
 22 59  1  0
 23 60  1  0
 24 61  1  0
 24 62  1  0
 25 63  1  0
 25 64  1  0
 26 65  1  0
 27 66  1  0
 27 67  1  0
 28 68  1  6
 30 69  1  0
 31 70  1  0
 35 71  1  0
 36 72  1  0
 39 73  1  0
 40 74  1  0
 41 75  1  0
M  END
>  <Ligand ID>  (1) 
LIG0004735

>  <Ligand>  (1) 
CHEMBL3298325

>  <SMILES>  (1) 
COc1ccc(cc1c1cccc(c1)CN)Nc1ccc(cc1)CCNC[C@@H](c1ccc(c2c1ccc(=O)[nH]2)O)O

>  <CID>  (1) 
11592062.0

>  <ChEMBL ID>  (1) 
nan

>  <InChiKey>  (1) 
BBKQWNRTHAAOCF-PMERELPUSA-N

>  <InChi>  (1) 
InChI=1S/C33H34N4O4/c1-41-31-13-9-25(18-28(31)23-4-2-3-22(17-23)19-34)36-24-7-5-21(6-8-24)15-16-35-20-30(39)26-10-12-29(38)33-27(26)11-14-32(40)37-33/h2-14,17-18,30,35-36,38-39H,15-16,19-20,34H2,1H3,(H,37,40)/t30-/m0/s1

>  <IUPAC Name>  (1) 
5-[(1R)-2-[2-[4-[3-[3-(aminomethyl)phenyl]-4-methoxyanilino]phenyl]ethylamino]-1-hydroxyethyl]-8-hydroxy-1H-quinolin-2-one

$$$$
