
     RDKit          3D

 83 86  0  0  0  0  0  0  0  0999 V2000
    4.8494    5.0914   -2.2378 C   0  0  0  0  0  0  0  0  0  0  0  0
    4.1230    4.0255   -2.8173 O   0  0  0  0  0  0  0  0  0  0  0  0
    3.8704    2.8369   -2.1510 C   0  0  0  0  0  0  0  0  0  0  0  0
    4.2970    2.5746   -0.8680 C   0  0  0  0  0  0  0  0  0  0  0  0
    4.0155    1.3851   -0.2689 C   0  0  0  0  0  0  0  0  0  0  0  0
    3.2887    0.3623   -0.8962 C   0  0  0  0  0  0  0  0  0  0  0  0
    2.8702    0.6383   -2.1760 C   0  0  0  0  0  0  0  0  0  0  0  0
    3.1526    1.8581   -2.8044 C   0  0  0  0  0  0  0  0  0  0  0  0
    2.1732   -0.2500   -2.9143 F   0  0  0  0  0  0  0  0  0  0  0  0
    3.0141   -0.9092   -0.1827 C   0  0  2  0  0  0  0  0  0  0  0  0
    3.9789   -1.9829   -0.5448 C   0  0  0  0  0  0  0  0  0  0  0  0
    3.2646   -3.1894   -0.7471 N   0  0  0  0  0  0  0  0  0  0  0  0
    1.8838   -2.9607   -0.4955 C   0  0  0  0  0  0  0  0  0  0  0  0
    1.6667   -1.4800   -0.3124 C   0  0  1  0  0  0  0  0  0  0  0  0
    0.8206   -1.2634    0.9189 C   0  0  0  0  0  0  0  0  0  0  0  0
    0.4846   -2.2811    1.6140 O   0  0  0  0  0  0  0  0  0  0  0  0
    0.3718   -0.0207    1.3594 N   0  0  0  0  0  0  0  0  0  0  0  0
   -0.4211    0.0666    2.5788 C   0  0  0  0  0  0  0  0  0  0  0  0
   -1.8727    0.4318    2.2173 C   0  0  0  0  0  0  0  0  0  0  0  0
   -1.8761    1.2779    0.9399 C   0  0  0  0  0  0  0  0  0  0  0  0
   -0.5852    2.1038    1.0562 C   0  0  0  0  0  0  0  0  0  0  0  0
    0.6142    1.2492    0.6792 C   0  0  0  0  0  0  0  0  0  0  0  0
   -2.9777    2.2210    0.8440 C   0  0  0  0  0  0  0  0  0  0  0  0
   -2.8465    3.4994    1.3826 C   0  0  0  0  0  0  0  0  0  0  0  0
   -3.8594    4.4331    1.3298 C   0  0  0  0  0  0  0  0  0  0  0  0
   -5.0323    4.0506    0.7128 C   0  0  0  0  0  0  0  0  0  0  0  0
   -5.1945    2.7726    0.1618 C   0  0  0  0  0  0  0  0  0  0  0  0
   -4.1749    1.8453    0.2193 C   0  0  0  0  0  0  0  0  0  0  0  0
   -4.3433    0.4967   -0.3690 C   0  0  1  0  0  0  0  0  0  0  0  0
   -5.6987    0.0256   -0.2795 N   0  0  0  0  0  0  0  0  0  0  0  0
   -5.9487   -1.2549    0.2814 C   0  0  0  0  0  0  0  0  0  0  0  0
   -5.0156   -1.9989    0.7077 O   0  0  0  0  0  0  0  0  0  0  0  0
   -7.3331   -1.7957    0.3990 C   0  0  0  0  0  0  0  0  0  0  0  0
   -3.9810    0.5842   -1.8376 C   0  0  0  0  0  0  0  0  0  0  0  0
   -4.8605    1.5585   -2.5864 C   0  0  0  0  0  0  0  0  0  0  0  0
   -6.3565    5.2128    0.6211 Cl  0  0  0  0  0  0  0  0  0  0  0  0
    3.8113   -4.3457   -0.1077 C   0  0  0  0  0  0  0  0  0  0  0  0
    5.2112   -4.5969   -0.6283 C   0  0  0  0  0  0  0  0  0  0  0  0
    3.9422   -4.1813    1.3927 C   0  0  0  0  0  0  0  0  0  0  0  0
    2.9596   -5.5452   -0.3863 C   0  0  0  0  0  0  0  0  0  0  0  0
    5.1697    5.7579   -3.0653 H   0  0  0  0  0  0  0  0  0  0  0  0
    4.1642    5.7180   -1.6001 H   0  0  0  0  0  0  0  0  0  0  0  0
    5.7341    4.7626   -1.6623 H   0  0  0  0  0  0  0  0  0  0  0  0
    4.8695    3.3435   -0.3360 H   0  0  0  0  0  0  0  0  0  0  0  0
    4.3548    1.1784    0.7499 H   0  0  0  0  0  0  0  0  0  0  0  0
    2.8137    2.0613   -3.8179 H   0  0  0  0  0  0  0  0  0  0  0  0
    3.1530   -0.6653    0.9139 H   0  0  0  0  0  0  0  0  0  0  0  0
    4.5565   -1.7453   -1.4655 H   0  0  0  0  0  0  0  0  0  0  0  0
    4.7719   -2.0803    0.2527 H   0  0  0  0  0  0  0  0  0  0  0  0
    1.6327   -3.4568    0.4672 H   0  0  0  0  0  0  0  0  0  0  0  0
    1.2490   -3.3872   -1.3294 H   0  0  0  0  0  0  0  0  0  0  0  0
    1.0887   -1.1597   -1.2118 H   0  0  0  0  0  0  0  0  0  0  0  0
   -0.3548   -0.9139    3.0836 H   0  0  0  0  0  0  0  0  0  0  0  0
   -0.0124    0.8038    3.3031 H   0  0  0  0  0  0  0  0  0  0  0  0
   -2.3504   -0.5615    2.0624 H   0  0  0  0  0  0  0  0  0  0  0  0
   -2.2583    0.9905    3.0891 H   0  0  0  0  0  0  0  0  0  0  0  0
   -1.7359    0.5939    0.0916 H   0  0  0  0  0  0  0  0  0  0  0  0
   -0.4599    2.3910    2.1171 H   0  0  0  0  0  0  0  0  0  0  0  0
   -0.5969    3.0005    0.4480 H   0  0  0  0  0  0  0  0  0  0  0  0
    1.5032    1.6960    1.1123 H   0  0  0  0  0  0  0  0  0  0  0  0
    0.5835    1.1587   -0.4066 H   0  0  0  0  0  0  0  0  0  0  0  0
   -1.9268    3.8216    1.8756 H   0  0  0  0  0  0  0  0  0  0  0  0
   -3.7638    5.4266    1.7459 H   0  0  0  0  0  0  0  0  0  0  0  0
   -6.1377    2.5798   -0.2896 H   0  0  0  0  0  0  0  0  0  0  0  0
   -3.6111   -0.2323    0.0423 H   0  0  0  0  0  0  0  0  0  0  0  0
   -6.4948    0.6012   -0.6154 H   0  0  0  0  0  0  0  0  0  0  0  0
   -7.6136   -2.3867   -0.5031 H   0  0  0  0  0  0  0  0  0  0  0  0
   -7.3976   -2.4507    1.2728 H   0  0  0  0  0  0  0  0  0  0  0  0
   -8.0771   -0.9642    0.4297 H   0  0  0  0  0  0  0  0  0  0  0  0
   -4.1163   -0.4105   -2.3457 H   0  0  0  0  0  0  0  0  0  0  0  0
   -2.9059    0.8129   -1.9725 H   0  0  0  0  0  0  0  0  0  0  0  0
   -5.9196    1.4389   -2.3788 H   0  0  0  0  0  0  0  0  0  0  0  0
   -4.5649    2.5934   -2.3145 H   0  0  0  0  0  0  0  0  0  0  0  0
   -4.7241    1.4664   -3.6833 H   0  0  0  0  0  0  0  0  0  0  0  0
    5.3277   -4.1712   -1.6334 H   0  0  0  0  0  0  0  0  0  0  0  0
    5.9997   -4.1610    0.0210 H   0  0  0  0  0  0  0  0  0  0  0  0
    5.4348   -5.6904   -0.6939 H   0  0  0  0  0  0  0  0  0  0  0  0
    3.0298   -3.8511    1.8939 H   0  0  0  0  0  0  0  0  0  0  0  0
    4.1724   -5.2073    1.7977 H   0  0  0  0  0  0  0  0  0  0  0  0
    4.8323   -3.5688    1.6564 H   0  0  0  0  0  0  0  0  0  0  0  0
    1.8794   -5.3603   -0.2265 H   0  0  0  0  0  0  0  0  0  0  0  0
    3.2756   -6.3532    0.3275 H   0  0  0  0  0  0  0  0  0  0  0  0
    3.1397   -5.9643   -1.3967 H   0  0  0  0  0  0  0  0  0  0  0  0
  1  2  1  0
  2  3  1  0
  3  4  2  0
  4  5  1  0
  5  6  2  0
  6  7  1  0
  7  8  2  0
  7  9  1  0
  6 10  1  0
 10 11  1  0
 11 12  1  0
 12 13  1  0
 13 14  1  0
 14 15  1  0
 15 16  2  0
 15 17  1  0
 17 18  1  0
 18 19  1  0
 19 20  1  0
 20 21  1  0
 21 22  1  0
 20 23  1  0
 23 24  2  0
 24 25  1  0
 25 26  2  0
 26 27  1  0
 27 28  2  0
 28 29  1  0
 29 30  1  0
 30 31  1  0
 31 32  2  0
 31 33  1  0
 29 34  1  0
 34 35  1  0
 26 36  1  0
 12 37  1  0
 37 38  1  0
 37 39  1  0
 37 40  1  0
  8  3  1  0
 14 10  1  0
 22 17  1  0
 28 23  1  0
  1 41  1  0
  1 42  1  0
  1 43  1  0
  4 44  1  0
  5 45  1  0
  8 46  1  0
 10 47  1  1
 11 48  1  0
 11 49  1  0
 13 50  1  0
 13 51  1  0
 14 52  1  6
 18 53  1  0
 18 54  1  0
 19 55  1  0
 19 56  1  0
 20 57  1  0
 21 58  1  0
 21 59  1  0
 22 60  1  0
 22 61  1  0
 24 62  1  0
 25 63  1  0
 27 64  1  0
 29 65  1  1
 30 66  1  0
 33 67  1  0
 33 68  1  0
 33 69  1  0
 34 70  1  0
 34 71  1  0
 35 72  1  0
 35 73  1  0
 35 74  1  0
 38 75  1  0
 38 76  1  0
 38 77  1  0
 39 78  1  0
 39 79  1  0
 39 80  1  0
 40 81  1  0
 40 82  1  0
 40 83  1  0
M  END
>  <Ligand ID>  (1) 
LIG0003537

>  <Ligand>  (1) 
CHEMBL257759

>  <SMILES>  (1) 
COc1ccc(c(c1)F)[C@@H]1CN(C[C@H]1C(=O)N1CCC(CC1)c1ccc(cc1[C@@H](NC(=O)C)CC)Cl)C(C)(C)C

>  <CID>  (1) 
44448590.0

>  <ChEMBL ID>  (1) 
nan

>  <InChiKey>  (1) 
NCLQWDCIPKHQBS-LXQNXJGFSA-N

>  <InChi>  (1) 
InChI=1S/C32H43ClFN3O3/c1-7-30(35-20(2)38)26-16-22(33)8-10-24(26)21-12-14-36(15-13-21)31(39)28-19-37(32(3,4)5)18-27(28)25-11-9-23(40-6)17-29(25)34/h8-11,16-17,21,27-28,30H,7,12-15,18-19H2,1-6H3,(H,35,38)/t27-,28+,30-/m0/s1

>  <IUPAC Name>  (1) 
N-[(1S)-1-[2-[1-[(3S,4R)-1-tert-butyl-4-(2-fluoro-4-methoxyphenyl)pyrrolidine-3-carbonyl]piperidin-4-yl]-5-chlorophenyl]propyl]acetamide

$$$$
