
     RDKit          3D

181186  0  0  0  0  0  0  0  0999 V2000
   -6.5593    6.5066    6.3027 O   0  0  0  0  0  0  0  0  0  0  0  0
   -5.8491    5.4652    5.7529 C   0  0  0  0  0  0  0  0  0  0  0  0
   -6.0397    5.1958    4.4157 C   0  0  0  0  0  0  0  0  0  0  0  0
   -5.3607    4.1670    3.7929 C   0  0  0  0  0  0  0  0  0  0  0  0
   -4.4523    3.3582    4.4923 C   0  0  0  0  0  0  0  0  0  0  0  0
   -4.2757    3.6380    5.8178 C   0  0  0  0  0  0  0  0  0  0  0  0
   -4.9598    4.6702    6.4384 C   0  0  0  0  0  0  0  0  0  0  0  0
   -3.7637    2.2939    3.7315 C   0  0  0  0  0  0  0  0  0  0  0  0
   -2.4238    2.7994    3.1885 C   0  0  1  0  0  0  0  0  0  0  0  0
   -1.8354    1.6597    2.4029 C   0  0  0  0  0  0  0  0  0  0  0  0
   -1.3821    0.6913    3.0366 O   0  0  0  0  0  0  0  0  0  0  0  0
   -1.8636    1.8061    1.0038 N   0  0  0  0  0  0  0  0  0  0  0  0
   -1.3953    0.8958   -0.0015 C   0  0  1  0  0  0  0  0  0  0  0  0
   -2.5936    0.3143   -0.7977 C   0  0  0  0  0  0  0  0  0  0  0  0
   -3.4603   -0.5353    0.0012 C   0  0  0  0  0  0  0  0  0  0  0  0
   -3.2915   -0.7739    1.1624 O   0  0  0  0  0  0  0  0  0  0  0  0
   -4.6605   -1.2134   -0.5067 N   0  0  0  0  0  0  0  0  0  0  0  0
   -4.9477   -0.8703   -1.8214 C   0  0  2  0  0  0  0  0  0  0  0  0
   -6.1134   -0.0017   -2.0291 C   0  0  0  0  0  0  0  0  0  0  0  0
   -6.4239    0.4108   -3.1616 O   0  0  0  0  0  0  0  0  0  0  0  0
   -6.9754    0.4394   -0.9577 N   0  0  0  0  0  0  0  0  0  0  0  0
   -4.7757   -1.9211   -2.8408 C   0  0  0  0  0  0  0  0  0  0  0  0
   -5.1091   -1.4592   -4.1971 C   0  0  0  0  0  0  0  0  0  0  0  0
   -6.3818   -1.7228   -4.6552 C   0  0  0  0  0  0  0  0  0  0  0  0
   -6.7179   -1.2746   -5.9048 C   0  0  0  0  0  0  0  0  0  0  0  0
   -5.7698   -0.5830   -6.6427 C   0  0  0  0  0  0  0  0  0  0  0  0
   -4.5035   -0.3247   -6.1802 C   0  0  0  0  0  0  0  0  0  0  0  0
   -4.1553   -0.7749   -4.9159 C   0  0  0  0  0  0  0  0  0  0  0  0
   -6.0922   -0.1192   -7.9104 O   0  0  0  0  0  0  0  0  0  0  0  0
   -5.3587   -2.1722    0.3595 C   0  0  2  0  0  0  0  0  0  0  0  0
   -5.9242   -1.5670    1.6082 C   0  0  0  0  0  0  0  0  0  0  0  0
   -4.3142   -3.1090    0.8443 N   0  0  0  0  0  0  0  0  0  0  0  0
   -4.6518   -4.2485    1.6705 C   0  0  0  0  0  0  0  0  0  0  0  0
   -5.8304   -4.3835    1.9220 O   0  0  0  0  0  0  0  0  0  0  0  0
   -3.5091   -5.1021    2.0953 C   0  0  2  0  0  0  0  0  0  0  0  0
   -3.5982   -5.5662    3.4965 C   0  0  0  0  0  0  0  0  0  0  0  0
   -4.8198   -6.4036    3.7298 C   0  0  0  0  0  0  0  0  0  0  0  0
   -5.9962   -5.9113    4.2277 C   0  0  0  0  0  0  0  0  0  0  0  0
   -7.0632   -6.7674    4.3662 C   0  0  0  0  0  0  0  0  0  0  0  0
   -6.9108   -8.0957    3.9992 C   0  0  0  0  0  0  0  0  0  0  0  0
   -5.7476   -8.6082    3.5018 C   0  0  0  0  0  0  0  0  0  0  0  0
   -4.6701   -7.7483    3.3597 C   0  0  0  0  0  0  0  0  0  0  0  0
   -2.2502   -4.4874    1.7722 N   0  0  0  0  0  0  0  0  0  0  0  0
   -1.3039   -4.9948    0.8184 C   0  0  0  0  0  0  0  0  0  0  0  0
   -1.6201   -6.0790    0.3160 O   0  0  0  0  0  0  0  0  0  0  0  0
   -0.1124   -4.1914    0.5690 C   0  0  2  0  0  0  0  0  0  0  0  0
   -0.5141   -2.7727    0.0949 C   0  0  0  0  0  0  0  0  0  0  0  0
    0.8433   -4.7321   -0.3674 N   0  0  0  0  0  0  0  0  0  0  0  0
    2.2125   -4.5128   -0.0808 C   0  0  0  0  0  0  0  0  0  0  0  0
    2.4880   -3.9131    0.9611 O   0  0  0  0  0  0  0  0  0  0  0  0
    3.3614   -4.9484   -0.9426 C   0  0  2  0  0  0  0  0  0  0  0  0
    3.3627   -6.4133   -1.2270 C   0  0  0  0  0  0  0  0  0  0  0  0
    3.4371   -7.2690   -0.0392 C   0  0  0  0  0  0  0  0  0  0  0  0
    3.4765   -8.5303   -0.2488 O   0  0  0  0  0  0  0  0  0  0  0  0
    3.4665   -6.8263    1.2978 N   0  0  0  0  0  0  0  0  0  0  0  0
    4.5937   -4.4736   -0.2984 N   0  0  0  0  0  0  0  0  0  0  0  0
    5.1702   -3.1946   -0.6971 C   0  0  0  0  0  0  0  0  0  0  0  0
    4.5415   -2.6438   -1.5989 O   0  0  0  0  0  0  0  0  0  0  0  0
    6.3950   -2.6831   -0.0160 C   0  0  1  0  0  0  0  0  0  0  0  0
    6.6876   -1.3000   -0.2532 N   0  0  0  0  0  0  0  0  0  0  0  0
    5.7565   -0.2436   -0.4308 C   0  0  0  0  0  0  0  0  0  0  0  0
    4.5661   -0.5199   -0.3708 O   0  0  0  0  0  0  0  0  0  0  0  0
    6.1816    1.1328   -0.6721 C   0  0  1  0  0  0  0  0  0  0  0  0
    5.0868    2.0802   -0.7395 N   0  0  0  0  0  0  0  0  0  0  0  0
    5.1987    3.3081   -1.5054 C   0  0  0  0  0  0  0  0  0  0  0  0
    6.3584    3.4678   -1.9455 O   0  0  0  0  0  0  0  0  0  0  0  0
    4.1553    4.2755   -1.7560 C   0  0  2  0  0  0  0  0  0  0  0  0
    2.7938    3.7659   -1.4534 N   0  0  0  0  0  0  0  0  0  0  0  0
    1.6462    4.0635   -2.2103 C   0  0  0  0  0  0  0  0  0  0  0  0
    1.8805    4.7510   -3.2580 O   0  0  0  0  0  0  0  0  0  0  0  0
    0.2486    3.7195   -2.0234 C   0  0  1  0  0  0  0  0  0  0  0  0
   -0.2196    3.0280   -0.8696 N   0  0  0  0  0  0  0  0  0  0  0  0
   -0.6564    1.6626   -1.0349 C   0  0  0  0  0  0  0  0  0  0  0  0
   -0.3695    1.1408   -2.1106 O   0  0  0  0  0  0  0  0  0  0  0  0
   -0.6303    4.9983   -2.0626 C   0  0  0  0  0  0  0  0  0  0  0  0
   -0.5350    5.7226   -3.3236 C   0  0  0  0  0  0  0  0  0  0  0  0
   -1.3538    5.4448   -4.4226 C   0  0  0  0  0  0  0  0  0  0  0  0
   -1.0346    6.2513   -5.4420 N   0  0  0  0  0  0  0  0  0  0  0  0
   -0.0315    7.0407   -5.0261 C   0  0  0  0  0  0  0  0  0  0  0  0
    0.2621    6.7154   -3.7491 N   0  0  0  0  0  0  0  0  0  0  0  0
    4.2360    4.8742   -3.1481 C   0  0  0  0  0  0  0  0  0  0  0  0
    5.5617    5.5229   -3.3713 C   0  0  0  0  0  0  0  0  0  0  0  0
    6.5889    4.9724   -4.0904 C   0  0  0  0  0  0  0  0  0  0  0  0
    7.7690    5.6798   -4.2264 C   0  0  0  0  0  0  0  0  0  0  0  0
    7.9639    6.9233   -3.6701 C   0  0  0  0  0  0  0  0  0  0  0  0
    6.9320    7.4895   -2.9438 C   0  0  0  0  0  0  0  0  0  0  0  0
    5.7544    6.7898   -2.8032 C   0  0  0  0  0  0  0  0  0  0  0  0
    7.3839    1.5682    0.0701 C   0  0  0  0  0  0  0  0  0  0  0  0
    7.4109    1.5434    1.5442 C   0  0  0  0  0  0  0  0  0  0  0  0
    8.8326    2.0426    1.9077 C   0  0  0  0  0  0  0  0  0  0  0  0
    8.9287    2.0251    3.3476 N   0  0  0  0  0  0  0  0  0  0  0  0
   10.0441    1.6675    3.9256 C   0  0  0  0  0  0  0  0  0  0  0  0
   11.1026    1.3160    3.0085 N   0  0  0  0  0  0  0  0  0  0  0  0
   10.2102    1.6320    5.3262 N   0  0  0  0  0  0  0  0  0  0  0  0
    6.3024   -3.0861    1.4164 C   0  0  0  0  0  0  0  0  0  0  0  0
   -6.3177   -3.0166   -0.3878 C   0  0  0  0  0  0  0  0  0  0  0  0
   -7.3958   -2.5973   -0.8860 O   0  0  0  0  0  0  0  0  0  0  0  0
   -6.0796   -4.3946   -0.6011 O   0  0  0  0  0  0  0  0  0  0  0  0
   -2.7129    3.9450    2.3823 N   0  0  0  0  0  0  0  0  0  0  0  0
   -6.3319    7.4489    5.9641 H   0  0  0  0  0  0  0  0  0  0  0  0
   -6.7372    5.8017    3.8219 H   0  0  0  0  0  0  0  0  0  0  0  0
   -5.5723    4.0168    2.7451 H   0  0  0  0  0  0  0  0  0  0  0  0
   -3.5949    3.0461    6.3892 H   0  0  0  0  0  0  0  0  0  0  0  0
   -4.8128    4.8830    7.4968 H   0  0  0  0  0  0  0  0  0  0  0  0
   -4.4060    2.0073    2.8764 H   0  0  0  0  0  0  0  0  0  0  0  0
   -3.5254    1.4320    4.3934 H   0  0  0  0  0  0  0  0  0  0  0  0
   -1.7356    3.0808    4.0079 H   0  0  0  0  0  0  0  0  0  0  0  0
   -2.2863    2.7106    0.6039 H   0  0  0  0  0  0  0  0  0  0  0  0
   -0.8429    0.0377    0.4160 H   0  0  0  0  0  0  0  0  0  0  0  0
   -2.1714   -0.2560   -1.6805 H   0  0  0  0  0  0  0  0  0  0  0  0
   -3.0476    1.2311   -1.2292 H   0  0  0  0  0  0  0  0  0  0  0  0
   -4.0723   -0.1312   -2.0900 H   0  0  0  0  0  0  0  0  0  0  0  0
   -6.5811    1.1448   -0.2707 H   0  0  0  0  0  0  0  0  0  0  0  0
   -7.9585    0.0773   -0.8581 H   0  0  0  0  0  0  0  0  0  0  0  0
   -3.7263   -2.3038   -2.9235 H   0  0  0  0  0  0  0  0  0  0  0  0
   -5.3672   -2.8418   -2.6593 H   0  0  0  0  0  0  0  0  0  0  0  0
   -7.0784   -2.2622   -4.0499 H   0  0  0  0  0  0  0  0  0  0  0  0
   -7.7127   -1.4601   -6.3080 H   0  0  0  0  0  0  0  0  0  0  0  0
   -3.8026    0.2190   -6.7980 H   0  0  0  0  0  0  0  0  0  0  0  0
   -3.1534   -0.5831   -4.5105 H   0  0  0  0  0  0  0  0  0  0  0  0
   -7.0079    0.3572   -7.9563 H   0  0  0  0  0  0  0  0  0  0  0  0
   -5.5376   -2.0307    2.5568 H   0  0  0  0  0  0  0  0  0  0  0  0
   -7.0373   -1.7139    1.6741 H   0  0  0  0  0  0  0  0  0  0  0  0
   -5.6712   -0.4733    1.7354 H   0  0  0  0  0  0  0  0  0  0  0  0
   -3.3313   -3.0079    0.6282 H   0  0  0  0  0  0  0  0  0  0  0  0
   -3.6559   -6.0465    1.4609 H   0  0  0  0  0  0  0  0  0  0  0  0
   -2.7296   -6.1853    3.7981 H   0  0  0  0  0  0  0  0  0  0  0  0
   -3.6676   -4.7212    4.2326 H   0  0  0  0  0  0  0  0  0  0  0  0
   -6.1014   -4.8761    4.5241 H   0  0  0  0  0  0  0  0  0  0  0  0
   -8.0333   -6.4804    4.7400 H   0  0  0  0  0  0  0  0  0  0  0  0
   -7.7558   -8.8026    4.0987 H   0  0  0  0  0  0  0  0  0  0  0  0
   -5.6705   -9.6606    3.2264 H   0  0  0  0  0  0  0  0  0  0  0  0
   -3.7354   -8.1228    2.9643 H   0  0  0  0  0  0  0  0  0  0  0  0
   -1.9878   -3.6257    2.2437 H   0  0  0  0  0  0  0  0  0  0  0  0
    0.4221   -4.0319    1.5544 H   0  0  0  0  0  0  0  0  0  0  0  0
    0.4597   -2.2714   -0.1220 H   0  0  0  0  0  0  0  0  0  0  0  0
   -1.0633   -2.2938    0.9229 H   0  0  0  0  0  0  0  0  0  0  0  0
   -1.1009   -2.9155   -0.8299 H   0  0  0  0  0  0  0  0  0  0  0  0
    0.6487   -5.2562   -1.2186 H   0  0  0  0  0  0  0  0  0  0  0  0
    3.2902   -4.4029   -1.9274 H   0  0  0  0  0  0  0  0  0  0  0  0
    2.4219   -6.6374   -1.7859 H   0  0  0  0  0  0  0  0  0  0  0  0
    4.1776   -6.6225   -1.9534 H   0  0  0  0  0  0  0  0  0  0  0  0
    2.5992   -6.4948    1.8118 H   0  0  0  0  0  0  0  0  0  0  0  0
    4.3457   -6.8005    1.8566 H   0  0  0  0  0  0  0  0  0  0  0  0
    5.1105   -4.9606    0.4188 H   0  0  0  0  0  0  0  0  0  0  0  0
    7.2027   -3.3346   -0.4974 H   0  0  0  0  0  0  0  0  0  0  0  0
    7.6750   -1.0196   -0.2980 H   0  0  0  0  0  0  0  0  0  0  0  0
    6.5650    1.1647   -1.7696 H   0  0  0  0  0  0  0  0  0  0  0  0
    4.1941    1.9702   -0.2703 H   0  0  0  0  0  0  0  0  0  0  0  0
    4.2346    5.2025   -1.1203 H   0  0  0  0  0  0  0  0  0  0  0  0
    2.6434    3.1600   -0.6438 H   0  0  0  0  0  0  0  0  0  0  0  0
   -0.0302    3.1113   -2.9629 H   0  0  0  0  0  0  0  0  0  0  0  0
   -0.2798    3.3661    0.0947 H   0  0  0  0  0  0  0  0  0  0  0  0
   -1.6676    4.6440   -1.8417 H   0  0  0  0  0  0  0  0  0  0  0  0
   -0.3116    5.5707   -1.1768 H   0  0  0  0  0  0  0  0  0  0  0  0
   -2.1395    4.7060   -4.4926 H   0  0  0  0  0  0  0  0  0  0  0  0
   -1.4767    6.2658   -6.3872 H   0  0  0  0  0  0  0  0  0  0  0  0
    0.4222    7.7874   -5.6384 H   0  0  0  0  0  0  0  0  0  0  0  0
    4.0584    4.1287   -3.8870 H   0  0  0  0  0  0  0  0  0  0  0  0
    3.4901    5.7338   -3.1904 H   0  0  0  0  0  0  0  0  0  0  0  0
    6.4655    3.9906   -4.5541 H   0  0  0  0  0  0  0  0  0  0  0  0
    8.5926    5.2603   -4.7901 H   0  0  0  0  0  0  0  0  0  0  0  0
    8.8744    7.4956   -3.7667 H   0  0  0  0  0  0  0  0  0  0  0  0
    7.0118    8.4702   -2.4727 H   0  0  0  0  0  0  0  0  0  0  0  0
    4.9424    7.2280   -2.2299 H   0  0  0  0  0  0  0  0  0  0  0  0
    8.3103    1.0028   -0.2757 H   0  0  0  0  0  0  0  0  0  0  0  0
    7.6329    2.6260   -0.2419 H   0  0  0  0  0  0  0  0  0  0  0  0
    6.7300    2.2140    2.0688 H   0  0  0  0  0  0  0  0  0  0  0  0
    7.3987    0.4915    1.9513 H   0  0  0  0  0  0  0  0  0  0  0  0
    8.9518    3.0655    1.5536 H   0  0  0  0  0  0  0  0  0  0  0  0
    9.5652    1.3299    1.4216 H   0  0  0  0  0  0  0  0  0  0  0  0
   11.8181    2.0041    2.6920 H   0  0  0  0  0  0  0  0  0  0  0  0
   11.0832    0.3093    2.6931 H   0  0  0  0  0  0  0  0  0  0  0  0
   10.1889    0.7562    5.9098 H   0  0  0  0  0  0  0  0  0  0  0  0
   10.3722    2.5721    5.8000 H   0  0  0  0  0  0  0  0  0  0  0  0
    5.2539   -3.1848    1.7796 H   0  0  0  0  0  0  0  0  0  0  0  0
    6.9013   -2.4361    2.1105 H   0  0  0  0  0  0  0  0  0  0  0  0
    6.7425   -4.0955    1.5311 H   0  0  0  0  0  0  0  0  0  0  0  0
   -6.4904   -4.8283   -1.4432 H   0  0  0  0  0  0  0  0  0  0  0  0
   -1.8500    4.3941    1.9931 H   0  0  0  0  0  0  0  0  0  0  0  0
   -3.4751    3.8644    1.7085 H   0  0  0  0  0  0  0  0  0  0  0  0
  1  2  1  0
  2  3  2  0
  3  4  1  0
  4  5  2  0
  5  6  1  0
  6  7  2  0
  5  8  1  0
  8  9  1  0
  9 10  1  0
 10 11  2  0
 10 12  1  0
 12 13  1  0
 13 14  1  0
 14 15  1  0
 15 16  2  0
 15 17  1  0
 17 18  1  0
 18 19  1  0
 19 20  2  0
 19 21  1  0
 18 22  1  0
 22 23  1  0
 23 24  2  0
 24 25  1  0
 25 26  2  0
 26 27  1  0
 27 28  2  0
 26 29  1  0
 17 30  1  0
 30 31  1  1
 30 32  1  0
 32 33  1  0
 33 34  2  0
 33 35  1  0
 35 36  1  0
 36 37  1  0
 37 38  2  0
 38 39  1  0
 39 40  2  0
 40 41  1  0
 41 42  2  0
 35 43  1  0
 43 44  1  0
 44 45  2  0
 44 46  1  0
 46 47  1  0
 46 48  1  0
 48 49  1  0
 49 50  2  0
 49 51  1  0
 51 52  1  0
 52 53  1  0
 53 54  2  0
 53 55  1  0
 51 56  1  0
 56 57  1  0
 57 58  2  0
 57 59  1  0
 59 60  1  0
 60 61  1  0
 61 62  2  0
 61 63  1  0
 63 64  1  0
 64 65  1  0
 65 66  2  0
 65 67  1  0
 67 68  1  0
 68 69  1  0
 69 70  2  0
 69 71  1  0
 71 72  1  0
 72 73  1  0
 73 74  2  0
 71 75  1  0
 75 76  1  0
 76 77  2  0
 77 78  1  0
 78 79  1  0
 79 80  2  0
 67 81  1  0
 81 82  1  0
 82 83  2  0
 83 84  1  0
 84 85  2  0
 85 86  1  0
 86 87  2  0
 63 88  1  0
 88 89  1  0
 89 90  1  0
 90 91  1  0
 91 92  2  3
 92 93  1  0
 92 94  1  0
 59 95  1  0
 30 96  1  0
 96 97  2  0
 96 98  1  0
  9 99  1  0
  7  2  1  0
 73 13  1  0
 80 76  1  0
 87 82  1  0
 28 23  1  0
 42 37  1  0
  1100  1  0
  3101  1  0
  4102  1  0
  6103  1  0
  7104  1  0
  8105  1  0
  8106  1  0
  9107  1  1
 12108  1  0
 13109  1  1
 14110  1  0
 14111  1  0
 18112  1  6
 21113  1  0
 21114  1  0
 22115  1  0
 22116  1  0
 24117  1  0
 25118  1  0
 27119  1  0
 28120  1  0
 29121  1  0
 31122  1  0
 31123  1  0
 31124  1  0
 32125  1  0
 35126  1  6
 36127  1  0
 36128  1  0
 38129  1  0
 39130  1  0
 40131  1  0
 41132  1  0
 42133  1  0
 43134  1  0
 46135  1  1
 47136  1  0
 47137  1  0
 47138  1  0
 48139  1  0
 51140  1  6
 52141  1  0
 52142  1  0
 55143  1  0
 55144  1  0
 56145  1  0
 59146  1  6
 60147  1  0
 63148  1  6
 64149  1  0
 67150  1  1
 68151  1  0
 71152  1  6
 72153  1  0
 75154  1  0
 75155  1  0
 77156  1  0
 78157  1  0
 79158  1  0
 81159  1  0
 81160  1  0
 83161  1  0
 84162  1  0
 85163  1  0
 86164  1  0
 87165  1  0
 88166  1  0
 88167  1  0
 89168  1  0
 89169  1  0
 90170  1  0
 90171  1  0
 93172  1  0
 93173  1  0
 94174  1  0
 94175  1  0
 95176  1  0
 95177  1  0
 95178  1  0
 98179  1  0
 99180  1  0
 99181  1  0
M  END
>  <Ligand ID>  (1) 
LIG0001153

>  <Ligand>  (1) 
CHEMBL2369970

>  <SMILES>  (1) 
Oc1ccc(cc1)C[C@@H](C(=O)N[C@H]1CC(=O)N([C@H](C(=O)N)Cc2ccc(cc2)O)[C@](C)(NC(=O)[C@H](Cc2ccccc2)NC(=O)[C@H](C)NC(=O)[C@H](CC(=O)N)NC(=O)[C@@H](NC(=O)[C@@H](NC(=O)[C@H](NC(=O)[C@@H](NC1=O)Cc1c[nH]cn1)Cc1ccccc1)CCCN=C(N)N)C)C(=O)O)N

>  <CID>  (1) 
73345426.0

>  <ChEMBL ID>  (1) 
nan

>  <InChiKey>  (1) 
LCUVTXMIBHENSA-VFSAVLPMSA-N

>  <InChi>  (1) 
InChI=1S/C65H82N18O16/c1-34-55(90)78-48(30-51(67)86)58(93)75-35(2)54(89)77-46(27-37-13-8-5-9-14-37)62(97)82-65(3,63(98)99)83(50(53(68)88)28-39-18-22-42(85)23-19-39)52(87)31-49(79-56(91)43(66)25-38-16-20-41(84)21-17-38)61(96)81-47(29-40-32-71-33-73-40)60(95)80-45(26-36-11-6-4-7-12-36)59(94)76-44(57(92)74-34)15-10-24-72-64(69)70/h4-9,11-14,16-23,32-35,43-50,84-85H,10,15,24-31,66H2,1-3H3,(H2,67,86)(H2,68,88)(H,71,73)(H,74,92)(H,75,93)(H,76,94)(H,77,89)(H,78,90)(H,79,91)(H,80,95)(H,81,96)(H,82,97)(H,98,99)(H4,69,70,72)/t34-,35-,43-,44-,45+,46-,47-,48-,49-,50-,65-/m0/s1

>  <IUPAC Name>  (1) 
(2S,5S,8S,11S,14S,17S,20R,23S,26S)-1-[(2S)-1-amino-3-(4-hydroxyphenyl)-1-oxopropan-2-yl]-26-[[(2S)-2-amino-3-(4-hydroxyphenyl)propanoyl]amino]-11-(2-amino-2-oxoethyl)-5,20-dibenzyl-17-[3-(diaminomethylideneamino)propyl]-23-(1H-imidazol-4-ylmethyl)-2,8,14-trimethyl-4,7,10,13,16,19,22,25,28-nonaoxo-1,3,6,9,12,15,18,21,24-nonazacyclooctacosane-2-carboxylic acid

$$$$
