
     RDKit          3D

 87 90  0  0  0  0  0  0  0  0999 V2000
    0.8558   -4.6558    1.0129 C   0  0  0  0  0  0  0  0  0  0  0  0
   -0.1153   -4.2648    2.1143 C   0  0  0  0  0  0  0  0  0  0  0  0
    0.0448   -2.9505    2.7034 C   0  0  0  0  0  0  0  0  0  0  0  0
    0.0007   -1.6510    2.1432 C   0  0  2  0  0  0  0  0  0  0  0  0
   -1.1082   -1.0224    1.4637 N   0  0  0  0  0  0  0  0  0  0  0  0
   -1.1771    0.4420    1.7623 C   0  0  0  0  0  0  0  0  0  0  0  0
    0.0788    1.1070    1.2746 C   0  0  0  0  0  0  0  0  0  0  0  0
    1.1891    0.2389    1.0148 N   0  0  0  0  0  0  0  0  0  0  0  0
    1.1915   -1.1748    1.3283 C   0  0  0  0  0  0  0  0  0  0  0  0
    2.0779   -1.9515    0.9736 O   0  0  0  0  0  0  0  0  0  0  0  0
    2.4003    0.8172    0.3975 C   0  0  2  0  0  0  0  0  0  0  0  0
    2.6670    0.2238   -0.9262 C   0  0  0  0  0  0  0  0  0  0  0  0
    2.1516   -0.8266   -1.3642 O   0  0  0  0  0  0  0  0  0  0  0  0
    3.5879    0.8866   -1.8059 N   0  0  0  0  0  0  0  0  0  0  0  0
    3.8946    0.3424   -3.1250 C   0  0  0  0  0  0  0  0  0  0  0  0
    3.5783    0.6226    1.2915 C   0  0  0  0  0  0  0  0  0  0  0  0
    4.8648    1.1382    0.7939 C   0  0  0  0  0  0  0  0  0  0  0  0
    5.2272    2.4607    1.0015 C   0  0  0  0  0  0  0  0  0  0  0  0
    6.4731    2.8677    0.5298 C   0  0  0  0  0  0  0  0  0  0  0  0
    7.3354    2.0180   -0.1208 C   0  0  0  0  0  0  0  0  0  0  0  0
    6.9393    0.6946   -0.3130 C   0  0  0  0  0  0  0  0  0  0  0  0
    5.7175    0.2446    0.1352 C   0  0  0  0  0  0  0  0  0  0  0  0
    7.8324   -0.1233   -0.9686 C   0  0  0  0  0  0  0  0  0  0  0  0
    9.0619    0.3015   -1.4266 C   0  0  0  0  0  0  0  0  0  0  0  0
    9.4418    1.6143   -1.2302 C   0  0  0  0  0  0  0  0  0  0  0  0
    8.5741    2.4713   -0.5753 C   0  0  0  0  0  0  0  0  0  0  0  0
   -1.9852   -1.6398    0.5684 C   0  0  0  0  0  0  0  0  0  0  0  0
   -1.6890   -2.8740    0.2873 O   0  0  0  0  0  0  0  0  0  0  0  0
   -3.1831   -1.1711   -0.1231 C   0  0  2  0  0  0  0  0  0  0  0  0
   -3.7186    0.1090    0.1391 N   0  0  0  0  0  0  0  0  0  0  0  0
   -3.6618    1.1553   -0.8524 C   0  0  0  0  0  0  0  0  0  0  0  0
   -3.1119    0.8872   -1.9764 O   0  0  0  0  0  0  0  0  0  0  0  0
   -4.2076    2.4890   -0.6072 C   0  0  0  0  0  0  0  0  0  0  0  0
   -3.5786    3.2101    0.5716 C   0  0  0  0  0  0  0  0  0  0  0  0
   -3.9452    3.3677   -1.8149 C   0  0  0  0  0  0  0  0  0  0  0  0
   -5.7015    2.5185   -0.3730 C   0  0  0  0  0  0  0  0  0  0  0  0
   -4.2313   -2.2711    0.0144 C   0  0  0  0  0  0  0  0  0  0  0  0
   -5.5109   -1.9546   -0.6222 C   0  0  0  0  0  0  0  0  0  0  0  0
   -5.8402   -2.2460   -1.9271 C   0  0  0  0  0  0  0  0  0  0  0  0
   -7.0856   -1.9051   -2.4303 C   0  0  0  0  0  0  0  0  0  0  0  0
   -8.0179   -1.2633   -1.6204 C   0  0  0  0  0  0  0  0  0  0  0  0
   -7.7069   -0.9630   -0.3110 C   0  0  0  0  0  0  0  0  0  0  0  0
   -6.4653   -1.3075    0.1767 C   0  0  0  0  0  0  0  0  0  0  0  0
   -9.2489   -0.9233   -2.1058 F   0  0  0  0  0  0  0  0  0  0  0  0
    0.7169   -4.1392    0.0689 H   0  0  0  0  0  0  0  0  0  0  0  0
    1.9039   -4.6410    1.4166 H   0  0  0  0  0  0  0  0  0  0  0  0
    0.7144   -5.7511    0.7599 H   0  0  0  0  0  0  0  0  0  0  0  0
    0.2511   -5.0029    2.9536 H   0  0  0  0  0  0  0  0  0  0  0  0
   -1.1240   -4.6933    1.9736 H   0  0  0  0  0  0  0  0  0  0  0  0
    1.0599   -3.0029    3.2747 H   0  0  0  0  0  0  0  0  0  0  0  0
   -0.6454   -2.9496    3.6389 H   0  0  0  0  0  0  0  0  0  0  0  0
    0.1878   -0.9588    3.0848 H   0  0  0  0  0  0  0  0  0  0  0  0
   -2.0805    0.9254    1.5138 H   0  0  0  0  0  0  0  0  0  0  0  0
   -1.0985    0.4741    2.8955 H   0  0  0  0  0  0  0  0  0  0  0  0
    0.4266    1.9324    1.9536 H   0  0  0  0  0  0  0  0  0  0  0  0
   -0.2064    1.6553    0.3336 H   0  0  0  0  0  0  0  0  0  0  0  0
    2.1772    1.9021    0.2537 H   0  0  0  0  0  0  0  0  0  0  0  0
    4.0678    1.7781   -1.5639 H   0  0  0  0  0  0  0  0  0  0  0  0
    4.9172   -0.0499   -3.2064 H   0  0  0  0  0  0  0  0  0  0  0  0
    3.7778    1.1829   -3.8535 H   0  0  0  0  0  0  0  0  0  0  0  0
    3.2007   -0.4582   -3.4337 H   0  0  0  0  0  0  0  0  0  0  0  0
    3.6795   -0.4215    1.6565 H   0  0  0  0  0  0  0  0  0  0  0  0
    3.3612    1.2341    2.2224 H   0  0  0  0  0  0  0  0  0  0  0  0
    4.5723    3.1466    1.5072 H   0  0  0  0  0  0  0  0  0  0  0  0
    6.7592    3.8834    0.6856 H   0  0  0  0  0  0  0  0  0  0  0  0
    5.4449   -0.7908   -0.0314 H   0  0  0  0  0  0  0  0  0  0  0  0
    7.5227   -1.1636   -1.1207 H   0  0  0  0  0  0  0  0  0  0  0  0
    9.7304   -0.4020   -1.9426 H   0  0  0  0  0  0  0  0  0  0  0  0
   10.3950    2.0002   -1.5682 H   0  0  0  0  0  0  0  0  0  0  0  0
    8.8190    3.5086   -0.3940 H   0  0  0  0  0  0  0  0  0  0  0  0
   -2.9631   -1.1867   -1.2602 H   0  0  0  0  0  0  0  0  0  0  0  0
   -4.1939    0.2837    1.0776 H   0  0  0  0  0  0  0  0  0  0  0  0
   -3.7563    2.6647    1.5070 H   0  0  0  0  0  0  0  0  0  0  0  0
   -2.5169    3.4684    0.3800 H   0  0  0  0  0  0  0  0  0  0  0  0
   -4.1129    4.1875    0.6594 H   0  0  0  0  0  0  0  0  0  0  0  0
   -2.8863    3.2589   -2.1458 H   0  0  0  0  0  0  0  0  0  0  0  0
   -4.1109    4.4424   -1.6104 H   0  0  0  0  0  0  0  0  0  0  0  0
   -4.5593    3.0186   -2.6892 H   0  0  0  0  0  0  0  0  0  0  0  0
   -6.0071    3.5864   -0.2865 H   0  0  0  0  0  0  0  0  0  0  0  0
   -6.1948    2.0829   -1.2792 H   0  0  0  0  0  0  0  0  0  0  0  0
   -5.9673    1.9736    0.5400 H   0  0  0  0  0  0  0  0  0  0  0  0
   -4.3277   -2.4643    1.1033 H   0  0  0  0  0  0  0  0  0  0  0  0
   -3.7571   -3.1878   -0.4000 H   0  0  0  0  0  0  0  0  0  0  0  0
   -5.0967   -2.7479   -2.5449 H   0  0  0  0  0  0  0  0  0  0  0  0
   -7.3291   -2.1432   -3.4645 H   0  0  0  0  0  0  0  0  0  0  0  0
   -8.4134   -0.4616    0.3517 H   0  0  0  0  0  0  0  0  0  0  0  0
   -6.2335   -1.0623    1.2174 H   0  0  0  0  0  0  0  0  0  0  0  0
  1  2  1  0
  2  3  1  0
  3  4  1  0
  4  5  1  0
  5  6  1  0
  6  7  1  0
  7  8  1  0
  8  9  1  0
  9 10  2  0
  8 11  1  0
 11 12  1  0
 12 13  2  0
 12 14  1  0
 14 15  1  0
 11 16  1  0
 16 17  1  0
 17 18  2  0
 18 19  1  0
 19 20  2  0
 20 21  1  0
 21 22  2  0
 21 23  1  0
 23 24  2  0
 24 25  1  0
 25 26  2  0
  5 27  1  0
 27 28  2  0
 27 29  1  0
 29 30  1  0
 30 31  1  0
 31 32  2  0
 31 33  1  0
 33 34  1  0
 33 35  1  0
 33 36  1  0
 29 37  1  0
 37 38  1  0
 38 39  2  0
 39 40  1  0
 40 41  2  0
 41 42  1  0
 42 43  2  0
 41 44  1  0
  9  4  1  0
 22 17  1  0
 43 38  1  0
 26 20  1  0
  1 45  1  0
  1 46  1  0
  1 47  1  0
  2 48  1  0
  2 49  1  0
  3 50  1  0
  3 51  1  0
  4 52  1  1
  6 53  1  0
  6 54  1  0
  7 55  1  0
  7 56  1  0
 11 57  1  6
 14 58  1  0
 15 59  1  0
 15 60  1  0
 15 61  1  0
 16 62  1  0
 16 63  1  0
 18 64  1  0
 19 65  1  0
 22 66  1  0
 23 67  1  0
 24 68  1  0
 25 69  1  0
 26 70  1  0
 29 71  1  6
 30 72  1  0
 34 73  1  0
 34 74  1  0
 34 75  1  0
 35 76  1  0
 35 77  1  0
 35 78  1  0
 36 79  1  0
 36 80  1  0
 36 81  1  0
 37 82  1  0
 37 83  1  0
 39 84  1  0
 40 85  1  0
 42 86  1  0
 43 87  1  0
M  END
>  <Ligand ID>  (1) 
LIG0004073

>  <Ligand>  (1) 
CHEMBL507876

>  <SMILES>  (1) 
CCC[C@@H]1N(CCN(C1=O)[C@H](C(=O)NC)Cc1ccc2c(c1)cccc2)C(=O)[C@H](NC(=O)C(C)(C)C)Cc1ccc(cc1)F

>  <CID>  (1) 
25132526.0

>  <ChEMBL ID>  (1) 
nan

>  <InChiKey>  (1) 
SCWYPKQWJXXMFD-NGDRWEMDSA-N

>  <InChi>  (1) 
InChI=1S/C35H43FN4O4/c1-6-9-29-33(43)40(30(31(41)37-5)22-24-12-15-25-10-7-8-11-26(25)20-24)19-18-39(29)32(42)28(38-34(44)35(2,3)4)21-23-13-16-27(36)17-14-23/h7-8,10-17,20,28-30H,6,9,18-19,21-22H2,1-5H3,(H,37,41)(H,38,44)/t28-,29+,30+/m1/s1

>  <IUPAC Name>  (1) 
N-[(2R)-3-(4-fluorophenyl)-1-[(2S)-4-[(2S)-1-(methylamino)-3-naphthalen-2-yl-1-oxopropan-2-yl]-3-oxo-2-propylpiperazin-1-yl]-1-oxopropan-2-yl]-2,2-dimethylpropanamide

$$$$
