
     RDKit          3D

 48 49  0  0  0  0  0  0  0  0999 V2000
    0.3312   -1.1623   -1.6718 C   0  0  0  0  0  0  0  0  0  0  0  0
   -0.6126   -0.0550   -1.3012 C   0  0  2  0  0  0  0  0  0  0  0  0
   -0.3021    0.5451    0.0271 C   0  0  0  0  0  0  0  0  0  0  0  0
    1.0308    1.1333    0.0873 N   0  0  0  0  0  0  0  0  0  0  0  0
    2.2011    0.4471    0.4676 C   0  0  0  0  0  0  0  0  0  0  0  0
    2.2646   -0.8394    0.9226 C   0  0  0  0  0  0  0  0  0  0  0  0
    3.4431   -1.4830    1.2640 C   0  0  0  0  0  0  0  0  0  0  0  0
    4.6390   -0.8068    1.1475 C   0  0  0  0  0  0  0  0  0  0  0  0
    4.6204    0.5093    0.6876 C   0  0  0  0  0  0  0  0  0  0  0  0
    3.4287    1.1149    0.3579 C   0  0  0  0  0  0  0  0  0  0  0  0
    5.8554    1.3154    0.5371 C   0  0  0  0  0  0  0  0  0  0  0  0
    6.4681    1.2270   -0.8096 C   0  0  0  0  0  0  0  0  0  0  0  0
    5.9892    0.5268   -1.7357 O   0  0  0  0  0  0  0  0  0  0  0  0
    7.6324    1.9807   -1.0058 O   0  0  0  0  0  0  0  0  0  0  0  0
   -1.9462   -0.2533   -1.6761 N   0  0  0  0  0  0  0  0  0  0  0  0
   -2.6821   -1.3852   -1.3317 C   0  0  0  0  0  0  0  0  0  0  0  0
   -3.0735   -1.5278    0.1085 C   0  0  1  0  0  0  0  0  0  0  0  0
   -4.0136   -0.4176    0.5005 C   0  0  0  0  0  0  0  0  0  0  0  0
   -3.6763    0.5774    1.3666 C   0  0  0  0  0  0  0  0  0  0  0  0
   -4.6469    1.5439    1.6283 C   0  0  0  0  0  0  0  0  0  0  0  0
   -5.8957    1.5156    1.0506 C   0  0  0  0  0  0  0  0  0  0  0  0
   -6.2255    0.4972    0.1709 C   0  0  0  0  0  0  0  0  0  0  0  0
   -5.2694   -0.4836   -0.1080 C   0  0  0  0  0  0  0  0  0  0  0  0
   -7.7869    0.3914   -0.6063 Cl  0  0  0  0  0  0  0  0  0  0  0  0
   -3.8273   -2.7293    0.2675 O   0  0  0  0  0  0  0  0  0  0  0  0
    0.0995   -1.5291   -2.7095 H   0  0  0  0  0  0  0  0  0  0  0  0
    0.3440   -1.9788   -0.9544 H   0  0  0  0  0  0  0  0  0  0  0  0
    1.3476   -0.7358   -1.7608 H   0  0  0  0  0  0  0  0  0  0  0  0
   -0.2613    0.8027   -2.0412 H   0  0  0  0  0  0  0  0  0  0  0  0
   -0.3809   -0.2393    0.8333 H   0  0  0  0  0  0  0  0  0  0  0  0
   -1.0268    1.3685    0.2219 H   0  0  0  0  0  0  0  0  0  0  0  0
    1.0988    2.1581   -0.1843 H   0  0  0  0  0  0  0  0  0  0  0  0
    1.3613   -1.3972    1.0433 H   0  0  0  0  0  0  0  0  0  0  0  0
    3.4285   -2.5232    1.6265 H   0  0  0  0  0  0  0  0  0  0  0  0
    5.5659   -1.2676    1.3995 H   0  0  0  0  0  0  0  0  0  0  0  0
    3.4283    2.1361    0.0011 H   0  0  0  0  0  0  0  0  0  0  0  0
    6.5715    0.9580    1.3146 H   0  0  0  0  0  0  0  0  0  0  0  0
    5.6124    2.3733    0.8194 H   0  0  0  0  0  0  0  0  0  0  0  0
    7.8380    2.3489   -1.9443 H   0  0  0  0  0  0  0  0  0  0  0  0
   -2.2205    0.1158   -2.6164 H   0  0  0  0  0  0  0  0  0  0  0  0
   -2.2034   -2.3582   -1.6264 H   0  0  0  0  0  0  0  0  0  0  0  0
   -3.6529   -1.4120   -1.9281 H   0  0  0  0  0  0  0  0  0  0  0  0
   -2.2365   -1.5742    0.8020 H   0  0  0  0  0  0  0  0  0  0  0  0
   -2.7115    0.6028    1.8177 H   0  0  0  0  0  0  0  0  0  0  0  0
   -4.4558    2.3729    2.3092 H   0  0  0  0  0  0  0  0  0  0  0  0
   -6.6514    2.2632    1.2500 H   0  0  0  0  0  0  0  0  0  0  0  0
   -5.5419   -1.2581   -0.7901 H   0  0  0  0  0  0  0  0  0  0  0  0
   -3.2987   -3.4083    0.7808 H   0  0  0  0  0  0  0  0  0  0  0  0
  1  2  1  0
  2  3  1  0
  3  4  1  0
  4  5  1  0
  5  6  2  0
  6  7  1  0
  7  8  2  0
  8  9  1  0
  9 10  2  0
  9 11  1  0
 11 12  1  0
 12 13  2  0
 12 14  1  0
  2 15  1  0
 15 16  1  0
 16 17  1  0
 17 18  1  0
 18 19  2  0
 19 20  1  0
 20 21  2  0
 21 22  1  0
 22 23  2  0
 22 24  1  0
 17 25  1  0
 10  5  1  0
 23 18  1  0
  1 26  1  0
  1 27  1  0
  1 28  1  0
  2 29  1  6
  3 30  1  0
  3 31  1  0
  4 32  1  0
  6 33  1  0
  7 34  1  0
  8 35  1  0
 10 36  1  0
 11 37  1  0
 11 38  1  0
 14 39  1  0
 15 40  1  0
 16 41  1  0
 16 42  1  0
 17 43  1  1
 19 44  1  0
 20 45  1  0
 21 46  1  0
 23 47  1  0
 25 48  1  0
M  END
>  <Ligand ID>  (1) 
LIG0002261

>  <Ligand>  (1) 
CHEMBL154036

>  <SMILES>  (1) 
C[C@H](CNc1cccc(c1)CC(=O)O)NC[C@@H](c1cccc(c1)Cl)O

>  <CID>  (1) 
44369602.0

>  <ChEMBL ID>  (1) 
nan

>  <InChiKey>  (1) 
XLHISXVBDXEKEW-ACJLOTCBSA-N

>  <InChi>  (1) 
InChI=1S/C19H23ClN2O3/c1-13(21-12-18(23)15-5-3-6-16(20)10-15)11-22-17-7-2-4-14(8-17)9-19(24)25/h2-8,10,13,18,21-23H,9,11-12H2,1H3,(H,24,25)/t13-,18+/m1/s1

>  <IUPAC Name>  (1) 
2-[3-[[(2R)-2-[[(2R)-2-(3-chlorophenyl)-2-hydroxyethyl]amino]propyl]amino]phenyl]acetic acid

$$$$
