
     RDKit          3D

 61 65  0  0  0  0  0  0  0  0999 V2000
    7.8967   -0.8818    1.3196 O   0  0  0  0  0  0  0  0  0  0  0  0
    7.9028    0.4771    1.5623 C   0  0  0  0  0  0  0  0  0  0  0  0
    9.0310    1.0306    1.6763 O   0  0  0  0  0  0  0  0  0  0  0  0
    6.6959    1.3153    1.6974 C   0  0  0  0  0  0  0  0  0  0  0  0
    5.5049    0.6199    1.5002 O   0  0  0  0  0  0  0  0  0  0  0  0
    5.2376    0.0274    0.2791 C   0  0  0  0  0  0  0  0  0  0  0  0
    6.1128    0.1089   -0.7884 C   0  0  0  0  0  0  0  0  0  0  0  0
    5.8459   -0.4848   -2.0173 C   0  0  0  0  0  0  0  0  0  0  0  0
    4.6656   -1.1671   -2.1433 C   0  0  0  0  0  0  0  0  0  0  0  0
    3.7914   -1.2484   -1.0782 C   0  0  0  0  0  0  0  0  0  0  0  0
    4.0279   -0.6725    0.1476 C   0  0  0  0  0  0  0  0  0  0  0  0
    3.1527   -0.7240    1.3112 C   0  0  0  0  0  0  0  0  0  0  0  0
    1.7736   -1.1554    1.0082 C   0  0  0  0  0  0  0  0  0  0  0  0
    1.4185   -1.4750   -0.3907 C   0  0  2  0  0  0  0  0  0  0  0  0
    2.5318   -1.9931   -1.2569 C   0  0  0  0  0  0  0  0  0  0  0  0
    0.8228   -0.3013   -1.1341 C   0  0  0  0  0  0  0  0  0  0  0  0
   -0.3812    0.2276   -0.5747 N   0  0  0  0  0  0  0  0  0  0  0  0
   -0.4402    1.2002    0.3211 N   0  0  0  0  0  0  0  0  0  0  0  0
   -1.6221    1.6664    0.8180 C   0  0  0  0  0  0  0  0  0  0  0  0
   -2.8312    1.1261    0.3929 C   0  0  0  0  0  0  0  0  0  0  0  0
   -2.7783    0.1104   -0.5422 C   0  0  0  0  0  0  0  0  0  0  0  0
   -1.5543   -0.3223   -1.0107 C   0  0  0  0  0  0  0  0  0  0  0  0
   -1.5449   -1.2507   -1.8634 O   0  0  0  0  0  0  0  0  0  0  0  0
   -4.0304   -0.4597   -0.9911 C   0  0  0  0  0  0  0  0  0  0  0  0
   -4.8256   -1.0991   -0.0564 C   0  0  0  0  0  0  0  0  0  0  0  0
   -6.0425   -1.6772   -0.3879 C   0  0  0  0  0  0  0  0  0  0  0  0
   -6.4990   -1.6229   -1.7055 C   0  0  0  0  0  0  0  0  0  0  0  0
   -5.6885   -0.9805   -2.6173 C   0  0  0  0  0  0  0  0  0  0  0  0
   -4.4814   -0.4056   -2.2948 C   0  0  0  0  0  0  0  0  0  0  0  0
   -7.6917   -2.1853   -2.0486 F   0  0  0  0  0  0  0  0  0  0  0  0
   -4.1034    1.6128    0.9165 C   0  0  0  0  0  0  0  0  0  0  0  0
   -4.9814    2.1716   -0.0081 C   0  0  0  0  0  0  0  0  0  0  0  0
   -6.2201    2.6654    0.3940 C   0  0  0  0  0  0  0  0  0  0  0  0
   -6.5619    2.5886    1.7389 C   0  0  0  0  0  0  0  0  0  0  0  0
   -5.6759    2.0269    2.6596 C   0  0  0  0  0  0  0  0  0  0  0  0
   -4.4422    1.5374    2.2453 C   0  0  0  0  0  0  0  0  0  0  0  0
   -3.5533    0.9844    3.1090 F   0  0  0  0  0  0  0  0  0  0  0  0
   -6.0104    1.9518    3.9771 F   0  0  0  0  0  0  0  0  0  0  0  0
    8.6089   -1.3795    0.8105 H   0  0  0  0  0  0  0  0  0  0  0  0
    6.7369    2.1804    0.9915 H   0  0  0  0  0  0  0  0  0  0  0  0
    6.7106    1.7374    2.7213 H   0  0  0  0  0  0  0  0  0  0  0  0
    7.0490    0.6478   -0.7314 H   0  0  0  0  0  0  0  0  0  0  0  0
    6.5232   -0.4258   -2.8531 H   0  0  0  0  0  0  0  0  0  0  0  0
    4.4525   -1.6365   -3.1119 H   0  0  0  0  0  0  0  0  0  0  0  0
    3.6142   -1.4963    2.0044 H   0  0  0  0  0  0  0  0  0  0  0  0
    3.1651    0.2236    1.9025 H   0  0  0  0  0  0  0  0  0  0  0  0
    1.4622   -1.9941    1.7091 H   0  0  0  0  0  0  0  0  0  0  0  0
    1.0673   -0.3243    1.3265 H   0  0  0  0  0  0  0  0  0  0  0  0
    0.6791   -2.3344   -0.3550 H   0  0  0  0  0  0  0  0  0  0  0  0
    2.7528   -3.0852   -1.0775 H   0  0  0  0  0  0  0  0  0  0  0  0
    2.2654   -1.9581   -2.3334 H   0  0  0  0  0  0  0  0  0  0  0  0
    0.7234   -0.5980   -2.2000 H   0  0  0  0  0  0  0  0  0  0  0  0
    1.6073    0.4968   -1.1124 H   0  0  0  0  0  0  0  0  0  0  0  0
   -1.6475    2.4660    1.5529 H   0  0  0  0  0  0  0  0  0  0  0  0
   -4.4788   -1.1503    0.9879 H   0  0  0  0  0  0  0  0  0  0  0  0
   -6.6505   -2.1752    0.3668 H   0  0  0  0  0  0  0  0  0  0  0  0
   -6.0435   -0.9373   -3.6456 H   0  0  0  0  0  0  0  0  0  0  0  0
   -3.8823    0.0851   -3.0377 H   0  0  0  0  0  0  0  0  0  0  0  0
   -4.7231    2.2375   -1.0709 H   0  0  0  0  0  0  0  0  0  0  0  0
   -6.9097    3.1007   -0.3133 H   0  0  0  0  0  0  0  0  0  0  0  0
   -7.5342    2.9777    2.0466 H   0  0  0  0  0  0  0  0  0  0  0  0
  1  2  1  0
  2  3  2  0
  2  4  1  0
  4  5  1  0
  5  6  1  0
  6  7  2  0
  7  8  1  0
  8  9  2  0
  9 10  1  0
 10 11  2  0
 11 12  1  0
 12 13  1  0
 13 14  1  0
 14 15  1  0
 14 16  1  0
 16 17  1  0
 17 18  1  0
 18 19  2  0
 19 20  1  0
 20 21  2  0
 21 22  1  0
 22 23  2  0
 21 24  1  0
 24 25  2  0
 25 26  1  0
 26 27  2  0
 27 28  1  0
 28 29  2  0
 27 30  1  0
 20 31  1  0
 31 32  2  0
 32 33  1  0
 33 34  2  0
 34 35  1  0
 35 36  2  0
 36 37  1  0
 35 38  1  0
 11  6  1  0
 22 17  1  0
 29 24  1  0
 36 31  1  0
 15 10  1  0
  1 39  1  0
  4 40  1  0
  4 41  1  0
  7 42  1  0
  8 43  1  0
  9 44  1  0
 12 45  1  0
 12 46  1  0
 13 47  1  0
 13 48  1  0
 14 49  1  1
 15 50  1  0
 15 51  1  0
 16 52  1  0
 16 53  1  0
 19 54  1  0
 25 55  1  0
 26 56  1  0
 28 57  1  0
 29 58  1  0
 32 59  1  0
 33 60  1  0
 34 61  1  0
M  END
>  <Ligand ID>  (1) 
LIG0002988

>  <Ligand>  (1) 
CHEMBL3398236

>  <SMILES>  (1) 
OC(=O)COc1cccc2c1CC[C@H](C2)Cn1ncc(c(c1=O)c1ccc(cc1)F)c1cccc(c1F)F

>  <CID>  (1) 
118727315.0

>  <ChEMBL ID>  (1) 
nan

>  <InChiKey>  (1) 
MWDJCTOIHXQKCS-QGZVFWFLSA-N

>  <InChi>  (1) 
InChI=1S/C29H23F3N2O4/c30-20-10-8-18(9-11-20)27-23(22-4-2-5-24(31)28(22)32)14-33-34(29(27)37)15-17-7-12-21-19(13-17)3-1-6-25(21)38-16-26(35)36/h1-6,8-11,14,17H,7,12-13,15-16H2,(H,35,36)/t17-/m1/s1

>  <IUPAC Name>  (1) 
2-[[(6R)-6-[[4-(2,3-difluorophenyl)-5-(4-fluorophenyl)-6-oxopyridazin-1-yl]methyl]-5,6,7,8-tetrahydronaphthalen-1-yl]oxy]acetic acid

$$$$
