
     RDKit          3D

 51 51  0  0  0  0  0  0  0  0999 V2000
    4.8873   -2.5568    1.1065 N   0  0  0  0  0  0  0  0  0  0  0  0
    4.9839   -1.7883    0.2553 C   0  0  0  0  0  0  0  0  0  0  0  0
    5.1086   -0.8373   -0.8084 C   0  0  0  0  0  0  0  0  0  0  0  0
    5.9516   -1.1546   -1.8613 C   0  0  0  0  0  0  0  0  0  0  0  0
    6.0743   -0.2296   -2.8910 C   0  0  0  0  0  0  0  0  0  0  0  0
    5.3890    0.9723   -2.8869 C   0  0  0  0  0  0  0  0  0  0  0  0
    4.5395    1.2913   -1.8248 C   0  0  0  0  0  0  0  0  0  0  0  0
    4.4129    0.3667   -0.7883 C   0  0  0  0  0  0  0  0  0  0  0  0
    3.5972    0.5900    0.3088 O   0  0  0  0  0  0  0  0  0  0  0  0
    2.8567    1.7917    0.4158 C   0  0  0  0  0  0  0  0  0  0  0  0
    2.0749    1.8604    1.6782 C   0  0  0  0  0  0  0  0  0  0  0  0
    0.9410    0.9143    1.8352 C   0  0  0  0  0  0  0  0  0  0  0  0
    1.2432   -0.4632    1.8562 N   0  0  0  0  0  0  0  0  0  0  0  0
    0.2621   -1.3996    2.2055 C   0  0  0  0  0  0  0  0  0  0  0  0
   -0.9241   -1.6201    1.3573 C   0  0  0  0  0  0  0  0  0  0  0  0
   -1.8254   -0.5388    1.1764 N   0  0  0  0  0  0  0  0  0  0  0  0
   -2.9815   -0.7693    0.3402 C   0  0  0  0  0  0  0  0  0  0  0  0
   -3.0960   -1.9248   -0.1632 O   0  0  0  0  0  0  0  0  0  0  0  0
   -3.9240    0.2715    0.1184 N   0  0  0  0  0  0  0  0  0  0  0  0
   -5.0894    0.0942   -0.6824 C   0  0  0  0  0  0  0  0  0  0  0  0
   -5.1304    0.3076   -2.0354 C   0  0  0  0  0  0  0  0  0  0  0  0
   -6.3036    0.1227   -2.7438 C   0  0  0  0  0  0  0  0  0  0  0  0
   -7.4477   -0.2791   -2.0953 C   0  0  0  0  0  0  0  0  0  0  0  0
   -7.4028   -0.4950   -0.7201 C   0  0  0  0  0  0  0  0  0  0  0  0
   -6.2317   -0.3133    0.0026 C   0  0  0  0  0  0  0  0  0  0  0  0
    3.0090    1.7490    2.7360 O   0  0  0  0  0  0  0  0  0  0  0  0
   -0.0019    0.3875   -0.0000 O   0  0  0  0  0  0  0  0  0  0  0  0
    6.5153   -2.0601   -1.9333 H   0  0  0  0  0  0  0  0  0  0  0  0
    6.7403   -0.4786   -3.7195 H   0  0  0  0  0  0  0  0  0  0  0  0
    5.4934    1.6895   -3.6996 H   0  0  0  0  0  0  0  0  0  0  0  0
    3.9876    2.2238   -1.7881 H   0  0  0  0  0  0  0  0  0  0  0  0
    3.6537    2.5948    0.4037 H   0  0  0  0  0  0  0  0  0  0  0  0
    2.2071    1.9729   -0.4650 H   0  0  0  0  0  0  0  0  0  0  0  0
    1.7318    2.9374    1.7644 H   0  0  0  0  0  0  0  0  0  0  0  0
    0.3039    1.0877    0.8975 H   0  0  0  0  0  0  0  0  0  0  0  0
    0.3363    1.2481    2.7000 H   0  0  0  0  0  0  0  0  0  0  0  0
    1.9099   -0.8058    1.1707 H   0  0  0  0  0  0  0  0  0  0  0  0
   -0.1081   -1.2583    3.2543 H   0  0  0  0  0  0  0  0  0  0  0  0
    0.7860   -2.4110    2.2698 H   0  0  0  0  0  0  0  0  0  0  0  0
   -1.5176   -2.4468    1.8599 H   0  0  0  0  0  0  0  0  0  0  0  0
   -0.6907   -2.0594    0.3555 H   0  0  0  0  0  0  0  0  0  0  0  0
   -1.7719    0.4137    1.5864 H   0  0  0  0  0  0  0  0  0  0  0  0
   -3.7790    1.2091    0.5497 H   0  0  0  0  0  0  0  0  0  0  0  0
   -4.2327    0.6204   -2.5412 H   0  0  0  0  0  0  0  0  0  0  0  0
   -6.3835    0.2796   -3.8134 H   0  0  0  0  0  0  0  0  0  0  0  0
   -8.3990   -0.4373   -2.6144 H   0  0  0  0  0  0  0  0  0  0  0  0
   -8.3099   -0.8092   -0.2198 H   0  0  0  0  0  0  0  0  0  0  0  0
   -6.2040   -0.4833    1.0762 H   0  0  0  0  0  0  0  0  0  0  0  0
    2.7562    1.0110    3.3397 H   0  0  0  0  0  0  0  0  0  0  0  0
    0.8016   -0.1931    0.0000 H   0  0  0  0  0  0  0  0  0  0  0  0
   -0.7997   -0.1944   -0.0000 H   0  0  0  0  0  0  0  0  0  0  0  0
  1  2  3  0
  2  3  1  0
  3  4  2  0
  4  5  1  0
  5  6  2  0
  6  7  1  0
  7  8  2  0
  8  9  1  0
  9 10  1  0
 10 11  1  0
 11 12  1  0
 12 13  1  0
 13 14  1  0
 14 15  1  0
 15 16  1  0
 16 17  1  0
 17 18  2  0
 17 19  1  0
 19 20  1  0
 20 21  2  0
 21 22  1  0
 22 23  2  0
 23 24  1  0
 24 25  2  0
 11 26  1  0
  8  3  1  0
 25 20  1  0
  4 28  1  0
  5 29  1  0
  6 30  1  0
  7 31  1  0
 10 32  1  0
 10 33  1  0
 11 34  1  0
 12 35  1  0
 12 36  1  0
 13 37  1  0
 14 38  1  0
 14 39  1  0
 15 40  1  0
 15 41  1  0
 16 42  1  0
 19 43  1  0
 21 44  1  0
 22 45  1  0
 23 46  1  0
 24 47  1  0
 25 48  1  0
 26 49  1  0
 27 50  1  0
 27 51  1  0
M  END
>  <Ligand ID>  (1) 
LIG0002721

>  <Ligand>  (1) 
CHEMBL3392321

>  <SMILES>  (1) 
N#Cc1ccccc1OCC(CNCCNC(=O)Nc1ccccc1)O.O

>  <CID>  (1) 
118725301.0

>  <ChEMBL ID>  (1) 
nan

>  <InChiKey>  (1) 
MBZWOQRTHFWTTJ-UHFFFAOYSA-N

>  <InChi>  (1) 
InChI=1S/C19H22N4O3.H2O/c20-12-15-6-4-5-9-18(15)26-14-17(24)13-21-10-11-22-19(25)23-16-7-2-1-3-8-16;/h1-9,17,21,24H,10-11,13-14H2,(H2,22,23,25);1H2

>  <IUPAC Name>  (1) 
1-[2-[[3-(2-cyanophenoxy)-2-hydroxypropyl]amino]ethyl]-3-phenylurea;hydrate

$$$$
