
     RDKit          3D

 82 81  0  0  0  0  0  0  0  0999 V2000
  -10.9796   -0.1249    0.2770 C   0  0  0  0  0  0  0  0  0  0  0  0
  -10.7578   -0.8271    1.5859 C   0  0  0  0  0  0  0  0  0  0  0  0
   -9.3669   -1.5011    1.6369 C   0  0  0  0  0  0  0  0  0  0  0  0
   -9.2452   -2.5054    0.5324 C   0  0  0  0  0  0  0  0  0  0  0  0
   -8.0667   -3.3599    0.4320 C   0  0  0  0  0  0  0  0  0  0  0  0
   -6.6887   -2.8747    0.2427 C   0  0  0  0  0  0  0  0  0  0  0  0
   -6.1011   -1.9995    1.2933 C   0  0  0  0  0  0  0  0  0  0  0  0
   -4.6305   -1.7506    0.9608 C   0  0  0  0  0  0  0  0  0  0  0  0
   -4.5058   -1.1172   -0.3468 C   0  0  0  0  0  0  0  0  0  0  0  0
   -3.9666    0.0522   -0.6200 C   0  0  0  0  0  0  0  0  0  0  0  0
   -3.3612    0.9897    0.3606 C   0  0  0  0  0  0  0  0  0  0  0  0
   -1.8897    1.1120   -0.0798 C   0  0  0  0  0  0  0  0  0  0  0  0
   -1.0855    2.0316    0.7675 C   0  0  0  0  0  0  0  0  0  0  0  0
    0.3496    2.0401    0.2970 C   0  0  0  0  0  0  0  0  0  0  0  0
    0.4531    2.4851   -1.1133 C   0  0  0  0  0  0  0  0  0  0  0  0
    1.9015    2.4901   -1.6089 C   0  0  0  0  0  0  0  0  0  0  0  0
    2.7926    3.4184   -0.8524 C   0  0  0  0  0  0  0  0  0  0  0  0
    4.1628    3.2451   -1.4905 C   0  0  0  0  0  0  0  0  0  0  0  0
    4.2008    2.3385   -2.3592 O   0  0  0  0  0  0  0  0  0  0  0  0
    5.2529    4.0532   -1.1095 N   0  0  0  0  0  0  0  0  0  0  0  0
    6.5869    4.0208   -1.5689 C   0  0  0  0  0  0  0  0  0  0  0  0
    7.4627    2.8652   -1.2596 C   0  0  2  0  0  0  0  0  0  0  0  0
    7.0168    1.5832   -1.8766 C   0  0  0  0  0  0  0  0  0  0  0  0
    8.0067    0.5867   -1.7367 O   0  0  0  0  0  0  0  0  0  0  0  0
    7.1804   -0.9134   -1.6827 P   0  0  0  0  0  0  0  0  0  0  0  0
    7.3676   -1.5312   -3.0662 O   0  0  0  0  0  0  0  0  0  0  0  0
    7.9064   -1.8455   -0.5034 O   0  0  0  0  0  0  0  0  0  0  0  0
    6.9537   -2.5011    0.2603 C   0  0  0  0  0  0  0  0  0  0  0  0
    7.6115   -3.0452    1.5537 C   0  0  1  0  0  0  0  0  0  0  0  0
    8.7410   -3.9377    1.1122 C   0  0  0  0  0  0  0  0  0  0  0  0
    8.5081   -4.9665    0.4399 O   0  0  0  0  0  0  0  0  0  0  0  0
   10.0464   -3.5905    1.4710 O   0  0  0  0  0  0  0  0  0  0  0  0
    8.1513   -1.9486    2.3259 N   0  0  0  0  0  0  0  0  0  0  0  0
    5.5277   -0.6849   -1.4521 O   0  0  0  0  0  0  0  0  0  0  0  0
    7.6479    2.7214    0.1382 O   0  0  0  0  0  0  0  0  0  0  0  0
  -10.0098   -0.0155   -0.2383 H   0  0  0  0  0  0  0  0  0  0  0  0
  -11.3594    0.9174    0.4106 H   0  0  0  0  0  0  0  0  0  0  0  0
  -11.6373   -0.7508   -0.3605 H   0  0  0  0  0  0  0  0  0  0  0  0
  -11.4844   -1.6047    1.8160 H   0  0  0  0  0  0  0  0  0  0  0  0
  -10.7964   -0.0428    2.3824 H   0  0  0  0  0  0  0  0  0  0  0  0
   -9.2668   -1.9660    2.6148 H   0  0  0  0  0  0  0  0  0  0  0  0
   -8.6957   -0.6310    1.4567 H   0  0  0  0  0  0  0  0  0  0  0  0
   -9.3571   -1.9732   -0.4738 H   0  0  0  0  0  0  0  0  0  0  0  0
  -10.1514   -3.2081    0.5583 H   0  0  0  0  0  0  0  0  0  0  0  0
   -8.0716   -4.1277    1.2969 H   0  0  0  0  0  0  0  0  0  0  0  0
   -8.2743   -4.0669   -0.4694 H   0  0  0  0  0  0  0  0  0  0  0  0
   -5.9965   -3.7430    0.0105 H   0  0  0  0  0  0  0  0  0  0  0  0
   -6.6956   -2.3187   -0.7637 H   0  0  0  0  0  0  0  0  0  0  0  0
   -6.0995   -2.4748    2.2896 H   0  0  0  0  0  0  0  0  0  0  0  0
   -6.5969   -1.0223    1.3520 H   0  0  0  0  0  0  0  0  0  0  0  0
   -4.2122   -1.1497    1.7926 H   0  0  0  0  0  0  0  0  0  0  0  0
   -4.1165   -2.7454    1.0288 H   0  0  0  0  0  0  0  0  0  0  0  0
   -4.8947   -1.6771   -1.2180 H   0  0  0  0  0  0  0  0  0  0  0  0
   -3.9441    0.3993   -1.6709 H   0  0  0  0  0  0  0  0  0  0  0  0
   -3.8001    2.0085    0.2071 H   0  0  0  0  0  0  0  0  0  0  0  0
   -3.3834    0.6574    1.3946 H   0  0  0  0  0  0  0  0  0  0  0  0
   -1.4805    0.0843    0.0724 H   0  0  0  0  0  0  0  0  0  0  0  0
   -1.8465    1.4135   -1.1423 H   0  0  0  0  0  0  0  0  0  0  0  0
   -1.4568    3.0913    0.7523 H   0  0  0  0  0  0  0  0  0  0  0  0
   -1.1480    1.6725    1.8381 H   0  0  0  0  0  0  0  0  0  0  0  0
    0.9415    2.7844    0.9066 H   0  0  0  0  0  0  0  0  0  0  0  0
    0.7568    1.0201    0.4737 H   0  0  0  0  0  0  0  0  0  0  0  0
    0.0954    3.5288   -1.2142 H   0  0  0  0  0  0  0  0  0  0  0  0
   -0.0700    1.8381   -1.8606 H   0  0  0  0  0  0  0  0  0  0  0  0
    1.8461    2.8410   -2.6736 H   0  0  0  0  0  0  0  0  0  0  0  0
    2.3020    1.4555   -1.6684 H   0  0  0  0  0  0  0  0  0  0  0  0
    2.4559    4.4610   -1.0146 H   0  0  0  0  0  0  0  0  0  0  0  0
    2.8316    3.1143    0.2047 H   0  0  0  0  0  0  0  0  0  0  0  0
    5.0111    4.7852   -0.3619 H   0  0  0  0  0  0  0  0  0  0  0  0
    7.0631    5.0001   -1.2701 H   0  0  0  0  0  0  0  0  0  0  0  0
    6.6208    4.1099   -2.7198 H   0  0  0  0  0  0  0  0  0  0  0  0
    8.4861    3.1507   -1.6974 H   0  0  0  0  0  0  0  0  0  0  0  0
    6.1888    1.1968   -1.2261 H   0  0  0  0  0  0  0  0  0  0  0  0
    6.7649    1.7349   -2.9161 H   0  0  0  0  0  0  0  0  0  0  0  0
    6.5273   -3.3318   -0.3230 H   0  0  0  0  0  0  0  0  0  0  0  0
    6.1180   -1.8568    0.5928 H   0  0  0  0  0  0  0  0  0  0  0  0
    6.8757   -3.6281    2.1204 H   0  0  0  0  0  0  0  0  0  0  0  0
   10.7961   -4.2693    1.3953 H   0  0  0  0  0  0  0  0  0  0  0  0
    8.1457   -2.1472    3.3686 H   0  0  0  0  0  0  0  0  0  0  0  0
    9.0948   -1.6424    2.0036 H   0  0  0  0  0  0  0  0  0  0  0  0
    5.2491   -0.4484   -0.5560 H   0  0  0  0  0  0  0  0  0  0  0  0
    7.4919    3.6150    0.5385 H   0  0  0  0  0  0  0  0  0  0  0  0
  1  2  1  0
  2  3  1  0
  3  4  1  0
  4  5  1  0
  5  6  1  0
  6  7  1  0
  7  8  1  0
  8  9  1  0
  9 10  2  0
 10 11  1  0
 11 12  1  0
 12 13  1  0
 13 14  1  0
 14 15  1  0
 15 16  1  0
 16 17  1  0
 17 18  1  0
 18 19  2  0
 18 20  1  0
 20 21  1  0
 21 22  1  0
 22 23  1  0
 23 24  1  0
 24 25  1  0
 25 26  2  0
 25 27  1  0
 27 28  1  0
 28 29  1  0
 29 30  1  0
 30 31  2  0
 30 32  1  0
 29 33  1  0
 25 34  1  0
 22 35  1  0
  1 36  1  0
  1 37  1  0
  1 38  1  0
  2 39  1  0
  2 40  1  0
  3 41  1  0
  3 42  1  0
  4 43  1  0
  4 44  1  0
  5 45  1  0
  5 46  1  0
  6 47  1  0
  6 48  1  0
  7 49  1  0
  7 50  1  0
  8 51  1  0
  8 52  1  0
  9 53  1  0
 10 54  1  0
 11 55  1  0
 11 56  1  0
 12 57  1  0
 12 58  1  0
 13 59  1  0
 13 60  1  0
 14 61  1  0
 14 62  1  0
 15 63  1  0
 15 64  1  0
 16 65  1  0
 16 66  1  0
 17 67  1  0
 17 68  1  0
 20 69  1  0
 21 70  1  0
 21 71  1  0
 22 72  1  6
 23 73  1  0
 23 74  1  0
 28 75  1  0
 28 76  1  0
 29 77  1  1
 32 78  1  0
 33 79  1  0
 33 80  1  0
 34 81  1  0
 35 82  1  0
M  END
>  <Ligand ID>  (1) 
LIG0004214

>  <Ligand>  (1) 
CHEMBL3577156

>  <SMILES>  (1) 
CCCCCCCC/C=C\CCCCCCCC(=O)NC[C@H](COP(=O)(OC[C@@H](C(=O)O)N)O)O

>  <CID>  (1) 
122177504.0

>  <ChEMBL ID>  (1) 
nan

>  <InChiKey>  (1) 
GLHIIVPBKPMJFL-YFKVPUFHSA-N

>  <InChi>  (1) 
InChI=1S/C24H47N2O8P/c1-2-3-4-5-6-7-8-9-10-11-12-13-14-15-16-17-23(28)26-18-21(27)19-33-35(31,32)34-20-22(25)24(29)30/h9-10,21-22,27H,2-8,11-20,25H2,1H3,(H,26,28)(H,29,30)(H,31,32)/b10-9-/t21-,22+/m1/s1

>  <IUPAC Name>  (1) 
(2S)-2-amino-3-[hydroxy-[(2R)-2-hydroxy-3-[[(Z)-octadec-9-enoyl]amino]propoxy]phosphoryl]oxypropanoic acid

$$$$
