
     RDKit          3D

 46 48  0  0  0  0  0  0  0  0999 V2000
   -5.1258   -0.0045    2.1386 C   0  0  0  0  0  0  0  0  0  0  0  0
   -5.9695   -0.6766    1.1147 C   0  0  0  0  0  0  0  0  0  0  0  0
   -5.6856   -0.2850   -0.2771 C   0  0  0  0  0  0  0  0  0  0  0  0
   -4.3653   -0.5813   -0.8832 C   0  0  0  0  0  0  0  0  0  0  0  0
   -3.2034    0.0596   -0.2128 C   0  0  0  0  0  0  0  0  0  0  0  0
   -1.8905   -0.2756   -0.9436 C   0  0  0  0  0  0  0  0  0  0  0  0
   -0.7438    0.3757   -0.2560 C   0  0  0  0  0  0  0  0  0  0  0  0
   -0.9195    1.0908    0.7831 O   0  0  0  0  0  0  0  0  0  0  0  0
    0.5463    0.1587   -0.8161 N   0  0  0  0  0  0  0  0  0  0  0  0
    0.8917   -0.5517   -1.8824 N   0  0  0  0  0  0  0  0  0  0  0  0
    2.2215   -0.5034   -2.0777 C   0  0  0  0  0  0  0  0  0  0  0  0
    2.7413    0.2855   -1.0725 C   0  0  0  0  0  0  0  0  0  0  0  0
    1.6844    0.6965   -0.2861 C   0  0  0  0  0  0  0  0  0  0  0  0
    2.1772    1.5602    0.8295 C   0  0  0  0  0  0  0  0  0  0  0  0
    3.6476    1.6229    0.5940 C   0  0  2  0  0  0  0  0  0  0  0  0
    4.0216    0.8143   -0.5832 C   0  0  1  0  0  0  0  0  0  0  0  0
    4.4548    0.3990    0.7705 C   0  0  0  0  0  0  0  0  0  0  0  0
    5.8675    0.6367    1.2337 C   0  0  0  0  0  0  0  0  0  0  0  0
    3.8573   -0.8739    1.2932 C   0  0  0  0  0  0  0  0  0  0  0  0
    2.9180   -1.1986   -3.1920 C   0  0  0  0  0  0  0  0  0  0  0  0
   -4.6734    0.9411    1.8045 H   0  0  0  0  0  0  0  0  0  0  0  0
   -5.8526    0.2559    2.9935 H   0  0  0  0  0  0  0  0  0  0  0  0
   -4.3970   -0.7127    2.6137 H   0  0  0  0  0  0  0  0  0  0  0  0
   -5.8059   -1.7990    1.2131 H   0  0  0  0  0  0  0  0  0  0  0  0
   -7.0671   -0.4774    1.2877 H   0  0  0  0  0  0  0  0  0  0  0  0
   -6.4808   -0.7598   -0.9491 H   0  0  0  0  0  0  0  0  0  0  0  0
   -5.9278    0.8256   -0.4051 H   0  0  0  0  0  0  0  0  0  0  0  0
   -4.3478   -0.3195   -1.9886 H   0  0  0  0  0  0  0  0  0  0  0  0
   -4.2731   -1.7081   -0.8933 H   0  0  0  0  0  0  0  0  0  0  0  0
   -3.0556   -0.3730    0.7937 H   0  0  0  0  0  0  0  0  0  0  0  0
   -3.3202    1.1440   -0.1159 H   0  0  0  0  0  0  0  0  0  0  0  0
   -1.7149   -1.3694   -0.8943 H   0  0  0  0  0  0  0  0  0  0  0  0
   -1.9676    0.0892   -1.9842 H   0  0  0  0  0  0  0  0  0  0  0  0
    2.0169    1.0865    1.8295 H   0  0  0  0  0  0  0  0  0  0  0  0
    1.6798    2.5367    0.8686 H   0  0  0  0  0  0  0  0  0  0  0  0
    4.1255    2.6171    0.6935 H   0  0  0  0  0  0  0  0  0  0  0  0
    4.8087    1.1487   -1.2934 H   0  0  0  0  0  0  0  0  0  0  0  0
    6.4151    1.3225    0.5535 H   0  0  0  0  0  0  0  0  0  0  0  0
    6.4270   -0.2967    1.4295 H   0  0  0  0  0  0  0  0  0  0  0  0
    5.7791    1.1581    2.2263 H   0  0  0  0  0  0  0  0  0  0  0  0
    4.4728   -1.7421    0.9268 H   0  0  0  0  0  0  0  0  0  0  0  0
    2.8376   -1.0853    0.9707 H   0  0  0  0  0  0  0  0  0  0  0  0
    3.9074   -0.9484    2.4106 H   0  0  0  0  0  0  0  0  0  0  0  0
    2.3718   -1.1392   -4.1531 H   0  0  0  0  0  0  0  0  0  0  0  0
    2.9486   -2.2860   -2.9123 H   0  0  0  0  0  0  0  0  0  0  0  0
    3.9678   -0.8585   -3.3005 H   0  0  0  0  0  0  0  0  0  0  0  0
  1  2  1  0
  2  3  1  0
  3  4  1  0
  4  5  1  0
  5  6  1  0
  6  7  1  0
  7  8  2  0
  7  9  1  0
  9 10  1  0
 10 11  2  0
 11 12  1  0
 12 13  2  0
 13 14  1  0
 14 15  1  0
 15 16  1  0
 16 17  1  0
 17 18  1  0
 17 19  1  0
 11 20  1  0
 13  9  1  0
 17 15  1  0
 16 12  1  0
  1 21  1  0
  1 22  1  0
  1 23  1  0
  2 24  1  0
  2 25  1  0
  3 26  1  0
  3 27  1  0
  4 28  1  0
  4 29  1  0
  5 30  1  0
  5 31  1  0
  6 32  1  0
  6 33  1  0
 14 34  1  0
 14 35  1  0
 15 36  1  6
 16 37  1  6
 18 38  1  0
 18 39  1  0
 18 40  1  0
 19 41  1  0
 19 42  1  0
 19 43  1  0
 20 44  1  0
 20 45  1  0
 20 46  1  0
M  END
>  <Ligand ID>  (1) 
LIG0004210

>  <Ligand>  (1) 
CHEMBL596053

>  <SMILES>  (1) 
CCCCCCC(=O)n1nc(c2c1C[C@@H]1[C@H]2C1(C)C)C

>  <CID>  (1) 
46225283.0

>  <ChEMBL ID>  (1) 
nan

>  <InChiKey>  (1) 
GKIQQXJIBCSBLZ-MLGOLLRUSA-N

>  <InChi>  (1) 
InChI=1S/C17H26N2O/c1-5-6-7-8-9-14(20)19-13-10-12-16(17(12,3)4)15(13)11(2)18-19/h12,16H,5-10H2,1-4H3/t12-,16-/m1/s1

>  <IUPAC Name>  (1) 
1-[(2S,4R)-3,3,9-trimethyl-7,8-diazatricyclo[4.3.0.02,4]nona-1(6),8-dien-7-yl]heptan-1-one

$$$$
