
     RDKit          3D

 73 77  0  0  0  0  0  0  0  0999 V2000
   -2.5755   -4.2584   -1.4986 O   0  0  0  0  0  0  0  0  0  0  0  0
   -3.2387   -3.1717   -0.8954 C   0  0  2  0  0  0  0  0  0  0  0  0
   -3.5030   -2.0781   -1.9084 C   0  0  0  0  0  0  0  0  0  0  0  0
   -4.1660   -1.0294   -1.2426 O   0  0  0  0  0  0  0  0  0  0  0  0
   -4.5611    0.1391   -1.8809 C   0  0  0  0  0  0  0  0  0  0  0  0
   -4.2700    0.2382   -3.2385 C   0  0  0  0  0  0  0  0  0  0  0  0
   -4.6070    1.3435   -3.9903 C   0  0  0  0  0  0  0  0  0  0  0  0
   -5.2569    2.3766   -3.3486 C   0  0  0  0  0  0  0  0  0  0  0  0
   -5.5435    2.2741   -2.0027 C   0  0  0  0  0  0  0  0  0  0  0  0
   -5.2109    1.1722   -1.2393 C   0  0  0  0  0  0  0  0  0  0  0  0
   -5.6413    1.3493    0.1605 C   0  0  0  0  0  0  0  0  0  0  0  0
   -6.5043    0.2844    0.7460 C   0  0  0  0  0  0  0  0  0  0  0  0
   -5.7358    0.4447    2.0423 C   0  0  0  0  0  0  0  0  0  0  0  0
   -4.6402    1.1126    1.2381 C   0  0  0  0  0  0  0  0  0  0  0  0
   -6.2776    2.6857    0.1369 C   0  0  0  0  0  0  0  0  0  0  0  0
   -6.7946    3.2164    1.1702 O   0  0  0  0  0  0  0  0  0  0  0  0
   -6.2057    3.2289   -1.1765 N   0  0  0  0  0  0  0  0  0  0  0  0
   -2.2878   -2.5938    0.1550 C   0  0  0  0  0  0  0  0  0  0  0  0
   -1.0946   -2.1694   -0.5127 N   0  0  0  0  0  0  0  0  0  0  0  0
   -0.0958   -1.5953    0.3662 C   0  0  0  0  0  0  0  0  0  0  0  0
    1.0800   -1.2060   -0.4809 C   0  0  0  0  0  0  0  0  0  0  0  0
    2.1647   -0.6078    0.3064 C   0  0  0  0  0  0  0  0  0  0  0  0
    3.1401   -1.4567    0.8282 C   0  0  0  0  0  0  0  0  0  0  0  0
    4.1824   -0.9363    1.5775 C   0  0  0  0  0  0  0  0  0  0  0  0
    4.2833    0.4164    1.8248 C   0  0  0  0  0  0  0  0  0  0  0  0
    3.3024    1.2472    1.2971 C   0  0  0  0  0  0  0  0  0  0  0  0
    2.2544    0.7565    0.5481 C   0  0  0  0  0  0  0  0  0  0  0  0
    5.3196    0.9624    2.5736 O   0  0  0  0  0  0  0  0  0  0  0  0
    6.4631    1.3491    1.8873 C   0  0  0  0  0  0  0  0  0  0  0  0
    7.5183    1.8978    2.5980 C   0  0  0  0  0  0  0  0  0  0  0  0
    8.6920    2.3085    1.9909 C   0  0  0  0  0  0  0  0  0  0  0  0
    8.7642    2.1421    0.6105 C   0  0  0  0  0  0  0  0  0  0  0  0
    7.7055    1.5930   -0.0927 C   0  0  0  0  0  0  0  0  0  0  0  0
    6.6007    1.2177    0.5584 N   0  0  0  0  0  0  0  0  0  0  0  0
    9.9891    2.5622   -0.0822 C   0  0  0  0  0  0  0  0  0  0  0  0
   10.9119    3.0508    0.6078 O   0  0  0  0  0  0  0  0  0  0  0  0
   10.0656    2.3942   -1.4931 N   0  0  0  0  0  0  0  0  0  0  0  0
   -0.7441   -0.4235    1.0694 C   0  0  0  0  0  0  0  0  0  0  0  0
    0.3465   -2.5576    1.4492 C   0  0  0  0  0  0  0  0  0  0  0  0
   -2.0558   -3.9700   -2.2924 H   0  0  0  0  0  0  0  0  0  0  0  0
   -4.1749   -3.4864   -0.4017 H   0  0  0  0  0  0  0  0  0  0  0  0
   -2.5415   -1.7022   -2.3140 H   0  0  0  0  0  0  0  0  0  0  0  0
   -4.0585   -2.4802   -2.7816 H   0  0  0  0  0  0  0  0  0  0  0  0
   -3.7521   -0.5849   -3.7507 H   0  0  0  0  0  0  0  0  0  0  0  0
   -4.3710    1.4029   -5.0507 H   0  0  0  0  0  0  0  0  0  0  0  0
   -5.5307    3.2551   -3.9223 H   0  0  0  0  0  0  0  0  0  0  0  0
   -7.5968    0.5510    0.8345 H   0  0  0  0  0  0  0  0  0  0  0  0
   -6.3202   -0.6931    0.2396 H   0  0  0  0  0  0  0  0  0  0  0  0
   -5.4349   -0.5010    2.5355 H   0  0  0  0  0  0  0  0  0  0  0  0
   -6.2487    1.1861    2.6799 H   0  0  0  0  0  0  0  0  0  0  0  0
   -4.2017    2.0125    1.7117 H   0  0  0  0  0  0  0  0  0  0  0  0
   -3.8623    0.4064    0.8890 H   0  0  0  0  0  0  0  0  0  0  0  0
   -6.5879    4.1740   -1.4447 H   0  0  0  0  0  0  0  0  0  0  0  0
   -2.0940   -3.3733    0.9269 H   0  0  0  0  0  0  0  0  0  0  0  0
   -2.8024   -1.7220    0.6064 H   0  0  0  0  0  0  0  0  0  0  0  0
   -0.7233   -2.8556   -1.1885 H   0  0  0  0  0  0  0  0  0  0  0  0
    1.3862   -2.1016   -1.0454 H   0  0  0  0  0  0  0  0  0  0  0  0
    0.7175   -0.4534   -1.2338 H   0  0  0  0  0  0  0  0  0  0  0  0
    3.0966   -2.5334    0.6553 H   0  0  0  0  0  0  0  0  0  0  0  0
    4.9209   -1.6231    1.9665 H   0  0  0  0  0  0  0  0  0  0  0  0
    3.3443    2.3237    1.4690 H   0  0  0  0  0  0  0  0  0  0  0  0
    1.5056    1.4321    0.1507 H   0  0  0  0  0  0  0  0  0  0  0  0
    7.4326    2.0155    3.6771 H   0  0  0  0  0  0  0  0  0  0  0  0
    9.5049    2.7351    2.5654 H   0  0  0  0  0  0  0  0  0  0  0  0
    7.7467    1.4574   -1.1654 H   0  0  0  0  0  0  0  0  0  0  0  0
   10.5053    3.1167   -2.1279 H   0  0  0  0  0  0  0  0  0  0  0  0
    9.6615    1.5091   -1.8891 H   0  0  0  0  0  0  0  0  0  0  0  0
   -1.4171   -0.8772    1.8431 H   0  0  0  0  0  0  0  0  0  0  0  0
    0.0336    0.1750    1.5687 H   0  0  0  0  0  0  0  0  0  0  0  0
   -1.3564    0.1669    0.3609 H   0  0  0  0  0  0  0  0  0  0  0  0
   -0.5175   -2.7964    2.1100 H   0  0  0  0  0  0  0  0  0  0  0  0
    1.0673   -1.9794    2.0810 H   0  0  0  0  0  0  0  0  0  0  0  0
    0.8951   -3.4259    1.0779 H   0  0  0  0  0  0  0  0  0  0  0  0
  1  2  1  0
  2  3  1  0
  3  4  1  0
  4  5  1  0
  5  6  2  0
  6  7  1  0
  7  8  2  0
  8  9  1  0
  9 10  2  0
 10 11  1  0
 11 12  1  0
 12 13  1  0
 13 14  1  0
 11 15  1  0
 15 16  2  0
 15 17  1  0
  2 18  1  0
 18 19  1  0
 19 20  1  0
 20 21  1  0
 21 22  1  0
 22 23  2  0
 23 24  1  0
 24 25  2  0
 25 26  1  0
 26 27  2  0
 25 28  1  0
 28 29  1  0
 29 30  2  0
 30 31  1  0
 31 32  2  0
 32 33  1  0
 33 34  2  0
 32 35  1  0
 35 36  2  0
 35 37  1  0
 20 38  1  0
 20 39  1  0
 10  5  1  0
 14 11  1  0
 27 22  1  0
 34 29  1  0
 17  9  1  0
  1 40  1  0
  2 41  1  1
  3 42  1  0
  3 43  1  0
  6 44  1  0
  7 45  1  0
  8 46  1  0
 12 47  1  0
 12 48  1  0
 13 49  1  0
 13 50  1  0
 14 51  1  0
 14 52  1  0
 17 53  1  0
 18 54  1  0
 18 55  1  0
 19 56  1  0
 21 57  1  0
 21 58  1  0
 23 59  1  0
 24 60  1  0
 26 61  1  0
 27 62  1  0
 30 63  1  0
 31 64  1  0
 33 65  1  0
 37 66  1  0
 37 67  1  0
 38 68  1  0
 38 69  1  0
 38 70  1  0
 39 71  1  0
 39 72  1  0
 39 73  1  0
M  END
>  <Ligand ID>  (1) 
LIG0003398

>  <Ligand>  (1) 
CHEMBL248750

>  <SMILES>  (1) 
O[C@H](COc1cccc2c1C1(CCC1)C(=O)N2)CNC(Cc1ccc(cc1)Oc1ccc(cn1)C(=O)N)(C)C

>  <CID>  (1) 
44444175.0

>  <ChEMBL ID>  (1) 
nan

>  <InChiKey>  (1) 
JQUOELSYHOYPCB-NRFANRHFSA-N

>  <InChi>  (1) 
InChI=1S/C30H34N4O5/c1-29(2,15-19-7-10-22(11-8-19)39-25-12-9-20(16-32-25)27(31)36)33-17-21(35)18-38-24-6-3-5-23-26(24)30(13-4-14-30)28(37)34-23/h3,5-12,16,21,33,35H,4,13-15,17-18H2,1-2H3,(H2,31,36)(H,34,37)/t21-/m0/s1

>  <IUPAC Name>  (1) 
6-[4-[2-[[(2S)-2-hydroxy-3-(2-oxospiro[1H-indole-3,1'-cyclobutane]-4-yl)oxypropyl]amino]-2-methylpropyl]phenoxy]pyridine-3-carboxamide

$$$$
