
     RDKit          3D

 31 32  0  0  0  0  0  0  0  0999 V2000
    4.5062    0.8332   -0.0970 C   0  0  0  0  0  0  0  0  0  0  0  0
    3.7766   -0.3905   -0.0913 O   0  0  0  0  0  0  0  0  0  0  0  0
    2.4100   -0.4000    0.0649 C   0  0  0  0  0  0  0  0  0  0  0  0
    1.6276    0.7129    0.2258 C   0  0  0  0  0  0  0  0  0  0  0  0
    0.2412    0.6102    0.3784 C   0  0  0  0  0  0  0  0  0  0  0  0
   -0.2982    1.9861    0.5281 C   0  0  0  0  0  0  0  0  0  0  0  0
   -1.8065    1.9198    0.4108 C   0  0  0  0  0  0  0  0  0  0  0  0
   -2.0494    1.1059   -0.7843 N   0  0  0  0  0  0  0  0  0  0  0  0
   -2.7216   -0.0810   -0.3633 C   0  0  0  0  0  0  0  0  0  0  0  0
   -1.8172   -0.9079    0.5177 C   0  0  2  0  0  0  0  0  0  0  0  0
   -0.3878   -0.6006    0.3733 C   0  0  0  0  0  0  0  0  0  0  0  0
    0.4220   -1.7290    0.2083 C   0  0  0  0  0  0  0  0  0  0  0  0
    1.7840   -1.6410    0.0575 C   0  0  0  0  0  0  0  0  0  0  0  0
    2.8322   -3.2391   -0.1648 Br  0  0  0  0  0  0  0  0  0  0  0  0
   -2.1265   -2.3486    0.1682 C   0  0  0  0  0  0  0  0  0  0  0  0
    4.1274    1.4510   -0.9193 H   0  0  0  0  0  0  0  0  0  0  0  0
    5.5826    0.6062   -0.2884 H   0  0  0  0  0  0  0  0  0  0  0  0
    4.4214    1.3648    0.8862 H   0  0  0  0  0  0  0  0  0  0  0  0
    2.1280    1.6748    0.2298 H   0  0  0  0  0  0  0  0  0  0  0  0
    0.0803    2.5939   -0.3227 H   0  0  0  0  0  0  0  0  0  0  0  0
    0.0046    2.4712    1.4551 H   0  0  0  0  0  0  0  0  0  0  0  0
   -2.2658    2.9069    0.3383 H   0  0  0  0  0  0  0  0  0  0  0  0
   -2.1779    1.4287    1.3357 H   0  0  0  0  0  0  0  0  0  0  0  0
   -2.5155    1.6333   -1.5274 H   0  0  0  0  0  0  0  0  0  0  0  0
   -3.0446   -0.6267   -1.2690 H   0  0  0  0  0  0  0  0  0  0  0  0
   -3.6550    0.2037    0.1645 H   0  0  0  0  0  0  0  0  0  0  0  0
   -2.1662   -0.7676    1.5798 H   0  0  0  0  0  0  0  0  0  0  0  0
   -0.0173   -2.7041    0.1964 H   0  0  0  0  0  0  0  0  0  0  0  0
   -1.7644   -2.5985   -0.8516 H   0  0  0  0  0  0  0  0  0  0  0  0
   -3.2508   -2.4028    0.0670 H   0  0  0  0  0  0  0  0  0  0  0  0
   -1.8793   -3.0650    0.9474 H   0  0  0  0  0  0  0  0  0  0  0  0
  1  2  1  0
  2  3  1  0
  3  4  2  0
  4  5  1  0
  5  6  1  0
  6  7  1  0
  7  8  1  0
  8  9  1  0
  9 10  1  0
 10 11  1  0
 11 12  1  0
 12 13  2  0
 13 14  1  0
 10 15  1  0
 13  3  1  0
 11  5  2  0
  1 16  1  0
  1 17  1  0
  1 18  1  0
  4 19  1  0
  6 20  1  0
  6 21  1  0
  7 22  1  0
  7 23  1  0
  8 24  1  0
  9 25  1  0
  9 26  1  0
 10 27  1  1
 12 28  1  0
 15 29  1  0
 15 30  1  0
 15 31  1  0
M  END
>  <Ligand ID>  (1) 
LIG0002183

>  <Ligand>  (1) 
CHEMBL182184

>  <SMILES>  (1) 
COc1cc2CCNC[C@H](c2cc1Br)C

>  <CID>  (1) 
44389646.0

>  <ChEMBL ID>  (1) 
nan

>  <InChiKey>  (1) 
HQQAIJWQKAFMGF-MRVPVSSYSA-N

>  <InChi>  (1) 
InChI=1S/C12H16BrNO/c1-8-7-14-4-3-9-5-12(15-2)11(13)6-10(8)9/h5-6,8,14H,3-4,7H2,1-2H3/t8-/m1/s1

>  <IUPAC Name>  (1) 
(5S)-7-bromo-8-methoxy-5-methyl-2,3,4,5-tetrahydro-1H-3-benzazepine

$$$$
