
     RDKit          3D

 22 21  0  0  0  0  0  0  0  0999 V2000
   -3.3533    0.5040    0.0461 C   0  0  0  0  0  0  0  0  0  0  0  0
   -1.8869    0.4604    0.4939 C   0  0  0  0  0  0  0  0  0  0  0  0
   -1.3371   -0.8299   -0.0149 C   0  0  0  0  0  0  0  0  0  0  0  0
    0.0970   -1.0791    0.3135 C   0  0  0  0  0  0  0  0  0  0  0  0
    1.0236   -0.0471   -0.2327 C   0  0  0  0  0  0  0  0  0  0  0  0
    0.6491    0.9117   -0.8875 O   0  0  0  0  0  0  0  0  0  0  0  0
    2.4741   -0.2257    0.0540 C   0  0  0  0  0  0  0  0  0  0  0  0
    3.3126    0.8641   -0.5397 C   0  0  0  0  0  0  0  0  0  0  0  0
   -3.4178    0.2161   -1.0257 H   0  0  0  0  0  0  0  0  0  0  0  0
   -3.8059    1.4799    0.2370 H   0  0  0  0  0  0  0  0  0  0  0  0
   -3.8331   -0.3286    0.6315 H   0  0  0  0  0  0  0  0  0  0  0  0
   -1.8871    0.5361    1.5854 H   0  0  0  0  0  0  0  0  0  0  0  0
   -1.4184    1.3656    0.1016 H   0  0  0  0  0  0  0  0  0  0  0  0
   -1.9268   -1.6533    0.3990 H   0  0  0  0  0  0  0  0  0  0  0  0
   -1.4580   -0.8766   -1.1142 H   0  0  0  0  0  0  0  0  0  0  0  0
    0.2800   -1.2537    1.3849 H   0  0  0  0  0  0  0  0  0  0  0  0
    0.3866   -2.0223   -0.2139 H   0  0  0  0  0  0  0  0  0  0  0  0
    2.7721   -1.1958   -0.3751 H   0  0  0  0  0  0  0  0  0  0  0  0
    2.5871   -0.2044    1.1614 H   0  0  0  0  0  0  0  0  0  0  0  0
    3.4549    0.7549   -1.6152 H   0  0  0  0  0  0  0  0  0  0  0  0
    4.3292    0.7533   -0.0720 H   0  0  0  0  0  0  0  0  0  0  0  0
    2.9582    1.8704   -0.2352 H   0  0  0  0  0  0  0  0  0  0  0  0
  1  2  1  0
  2  3  1  0
  3  4  1  0
  4  5  1  0
  5  6  2  0
  5  7  1  0
  7  8  1  0
  1  9  1  0
  1 10  1  0
  1 11  1  0
  2 12  1  0
  2 13  1  0
  3 14  1  0
  3 15  1  0
  4 16  1  0
  4 17  1  0
  7 18  1  0
  7 19  1  0
  8 20  1  0
  8 21  1  0
  8 22  1  0
M  END
>  <Ligand ID>  (1) 
LIG0000101

>  <Ligand>  (1) 
3-Heptanone

>  <SMILES>  (1) 
CCCCC(=O)CC

>  <CID>  (1) 
7802.0

>  <ChEMBL ID>  (1) 
nan

>  <InChiKey>  (1) 
NGAZZOYFWWSOGK-UHFFFAOYSA-N

>  <InChi>  (1) 
InChI=1S/C7H14O/c1-3-5-6-7(8)4-2/h3-6H2,1-2H3

>  <IUPAC Name>  (1) 
heptan-3-one

$$$$
