
     RDKit          3D

 97101  0  0  0  0  0  0  0  0999 V2000
    3.4203    5.4161   -0.2081 N   0  0  0  0  0  0  0  0  0  0  0  0
    3.5922    4.5610    0.9224 C   0  0  0  0  0  0  0  0  0  0  0  0
    2.7162    3.7260    1.3388 N   0  0  0  0  0  0  0  0  0  0  0  0
    1.4498    3.5371    0.7270 C   0  0  0  0  0  0  0  0  0  0  0  0
    1.3873    2.4481   -0.3079 C   0  0  0  0  0  0  0  0  0  0  0  0
    1.7251    1.0800    0.2369 C   0  0  0  0  0  0  0  0  0  0  0  0
    1.6182    0.0970   -0.8732 C   0  0  1  0  0  0  0  0  0  0  0  0
    1.9254   -1.2997   -0.4693 C   0  0  0  0  0  0  0  0  0  0  0  0
    1.1000   -2.2584   -0.6521 O   0  0  0  0  0  0  0  0  0  0  0  0
    3.1571   -1.5520    0.1339 N   0  0  0  0  0  0  0  0  0  0  0  0
    3.6371   -2.8349    0.6023 C   0  0  2  0  0  0  0  0  0  0  0  0
    3.8084   -2.9688    2.0342 C   0  0  0  0  0  0  0  0  0  0  0  0
    4.1337   -4.0242    2.6406 O   0  0  0  0  0  0  0  0  0  0  0  0
    3.5969   -1.8114    2.8606 N   0  0  0  0  0  0  0  0  0  0  0  0
    4.8287   -3.1906   -0.2615 C   0  0  0  0  0  0  0  0  0  0  0  0
    5.8858   -2.1778   -0.2010 C   0  0  0  0  0  0  0  0  0  0  0  0
    6.0445   -1.2055   -1.2011 C   0  0  0  0  0  0  0  0  0  0  0  0
    7.0522   -0.3839   -0.8920 N   0  0  0  0  0  0  0  0  0  0  0  0
    7.5743   -0.7655    0.2707 C   0  0  0  0  0  0  0  0  0  0  0  0
    6.8642   -1.8802    0.7153 C   0  0  0  0  0  0  0  0  0  0  0  0
    7.2116   -2.4742    1.9092 C   0  0  0  0  0  0  0  0  0  0  0  0
    8.2339   -1.9889    2.6593 C   0  0  0  0  0  0  0  0  0  0  0  0
    8.9615   -0.8866    2.2565 C   0  0  0  0  0  0  0  0  0  0  0  0
    8.6194   -0.2813    1.0553 C   0  0  0  0  0  0  0  0  0  0  0  0
    0.2671    0.1317   -1.3820 N   0  0  0  0  0  0  0  0  0  0  0  0
   -0.8074   -0.3161   -0.6211 C   0  0  0  0  0  0  0  0  0  0  0  0
   -0.6894   -0.8027    0.5468 O   0  0  0  0  0  0  0  0  0  0  0  0
   -2.2601   -0.2633   -1.1019 C   0  0  2  0  0  0  0  0  0  0  0  0
   -2.3830    1.0463   -1.7250 C   0  0  0  0  0  0  0  0  0  0  0  0
   -3.6329    1.4654   -2.3580 C   0  0  0  0  0  0  0  0  0  0  0  0
   -4.5311    2.4674   -2.0566 C   0  0  0  0  0  0  0  0  0  0  0  0
   -5.5045    2.5373   -3.0055 N   0  0  0  0  0  0  0  0  0  0  0  0
   -5.2740    1.6033   -3.9315 C   0  0  0  0  0  0  0  0  0  0  0  0
   -4.1336    0.9298   -3.5629 C   0  0  0  0  0  0  0  0  0  0  0  0
   -3.7233   -0.0843   -4.4042 C   0  0  0  0  0  0  0  0  0  0  0  0
   -4.4320   -0.3960   -5.5570 C   0  0  0  0  0  0  0  0  0  0  0  0
   -5.5803    0.2999   -5.9092 C   0  0  0  0  0  0  0  0  0  0  0  0
   -5.9968    1.3136   -5.0743 C   0  0  0  0  0  0  0  0  0  0  0  0
   -3.0655   -0.7825   -0.0777 N   0  0  0  0  0  0  0  0  0  0  0  0
   -4.4038   -0.6844    0.2609 C   0  0  0  0  0  0  0  0  0  0  0  0
   -5.1610    0.0107   -0.4096 O   0  0  0  0  0  0  0  0  0  0  0  0
   -4.9651   -1.4086    1.4426 C   0  0  2  0  0  0  0  0  0  0  0  0
   -5.1448   -0.4074    2.5769 C   0  0  0  0  0  0  0  0  0  0  0  0
   -6.0709    0.6870    2.2229 C   0  0  0  0  0  0  0  0  0  0  0  0
   -5.6613    1.8486    1.6440 N   0  0  0  0  0  0  0  0  0  0  0  0
   -6.7061    2.6624    1.4445 C   0  0  0  0  0  0  0  0  0  0  0  0
   -7.8057    2.0026    1.9038 N   0  0  0  0  0  0  0  0  0  0  0  0
   -7.4424    0.7888    2.3870 C   0  0  0  0  0  0  0  0  0  0  0  0
   -4.0942   -2.4836    1.9044 N   0  0  0  0  0  0  0  0  0  0  0  0
   -4.5484   -3.8125    1.9153 C   0  0  0  0  0  0  0  0  0  0  0  0
   -5.7507   -3.9764    1.5043 O   0  0  0  0  0  0  0  0  0  0  0  0
   -3.7924   -5.0050    2.3433 C   0  0  0  0  0  0  0  0  0  0  0  0
    4.8184    4.6395    1.6562 N   0  0  0  0  0  0  0  0  0  0  0  0
    3.4624    4.9586   -1.1460 H   0  0  0  0  0  0  0  0  0  0  0  0
    3.2616    6.4455   -0.0658 H   0  0  0  0  0  0  0  0  0  0  0  0
    1.2039    4.4722    0.1769 H   0  0  0  0  0  0  0  0  0  0  0  0
    0.5917    3.4265    1.4466 H   0  0  0  0  0  0  0  0  0  0  0  0
    0.3521    2.4170   -0.6724 H   0  0  0  0  0  0  0  0  0  0  0  0
    2.0449    2.7594   -1.1517 H   0  0  0  0  0  0  0  0  0  0  0  0
    2.7795    1.1345    0.6175 H   0  0  0  0  0  0  0  0  0  0  0  0
    0.9972    0.9027    1.0583 H   0  0  0  0  0  0  0  0  0  0  0  0
    2.3551    0.3447   -1.6649 H   0  0  0  0  0  0  0  0  0  0  0  0
    3.8208   -0.7499    0.2638 H   0  0  0  0  0  0  0  0  0  0  0  0
    2.8039   -3.5545    0.2866 H   0  0  0  0  0  0  0  0  0  0  0  0
    2.8366   -1.8968    3.5943 H   0  0  0  0  0  0  0  0  0  0  0  0
    4.1576   -0.9281    2.7427 H   0  0  0  0  0  0  0  0  0  0  0  0
    4.5146   -3.3445   -1.2993 H   0  0  0  0  0  0  0  0  0  0  0  0
    5.2089   -4.2095    0.0645 H   0  0  0  0  0  0  0  0  0  0  0  0
    5.4251   -1.1289   -2.1105 H   0  0  0  0  0  0  0  0  0  0  0  0
    7.4103    0.4386   -1.4361 H   0  0  0  0  0  0  0  0  0  0  0  0
    6.6619   -3.3325    2.2204 H   0  0  0  0  0  0  0  0  0  0  0  0
    8.5521   -2.4189    3.6252 H   0  0  0  0  0  0  0  0  0  0  0  0
    9.7982   -0.4947    2.8672 H   0  0  0  0  0  0  0  0  0  0  0  0
    9.1233    0.5810    0.6637 H   0  0  0  0  0  0  0  0  0  0  0  0
    0.1258    0.4996   -2.3400 H   0  0  0  0  0  0  0  0  0  0  0  0
   -2.3517   -0.9854   -1.9356 H   0  0  0  0  0  0  0  0  0  0  0  0
   -1.6547    1.0032   -2.6174 H   0  0  0  0  0  0  0  0  0  0  0  0
   -1.9007    1.8910   -1.1523 H   0  0  0  0  0  0  0  0  0  0  0  0
   -4.4614    3.1075   -1.1707 H   0  0  0  0  0  0  0  0  0  0  0  0
   -6.2978    3.2087   -3.0044 H   0  0  0  0  0  0  0  0  0  0  0  0
   -2.8377   -0.6601   -4.1962 H   0  0  0  0  0  0  0  0  0  0  0  0
   -4.1379   -1.1784   -6.2341 H   0  0  0  0  0  0  0  0  0  0  0  0
   -6.1196    0.0495   -6.7991 H   0  0  0  0  0  0  0  0  0  0  0  0
   -6.8915    1.9084   -5.3005 H   0  0  0  0  0  0  0  0  0  0  0  0
   -2.4971   -1.4460    0.6222 H   0  0  0  0  0  0  0  0  0  0  0  0
   -5.9310   -1.8297    1.1494 H   0  0  0  0  0  0  0  0  0  0  0  0
   -5.5649   -0.9803    3.4395 H   0  0  0  0  0  0  0  0  0  0  0  0
   -4.1462   -0.0654    2.9240 H   0  0  0  0  0  0  0  0  0  0  0  0
   -4.6855    2.0868    1.3780 H   0  0  0  0  0  0  0  0  0  0  0  0
   -6.6885    3.6735    0.9994 H   0  0  0  0  0  0  0  0  0  0  0  0
   -8.0180    0.0043    2.8244 H   0  0  0  0  0  0  0  0  0  0  0  0
   -3.1146   -2.3240    2.2539 H   0  0  0  0  0  0  0  0  0  0  0  0
   -4.0309   -5.9132    1.7069 H   0  0  0  0  0  0  0  0  0  0  0  0
   -4.0168   -5.2394    3.4186 H   0  0  0  0  0  0  0  0  0  0  0  0
   -2.6945   -4.8702    2.2542 H   0  0  0  0  0  0  0  0  0  0  0  0
    4.9921    5.4725    2.2992 H   0  0  0  0  0  0  0  0  0  0  0  0
    5.4928    3.8722    1.5266 H   0  0  0  0  0  0  0  0  0  0  0  0
  1  2  1  0
  2  3  2  3
  3  4  1  0
  4  5  1  0
  5  6  1  0
  6  7  1  0
  7  8  1  0
  8  9  2  0
  8 10  1  0
 10 11  1  0
 11 12  1  0
 12 13  2  0
 12 14  1  0
 11 15  1  0
 15 16  1  0
 16 17  2  0
 17 18  1  0
 18 19  1  0
 19 20  2  0
 20 21  1  0
 21 22  2  0
 22 23  1  0
 23 24  2  0
  7 25  1  0
 25 26  1  0
 26 27  2  0
 26 28  1  0
 28 29  1  0
 29 30  1  0
 30 31  2  0
 31 32  1  0
 32 33  1  0
 33 34  2  0
 34 35  1  0
 35 36  2  0
 36 37  1  0
 37 38  2  0
 28 39  1  0
 39 40  1  0
 40 41  2  0
 40 42  1  0
 42 43  1  0
 43 44  1  0
 44 45  1  0
 45 46  1  0
 46 47  2  0
 47 48  1  0
 42 49  1  0
 49 50  1  0
 50 51  2  0
 50 52  1  0
  2 53  1  0
 20 16  1  0
 34 30  1  0
 48 44  2  0
 24 19  1  0
 38 33  1  0
  1 54  1  0
  1 55  1  0
  4 56  1  0
  4 57  1  0
  5 58  1  0
  5 59  1  0
  6 60  1  0
  6 61  1  0
  7 62  1  6
 10 63  1  0
 11 64  1  6
 14 65  1  0
 14 66  1  0
 15 67  1  0
 15 68  1  0
 17 69  1  0
 18 70  1  0
 21 71  1  0
 22 72  1  0
 23 73  1  0
 24 74  1  0
 25 75  1  0
 28 76  1  6
 29 77  1  0
 29 78  1  0
 31 79  1  0
 32 80  1  0
 35 81  1  0
 36 82  1  0
 37 83  1  0
 38 84  1  0
 39 85  1  0
 42 86  1  6
 43 87  1  0
 43 88  1  0
 45 89  1  0
 46 90  1  0
 48 91  1  0
 49 92  1  0
 52 93  1  0
 52 94  1  0
 52 95  1  0
 53 96  1  0
 53 97  1  0
M  END
>  <Ligand ID>  (1) 
LIG0001423

>  <Ligand>  (1) 
CHEMBL431242

>  <SMILES>  (1) 
NC(=NCCC[C@@H](C(=O)N[C@H](C(=O)N)Cc1c[nH]c2c1cccc2)NC(=O)[C@H](Cc1c[nH]c2c1cccc2)NC(=O)[C@H](Cc1[nH]cnc1)NC(=O)C)N

>  <CID>  (1) 
11125447.0

>  <ChEMBL ID>  (1) 
nan

>  <InChiKey>  (1) 
LUHDZKBXWWFQLS-ORYMTKCHSA-N

>  <InChi>  (1) 
InChI=1S/C36H44N12O5/c1-20(49)45-31(15-23-18-40-19-44-23)35(53)48-30(14-22-17-43-27-10-5-3-8-25(22)27)34(52)46-28(11-6-12-41-36(38)39)33(51)47-29(32(37)50)13-21-16-42-26-9-4-2-7-24(21)26/h2-5,7-10,16-19,28-31,42-43H,6,11-15H2,1H3,(H2,37,50)(H,40,44)(H,45,49)(H,46,52)(H,47,51)(H,48,53)(H4,38,39,41)/t28-,29-,30-,31-/m0/s1

>  <IUPAC Name>  (1) 
(2S)-2-[[(2S)-2-[[(2S)-2-acetamido-3-(1H-imidazol-5-yl)propanoyl]amino]-3-(1H-indol-3-yl)propanoyl]amino]-N-[(2S)-1-amino-3-(1H-indol-3-yl)-1-oxopropan-2-yl]-5-(diaminomethylideneamino)pentanamide

$$$$
