
     RDKit          3D

 64 69  0  0  0  0  0  0  0  0999 V2000
   -7.5354    2.6622    0.7548 C   0  0  0  0  0  0  0  0  0  0  0  0
   -6.1384    2.7087    0.5113 O   0  0  0  0  0  0  0  0  0  0  0  0
   -5.3641    1.5568    0.5183 C   0  0  0  0  0  0  0  0  0  0  0  0
   -5.8811    0.2983    0.7582 C   0  0  0  0  0  0  0  0  0  0  0  0
   -5.0747   -0.8453    0.7588 C   0  0  0  0  0  0  0  0  0  0  0  0
   -3.7365   -0.6872    0.5118 C   0  0  0  0  0  0  0  0  0  0  0  0
   -3.2557    0.5560    0.2799 C   0  0  0  0  0  0  0  0  0  0  0  0
   -4.0116    1.6878    0.2721 C   0  0  0  0  0  0  0  0  0  0  0  0
   -3.1378    2.7319   -0.0028 O   0  0  0  0  0  0  0  0  0  0  0  0
   -1.8350    2.3072    0.4448 C   0  0  2  0  0  0  0  0  0  0  0  0
   -1.8410    0.8966   -0.0047 C   0  0  2  0  0  0  0  0  0  0  0  0
   -1.5902    0.8193   -1.4948 C   0  0  0  0  0  0  0  0  0  0  0  0
   -1.5126   -0.5731   -2.0031 C   0  0  0  0  0  0  0  0  0  0  0  0
   -0.9479   -1.5042   -1.1040 N   0  0  0  0  0  0  0  0  0  0  0  0
   -1.3773   -1.4494    0.2624 C   0  0  0  0  0  0  0  0  0  0  0  0
   -2.7930   -1.8313    0.4908 C   0  0  0  0  0  0  0  0  0  0  0  0
   -0.9806   -0.0716    0.7503 C   0  0  2  0  0  0  0  0  0  0  0  0
   -1.2244    0.0343    2.2080 C   0  0  0  0  0  0  0  0  0  0  0  0
   -1.2875    1.4084    2.7793 C   0  0  0  0  0  0  0  0  0  0  0  0
   -1.9120    2.4230    1.9259 C   0  0  0  0  0  0  0  0  0  0  0  0
   -2.5027    3.3748    2.4410 O   0  0  0  0  0  0  0  0  0  0  0  0
    0.3700    0.1674    0.3232 N   0  0  0  0  0  0  0  0  0  0  0  0
    1.4886   -0.6270    0.7196 C   0  0  0  0  0  0  0  0  0  0  0  0
    1.3767   -1.6218    1.4950 O   0  0  0  0  0  0  0  0  0  0  0  0
    2.8429   -0.3375    0.2502 C   0  0  0  0  0  0  0  0  0  0  0  0
    3.8965   -1.0543    0.5997 C   0  0  0  0  0  0  0  0  0  0  0  0
    5.2538   -0.7918    0.1503 C   0  0  0  0  0  0  0  0  0  0  0  0
    6.2911   -1.5998    0.5720 C   0  0  0  0  0  0  0  0  0  0  0  0
    7.5988   -1.4225    0.1965 C   0  0  0  0  0  0  0  0  0  0  0  0
    7.8749   -0.3676   -0.6546 C   0  0  0  0  0  0  0  0  0  0  0  0
    6.8906    0.4800   -1.1162 C   0  0  0  0  0  0  0  0  0  0  0  0
    5.5843    0.2437   -0.6961 C   0  0  0  0  0  0  0  0  0  0  0  0
    9.2872   -0.1557   -1.0756 C   0  0  0  0  0  0  0  0  0  0  0  0
   -0.6219   -2.7713   -1.6279 C   0  0  0  0  0  0  0  0  0  0  0  0
   -7.9628    1.7876    0.2277 H   0  0  0  0  0  0  0  0  0  0  0  0
   -7.7551    2.5867    1.8324 H   0  0  0  0  0  0  0  0  0  0  0  0
   -8.0365    3.5706    0.3300 H   0  0  0  0  0  0  0  0  0  0  0  0
   -6.9384    0.1804    0.9526 H   0  0  0  0  0  0  0  0  0  0  0  0
   -5.4966   -1.8310    0.9495 H   0  0  0  0  0  0  0  0  0  0  0  0
   -1.0431    2.9346    0.0114 H   0  0  0  0  0  0  0  0  0  0  0  0
   -2.4780    1.3245   -1.9747 H   0  0  0  0  0  0  0  0  0  0  0  0
   -0.7397    1.4783   -1.7524 H   0  0  0  0  0  0  0  0  0  0  0  0
   -2.4920   -0.8879   -2.4212 H   0  0  0  0  0  0  0  0  0  0  0  0
   -0.8361   -0.5420   -2.9041 H   0  0  0  0  0  0  0  0  0  0  0  0
   -0.7424   -2.1807    0.8087 H   0  0  0  0  0  0  0  0  0  0  0  0
   -2.8872   -2.3942    1.4423 H   0  0  0  0  0  0  0  0  0  0  0  0
   -3.1157   -2.5268   -0.3068 H   0  0  0  0  0  0  0  0  0  0  0  0
   -2.2047   -0.4488    2.4087 H   0  0  0  0  0  0  0  0  0  0  0  0
   -0.5191   -0.5579    2.8293 H   0  0  0  0  0  0  0  0  0  0  0  0
   -0.3143    1.8134    3.1132 H   0  0  0  0  0  0  0  0  0  0  0  0
   -1.8964    1.3527    3.7287 H   0  0  0  0  0  0  0  0  0  0  0  0
    0.6259    0.9728   -0.3310 H   0  0  0  0  0  0  0  0  0  0  0  0
    2.9769    0.5048   -0.4135 H   0  0  0  0  0  0  0  0  0  0  0  0
    3.7123   -1.8857    1.2644 H   0  0  0  0  0  0  0  0  0  0  0  0
    6.0879   -2.4332    1.2416 H   0  0  0  0  0  0  0  0  0  0  0  0
    8.4063   -2.0666    0.5363 H   0  0  0  0  0  0  0  0  0  0  0  0
    7.1127    1.3084   -1.7854 H   0  0  0  0  0  0  0  0  0  0  0  0
    4.8341    0.9223   -1.0726 H   0  0  0  0  0  0  0  0  0  0  0  0
    9.8342    0.2960   -0.2217 H   0  0  0  0  0  0  0  0  0  0  0  0
    9.7276   -1.1356   -1.3650 H   0  0  0  0  0  0  0  0  0  0  0  0
    9.3352    0.5304   -1.9347 H   0  0  0  0  0  0  0  0  0  0  0  0
   -0.3494   -3.4602   -0.8033 H   0  0  0  0  0  0  0  0  0  0  0  0
    0.3218   -2.6516   -2.2300 H   0  0  0  0  0  0  0  0  0  0  0  0
   -1.3616   -3.2065   -2.3180 H   0  0  0  0  0  0  0  0  0  0  0  0
  1  2  1  0
  2  3  1  0
  3  4  2  0
  4  5  1  0
  5  6  2  0
  6  7  1  0
  7  8  2  0
  8  9  1  0
  9 10  1  0
 10 11  1  0
 11 12  1  6
 12 13  1  0
 13 14  1  0
 14 15  1  0
 15 16  1  0
 15 17  1  0
 17 18  1  0
 18 19  1  0
 19 20  1  0
 20 21  2  0
 17 22  1  1
 22 23  1  0
 23 24  2  0
 23 25  1  0
 25 26  2  0
 26 27  1  0
 27 28  2  0
 28 29  1  0
 29 30  2  0
 30 31  1  0
 31 32  2  0
 30 33  1  0
 14 34  1  0
  8  3  1  0
 20 10  1  0
 32 27  1  0
 16  6  1  0
 11  7  1  0
 17 11  1  0
  1 35  1  0
  1 36  1  0
  1 37  1  0
  4 38  1  0
  5 39  1  0
 10 40  1  6
 12 41  1  0
 12 42  1  0
 13 43  1  0
 13 44  1  0
 15 45  1  0
 16 46  1  0
 16 47  1  0
 18 48  1  0
 18 49  1  0
 19 50  1  0
 19 51  1  0
 22 52  1  0
 25 53  1  0
 26 54  1  0
 28 55  1  0
 29 56  1  0
 31 57  1  0
 32 58  1  0
 33 59  1  0
 33 60  1  0
 33 61  1  0
 34 62  1  0
 34 63  1  0
 34 64  1  0
M  END
>  <Ligand ID>  (1) 
LIG0003797

>  <Ligand>  (1) 
BDBM50193540

>  <SMILES>  (1) 
COc1ccc2c3c1O[C@@H]1[C@@]43CCN(C(C2)[C@@]4(CCC1=O)NC(=O)/C=C/c1ccc(cc1)C)C

>  <CID>  (1) 
44415317.0

>  <ChEMBL ID>  (1) 
nan

>  <InChiKey>  (1) 
DXMFOUDANJICCW-HAMXYAMVSA-N

>  <InChi>  (1) 
InChI=1S/C28H30N2O4/c1-17-4-6-18(7-5-17)8-11-23(32)29-28-13-12-20(31)26-27(28)14-15-30(2)22(28)16-19-9-10-21(33-3)25(34-26)24(19)27/h4-11,22,26H,12-16H2,1-3H3,(H,29,32)/b11-8+/t22?,26-,27-,28+/m0/s1

>  <IUPAC Name>  (1) 
(E)-N-[(4aS,7aR,12bR)-9-methoxy-3-methyl-7-oxo-2,4,5,6,7a,13-hexahydro-1H-4,12-methanobenzofuro[3,2-e]isoquinolin-4a-yl]-3-(4-methylphenyl)prop-2-enamide

$$$$
