
     RDKit          3D

 52 54  0  0  0  0  0  0  0  0999 V2000
   -4.8306   -0.9456    2.4472 O   0  0  0  0  0  0  0  0  0  0  0  0
   -4.5304   -1.7874    1.3830 C   0  0  0  0  0  0  0  0  0  0  0  0
   -3.6108   -1.1094    0.3737 C   0  0  0  0  0  0  0  0  0  0  0  0
   -4.3039    0.1609   -0.1252 C   0  0  0  0  0  0  0  0  0  0  0  0
   -4.6200    1.0302    0.8909 O   0  0  0  0  0  0  0  0  0  0  0  0
   -5.3831    2.4352    0.3578 P   0  0  0  0  0  0  0  0  0  0  0  0
   -6.4168    2.0347   -0.6768 O   0  0  0  0  0  0  0  0  0  0  0  0
   -4.2929    3.5011   -0.3672 O   0  0  0  0  0  0  0  0  0  0  0  0
   -6.2084    3.1688    1.6379 O   0  0  0  0  0  0  0  0  0  0  0  0
   -3.4617   -2.0729   -0.7572 C   0  0  0  0  0  0  0  0  0  0  0  0
   -2.5960   -1.6322   -1.8811 C   0  0  0  0  0  0  0  0  0  0  0  0
   -1.2035   -1.3384   -1.5528 C   0  0  0  0  0  0  0  0  0  0  0  0
   -0.2656   -2.3761   -1.6196 C   0  0  0  0  0  0  0  0  0  0  0  0
    1.0624   -2.1741   -1.3264 C   0  0  0  0  0  0  0  0  0  0  0  0
    1.5209   -0.9290   -0.9524 C   0  0  0  0  0  0  0  0  0  0  0  0
    0.6214    0.1133   -0.8775 C   0  0  0  0  0  0  0  0  0  0  0  0
   -0.7095   -0.1126   -1.1768 C   0  0  0  0  0  0  0  0  0  0  0  0
    2.9401   -0.7780   -0.6542 C   0  0  0  0  0  0  0  0  0  0  0  0
    3.8316   -1.7602   -0.7169 N   0  0  0  0  0  0  0  0  0  0  0  0
    5.0239   -1.3087   -0.3909 N   0  0  0  0  0  0  0  0  0  0  0  0
    4.9100   -0.0100   -0.1107 N   0  0  0  0  0  0  0  0  0  0  0  0
    3.6332    0.3473   -0.2645 C   0  0  0  0  0  0  0  0  0  0  0  0
    6.0232    0.7945    0.2825 C   0  0  0  0  0  0  0  0  0  0  0  0
    7.2599    0.5302   -0.2828 C   0  0  0  0  0  0  0  0  0  0  0  0
    8.3890    1.2563    0.0383 C   0  0  0  0  0  0  0  0  0  0  0  0
    8.2487    2.2854    0.9670 C   0  0  0  0  0  0  0  0  0  0  0  0
    7.0216    2.5735    1.5503 C   0  0  0  0  0  0  0  0  0  0  0  0
    5.9156    1.8157    1.1956 C   0  0  0  0  0  0  0  0  0  0  0  0
    9.3528    2.9840    1.2711 F   0  0  0  0  0  0  0  0  0  0  0  0
   -2.4006   -0.7521    1.0396 N   0  0  0  0  0  0  0  0  0  0  0  0
   -5.7822   -1.1333    2.6790 H   0  0  0  0  0  0  0  0  0  0  0  0
   -5.4393   -2.1606    0.8749 H   0  0  0  0  0  0  0  0  0  0  0  0
   -3.9753   -2.6663    1.7707 H   0  0  0  0  0  0  0  0  0  0  0  0
   -5.2844   -0.2146   -0.5423 H   0  0  0  0  0  0  0  0  0  0  0  0
   -3.7704    0.5800   -0.9761 H   0  0  0  0  0  0  0  0  0  0  0  0
   -4.8462    4.1388   -0.8851 H   0  0  0  0  0  0  0  0  0  0  0  0
   -6.5693    2.4525    2.2103 H   0  0  0  0  0  0  0  0  0  0  0  0
   -4.4970   -2.1982   -1.1932 H   0  0  0  0  0  0  0  0  0  0  0  0
   -3.1893   -3.0940   -0.4343 H   0  0  0  0  0  0  0  0  0  0  0  0
   -3.1060   -0.7907   -2.4110 H   0  0  0  0  0  0  0  0  0  0  0  0
   -2.6030   -2.4649   -2.6324 H   0  0  0  0  0  0  0  0  0  0  0  0
   -0.6109   -3.3615   -1.9122 H   0  0  0  0  0  0  0  0  0  0  0  0
    1.7237   -3.0468   -1.4062 H   0  0  0  0  0  0  0  0  0  0  0  0
    0.9593    1.0955   -0.5870 H   0  0  0  0  0  0  0  0  0  0  0  0
   -1.3840    0.7164   -1.1108 H   0  0  0  0  0  0  0  0  0  0  0  0
    3.2146    1.3141   -0.1178 H   0  0  0  0  0  0  0  0  0  0  0  0
    7.4027   -0.2677   -1.0122 H   0  0  0  0  0  0  0  0  0  0  0  0
    9.3284    1.0337   -0.4101 H   0  0  0  0  0  0  0  0  0  0  0  0
    6.9457    3.3831    2.2716 H   0  0  0  0  0  0  0  0  0  0  0  0
    4.9286    2.0134    1.6353 H   0  0  0  0  0  0  0  0  0  0  0  0
   -1.9848   -1.4854    1.6195 H   0  0  0  0  0  0  0  0  0  0  0  0
   -2.3816    0.2121    1.4132 H   0  0  0  0  0  0  0  0  0  0  0  0
  1  2  1  0
  2  3  1  0
  3  4  1  0
  4  5  1  0
  5  6  1  0
  6  7  2  0
  6  8  1  0
  6  9  1  0
  3 10  1  0
 10 11  1  0
 11 12  1  0
 12 13  2  0
 13 14  1  0
 14 15  2  0
 15 16  1  0
 16 17  2  0
 15 18  1  0
 18 19  1  0
 19 20  2  0
 20 21  1  0
 21 22  1  0
 21 23  1  0
 23 24  2  0
 24 25  1  0
 25 26  2  0
 26 27  1  0
 27 28  2  0
 26 29  1  0
  3 30  1  0
 17 12  1  0
 22 18  2  0
 28 23  1  0
  1 31  1  0
  2 32  1  0
  2 33  1  0
  4 34  1  0
  4 35  1  0
  8 36  1  0
  9 37  1  0
 10 38  1  0
 10 39  1  0
 11 40  1  0
 11 41  1  0
 13 42  1  0
 14 43  1  0
 16 44  1  0
 17 45  1  0
 22 46  1  0
 24 47  1  0
 25 48  1  0
 27 49  1  0
 28 50  1  0
 30 51  1  0
 30 52  1  0
M  END
>  <Ligand ID>  (1) 
LIG0005915

>  <Ligand>  (1) 
CHEMBL3342004

>  <SMILES>  (1) 
OCC(COP(=O)(O)O)(CCc1ccc(cc1)c1nnn(c1)c1ccc(cc1)F)N

>  <CID>  (1) 
118716179.0

>  <ChEMBL ID>  (1) 
nan

>  <InChiKey>  (1) 
PAQCIOUCGIZYSB-UHFFFAOYSA-N

>  <InChi>  (1) 
InChI=1S/C19H22FN4O5P/c20-16-5-7-17(8-6-16)24-11-18(22-23-24)15-3-1-14(2-4-15)9-10-19(21,12-25)13-29-30(26,27)28/h1-8,11,25H,9-10,12-13,21H2,(H2,26,27,28)

>  <IUPAC Name>  (1) 
[2-amino-4-[4-[1-(4-fluorophenyl)triazol-4-yl]phenyl]-2-(hydroxymethyl)butyl] dihydrogen phosphate

$$$$
