
     RDKit          3D

 53 57  0  0  0  0  0  0  0  0999 V2000
    0.9788   -4.3288   -4.3137 Cl  0  0  0  0  0  0  0  0  0  0  0  0
   -0.0468   -3.5816   -3.0998 C   0  0  0  0  0  0  0  0  0  0  0  0
   -1.4062   -3.5059   -3.3671 C   0  0  0  0  0  0  0  0  0  0  0  0
   -2.1830   -2.9131   -2.3924 C   0  0  0  0  0  0  0  0  0  0  0  0
   -1.6134   -2.4321   -1.2286 C   0  0  0  0  0  0  0  0  0  0  0  0
   -0.2445   -2.5192   -0.9819 C   0  0  0  0  0  0  0  0  0  0  0  0
    0.5182   -3.1055   -1.9475 C   0  0  0  0  0  0  0  0  0  0  0  0
    0.5279   -2.0863    0.1425 N   0  0  0  0  0  0  0  0  0  0  0  0
    1.9526   -2.0548    0.0641 C   0  0  0  0  0  0  0  0  0  0  0  0
    2.5283   -0.7648   -0.4156 C   0  0  0  0  0  0  0  0  0  0  0  0
    2.8044   -0.5124   -1.7403 C   0  0  0  0  0  0  0  0  0  0  0  0
    3.3374    0.7080   -2.1713 C   0  0  0  0  0  0  0  0  0  0  0  0
    3.6097    1.7164   -1.2745 C   0  0  0  0  0  0  0  0  0  0  0  0
    3.3398    1.4814    0.0551 C   0  0  0  0  0  0  0  0  0  0  0  0
    2.8161    0.2785    0.4677 C   0  0  0  0  0  0  0  0  0  0  0  0
    3.5901    2.4582    1.0256 C   0  0  0  0  0  0  0  0  0  0  0  0
    4.1171    3.6893    0.6711 C   0  0  0  0  0  0  0  0  0  0  0  0
    4.3896    3.9243   -0.6779 C   0  0  0  0  0  0  0  0  0  0  0  0
    4.1342    2.9390   -1.6348 C   0  0  0  0  0  0  0  0  0  0  0  0
   -0.0886   -1.6662    1.3822 C   0  0  0  0  0  0  0  0  0  0  0  0
    0.6585   -1.9247    2.3940 O   0  0  0  0  0  0  0  0  0  0  0  0
   -1.3743   -1.0185    1.6700 C   0  0  0  0  0  0  0  0  0  0  0  0
   -2.5172   -1.5062    0.9880 N   0  0  0  0  0  0  0  0  0  0  0  0
   -2.6523   -1.8670   -0.3852 C   0  0  0  0  0  0  0  0  0  0  0  0
   -3.8021   -1.6656   -0.8990 O   0  0  0  0  0  0  0  0  0  0  0  0
   -1.2152    0.4936    1.4486 C   0  0  0  0  0  0  0  0  0  0  0  0
   -2.4958    1.1957    1.7286 C   0  0  0  0  0  0  0  0  0  0  0  0
   -3.3680    1.3528    0.6630 C   0  0  0  0  0  0  0  0  0  0  0  0
   -4.5781    1.9966    0.8502 C   0  0  0  0  0  0  0  0  0  0  0  0
   -4.8748    2.4655    2.1134 C   0  0  0  0  0  0  0  0  0  0  0  0
   -4.0061    2.3092    3.1758 C   0  0  0  0  0  0  0  0  0  0  0  0
   -2.8066    1.6733    2.9984 C   0  0  0  0  0  0  0  0  0  0  0  0
   -1.8157   -3.8923   -4.2871 H   0  0  0  0  0  0  0  0  0  0  0  0
   -3.2589   -2.8220   -2.5399 H   0  0  0  0  0  0  0  0  0  0  0  0
    1.5614   -3.2010   -1.8175 H   0  0  0  0  0  0  0  0  0  0  0  0
    2.4852   -2.9473   -0.2473 H   0  0  0  0  0  0  0  0  0  0  0  0
    2.2677   -2.0292    1.1739 H   0  0  0  0  0  0  0  0  0  0  0  0
    2.6311   -1.2315   -2.5148 H   0  0  0  0  0  0  0  0  0  0  0  0
    3.5523    0.9032   -3.2066 H   0  0  0  0  0  0  0  0  0  0  0  0
    2.6158    0.1295    1.5277 H   0  0  0  0  0  0  0  0  0  0  0  0
    3.3753    2.2676    2.0737 H   0  0  0  0  0  0  0  0  0  0  0  0
    4.3120    4.4510    1.4305 H   0  0  0  0  0  0  0  0  0  0  0  0
    4.8088    4.8914   -0.9951 H   0  0  0  0  0  0  0  0  0  0  0  0
    4.3476    3.1237   -2.6894 H   0  0  0  0  0  0  0  0  0  0  0  0
   -1.5564   -1.1032    2.7658 H   0  0  0  0  0  0  0  0  0  0  0  0
   -3.4068   -1.6256    1.5624 H   0  0  0  0  0  0  0  0  0  0  0  0
   -0.8648    0.6984    0.4189 H   0  0  0  0  0  0  0  0  0  0  0  0
   -0.4695    0.8642    2.1827 H   0  0  0  0  0  0  0  0  0  0  0  0
   -3.1553    0.9966   -0.3212 H   0  0  0  0  0  0  0  0  0  0  0  0
   -5.2605    2.1170    0.0064 H   0  0  0  0  0  0  0  0  0  0  0  0
   -5.8433    2.9680    2.2137 H   0  0  0  0  0  0  0  0  0  0  0  0
   -4.2749    2.6948    4.1666 H   0  0  0  0  0  0  0  0  0  0  0  0
   -2.0808    1.5176    3.7879 H   0  0  0  0  0  0  0  0  0  0  0  0
  1  2  1  0
  2  3  2  0
  3  4  1  0
  4  5  2  0
  5  6  1  0
  6  7  2  0
  6  8  1  0
  8  9  1  0
  9 10  1  0
 10 11  2  0
 11 12  1  0
 12 13  2  0
 13 14  1  0
 14 15  2  0
 14 16  1  0
 16 17  2  0
 17 18  1  0
 18 19  2  0
  8 20  1  0
 20 21  2  0
 20 22  1  0
 22 23  1  0
 23 24  1  0
 24 25  2  0
 22 26  1  0
 26 27  1  0
 27 28  2  0
 28 29  1  0
 29 30  2  0
 30 31  1  0
 31 32  2  0
  7  2  1  0
 15 10  1  0
 32 27  1  0
 24  5  1  0
 19 13  1  0
  3 33  1  0
  4 34  1  0
  7 35  1  0
  9 36  1  0
  9 37  1  0
 11 38  1  0
 12 39  1  0
 15 40  1  0
 16 41  1  0
 17 42  1  0
 18 43  1  0
 19 44  1  0
 22 45  1  0
 23 46  1  0
 26 47  1  0
 26 48  1  0
 28 49  1  0
 29 50  1  0
 30 51  1  0
 31 52  1  0
 32 53  1  0
M  END
>  <Ligand ID>  (1) 
LIG0002668

>  <Ligand>  (1) 
CHEMBL270691

>  <SMILES>  (1) 
Clc1ccc2c(c1)N(Cc1ccc3c(c1)cccc3)C(=O)C(NC2=O)Cc1ccccc1

>  <CID>  (1) 
44457002.0

>  <ChEMBL ID>  (1) 
nan

>  <InChiKey>  (1) 
BZDRLTZGNVDUFJ-UHFFFAOYSA-N

>  <InChi>  (1) 
InChI=1S/C27H21ClN2O2/c28-22-12-13-23-25(16-22)30(17-19-10-11-20-8-4-5-9-21(20)14-19)27(32)24(29-26(23)31)15-18-6-2-1-3-7-18/h1-14,16,24H,15,17H2,(H,29,31)

>  <IUPAC Name>  (1) 
3-benzyl-8-chloro-1-(naphthalen-2-ylmethyl)-3,4-dihydro-1,4-benzodiazepine-2,5-dione

$$$$
