
     RDKit          3D

145150  0  0  0  0  0  0  0  0999 V2000
   -4.0565    2.2491    5.2746 N   0  0  0  0  0  0  0  0  0  0  0  0
   -4.5426    0.9135    5.1015 C   0  0  0  0  0  0  0  0  0  0  0  0
   -4.5564    0.3392    3.9192 N   0  0  0  0  0  0  0  0  0  0  0  0
   -5.0622   -1.0179    3.7992 C   0  0  0  0  0  0  0  0  0  0  0  0
   -4.9765   -1.4897    2.3409 C   0  0  0  0  0  0  0  0  0  0  0  0
   -3.5656   -1.5780    1.9393 C   0  0  0  0  0  0  0  0  0  0  0  0
   -3.2777   -2.0176    0.5273 C   0  0  2  0  0  0  0  0  0  0  0  0
   -1.8383   -2.1070    0.3536 N   0  0  0  0  0  0  0  0  0  0  0  0
   -1.2104   -3.3746    0.0150 C   0  0  0  0  0  0  0  0  0  0  0  0
   -2.0763   -4.2844   -0.1565 O   0  0  0  0  0  0  0  0  0  0  0  0
    0.1629   -3.6946   -0.1432 C   0  0  1  0  0  0  0  0  0  0  0  0
    0.4509   -4.1632   -1.5877 C   0  0  0  0  0  0  0  0  0  0  0  0
   -0.2777   -5.3620   -1.9889 C   0  0  0  0  0  0  0  0  0  0  0  0
    0.2694   -6.5905   -1.7271 C   0  0  0  0  0  0  0  0  0  0  0  0
   -0.2738   -7.8027   -2.0674 C   0  0  0  0  0  0  0  0  0  0  0  0
   -1.5116   -7.7649   -2.7486 C   0  0  0  0  0  0  0  0  0  0  0  0
   -2.0754   -6.5365   -3.0190 C   0  0  0  0  0  0  0  0  0  0  0  0
   -1.4935   -5.3414   -2.6589 C   0  0  0  0  0  0  0  0  0  0  0  0
    1.2091   -2.7774    0.2491 N   0  0  0  0  0  0  0  0  0  0  0  0
    2.5024   -3.3441    0.4825 C   0  0  0  0  0  0  0  0  0  0  0  0
    2.5365   -4.5971    0.2804 O   0  0  0  0  0  0  0  0  0  0  0  0
    3.7318   -2.7115    0.8938 C   0  0  2  0  0  0  0  0  0  0  0  0
    4.5376   -3.4835    1.9167 C   0  0  0  0  0  0  0  0  0  0  0  0
    3.8491   -3.7430    3.1799 C   0  0  0  0  0  0  0  0  0  0  0  0
    2.6273   -3.4251    3.6297 N   0  0  0  0  0  0  0  0  0  0  0  0
    2.4401   -3.9110    4.8790 C   0  0  0  0  0  0  0  0  0  0  0  0
    3.5710   -4.5426    5.2080 N   0  0  0  0  0  0  0  0  0  0  0  0
    4.4506   -4.4699    4.2184 C   0  0  0  0  0  0  0  0  0  0  0  0
    3.7217   -1.3414    1.2960 N   0  0  0  0  0  0  0  0  0  0  0  0
    4.4940   -0.2953    0.6413 C   0  0  0  0  0  0  0  0  0  0  0  0
    5.1709   -0.7077   -0.3072 O   0  0  0  0  0  0  0  0  0  0  0  0
    4.4299    1.1124    1.1074 C   0  0  2  0  0  0  0  0  0  0  0  0
    2.9385    1.4082    1.3811 C   0  0  0  0  0  0  0  0  0  0  0  0
    2.0912    0.9206   -0.1265 S   0  0  0  0  0  0  0  0  0  0  0  0
    2.4526    2.3763   -1.6453 S   0  0  0  0  0  0  0  0  0  0  0  0
    0.9811    3.5436   -1.4306 C   0  0  0  0  0  0  0  0  0  0  0  0
   -0.2146    2.6863   -1.6172 C   0  0  0  0  0  0  0  0  0  0  0  0
   -1.6009    3.1840   -1.6222 C   0  0  1  0  0  0  0  0  0  0  0  0
   -2.4825    1.9775   -1.6691 N   0  0  0  0  0  0  0  0  0  0  0  0
   -3.5194    1.7371   -2.5704 C   0  0  0  0  0  0  0  0  0  0  0  0
   -3.8207    2.6118   -3.3627 O   0  0  0  0  0  0  0  0  0  0  0  0
   -4.1861    0.3792   -2.4598 C   0  0  2  0  0  0  0  0  0  0  0  0
   -3.3985   -0.4753   -1.5423 N   0  0  0  0  0  0  0  0  0  0  0  0
   -3.9919   -1.1934   -0.4664 C   0  0  0  0  0  0  0  0  0  0  0  0
   -5.2255   -1.1018   -0.3779 O   0  0  0  0  0  0  0  0  0  0  0  0
   -4.1836   -0.1944   -3.8549 C   0  0  0  0  0  0  0  0  0  0  0  0
   -4.8544   -1.5280   -3.9003 C   0  0  0  0  0  0  0  0  0  0  0  0
   -4.2288   -2.7275   -4.0068 C   0  0  0  0  0  0  0  0  0  0  0  0
   -5.2313   -3.6545   -4.0041 N   0  0  0  0  0  0  0  0  0  0  0  0
   -6.4298   -3.0355   -3.9015 C   0  0  0  0  0  0  0  0  0  0  0  0
   -6.2172   -1.6484   -3.8321 C   0  0  0  0  0  0  0  0  0  0  0  0
   -7.2317   -0.7291   -3.7289 C   0  0  0  0  0  0  0  0  0  0  0  0
   -8.5300   -1.2857   -3.6970 C   0  0  0  0  0  0  0  0  0  0  0  0
   -8.7772   -2.6139   -3.7615 C   0  0  0  0  0  0  0  0  0  0  0  0
   -7.7229   -3.4990   -3.8662 C   0  0  0  0  0  0  0  0  0  0  0  0
   -2.0553    4.0665   -0.5365 C   0  0  0  0  0  0  0  0  0  0  0  0
   -3.1098    3.7687    0.0566 O   0  0  0  0  0  0  0  0  0  0  0  0
   -1.3398    5.2160   -0.1597 N   0  0  0  0  0  0  0  0  0  0  0  0
   -1.6133    6.1835    0.8415 C   0  0  2  0  0  0  0  0  0  0  0  0
   -0.8243    7.4189    0.7227 C   0  0  0  0  0  0  0  0  0  0  0  0
    0.0297    7.4726   -0.2019 O   0  0  0  0  0  0  0  0  0  0  0  0
   -0.9889    8.5227    1.5917 N   0  0  0  0  0  0  0  0  0  0  0  0
   -1.6864    5.6761    2.2704 C   0  0  2  0  0  0  0  0  0  0  0  0
   -0.6287    4.9574    2.7258 O   0  0  0  0  0  0  0  0  0  0  0  0
   -2.9996    5.0656    2.6285 C   0  0  0  0  0  0  0  0  0  0  0  0
    5.0440    2.0137    0.2183 N   0  0  0  0  0  0  0  0  0  0  0  0
    6.0920    2.9370    0.5488 C   0  0  0  0  0  0  0  0  0  0  0  0
    6.4933    2.8949    1.7484 O   0  0  0  0  0  0  0  0  0  0  0  0
    6.6728    3.8817   -0.4108 C   0  0  2  0  0  0  0  0  0  0  0  0
    7.2967    3.3067   -1.6297 C   0  0  0  0  0  0  0  0  0  0  0  0
    8.4477    2.4279   -1.4505 C   0  0  0  0  0  0  0  0  0  0  0  0
    8.3888    1.0669   -1.2461 C   0  0  0  0  0  0  0  0  0  0  0  0
    9.5201    0.2728   -1.1039 C   0  0  0  0  0  0  0  0  0  0  0  0
   10.7992    0.8653   -1.1670 C   0  0  0  0  0  0  0  0  0  0  0  0
   10.8050    2.2113   -1.3697 C   0  0  0  0  0  0  0  0  0  0  0  0
    9.7189    3.0180   -1.5138 C   0  0  0  0  0  0  0  0  0  0  0  0
    7.5623    4.8313    0.2598 N   0  0  0  0  0  0  0  0  0  0  0  0
   -5.0218    0.1753    6.2339 N   0  0  0  0  0  0  0  0  0  0  0  0
   -3.4185    2.6520    4.5725 H   0  0  0  0  0  0  0  0  0  0  0  0
   -4.4035    2.7491    6.1341 H   0  0  0  0  0  0  0  0  0  0  0  0
   -6.0609   -1.1276    4.2326 H   0  0  0  0  0  0  0  0  0  0  0  0
   -4.3637   -1.6287    4.4441 H   0  0  0  0  0  0  0  0  0  0  0  0
   -5.4332   -0.6209    1.7840 H   0  0  0  0  0  0  0  0  0  0  0  0
   -5.5563   -2.4044    2.2626 H   0  0  0  0  0  0  0  0  0  0  0  0
   -3.0662   -2.3553    2.5895 H   0  0  0  0  0  0  0  0  0  0  0  0
   -3.0228   -0.6347    2.1530 H   0  0  0  0  0  0  0  0  0  0  0  0
   -3.6976   -3.0333    0.4321 H   0  0  0  0  0  0  0  0  0  0  0  0
   -1.1732   -1.3423    0.4472 H   0  0  0  0  0  0  0  0  0  0  0  0
    0.3699   -4.6804    0.4148 H   0  0  0  0  0  0  0  0  0  0  0  0
    0.0107   -3.3196   -2.2075 H   0  0  0  0  0  0  0  0  0  0  0  0
    1.5228   -4.1872   -1.8108 H   0  0  0  0  0  0  0  0  0  0  0  0
    1.2322   -6.6421   -1.1989 H   0  0  0  0  0  0  0  0  0  0  0  0
    0.1937   -8.7591   -1.8425 H   0  0  0  0  0  0  0  0  0  0  0  0
   -2.0132   -8.6648   -3.0527 H   0  0  0  0  0  0  0  0  0  0  0  0
   -3.0234   -6.5381   -3.5507 H   0  0  0  0  0  0  0  0  0  0  0  0
   -1.9088   -4.3713   -2.8567 H   0  0  0  0  0  0  0  0  0  0  0  0
    1.1350   -1.7837    0.3897 H   0  0  0  0  0  0  0  0  0  0  0  0
    4.3995   -2.7435   -0.0568 H   0  0  0  0  0  0  0  0  0  0  0  0
    4.8970   -4.4184    1.4444 H   0  0  0  0  0  0  0  0  0  0  0  0
    5.4485   -2.8932    2.1738 H   0  0  0  0  0  0  0  0  0  0  0  0
    1.9409   -2.8665    3.0545 H   0  0  0  0  0  0  0  0  0  0  0  0
    1.5221   -3.7960    5.4833 H   0  0  0  0  0  0  0  0  0  0  0  0
    5.4625   -4.8905    4.1993 H   0  0  0  0  0  0  0  0  0  0  0  0
    3.1614   -1.0233    2.0786 H   0  0  0  0  0  0  0  0  0  0  0  0
    4.9549    1.0897    2.1192 H   0  0  0  0  0  0  0  0  0  0  0  0
    2.9072    2.5273    1.5242 H   0  0  0  0  0  0  0  0  0  0  0  0
    2.5757    0.8737    2.2563 H   0  0  0  0  0  0  0  0  0  0  0  0
    1.0518    4.2984   -2.2048 H   0  0  0  0  0  0  0  0  0  0  0  0
    1.1287    3.9938   -0.4376 H   0  0  0  0  0  0  0  0  0  0  0  0
   -0.1466    1.8786   -0.7756 H   0  0  0  0  0  0  0  0  0  0  0  0
   -0.0117    2.0645   -2.5505 H   0  0  0  0  0  0  0  0  0  0  0  0
   -1.7745    3.7697   -2.5768 H   0  0  0  0  0  0  0  0  0  0  0  0
   -2.2819    1.2876   -0.9532 H   0  0  0  0  0  0  0  0  0  0  0  0
   -5.2151    0.5122   -2.1017 H   0  0  0  0  0  0  0  0  0  0  0  0
   -2.3813   -0.5991   -1.6205 H   0  0  0  0  0  0  0  0  0  0  0  0
   -4.5830    0.5295   -4.5834 H   0  0  0  0  0  0  0  0  0  0  0  0
   -3.0917   -0.3239   -4.1202 H   0  0  0  0  0  0  0  0  0  0  0  0
   -3.1661   -2.8572   -4.0772 H   0  0  0  0  0  0  0  0  0  0  0  0
   -5.0228   -4.6759   -4.0675 H   0  0  0  0  0  0  0  0  0  0  0  0
   -7.0743    0.3240   -3.6762 H   0  0  0  0  0  0  0  0  0  0  0  0
   -9.3576   -0.5863   -3.6172 H   0  0  0  0  0  0  0  0  0  0  0  0
   -9.8064   -2.9513   -3.7242 H   0  0  0  0  0  0  0  0  0  0  0  0
   -7.8835   -4.5654   -3.9256 H   0  0  0  0  0  0  0  0  0  0  0  0
   -0.4701    5.4180   -0.7619 H   0  0  0  0  0  0  0  0  0  0  0  0
   -2.7148    6.4793    0.6711 H   0  0  0  0  0  0  0  0  0  0  0  0
   -1.1936    9.4486    1.0983 H   0  0  0  0  0  0  0  0  0  0  0  0
   -0.9213    8.5019    2.6238 H   0  0  0  0  0  0  0  0  0  0  0  0
   -1.6835    6.6743    2.8869 H   0  0  0  0  0  0  0  0  0  0  0  0
   -0.6758    4.0046    2.4038 H   0  0  0  0  0  0  0  0  0  0  0  0
   -3.3380    5.4911    3.6356 H   0  0  0  0  0  0  0  0  0  0  0  0
   -3.7793    5.4952    1.9284 H   0  0  0  0  0  0  0  0  0  0  0  0
   -3.0331    3.9830    2.7269 H   0  0  0  0  0  0  0  0  0  0  0  0
    4.7436    2.0321   -0.7782 H   0  0  0  0  0  0  0  0  0  0  0  0
    5.8218    4.5309   -0.7735 H   0  0  0  0  0  0  0  0  0  0  0  0
    6.4806    2.7249   -2.1606 H   0  0  0  0  0  0  0  0  0  0  0  0
    7.5605    4.1596   -2.3101 H   0  0  0  0  0  0  0  0  0  0  0  0
    7.4354    0.5581   -1.1956 H   0  0  0  0  0  0  0  0  0  0  0  0
    9.5015   -0.7883   -0.9437 H   0  0  0  0  0  0  0  0  0  0  0  0
   11.6801    0.2403   -1.0503 H   0  0  0  0  0  0  0  0  0  0  0  0
   11.7881    2.6863   -1.4287 H   0  0  0  0  0  0  0  0  0  0  0  0
    9.8622    4.0755   -1.6819 H   0  0  0  0  0  0  0  0  0  0  0  0
    7.2106    5.0666    1.2080 H   0  0  0  0  0  0  0  0  0  0  0  0
    8.5546    4.5938    0.1875 H   0  0  0  0  0  0  0  0  0  0  0  0
   -5.0671    0.6671    7.1573 H   0  0  0  0  0  0  0  0  0  0  0  0
   -5.3187   -0.8379    6.1133 H   0  0  0  0  0  0  0  0  0  0  0  0
  1  2  1  0
  2  3  2  3
  3  4  1  0
  4  5  1  0
  5  6  1  0
  6  7  1  0
  7  8  1  0
  8  9  1  0
  9 10  2  0
  9 11  1  0
 11 12  1  0
 12 13  1  0
 13 14  2  0
 14 15  1  0
 15 16  2  0
 16 17  1  0
 17 18  2  0
 11 19  1  0
 19 20  1  0
 20 21  2  0
 20 22  1  0
 22 23  1  0
 23 24  1  0
 24 25  1  0
 25 26  1  0
 26 27  2  0
 27 28  1  0
 22 29  1  0
 29 30  1  0
 30 31  2  0
 30 32  1  0
 32 33  1  0
 33 34  1  0
 34 35  1  0
 35 36  1  0
 36 37  1  0
 37 38  1  0
 38 39  1  0
 39 40  1  0
 40 41  2  0
 40 42  1  0
 42 43  1  0
 43 44  1  0
 44 45  2  0
 42 46  1  0
 46 47  1  0
 47 48  2  0
 48 49  1  0
 49 50  1  0
 50 51  2  0
 51 52  1  0
 52 53  2  0
 53 54  1  0
 54 55  2  0
 38 56  1  0
 56 57  2  0
 56 58  1  0
 58 59  1  0
 59 60  1  0
 60 61  2  0
 60 62  1  0
 59 63  1  0
 63 64  1  0
 63 65  1  0
 32 66  1  0
 66 67  1  0
 67 68  2  0
 67 69  1  0
 69 70  1  0
 70 71  1  0
 71 72  2  0
 72 73  1  0
 73 74  2  0
 74 75  1  0
 75 76  2  0
 69 77  1  0
  2 78  1  0
 44  7  1  0
 51 47  1  0
 76 71  1  0
 18 13  1  0
 28 24  2  0
 55 50  1  0
  1 79  1  0
  1 80  1  0
  4 81  1  0
  4 82  1  0
  5 83  1  0
  5 84  1  0
  6 85  1  0
  6 86  1  0
  7 87  1  1
  8 88  1  0
 11 89  1  1
 12 90  1  0
 12 91  1  0
 14 92  1  0
 15 93  1  0
 16 94  1  0
 17 95  1  0
 18 96  1  0
 19 97  1  0
 22 98  1  6
 23 99  1  0
 23100  1  0
 25101  1  0
 26102  1  0
 28103  1  0
 29104  1  0
 32105  1  1
 33106  1  0
 33107  1  0
 36108  1  0
 36109  1  0
 37110  1  0
 37111  1  0
 38112  1  6
 39113  1  0
 42114  1  1
 43115  1  0
 46116  1  0
 46117  1  0
 48118  1  0
 49119  1  0
 52120  1  0
 53121  1  0
 54122  1  0
 55123  1  0
 58124  1  0
 59125  1  6
 62126  1  0
 62127  1  0
 63128  1  1
 64129  1  0
 65130  1  0
 65131  1  0
 65132  1  0
 66133  1  0
 69134  1  6
 70135  1  0
 70136  1  0
 72137  1  0
 73138  1  0
 74139  1  0
 75140  1  0
 76141  1  0
 77142  1  0
 77143  1  0
 78144  1  0
 78145  1  0
M  END
>  <Ligand ID>  (1) 
LIG0000802

>  <Ligand>  (1) 
CHEMBL406891

>  <SMILES>  (1) 
NC(=NCCC[C@@H]1NC(=O)[C@@H](Cc2ccccc2)NC(=O)[C@H](Cc2[nH]cnc2)NC(=O)[C@H](CSSCC[C@@H](NC(=O)[C@H](NC1=O)Cc1c[nH]c2c1cccc2)C(=O)N[C@H](C(=O)N)[C@H](O)C)NC(=O)[C@H](Cc1ccccc1)N)N

>  <CID>  (1) 
44285432.0

>  <ChEMBL ID>  (1) 
nan

>  <InChiKey>  (1) 
BGHGOKPNEQCGCY-RSTNRAGRSA-N

>  <InChi>  (1) 
InChI=1S/C52H67N15O9S2/c1-29(68)43(44(54)69)67-47(72)38-18-20-77-78-27-42(66-45(70)35(53)21-30-11-4-2-5-12-30)51(76)65-41(24-33-26-57-28-60-33)50(75)63-39(22-31-13-6-3-7-14-31)48(73)61-37(17-10-19-58-52(55)56)46(71)64-40(49(74)62-38)23-32-25-59-36-16-9-8-15-34(32)36/h2-9,11-16,25-26,28-29,35,37-43,59,68H,10,17-24,27,53H2,1H3,(H2,54,69)(H,57,60)(H,61,73)(H,62,74)(H,63,75)(H,64,71)(H,65,76)(H,66,70)(H,67,72)(H4,55,56,58)/t29-,35+,37+,38-,39-,40-,41+,42+,43+/m1/s1

>  <IUPAC Name>  (1) 
(5R,8R,11S,14R,17S,20R)-N-[(2S,3R)-1-amino-3-hydroxy-1-oxobutan-2-yl]-20-[[(2S)-2-amino-3-phenylpropanoyl]amino]-14-benzyl-11-[3-(diaminomethylideneamino)propyl]-17-(1H-imidazol-5-ylmethyl)-8-(1H-indol-3-ylmethyl)-7,10,13,16,19-pentaoxo-1,2-dithia-6,9,12,15,18-pentazacyclohenicosane-5-carboxamide

$$$$
