
     RDKit          3D

 25 25  0  0  0  0  0  0  0  0999 V2000
   -2.0506    2.0372   -1.0588 O   0  0  0  0  0  0  0  0  0  0  0  0
   -1.5603    0.7282   -0.8594 C   0  0  0  0  0  0  0  0  0  0  0  0
   -1.3369    0.0879   -1.9239 O   0  0  0  0  0  0  0  0  0  0  0  0
   -1.3418    0.1939    0.4953 C   0  0  1  0  0  0  0  0  0  0  0  0
   -1.7293    1.0764    1.5372 N   0  0  0  0  0  0  0  0  0  0  0  0
   -1.8607   -1.2723    0.6565 C   0  0  0  0  0  0  0  0  0  0  0  0
   -0.4470   -0.8974    0.8609 C   0  0  1  0  0  0  0  0  0  0  0  0
    0.6328   -1.4848    0.0438 C   0  0  0  0  0  0  0  0  0  0  0  0
    1.6780   -0.4303   -0.2678 C   0  0  0  0  0  0  0  0  0  0  0  0
    1.7034    0.0657   -1.5707 N   0  0  0  0  0  0  0  0  0  0  0  0
    3.0993    1.2733   -1.5258 S   0  0  0  0  0  0  0  0  0  0  0  0
    3.4544    0.9407    0.2453 N   0  0  0  0  0  0  0  0  0  0  0  0
    2.5494    0.0195    0.5964 C   0  0  0  0  0  0  0  0  0  0  0  0
    2.5866   -0.3986    1.8364 O   0  0  0  0  0  0  0  0  0  0  0  0
    0.6829    0.0000    0.0000 Cl  0  0  0  0  0  0  0  0  0  0  0  0
   -2.5140    2.2953   -1.9194 H   0  0  0  0  0  0  0  0  0  0  0  0
   -1.5133    0.8234    2.4989 H   0  0  0  0  0  0  0  0  0  0  0  0
   -2.1764    1.9496    1.3226 H   0  0  0  0  0  0  0  0  0  0  0  0
   -2.1233   -1.8145   -0.2697 H   0  0  0  0  0  0  0  0  0  0  0  0
   -2.5426   -1.4623    1.5102 H   0  0  0  0  0  0  0  0  0  0  0  0
   -0.1622   -0.9169    1.9775 H   0  0  0  0  0  0  0  0  0  0  0  0
    0.2775   -1.9653   -0.8671 H   0  0  0  0  0  0  0  0  0  0  0  0
    1.1620   -2.2748    0.6527 H   0  0  0  0  0  0  0  0  0  0  0  0
    4.2148    1.4262    0.7437 H   0  0  0  0  0  0  0  0  0  0  0  0
   -0.6829    0.0000    0.0000 H   0  0  0  0  0  0  0  0  0  0  0  0
  1  2  1  0
  2  3  2  0
  2  4  1  0
  4  5  1  1
  4  6  1  0
  6  7  1  0
  7  8  1  0
  8  9  1  0
  9 10  2  0
 10 11  1  0
 11 12  1  0
 12 13  1  0
 13 14  2  0
  7  4  1  0
 13  9  1  0
  1 16  1  0
  5 17  1  0
  5 18  1  0
  6 19  1  0
  6 20  1  0
  7 21  1  1
  8 22  1  0
  8 23  1  0
 12 24  1  0
 15 25  1  0
M  END
>  <Ligand ID>  (1) 
LIG0002413

>  <Ligand>  (1) 
CHEMBL3347672

>  <SMILES>  (1) 
OC(=O)[C@@]1(N)C[C@H]1Cc1ns[nH]c1=O.Cl

>  <CID>  (1) 
118718091.0

>  <ChEMBL ID>  (1) 
nan

>  <InChiKey>  (1) 
LMDKZMGPXHHZST-ASWTZPABSA-N

>  <InChi>  (1) 
InChI=1S/C7H9N3O3S.ClH/c8-7(6(12)13)2-3(7)1-4-5(11)10-14-9-4;/h3H,1-2,8H2,(H,10,11)(H,12,13);1H/t3-,7-;/m1./s1

>  <IUPAC Name>  (1) 
(1R,2S)-1-amino-2-[(4-oxo-1,2,5-thiadiazol-3-yl)methyl]cyclopropane-1-carboxylic acid;hydrochloride

$$$$
