
     RDKit          3D

139141  0  0  0  0  0  0  0  0999 V2000
   11.2631    2.4159   -1.1943 C   0  0  0  0  0  0  0  0  0  0  0  0
   10.3869    1.7689   -2.2485 C   0  0  0  0  0  0  0  0  0  0  0  0
    9.8678    0.5338   -1.7136 N   0  0  0  0  0  0  0  0  0  0  0  0
    9.0187   -0.1861   -2.6542 C   0  0  0  0  0  0  0  0  0  0  0  0
    7.7342    0.5262   -2.8936 C   0  0  0  0  0  0  0  0  0  0  0  0
    6.8796    0.8381   -1.7350 C   0  0  0  0  0  0  0  0  0  0  0  0
    6.2607   -0.1515   -0.8619 C   0  0  1  0  0  0  0  0  0  0  0  0
    7.0274   -1.1202   -0.0862 C   0  0  0  0  0  0  0  0  0  0  0  0
    7.6678   -2.1106   -0.5173 O   0  0  0  0  0  0  0  0  0  0  0  0
    7.1195   -1.0159    1.3779 N   0  0  0  0  0  0  0  0  0  0  0  0
    7.8533   -1.9849    2.1418 C   0  0  0  0  0  0  0  0  0  0  0  0
    9.2749   -2.1103    1.8334 C   0  0  0  0  0  0  0  0  0  0  0  0
    9.9381   -2.9734    2.5073 O   0  0  0  0  0  0  0  0  0  0  0  0
   10.0060   -1.3856    0.8705 N   0  0  0  0  0  0  0  0  0  0  0  0
    5.5033    0.6264    0.1765 N   0  0  0  0  0  0  0  0  0  0  0  0
    4.3624   -0.0028    0.7785 C   0  0  0  0  0  0  0  0  0  0  0  0
    4.0189   -1.1829    0.4509 O   0  0  0  0  0  0  0  0  0  0  0  0
    3.5241    0.6801    1.8089 C   0  0  2  0  0  0  0  0  0  0  0  0
    4.2828    1.5485    2.7485 C   0  0  0  0  0  0  0  0  0  0  0  0
    4.4600    0.6759    3.9753 C   0  0  0  0  0  0  0  0  0  0  0  0
    3.8272   -0.6380    3.6534 C   0  0  0  0  0  0  0  0  0  0  0  0
    2.8690   -0.3344    2.5703 N   0  0  0  0  0  0  0  0  0  0  0  0
    1.6423   -1.0131    2.5094 C   0  0  0  0  0  0  0  0  0  0  0  0
    1.4812   -1.8700    3.4887 O   0  0  0  0  0  0  0  0  0  0  0  0
    0.5480   -0.9425    1.5813 C   0  0  2  0  0  0  0  0  0  0  0  0
    0.2500   -2.3166    0.9247 C   0  0  0  0  0  0  0  0  0  0  0  0
   -0.0314   -3.6389    2.0389 S   0  0  0  0  0  0  0  0  0  0  0  0
   -1.6888   -3.4283    3.2903 S   0  0  0  0  0  0  0  0  0  0  0  0
   -3.1914   -4.0925    2.4740 C   0  0  0  0  0  0  0  0  0  0  0  0
   -3.5382   -3.1008    1.3454 C   0  0  2  0  0  0  0  0  0  0  0  0
   -3.7377   -1.7931    1.9855 N   0  0  0  0  0  0  0  0  0  0  0  0
   -4.7359   -3.4818    0.5648 C   0  0  0  0  0  0  0  0  0  0  0  0
   -4.8256   -4.3768   -0.2720 O   0  0  0  0  0  0  0  0  0  0  0  0
   -5.9342   -2.7340    0.8044 N   0  0  0  0  0  0  0  0  0  0  0  0
   -7.1639   -2.8475    0.0537 C   0  0  1  0  0  0  0  0  0  0  0  0
   -8.3544   -3.1071    0.9532 C   0  0  0  0  0  0  0  0  0  0  0  0
   -8.1367   -4.3676    1.6985 C   0  0  0  0  0  0  0  0  0  0  0  0
   -8.5479   -5.6122    1.2597 C   0  0  0  0  0  0  0  0  0  0  0  0
   -8.2832   -6.7020    2.0411 C   0  0  0  0  0  0  0  0  0  0  0  0
   -7.6143   -6.6044    3.2630 C   0  0  0  0  0  0  0  0  0  0  0  0
   -7.2104   -5.3651    3.6932 C   0  0  0  0  0  0  0  0  0  0  0  0
   -7.4776   -4.2812    2.9084 C   0  0  0  0  0  0  0  0  0  0  0  0
   -7.3386   -1.4528   -0.5754 C   0  0  0  0  0  0  0  0  0  0  0  0
   -8.3067   -1.1673   -1.2749 O   0  0  0  0  0  0  0  0  0  0  0  0
   -6.3691   -0.4613   -0.3552 N   0  0  0  0  0  0  0  0  0  0  0  0
   -6.3603    0.9299   -0.7410 C   0  0  2  0  0  0  0  0  0  0  0  0
   -5.2276    1.3025   -1.5627 C   0  0  0  0  0  0  0  0  0  0  0  0
   -4.5935    0.3815   -2.1595 O   0  0  0  0  0  0  0  0  0  0  0  0
   -4.6728    2.5985   -1.8073 N   0  0  0  0  0  0  0  0  0  0  0  0
   -3.6469    2.7647   -2.8734 C   0  0  2  0  0  0  0  0  0  0  0  0
   -2.3424    2.2134   -2.5256 C   0  0  0  0  0  0  0  0  0  0  0  0
   -1.7829    1.4609   -3.3817 O   0  0  0  0  0  0  0  0  0  0  0  0
   -1.5442    2.3929   -1.3423 N   0  0  0  0  0  0  0  0  0  0  0  0
   -0.2685    1.7113   -1.1591 C   0  0  2  0  0  0  0  0  0  0  0  0
   -0.3719    0.8546    0.0485 C   0  0  0  0  0  0  0  0  0  0  0  0
   -1.3316    0.8269    0.8343 O   0  0  0  0  0  0  0  0  0  0  0  0
    0.6872   -0.0723    0.4384 N   0  0  0  0  0  0  0  0  0  0  0  0
    0.8822    2.6205   -1.1129 C   0  0  0  0  0  0  0  0  0  0  0  0
    1.0988    3.3629   -2.3778 C   0  0  0  0  0  0  0  0  0  0  0  0
    0.5010    3.1163   -3.4476 O   0  0  0  0  0  0  0  0  0  0  0  0
    2.0427    4.4437   -2.4404 N   0  0  0  0  0  0  0  0  0  0  0  0
   -3.6617    4.2080   -3.2840 C   0  0  0  0  0  0  0  0  0  0  0  0
   -2.6712    4.5611   -4.3260 C   0  0  0  0  0  0  0  0  0  0  0  0
   -2.8606    3.7952   -5.5731 C   0  0  0  0  0  0  0  0  0  0  0  0
   -3.7690    2.9744   -5.7941 O   0  0  0  0  0  0  0  0  0  0  0  0
   -1.9094    4.0259   -6.6139 N   0  0  0  0  0  0  0  0  0  0  0  0
   -6.6303    1.8275    0.4161 C   0  0  2  0  0  0  0  0  0  0  0  0
   -5.7079    1.7218    1.5843 C   0  0  0  0  0  0  0  0  0  0  0  0
   -4.2794    2.0207    1.2754 C   0  0  0  0  0  0  0  0  0  0  0  0
   -8.0802    1.6076    0.8623 C   0  0  0  0  0  0  0  0  0  0  0  0
   12.1913    2.7988   -1.7025 H   0  0  0  0  0  0  0  0  0  0  0  0
   10.7063    3.2681   -0.7429 H   0  0  0  0  0  0  0  0  0  0  0  0
   11.5549    1.7366   -0.3850 H   0  0  0  0  0  0  0  0  0  0  0  0
   10.9843    1.5361   -3.1670 H   0  0  0  0  0  0  0  0  0  0  0  0
    9.5684    2.4381   -2.5500 H   0  0  0  0  0  0  0  0  0  0  0  0
    9.2926    0.7331   -0.8460 H   0  0  0  0  0  0  0  0  0  0  0  0
    8.9357   -1.2395   -2.4537 H   0  0  0  0  0  0  0  0  0  0  0  0
    9.6202   -0.1430   -3.6537 H   0  0  0  0  0  0  0  0  0  0  0  0
    7.9987    1.4811   -3.4697 H   0  0  0  0  0  0  0  0  0  0  0  0
    7.1242   -0.0408   -3.6720 H   0  0  0  0  0  0  0  0  0  0  0  0
    7.4470    1.5997   -1.0850 H   0  0  0  0  0  0  0  0  0  0  0  0
    6.0363    1.5278   -2.1488 H   0  0  0  0  0  0  0  0  0  0  0  0
    5.4330   -0.7380   -1.3925 H   0  0  0  0  0  0  0  0  0  0  0  0
    6.6366   -0.2057    1.8664 H   0  0  0  0  0  0  0  0  0  0  0  0
    7.3689   -2.9977    1.9524 H   0  0  0  0  0  0  0  0  0  0  0  0
    7.7577   -1.7530    3.2378 H   0  0  0  0  0  0  0  0  0  0  0  0
   10.2441   -0.3640    1.0327 H   0  0  0  0  0  0  0  0  0  0  0  0
   10.3365   -1.8284   -0.0191 H   0  0  0  0  0  0  0  0  0  0  0  0
    5.7923    1.5766    0.4416 H   0  0  0  0  0  0  0  0  0  0  0  0
    2.8251    1.3382    1.2578 H   0  0  0  0  0  0  0  0  0  0  0  0
    3.6316    2.4371    3.0356 H   0  0  0  0  0  0  0  0  0  0  0  0
    5.2008    2.0029    2.3705 H   0  0  0  0  0  0  0  0  0  0  0  0
    5.5471    0.5594    4.1025 H   0  0  0  0  0  0  0  0  0  0  0  0
    3.9848    1.1450    4.8656 H   0  0  0  0  0  0  0  0  0  0  0  0
    4.5842   -1.3627    3.2753 H   0  0  0  0  0  0  0  0  0  0  0  0
    3.3055   -1.0085    4.5488 H   0  0  0  0  0  0  0  0  0  0  0  0
   -0.4080   -0.6839    2.1360 H   0  0  0  0  0  0  0  0  0  0  0  0
    1.1464   -2.5432    0.2752 H   0  0  0  0  0  0  0  0  0  0  0  0
   -0.5787   -2.1200    0.1828 H   0  0  0  0  0  0  0  0  0  0  0  0
   -3.0191   -5.1031    2.0822 H   0  0  0  0  0  0  0  0  0  0  0  0
   -4.0054   -4.0646    3.2058 H   0  0  0  0  0  0  0  0  0  0  0  0
   -2.6908   -3.0259    0.6580 H   0  0  0  0  0  0  0  0  0  0  0  0
   -3.8013   -1.9142    3.0039 H   0  0  0  0  0  0  0  0  0  0  0  0
   -2.9643   -1.1445    1.7763 H   0  0  0  0  0  0  0  0  0  0  0  0
   -5.9019   -2.0817    1.5918 H   0  0  0  0  0  0  0  0  0  0  0  0
   -7.1063   -3.5567   -0.7682 H   0  0  0  0  0  0  0  0  0  0  0  0
   -8.4597   -2.2441    1.6453 H   0  0  0  0  0  0  0  0  0  0  0  0
   -9.2828   -3.2177    0.3353 H   0  0  0  0  0  0  0  0  0  0  0  0
   -9.0672   -5.7011    0.2962 H   0  0  0  0  0  0  0  0  0  0  0  0
   -8.5886   -7.6854    1.7409 H   0  0  0  0  0  0  0  0  0  0  0  0
   -7.3996   -7.4497    3.8833 H   0  0  0  0  0  0  0  0  0  0  0  0
   -6.6889   -5.2500    4.6470 H   0  0  0  0  0  0  0  0  0  0  0  0
   -7.1516   -3.3121    3.2464 H   0  0  0  0  0  0  0  0  0  0  0  0
   -5.5167   -0.7863    0.1461 H   0  0  0  0  0  0  0  0  0  0  0  0
   -7.3050    1.0784   -1.3979 H   0  0  0  0  0  0  0  0  0  0  0  0
   -5.0132    3.3459   -1.2249 H   0  0  0  0  0  0  0  0  0  0  0  0
   -4.0538    2.1141   -3.6977 H   0  0  0  0  0  0  0  0  0  0  0  0
   -1.9491    3.0421   -0.6637 H   0  0  0  0  0  0  0  0  0  0  0  0
   -0.1166    0.9960   -2.0441 H   0  0  0  0  0  0  0  0  0  0  0  0
    1.4985   -0.0246   -0.1831 H   0  0  0  0  0  0  0  0  0  0  0  0
    1.8268    2.0336   -0.9037 H   0  0  0  0  0  0  0  0  0  0  0  0
    0.7795    3.3955   -0.3049 H   0  0  0  0  0  0  0  0  0  0  0  0
    3.0576    4.1613   -2.4601 H   0  0  0  0  0  0  0  0  0  0  0  0
    1.7433    5.4548   -2.4722 H   0  0  0  0  0  0  0  0  0  0  0  0
   -3.4655    4.8592   -2.3736 H   0  0  0  0  0  0  0  0  0  0  0  0
   -4.6744    4.4963   -3.6310 H   0  0  0  0  0  0  0  0  0  0  0  0
   -2.8699    5.6444   -4.6364 H   0  0  0  0  0  0  0  0  0  0  0  0
   -1.6412    4.5289   -3.9376 H   0  0  0  0  0  0  0  0  0  0  0  0
   -1.2192    4.8280   -6.5929 H   0  0  0  0  0  0  0  0  0  0  0  0
   -1.8413    3.3973   -7.4639 H   0  0  0  0  0  0  0  0  0  0  0  0
   -6.5727    2.8800    0.0487 H   0  0  0  0  0  0  0  0  0  0  0  0
   -6.0925    2.3962    2.3662 H   0  0  0  0  0  0  0  0  0  0  0  0
   -5.8135    0.6802    1.9993 H   0  0  0  0  0  0  0  0  0  0  0  0
   -3.6572    1.8277    2.1892 H   0  0  0  0  0  0  0  0  0  0  0  0
   -3.9071    1.3447    0.4525 H   0  0  0  0  0  0  0  0  0  0  0  0
   -4.1199    3.0554    0.9548 H   0  0  0  0  0  0  0  0  0  0  0  0
   -8.1350    0.6259    1.3775 H   0  0  0  0  0  0  0  0  0  0  0  0
   -8.4526    2.3901    1.5273 H   0  0  0  0  0  0  0  0  0  0  0  0
   -8.7104    1.5246   -0.0381 H   0  0  0  0  0  0  0  0  0  0  0  0
  1  2  1  0
  2  3  1  0
  3  4  1  0
  4  5  1  0
  5  6  1  0
  6  7  1  0
  7  8  1  0
  8  9  2  0
  8 10  1  0
 10 11  1  0
 11 12  1  0
 12 13  2  0
 12 14  1  0
  7 15  1  0
 15 16  1  0
 16 17  2  0
 16 18  1  0
 18 19  1  0
 19 20  1  0
 20 21  1  0
 21 22  1  0
 22 23  1  0
 23 24  2  0
 23 25  1  0
 25 26  1  0
 26 27  1  0
 27 28  1  0
 28 29  1  0
 29 30  1  0
 30 31  1  0
 30 32  1  0
 32 33  2  0
 32 34  1  0
 34 35  1  0
 35 36  1  0
 36 37  1  0
 37 38  2  0
 38 39  1  0
 39 40  2  0
 40 41  1  0
 41 42  2  0
 35 43  1  0
 43 44  2  0
 43 45  1  0
 45 46  1  0
 46 47  1  0
 47 48  2  0
 47 49  1  0
 49 50  1  0
 50 51  1  0
 51 52  2  0
 51 53  1  0
 53 54  1  0
 54 55  1  0
 55 56  2  0
 55 57  1  0
 54 58  1  0
 58 59  1  0
 59 60  2  0
 59 61  1  0
 50 62  1  0
 62 63  1  0
 63 64  1  0
 64 65  2  0
 64 66  1  0
 46 67  1  0
 67 68  1  0
 68 69  1  0
 67 70  1  0
 22 18  1  0
 57 25  1  0
 42 37  1  0
  1 71  1  0
  1 72  1  0
  1 73  1  0
  2 74  1  0
  2 75  1  0
  3 76  1  0
  4 77  1  0
  4 78  1  0
  5 79  1  0
  5 80  1  0
  6 81  1  0
  6 82  1  0
  7 83  1  6
 10 84  1  0
 11 85  1  0
 11 86  1  0
 14 87  1  0
 14 88  1  0
 15 89  1  0
 18 90  1  6
 19 91  1  0
 19 92  1  0
 20 93  1  0
 20 94  1  0
 21 95  1  0
 21 96  1  0
 25 97  1  1
 26 98  1  0
 26 99  1  0
 29100  1  0
 29101  1  0
 30102  1  6
 31103  1  0
 31104  1  0
 34105  1  0
 35106  1  6
 36107  1  0
 36108  1  0
 38109  1  0
 39110  1  0
 40111  1  0
 41112  1  0
 42113  1  0
 45114  1  0
 46115  1  6
 49116  1  0
 50117  1  6
 53118  1  0
 54119  1  6
 57120  1  0
 58121  1  0
 58122  1  0
 61123  1  0
 61124  1  0
 62125  1  0
 62126  1  0
 63127  1  0
 63128  1  0
 66129  1  0
 66130  1  0
 67131  1  6
 68132  1  0
 68133  1  0
 69134  1  0
 69135  1  0
 69136  1  0
 70137  1  0
 70138  1  0
 70139  1  0
M  END
>  <Ligand ID>  (1) 
LIG0000925

>  <Ligand>  (1) 
CHEMBL1817707

>  <SMILES>  (1) 
CCNCCC[C@@H](C(=O)NCC(=O)N)NC(=O)[C@@H]1CCCN1C(=O)[C@@H]1CSSC[C@H](N)C(=O)N[C@@H](Cc2ccccc2)C(=O)N[C@H](C(=O)N[C@H](C(=O)N[C@H](C(=O)N1)CC(=O)N)CCC(=O)N)[C@H](CC)C

>  <CID>  (1) 
53362488.0

>  <ChEMBL ID>  (1) 
nan

>  <InChiKey>  (1) 
MXQWACZUXKWGJY-PFCVTPPASA-N

>  <InChi>  (1) 
InChI=1S/C44H69N13O11S2/c1-4-24(3)36-43(67)52-28(15-16-33(46)58)39(63)54-30(20-34(47)59)40(64)55-31(23-70-69-22-26(45)37(61)53-29(41(65)56-36)19-25-11-7-6-8-12-25)44(68)57-18-10-14-32(57)42(66)51-27(13-9-17-49-5-2)38(62)50-21-35(48)60/h6-8,11-12,24,26-32,36,49H,4-5,9-10,13-23,45H2,1-3H3,(H2,46,58)(H2,47,59)(H2,48,60)(H,50,62)(H,51,66)(H,52,67)(H,53,61)(H,54,63)(H,55,64)(H,56,65)/t24-,26-,27-,28-,29-,30-,31-,32-,36-/m0/s1

>  <IUPAC Name>  (1) 
(2S)-1-[(4R,7S,10S,13S,16S,19R)-19-amino-7-(2-amino-2-oxoethyl)-10-(3-amino-3-oxopropyl)-16-benzyl-13-[(2S)-butan-2-yl]-6,9,12,15,18-pentaoxo-1,2-dithia-5,8,11,14,17-pentazacycloicosane-4-carbonyl]-N-[(2S)-1-[(2-amino-2-oxoethyl)amino]-5-(ethylamino)-1-oxopentan-2-yl]pyrrolidine-2-carboxamide

$$$$
