
     RDKit          3D

 46 51  0  0  0  0  0  0  0  0999 V2000
    5.6259    0.3506    1.5101 N   0  0  0  0  0  0  0  0  0  0  0  0
    4.4461   -0.2442    0.9751 C   0  0  0  0  0  0  0  0  0  0  0  0
    4.2546   -1.5754    0.9441 N   0  0  0  0  0  0  0  0  0  0  0  0
    3.1124   -2.0560    0.4220 C   0  0  0  0  0  0  0  0  0  0  0  0
    2.1363   -1.2201   -0.0807 C   0  0  0  0  0  0  0  0  0  0  0  0
    2.3522    0.1718   -0.0413 C   0  0  0  0  0  0  0  0  0  0  0  0
    3.5121    0.6204    0.4909 N   0  0  0  0  0  0  0  0  0  0  0  0
    1.3136    1.0152   -0.5842 C   0  0  0  0  0  0  0  0  0  0  0  0
    1.0187    2.2664   -0.0589 O   0  0  0  0  0  0  0  0  0  0  0  0
   -0.2815    2.5341   -0.4862 C   0  0  0  0  0  0  0  0  0  0  0  0
   -0.8941    1.3042   -0.5480 C   0  0  0  0  0  0  0  0  0  0  0  0
    0.0654    0.2609   -0.1332 C   0  0  0  0  0  0  0  0  0  0  0  0
   -0.1841   -0.9329   -1.0095 C   0  0  0  0  0  0  0  0  0  0  0  0
    0.9175   -1.8352   -0.6218 C   0  0  0  0  0  0  0  0  0  0  0  0
   -0.1189   -0.4942   -2.3284 O   0  0  0  0  0  0  0  0  0  0  0  0
   -1.5810   -1.3446   -0.6147 C   0  0  0  0  0  0  0  0  0  0  0  0
   -2.6474   -0.3439   -0.9128 C   0  0  0  0  0  0  0  0  0  0  0  0
   -2.1687    1.0587   -0.9148 C   0  0  0  0  0  0  0  0  0  0  0  0
   -2.9487    2.1453   -1.2665 C   0  0  0  0  0  0  0  0  0  0  0  0
   -2.3924    3.4388   -1.2283 C   0  0  0  0  0  0  0  0  0  0  0  0
   -1.0528    3.6167   -0.8346 C   0  0  0  0  0  0  0  0  0  0  0  0
   -0.4636    4.8644   -0.7815 O   0  0  0  0  0  0  0  0  0  0  0  0
   -1.5320   -1.8238    0.7317 N   0  0  0  0  0  0  0  0  0  0  0  0
   -1.2762   -0.7461    1.6328 C   0  0  0  0  0  0  0  0  0  0  0  0
   -0.0018    0.0021    1.3259 C   0  0  0  0  0  0  0  0  0  0  0  0
   -2.6111   -2.6493    1.1502 C   0  0  0  0  0  0  0  0  0  0  0  0
    5.6014    0.8817    2.4235 H   0  0  0  0  0  0  0  0  0  0  0  0
    6.5358    0.2592    0.9866 H   0  0  0  0  0  0  0  0  0  0  0  0
    2.9869   -3.1392    0.4112 H   0  0  0  0  0  0  0  0  0  0  0  0
    1.2865    1.0187   -1.7043 H   0  0  0  0  0  0  0  0  0  0  0  0
    1.1547   -2.4634   -1.5288 H   0  0  0  0  0  0  0  0  0  0  0  0
    0.5355   -2.5661    0.1253 H   0  0  0  0  0  0  0  0  0  0  0  0
   -0.0022   -1.3087   -2.8996 H   0  0  0  0  0  0  0  0  0  0  0  0
   -1.8231   -2.2428   -1.2693 H   0  0  0  0  0  0  0  0  0  0  0  0
   -3.4281   -0.4219   -0.1271 H   0  0  0  0  0  0  0  0  0  0  0  0
   -3.1429   -0.5523   -1.8800 H   0  0  0  0  0  0  0  0  0  0  0  0
   -3.9740    1.9803   -1.5650 H   0  0  0  0  0  0  0  0  0  0  0  0
   -2.9903    4.2989   -1.5006 H   0  0  0  0  0  0  0  0  0  0  0  0
   -0.0864    5.2736    0.0605 H   0  0  0  0  0  0  0  0  0  0  0  0
   -2.1590   -0.0907    1.6544 H   0  0  0  0  0  0  0  0  0  0  0  0
   -1.1682   -1.1840    2.6536 H   0  0  0  0  0  0  0  0  0  0  0  0
   -0.1469    1.0157    1.8122 H   0  0  0  0  0  0  0  0  0  0  0  0
    0.8741   -0.4170    1.7954 H   0  0  0  0  0  0  0  0  0  0  0  0
   -2.3170   -3.7160    1.0331 H   0  0  0  0  0  0  0  0  0  0  0  0
   -2.8026   -2.4980    2.2369 H   0  0  0  0  0  0  0  0  0  0  0  0
   -3.5347   -2.5123    0.5449 H   0  0  0  0  0  0  0  0  0  0  0  0
  1  2  1  0
  2  3  2  0
  3  4  1  0
  4  5  2  0
  5  6  1  0
  6  7  2  0
  6  8  1  0
  8  9  1  0
  9 10  1  0
 10 11  2  0
 11 12  1  0
 12 13  1  0
 13 14  1  0
 13 15  1  0
 13 16  1  0
 16 17  1  0
 17 18  1  0
 18 19  2  0
 19 20  1  0
 20 21  2  0
 21 22  1  0
 16 23  1  0
 23 24  1  0
 24 25  1  0
 23 26  1  0
  7  2  1  0
 12  8  1  0
 14  5  1  0
 21 10  1  0
 18 11  1  0
 25 12  1  0
  1 27  1  0
  1 28  1  0
  4 29  1  0
  8 30  1  0
 14 31  1  0
 14 32  1  0
 15 33  1  0
 16 34  1  0
 17 35  1  0
 17 36  1  0
 19 37  1  0
 20 38  1  0
 22 39  1  0
 24 40  1  0
 24 41  1  0
 25 42  1  0
 25 43  1  0
 26 44  1  0
 26 45  1  0
 26 46  1  0
M  END
>  <Ligand ID>  (1) 
LIG0004630

>  <Ligand>  (1) 
CHEMBL332947

>  <SMILES>  (1) 
Nc1ncc2c(n1)C1Oc3c4C51C(C2)(O)C(Cc4ccc3O)N(CC5)C

>  <CID>  (1) 
44341920.0

>  <ChEMBL ID>  (1) 
nan

>  <InChiKey>  (1) 
KTEOARIYVZXCNX-UHFFFAOYSA-N

>  <InChi>  (1) 
InChI=1S/C19H20N4O3/c1-23-5-4-18-13-9-2-3-11(24)15(13)26-16(18)14-10(8-21-17(20)22-14)7-19(18,25)12(23)6-9/h2-3,8,12,16,24-25H,4-7H2,1H3,(H2,20,21,22)

>  <IUPAC Name>  (1) 
7-amino-19-methyl-11-oxa-6,8,19-triazahexacyclo[10.9.1.01,10.02,18.04,9.016,22]docosa-4,6,8,12,14,16(22)-hexaene-2,13-diol

$$$$
