
     RDKit          3D

 56 58  0  0  0  0  0  0  0  0999 V2000
   -0.9070   -2.2886    0.4754 O   0  0  0  0  0  0  0  0  0  0  0  0
   -1.6238   -1.4491    1.2916 C   0  0  0  0  0  0  0  0  0  0  0  0
   -0.8798   -1.0672    2.5480 C   0  0  0  0  0  0  0  0  0  0  0  0
    0.3728   -0.3815    2.2920 N   0  0  0  0  0  0  0  0  0  0  0  0
    1.5677   -0.9978    2.1327 C   0  0  0  0  0  0  0  0  0  0  0  0
    1.7267   -2.2592    2.1907 N   0  0  0  0  0  0  0  0  0  0  0  0
    2.5350   -0.0734    1.9098 N   0  0  0  0  0  0  0  0  0  0  0  0
    1.9089    1.1394    1.9349 C   0  0  0  0  0  0  0  0  0  0  0  0
    0.5641    0.9448    2.1728 C   0  0  0  0  0  0  0  0  0  0  0  0
   -0.2878    2.0271    2.2456 C   0  0  0  0  0  0  0  0  0  0  0  0
    0.1459    3.3333    2.0885 C   0  0  0  0  0  0  0  0  0  0  0  0
    1.4755    3.5282    1.8531 C   0  0  0  0  0  0  0  0  0  0  0  0
    2.3292    2.4439    1.7802 C   0  0  0  0  0  0  0  0  0  0  0  0
    3.9526   -0.2787    1.6841 C   0  0  0  0  0  0  0  0  0  0  0  0
    4.3047   -0.4478    0.2553 C   0  0  0  0  0  0  0  0  0  0  0  0
    4.6289    0.6405   -0.5537 C   0  0  0  0  0  0  0  0  0  0  0  0
    4.9591    0.4963   -1.8852 C   0  0  0  0  0  0  0  0  0  0  0  0
    4.9838   -0.7360   -2.4786 C   0  0  0  0  0  0  0  0  0  0  0  0
    4.6682   -1.8337   -1.7061 C   0  0  0  0  0  0  0  0  0  0  0  0
    4.3388   -1.6827   -0.3754 C   0  0  0  0  0  0  0  0  0  0  0  0
   -2.1779   -0.2574    0.5408 C   0  0  0  0  0  0  0  0  0  0  0  0
   -3.0235   -0.7998   -0.4749 O   0  0  0  0  0  0  0  0  0  0  0  0
   -3.7239   -0.0388   -1.3828 C   0  0  0  0  0  0  0  0  0  0  0  0
   -3.7001    1.3381   -1.4289 C   0  0  0  0  0  0  0  0  0  0  0  0
   -4.4158    2.0502   -2.3530 C   0  0  0  0  0  0  0  0  0  0  0  0
   -5.1793    1.3547   -3.2590 C   0  0  0  0  0  0  0  0  0  0  0  0
   -5.2401   -0.0346   -3.2579 C   0  0  0  0  0  0  0  0  0  0  0  0
   -4.5055   -0.7299   -2.3114 C   0  0  0  0  0  0  0  0  0  0  0  0
   -4.5811   -2.2146   -2.3234 C   0  0  0  0  0  0  0  0  0  0  0  0
    0.6844    0.0000    0.0000 Cl  0  0  0  0  0  0  0  0  0  0  0  0
   -1.0400   -3.2606    0.6551 H   0  0  0  0  0  0  0  0  0  0  0  0
   -2.5174   -2.0233    1.6250 H   0  0  0  0  0  0  0  0  0  0  0  0
   -0.7631   -1.9646    3.1884 H   0  0  0  0  0  0  0  0  0  0  0  0
   -1.5906   -0.4057    3.1250 H   0  0  0  0  0  0  0  0  0  0  0  0
    2.6550   -2.7137    2.0655 H   0  0  0  0  0  0  0  0  0  0  0  0
   -1.3444    1.8995    2.4320 H   0  0  0  0  0  0  0  0  0  0  0  0
   -0.5165    4.1867    2.1443 H   0  0  0  0  0  0  0  0  0  0  0  0
    1.8482    4.5434    1.7251 H   0  0  0  0  0  0  0  0  0  0  0  0
    3.3680    2.6662    1.5932 H   0  0  0  0  0  0  0  0  0  0  0  0
    4.5028    0.5865    2.1381 H   0  0  0  0  0  0  0  0  0  0  0  0
    4.3206   -1.1592    2.2887 H   0  0  0  0  0  0  0  0  0  0  0  0
    4.6333    1.6471   -0.1608 H   0  0  0  0  0  0  0  0  0  0  0  0
    5.2102    1.3662   -2.5008 H   0  0  0  0  0  0  0  0  0  0  0  0
    5.2480   -0.8045   -3.5250 H   0  0  0  0  0  0  0  0  0  0  0  0
    4.6782   -2.8390   -2.1513 H   0  0  0  0  0  0  0  0  0  0  0  0
    4.1042   -2.5749    0.1718 H   0  0  0  0  0  0  0  0  0  0  0  0
   -2.7589    0.4039    1.2129 H   0  0  0  0  0  0  0  0  0  0  0  0
   -1.3378    0.2609    0.0589 H   0  0  0  0  0  0  0  0  0  0  0  0
   -3.0853    1.8533   -0.6969 H   0  0  0  0  0  0  0  0  0  0  0  0
   -4.3809    3.1465   -2.3700 H   0  0  0  0  0  0  0  0  0  0  0  0
   -5.7661    1.8804   -4.0134 H   0  0  0  0  0  0  0  0  0  0  0  0
   -5.8407   -0.5757   -3.9709 H   0  0  0  0  0  0  0  0  0  0  0  0
   -3.9033   -2.6407   -1.5536 H   0  0  0  0  0  0  0  0  0  0  0  0
   -5.5976   -2.5735   -2.0638 H   0  0  0  0  0  0  0  0  0  0  0  0
   -4.3423   -2.6310   -3.3393 H   0  0  0  0  0  0  0  0  0  0  0  0
   -0.6844    0.0000    0.0000 H   0  0  0  0  0  0  0  0  0  0  0  0
  1  2  1  0
  2  3  1  0
  3  4  1  0
  4  5  1  0
  5  6  2  3
  5  7  1  0
  7  8  1  0
  8  9  2  0
  9 10  1  0
 10 11  2  0
 11 12  1  0
 12 13  2  0
  7 14  1  0
 14 15  1  0
 15 16  2  0
 16 17  1  0
 17 18  2  0
 18 19  1  0
 19 20  2  0
  2 21  1  0
 21 22  1  0
 22 23  1  0
 23 24  2  0
 24 25  1  0
 25 26  2  0
 26 27  1  0
 27 28  2  0
 28 29  1  0
  9  4  1  0
 20 15  1  0
 28 23  1  0
 13  8  1  0
  1 31  1  0
  2 32  1  0
  3 33  1  0
  3 34  1  0
  6 35  1  0
 10 36  1  0
 11 37  1  0
 12 38  1  0
 13 39  1  0
 14 40  1  0
 14 41  1  0
 16 42  1  0
 17 43  1  0
 18 44  1  0
 19 45  1  0
 20 46  1  0
 21 47  1  0
 21 48  1  0
 24 49  1  0
 25 50  1  0
 26 51  1  0
 27 52  1  0
 29 53  1  0
 29 54  1  0
 29 55  1  0
 30 56  1  0
M  END
>  <Ligand ID>  (1) 
LIG0003880

>  <Ligand>  (1) 
MLS000624998

>  <SMILES>  (1) 
OC(Cn1c(=N)n(c2c1cccc2)Cc1ccccc1)COc1ccccc1C.Cl

>  <CID>  (1) 
2952312.0

>  <ChEMBL ID>  (1) 
nan

>  <InChiKey>  (1) 
NVGLFFKESCSIFK-UHFFFAOYSA-N

>  <InChi>  (1) 
InChI=1S/C24H25N3O2.ClH/c1-18-9-5-8-14-23(18)29-17-20(28)16-27-22-13-7-6-12-21(22)26(24(27)25)15-19-10-3-2-4-11-19;/h2-14,20,25,28H,15-17H2,1H3;1H

>  <IUPAC Name>  (1) 
1-(3-benzyl-2-iminobenzimidazol-1-yl)-3-(2-methylphenoxy)propan-2-ol;hydrochloride

$$$$
