
     RDKit          3D

 15 14  0  0  0  0  0  0  0  0999 V2000
   -1.7608    0.1260   -0.1852 C   0  0  0  0  0  0  0  0  0  0  0  0
   -0.5326   -0.6454   -0.6107 C   0  0  0  0  0  0  0  0  0  0  0  0
    0.6404   -0.4244    0.2969 C   0  0  1  0  0  0  0  0  0  0  0  0
    1.7297   -1.1662   -0.1595 O   0  0  0  0  0  0  0  0  0  0  0  0
    1.0591    1.0370    0.2243 C   0  0  0  0  0  0  0  0  0  0  0  0
   -1.5697    0.8215    0.6599 H   0  0  0  0  0  0  0  0  0  0  0  0
   -2.2131    0.7009   -1.0397 H   0  0  0  0  0  0  0  0  0  0  0  0
   -2.5470   -0.5978    0.1560 H   0  0  0  0  0  0  0  0  0  0  0  0
   -0.7771   -1.7281   -0.6646 H   0  0  0  0  0  0  0  0  0  0  0  0
   -0.2554   -0.2529   -1.6246 H   0  0  0  0  0  0  0  0  0  0  0  0
    0.3763   -0.6963    1.3181 H   0  0  0  0  0  0  0  0  0  0  0  0
    2.3568   -1.2987    0.6079 H   0  0  0  0  0  0  0  0  0  0  0  0
    1.4912    1.3269    1.2004 H   0  0  0  0  0  0  0  0  0  0  0  0
    1.8374    1.1879   -0.5678 H   0  0  0  0  0  0  0  0  0  0  0  0
    0.1649    1.6097   -0.0695 H   0  0  0  0  0  0  0  0  0  0  0  0
  1  2  1  0
  2  3  1  0
  3  4  1  0
  3  5  1  0
  1  6  1  0
  1  7  1  0
  1  8  1  0
  2  9  1  0
  2 10  1  0
  3 11  1  1
  4 12  1  0
  5 13  1  0
  5 14  1  0
  5 15  1  0
M  END
>  <Ligand ID>  (1) 
LIG0004998

>  <Ligand>  (1) 
(S)-(+)-2-butanol

>  <SMILES>  (1) 
CC[C@@H](O)C

>  <CID>  (1) 
444683.0

>  <ChEMBL ID>  (1) 
nan

>  <InChiKey>  (1) 
BTANRVKWQNVYAZ-BYPYZUCNSA-N

>  <InChi>  (1) 
InChI=1S/C4H10O/c1-3-4(2)5/h4-5H,3H2,1-2H3/t4-/m0/s1

>  <IUPAC Name>  (1) 
(2S)-butan-2-ol

$$$$
