
     RDKit          3D

 43 44  0  0  0  0  0  0  0  0999 V2000
   -0.2974    2.8712   -0.3659 C   0  0  0  0  0  0  0  0  0  0  0  0
   -1.0133    1.5361   -0.2909 C   0  0  2  0  0  0  0  0  0  0  0  0
   -2.4814    1.8789   -0.1106 C   0  0  0  0  0  0  0  0  0  0  0  0
   -3.3521    0.6769   -0.0161 C   0  0  0  0  0  0  0  0  0  0  0  0
   -3.9111    0.1098   -1.1395 C   0  0  0  0  0  0  0  0  0  0  0  0
   -4.7133   -1.0036   -1.0040 C   0  0  0  0  0  0  0  0  0  0  0  0
   -4.9772   -1.5763    0.2461 C   0  0  0  0  0  0  0  0  0  0  0  0
   -4.4165   -1.0054    1.3604 C   0  0  0  0  0  0  0  0  0  0  0  0
   -3.6041    0.1186    1.2429 C   0  0  0  0  0  0  0  0  0  0  0  0
   -5.7910   -2.6977    0.3375 O   0  0  0  0  0  0  0  0  0  0  0  0
   -0.6045    0.7544    0.8501 N   0  0  0  0  0  0  0  0  0  0  0  0
    0.8036    0.4617    0.8572 C   0  0  0  0  0  0  0  0  0  0  0  0
    1.2173   -0.4762   -0.2449 C   0  0  1  0  0  0  0  0  0  0  0  0
    2.6942   -0.6135   -0.1810 C   0  0  0  0  0  0  0  0  0  0  0  0
    3.5152    0.0268   -1.0754 C   0  0  0  0  0  0  0  0  0  0  0  0
    4.8877   -0.0609   -1.0667 C   0  0  0  0  0  0  0  0  0  0  0  0
    5.6271    0.6429   -2.0367 O   0  0  0  0  0  0  0  0  0  0  0  0
    5.4958   -0.8363   -0.1064 C   0  0  0  0  0  0  0  0  0  0  0  0
    4.6945   -1.4903    0.8041 C   0  0  0  0  0  0  0  0  0  0  0  0
    3.3111   -1.4001    0.7929 C   0  0  0  0  0  0  0  0  0  0  0  0
    5.3392   -2.2651    1.7608 O   0  0  0  0  0  0  0  0  0  0  0  0
    0.5417   -1.6651   -0.1057 O   0  0  0  0  0  0  0  0  0  0  0  0
   -0.5982    3.5066    0.4933 H   0  0  0  0  0  0  0  0  0  0  0  0
    0.7889    2.8076   -0.3726 H   0  0  0  0  0  0  0  0  0  0  0  0
   -0.6171    3.3585   -1.3275 H   0  0  0  0  0  0  0  0  0  0  0  0
   -0.9185    0.9751   -1.2335 H   0  0  0  0  0  0  0  0  0  0  0  0
   -2.8381    2.4912   -0.9902 H   0  0  0  0  0  0  0  0  0  0  0  0
   -2.6090    2.5433    0.7671 H   0  0  0  0  0  0  0  0  0  0  0  0
   -3.7234    0.5294   -2.1001 H   0  0  0  0  0  0  0  0  0  0  0  0
   -5.1818   -1.4913   -1.8693 H   0  0  0  0  0  0  0  0  0  0  0  0
   -4.6232   -1.4553    2.3434 H   0  0  0  0  0  0  0  0  0  0  0  0
   -3.1662    0.5602    2.1398 H   0  0  0  0  0  0  0  0  0  0  0  0
   -6.7745   -2.6893    0.1108 H   0  0  0  0  0  0  0  0  0  0  0  0
   -1.0889   -0.1804    0.7291 H   0  0  0  0  0  0  0  0  0  0  0  0
    1.4696    1.3261    0.8487 H   0  0  0  0  0  0  0  0  0  0  0  0
    0.9933   -0.0417    1.8504 H   0  0  0  0  0  0  0  0  0  0  0  0
    0.9690    0.0096   -1.2222 H   0  0  0  0  0  0  0  0  0  0  0  0
    3.0450    0.6359   -1.8299 H   0  0  0  0  0  0  0  0  0  0  0  0
    5.9020    1.6107   -1.8636 H   0  0  0  0  0  0  0  0  0  0  0  0
    6.5661   -0.8925   -0.1162 H   0  0  0  0  0  0  0  0  0  0  0  0
    2.7222   -1.9288    1.5245 H   0  0  0  0  0  0  0  0  0  0  0  0
    5.6049   -3.2316    1.5469 H   0  0  0  0  0  0  0  0  0  0  0  0
    1.1125   -2.4296    0.1183 H   0  0  0  0  0  0  0  0  0  0  0  0
  1  2  1  0
  2  3  1  0
  3  4  1  0
  4  5  2  0
  5  6  1  0
  6  7  2  0
  7  8  1  0
  8  9  2  0
  7 10  1  0
  2 11  1  0
 11 12  1  0
 12 13  1  0
 13 14  1  0
 14 15  2  0
 15 16  1  0
 16 17  1  0
 16 18  2  0
 18 19  1  0
 19 20  2  0
 19 21  1  0
 13 22  1  0
  9  4  1  0
 20 14  1  0
  1 23  1  0
  1 24  1  0
  1 25  1  0
  2 26  1  6
  3 27  1  0
  3 28  1  0
  5 29  1  0
  6 30  1  0
  8 31  1  0
  9 32  1  0
 10 33  1  0
 11 34  1  0
 12 35  1  0
 12 36  1  0
 13 37  1  6
 15 38  1  0
 17 39  1  0
 18 40  1  0
 20 41  1  0
 21 42  1  0
 22 43  1  0
M  END
>  <Ligand ID>  (1) 
LIG0005458

>  <Ligand>  (1) 
UNII-5Z64M7W0JM

>  <SMILES>  (1) 
C[C@H](Cc1ccc(cc1)O)NC[C@@H](c1cc(O)cc(c1)O)O

>  <CID>  (1) 
688468.0

>  <ChEMBL ID>  (1) 
nan

>  <InChiKey>  (1) 
LSLYOANBFKQKPT-DIFFPNOSSA-N

>  <InChi>  (1) 
InChI=1S/C17H21NO4/c1-11(6-12-2-4-14(19)5-3-12)18-10-17(22)13-7-15(20)9-16(21)8-13/h2-5,7-9,11,17-22H,6,10H2,1H3/t11-,17+/m1/s1

>  <IUPAC Name>  (1) 
5-[(1R)-1-hydroxy-2-[[(2R)-1-(4-hydroxyphenyl)propan-2-yl]amino]ethyl]benzene-1,3-diol

$$$$
