
     RDKit          3D

 65 69  0  0  0  0  0  0  0  0999 V2000
    6.5937    4.6915    0.8968 C   0  0  0  0  0  0  0  0  0  0  0  0
    5.3159    4.1149    0.6757 O   0  0  0  0  0  0  0  0  0  0  0  0
    5.2089    2.8920    0.0375 C   0  0  0  0  0  0  0  0  0  0  0  0
    6.3297    2.2114   -0.3938 C   0  0  0  0  0  0  0  0  0  0  0  0
    6.2693    0.9898   -1.0343 C   0  0  0  0  0  0  0  0  0  0  0  0
    5.0355    0.4037   -1.2638 C   0  0  0  0  0  0  0  0  0  0  0  0
    3.8783    1.0604   -0.8428 C   0  0  0  0  0  0  0  0  0  0  0  0
    3.9891    2.2736   -0.2100 C   0  0  0  0  0  0  0  0  0  0  0  0
    2.8642    2.9097    0.1983 F   0  0  0  0  0  0  0  0  0  0  0  0
    2.6226    0.3921   -1.1137 C   0  0  0  0  0  0  0  0  0  0  0  0
    1.6368    0.9038   -1.9330 C   0  0  0  0  0  0  0  0  0  0  0  0
    0.4858    0.1985   -2.1284 N   0  0  0  0  0  0  0  0  0  0  0  0
    0.2688   -0.9598   -1.5662 N   0  0  0  0  0  0  0  0  0  0  0  0
    1.2255   -1.4862   -0.7536 C   0  0  0  0  0  0  0  0  0  0  0  0
    1.0591   -2.6120   -0.1833 O   0  0  0  0  0  0  0  0  0  0  0  0
    2.4164   -0.8355   -0.5053 C   0  0  0  0  0  0  0  0  0  0  0  0
    3.4126   -1.4391    0.3696 C   0  0  0  0  0  0  0  0  0  0  0  0
    3.9171   -2.6750   -0.0506 C   0  0  0  0  0  0  0  0  0  0  0  0
    4.8661   -3.3542    0.6854 C   0  0  0  0  0  0  0  0  0  0  0  0
    5.3042   -2.7725    1.8561 C   0  0  0  0  0  0  0  0  0  0  0  0
    4.8109   -1.5380    2.2911 C   0  0  0  0  0  0  0  0  0  0  0  0
    3.8487   -0.8542    1.5400 C   0  0  0  0  0  0  0  0  0  0  0  0
   -0.9280   -1.7565   -1.7353 C   0  0  0  0  0  0  0  0  0  0  0  0
   -1.9016   -1.3255   -0.6433 C   0  0  0  0  0  0  0  0  0  0  0  0
   -3.1951   -2.1351   -0.7568 C   0  0  0  0  0  0  0  0  0  0  0  0
   -4.0215   -1.6848    0.4573 C   0  0  0  0  0  0  0  0  0  0  0  0
   -4.5003   -0.3106    0.0707 C   0  0  0  0  0  0  0  0  0  0  0  0
   -3.5664    0.5117   -0.5134 C   0  0  0  0  0  0  0  0  0  0  0  0
   -2.1616    0.1397   -0.7731 C   0  0  0  0  0  0  0  0  0  0  0  0
   -3.9726    1.7876   -0.8876 C   0  0  0  0  0  0  0  0  0  0  0  0
   -5.2777    2.1899   -0.6680 C   0  0  0  0  0  0  0  0  0  0  0  0
   -6.1818    1.3226   -0.0750 C   0  0  0  0  0  0  0  0  0  0  0  0
   -5.8102    0.0594    0.3040 C   0  0  0  0  0  0  0  0  0  0  0  0
   -6.6354   -0.8663    0.8975 O   0  0  0  0  0  0  0  0  0  0  0  0
   -7.9859   -0.6869    1.2094 C   0  0  0  0  0  0  0  0  0  0  0  0
   -8.8521   -0.4160    0.0568 C   0  0  0  0  0  0  0  0  0  0  0  0
  -10.0885   -0.2208    0.2828 O   0  0  0  0  0  0  0  0  0  0  0  0
   -8.4299   -0.3565   -1.2610 O   0  0  0  0  0  0  0  0  0  0  0  0
    6.5290    5.6689    1.3867 H   0  0  0  0  0  0  0  0  0  0  0  0
    7.2333    4.0489    1.5341 H   0  0  0  0  0  0  0  0  0  0  0  0
    7.1629    4.8310   -0.0559 H   0  0  0  0  0  0  0  0  0  0  0  0
    7.2955    2.6779   -0.2094 H   0  0  0  0  0  0  0  0  0  0  0  0
    7.1408    0.4492   -1.3756 H   0  0  0  0  0  0  0  0  0  0  0  0
    4.9929   -0.5604   -1.7695 H   0  0  0  0  0  0  0  0  0  0  0  0
    1.8012    1.8663   -2.4087 H   0  0  0  0  0  0  0  0  0  0  0  0
    3.5621   -3.1338   -0.9873 H   0  0  0  0  0  0  0  0  0  0  0  0
    5.2278   -4.3024    0.3269 H   0  0  0  0  0  0  0  0  0  0  0  0
    6.0540   -3.3163    2.4321 H   0  0  0  0  0  0  0  0  0  0  0  0
    5.1878   -1.1304    3.2114 H   0  0  0  0  0  0  0  0  0  0  0  0
    3.4527    0.0900    1.8463 H   0  0  0  0  0  0  0  0  0  0  0  0
   -1.4266   -1.5465   -2.7170 H   0  0  0  0  0  0  0  0  0  0  0  0
   -0.7074   -2.8386   -1.6541 H   0  0  0  0  0  0  0  0  0  0  0  0
   -1.4335   -1.6060    0.3220 H   0  0  0  0  0  0  0  0  0  0  0  0
   -3.7689   -1.8665   -1.6530 H   0  0  0  0  0  0  0  0  0  0  0  0
   -2.9770   -3.1981   -0.6433 H   0  0  0  0  0  0  0  0  0  0  0  0
   -4.8456   -2.3957    0.5937 H   0  0  0  0  0  0  0  0  0  0  0  0
   -3.3742   -1.6577    1.3355 H   0  0  0  0  0  0  0  0  0  0  0  0
   -1.5324    0.6688   -0.0080 H   0  0  0  0  0  0  0  0  0  0  0  0
   -1.8418    0.5123   -1.7860 H   0  0  0  0  0  0  0  0  0  0  0  0
   -3.2988    2.5005   -1.3551 H   0  0  0  0  0  0  0  0  0  0  0  0
   -5.6369    3.1664   -0.9404 H   0  0  0  0  0  0  0  0  0  0  0  0
   -7.1890    1.6552    0.0911 H   0  0  0  0  0  0  0  0  0  0  0  0
   -8.3956   -1.5919    1.7115 H   0  0  0  0  0  0  0  0  0  0  0  0
   -8.0922    0.1242    1.9647 H   0  0  0  0  0  0  0  0  0  0  0  0
   -8.9707    0.1181   -1.9734 H   0  0  0  0  0  0  0  0  0  0  0  0
  1  2  1  0
  2  3  1  0
  3  4  2  0
  4  5  1  0
  5  6  2  0
  6  7  1  0
  7  8  2  0
  8  9  1  0
  7 10  1  0
 10 11  1  0
 11 12  2  0
 12 13  1  0
 13 14  1  0
 14 15  2  0
 14 16  1  0
 16 17  1  0
 17 18  2  0
 18 19  1  0
 19 20  2  0
 20 21  1  0
 21 22  2  0
 13 23  1  0
 23 24  1  0
 24 25  1  0
 25 26  1  0
 26 27  1  0
 27 28  2  0
 28 29  1  0
 28 30  1  0
 30 31  2  0
 31 32  1  0
 32 33  2  0
 33 34  1  0
 34 35  1  0
 35 36  1  0
 36 37  2  0
 36 38  1  0
  8  3  1  0
 16 10  2  0
 22 17  1  0
 29 24  1  0
 33 27  1  0
  1 39  1  0
  1 40  1  0
  1 41  1  0
  4 42  1  0
  5 43  1  0
  6 44  1  0
 11 45  1  0
 18 46  1  0
 19 47  1  0
 20 48  1  0
 21 49  1  0
 22 50  1  0
 23 51  1  0
 23 52  1  0
 24 53  1  0
 25 54  1  0
 25 55  1  0
 26 56  1  0
 26 57  1  0
 29 58  1  0
 29 59  1  0
 30 60  1  0
 31 61  1  0
 32 62  1  0
 35 63  1  0
 35 64  1  0
 38 65  1  0
M  END
>  <Ligand ID>  (1) 
LIG0004854

>  <Ligand>  (1) 
CHEMBL3398229

>  <SMILES>  (1) 
COc1cccc(c1F)c1cnn(c(=O)c1c1ccccc1)CC1CCc2c(C1)cccc2OCC(=O)O

>  <CID>  (1) 
118727308.0

>  <ChEMBL ID>  (1) 
nan

>  <InChiKey>  (1) 
DRHFFSGZGPTTFC-UHFFFAOYSA-N

>  <InChi>  (1) 
InChI=1S/C30H27FN2O5/c1-37-26-12-6-10-23(29(26)31)24-16-32-33(30(36)28(24)20-7-3-2-4-8-20)17-19-13-14-22-21(15-19)9-5-11-25(22)38-18-27(34)35/h2-12,16,19H,13-15,17-18H2,1H3,(H,34,35)

>  <IUPAC Name>  (1) 
2-[[6-[[4-(2-fluoro-3-methoxyphenyl)-6-oxo-5-phenylpyridazin-1-yl]methyl]-5,6,7,8-tetrahydronaphthalen-1-yl]oxy]acetic acid

$$$$
