
     RDKit          3D

 42 42  0  0  0  0  0  0  0  0999 V2000
    7.8181    1.5555   -0.7149 O   0  0  0  0  0  0  0  0  0  0  0  0
    7.0809    0.3990   -0.4741 C   0  0  0  0  0  0  0  0  0  0  0  0
    7.6865   -0.6743   -0.2289 O   0  0  0  0  0  0  0  0  0  0  0  0
    5.6067    0.5187   -0.5251 C   0  0  0  0  0  0  0  0  0  0  0  0
    4.9794   -0.7260   -0.2632 O   0  0  0  0  0  0  0  0  0  0  0  0
    3.5766   -0.7131   -0.2896 C   0  0  0  0  0  0  0  0  0  0  0  0
    2.9097    0.4649   -0.5587 C   0  0  0  0  0  0  0  0  0  0  0  0
    1.5189    0.5400   -0.5986 C   0  0  0  0  0  0  0  0  0  0  0  0
    0.7960   -0.6250   -0.3557 C   0  0  0  0  0  0  0  0  0  0  0  0
    1.4330   -1.8161   -0.0842 C   0  0  0  0  0  0  0  0  0  0  0  0
    2.8307   -1.8536   -0.0525 C   0  0  0  0  0  0  0  0  0  0  0  0
    3.4625   -3.0606    0.2224 O   0  0  0  0  0  0  0  0  0  0  0  0
   -0.6865   -0.4914   -0.4099 C   0  0  0  0  0  0  0  0  0  0  0  0
   -1.2332    0.3654    1.0927 P   0  0  0  0  0  0  0  0  0  0  0  0
   -0.4044   -0.0765    2.2769 O   0  0  0  0  0  0  0  0  0  0  0  0
   -2.9983   -0.0895    1.3123 C   0  0  0  0  0  0  0  0  0  0  0  0
   -3.5863   -0.0843   -0.0633 C   0  0  0  0  0  0  0  0  0  0  0  0
   -5.0331   -0.4308   -0.1471 C   0  0  1  0  0  0  0  0  0  0  0  0
   -5.8827    0.5083    0.6271 C   0  0  0  0  0  0  0  0  0  0  0  0
   -5.8150    0.6279    1.8833 O   0  0  0  0  0  0  0  0  0  0  0  0
   -6.8336    1.3400    0.0057 O   0  0  0  0  0  0  0  0  0  0  0  0
   -5.4190   -0.2892   -1.5535 N   0  0  0  0  0  0  0  0  0  0  0  0
   -1.0652    2.0331    0.8436 O   0  0  0  0  0  0  0  0  0  0  0  0
   -1.0929    0.2493   -1.5165 O   0  0  0  0  0  0  0  0  0  0  0  0
    8.8241    1.6067   -0.6081 H   0  0  0  0  0  0  0  0  0  0  0  0
    5.2569    0.8748   -1.5050 H   0  0  0  0  0  0  0  0  0  0  0  0
    5.2246    1.2306    0.2561 H   0  0  0  0  0  0  0  0  0  0  0  0
    3.4272    1.3974   -0.7542 H   0  0  0  0  0  0  0  0  0  0  0  0
    1.0265    1.4832   -0.8134 H   0  0  0  0  0  0  0  0  0  0  0  0
    0.8377   -2.7137    0.1023 H   0  0  0  0  0  0  0  0  0  0  0  0
    4.4587   -3.0899    0.3143 H   0  0  0  0  0  0  0  0  0  0  0  0
   -1.1465   -1.4798   -0.4208 H   0  0  0  0  0  0  0  0  0  0  0  0
   -2.9688   -1.1396    1.6688 H   0  0  0  0  0  0  0  0  0  0  0  0
   -3.4925    0.5716    2.0196 H   0  0  0  0  0  0  0  0  0  0  0  0
   -3.4770    0.9303   -0.5485 H   0  0  0  0  0  0  0  0  0  0  0  0
   -3.0382   -0.7786   -0.7265 H   0  0  0  0  0  0  0  0  0  0  0  0
   -5.2269   -1.4752    0.1939 H   0  0  0  0  0  0  0  0  0  0  0  0
   -7.0842    2.2432    0.4151 H   0  0  0  0  0  0  0  0  0  0  0  0
   -5.4045    0.7245   -1.7963 H   0  0  0  0  0  0  0  0  0  0  0  0
   -4.7662   -0.8308   -2.1633 H   0  0  0  0  0  0  0  0  0  0  0  0
   -1.6076    2.5754    1.4810 H   0  0  0  0  0  0  0  0  0  0  0  0
   -0.4921    0.1984   -2.2806 H   0  0  0  0  0  0  0  0  0  0  0  0
  1  2  1  0
  2  3  2  0
  2  4  1  0
  4  5  1  0
  5  6  1  0
  6  7  2  0
  7  8  1  0
  8  9  2  0
  9 10  1  0
 10 11  2  0
 11 12  1  0
  9 13  1  0
 13 14  1  0
 14 15  2  0
 14 16  1  0
 16 17  1  0
 17 18  1  0
 18 19  1  0
 19 20  2  0
 19 21  1  0
 18 22  1  0
 14 23  1  0
 13 24  1  0
 11  6  1  0
  1 25  1  0
  4 26  1  0
  4 27  1  0
  7 28  1  0
  8 29  1  0
 10 30  1  0
 12 31  1  0
 13 32  1  0
 16 33  1  0
 16 34  1  0
 17 35  1  0
 17 36  1  0
 18 37  1  1
 21 38  1  0
 22 39  1  0
 22 40  1  0
 23 41  1  0
 24 42  1  0
M  END
>  <Ligand ID>  (1) 
LIG0002472

>  <Ligand>  (1) 
CHEMBL3895668

>  <SMILES>  (1) 
OC(=O)COc1ccc(cc1O)C(P(=O)(CC[C@@H](C(=O)O)N)O)O

>  <CID>  (1) 
71042044.0

>  <ChEMBL ID>  (1) 
nan

>  <InChiKey>  (1) 
USSOEGIWLJVUKK-OADYLZGLSA-N

>  <InChi>  (1) 
InChI=1S/C13H18NO9P/c14-8(12(18)19)3-4-24(21,22)13(20)7-1-2-10(9(15)5-7)23-6-11(16)17/h1-2,5,8,13,15,20H,3-4,6,14H2,(H,16,17)(H,18,19)(H,21,22)/t8-,13?/m0/s1

>  <IUPAC Name>  (1) 
(2S)-2-amino-4-[[[4-(carboxymethoxy)-3-hydroxyphenyl]-hydroxymethyl]-hydroxyphosphoryl]butanoic acid

$$$$
