
     RDKit          3D

 24 26  0  0  0  0  0  0  0  0999 V2000
   -0.6230    1.0216   -2.8563 Cl  0  0  0  0  0  0  0  0  0  0  0  0
   -1.5823    0.4822   -1.4734 C   0  0  0  0  0  0  0  0  0  0  0  0
   -2.8494    0.9244   -1.2580 C   0  0  0  0  0  0  0  0  0  0  0  0
   -3.5676    0.4943   -0.1862 C   0  0  0  0  0  0  0  0  0  0  0  0
   -2.9868   -0.4367    0.7312 C   0  0  0  0  0  0  0  0  0  0  0  0
   -1.7877   -0.8347    0.4987 C   0  0  0  0  0  0  0  0  0  0  0  0
   -1.0417   -0.4141   -0.5782 C   0  0  0  0  0  0  0  0  0  0  0  0
    0.2673   -0.8698   -0.8024 N   0  0  0  0  0  0  0  0  0  0  0  0
    1.4395   -0.2454   -0.2959 C   0  0  0  0  0  0  0  0  0  0  0  0
    1.4357    0.9609    0.1732 N   0  0  0  0  0  0  0  0  0  0  0  0
    2.7580    1.3517    0.6224 C   0  0  0  0  0  0  0  0  0  0  0  0
    3.5764    0.0795    0.5809 C   0  0  0  0  0  0  0  0  0  0  0  0
    2.7550   -0.7909   -0.2129 N   0  0  0  0  0  0  0  0  0  0  0  0
   -1.2908   -1.7683    1.4749 N   0  0  0  0  0  0  0  0  0  0  0  0
   -2.5188   -1.9927    2.5946 S   0  0  0  0  0  0  0  0  0  0  0  0
   -3.7199   -0.8722    1.8205 N   0  0  0  0  0  0  0  0  0  0  0  0
   -3.2688    1.6281   -1.9642 H   0  0  0  0  0  0  0  0  0  0  0  0
   -4.5582    0.8625   -0.0491 H   0  0  0  0  0  0  0  0  0  0  0  0
    0.4072   -1.7359   -1.3863 H   0  0  0  0  0  0  0  0  0  0  0  0
    3.1548    2.0971   -0.1220 H   0  0  0  0  0  0  0  0  0  0  0  0
    2.7431    1.7793    1.6423 H   0  0  0  0  0  0  0  0  0  0  0  0
    3.6684   -0.3017    1.6139 H   0  0  0  0  0  0  0  0  0  0  0  0
    4.5623    0.2695    0.1086 H   0  0  0  0  0  0  0  0  0  0  0  0
    3.0273   -1.6885   -0.6766 H   0  0  0  0  0  0  0  0  0  0  0  0
  1  2  1  0
  2  3  1  0
  3  4  2  0
  4  5  1  0
  5  6  1  0
  6  7  1  0
  7  8  1  0
  8  9  1  0
  9 10  2  0
 10 11  1  0
 11 12  1  0
 12 13  1  0
  6 14  2  0
 14 15  1  0
 15 16  1  0
  7  2  2  0
 13  9  1  0
 16  5  2  0
  3 17  1  0
  4 18  1  0
  8 19  1  0
 11 20  1  0
 11 21  1  0
 12 22  1  0
 12 23  1  0
 13 24  1  0
M  END
>  <Ligand ID>  (1) 
LIG0003205

>  <Ligand>  (1) 
tizanidine

>  <SMILES>  (1) 
Clc1ccc2c(c1NC1=NCCN1)nsn2

>  <CID>  (1) 
5487.0

>  <ChEMBL ID>  (1) 
nan

>  <InChiKey>  (1) 
XFYDIVBRZNQMJC-UHFFFAOYSA-N

>  <InChi>  (1) 
InChI=1S/C9H8ClN5S/c10-5-1-2-6-8(15-16-14-6)7(5)13-9-11-3-4-12-9/h1-2H,3-4H2,(H2,11,12,13)

>  <IUPAC Name>  (1) 
5-chloro-N-(4,5-dihydro-1H-imidazol-2-yl)-2,1,3-benzothiadiazol-4-amine

$$$$
