
     RDKit          3D

 59 61  0  0  0  0  0  0  0  0999 V2000
   -8.0622    2.1395   -1.7429 C   0  0  0  0  0  0  0  0  0  0  0  0
   -7.7382    1.0284   -0.7649 C   0  0  0  0  0  0  0  0  0  0  0  0
   -6.4242    0.5627   -1.0404 O   0  0  0  0  0  0  0  0  0  0  0  0
   -5.8629   -0.4673   -0.2855 C   0  0  0  0  0  0  0  0  0  0  0  0
   -6.5626   -0.9605    0.6393 O   0  0  0  0  0  0  0  0  0  0  0  0
   -4.5474   -0.9051   -0.5909 N   0  0  0  0  0  0  0  0  0  0  0  0
   -3.7753   -0.3261   -1.6479 C   0  0  0  0  0  0  0  0  0  0  0  0
   -2.3203   -0.3052   -1.2071 C   0  0  0  0  0  0  0  0  0  0  0  0
   -2.3040   -0.1930    0.2806 C   0  0  0  0  0  0  0  0  0  0  0  0
   -2.7129   -1.5021    0.9067 C   0  0  0  0  0  0  0  0  0  0  0  0
   -3.9578   -1.9846    0.1995 C   0  0  0  0  0  0  0  0  0  0  0  0
   -1.0953    0.3657    0.7782 N   0  0  0  0  0  0  0  0  0  0  0  0
   -1.0108    0.5023    2.1924 C   0  0  0  0  0  0  0  0  0  0  0  0
   -0.2726   -0.6102    2.8831 C   0  0  0  0  0  0  0  0  0  0  0  0
    0.7997   -1.2238    2.0073 C   0  0  0  0  0  0  0  0  0  0  0  0
    1.2177   -0.1631    1.0369 C   0  0  2  0  0  0  0  0  0  0  0  0
    0.0971    0.0674    0.0733 C   0  0  0  0  0  0  0  0  0  0  0  0
    2.4983   -0.3846    0.4432 N   0  0  0  0  0  0  0  0  0  0  0  0
    3.5710    0.5054    0.6722 C   0  0  0  0  0  0  0  0  0  0  0  0
    3.3983    1.5093    1.4102 O   0  0  0  0  0  0  0  0  0  0  0  0
    4.8984    0.3301    0.0934 C   0  0  0  0  0  0  0  0  0  0  0  0
    5.8634    1.2694    0.3932 C   0  0  0  0  0  0  0  0  0  0  0  0
    7.1568    1.1588   -0.1301 C   0  0  0  0  0  0  0  0  0  0  0  0
    7.4944    0.1111   -0.9549 C   0  0  0  0  0  0  0  0  0  0  0  0
    6.5108   -0.8180   -1.2413 C   0  0  0  0  0  0  0  0  0  0  0  0
    5.2318   -0.7215   -0.7325 C   0  0  0  0  0  0  0  0  0  0  0  0
    8.7468   -0.0558   -1.5020 O   0  0  0  0  0  0  0  0  0  0  0  0
    9.8031    0.8452   -1.2597 C   0  0  0  0  0  0  0  0  0  0  0  0
   -7.1432    2.7215   -1.9228 H   0  0  0  0  0  0  0  0  0  0  0  0
   -8.4495    1.6889   -2.6859 H   0  0  0  0  0  0  0  0  0  0  0  0
   -8.8696    2.7660   -1.3033 H   0  0  0  0  0  0  0  0  0  0  0  0
   -8.4224    0.1650   -0.9170 H   0  0  0  0  0  0  0  0  0  0  0  0
   -7.8193    1.4005    0.2863 H   0  0  0  0  0  0  0  0  0  0  0  0
   -4.0974    0.7307   -1.8052 H   0  0  0  0  0  0  0  0  0  0  0  0
   -3.9005   -0.8658   -2.6111 H   0  0  0  0  0  0  0  0  0  0  0  0
   -1.8381    0.5469   -1.7122 H   0  0  0  0  0  0  0  0  0  0  0  0
   -1.7929   -1.2317   -1.5317 H   0  0  0  0  0  0  0  0  0  0  0  0
   -3.1232    0.5372    0.5480 H   0  0  0  0  0  0  0  0  0  0  0  0
   -1.9579   -2.2833    0.8490 H   0  0  0  0  0  0  0  0  0  0  0  0
   -3.0007   -1.2884    1.9639 H   0  0  0  0  0  0  0  0  0  0  0  0
   -4.6991   -2.3673    0.9437 H   0  0  0  0  0  0  0  0  0  0  0  0
   -3.6863   -2.7753   -0.5136 H   0  0  0  0  0  0  0  0  0  0  0  0
   -2.0501    0.4813    2.5909 H   0  0  0  0  0  0  0  0  0  0  0  0
   -0.5947    1.4843    2.4915 H   0  0  0  0  0  0  0  0  0  0  0  0
    0.2382   -0.1772    3.7681 H   0  0  0  0  0  0  0  0  0  0  0  0
   -0.9648   -1.4012    3.2877 H   0  0  0  0  0  0  0  0  0  0  0  0
    0.3368   -2.1134    1.5326 H   0  0  0  0  0  0  0  0  0  0  0  0
    1.7001   -1.5019    2.6018 H   0  0  0  0  0  0  0  0  0  0  0  0
    1.3140    0.7842    1.6433 H   0  0  0  0  0  0  0  0  0  0  0  0
    0.3898    0.8793   -0.6551 H   0  0  0  0  0  0  0  0  0  0  0  0
   -0.0402   -0.8474   -0.5371 H   0  0  0  0  0  0  0  0  0  0  0  0
    2.6331   -1.2196   -0.1675 H   0  0  0  0  0  0  0  0  0  0  0  0
    5.6737    2.1252    1.0371 H   0  0  0  0  0  0  0  0  0  0  0  0
    7.9037    1.9135    0.1206 H   0  0  0  0  0  0  0  0  0  0  0  0
    6.7614   -1.6561   -1.8943 H   0  0  0  0  0  0  0  0  0  0  0  0
    4.4890   -1.4655   -0.9774 H   0  0  0  0  0  0  0  0  0  0  0  0
   10.3132    0.6107   -0.2889 H   0  0  0  0  0  0  0  0  0  0  0  0
   10.5729    0.6878   -2.0593 H   0  0  0  0  0  0  0  0  0  0  0  0
    9.4827    1.8969   -1.2181 H   0  0  0  0  0  0  0  0  0  0  0  0
  1  2  1  0
  2  3  1  0
  3  4  1  0
  4  5  2  0
  4  6  1  0
  6  7  1  0
  7  8  1  0
  8  9  1  0
  9 10  1  0
 10 11  1  0
  9 12  1  0
 12 13  1  0
 13 14  1  0
 14 15  1  0
 15 16  1  0
 16 17  1  0
 16 18  1  0
 18 19  1  0
 19 20  2  0
 19 21  1  0
 21 22  2  0
 22 23  1  0
 23 24  2  0
 24 25  1  0
 25 26  2  0
 24 27  1  0
 27 28  1  0
 11  6  1  0
 17 12  1  0
 26 21  1  0
  1 29  1  0
  1 30  1  0
  1 31  1  0
  2 32  1  0
  2 33  1  0
  7 34  1  0
  7 35  1  0
  8 36  1  0
  8 37  1  0
  9 38  1  0
 10 39  1  0
 10 40  1  0
 11 41  1  0
 11 42  1  0
 13 43  1  0
 13 44  1  0
 14 45  1  0
 14 46  1  0
 15 47  1  0
 15 48  1  0
 16 49  1  1
 17 50  1  0
 17 51  1  0
 18 52  1  0
 22 53  1  0
 23 54  1  0
 25 55  1  0
 26 56  1  0
 28 57  1  0
 28 58  1  0
 28 59  1  0
M  END
>  <Ligand ID>  (1) 
LIG0001944

>  <Ligand>  (1) 
CHEMBL1916233

>  <SMILES>  (1) 
CCOC(=O)N1CCC(CC1)N1CCC[C@H](C1)NC(=O)c1ccc(cc1)OC

>  <CID>  (1) 
46872061.0

>  <ChEMBL ID>  (1) 
nan

>  <InChiKey>  (1) 
PJYBLQXVAYMXHC-QGZVFWFLSA-N

>  <InChi>  (1) 
InChI=1S/C21H31N3O4/c1-3-28-21(26)23-13-10-18(11-14-23)24-12-4-5-17(15-24)22-20(25)16-6-8-19(27-2)9-7-16/h6-9,17-18H,3-5,10-15H2,1-2H3,(H,22,25)/t17-/m1/s1

>  <IUPAC Name>  (1) 
ethyl 4-[(3R)-3-[(4-methoxybenzoyl)amino]piperidin-1-yl]piperidine-1-carboxylate

$$$$
