
     RDKit          3D

 65 66  0  0  0  0  0  0  0  0999 V2000
    9.4243    1.3855   -0.9638 O   0  0  0  0  0  0  0  0  0  0  0  0
    8.8579    0.2062   -1.4166 C   0  0  0  0  0  0  0  0  0  0  0  0
    7.5794    0.0007   -0.6740 C   0  0  0  0  0  0  0  0  0  0  0  0
    6.3434    0.2279   -1.2216 C   0  0  0  0  0  0  0  0  0  0  0  0
    5.1556    0.0317   -0.5143 C   0  0  0  0  0  0  0  0  0  0  0  0
    5.3035   -0.4104    0.7861 C   0  0  0  0  0  0  0  0  0  0  0  0
    6.5475   -0.6450    1.3550 C   0  0  0  0  0  0  0  0  0  0  0  0
    7.7055   -0.4435    0.6353 C   0  0  0  0  0  0  0  0  0  0  0  0
    8.9357   -0.6775    1.2043 O   0  0  0  0  0  0  0  0  0  0  0  0
    3.8312    0.2837   -1.1258 C   0  0  2  0  0  0  0  0  0  0  0  0
    2.7516   -0.3558   -0.3107 C   0  0  0  0  0  0  0  0  0  0  0  0
    1.4441   -0.2165   -0.8990 N   0  0  0  0  0  0  0  0  0  0  0  0
    0.9388    1.0959   -0.9141 C   0  0  0  0  0  0  0  0  0  0  0  0
    0.5819    1.7396    0.3544 C   0  0  0  0  0  0  0  0  0  0  0  0
   -0.4810    1.2366    1.2367 C   0  0  0  0  0  0  0  0  0  0  0  0
   -0.4513   -0.0545    1.8903 C   0  0  0  0  0  0  0  0  0  0  0  0
   -0.4262   -1.3484    1.2288 C   0  0  0  0  0  0  0  0  0  0  0  0
   -1.5621   -1.6268    0.2744 C   0  0  0  0  0  0  0  0  0  0  0  0
   -2.7540   -1.5706    0.9954 O   0  0  0  0  0  0  0  0  0  0  0  0
   -3.8808   -1.7983    0.2025 C   0  0  0  0  0  0  0  0  0  0  0  0
   -5.1500   -1.7547    0.9911 C   0  0  0  0  0  0  0  0  0  0  0  0
   -5.4586   -0.6265    1.6390 O   0  0  0  0  0  0  0  0  0  0  0  0
   -5.7298    0.5411    1.0240 C   0  0  0  0  0  0  0  0  0  0  0  0
   -6.9071    0.5892    0.1501 C   0  0  0  0  0  0  0  0  0  0  0  0
   -8.1575    0.5406    0.7831 C   0  0  0  0  0  0  0  0  0  0  0  0
   -8.2604    0.3991    2.5423 Cl  0  0  0  0  0  0  0  0  0  0  0  0
   -9.3360    0.6001    0.0712 C   0  0  0  0  0  0  0  0  0  0  0  0
   -9.3202    0.7113   -1.3103 C   0  0  0  0  0  0  0  0  0  0  0  0
   -8.1015    0.7588   -1.9202 C   0  0  0  0  0  0  0  0  0  0  0  0
   -6.9208    0.6997   -1.2093 C   0  0  0  0  0  0  0  0  0  0  0  0
   -5.4330    0.8062   -2.1114 Cl  0  0  0  0  0  0  0  0  0  0  0  0
    3.8626   -0.3137   -2.4028 O   0  0  0  0  0  0  0  0  0  0  0  0
    9.6315    2.0134   -1.6872 H   0  0  0  0  0  0  0  0  0  0  0  0
    8.6377    0.2336   -2.4887 H   0  0  0  0  0  0  0  0  0  0  0  0
    9.5039   -0.6908   -1.1843 H   0  0  0  0  0  0  0  0  0  0  0  0
    6.3046    0.5741   -2.2488 H   0  0  0  0  0  0  0  0  0  0  0  0
    4.4492   -0.5940    1.4180 H   0  0  0  0  0  0  0  0  0  0  0  0
    6.6290   -0.9917    2.3786 H   0  0  0  0  0  0  0  0  0  0  0  0
    9.6093    0.0687    1.3192 H   0  0  0  0  0  0  0  0  0  0  0  0
    3.6418    1.3822   -1.2290 H   0  0  0  0  0  0  0  0  0  0  0  0
    2.9745   -1.4344   -0.2042 H   0  0  0  0  0  0  0  0  0  0  0  0
    2.6757    0.0838    0.7098 H   0  0  0  0  0  0  0  0  0  0  0  0
    1.2839   -0.7806   -1.7421 H   0  0  0  0  0  0  0  0  0  0  0  0
    1.6632    1.8032   -1.4496 H   0  0  0  0  0  0  0  0  0  0  0  0
    0.0340    1.1515   -1.5842 H   0  0  0  0  0  0  0  0  0  0  0  0
    1.5211    1.8691    1.0250 H   0  0  0  0  0  0  0  0  0  0  0  0
    0.3320    2.8437    0.1124 H   0  0  0  0  0  0  0  0  0  0  0  0
   -0.5204    2.0237    2.0935 H   0  0  0  0  0  0  0  0  0  0  0  0
   -1.5138    1.4681    0.7775 H   0  0  0  0  0  0  0  0  0  0  0  0
    0.4796   -0.0449    2.5779 H   0  0  0  0  0  0  0  0  0  0  0  0
   -1.2605   -0.0860    2.7211 H   0  0  0  0  0  0  0  0  0  0  0  0
   -0.6616   -2.1383    2.0762 H   0  0  0  0  0  0  0  0  0  0  0  0
    0.4959   -1.7642    0.8412 H   0  0  0  0  0  0  0  0  0  0  0  0
   -1.4370   -2.6813   -0.0518 H   0  0  0  0  0  0  0  0  0  0  0  0
   -1.5512   -1.0133   -0.6372 H   0  0  0  0  0  0  0  0  0  0  0  0
   -3.8501   -1.1131   -0.6291 H   0  0  0  0  0  0  0  0  0  0  0  0
   -3.7845   -2.8364   -0.2175 H   0  0  0  0  0  0  0  0  0  0  0  0
   -5.1962   -2.6043    1.7143 H   0  0  0  0  0  0  0  0  0  0  0  0
   -5.9812   -1.9745    0.2557 H   0  0  0  0  0  0  0  0  0  0  0  0
   -5.8133    1.3271    1.8402 H   0  0  0  0  0  0  0  0  0  0  0  0
   -4.8404    0.8849    0.4403 H   0  0  0  0  0  0  0  0  0  0  0  0
  -10.2712    0.5588    0.6047 H   0  0  0  0  0  0  0  0  0  0  0  0
  -10.2684    0.7556   -1.8482 H   0  0  0  0  0  0  0  0  0  0  0  0
   -8.0913    0.8467   -3.0052 H   0  0  0  0  0  0  0  0  0  0  0  0
    4.2412    0.3201   -3.0686 H   0  0  0  0  0  0  0  0  0  0  0  0
  1  2  1  0
  2  3  1  0
  3  4  2  0
  4  5  1  0
  5  6  2  0
  6  7  1  0
  7  8  2  0
  8  9  1  0
  5 10  1  0
 10 11  1  0
 11 12  1  0
 12 13  1  0
 13 14  1  0
 14 15  1  0
 15 16  1  0
 16 17  1  0
 17 18  1  0
 18 19  1  0
 19 20  1  0
 20 21  1  0
 21 22  1  0
 22 23  1  0
 23 24  1  0
 24 25  2  0
 25 26  1  0
 25 27  1  0
 27 28  2  0
 28 29  1  0
 29 30  2  0
 30 31  1  0
 10 32  1  0
  8  3  1  0
 30 24  1  0
  1 33  1  0
  2 34  1  0
  2 35  1  0
  4 36  1  0
  6 37  1  0
  7 38  1  0
  9 39  1  0
 10 40  1  6
 11 41  1  0
 11 42  1  0
 12 43  1  0
 13 44  1  0
 13 45  1  0
 14 46  1  0
 14 47  1  0
 15 48  1  0
 15 49  1  0
 16 50  1  0
 16 51  1  0
 17 52  1  0
 17 53  1  0
 18 54  1  0
 18 55  1  0
 20 56  1  0
 20 57  1  0
 21 58  1  0
 21 59  1  0
 23 60  1  0
 23 61  1  0
 27 62  1  0
 28 63  1  0
 29 64  1  0
 32 65  1  0
M  END
>  <Ligand ID>  (1) 
LIG0002464

>  <Ligand>  (1) 
vilanterol

>  <SMILES>  (1) 
OCc1cc(ccc1O)[C@H](CNCCCCCCOCCOCc1c(Cl)cccc1Cl)O

>  <CID>  (1) 
10184665.0

>  <ChEMBL ID>  (1) 
nan

>  <InChiKey>  (1) 
DAFYYTQWSAWIGS-DEOSSOPVSA-N

>  <InChi>  (1) 
InChI=1S/C24H33Cl2NO5/c25-21-6-5-7-22(26)20(21)17-32-13-12-31-11-4-2-1-3-10-27-15-24(30)18-8-9-23(29)19(14-18)16-28/h5-9,14,24,27-30H,1-4,10-13,15-17H2/t24-/m0/s1

>  <IUPAC Name>  (1) 
4-[(1R)-2-[6-[2-[(2,6-dichlorophenyl)methoxy]ethoxy]hexylamino]-1-hydroxyethyl]-2-(hydroxymethyl)phenol

$$$$
