
     RDKit          3D

122127  0  0  0  0  0  0  0  0999 V2000
   -5.3115   -1.3137   -4.4137 O   0  0  0  0  0  0  0  0  0  0  0  0
   -5.3959    0.0488   -4.4784 N   0  0  0  0  0  0  0  0  0  0  0  0
   -5.6043    0.5546   -5.5980 O   0  0  0  0  0  0  0  0  0  0  0  0
   -5.2464    0.8296   -3.2956 C   0  0  0  0  0  0  0  0  0  0  0  0
   -5.3165    2.2049   -3.3027 C   0  0  0  0  0  0  0  0  0  0  0  0
   -5.1555    2.8737   -2.1076 C   0  0  0  0  0  0  0  0  0  0  0  0
   -4.9280    2.2459   -0.9047 C   0  0  0  0  0  0  0  0  0  0  0  0
   -4.8588    0.8822   -0.8969 C   0  0  0  0  0  0  0  0  0  0  0  0
   -5.0205    0.1819   -2.1040 C   0  0  0  0  0  0  0  0  0  0  0  0
   -4.6125    0.0489    0.2699 C   0  0  0  0  0  0  0  0  0  0  0  0
   -3.3229   -0.3744    0.6231 C   0  0  0  0  0  0  0  0  0  0  0  0
   -2.2585    0.2045   -0.2341 C   0  0  0  0  0  0  0  0  0  0  0  0
   -1.9042   -0.3419   -1.2966 O   0  0  0  0  0  0  0  0  0  0  0  0
   -1.6780    1.4722    0.2898 C   0  0  0  0  0  0  0  0  0  0  0  0
   -1.0458    2.3587   -0.6893 C   0  0  0  0  0  0  0  0  0  0  0  0
    0.0562    2.0001   -1.5584 C   0  0  0  0  0  0  0  0  0  0  0  0
    1.3823    1.5803   -1.0627 C   0  0  0  0  0  0  0  0  0  0  0  0
    1.4331    0.3029   -0.3321 C   0  0  0  0  0  0  0  0  0  0  0  0
    2.7815   -0.1814    0.1200 C   0  0  0  0  0  0  0  0  0  0  0  0
    3.5161    0.5700    1.1377 C   0  0  0  0  0  0  0  0  0  0  0  0
    3.9184    1.9481    1.0135 C   0  0  0  0  0  0  0  0  0  0  0  0
    4.7154    2.5699   -0.0199 C   0  0  0  0  0  0  0  0  0  0  0  0
    6.1011    2.3427   -0.3872 C   0  0  0  0  0  0  0  0  0  0  0  0
    6.5290    1.1079   -0.8768 N   0  0  0  0  0  0  0  0  0  0  0  0
    7.8300    1.2648   -1.5658 C   0  0  0  0  0  0  0  0  0  0  0  0
    8.9629    1.1116   -0.6149 C   0  0  0  0  0  0  0  0  0  0  0  0
    9.0965   -0.3324   -0.1790 C   0  0  0  0  0  0  0  0  0  0  0  0
    7.7205   -0.9614   -0.1095 C   0  0  0  0  0  0  0  0  0  0  0  0
    6.5796   -0.0112    0.0087 C   0  0  0  0  0  0  0  0  0  0  0  0
    9.7665   -0.4726    1.1250 C   0  0  0  0  0  0  0  0  0  0  0  0
    9.3563    0.1423    2.2864 C   0  0  0  0  0  0  0  0  0  0  0  0
   10.0033    0.0033    3.4949 C   0  0  0  0  0  0  0  0  0  0  0  0
   11.1427   -0.7955    3.5949 C   0  0  0  0  0  0  0  0  0  0  0  0
   11.5684   -1.4182    2.4449 C   0  0  0  0  0  0  0  0  0  0  0  0
   10.9093   -1.2708    1.2353 C   0  0  0  0  0  0  0  0  0  0  0  0
    9.8577   -1.0626   -1.2163 C   0  0  0  0  0  0  0  0  0  0  0  0
    9.6806   -2.4485   -1.2970 C   0  0  0  0  0  0  0  0  0  0  0  0
   10.3571   -3.2068   -2.2472 C   0  0  0  0  0  0  0  0  0  0  0  0
   11.2314   -2.6225   -3.1496 C   0  0  0  0  0  0  0  0  0  0  0  0
   11.4023   -1.2734   -3.0692 C   0  0  0  0  0  0  0  0  0  0  0  0
   10.7212   -0.5121   -2.1129 C   0  0  0  0  0  0  0  0  0  0  0  0
   -3.0733   -1.1841    1.6923 C   0  0  0  0  0  0  0  0  0  0  0  0
   -1.6829   -1.5934    2.0085 C   0  0  0  0  0  0  0  0  0  0  0  0
   -4.1403   -1.5841    2.4370 N   0  0  0  0  0  0  0  0  0  0  0  0
   -5.4014   -1.1906    2.1250 C   0  0  0  0  0  0  0  0  0  0  0  0
   -5.6667   -0.3755    1.0484 C   0  0  0  0  0  0  0  0  0  0  0  0
   -6.9212    0.0638    0.7032 C   0  0  0  0  0  0  0  0  0  0  0  0
   -7.1612    0.8080   -0.2839 O   0  0  0  0  0  0  0  0  0  0  0  0
   -7.9595   -0.3448    1.4922 N   0  0  0  0  0  0  0  0  0  0  0  0
   -7.7012   -1.1370    2.5385 C   0  0  0  0  0  0  0  0  0  0  0  0
   -6.4701   -1.5676    2.8749 N   0  0  0  0  0  0  0  0  0  0  0  0
   -8.8481   -1.5685    3.3894 C   0  0  0  0  0  0  0  0  0  0  0  0
   -9.2651    0.1410    1.1125 C   0  0  0  0  0  0  0  0  0  0  0  0
   -9.9015   -0.8316    0.1508 C   0  0  0  0  0  0  0  0  0  0  0  0
  -11.1840   -0.4242   -0.3059 N   0  0  0  0  0  0  0  0  0  0  0  0
  -11.7757   -1.4061   -1.1842 C   0  0  0  0  0  0  0  0  0  0  0  0
  -12.2871   -2.5688   -0.3467 C   0  0  0  0  0  0  0  0  0  0  0  0
  -13.2242   -2.1514    0.5698 O   0  0  0  0  0  0  0  0  0  0  0  0
  -12.7251   -1.1991    1.4591 C   0  0  0  0  0  0  0  0  0  0  0  0
  -12.1316   -0.0254    0.6790 C   0  0  0  0  0  0  0  0  0  0  0  0
    0.6832    0.0000    0.0000 Cl  0  0  0  0  0  0  0  0  0  0  0  0
   -5.4961    2.7012   -4.2506 H   0  0  0  0  0  0  0  0  0  0  0  0
   -5.2167    3.9529   -2.1475 H   0  0  0  0  0  0  0  0  0  0  0  0
   -4.8015    2.7608    0.0342 H   0  0  0  0  0  0  0  0  0  0  0  0
   -4.9687   -0.9113   -2.1161 H   0  0  0  0  0  0  0  0  0  0  0  0
   -2.5860    2.0659    0.6907 H   0  0  0  0  0  0  0  0  0  0  0  0
   -1.1422    1.2368    1.2149 H   0  0  0  0  0  0  0  0  0  0  0  0
   -1.8725    2.7752   -1.3897 H   0  0  0  0  0  0  0  0  0  0  0  0
   -0.7500    3.3391   -0.1500 H   0  0  0  0  0  0  0  0  0  0  0  0
   -0.2757    1.2456   -2.3544 H   0  0  0  0  0  0  0  0  0  0  0  0
    0.2379    2.9188   -2.2376 H   0  0  0  0  0  0  0  0  0  0  0  0
    2.0475    1.4526   -1.9770 H   0  0  0  0  0  0  0  0  0  0  0  0
    1.8902    2.4239   -0.5219 H   0  0  0  0  0  0  0  0  0  0  0  0
    0.9099   -0.5167   -0.9261 H   0  0  0  0  0  0  0  0  0  0  0  0
    0.8141    0.3192    0.6183 H   0  0  0  0  0  0  0  0  0  0  0  0
    2.6063   -1.2667    0.4382 H   0  0  0  0  0  0  0  0  0  0  0  0
    3.3697   -0.3262   -0.8363 H   0  0  0  0  0  0  0  0  0  0  0  0
    2.7654    0.5839    2.0676 H   0  0  0  0  0  0  0  0  0  0  0  0
    4.2669   -0.1382    1.5983 H   0  0  0  0  0  0  0  0  0  0  0  0
    4.5639    2.1123    2.0146 H   0  0  0  0  0  0  0  0  0  0  0  0
    3.0577    2.6238    1.3268 H   0  0  0  0  0  0  0  0  0  0  0  0
    4.1016    2.5675   -1.0425 H   0  0  0  0  0  0  0  0  0  0  0  0
    4.6007    3.7331    0.1479 H   0  0  0  0  0  0  0  0  0  0  0  0
    6.7315    2.6694    0.5249 H   0  0  0  0  0  0  0  0  0  0  0  0
    6.4166    3.1156   -1.1764 H   0  0  0  0  0  0  0  0  0  0  0  0
    7.8319    2.2601   -2.0097 H   0  0  0  0  0  0  0  0  0  0  0  0
    7.8493    0.5055   -2.3558 H   0  0  0  0  0  0  0  0  0  0  0  0
    8.6949    1.6654    0.3382 H   0  0  0  0  0  0  0  0  0  0  0  0
    9.8550    1.5932   -0.9822 H   0  0  0  0  0  0  0  0  0  0  0  0
    7.5834   -1.6381   -0.9869 H   0  0  0  0  0  0  0  0  0  0  0  0
    7.6967   -1.6031    0.7925 H   0  0  0  0  0  0  0  0  0  0  0  0
    5.6651   -0.6228   -0.2266 H   0  0  0  0  0  0  0  0  0  0  0  0
    6.4663    0.3491    1.0441 H   0  0  0  0  0  0  0  0  0  0  0  0
    8.4798    0.7731    2.2638 H   0  0  0  0  0  0  0  0  0  0  0  0
    9.6231    0.5187    4.3800 H   0  0  0  0  0  0  0  0  0  0  0  0
   11.6329   -0.8904    4.5546 H   0  0  0  0  0  0  0  0  0  0  0  0
   12.4474   -2.0349    2.5194 H   0  0  0  0  0  0  0  0  0  0  0  0
   11.3309   -1.8032    0.3984 H   0  0  0  0  0  0  0  0  0  0  0  0
    9.0302   -2.9942   -0.6415 H   0  0  0  0  0  0  0  0  0  0  0  0
   10.2407   -4.2789   -2.3345 H   0  0  0  0  0  0  0  0  0  0  0  0
   11.7625   -3.1756   -3.8886 H   0  0  0  0  0  0  0  0  0  0  0  0
   12.0901   -0.7862   -3.7756 H   0  0  0  0  0  0  0  0  0  0  0  0
   10.9371    0.5385   -2.1410 H   0  0  0  0  0  0  0  0  0  0  0  0
   -1.3208   -0.9616    2.8587 H   0  0  0  0  0  0  0  0  0  0  0  0
   -1.0362   -1.3696    1.1638 H   0  0  0  0  0  0  0  0  0  0  0  0
   -1.5958   -2.6559    2.3169 H   0  0  0  0  0  0  0  0  0  0  0  0
   -8.4523   -1.9612    4.3722 H   0  0  0  0  0  0  0  0  0  0  0  0
   -9.4141   -2.4174    2.9576 H   0  0  0  0  0  0  0  0  0  0  0  0
   -9.5047   -0.7254    3.6896 H   0  0  0  0  0  0  0  0  0  0  0  0
   -9.1527    1.1532    0.6273 H   0  0  0  0  0  0  0  0  0  0  0  0
   -9.8890    0.3256    2.0013 H   0  0  0  0  0  0  0  0  0  0  0  0
   -9.9046   -1.8218    0.6646 H   0  0  0  0  0  0  0  0  0  0  0  0
   -9.2600   -0.9762   -0.7503 H   0  0  0  0  0  0  0  0  0  0  0  0
  -11.0491   -1.8267   -1.9166 H   0  0  0  0  0  0  0  0  0  0  0  0
  -12.6538   -0.9920   -1.7207 H   0  0  0  0  0  0  0  0  0  0  0  0
  -12.8205   -3.2375   -1.0616 H   0  0  0  0  0  0  0  0  0  0  0  0
  -11.4590   -3.1781    0.0864 H   0  0  0  0  0  0  0  0  0  0  0  0
  -12.0243   -1.6081    2.2043 H   0  0  0  0  0  0  0  0  0  0  0  0
  -13.5859   -0.7690    2.0146 H   0  0  0  0  0  0  0  0  0  0  0  0
  -11.7868    0.7128    1.4156 H   0  0  0  0  0  0  0  0  0  0  0  0
  -13.0179    0.3830    0.1045 H   0  0  0  0  0  0  0  0  0  0  0  0
   -0.6832    0.0000    0.0000 H   0  0  0  0  0  0  0  0  0  0  0  0
  1  2  1  0
  2  3  2  0
  2  4  1  0
  4  5  2  0
  5  6  1  0
  6  7  2  0
  7  8  1  0
  8  9  2  0
  8 10  1  0
 10 11  1  0
 11 12  1  0
 12 13  2  0
 12 14  1  0
 14 15  1  0
 15 16  1  0
 16 17  1  0
 17 18  1  0
 18 19  1  0
 19 20  1  0
 20 21  1  0
 21 22  1  0
 22 23  1  0
 23 24  1  0
 24 25  1  0
 25 26  1  0
 26 27  1  0
 27 28  1  0
 28 29  1  0
 27 30  1  0
 30 31  2  0
 31 32  1  0
 32 33  2  0
 33 34  1  0
 34 35  2  0
 27 36  1  0
 36 37  2  0
 37 38  1  0
 38 39  2  0
 39 40  1  0
 40 41  2  0
 11 42  2  0
 42 43  1  0
 42 44  1  0
 44 45  2  0
 45 46  1  0
 46 47  1  0
 47 48  2  0
 47 49  1  0
 49 50  1  0
 50 51  2  0
 50 52  1  0
 49 53  1  0
 53 54  1  0
 54 55  1  0
 55 56  1  0
 56 57  1  0
 57 58  1  0
 58 59  1  0
 59 60  1  0
  9  4  1  0
 46 10  2  0
 60 55  1  0
 29 24  1  0
 35 30  1  0
 41 36  1  0
 51 45  1  0
  5 62  1  0
  6 63  1  0
  7 64  1  0
  9 65  1  0
 14 66  1  0
 14 67  1  0
 15 68  1  0
 15 69  1  0
 16 70  1  0
 16 71  1  0
 17 72  1  0
 17 73  1  0
 18 74  1  0
 18 75  1  0
 19 76  1  0
 19 77  1  0
 20 78  1  0
 20 79  1  0
 21 80  1  0
 21 81  1  0
 22 82  1  0
 22 83  1  0
 23 84  1  0
 23 85  1  0
 25 86  1  0
 25 87  1  0
 26 88  1  0
 26 89  1  0
 28 90  1  0
 28 91  1  0
 29 92  1  0
 29 93  1  0
 31 94  1  0
 32 95  1  0
 33 96  1  0
 34 97  1  0
 35 98  1  0
 37 99  1  0
 38100  1  0
 39101  1  0
 40102  1  0
 41103  1  0
 43104  1  0
 43105  1  0
 43106  1  0
 52107  1  0
 52108  1  0
 52109  1  0
 53110  1  0
 53111  1  0
 54112  1  0
 54113  1  0
 56114  1  0
 56115  1  0
 57116  1  0
 57117  1  0
 59118  1  0
 59119  1  0
 60120  1  0
 60121  1  0
 61122  1  0
M  CHG  2   1  -1   2   1
M  END
>  <Ligand ID>  (1) 
LIG0003582

>  <Ligand>  (1) 
MLS002702264

>  <SMILES>  (1) 
[O-][N+](=O)c1cccc(c1)c1c(C(=O)CCCCCCCCCCN2CCC(CC2)(c2ccccc2)c2ccccc2)c(C)nc2c1c(=O)n(c(n2)C)CCN1CCOCC1.Cl

>  <CID>  (1) 
384400.0

>  <ChEMBL ID>  (1) 
nan

>  <InChiKey>  (1) 
WIDGPCWVVLXSRT-UHFFFAOYSA-N

>  <InChi>  (1) 
InChI=1S/C49H60N6O5.ClH/c1-37-44(45(39-18-17-23-42(36-39)55(58)59)46-47(50-37)51-38(2)54(48(46)57)31-30-53-32-34-60-35-33-53)43(56)24-15-7-5-3-4-6-8-16-27-52-28-25-49(26-29-52,40-19-11-9-12-20-40)41-21-13-10-14-22-41;/h9-14,17-23,36H,3-8,15-16,24-35H2,1-2H3;1H

>  <IUPAC Name>  (1) 
6-[11-(4,4-diphenylpiperidin-1-yl)undecanoyl]-2,7-dimethyl-3-(2-morpholin-4-ylethyl)-5-(3-nitrophenyl)pyrido[2,3-d]pyrimidin-4-one;hydrochloride

$$$$
