
     RDKit          3D

 57 63  0  0  0  0  0  0  0  0999 V2000
   -2.1907   -5.0582    0.2992 O   0  0  0  0  0  0  0  0  0  0  0  0
   -1.4563   -3.9260    0.5784 C   0  0  0  0  0  0  0  0  0  0  0  0
   -0.8738   -3.7132    1.8303 C   0  0  0  0  0  0  0  0  0  0  0  0
   -0.1369   -2.5565    2.0795 C   0  0  0  0  0  0  0  0  0  0  0  0
   -0.0017   -1.6269    1.0464 C   0  0  0  0  0  0  0  0  0  0  0  0
   -0.5705   -1.8225   -0.1946 C   0  0  0  0  0  0  0  0  0  0  0  0
   -1.3101   -2.9851   -0.4421 C   0  0  0  0  0  0  0  0  0  0  0  0
   -0.2695   -0.6815   -1.0982 C   0  0  2  0  0  0  0  0  0  0  0  0
    0.6248   -1.2009   -2.2037 C   0  0  0  0  0  0  0  0  0  0  0  0
    2.0468   -1.4016   -1.8172 C   0  0  0  0  0  0  0  0  0  0  0  0
    2.5037   -0.4923   -0.7878 N   0  0  0  0  0  0  0  0  0  0  0  0
    1.6814    0.7191   -0.8771 C   0  0  0  0  0  0  0  0  0  0  0  0
    0.3490    0.3239   -0.2231 C   0  0  2  0  0  0  0  0  0  0  0  0
    0.7328   -0.3352    1.0860 C   0  0  0  0  0  0  0  0  0  0  0  0
   -0.4063    1.5855    0.0142 C   0  0  0  0  0  0  0  0  0  0  0  0
   -1.8724    1.4112    0.0452 C   0  0  0  0  0  0  0  0  0  0  0  0
   -2.4237    0.4975   -0.8284 C   0  0  0  0  0  0  0  0  0  0  0  0
   -1.5573   -0.2762   -1.7617 C   0  0  0  0  0  0  0  0  0  0  0  0
   -3.7637    0.5093   -0.6215 N   0  0  0  0  0  0  0  0  0  0  0  0
   -4.0725    1.3947    0.3475 C   0  0  0  0  0  0  0  0  0  0  0  0
   -2.8900    1.9660    0.7721 C   0  0  0  0  0  0  0  0  0  0  0  0
   -2.8273    2.9249    1.7638 C   0  0  0  0  0  0  0  0  0  0  0  0
   -4.0249    3.3245    2.3549 C   0  0  0  0  0  0  0  0  0  0  0  0
   -5.2230    2.7739    1.9541 C   0  0  0  0  0  0  0  0  0  0  0  0
   -5.2535    1.8063    0.9486 C   0  0  0  0  0  0  0  0  0  0  0  0
    3.9089   -0.1896   -0.9344 C   0  0  0  0  0  0  0  0  0  0  0  0
    4.3686    0.7535    0.1387 C   0  0  0  0  0  0  0  0  0  0  0  0
    5.8567    1.1272    0.0539 C   0  0  0  0  0  0  0  0  0  0  0  0
    4.7666    2.1459   -0.1296 C   0  0  0  0  0  0  0  0  0  0  0  0
   -3.2093   -5.0913    0.3674 H   0  0  0  0  0  0  0  0  0  0  0  0
   -0.9977   -4.4617    2.6218 H   0  0  0  0  0  0  0  0  0  0  0  0
    0.3220   -2.3831    3.0572 H   0  0  0  0  0  0  0  0  0  0  0  0
   -1.7682   -3.1649   -1.4078 H   0  0  0  0  0  0  0  0  0  0  0  0
    0.2040   -2.1987   -2.5076 H   0  0  0  0  0  0  0  0  0  0  0  0
    0.4773   -0.5531   -3.1027 H   0  0  0  0  0  0  0  0  0  0  0  0
    2.6810   -1.1827   -2.7068 H   0  0  0  0  0  0  0  0  0  0  0  0
    2.2676   -2.4720   -1.5804 H   0  0  0  0  0  0  0  0  0  0  0  0
    2.1941    1.5040   -0.2813 H   0  0  0  0  0  0  0  0  0  0  0  0
    1.5197    1.0181   -1.9331 H   0  0  0  0  0  0  0  0  0  0  0  0
    0.3848    0.2952    1.9485 H   0  0  0  0  0  0  0  0  0  0  0  0
    1.8091   -0.4615    1.2314 H   0  0  0  0  0  0  0  0  0  0  0  0
   -0.1371    2.3586   -0.7350 H   0  0  0  0  0  0  0  0  0  0  0  0
   -0.1041    1.9877    1.0044 H   0  0  0  0  0  0  0  0  0  0  0  0
   -1.3947    0.2608   -2.7107 H   0  0  0  0  0  0  0  0  0  0  0  0
   -2.1030   -1.2224   -1.9923 H   0  0  0  0  0  0  0  0  0  0  0  0
   -4.4775   -0.0719   -1.1244 H   0  0  0  0  0  0  0  0  0  0  0  0
   -1.8876    3.3730    2.0950 H   0  0  0  0  0  0  0  0  0  0  0  0
   -3.9614    4.0846    3.1390 H   0  0  0  0  0  0  0  0  0  0  0  0
   -6.1191    3.1215    2.4471 H   0  0  0  0  0  0  0  0  0  0  0  0
   -6.2033    1.3735    0.6349 H   0  0  0  0  0  0  0  0  0  0  0  0
    4.1554    0.1872   -1.9458 H   0  0  0  0  0  0  0  0  0  0  0  0
    4.4538   -1.1373   -0.7888 H   0  0  0  0  0  0  0  0  0  0  0  0
    4.0281    0.4740    1.1656 H   0  0  0  0  0  0  0  0  0  0  0  0
    6.4127    0.8132   -0.8340 H   0  0  0  0  0  0  0  0  0  0  0  0
    6.4394    1.0934    0.9993 H   0  0  0  0  0  0  0  0  0  0  0  0
    4.6747    2.8797    0.6879 H   0  0  0  0  0  0  0  0  0  0  0  0
    4.6240    2.5784   -1.1425 H   0  0  0  0  0  0  0  0  0  0  0  0
  1  2  1  0
  2  3  2  0
  3  4  1  0
  4  5  2  0
  5  6  1  0
  6  7  2  0
  6  8  1  0
  8  9  1  6
  9 10  1  0
 10 11  1  0
 11 12  1  0
 13 12  1  6
 13 14  1  0
 13 15  1  0
 15 16  1  0
 16 17  2  0
 17 18  1  0
 17 19  1  0
 19 20  1  0
 20 21  2  0
 21 22  1  0
 22 23  2  0
 23 24  1  0
 24 25  2  0
 11 26  1  0
 26 27  1  0
 27 28  1  0
 28 29  1  0
  7  2  1  0
 18  8  1  0
 25 20  1  0
 29 27  1  0
 14  5  1  0
 21 16  1  0
 13  8  1  0
  1 30  1  0
  3 31  1  0
  4 32  1  0
  7 33  1  0
  9 34  1  0
  9 35  1  0
 10 36  1  0
 10 37  1  0
 12 38  1  0
 12 39  1  0
 14 40  1  0
 14 41  1  0
 15 42  1  0
 15 43  1  0
 18 44  1  0
 18 45  1  0
 19 46  1  0
 22 47  1  0
 23 48  1  0
 24 49  1  0
 25 50  1  0
 26 51  1  0
 26 52  1  0
 27 53  1  0
 28 54  1  0
 28 55  1  0
 29 56  1  0
 29 57  1  0
M  END
>  <Ligand ID>  (1) 
LIG0002958

>  <Ligand>  (1) 
CHEMBL562340

>  <SMILES>  (1) 
Oc1ccc2c(c1)[C@@]13CCN(C[C@@]3(C2)Cc2c(C1)[nH]c1c2cccc1)CC1CC1

>  <CID>  (1) 
44235490.0

>  <ChEMBL ID>  (1) 
nan

>  <InChiKey>  (1) 
KSZYKGRYELDMJF-CLJLJLNGSA-N

>  <InChi>  (1) 
InChI=1S/C26H28N2O/c29-19-8-7-18-12-25-13-21-20-3-1-2-4-23(20)27-24(21)14-26(25,22(18)11-19)9-10-28(16-25)15-17-5-6-17/h1-4,7-8,11,17,27,29H,5-6,9-10,12-16H2/t25-,26-/m1/s1

>  <IUPAC Name>  (1) 
(1S,13R)-22-(cyclopropylmethyl)-10,22-diazahexacyclo[11.7.4.01,13.03,11.04,9.014,19]tetracosa-3(11),4,6,8,14(19),15,17-heptaen-16-ol

$$$$
