
     RDKit          3D

 76 78  0  0  0  0  0  0  0  0999 V2000
   -6.0387   -0.2666   -3.0703 O   0  0  0  0  0  0  0  0  0  0  0  0
   -5.5045   -0.0954   -1.9146 C   0  0  0  0  0  0  0  0  0  0  0  0
   -4.0830   -0.2855   -1.7560 C   0  0  0  0  0  0  0  0  0  0  0  0
   -3.3694   -0.6441   -2.8963 C   0  0  0  0  0  0  0  0  0  0  0  0
   -2.0165   -0.8555   -2.9070 C   0  0  0  0  0  0  0  0  0  0  0  0
   -1.2960   -0.7146   -1.7482 C   0  0  0  0  0  0  0  0  0  0  0  0
   -1.9858   -0.3586   -0.6030 C   0  0  0  0  0  0  0  0  0  0  0  0
   -3.3637   -0.1448   -0.5982 C   0  0  0  0  0  0  0  0  0  0  0  0
   -4.0109    0.2033    0.5442 O   0  0  0  0  0  0  0  0  0  0  0  0
   -3.5109    0.4192    1.8128 C   0  0  0  0  0  0  0  0  0  0  0  0
   -3.9388    1.7954    2.2801 C   0  0  0  0  0  0  0  0  0  0  0  0
   -5.0894    1.7942    3.2267 C   0  0  0  0  0  0  0  0  0  0  0  0
   -6.0803    0.6947    3.0595 C   0  0  0  0  0  0  0  0  0  0  0  0
   -5.4943   -0.6613    2.8799 C   0  0  0  0  0  0  0  0  0  0  0  0
   -3.9806   -0.6376    2.8111 C   0  0  0  0  0  0  0  0  0  0  0  0
    0.1439   -0.9451   -1.7693 C   0  0  0  0  0  0  0  0  0  0  0  0
    0.8344   -0.6421   -2.9260 C   0  0  0  0  0  0  0  0  0  0  0  0
    2.1983   -0.8665   -2.9320 C   0  0  0  0  0  0  0  0  0  0  0  0
    2.8750   -1.3761   -1.8317 C   0  0  0  0  0  0  0  0  0  0  0  0
    2.1829   -1.6781   -0.6768 C   0  0  0  0  0  0  0  0  0  0  0  0
    0.8041   -1.4588   -0.6499 C   0  0  0  0  0  0  0  0  0  0  0  0
    4.3409   -1.5736   -1.9599 C   0  0  0  0  0  0  0  0  0  0  0  0
    5.1466   -0.3867   -1.5564 C   0  0  0  0  0  0  0  0  0  0  0  0
    4.9903    0.0503   -0.2131 N   0  0  0  0  0  0  0  0  0  0  0  0
    5.4864   -0.8073    0.8072 C   0  0  0  0  0  0  0  0  0  0  0  0
    6.9895   -0.9271    0.8300 C   0  0  1  0  0  0  0  0  0  0  0  0
    7.6277    0.4025    1.0057 C   0  0  0  0  0  0  0  0  0  0  0  0
    8.2190    1.0768   -0.0555 C   0  0  0  0  0  0  0  0  0  0  0  0
    8.8158    2.3037    0.0705 C   0  0  0  0  0  0  0  0  0  0  0  0
    8.8540    2.9361    1.2917 C   0  0  0  0  0  0  0  0  0  0  0  0
    8.2688    2.2835    2.3740 C   0  0  0  0  0  0  0  0  0  0  0  0
    7.6730    1.0495    2.2289 C   0  0  0  0  0  0  0  0  0  0  0  0
    7.3743   -1.7834    1.8603 O   0  0  0  0  0  0  0  0  0  0  0  0
   -6.4168    0.2741   -0.8992 N   0  0  0  0  0  0  0  0  0  0  0  0
   -8.1180    0.4694   -1.2337 S   0  0  0  0  0  0  0  0  0  0  0  0
   -8.9350   -0.4513   -0.3989 O   0  0  0  0  0  0  0  0  0  0  0  0
   -8.4186    1.9328   -0.9598 O   0  0  0  0  0  0  0  0  0  0  0  0
   -8.4721    0.1477   -2.9387 C   0  0  0  0  0  0  0  0  0  0  0  0
    0.6904    0.0000    0.0000 Cl  0  0  0  0  0  0  0  0  0  0  0  0
   -3.8763   -0.7769   -3.8663 H   0  0  0  0  0  0  0  0  0  0  0  0
   -1.5119   -1.1326   -3.8201 H   0  0  0  0  0  0  0  0  0  0  0  0
   -1.3753   -0.2601    0.2873 H   0  0  0  0  0  0  0  0  0  0  0  0
   -2.4212    0.3654    1.8162 H   0  0  0  0  0  0  0  0  0  0  0  0
   -3.0315    2.2907    2.7276 H   0  0  0  0  0  0  0  0  0  0  0  0
   -4.1479    2.3986    1.3668 H   0  0  0  0  0  0  0  0  0  0  0  0
   -4.6798    1.7991    4.2667 H   0  0  0  0  0  0  0  0  0  0  0  0
   -5.6409    2.7632    3.0662 H   0  0  0  0  0  0  0  0  0  0  0  0
   -6.8514    0.9259    2.2709 H   0  0  0  0  0  0  0  0  0  0  0  0
   -6.6946    0.6857    4.0086 H   0  0  0  0  0  0  0  0  0  0  0  0
   -5.8657   -1.0681    1.8984 H   0  0  0  0  0  0  0  0  0  0  0  0
   -5.8648   -1.3375    3.6603 H   0  0  0  0  0  0  0  0  0  0  0  0
   -3.5581   -1.5952    2.5027 H   0  0  0  0  0  0  0  0  0  0  0  0
   -3.5757   -0.3613    3.7955 H   0  0  0  0  0  0  0  0  0  0  0  0
    0.3809   -0.2485   -3.8074 H   0  0  0  0  0  0  0  0  0  0  0  0
    2.7556   -0.6353   -3.8289 H   0  0  0  0  0  0  0  0  0  0  0  0
    2.7076   -2.0786    0.1914 H   0  0  0  0  0  0  0  0  0  0  0  0
    0.2377   -1.6854    0.2377 H   0  0  0  0  0  0  0  0  0  0  0  0
    4.6109   -2.5056   -1.4283 H   0  0  0  0  0  0  0  0  0  0  0  0
    4.5731   -1.7858   -3.0362 H   0  0  0  0  0  0  0  0  0  0  0  0
    6.1930   -0.5568   -1.8768 H   0  0  0  0  0  0  0  0  0  0  0  0
    4.7973    0.4580   -2.2082 H   0  0  0  0  0  0  0  0  0  0  0  0
    5.2936    1.0217   -0.1250 H   0  0  0  0  0  0  0  0  0  0  0  0
    5.0079   -1.8029    0.8161 H   0  0  0  0  0  0  0  0  0  0  0  0
    5.2096   -0.3266    1.7839 H   0  0  0  0  0  0  0  0  0  0  0  0
    7.4135   -1.3619   -0.0948 H   0  0  0  0  0  0  0  0  0  0  0  0
    8.2221    0.6285   -1.0522 H   0  0  0  0  0  0  0  0  0  0  0  0
    9.2789    2.8289   -0.7661 H   0  0  0  0  0  0  0  0  0  0  0  0
    9.3221    3.8994    1.3922 H   0  0  0  0  0  0  0  0  0  0  0  0
    8.3148    2.8096    3.3302 H   0  0  0  0  0  0  0  0  0  0  0  0
    7.2283    0.5702    3.0875 H   0  0  0  0  0  0  0  0  0  0  0  0
    6.8076   -1.6943    2.6668 H   0  0  0  0  0  0  0  0  0  0  0  0
   -6.1137    0.4375    0.0510 H   0  0  0  0  0  0  0  0  0  0  0  0
   -7.9981    0.8695   -3.6342 H   0  0  0  0  0  0  0  0  0  0  0  0
   -9.5708    0.2966   -3.0832 H   0  0  0  0  0  0  0  0  0  0  0  0
   -8.2783   -0.9151   -3.1844 H   0  0  0  0  0  0  0  0  0  0  0  0
   -0.6904    0.0000    0.0000 H   0  0  0  0  0  0  0  0  0  0  0  0
  1  2  2  0
  2  3  1  0
  3  4  2  0
  4  5  1  0
  5  6  2  0
  6  7  1  0
  7  8  2  0
  8  9  1  0
  9 10  1  0
 10 11  1  0
 11 12  1  0
 12 13  1  0
 13 14  1  0
 14 15  1  0
  6 16  1  0
 16 17  2  0
 17 18  1  0
 18 19  2  0
 19 20  1  0
 20 21  2  0
 19 22  1  0
 22 23  1  0
 23 24  1  0
 24 25  1  0
 25 26  1  0
 26 27  1  0
 27 28  2  0
 28 29  1  0
 29 30  2  0
 30 31  1  0
 31 32  2  0
 26 33  1  0
  2 34  1  0
 34 35  1  0
 35 36  2  0
 35 37  2  0
 35 38  1  0
  8  3  1  0
 15 10  1  0
 21 16  1  0
 32 27  1  0
  4 40  1  0
  5 41  1  0
  7 42  1  0
 10 43  1  0
 11 44  1  0
 11 45  1  0
 12 46  1  0
 12 47  1  0
 13 48  1  0
 13 49  1  0
 14 50  1  0
 14 51  1  0
 15 52  1  0
 15 53  1  0
 17 54  1  0
 18 55  1  0
 20 56  1  0
 21 57  1  0
 22 58  1  0
 22 59  1  0
 23 60  1  0
 23 61  1  0
 24 62  1  0
 25 63  1  0
 25 64  1  0
 26 65  1  6
 28 66  1  0
 29 67  1  0
 30 68  1  0
 31 69  1  0
 32 70  1  0
 33 71  1  0
 34 72  1  0
 38 73  1  0
 38 74  1  0
 38 75  1  0
 39 76  1  0
M  END
>  <Ligand ID>  (1) 
LIG0004928

>  <Ligand>  (1) 
CHEMBL469395

>  <SMILES>  (1) 
O=C(c1ccc(cc1OC1CCCCC1)c1ccc(cc1)CCNC[C@@H](c1ccccc1)O)NS(=O)(=O)C.Cl

>  <CID>  (1) 
42639312.0

>  <ChEMBL ID>  (1) 
nan

>  <InChiKey>  (1) 
PBPYFBFMRYRLSM-JCOPYZAKSA-N

>  <InChi>  (1) 
InChI=1S/C30H36N2O5S.ClH/c1-38(35,36)32-30(34)27-17-16-25(20-29(27)37-26-10-6-3-7-11-26)23-14-12-22(13-15-23)18-19-31-21-28(33)24-8-4-2-5-9-24;/h2,4-5,8-9,12-17,20,26,28,31,33H,3,6-7,10-11,18-19,21H2,1H3,(H,32,34);1H/t28-;/m0./s1

>  <IUPAC Name>  (1) 
2-cyclohexyloxy-4-[4-[2-[[(2R)-2-hydroxy-2-phenylethyl]amino]ethyl]phenyl]-N-methylsulfonylbenzamide;hydrochloride

$$$$
