
     RDKit          3D

 47 49  0  0  0  0  0  0  0  0999 V2000
    9.1920    2.5383   -2.0901 F   0  0  0  0  0  0  0  0  0  0  0  0
    8.1026    1.9391   -1.5459 C   0  0  0  0  0  0  0  0  0  0  0  0
    7.5282    0.7987   -2.1122 C   0  0  0  0  0  0  0  0  0  0  0  0
    6.4217    0.2029   -1.5461 C   0  0  0  0  0  0  0  0  0  0  0  0
    5.8918    0.7686   -0.3944 C   0  0  0  0  0  0  0  0  0  0  0  0
    6.4631    1.8934    0.1590 C   0  0  0  0  0  0  0  0  0  0  0  0
    7.5819    2.5068   -0.4020 C   0  0  0  0  0  0  0  0  0  0  0  0
    5.7823    2.5958    1.6133 Cl  0  0  0  0  0  0  0  0  0  0  0  0
    4.7225    0.2078    0.2749 C   0  0  0  0  0  0  0  0  0  0  0  0
    4.1024    0.6567    1.4021 N   0  0  0  0  0  0  0  0  0  0  0  0
    3.0961   -0.1181    1.6758 O   0  0  0  0  0  0  0  0  0  0  0  0
    3.0035   -1.0832    0.7762 C   0  0  0  0  0  0  0  0  0  0  0  0
    4.0012   -0.8818   -0.0817 N   0  0  0  0  0  0  0  0  0  0  0  0
    1.9522   -2.1321    0.8143 C   0  0  0  0  0  0  0  0  0  0  0  0
    0.7047   -1.7272    0.0440 C   0  0  0  0  0  0  0  0  0  0  0  0
   -0.2491   -2.8888    0.1830 C   0  0  0  0  0  0  0  0  0  0  0  0
   -1.4425   -2.6873   -0.4492 O   0  0  0  0  0  0  0  0  0  0  0  0
   -2.3871   -1.7666   -0.1840 C   0  0  0  0  0  0  0  0  0  0  0  0
   -2.3931   -0.8199    0.8097 C   0  0  0  0  0  0  0  0  0  0  0  0
   -3.4174    0.0441    0.9485 N   0  0  0  0  0  0  0  0  0  0  0  0
   -4.4886    0.0503    0.1490 C   0  0  0  0  0  0  0  0  0  0  0  0
   -4.5138   -0.8761   -0.8452 N   0  0  0  0  0  0  0  0  0  0  0  0
   -3.5179   -1.7534   -1.0202 C   0  0  0  0  0  0  0  0  0  0  0  0
   -5.6253    0.9936    0.2867 C   0  0  0  0  0  0  0  0  0  0  0  0
   -5.2939    2.2116   -0.5624 C   0  0  0  0  0  0  0  0  0  0  0  0
   -6.8563    0.3336   -0.2445 C   0  0  0  0  0  0  0  0  0  0  0  0
   -5.7897    1.3856    1.7362 C   0  0  0  0  0  0  0  0  0  0  0  0
    7.9854    0.3935   -3.0200 H   0  0  0  0  0  0  0  0  0  0  0  0
    5.9631   -0.6794   -1.9690 H   0  0  0  0  0  0  0  0  0  0  0  0
    7.9817    3.3769    0.0711 H   0  0  0  0  0  0  0  0  0  0  0  0
    2.3156   -3.0872    0.3610 H   0  0  0  0  0  0  0  0  0  0  0  0
    1.7292   -2.3545    1.8663 H   0  0  0  0  0  0  0  0  0  0  0  0
    0.3251   -0.7508    0.3406 H   0  0  0  0  0  0  0  0  0  0  0  0
    0.9699   -1.6051   -1.0575 H   0  0  0  0  0  0  0  0  0  0  0  0
    0.2209   -3.8006   -0.2779 H   0  0  0  0  0  0  0  0  0  0  0  0
   -0.3272   -3.0878    1.2803 H   0  0  0  0  0  0  0  0  0  0  0  0
   -1.5978   -0.7396    1.5261 H   0  0  0  0  0  0  0  0  0  0  0  0
   -3.6044   -2.4721   -1.8418 H   0  0  0  0  0  0  0  0  0  0  0  0
   -4.5425    2.8015   -0.0152 H   0  0  0  0  0  0  0  0  0  0  0  0
   -4.8208    1.8134   -1.4964 H   0  0  0  0  0  0  0  0  0  0  0  0
   -6.1641    2.8103   -0.8402 H   0  0  0  0  0  0  0  0  0  0  0  0
   -6.6600   -0.5598   -0.8660 H   0  0  0  0  0  0  0  0  0  0  0  0
   -7.3933    1.0574   -0.9039 H   0  0  0  0  0  0  0  0  0  0  0  0
   -7.5445   -0.0102    0.5732 H   0  0  0  0  0  0  0  0  0  0  0  0
   -5.6718    0.4991    2.3618 H   0  0  0  0  0  0  0  0  0  0  0  0
   -6.7641    1.8876    1.8756 H   0  0  0  0  0  0  0  0  0  0  0  0
   -4.9717    2.1149    2.0014 H   0  0  0  0  0  0  0  0  0  0  0  0
  1  2  1  0
  2  3  2  0
  3  4  1  0
  4  5  2  0
  5  6  1  0
  6  7  2  0
  6  8  1  0
  5  9  1  0
  9 10  2  0
 10 11  1  0
 11 12  1  0
 12 13  2  0
 12 14  1  0
 14 15  1  0
 15 16  1  0
 16 17  1  0
 17 18  1  0
 18 19  2  0
 19 20  1  0
 20 21  2  0
 21 22  1  0
 22 23  2  0
 21 24  1  0
 24 25  1  0
 24 26  1  0
 24 27  1  0
  7  2  1  0
 13  9  1  0
 23 18  1  0
  3 28  1  0
  4 29  1  0
  7 30  1  0
 14 31  1  0
 14 32  1  0
 15 33  1  0
 15 34  1  0
 16 35  1  0
 16 36  1  0
 19 37  1  0
 23 38  1  0
 25 39  1  0
 25 40  1  0
 25 41  1  0
 26 42  1  0
 26 43  1  0
 26 44  1  0
 27 45  1  0
 27 46  1  0
 27 47  1  0
M  END
>  <Ligand ID>  (1) 
LIG0001476

>  <Ligand>  (1) 
CHEMBL524826

>  <SMILES>  (1) 
Fc1ccc(c(c1)Cl)c1noc(n1)CCCOc1cnc(nc1)C(C)(C)C

>  <CID>  (1) 
25034273.0

>  <ChEMBL ID>  (1) 
nan

>  <InChiKey>  (1) 
GASFAQIEJVLYMT-UHFFFAOYSA-N

>  <InChi>  (1) 
InChI=1S/C19H20ClFN4O2/c1-19(2,3)18-22-10-13(11-23-18)26-8-4-5-16-24-17(25-27-16)14-7-6-12(21)9-15(14)20/h6-7,9-11H,4-5,8H2,1-3H3

>  <IUPAC Name>  (1) 
5-[3-(2-tert-butylpyrimidin-5-yl)oxypropyl]-3-(2-chloro-4-fluorophenyl)-1,2,4-oxadiazole

$$$$
