
     RDKit          3D

 44 46  0  0  0  0  0  0  0  0999 V2000
   -7.4775    0.5304   -0.3513 O   0  0  0  0  0  0  0  0  0  0  0  0
   -6.5135   -0.4520   -0.1641 C   0  0  0  0  0  0  0  0  0  0  0  0
   -6.8276   -1.6334   -0.4760 O   0  0  0  0  0  0  0  0  0  0  0  0
   -5.2119   -0.0487    0.3778 C   0  0  0  0  0  0  0  0  0  0  0  0
   -4.3144   -1.2494    0.5042 C   0  0  0  0  0  0  0  0  0  0  0  0
   -2.9840   -0.9127    1.1238 C   0  0  0  0  0  0  0  0  0  0  0  0
   -2.3569    0.2635    0.4966 N   0  0  0  0  0  0  0  0  0  0  0  0
   -3.2541    1.3659    0.2190 C   0  0  0  0  0  0  0  0  0  0  0  0
   -4.4988    0.9187   -0.5554 C   0  0  0  0  0  0  0  0  0  0  0  0
   -0.9662    0.2797    0.2195 C   0  0  0  0  0  0  0  0  0  0  0  0
   -0.3629    1.1882   -0.6251 C   0  0  0  0  0  0  0  0  0  0  0  0
    1.0034    1.1948   -0.8719 C   0  0  0  0  0  0  0  0  0  0  0  0
    1.8348    0.2769   -0.2735 C   0  0  0  0  0  0  0  0  0  0  0  0
    1.2546   -0.6411    0.5748 C   0  0  0  0  0  0  0  0  0  0  0  0
   -0.1249   -0.6436    0.8209 C   0  0  0  0  0  0  0  0  0  0  0  0
    3.2680    0.2943   -0.5411 C   0  0  0  0  0  0  0  0  0  0  0  0
    4.1917    0.1719    0.4846 C   0  0  0  0  0  0  0  0  0  0  0  0
    5.5549    0.1843    0.2674 C   0  0  0  0  0  0  0  0  0  0  0  0
    6.0257    0.3259   -1.0399 C   0  0  0  0  0  0  0  0  0  0  0  0
    5.1162    0.4502   -2.0846 C   0  0  0  0  0  0  0  0  0  0  0  0
    3.7599    0.4351   -1.8428 C   0  0  0  0  0  0  0  0  0  0  0  0
    2.8499    0.5562   -2.8587 F   0  0  0  0  0  0  0  0  0  0  0  0
    6.5008    0.0661    1.2538 O   0  0  0  0  0  0  0  0  0  0  0  0
    7.0508   -1.1504    1.7099 C   0  0  0  0  0  0  0  0  0  0  0  0
    6.0593   -1.9748    2.2153 F   0  0  0  0  0  0  0  0  0  0  0  0
    7.6481   -1.8244    0.6502 F   0  0  0  0  0  0  0  0  0  0  0  0
    7.9959   -0.8752    2.6738 F   0  0  0  0  0  0  0  0  0  0  0  0
   -8.2686    0.4546   -0.9653 H   0  0  0  0  0  0  0  0  0  0  0  0
   -5.3040    0.4308    1.3718 H   0  0  0  0  0  0  0  0  0  0  0  0
   -4.8078   -1.9705    1.1641 H   0  0  0  0  0  0  0  0  0  0  0  0
   -4.1799   -1.7276   -0.4970 H   0  0  0  0  0  0  0  0  0  0  0  0
   -2.3418   -1.8122    1.0527 H   0  0  0  0  0  0  0  0  0  0  0  0
   -3.1372   -0.7030    2.2023 H   0  0  0  0  0  0  0  0  0  0  0  0
   -2.7591    2.0991   -0.4354 H   0  0  0  0  0  0  0  0  0  0  0  0
   -3.5945    1.8481    1.1834 H   0  0  0  0  0  0  0  0  0  0  0  0
   -4.1232    0.4070   -1.4529 H   0  0  0  0  0  0  0  0  0  0  0  0
   -5.0736    1.8343   -0.7576 H   0  0  0  0  0  0  0  0  0  0  0  0
   -0.9322    1.9437   -1.1424 H   0  0  0  0  0  0  0  0  0  0  0  0
    1.4410    1.9213   -1.5393 H   0  0  0  0  0  0  0  0  0  0  0  0
    1.9048   -1.3787    1.0588 H   0  0  0  0  0  0  0  0  0  0  0  0
   -0.4573   -1.4049    1.5049 H   0  0  0  0  0  0  0  0  0  0  0  0
    3.8526    0.0602    1.5141 H   0  0  0  0  0  0  0  0  0  0  0  0
    7.0794    0.3415   -1.2622 H   0  0  0  0  0  0  0  0  0  0  0  0
    5.4801    0.5600   -3.0982 H   0  0  0  0  0  0  0  0  0  0  0  0
  1  2  1  0
  2  3  2  0
  2  4  1  0
  4  5  1  0
  5  6  1  0
  6  7  1  0
  7  8  1  0
  8  9  1  0
  7 10  1  0
 10 11  2  0
 11 12  1  0
 12 13  2  0
 13 14  1  0
 14 15  2  0
 13 16  1  0
 16 17  2  0
 17 18  1  0
 18 19  2  0
 19 20  1  0
 20 21  2  0
 21 22  1  0
 18 23  1  0
 23 24  1  0
 24 25  1  0
 24 26  1  0
 24 27  1  0
  9  4  1  0
 15 10  1  0
 21 16  1  0
  1 28  1  0
  4 29  1  0
  5 30  1  0
  5 31  1  0
  6 32  1  0
  6 33  1  0
  8 34  1  0
  8 35  1  0
  9 36  1  0
  9 37  1  0
 11 38  1  0
 12 39  1  0
 14 40  1  0
 15 41  1  0
 17 42  1  0
 19 43  1  0
 20 44  1  0
M  END
>  <Ligand ID>  (1) 
LIG0003134

>  <Ligand>  (1) 
CHEMBL3933619

>  <SMILES>  (1) 
OC(=O)C1CCN(CC1)c1ccc(cc1)c1cc(ccc1F)OC(F)(F)F

>  <CID>  (1) 
134138802.0

>  <ChEMBL ID>  (1) 
nan

>  <InChiKey>  (1) 
NHYRADVQSJSGIQ-UHFFFAOYSA-N

>  <InChi>  (1) 
InChI=1S/C19H17F4NO3/c20-17-6-5-15(27-19(21,22)23)11-16(17)12-1-3-14(4-2-12)24-9-7-13(8-10-24)18(25)26/h1-6,11,13H,7-10H2,(H,25,26)

>  <IUPAC Name>  (1) 
1-[4-[2-fluoro-5-(trifluoromethoxy)phenyl]phenyl]piperidine-4-carboxylic acid

$$$$
