
     RDKit          3D

 26 25  0  0  0  0  0  0  0  0999 V2000
    3.4732   -0.4464   -1.2452 C   0  0  0  0  0  0  0  0  0  0  0  0
    3.3588    0.7198   -0.2848 C   0  0  0  0  0  0  0  0  0  0  0  0
    2.1403    0.5191    0.5858 C   0  0  0  0  0  0  0  0  0  0  0  0
    0.8558    0.4399   -0.2227 C   0  0  0  0  0  0  0  0  0  0  0  0
   -0.2327    0.2406    0.8165 C   0  0  0  0  0  0  0  0  0  0  0  0
   -1.5774    0.1365    0.2471 C   0  0  0  0  0  0  0  0  0  0  0  0
   -2.3220   -0.9419    0.4199 C   0  0  0  0  0  0  0  0  0  0  0  0
   -3.6605   -1.0937   -0.1238 C   0  0  0  0  0  0  0  0  0  0  0  0
   -4.3106   -2.1715    0.0922 O   0  0  0  0  0  0  0  0  0  0  0  0
   -4.2527   -0.0018   -0.9186 C   0  0  0  0  0  0  0  0  0  0  0  0
    4.5010   -0.4440   -1.7099 H   0  0  0  0  0  0  0  0  0  0  0  0
    3.3011   -1.3931   -0.6978 H   0  0  0  0  0  0  0  0  0  0  0  0
    2.6841   -0.3387   -2.0180 H   0  0  0  0  0  0  0  0  0  0  0  0
    3.3642    1.6739   -0.8110 H   0  0  0  0  0  0  0  0  0  0  0  0
    4.2310    0.6401    0.4029 H   0  0  0  0  0  0  0  0  0  0  0  0
    2.0121    1.3236    1.3136 H   0  0  0  0  0  0  0  0  0  0  0  0
    2.2312   -0.4460    1.1137 H   0  0  0  0  0  0  0  0  0  0  0  0
    0.6704    1.3624   -0.8131 H   0  0  0  0  0  0  0  0  0  0  0  0
    0.8909   -0.3913   -0.9498 H   0  0  0  0  0  0  0  0  0  0  0  0
   -0.1997    1.1728    1.4528 H   0  0  0  0  0  0  0  0  0  0  0  0
    0.0639   -0.5977    1.4465 H   0  0  0  0  0  0  0  0  0  0  0  0
   -1.9629    0.9613   -0.3248 H   0  0  0  0  0  0  0  0  0  0  0  0
   -1.8715   -1.7476    1.0126 H   0  0  0  0  0  0  0  0  0  0  0  0
   -4.2011    0.9961   -0.4106 H   0  0  0  0  0  0  0  0  0  0  0  0
   -3.8345    0.0314   -1.9264 H   0  0  0  0  0  0  0  0  0  0  0  0
   -5.3523   -0.2038   -1.0229 H   0  0  0  0  0  0  0  0  0  0  0  0
  1  2  1  0
  2  3  1  0
  3  4  1  0
  4  5  1  0
  5  6  1  0
  6  7  2  0
  7  8  1  0
  8  9  2  0
  8 10  1  0
  1 11  1  0
  1 12  1  0
  1 13  1  0
  2 14  1  0
  2 15  1  0
  3 16  1  0
  3 17  1  0
  4 18  1  0
  4 19  1  0
  5 20  1  0
  5 21  1  0
  6 22  1  0
  7 23  1  0
 10 24  1  0
 10 25  1  0
 10 26  1  0
M  END
>  <Ligand ID>  (1) 
LIG0000404

>  <Ligand>  (1) 
3-Nonen-2-one

>  <SMILES>  (1) 
CCCCC/C=C/C(=O)C

>  <CID>  (1) 
5317045.0

>  <ChEMBL ID>  (1) 
nan

>  <InChiKey>  (1) 
HDKLIZDXVUCLHQ-BQYQJAHWSA-N

>  <InChi>  (1) 
InChI=1S/C9H16O/c1-3-4-5-6-7-8-9(2)10/h7-8H,3-6H2,1-2H3/b8-7+

>  <IUPAC Name>  (1) 
(E)-non-3-en-2-one

$$$$
