
     RDKit          3D

 89 91  0  0  0  0  0  0  0  0999 V2000
    0.4280    6.4837    1.4670 N   0  0  0  0  0  0  0  0  0  0  0  0
   -0.7995    5.7843    1.7397 C   0  0  0  0  0  0  0  0  0  0  0  0
   -0.8059    4.5013    1.6483 N   0  0  0  0  0  0  0  0  0  0  0  0
   -1.9813    3.6998    1.8998 C   0  0  0  0  0  0  0  0  0  0  0  0
   -2.5441    3.3272    0.5358 C   0  0  0  0  0  0  0  0  0  0  0  0
   -1.5464    2.5514   -0.2537 C   0  0  0  0  0  0  0  0  0  0  0  0
   -1.0907    1.2603    0.3793 C   0  0  1  0  0  0  0  0  0  0  0  0
   -2.2471    0.3824    0.5714 C   0  0  0  0  0  0  0  0  0  0  0  0
   -3.2254    0.6342    1.3346 O   0  0  0  0  0  0  0  0  0  0  0  0
   -2.3263   -0.8620   -0.1308 N   0  0  0  0  0  0  0  0  0  0  0  0
   -3.4541   -1.7732    0.0237 C   0  0  2  0  0  0  0  0  0  0  0  0
   -3.0295   -3.0934    0.5043 C   0  0  0  0  0  0  0  0  0  0  0  0
   -3.7775   -4.0596    0.7715 O   0  0  0  0  0  0  0  0  0  0  0  0
   -1.6178   -3.3311    0.6978 N   0  0  0  0  0  0  0  0  0  0  0  0
   -4.2906   -1.8143   -1.2343 C   0  0  0  0  0  0  0  0  0  0  0  0
   -5.4157   -2.7454   -1.0330 C   0  0  0  0  0  0  0  0  0  0  0  0
   -5.4016   -4.0772   -1.3824 C   0  0  0  0  0  0  0  0  0  0  0  0
   -6.4516   -4.9295   -1.1901 C   0  0  0  0  0  0  0  0  0  0  0  0
   -7.6004   -4.3969   -0.6013 C   0  0  0  0  0  0  0  0  0  0  0  0
   -7.6762   -3.0719   -0.2295 C   0  0  0  0  0  0  0  0  0  0  0  0
   -6.5769   -2.2410   -0.4468 C   0  0  0  0  0  0  0  0  0  0  0  0
   -9.2716   -5.6363   -0.2665 I   0  0  0  0  0  0  0  0  0  0  0  0
   -0.1074    0.6787   -0.5348 N   0  0  0  0  0  0  0  0  0  0  0  0
    1.2609    0.4983   -0.1552 C   0  0  0  0  0  0  0  0  0  0  0  0
    1.5510    0.8705    1.0218 O   0  0  0  0  0  0  0  0  0  0  0  0
    2.2315   -0.0823   -1.0862 C   0  0  2  0  0  0  0  0  0  0  0  0
    3.4790   -0.2905   -0.3072 N   0  0  0  0  0  0  0  0  0  0  0  0
    3.9270   -1.6290   -0.1461 C   0  0  0  0  0  0  0  0  0  0  0  0
    3.2688   -2.6007   -0.6527 O   0  0  0  0  0  0  0  0  0  0  0  0
    5.1541   -2.0008    0.5963 C   0  0  2  0  0  0  0  0  0  0  0  0
    4.9204   -3.0964    1.5826 C   0  0  0  0  0  0  0  0  0  0  0  0
    3.9430   -2.8082    2.6376 C   0  0  0  0  0  0  0  0  0  0  0  0
    3.1981   -1.7425    2.9198 N   0  0  0  0  0  0  0  0  0  0  0  0
    2.4308   -1.9418    4.0072 C   0  0  0  0  0  0  0  0  0  0  0  0
    2.7067   -3.1808    4.4213 N   0  0  0  0  0  0  0  0  0  0  0  0
    3.6145   -3.7422    3.6250 C   0  0  0  0  0  0  0  0  0  0  0  0
    5.8455   -0.8585    1.1568 N   0  0  0  0  0  0  0  0  0  0  0  0
    7.1343   -0.4880    0.6415 C   0  0  0  0  0  0  0  0  0  0  0  0
    7.6772   -1.1518   -0.3048 O   0  0  0  0  0  0  0  0  0  0  0  0
    7.8955    0.6766    1.1789 C   0  0  0  0  0  0  0  0  0  0  0  0
    2.6237    0.8080   -2.2405 C   0  0  0  0  0  0  0  0  0  0  0  0
    1.4900    1.2097   -3.0886 C   0  0  0  0  0  0  0  0  0  0  0  0
    1.0039    0.4465   -4.1346 C   0  0  0  0  0  0  0  0  0  0  0  0
   -0.0449    0.8870   -4.9165 C   0  0  0  0  0  0  0  0  0  0  0  0
   -0.5868    2.1199   -4.6094 C   0  0  0  0  0  0  0  0  0  0  0  0
   -0.1329    2.9048   -3.5816 C   0  0  0  0  0  0  0  0  0  0  0  0
    0.9130    2.4566   -2.8080 C   0  0  0  0  0  0  0  0  0  0  0  0
   -2.1865    2.8085   -5.7933 I   0  0  0  0  0  0  0  0  0  0  0  0
   -1.9688    6.5049    2.0998 N   0  0  0  0  0  0  0  0  0  0  0  0
    1.1997    6.5065    2.1637 H   0  0  0  0  0  0  0  0  0  0  0  0
    0.5772    6.9845    0.5649 H   0  0  0  0  0  0  0  0  0  0  0  0
   -1.7257    2.7847    2.4851 H   0  0  0  0  0  0  0  0  0  0  0  0
   -2.7576    4.2791    2.4294 H   0  0  0  0  0  0  0  0  0  0  0  0
   -3.5141    2.8210    0.6958 H   0  0  0  0  0  0  0  0  0  0  0  0
   -2.7192    4.2977   -0.0029 H   0  0  0  0  0  0  0  0  0  0  0  0
   -0.6429    3.2238   -0.3623 H   0  0  0  0  0  0  0  0  0  0  0  0
   -1.8612    2.3677   -1.2999 H   0  0  0  0  0  0  0  0  0  0  0  0
   -0.5966    1.5172    1.3484 H   0  0  0  0  0  0  0  0  0  0  0  0
   -1.5735   -1.1796   -0.7909 H   0  0  0  0  0  0  0  0  0  0  0  0
   -4.1307   -1.2917    0.7899 H   0  0  0  0  0  0  0  0  0  0  0  0
   -1.0923   -3.6506   -0.1321 H   0  0  0  0  0  0  0  0  0  0  0  0
   -1.1594   -3.1869    1.6269 H   0  0  0  0  0  0  0  0  0  0  0  0
   -3.7061   -2.1846   -2.1104 H   0  0  0  0  0  0  0  0  0  0  0  0
   -4.6643   -0.7817   -1.4123 H   0  0  0  0  0  0  0  0  0  0  0  0
   -4.4931   -4.4893   -1.8453 H   0  0  0  0  0  0  0  0  0  0  0  0
   -6.4237   -5.9830   -1.4749 H   0  0  0  0  0  0  0  0  0  0  0  0
   -8.5821   -2.6495    0.2370 H   0  0  0  0  0  0  0  0  0  0  0  0
   -6.6447   -1.1941   -0.1507 H   0  0  0  0  0  0  0  0  0  0  0  0
   -0.4807    0.3988   -1.4688 H   0  0  0  0  0  0  0  0  0  0  0  0
    1.8842   -1.0521   -1.4306 H   0  0  0  0  0  0  0  0  0  0  0  0
    4.0029    0.5076    0.1021 H   0  0  0  0  0  0  0  0  0  0  0  0
    5.8673   -2.4047   -0.1889 H   0  0  0  0  0  0  0  0  0  0  0  0
    4.6601   -4.0463    1.0243 H   0  0  0  0  0  0  0  0  0  0  0  0
    5.8802   -3.3646    2.1011 H   0  0  0  0  0  0  0  0  0  0  0  0
    3.1963   -0.8590    2.3856 H   0  0  0  0  0  0  0  0  0  0  0  0
    1.7456   -1.2278    4.4300 H   0  0  0  0  0  0  0  0  0  0  0  0
    3.9959   -4.7415    3.7577 H   0  0  0  0  0  0  0  0  0  0  0  0
    5.4784   -0.2670    1.9222 H   0  0  0  0  0  0  0  0  0  0  0  0
    8.3529    1.2641    0.3610 H   0  0  0  0  0  0  0  0  0  0  0  0
    8.7196    0.2811    1.8293 H   0  0  0  0  0  0  0  0  0  0  0  0
    7.2043    1.2466    1.8203 H   0  0  0  0  0  0  0  0  0  0  0  0
    3.3759    0.2569   -2.8715 H   0  0  0  0  0  0  0  0  0  0  0  0
    3.1670    1.7144   -1.8902 H   0  0  0  0  0  0  0  0  0  0  0  0
    1.4791   -0.5224   -4.3246 H   0  0  0  0  0  0  0  0  0  0  0  0
   -0.4355    0.2837   -5.7501 H   0  0  0  0  0  0  0  0  0  0  0  0
   -0.6158    3.8568   -3.4086 H   0  0  0  0  0  0  0  0  0  0  0  0
    1.2661    3.0798   -1.9982 H   0  0  0  0  0  0  0  0  0  0  0  0
   -1.9270    7.0582    2.9789 H   0  0  0  0  0  0  0  0  0  0  0  0
   -2.8455    6.4971    1.5262 H   0  0  0  0  0  0  0  0  0  0  0  0
  1  2  1  0
  2  3  2  3
  3  4  1  0
  4  5  1  0
  5  6  1  0
  6  7  1  0
  7  8  1  0
  8  9  2  0
  8 10  1  0
 10 11  1  0
 11 12  1  0
 12 13  2  0
 12 14  1  0
 11 15  1  0
 15 16  1  0
 16 17  2  0
 17 18  1  0
 18 19  2  0
 19 20  1  0
 20 21  2  0
 19 22  1  0
  7 23  1  0
 23 24  1  0
 24 25  2  0
 24 26  1  0
 26 27  1  0
 27 28  1  0
 28 29  2  0
 28 30  1  0
 30 31  1  0
 31 32  1  0
 32 33  1  0
 33 34  1  0
 34 35  2  0
 35 36  1  0
 30 37  1  0
 37 38  1  0
 38 39  2  0
 38 40  1  0
 26 41  1  0
 41 42  1  0
 42 43  2  0
 43 44  1  0
 44 45  2  0
 45 46  1  0
 46 47  2  0
 45 48  1  0
  2 49  1  0
 21 16  1  0
 36 32  2  0
 47 42  1  0
  1 50  1  0
  1 51  1  0
  4 52  1  0
  4 53  1  0
  5 54  1  0
  5 55  1  0
  6 56  1  0
  6 57  1  0
  7 58  1  1
 10 59  1  0
 11 60  1  1
 14 61  1  0
 14 62  1  0
 15 63  1  0
 15 64  1  0
 17 65  1  0
 18 66  1  0
 20 67  1  0
 21 68  1  0
 23 69  1  0
 26 70  1  6
 27 71  1  0
 30 72  1  6
 31 73  1  0
 31 74  1  0
 33 75  1  0
 34 76  1  0
 36 77  1  0
 37 78  1  0
 40 79  1  0
 40 80  1  0
 40 81  1  0
 41 82  1  0
 41 83  1  0
 43 84  1  0
 44 85  1  0
 46 86  1  0
 47 87  1  0
 49 88  1  0
 49 89  1  0
M  END
>  <Ligand ID>  (1) 
LIG0000886

>  <Ligand>  (1) 
CHEMBL3287323

>  <SMILES>  (1) 
NC(=NCCC[C@@H](C(=O)N[C@H](C(=O)N)Cc1ccc(cc1)I)NC(=O)[C@H](NC(=O)[C@H](Cc1[nH]cnc1)NC(=O)C)Cc1ccc(cc1)I)N

>  <CID>  (1) 
90643803.0

>  <ChEMBL ID>  (1) 
nan

>  <InChiKey>  (1) 
VRQUIVOUDQMPCM-NFGXINMFSA-N

>  <InChi>  (1) 
InChI=1S/C32H40I2N10O5/c1-18(45)41-27(15-23-16-38-17-40-23)31(49)44-26(14-20-6-10-22(34)11-7-20)30(48)42-24(3-2-12-39-32(36)37)29(47)43-25(28(35)46)13-19-4-8-21(33)9-5-19/h4-11,16-17,24-27H,2-3,12-15H2,1H3,(H2,35,46)(H,38,40)(H,41,45)(H,42,48)(H,43,47)(H,44,49)(H4,36,37,39)/t24-,25-,26+,27-/m0/s1

>  <IUPAC Name>  (1) 
(2S)-2-[[(2R)-2-[[(2S)-2-acetamido-3-(1H-imidazol-5-yl)propanoyl]amino]-3-(4-iodophenyl)propanoyl]amino]-N-[(2S)-1-amino-3-(4-iodophenyl)-1-oxopropan-2-yl]-5-(diaminomethylideneamino)pentanamide

$$$$
