
     RDKit          3D

 44 47  0  0  0  0  0  0  0  0999 V2000
   -2.3706    3.6863    0.3861 C   0  0  0  0  0  0  0  0  0  0  0  0
   -1.6440    2.3872    0.2908 C   0  0  0  0  0  0  0  0  0  0  0  0
   -0.4092    2.1375    0.7866 N   0  0  0  0  0  0  0  0  0  0  0  0
   -0.0621    0.8817    0.5279 N   0  0  0  0  0  0  0  0  0  0  0  0
   -1.0492    0.2808   -0.1372 C   0  0  0  0  0  0  0  0  0  0  0  0
   -2.0560    1.2295   -0.2914 C   0  0  0  0  0  0  0  0  0  0  0  0
   -3.1938    0.6353   -1.0266 C   0  0  1  0  0  0  0  0  0  0  0  0
   -2.8238   -0.7286   -1.3885 C   0  0  1  0  0  0  0  0  0  0  0  0
   -1.4791   -0.9753   -0.7602 C   0  0  0  0  0  0  0  0  0  0  0  0
   -3.9926   -0.4335   -0.4399 C   0  0  0  0  0  0  0  0  0  0  0  0
   -5.3860   -0.5937   -0.9468 C   0  0  0  0  0  0  0  0  0  0  0  0
   -3.7501   -0.9593    0.9525 C   0  0  0  0  0  0  0  0  0  0  0  0
    1.2126    0.3385    0.9420 C   0  0  0  0  0  0  0  0  0  0  0  0
    1.9592    1.1317    1.5561 O   0  0  0  0  0  0  0  0  0  0  0  0
    1.4823   -1.0487    0.6041 C   0  0  0  0  0  0  0  0  0  0  0  0
    2.7935   -1.6177    0.9971 C   0  0  0  0  0  0  0  0  0  0  0  0
    3.9750   -0.9535    0.4201 C   0  0  0  0  0  0  0  0  0  0  0  0
    4.7112    0.0266    1.0359 C   0  0  0  0  0  0  0  0  0  0  0  0
    5.8107    0.6200    0.4133 C   0  0  0  0  0  0  0  0  0  0  0  0
    6.1965    0.2408   -0.8449 C   0  0  0  0  0  0  0  0  0  0  0  0
    5.4635   -0.7468   -1.4776 C   0  0  0  0  0  0  0  0  0  0  0  0
    4.3822   -1.3244   -0.8554 C   0  0  0  0  0  0  0  0  0  0  0  0
   -1.9946    4.3008    1.2350 H   0  0  0  0  0  0  0  0  0  0  0  0
   -3.4465    3.4226    0.5179 H   0  0  0  0  0  0  0  0  0  0  0  0
   -2.2737    4.3071   -0.5297 H   0  0  0  0  0  0  0  0  0  0  0  0
   -3.6721    1.2976   -1.7968 H   0  0  0  0  0  0  0  0  0  0  0  0
   -3.1336   -1.2677   -2.2906 H   0  0  0  0  0  0  0  0  0  0  0  0
   -0.7897   -1.2000   -1.6078 H   0  0  0  0  0  0  0  0  0  0  0  0
   -1.4767   -1.8583   -0.0905 H   0  0  0  0  0  0  0  0  0  0  0  0
   -5.3641   -0.6880   -2.0570 H   0  0  0  0  0  0  0  0  0  0  0  0
   -6.0134    0.2858   -0.6225 H   0  0  0  0  0  0  0  0  0  0  0  0
   -5.9118   -1.4759   -0.5224 H   0  0  0  0  0  0  0  0  0  0  0  0
   -2.7799   -0.6325    1.3755 H   0  0  0  0  0  0  0  0  0  0  0  0
   -4.6009   -0.7081    1.6258 H   0  0  0  0  0  0  0  0  0  0  0  0
   -3.7130   -2.0661    0.8838 H   0  0  0  0  0  0  0  0  0  0  0  0
    0.6660   -1.7442    0.9642 H   0  0  0  0  0  0  0  0  0  0  0  0
    1.4086   -1.1481   -0.5138 H   0  0  0  0  0  0  0  0  0  0  0  0
    2.8557   -2.6915    0.6482 H   0  0  0  0  0  0  0  0  0  0  0  0
    2.9315   -1.7012    2.0997 H   0  0  0  0  0  0  0  0  0  0  0  0
    4.4775    0.3609    2.0160 H   0  0  0  0  0  0  0  0  0  0  0  0
    6.3700    1.3994    0.9421 H   0  0  0  0  0  0  0  0  0  0  0  0
    7.0542    0.7178   -1.3055 H   0  0  0  0  0  0  0  0  0  0  0  0
    5.7837   -1.0296   -2.4650 H   0  0  0  0  0  0  0  0  0  0  0  0
    3.8525   -2.0949   -1.4134 H   0  0  0  0  0  0  0  0  0  0  0  0
  1  2  1  0
  2  3  2  0
  3  4  1  0
  4  5  1  0
  5  6  2  0
  6  7  1  0
  7  8  1  0
  8  9  1  0
  8 10  1  0
 10 11  1  0
 10 12  1  0
  4 13  1  0
 13 14  2  0
 13 15  1  0
 15 16  1  0
 16 17  1  0
 17 18  2  0
 18 19  1  0
 19 20  2  0
 20 21  1  0
 21 22  2  0
  6  2  1  0
 10  7  1  0
 22 17  1  0
  9  5  1  0
  1 23  1  0
  1 24  1  0
  1 25  1  0
  7 26  1  6
  8 27  1  6
  9 28  1  0
  9 29  1  0
 11 30  1  0
 11 31  1  0
 11 32  1  0
 12 33  1  0
 12 34  1  0
 12 35  1  0
 15 36  1  0
 15 37  1  0
 16 38  1  0
 16 39  1  0
 18 40  1  0
 19 41  1  0
 20 42  1  0
 21 43  1  0
 22 44  1  0
M  END
>  <Ligand ID>  (1) 
LIG0003974

>  <Ligand>  (1) 
CHEMBL596052

>  <SMILES>  (1) 
Cc1nn(c2c1[C@H]1[C@@H](C2)C1(C)C)C(=O)CCc1ccccc1

>  <CID>  (1) 
904918.0

>  <ChEMBL ID>  (1) 
nan

>  <InChiKey>  (1) 
WTJVTHPFXIYQHY-RDTXWAMCSA-N

>  <InChi>  (1) 
InChI=1S/C19H22N2O/c1-12-17-15(11-14-18(17)19(14,2)3)21(20-12)16(22)10-9-13-7-5-4-6-8-13/h4-8,14,18H,9-11H2,1-3H3/t14-,18-/m1/s1

>  <IUPAC Name>  (1) 
3-phenyl-1-[(2S,4R)-3,3,9-trimethyl-7,8-diazatricyclo[4.3.0.02,4]nona-1(6),8-dien-7-yl]propan-1-one

$$$$
