
     RDKit          3D

 50 52  0  0  0  0  0  0  0  0999 V2000
    9.6542    0.3512   -0.4702 Cl  0  0  0  0  0  0  0  0  0  0  0  0
    7.9488   -0.0269   -0.6552 C   0  0  0  0  0  0  0  0  0  0  0  0
    7.4865   -0.7255   -1.7672 C   0  0  0  0  0  0  0  0  0  0  0  0
    6.1335   -0.9763   -1.8351 C   0  0  0  0  0  0  0  0  0  0  0  0
    5.2480   -0.5542   -0.8388 C   0  0  0  0  0  0  0  0  0  0  0  0
    5.6968    0.1293    0.2511 C   0  0  0  0  0  0  0  0  0  0  0  0
    7.0729    0.3776    0.3083 C   0  0  0  0  0  0  0  0  0  0  0  0
    4.8962    0.6251    1.3760 C   0  0  2  0  0  0  0  0  0  0  0  0
    3.4239    0.6628    1.1960 C   0  0  0  0  0  0  0  0  0  0  0  0
    2.7814   -0.5658    0.8847 N   0  0  0  0  0  0  0  0  0  0  0  0
    1.3541   -0.4499    0.8402 C   0  0  0  0  0  0  0  0  0  0  0  0
    0.8002    0.3773   -0.2787 C   0  0  0  0  0  0  0  0  0  0  0  0
   -0.6935    0.3387   -0.1056 C   0  0  0  0  0  0  0  0  0  0  0  0
   -1.3937   -0.6833   -0.7416 C   0  0  0  0  0  0  0  0  0  0  0  0
   -2.7578   -0.7716   -0.5952 C   0  0  0  0  0  0  0  0  0  0  0  0
   -3.4433    0.1609    0.1896 C   0  0  0  0  0  0  0  0  0  0  0  0
   -2.7265    1.1620    0.8069 C   0  0  0  0  0  0  0  0  0  0  0  0
   -1.3520    1.2835    0.6829 C   0  0  0  0  0  0  0  0  0  0  0  0
   -4.9000    0.0709    0.3661 C   0  0  0  0  0  0  0  0  0  0  0  0
   -5.5307    0.4873    1.5196 C   0  0  0  0  0  0  0  0  0  0  0  0
   -6.9009    0.3827    1.6672 C   0  0  0  0  0  0  0  0  0  0  0  0
   -7.6180   -0.1614    0.6017 C   0  0  0  0  0  0  0  0  0  0  0  0
   -7.0116   -0.5819   -0.5547 C   0  0  0  0  0  0  0  0  0  0  0  0
   -5.6328   -0.4702   -0.6901 C   0  0  0  0  0  0  0  0  0  0  0  0
   -7.8264   -1.1445   -1.6200 C   0  0  0  0  0  0  0  0  0  0  0  0
   -9.0641   -1.2461   -1.4789 O   0  0  0  0  0  0  0  0  0  0  0  0
   -7.2974   -1.5942   -2.8320 O   0  0  0  0  0  0  0  0  0  0  0  0
    5.3241    1.9488    1.6563 O   0  0  0  0  0  0  0  0  0  0  0  0
    8.1585   -1.0589   -2.5477 H   0  0  0  0  0  0  0  0  0  0  0  0
    5.7456   -1.5202   -2.6926 H   0  0  0  0  0  0  0  0  0  0  0  0
    4.2084   -0.7733   -0.9390 H   0  0  0  0  0  0  0  0  0  0  0  0
    7.4806    0.9255    1.1698 H   0  0  0  0  0  0  0  0  0  0  0  0
    5.1600    0.0717    2.3153 H   0  0  0  0  0  0  0  0  0  0  0  0
    3.0010    1.0082    2.1910 H   0  0  0  0  0  0  0  0  0  0  0  0
    3.1133    1.4524    0.4819 H   0  0  0  0  0  0  0  0  0  0  0  0
    3.0865   -1.4048    1.3745 H   0  0  0  0  0  0  0  0  0  0  0  0
    1.0452    0.0378    1.8105 H   0  0  0  0  0  0  0  0  0  0  0  0
    0.8722   -1.4549    0.8824 H   0  0  0  0  0  0  0  0  0  0  0  0
    1.0798    1.4383   -0.2220 H   0  0  0  0  0  0  0  0  0  0  0  0
    1.0902    0.0098   -1.2636 H   0  0  0  0  0  0  0  0  0  0  0  0
   -0.8828   -1.4253   -1.3593 H   0  0  0  0  0  0  0  0  0  0  0  0
   -3.3533   -1.5513   -1.0714 H   0  0  0  0  0  0  0  0  0  0  0  0
   -3.3047    1.8758    1.4172 H   0  0  0  0  0  0  0  0  0  0  0  0
   -0.8009    2.0784    1.1747 H   0  0  0  0  0  0  0  0  0  0  0  0
   -4.9394    0.9110    2.3364 H   0  0  0  0  0  0  0  0  0  0  0  0
   -7.4120    0.7107    2.5802 H   0  0  0  0  0  0  0  0  0  0  0  0
   -8.7098   -0.2392    0.7325 H   0  0  0  0  0  0  0  0  0  0  0  0
   -5.1679   -0.8057   -1.6092 H   0  0  0  0  0  0  0  0  0  0  0  0
   -7.7321   -1.2994   -3.7062 H   0  0  0  0  0  0  0  0  0  0  0  0
    4.5898    2.6074    1.4733 H   0  0  0  0  0  0  0  0  0  0  0  0
  1  2  1  0
  2  3  2  0
  3  4  1  0
  4  5  2  0
  5  6  1  0
  6  7  2  0
  6  8  1  0
  8  9  1  0
  9 10  1  0
 10 11  1  0
 11 12  1  0
 12 13  1  0
 13 14  2  0
 14 15  1  0
 15 16  2  0
 16 17  1  0
 17 18  2  0
 16 19  1  0
 19 20  2  0
 20 21  1  0
 21 22  2  0
 22 23  1  0
 23 24  2  0
 23 25  1  0
 25 26  2  0
 25 27  1  0
  8 28  1  0
  7  2  1  0
 18 13  1  0
 24 19  1  0
  3 29  1  0
  4 30  1  0
  5 31  1  0
  7 32  1  0
  8 33  1  1
  9 34  1  0
  9 35  1  0
 10 36  1  0
 11 37  1  0
 11 38  1  0
 12 39  1  0
 12 40  1  0
 14 41  1  0
 15 42  1  0
 17 43  1  0
 18 44  1  0
 20 45  1  0
 21 46  1  0
 22 47  1  0
 24 48  1  0
 27 49  1  0
 28 50  1  0
M  END
>  <Ligand ID>  (1) 
LIG0005800

>  <Ligand>  (1) 
CHEMBL260100

>  <SMILES>  (1) 
Clc1cccc(c1)[C@H](CNCCc1ccc(cc1)c1cccc(c1)C(=O)O)O

>  <CID>  (1) 
24822313.0

>  <ChEMBL ID>  (1) 
nan

>  <InChiKey>  (1) 
RHIYTZJWYZYGSK-QFIPXVFZSA-N

>  <InChi>  (1) 
InChI=1S/C23H22ClNO3/c24-21-6-2-4-19(14-21)22(26)15-25-12-11-16-7-9-17(10-8-16)18-3-1-5-20(13-18)23(27)28/h1-10,13-14,22,25-26H,11-12,15H2,(H,27,28)/t22-/m0/s1

>  <IUPAC Name>  (1) 
3-[4-[2-[[(2R)-2-(3-chlorophenyl)-2-hydroxyethyl]amino]ethyl]phenyl]benzoic acid

$$$$
