
     RDKit          3D

 79 82  0  0  0  0  0  0  0  0999 V2000
    6.5634   -2.1122   -1.2905 C   0  0  0  0  0  0  0  0  0  0  0  0
    5.5930   -2.0447   -0.1310 C   0  0  0  0  0  0  0  0  0  0  0  0
    5.4708   -0.6203    0.3032 C   0  0  1  0  0  0  0  0  0  0  0  0
    4.9803    0.3210   -0.7122 C   0  0  0  0  0  0  0  0  0  0  0  0
    5.8775    1.1281   -1.4298 C   0  0  0  0  0  0  0  0  0  0  0  0
    5.4870    2.0290   -2.3847 C   0  0  0  0  0  0  0  0  0  0  0  0
    6.6790    3.0077   -3.2431 Cl  0  0  0  0  0  0  0  0  0  0  0  0
    4.1771    2.1956   -2.6982 C   0  0  0  0  0  0  0  0  0  0  0  0
    3.2523    1.4207   -2.0166 C   0  0  0  0  0  0  0  0  0  0  0  0
    3.6469    0.4990   -1.0405 C   0  0  0  0  0  0  0  0  0  0  0  0
    2.5976   -0.2661   -0.3830 C   0  0  0  0  0  0  0  0  0  0  0  0
    1.9411    0.6045    0.6660 C   0  0  0  0  0  0  0  0  0  0  0  0
    0.8415   -0.2731    1.2814 C   0  0  0  0  0  0  0  0  0  0  0  0
   -0.2274   -0.2482    0.2707 N   0  0  0  0  0  0  0  0  0  0  0  0
    0.1898    0.0074   -1.0838 C   0  0  0  0  0  0  0  0  0  0  0  0
    1.5171   -0.6174   -1.4041 C   0  0  0  0  0  0  0  0  0  0  0  0
   -1.5455   -0.4773    0.7024 C   0  0  0  0  0  0  0  0  0  0  0  0
   -1.7307   -0.7104    1.9239 O   0  0  0  0  0  0  0  0  0  0  0  0
   -2.7462   -0.4660   -0.1739 C   0  0  2  0  0  0  0  0  0  0  0  0
   -2.9100    0.9438   -0.7607 C   0  0  0  0  0  0  0  0  0  0  0  0
   -4.3226    1.0479   -1.0662 N   0  0  0  0  0  0  0  0  0  0  0  0
   -5.0180    0.1685   -0.1910 C   0  0  0  0  0  0  0  0  0  0  0  0
   -4.0113   -0.6372    0.5678 C   0  0  1  0  0  0  0  0  0  0  0  0
   -4.4545   -2.0027    0.8604 C   0  0  0  0  0  0  0  0  0  0  0  0
   -5.0124   -2.3054    2.1133 C   0  0  0  0  0  0  0  0  0  0  0  0
   -5.4373   -3.5601    2.4455 C   0  0  0  0  0  0  0  0  0  0  0  0
   -5.3397   -4.5941    1.5671 C   0  0  0  0  0  0  0  0  0  0  0  0
   -4.7970   -4.3462    0.3200 C   0  0  0  0  0  0  0  0  0  0  0  0
   -4.3677   -3.0681   -0.0097 C   0  0  0  0  0  0  0  0  0  0  0  0
   -3.8565   -2.9084   -1.2515 F   0  0  0  0  0  0  0  0  0  0  0  0
   -5.8599   -6.2310    1.9130 Cl  0  0  0  0  0  0  0  0  0  0  0  0
   -4.7888    2.3964   -1.1166 C   0  0  0  0  0  0  0  0  0  0  0  0
   -4.0024    3.1021   -2.2048 C   0  0  0  0  0  0  0  0  0  0  0  0
   -4.5785    3.1711    0.1528 C   0  0  0  0  0  0  0  0  0  0  0  0
   -6.2398    2.4377   -1.4792 C   0  0  0  0  0  0  0  0  0  0  0  0
    5.0366   -0.4080    1.6516 N   0  0  0  0  0  0  0  0  0  0  0  0
    5.9031    0.2370    2.6230 C   0  0  0  0  0  0  0  0  0  0  0  0
    7.0570    0.6269    2.3161 O   0  0  0  0  0  0  0  0  0  0  0  0
    5.4502    0.4596    4.0256 C   0  0  0  0  0  0  0  0  0  0  0  0
    7.4459   -1.5332   -0.9977 H   0  0  0  0  0  0  0  0  0  0  0  0
    6.0717   -1.7130   -2.2065 H   0  0  0  0  0  0  0  0  0  0  0  0
    6.8358   -3.1807   -1.4198 H   0  0  0  0  0  0  0  0  0  0  0  0
    4.7033   -2.5716   -0.4235 H   0  0  0  0  0  0  0  0  0  0  0  0
    6.0577   -2.5908    0.7272 H   0  0  0  0  0  0  0  0  0  0  0  0
    6.5932   -0.3326    0.3973 H   0  0  0  0  0  0  0  0  0  0  0  0
    6.9552    1.0631   -1.2460 H   0  0  0  0  0  0  0  0  0  0  0  0
    3.8573    2.9016   -3.4482 H   0  0  0  0  0  0  0  0  0  0  0  0
    2.2191    1.5815   -2.2842 H   0  0  0  0  0  0  0  0  0  0  0  0
    2.9088   -1.1732    0.1658 H   0  0  0  0  0  0  0  0  0  0  0  0
    2.6013    0.9984    1.4317 H   0  0  0  0  0  0  0  0  0  0  0  0
    1.4208    1.4767    0.2114 H   0  0  0  0  0  0  0  0  0  0  0  0
    0.5040    0.1238    2.2441 H   0  0  0  0  0  0  0  0  0  0  0  0
    1.2447   -1.3004    1.3088 H   0  0  0  0  0  0  0  0  0  0  0  0
    0.0908    1.0607   -1.3778 H   0  0  0  0  0  0  0  0  0  0  0  0
   -0.5718   -0.5352   -1.7237 H   0  0  0  0  0  0  0  0  0  0  0  0
    1.3352   -1.7173   -1.4165 H   0  0  0  0  0  0  0  0  0  0  0  0
    1.7913   -0.3599   -2.4382 H   0  0  0  0  0  0  0  0  0  0  0  0
   -2.5461   -1.1090   -1.0227 H   0  0  0  0  0  0  0  0  0  0  0  0
   -2.2741    1.1228   -1.6291 H   0  0  0  0  0  0  0  0  0  0  0  0
   -2.7155    1.6249    0.0898 H   0  0  0  0  0  0  0  0  0  0  0  0
   -5.7564    0.6731    0.4634 H   0  0  0  0  0  0  0  0  0  0  0  0
   -5.6073   -0.5532   -0.8031 H   0  0  0  0  0  0  0  0  0  0  0  0
   -3.8363   -0.1387    1.5812 H   0  0  0  0  0  0  0  0  0  0  0  0
   -5.1210   -1.5140    2.8708 H   0  0  0  0  0  0  0  0  0  0  0  0
   -5.8632   -3.7541    3.4245 H   0  0  0  0  0  0  0  0  0  0  0  0
   -4.7025   -5.1603   -0.4173 H   0  0  0  0  0  0  0  0  0  0  0  0
   -3.0084    3.3743   -1.7742 H   0  0  0  0  0  0  0  0  0  0  0  0
   -3.8102    2.4244   -3.0508 H   0  0  0  0  0  0  0  0  0  0  0  0
   -4.5343    4.0214   -2.5047 H   0  0  0  0  0  0  0  0  0  0  0  0
   -3.5752    3.6653    0.1528 H   0  0  0  0  0  0  0  0  0  0  0  0
   -5.3211    3.9959    0.2378 H   0  0  0  0  0  0  0  0  0  0  0  0
   -4.6562    2.5676    1.0592 H   0  0  0  0  0  0  0  0  0  0  0  0
   -6.4639    2.0972   -2.5111 H   0  0  0  0  0  0  0  0  0  0  0  0
   -6.5433    3.5247   -1.4619 H   0  0  0  0  0  0  0  0  0  0  0  0
   -6.8794    1.9470   -0.7187 H   0  0  0  0  0  0  0  0  0  0  0  0
    4.1159   -0.6902    2.0542 H   0  0  0  0  0  0  0  0  0  0  0  0
    5.3966    1.5790    4.1606 H   0  0  0  0  0  0  0  0  0  0  0  0
    6.1894    0.1034    4.7653 H   0  0  0  0  0  0  0  0  0  0  0  0
    4.4331    0.0934    4.2025 H   0  0  0  0  0  0  0  0  0  0  0  0
  1  2  1  0
  2  3  1  0
  3  4  1  0
  4  5  2  0
  5  6  1  0
  6  7  1  0
  6  8  2  0
  8  9  1  0
  9 10  2  0
 10 11  1  0
 11 12  1  0
 12 13  1  0
 13 14  1  0
 14 15  1  0
 15 16  1  0
 14 17  1  0
 17 18  2  0
 17 19  1  0
 19 20  1  0
 20 21  1  0
 21 22  1  0
 22 23  1  0
 23 24  1  0
 24 25  2  0
 25 26  1  0
 26 27  2  0
 27 28  1  0
 28 29  2  0
 29 30  1  0
 27 31  1  0
 21 32  1  0
 32 33  1  0
 32 34  1  0
 32 35  1  0
  3 36  1  0
 36 37  1  0
 37 38  2  0
 37 39  1  0
 10  4  1  0
 16 11  1  0
 23 19  1  0
 29 24  1  0
  1 40  1  0
  1 41  1  0
  1 42  1  0
  2 43  1  0
  2 44  1  0
  3 45  1  1
  5 46  1  0
  8 47  1  0
  9 48  1  0
 11 49  1  0
 12 50  1  0
 12 51  1  0
 13 52  1  0
 13 53  1  0
 15 54  1  0
 15 55  1  0
 16 56  1  0
 16 57  1  0
 19 58  1  6
 20 59  1  0
 20 60  1  0
 22 61  1  0
 22 62  1  0
 23 63  1  1
 25 64  1  0
 26 65  1  0
 28 66  1  0
 33 67  1  0
 33 68  1  0
 33 69  1  0
 34 70  1  0
 34 71  1  0
 34 72  1  0
 35 73  1  0
 35 74  1  0
 35 75  1  0
 36 76  1  0
 39 77  1  0
 39 78  1  0
 39 79  1  0
M  END
>  <Ligand ID>  (1) 
LIG0001552

>  <Ligand>  (1) 
CHEMBL254589

>  <SMILES>  (1) 
CC[C@@H](c1cc(Cl)ccc1C1CCN(CC1)C(=O)[C@@H]1CN(C[C@H]1c1ccc(cc1F)Cl)C(C)(C)C)NC(=O)C

>  <CID>  (1) 
44448660.0

>  <ChEMBL ID>  (1) 
nan

>  <InChiKey>  (1) 
PWADIMGJQZHREF-GKRYNVPLSA-N

>  <InChi>  (1) 
InChI=1S/C31H40Cl2FN3O2/c1-6-29(35-19(2)38)25-15-21(32)7-9-23(25)20-11-13-36(14-12-20)30(39)27-18-37(31(3,4)5)17-26(27)24-10-8-22(33)16-28(24)34/h7-10,15-16,20,26-27,29H,6,11-14,17-18H2,1-5H3,(H,35,38)/t26-,27+,29-/m0/s1

>  <IUPAC Name>  (1) 
N-[(1S)-1-[2-[1-[(3S,4R)-1-tert-butyl-4-(4-chloro-2-fluorophenyl)pyrrolidine-3-carbonyl]piperidin-4-yl]-5-chlorophenyl]propyl]acetamide

$$$$
