
     RDKit          3D

 44 45  0  0  0  0  0  0  0  0999 V2000
    0.9994    1.9336   -1.5062 S   0  0  0  0  0  0  0  0  0  0  0  0
    1.2505    0.7757   -0.3957 C   0  0  0  0  0  0  0  0  0  0  0  0
    2.4812    0.2785    0.0314 N   0  0  0  0  0  0  0  0  0  0  0  0
    3.7798    0.6345   -0.3710 C   0  0  0  0  0  0  0  0  0  0  0  0
    4.1010    1.5869   -1.3047 C   0  0  0  0  0  0  0  0  0  0  0  0
    5.4237    1.8868   -1.6537 C   0  0  0  0  0  0  0  0  0  0  0  0
    6.4601    1.2237   -1.0603 C   0  0  0  0  0  0  0  0  0  0  0  0
    6.1712    0.2700   -0.1267 C   0  0  0  0  0  0  0  0  0  0  0  0
    4.8721   -0.0194    0.2110 C   0  0  0  0  0  0  0  0  0  0  0  0
    4.6656   -1.0789    1.2426 C   0  0  0  0  0  0  0  0  0  0  0  0
    0.0573    0.2153    0.2001 N   0  0  0  0  0  0  0  0  0  0  0  0
   -1.2728    0.6844   -0.1952 C   0  0  0  0  0  0  0  0  0  0  0  0
   -2.3300   -0.0839    0.5889 C   0  0  0  0  0  0  0  0  0  0  0  0
   -3.6458    0.4105    0.1561 C   0  0  0  0  0  0  0  0  0  0  0  0
   -4.8538   -0.1173    0.5995 C   0  0  0  0  0  0  0  0  0  0  0  0
   -6.0753    0.3575    0.1625 C   0  0  0  0  0  0  0  0  0  0  0  0
   -6.1258    1.3864   -0.7410 C   0  0  0  0  0  0  0  0  0  0  0  0
   -4.9768    1.9021   -1.1744 N   0  0  0  0  0  0  0  0  0  0  0  0
   -3.7882    1.4601   -0.7671 C   0  0  0  0  0  0  0  0  0  0  0  0
   -2.0529   -1.4511    0.4358 N   0  0  0  0  0  0  0  0  0  0  0  0
   -2.8048   -2.4071    1.1659 C   0  0  0  0  0  0  0  0  0  0  0  0
   -1.7046   -1.8704   -0.8950 C   0  0  0  0  0  0  0  0  0  0  0  0
    2.4342   -0.4912    0.7794 H   0  0  0  0  0  0  0  0  0  0  0  0
    3.3563    2.1454   -1.8103 H   0  0  0  0  0  0  0  0  0  0  0  0
    5.6325    2.6499   -2.3997 H   0  0  0  0  0  0  0  0  0  0  0  0
    7.4622    1.4916   -1.3639 H   0  0  0  0  0  0  0  0  0  0  0  0
    6.9900   -0.2537    0.3420 H   0  0  0  0  0  0  0  0  0  0  0  0
    4.1344   -0.6656    2.1188 H   0  0  0  0  0  0  0  0  0  0  0  0
    3.9821   -1.8155    0.7620 H   0  0  0  0  0  0  0  0  0  0  0  0
    5.6004   -1.5686    1.5026 H   0  0  0  0  0  0  0  0  0  0  0  0
    0.1250   -0.5440    0.9335 H   0  0  0  0  0  0  0  0  0  0  0  0
   -1.3780    0.5106   -1.2773 H   0  0  0  0  0  0  0  0  0  0  0  0
   -1.3714    1.7736    0.0368 H   0  0  0  0  0  0  0  0  0  0  0  0
   -2.2278    0.2159    1.6657 H   0  0  0  0  0  0  0  0  0  0  0  0
   -4.8551   -0.9069    1.3018 H   0  0  0  0  0  0  0  0  0  0  0  0
   -6.9919   -0.0826    0.5334 H   0  0  0  0  0  0  0  0  0  0  0  0
   -7.0724    1.7825   -1.1043 H   0  0  0  0  0  0  0  0  0  0  0  0
   -2.9161    1.9548   -1.1932 H   0  0  0  0  0  0  0  0  0  0  0  0
   -2.1403   -3.3272    1.2798 H   0  0  0  0  0  0  0  0  0  0  0  0
   -3.0511   -2.1314    2.1901 H   0  0  0  0  0  0  0  0  0  0  0  0
   -3.6385   -2.7774    0.5444 H   0  0  0  0  0  0  0  0  0  0  0  0
   -0.6226   -1.6862   -1.0359 H   0  0  0  0  0  0  0  0  0  0  0  0
   -1.8409   -2.9661   -1.0371 H   0  0  0  0  0  0  0  0  0  0  0  0
   -2.2422   -1.2861   -1.6671 H   0  0  0  0  0  0  0  0  0  0  0  0
  1  2  2  0
  2  3  1  0
  3  4  1  0
  4  5  2  0
  5  6  1  0
  6  7  2  0
  7  8  1  0
  8  9  2  0
  9 10  1  0
  2 11  1  0
 11 12  1  0
 12 13  1  0
 13 14  1  0
 14 15  2  0
 15 16  1  0
 16 17  2  0
 17 18  1  0
 18 19  2  0
 13 20  1  0
 20 21  1  0
 20 22  1  0
  9  4  1  0
 19 14  1  0
  3 23  1  0
  5 24  1  0
  6 25  1  0
  7 26  1  0
  8 27  1  0
 10 28  1  0
 10 29  1  0
 10 30  1  0
 11 31  1  0
 12 32  1  0
 12 33  1  0
 13 34  1  0
 15 35  1  0
 16 36  1  0
 17 37  1  0
 19 38  1  0
 21 39  1  0
 21 40  1  0
 21 41  1  0
 22 42  1  0
 22 43  1  0
 22 44  1  0
M  END
>  <Ligand ID>  (1) 
LIG0003877

>  <Ligand>  (1) 
MLS000720325

>  <SMILES>  (1) 
S=C(Nc1ccccc1C)NCC(c1cccnc1)N(C)C

>  <CID>  (1) 
5113115.0

>  <ChEMBL ID>  (1) 
nan

>  <InChiKey>  (1) 
CGRAGOYECIKOMO-UHFFFAOYSA-N

>  <InChi>  (1) 
InChI=1S/C17H22N4S/c1-13-7-4-5-9-15(13)20-17(22)19-12-16(21(2)3)14-8-6-10-18-11-14/h4-11,16H,12H2,1-3H3,(H2,19,20,22)

>  <IUPAC Name>  (1) 
1-[2-(dimethylamino)-2-pyridin-3-ylethyl]-3-(2-methylphenyl)thiourea

$$$$
