
     RDKit          3D

 45 47  0  0  0  0  0  0  0  0999 V2000
   -3.4062   -2.5494    1.0294 F   0  0  0  0  0  0  0  0  0  0  0  0
   -3.7004   -1.2378    1.2155 C   0  0  0  0  0  0  0  0  0  0  0  0
   -4.1909   -0.8252    2.4367 C   0  0  0  0  0  0  0  0  0  0  0  0
   -4.4896    0.4983    2.6332 C   0  0  0  0  0  0  0  0  0  0  0  0
   -4.3069    1.4421    1.6180 C   0  0  0  0  0  0  0  0  0  0  0  0
   -3.8105    1.0386    0.3750 C   0  0  0  0  0  0  0  0  0  0  0  0
   -3.5163   -0.2938    0.1961 C   0  0  0  0  0  0  0  0  0  0  0  0
   -2.9935   -0.8377   -1.0597 C   0  0  0  0  0  0  0  0  0  0  0  0
   -3.8857   -1.2857   -2.0159 C   0  0  0  0  0  0  0  0  0  0  0  0
   -3.4139   -1.8098   -3.2058 C   0  0  0  0  0  0  0  0  0  0  0  0
   -2.0905   -1.8975   -3.4638 N   0  0  0  0  0  0  0  0  0  0  0  0
   -1.2244   -1.4546   -2.5180 C   0  0  0  0  0  0  0  0  0  0  0  0
   -1.6537   -0.9234   -1.3146 C   0  0  0  0  0  0  0  0  0  0  0  0
   -0.6844   -0.4352   -0.3003 C   0  0  0  0  0  0  0  0  0  0  0  0
   -0.5987    1.0122   -0.3198 N   0  0  0  0  0  0  0  0  0  0  0  0
    0.5249    1.5425    0.8610 S   0  0  0  0  0  0  0  0  0  0  0  0
    0.0477    1.1330    2.2418 O   0  0  0  0  0  0  0  0  0  0  0  0
    0.5088    3.0458    0.8218 O   0  0  0  0  0  0  0  0  0  0  0  0
    2.1372    0.9485    0.5785 C   0  0  0  0  0  0  0  0  0  0  0  0
    2.6156   -0.2202    1.1570 C   0  0  0  0  0  0  0  0  0  0  0  0
    3.9072   -0.6125    0.8684 C   0  0  0  0  0  0  0  0  0  0  0  0
    4.7281    0.1183    0.0281 C   0  0  0  0  0  0  0  0  0  0  0  0
    4.2390    1.2777   -0.5397 C   0  0  0  0  0  0  0  0  0  0  0  0
    2.9466    1.7062   -0.2747 C   0  0  0  0  0  0  0  0  0  0  0  0
    5.0624    2.1248   -1.4622 C   0  0  0  0  0  0  0  0  0  0  0  0
    4.7214    3.4300   -1.2598 F   0  0  0  0  0  0  0  0  0  0  0  0
    4.8802    1.7182   -2.7685 F   0  0  0  0  0  0  0  0  0  0  0  0
    6.3915    1.9205   -1.1467 F   0  0  0  0  0  0  0  0  0  0  0  0
    4.4544   -1.8750    1.4832 C   0  0  0  0  0  0  0  0  0  0  0  0
    5.2786   -1.4409    2.5125 F   0  0  0  0  0  0  0  0  0  0  0  0
    5.2599   -2.4804    0.5392 F   0  0  0  0  0  0  0  0  0  0  0  0
    3.4624   -2.7085    1.9135 F   0  0  0  0  0  0  0  0  0  0  0  0
   -3.6159    1.9112   -0.6405 F   0  0  0  0  0  0  0  0  0  0  0  0
   -4.3197   -1.5826    3.2023 H   0  0  0  0  0  0  0  0  0  0  0  0
   -4.8784    0.7953    3.6177 H   0  0  0  0  0  0  0  0  0  0  0  0
   -4.5510    2.4957    1.7914 H   0  0  0  0  0  0  0  0  0  0  0  0
   -4.9626   -1.2508   -1.8879 H   0  0  0  0  0  0  0  0  0  0  0  0
   -4.0834   -2.1670   -3.9716 H   0  0  0  0  0  0  0  0  0  0  0  0
   -0.1572   -1.4968   -2.6639 H   0  0  0  0  0  0  0  0  0  0  0  0
    0.3119   -0.8295   -0.5845 H   0  0  0  0  0  0  0  0  0  0  0  0
   -0.9799   -0.8349    0.6704 H   0  0  0  0  0  0  0  0  0  0  0  0
   -0.2393    1.2470   -1.2842 H   0  0  0  0  0  0  0  0  0  0  0  0
    1.9585   -0.7885    1.8197 H   0  0  0  0  0  0  0  0  0  0  0  0
    5.7552   -0.2005   -0.1970 H   0  0  0  0  0  0  0  0  0  0  0  0
    2.5615    2.6324   -0.7313 H   0  0  0  0  0  0  0  0  0  0  0  0
  1  2  1  0
  2  3  2  0
  3  4  1  0
  4  5  2  0
  5  6  1  0
  6  7  2  0
  7  8  1  0
  8  9  2  0
  9 10  1  0
 10 11  2  0
 11 12  1  0
 12 13  2  0
 13 14  1  0
 14 15  1  0
 15 16  1  0
 16 17  2  0
 16 18  2  0
 16 19  1  0
 19 20  2  0
 20 21  1  0
 21 22  2  0
 22 23  1  0
 23 24  2  0
 23 25  1  0
 25 26  1  0
 25 27  1  0
 25 28  1  0
 21 29  1  0
 29 30  1  0
 29 31  1  0
 29 32  1  0
  6 33  1  0
  7  2  1  0
 13  8  1  0
 24 19  1  0
  3 34  1  0
  4 35  1  0
  5 36  1  0
  9 37  1  0
 10 38  1  0
 12 39  1  0
 14 40  1  0
 14 41  1  0
 15 42  1  0
 20 43  1  0
 22 44  1  0
 24 45  1  0
M  END
>  <Ligand ID>  (1) 
LIG0005777

>  <Ligand>  (1) 
CHEMBL2435928

>  <SMILES>  (1) 
Fc1cccc(c1c1ccncc1CNS(=O)(=O)c1cc(cc(c1)C(F)(F)F)C(F)(F)F)F

>  <CID>  (1) 
73352467.0

>  <ChEMBL ID>  (1) 
nan

>  <InChiKey>  (1) 
UYJJWXCUZLXLBC-UHFFFAOYSA-N

>  <InChi>  (1) 
InChI=1S/C20H12F8N2O2S/c21-16-2-1-3-17(22)18(16)15-4-5-29-9-11(15)10-30-33(31,32)14-7-12(19(23,24)25)6-13(8-14)20(26,27)28/h1-9,30H,10H2

>  <IUPAC Name>  (1) 
N-[[4-(2,6-difluorophenyl)pyridin-3-yl]methyl]-3,5-bis(trifluoromethyl)benzenesulfonamide

$$$$
