
     RDKit          3D

142147  0  0  0  0  0  0  0  0999 V2000
    9.5884   -2.3186    4.2064 C   0  0  0  0  0  0  0  0  0  0  0  0
   10.5101   -2.5620    3.0584 C   0  0  0  0  0  0  0  0  0  0  0  0
   10.6103   -1.5309    2.0160 C   0  0  0  0  0  0  0  0  0  0  0  0
    9.4977   -1.1954    1.1451 C   0  0  0  0  0  0  0  0  0  0  0  0
    8.1956   -0.6925    1.6614 C   0  0  1  0  0  0  0  0  0  0  0  0
    7.3696   -0.3941    0.4019 C   0  0  0  0  0  0  0  0  0  0  0  0
    7.9162    0.3635   -0.4336 O   0  0  0  0  0  0  0  0  0  0  0  0
    6.0748   -0.9609    0.2321 N   0  0  0  0  0  0  0  0  0  0  0  0
    5.4155   -0.5790   -1.0421 C   0  0  1  0  0  0  0  0  0  0  0  0
    4.9099   -1.7204   -1.7911 C   0  0  0  0  0  0  0  0  0  0  0  0
    3.7286   -2.4460   -1.3823 C   0  0  0  0  0  0  0  0  0  0  0  0
    2.7949   -1.9561   -0.7300 O   0  0  0  0  0  0  0  0  0  0  0  0
    3.5547   -3.8283   -1.7170 N   0  0  0  0  0  0  0  0  0  0  0  0
    2.3965   -4.6188   -1.4023 C   0  0  0  0  0  0  0  0  0  0  0  0
    1.9470   -4.6571    0.0077 C   0  0  0  0  0  0  0  0  0  0  0  0
    0.8552   -5.6988    0.1195 C   0  0  0  0  0  0  0  0  0  0  0  0
   -0.2316   -5.6266   -0.8688 C   0  0  0  0  0  0  0  0  0  0  0  0
   -1.0990   -4.4631   -0.9972 C   0  0  2  0  0  0  0  0  0  0  0  0
   -1.9761   -4.1494    0.1113 N   0  0  0  0  0  0  0  0  0  0  0  0
   -2.2298   -2.7802    0.4294 C   0  0  0  0  0  0  0  0  0  0  0  0
   -1.5914   -1.9571   -0.2524 O   0  0  0  0  0  0  0  0  0  0  0  0
   -3.1476   -2.2776    1.4533 C   0  0  1  0  0  0  0  0  0  0  0  0
   -3.1688   -0.8411    1.4195 N   0  0  0  0  0  0  0  0  0  0  0  0
   -3.0802    0.0285    2.5438 C   0  0  0  0  0  0  0  0  0  0  0  0
   -3.0868   -0.5052    3.6492 O   0  0  0  0  0  0  0  0  0  0  0  0
   -2.9935    1.5114    2.3014 C   0  0  1  0  0  0  0  0  0  0  0  0
   -2.7875    1.7462    0.8657 N   0  0  0  0  0  0  0  0  0  0  0  0
   -1.5228    2.2284    0.4206 C   0  0  0  0  0  0  0  0  0  0  0  0
   -0.6975    2.4938    1.2981 O   0  0  0  0  0  0  0  0  0  0  0  0
   -1.1417    2.4301   -1.0014 C   0  0  2  0  0  0  0  0  0  0  0  0
    0.1607    3.0285   -1.0901 N   0  0  0  0  0  0  0  0  0  0  0  0
    1.3679    2.3013   -1.4727 C   0  0  0  0  0  0  0  0  0  0  0  0
    1.1335    1.7686   -2.5851 O   0  0  0  0  0  0  0  0  0  0  0  0
    2.6709    2.1302   -0.8114 C   0  0  0  0  0  0  0  0  0  0  0  0
    3.5250    1.1354   -1.4585 N   0  0  0  0  0  0  0  0  0  0  0  0
    4.4314    0.4458   -0.6081 C   0  0  0  0  0  0  0  0  0  0  0  0
    4.3842    0.7356    0.5928 O   0  0  0  0  0  0  0  0  0  0  0  0
    3.3443    3.4503   -0.6711 C   0  0  0  0  0  0  0  0  0  0  0  0
    2.7027    4.6109   -1.2733 C   0  0  0  0  0  0  0  0  0  0  0  0
    3.6807    5.4082   -1.8833 C   0  0  0  0  0  0  0  0  0  0  0  0
    3.3885    6.5873   -2.5162 C   0  0  0  0  0  0  0  0  0  0  0  0
    2.0952    7.0661   -2.5913 C   0  0  0  0  0  0  0  0  0  0  0  0
    1.1178    6.2874   -1.9926 C   0  0  0  0  0  0  0  0  0  0  0  0
    1.4159    5.0970   -1.3546 C   0  0  0  0  0  0  0  0  0  0  0  0
    0.2003    4.4185   -0.7946 C   0  0  0  0  0  0  0  0  0  0  0  0
   -2.2538    2.9782   -1.7886 C   0  0  0  0  0  0  0  0  0  0  0  0
   -1.9389    3.1711   -3.2224 C   0  0  0  0  0  0  0  0  0  0  0  0
   -2.1387    2.0717   -4.0657 C   0  0  0  0  0  0  0  0  0  0  0  0
   -1.8647    2.1866   -5.4210 C   0  0  0  0  0  0  0  0  0  0  0  0
   -1.3946    3.3628   -5.9816 C   0  0  0  0  0  0  0  0  0  0  0  0
   -1.2062    4.4272   -5.1396 C   0  0  0  0  0  0  0  0  0  0  0  0
   -1.4757    4.3239   -3.7889 C   0  0  0  0  0  0  0  0  0  0  0  0
   -1.0553    3.4845   -7.6984 Cl  0  0  0  0  0  0  0  0  0  0  0  0
   -4.1275    2.3027    2.8097 C   0  0  0  0  0  0  0  0  0  0  0  0
   -5.4831    1.9761    2.2869 C   0  0  0  0  0  0  0  0  0  0  0  0
   -6.5576    2.8941    2.8773 C   0  0  0  0  0  0  0  0  0  0  0  0
   -6.6183    2.8014    4.3217 N   0  0  0  0  0  0  0  0  0  0  0  0
   -7.2955    3.6530    5.0206 C   0  0  0  0  0  0  0  0  0  0  0  0
   -7.3798    3.5973    6.4431 N   0  0  0  0  0  0  0  0  0  0  0  0
   -7.9984    4.7078    4.3616 N   0  0  0  0  0  0  0  0  0  0  0  0
   -4.3784   -3.0193    1.6658 C   0  0  0  0  0  0  0  0  0  0  0  0
   -5.3799   -3.2731    0.6773 C   0  0  0  0  0  0  0  0  0  0  0  0
   -5.6414   -4.5200    0.0659 C   0  0  0  0  0  0  0  0  0  0  0  0
   -6.6435   -4.4160   -0.7878 N   0  0  0  0  0  0  0  0  0  0  0  0
   -7.0973   -3.1713   -0.8093 C   0  0  0  0  0  0  0  0  0  0  0  0
   -6.3307   -2.4438    0.0900 C   0  0  0  0  0  0  0  0  0  0  0  0
   -6.6043   -1.1123    0.2520 C   0  0  0  0  0  0  0  0  0  0  0  0
   -7.6117   -0.4725   -0.4451 C   0  0  0  0  0  0  0  0  0  0  0  0
   -8.3677   -1.2329   -1.3448 C   0  0  0  0  0  0  0  0  0  0  0  0
   -8.1135   -2.5772   -1.5277 C   0  0  0  0  0  0  0  0  0  0  0  0
   -1.9151   -4.6529   -2.2564 C   0  0  0  0  0  0  0  0  0  0  0  0
   -1.3777   -4.9411   -3.3562 O   0  0  0  0  0  0  0  0  0  0  0  0
   -3.3296   -4.5130   -2.2556 N   0  0  0  0  0  0  0  0  0  0  0  0
    7.4326   -1.6589    2.4372 N   0  0  0  0  0  0  0  0  0  0  0  0
    9.3078   -1.2469    4.2668 H   0  0  0  0  0  0  0  0  0  0  0  0
   10.1986   -2.5085    5.1571 H   0  0  0  0  0  0  0  0  0  0  0  0
    8.7460   -3.0167    4.3045 H   0  0  0  0  0  0  0  0  0  0  0  0
   11.5361   -2.7811    3.4739 H   0  0  0  0  0  0  0  0  0  0  0  0
   10.2276   -3.5793    2.6158 H   0  0  0  0  0  0  0  0  0  0  0  0
   10.9687   -0.5315    2.4723 H   0  0  0  0  0  0  0  0  0  0  0  0
   11.5433   -1.7901    1.3843 H   0  0  0  0  0  0  0  0  0  0  0  0
    9.8945   -0.4774    0.3348 H   0  0  0  0  0  0  0  0  0  0  0  0
    9.3183   -2.1238    0.4845 H   0  0  0  0  0  0  0  0  0  0  0  0
    8.3421    0.1925    2.2707 H   0  0  0  0  0  0  0  0  0  0  0  0
    5.6173   -1.5865    0.9192 H   0  0  0  0  0  0  0  0  0  0  0  0
    6.1513   -0.0180   -1.6618 H   0  0  0  0  0  0  0  0  0  0  0  0
    4.6924   -1.3563   -2.8462 H   0  0  0  0  0  0  0  0  0  0  0  0
    5.7902   -2.4160   -1.9762 H   0  0  0  0  0  0  0  0  0  0  0  0
    4.3452   -4.2450   -2.2195 H   0  0  0  0  0  0  0  0  0  0  0  0
    2.6260   -5.6861   -1.6888 H   0  0  0  0  0  0  0  0  0  0  0  0
    1.5327   -4.3669   -2.0658 H   0  0  0  0  0  0  0  0  0  0  0  0
    1.5541   -3.6422    0.2844 H   0  0  0  0  0  0  0  0  0  0  0  0
    2.7514   -4.8919    0.7329 H   0  0  0  0  0  0  0  0  0  0  0  0
    0.5063   -5.8071    1.1755 H   0  0  0  0  0  0  0  0  0  0  0  0
    1.3907   -6.6823   -0.0656 H   0  0  0  0  0  0  0  0  0  0  0  0
   -0.9012   -6.5293   -0.6481 H   0  0  0  0  0  0  0  0  0  0  0  0
    0.2172   -5.8669   -1.8751 H   0  0  0  0  0  0  0  0  0  0  0  0
   -0.4947   -3.5343   -1.2505 H   0  0  0  0  0  0  0  0  0  0  0  0
   -2.4499   -4.8211    0.7153 H   0  0  0  0  0  0  0  0  0  0  0  0
   -2.5676   -2.4073    2.4261 H   0  0  0  0  0  0  0  0  0  0  0  0
   -3.2610   -0.3783    0.5125 H   0  0  0  0  0  0  0  0  0  0  0  0
   -2.0359    1.7990    2.8283 H   0  0  0  0  0  0  0  0  0  0  0  0
   -3.4820    1.5982    0.1411 H   0  0  0  0  0  0  0  0  0  0  0  0
   -1.0564    1.3625   -1.3960 H   0  0  0  0  0  0  0  0  0  0  0  0
    2.4858    1.7884    0.2645 H   0  0  0  0  0  0  0  0  0  0  0  0
    3.5397    0.8883   -2.4350 H   0  0  0  0  0  0  0  0  0  0  0  0
    3.6266    3.6577    0.4057 H   0  0  0  0  0  0  0  0  0  0  0  0
    4.3622    3.3267   -1.1551 H   0  0  0  0  0  0  0  0  0  0  0  0
    4.7305    5.0786   -1.8569 H   0  0  0  0  0  0  0  0  0  0  0  0
    4.2109    7.1407   -2.9634 H   0  0  0  0  0  0  0  0  0  0  0  0
    1.8890    7.9866   -3.0874 H   0  0  0  0  0  0  0  0  0  0  0  0
    0.1115    6.6724   -2.0465 H   0  0  0  0  0  0  0  0  0  0  0  0
    0.4133    4.4541    0.3220 H   0  0  0  0  0  0  0  0  0  0  0  0
   -0.7150    4.9717   -0.8967 H   0  0  0  0  0  0  0  0  0  0  0  0
   -3.0950    2.2433   -1.7425 H   0  0  0  0  0  0  0  0  0  0  0  0
   -2.7034    3.9163   -1.4260 H   0  0  0  0  0  0  0  0  0  0  0  0
   -2.5127    1.1246   -3.6467 H   0  0  0  0  0  0  0  0  0  0  0  0
   -2.0270    1.3287   -6.0559 H   0  0  0  0  0  0  0  0  0  0  0  0
   -0.8397    5.3457   -5.5697 H   0  0  0  0  0  0  0  0  0  0  0  0
   -1.3180    5.1883   -3.1699 H   0  0  0  0  0  0  0  0  0  0  0  0
   -4.1023    2.3034    3.9182 H   0  0  0  0  0  0  0  0  0  0  0  0
   -3.9304    3.3785    2.5226 H   0  0  0  0  0  0  0  0  0  0  0  0
   -5.7458    0.9651    2.7263 H   0  0  0  0  0  0  0  0  0  0  0  0
   -5.5996    2.0099    1.2067 H   0  0  0  0  0  0  0  0  0  0  0  0
   -6.3857    3.9166    2.5172 H   0  0  0  0  0  0  0  0  0  0  0  0
   -7.5164    2.4986    2.4861 H   0  0  0  0  0  0  0  0  0  0  0  0
   -6.5956    4.0356    6.9733 H   0  0  0  0  0  0  0  0  0  0  0  0
   -8.1643    3.1549    6.9612 H   0  0  0  0  0  0  0  0  0  0  0  0
   -7.6118    5.6897    4.4287 H   0  0  0  0  0  0  0  0  0  0  0  0
   -8.8782    4.5467    3.8160 H   0  0  0  0  0  0  0  0  0  0  0  0
   -4.8786   -2.5765    2.5801 H   0  0  0  0  0  0  0  0  0  0  0  0
   -4.0795   -4.0264    2.0984 H   0  0  0  0  0  0  0  0  0  0  0  0
   -5.0847   -5.4429    0.2790 H   0  0  0  0  0  0  0  0  0  0  0  0
   -7.0295   -5.2096   -1.3707 H   0  0  0  0  0  0  0  0  0  0  0  0
   -6.0188   -0.5553    0.9365 H   0  0  0  0  0  0  0  0  0  0  0  0
   -7.8583    0.5572   -0.3483 H   0  0  0  0  0  0  0  0  0  0  0  0
   -9.1646   -0.7600   -1.9041 H   0  0  0  0  0  0  0  0  0  0  0  0
   -8.7363   -3.1117   -2.2392 H   0  0  0  0  0  0  0  0  0  0  0  0
   -3.9846   -5.3275   -2.3747 H   0  0  0  0  0  0  0  0  0  0  0  0
   -3.6809   -3.5209   -2.1257 H   0  0  0  0  0  0  0  0  0  0  0  0
    6.5144   -1.2591    2.6922 H   0  0  0  0  0  0  0  0  0  0  0  0
    7.2805   -2.4876    1.8400 H   0  0  0  0  0  0  0  0  0  0  0  0
  1  2  1  0
  2  3  1  0
  3  4  1  0
  4  5  1  0
  5  6  1  0
  6  7  2  0
  6  8  1  0
  8  9  1  0
  9 10  1  0
 10 11  1  0
 11 12  2  0
 11 13  1  0
 13 14  1  0
 14 15  1  0
 15 16  1  0
 16 17  1  0
 17 18  1  0
 18 19  1  0
 19 20  1  0
 20 21  2  0
 20 22  1  0
 22 23  1  0
 23 24  1  0
 24 25  2  0
 24 26  1  0
 26 27  1  0
 27 28  1  0
 28 29  2  0
 28 30  1  0
 30 31  1  0
 31 32  1  0
 32 33  2  0
 32 34  1  0
 34 35  1  0
 35 36  1  0
 36 37  2  0
 34 38  1  0
 38 39  1  0
 39 40  2  0
 40 41  1  0
 41 42  2  0
 42 43  1  0
 43 44  2  0
 44 45  1  0
 30 46  1  0
 46 47  1  0
 47 48  2  0
 48 49  1  0
 49 50  2  0
 50 51  1  0
 51 52  2  0
 50 53  1  0
 26 54  1  0
 54 55  1  0
 55 56  1  0
 56 57  1  0
 57 58  2  3
 58 59  1  0
 58 60  1  0
 22 61  1  0
 61 62  1  0
 62 63  2  0
 63 64  1  0
 64 65  1  0
 65 66  2  0
 66 67  1  0
 67 68  2  0
 68 69  1  0
 69 70  2  0
 18 71  1  0
 71 72  2  0
 71 73  1  0
  5 74  1  0
 36  9  1  0
 44 39  1  0
 52 47  1  0
 66 62  1  0
 45 31  1  0
 70 65  1  0
  1 75  1  0
  1 76  1  0
  1 77  1  0
  2 78  1  0
  2 79  1  0
  3 80  1  0
  3 81  1  0
  4 82  1  0
  4 83  1  0
  5 84  1  1
  8 85  1  0
  9 86  1  6
 10 87  1  0
 10 88  1  0
 13 89  1  0
 14 90  1  0
 14 91  1  0
 15 92  1  0
 15 93  1  0
 16 94  1  0
 16 95  1  0
 17 96  1  0
 17 97  1  0
 18 98  1  6
 19 99  1  0
 22100  1  1
 23101  1  0
 26102  1  1
 27103  1  0
 30104  1  6
 34105  1  0
 35106  1  0
 38107  1  0
 38108  1  0
 40109  1  0
 41110  1  0
 42111  1  0
 43112  1  0
 45113  1  0
 45114  1  0
 46115  1  0
 46116  1  0
 48117  1  0
 49118  1  0
 51119  1  0
 52120  1  0
 54121  1  0
 54122  1  0
 55123  1  0
 55124  1  0
 56125  1  0
 56126  1  0
 59127  1  0
 59128  1  0
 60129  1  0
 60130  1  0
 61131  1  0
 61132  1  0
 63133  1  0
 64134  1  0
 67135  1  0
 68136  1  0
 69137  1  0
 70138  1  0
 73139  1  0
 73140  1  0
 74141  1  0
 74142  1  0
M  END
>  <Ligand ID>  (1) 
LIG0001769

>  <Ligand>  (1) 
CHEMBL391796

>  <SMILES>  (1) 
CCCC[C@@H](C(=O)N[C@H]1CC(=O)NCCCC[C@H](NC(=O)[C@@H](NC(=O)[C@@H](NC(=O)[C@H](N2C(=O)C(NC1=O)Cc1ccccc1C2)Cc1ccc(cc1)Cl)CCCN=C(N)N)Cc1c[nH]c2c1cccc2)C(=O)N)N

>  <CID>  (1) 
44431512.0

>  <ChEMBL ID>  (1) 
nan

>  <InChiKey>  (1) 
SHVFCFMJFUMOGL-FUHNRYBUSA-N

>  <InChi>  (1) 
InChI=1S/C52H68ClN13O8/c1-2-3-14-36(54)46(69)63-41-27-44(67)58-22-9-8-16-38(45(55)68)61-48(71)40(26-33-28-60-37-15-7-6-13-35(33)37)64-47(70)39(17-10-23-59-52(56)57)62-50(73)43(24-30-18-20-34(53)21-19-30)66-29-32-12-5-4-11-31(32)25-42(51(66)74)65-49(41)72/h4-7,11-13,15,18-21,28,36,38-43,60H,2-3,8-10,14,16-17,22-27,29,54H2,1H3,(H2,55,68)(H,58,67)(H,61,71)(H,62,73)(H,63,69)(H,64,70)(H,65,72)(H4,56,57,59)/t36-,38-,39-,40-,41-,42?,43+/m0/s1

>  <IUPAC Name>  (1) 
(2R,5S,8S,11S,19S)-19-[[(2S)-2-aminohexanoyl]amino]-2-[(4-chlorophenyl)methyl]-5-[3-(diaminomethylideneamino)propyl]-8-(1H-indol-3-ylmethyl)-3,6,9,17,20,31-hexaoxo-1,4,7,10,16,21-hexazatricyclo[20.8.1.024,29]hentriaconta-24,26,28-triene-11-carboxamide

$$$$
