
     RDKit          3D

 41 44  0  0  0  0  0  0  0  0999 V2000
   -8.1155    1.9133    0.2909 F   0  0  0  0  0  0  0  0  0  0  0  0
   -6.8818    1.3522    0.1794 C   0  0  0  0  0  0  0  0  0  0  0  0
   -6.6385    0.2128    0.9402 C   0  0  0  0  0  0  0  0  0  0  0  0
   -5.3882   -0.3529    0.8250 C   0  0  0  0  0  0  0  0  0  0  0  0
   -4.3916    0.1232    0.0275 C   0  0  0  0  0  0  0  0  0  0  0  0
   -4.6352    1.2655   -0.7354 C   0  0  0  0  0  0  0  0  0  0  0  0
   -5.8934    1.8538   -0.6339 C   0  0  0  0  0  0  0  0  0  0  0  0
   -3.1145   -0.5317   -0.0316 N   0  0  0  0  0  0  0  0  0  0  0  0
   -2.9279   -1.5765   -1.0232 C   0  0  0  0  0  0  0  0  0  0  0  0
   -1.5821   -1.4290   -1.7250 C   0  0  0  0  0  0  0  0  0  0  0  0
   -0.5225   -1.0478   -0.7779 C   0  0  0  0  0  0  0  0  0  0  0  0
   -0.7316   -0.4712    0.4137 N   0  0  0  0  0  0  0  0  0  0  0  0
   -2.0492   -0.1846    0.8442 C   0  0  0  0  0  0  0  0  0  0  0  0
   -2.3294    0.3539    1.9458 O   0  0  0  0  0  0  0  0  0  0  0  0
    0.4356   -0.2436    1.0504 C   0  0  0  0  0  0  0  0  0  0  0  0
    1.4219   -0.7031    0.2099 C   0  0  0  0  0  0  0  0  0  0  0  0
    0.8111   -1.1841   -0.8885 N   0  0  0  0  0  0  0  0  0  0  0  0
    2.8837   -0.6867    0.4392 C   0  0  0  0  0  0  0  0  0  0  0  0
    3.4917    0.4923   -0.0316 O   0  0  0  0  0  0  0  0  0  0  0  0
    4.8832    0.5939    0.1450 C   0  0  0  0  0  0  0  0  0  0  0  0
    5.5937   -0.4414    0.7603 C   0  0  0  0  0  0  0  0  0  0  0  0
    6.9581   -0.3718    0.9480 C   0  0  0  0  0  0  0  0  0  0  0  0
    7.6602    0.7319    0.5289 C   0  0  0  0  0  0  0  0  0  0  0  0
    6.9692    1.7575   -0.0786 C   0  0  0  0  0  0  0  0  0  0  0  0
    5.5880    1.7051   -0.2773 C   0  0  0  0  0  0  0  0  0  0  0  0
   -7.4195   -0.1878    1.5860 H   0  0  0  0  0  0  0  0  0  0  0  0
   -5.2111   -1.2437    1.4255 H   0  0  0  0  0  0  0  0  0  0  0  0
   -3.8641    1.6753   -1.3839 H   0  0  0  0  0  0  0  0  0  0  0  0
   -6.1115    2.7346   -1.2089 H   0  0  0  0  0  0  0  0  0  0  0  0
   -2.9201   -2.5744   -0.5123 H   0  0  0  0  0  0  0  0  0  0  0  0
   -3.7551   -1.6133   -1.7343 H   0  0  0  0  0  0  0  0  0  0  0  0
   -1.7313   -0.7008   -2.5413 H   0  0  0  0  0  0  0  0  0  0  0  0
   -1.3862   -2.4112   -2.2159 H   0  0  0  0  0  0  0  0  0  0  0  0
    0.6082    0.1998    2.0110 H   0  0  0  0  0  0  0  0  0  0  0  0
    3.1480   -0.8154    1.5073 H   0  0  0  0  0  0  0  0  0  0  0  0
    3.3248   -1.5339   -0.1310 H   0  0  0  0  0  0  0  0  0  0  0  0
    5.0936   -1.3354    1.1110 H   0  0  0  0  0  0  0  0  0  0  0  0
    7.4737   -1.1941    1.4288 H   0  0  0  0  0  0  0  0  0  0  0  0
    8.7207    0.7377    0.6981 H   0  0  0  0  0  0  0  0  0  0  0  0
    7.4970    2.6377   -0.4181 H   0  0  0  0  0  0  0  0  0  0  0  0
    5.0380    2.4942   -0.7477 H   0  0  0  0  0  0  0  0  0  0  0  0
  1  2  1  0
  2  3  2  0
  3  4  1  0
  4  5  2  0
  5  6  1  0
  6  7  2  0
  5  8  1  0
  8  9  1  0
  9 10  1  0
 10 11  1  0
 11 12  1  0
 12 13  1  0
 13 14  2  0
 12 15  1  0
 15 16  2  0
 16 17  1  0
 16 18  1  0
 18 19  1  0
 19 20  1  0
 20 21  2  0
 21 22  1  0
 22 23  2  0
 23 24  1  0
 24 25  2  0
  7  2  1  0
 13  8  1  0
 25 20  1  0
 17 11  2  0
  3 26  1  0
  4 27  1  0
  6 28  1  0
  7 29  1  0
  9 30  1  0
  9 31  1  0
 10 32  1  0
 10 33  1  0
 15 34  1  0
 18 35  1  0
 18 36  1  0
 21 37  1  0
 22 38  1  0
 23 39  1  0
 24 40  1  0
 25 41  1  0
M  END
>  <Ligand ID>  (1) 
LIG0000588

>  <Ligand>  (1) 
CHEMBL3401195

>  <SMILES>  (1) 
Fc1ccc(cc1)N1CCc2n(C1=O)cc(n2)COc1ccccc1

>  <CID>  (1) 
68290289.0

>  <ChEMBL ID>  (1) 
nan

>  <InChiKey>  (1) 
NLNMCEXQEHYXBB-UHFFFAOYSA-N

>  <InChi>  (1) 
InChI=1S/C19H16FN3O2/c20-14-6-8-16(9-7-14)22-11-10-18-21-15(12-23(18)19(22)24)13-25-17-4-2-1-3-5-17/h1-9,12H,10-11,13H2

>  <IUPAC Name>  (1) 
6-(4-fluorophenyl)-2-(phenoxymethyl)-7,8-dihydroimidazo[1,2-c]pyrimidin-5-one

$$$$
