
     RDKit          3D

 36 35  0  0  0  0  0  0  0  0999 V2000
   -3.2439    2.1969    1.3172 O   0  0  0  0  0  0  0  0  0  0  0  0
   -3.5857    1.9508   -0.0042 C   0  0  0  0  0  0  0  0  0  0  0  0
   -3.8124    0.4893   -0.2893 C   0  0  0  0  0  0  0  0  0  0  0  0
   -2.6227   -0.3793   -0.0271 C   0  0  0  0  0  0  0  0  0  0  0  0
   -3.0318   -1.7759   -0.3623 C   0  0  0  0  0  0  0  0  0  0  0  0
   -2.4163   -2.4125   -1.2569 O   0  0  0  0  0  0  0  0  0  0  0  0
   -4.0938   -2.3445    0.3297 O   0  0  0  0  0  0  0  0  0  0  0  0
   -1.4791    0.0427   -0.8981 C   0  0  0  0  0  0  0  0  0  0  0  0
   -0.0107   -1.0085   -0.5931 P   0  0  0  0  0  0  0  0  0  0  0  0
    0.1990   -1.9209   -1.7808 O   0  0  0  0  0  0  0  0  0  0  0  0
    1.3809    0.0875   -0.3574 C   0  0  0  0  0  0  0  0  0  0  0  0
    2.5876   -0.5859    0.2803 C   0  0  0  0  0  0  0  0  0  0  0  0
    3.6325    0.5327    0.3783 C   0  0  1  0  0  0  0  0  0  0  0  0
    4.8841    0.0678    0.9773 C   0  0  0  0  0  0  0  0  0  0  0  0
    4.9531   -0.3937    2.1644 O   0  0  0  0  0  0  0  0  0  0  0  0
    6.0946    0.0983    0.2853 O   0  0  0  0  0  0  0  0  0  0  0  0
    3.8635    0.9996   -0.9744 N   0  0  0  0  0  0  0  0  0  0  0  0
   -0.3186   -1.9596    0.7685 O   0  0  0  0  0  0  0  0  0  0  0  0
   -3.5512    3.1234    1.5284 H   0  0  0  0  0  0  0  0  0  0  0  0
   -4.5483    2.4647   -0.2010 H   0  0  0  0  0  0  0  0  0  0  0  0
   -2.8465    2.4149   -0.6565 H   0  0  0  0  0  0  0  0  0  0  0  0
   -4.6624    0.1576    0.3376 H   0  0  0  0  0  0  0  0  0  0  0  0
   -4.0198    0.4151   -1.3867 H   0  0  0  0  0  0  0  0  0  0  0  0
   -2.3096   -0.3879    1.0377 H   0  0  0  0  0  0  0  0  0  0  0  0
   -4.5384   -3.1949    0.0062 H   0  0  0  0  0  0  0  0  0  0  0  0
   -1.2785    1.1100   -0.6695 H   0  0  0  0  0  0  0  0  0  0  0  0
   -1.7853    0.0237   -1.9624 H   0  0  0  0  0  0  0  0  0  0  0  0
    1.7465    0.4168   -1.3652 H   0  0  0  0  0  0  0  0  0  0  0  0
    1.1062    0.9332    0.2933 H   0  0  0  0  0  0  0  0  0  0  0  0
    2.2826   -0.8958    1.3047 H   0  0  0  0  0  0  0  0  0  0  0  0
    2.9747   -1.4329   -0.3022 H   0  0  0  0  0  0  0  0  0  0  0  0
    3.1326    1.3393    0.9475 H   0  0  0  0  0  0  0  0  0  0  0  0
    6.9723    0.3778    0.7386 H   0  0  0  0  0  0  0  0  0  0  0  0
    4.1178    2.0081   -1.0157 H   0  0  0  0  0  0  0  0  0  0  0  0
    4.4651    0.3713   -1.5258 H   0  0  0  0  0  0  0  0  0  0  0  0
   -0.2380   -2.9291    0.5954 H   0  0  0  0  0  0  0  0  0  0  0  0
  1  2  1  0
  2  3  1  0
  3  4  1  0
  4  5  1  0
  5  6  2  0
  5  7  1  0
  4  8  1  0
  8  9  1  0
  9 10  2  0
  9 11  1  0
 11 12  1  0
 12 13  1  0
 13 14  1  0
 14 15  2  0
 14 16  1  0
 13 17  1  0
  9 18  1  0
  1 19  1  0
  2 20  1  0
  2 21  1  0
  3 22  1  0
  3 23  1  0
  4 24  1  0
  7 25  1  0
  8 26  1  0
  8 27  1  0
 11 28  1  0
 11 29  1  0
 12 30  1  0
 12 31  1  0
 13 32  1  1
 16 33  1  0
 17 34  1  0
 17 35  1  0
 18 36  1  0
M  END
>  <Ligand ID>  (1) 
LIG0005081

>  <Ligand>  (1) 
CHEMBL1093612

>  <SMILES>  (1) 
OCCC(C(=O)O)CP(=O)(CC[C@@H](C(=O)O)N)O

>  <CID>  (1) 
46197878.0

>  <ChEMBL ID>  (1) 
nan

>  <InChiKey>  (1) 
IPELLEGLRZLYPW-MLWJPKLSSA-N

>  <InChi>  (1) 
InChI=1S/C9H18NO7P/c10-7(9(14)15)2-4-18(16,17)5-6(1-3-11)8(12)13/h6-7,11H,1-5,10H2,(H,12,13)(H,14,15)(H,16,17)/t6?,7-/m0/s1

>  <IUPAC Name>  (1) 
2-[[[(3S)-3-amino-3-carboxypropyl]-hydroxyphosphoryl]methyl]-4-hydroxybutanoic acid

$$$$
