
     RDKit          3D

 46 47  0  0  0  0  0  0  0  0999 V2000
   -5.3836    0.5170    0.6714 O   0  0  0  0  0  0  0  0  0  0  0  0
   -4.8379   -0.0261   -0.3168 C   0  0  0  0  0  0  0  0  0  0  0  0
   -3.6601   -0.8813   -0.0609 C   0  0  0  0  0  0  0  0  0  0  0  0
   -2.4136   -0.2878   -0.0773 C   0  0  0  0  0  0  0  0  0  0  0  0
   -2.1997    1.1561   -0.3357 C   0  0  0  0  0  0  0  0  0  0  0  0
   -2.5120    1.9535    0.7391 O   0  0  0  0  0  0  0  0  0  0  0  0
   -2.2566    3.5775    0.4111 P   0  0  0  0  0  0  0  0  0  0  0  0
   -0.7718    3.8579    0.1895 O   0  0  0  0  0  0  0  0  0  0  0  0
   -3.0811    4.1235   -0.9553 O   0  0  0  0  0  0  0  0  0  0  0  0
   -2.6938    4.4998    1.7690 O   0  0  0  0  0  0  0  0  0  0  0  0
   -1.2850   -1.0787    0.1619 C   0  0  0  0  0  0  0  0  0  0  0  0
    0.0290   -0.5461    0.1652 N   0  0  0  0  0  0  0  0  0  0  0  0
    0.7983   -0.4602   -0.8260 N   0  0  0  0  0  0  0  0  0  0  0  0
    2.0863    0.1275   -0.5327 C   0  0  0  0  0  0  0  0  0  0  0  0
    2.1538    1.4941   -0.3854 C   0  0  0  0  0  0  0  0  0  0  0  0
    3.3613    2.1055   -0.1017 C   0  0  0  0  0  0  0  0  0  0  0  0
    4.4784    1.3058    0.0261 C   0  0  0  0  0  0  0  0  0  0  0  0
    4.4311   -0.0675   -0.1182 C   0  0  0  0  0  0  0  0  0  0  0  0
    3.2185   -0.6716   -0.4021 C   0  0  0  0  0  0  0  0  0  0  0  0
    3.0223   -2.3837   -0.6119 S   0  0  0  0  0  0  0  0  0  0  0  0
    4.2911   -3.1268   -0.3564 O   0  0  0  0  0  0  0  0  0  0  0  0
    1.9568   -2.9162    0.3265 O   0  0  0  0  0  0  0  0  0  0  0  0
    2.4346   -2.7176   -2.1710 O   0  0  0  0  0  0  0  0  0  0  0  0
    5.9925    2.1061    0.3807 S   0  0  0  0  0  0  0  0  0  0  0  0
    7.0993    1.2078   -0.0777 O   0  0  0  0  0  0  0  0  0  0  0  0
    6.0575    3.4806   -0.2068 O   0  0  0  0  0  0  0  0  0  0  0  0
    6.1232    2.2204    2.0703 O   0  0  0  0  0  0  0  0  0  0  0  0
   -1.4803   -2.4025    0.3995 N   0  0  0  0  0  0  0  0  0  0  0  0
   -2.6790   -2.9892    0.4183 C   0  0  0  0  0  0  0  0  0  0  0  0
   -3.8363   -2.2397    0.1850 C   0  0  0  0  0  0  0  0  0  0  0  0
   -5.0970   -2.8056    0.1953 O   0  0  0  0  0  0  0  0  0  0  0  0
   -2.8758   -4.4441    0.6818 C   0  0  0  0  0  0  0  0  0  0  0  0
   -5.1426    0.0690   -1.3334 H   0  0  0  0  0  0  0  0  0  0  0  0
   -2.8640    1.5012   -1.1824 H   0  0  0  0  0  0  0  0  0  0  0  0
   -1.1717    1.3349   -0.6906 H   0  0  0  0  0  0  0  0  0  0  0  0
   -3.9097    3.5982   -1.0200 H   0  0  0  0  0  0  0  0  0  0  0  0
   -2.4739    5.4644    1.6168 H   0  0  0  0  0  0  0  0  0  0  0  0
    1.2358    2.0940   -0.4963 H   0  0  0  0  0  0  0  0  0  0  0  0
    3.4324    3.1605    0.0151 H   0  0  0  0  0  0  0  0  0  0  0  0
    5.3073   -0.7042   -0.0186 H   0  0  0  0  0  0  0  0  0  0  0  0
    3.0291   -3.3284   -2.6671 H   0  0  0  0  0  0  0  0  0  0  0  0
    6.1967    1.3199    2.4491 H   0  0  0  0  0  0  0  0  0  0  0  0
   -5.2769   -3.7665   -0.0892 H   0  0  0  0  0  0  0  0  0  0  0  0
   -1.9496   -5.0146    0.6142 H   0  0  0  0  0  0  0  0  0  0  0  0
   -3.3482   -4.5928    1.6748 H   0  0  0  0  0  0  0  0  0  0  0  0
   -3.5351   -4.8236   -0.1272 H   0  0  0  0  0  0  0  0  0  0  0  0
  1  2  2  0
  2  3  1  0
  3  4  2  0
  4  5  1  0
  5  6  1  0
  6  7  1  0
  7  8  2  0
  7  9  1  0
  7 10  1  0
  4 11  1  0
 11 12  1  0
 12 13  2  3
 13 14  1  0
 14 15  2  0
 15 16  1  0
 16 17  2  0
 17 18  1  0
 18 19  2  0
 19 20  1  0
 20 21  2  0
 20 22  2  0
 20 23  1  0
 17 24  1  0
 24 25  2  0
 24 26  2  0
 24 27  1  0
 11 28  2  0
 28 29  1  0
 29 30  2  0
 30 31  1  0
 29 32  1  0
 30  3  1  0
 19 14  1  0
  2 33  1  0
  5 34  1  0
  5 35  1  0
  9 36  1  0
 10 37  1  0
 15 38  1  0
 16 39  1  0
 18 40  1  0
 23 41  1  0
 27 42  1  0
 31 43  1  0
 32 44  1  0
 32 45  1  0
 32 46  1  0
M  END
>  <Ligand ID>  (1) 
LIG0003579

>  <Ligand>  (1) 
ppads

>  <SMILES>  (1) 
O=Cc1c(COP(=O)(O)O)c(N=Nc2ccc(cc2S(=O)(=O)O)S(=O)(=O)O)nc(c1O)C

>  <CID>  (1) 
4881.0

>  <ChEMBL ID>  (1) 
nan

>  <InChiKey>  (1) 
PNFZSRRRZNXSMF-UHFFFAOYSA-N

>  <InChi>  (1) 
InChI=1S/C14H14N3O12PS2/c1-7-13(19)9(5-18)10(6-29-30(20,21)22)14(15-7)17-16-11-3-2-8(31(23,24)25)4-12(11)32(26,27)28/h2-5,19H,6H2,1H3,(H2,20,21,22)(H,23,24,25)(H,26,27,28)

>  <IUPAC Name>  (1) 
4-[[4-formyl-5-hydroxy-6-methyl-3-(phosphonooxymethyl)pyridin-2-yl]diazenyl]benzene-1,3-disulfonic acid

$$$$
