
     RDKit          3D

 68 72  0  0  0  0  0  0  0  0999 V2000
    0.4331    1.8695   -2.2574 O   0  0  0  0  0  0  0  0  0  0  0  0
    0.1662    1.2502   -1.1643 C   0  0  0  0  0  0  0  0  0  0  0  0
   -1.1029    1.6175   -0.5207 C   0  0  2  0  0  0  0  0  0  0  0  0
   -1.7001    0.6661    0.3554 N   0  0  0  0  0  0  0  0  0  0  0  0
   -1.8633   -0.7354    0.0445 C   0  0  0  0  0  0  0  0  0  0  0  0
   -1.4782   -1.2194   -1.0536 O   0  0  0  0  0  0  0  0  0  0  0  0
   -2.4949   -1.6800    1.0018 C   0  0  0  0  0  0  0  0  0  0  0  0
   -2.8362   -0.9430    2.1958 N   0  0  0  0  0  0  0  0  0  0  0  0
   -3.6967   -2.3732    0.3997 C   0  0  0  0  0  0  0  0  0  0  0  0
   -1.4596   -2.7132    1.3840 C   0  0  0  0  0  0  0  0  0  0  0  0
   -2.0079    2.3444   -1.4547 C   0  0  0  0  0  0  0  0  0  0  0  0
   -3.2672    2.7039   -0.7873 C   0  0  0  0  0  0  0  0  0  0  0  0
   -3.5012    3.9497   -0.2057 C   0  0  0  0  0  0  0  0  0  0  0  0
   -4.7275    3.9642    0.3570 N   0  0  0  0  0  0  0  0  0  0  0  0
   -5.3057    2.7675    0.1620 C   0  0  0  0  0  0  0  0  0  0  0  0
   -4.4125    1.9895   -0.5414 C   0  0  0  0  0  0  0  0  0  0  0  0
   -4.7952    0.7192   -0.8669 C   0  0  0  0  0  0  0  0  0  0  0  0
   -6.0234    0.2435   -0.5012 C   0  0  0  0  0  0  0  0  0  0  0  0
   -6.9501    0.9824    0.2039 C   0  0  0  0  0  0  0  0  0  0  0  0
   -6.5637    2.2801    0.5370 C   0  0  0  0  0  0  0  0  0  0  0  0
    1.1455    0.3179   -0.7602 N   0  0  0  0  0  0  0  0  0  0  0  0
    2.2367    0.1213   -1.7285 C   0  0  0  0  0  0  0  0  0  0  0  0
    3.5350    0.2838   -1.0099 C   0  0  0  0  0  0  0  0  0  0  0  0
    3.6111   -0.6938    0.1618 C   0  0  0  0  0  0  0  0  0  0  0  0
    2.5535   -0.4113    1.1600 C   0  0  0  0  0  0  0  0  0  0  0  0
    1.2018   -0.3852    0.4760 C   0  0  0  0  0  0  0  0  0  0  0  0
    3.6345   -2.0998   -0.3434 C   0  0  0  0  0  0  0  0  0  0  0  0
    5.0664   -2.1990   -0.8878 C   0  0  0  0  0  0  0  0  0  0  0  0
    5.8619   -1.4100    0.0915 C   0  0  0  0  0  0  0  0  0  0  0  0
    4.9891   -0.5340    0.7021 C   0  0  0  0  0  0  0  0  0  0  0  0
    5.4689    0.3203    1.6633 C   0  0  0  0  0  0  0  0  0  0  0  0
    6.8106    0.3212    2.0325 C   0  0  0  0  0  0  0  0  0  0  0  0
    7.7039   -0.5649    1.4172 C   0  0  0  0  0  0  0  0  0  0  0  0
    7.1992   -1.4206    0.4482 C   0  0  0  0  0  0  0  0  0  0  0  0
   -0.7514    2.4561    0.2268 H   0  0  0  0  0  0  0  0  0  0  0  0
   -2.0788    0.9210    1.3197 H   0  0  0  0  0  0  0  0  0  0  0  0
   -2.5252   -1.3687    3.0792 H   0  0  0  0  0  0  0  0  0  0  0  0
   -3.7538   -0.4903    2.1848 H   0  0  0  0  0  0  0  0  0  0  0  0
   -4.6153   -2.0303    0.9317 H   0  0  0  0  0  0  0  0  0  0  0  0
   -3.7503   -2.1451   -0.6847 H   0  0  0  0  0  0  0  0  0  0  0  0
   -3.5990   -3.4771    0.4645 H   0  0  0  0  0  0  0  0  0  0  0  0
   -1.9679   -3.5409    1.9343 H   0  0  0  0  0  0  0  0  0  0  0  0
   -1.0041   -3.1866    0.4924 H   0  0  0  0  0  0  0  0  0  0  0  0
   -0.6414   -2.2759    1.9822 H   0  0  0  0  0  0  0  0  0  0  0  0
   -1.5318    3.2832   -1.8251 H   0  0  0  0  0  0  0  0  0  0  0  0
   -2.2132    1.7173   -2.3659 H   0  0  0  0  0  0  0  0  0  0  0  0
   -2.8198    4.7949   -0.1928 H   0  0  0  0  0  0  0  0  0  0  0  0
   -5.1992    4.7407    0.8681 H   0  0  0  0  0  0  0  0  0  0  0  0
   -4.1135    0.1070   -1.4285 H   0  0  0  0  0  0  0  0  0  0  0  0
   -6.2562   -0.7877   -0.8002 H   0  0  0  0  0  0  0  0  0  0  0  0
   -7.9116    0.5927    0.4835 H   0  0  0  0  0  0  0  0  0  0  0  0
   -7.2718    2.8821    1.0908 H   0  0  0  0  0  0  0  0  0  0  0  0
    2.1228   -0.8537   -2.2315 H   0  0  0  0  0  0  0  0  0  0  0  0
    2.2227    0.8796   -2.5365 H   0  0  0  0  0  0  0  0  0  0  0  0
    4.4089    0.0946   -1.6451 H   0  0  0  0  0  0  0  0  0  0  0  0
    3.5842    1.3045   -0.5852 H   0  0  0  0  0  0  0  0  0  0  0  0
    2.8080    0.5577    1.6574 H   0  0  0  0  0  0  0  0  0  0  0  0
    2.5346   -1.2279    1.9021 H   0  0  0  0  0  0  0  0  0  0  0  0
    0.4912    0.0612    1.2247 H   0  0  0  0  0  0  0  0  0  0  0  0
    0.9107   -1.4431    0.3541 H   0  0  0  0  0  0  0  0  0  0  0  0
    3.5843   -2.7956    0.5413 H   0  0  0  0  0  0  0  0  0  0  0  0
    2.8742   -2.3559   -1.0848 H   0  0  0  0  0  0  0  0  0  0  0  0
    5.3540   -3.2727   -0.8580 H   0  0  0  0  0  0  0  0  0  0  0  0
    5.1283   -1.7916   -1.9096 H   0  0  0  0  0  0  0  0  0  0  0  0
    4.7787    1.0118    2.1457 H   0  0  0  0  0  0  0  0  0  0  0  0
    7.1548    1.0100    2.7961 H   0  0  0  0  0  0  0  0  0  0  0  0
    8.7619   -0.5801    1.6931 H   0  0  0  0  0  0  0  0  0  0  0  0
    7.8539   -2.1210   -0.0525 H   0  0  0  0  0  0  0  0  0  0  0  0
  1  2  2  0
  2  3  1  0
  3  4  1  0
  4  5  1  0
  5  6  2  0
  5  7  1  0
  7  8  1  0
  7  9  1  0
  7 10  1  0
  3 11  1  0
 11 12  1  0
 12 13  2  0
 13 14  1  0
 14 15  1  0
 15 16  2  0
 16 17  1  0
 17 18  2  0
 18 19  1  0
 19 20  2  0
  2 21  1  0
 21 22  1  0
 22 23  1  0
 23 24  1  0
 24 25  1  0
 25 26  1  0
 24 27  1  0
 27 28  1  0
 28 29  1  0
 29 30  2  0
 30 31  1  0
 31 32  2  0
 32 33  1  0
 33 34  2  0
 16 12  1  0
 26 21  1  0
 34 29  1  0
 20 15  1  0
 30 24  1  0
  3 35  1  1
  4 36  1  0
  8 37  1  0
  8 38  1  0
  9 39  1  0
  9 40  1  0
  9 41  1  0
 10 42  1  0
 10 43  1  0
 10 44  1  0
 11 45  1  0
 11 46  1  0
 13 47  1  0
 14 48  1  0
 17 49  1  0
 18 50  1  0
 19 51  1  0
 20 52  1  0
 22 53  1  0
 22 54  1  0
 23 55  1  0
 23 56  1  0
 25 57  1  0
 25 58  1  0
 26 59  1  0
 26 60  1  0
 27 61  1  0
 27 62  1  0
 28 63  1  0
 28 64  1  0
 31 65  1  0
 32 66  1  0
 33 67  1  0
 34 68  1  0
M  END
>  <Ligand ID>  (1) 
LIG0003375

>  <Ligand>  (1) 
CHEMBL274599

>  <SMILES>  (1) 
O=C([C@H](NC(=O)C(N)(C)C)Cc1c[nH]c2c1cccc2)N1CCC2(CC1)CCc1c2cccc1

>  <CID>  (1) 
9890375.0

>  <ChEMBL ID>  (1) 
nan

>  <InChiKey>  (1) 
NQEGSKXLUMFKJZ-XMMPIXPASA-N

>  <InChi>  (1) 
InChI=1S/C28H34N4O2/c1-27(2,29)26(34)31-24(17-20-18-30-23-10-6-4-8-21(20)23)25(33)32-15-13-28(14-16-32)12-11-19-7-3-5-9-22(19)28/h3-10,18,24,30H,11-17,29H2,1-2H3,(H,31,34)/t24-/m1/s1

>  <IUPAC Name>  (1) 
2-amino-N-[(2R)-3-(1H-indol-3-yl)-1-oxo-1-spiro[1,2-dihydroindene-3,4'-piperidine]-1'-ylpropan-2-yl]-2-methylpropanamide

$$$$
