
     RDKit          3D

 28 28  0  0  0  0  0  0  0  0999 V2000
    4.8110    1.2221   -0.0397 O   0  0  0  0  0  0  0  0  0  0  0  0
    4.0824    0.0422    0.0688 C   0  0  0  0  0  0  0  0  0  0  0  0
    2.6016    0.3320    0.3358 C   0  0  0  0  0  0  0  0  0  0  0  0
    1.8926   -0.9883    0.4384 C   0  0  0  0  0  0  0  0  0  0  0  0
    0.4267   -0.8412    0.7013 C   0  0  0  0  0  0  0  0  0  0  0  0
   -0.2116   -0.0740   -0.4038 C   0  0  0  0  0  0  0  0  0  0  0  0
   -1.6750    0.1119   -0.2114 C   0  0  0  0  0  0  0  0  0  0  0  0
   -2.2080    1.1753    0.4446 C   0  0  0  0  0  0  0  0  0  0  0  0
   -3.5854    1.2775    0.5829 C   0  0  0  0  0  0  0  0  0  0  0  0
   -4.4569    0.3344    0.0773 C   0  0  0  0  0  0  0  0  0  0  0  0
   -3.9029   -0.7433   -0.5883 C   0  0  0  0  0  0  0  0  0  0  0  0
   -2.5191   -0.8684   -0.7405 C   0  0  0  0  0  0  0  0  0  0  0  0
    4.1767    1.9711   -0.1296 H   0  0  0  0  0  0  0  0  0  0  0  0
    4.4623   -0.6092    0.8812 H   0  0  0  0  0  0  0  0  0  0  0  0
    4.1485   -0.4770   -0.9017 H   0  0  0  0  0  0  0  0  0  0  0  0
    2.5640    0.9249    1.2590 H   0  0  0  0  0  0  0  0  0  0  0  0
    2.2697    0.9342   -0.5482 H   0  0  0  0  0  0  0  0  0  0  0  0
    2.4169   -1.5650    1.2354 H   0  0  0  0  0  0  0  0  0  0  0  0
    2.0201   -1.4975   -0.5532 H   0  0  0  0  0  0  0  0  0  0  0  0
   -0.0144   -1.8695    0.7053 H   0  0  0  0  0  0  0  0  0  0  0  0
    0.2424   -0.4146    1.7043 H   0  0  0  0  0  0  0  0  0  0  0  0
   -0.0540   -0.5853   -1.3524 H   0  0  0  0  0  0  0  0  0  0  0  0
    0.2396    0.9585   -0.3889 H   0  0  0  0  0  0  0  0  0  0  0  0
   -1.5550    1.9482    0.8625 H   0  0  0  0  0  0  0  0  0  0  0  0
   -3.9862    2.1424    1.1146 H   0  0  0  0  0  0  0  0  0  0  0  0
   -5.5323    0.4120    0.1840 H   0  0  0  0  0  0  0  0  0  0  0  0
   -4.5358   -1.5297   -1.0153 H   0  0  0  0  0  0  0  0  0  0  0  0
   -2.1180   -1.7235   -1.2664 H   0  0  0  0  0  0  0  0  0  0  0  0
  1  2  1  0
  2  3  1  0
  3  4  1  0
  4  5  1  0
  5  6  1  0
  6  7  1  0
  7  8  2  0
  8  9  1  0
  9 10  2  0
 10 11  1  0
 11 12  2  0
 12  7  1  0
  1 13  1  0
  2 14  1  0
  2 15  1  0
  3 16  1  0
  3 17  1  0
  4 18  1  0
  4 19  1  0
  5 20  1  0
  5 21  1  0
  6 22  1  0
  6 23  1  0
  8 24  1  0
  9 25  1  0
 10 26  1  0
 11 27  1  0
 12 28  1  0
M  END
>  <Ligand ID>  (1) 
LIG0000571

>  <Ligand>  (1) 
5-phenylpentan-1-ol

>  <SMILES>  (1) 
OCCCCCc1ccccc1

>  <CID>  (1) 
61523.0

>  <ChEMBL ID>  (1) 
nan

>  <InChiKey>  (1) 
DPZMVZIQRMVBBW-UHFFFAOYSA-N

>  <InChi>  (1) 
InChI=1S/C11H16O/c12-10-6-2-5-9-11-7-3-1-4-8-11/h1,3-4,7-8,12H,2,5-6,9-10H2

>  <IUPAC Name>  (1) 
5-phenylpentan-1-ol

$$$$
