
     RDKit          3D

 48 48  0  0  0  0  0  0  0  0999 V2000
   -0.4994   -0.9585    0.0410 O   0  0  0  0  0  0  0  0  0  0  0  0
   -0.9797   -2.0893    0.1029 C   0  0  0  0  0  0  0  0  0  0  0  0
   -2.2492   -2.1986    0.8456 C   0  0  0  0  0  0  0  0  0  0  0  0
   -2.7506   -0.7811    1.2043 C   0  0  0  0  0  0  0  0  0  0  0  0
   -3.1817   -0.1195   -0.0587 C   0  0  0  0  0  0  0  0  0  0  0  0
   -3.6145    1.3129    0.0476 C   0  0  0  0  0  0  0  0  0  0  0  0
   -2.4934    2.2730    0.3674 C   0  0  0  0  0  0  0  0  0  0  0  0
   -1.4507    2.3043   -0.6614 C   0  0  0  0  0  0  0  0  0  0  0  0
   -0.2192    3.1587   -0.3032 C   0  0  0  0  0  0  0  0  0  0  0  0
    0.8263    2.8118   -1.3349 C   0  0  0  0  0  0  0  0  0  0  0  0
    1.9871    2.2812   -1.0429 C   0  0  0  0  0  0  0  0  0  0  0  0
    2.5071    1.9374    0.2892 C   0  0  0  0  0  0  0  0  0  0  0  0
    2.6668    0.4854    0.5739 C   0  0  0  0  0  0  0  0  0  0  0  0
    3.3594   -0.3609   -0.4504 C   0  0  0  0  0  0  0  0  0  0  0  0
    3.3099   -1.7726    0.0912 C   0  0  0  0  0  0  0  0  0  0  0  0
    1.9570   -2.3613    0.2732 C   0  0  0  0  0  0  0  0  0  0  0  0
    1.1435   -2.5966   -0.9543 C   0  0  0  0  0  0  0  0  0  0  0  0
   -0.2254   -3.1547   -0.5646 C   0  0  0  0  0  0  0  0  0  0  0  0
   -2.1884   -2.8300    1.7430 H   0  0  0  0  0  0  0  0  0  0  0  0
   -2.9979   -2.6710    0.1729 H   0  0  0  0  0  0  0  0  0  0  0  0
   -1.9857   -0.2385    1.7682 H   0  0  0  0  0  0  0  0  0  0  0  0
   -3.5913   -0.9790    1.9039 H   0  0  0  0  0  0  0  0  0  0  0  0
   -2.5238   -0.3168   -0.9182 H   0  0  0  0  0  0  0  0  0  0  0  0
   -4.1380   -0.6590   -0.3434 H   0  0  0  0  0  0  0  0  0  0  0  0
   -4.1006    1.6005   -0.8982 H   0  0  0  0  0  0  0  0  0  0  0  0
   -4.3612    1.3805    0.8568 H   0  0  0  0  0  0  0  0  0  0  0  0
   -2.0579    2.0221    1.3539 H   0  0  0  0  0  0  0  0  0  0  0  0
   -2.9545    3.2755    0.4732 H   0  0  0  0  0  0  0  0  0  0  0  0
   -1.7913    2.7810   -1.6280 H   0  0  0  0  0  0  0  0  0  0  0  0
   -1.0723    1.3189   -0.9520 H   0  0  0  0  0  0  0  0  0  0  0  0
    0.0913    3.0523    0.7208 H   0  0  0  0  0  0  0  0  0  0  0  0
   -0.4929    4.2121   -0.4953 H   0  0  0  0  0  0  0  0  0  0  0  0
    0.5650    3.0273   -2.3517 H   0  0  0  0  0  0  0  0  0  0  0  0
    2.6529    2.0674   -1.8970 H   0  0  0  0  0  0  0  0  0  0  0  0
    3.5316    2.4302    0.3983 H   0  0  0  0  0  0  0  0  0  0  0  0
    1.8958    2.3582    1.1210 H   0  0  0  0  0  0  0  0  0  0  0  0
    3.3226    0.3447    1.5086 H   0  0  0  0  0  0  0  0  0  0  0  0
    1.7211    0.0030    0.8688 H   0  0  0  0  0  0  0  0  0  0  0  0
    4.4238   -0.0426   -0.5070 H   0  0  0  0  0  0  0  0  0  0  0  0
    2.8803   -0.3184   -1.4495 H   0  0  0  0  0  0  0  0  0  0  0  0
    3.7950   -1.7690    1.1120 H   0  0  0  0  0  0  0  0  0  0  0  0
    3.9350   -2.4658   -0.5079 H   0  0  0  0  0  0  0  0  0  0  0  0
    1.3477   -1.8965    1.0658 H   0  0  0  0  0  0  0  0  0  0  0  0
    2.1576   -3.4084    0.6978 H   0  0  0  0  0  0  0  0  0  0  0  0
    1.0097   -1.6611   -1.5362 H   0  0  0  0  0  0  0  0  0  0  0  0
    1.6702   -3.3192   -1.6226 H   0  0  0  0  0  0  0  0  0  0  0  0
   -0.1198   -4.0104    0.1045 H   0  0  0  0  0  0  0  0  0  0  0  0
   -0.7170   -3.4596   -1.5156 H   0  0  0  0  0  0  0  0  0  0  0  0
  1  2  2  0
  2  3  1  0
  3  4  1  0
  4  5  1  0
  5  6  1  0
  6  7  1  0
  7  8  1  0
  8  9  1  0
  9 10  1  0
 10 11  2  0
 11 12  1  0
 12 13  1  0
 13 14  1  0
 14 15  1  0
 15 16  1  0
 16 17  1  0
 17 18  1  0
 18  2  1  0
  3 19  1  0
  3 20  1  0
  4 21  1  0
  4 22  1  0
  5 23  1  0
  5 24  1  0
  6 25  1  0
  6 26  1  0
  7 27  1  0
  7 28  1  0
  8 29  1  0
  8 30  1  0
  9 31  1  0
  9 32  1  0
 10 33  1  0
 11 34  1  0
 12 35  1  0
 12 36  1  0
 13 37  1  0
 13 38  1  0
 14 39  1  0
 14 40  1  0
 15 41  1  0
 15 42  1  0
 16 43  1  0
 16 44  1  0
 17 45  1  0
 17 46  1  0
 18 47  1  0
 18 48  1  0
M  END
>  <Ligand ID>  (1) 
LIG0000639

>  <Ligand>  (1) 
Civetone

>  <SMILES>  (1) 
O=C1CCCCCCC/C=C\CCCCCCC1

>  <CID>  (1) 
5315941.0

>  <ChEMBL ID>  (1) 
nan

>  <InChiKey>  (1) 
ZKVZSBSZTMPBQR-UPHRSURJSA-N

>  <InChi>  (1) 
InChI=1S/C17H30O/c18-17-15-13-11-9-7-5-3-1-2-4-6-8-10-12-14-16-17/h1-2H,3-16H2/b2-1-

>  <IUPAC Name>  (1) 
(9Z)-cycloheptadec-9-en-1-one

$$$$
