
     RDKit          3D

 25 24  0  0  0  0  0  0  0  0999 V2000
    3.9127    0.4250   -0.0067 N   0  0  0  0  0  0  0  0  0  0  0  0
    2.9600   -0.6250   -0.0279 C   0  0  0  0  0  0  0  0  0  0  0  0
    3.2376   -1.8121    0.2280 O   0  0  0  0  0  0  0  0  0  0  0  0
    1.6328   -0.3258   -0.3520 O   0  0  0  0  0  0  0  0  0  0  0  0
    0.6545   -1.3504   -0.3827 C   0  0  0  0  0  0  0  0  0  0  0  0
   -0.6733   -0.7787   -0.7526 C   0  0  0  0  0  0  0  0  0  0  0  0
   -1.2295    0.2128    0.0741 N   0  0  0  0  0  0  0  0  0  0  0  0
   -2.5254   -0.2626    0.5721 C   0  0  0  0  0  0  0  0  0  0  0  0
   -1.5770    1.4005   -0.7184 C   0  0  0  0  0  0  0  0  0  0  0  0
   -0.4612    0.7327    1.1600 C   0  0  0  0  0  0  0  0  0  0  0  0
    4.5234    0.6377   -0.8405 H   0  0  0  0  0  0  0  0  0  0  0  0
    4.0186    1.0125    0.8615 H   0  0  0  0  0  0  0  0  0  0  0  0
    0.9645   -2.0090   -1.2244 H   0  0  0  0  0  0  0  0  0  0  0  0
    0.6588   -1.9905    0.5052 H   0  0  0  0  0  0  0  0  0  0  0  0
   -0.5420   -0.3818   -1.8011 H   0  0  0  0  0  0  0  0  0  0  0  0
   -1.3695   -1.6449   -0.9031 H   0  0  0  0  0  0  0  0  0  0  0  0
   -2.9790   -0.8047   -0.3084 H   0  0  0  0  0  0  0  0  0  0  0  0
   -3.1666    0.5859    0.8051 H   0  0  0  0  0  0  0  0  0  0  0  0
   -2.3726   -0.9762    1.3804 H   0  0  0  0  0  0  0  0  0  0  0  0
   -0.6226    1.9070   -0.9740 H   0  0  0  0  0  0  0  0  0  0  0  0
   -2.0809    1.1031   -1.6564 H   0  0  0  0  0  0  0  0  0  0  0  0
   -2.1581    2.1319   -0.1284 H   0  0  0  0  0  0  0  0  0  0  0  0
   -1.1671    0.9778    2.0000 H   0  0  0  0  0  0  0  0  0  0  0  0
    0.0312    1.7245    0.9371 H   0  0  0  0  0  0  0  0  0  0  0  0
    0.3309    0.1104    1.5529 H   0  0  0  0  0  0  0  0  0  0  0  0
  1  2  1  0
  2  3  2  0
  2  4  1  0
  4  5  1  0
  5  6  1  0
  6  7  1  0
  7  8  1  0
  7  9  1  0
  7 10  1  0
  1 11  1  0
  1 12  1  0
  5 13  1  0
  5 14  1  0
  6 15  1  0
  6 16  1  0
  8 17  1  0
  8 18  1  0
  8 19  1  0
  9 20  1  0
  9 21  1  0
  9 22  1  0
 10 23  1  0
 10 24  1  0
 10 25  1  0
M  CHG  1   7   1
M  END
>  <Ligand ID>  (1) 
LIG0000810

>  <Ligand>  (1) 
carbachol

>  <SMILES>  (1) 
NC(=O)OCC[N+](C)(C)C

>  <CID>  (1) 
2551.0

>  <ChEMBL ID>  (1) 
nan

>  <InChiKey>  (1) 
VPJXQGSRWJZDOB-UHFFFAOYSA-O

>  <InChi>  (1) 
InChI=1S/C6H14N2O2/c1-8(2,3)4-5-10-6(7)9/h4-5H2,1-3H3,(H-,7,9)/p+1

>  <IUPAC Name>  (1) 
2-carbamoyloxyethyl(trimethyl)azanium

$$$$
