
     RDKit          3D

 30 32  0  0  0  0  0  0  0  0999 V2000
    5.0785   -0.7114   -1.6499 Cl  0  0  0  0  0  0  0  0  0  0  0  0
    3.5459    0.1543   -1.5257 C   0  0  0  0  0  0  0  0  0  0  0  0
    3.4272    1.3553   -2.1843 C   0  0  0  0  0  0  0  0  0  0  0  0
    2.2312    2.0411   -2.0928 C   0  0  0  0  0  0  0  0  0  0  0  0
    1.1868    1.5116   -1.3479 C   0  0  0  0  0  0  0  0  0  0  0  0
    1.2832    0.3088   -0.6791 C   0  0  0  0  0  0  0  0  0  0  0  0
    2.4880   -0.3602   -0.7842 C   0  0  0  0  0  0  0  0  0  0  0  0
    0.2046   -0.2356    0.0890 N   0  0  0  0  0  0  0  0  0  0  0  0
    0.2189   -1.4865    0.8299 C   0  0  0  0  0  0  0  0  0  0  0  0
   -1.1726   -2.0143    0.5497 C   0  0  0  0  0  0  0  0  0  0  0  0
   -2.0125   -0.8441    0.1263 C   0  0  2  0  0  0  0  0  0  0  0  0
   -1.0888    0.3478    0.2739 C   0  0  1  0  0  0  0  0  0  0  0  0
   -1.3479    0.8268    1.6659 C   0  0  0  0  0  0  0  0  0  0  0  0
   -2.5755    0.2743    2.1380 N   0  0  0  0  0  0  0  0  0  0  0  0
   -3.1392   -0.5199    1.0711 C   0  0  0  0  0  0  0  0  0  0  0  0
    4.2532    1.7607   -2.7652 H   0  0  0  0  0  0  0  0  0  0  0  0
    2.1036    3.0039   -2.6067 H   0  0  0  0  0  0  0  0  0  0  0  0
    0.2861    2.0891   -1.3134 H   0  0  0  0  0  0  0  0  0  0  0  0
    2.6719   -1.3059   -0.3025 H   0  0  0  0  0  0  0  0  0  0  0  0
    0.9978   -2.1700    0.4480 H   0  0  0  0  0  0  0  0  0  0  0  0
    0.3911   -1.3219    1.9124 H   0  0  0  0  0  0  0  0  0  0  0  0
   -1.5791   -2.5336    1.4422 H   0  0  0  0  0  0  0  0  0  0  0  0
   -1.0928   -2.7900   -0.2559 H   0  0  0  0  0  0  0  0  0  0  0  0
   -2.3915   -0.9136   -0.9052 H   0  0  0  0  0  0  0  0  0  0  0  0
   -1.2920    1.1142   -0.5010 H   0  0  0  0  0  0  0  0  0  0  0  0
   -1.4255    1.9518    1.6018 H   0  0  0  0  0  0  0  0  0  0  0  0
   -0.4840    0.6592    2.3525 H   0  0  0  0  0  0  0  0  0  0  0  0
   -3.2196    1.0178    2.4936 H   0  0  0  0  0  0  0  0  0  0  0  0
   -3.8245    0.1684    0.5085 H   0  0  0  0  0  0  0  0  0  0  0  0
   -3.7225   -1.3783    1.4110 H   0  0  0  0  0  0  0  0  0  0  0  0
  1  2  1  0
  2  3  2  0
  3  4  1  0
  4  5  2  0
  5  6  1  0
  6  7  2  0
  6  8  1  0
  8  9  1  0
  9 10  1  0
 10 11  1  0
 11 12  1  0
 12 13  1  0
 13 14  1  0
 14 15  1  0
  7  2  1  0
 12  8  1  0
 15 11  1  0
  3 16  1  0
  4 17  1  0
  5 18  1  0
  7 19  1  0
  9 20  1  0
  9 21  1  0
 10 22  1  0
 10 23  1  0
 11 24  1  6
 12 25  1  6
 13 26  1  0
 13 27  1  0
 14 28  1  0
 15 29  1  0
 15 30  1  0
M  END
>  <Ligand ID>  (1) 
LIG0003121

>  <Ligand>  (1) 
CHEMBL209254

>  <SMILES>  (1) 
Clc1cccc(c1)N1CC[C@@H]2[C@H]1CNC2

>  <CID>  (1) 
44412403.0

>  <ChEMBL ID>  (1) 
nan

>  <InChiKey>  (1) 
MEHULQRIVRWVSD-JOYOIKCWSA-N

>  <InChi>  (1) 
InChI=1S/C12H15ClN2/c13-10-2-1-3-11(6-10)15-5-4-9-7-14-8-12(9)15/h1-3,6,9,12,14H,4-5,7-8H2/t9-,12+/m0/s1

>  <IUPAC Name>  (1) 
(3aS,6aS)-1-(3-chlorophenyl)-3,3a,4,5,6,6a-hexahydro-2H-pyrrolo[2,3-c]pyrrole

$$$$
