
     RDKit          3D

 63 66  0  0  0  0  0  0  0  0999 V2000
    6.1517   -4.7626    1.7834 C   0  0  0  0  0  0  0  0  0  0  0  0
    6.5430   -3.5372    1.2289 O   0  0  0  0  0  0  0  0  0  0  0  0
    5.6076   -2.7658    0.5633 C   0  0  0  0  0  0  0  0  0  0  0  0
    4.2769   -3.1554    0.4168 C   0  0  0  0  0  0  0  0  0  0  0  0
    3.3828   -2.3368   -0.2633 C   0  0  0  0  0  0  0  0  0  0  0  0
    3.7671   -1.1312   -0.8093 C   0  0  0  0  0  0  0  0  0  0  0  0
    5.1011   -0.7594   -0.6524 C   0  0  0  0  0  0  0  0  0  0  0  0
    6.0084   -1.5625    0.0229 C   0  0  0  0  0  0  0  0  0  0  0  0
    2.8794   -0.2163   -1.5355 C   0  0  0  0  0  0  0  0  0  0  0  0
    2.3079    0.7410   -0.6491 N   0  0  0  0  0  0  0  0  0  0  0  0
    1.4985    0.1933    0.4158 C   0  0  0  0  0  0  0  0  0  0  0  0
    0.2286   -0.3175   -0.1312 N   0  0  0  0  0  0  0  0  0  0  0  0
   -0.3873    0.4112   -1.0412 C   0  0  0  0  0  0  0  0  0  0  0  0
    0.2341    1.6348   -1.4148 N   0  0  0  0  0  0  0  0  0  0  0  0
    1.6889    1.8335   -1.3276 C   0  0  0  0  0  0  0  0  0  0  0  0
   -0.5813    2.7326   -1.8874 C   0  0  0  0  0  0  0  0  0  0  0  0
   -1.5027    3.2886   -0.8896 C   0  0  0  0  0  0  0  0  0  0  0  0
   -2.8106    2.9170   -0.7076 C   0  0  0  0  0  0  0  0  0  0  0  0
   -3.6170    3.4890    0.2693 C   0  0  0  0  0  0  0  0  0  0  0  0
   -3.1423    4.4720    1.1182 C   0  0  0  0  0  0  0  0  0  0  0  0
   -1.8245    4.8527    0.9413 C   0  0  0  0  0  0  0  0  0  0  0  0
   -1.0270    4.2839   -0.0279 C   0  0  0  0  0  0  0  0  0  0  0  0
   -3.9842    4.9974    2.0606 O   0  0  0  0  0  0  0  0  0  0  0  0
   -3.6984    5.9862    3.0001 C   0  0  0  0  0  0  0  0  0  0  0  0
   -1.5937   -0.0011   -1.6216 N   0  0  0  0  0  0  0  0  0  0  0  0
   -2.3226   -1.1064   -1.1034 C   0  0  0  0  0  0  0  0  0  0  0  0
   -3.4804   -1.5097   -1.6523 N   0  0  0  0  0  0  0  0  0  0  0  0
   -4.1442   -2.5536   -1.1400 C   0  0  0  0  0  0  0  0  0  0  0  0
   -5.4255   -2.9704   -1.7770 C   0  0  0  0  0  0  0  0  0  0  0  0
   -3.6837   -3.2632   -0.0365 C   0  0  0  0  0  0  0  0  0  0  0  0
   -2.4898   -2.8245    0.5061 C   0  0  0  0  0  0  0  0  0  0  0  0
   -1.8443   -1.7608   -0.0414 N   0  0  0  0  0  0  0  0  0  0  0  0
   -1.9190   -3.5246    1.6910 C   0  0  0  0  0  0  0  0  0  0  0  0
    5.7337   -5.4262    0.9849 H   0  0  0  0  0  0  0  0  0  0  0  0
    7.0590   -5.2164    2.2339 H   0  0  0  0  0  0  0  0  0  0  0  0
    5.4128   -4.5682    2.5781 H   0  0  0  0  0  0  0  0  0  0  0  0
    3.9500   -4.1117    0.8448 H   0  0  0  0  0  0  0  0  0  0  0  0
    2.3411   -2.6571   -0.3737 H   0  0  0  0  0  0  0  0  0  0  0  0
    5.4396    0.1890   -1.0721 H   0  0  0  0  0  0  0  0  0  0  0  0
    7.0463   -1.2461    0.1299 H   0  0  0  0  0  0  0  0  0  0  0  0
    2.1279   -0.8314   -2.0739 H   0  0  0  0  0  0  0  0  0  0  0  0
    3.4960    0.3686   -2.2739 H   0  0  0  0  0  0  0  0  0  0  0  0
    1.2589    0.9588    1.1591 H   0  0  0  0  0  0  0  0  0  0  0  0
    2.0154   -0.6580    0.8814 H   0  0  0  0  0  0  0  0  0  0  0  0
    1.8890    2.7591   -0.7101 H   0  0  0  0  0  0  0  0  0  0  0  0
    2.1592    1.9694   -2.3093 H   0  0  0  0  0  0  0  0  0  0  0  0
    0.0951    3.5579   -2.2327 H   0  0  0  0  0  0  0  0  0  0  0  0
   -1.1860    2.4427   -2.7773 H   0  0  0  0  0  0  0  0  0  0  0  0
   -3.2586    2.1728   -1.3220 H   0  0  0  0  0  0  0  0  0  0  0  0
   -4.6448    3.1706    0.3835 H   0  0  0  0  0  0  0  0  0  0  0  0
   -1.4709    5.6280    1.6211 H   0  0  0  0  0  0  0  0  0  0  0  0
   -0.0136    4.6426   -0.0929 H   0  0  0  0  0  0  0  0  0  0  0  0
   -3.2230    5.6065    3.9399 H   0  0  0  0  0  0  0  0  0  0  0  0
   -3.0805    6.8340    2.6033 H   0  0  0  0  0  0  0  0  0  0  0  0
   -4.6647    6.4578    3.3142 H   0  0  0  0  0  0  0  0  0  0  0  0
   -1.9297    0.5562   -2.4635 H   0  0  0  0  0  0  0  0  0  0  0  0
   -5.7319   -2.2565   -2.5415 H   0  0  0  0  0  0  0  0  0  0  0  0
   -6.2531   -3.0528   -1.0177 H   0  0  0  0  0  0  0  0  0  0  0  0
   -5.3035   -3.9844   -2.2158 H   0  0  0  0  0  0  0  0  0  0  0  0
   -4.2401   -4.1085    0.3633 H   0  0  0  0  0  0  0  0  0  0  0  0
   -0.8121   -3.4499    1.6081 H   0  0  0  0  0  0  0  0  0  0  0  0
   -2.2305   -4.5741    1.7528 H   0  0  0  0  0  0  0  0  0  0  0  0
   -2.1785   -2.9470    2.6229 H   0  0  0  0  0  0  0  0  0  0  0  0
  1  2  1  0
  2  3  1  0
  3  4  2  0
  4  5  1  0
  5  6  2  0
  6  7  1  0
  7  8  2  0
  6  9  1  0
  9 10  1  0
 10 11  1  0
 11 12  1  0
 12 13  2  0
 13 14  1  0
 14 15  1  0
 14 16  1  0
 16 17  1  0
 17 18  2  0
 18 19  1  0
 19 20  2  0
 20 21  1  0
 21 22  2  0
 20 23  1  0
 23 24  1  0
 13 25  1  0
 25 26  1  0
 26 27  2  0
 27 28  1  0
 28 29  1  0
 28 30  2  0
 30 31  1  0
 31 32  2  0
 31 33  1  0
  8  3  1  0
 15 10  1  0
 22 17  1  0
 32 26  1  0
  1 34  1  0
  1 35  1  0
  1 36  1  0
  4 37  1  0
  5 38  1  0
  7 39  1  0
  8 40  1  0
  9 41  1  0
  9 42  1  0
 11 43  1  0
 11 44  1  0
 15 45  1  0
 15 46  1  0
 16 47  1  0
 16 48  1  0
 18 49  1  0
 19 50  1  0
 21 51  1  0
 22 52  1  0
 24 53  1  0
 24 54  1  0
 24 55  1  0
 25 56  1  0
 29 57  1  0
 29 58  1  0
 29 59  1  0
 30 60  1  0
 33 61  1  0
 33 62  1  0
 33 63  1  0
M  END
>  <Ligand ID>  (1) 
LIG0003782

>  <Ligand>  (1) 
SMR000149504

>  <SMILES>  (1) 
COc1ccc(cc1)CN1CN=C(N(C1)Cc1ccc(cc1)OC)Nc1nc(C)cc(n1)C

>  <CID>  (1) 
2037119.0

>  <ChEMBL ID>  (1) 
nan

>  <InChiKey>  (1) 
HHFTZXSKANTTSL-UHFFFAOYSA-N

>  <InChi>  (1) 
InChI=1S/C25H30N6O2/c1-18-13-19(2)28-24(27-18)29-25-26-16-30(14-20-5-9-22(32-3)10-6-20)17-31(25)15-21-7-11-23(33-4)12-8-21/h5-13H,14-17H2,1-4H3,(H,26,27,28,29)

>  <IUPAC Name>  (1) 
N-(4,6-dimethylpyrimidin-2-yl)-1,3-bis[(4-methoxyphenyl)methyl]-2,4-dihydro-1,3,5-triazin-6-amine

$$$$
