
     RDKit          3D

 42 42  0  0  0  0  0  0  0  0999 V2000
    4.0088   -0.1417   -1.2228 C   0  0  0  0  0  0  0  0  0  0  0  0
    3.2100    0.8854   -0.4452 C   0  0  0  0  0  0  0  0  0  0  0  0
    2.5162    0.2525    0.7472 C   0  0  0  0  0  0  0  0  0  0  0  0
    1.5625   -0.8048    0.3625 C   0  0  0  0  0  0  0  0  0  0  0  0
    0.3929   -0.4741   -0.4729 C   0  0  0  0  0  0  0  0  0  0  0  0
   -0.6607    0.3810    0.0329 C   0  0  0  0  0  0  0  0  0  0  0  0
   -1.8868   -0.1800    0.1799 C   0  0  0  0  0  0  0  0  0  0  0  0
   -2.2151   -1.5509   -0.1207 C   0  0  0  0  0  0  0  0  0  0  0  0
   -1.5921   -2.6715    0.3266 C   0  0  0  0  0  0  0  0  0  0  0  0
   -1.9630   -3.9449   -0.0397 C   0  0  0  0  0  0  0  0  0  0  0  0
   -3.0274   -4.1117   -0.9098 C   0  0  0  0  0  0  0  0  0  0  0  0
   -3.6851   -3.0141   -1.3849 C   0  0  0  0  0  0  0  0  0  0  0  0
   -3.2923   -1.7468   -1.0019 C   0  0  0  0  0  0  0  0  0  0  0  0
   -0.5918    1.8088    0.3955 C   0  0  0  0  0  0  0  0  0  0  0  0
   -0.2678    2.6717   -0.6335 O   0  0  0  0  0  0  0  0  0  0  0  0
    0.7029    3.5952   -0.3590 C   0  0  0  0  0  0  0  0  0  0  0  0
   -1.8492    2.2497    0.9362 O   0  0  0  0  0  0  0  0  0  0  0  0
   -1.6572    2.6336    2.2667 C   0  0  0  0  0  0  0  0  0  0  0  0
    4.4103   -0.9354   -0.5611 H   0  0  0  0  0  0  0  0  0  0  0  0
    3.4168   -0.5923   -2.0424 H   0  0  0  0  0  0  0  0  0  0  0  0
    4.8901    0.3845   -1.6404 H   0  0  0  0  0  0  0  0  0  0  0  0
    3.9224    1.6280   -0.0459 H   0  0  0  0  0  0  0  0  0  0  0  0
    2.5363    1.3485   -1.1651 H   0  0  0  0  0  0  0  0  0  0  0  0
    2.1780    1.0472    1.4064 H   0  0  0  0  0  0  0  0  0  0  0  0
    3.3556   -0.2535    1.3135 H   0  0  0  0  0  0  0  0  0  0  0  0
    1.2727   -1.4163    1.2767 H   0  0  0  0  0  0  0  0  0  0  0  0
    2.1562   -1.5697   -0.2341 H   0  0  0  0  0  0  0  0  0  0  0  0
    0.7899    0.0121   -1.4693 H   0  0  0  0  0  0  0  0  0  0  0  0
   -0.0267   -1.4107   -0.8858 H   0  0  0  0  0  0  0  0  0  0  0  0
   -2.7226    0.4286    0.5557 H   0  0  0  0  0  0  0  0  0  0  0  0
   -0.7741   -2.5719    1.0114 H   0  0  0  0  0  0  0  0  0  0  0  0
   -1.4066   -4.7927    0.3655 H   0  0  0  0  0  0  0  0  0  0  0  0
   -3.2982   -5.1266   -1.1817 H   0  0  0  0  0  0  0  0  0  0  0  0
   -4.5272   -3.1319   -2.0726 H   0  0  0  0  0  0  0  0  0  0  0  0
   -3.8477   -0.9114   -1.4088 H   0  0  0  0  0  0  0  0  0  0  0  0
    0.0682    1.9428    1.2663 H   0  0  0  0  0  0  0  0  0  0  0  0
    1.6801    3.2388   -0.0655 H   0  0  0  0  0  0  0  0  0  0  0  0
    0.3416    4.3902    0.3618 H   0  0  0  0  0  0  0  0  0  0  0  0
    0.8645    4.1667   -1.3170 H   0  0  0  0  0  0  0  0  0  0  0  0
   -1.2811    1.8129    2.9025 H   0  0  0  0  0  0  0  0  0  0  0  0
   -1.0299    3.5497    2.3316 H   0  0  0  0  0  0  0  0  0  0  0  0
   -2.6733    2.9249    2.6413 H   0  0  0  0  0  0  0  0  0  0  0  0
  1  2  1  0
  2  3  1  0
  3  4  1  0
  4  5  1  0
  5  6  1  0
  6  7  2  0
  7  8  1  0
  8  9  2  0
  9 10  1  0
 10 11  2  0
 11 12  1  0
 12 13  2  0
  6 14  1  0
 14 15  1  0
 15 16  1  0
 14 17  1  0
 17 18  1  0
 13  8  1  0
  1 19  1  0
  1 20  1  0
  1 21  1  0
  2 22  1  0
  2 23  1  0
  3 24  1  0
  3 25  1  0
  4 26  1  0
  4 27  1  0
  5 28  1  0
  5 29  1  0
  7 30  1  0
  9 31  1  0
 10 32  1  0
 11 33  1  0
 12 34  1  0
 13 35  1  0
 14 36  1  0
 16 37  1  0
 16 38  1  0
 16 39  1  0
 18 40  1  0
 18 41  1  0
 18 42  1  0
M  END
>  <Ligand ID>  (1) 
LIG0000210

>  <Ligand>  (1) 
alpha-Amylcinnamaldehyde dimethyl acetal

>  <SMILES>  (1) 
CCCCC/C(=C\c1ccccc1)/C(OC)OC

>  <CID>  (1) 
6005821.0

>  <ChEMBL ID>  (1) 
nan

>  <InChiKey>  (1) 
QCHZKUPVENJLAW-FYWRMAATSA-N

>  <InChi>  (1) 
InChI=1S/C16H24O2/c1-4-5-7-12-15(16(17-2)18-3)13-14-10-8-6-9-11-14/h6,8-11,13,16H,4-5,7,12H2,1-3H3/b15-13+

>  <IUPAC Name>  (1) 
[(E)-2-(dimethoxymethyl)hept-1-enyl]benzene

$$$$
