
     RDKit          3D

 32 34  0  0  0  0  0  0  0  0999 V2000
   -2.1392   -1.0553    0.9919 C   0  0  0  0  0  0  0  0  0  0  0  0
   -2.5378   -0.6588   -0.3748 C   0  0  1  0  0  0  0  0  0  0  0  0
   -1.4447   -0.3283   -1.3526 C   0  0  0  0  0  0  0  0  0  0  0  0
   -0.5825    0.7432   -0.9753 N   0  0  0  0  0  0  0  0  0  0  0  0
   -0.8863    2.0411   -1.2613 C   0  0  0  0  0  0  0  0  0  0  0  0
    0.0728    2.8980   -0.7964 C   0  0  0  0  0  0  0  0  0  0  0  0
    1.0212    2.1149   -0.1929 C   0  0  0  0  0  0  0  0  0  0  0  0
    0.5818    0.8000   -0.3241 C   0  0  0  0  0  0  0  0  0  0  0  0
    1.3976   -0.1584    0.2118 C   0  0  0  0  0  0  0  0  0  0  0  0
    1.0603   -1.4821    0.1367 C   0  0  0  0  0  0  0  0  0  0  0  0
    1.9222   -2.4417    0.6950 C   0  0  0  0  0  0  0  0  0  0  0  0
    3.0449   -2.0290    1.2826 N   0  0  0  0  0  0  0  0  0  0  0  0
    3.4204   -0.7601    1.3841 C   0  0  0  0  0  0  0  0  0  0  0  0
    2.5741    0.1951    0.8344 C   0  0  0  0  0  0  0  0  0  0  0  0
    3.0015    1.5084    0.9594 C   0  0  0  0  0  0  0  0  0  0  0  0
    2.1839    2.4733    0.4226 C   0  0  0  0  0  0  0  0  0  0  0  0
   -3.3384   -1.6969   -1.0089 N   0  0  0  0  0  0  0  0  0  0  0  0
   -3.0175   -0.8479    1.6626 H   0  0  0  0  0  0  0  0  0  0  0  0
   -1.3293   -0.4243    1.3939 H   0  0  0  0  0  0  0  0  0  0  0  0
   -1.9157   -2.1292    1.0953 H   0  0  0  0  0  0  0  0  0  0  0  0
   -3.2018    0.2530   -0.3342 H   0  0  0  0  0  0  0  0  0  0  0  0
   -0.9703   -1.2272   -1.7263 H   0  0  0  0  0  0  0  0  0  0  0  0
   -2.0807    0.0804   -2.2548 H   0  0  0  0  0  0  0  0  0  0  0  0
   -1.7722    2.4137   -1.7921 H   0  0  0  0  0  0  0  0  0  0  0  0
    0.0830    3.9784   -0.8860 H   0  0  0  0  0  0  0  0  0  0  0  0
    0.1895   -1.8912   -0.2995 H   0  0  0  0  0  0  0  0  0  0  0  0
    1.6934   -3.4983    0.6570 H   0  0  0  0  0  0  0  0  0  0  0  0
    4.3398   -0.4738    1.8698 H   0  0  0  0  0  0  0  0  0  0  0  0
    3.9275    1.7733    1.4511 H   0  0  0  0  0  0  0  0  0  0  0  0
    2.4686    3.5254    0.4909 H   0  0  0  0  0  0  0  0  0  0  0  0
   -4.0877   -1.2897   -1.6125 H   0  0  0  0  0  0  0  0  0  0  0  0
   -3.6784   -2.4062   -0.3472 H   0  0  0  0  0  0  0  0  0  0  0  0
  1  2  1  0
  2  3  1  0
  3  4  1  0
  4  5  1  0
  5  6  2  0
  6  7  1  0
  7  8  2  0
  8  9  1  0
  9 10  2  0
 10 11  1  0
 11 12  2  0
 12 13  1  0
 13 14  2  0
 14 15  1  0
 15 16  2  0
  2 17  1  0
  8  4  1  0
 14  9  1  0
 16  7  1  0
  1 18  1  0
  1 19  1  0
  1 20  1  0
  2 21  1  1
  3 22  1  0
  3 23  1  0
  5 24  1  0
  6 25  1  0
 10 26  1  0
 11 27  1  0
 13 28  1  0
 15 29  1  0
 16 30  1  0
 17 31  1  0
 17 32  1  0
M  END
>  <Ligand ID>  (1) 
LIG0002142

>  <Ligand>  (1) 
CHEMBL202656

>  <SMILES>  (1) 
C[C@@H](Cn1ccc2c1c1ccncc1cc2)N

>  <CID>  (1) 
18715554.0

>  <ChEMBL ID>  (1) 
nan

>  <InChiKey>  (1) 
DBBQAOGBHMWNBA-JTQLQIEISA-N

>  <InChi>  (1) 
InChI=1S/C14H15N3/c1-10(15)9-17-7-5-11-2-3-12-8-16-6-4-13(12)14(11)17/h2-8,10H,9,15H2,1H3/t10-/m0/s1

>  <IUPAC Name>  (1) 
(2S)-1-pyrrolo[2,3-f]isoquinolin-1-ylpropan-2-amine

$$$$
