
     RDKit          3D

 36 38  0  0  0  0  0  0  0  0999 V2000
    5.2241   -1.4628    0.0245 C   0  0  0  0  0  0  0  0  0  0  0  0
    3.7368   -1.2380    0.0415 C   0  0  0  0  0  0  0  0  0  0  0  0
    3.4547    0.1394    0.2636 O   0  0  0  0  0  0  0  0  0  0  0  0
    2.1341    0.5718    0.3168 C   0  0  0  0  0  0  0  0  0  0  0  0
    1.1505   -0.3779    0.1479 C   0  0  0  0  0  0  0  0  0  0  0  0
   -0.1604    0.0476    0.2001 C   0  0  0  0  0  0  0  0  0  0  0  0
   -1.3971   -0.7570    0.0522 C   0  0  2  0  0  0  0  0  0  0  0  0
   -1.5806   -1.3273   -1.3347 C   0  0  0  0  0  0  0  0  0  0  0  0
   -2.7729   -2.0958   -1.3428 N   0  0  0  0  0  0  0  0  0  0  0  0
   -3.9491   -1.5354   -0.8117 C   0  0  0  0  0  0  0  0  0  0  0  0
   -3.8344   -0.3502    0.0827 C   0  0  0  0  0  0  0  0  0  0  0  0
   -2.4983    0.1859    0.1905 N   0  0  0  0  0  0  0  0  0  0  0  0
   -1.9700    1.4920    0.4122 C   0  0  0  0  0  0  0  0  0  0  0  0
   -2.6404    2.5216    0.5719 O   0  0  0  0  0  0  0  0  0  0  0  0
   -0.5188    1.3660    0.4115 C   0  0  0  0  0  0  0  0  0  0  0  0
    0.4865    2.3127    0.5803 C   0  0  0  0  0  0  0  0  0  0  0  0
    1.8157    1.8752    0.5263 C   0  0  0  0  0  0  0  0  0  0  0  0
    0.1212    3.7182    0.8059 C   0  0  0  0  0  0  0  0  0  0  0  0
   -0.6096    4.2728   -0.2130 F   0  0  0  0  0  0  0  0  0  0  0  0
   -0.4749    3.8401    2.0460 F   0  0  0  0  0  0  0  0  0  0  0  0
    1.3070    4.4485    0.8705 F   0  0  0  0  0  0  0  0  0  0  0  0
    5.5720   -1.3347   -1.0346 H   0  0  0  0  0  0  0  0  0  0  0  0
    5.4276   -2.4688    0.4179 H   0  0  0  0  0  0  0  0  0  0  0  0
    5.7411   -0.6879    0.6232 H   0  0  0  0  0  0  0  0  0  0  0  0
    3.3171   -1.5704   -0.9330 H   0  0  0  0  0  0  0  0  0  0  0  0
    3.2921   -1.8768    0.8506 H   0  0  0  0  0  0  0  0  0  0  0  0
    1.3850   -1.4156   -0.0192 H   0  0  0  0  0  0  0  0  0  0  0  0
   -1.5210   -1.5125    0.8292 H   0  0  0  0  0  0  0  0  0  0  0  0
   -0.7420   -1.9798   -1.6254 H   0  0  0  0  0  0  0  0  0  0  0  0
   -1.7090   -0.5011   -2.0690 H   0  0  0  0  0  0  0  0  0  0  0  0
   -2.5939   -3.0891   -1.0621 H   0  0  0  0  0  0  0  0  0  0  0  0
   -4.6339   -1.2668   -1.6600 H   0  0  0  0  0  0  0  0  0  0  0  0
   -4.5112   -2.3674   -0.2922 H   0  0  0  0  0  0  0  0  0  0  0  0
   -4.5262    0.4646   -0.2160 H   0  0  0  0  0  0  0  0  0  0  0  0
   -4.1450   -0.6387    1.1092 H   0  0  0  0  0  0  0  0  0  0  0  0
    2.6231    2.5976    0.6556 H   0  0  0  0  0  0  0  0  0  0  0  0
  1  2  1  0
  2  3  1  0
  3  4  1  0
  4  5  2  0
  5  6  1  0
  6  7  1  0
  7  8  1  0
  8  9  1  0
  9 10  1  0
 10 11  1  0
 11 12  1  0
 12 13  1  0
 13 14  2  0
 13 15  1  0
 15 16  1  0
 16 17  2  0
 16 18  1  0
 18 19  1  0
 18 20  1  0
 18 21  1  0
 17  4  1  0
 15  6  2  0
 12  7  1  0
  1 22  1  0
  1 23  1  0
  1 24  1  0
  2 25  1  0
  2 26  1  0
  5 27  1  0
  7 28  1  1
  8 29  1  0
  8 30  1  0
  9 31  1  0
 10 32  1  0
 10 33  1  0
 11 34  1  0
 11 35  1  0
 17 36  1  0
M  END
>  <Ligand ID>  (1) 
LIG0004479

>  <Ligand>  (1) 
CHEMBL374660

>  <SMILES>  (1) 
CCOc1cc2[C@@H]3CNCCN3C(=O)c2c(c1)C(F)(F)F

>  <CID>  (1) 
11739217.0

>  <ChEMBL ID>  (1) 
nan

>  <InChiKey>  (1) 
TZKSZKXRXZYQGH-NSHDSACASA-N

>  <InChi>  (1) 
InChI=1S/C14H15F3N2O2/c1-2-21-8-5-9-11-7-18-3-4-19(11)13(20)12(9)10(6-8)14(15,16)17/h5-6,11,18H,2-4,7H2,1H3/t11-/m0/s1

>  <IUPAC Name>  (1) 
(10bR)-9-ethoxy-7-(trifluoromethyl)-2,3,4,10b-tetrahydro-1H-pyrazino[1,2-b]isoindol-6-one

$$$$
