
     RDKit          3D

 20 20  0  0  0  0  0  0  0  0999 V2000
    3.6408    0.3333    0.3016 O   0  0  0  0  0  0  0  0  0  0  0  0
    2.3548    0.2627    0.7661 C   0  0  0  0  0  0  0  0  0  0  0  0
    1.9705    1.0826    1.6184 O   0  0  0  0  0  0  0  0  0  0  0  0
    1.3560   -0.7557    0.3094 C   0  0  0  0  0  0  0  0  0  0  0  0
    0.3914   -0.1684   -0.6703 C   0  0  1  0  0  0  0  0  0  0  0  0
   -0.6460   -1.1913   -1.1527 C   0  0  0  0  0  0  0  0  0  0  0  0
   -1.0239    0.0807   -0.4275 C   0  0  2  0  0  0  0  0  0  0  0  0
   -1.6874    1.0497   -1.2951 N   0  0  0  0  0  0  0  0  0  0  0  0
   -1.6402   -0.0046    0.9132 C   0  0  0  0  0  0  0  0  0  0  0  0
   -1.2242   -0.7894    1.8226 O   0  0  0  0  0  0  0  0  0  0  0  0
   -2.7466    0.7835    1.2912 O   0  0  0  0  0  0  0  0  0  0  0  0
    4.1333    1.2277    0.2096 H   0  0  0  0  0  0  0  0  0  0  0  0
    0.9231   -1.3409    1.1197 H   0  0  0  0  0  0  0  0  0  0  0  0
    1.9705   -1.4959   -0.2851 H   0  0  0  0  0  0  0  0  0  0  0  0
    0.8826    0.4481   -1.4724 H   0  0  0  0  0  0  0  0  0  0  0  0
   -0.7593   -1.2694   -2.2424 H   0  0  0  0  0  0  0  0  0  0  0  0
   -0.7570   -2.1437   -0.5994 H   0  0  0  0  0  0  0  0  0  0  0  0
   -1.6483    2.0180   -0.9015 H   0  0  0  0  0  0  0  0  0  0  0  0
   -2.6437    0.7448   -1.5662 H   0  0  0  0  0  0  0  0  0  0  0  0
   -2.8467    1.1283    2.2608 H   0  0  0  0  0  0  0  0  0  0  0  0
  1  2  1  0
  2  3  2  0
  2  4  1  0
  4  5  1  0
  5  6  1  0
  6  7  1  0
  7  8  1  6
  7  9  1  0
  9 10  2  0
  9 11  1  0
  7  5  1  0
  1 12  1  0
  4 13  1  0
  4 14  1  0
  5 15  1  6
  6 16  1  0
  6 17  1  0
  8 18  1  0
  8 19  1  0
 11 20  1  0
M  END
>  <Ligand ID>  (1) 
LIG0000650

>  <Ligand>  (1) 
CHEMBL3347670

>  <SMILES>  (1) 
OC(=O)C[C@H]1C[C@@]1(N)C(=O)O

>  <CID>  (1) 
45082292.0

>  <ChEMBL ID>  (1) 
nan

>  <InChiKey>  (1) 
HMHPAFJEDLYRGO-DZSWIPIPSA-N

>  <InChi>  (1) 
InChI=1S/C6H9NO4/c7-6(5(10)11)2-3(6)1-4(8)9/h3H,1-2,7H2,(H,8,9)(H,10,11)/t3-,6-/m0/s1

>  <IUPAC Name>  (1) 
(1S,2R)-1-amino-2-(carboxymethyl)cyclopropane-1-carboxylic acid

$$$$
