
     RDKit          3D

 31 32  0  0  0  0  0  0  0  0999 V2000
    6.1784   -0.7011    0.6851 F   0  0  0  0  0  0  0  0  0  0  0  0
    4.9521   -0.2856    0.2610 C   0  0  0  0  0  0  0  0  0  0  0  0
    4.2892    0.6117    1.0699 C   0  0  0  0  0  0  0  0  0  0  0  0
    3.0436    1.0628    0.6846 C   0  0  0  0  0  0  0  0  0  0  0  0
    2.4494    0.6260   -0.5047 C   0  0  0  0  0  0  0  0  0  0  0  0
    3.1322   -0.2743   -1.3009 C   0  0  0  0  0  0  0  0  0  0  0  0
    4.3906   -0.7373   -0.9232 C   0  0  0  0  0  0  0  0  0  0  0  0
    1.1174    1.1520   -0.8499 C   0  0  0  0  0  0  0  0  0  0  0  0
    0.0781    0.2875   -0.2854 N   0  0  0  0  0  0  0  0  0  0  0  0
   -1.1912    0.8654   -0.6706 C   0  0  0  0  0  0  0  0  0  0  0  0
   -2.3612    0.1116   -0.1741 C   0  0  0  0  0  0  0  0  0  0  0  0
   -3.0746    0.6211    0.9117 C   0  0  0  0  0  0  0  0  0  0  0  0
   -4.1674    0.0049    1.4460 C   0  0  0  0  0  0  0  0  0  0  0  0
   -5.0183    0.7030    2.8131 Cl  0  0  0  0  0  0  0  0  0  0  0  0
   -4.6015   -1.1995    0.8830 C   0  0  0  0  0  0  0  0  0  0  0  0
   -3.8983   -1.7034   -0.1890 C   0  0  0  0  0  0  0  0  0  0  0  0
   -2.7936   -1.0763   -0.7258 C   0  0  0  0  0  0  0  0  0  0  0  0
   -2.1020   -1.5930   -1.7966 O   0  0  0  0  0  0  0  0  0  0  0  0
    4.7165    0.9791    2.0065 H   0  0  0  0  0  0  0  0  0  0  0  0
    2.5015    1.7772    1.3151 H   0  0  0  0  0  0  0  0  0  0  0  0
    2.6886   -0.6124   -2.2078 H   0  0  0  0  0  0  0  0  0  0  0  0
    4.9556   -1.4399   -1.5175 H   0  0  0  0  0  0  0  0  0  0  0  0
    1.0375    1.2123   -1.9541 H   0  0  0  0  0  0  0  0  0  0  0  0
    1.0093    2.1522   -0.3992 H   0  0  0  0  0  0  0  0  0  0  0  0
    0.1987   -0.7006   -0.5929 H   0  0  0  0  0  0  0  0  0  0  0  0
   -1.3058    0.9779   -1.7736 H   0  0  0  0  0  0  0  0  0  0  0  0
   -1.2110    1.8974   -0.2663 H   0  0  0  0  0  0  0  0  0  0  0  0
   -2.7512    1.5530    1.3588 H   0  0  0  0  0  0  0  0  0  0  0  0
   -5.4675   -1.6729    1.3182 H   0  0  0  0  0  0  0  0  0  0  0  0
   -4.2672   -2.6435   -0.6009 H   0  0  0  0  0  0  0  0  0  0  0  0
   -2.5277   -1.9550   -2.6496 H   0  0  0  0  0  0  0  0  0  0  0  0
  1  2  1  0
  2  3  2  0
  3  4  1  0
  4  5  2  0
  5  6  1  0
  6  7  2  0
  5  8  1  0
  8  9  1  0
  9 10  1  0
 10 11  1  0
 11 12  2  0
 12 13  1  0
 13 14  1  0
 13 15  2  0
 15 16  1  0
 16 17  2  0
 17 18  1  0
  7  2  1  0
 17 11  1  0
  3 19  1  0
  4 20  1  0
  6 21  1  0
  7 22  1  0
  8 23  1  0
  8 24  1  0
  9 25  1  0
 10 26  1  0
 10 27  1  0
 12 28  1  0
 15 29  1  0
 16 30  1  0
 18 31  1  0
M  END
>  <Ligand ID>  (1) 
LIG0005956

>  <Ligand>  (1) 
4-chloro-2-{[(4-fluorobenzyl)amino]methyl}phenol

>  <SMILES>  (1) 
Fc1ccc(cc1)CNCc1cc(Cl)ccc1O

>  <CID>  (1) 
25161471.0

>  <ChEMBL ID>  (1) 
nan

>  <InChiKey>  (1) 
PPURYYVLUUASPE-UHFFFAOYSA-N

>  <InChi>  (1) 
InChI=1S/C14H13ClFNO/c15-12-3-6-14(18)11(7-12)9-17-8-10-1-4-13(16)5-2-10/h1-7,17-18H,8-9H2

>  <IUPAC Name>  (1) 
4-chloro-2-[[(4-fluorophenyl)methylamino]methyl]phenol

$$$$
