
     RDKit          3D

 60 64  0  0  0  0  0  0  0  0999 V2000
   -6.4226   -4.6326   -3.2415 Cl  0  0  0  0  0  0  0  0  0  0  0  0
   -5.5010   -3.5155   -2.2451 C   0  0  0  0  0  0  0  0  0  0  0  0
   -4.2770   -3.9059   -1.6902 C   0  0  0  0  0  0  0  0  0  0  0  0
   -3.5909   -2.9907   -0.9142 C   0  0  0  0  0  0  0  0  0  0  0  0
   -4.0460   -1.7357   -0.6654 C   0  0  0  0  0  0  0  0  0  0  0  0
   -5.2699   -1.3616   -1.2269 C   0  0  0  0  0  0  0  0  0  0  0  0
   -5.9918   -2.2452   -2.0110 C   0  0  0  0  0  0  0  0  0  0  0  0
   -3.3612   -0.7173    0.1531 C   0  0  0  0  0  0  0  0  0  0  0  0
   -2.4318    0.1228   -0.6032 C   0  0  0  0  0  0  0  0  0  0  0  0
   -2.8534    0.8417   -1.7073 C   0  0  0  0  0  0  0  0  0  0  0  0
   -1.9816    1.6504   -2.4220 C   0  0  0  0  0  0  0  0  0  0  0  0
   -0.6914    1.7127   -1.9985 C   0  0  0  0  0  0  0  0  0  0  0  0
   -0.1973    1.0256   -0.9083 C   0  0  0  0  0  0  0  0  0  0  0  0
   -1.0878    0.2318   -0.2202 C   0  0  0  0  0  0  0  0  0  0  0  0
    1.1275    1.1168   -0.5092 C   0  0  0  0  0  0  0  0  0  0  0  0
    1.6218    0.4138    0.6222 N   0  0  0  0  0  0  0  0  0  0  0  0
    3.0293    0.5116    1.0330 C   0  0  0  0  0  0  0  0  0  0  0  0
    3.8648   -0.1033   -0.0392 C   0  0  0  0  0  0  0  0  0  0  0  0
    5.3192   -0.0670    0.2713 C   0  0  0  0  0  0  0  0  0  0  0  0
    5.8500   -1.1434    0.9606 C   0  0  0  0  0  0  0  0  0  0  0  0
    7.2011   -1.1390    1.2643 C   0  0  0  0  0  0  0  0  0  0  0  0
    8.0305   -0.0991    0.9023 C   0  0  0  0  0  0  0  0  0  0  0  0
    7.4766    0.9640    0.2147 C   0  0  0  0  0  0  0  0  0  0  0  0
    6.1282    0.9754   -0.0967 C   0  0  0  0  0  0  0  0  0  0  0  0
    9.4606   -0.0772    1.2145 C   0  0  0  0  0  0  0  0  0  0  0  0
   10.2054    0.8878    0.8724 O   0  0  0  0  0  0  0  0  0  0  0  0
    9.9987   -1.1606    1.9099 O   0  0  0  0  0  0  0  0  0  0  0  0
    1.9316    1.8947   -1.2105 N   0  0  0  0  0  0  0  0  0  0  0  0
    1.4815    2.5669   -2.2641 C   0  0  0  0  0  0  0  0  0  0  0  0
    0.1904    2.4891   -2.6674 N   0  0  0  0  0  0  0  0  0  0  0  0
   -4.3563    0.0088    0.9594 C   0  0  0  0  0  0  0  0  0  0  0  0
   -4.9072   -0.6733    2.0534 C   0  0  0  0  0  0  0  0  0  0  0  0
   -5.8414   -0.0873    2.8809 C   0  0  0  0  0  0  0  0  0  0  0  0
   -6.2604    1.2019    2.6467 C   0  0  0  0  0  0  0  0  0  0  0  0
   -5.7238    1.8656    1.5819 C   0  0  0  0  0  0  0  0  0  0  0  0
   -4.7898    1.2784    0.7555 C   0  0  0  0  0  0  0  0  0  0  0  0
   -7.4503    1.9521    3.6984 Cl  0  0  0  0  0  0  0  0  0  0  0  0
   -3.9466   -4.8955   -1.9029 H   0  0  0  0  0  0  0  0  0  0  0  0
   -2.6464   -3.2895   -0.4850 H   0  0  0  0  0  0  0  0  0  0  0  0
   -5.6907   -0.3783   -1.0691 H   0  0  0  0  0  0  0  0  0  0  0  0
   -6.9427   -1.9094   -2.4287 H   0  0  0  0  0  0  0  0  0  0  0  0
   -2.7527   -1.3172    0.9033 H   0  0  0  0  0  0  0  0  0  0  0  0
   -3.8717    0.8119   -2.0839 H   0  0  0  0  0  0  0  0  0  0  0  0
   -2.3167    2.2121   -3.2863 H   0  0  0  0  0  0  0  0  0  0  0  0
   -0.8077   -0.3375    0.6323 H   0  0  0  0  0  0  0  0  0  0  0  0
    1.0430   -0.2060    1.2291 H   0  0  0  0  0  0  0  0  0  0  0  0
    3.2028    1.6288    1.0891 H   0  0  0  0  0  0  0  0  0  0  0  0
    3.2071    0.0876    2.0267 H   0  0  0  0  0  0  0  0  0  0  0  0
    3.7476    0.4645   -0.9790 H   0  0  0  0  0  0  0  0  0  0  0  0
    3.5037   -1.1387   -0.2032 H   0  0  0  0  0  0  0  0  0  0  0  0
    5.2247   -1.9866    1.2650 H   0  0  0  0  0  0  0  0  0  0  0  0
    7.6283   -1.9623    1.7963 H   0  0  0  0  0  0  0  0  0  0  0  0
    8.1129    1.8039   -0.0852 H   0  0  0  0  0  0  0  0  0  0  0  0
    5.7236    1.8207   -0.6353 H   0  0  0  0  0  0  0  0  0  0  0  0
   10.8914   -1.0326    2.3651 H   0  0  0  0  0  0  0  0  0  0  0  0
    2.1265    3.1945   -2.8312 H   0  0  0  0  0  0  0  0  0  0  0  0
   -4.6047   -1.6845    2.2697 H   0  0  0  0  0  0  0  0  0  0  0  0
   -6.2622   -0.6196    3.7228 H   0  0  0  0  0  0  0  0  0  0  0  0
   -6.0440    2.8793    1.3863 H   0  0  0  0  0  0  0  0  0  0  0  0
   -4.4096    1.8501   -0.0496 H   0  0  0  0  0  0  0  0  0  0  0  0
  1  2  1  0
  2  3  2  0
  3  4  1  0
  4  5  2  0
  5  6  1  0
  6  7  2  0
  5  8  1  0
  8  9  1  0
  9 10  2  0
 10 11  1  0
 11 12  2  0
 12 13  1  0
 13 14  2  0
 13 15  1  0
 15 16  1  0
 16 17  1  0
 17 18  1  0
 18 19  1  0
 19 20  2  0
 20 21  1  0
 21 22  2  0
 22 23  1  0
 23 24  2  0
 22 25  1  0
 25 26  2  0
 25 27  1  0
 15 28  2  0
 28 29  1  0
 29 30  2  0
  8 31  1  0
 31 32  2  0
 32 33  1  0
 33 34  2  0
 34 35  1  0
 35 36  2  0
 34 37  1  0
  7  2  1  0
 14  9  1  0
 24 19  1  0
 36 31  1  0
 30 12  1  0
  3 38  1  0
  4 39  1  0
  6 40  1  0
  7 41  1  0
  8 42  1  0
 10 43  1  0
 11 44  1  0
 14 45  1  0
 16 46  1  0
 17 47  1  0
 17 48  1  0
 18 49  1  0
 18 50  1  0
 20 51  1  0
 21 52  1  0
 23 53  1  0
 24 54  1  0
 27 55  1  0
 29 56  1  0
 32 57  1  0
 33 58  1  0
 35 59  1  0
 36 60  1  0
M  END
>  <Ligand ID>  (1) 
LIG0005939

>  <Ligand>  (1) 
SCHEMBL17557671

>  <SMILES>  (1) 
Clc1ccc(cc1)C(c1ccc2c(c1)c(NCCc1ccc(cc1)C(=O)O)ncn2)c1ccc(cc1)Cl

>  <CID>  (1) 
118916151.0

>  <ChEMBL ID>  (1) 
nan

>  <InChiKey>  (1) 
CQMBFXNYQDNNFU-UHFFFAOYSA-N

>  <InChi>  (1) 
InChI=1S/C30H23Cl2N3O2/c31-24-10-5-20(6-11-24)28(21-7-12-25(32)13-8-21)23-9-14-27-26(17-23)29(35-18-34-27)33-16-15-19-1-3-22(4-2-19)30(36)37/h1-14,17-18,28H,15-16H2,(H,36,37)(H,33,34,35)

>  <IUPAC Name>  (1) 
4-[2-[[6-[bis(4-chlorophenyl)methyl]quinazolin-4-yl]amino]ethyl]benzoic acid

$$$$
