
     RDKit          3D

138140  0  0  0  0  0  0  0  0999 V2000
   -8.6248    1.6915    2.0613 C   0  0  0  0  0  0  0  0  0  0  0  0
   -7.2596    1.6521    1.4050 C   0  0  0  0  0  0  0  0  0  0  0  0
   -7.1519    2.7618    0.4101 C   0  0  1  0  0  0  0  0  0  0  0  0
   -5.7868    2.7301   -0.2517 C   0  0  2  0  0  0  0  0  0  0  0  0
   -5.5960    1.4404   -0.9431 N   0  0  0  0  0  0  0  0  0  0  0  0
   -5.4745    1.3425   -2.3644 C   0  0  0  0  0  0  0  0  0  0  0  0
   -5.5972    2.4293   -2.9595 O   0  0  0  0  0  0  0  0  0  0  0  0
   -5.2277    0.0443   -3.0580 C   0  0  1  0  0  0  0  0  0  0  0  0
   -4.9825   -1.0465   -2.1324 N   0  0  0  0  0  0  0  0  0  0  0  0
   -3.9151   -2.0113   -2.3697 C   0  0  0  0  0  0  0  0  0  0  0  0
   -3.3243   -1.8276   -3.4420 O   0  0  0  0  0  0  0  0  0  0  0  0
   -3.6134   -3.0885   -1.3978 C   0  0  0  0  0  0  0  0  0  0  0  0
   -2.7368   -4.1065   -2.0285 C   0  0  0  0  0  0  0  0  0  0  0  0
   -1.1887   -3.5368   -2.7036 S   0  0  0  0  0  0  0  0  0  0  0  0
    0.2058   -2.8306   -1.3137 S   0  0  0  0  0  0  0  0  0  0  0  0
    0.1379   -1.1071   -0.9596 C   0  0  0  0  0  0  0  0  0  0  0  0
    1.2985   -0.7089    0.0105 C   0  0  2  0  0  0  0  0  0  0  0  0
    1.1511    0.7697    0.1319 N   0  0  0  0  0  0  0  0  0  0  0  0
    0.3968    1.3353    1.1998 C   0  0  0  0  0  0  0  0  0  0  0  0
   -0.0858    0.5285    1.9981 O   0  0  0  0  0  0  0  0  0  0  0  0
    0.2084    2.8382    1.3220 C   0  0  1  0  0  0  0  0  0  0  0  0
   -0.7993    3.0666    2.3841 N   0  0  0  0  0  0  0  0  0  0  0  0
   -2.1154    3.3130    1.9663 C   0  0  0  0  0  0  0  0  0  0  0  0
   -2.2438    3.3650    0.6923 O   0  0  0  0  0  0  0  0  0  0  0  0
   -3.3417    3.5201    2.7359 C   0  0  1  0  0  0  0  0  0  0  0  0
   -4.4629    3.7205    1.7373 N   0  0  0  0  0  0  0  0  0  0  0  0
   -4.7530    2.6967    0.8073 C   0  0  0  0  0  0  0  0  0  0  0  0
   -4.0643    1.6634    0.8954 O   0  0  0  0  0  0  0  0  0  0  0  0
   -3.7356    2.4605    3.6758 C   0  0  0  0  0  0  0  0  0  0  0  0
   -2.7530    2.1507    4.7434 C   0  0  0  0  0  0  0  0  0  0  0  0
   -2.4253    3.3010    5.5932 C   0  0  0  0  0  0  0  0  0  0  0  0
   -2.9255    4.4327    5.5466 O   0  0  0  0  0  0  0  0  0  0  0  0
   -1.4071    3.0961    6.5964 N   0  0  0  0  0  0  0  0  0  0  0  0
    1.4906    3.4268    1.8156 C   0  0  0  0  0  0  0  0  0  0  0  0
    1.3106    4.8957    1.9364 C   0  0  0  0  0  0  0  0  0  0  0  0
    2.2390    5.6484    2.3460 O   0  0  0  0  0  0  0  0  0  0  0  0
    0.0831    5.5542    1.5997 N   0  0  0  0  0  0  0  0  0  0  0  0
    2.5796   -1.0242   -0.5935 C   0  0  0  0  0  0  0  0  0  0  0  0
    3.1120   -0.0961   -1.3038 O   0  0  0  0  0  0  0  0  0  0  0  0
    3.3104   -2.2341   -0.4936 N   0  0  0  0  0  0  0  0  0  0  0  0
    2.9850   -3.3262    0.4032 C   0  0  0  0  0  0  0  0  0  0  0  0
    3.8670   -3.2870    1.6266 C   0  0  0  0  0  0  0  0  0  0  0  0
    5.0553   -4.0078    1.5495 C   0  0  0  0  0  0  0  0  0  0  0  0
    5.9073   -4.0064    2.6465 C   0  0  0  0  0  0  0  0  0  0  0  0
    5.5430   -3.2889    3.7737 C   0  0  0  0  0  0  0  0  0  0  0  0
    4.3579   -2.5823    3.8229 C   0  0  0  0  0  0  0  0  0  0  0  0
    3.5423   -2.6035    2.7294 N   0  0  0  0  0  0  0  0  0  0  0  0
    4.4096   -2.4338   -1.3975 C   0  0  0  0  0  0  0  0  0  0  0  0
    5.7121   -1.9024   -0.9909 C   0  0  0  0  0  0  0  0  0  0  0  0
    6.6785   -2.1226   -1.7963 O   0  0  0  0  0  0  0  0  0  0  0  0
    6.0187   -1.1819    0.1715 N   0  0  0  0  0  0  0  0  0  0  0  0
    7.4071   -0.7560    0.3567 C   0  0  2  0  0  0  0  0  0  0  0  0
    7.7410    0.2306   -0.6674 C   0  0  0  0  0  0  0  0  0  0  0  0
    8.9230    0.7090   -0.7759 O   0  0  0  0  0  0  0  0  0  0  0  0
    6.8086    0.7488   -1.6251 N   0  0  0  0  0  0  0  0  0  0  0  0
    7.2639    1.7275   -2.6048 C   0  0  0  0  0  0  0  0  0  0  0  0
    6.1720    2.1464   -3.4933 C   0  0  0  0  0  0  0  0  0  0  0  0
    6.4117    2.9810   -4.3923 O   0  0  0  0  0  0  0  0  0  0  0  0
    4.8314    1.6566   -3.3969 N   0  0  0  0  0  0  0  0  0  0  0  0
    8.3536   -1.8638    0.5765 C   0  0  0  0  0  0  0  0  0  0  0  0
    9.7941   -1.5028    0.7672 C   0  0  0  0  0  0  0  0  0  0  0  0
   10.5376   -2.8321    0.9658 C   0  0  0  0  0  0  0  0  0  0  0  0
    9.9881   -0.7019    2.0300 C   0  0  0  0  0  0  0  0  0  0  0  0
   -6.4622   -0.3781   -3.8504 C   0  0  0  0  0  0  0  0  0  0  0  0
   -6.2147   -1.6719   -4.5433 C   0  0  0  0  0  0  0  0  0  0  0  0
   -5.6929   -1.7338   -5.8313 C   0  0  0  0  0  0  0  0  0  0  0  0
   -5.4740   -2.9468   -6.4472 C   0  0  0  0  0  0  0  0  0  0  0  0
   -5.7863   -4.1080   -5.7520 C   0  0  0  0  0  0  0  0  0  0  0  0
   -6.2963   -4.0247   -4.4915 C   0  0  0  0  0  0  0  0  0  0  0  0
   -6.5341   -2.8224   -3.8300 C   0  0  0  0  0  0  0  0  0  0  0  0
   -5.5978   -5.3749   -6.2963 O   0  0  0  0  0  0  0  0  0  0  0  0
   -8.2622    2.7501   -0.6101 C   0  0  0  0  0  0  0  0  0  0  0  0
   -9.0696    2.6898    2.0842 H   0  0  0  0  0  0  0  0  0  0  0  0
   -9.2967    1.0542    1.4292 H   0  0  0  0  0  0  0  0  0  0  0  0
   -8.6028    1.2727    3.0758 H   0  0  0  0  0  0  0  0  0  0  0  0
   -6.5129    1.8675    2.2109 H   0  0  0  0  0  0  0  0  0  0  0  0
   -7.0375    0.6663    0.9962 H   0  0  0  0  0  0  0  0  0  0  0  0
   -7.2086    3.7292    0.9434 H   0  0  0  0  0  0  0  0  0  0  0  0
   -5.6978    3.5887   -0.9082 H   0  0  0  0  0  0  0  0  0  0  0  0
   -5.5453    0.5652   -0.4356 H   0  0  0  0  0  0  0  0  0  0  0  0
   -4.4383    0.1786   -3.7925 H   0  0  0  0  0  0  0  0  0  0  0  0
   -5.5070   -1.2389   -1.2815 H   0  0  0  0  0  0  0  0  0  0  0  0
   -3.2238   -2.7048   -0.4303 H   0  0  0  0  0  0  0  0  0  0  0  0
   -4.6139   -3.5762   -1.1962 H   0  0  0  0  0  0  0  0  0  0  0  0
   -3.3083   -4.7001   -2.7901 H   0  0  0  0  0  0  0  0  0  0  0  0
   -2.5089   -4.8668   -1.2294 H   0  0  0  0  0  0  0  0  0  0  0  0
   -0.7709   -0.8803   -0.3580 H   0  0  0  0  0  0  0  0  0  0  0  0
    0.2612   -0.4624   -1.8431 H   0  0  0  0  0  0  0  0  0  0  0  0
    1.0534   -1.1420    0.9581 H   0  0  0  0  0  0  0  0  0  0  0  0
    1.5678    1.4266   -0.5175 H   0  0  0  0  0  0  0  0  0  0  0  0
   -0.1050    3.2380    0.3537 H   0  0  0  0  0  0  0  0  0  0  0  0
   -0.5804    3.0745    3.3619 H   0  0  0  0  0  0  0  0  0  0  0  0
   -3.2435    4.4953    3.2699 H   0  0  0  0  0  0  0  0  0  0  0  0
   -5.0145    4.5571    1.7055 H   0  0  0  0  0  0  0  0  0  0  0  0
   -4.0705    1.5205    3.1621 H   0  0  0  0  0  0  0  0  0  0  0  0
   -4.6738    2.7933    4.2068 H   0  0  0  0  0  0  0  0  0  0  0  0
   -3.3010    1.4286    5.4739 H   0  0  0  0  0  0  0  0  0  0  0  0
   -1.8485    1.6150    4.4626 H   0  0  0  0  0  0  0  0  0  0  0  0
   -0.6700    3.8243    6.7789 H   0  0  0  0  0  0  0  0  0  0  0  0
   -1.4549    2.1854    7.1201 H   0  0  0  0  0  0  0  0  0  0  0  0
    1.7588    3.0349    2.8194 H   0  0  0  0  0  0  0  0  0  0  0  0
    2.3672    3.2486    1.1642 H   0  0  0  0  0  0  0  0  0  0  0  0
   -0.1067    5.8236    0.5930 H   0  0  0  0  0  0  0  0  0  0  0  0
   -0.6210    5.7691    2.3402 H   0  0  0  0  0  0  0  0  0  0  0  0
    1.9573   -3.2142    0.8601 H   0  0  0  0  0  0  0  0  0  0  0  0
    3.0061   -4.3132   -0.0705 H   0  0  0  0  0  0  0  0  0  0  0  0
    5.2950   -4.5542    0.6444 H   0  0  0  0  0  0  0  0  0  0  0  0
    6.8367   -4.5687    2.5891 H   0  0  0  0  0  0  0  0  0  0  0  0
    6.2315   -3.3055    4.6183 H   0  0  0  0  0  0  0  0  0  0  0  0
    4.1074   -2.0346    4.7200 H   0  0  0  0  0  0  0  0  0  0  0  0
    4.1771   -2.0357   -2.4206 H   0  0  0  0  0  0  0  0  0  0  0  0
    4.5338   -3.5389   -1.5810 H   0  0  0  0  0  0  0  0  0  0  0  0
    5.2610   -0.9678    0.8489 H   0  0  0  0  0  0  0  0  0  0  0  0
    7.3765   -0.1620    1.3321 H   0  0  0  0  0  0  0  0  0  0  0  0
    5.8103    0.4489   -1.6324 H   0  0  0  0  0  0  0  0  0  0  0  0
    8.1019    1.3146   -3.2189 H   0  0  0  0  0  0  0  0  0  0  0  0
    7.6788    2.6375   -2.0916 H   0  0  0  0  0  0  0  0  0  0  0  0
    4.5732    0.6567   -3.5053 H   0  0  0  0  0  0  0  0  0  0  0  0
    4.1002    2.3905   -3.2023 H   0  0  0  0  0  0  0  0  0  0  0  0
    8.2673   -2.6069   -0.2410 H   0  0  0  0  0  0  0  0  0  0  0  0
    8.0694   -2.4566    1.5001 H   0  0  0  0  0  0  0  0  0  0  0  0
   10.2880   -1.0458   -0.1067 H   0  0  0  0  0  0  0  0  0  0  0  0
   11.5837   -2.7778    0.6402 H   0  0  0  0  0  0  0  0  0  0  0  0
    9.9610   -3.6596    0.5050 H   0  0  0  0  0  0  0  0  0  0  0  0
   10.5193   -3.0371    2.0541 H   0  0  0  0  0  0  0  0  0  0  0  0
    9.1952    0.0502    2.1985 H   0  0  0  0  0  0  0  0  0  0  0  0
    9.9668   -1.3707    2.9414 H   0  0  0  0  0  0  0  0  0  0  0  0
   11.0080   -0.2461    2.0774 H   0  0  0  0  0  0  0  0  0  0  0  0
   -6.6281    0.3866   -4.6566 H   0  0  0  0  0  0  0  0  0  0  0  0
   -7.3583   -0.4779   -3.2414 H   0  0  0  0  0  0  0  0  0  0  0  0
   -5.4499   -0.8290   -6.3708 H   0  0  0  0  0  0  0  0  0  0  0  0
   -5.0672   -3.0393   -7.4548 H   0  0  0  0  0  0  0  0  0  0  0  0
   -6.5493   -4.9328   -3.9284 H   0  0  0  0  0  0  0  0  0  0  0  0
   -6.9336   -2.8078   -2.8459 H   0  0  0  0  0  0  0  0  0  0  0  0
   -6.1818   -6.1462   -5.9891 H   0  0  0  0  0  0  0  0  0  0  0  0
   -9.1962    3.1763   -0.1975 H   0  0  0  0  0  0  0  0  0  0  0  0
   -7.9316    3.4781   -1.4089 H   0  0  0  0  0  0  0  0  0  0  0  0
   -8.5061    1.7670   -1.0164 H   0  0  0  0  0  0  0  0  0  0  0  0
  1  2  1  0
  2  3  1  0
  3  4  1  0
  4  5  1  0
  5  6  1  0
  6  7  2  0
  6  8  1  0
  8  9  1  0
  9 10  1  0
 10 11  2  0
 10 12  1  0
 12 13  1  0
 13 14  1  0
 14 15  1  0
 15 16  1  0
 16 17  1  0
 17 18  1  0
 18 19  1  0
 19 20  2  0
 19 21  1  0
 21 22  1  0
 22 23  1  0
 23 24  2  0
 23 25  1  0
 25 26  1  0
 26 27  1  0
 27 28  2  0
 25 29  1  0
 29 30  1  0
 30 31  1  0
 31 32  2  0
 31 33  1  0
 21 34  1  0
 34 35  1  0
 35 36  2  0
 35 37  1  0
 17 38  1  0
 38 39  2  0
 38 40  1  0
 40 41  1  0
 41 42  1  0
 42 43  2  0
 43 44  1  0
 44 45  2  0
 45 46  1  0
 46 47  2  0
 40 48  1  0
 48 49  1  0
 49 50  2  0
 49 51  1  0
 51 52  1  0
 52 53  1  0
 53 54  2  0
 53 55  1  0
 55 56  1  0
 56 57  1  0
 57 58  2  0
 57 59  1  0
 52 60  1  0
 60 61  1  0
 61 62  1  0
 61 63  1  0
  8 64  1  0
 64 65  1  0
 65 66  2  0
 66 67  1  0
 67 68  2  0
 68 69  1  0
 69 70  2  0
 68 71  1  0
  3 72  1  0
 27  4  1  0
 47 42  1  0
 70 65  1  0
  1 73  1  0
  1 74  1  0
  1 75  1  0
  2 76  1  0
  2 77  1  0
  3 78  1  1
  4 79  1  6
  5 80  1  0
  8 81  1  6
  9 82  1  0
 12 83  1  0
 12 84  1  0
 13 85  1  0
 13 86  1  0
 16 87  1  0
 16 88  1  0
 17 89  1  1
 18 90  1  0
 21 91  1  6
 22 92  1  0
 25 93  1  1
 26 94  1  0
 29 95  1  0
 29 96  1  0
 30 97  1  0
 30 98  1  0
 33 99  1  0
 33100  1  0
 34101  1  0
 34102  1  0
 37103  1  0
 37104  1  0
 41105  1  0
 41106  1  0
 43107  1  0
 44108  1  0
 45109  1  0
 46110  1  0
 48111  1  0
 48112  1  0
 51113  1  0
 52114  1  1
 55115  1  0
 56116  1  0
 56117  1  0
 59118  1  0
 59119  1  0
 60120  1  0
 60121  1  0
 61122  1  0
 62123  1  0
 62124  1  0
 62125  1  0
 63126  1  0
 63127  1  0
 63128  1  0
 64129  1  0
 64130  1  0
 66131  1  0
 67132  1  0
 69133  1  0
 70134  1  0
 71135  1  0
 72136  1  0
 72137  1  0
 72138  1  0
M  END
>  <Ligand ID>  (1) 
LIG0001637

>  <Ligand>  (1) 
CHEMBL3353950

>  <SMILES>  (1) 
CC[C@@H]([C@@H]1NC(=O)[C@@H](NC(=O)CCSSC[C@H](NC(=O)[C@@H](NC(=O)[C@@H](NC1=O)CCC(=O)N)CC(=O)N)C(=O)N(Cc1ccccn1)CC(=O)N[C@H](C(=O)NCC(=O)N)CC(C)C)Cc1ccc(cc1)O)C

>  <CID>  (1) 
118719839.0

>  <ChEMBL ID>  (1) 
nan

>  <InChiKey>  (1) 
GSUGDZZJDWYRIA-LZNUSVCISA-N

>  <InChi>  (1) 
InChI=1S/C46H66N12O12S2/c1-5-26(4)40-45(69)54-30(13-14-35(47)60)42(66)55-33(20-36(48)61)43(67)56-34(24-72-71-17-15-38(63)52-32(44(68)57-40)19-27-9-11-29(59)12-10-27)46(70)58(22-28-8-6-7-16-50-28)23-39(64)53-31(18-25(2)3)41(65)51-21-37(49)62/h6-12,16,25-26,30-34,40,59H,5,13-15,17-24H2,1-4H3,(H2,47,60)(H2,48,61)(H2,49,62)(H,51,65)(H,52,63)(H,53,64)(H,54,69)(H,55,66)(H,56,67)(H,57,68)/t26-,30-,31-,32-,33-,34-,40-/m0/s1

>  <IUPAC Name>  (1) 
(4R,7S,10S,13S,16S)-7-(2-amino-2-oxoethyl)-N-[2-[[(2S)-1-[(2-amino-2-oxoethyl)amino]-4-methyl-1-oxopentan-2-yl]amino]-2-oxoethyl]-10-(3-amino-3-oxopropyl)-13-[(2S)-butan-2-yl]-16-[(4-hydroxyphenyl)methyl]-6,9,12,15,18-pentaoxo-N-(pyridin-2-ylmethyl)-1,2-dithia-5,8,11,14,17-pentazacycloicosane-4-carboxamide

$$$$
