
     RDKit          3D

102106  0  0  0  0  0  0  0  0999 V2000
    4.7553   -3.6033    2.1452 C   0  0  0  0  0  0  0  0  0  0  0  0
    4.5407   -3.1331    0.7939 N   0  0  0  0  0  0  0  0  0  0  0  0
    3.5869   -2.0920    0.5410 C   0  0  0  0  0  0  0  0  0  0  0  0
    2.9769   -1.6477    1.5303 O   0  0  0  0  0  0  0  0  0  0  0  0
    3.4095   -1.6441   -0.8574 C   0  0  1  0  0  0  0  0  0  0  0  0
    2.1700   -0.8640   -1.0356 N   0  0  0  0  0  0  0  0  0  0  0  0
    1.1697   -1.4388   -1.8762 C   0  0  0  0  0  0  0  0  0  0  0  0
    0.1649   -0.4675   -2.3752 C   0  0  0  0  0  0  0  0  0  0  0  0
   -0.1147    0.4292   -1.1570 N   0  0  0  0  0  0  0  0  0  0  0  0
    0.9775    1.2957   -0.9337 C   0  0  2  0  0  0  0  0  0  0  0  0
    2.0545    0.3998   -0.3556 C   0  0  0  0  0  0  0  0  0  0  0  0
    2.7580    0.7424    0.6112 O   0  0  0  0  0  0  0  0  0  0  0  0
    0.8854    2.5935   -0.2827 C   0  0  0  0  0  0  0  0  0  0  0  0
   -0.0011    3.5906   -1.0344 C   0  0  0  0  0  0  0  0  0  0  0  0
   -0.0598    4.8967   -0.2883 C   0  0  0  0  0  0  0  0  0  0  0  0
    1.2469    5.5061   -0.1304 N   0  0  0  0  0  0  0  0  0  0  0  0
    1.2787    6.7809    0.1566 C   0  0  0  0  0  0  0  0  0  0  0  0
    2.5697    7.3497    0.3050 N   0  0  0  0  0  0  0  0  0  0  0  0
    0.0941    7.5528    0.3116 N   0  0  0  0  0  0  0  0  0  0  0  0
   -1.3114    0.1244   -0.5658 C   0  0  0  0  0  0  0  0  0  0  0  0
   -1.9279   -0.8676   -1.2537 O   0  0  0  0  0  0  0  0  0  0  0  0
   -2.1139    0.5231    0.5605 C   0  0  2  0  0  0  0  0  0  0  0  0
   -3.3217   -0.3358    0.6793 N   0  0  0  0  0  0  0  0  0  0  0  0
   -4.2954   -0.3893   -0.3405 C   0  0  0  0  0  0  0  0  0  0  0  0
   -4.2269    0.2777   -1.4159 O   0  0  0  0  0  0  0  0  0  0  0  0
   -5.4908   -1.2630   -0.1947 C   0  0  2  0  0  0  0  0  0  0  0  0
   -5.1524   -2.7071    0.0689 C   0  0  0  0  0  0  0  0  0  0  0  0
   -6.4034   -3.5273    0.2033 C   0  0  0  0  0  0  0  0  0  0  0  0
   -7.1104   -3.7969    1.3135 N   0  0  0  0  0  0  0  0  0  0  0  0
   -8.1381   -4.5656    0.9193 C   0  0  0  0  0  0  0  0  0  0  0  0
   -8.0958   -4.7859   -0.4074 N   0  0  0  0  0  0  0  0  0  0  0  0
   -7.0144   -4.1427   -0.8753 C   0  0  0  0  0  0  0  0  0  0  0  0
   -6.2820   -1.0939   -1.3973 N   0  0  0  0  0  0  0  0  0  0  0  0
   -7.5629   -0.4791   -1.3933 C   0  0  0  0  0  0  0  0  0  0  0  0
   -8.0881   -0.0402   -0.3229 O   0  0  0  0  0  0  0  0  0  0  0  0
   -8.3209   -0.3417   -2.6871 C   0  0  0  0  0  0  0  0  0  0  0  0
   -2.4941    1.9524    0.7503 C   0  0  0  0  0  0  0  0  0  0  0  0
   -3.3570    2.0918    1.9919 C   0  0  0  0  0  0  0  0  0  0  0  0
   -2.7949    2.2629    3.2377 C   0  0  0  0  0  0  0  0  0  0  0  0
   -3.5462    2.4055    4.3851 C   0  0  0  0  0  0  0  0  0  0  0  0
   -4.9217    2.3768    4.2916 C   0  0  0  0  0  0  0  0  0  0  0  0
   -5.5198    2.2066    3.0542 C   0  0  0  0  0  0  0  0  0  0  0  0
   -4.7294    2.0666    1.9214 C   0  0  0  0  0  0  0  0  0  0  0  0
    4.5808   -0.7969   -1.2597 C   0  0  0  0  0  0  0  0  0  0  0  0
    5.8931   -1.4376   -1.1900 C   0  0  0  0  0  0  0  0  0  0  0  0
    6.3292   -2.1717   -2.2752 C   0  0  0  0  0  0  0  0  0  0  0  0
    7.5689   -2.7759   -2.2711 C   0  0  0  0  0  0  0  0  0  0  0  0
    8.3691   -2.6320   -1.1560 C   0  0  0  0  0  0  0  0  0  0  0  0
    7.9370   -1.9014   -0.0741 C   0  0  0  0  0  0  0  0  0  0  0  0
    6.6894   -1.2779   -0.0463 C   0  0  0  0  0  0  0  0  0  0  0  0
    8.8109   -1.8085    1.0088 C   0  0  0  0  0  0  0  0  0  0  0  0
   10.0492   -2.4283    0.9784 C   0  0  0  0  0  0  0  0  0  0  0  0
   10.4543   -3.1555   -0.1235 C   0  0  0  0  0  0  0  0  0  0  0  0
    9.6044   -3.2583   -1.2027 C   0  0  0  0  0  0  0  0  0  0  0  0
    5.2276   -4.6067    2.1533 H   0  0  0  0  0  0  0  0  0  0  0  0
    3.7972   -3.7156    2.7200 H   0  0  0  0  0  0  0  0  0  0  0  0
    5.4845   -2.9485    2.6942 H   0  0  0  0  0  0  0  0  0  0  0  0
    5.0944   -3.5954    0.0431 H   0  0  0  0  0  0  0  0  0  0  0  0
    3.3343   -2.5763   -1.4600 H   0  0  0  0  0  0  0  0  0  0  0  0
    1.7194   -1.9311   -2.7240 H   0  0  0  0  0  0  0  0  0  0  0  0
    0.6699   -2.3209   -1.3670 H   0  0  0  0  0  0  0  0  0  0  0  0
   -0.7584   -0.8651   -2.7641 H   0  0  0  0  0  0  0  0  0  0  0  0
    0.6164    0.1884   -3.1368 H   0  0  0  0  0  0  0  0  0  0  0  0
    1.4560    1.5463   -1.9959 H   0  0  0  0  0  0  0  0  0  0  0  0
    1.9208    3.0779   -0.3770 H   0  0  0  0  0  0  0  0  0  0  0  0
    0.7178    2.6018    0.8041 H   0  0  0  0  0  0  0  0  0  0  0  0
    0.5160    3.7682   -2.0129 H   0  0  0  0  0  0  0  0  0  0  0  0
   -0.9989    3.2441   -1.2499 H   0  0  0  0  0  0  0  0  0  0  0  0
   -0.7030    5.6089   -0.8267 H   0  0  0  0  0  0  0  0  0  0  0  0
   -0.4721    4.7893    0.7273 H   0  0  0  0  0  0  0  0  0  0  0  0
    3.2097    7.3374   -0.5330 H   0  0  0  0  0  0  0  0  0  0  0  0
    2.9221    7.7756    1.1827 H   0  0  0  0  0  0  0  0  0  0  0  0
   -0.0827    8.0797    1.1849 H   0  0  0  0  0  0  0  0  0  0  0  0
   -0.6292    7.6145   -0.4403 H   0  0  0  0  0  0  0  0  0  0  0  0
   -1.5056    0.2538    1.4859 H   0  0  0  0  0  0  0  0  0  0  0  0
   -3.4842   -0.9255    1.5234 H   0  0  0  0  0  0  0  0  0  0  0  0
   -6.0692   -0.8387    0.6505 H   0  0  0  0  0  0  0  0  0  0  0  0
   -4.5208   -3.1549   -0.6955 H   0  0  0  0  0  0  0  0  0  0  0  0
   -4.6542   -2.7592    1.0581 H   0  0  0  0  0  0  0  0  0  0  0  0
   -6.8972   -3.4720    2.2746 H   0  0  0  0  0  0  0  0  0  0  0  0
   -8.9336   -4.9841    1.5551 H   0  0  0  0  0  0  0  0  0  0  0  0
   -6.6992   -4.1260   -1.9211 H   0  0  0  0  0  0  0  0  0  0  0  0
   -5.8425   -1.4601   -2.2889 H   0  0  0  0  0  0  0  0  0  0  0  0
   -9.3966   -0.3692   -2.4339 H   0  0  0  0  0  0  0  0  0  0  0  0
   -8.1368    0.6498   -3.1456 H   0  0  0  0  0  0  0  0  0  0  0  0
   -7.9934   -1.0948   -3.4087 H   0  0  0  0  0  0  0  0  0  0  0  0
   -1.5929    2.5301    1.0289 H   0  0  0  0  0  0  0  0  0  0  0  0
   -3.0457    2.3934   -0.0977 H   0  0  0  0  0  0  0  0  0  0  0  0
   -1.7174    2.2881    3.3322 H   0  0  0  0  0  0  0  0  0  0  0  0
   -3.0936    2.5405    5.3654 H   0  0  0  0  0  0  0  0  0  0  0  0
   -5.5547    2.4847    5.1672 H   0  0  0  0  0  0  0  0  0  0  0  0
   -6.5977    2.1899    3.0245 H   0  0  0  0  0  0  0  0  0  0  0  0
   -5.2573    1.9450    0.9899 H   0  0  0  0  0  0  0  0  0  0  0  0
    4.3623   -0.4830   -2.3295 H   0  0  0  0  0  0  0  0  0  0  0  0
    4.5475    0.1777   -0.7095 H   0  0  0  0  0  0  0  0  0  0  0  0
    5.6905   -2.2739   -3.1395 H   0  0  0  0  0  0  0  0  0  0  0  0
    7.8506   -3.3346   -3.1472 H   0  0  0  0  0  0  0  0  0  0  0  0
    6.3789   -0.7170    0.8054 H   0  0  0  0  0  0  0  0  0  0  0  0
    8.5296   -1.2449    1.8963 H   0  0  0  0  0  0  0  0  0  0  0  0
   10.7456   -2.3626    1.8234 H   0  0  0  0  0  0  0  0  0  0  0  0
   11.4113   -3.6556   -0.1906 H   0  0  0  0  0  0  0  0  0  0  0  0
    9.9047   -3.8239   -2.0753 H   0  0  0  0  0  0  0  0  0  0  0  0
  1  2  1  0
  2  3  1  0
  3  4  2  0
  3  5  1  0
  5  6  1  0
  6  7  1  0
  7  8  1  0
  8  9  1  0
  9 10  1  0
 10 11  1  0
 11 12  2  0
 10 13  1  0
 13 14  1  0
 14 15  1  0
 15 16  1  0
 16 17  2  3
 17 18  1  0
 17 19  1  0
  9 20  1  0
 20 21  2  0
 20 22  1  0
 22 23  1  0
 23 24  1  0
 24 25  2  0
 24 26  1  0
 26 27  1  0
 27 28  1  0
 28 29  1  0
 29 30  1  0
 30 31  2  0
 31 32  1  0
 26 33  1  0
 33 34  1  0
 34 35  2  0
 34 36  1  0
 22 37  1  0
 37 38  1  0
 38 39  2  0
 39 40  1  0
 40 41  2  0
 41 42  1  0
 42 43  2  0
  5 44  1  0
 44 45  1  0
 45 46  2  0
 46 47  1  0
 47 48  2  0
 48 49  1  0
 49 50  2  0
 49 51  1  0
 51 52  2  0
 52 53  1  0
 53 54  2  0
 11  6  1  0
 32 28  2  0
 43 38  1  0
 50 45  1  0
 54 48  1  0
  1 55  1  0
  1 56  1  0
  1 57  1  0
  2 58  1  0
  5 59  1  6
  7 60  1  0
  7 61  1  0
  8 62  1  0
  8 63  1  0
 10 64  1  6
 13 65  1  0
 13 66  1  0
 14 67  1  0
 14 68  1  0
 15 69  1  0
 15 70  1  0
 18 71  1  0
 18 72  1  0
 19 73  1  0
 19 74  1  0
 22 75  1  1
 23 76  1  0
 26 77  1  1
 27 78  1  0
 27 79  1  0
 29 80  1  0
 30 81  1  0
 32 82  1  0
 33 83  1  0
 36 84  1  0
 36 85  1  0
 36 86  1  0
 37 87  1  0
 37 88  1  0
 39 89  1  0
 40 90  1  0
 41 91  1  0
 42 92  1  0
 43 93  1  0
 44 94  1  0
 44 95  1  0
 46 96  1  0
 47 97  1  0
 50 98  1  0
 51 99  1  0
 52100  1  0
 53101  1  0
 54102  1  0
M  END
>  <Ligand ID>  (1) 
LIG0003309

>  <Ligand>  (1) 
CHEMBL212614

>  <SMILES>  (1) 
CNC(=O)[C@@H](N1CCN([C@H](C1=O)CCCN=C(N)N)C(=O)[C@H](NC(=O)[C@H](Cc1[nH]cnc1)NC(=O)C)Cc1ccccc1)Cc1ccc2c(c1)cccc2

>  <CID>  (1) 
44415913.0

>  <ChEMBL ID>  (1) 
nan

>  <InChiKey>  (1) 
FJSKRKLUQFIKJP-HWFRFQLBSA-N

>  <InChi>  (1) 
InChI=1S/C39H48N10O5/c1-25(50)46-31(22-30-23-43-24-45-30)35(51)47-32(20-26-9-4-3-5-10-26)37(53)48-17-18-49(38(54)33(48)13-8-16-44-39(40)41)34(36(52)42-2)21-27-14-15-28-11-6-7-12-29(28)19-27/h3-7,9-12,14-15,19,23-24,31-34H,8,13,16-18,20-22H2,1-2H3,(H,42,52)(H,43,45)(H,46,50)(H,47,51)(H4,40,41,44)/t31-,32+,33-,34-/m0/s1

>  <IUPAC Name>  (1) 
(2S)-2-[(3S)-4-[(2R)-2-[[(2S)-2-acetamido-3-(1H-imidazol-5-yl)propanoyl]amino]-3-phenylpropanoyl]-3-[3-(diaminomethylideneamino)propyl]-2-oxopiperazin-1-yl]-N-methyl-3-naphthalen-2-ylpropanamide

$$$$
