
     RDKit          3D

 26 26  0  0  0  0  0  0  0  0999 V2000
   -3.4256    1.1241    0.6121 N   0  0  0  0  0  0  0  0  0  0  0  0
   -2.9311    0.1217   -0.2976 C   0  0  0  0  0  0  0  0  0  0  0  0
   -1.5832   -0.3611    0.2049 C   0  0  0  0  0  0  0  0  0  0  0  0
   -0.9055   -1.4251   -0.6312 C   0  0  0  0  0  0  0  0  0  0  0  0
   -0.3890    0.0091   -0.5535 C   0  0  0  0  0  0  0  0  0  0  0  0
    0.9652    0.0880   -0.0013 C   0  0  0  0  0  0  0  0  0  0  0  0
    1.2310    0.2301    1.3538 C   0  0  0  0  0  0  0  0  0  0  0  0
    2.5497    0.2994    1.8185 C   0  0  0  0  0  0  0  0  0  0  0  0
    3.5791    0.2239    0.9047 C   0  0  0  0  0  0  0  0  0  0  0  0
    3.3502    0.0814   -0.4605 C   0  0  0  0  0  0  0  0  0  0  0  0
    2.0288    0.0149   -0.8968 C   0  0  0  0  0  0  0  0  0  0  0  0
    1.7110   -0.1824   -2.7862 Br  0  0  0  0  0  0  0  0  0  0  0  0
    0.6884    0.0000    0.0000 Cl  0  0  0  0  0  0  0  0  0  0  0  0
   -4.0013    0.7525    1.3901 H   0  0  0  0  0  0  0  0  0  0  0  0
   -3.8077    1.9732    0.1627 H   0  0  0  0  0  0  0  0  0  0  0  0
   -2.8847    0.5003   -1.3446 H   0  0  0  0  0  0  0  0  0  0  0  0
   -3.5901   -0.7891   -0.3219 H   0  0  0  0  0  0  0  0  0  0  0  0
   -1.5296   -0.3920    1.2953 H   0  0  0  0  0  0  0  0  0  0  0  0
   -1.3245   -1.7124   -1.5970 H   0  0  0  0  0  0  0  0  0  0  0  0
   -0.4193   -2.1988   -0.0223 H   0  0  0  0  0  0  0  0  0  0  0  0
   -0.5585    0.6486   -1.4481 H   0  0  0  0  0  0  0  0  0  0  0  0
    0.3879    0.2854    2.0381 H   0  0  0  0  0  0  0  0  0  0  0  0
    2.7544    0.4112    2.8853 H   0  0  0  0  0  0  0  0  0  0  0  0
    4.6103    0.2730    1.2186 H   0  0  0  0  0  0  0  0  0  0  0  0
    4.1826    0.0241   -1.1618 H   0  0  0  0  0  0  0  0  0  0  0  0
   -0.6884    0.0000    0.0000 H   0  0  0  0  0  0  0  0  0  0  0  0
  1  2  1  0
  2  3  1  0
  3  4  1  0
  4  5  1  0
  5  6  1  0
  6  7  2  0
  7  8  1  0
  8  9  2  0
  9 10  1  0
 10 11  2  0
 11 12  1  0
  5  3  1  0
 11  6  1  0
  1 14  1  0
  1 15  1  0
  2 16  1  0
  2 17  1  0
  3 18  1  0
  4 19  1  0
  4 20  1  0
  5 21  1  0
  7 22  1  0
  8 23  1  0
  9 24  1  0
 10 25  1  0
 13 26  1  0
M  END
>  <Ligand ID>  (1) 
LIG0002861

>  <Ligand>  (1) 
CHEMBL492916

>  <SMILES>  (1) 
NCC1CC1c1ccccc1Br.Cl

>  <CID>  (1) 
16047543.0

>  <ChEMBL ID>  (1) 
nan

>  <InChiKey>  (1) 
SYDKDXKLTMXNAA-UHFFFAOYSA-N

>  <InChi>  (1) 
InChI=1S/C10H12BrN.ClH/c11-10-4-2-1-3-8(10)9-5-7(9)6-12;/h1-4,7,9H,5-6,12H2;1H

>  <IUPAC Name>  (1) 
[2-(2-bromophenyl)cyclopropyl]methanamine;hydrochloride

$$$$
