
     RDKit          3D

 56 60  0  0  0  0  0  0  0  0999 V2000
   -4.7797    3.7170   -4.1583 Cl  0  0  0  0  0  0  0  0  0  0  0  0
   -3.6693    2.7690   -3.1557 C   0  0  0  0  0  0  0  0  0  0  0  0
   -3.3724    1.4445   -3.4845 C   0  0  0  0  0  0  0  0  0  0  0  0
   -2.4951    0.7616   -2.6552 C   0  0  0  0  0  0  0  0  0  0  0  0
   -1.9218    1.3400   -1.5421 C   0  0  0  0  0  0  0  0  0  0  0  0
   -2.2387    2.6698   -1.2381 C   0  0  0  0  0  0  0  0  0  0  0  0
   -3.1061    3.3755   -2.0411 C   0  0  0  0  0  0  0  0  0  0  0  0
   -1.5268    3.4415    0.1725 Cl  0  0  0  0  0  0  0  0  0  0  0  0
   -1.0234    0.6853   -0.6824 N   0  0  0  0  0  0  0  0  0  0  0  0
    0.2883    0.9439   -0.5341 N   0  0  0  0  0  0  0  0  0  0  0  0
    0.8247    0.1083    0.3756 C   0  0  0  0  0  0  0  0  0  0  0  0
   -0.1686   -0.7262    0.8396 C   0  0  0  0  0  0  0  0  0  0  0  0
   -1.3083   -0.3308    0.1520 C   0  0  0  0  0  0  0  0  0  0  0  0
   -2.5318   -1.0701    0.4722 C   0  0  0  0  0  0  0  0  0  0  0  0
   -3.6775   -0.4690    0.2718 C   0  0  0  0  0  0  0  0  0  0  0  0
   -4.9841   -1.1513    0.5764 C   0  0  0  0  0  0  0  0  0  0  0  0
   -5.3625   -1.8380    1.6588 C   0  0  0  0  0  0  0  0  0  0  0  0
   -6.6047   -2.3797    1.6793 C   0  0  0  0  0  0  0  0  0  0  0  0
   -7.3599   -2.1837    0.6100 C   0  0  0  0  0  0  0  0  0  0  0  0
   -6.3249   -1.1767   -0.5514 S   0  0  0  0  0  0  0  0  0  0  0  0
   -9.0595   -2.6947    0.1677 Cl  0  0  0  0  0  0  0  0  0  0  0  0
   -2.3587   -2.4486    0.9830 C   0  0  0  0  0  0  0  0  0  0  0  0
   -1.5347   -2.2766    2.2599 C   0  0  0  0  0  0  0  0  0  0  0  0
   -0.1572   -1.8261    1.8320 C   0  0  0  0  0  0  0  0  0  0  0  0
    2.2063    0.0620    0.8199 C   0  0  0  0  0  0  0  0  0  0  0  0
    2.5985   -0.7725    1.6887 O   0  0  0  0  0  0  0  0  0  0  0  0
    3.2006    0.9451    0.3112 N   0  0  0  0  0  0  0  0  0  0  0  0
    4.5889    0.9014    0.7557 C   0  0  1  0  0  0  0  0  0  0  0  0
    5.4882    0.5715   -0.3992 C   0  0  0  0  0  0  0  0  0  0  0  0
    6.5054   -0.3747   -0.2447 C   0  0  0  0  0  0  0  0  0  0  0  0
    7.3439   -0.6911   -1.2978 C   0  0  0  0  0  0  0  0  0  0  0  0
    7.1380   -0.0388   -2.5032 C   0  0  0  0  0  0  0  0  0  0  0  0
    6.1277    0.9027   -2.6617 C   0  0  0  0  0  0  0  0  0  0  0  0
    5.3493    1.1634   -1.5992 N   0  0  0  0  0  0  0  0  0  0  0  0
    4.9298    2.2841    1.2690 C   0  0  0  0  0  0  0  0  0  0  0  0
   -3.8216    0.9739   -4.3658 H   0  0  0  0  0  0  0  0  0  0  0  0
   -2.2266   -0.2652   -2.8569 H   0  0  0  0  0  0  0  0  0  0  0  0
   -3.3179    4.3978   -1.7637 H   0  0  0  0  0  0  0  0  0  0  0  0
   -3.7771    0.5208   -0.1057 H   0  0  0  0  0  0  0  0  0  0  0  0
   -4.6829   -1.9555    2.5430 H   0  0  0  0  0  0  0  0  0  0  0  0
   -6.9728   -2.9652    2.5599 H   0  0  0  0  0  0  0  0  0  0  0  0
   -1.6366   -2.9499    0.2738 H   0  0  0  0  0  0  0  0  0  0  0  0
   -3.2544   -3.0410    1.0974 H   0  0  0  0  0  0  0  0  0  0  0  0
   -1.4234   -3.2023    2.8237 H   0  0  0  0  0  0  0  0  0  0  0  0
   -1.9805   -1.4429    2.8343 H   0  0  0  0  0  0  0  0  0  0  0  0
    0.3730   -1.5667    2.7716 H   0  0  0  0  0  0  0  0  0  0  0  0
    0.4001   -2.6629    1.3410 H   0  0  0  0  0  0  0  0  0  0  0  0
    2.9342    1.6380   -0.3932 H   0  0  0  0  0  0  0  0  0  0  0  0
    4.7308    0.1089    1.5197 H   0  0  0  0  0  0  0  0  0  0  0  0
    6.5973   -0.8411    0.7398 H   0  0  0  0  0  0  0  0  0  0  0  0
    8.1133   -1.4237   -1.1383 H   0  0  0  0  0  0  0  0  0  0  0  0
    7.8141   -0.3101   -3.3102 H   0  0  0  0  0  0  0  0  0  0  0  0
    6.0062    1.3875   -3.6283 H   0  0  0  0  0  0  0  0  0  0  0  0
    5.3090    2.2218    2.3084 H   0  0  0  0  0  0  0  0  0  0  0  0
    4.0703    2.9845    1.2131 H   0  0  0  0  0  0  0  0  0  0  0  0
    5.7215    2.7554    0.6338 H   0  0  0  0  0  0  0  0  0  0  0  0
  1  2  1  0
  2  3  2  0
  3  4  1  0
  4  5  2  0
  5  6  1  0
  6  7  2  0
  6  8  1  0
  5  9  1  0
  9 10  1  0
 10 11  2  0
 11 12  1  0
 12 13  2  0
 13 14  1  0
 14 15  2  0
 15 16  1  0
 16 17  2  0
 17 18  1  0
 18 19  2  0
 19 20  1  0
 19 21  1  0
 14 22  1  0
 22 23  1  0
 23 24  1  0
 11 25  1  0
 25 26  2  0
 25 27  1  0
 27 28  1  0
 28 29  1  0
 29 30  2  0
 30 31  1  0
 31 32  2  0
 32 33  1  0
 33 34  2  0
 28 35  1  0
  7  2  1  0
 13  9  1  0
 20 16  1  0
 34 29  1  0
 24 12  1  0
  3 36  1  0
  4 37  1  0
  7 38  1  0
 15 39  1  0
 17 40  1  0
 18 41  1  0
 22 42  1  0
 22 43  1  0
 23 44  1  0
 23 45  1  0
 24 46  1  0
 24 47  1  0
 27 48  1  0
 28 49  1  1
 30 50  1  0
 31 51  1  0
 32 52  1  0
 33 53  1  0
 35 54  1  0
 35 55  1  0
 35 56  1  0
M  END
>  <Ligand ID>  (1) 
LIG0005420

>  <Ligand>  (1) 
CHEMBL3984304

>  <SMILES>  (1) 
Clc1ccc(c(c1)Cl)n1nc(c2c1/C(=C/c1ccc(s1)Cl)/CCC2)C(=O)N[C@@H](c1ccccn1)C

>  <CID>  (1) 
134156883.0

>  <ChEMBL ID>  (1) 
nan

>  <InChiKey>  (1) 
ZMUAAMUXYQLOLG-WTNDLDAUSA-N

>  <InChi>  (1) 
InChI=1S/C26H21Cl3N4OS/c1-15(21-7-2-3-12-30-21)31-26(34)24-19-6-4-5-16(13-18-9-11-23(29)35-18)25(19)33(32-24)22-10-8-17(27)14-20(22)28/h2-3,7-15H,4-6H2,1H3,(H,31,34)/b16-13+/t15-/m1/s1

>  <IUPAC Name>  (1) 
(7E)-7-[(5-chlorothiophen-2-yl)methylidene]-1-(2,4-dichlorophenyl)-N-[(1R)-1-pyridin-2-ylethyl]-5,6-dihydro-4H-indazole-3-carboxamide

$$$$
