
     RDKit          3D

 87 91  0  0  0  0  0  0  0  0999 V2000
   -0.2579   -5.0195   -2.2139 C   0  0  0  0  0  0  0  0  0  0  0  0
   -0.0747   -3.6373   -1.6172 C   0  0  0  0  0  0  0  0  0  0  0  0
    0.2445   -3.7126   -0.1571 C   0  0  0  0  0  0  0  0  0  0  0  0
    0.4413   -2.3788    0.5082 C   0  0  2  0  0  0  0  0  0  0  0  0
   -0.7499   -1.5186    0.4190 N   0  0  0  0  0  0  0  0  0  0  0  0
   -0.6367   -0.4336   -0.5215 C   0  0  0  0  0  0  0  0  0  0  0  0
    0.4938    0.5211   -0.0887 C   0  0  0  0  0  0  0  0  0  0  0  0
    1.7065   -0.3132   -0.2135 N   0  0  0  0  0  0  0  0  0  0  0  0
    1.6322   -1.7324   -0.0703 C   0  0  0  0  0  0  0  0  0  0  0  0
    2.5782   -2.5021   -0.4294 O   0  0  0  0  0  0  0  0  0  0  0  0
    3.0035    0.2790   -0.4878 C   0  0  2  0  0  0  0  0  0  0  0  0
    3.5526   -0.0473   -1.8059 C   0  0  0  0  0  0  0  0  0  0  0  0
    4.7279    0.2908   -2.1850 O   0  0  0  0  0  0  0  0  0  0  0  0
    2.8167   -0.7824   -2.8085 N   0  0  0  0  0  0  0  0  0  0  0  0
    3.4457   -1.0591   -4.0826 C   0  0  0  0  0  0  0  0  0  0  0  0
    3.9287   -0.0117    0.6341 C   0  0  0  0  0  0  0  0  0  0  0  0
    5.2908    0.5163    0.5156 C   0  0  0  0  0  0  0  0  0  0  0  0
    6.3590   -0.1617   -0.0300 C   0  0  0  0  0  0  0  0  0  0  0  0
    7.6208    0.4205   -0.1029 C   0  0  0  0  0  0  0  0  0  0  0  0
    7.8091    1.7084    0.3826 C   0  0  0  0  0  0  0  0  0  0  0  0
    6.7509    2.4080    0.9348 C   0  0  0  0  0  0  0  0  0  0  0  0
    5.5245    1.8048    0.9901 C   0  0  0  0  0  0  0  0  0  0  0  0
    6.9080    3.6945    1.4281 C   0  0  0  0  0  0  0  0  0  0  0  0
    8.1554    4.2552    1.3504 C   0  0  0  0  0  0  0  0  0  0  0  0
    9.2399    3.5765    0.8004 C   0  0  0  0  0  0  0  0  0  0  0  0
    9.0650    2.2893    0.3112 C   0  0  0  0  0  0  0  0  0  0  0  0
   -1.8193   -1.8565    1.2373 C   0  0  0  0  0  0  0  0  0  0  0  0
   -1.6273   -2.9180    1.9655 O   0  0  0  0  0  0  0  0  0  0  0  0
   -3.1215   -1.2270    1.4220 C   0  0  2  0  0  0  0  0  0  0  0  0
   -3.3854   -0.0210    0.7074 N   0  0  0  0  0  0  0  0  0  0  0  0
   -4.3386   -0.0229   -0.3488 C   0  0  0  0  0  0  0  0  0  0  0  0
   -4.9529   -1.0913   -0.6513 O   0  0  0  0  0  0  0  0  0  0  0  0
   -4.6408    1.1816   -1.1133 C   0  0  2  0  0  0  0  0  0  0  0  0
   -5.2490    2.3118   -0.3248 C   0  0  0  0  0  0  0  0  0  0  0  0
   -5.6919    3.2242   -1.4798 C   0  0  0  0  0  0  0  0  0  0  0  0
   -5.7105    2.3156   -2.7149 C   0  0  0  0  0  0  0  0  0  0  0  0
   -5.6240    0.9666   -2.1565 N   0  0  0  0  0  0  0  0  0  0  0  0
   -3.4666   -1.0156    2.8795 C   0  0  0  0  0  0  0  0  0  0  0  0
   -4.7995   -0.3745    2.9504 C   0  0  0  0  0  0  0  0  0  0  0  0
   -4.9878    0.9924    2.9639 C   0  0  0  0  0  0  0  0  0  0  0  0
   -6.2659    1.5005    3.0381 C   0  0  0  0  0  0  0  0  0  0  0  0
   -7.3784    0.7056    3.1000 C   0  0  0  0  0  0  0  0  0  0  0  0
   -7.2082   -0.6505    3.0873 C   0  0  0  0  0  0  0  0  0  0  0  0
   -5.9263   -1.1745    3.0130 C   0  0  0  0  0  0  0  0  0  0  0  0
   -8.5842    1.3126    3.1706 F   0  0  0  0  0  0  0  0  0  0  0  0
    0.6091   -5.6294   -1.9087 H   0  0  0  0  0  0  0  0  0  0  0  0
   -1.1742   -5.4998   -1.8478 H   0  0  0  0  0  0  0  0  0  0  0  0
   -0.3184   -4.8950   -3.3126 H   0  0  0  0  0  0  0  0  0  0  0  0
    0.7675   -3.1806   -2.1736 H   0  0  0  0  0  0  0  0  0  0  0  0
   -0.9847   -3.0669   -1.8656 H   0  0  0  0  0  0  0  0  0  0  0  0
    1.2456   -4.2259   -0.0899 H   0  0  0  0  0  0  0  0  0  0  0  0
   -0.4422   -4.3745    0.4061 H   0  0  0  0  0  0  0  0  0  0  0  0
    0.6648   -2.5778    1.5782 H   0  0  0  0  0  0  0  0  0  0  0  0
   -1.5154    0.1414   -0.7381 H   0  0  0  0  0  0  0  0  0  0  0  0
   -0.2705   -0.8115   -1.5255 H   0  0  0  0  0  0  0  0  0  0  0  0
    0.3852    0.7676    0.9785 H   0  0  0  0  0  0  0  0  0  0  0  0
    0.4876    1.3609   -0.7812 H   0  0  0  0  0  0  0  0  0  0  0  0
    2.8106    1.4001   -0.5279 H   0  0  0  0  0  0  0  0  0  0  0  0
    1.8573   -1.1023   -2.6326 H   0  0  0  0  0  0  0  0  0  0  0  0
    4.1671   -1.9011   -4.0252 H   0  0  0  0  0  0  0  0  0  0  0  0
    4.0581   -0.1725   -4.4000 H   0  0  0  0  0  0  0  0  0  0  0  0
    2.7247   -1.2329   -4.8872 H   0  0  0  0  0  0  0  0  0  0  0  0
    3.4835    0.3357    1.6090 H   0  0  0  0  0  0  0  0  0  0  0  0
    4.0193   -1.1291    0.7703 H   0  0  0  0  0  0  0  0  0  0  0  0
    6.1936   -1.1819   -0.4074 H   0  0  0  0  0  0  0  0  0  0  0  0
    8.4678   -0.1102   -0.5326 H   0  0  0  0  0  0  0  0  0  0  0  0
    4.7051    2.3778    1.4304 H   0  0  0  0  0  0  0  0  0  0  0  0
    6.0770    4.2260    1.8543 H   0  0  0  0  0  0  0  0  0  0  0  0
    8.3259    5.2700    1.7283 H   0  0  0  0  0  0  0  0  0  0  0  0
   10.2153    4.0514    0.7549 H   0  0  0  0  0  0  0  0  0  0  0  0
    9.8811    1.7301   -0.1228 H   0  0  0  0  0  0  0  0  0  0  0  0
   -3.8910   -1.9926    1.0643 H   0  0  0  0  0  0  0  0  0  0  0  0
   -2.8707    0.8436    0.9992 H   0  0  0  0  0  0  0  0  0  0  0  0
   -3.7281    1.5704   -1.5911 H   0  0  0  0  0  0  0  0  0  0  0  0
   -4.4612    2.7882    0.2821 H   0  0  0  0  0  0  0  0  0  0  0  0
   -6.1622    2.0330    0.2044 H   0  0  0  0  0  0  0  0  0  0  0  0
   -6.7161    3.6062   -1.3435 H   0  0  0  0  0  0  0  0  0  0  0  0
   -4.9268    3.9832   -1.6574 H   0  0  0  0  0  0  0  0  0  0  0  0
   -4.7718    2.4495   -3.3052 H   0  0  0  0  0  0  0  0  0  0  0  0
   -6.6166    2.4202   -3.3109 H   0  0  0  0  0  0  0  0  0  0  0  0
   -6.5327    0.6194   -1.8046 H   0  0  0  0  0  0  0  0  0  0  0  0
   -3.4069   -1.9471    3.4670 H   0  0  0  0  0  0  0  0  0  0  0  0
   -2.7576   -0.2988    3.3552 H   0  0  0  0  0  0  0  0  0  0  0  0
   -4.1398    1.6473    2.9165 H   0  0  0  0  0  0  0  0  0  0  0  0
   -6.3563    2.5885    3.0458 H   0  0  0  0  0  0  0  0  0  0  0  0
   -8.0972   -1.2640    3.1370 H   0  0  0  0  0  0  0  0  0  0  0  0
   -5.8032   -2.2300    3.0038 H   0  0  0  0  0  0  0  0  0  0  0  0
  1  2  1  0
  2  3  1  0
  3  4  1  0
  4  5  1  0
  5  6  1  0
  6  7  1  0
  7  8  1  0
  8  9  1  0
  9 10  2  0
  8 11  1  0
 11 12  1  0
 12 13  2  0
 12 14  1  0
 14 15  1  0
 11 16  1  0
 16 17  1  0
 17 18  2  0
 18 19  1  0
 19 20  2  0
 20 21  1  0
 21 22  2  0
 21 23  1  0
 23 24  2  0
 24 25  1  0
 25 26  2  0
  5 27  1  0
 27 28  2  0
 27 29  1  0
 29 30  1  0
 30 31  1  0
 31 32  2  0
 31 33  1  0
 33 34  1  0
 34 35  1  0
 35 36  1  0
 36 37  1  0
 29 38  1  0
 38 39  1  0
 39 40  2  0
 40 41  1  0
 41 42  2  0
 42 43  1  0
 43 44  2  0
 42 45  1  0
  9  4  1  0
 22 17  1  0
 37 33  1  0
 44 39  1  0
 26 20  1  0
  1 46  1  0
  1 47  1  0
  1 48  1  0
  2 49  1  0
  2 50  1  0
  3 51  1  0
  3 52  1  0
  4 53  1  1
  6 54  1  0
  6 55  1  0
  7 56  1  0
  7 57  1  0
 11 58  1  6
 14 59  1  0
 15 60  1  0
 15 61  1  0
 15 62  1  0
 16 63  1  0
 16 64  1  0
 18 65  1  0
 19 66  1  0
 22 67  1  0
 23 68  1  0
 24 69  1  0
 25 70  1  0
 26 71  1  0
 29 72  1  6
 30 73  1  0
 33 74  1  6
 34 75  1  0
 34 76  1  0
 35 77  1  0
 35 78  1  0
 36 79  1  0
 36 80  1  0
 37 81  1  0
 38 82  1  0
 38 83  1  0
 40 84  1  0
 41 85  1  0
 43 86  1  0
 44 87  1  0
M  END
>  <Ligand ID>  (1) 
LIG0004070

>  <Ligand>  (1) 
CHEMBL442829

>  <SMILES>  (1) 
CCC[C@@H]1N(CCN(C1=O)[C@H](C(=O)NC)Cc1ccc2c(c1)cccc2)C(=O)[C@H](NC(=O)[C@@H]1CCCN1)Cc1ccc(cc1)F

>  <CID>  (1) 
25133210.0

>  <ChEMBL ID>  (1) 
nan

>  <InChiKey>  (1) 
RQHOEQDAYOKRHG-JVVMDBNWSA-N

>  <InChi>  (1) 
InChI=1S/C35H42FN5O4/c1-3-7-30-35(45)41(31(33(43)37-2)22-24-11-14-25-8-4-5-9-26(25)20-24)19-18-40(30)34(44)29(21-23-12-15-27(36)16-13-23)39-32(42)28-10-6-17-38-28/h4-5,8-9,11-16,20,28-31,38H,3,6-7,10,17-19,21-22H2,1-2H3,(H,37,43)(H,39,42)/t28-,29+,30-,31-/m0/s1

>  <IUPAC Name>  (1) 
(2S)-N-[(2R)-3-(4-fluorophenyl)-1-[(2S)-4-[(2S)-1-(methylamino)-3-naphthalen-2-yl-1-oxopropan-2-yl]-3-oxo-2-propylpiperazin-1-yl]-1-oxopropan-2-yl]pyrrolidine-2-carboxamide

$$$$
