
     RDKit          3D

 62 64  0  0  0  0  0  0  0  0999 V2000
    8.1617    1.9309    2.0303 C   0  0  0  0  0  0  0  0  0  0  0  0
    7.6785    1.5896    0.7675 O   0  0  0  0  0  0  0  0  0  0  0  0
    6.4547    0.9717    0.5569 C   0  0  0  0  0  0  0  0  0  0  0  0
    5.5806    0.6242    1.5445 C   0  0  0  0  0  0  0  0  0  0  0  0
    4.3607    0.0041    1.2840 C   0  0  0  0  0  0  0  0  0  0  0  0
    4.0524   -0.2569   -0.0460 C   0  0  0  0  0  0  0  0  0  0  0  0
    4.9250    0.0864   -1.0760 C   0  0  0  0  0  0  0  0  0  0  0  0
    6.1211    0.6987   -0.7673 C   0  0  0  0  0  0  0  0  0  0  0  0
    7.1804    1.1087   -2.0990 Cl  0  0  0  0  0  0  0  0  0  0  0  0
    2.8197   -0.8872   -0.3553 N   0  0  0  0  0  0  0  0  0  0  0  0
    2.7223   -2.2946   -0.4237 C   0  0  0  0  0  0  0  0  0  0  0  0
    3.7889   -2.9467   -0.1863 O   0  0  0  0  0  0  0  0  0  0  0  0
    1.5015   -3.0582   -0.7387 C   0  0  0  0  0  0  0  0  0  0  0  0
    0.3602   -2.2976   -1.0080 O   0  0  0  0  0  0  0  0  0  0  0  0
    0.2876   -1.4784   -2.0993 C   0  0  0  0  0  0  0  0  0  0  0  0
    1.3817   -1.4327   -2.9762 C   0  0  0  0  0  0  0  0  0  0  0  0
    1.3822   -0.6358   -4.0988 C   0  0  0  0  0  0  0  0  0  0  0  0
    0.2586    0.1201   -4.3296 C   0  0  0  0  0  0  0  0  0  0  0  0
   -0.8105    0.0743   -3.4717 C   0  0  0  0  0  0  0  0  0  0  0  0
   -0.8395   -0.7267   -2.3219 C   0  0  0  0  0  0  0  0  0  0  0  0
   -2.0214   -0.7012   -1.4818 C   0  0  0  0  0  0  0  0  0  0  0  0
   -2.9567    0.0797   -1.8853 O   0  0  0  0  0  0  0  0  0  0  0  0
   -2.2631   -1.4058   -0.3127 N   0  0  0  0  0  0  0  0  0  0  0  0
   -3.4080   -1.3777    0.5483 C   0  0  0  0  0  0  0  0  0  0  0  0
   -3.5990   -0.1145    1.2686 C   0  0  0  0  0  0  0  0  0  0  0  0
   -3.7950    1.1375    0.5572 C   0  0  0  0  0  0  0  0  0  0  0  0
   -5.0124    1.5444   -0.0018 C   0  0  0  0  0  0  0  0  0  0  0  0
   -5.1716    2.7611   -0.6196 C   0  0  0  0  0  0  0  0  0  0  0  0
   -4.1324    3.6481   -0.7203 C   0  0  0  0  0  0  0  0  0  0  0  0
   -2.9248    3.2848   -0.1848 C   0  0  0  0  0  0  0  0  0  0  0  0
   -2.7629    2.0792    0.4286 C   0  0  0  0  0  0  0  0  0  0  0  0
   -4.5664   -0.2529    2.3683 N   0  0  0  0  0  0  0  0  0  0  0  0
   -5.8473   -0.7241    1.9946 C   0  0  0  0  0  0  0  0  0  0  0  0
   -3.9747   -0.9702    3.4802 C   0  0  0  0  0  0  0  0  0  0  0  0
    7.8149    1.2368    2.8119 H   0  0  0  0  0  0  0  0  0  0  0  0
    7.9782    2.9935    2.2995 H   0  0  0  0  0  0  0  0  0  0  0  0
    9.2818    1.8524    1.9669 H   0  0  0  0  0  0  0  0  0  0  0  0
    5.8309    0.8313    2.5660 H   0  0  0  0  0  0  0  0  0  0  0  0
    3.6749   -0.2684    2.0608 H   0  0  0  0  0  0  0  0  0  0  0  0
    4.6712   -0.1218   -2.0890 H   0  0  0  0  0  0  0  0  0  0  0  0
    2.0011   -0.2688   -0.5115 H   0  0  0  0  0  0  0  0  0  0  0  0
    1.2614   -3.6528    0.1975 H   0  0  0  0  0  0  0  0  0  0  0  0
    1.7053   -3.7980   -1.5567 H   0  0  0  0  0  0  0  0  0  0  0  0
    2.2698   -2.0279   -2.8128 H   0  0  0  0  0  0  0  0  0  0  0  0
    2.2034   -0.5726   -4.7971 H   0  0  0  0  0  0  0  0  0  0  0  0
    0.2412    0.7528   -5.2076 H   0  0  0  0  0  0  0  0  0  0  0  0
   -1.6599    0.7114   -3.7389 H   0  0  0  0  0  0  0  0  0  0  0  0
   -1.4948   -2.0740    0.0110 H   0  0  0  0  0  0  0  0  0  0  0  0
   -3.3605   -2.1995    1.3132 H   0  0  0  0  0  0  0  0  0  0  0  0
   -4.2991   -1.6723   -0.0810 H   0  0  0  0  0  0  0  0  0  0  0  0
   -2.6236    0.0278    1.8640 H   0  0  0  0  0  0  0  0  0  0  0  0
   -5.8709    0.8981    0.0372 H   0  0  0  0  0  0  0  0  0  0  0  0
   -6.1334    3.0517   -1.0466 H   0  0  0  0  0  0  0  0  0  0  0  0
   -4.2180    4.6063   -1.1948 H   0  0  0  0  0  0  0  0  0  0  0  0
   -2.0879    3.9944   -0.2638 H   0  0  0  0  0  0  0  0  0  0  0  0
   -1.8045    1.8075    0.8458 H   0  0  0  0  0  0  0  0  0  0  0  0
   -5.9385   -1.2528    1.0440 H   0  0  0  0  0  0  0  0  0  0  0  0
   -6.6824    0.0111    2.0883 H   0  0  0  0  0  0  0  0  0  0  0  0
   -6.1272   -1.5072    2.7708 H   0  0  0  0  0  0  0  0  0  0  0  0
   -4.1911   -2.0637    3.3059 H   0  0  0  0  0  0  0  0  0  0  0  0
   -4.4690   -0.7143    4.4346 H   0  0  0  0  0  0  0  0  0  0  0  0
   -2.9053   -0.7630    3.5487 H   0  0  0  0  0  0  0  0  0  0  0  0
  1  2  1  0
  2  3  1  0
  3  4  2  0
  4  5  1  0
  5  6  2  0
  6  7  1  0
  7  8  2  0
  8  9  1  0
  6 10  1  0
 10 11  1  0
 11 12  2  0
 11 13  1  0
 13 14  1  0
 14 15  1  0
 15 16  2  0
 16 17  1  0
 17 18  2  0
 18 19  1  0
 19 20  2  0
 20 21  1  0
 21 22  2  0
 21 23  1  0
 23 24  1  0
 24 25  1  0
 25 26  1  0
 26 27  2  0
 27 28  1  0
 28 29  2  0
 29 30  1  0
 30 31  2  0
 25 32  1  0
 32 33  1  0
 32 34  1  0
  8  3  1  0
 20 15  1  0
 31 26  1  0
  1 35  1  0
  1 36  1  0
  1 37  1  0
  4 38  1  0
  5 39  1  0
  7 40  1  0
 10 41  1  0
 13 42  1  0
 13 43  1  0
 16 44  1  0
 17 45  1  0
 18 46  1  0
 19 47  1  0
 23 48  1  0
 24 49  1  0
 24 50  1  0
 25 51  1  0
 27 52  1  0
 28 53  1  0
 29 54  1  0
 30 55  1  0
 31 56  1  0
 33 57  1  0
 33 58  1  0
 33 59  1  0
 34 60  1  0
 34 61  1  0
 34 62  1  0
M  END
>  <Ligand ID>  (1) 
LIG0004517

>  <Ligand>  (1) 
MLS001172480

>  <SMILES>  (1) 
COc1ccc(cc1Cl)NC(=O)COc1ccccc1C(=O)NCC(c1ccccc1)N(C)C

>  <CID>  (1) 
3319690.0

>  <ChEMBL ID>  (1) 
nan

>  <InChiKey>  (1) 
PWSLNADMFIPTSL-UHFFFAOYSA-N

>  <InChi>  (1) 
InChI=1S/C26H28ClN3O4/c1-30(2)22(18-9-5-4-6-10-18)16-28-26(32)20-11-7-8-12-23(20)34-17-25(31)29-19-13-14-24(33-3)21(27)15-19/h4-15,22H,16-17H2,1-3H3,(H,28,32)(H,29,31)

>  <IUPAC Name>  (1) 
2-[2-(3-chloro-4-methoxyanilino)-2-oxoethoxy]-N-[2-(dimethylamino)-2-phenylethyl]benzamide

$$$$
