
     RDKit          3D

 45 48  0  0  0  0  0  0  0  0999 V2000
   -0.3212   -0.4696    2.0256 C   0  0  0  0  0  0  0  0  0  0  0  0
    0.4916   -1.1384    0.9503 C   0  0  1  0  0  0  0  0  0  0  0  0
   -0.2663   -1.5663   -0.2614 C   0  0  0  0  0  0  0  0  0  0  0  0
   -0.9477   -0.4821   -0.9205 N   0  0  0  0  0  0  0  0  0  0  0  0
   -0.3602    0.3277   -1.8276 C   0  0  0  0  0  0  0  0  0  0  0  0
   -1.2279    1.2936   -2.2829 C   0  0  0  0  0  0  0  0  0  0  0  0
   -2.4094    1.0705   -1.6269 C   0  0  0  0  0  0  0  0  0  0  0  0
   -2.2025   -0.0195   -0.8048 C   0  0  0  0  0  0  0  0  0  0  0  0
   -3.2796   -0.4287   -0.0525 C   0  0  0  0  0  0  0  0  0  0  0  0
   -3.2165   -1.5001    0.8001 C   0  0  0  0  0  0  0  0  0  0  0  0
   -4.3245   -1.9141    1.5585 C   0  0  0  0  0  0  0  0  0  0  0  0
   -5.4896   -1.1977    1.4148 C   0  0  0  0  0  0  0  0  0  0  0  0
   -5.5524   -0.1470    0.5797 N   0  0  0  0  0  0  0  0  0  0  0  0
   -4.4789    0.2454   -0.1485 C   0  0  0  0  0  0  0  0  0  0  0  0
   -4.6782    1.3351   -0.9717 C   0  0  0  0  0  0  0  0  0  0  0  0
   -3.6013    1.7464   -1.7262 C   0  0  0  0  0  0  0  0  0  0  0  0
    1.6481   -0.3317    0.7245 N   0  0  0  0  0  0  0  0  0  0  0  0
    2.6504   -0.8388   -0.1404 C   0  0  0  0  0  0  0  0  0  0  0  0
    3.7554    0.1919   -0.1599 C   0  0  0  0  0  0  0  0  0  0  0  0
    3.9158    1.0504   -1.2366 C   0  0  0  0  0  0  0  0  0  0  0  0
    4.9674    1.9553   -1.1350 C   0  0  0  0  0  0  0  0  0  0  0  0
    5.7901    1.9883   -0.0326 C   0  0  0  0  0  0  0  0  0  0  0  0
    5.6205    1.1232    1.0412 C   0  0  0  0  0  0  0  0  0  0  0  0
    4.5728    0.2182    0.9454 C   0  0  0  0  0  0  0  0  0  0  0  0
    4.3255   -0.8909    2.2803 Cl  0  0  0  0  0  0  0  0  0  0  0  0
   -1.0045    0.2678    1.5936 H   0  0  0  0  0  0  0  0  0  0  0  0
    0.3797    0.0768    2.7084 H   0  0  0  0  0  0  0  0  0  0  0  0
   -0.8401   -1.2337    2.6755 H   0  0  0  0  0  0  0  0  0  0  0  0
    0.8248   -2.1226    1.4391 H   0  0  0  0  0  0  0  0  0  0  0  0
    0.6008   -1.8329   -1.0062 H   0  0  0  0  0  0  0  0  0  0  0  0
   -0.7537   -2.5358   -0.2422 H   0  0  0  0  0  0  0  0  0  0  0  0
    0.6710    0.2882   -2.2089 H   0  0  0  0  0  0  0  0  0  0  0  0
   -1.0349    2.0789   -3.0118 H   0  0  0  0  0  0  0  0  0  0  0  0
   -2.3467   -2.0692    0.9462 H   0  0  0  0  0  0  0  0  0  0  0  0
   -4.2468   -2.7709    2.2292 H   0  0  0  0  0  0  0  0  0  0  0  0
   -6.3347   -1.5294    2.0063 H   0  0  0  0  0  0  0  0  0  0  0  0
   -5.6230    1.8635   -1.0451 H   0  0  0  0  0  0  0  0  0  0  0  0
   -3.7151    2.6057   -2.3921 H   0  0  0  0  0  0  0  0  0  0  0  0
    1.3575    0.6104    0.3978 H   0  0  0  0  0  0  0  0  0  0  0  0
    2.3775   -0.9613   -1.1989 H   0  0  0  0  0  0  0  0  0  0  0  0
    3.0578   -1.8212    0.1851 H   0  0  0  0  0  0  0  0  0  0  0  0
    3.2555    0.9908   -2.0708 H   0  0  0  0  0  0  0  0  0  0  0  0
    5.1255    2.6518   -1.9690 H   0  0  0  0  0  0  0  0  0  0  0  0
    6.6184    2.6933    0.0574 H   0  0  0  0  0  0  0  0  0  0  0  0
    6.2495    1.1286    1.9136 H   0  0  0  0  0  0  0  0  0  0  0  0
  1  2  1  0
  2  3  1  0
  3  4  1  0
  4  5  1  0
  5  6  2  0
  6  7  1  0
  7  8  2  0
  8  9  1  0
  9 10  2  0
 10 11  1  0
 11 12  2  0
 12 13  1  0
 13 14  2  0
 14 15  1  0
 15 16  2  0
  2 17  1  0
 17 18  1  0
 18 19  1  0
 19 20  2  0
 20 21  1  0
 21 22  2  0
 22 23  1  0
 23 24  2  0
 24 25  1  0
  8  4  1  0
 14  9  1  0
 24 19  1  0
 16  7  1  0
  1 26  1  0
  1 27  1  0
  1 28  1  0
  2 29  1  1
  3 30  1  0
  3 31  1  0
  5 32  1  0
  6 33  1  0
 10 34  1  0
 11 35  1  0
 12 36  1  0
 15 37  1  0
 16 38  1  0
 17 39  1  0
 18 40  1  0
 18 41  1  0
 20 42  1  0
 21 43  1  0
 22 44  1  0
 23 45  1  0
M  END
>  <Ligand ID>  (1) 
LIG0002146

>  <Ligand>  (1) 
CHEMBL202538

>  <SMILES>  (1) 
C[C@@H](Cn1ccc2c1c1cccnc1cc2)NCc1ccccc1Cl

>  <CID>  (1) 
44407453.0

>  <ChEMBL ID>  (1) 
nan

>  <InChiKey>  (1) 
DRERWZQTMBLMNH-HNNXBMFYSA-N

>  <InChi>  (1) 
InChI=1S/C21H20ClN3/c1-15(24-13-17-5-2-3-7-19(17)22)14-25-12-10-16-8-9-20-18(21(16)25)6-4-11-23-20/h2-12,15,24H,13-14H2,1H3/t15-/m0/s1

>  <IUPAC Name>  (1) 
(2S)-N-[(2-chlorophenyl)methyl]-1-pyrrolo[2,3-f]quinolin-1-ylpropan-2-amine

$$$$
