
     RDKit          3D

 45 47  0  0  0  0  0  0  0  0999 V2000
    6.0545    1.0727   -0.9337 C   0  0  0  0  0  0  0  0  0  0  0  0
    4.6344    0.8482   -0.6123 C   0  0  0  0  0  0  0  0  0  0  0  0
    3.5924    1.1629   -1.4594 C   0  0  0  0  0  0  0  0  0  0  0  0
    2.2761    0.9308   -1.1078 C   0  0  0  0  0  0  0  0  0  0  0  0
    1.9247    0.3672    0.1184 C   0  0  0  0  0  0  0  0  0  0  0  0
    2.9696    0.0548    0.9612 C   0  0  0  0  0  0  0  0  0  0  0  0
    4.3042    0.2913    0.6019 C   0  0  0  0  0  0  0  0  0  0  0  0
    0.5406    0.1194    0.5205 C   0  0  0  0  0  0  0  0  0  0  0  0
    0.2012    0.6873    1.7560 O   0  0  0  0  0  0  0  0  0  0  0  0
   -0.4626    0.6288   -0.5001 C   0  0  0  0  0  0  0  0  0  0  0  0
   -1.6286   -0.1412   -0.0251 N   0  0  0  0  0  0  0  0  0  0  0  0
   -1.0620   -1.4300    0.2375 C   0  0  0  0  0  0  0  0  0  0  0  0
    0.1801   -1.3173    0.5499 N   0  0  0  0  0  0  0  0  0  0  0  0
    0.8515   -2.5585    0.8073 C   0  0  0  0  0  0  0  0  0  0  0  0
   -0.0946   -3.5677    1.4264 C   0  0  0  0  0  0  0  0  0  0  0  0
   -1.5212   -3.1897    0.3017 S   0  0  0  0  0  0  0  0  0  0  0  0
   -2.9672    0.2991    0.1266 C   0  0  0  0  0  0  0  0  0  0  0  0
   -3.5363    0.2404    1.4026 C   0  0  0  0  0  0  0  0  0  0  0  0
   -4.8372    0.6589    1.5961 C   0  0  0  0  0  0  0  0  0  0  0  0
   -5.5953    1.1358    0.5611 C   0  0  0  0  0  0  0  0  0  0  0  0
   -5.0471    1.2027   -0.7189 C   0  0  0  0  0  0  0  0  0  0  0  0
   -3.7293    0.7816   -0.9291 C   0  0  0  0  0  0  0  0  0  0  0  0
   -3.1200    0.8454   -2.2998 C   0  0  0  0  0  0  0  0  0  0  0  0
    0.0000    0.0000    0.0000 Br  0  0  0  0  0  0  0  0  0  0  0  0
    6.0973    1.4371   -1.9780 H   0  0  0  0  0  0  0  0  0  0  0  0
    6.5531    0.0651   -0.8323 H   0  0  0  0  0  0  0  0  0  0  0  0
    6.5885    1.7425   -0.2374 H   0  0  0  0  0  0  0  0  0  0  0  0
    3.8689    1.6039   -2.4186 H   0  0  0  0  0  0  0  0  0  0  0  0
    1.5275    1.2003   -1.8117 H   0  0  0  0  0  0  0  0  0  0  0  0
    2.8433   -0.3810    1.9440 H   0  0  0  0  0  0  0  0  0  0  0  0
    5.1146    0.0346    1.2875 H   0  0  0  0  0  0  0  0  0  0  0  0
    0.8228    0.3663    2.4368 H   0  0  0  0  0  0  0  0  0  0  0  0
   -0.2176    0.2186   -1.5146 H   0  0  0  0  0  0  0  0  0  0  0  0
   -0.6201    1.7042   -0.4760 H   0  0  0  0  0  0  0  0  0  0  0  0
    1.2323   -2.9574   -0.1696 H   0  0  0  0  0  0  0  0  0  0  0  0
    1.7202   -2.4094    1.4799 H   0  0  0  0  0  0  0  0  0  0  0  0
    0.2290   -4.5881    1.2370 H   0  0  0  0  0  0  0  0  0  0  0  0
   -0.3172   -3.2959    2.4598 H   0  0  0  0  0  0  0  0  0  0  0  0
   -2.9489   -0.1384    2.2505 H   0  0  0  0  0  0  0  0  0  0  0  0
   -5.2114    0.5819    2.6243 H   0  0  0  0  0  0  0  0  0  0  0  0
   -6.6187    1.4555    0.7602 H   0  0  0  0  0  0  0  0  0  0  0  0
   -5.6448    1.5812   -1.5474 H   0  0  0  0  0  0  0  0  0  0  0  0
   -2.2916    1.5764   -2.2549 H   0  0  0  0  0  0  0  0  0  0  0  0
   -2.7606   -0.1444   -2.6237 H   0  0  0  0  0  0  0  0  0  0  0  0
   -3.8946    1.2246   -2.9969 H   0  0  0  0  0  0  0  0  0  0  0  0
  1  2  1  0
  2  3  2  0
  3  4  1  0
  4  5  2  0
  5  6  1  0
  6  7  2  0
  5  8  1  0
  8  9  1  0
  8 10  1  0
 10 11  1  0
 11 12  1  0
 12 13  2  0
 13 14  1  0
 14 15  1  0
 15 16  1  0
 11 17  1  0
 17 18  2  0
 18 19  1  0
 19 20  2  0
 20 21  1  0
 21 22  2  0
 22 23  1  0
  7  2  1  0
 13  8  1  0
 22 17  1  0
 16 12  1  0
  1 25  1  0
  1 26  1  0
  1 27  1  0
  3 28  1  0
  4 29  1  0
  6 30  1  0
  7 31  1  0
  9 32  1  0
 10 33  1  0
 10 34  1  0
 14 35  1  0
 14 36  1  0
 15 37  1  0
 15 38  1  0
 18 39  1  0
 19 40  1  0
 20 41  1  0
 21 42  1  0
 23 43  1  0
 23 44  1  0
 23 45  1  0
M  CHG  2  13   1  24  -1
M  END
>  <Ligand ID>  (1) 
LIG0003803

>  <Ligand>  (1) 
MLS000723082

>  <SMILES>  (1) 
Cc1ccc(cc1)C1(O)CN(C2=[N+]1CCS2)c1ccccc1C.[Br-]

>  <CID>  (1) 
12005930.0

>  <ChEMBL ID>  (1) 
nan

>  <InChiKey>  (1) 
WBEXCYYJHVDMQZ-UHFFFAOYSA-M

>  <InChi>  (1) 
InChI=1S/C19H21N2OS.BrH/c1-14-7-9-16(10-8-14)19(22)13-20(18-21(19)11-12-23-18)17-6-4-3-5-15(17)2;/h3-10,22H,11-13H2,1-2H3;1H/q+1;/p-1

>  <IUPAC Name>  (1) 
7-(2-methylphenyl)-5-(4-methylphenyl)-3,6-dihydro-2H-imidazo[2,1-b][1,3]thiazol-4-ium-5-ol;bromide

$$$$
