
     RDKit          3D

 29 29  0  0  0  0  0  0  0  0999 V2000
   -2.5264    0.1725   -0.9522 C   0  0  0  0  0  0  0  0  0  0  0  0
   -2.2238    0.3331    0.4981 C   0  0  0  0  0  0  0  0  0  0  0  0
   -1.0472   -0.4036    1.0248 C   0  0  0  0  0  0  0  0  0  0  0  0
    0.2778   -0.1147    0.4620 C   0  0  0  0  0  0  0  0  0  0  0  0
    0.4741   -0.3596   -1.0004 C   0  0  0  0  0  0  0  0  0  0  0  0
    1.9599   -0.2584   -1.2806 C   0  0  0  0  0  0  0  0  0  0  0  0
    2.7559    0.3704   -0.1841 C   0  0  0  0  0  0  0  0  0  0  0  0
    2.1301    1.6785    0.2984 C   0  0  0  0  0  0  0  0  0  0  0  0
    0.7449    1.3004    0.7055 C   0  0  0  0  0  0  0  0  0  0  0  0
    0.0223    2.1363    1.2236 O   0  0  0  0  0  0  0  0  0  0  0  0
   -1.3093   -1.9178    0.9969 C   0  0  0  0  0  0  0  0  0  0  0  0
   -3.6429    0.1394   -1.1363 H   0  0  0  0  0  0  0  0  0  0  0  0
   -2.2396    1.1441   -1.4489 H   0  0  0  0  0  0  0  0  0  0  0  0
   -2.1258   -0.7081   -1.4461 H   0  0  0  0  0  0  0  0  0  0  0  0
   -3.1546   -0.0106    1.0447 H   0  0  0  0  0  0  0  0  0  0  0  0
   -2.1564    1.4105    0.8078 H   0  0  0  0  0  0  0  0  0  0  0  0
   -1.0435   -0.1968    2.1391 H   0  0  0  0  0  0  0  0  0  0  0  0
    1.0239   -0.7955    0.9741 H   0  0  0  0  0  0  0  0  0  0  0  0
   -0.0032    0.3732   -1.6719 H   0  0  0  0  0  0  0  0  0  0  0  0
    0.1411   -1.3807   -1.3068 H   0  0  0  0  0  0  0  0  0  0  0  0
    2.1778    0.3011   -2.2263 H   0  0  0  0  0  0  0  0  0  0  0  0
    2.3809   -1.2787   -1.4295 H   0  0  0  0  0  0  0  0  0  0  0  0
    2.9731   -0.2907    0.6721 H   0  0  0  0  0  0  0  0  0  0  0  0
    3.7367    0.6843   -0.6504 H   0  0  0  0  0  0  0  0  0  0  0  0
    2.1863    2.4583   -0.4646 H   0  0  0  0  0  0  0  0  0  0  0  0
    2.6215    2.0408    1.2057 H   0  0  0  0  0  0  0  0  0  0  0  0
   -0.4305   -2.4248    1.4697 H   0  0  0  0  0  0  0  0  0  0  0  0
   -2.1640   -2.1126    1.6738 H   0  0  0  0  0  0  0  0  0  0  0  0
   -1.5392   -2.2904    0.0017 H   0  0  0  0  0  0  0  0  0  0  0  0
  1  2  1  0
  2  3  1  0
  3  4  1  0
  4  5  1  0
  5  6  1  0
  6  7  1  0
  7  8  1  0
  8  9  1  0
  9 10  2  0
  3 11  1  0
  9  4  1  0
  1 12  1  0
  1 13  1  0
  1 14  1  0
  2 15  1  0
  2 16  1  0
  3 17  1  0
  4 18  1  0
  5 19  1  0
  5 20  1  0
  6 21  1  0
  6 22  1  0
  7 23  1  0
  7 24  1  0
  8 25  1  0
  8 26  1  0
 11 27  1  0
 11 28  1  0
 11 29  1  0
M  END
>  <Ligand ID>  (1) 
LIG0005012

>  <Ligand>  (1) 
2-butan-2-ylcyclohexan-1-one

>  <SMILES>  (1) 
CCC(C1CCCCC1=O)C

>  <CID>  (1) 
61771.0

>  <ChEMBL ID>  (1) 
nan

>  <InChiKey>  (1) 
RQXTZKGDMNIWJF-UHFFFAOYSA-N

>  <InChi>  (1) 
InChI=1S/C10H18O/c1-3-8(2)9-6-4-5-7-10(9)11/h8-9H,3-7H2,1-2H3

>  <IUPAC Name>  (1) 
2-butan-2-ylcyclohexan-1-one

$$$$
