
     RDKit          3D

 36 38  0  0  0  0  0  0  0  0999 V2000
   -4.2938    1.0226    1.0225 C   0  0  0  0  0  0  0  0  0  0  0  0
   -3.0704    1.6076    0.3116 C   0  0  0  0  0  0  0  0  0  0  0  0
   -2.9525    2.9357    0.1642 C   0  0  0  0  0  0  0  0  0  0  0  0
   -1.8229    3.4307   -0.4404 C   0  0  0  0  0  0  0  0  0  0  0  0
   -0.8419    2.0158   -0.8444 S   0  0  0  0  0  0  0  0  0  0  0  0
   -2.0808    0.8026   -0.1386 C   0  0  0  0  0  0  0  0  0  0  0  0
   -1.8315   -0.6035   -0.1377 C   0  0  0  0  0  0  0  0  0  0  0  0
   -2.8967   -1.4985   -0.0498 C   0  0  0  0  0  0  0  0  0  0  0  0
   -2.7468   -2.8632    0.0005 C   0  0  0  0  0  0  0  0  0  0  0  0
   -1.5140   -3.4243   -0.0355 C   0  0  0  0  0  0  0  0  0  0  0  0
   -0.4291   -2.5841   -0.1222 C   0  0  0  0  0  0  0  0  0  0  0  0
   -0.5747   -1.1866   -0.1724 C   0  0  0  0  0  0  0  0  0  0  0  0
    0.6374   -0.4565   -0.1986 N   0  0  0  0  0  0  0  0  0  0  0  0
    1.9264   -1.1699   -0.2517 C   0  0  0  0  0  0  0  0  0  0  0  0
    3.0614   -0.2440   -0.2737 C   0  0  0  0  0  0  0  0  0  0  0  0
    3.0009    1.0368   -0.2513 N   0  0  0  0  0  0  0  0  0  0  0  0
    4.3108    1.6464   -0.2841 C   0  0  0  0  0  0  0  0  0  0  0  0
    5.2170    0.5040    0.0835 C   0  0  0  0  0  0  0  0  0  0  0  0
    4.4218   -0.6500   -0.3242 N   0  0  0  0  0  0  0  0  0  0  0  0
   -5.1007    0.7898    0.3161 H   0  0  0  0  0  0  0  0  0  0  0  0
   -4.7604    1.8175    1.6913 H   0  0  0  0  0  0  0  0  0  0  0  0
   -3.9969    0.2483    1.7360 H   0  0  0  0  0  0  0  0  0  0  0  0
   -3.7234    3.6746    0.5028 H   0  0  0  0  0  0  0  0  0  0  0  0
   -1.5563    4.4830   -0.6446 H   0  0  0  0  0  0  0  0  0  0  0  0
   -3.9260   -1.1510   -0.0454 H   0  0  0  0  0  0  0  0  0  0  0  0
   -3.6051   -3.5174    0.0693 H   0  0  0  0  0  0  0  0  0  0  0  0
   -1.4158   -4.4995    0.0043 H   0  0  0  0  0  0  0  0  0  0  0  0
    0.5437   -3.0547   -0.1499 H   0  0  0  0  0  0  0  0  0  0  0  0
    0.7378    0.5696   -0.1661 H   0  0  0  0  0  0  0  0  0  0  0  0
    2.0296   -1.8683    0.6062 H   0  0  0  0  0  0  0  0  0  0  0  0
    1.9315   -1.7154   -1.2355 H   0  0  0  0  0  0  0  0  0  0  0  0
    4.5921    1.9704   -1.3149 H   0  0  0  0  0  0  0  0  0  0  0  0
    4.4089    2.4707    0.4496 H   0  0  0  0  0  0  0  0  0  0  0  0
    6.1774    0.5604   -0.4601 H   0  0  0  0  0  0  0  0  0  0  0  0
    5.3893    0.4976    1.1864 H   0  0  0  0  0  0  0  0  0  0  0  0
    4.7539   -1.5973   -0.6030 H   0  0  0  0  0  0  0  0  0  0  0  0
  1  2  1  0
  2  3  1  0
  3  4  2  0
  4  5  1  0
  5  6  1  0
  6  7  1  0
  7  8  2  0
  8  9  1  0
  9 10  2  0
 10 11  1  0
 11 12  2  0
 12 13  1  0
 13 14  1  0
 14 15  1  0
 15 16  2  0
 16 17  1  0
 17 18  1  0
 18 19  1  0
  6  2  2  0
 12  7  1  0
 19 15  1  0
  1 20  1  0
  1 21  1  0
  1 22  1  0
  3 23  1  0
  4 24  1  0
  8 25  1  0
  9 26  1  0
 10 27  1  0
 11 28  1  0
 13 29  1  0
 14 30  1  0
 14 31  1  0
 17 32  1  0
 17 33  1  0
 18 34  1  0
 18 35  1  0
 19 36  1  0
M  END
>  <Ligand ID>  (1) 
LIG0003684

>  <Ligand>  (1) 
CHEMBL152693

>  <SMILES>  (1) 
Cc1ccsc1c1ccccc1NCC1=NCCN1

>  <CID>  (1) 
44369431.0

>  <ChEMBL ID>  (1) 
nan

>  <InChiKey>  (1) 
HCEHSLLRVKRKFF-UHFFFAOYSA-N

>  <InChi>  (1) 
InChI=1S/C15H17N3S/c1-11-6-9-19-15(11)12-4-2-3-5-13(12)18-10-14-16-7-8-17-14/h2-6,9,18H,7-8,10H2,1H3,(H,16,17)

>  <IUPAC Name>  (1) 
N-(4,5-dihydro-1H-imidazol-2-ylmethyl)-2-(3-methylthiophen-2-yl)aniline

$$$$
