
     RDKit          3D

 68 71  0  0  0  0  0  0  0  0999 V2000
    3.6834   -2.5208   -0.7262 O   0  0  0  0  0  0  0  0  0  0  0  0
    3.5956   -1.4425   -1.5820 C   0  0  2  0  0  0  0  0  0  0  0  0
    4.0825   -0.2078   -0.8360 C   0  0  0  0  0  0  0  0  0  0  0  0
    5.4212   -0.3620   -0.4150 O   0  0  0  0  0  0  0  0  0  0  0  0
    6.0216    0.6762    0.2825 C   0  0  0  0  0  0  0  0  0  0  0  0
    5.3769    1.8574    0.5883 C   0  0  0  0  0  0  0  0  0  0  0  0
    6.0953    2.8008    1.2857 C   0  0  0  0  0  0  0  0  0  0  0  0
    7.4203    2.5900    1.6757 C   0  0  0  0  0  0  0  0  0  0  0  0
    8.0647    1.4027    1.3670 C   0  0  0  0  0  0  0  0  0  0  0  0
    7.3468    0.4570    0.6687 C   0  0  0  0  0  0  0  0  0  0  0  0
    8.1869   -0.5928    0.4951 N   0  0  0  0  0  0  0  0  0  0  0  0
    7.9111   -1.8324   -0.1757 C   0  0  0  0  0  0  0  0  0  0  0  0
    9.3583   -0.2869    1.0661 C   0  0  0  0  0  0  0  0  0  0  0  0
   10.3805   -1.0213    1.1042 O   0  0  0  0  0  0  0  0  0  0  0  0
    9.3021    0.9250    1.6021 N   0  0  0  0  0  0  0  0  0  0  0  0
    2.1953   -1.2243   -2.1131 C   0  0  0  0  0  0  0  0  0  0  0  0
    1.2545   -0.9814   -1.0537 N   0  0  0  0  0  0  0  0  0  0  0  0
   -0.1012   -0.7686   -1.4988 C   0  0  0  0  0  0  0  0  0  0  0  0
   -0.9128   -0.5321   -0.2182 C   0  0  0  0  0  0  0  0  0  0  0  0
   -2.3390   -0.2984   -0.5459 C   0  0  0  0  0  0  0  0  0  0  0  0
   -2.8620    0.9543   -0.7950 C   0  0  0  0  0  0  0  0  0  0  0  0
   -4.2023    1.1574   -1.1004 C   0  0  0  0  0  0  0  0  0  0  0  0
   -5.0640    0.0749   -1.1624 C   0  0  0  0  0  0  0  0  0  0  0  0
   -4.5541   -1.1833   -0.9154 C   0  0  0  0  0  0  0  0  0  0  0  0
   -3.2136   -1.3628   -0.6126 C   0  0  0  0  0  0  0  0  0  0  0  0
   -6.4136    0.2005   -1.4611 O   0  0  0  0  0  0  0  0  0  0  0  0
   -7.3836    0.3955   -0.4842 C   0  0  0  0  0  0  0  0  0  0  0  0
   -7.0776    0.4792    0.8594 C   0  0  0  0  0  0  0  0  0  0  0  0
   -8.1594    0.6768    1.7215 C   0  0  0  0  0  0  0  0  0  0  0  0
   -9.4550    0.7801    1.2388 C   0  0  0  0  0  0  0  0  0  0  0  0
   -9.7105    0.6898   -0.1151 C   0  0  0  0  0  0  0  0  0  0  0  0
   -8.6628    0.4993   -0.9411 N   0  0  0  0  0  0  0  0  0  0  0  0
  -10.5883    0.9866    2.1358 C   0  0  0  0  0  0  0  0  0  0  0  0
  -11.7765    1.0822    1.7051 O   0  0  0  0  0  0  0  0  0  0  0  0
  -10.4199    1.0921    3.5447 N   0  0  0  0  0  0  0  0  0  0  0  0
   -0.2202    0.4574   -2.3797 C   0  0  0  0  0  0  0  0  0  0  0  0
   -0.5830   -1.9988   -2.2167 C   0  0  0  0  0  0  0  0  0  0  0  0
    3.7161   -2.2442    0.2299 H   0  0  0  0  0  0  0  0  0  0  0  0
    4.2980   -1.5423   -2.4569 H   0  0  0  0  0  0  0  0  0  0  0  0
    3.9834    0.7010   -1.4624 H   0  0  0  0  0  0  0  0  0  0  0  0
    3.4611   -0.1071    0.0975 H   0  0  0  0  0  0  0  0  0  0  0  0
    4.3567    1.9873    0.2731 H   0  0  0  0  0  0  0  0  0  0  0  0
    5.6250    3.7450    1.5468 H   0  0  0  0  0  0  0  0  0  0  0  0
    7.9823    3.3377    2.2257 H   0  0  0  0  0  0  0  0  0  0  0  0
    7.4861   -2.6060    0.4799 H   0  0  0  0  0  0  0  0  0  0  0  0
    7.2324   -1.7141   -1.0477 H   0  0  0  0  0  0  0  0  0  0  0  0
    8.8623   -2.2367   -0.6093 H   0  0  0  0  0  0  0  0  0  0  0  0
   10.0315    1.4506    2.1116 H   0  0  0  0  0  0  0  0  0  0  0  0
    1.8913   -2.0326   -2.7844 H   0  0  0  0  0  0  0  0  0  0  0  0
    2.2203   -0.2962   -2.7354 H   0  0  0  0  0  0  0  0  0  0  0  0
    1.5030   -0.1902   -0.4537 H   0  0  0  0  0  0  0  0  0  0  0  0
   -0.4971    0.3323    0.3354 H   0  0  0  0  0  0  0  0  0  0  0  0
   -0.8585   -1.4590    0.4016 H   0  0  0  0  0  0  0  0  0  0  0  0
   -2.2063    1.8243   -0.7530 H   0  0  0  0  0  0  0  0  0  0  0  0
   -4.5930    2.1666   -1.2947 H   0  0  0  0  0  0  0  0  0  0  0  0
   -5.2363   -2.0448   -0.9640 H   0  0  0  0  0  0  0  0  0  0  0  0
   -2.9089   -2.3902   -0.4343 H   0  0  0  0  0  0  0  0  0  0  0  0
   -6.0689    0.3954    1.1970 H   0  0  0  0  0  0  0  0  0  0  0  0
   -7.9600    0.7467    2.7722 H   0  0  0  0  0  0  0  0  0  0  0  0
  -10.7317    0.7726   -0.4790 H   0  0  0  0  0  0  0  0  0  0  0  0
  -10.1717    0.2493    4.1314 H   0  0  0  0  0  0  0  0  0  0  0  0
  -10.5541    2.0406    3.9625 H   0  0  0  0  0  0  0  0  0  0  0  0
    0.3528    0.3074   -3.2976 H   0  0  0  0  0  0  0  0  0  0  0  0
   -1.2662    0.6582   -2.6595 H   0  0  0  0  0  0  0  0  0  0  0  0
    0.1056    1.3405   -1.7694 H   0  0  0  0  0  0  0  0  0  0  0  0
   -0.2837   -2.8922   -1.6578 H   0  0  0  0  0  0  0  0  0  0  0  0
   -0.0959   -1.9645   -3.2352 H   0  0  0  0  0  0  0  0  0  0  0  0
   -1.6735   -1.9545   -2.4443 H   0  0  0  0  0  0  0  0  0  0  0  0
  1  2  1  0
  2  3  1  0
  3  4  1  0
  4  5  1  0
  5  6  2  0
  6  7  1  0
  7  8  2  0
  8  9  1  0
  9 10  2  0
 10 11  1  0
 11 12  1  0
 11 13  1  0
 13 14  2  0
 13 15  1  0
  2 16  1  0
 16 17  1  0
 17 18  1  0
 18 19  1  0
 19 20  1  0
 20 21  2  0
 21 22  1  0
 22 23  2  0
 23 24  1  0
 24 25  2  0
 23 26  1  0
 26 27  1  0
 27 28  2  0
 28 29  1  0
 29 30  2  0
 30 31  1  0
 31 32  2  0
 30 33  1  0
 33 34  2  0
 33 35  1  0
 18 36  1  0
 18 37  1  0
 10  5  1  0
 25 20  1  0
 32 27  1  0
 15  9  1  0
  1 38  1  0
  2 39  1  6
  3 40  1  0
  3 41  1  0
  6 42  1  0
  7 43  1  0
  8 44  1  0
 12 45  1  0
 12 46  1  0
 12 47  1  0
 15 48  1  0
 16 49  1  0
 16 50  1  0
 17 51  1  0
 19 52  1  0
 19 53  1  0
 21 54  1  0
 22 55  1  0
 24 56  1  0
 25 57  1  0
 28 58  1  0
 29 59  1  0
 31 60  1  0
 35 61  1  0
 35 62  1  0
 36 63  1  0
 36 64  1  0
 36 65  1  0
 37 66  1  0
 37 67  1  0
 37 68  1  0
M  END
>  <Ligand ID>  (1) 
LIG0001485

>  <Ligand>  (1) 
CHEMBL386016

>  <SMILES>  (1) 
O[C@H](COc1cccc2c1n(C)c(=O)[nH]2)CNC(Cc1ccc(cc1)Oc1ccc(cn1)C(=O)N)(C)C

>  <CID>  (1) 
44419332.0

>  <ChEMBL ID>  (1) 
nan

>  <InChiKey>  (1) 
BWFZVCAHTKYRFD-IBGZPJMESA-N

>  <InChi>  (1) 
InChI=1S/C27H31N5O5/c1-27(2,13-17-7-10-20(11-8-17)37-23-12-9-18(14-29-23)25(28)34)30-15-19(33)16-36-22-6-4-5-21-24(22)32(3)26(35)31-21/h4-12,14,19,30,33H,13,15-16H2,1-3H3,(H2,28,34)(H,31,35)/t19-/m0/s1

>  <IUPAC Name>  (1) 
6-[4-[2-[[(2S)-2-hydroxy-3-[(3-methyl-2-oxo-1H-benzimidazol-4-yl)oxy]propyl]amino]-2-methylpropyl]phenoxy]pyridine-3-carboxamide

$$$$
