
     RDKit          3D

 57 57  0  0  0  0  0  0  0  0999 V2000
   -8.9491    0.9763    0.1766 C   0  0  0  0  0  0  0  0  0  0  0  0
   -8.4725   -0.4305   -0.1599 C   0  0  0  0  0  0  0  0  0  0  0  0
   -7.0033   -0.5176    0.2220 C   0  0  0  0  0  0  0  0  0  0  0  0
   -6.2577    0.5321   -0.5918 C   0  0  0  0  0  0  0  0  0  0  0  0
   -4.7929    0.4426   -0.2087 C   0  0  0  0  0  0  0  0  0  0  0  0
   -3.9948    1.4831   -1.0034 C   0  0  0  0  0  0  0  0  0  0  0  0
   -2.5653    1.3457   -0.5832 C   0  0  0  0  0  0  0  0  0  0  0  0
   -2.1356    0.0295   -0.8835 O   0  0  0  0  0  0  0  0  0  0  0  0
   -0.8219   -0.2933   -0.5629 C   0  0  0  0  0  0  0  0  0  0  0  0
   -0.3135   -1.5648   -0.8224 C   0  0  0  0  0  0  0  0  0  0  0  0
    1.0006   -1.8976   -0.5051 C   0  0  0  0  0  0  0  0  0  0  0  0
    1.8447   -0.9807    0.0772 C   0  0  0  0  0  0  0  0  0  0  0  0
    1.3559    0.2815    0.3400 C   0  0  0  0  0  0  0  0  0  0  0  0
    0.0524    0.5992    0.0211 C   0  0  0  0  0  0  0  0  0  0  0  0
    3.2553   -1.2932    0.4330 C   0  0  0  0  0  0  0  0  0  0  0  0
    4.0822   -0.9344   -0.7989 C   0  0  0  0  0  0  0  0  0  0  0  0
    5.5184   -1.2300   -0.4959 C   0  0  1  0  0  0  0  0  0  0  0  0
    5.9882   -0.4095    0.6942 C   0  0  0  0  0  0  0  0  0  0  0  0
    5.9148    0.9447    0.4772 O   0  0  0  0  0  0  0  0  0  0  0  0
    6.4384    1.8506    1.8017 P   0  0  0  0  0  0  0  0  0  0  0  0
    7.8689    1.3971    2.1087 O   0  0  0  0  0  0  0  0  0  0  0  0
    5.5440    1.5816    3.1869 O   0  0  0  0  0  0  0  0  0  0  0  0
    6.5630    3.4782    1.3811 O   0  0  0  0  0  0  0  0  0  0  0  0
    5.6247   -2.6462   -0.1923 N   0  0  0  0  0  0  0  0  0  0  0  0
    6.3941   -0.9885   -1.7069 C   0  0  0  0  0  0  0  0  0  0  0  0
   -8.7220    1.6640   -0.6420 H   0  0  0  0  0  0  0  0  0  0  0  0
  -10.0342    0.9725    0.3573 H   0  0  0  0  0  0  0  0  0  0  0  0
   -8.4015    1.3480    1.0768 H   0  0  0  0  0  0  0  0  0  0  0  0
   -9.0425   -1.1942    0.3994 H   0  0  0  0  0  0  0  0  0  0  0  0
   -8.5642   -0.6189   -1.2355 H   0  0  0  0  0  0  0  0  0  0  0  0
   -6.8754   -0.2736    1.2948 H   0  0  0  0  0  0  0  0  0  0  0  0
   -6.6379   -1.5278   -0.0409 H   0  0  0  0  0  0  0  0  0  0  0  0
   -6.3792    0.3335   -1.6655 H   0  0  0  0  0  0  0  0  0  0  0  0
   -6.6526    1.5309   -0.3619 H   0  0  0  0  0  0  0  0  0  0  0  0
   -4.6504    0.6823    0.8576 H   0  0  0  0  0  0  0  0  0  0  0  0
   -4.3989   -0.5619   -0.4004 H   0  0  0  0  0  0  0  0  0  0  0  0
   -4.3958    2.4956   -0.8149 H   0  0  0  0  0  0  0  0  0  0  0  0
   -4.0531    1.2506   -2.0922 H   0  0  0  0  0  0  0  0  0  0  0  0
   -1.9261    2.1055   -1.0845 H   0  0  0  0  0  0  0  0  0  0  0  0
   -2.4909    1.4621    0.5296 H   0  0  0  0  0  0  0  0  0  0  0  0
   -0.9372   -2.3221   -1.2793 H   0  0  0  0  0  0  0  0  0  0  0  0
    1.3635   -2.8864   -0.7176 H   0  0  0  0  0  0  0  0  0  0  0  0
    1.9943    1.0414    0.8026 H   0  0  0  0  0  0  0  0  0  0  0  0
   -0.3494    1.5936    0.2227 H   0  0  0  0  0  0  0  0  0  0  0  0
    3.5223   -0.6694    1.2935 H   0  0  0  0  0  0  0  0  0  0  0  0
    3.3130   -2.3568    0.6859 H   0  0  0  0  0  0  0  0  0  0  0  0
    3.8788    0.1307   -1.0006 H   0  0  0  0  0  0  0  0  0  0  0  0
    3.7313   -1.5067   -1.6591 H   0  0  0  0  0  0  0  0  0  0  0  0
    5.5383   -0.7744    1.6184 H   0  0  0  0  0  0  0  0  0  0  0  0
    7.0893   -0.6423    0.7841 H   0  0  0  0  0  0  0  0  0  0  0  0
    4.7231    2.1238    3.1468 H   0  0  0  0  0  0  0  0  0  0  0  0
    5.7368    3.7763    0.9179 H   0  0  0  0  0  0  0  0  0  0  0  0
    5.0020   -3.1457   -0.8719 H   0  0  0  0  0  0  0  0  0  0  0  0
    6.5859   -3.0197   -0.3282 H   0  0  0  0  0  0  0  0  0  0  0  0
    6.7354   -1.9325   -2.1851 H   0  0  0  0  0  0  0  0  0  0  0  0
    7.3085   -0.4171   -1.4534 H   0  0  0  0  0  0  0  0  0  0  0  0
    5.8497   -0.4169   -2.4732 H   0  0  0  0  0  0  0  0  0  0  0  0
  1  2  1  0
  2  3  1  0
  3  4  1  0
  4  5  1  0
  5  6  1  0
  6  7  1  0
  7  8  1  0
  8  9  1  0
  9 10  2  0
 10 11  1  0
 11 12  2  0
 12 13  1  0
 13 14  2  0
 12 15  1  0
 15 16  1  0
 16 17  1  0
 17 18  1  0
 18 19  1  0
 19 20  1  0
 20 21  2  0
 20 22  1  0
 20 23  1  0
 17 24  1  1
 17 25  1  0
 14  9  1  0
  1 26  1  0
  1 27  1  0
  1 28  1  0
  2 29  1  0
  2 30  1  0
  3 31  1  0
  3 32  1  0
  4 33  1  0
  4 34  1  0
  5 35  1  0
  5 36  1  0
  6 37  1  0
  6 38  1  0
  7 39  1  0
  7 40  1  0
 10 41  1  0
 11 42  1  0
 13 43  1  0
 14 44  1  0
 15 45  1  0
 15 46  1  0
 16 47  1  0
 16 48  1  0
 18 49  1  0
 18 50  1  0
 22 51  1  0
 23 52  1  0
 24 53  1  0
 24 54  1  0
 25 55  1  0
 25 56  1  0
 25 57  1  0
M  END
>  <Ligand ID>  (1) 
LIG0004302

>  <Ligand>  (1) 
CHEMBL1084929

>  <SMILES>  (1) 
CCCCCCCOc1ccc(cc1)CC[C@@](COP(=O)(O)O)(N)C

>  <CID>  (1) 
46881847.0

>  <ChEMBL ID>  (1) 
nan

>  <InChiKey>  (1) 
NMRLBSIYIBOLLJ-SFHVURJKSA-N

>  <InChi>  (1) 
InChI=1S/C18H32NO5P/c1-3-4-5-6-7-14-23-17-10-8-16(9-11-17)12-13-18(2,19)15-24-25(20,21)22/h8-11H,3-7,12-15,19H2,1-2H3,(H2,20,21,22)/t18-/m0/s1

>  <IUPAC Name>  (1) 
[(2S)-2-amino-4-(4-heptoxyphenyl)-2-methylbutyl] dihydrogen phosphate

$$$$
