
     RDKit          3D

 19 19  0  0  0  0  0  0  0  0999 V2000
    3.7907   -0.8066    0.1953 S   0  0  0  0  0  0  0  0  0  0  0  0
    2.1312   -0.0980    0.0495 C   0  0  0  0  0  0  0  0  0  0  0  0
    1.0493   -1.1195    0.3165 C   0  0  0  0  0  0  0  0  0  0  0  0
   -0.2396   -0.3860    0.1585 C   0  0  0  0  0  0  0  0  0  0  0  0
   -0.8684    0.2569    1.2040 C   0  0  0  0  0  0  0  0  0  0  0  0
   -2.0606    0.9190    0.9942 C   0  0  0  0  0  0  0  0  0  0  0  0
   -2.6659    0.9630   -0.2630 C   0  0  0  0  0  0  0  0  0  0  0  0
   -2.0000    0.3059   -1.2766 C   0  0  0  0  0  0  0  0  0  0  0  0
   -0.8120   -0.3615   -1.0974 C   0  0  0  0  0  0  0  0  0  0  0  0
    4.7063    0.1699   -0.2528 H   0  0  0  0  0  0  0  0  0  0  0  0
    2.0313    0.2871   -0.9953 H   0  0  0  0  0  0  0  0  0  0  0  0
    1.9656    0.7627    0.7353 H   0  0  0  0  0  0  0  0  0  0  0  0
    1.1637   -1.4903    1.3589 H   0  0  0  0  0  0  0  0  0  0  0  0
    1.1024   -1.9848   -0.3448 H   0  0  0  0  0  0  0  0  0  0  0  0
   -0.4130    0.2327    2.1848 H   0  0  0  0  0  0  0  0  0  0  0  0
   -2.5274    1.4101    1.8246 H   0  0  0  0  0  0  0  0  0  0  0  0
   -3.5900    1.4842   -0.3941 H   0  0  0  0  0  0  0  0  0  0  0  0
   -2.4394    0.3195   -2.2613 H   0  0  0  0  0  0  0  0  0  0  0  0
   -0.3242   -0.8641   -1.9238 H   0  0  0  0  0  0  0  0  0  0  0  0
  1  2  1  0
  2  3  1  0
  3  4  1  0
  4  5  2  0
  5  6  1  0
  6  7  2  0
  7  8  1  0
  8  9  2  0
  9  4  1  0
  1 10  1  0
  2 11  1  0
  2 12  1  0
  3 13  1  0
  3 14  1  0
  5 15  1  0
  6 16  1  0
  7 17  1  0
  8 18  1  0
  9 19  1  0
M  END
>  <Ligand ID>  (1) 
LIG0000258

>  <Ligand>  (1) 
2-Phenylethanethiol

>  <SMILES>  (1) 
SCCc1ccccc1

>  <CID>  (1) 
78126.0

>  <ChEMBL ID>  (1) 
nan

>  <InChiKey>  (1) 
ZMRFRBHYXOQLDK-UHFFFAOYSA-N

>  <InChi>  (1) 
InChI=1S/C8H10S/c9-7-6-8-4-2-1-3-5-8/h1-5,9H,6-7H2

>  <IUPAC Name>  (1) 
2-phenylethanethiol

$$$$
