
     RDKit          3D

 97101  0  0  0  0  0  0  0  0999 V2000
    5.9245   -1.9188    0.5207 C   0  0  0  0  0  0  0  0  0  0  0  0
    5.3026   -0.8565   -0.3466 C   0  0  0  0  0  0  0  0  0  0  0  0
    5.1784   -1.1588   -1.5597 O   0  0  0  0  0  0  0  0  0  0  0  0
    4.8972    0.3888    0.2064 N   0  0  0  0  0  0  0  0  0  0  0  0
    4.3125    1.4671   -0.5128 C   0  0  2  0  0  0  0  0  0  0  0  0
    2.8380    1.5200   -0.4959 C   0  0  0  0  0  0  0  0  0  0  0  0
    2.2891    2.4730   -1.1160 O   0  0  0  0  0  0  0  0  0  0  0  0
    2.1313    0.5294    0.1936 N   0  0  0  0  0  0  0  0  0  0  0  0
    0.6621    0.4806    0.2761 C   0  0  1  0  0  0  0  0  0  0  0  0
    0.1578   -0.7148   -0.4218 C   0  0  0  0  0  0  0  0  0  0  0  0
    1.0803   -1.4960   -0.8814 O   0  0  0  0  0  0  0  0  0  0  0  0
   -1.2036   -1.0473   -0.6186 N   0  0  0  0  0  0  0  0  0  0  0  0
   -2.4209   -0.4045   -0.2110 C   0  0  0  0  0  0  0  0  0  0  0  0
   -3.1409   -0.3285   -1.5652 C   0  0  1  0  0  0  0  0  0  0  0  0
   -2.8453   -1.7177   -2.1018 C   0  0  0  0  0  0  0  0  0  0  0  0
   -1.6148   -2.2233   -1.3821 C   0  0  2  0  0  0  0  0  0  0  0  0
   -1.9919   -3.2923   -0.4373 C   0  0  0  0  0  0  0  0  0  0  0  0
   -1.9896   -3.1843    0.8104 O   0  0  0  0  0  0  0  0  0  0  0  0
   -2.3885   -4.5444   -0.9781 N   0  0  0  0  0  0  0  0  0  0  0  0
   -2.7753   -5.6601   -0.1369 C   0  0  0  0  0  0  0  0  0  0  0  0
   -3.9634   -5.3549    0.7495 C   0  0  0  0  0  0  0  0  0  0  0  0
   -5.1302   -5.0105   -0.0009 N   0  0  0  0  0  0  0  0  0  0  0  0
   -6.2878   -5.3967    0.3756 C   0  0  0  0  0  0  0  0  0  0  0  0
   -7.3999   -5.0126   -0.4260 N   0  0  0  0  0  0  0  0  0  0  0  0
   -6.5264   -6.1828    1.5425 N   0  0  0  0  0  0  0  0  0  0  0  0
   -4.4707   -0.0832   -1.4209 O   0  0  0  0  0  0  0  0  0  0  0  0
   -4.9429    1.0367   -2.0302 C   0  0  0  0  0  0  0  0  0  0  0  0
   -4.3808    2.3179   -1.6169 C   0  0  0  0  0  0  0  0  0  0  0  0
   -3.3291    2.9716   -2.2158 C   0  0  0  0  0  0  0  0  0  0  0  0
   -2.8517    4.1941   -1.7441 C   0  0  0  0  0  0  0  0  0  0  0  0
   -3.4325    4.7811   -0.6523 C   0  0  0  0  0  0  0  0  0  0  0  0
   -4.4860    4.1552   -0.0302 C   0  0  0  0  0  0  0  0  0  0  0  0
   -4.9445    2.9491   -0.5082 C   0  0  0  0  0  0  0  0  0  0  0  0
   -5.0722    4.7602    1.0814 C   0  0  0  0  0  0  0  0  0  0  0  0
   -4.5619    5.9765    1.5134 C   0  0  0  0  0  0  0  0  0  0  0  0
   -3.4940    6.5896    0.8659 C   0  0  0  0  0  0  0  0  0  0  0  0
   -2.9249    5.9956   -0.2190 C   0  0  0  0  0  0  0  0  0  0  0  0
    0.3304    0.6468    1.7070 C   0  0  0  0  0  0  0  0  0  0  0  0
    0.8755   -0.3510    2.6292 C   0  0  0  0  0  0  0  0  0  0  0  0
    0.2481   -1.4964    3.0370 C   0  0  0  0  0  0  0  0  0  0  0  0
    0.8367   -2.3990    3.9173 C   0  0  0  0  0  0  0  0  0  0  0  0
    2.0982   -2.1747    4.4254 C   0  0  0  0  0  0  0  0  0  0  0  0
    2.7473   -1.0215    4.0237 C   0  0  0  0  0  0  0  0  0  0  0  0
    2.1571   -0.1334    3.1516 C   0  0  0  0  0  0  0  0  0  0  0  0
    4.9176    1.7510   -1.8770 C   0  0  0  0  0  0  0  0  0  0  0  0
    6.3253    2.1289   -1.6895 C   0  0  0  0  0  0  0  0  0  0  0  0
    6.5574    3.4905   -1.4098 C   0  0  0  0  0  0  0  0  0  0  0  0
    7.8320    3.9807   -1.2274 C   0  0  0  0  0  0  0  0  0  0  0  0
    8.9415    3.1707   -1.3084 C   0  0  0  0  0  0  0  0  0  0  0  0
    8.7138    1.8330   -1.5831 C   0  0  0  0  0  0  0  0  0  0  0  0
    7.4171    1.3402   -1.7680 C   0  0  0  0  0  0  0  0  0  0  0  0
   10.2353    3.5969   -1.1377 O   0  0  0  0  0  0  0  0  0  0  0  0
    6.4307   -1.3747    1.3675 H   0  0  0  0  0  0  0  0  0  0  0  0
    5.1157   -2.5063    0.9903 H   0  0  0  0  0  0  0  0  0  0  0  0
    6.6905   -2.4983    0.0045 H   0  0  0  0  0  0  0  0  0  0  0  0
    5.0641    0.4743    1.2592 H   0  0  0  0  0  0  0  0  0  0  0  0
    4.6566    2.4080    0.0643 H   0  0  0  0  0  0  0  0  0  0  0  0
    2.6366   -0.2375    0.6917 H   0  0  0  0  0  0  0  0  0  0  0  0
    0.3473    1.4152   -0.2829 H   0  0  0  0  0  0  0  0  0  0  0  0
   -2.3112    0.5980    0.2291 H   0  0  0  0  0  0  0  0  0  0  0  0
   -2.9721   -1.0930    0.4571 H   0  0  0  0  0  0  0  0  0  0  0  0
   -2.5551    0.3751   -2.1571 H   0  0  0  0  0  0  0  0  0  0  0  0
   -3.7300   -2.3386   -1.7986 H   0  0  0  0  0  0  0  0  0  0  0  0
   -2.7177   -1.7067   -3.2055 H   0  0  0  0  0  0  0  0  0  0  0  0
   -0.8204   -2.5393   -2.0891 H   0  0  0  0  0  0  0  0  0  0  0  0
   -2.4030   -4.6710   -2.0316 H   0  0  0  0  0  0  0  0  0  0  0  0
   -1.9027   -5.8456    0.5411 H   0  0  0  0  0  0  0  0  0  0  0  0
   -2.9135   -6.5579   -0.7365 H   0  0  0  0  0  0  0  0  0  0  0  0
   -4.1466   -6.2932    1.3276 H   0  0  0  0  0  0  0  0  0  0  0  0
   -3.7279   -4.5860    1.5056 H   0  0  0  0  0  0  0  0  0  0  0  0
   -7.8870   -5.7512   -1.0045 H   0  0  0  0  0  0  0  0  0  0  0  0
   -7.7430   -4.0366   -0.4590 H   0  0  0  0  0  0  0  0  0  0  0  0
   -5.9851   -7.0447    1.7739 H   0  0  0  0  0  0  0  0  0  0  0  0
   -7.2977   -5.8555    2.1929 H   0  0  0  0  0  0  0  0  0  0  0  0
   -4.9054    0.9938   -3.1447 H   0  0  0  0  0  0  0  0  0  0  0  0
   -6.0534    1.0715   -1.8116 H   0  0  0  0  0  0  0  0  0  0  0  0
   -2.8605    2.5285   -3.0821 H   0  0  0  0  0  0  0  0  0  0  0  0
   -2.0141    4.6377   -2.2831 H   0  0  0  0  0  0  0  0  0  0  0  0
   -5.7714    2.4871    0.0066 H   0  0  0  0  0  0  0  0  0  0  0  0
   -5.9020    4.2970    1.5951 H   0  0  0  0  0  0  0  0  0  0  0  0
   -4.9774    6.4959    2.3720 H   0  0  0  0  0  0  0  0  0  0  0  0
   -3.0955    7.5466    1.2125 H   0  0  0  0  0  0  0  0  0  0  0  0
   -2.1067    6.4400   -0.7378 H   0  0  0  0  0  0  0  0  0  0  0  0
   -0.7410    0.7688    1.9613 H   0  0  0  0  0  0  0  0  0  0  0  0
    0.7734    1.6476    2.0131 H   0  0  0  0  0  0  0  0  0  0  0  0
   -0.7235   -1.7013    2.6737 H   0  0  0  0  0  0  0  0  0  0  0  0
    0.3005   -3.3012    4.2171 H   0  0  0  0  0  0  0  0  0  0  0  0
    2.6058   -2.8353    5.1093 H   0  0  0  0  0  0  0  0  0  0  0  0
    3.7438   -0.8348    4.4193 H   0  0  0  0  0  0  0  0  0  0  0  0
    2.7323    0.7506    2.8819 H   0  0  0  0  0  0  0  0  0  0  0  0
    4.7791    0.9056   -2.5770 H   0  0  0  0  0  0  0  0  0  0  0  0
    4.3560    2.5923   -2.3017 H   0  0  0  0  0  0  0  0  0  0  0  0
    5.7358    4.1902   -1.3321 H   0  0  0  0  0  0  0  0  0  0  0  0
    7.9880    5.0303   -1.0123 H   0  0  0  0  0  0  0  0  0  0  0  0
    9.5713    1.1642   -1.6542 H   0  0  0  0  0  0  0  0  0  0  0  0
    7.3531    0.2934   -1.9862 H   0  0  0  0  0  0  0  0  0  0  0  0
   10.9461    3.1356   -0.5754 H   0  0  0  0  0  0  0  0  0  0  0  0
  1  2  1  0
  2  3  2  0
  2  4  1  0
  4  5  1  0
  5  6  1  0
  6  7  2  0
  6  8  1  0
  8  9  1  0
  9 10  1  0
 10 11  2  0
 10 12  1  0
 12 13  1  0
 13 14  1  0
 14 15  1  0
 15 16  1  0
 16 17  1  0
 17 18  2  0
 17 19  1  0
 19 20  1  0
 20 21  1  0
 21 22  1  0
 22 23  2  3
 23 24  1  0
 23 25  1  0
 14 26  1  0
 26 27  1  0
 27 28  1  0
 28 29  2  0
 29 30  1  0
 30 31  2  0
 31 32  1  0
 32 33  2  0
 32 34  1  0
 34 35  2  0
 35 36  1  0
 36 37  2  0
  9 38  1  0
 38 39  1  0
 39 40  2  0
 40 41  1  0
 41 42  2  0
 42 43  1  0
 43 44  2  0
  5 45  1  0
 45 46  1  0
 46 47  2  0
 47 48  1  0
 48 49  2  0
 49 50  1  0
 50 51  2  0
 49 52  1  0
 16 12  1  0
 33 28  1  0
 44 39  1  0
 51 46  1  0
 37 31  1  0
  1 53  1  0
  1 54  1  0
  1 55  1  0
  4 56  1  0
  5 57  1  1
  8 58  1  0
  9 59  1  6
 13 60  1  0
 13 61  1  0
 14 62  1  6
 15 63  1  0
 15 64  1  0
 16 65  1  6
 19 66  1  0
 20 67  1  0
 20 68  1  0
 21 69  1  0
 21 70  1  0
 24 71  1  0
 24 72  1  0
 25 73  1  0
 25 74  1  0
 27 75  1  0
 27 76  1  0
 29 77  1  0
 30 78  1  0
 33 79  1  0
 34 80  1  0
 35 81  1  0
 36 82  1  0
 37 83  1  0
 38 84  1  0
 38 85  1  0
 40 86  1  0
 41 87  1  0
 42 88  1  0
 43 89  1  0
 44 90  1  0
 45 91  1  0
 45 92  1  0
 47 93  1  0
 48 94  1  0
 50 95  1  0
 51 96  1  0
 52 97  1  0
M  END
>  <Ligand ID>  (1) 
LIG0003285

>  <Ligand>  (1) 
CHEMBL375559

>  <SMILES>  (1) 
CC(=O)N[C@H](C(=O)N[C@@H](C(=O)N1C[C@@H](C[C@@H]1C(=O)NCCN=C(N)N)OCc1ccc2c(c1)cccc2)Cc1ccccc1)Cc1ccc(cc1)O

>  <CID>  (1) 
44413881.0

>  <ChEMBL ID>  (1) 
nan

>  <InChiKey>  (1) 
VZGJDZXPTNTGFA-AOJHZZQJSA-N

>  <InChi>  (1) 
InChI=1S/C39H45N7O6/c1-25(47)44-33(20-27-12-15-31(48)16-13-27)36(49)45-34(21-26-7-3-2-4-8-26)38(51)46-23-32(22-35(46)37(50)42-17-18-43-39(40)41)52-24-28-11-14-29-9-5-6-10-30(29)19-28/h2-16,19,32-35,48H,17-18,20-24H2,1H3,(H,42,50)(H,44,47)(H,45,49)(H4,40,41,43)/t32-,33+,34-,35-/m1/s1

>  <IUPAC Name>  (1) 
(2R,4R)-1-[(2R)-2-[[(2S)-2-acetamido-3-(4-hydroxyphenyl)propanoyl]amino]-3-phenylpropanoyl]-N-[2-(diaminomethylideneamino)ethyl]-4-(naphthalen-2-ylmethoxy)pyrrolidine-2-carboxamide

$$$$
