
     RDKit          3D

147153  0  0  0  0  0  0  0  0999 V2000
   11.7336   -0.2239   -0.1555 C   0  0  0  0  0  0  0  0  0  0  0  0
   10.4372    0.2543   -0.7311 C   0  0  0  0  0  0  0  0  0  0  0  0
    9.7686   -0.8224   -1.5677 C   0  0  0  0  0  0  0  0  0  0  0  0
    9.4399   -2.0619   -0.7919 C   0  0  0  0  0  0  0  0  0  0  0  0
    8.5187   -1.8390    0.3762 C   0  0  1  0  0  0  0  0  0  0  0  0
    7.2286   -1.2833   -0.0834 C   0  0  0  0  0  0  0  0  0  0  0  0
    7.1758   -0.1529   -0.6346 O   0  0  0  0  0  0  0  0  0  0  0  0
    5.9801   -1.9872    0.0699 N   0  0  0  0  0  0  0  0  0  0  0  0
    4.7758   -1.3027   -0.4344 C   0  0  1  0  0  0  0  0  0  0  0  0
    4.0236   -2.1756   -1.3653 C   0  0  0  0  0  0  0  0  0  0  0  0
    3.5578   -3.4630   -0.7966 C   0  0  0  0  0  0  0  0  0  0  0  0
    3.4528   -3.7110    0.4109 O   0  0  0  0  0  0  0  0  0  0  0  0
    3.1841   -4.5701   -1.6562 N   0  0  0  0  0  0  0  0  0  0  0  0
    2.7193   -5.8342   -1.1327 C   0  0  0  0  0  0  0  0  0  0  0  0
    1.3947   -5.6546   -0.3841 C   0  0  0  0  0  0  0  0  0  0  0  0
    0.4094   -5.1711   -1.4560 C   0  0  0  0  0  0  0  0  0  0  0  0
   -0.9345   -4.9089   -0.8548 C   0  0  0  0  0  0  0  0  0  0  0  0
   -1.8612   -4.3594   -1.9379 C   0  0  2  0  0  0  0  0  0  0  0  0
   -3.1564   -4.0186   -1.2859 N   0  0  0  0  0  0  0  0  0  0  0  0
   -3.4987   -2.6535   -1.0653 C   0  0  0  0  0  0  0  0  0  0  0  0
   -2.6604   -1.8316   -1.4609 O   0  0  0  0  0  0  0  0  0  0  0  0
   -4.7489   -2.2054   -0.4142 C   0  0  1  0  0  0  0  0  0  0  0  0
   -4.8111   -0.7871   -0.2179 N   0  0  0  0  0  0  0  0  0  0  0  0
   -4.5150   -0.2350    1.0997 C   0  0  0  0  0  0  0  0  0  0  0  0
   -4.2183   -1.1036    1.9360 O   0  0  0  0  0  0  0  0  0  0  0  0
   -4.5472    1.1562    1.4472 C   0  0  1  0  0  0  0  0  0  0  0  0
   -3.3581    1.9556    1.1685 N   0  0  0  0  0  0  0  0  0  0  0  0
   -2.0838    1.4607    0.8470 C   0  0  0  0  0  0  0  0  0  0  0  0
   -2.0745    0.2159    0.8490 O   0  0  0  0  0  0  0  0  0  0  0  0
   -0.8542    2.1807    0.5461 C   0  0  1  0  0  0  0  0  0  0  0  0
    0.3187    1.2383    0.6179 N   0  0  0  0  0  0  0  0  0  0  0  0
    1.0451    1.0872    1.8302 C   0  0  0  0  0  0  0  0  0  0  0  0
    0.5257    1.6593    2.8136 O   0  0  0  0  0  0  0  0  0  0  0  0
    2.2872    0.3484    2.0302 C   0  0  1  0  0  0  0  0  0  0  0  0
    2.8961    0.0036    0.7518 N   0  0  0  0  0  0  0  0  0  0  0  0
    3.9961   -0.9250    0.7452 C   0  0  0  0  0  0  0  0  0  0  0  0
    4.2754   -1.4141    1.8447 O   0  0  0  0  0  0  0  0  0  0  0  0
    3.3090    1.2766    2.7764 C   0  0  0  0  0  0  0  0  0  0  0  0
    3.5788    2.4701    1.9727 C   0  0  0  0  0  0  0  0  0  0  0  0
    2.9854    3.6741    1.9333 N   0  0  0  0  0  0  0  0  0  0  0  0
    3.6200    4.4243    1.0135 C   0  0  0  0  0  0  0  0  0  0  0  0
    4.6239    3.7351    0.4441 N   0  0  0  0  0  0  0  0  0  0  0  0
    4.6119    2.5234    1.0275 C   0  0  0  0  0  0  0  0  0  0  0  0
   -0.7095    2.9339   -0.7233 C   0  0  0  0  0  0  0  0  0  0  0  0
   -1.5749    4.0424   -1.0671 C   0  0  0  0  0  0  0  0  0  0  0  0
   -1.2486    5.2951   -0.5099 C   0  0  0  0  0  0  0  0  0  0  0  0
   -1.9454    6.4336   -0.8233 C   0  0  0  0  0  0  0  0  0  0  0  0
   -3.0033    6.4085   -1.7027 C   0  0  0  0  0  0  0  0  0  0  0  0
   -3.3364    5.1986   -2.2530 C   0  0  0  0  0  0  0  0  0  0  0  0
   -2.6353    4.0270   -1.9434 C   0  0  0  0  0  0  0  0  0  0  0  0
   -3.6793    7.6668   -1.9960 C   0  0  0  0  0  0  0  0  0  0  0  0
   -5.0154    7.7629   -2.3096 C   0  0  0  0  0  0  0  0  0  0  0  0
   -5.5425    9.0176   -2.5715 C   0  0  0  0  0  0  0  0  0  0  0  0
   -4.7743   10.1711   -2.5280 C   0  0  0  0  0  0  0  0  0  0  0  0
   -3.4417   10.0818   -2.2162 C   0  0  0  0  0  0  0  0  0  0  0  0
   -2.9129    8.8316   -1.9547 C   0  0  0  0  0  0  0  0  0  0  0  0
   -3.5159    3.3649    1.3205 C   0  0  0  0  0  0  0  0  0  0  0  0
   -4.5354    3.5606    2.4934 C   0  0  0  0  0  0  0  0  0  0  0  0
   -5.8773    3.1102    2.0405 C   0  0  0  0  0  0  0  0  0  0  0  0
   -5.7516    1.9589    1.0269 C   0  0  0  0  0  0  0  0  0  0  0  0
   -5.9849   -2.7409   -1.0423 C   0  0  0  0  0  0  0  0  0  0  0  0
   -7.2535   -2.3274   -0.4485 C   0  0  0  0  0  0  0  0  0  0  0  0
   -8.1124   -1.3961   -1.0420 C   0  0  0  0  0  0  0  0  0  0  0  0
   -9.2019   -1.2218   -0.2836 N   0  0  0  0  0  0  0  0  0  0  0  0
   -9.0922   -2.0059    0.7917 C   0  0  0  0  0  0  0  0  0  0  0  0
   -7.8825   -2.7081    0.7131 C   0  0  0  0  0  0  0  0  0  0  0  0
   -7.5176   -3.5896    1.7006 C   0  0  0  0  0  0  0  0  0  0  0  0
   -8.3691   -3.7816    2.7912 C   0  0  0  0  0  0  0  0  0  0  0  0
   -9.5750   -3.0810    2.8682 C   0  0  0  0  0  0  0  0  0  0  0  0
   -9.9445   -2.1871    1.8674 C   0  0  0  0  0  0  0  0  0  0  0  0
   -2.1072   -5.4202   -2.9246 C   0  0  0  0  0  0  0  0  0  0  0  0
   -1.2394   -5.9063   -3.7042 O   0  0  0  0  0  0  0  0  0  0  0  0
   -3.4200   -5.9887   -3.0582 N   0  0  0  0  0  0  0  0  0  0  0  0
    8.3080   -3.1181    1.0577 N   0  0  0  0  0  0  0  0  0  0  0  0
    8.7838   -3.1877    2.4089 C   0  0  0  0  0  0  0  0  0  0  0  0
    9.3459   -2.2149    2.9797 O   0  0  0  0  0  0  0  0  0  0  0  0
    8.6299   -4.4386    3.2077 C   0  0  0  0  0  0  0  0  0  0  0  0
   12.5216   -0.0305   -0.9366 H   0  0  0  0  0  0  0  0  0  0  0  0
   11.7527   -1.2501    0.2046 H   0  0  0  0  0  0  0  0  0  0  0  0
   11.9923    0.4147    0.7338 H   0  0  0  0  0  0  0  0  0  0  0  0
   10.6291    1.1246   -1.3945 H   0  0  0  0  0  0  0  0  0  0  0  0
    9.7460    0.6211    0.0717 H   0  0  0  0  0  0  0  0  0  0  0  0
    8.9017   -0.3678   -2.0693 H   0  0  0  0  0  0  0  0  0  0  0  0
   10.4822   -1.0573   -2.4096 H   0  0  0  0  0  0  0  0  0  0  0  0
    8.9990   -2.7958   -1.5269 H   0  0  0  0  0  0  0  0  0  0  0  0
   10.3627   -2.5793   -0.4317 H   0  0  0  0  0  0  0  0  0  0  0  0
    9.0374   -1.1593    1.0847 H   0  0  0  0  0  0  0  0  0  0  0  0
    5.9342   -2.9284    0.5122 H   0  0  0  0  0  0  0  0  0  0  0  0
    5.0520   -0.3512   -0.9429 H   0  0  0  0  0  0  0  0  0  0  0  0
    3.1358   -1.6591   -1.8220 H   0  0  0  0  0  0  0  0  0  0  0  0
    4.6792   -2.4217   -2.2313 H   0  0  0  0  0  0  0  0  0  0  0  0
    3.2855   -4.3664   -2.6487 H   0  0  0  0  0  0  0  0  0  0  0  0
    3.4246   -6.2162   -0.3597 H   0  0  0  0  0  0  0  0  0  0  0  0
    2.5511   -6.5300   -1.9563 H   0  0  0  0  0  0  0  0  0  0  0  0
    1.4889   -4.8942    0.3879 H   0  0  0  0  0  0  0  0  0  0  0  0
    1.0587   -6.6108    0.0493 H   0  0  0  0  0  0  0  0  0  0  0  0
    0.8355   -4.3443   -2.0422 H   0  0  0  0  0  0  0  0  0  0  0  0
    0.3759   -6.0495   -2.1802 H   0  0  0  0  0  0  0  0  0  0  0  0
   -0.7954   -4.1674   -0.0381 H   0  0  0  0  0  0  0  0  0  0  0  0
   -1.3123   -5.8858   -0.4501 H   0  0  0  0  0  0  0  0  0  0  0  0
   -1.3723   -3.4748   -2.3255 H   0  0  0  0  0  0  0  0  0  0  0  0
   -3.8303   -4.7067   -0.9786 H   0  0  0  0  0  0  0  0  0  0  0  0
   -4.6935   -2.7076    0.6041 H   0  0  0  0  0  0  0  0  0  0  0  0
   -5.0448   -0.0680   -0.9005 H   0  0  0  0  0  0  0  0  0  0  0  0
   -4.5953    1.1885    2.5982 H   0  0  0  0  0  0  0  0  0  0  0  0
   -0.6040    2.8990    1.4046 H   0  0  0  0  0  0  0  0  0  0  0  0
    0.6249    0.6895   -0.1697 H   0  0  0  0  0  0  0  0  0  0  0  0
    2.2580   -0.5068    2.7313 H   0  0  0  0  0  0  0  0  0  0  0  0
    2.6282    0.3480   -0.1631 H   0  0  0  0  0  0  0  0  0  0  0  0
    2.8405    1.4488    3.7554 H   0  0  0  0  0  0  0  0  0  0  0  0
    4.1894    0.6308    2.9273 H   0  0  0  0  0  0  0  0  0  0  0  0
    2.1668    3.9205    2.5463 H   0  0  0  0  0  0  0  0  0  0  0  0
    3.3596    5.4421    0.7635 H   0  0  0  0  0  0  0  0  0  0  0  0
    5.3107    1.7006    0.7954 H   0  0  0  0  0  0  0  0  0  0  0  0
   -0.7781    2.1572   -1.5658 H   0  0  0  0  0  0  0  0  0  0  0  0
    0.3649    3.2829   -0.8600 H   0  0  0  0  0  0  0  0  0  0  0  0
   -0.4175    5.3608    0.1931 H   0  0  0  0  0  0  0  0  0  0  0  0
   -1.6129    7.3596   -0.3312 H   0  0  0  0  0  0  0  0  0  0  0  0
   -4.1736    5.1865   -2.9439 H   0  0  0  0  0  0  0  0  0  0  0  0
   -2.9048    3.0818   -2.3798 H   0  0  0  0  0  0  0  0  0  0  0  0
   -5.5979    6.8689   -2.3439 H   0  0  0  0  0  0  0  0  0  0  0  0
   -6.5771    9.1407   -2.8229 H   0  0  0  0  0  0  0  0  0  0  0  0
   -5.1921   11.1397   -2.7337 H   0  0  0  0  0  0  0  0  0  0  0  0
   -2.8700   10.9946   -2.1893 H   0  0  0  0  0  0  0  0  0  0  0  0
   -1.8519    8.8178   -1.7138 H   0  0  0  0  0  0  0  0  0  0  0  0
   -2.6364    3.9281    1.5908 H   0  0  0  0  0  0  0  0  0  0  0  0
   -4.0143    3.7482    0.4396 H   0  0  0  0  0  0  0  0  0  0  0  0
   -4.1277    2.9945    3.3556 H   0  0  0  0  0  0  0  0  0  0  0  0
   -4.4602    4.6217    2.6882 H   0  0  0  0  0  0  0  0  0  0  0  0
   -6.5419    3.8892    1.6617 H   0  0  0  0  0  0  0  0  0  0  0  0
   -6.3903    2.6474    2.9339 H   0  0  0  0  0  0  0  0  0  0  0  0
   -5.6544    2.3403   -0.0031 H   0  0  0  0  0  0  0  0  0  0  0  0
   -6.6539    1.3439    1.1425 H   0  0  0  0  0  0  0  0  0  0  0  0
   -5.8684   -3.8646   -1.0685 H   0  0  0  0  0  0  0  0  0  0  0  0
   -5.9422   -2.4693   -2.1376 H   0  0  0  0  0  0  0  0  0  0  0  0
   -7.9586   -0.8693   -1.9779 H   0  0  0  0  0  0  0  0  0  0  0  0
   -9.9980   -0.5756   -0.5104 H   0  0  0  0  0  0  0  0  0  0  0  0
   -6.5684   -4.1194    1.6140 H   0  0  0  0  0  0  0  0  0  0  0  0
   -8.0781   -4.4719    3.5580 H   0  0  0  0  0  0  0  0  0  0  0  0
  -10.2432   -3.2281    3.7193 H   0  0  0  0  0  0  0  0  0  0  0  0
  -10.8910   -1.6394    1.9267 H   0  0  0  0  0  0  0  0  0  0  0  0
   -3.8988   -5.9496   -3.9728 H   0  0  0  0  0  0  0  0  0  0  0  0
   -3.8796   -6.4384   -2.2136 H   0  0  0  0  0  0  0  0  0  0  0  0
    7.8411   -3.9243    0.5888 H   0  0  0  0  0  0  0  0  0  0  0  0
    7.5777   -4.4404    3.5580 H   0  0  0  0  0  0  0  0  0  0  0  0
    9.3432   -4.4240    4.0403 H   0  0  0  0  0  0  0  0  0  0  0  0
    8.8596   -5.3086    2.5648 H   0  0  0  0  0  0  0  0  0  0  0  0
  1  2  1  0
  2  3  1  0
  3  4  1  0
  4  5  1  0
  5  6  1  0
  6  7  2  0
  6  8  1  0
  8  9  1  0
  9 10  1  0
 10 11  1  0
 11 12  2  0
 11 13  1  0
 13 14  1  0
 14 15  1  0
 15 16  1  0
 16 17  1  0
 17 18  1  0
 18 19  1  0
 19 20  1  0
 20 21  2  0
 20 22  1  0
 22 23  1  0
 23 24  1  0
 24 25  2  0
 24 26  1  0
 26 27  1  0
 27 28  1  0
 28 29  2  0
 28 30  1  0
 30 31  1  0
 31 32  1  0
 32 33  2  0
 32 34  1  0
 34 35  1  0
 35 36  1  0
 36 37  2  0
 34 38  1  0
 38 39  1  0
 39 40  1  0
 40 41  1  0
 41 42  2  0
 42 43  1  0
 30 44  1  0
 44 45  1  0
 45 46  2  0
 46 47  1  0
 47 48  2  0
 48 49  1  0
 49 50  2  0
 48 51  1  0
 51 52  2  0
 52 53  1  0
 53 54  2  0
 54 55  1  0
 55 56  2  0
 27 57  1  0
 57 58  1  0
 58 59  1  0
 59 60  1  0
 22 61  1  0
 61 62  1  0
 62 63  2  0
 63 64  1  0
 64 65  1  0
 65 66  2  0
 66 67  1  0
 67 68  2  0
 68 69  1  0
 69 70  2  0
 18 71  1  0
 71 72  2  0
 71 73  1  0
  5 74  1  0
 74 75  1  0
 75 76  2  0
 75 77  1  0
 36  9  1  0
 43 39  2  0
 50 45  1  0
 56 51  1  0
 66 62  1  0
 60 26  1  0
 70 65  1  0
  1 78  1  0
  1 79  1  0
  1 80  1  0
  2 81  1  0
  2 82  1  0
  3 83  1  0
  3 84  1  0
  4 85  1  0
  4 86  1  0
  5 87  1  1
  8 88  1  0
  9 89  1  6
 10 90  1  0
 10 91  1  0
 13 92  1  0
 14 93  1  0
 14 94  1  0
 15 95  1  0
 15 96  1  0
 16 97  1  0
 16 98  1  0
 17 99  1  0
 17100  1  0
 18101  1  6
 19102  1  0
 22103  1  1
 23104  1  0
 26105  1  1
 30106  1  1
 31107  1  0
 34108  1  1
 35109  1  0
 38110  1  0
 38111  1  0
 40112  1  0
 41113  1  0
 43114  1  0
 44115  1  0
 44116  1  0
 46117  1  0
 47118  1  0
 49119  1  0
 50120  1  0
 52121  1  0
 53122  1  0
 54123  1  0
 55124  1  0
 56125  1  0
 57126  1  0
 57127  1  0
 58128  1  0
 58129  1  0
 59130  1  0
 59131  1  0
 60132  1  0
 60133  1  0
 61134  1  0
 61135  1  0
 63136  1  0
 64137  1  0
 67138  1  0
 68139  1  0
 69140  1  0
 70141  1  0
 73142  1  0
 73143  1  0
 74144  1  0
 77145  1  0
 77146  1  0
 77147  1  0
M  END
>  <Ligand ID>  (1) 
LIG0004157

>  <Ligand>  (1) 
CHEMBL2371962

>  <SMILES>  (1) 
CCCC[C@@H](C(=O)N[C@H]1CC(=O)NCCCC[C@H](NC(=O)[C@@H](NC(=O)[C@H]2N(C(=O)[C@@H](NC(=O)[C@@H](NC1=O)Cc1[nH]cnc1)Cc1ccc(cc1)c1ccccc1)CCCC2)Cc1c[nH]c2c1cccc2)C(=O)N)NC(=O)C

>  <CID>  (1) 
73347138.0

>  <ChEMBL ID>  (1) 
nan

>  <InChiKey>  (1) 
TWDTYJMEGITLBP-GEUARITBSA-N

>  <InChi>  (1) 
InChI=1S/C56H70N12O9/c1-3-4-17-43(62-34(2)69)51(72)65-46-30-49(70)59-25-12-10-19-42(50(57)71)63-52(73)44(28-38-31-60-41-18-9-8-16-40(38)41)66-55(76)48-20-11-13-26-68(48)56(77)47(27-35-21-23-37(24-22-35)36-14-6-5-7-15-36)67-53(74)45(64-54(46)75)29-39-32-58-33-61-39/h5-9,14-16,18,21-24,31-33,42-48,60H,3-4,10-13,17,19-20,25-30H2,1-2H3,(H2,57,71)(H,58,61)(H,59,70)(H,62,69)(H,63,73)(H,64,75)(H,65,72)(H,66,76)(H,67,74)/t42-,43-,44-,45-,46-,47-,48-/m0/s1

>  <IUPAC Name>  (1) 
(3S,6S,9S,17S,20S,23S)-9-[[(2S)-2-acetamidohexanoyl]amino]-6-(1H-imidazol-5-ylmethyl)-20-(1H-indol-3-ylmethyl)-2,5,8,11,19,22-hexaoxo-3-[(4-phenylphenyl)methyl]-1,4,7,12,18,21-hexazabicyclo[21.4.0]heptacosane-17-carboxamide

$$$$
