
     RDKit          3D

 94 95  0  0  0  0  0  0  0  0999 V2000
    5.2351   -3.1994   -1.3166 O   0  0  0  0  0  0  0  0  0  0  0  0
    5.6011   -2.3796   -2.1596 C   0  0  0  0  0  0  0  0  0  0  0  0
    6.8015   -1.6170   -1.7910 N   0  0  0  0  0  0  0  0  0  0  0  0
    7.4796   -1.8091   -0.5765 C   0  0  0  0  0  0  0  0  0  0  0  0
    7.0732   -2.6124    0.3510 N   0  0  0  0  0  0  0  0  0  0  0  0
    7.6905   -2.8706    1.5926 C   0  0  0  0  0  0  0  0  0  0  0  0
    7.0273   -2.3742    2.8006 C   0  0  0  0  0  0  0  0  0  0  0  0
    6.8193   -0.9544    3.0891 C   0  0  0  0  0  0  0  0  0  0  0  0
    5.9237   -0.1737    2.2378 C   0  0  0  0  0  0  0  0  0  0  0  0
    4.5726   -0.1009    2.5262 N   0  0  0  0  0  0  0  0  0  0  0  0
    3.9837    0.7022    1.6225 C   0  0  0  0  0  0  0  0  0  0  0  0
    4.9154    1.1474    0.7621 N   0  0  0  0  0  0  0  0  0  0  0  0
    6.1070    0.6133    1.1376 C   0  0  0  0  0  0  0  0  0  0  0  0
    8.7035   -1.0455   -0.4096 N   0  0  0  0  0  0  0  0  0  0  0  0
    5.0618   -2.0298   -3.4646 C   0  0  0  0  0  0  0  0  0  0  0  0
    3.9521   -2.8213   -3.9683 C   0  0  0  0  0  0  0  0  0  0  0  0
    2.6013   -2.8252   -3.3979 C   0  0  0  0  0  0  0  0  0  0  0  0
    2.2951   -3.1996   -2.0087 C   0  0  0  0  0  0  0  0  0  0  0  0
    0.7553   -3.2056   -1.8010 C   0  0  0  0  0  0  0  0  0  0  0  0
    0.1704   -1.8879   -2.1100 C   0  0  0  0  0  0  0  0  0  0  0  0
    0.6046   -0.7395   -1.2076 C   0  0  0  0  0  0  0  0  0  0  0  0
    0.0789    0.5213   -1.7779 C   0  0  0  0  0  0  0  0  0  0  0  0
    0.2589    1.8037   -1.0956 C   0  0  0  0  0  0  0  0  0  0  0  0
   -0.4354    2.1363    0.1436 C   0  0  0  0  0  0  0  0  0  0  0  0
   -0.3089    1.4045    1.4060 C   0  0  0  0  0  0  0  0  0  0  0  0
   -1.2233    2.0735    2.4840 C   0  0  0  0  0  0  0  0  0  0  0  0
   -2.6491    2.0465    1.9646 C   0  0  0  0  0  0  0  0  0  0  0  0
   -3.1631    0.6400    1.7570 C   0  0  0  0  0  0  0  0  0  0  0  0
   -4.4594    0.7636    1.0475 C   0  0  0  0  0  0  0  0  0  0  0  0
   -4.6605    1.8954    0.4772 O   0  0  0  0  0  0  0  0  0  0  0  0
   -5.4443   -0.2187    0.9432 N   0  0  0  0  0  0  0  0  0  0  0  0
   -6.6179    0.0644    0.1598 C   0  0  0  0  0  0  0  0  0  0  0  0
   -6.7351    1.2009   -0.4136 N   0  0  0  0  0  0  0  0  0  0  0  0
   -7.8098    1.6513   -1.2273 C   0  0  0  0  0  0  0  0  0  0  0  0
   -9.0552    2.1776   -0.6663 C   0  0  0  0  0  0  0  0  0  0  0  0
   -9.0162    3.4309    0.1109 C   0  0  0  0  0  0  0  0  0  0  0  0
   -8.1964    3.4426    1.3106 C   0  0  0  0  0  0  0  0  0  0  0  0
   -6.9170    3.7963    1.4062 N   0  0  0  0  0  0  0  0  0  0  0  0
   -6.5475    3.6701    2.6969 C   0  0  0  0  0  0  0  0  0  0  0  0
   -7.5739    3.2349    3.4539 N   0  0  0  0  0  0  0  0  0  0  0  0
   -8.6231    3.0844    2.5997 C   0  0  0  0  0  0  0  0  0  0  0  0
   -7.5712   -0.9852    0.0764 N   0  0  0  0  0  0  0  0  0  0  0  0
    7.1496   -0.9020   -2.4738 H   0  0  0  0  0  0  0  0  0  0  0  0
    7.8244   -4.0082    1.7138 H   0  0  0  0  0  0  0  0  0  0  0  0
    8.7946   -2.5579    1.5854 H   0  0  0  0  0  0  0  0  0  0  0  0
    5.9732   -2.8638    2.8236 H   0  0  0  0  0  0  0  0  0  0  0  0
    7.4777   -2.8748    3.7266 H   0  0  0  0  0  0  0  0  0  0  0  0
    6.5767   -0.8723    4.1965 H   0  0  0  0  0  0  0  0  0  0  0  0
    7.8130   -0.3707    3.0563 H   0  0  0  0  0  0  0  0  0  0  0  0
    4.0705   -0.5739    3.3005 H   0  0  0  0  0  0  0  0  0  0  0  0
    2.9405    0.9222    1.6331 H   0  0  0  0  0  0  0  0  0  0  0  0
    7.0180    0.8222    0.6160 H   0  0  0  0  0  0  0  0  0  0  0  0
    9.4817   -1.3465    0.1921 H   0  0  0  0  0  0  0  0  0  0  0  0
    8.8077   -0.1446   -0.9264 H   0  0  0  0  0  0  0  0  0  0  0  0
    5.8772   -2.0489   -4.2686 H   0  0  0  0  0  0  0  0  0  0  0  0
    4.7122   -0.9268   -3.4464 H   0  0  0  0  0  0  0  0  0  0  0  0
    4.2902   -3.9320   -3.9114 H   0  0  0  0  0  0  0  0  0  0  0  0
    3.8786   -2.7300   -5.1162 H   0  0  0  0  0  0  0  0  0  0  0  0
    1.9860   -3.5342   -4.0589 H   0  0  0  0  0  0  0  0  0  0  0  0
    2.1584   -1.7748   -3.5916 H   0  0  0  0  0  0  0  0  0  0  0  0
    2.6429   -4.2030   -1.7690 H   0  0  0  0  0  0  0  0  0  0  0  0
    2.7192   -2.4956   -1.2388 H   0  0  0  0  0  0  0  0  0  0  0  0
    0.5891   -3.5708   -0.7934 H   0  0  0  0  0  0  0  0  0  0  0  0
    0.3576   -3.9412   -2.5210 H   0  0  0  0  0  0  0  0  0  0  0  0
   -0.9626   -2.0197   -1.9695 H   0  0  0  0  0  0  0  0  0  0  0  0
    0.2613   -1.5992   -3.1508 H   0  0  0  0  0  0  0  0  0  0  0  0
    1.7003   -0.7387   -1.0479 H   0  0  0  0  0  0  0  0  0  0  0  0
    0.1307   -0.9539   -0.2337 H   0  0  0  0  0  0  0  0  0  0  0  0
   -1.0183    0.3455   -2.0171 H   0  0  0  0  0  0  0  0  0  0  0  0
    0.5126    0.6697   -2.8367 H   0  0  0  0  0  0  0  0  0  0  0  0
    0.0401    2.6104   -1.8914 H   0  0  0  0  0  0  0  0  0  0  0  0
    1.4000    1.9637   -0.9957 H   0  0  0  0  0  0  0  0  0  0  0  0
   -0.2092    3.2464    0.3454 H   0  0  0  0  0  0  0  0  0  0  0  0
   -1.5499    2.1964   -0.1441 H   0  0  0  0  0  0  0  0  0  0  0  0
   -0.5706    0.3617    1.4607 H   0  0  0  0  0  0  0  0  0  0  0  0
    0.7061    1.5182    1.8476 H   0  0  0  0  0  0  0  0  0  0  0  0
   -0.9156    3.0831    2.7094 H   0  0  0  0  0  0  0  0  0  0  0  0
   -1.1455    1.4356    3.3694 H   0  0  0  0  0  0  0  0  0  0  0  0
   -2.8632    2.7183    1.1377 H   0  0  0  0  0  0  0  0  0  0  0  0
   -3.2403    2.5169    2.8344 H   0  0  0  0  0  0  0  0  0  0  0  0
   -2.5090    0.0045    1.1550 H   0  0  0  0  0  0  0  0  0  0  0  0
   -3.3945    0.1398    2.7269 H   0  0  0  0  0  0  0  0  0  0  0  0
   -5.3032   -1.1256    1.4368 H   0  0  0  0  0  0  0  0  0  0  0  0
   -7.3598    2.4976   -1.8683 H   0  0  0  0  0  0  0  0  0  0  0  0
   -8.0464    0.8886   -2.0442 H   0  0  0  0  0  0  0  0  0  0  0  0
   -9.7464    2.3660   -1.5620 H   0  0  0  0  0  0  0  0  0  0  0  0
   -9.6278    1.3828   -0.0835 H   0  0  0  0  0  0  0  0  0  0  0  0
   -8.6995    4.2713   -0.5889 H   0  0  0  0  0  0  0  0  0  0  0  0
  -10.0718    3.7469    0.4266 H   0  0  0  0  0  0  0  0  0  0  0  0
   -6.2781    4.1180    0.6457 H   0  0  0  0  0  0  0  0  0  0  0  0
   -5.5449    3.8894    3.0883 H   0  0  0  0  0  0  0  0  0  0  0  0
   -9.6292    2.7370    2.8803 H   0  0  0  0  0  0  0  0  0  0  0  0
   -7.4640   -1.8281   -0.5430 H   0  0  0  0  0  0  0  0  0  0  0  0
   -8.4452   -0.9663    0.6477 H   0  0  0  0  0  0  0  0  0  0  0  0
  1  2  2  0
  2  3  1  0
  3  4  1  0
  4  5  2  3
  5  6  1  0
  6  7  1  0
  7  8  1  0
  8  9  1  0
  9 10  1  0
 10 11  1  0
 11 12  2  0
 12 13  1  0
  4 14  1  0
  2 15  1  0
 15 16  1  0
 16 17  1  0
 17 18  1  0
 18 19  1  0
 19 20  1  0
 20 21  1  0
 21 22  1  0
 22 23  1  0
 23 24  1  0
 24 25  1  0
 25 26  1  0
 26 27  1  0
 27 28  1  0
 28 29  1  0
 29 30  2  0
 29 31  1  0
 31 32  1  0
 32 33  2  3
 33 34  1  0
 34 35  1  0
 35 36  1  0
 36 37  1  0
 37 38  1  0
 38 39  1  0
 39 40  2  0
 40 41  1  0
 32 42  1  0
 13  9  2  0
 41 37  2  0
  3 43  1  0
  6 44  1  0
  6 45  1  0
  7 46  1  0
  7 47  1  0
  8 48  1  0
  8 49  1  0
 10 50  1  0
 11 51  1  0
 13 52  1  0
 14 53  1  0
 14 54  1  0
 15 55  1  0
 15 56  1  0
 16 57  1  0
 16 58  1  0
 17 59  1  0
 17 60  1  0
 18 61  1  0
 18 62  1  0
 19 63  1  0
 19 64  1  0
 20 65  1  0
 20 66  1  0
 21 67  1  0
 21 68  1  0
 22 69  1  0
 22 70  1  0
 23 71  1  0
 23 72  1  0
 24 73  1  0
 24 74  1  0
 25 75  1  0
 25 76  1  0
 26 77  1  0
 26 78  1  0
 27 79  1  0
 27 80  1  0
 28 81  1  0
 28 82  1  0
 31 83  1  0
 34 84  1  0
 34 85  1  0
 35 86  1  0
 35 87  1  0
 36 88  1  0
 36 89  1  0
 38 90  1  0
 39 91  1  0
 41 92  1  0
 42 93  1  0
 42 94  1  0
M  END
>  <Ligand ID>  (1) 
LIG0001216

>  <Ligand>  (1) 
CHEMBL2165643

>  <SMILES>  (1) 
O=C(NC(=NCCCc1[nH]cnc1)N)CCCCCCCCCCCCCCC(=O)NC(=NCCCc1[nH]cnc1)N

>  <CID>  (1) 
56954425.0

>  <ChEMBL ID>  (1) 
nan

>  <InChiKey>  (1) 
HBDHANBWOOALDQ-UHFFFAOYSA-N

>  <InChi>  (1) 
InChI=1S/C30H52N10O2/c31-29(35-19-13-15-25-21-33-23-37-25)39-27(41)17-11-9-7-5-3-1-2-4-6-8-10-12-18-28(42)40-30(32)36-20-14-16-26-22-34-24-38-26/h21-24H,1-20H2,(H,33,37)(H,34,38)(H3,31,35,39,41)(H3,32,36,40,42)

>  <IUPAC Name>  (1) 
N,N'-bis[N'-[3-(1H-imidazol-5-yl)propyl]carbamimidoyl]hexadecanediamide

$$$$
