
     RDKit          3D

 51 54  0  0  0  0  0  0  0  0999 V2000
   -0.6914    0.6378    1.6624 C   0  0  0  0  0  0  0  0  0  0  0  0
   -0.1084   -0.5826    1.0694 C   0  0  1  0  0  0  0  0  0  0  0  0
   -0.8411   -1.1848   -0.0943 C   0  0  0  0  0  0  0  0  0  0  0  0
   -2.1662   -1.5411    0.2661 N   0  0  0  0  0  0  0  0  0  0  0  0
   -2.4767   -2.7291    0.8653 C   0  0  0  0  0  0  0  0  0  0  0  0
   -3.8183   -2.8175    1.1320 C   0  0  0  0  0  0  0  0  0  0  0  0
   -4.3727   -1.6474    0.6864 C   0  0  0  0  0  0  0  0  0  0  0  0
   -3.3442   -0.8795    0.1597 C   0  0  0  0  0  0  0  0  0  0  0  0
   -3.6905    0.3338   -0.3519 C   0  0  0  0  0  0  0  0  0  0  0  0
   -2.7447    1.1608   -0.8973 C   0  0  0  0  0  0  0  0  0  0  0  0
   -3.1176    2.4061   -1.4246 C   0  0  0  0  0  0  0  0  0  0  0  0
   -4.4433    2.7516   -1.3705 C   0  0  0  0  0  0  0  0  0  0  0  0
   -5.3780    1.9520   -0.8394 N   0  0  0  0  0  0  0  0  0  0  0  0
   -5.0049    0.7454   -0.3308 C   0  0  0  0  0  0  0  0  0  0  0  0
   -6.0327   -0.0159    0.1936 C   0  0  0  0  0  0  0  0  0  0  0  0
   -5.6863   -1.2442    0.7122 C   0  0  0  0  0  0  0  0  0  0  0  0
    1.3200   -0.4763    0.8155 N   0  0  0  0  0  0  0  0  0  0  0  0
    1.6638    0.5904   -0.0972 C   0  0  0  0  0  0  0  0  0  0  0  0
    3.1731    0.6540   -0.3268 C   0  0  0  0  0  0  0  0  0  0  0  0
    3.8658    0.9005    0.9917 C   0  0  0  0  0  0  0  0  0  0  0  0
    5.3134    0.5360    0.9139 C   0  0  0  0  0  0  0  0  0  0  0  0
    5.8288    0.5805   -0.4927 C   0  0  0  0  0  0  0  0  0  0  0  0
    5.1142   -0.3900   -1.3768 C   0  0  0  0  0  0  0  0  0  0  0  0
    3.6769   -0.6223   -0.9625 C   0  0  0  0  0  0  0  0  0  0  0  0
   -1.7785    0.4676    1.8029 H   0  0  0  0  0  0  0  0  0  0  0  0
   -0.2877    0.7658    2.6909 H   0  0  0  0  0  0  0  0  0  0  0  0
   -0.5885    1.5638    1.0600 H   0  0  0  0  0  0  0  0  0  0  0  0
   -0.1654   -1.3786    1.8800 H   0  0  0  0  0  0  0  0  0  0  0  0
   -0.2954   -2.2164   -0.2017 H   0  0  0  0  0  0  0  0  0  0  0  0
   -0.6347   -0.7872   -1.0789 H   0  0  0  0  0  0  0  0  0  0  0  0
   -1.7921   -3.5394    1.1242 H   0  0  0  0  0  0  0  0  0  0  0  0
   -4.3411   -3.6408    1.5993 H   0  0  0  0  0  0  0  0  0  0  0  0
   -1.6995    0.9555   -0.9615 H   0  0  0  0  0  0  0  0  0  0  0  0
   -2.4013    3.0809   -1.8609 H   0  0  0  0  0  0  0  0  0  0  0  0
   -4.7165    3.7135   -1.7801 H   0  0  0  0  0  0  0  0  0  0  0  0
   -7.0657    0.3094    0.2100 H   0  0  0  0  0  0  0  0  0  0  0  0
   -6.4499   -1.8722    1.1310 H   0  0  0  0  0  0  0  0  0  0  0  0
    1.7297   -1.3760    0.5291 H   0  0  0  0  0  0  0  0  0  0  0  0
    1.1823    0.3795   -1.0675 H   0  0  0  0  0  0  0  0  0  0  0  0
    1.3779    1.5784    0.2584 H   0  0  0  0  0  0  0  0  0  0  0  0
    3.3606    1.4700   -1.0482 H   0  0  0  0  0  0  0  0  0  0  0  0
    3.7423    1.9871    1.2452 H   0  0  0  0  0  0  0  0  0  0  0  0
    3.3120    0.3017    1.7579 H   0  0  0  0  0  0  0  0  0  0  0  0
    5.8925    1.2690    1.5191 H   0  0  0  0  0  0  0  0  0  0  0  0
    5.4719   -0.4644    1.3886 H   0  0  0  0  0  0  0  0  0  0  0  0
    6.9083    0.3241   -0.4687 H   0  0  0  0  0  0  0  0  0  0  0  0
    5.7141    1.6315   -0.8459 H   0  0  0  0  0  0  0  0  0  0  0  0
    5.0976    0.0067   -2.4200 H   0  0  0  0  0  0  0  0  0  0  0  0
    5.6958   -1.3414   -1.3851 H   0  0  0  0  0  0  0  0  0  0  0  0
    3.0260   -0.8322   -1.8387 H   0  0  0  0  0  0  0  0  0  0  0  0
    3.6664   -1.4739   -0.2572 H   0  0  0  0  0  0  0  0  0  0  0  0
  1  2  1  0
  2  3  1  0
  3  4  1  0
  4  5  1  0
  5  6  2  0
  6  7  1  0
  7  8  2  0
  8  9  1  0
  9 10  2  0
 10 11  1  0
 11 12  2  0
 12 13  1  0
 13 14  2  0
 14 15  1  0
 15 16  2  0
  2 17  1  0
 17 18  1  0
 18 19  1  0
 19 20  1  0
 20 21  1  0
 21 22  1  0
 22 23  1  0
 23 24  1  0
  8  4  1  0
 14  9  1  0
 24 19  1  0
 16  7  1  0
  1 25  1  0
  1 26  1  0
  1 27  1  0
  2 28  1  1
  3 29  1  0
  3 30  1  0
  5 31  1  0
  6 32  1  0
 10 33  1  0
 11 34  1  0
 12 35  1  0
 15 36  1  0
 16 37  1  0
 17 38  1  0
 18 39  1  0
 18 40  1  0
 19 41  1  0
 20 42  1  0
 20 43  1  0
 21 44  1  0
 21 45  1  0
 22 46  1  0
 22 47  1  0
 23 48  1  0
 23 49  1  0
 24 50  1  0
 24 51  1  0
M  END
>  <Ligand ID>  (1) 
LIG0002150

>  <Ligand>  (1) 
CHEMBL201117

>  <SMILES>  (1) 
C[C@@H](Cn1ccc2c1c1cccnc1cc2)NCC1CCCCC1

>  <CID>  (1) 
44407335.0

>  <ChEMBL ID>  (1) 
nan

>  <InChiKey>  (1) 
WKHUJGFKHHPASV-INIZCTEOSA-N

>  <InChi>  (1) 
InChI=1S/C21H27N3/c1-16(23-14-17-6-3-2-4-7-17)15-24-13-11-18-9-10-20-19(21(18)24)8-5-12-22-20/h5,8-13,16-17,23H,2-4,6-7,14-15H2,1H3/t16-/m0/s1

>  <IUPAC Name>  (1) 
(2S)-N-(cyclohexylmethyl)-1-pyrrolo[2,3-f]quinolin-1-ylpropan-2-amine

$$$$
