
     RDKit          3D

 56 60  0  0  0  0  0  0  0  0999 V2000
   -5.4266   -3.4568    4.0292 Cl  0  0  0  0  0  0  0  0  0  0  0  0
   -4.6470   -2.3459    2.9239 C   0  0  0  0  0  0  0  0  0  0  0  0
   -3.8974   -1.3081    3.4318 C   0  0  0  0  0  0  0  0  0  0  0  0
   -3.2731   -0.4191    2.5903 C   0  0  0  0  0  0  0  0  0  0  0  0
   -3.3469   -0.4950    1.2058 C   0  0  0  0  0  0  0  0  0  0  0  0
   -4.1110   -1.5540    0.7136 C   0  0  0  0  0  0  0  0  0  0  0  0
   -4.7430   -2.4536    1.5540 C   0  0  0  0  0  0  0  0  0  0  0  0
   -2.6534    0.4643    0.3080 C   0  0  0  0  0  0  0  0  0  0  0  0
   -1.6592   -0.1407   -0.5879 C   0  0  0  0  0  0  0  0  0  0  0  0
   -1.8643   -0.4178   -1.9223 C   0  0  0  0  0  0  0  0  0  0  0  0
   -0.8916   -0.9997   -2.7285 C   0  0  0  0  0  0  0  0  0  0  0  0
    0.3367   -1.3278   -2.2167 C   0  0  0  0  0  0  0  0  0  0  0  0
    0.5736   -1.0634   -0.8856 C   0  0  0  0  0  0  0  0  0  0  0  0
   -0.3931   -0.4878   -0.0941 C   0  0  0  0  0  0  0  0  0  0  0  0
    1.8029   -1.3773   -0.3191 C   0  0  0  0  0  0  0  0  0  0  0  0
    2.7155   -1.9366   -1.1264 N   0  0  0  0  0  0  0  0  0  0  0  0
    2.4969   -2.1989   -2.4237 C   0  0  0  0  0  0  0  0  0  0  0  0
    1.2975   -1.8910   -2.9702 N   0  0  0  0  0  0  0  0  0  0  0  0
    2.1292   -1.1455    1.0274 N   0  0  0  0  0  0  0  0  0  0  0  0
    3.4645   -1.5129    1.5352 C   0  0  0  0  0  0  0  0  0  0  0  0
    4.5435   -0.7763    0.8382 C   0  0  0  0  0  0  0  0  0  0  0  0
    4.9165    0.4447    1.3834 C   0  0  0  0  0  0  0  0  0  0  0  0
    5.9027    1.2350    0.8468 C   0  0  0  0  0  0  0  0  0  0  0  0
    6.5395    0.7641   -0.2960 C   0  0  0  0  0  0  0  0  0  0  0  0
    6.1341   -0.4464   -0.7941 C   0  0  0  0  0  0  0  0  0  0  0  0
    5.1705   -1.2062   -0.2596 N   0  0  0  0  0  0  0  0  0  0  0  0
    7.6189    1.5868   -0.9176 C   0  0  0  0  0  0  0  0  0  0  0  0
    7.7584    1.2940   -2.2660 F   0  0  0  0  0  0  0  0  0  0  0  0
    8.8095    1.3815   -0.2511 F   0  0  0  0  0  0  0  0  0  0  0  0
    7.2618    2.9094   -0.7929 F   0  0  0  0  0  0  0  0  0  0  0  0
   -3.5178    1.5049   -0.2668 C   0  0  0  0  0  0  0  0  0  0  0  0
   -4.5797    1.2556   -1.1173 C   0  0  0  0  0  0  0  0  0  0  0  0
   -5.3641    2.2819   -1.6473 C   0  0  0  0  0  0  0  0  0  0  0  0
   -5.1207    3.6005   -1.3494 C   0  0  0  0  0  0  0  0  0  0  0  0
   -4.0669    3.8677   -0.5034 C   0  0  0  0  0  0  0  0  0  0  0  0
   -3.3021    2.8650    0.0130 C   0  0  0  0  0  0  0  0  0  0  0  0
   -6.1404    4.8257   -2.0474 Cl  0  0  0  0  0  0  0  0  0  0  0  0
   -3.8099   -1.2074    4.5219 H   0  0  0  0  0  0  0  0  0  0  0  0
   -2.6953    0.3795    3.0461 H   0  0  0  0  0  0  0  0  0  0  0  0
   -4.2320   -1.7185   -0.3384 H   0  0  0  0  0  0  0  0  0  0  0  0
   -5.3298   -3.2657    1.1475 H   0  0  0  0  0  0  0  0  0  0  0  0
   -1.9950    1.0526    1.0556 H   0  0  0  0  0  0  0  0  0  0  0  0
   -2.7902   -0.1883   -2.3881 H   0  0  0  0  0  0  0  0  0  0  0  0
   -1.1018   -1.1996   -3.7795 H   0  0  0  0  0  0  0  0  0  0  0  0
   -0.2404   -0.2675    0.9517 H   0  0  0  0  0  0  0  0  0  0  0  0
    3.2370   -2.6513   -3.0736 H   0  0  0  0  0  0  0  0  0  0  0  0
    1.5059   -0.7227    1.7447 H   0  0  0  0  0  0  0  0  0  0  0  0
    3.5303   -1.4803    2.6251 H   0  0  0  0  0  0  0  0  0  0  0  0
    3.6315   -2.6004    1.2738 H   0  0  0  0  0  0  0  0  0  0  0  0
    4.4243    0.8172    2.2737 H   0  0  0  0  0  0  0  0  0  0  0  0
    6.1577    2.1790    1.3083 H   0  0  0  0  0  0  0  0  0  0  0  0
    6.6255   -0.8267   -1.6896 H   0  0  0  0  0  0  0  0  0  0  0  0
   -4.8534    0.2688   -1.4006 H   0  0  0  0  0  0  0  0  0  0  0  0
   -6.1959    2.0366   -2.3180 H   0  0  0  0  0  0  0  0  0  0  0  0
   -3.8593    4.9084   -0.2560 H   0  0  0  0  0  0  0  0  0  0  0  0
   -2.4832    3.1660    0.6782 H   0  0  0  0  0  0  0  0  0  0  0  0
  1  2  1  0
  2  3  2  0
  3  4  1  0
  4  5  2  0
  5  6  1  0
  6  7  2  0
  5  8  1  0
  8  9  1  0
  9 10  2  0
 10 11  1  0
 11 12  2  0
 12 13  1  0
 13 14  2  0
 13 15  1  0
 15 16  2  0
 16 17  1  0
 17 18  2  0
 15 19  1  0
 19 20  1  0
 20 21  1  0
 21 22  2  0
 22 23  1  0
 23 24  2  0
 24 25  1  0
 25 26  2  0
 24 27  1  0
 27 28  1  0
 27 29  1  0
 27 30  1  0
  8 31  1  0
 31 32  2  0
 32 33  1  0
 33 34  2  0
 34 35  1  0
 35 36  2  0
 34 37  1  0
  7  2  1  0
 14  9  1  0
 26 21  1  0
 36 31  1  0
 18 12  1  0
  3 38  1  0
  4 39  1  0
  6 40  1  0
  7 41  1  0
  8 42  1  0
 10 43  1  0
 11 44  1  0
 14 45  1  0
 17 46  1  0
 19 47  1  0
 20 48  1  0
 20 49  1  0
 22 50  1  0
 23 51  1  0
 25 52  1  0
 32 53  1  0
 33 54  1  0
 35 55  1  0
 36 56  1  0
M  END
>  <Ligand ID>  (1) 
LIG0005890

>  <Ligand>  (1) 
SCHEMBL17557727

>  <SMILES>  (1) 
Clc1ccc(cc1)C(c1ccc2c(c1)c(ncn2)NCc1ccc(cn1)C(F)(F)F)c1ccc(cc1)Cl

>  <CID>  (1) 
118916205.0

>  <ChEMBL ID>  (1) 
nan

>  <InChiKey>  (1) 
PWGVQUBYNUZDIV-UHFFFAOYSA-N

>  <InChi>  (1) 
InChI=1S/C28H19Cl2F3N4/c29-21-7-1-17(2-8-21)26(18-3-9-22(30)10-4-18)19-5-12-25-24(13-19)27(37-16-36-25)35-15-23-11-6-20(14-34-23)28(31,32)33/h1-14,16,26H,15H2,(H,35,36,37)

>  <IUPAC Name>  (1) 
6-[bis(4-chlorophenyl)methyl]-N-[[5-(trifluoromethyl)pyridin-2-yl]methyl]quinazolin-4-amine

$$$$
