
     RDKit          3D

 45 48  0  0  0  0  0  0  0  0999 V2000
   -2.3985    2.5296    1.1306 O   0  0  0  0  0  0  0  0  0  0  0  0
   -2.9887    1.4829    0.7395 C   0  0  0  0  0  0  0  0  0  0  0  0
   -4.4682    1.3440    0.8046 C   0  0  0  0  0  0  0  0  0  0  0  0
   -4.6833   -0.0121    0.2521 C   0  0  0  0  0  0  0  0  0  0  0  0
   -3.4752   -0.5826   -0.0888 C   0  0  0  0  0  0  0  0  0  0  0  0
   -2.3997    0.3067    0.1955 N   0  0  0  0  0  0  0  0  0  0  0  0
   -1.0007    0.0715   -0.0203 C   0  0  0  0  0  0  0  0  0  0  0  0
   -0.3643    1.0451   -0.9675 C   0  0  0  0  0  0  0  0  0  0  0  0
    0.6852    1.9039   -0.3073 C   0  0  0  0  0  0  0  0  0  0  0  0
    1.7680    1.1156    0.2648 N   0  0  0  0  0  0  0  0  0  0  0  0
    1.2780   -0.1306    0.7632 C   0  0  0  0  0  0  0  0  0  0  0  0
   -0.1676    0.0777    1.2343 C   0  0  0  0  0  0  0  0  0  0  0  0
    2.7909    1.0096   -0.7334 C   0  0  0  0  0  0  0  0  0  0  0  0
    3.9787    0.2313   -0.3139 C   0  0  0  0  0  0  0  0  0  0  0  0
    5.0369    0.9035    0.3010 C   0  0  0  0  0  0  0  0  0  0  0  0
    6.1768    0.2408    0.7185 C   0  0  0  0  0  0  0  0  0  0  0  0
    6.2650   -1.1269    0.5182 C   0  0  0  0  0  0  0  0  0  0  0  0
    5.2317   -1.8172   -0.0883 C   0  0  0  0  0  0  0  0  0  0  0  0
    4.1077   -1.1279   -0.4936 C   0  0  0  0  0  0  0  0  0  0  0  0
   -3.4735   -1.8526   -0.6232 C   0  0  0  0  0  0  0  0  0  0  0  0
   -4.6505   -2.5458   -0.8166 C   0  0  0  0  0  0  0  0  0  0  0  0
   -5.8668   -1.9797   -0.4769 C   0  0  0  0  0  0  0  0  0  0  0  0
   -5.8645   -0.7092    0.0574 C   0  0  0  0  0  0  0  0  0  0  0  0
   -4.8789    1.4836    1.8221 H   0  0  0  0  0  0  0  0  0  0  0  0
   -4.8837    2.1118    0.0901 H   0  0  0  0  0  0  0  0  0  0  0  0
   -0.8680   -0.9545   -0.4630 H   0  0  0  0  0  0  0  0  0  0  0  0
   -1.1320    1.7145   -1.3592 H   0  0  0  0  0  0  0  0  0  0  0  0
    0.1387    0.5380   -1.8240 H   0  0  0  0  0  0  0  0  0  0  0  0
    1.0940    2.5603   -1.1209 H   0  0  0  0  0  0  0  0  0  0  0  0
    0.2617    2.6015    0.4316 H   0  0  0  0  0  0  0  0  0  0  0  0
    1.2353   -0.8521   -0.0757 H   0  0  0  0  0  0  0  0  0  0  0  0
    1.8391   -0.5160    1.6376 H   0  0  0  0  0  0  0  0  0  0  0  0
   -0.2722    1.0759    1.7162 H   0  0  0  0  0  0  0  0  0  0  0  0
   -0.4248   -0.7460    1.9343 H   0  0  0  0  0  0  0  0  0  0  0  0
    2.3748    0.5795   -1.6703 H   0  0  0  0  0  0  0  0  0  0  0  0
    3.0742    2.0604   -1.0020 H   0  0  0  0  0  0  0  0  0  0  0  0
    4.9358    1.9726    0.4425 H   0  0  0  0  0  0  0  0  0  0  0  0
    6.9446    0.8133    1.1797 H   0  0  0  0  0  0  0  0  0  0  0  0
    7.1771   -1.6047    0.8615 H   0  0  0  0  0  0  0  0  0  0  0  0
    5.3554   -2.8893   -0.2196 H   0  0  0  0  0  0  0  0  0  0  0  0
    3.3051   -1.6776   -0.9670 H   0  0  0  0  0  0  0  0  0  0  0  0
   -2.5464   -2.3189   -0.8968 H   0  0  0  0  0  0  0  0  0  0  0  0
   -4.6191   -3.5470   -1.2404 H   0  0  0  0  0  0  0  0  0  0  0  0
   -6.8135   -2.5208   -0.6254 H   0  0  0  0  0  0  0  0  0  0  0  0
   -6.8148   -0.2618    0.3250 H   0  0  0  0  0  0  0  0  0  0  0  0
  1  2  2  0
  2  3  1  0
  3  4  1  0
  4  5  2  0
  5  6  1  0
  6  7  1  0
  7  8  1  0
  8  9  1  0
  9 10  1  0
 10 11  1  0
 11 12  1  0
 10 13  1  0
 13 14  1  0
 14 15  2  0
 15 16  1  0
 16 17  2  0
 17 18  1  0
 18 19  2  0
  5 20  1  0
 20 21  2  0
 21 22  1  0
 22 23  2  0
  6  2  1  0
 12  7  1  0
 19 14  1  0
 23  4  1  0
  3 24  1  0
  3 25  1  0
  7 26  1  0
  8 27  1  0
  8 28  1  0
  9 29  1  0
  9 30  1  0
 11 31  1  0
 11 32  1  0
 12 33  1  0
 12 34  1  0
 13 35  1  0
 13 36  1  0
 15 37  1  0
 16 38  1  0
 17 39  1  0
 18 40  1  0
 19 41  1  0
 20 42  1  0
 21 43  1  0
 22 44  1  0
 23 45  1  0
M  END
>  <Ligand ID>  (1) 
LIG0003140

>  <Ligand>  (1) 
CHEMBL320874

>  <SMILES>  (1) 
O=C1Cc2c(N1C1CCN(CC1)Cc1ccccc1)cccc2

>  <CID>  (1) 
3655995.0

>  <ChEMBL ID>  (1) 
nan

>  <InChiKey>  (1) 
ZRIOIQJUIUJPED-UHFFFAOYSA-N

>  <InChi>  (1) 
InChI=1S/C20H22N2O/c23-20-14-17-8-4-5-9-19(17)22(20)18-10-12-21(13-11-18)15-16-6-2-1-3-7-16/h1-9,18H,10-15H2

>  <IUPAC Name>  (1) 
1-(1-benzylpiperidin-4-yl)-3H-indol-2-one

$$$$
