
     RDKit          3D

 66 69  0  0  0  0  0  0  0  0999 V2000
   -0.5204    5.0648    0.2751 C   0  0  0  0  0  0  0  0  0  0  0  0
   -1.8496    4.6873    0.0799 O   0  0  0  0  0  0  0  0  0  0  0  0
   -2.2302    3.3485   -0.1275 C   0  0  0  0  0  0  0  0  0  0  0  0
   -1.2951    2.3339   -0.1341 C   0  0  0  0  0  0  0  0  0  0  0  0
   -1.7239    1.0423   -0.3396 C   0  0  0  0  0  0  0  0  0  0  0  0
   -3.0806    0.7635   -0.5398 C   0  0  0  0  0  0  0  0  0  0  0  0
   -3.9700    1.8187   -0.5235 C   0  0  0  0  0  0  0  0  0  0  0  0
   -3.5780    3.1292   -0.3190 C   0  0  0  0  0  0  0  0  0  0  0  0
   -4.4959    4.1828   -0.3061 O   0  0  0  0  0  0  0  0  0  0  0  0
   -5.8700    3.9385   -0.5044 C   0  0  0  0  0  0  0  0  0  0  0  0
   -3.4607   -0.5068   -0.7430 N   0  0  0  0  0  0  0  0  0  0  0  0
   -2.5533   -1.5226   -0.7564 C   0  0  0  0  0  0  0  0  0  0  0  0
   -1.2587   -1.2306   -0.5607 N   0  0  0  0  0  0  0  0  0  0  0  0
   -0.8015    0.0218   -0.3502 C   0  0  0  0  0  0  0  0  0  0  0  0
    0.5786    0.1746   -0.1268 N   0  0  0  0  0  0  0  0  0  0  0  0
    1.2080    0.5184    1.1084 C   0  0  0  0  0  0  0  0  0  0  0  0
    2.6327    0.9984    0.9057 C   0  0  0  0  0  0  0  0  0  0  0  0
    3.3955    0.0174    0.1377 N   0  0  0  0  0  0  0  0  0  0  0  0
    2.6667   -0.8058   -0.7739 C   0  0  0  0  0  0  0  0  0  0  0  0
    1.4600   -0.0368   -1.2772 C   0  0  0  0  0  0  0  0  0  0  0  0
    4.7986   -0.0285    0.3530 C   0  0  0  0  0  0  0  0  0  0  0  0
    5.4392    0.9736    1.0573 C   0  0  0  0  0  0  0  0  0  0  0  0
    6.8043    0.9847    1.2798 C   0  0  0  0  0  0  0  0  0  0  0  0
    7.6012   -0.0303    0.7952 C   0  0  0  0  0  0  0  0  0  0  0  0
    6.9687   -1.0322    0.0924 C   0  0  0  0  0  0  0  0  0  0  0  0
    5.6055   -1.0540   -0.1364 C   0  0  0  0  0  0  0  0  0  0  0  0
    5.0571   -2.1029   -0.8531 O   0  0  0  0  0  0  0  0  0  0  0  0
    5.8961   -3.1193   -1.3319 C   0  0  0  0  0  0  0  0  0  0  0  0
   -2.9397   -2.9344   -0.9782 C   0  0  0  0  0  0  0  0  0  0  0  0
   -3.2571   -3.6960    0.2574 C   0  0  0  0  0  0  0  0  0  0  0  0
   -4.3142   -3.2365    1.0695 N   0  0  0  0  0  0  0  0  0  0  0  0
   -4.1457   -2.0160    1.7709 C   0  0  0  0  0  0  0  0  0  0  0  0
   -5.6312   -3.5176    0.5836 C   0  0  0  0  0  0  0  0  0  0  0  0
    0.0089    4.3516    0.9373 H   0  0  0  0  0  0  0  0  0  0  0  0
   -0.0056    5.0508   -0.7172 H   0  0  0  0  0  0  0  0  0  0  0  0
   -0.4207    6.0547    0.7748 H   0  0  0  0  0  0  0  0  0  0  0  0
   -0.2516    2.5621    0.0084 H   0  0  0  0  0  0  0  0  0  0  0  0
   -5.0096    1.5831   -0.6805 H   0  0  0  0  0  0  0  0  0  0  0  0
   -6.3999    4.8796   -0.6661 H   0  0  0  0  0  0  0  0  0  0  0  0
   -5.9759    3.2459   -1.3829 H   0  0  0  0  0  0  0  0  0  0  0  0
   -6.2483    3.3453    0.3775 H   0  0  0  0  0  0  0  0  0  0  0  0
    0.6778    1.2751    1.6931 H   0  0  0  0  0  0  0  0  0  0  0  0
    1.2447   -0.3897    1.7860 H   0  0  0  0  0  0  0  0  0  0  0  0
    3.0915    1.0460    1.9109 H   0  0  0  0  0  0  0  0  0  0  0  0
    2.7123    1.9925    0.4463 H   0  0  0  0  0  0  0  0  0  0  0  0
    3.2777   -0.9814   -1.7069 H   0  0  0  0  0  0  0  0  0  0  0  0
    2.4141   -1.7996   -0.3858 H   0  0  0  0  0  0  0  0  0  0  0  0
    1.8345    0.9560   -1.5694 H   0  0  0  0  0  0  0  0  0  0  0  0
    0.9591   -0.6025   -2.0691 H   0  0  0  0  0  0  0  0  0  0  0  0
    4.8986    1.8269    1.4825 H   0  0  0  0  0  0  0  0  0  0  0  0
    7.2981    1.7844    1.8406 H   0  0  0  0  0  0  0  0  0  0  0  0
    8.6700   -0.0721    0.9397 H   0  0  0  0  0  0  0  0  0  0  0  0
    7.5875   -1.8410   -0.2962 H   0  0  0  0  0  0  0  0  0  0  0  0
    5.2584   -3.8665   -1.8702 H   0  0  0  0  0  0  0  0  0  0  0  0
    6.4688   -3.6143   -0.5192 H   0  0  0  0  0  0  0  0  0  0  0  0
    6.6419   -2.7667   -2.0841 H   0  0  0  0  0  0  0  0  0  0  0  0
   -2.0544   -3.4496   -1.4581 H   0  0  0  0  0  0  0  0  0  0  0  0
   -3.7359   -3.0231   -1.7616 H   0  0  0  0  0  0  0  0  0  0  0  0
   -3.4725   -4.7780    0.0178 H   0  0  0  0  0  0  0  0  0  0  0  0
   -2.3271   -3.7074    0.8992 H   0  0  0  0  0  0  0  0  0  0  0  0
   -3.0926   -1.6886    1.7497 H   0  0  0  0  0  0  0  0  0  0  0  0
   -4.3349   -2.2532    2.8617 H   0  0  0  0  0  0  0  0  0  0  0  0
   -4.8792   -1.2256    1.5377 H   0  0  0  0  0  0  0  0  0  0  0  0
   -5.5772   -3.9777   -0.4454 H   0  0  0  0  0  0  0  0  0  0  0  0
   -6.3451   -2.6916    0.6451 H   0  0  0  0  0  0  0  0  0  0  0  0
   -6.0495   -4.3536    1.2130 H   0  0  0  0  0  0  0  0  0  0  0  0
  1  2  1  0
  2  3  1  0
  3  4  2  0
  4  5  1  0
  5  6  2  0
  6  7  1  0
  7  8  2  0
  8  9  1  0
  9 10  1  0
  6 11  1  0
 11 12  2  0
 12 13  1  0
 13 14  2  0
 14 15  1  0
 15 16  1  0
 16 17  1  0
 17 18  1  0
 18 19  1  0
 19 20  1  0
 18 21  1  0
 21 22  2  0
 22 23  1  0
 23 24  2  0
 24 25  1  0
 25 26  2  0
 26 27  1  0
 27 28  1  0
 12 29  1  0
 29 30  1  0
 30 31  1  0
 31 32  1  0
 31 33  1  0
  8  3  1  0
 20 15  1  0
 26 21  1  0
 14  5  1  0
  1 34  1  0
  1 35  1  0
  1 36  1  0
  4 37  1  0
  7 38  1  0
 10 39  1  0
 10 40  1  0
 10 41  1  0
 16 42  1  0
 16 43  1  0
 17 44  1  0
 17 45  1  0
 19 46  1  0
 19 47  1  0
 20 48  1  0
 20 49  1  0
 22 50  1  0
 23 51  1  0
 24 52  1  0
 25 53  1  0
 28 54  1  0
 28 55  1  0
 28 56  1  0
 29 57  1  0
 29 58  1  0
 30 59  1  0
 30 60  1  0
 32 61  1  0
 32 62  1  0
 32 63  1  0
 33 64  1  0
 33 65  1  0
 33 66  1  0
M  END
>  <Ligand ID>  (1) 
LIG0004540

>  <Ligand>  (1) 
CHEMBL2431123

>  <SMILES>  (1) 
COc1cc2c(cc1OC)nc(nc2N1CCN(CC1)c1ccccc1OC)CCN(C)C

>  <CID>  (1) 
56593274.0

>  <ChEMBL ID>  (1) 
nan

>  <InChiKey>  (1) 
RRQMTTVLMMRAEF-UHFFFAOYSA-N

>  <InChi>  (1) 
InChI=1S/C25H33N5O3/c1-28(2)11-10-24-26-19-17-23(33-5)22(32-4)16-18(19)25(27-24)30-14-12-29(13-15-30)20-8-6-7-9-21(20)31-3/h6-9,16-17H,10-15H2,1-5H3

>  <IUPAC Name>  (1) 
2-[6,7-dimethoxy-4-[4-(2-methoxyphenyl)piperazin-1-yl]quinazolin-2-yl]-N,N-dimethylethanamine

$$$$
