
     RDKit          3D

 59 61  0  0  0  0  0  0  0  0999 V2000
   -7.5855    0.3992    3.3151 Cl  0  0  0  0  0  0  0  0  0  0  0  0
   -5.9644    0.4070    2.6348 C   0  0  0  0  0  0  0  0  0  0  0  0
   -5.0938    1.4351    2.9316 C   0  0  0  0  0  0  0  0  0  0  0  0
   -3.8350    1.3693    2.3573 C   0  0  0  0  0  0  0  0  0  0  0  0
   -3.4922    0.3156    1.5317 C   0  0  0  0  0  0  0  0  0  0  0  0
   -4.3644   -0.7109    1.2365 C   0  0  0  0  0  0  0  0  0  0  0  0
   -5.6359   -0.6507    1.8123 C   0  0  0  0  0  0  0  0  0  0  0  0
   -4.0382   -1.8465    0.3590 C   0  0  0  0  0  0  0  0  0  0  0  0
   -4.4573   -1.5106   -1.0498 C   0  0  0  0  0  0  0  0  0  0  0  0
   -3.7693   -0.3290   -1.4759 N   0  0  0  0  0  0  0  0  0  0  0  0
   -4.0207    0.0746   -2.8203 C   0  0  0  0  0  0  0  0  0  0  0  0
   -3.3074    1.3463   -3.1440 C   0  0  0  0  0  0  0  0  0  0  0  0
   -2.0172    1.5124   -3.1288 O   0  0  0  0  0  0  0  0  0  0  0  0
   -1.0585    1.3103   -2.2641 C   0  0  0  0  0  0  0  0  0  0  0  0
   -0.6355   -0.1243   -2.1149 C   0  0  0  0  0  0  0  0  0  0  0  0
    0.4691   -0.1396   -1.0214 C   0  0  0  0  0  0  0  0  0  0  0  0
    1.4929    0.7143   -1.4904 N   0  0  0  0  0  0  0  0  0  0  0  0
    2.6514    0.9173   -0.7134 C   0  0  0  0  0  0  0  0  0  0  0  0
    3.5247   -0.3013   -0.6780 C   0  0  1  0  0  0  0  0  0  0  0  0
    4.7790   -0.0860    0.1090 C   0  0  0  0  0  0  0  0  0  0  0  0
    5.8918    0.5323   -0.4175 C   0  0  0  0  0  0  0  0  0  0  0  0
    6.9721    0.6626    0.4229 C   0  0  0  0  0  0  0  0  0  0  0  0
    6.9969    0.2264    1.7037 C   0  0  0  0  0  0  0  0  0  0  0  0
    5.8727   -0.4162    2.2877 C   0  0  0  0  0  0  0  0  0  0  0  0
    4.8029   -0.5211    1.3875 C   0  0  0  0  0  0  0  0  0  0  0  0
    3.5063   -1.3783    2.3734 S   0  0  0  0  0  0  0  0  0  0  0  0
    4.6176   -1.4795    3.9034 C   0  0  0  0  0  0  0  0  0  0  0  0
    4.2497   -1.9852    4.9271 O   0  0  0  0  0  0  0  0  0  0  0  0
    5.7524   -0.8824    3.4772 N   0  0  0  0  0  0  0  0  0  0  0  0
    8.1581    0.4231    2.4421 O   0  0  0  0  0  0  0  0  0  0  0  0
    2.8120   -1.3553   -0.1193 O   0  0  0  0  0  0  0  0  0  0  0  0
   -5.3763    2.2549    3.5826 H   0  0  0  0  0  0  0  0  0  0  0  0
   -3.1306    2.1600    2.5717 H   0  0  0  0  0  0  0  0  0  0  0  0
   -2.5078    0.2965    1.1045 H   0  0  0  0  0  0  0  0  0  0  0  0
   -6.3447   -1.4375    1.6005 H   0  0  0  0  0  0  0  0  0  0  0  0
   -4.4930   -2.7978    0.7151 H   0  0  0  0  0  0  0  0  0  0  0  0
   -2.9206   -1.9322    0.3214 H   0  0  0  0  0  0  0  0  0  0  0  0
   -4.1330   -2.3413   -1.7389 H   0  0  0  0  0  0  0  0  0  0  0  0
   -5.5729   -1.3885   -1.1371 H   0  0  0  0  0  0  0  0  0  0  0  0
   -3.9347    0.5141   -0.8608 H   0  0  0  0  0  0  0  0  0  0  0  0
   -5.1225    0.3183   -2.8992 H   0  0  0  0  0  0  0  0  0  0  0  0
   -3.7746   -0.7215   -3.5634 H   0  0  0  0  0  0  0  0  0  0  0  0
   -3.6722    1.6211   -4.2077 H   0  0  0  0  0  0  0  0  0  0  0  0
   -3.8322    2.1893   -2.5523 H   0  0  0  0  0  0  0  0  0  0  0  0
   -1.2410    1.7672   -1.2317 H   0  0  0  0  0  0  0  0  0  0  0  0
   -0.1422    1.9326   -2.5864 H   0  0  0  0  0  0  0  0  0  0  0  0
   -1.3583   -0.8819   -1.9550 H   0  0  0  0  0  0  0  0  0  0  0  0
   -0.0353   -0.4142   -3.0392 H   0  0  0  0  0  0  0  0  0  0  0  0
   -0.0575    0.2330   -0.1135 H   0  0  0  0  0  0  0  0  0  0  0  0
    0.7320   -1.1873   -0.8422 H   0  0  0  0  0  0  0  0  0  0  0  0
    1.6919    0.5220   -2.4939 H   0  0  0  0  0  0  0  0  0  0  0  0
    3.2533    1.7282   -1.2316 H   0  0  0  0  0  0  0  0  0  0  0  0
    2.4409    1.2832    0.3225 H   0  0  0  0  0  0  0  0  0  0  0  0
    3.7635   -0.5519   -1.7424 H   0  0  0  0  0  0  0  0  0  0  0  0
    5.8927    0.8823   -1.4355 H   0  0  0  0  0  0  0  0  0  0  0  0
    7.8481    1.1478    0.0182 H   0  0  0  0  0  0  0  0  0  0  0  0
    6.5474   -0.8331    4.2198 H   0  0  0  0  0  0  0  0  0  0  0  0
    8.9928   -0.0636    2.0778 H   0  0  0  0  0  0  0  0  0  0  0  0
    3.2125   -2.2286   -0.3588 H   0  0  0  0  0  0  0  0  0  0  0  0
  1  2  1  0
  2  3  2  0
  3  4  1  0
  4  5  2  0
  5  6  1  0
  6  7  2  0
  6  8  1  0
  8  9  1  0
  9 10  1  0
 10 11  1  0
 11 12  1  0
 12 13  1  0
 13 14  1  0
 14 15  1  0
 15 16  1  0
 16 17  1  0
 17 18  1  0
 18 19  1  0
 19 20  1  0
 20 21  2  0
 21 22  1  0
 22 23  2  0
 23 24  1  0
 24 25  2  0
 25 26  1  0
 26 27  1  0
 27 28  2  0
 27 29  1  0
 23 30  1  0
 19 31  1  0
  7  2  1  0
 25 20  1  0
 29 24  1  0
  3 32  1  0
  4 33  1  0
  5 34  1  0
  7 35  1  0
  8 36  1  0
  8 37  1  0
  9 38  1  0
  9 39  1  0
 10 40  1  0
 11 41  1  0
 11 42  1  0
 12 43  1  0
 12 44  1  0
 14 45  1  0
 14 46  1  0
 15 47  1  0
 15 48  1  0
 16 49  1  0
 16 50  1  0
 17 51  1  0
 18 52  1  0
 18 53  1  0
 19 54  1  6
 21 55  1  0
 22 56  1  0
 29 57  1  0
 30 58  1  0
 31 59  1  0
M  END
>  <Ligand ID>  (1) 
LIG0005844

>  <Ligand>  (1) 
CHEMBL1807872

>  <SMILES>  (1) 
Clc1cccc(c1)CCNCCOCCCNC[C@@H](c1ccc(c2c1sc(=O)[nH]2)O)O

>  <CID>  (1) 
56663238.0

>  <ChEMBL ID>  (1) 
nan

>  <InChiKey>  (1) 
CQRZBEVGLZUXHH-IBGZPJMESA-N

>  <InChi>  (1) 
InChI=1S/C22H28ClN3O4S/c23-16-4-1-3-15(13-16)7-9-24-10-12-30-11-2-8-25-14-19(28)17-5-6-18(27)20-21(17)31-22(29)26-20/h1,3-6,13,19,24-25,27-28H,2,7-12,14H2,(H,26,29)/t19-/m0/s1

>  <IUPAC Name>  (1) 
7-[(1R)-2-[3-[2-[2-(3-chlorophenyl)ethylamino]ethoxy]propylamino]-1-hydroxyethyl]-4-hydroxy-3H-1,3-benzothiazol-2-one

$$$$
