
     RDKit          3D

 14 14  0  0  0  0  0  0  0  0999 V2000
    2.3460   -0.3250   -0.2817 C   0  0  0  0  0  0  0  0  0  0  0  0
    0.8922    0.0193   -0.1122 C   0  0  0  0  0  0  0  0  0  0  0  0
    0.3453    1.2850   -0.0430 C   0  0  0  0  0  0  0  0  0  0  0  0
   -1.0265    1.0541    0.1143 C   0  0  0  0  0  0  0  0  0  0  0  0
   -1.2311   -0.3265    0.1314 C   0  0  0  0  0  0  0  0  0  0  0  0
   -0.0661   -0.8799   -0.0058 O   0  0  0  0  0  0  0  0  0  0  0  0
   -2.5201   -0.9939    0.2770 C   0  0  0  0  0  0  0  0  0  0  0  0
   -2.5478   -2.2706    0.2742 O   0  0  0  0  0  0  0  0  0  0  0  0
    2.9481    0.3648    0.3571 H   0  0  0  0  0  0  0  0  0  0  0  0
    2.5319   -1.3570    0.1132 H   0  0  0  0  0  0  0  0  0  0  0  0
    2.6764   -0.2321   -1.3163 H   0  0  0  0  0  0  0  0  0  0  0  0
    0.8544    2.2318   -0.0973 H   0  0  0  0  0  0  0  0  0  0  0  0
   -1.7826    1.8332    0.2053 H   0  0  0  0  0  0  0  0  0  0  0  0
   -3.4201   -0.4033    0.3838 H   0  0  0  0  0  0  0  0  0  0  0  0
  1  2  1  0
  2  3  2  0
  3  4  1  0
  4  5  2  0
  5  6  1  0
  5  7  1  0
  7  8  2  0
  6  2  1  0
  1  9  1  0
  1 10  1  0
  1 11  1  0
  3 12  1  0
  4 13  1  0
  7 14  1  0
M  END
>  <Ligand ID>  (1) 
LIG0000314

>  <Ligand>  (1) 
5-Methylfurfural

>  <SMILES>  (1) 
Cc1ccc(o1)C=O

>  <CID>  (1) 
12097.0

>  <ChEMBL ID>  (1) 
nan

>  <InChiKey>  (1) 
OUDFNZMQXZILJD-UHFFFAOYSA-N

>  <InChi>  (1) 
InChI=1S/C6H6O2/c1-5-2-3-6(4-7)8-5/h2-4H,1H3

>  <IUPAC Name>  (1) 
5-methylfuran-2-carbaldehyde

$$$$
