
     RDKit          3D

 15 14  0  0  0  0  0  0  0  0999 V2000
   -2.7009    0.4211   -0.1981 C   0  0  0  0  0  0  0  0  0  0  0  0
   -1.7256   -0.3841    0.2103 C   0  0  0  0  0  0  0  0  0  0  0  0
   -0.3522   -0.2390   -0.3934 C   0  0  0  0  0  0  0  0  0  0  0  0
    0.6950    0.0469    0.6797 C   0  0  0  0  0  0  0  0  0  0  0  0
    2.0343    0.1997    0.0609 C   0  0  0  0  0  0  0  0  0  0  0  0
    2.2644    1.3050   -0.5257 O   0  0  0  0  0  0  0  0  0  0  0  0
    3.0188   -0.7628    0.0842 O   0  0  0  0  0  0  0  0  0  0  0  0
   -2.3966    1.1491   -0.9719 H   0  0  0  0  0  0  0  0  0  0  0  0
   -3.7140    0.3903    0.1769 H   0  0  0  0  0  0  0  0  0  0  0  0
   -1.9088   -1.1486    0.9824 H   0  0  0  0  0  0  0  0  0  0  0  0
   -0.0880   -1.1692   -0.9328 H   0  0  0  0  0  0  0  0  0  0  0  0
   -0.3345    0.6415   -1.0839 H   0  0  0  0  0  0  0  0  0  0  0  0
    0.7391   -0.8770    1.3063 H   0  0  0  0  0  0  0  0  0  0  0  0
    0.4691    0.9445    1.2651 H   0  0  0  0  0  0  0  0  0  0  0  0
    4.0000   -0.5176   -0.0370 H   0  0  0  0  0  0  0  0  0  0  0  0
  1  2  2  0
  2  3  1  0
  3  4  1  0
  4  5  1  0
  5  6  2  0
  5  7  1  0
  1  8  1  0
  1  9  1  0
  2 10  1  0
  3 11  1  0
  3 12  1  0
  4 13  1  0
  4 14  1  0
  7 15  1  0
M  END
>  <Ligand ID>  (1) 
LIG0000274

>  <Ligand>  (1) 
4-Pentenoic acid

>  <SMILES>  (1) 
C=CCCC(=O)O

>  <CID>  (1) 
61138.0

>  <ChEMBL ID>  (1) 
nan

>  <InChiKey>  (1) 
HVAMZGADVCBITI-UHFFFAOYSA-N

>  <InChi>  (1) 
InChI=1S/C5H8O2/c1-2-3-4-5(6)7/h2H,1,3-4H2,(H,6,7)

>  <IUPAC Name>  (1) 
pent-4-enoic acid

$$$$
