
     RDKit          3D

 61 64  0  0  0  0  0  0  0  0999 V2000
   -4.3805   -3.8460   -1.4476 C   0  0  0  0  0  0  0  0  0  0  0  0
   -4.4771   -2.6993   -0.5241 C   0  0  0  0  0  0  0  0  0  0  0  0
   -5.1670   -2.8308    0.6714 C   0  0  0  0  0  0  0  0  0  0  0  0
   -5.2557   -1.7535    1.5528 C   0  0  0  0  0  0  0  0  0  0  0  0
   -4.6380   -0.5795    1.1846 C   0  0  0  0  0  0  0  0  0  0  0  0
   -3.9455   -0.4265   -0.0031 C   0  0  0  0  0  0  0  0  0  0  0  0
   -3.8623   -1.4909   -0.8665 C   0  0  0  0  0  0  0  0  0  0  0  0
   -3.3307    0.9001   -0.2514 C   0  0  0  0  0  0  0  0  0  0  0  0
   -1.9849    0.9469    0.2887 N   0  0  0  0  0  0  0  0  0  0  0  0
   -0.8573    0.3738   -0.3679 C   0  0  0  0  0  0  0  0  0  0  0  0
   -0.9338   -0.2186   -1.4769 O   0  0  0  0  0  0  0  0  0  0  0  0
    0.4872    0.4516    0.2517 C   0  0  2  0  0  0  0  0  0  0  0  0
    1.1371    1.8050    0.1362 C   0  0  0  0  0  0  0  0  0  0  0  0
    0.4322    2.9422    0.7026 C   0  0  0  0  0  0  0  0  0  0  0  0
    0.6072    3.4682    1.9834 C   0  0  0  0  0  0  0  0  0  0  0  0
   -0.2235    4.4984    2.1833 N   0  0  0  0  0  0  0  0  0  0  0  0
   -0.9682    4.6957    1.0692 C   0  0  0  0  0  0  0  0  0  0  0  0
   -0.5761    3.7430    0.1428 C   0  0  0  0  0  0  0  0  0  0  0  0
   -1.1738    3.7141   -1.1220 C   0  0  0  0  0  0  0  0  0  0  0  0
   -2.1454    4.6344   -1.4243 C   0  0  0  0  0  0  0  0  0  0  0  0
   -2.5617    5.5918   -0.5332 C   0  0  0  0  0  0  0  0  0  0  0  0
   -1.9486    5.5953    0.7134 C   0  0  0  0  0  0  0  0  0  0  0  0
    1.3217   -0.3951   -0.6477 N   0  0  0  0  0  0  0  0  0  0  0  0
    2.0326   -1.5214   -0.1712 C   0  0  0  0  0  0  0  0  0  0  0  0
    1.9689   -1.8237    1.0226 O   0  0  0  0  0  0  0  0  0  0  0  0
    2.7964   -2.2567   -1.1121 N   0  0  0  0  0  0  0  0  0  0  0  0
    3.5898   -3.4234   -0.7932 C   0  0  0  0  0  0  0  0  0  0  0  0
    4.8430   -2.9718   -0.1369 C   0  0  0  0  0  0  0  0  0  0  0  0
    5.9365   -2.6099   -0.8877 C   0  0  0  0  0  0  0  0  0  0  0  0
    7.1316   -2.1857   -0.3490 C   0  0  0  0  0  0  0  0  0  0  0  0
    7.2062   -2.1313    1.0246 C   0  0  0  0  0  0  0  0  0  0  0  0
    6.1633   -2.4736    1.8455 C   0  0  0  0  0  0  0  0  0  0  0  0
    4.9862   -2.8932    1.2409 C   0  0  0  0  0  0  0  0  0  0  0  0
   -4.4188   -3.4802   -2.5097 H   0  0  0  0  0  0  0  0  0  0  0  0
   -5.1545   -4.5929   -1.2549 H   0  0  0  0  0  0  0  0  0  0  0  0
   -3.3585   -4.2744   -1.3491 H   0  0  0  0  0  0  0  0  0  0  0  0
   -5.6552   -3.7642    0.9622 H   0  0  0  0  0  0  0  0  0  0  0  0
   -5.7848   -1.8410    2.4781 H   0  0  0  0  0  0  0  0  0  0  0  0
   -4.7166    0.2485    1.8792 H   0  0  0  0  0  0  0  0  0  0  0  0
   -3.3413   -1.4125   -1.7967 H   0  0  0  0  0  0  0  0  0  0  0  0
   -3.2774    1.0686   -1.3658 H   0  0  0  0  0  0  0  0  0  0  0  0
   -3.9328    1.7325    0.1456 H   0  0  0  0  0  0  0  0  0  0  0  0
   -1.8814    1.4339    1.2250 H   0  0  0  0  0  0  0  0  0  0  0  0
    0.5302    0.0279    1.2806 H   0  0  0  0  0  0  0  0  0  0  0  0
    1.3433    1.9512   -0.9736 H   0  0  0  0  0  0  0  0  0  0  0  0
    2.1756    1.6801    0.5724 H   0  0  0  0  0  0  0  0  0  0  0  0
    1.3015    3.1337    2.7576 H   0  0  0  0  0  0  0  0  0  0  0  0
   -0.3278    5.0859    3.0279 H   0  0  0  0  0  0  0  0  0  0  0  0
   -0.8770    2.9769   -1.8536 H   0  0  0  0  0  0  0  0  0  0  0  0
   -2.6167    4.6106   -2.4197 H   0  0  0  0  0  0  0  0  0  0  0  0
   -3.3249    6.2996   -0.7966 H   0  0  0  0  0  0  0  0  0  0  0  0
   -2.2276    6.3300    1.4739 H   0  0  0  0  0  0  0  0  0  0  0  0
    1.3353   -0.0859   -1.6642 H   0  0  0  0  0  0  0  0  0  0  0  0
    2.7760   -1.9209   -2.1148 H   0  0  0  0  0  0  0  0  0  0  0  0
    3.9070   -3.8826   -1.7522 H   0  0  0  0  0  0  0  0  0  0  0  0
    3.0431   -4.1585   -0.1575 H   0  0  0  0  0  0  0  0  0  0  0  0
    5.8329   -2.6699   -1.9593 H   0  0  0  0  0  0  0  0  0  0  0  0
    7.9403   -1.9198   -1.0125 H   0  0  0  0  0  0  0  0  0  0  0  0
    8.1255   -1.8026    1.4966 H   0  0  0  0  0  0  0  0  0  0  0  0
    6.2100   -2.4362    2.9360 H   0  0  0  0  0  0  0  0  0  0  0  0
    4.1645   -3.1675    1.8956 H   0  0  0  0  0  0  0  0  0  0  0  0
  1  2  1  0
  2  3  2  0
  3  4  1  0
  4  5  2  0
  5  6  1  0
  6  7  2  0
  6  8  1  0
  8  9  1  0
  9 10  1  0
 10 11  2  0
 10 12  1  0
 12 13  1  0
 13 14  1  0
 14 15  2  0
 15 16  1  0
 16 17  1  0
 17 18  2  0
 18 19  1  0
 19 20  2  0
 20 21  1  0
 21 22  2  0
 12 23  1  0
 23 24  1  0
 24 25  2  0
 24 26  1  0
 26 27  1  0
 27 28  1  0
 28 29  2  0
 29 30  1  0
 30 31  2  0
 31 32  1  0
 32 33  2  0
  7  2  1  0
 18 14  1  0
 33 28  1  0
 22 17  1  0
  1 34  1  0
  1 35  1  0
  1 36  1  0
  3 37  1  0
  4 38  1  0
  5 39  1  0
  7 40  1  0
  8 41  1  0
  8 42  1  0
  9 43  1  0
 12 44  1  1
 13 45  1  0
 13 46  1  0
 15 47  1  0
 16 48  1  0
 19 49  1  0
 20 50  1  0
 21 51  1  0
 22 52  1  0
 23 53  1  0
 26 54  1  0
 27 55  1  0
 27 56  1  0
 29 57  1  0
 30 58  1  0
 31 59  1  0
 32 60  1  0
 33 61  1  0
M  END
>  <Ligand ID>  (1) 
LIG0001719

>  <Ligand>  (1) 
CHEMBL61681

>  <SMILES>  (1) 
Cc1cccc(c1)CNC(=O)[C@H](Cc1c[nH]c2c1cccc2)NC(=O)NCc1ccccc1

>  <CID>  (1) 
44305815.0

>  <ChEMBL ID>  (1) 
nan

>  <InChiKey>  (1) 
IBFSTESMBHZKAL-VWLOTQADSA-N

>  <InChi>  (1) 
InChI=1S/C27H28N4O2/c1-19-8-7-11-21(14-19)17-29-26(32)25(15-22-18-28-24-13-6-5-12-23(22)24)31-27(33)30-16-20-9-3-2-4-10-20/h2-14,18,25,28H,15-17H2,1H3,(H,29,32)(H2,30,31,33)/t25-/m0/s1

>  <IUPAC Name>  (1) 
(2S)-2-(benzylcarbamoylamino)-3-(1H-indol-3-yl)-N-[(3-methylphenyl)methyl]propanamide

$$$$
