
     RDKit          3D

 32 33  0  0  0  0  0  0  0  0999 V2000
   -2.2501    3.0889    1.7438 O   0  0  0  0  0  0  0  0  0  0  0  0
   -1.8862    1.8204    1.3607 N   0  0  0  0  0  0  0  0  0  0  0  0
   -2.7157    0.8468    1.2762 C   0  0  0  0  0  0  0  0  0  0  0  0
   -2.4125   -0.4995    0.8852 C   0  0  0  0  0  0  0  0  0  0  0  0
   -3.4654   -1.4200    0.8560 C   0  0  0  0  0  0  0  0  0  0  0  0
   -3.2355   -2.7235    0.4896 C   0  0  0  0  0  0  0  0  0  0  0  0
   -1.9892   -3.1856    0.1397 C   0  0  0  0  0  0  0  0  0  0  0  0
   -0.9520   -2.2925    0.1651 C   0  0  0  0  0  0  0  0  0  0  0  0
   -1.1295   -0.9377    0.5343 C   0  0  0  0  0  0  0  0  0  0  0  0
   -0.1103   -0.1490    0.5373 O   0  0  0  0  0  0  0  0  0  0  0  0
    0.9132    0.6434    0.5404 C   0  0  0  0  0  0  0  0  0  0  0  0
    1.7166    0.6909   -0.7587 C   0  0  0  0  0  0  0  0  0  0  0  0
    1.4691    0.0134   -1.8304 N   0  0  0  0  0  0  0  0  0  0  0  0
    2.4050    0.2771   -2.8811 C   0  0  0  0  0  0  0  0  0  0  0  0
    3.1274    1.5229   -2.4194 C   0  0  0  0  0  0  0  0  0  0  0  0
    2.8705    1.4952   -0.9878 N   0  0  0  0  0  0  0  0  0  0  0  0
    1.9858    0.1665    1.5589 C   0  0  0  0  0  0  0  0  0  0  0  0
   -3.0526    3.1860    2.3548 H   0  0  0  0  0  0  0  0  0  0  0  0
   -3.7555    1.1050    1.5365 H   0  0  0  0  0  0  0  0  0  0  0  0
   -4.4828   -1.1276    1.1207 H   0  0  0  0  0  0  0  0  0  0  0  0
   -4.0446   -3.4346    0.4663 H   0  0  0  0  0  0  0  0  0  0  0  0
   -1.7920   -4.2178   -0.1532 H   0  0  0  0  0  0  0  0  0  0  0  0
    0.0258   -2.6316   -0.1035 H   0  0  0  0  0  0  0  0  0  0  0  0
    0.7874    1.7214    0.8304 H   0  0  0  0  0  0  0  0  0  0  0  0
    3.2046   -0.5143   -2.9400 H   0  0  0  0  0  0  0  0  0  0  0  0
    1.9504    0.4497   -3.8762 H   0  0  0  0  0  0  0  0  0  0  0  0
    2.6286    2.4388   -2.8124 H   0  0  0  0  0  0  0  0  0  0  0  0
    4.2074    1.5021   -2.6688 H   0  0  0  0  0  0  0  0  0  0  0  0
    3.3973    1.9593   -0.2090 H   0  0  0  0  0  0  0  0  0  0  0  0
    1.4701    0.1075    2.5266 H   0  0  0  0  0  0  0  0  0  0  0  0
    2.3280   -0.8324    1.2124 H   0  0  0  0  0  0  0  0  0  0  0  0
    2.7865    0.9307    1.5057 H   0  0  0  0  0  0  0  0  0  0  0  0
  1  2  1  0
  2  3  2  0
  3  4  1  0
  4  5  2  0
  5  6  1  0
  6  7  2  0
  7  8  1  0
  8  9  2  0
  9 10  1  0
 10 11  1  0
 11 12  1  0
 12 13  2  0
 13 14  1  0
 14 15  1  0
 15 16  1  0
 11 17  1  0
  9  4  1  0
 16 12  1  0
  1 18  1  0
  3 19  1  0
  5 20  1  0
  6 21  1  0
  7 22  1  0
  8 23  1  0
 11 24  1  0
 14 25  1  0
 14 26  1  0
 15 27  1  0
 15 28  1  0
 16 29  1  0
 17 30  1  0
 17 31  1  0
 17 32  1  0
M  END
>  <Ligand ID>  (1) 
LIG0003512

>  <Ligand>  (1) 
(E)-2-(1-(4,5-Dihydro-1H-imidazol-2-yl)ethoxy)benzaldehyde oxime

>  <SMILES>  (1) 
O/N=C/c1ccccc1OC(C1=NCCN1)C

>  <CID>  (1) 
24906159.0

>  <ChEMBL ID>  (1) 
nan

>  <InChiKey>  (1) 
JDVBCCBWSXJBJH-OVCLIPMQSA-N

>  <InChi>  (1) 
InChI=1S/C12H15N3O2/c1-9(12-13-6-7-14-12)17-11-5-3-2-4-10(11)8-15-16/h2-5,8-9,16H,6-7H2,1H3,(H,13,14)/b15-8+

>  <IUPAC Name>  (1) 
(NE)-N-[[2-[1-(4,5-dihydro-1H-imidazol-2-yl)ethoxy]phenyl]methylidene]hydroxylamine

$$$$
