
     RDKit          3D

 37 38  0  0  0  0  0  0  0  0999 V2000
   -4.2351   -0.7907   -1.8481 C   0  0  0  0  0  0  0  0  0  0  0  0
   -4.6459    0.0175   -0.6591 C   0  0  0  0  0  0  0  0  0  0  0  0
   -4.0916   -0.5833    0.6172 C   0  0  0  0  0  0  0  0  0  0  0  0
   -2.6603   -0.5944    0.5123 N   0  0  0  0  0  0  0  0  0  0  0  0
   -1.9079   -1.8153    0.5895 C   0  0  0  0  0  0  0  0  0  0  0  0
   -2.4822   -2.9215    0.7525 O   0  0  0  0  0  0  0  0  0  0  0  0
   -0.4714   -1.7541    0.4763 C   0  0  0  0  0  0  0  0  0  0  0  0
    0.3882   -2.7963    0.5261 N   0  0  0  0  0  0  0  0  0  0  0  0
    1.6168   -2.3446    0.3858 O   0  0  0  0  0  0  0  0  0  0  0  0
    1.6355   -1.0601    0.2445 C   0  0  0  0  0  0  0  0  0  0  0  0
    0.3136   -0.6351    0.2963 C   0  0  0  0  0  0  0  0  0  0  0  0
    2.7873   -0.1786    0.0632 C   0  0  0  0  0  0  0  0  0  0  0  0
    4.0542   -0.7500    0.0315 C   0  0  0  0  0  0  0  0  0  0  0  0
    5.1528    0.0694   -0.1392 C   0  0  0  0  0  0  0  0  0  0  0  0
    4.9845    1.4427   -0.2763 C   0  0  0  0  0  0  0  0  0  0  0  0
    3.7222    1.9942   -0.2428 C   0  0  0  0  0  0  0  0  0  0  0  0
    2.6259    1.1743   -0.0723 C   0  0  0  0  0  0  0  0  0  0  0  0
    6.1513    2.3624   -0.4629 C   0  0  0  0  0  0  0  0  0  0  0  0
   -4.5819    0.2478    1.7777 C   0  0  0  0  0  0  0  0  0  0  0  0
   -4.9405   -1.6265   -2.0053 H   0  0  0  0  0  0  0  0  0  0  0  0
   -4.2083   -0.1715   -2.7615 H   0  0  0  0  0  0  0  0  0  0  0  0
   -3.1983   -1.1975   -1.6734 H   0  0  0  0  0  0  0  0  0  0  0  0
   -5.7661   -0.0883   -0.5783 H   0  0  0  0  0  0  0  0  0  0  0  0
   -4.3473    1.0764   -0.7375 H   0  0  0  0  0  0  0  0  0  0  0  0
   -4.4407   -1.6125    0.7552 H   0  0  0  0  0  0  0  0  0  0  0  0
   -2.1522    0.3208    0.3749 H   0  0  0  0  0  0  0  0  0  0  0  0
   -0.0557    0.3772    0.2134 H   0  0  0  0  0  0  0  0  0  0  0  0
    4.2029   -1.8166    0.1367 H   0  0  0  0  0  0  0  0  0  0  0  0
    6.1547   -0.3225   -0.1707 H   0  0  0  0  0  0  0  0  0  0  0  0
    3.6037    3.0786   -0.3521 H   0  0  0  0  0  0  0  0  0  0  0  0
    1.6291    1.5925   -0.0439 H   0  0  0  0  0  0  0  0  0  0  0  0
    7.0873    1.7853   -0.6112 H   0  0  0  0  0  0  0  0  0  0  0  0
    6.2399    2.9891    0.4418 H   0  0  0  0  0  0  0  0  0  0  0  0
    5.9611    3.0494   -1.3264 H   0  0  0  0  0  0  0  0  0  0  0  0
   -5.2389    1.0734    1.4363 H   0  0  0  0  0  0  0  0  0  0  0  0
   -3.7196    0.7568    2.2947 H   0  0  0  0  0  0  0  0  0  0  0  0
   -5.1670   -0.3486    2.5128 H   0  0  0  0  0  0  0  0  0  0  0  0
  1  2  1  0
  2  3  1  0
  3  4  1  0
  4  5  1  0
  5  6  2  0
  5  7  1  0
  7  8  2  0
  8  9  1  0
  9 10  1  0
 10 11  2  0
 10 12  1  0
 12 13  2  0
 13 14  1  0
 14 15  2  0
 15 16  1  0
 16 17  2  0
 15 18  1  0
  3 19  1  0
 11  7  1  0
 17 12  1  0
  1 20  1  0
  1 21  1  0
  1 22  1  0
  2 23  1  0
  2 24  1  0
  3 25  1  0
  4 26  1  0
 11 27  1  0
 13 28  1  0
 14 29  1  0
 16 30  1  0
 17 31  1  0
 18 32  1  0
 18 33  1  0
 18 34  1  0
 19 35  1  0
 19 36  1  0
 19 37  1  0
M  END
>  <Ligand ID>  (1) 
LIG0004055

>  <Ligand>  (1) 
CHEMBL1434471

>  <SMILES>  (1) 
CCC(NC(=O)c1noc(c1)c1ccc(cc1)C)C

>  <CID>  (1) 
16667398.0

>  <ChEMBL ID>  (1) 
nan

>  <InChiKey>  (1) 
MJVWUSKTHFFZTA-UHFFFAOYSA-N

>  <InChi>  (1) 
InChI=1S/C15H18N2O2/c1-4-11(3)16-15(18)13-9-14(19-17-13)12-7-5-10(2)6-8-12/h5-9,11H,4H2,1-3H3,(H,16,18)

>  <IUPAC Name>  (1) 
N-butan-2-yl-5-(4-methylphenyl)-1,2-oxazole-3-carboxamide

$$$$
