
     RDKit          3D

 64 66  0  0  0  0  0  0  0  0999 V2000
   -5.1520    1.6070   -2.1221 C   0  0  0  0  0  0  0  0  0  0  0  0
   -5.1036    1.3670   -0.6379 C   0  0  0  0  0  0  0  0  0  0  0  0
   -3.6672    1.3523   -0.1005 C   0  0  0  0  0  0  0  0  0  0  0  0
   -3.1426    2.7508   -0.4579 C   0  0  0  0  0  0  0  0  0  0  0  0
   -3.7887    1.3446    1.2551 O   0  0  0  0  0  0  0  0  0  0  0  0
   -3.3693    0.1856    1.8945 C   0  0  0  0  0  0  0  0  0  0  0  0
   -1.8843    0.0609    1.5022 C   0  0  0  0  0  0  0  0  0  0  0  0
   -1.9018   -0.4511    0.1122 C   0  0  0  0  0  0  0  0  0  0  0  0
   -2.8607    0.3040   -0.7596 C   0  0  0  0  0  0  0  0  0  0  0  0
   -0.5306   -0.4866   -0.5113 C   0  0  0  0  0  0  0  0  0  0  0  0
    0.1973    0.7854   -0.6335 C   0  0  0  0  0  0  0  0  0  0  0  0
    0.5123    1.5032    0.5429 N   0  0  0  0  0  0  0  0  0  0  0  0
    1.4603    0.9446    1.4300 C   0  0  0  0  0  0  0  0  0  0  0  0
    2.8046    0.7092    0.9054 C   0  0  0  0  0  0  0  0  0  0  0  0
    3.7499    1.7053    1.0107 C   0  0  0  0  0  0  0  0  0  0  0  0
    5.0336    1.5420    0.5359 C   0  0  0  0  0  0  0  0  0  0  0  0
    5.4040    0.3569   -0.0647 C   0  0  0  0  0  0  0  0  0  0  0  0
    4.4807   -0.6673   -0.1885 C   0  0  0  0  0  0  0  0  0  0  0  0
    3.1915   -0.4695    0.3019 C   0  0  0  0  0  0  0  0  0  0  0  0
    6.7269    0.1894   -0.5534 N   0  0  0  0  0  0  0  0  0  0  0  0
    7.6888    1.2644   -0.4214 C   0  0  0  0  0  0  0  0  0  0  0  0
    7.1123   -1.0583   -1.1834 C   0  0  0  0  0  0  0  0  0  0  0  0
   -2.3028   -1.9077    0.1067 C   0  0  0  0  0  0  0  0  0  0  0  0
   -2.5258   -2.6281    1.2292 C   0  0  0  0  0  0  0  0  0  0  0  0
   -2.8997   -3.9670    1.1799 C   0  0  0  0  0  0  0  0  0  0  0  0
   -3.0556   -4.6078   -0.0381 C   0  0  0  0  0  0  0  0  0  0  0  0
   -2.8258   -3.8653   -1.1774 C   0  0  0  0  0  0  0  0  0  0  0  0
   -2.4555   -2.5382   -1.1334 C   0  0  0  0  0  0  0  0  0  0  0  0
   -3.4204   -5.9159   -0.1043 F   0  0  0  0  0  0  0  0  0  0  0  0
   -4.9570    2.6852   -2.2926 H   0  0  0  0  0  0  0  0  0  0  0  0
   -4.4065    0.9759   -2.6164 H   0  0  0  0  0  0  0  0  0  0  0  0
   -6.1742    1.3284   -2.4543 H   0  0  0  0  0  0  0  0  0  0  0  0
   -5.7257    2.0848   -0.0711 H   0  0  0  0  0  0  0  0  0  0  0  0
   -5.5200    0.3535   -0.4091 H   0  0  0  0  0  0  0  0  0  0  0  0
   -2.6791    2.7519   -1.4597 H   0  0  0  0  0  0  0  0  0  0  0  0
   -3.9588    3.4865   -0.3459 H   0  0  0  0  0  0  0  0  0  0  0  0
   -2.3948    3.0045    0.3199 H   0  0  0  0  0  0  0  0  0  0  0  0
   -3.5235    0.2767    2.9657 H   0  0  0  0  0  0  0  0  0  0  0  0
   -3.9821   -0.6257    1.4031 H   0  0  0  0  0  0  0  0  0  0  0  0
   -1.3040   -0.5311    2.2075 H   0  0  0  0  0  0  0  0  0  0  0  0
   -1.5022    1.0929    1.5810 H   0  0  0  0  0  0  0  0  0  0  0  0
   -2.2893    0.7782   -1.5937 H   0  0  0  0  0  0  0  0  0  0  0  0
   -3.5478   -0.3999   -1.2745 H   0  0  0  0  0  0  0  0  0  0  0  0
    0.1008   -1.3060   -0.0508 H   0  0  0  0  0  0  0  0  0  0  0  0
   -0.7014   -0.8711   -1.5648 H   0  0  0  0  0  0  0  0  0  0  0  0
    1.1317    0.5949   -1.2428 H   0  0  0  0  0  0  0  0  0  0  0  0
   -0.3960    1.4662   -1.2890 H   0  0  0  0  0  0  0  0  0  0  0  0
    0.4778    2.5256    0.4448 H   0  0  0  0  0  0  0  0  0  0  0  0
    1.0554    0.0150    1.8901 H   0  0  0  0  0  0  0  0  0  0  0  0
    1.5493    1.6577    2.2964 H   0  0  0  0  0  0  0  0  0  0  0  0
    3.4672    2.6390    1.4821 H   0  0  0  0  0  0  0  0  0  0  0  0
    5.7147    2.3594    0.6534 H   0  0  0  0  0  0  0  0  0  0  0  0
    4.7732   -1.5965   -0.6593 H   0  0  0  0  0  0  0  0  0  0  0  0
    2.4853   -1.2817    0.1959 H   0  0  0  0  0  0  0  0  0  0  0  0
    7.6612    1.7503    0.5675 H   0  0  0  0  0  0  0  0  0  0  0  0
    7.5767    1.9763   -1.2713 H   0  0  0  0  0  0  0  0  0  0  0  0
    8.7127    0.8208   -0.4997 H   0  0  0  0  0  0  0  0  0  0  0  0
    8.2086   -1.1139   -1.3364 H   0  0  0  0  0  0  0  0  0  0  0  0
    6.5632   -1.2034   -2.1342 H   0  0  0  0  0  0  0  0  0  0  0  0
    6.8590   -1.9330   -0.5341 H   0  0  0  0  0  0  0  0  0  0  0  0
   -2.4222   -2.2068    2.2160 H   0  0  0  0  0  0  0  0  0  0  0  0
   -3.0782   -4.5443    2.0675 H   0  0  0  0  0  0  0  0  0  0  0  0
   -2.9527   -4.3836   -2.1412 H   0  0  0  0  0  0  0  0  0  0  0  0
   -2.2974   -2.0367   -2.0644 H   0  0  0  0  0  0  0  0  0  0  0  0
  1  2  1  0
  2  3  1  0
  3  4  1  0
  3  5  1  0
  5  6  1  0
  6  7  1  0
  7  8  1  0
  8  9  1  0
  8 10  1  0
 10 11  1  0
 11 12  1  0
 12 13  1  0
 13 14  1  0
 14 15  2  0
 15 16  1  0
 16 17  2  0
 17 18  1  0
 18 19  2  0
 17 20  1  0
 20 21  1  0
 20 22  1  0
  8 23  1  0
 23 24  2  0
 24 25  1  0
 25 26  2  0
 26 27  1  0
 27 28  2  0
 26 29  1  0
  9  3  1  0
 19 14  1  0
 28 23  1  0
  1 30  1  0
  1 31  1  0
  1 32  1  0
  2 33  1  0
  2 34  1  0
  4 35  1  0
  4 36  1  0
  4 37  1  0
  6 38  1  0
  6 39  1  0
  7 40  1  0
  7 41  1  0
  9 42  1  0
  9 43  1  0
 10 44  1  0
 10 45  1  0
 11 46  1  0
 11 47  1  0
 12 48  1  0
 13 49  1  0
 13 50  1  0
 15 51  1  0
 16 52  1  0
 18 53  1  0
 19 54  1  0
 21 55  1  0
 21 56  1  0
 21 57  1  0
 22 58  1  0
 22 59  1  0
 22 60  1  0
 24 61  1  0
 25 62  1  0
 27 63  1  0
 28 64  1  0
M  END
>  <Ligand ID>  (1) 
LIG0004090

>  <Ligand>  (1) 
MLS000779545

>  <SMILES>  (1) 
CCC1(C)OCCC(C1)(CCNCc1ccc(cc1)N(C)C)c1ccc(cc1)F

>  <CID>  (1) 
3561082.0

>  <ChEMBL ID>  (1) 
nan

>  <InChiKey>  (1) 
ZPMLWCNMSTVVDE-UHFFFAOYSA-N

>  <InChi>  (1) 
InChI=1S/C25H35FN2O/c1-5-24(2)19-25(15-17-29-24,21-8-10-22(26)11-9-21)14-16-27-18-20-6-12-23(13-7-20)28(3)4/h6-13,27H,5,14-19H2,1-4H3

>  <IUPAC Name>  (1) 
4-[[2-[2-ethyl-4-(4-fluorophenyl)-2-methyloxan-4-yl]ethylamino]methyl]-N,N-dimethylaniline

$$$$
