
     RDKit          3D

 64 68  0  0  0  0  0  0  0  0999 V2000
   -1.6735   -1.8102    2.6188 C   0  0  0  0  0  0  0  0  0  0  0  0
   -1.1379   -1.0499    1.4149 C   0  0  2  0  0  0  0  0  0  0  0  0
   -2.0396   -1.1785    0.2127 C   0  0  0  0  0  0  0  0  0  0  0  0
   -3.3842   -0.6502    0.4995 C   0  0  0  0  0  0  0  0  0  0  0  0
   -4.4871   -1.4629    0.7407 C   0  0  0  0  0  0  0  0  0  0  0  0
   -5.5511   -0.6729    0.9648 N   0  0  0  0  0  0  0  0  0  0  0  0
   -5.1560    0.5906    0.8732 C   0  0  0  0  0  0  0  0  0  0  0  0
   -3.8097    0.6592    0.5839 C   0  0  0  0  0  0  0  0  0  0  0  0
   -3.1360    1.8601    0.4326 C   0  0  0  0  0  0  0  0  0  0  0  0
   -3.8792    3.0263    0.5856 C   0  0  0  0  0  0  0  0  0  0  0  0
   -5.2427    2.9399    0.8788 C   0  0  0  0  0  0  0  0  0  0  0  0
   -5.8941    1.7475    1.0252 C   0  0  0  0  0  0  0  0  0  0  0  0
   -7.2498    1.9154    1.3151 O   0  0  0  0  0  0  0  0  0  0  0  0
   -8.1993    0.8673    1.5629 C   0  0  0  0  0  0  0  0  0  0  0  0
   -7.8699   -0.2783    0.6194 C   0  0  0  0  0  0  0  0  0  0  0  0
   -6.8505   -1.2188    1.2460 C   0  0  0  0  0  0  0  0  0  0  0  0
    0.1766   -1.5965    1.1715 N   0  0  0  0  0  0  0  0  0  0  0  0
    0.8652   -0.9968    0.0502 C   0  0  0  0  0  0  0  0  0  0  0  0
    2.2085   -1.6744   -0.0712 C   0  0  1  0  0  0  0  0  0  0  0  0
    2.9446   -1.0736   -1.2041 C   0  0  0  0  0  0  0  0  0  0  0  0
    2.4075   -0.2823   -2.1676 C   0  0  0  0  0  0  0  0  0  0  0  0
    3.1810    0.2348   -3.1963 C   0  0  0  0  0  0  0  0  0  0  0  0
    4.5458   -0.0540   -3.2596 C   0  0  0  0  0  0  0  0  0  0  0  0
    5.1023   -0.8574   -2.2855 C   0  0  0  0  0  0  0  0  0  0  0  0
    4.2996   -1.3491   -1.2834 C   0  0  0  0  0  0  0  0  0  0  0  0
    6.4824   -1.1399   -2.3644 N   0  0  0  0  0  0  0  0  0  0  0  0
    7.6723    0.0711   -2.6970 S   0  0  0  0  0  0  0  0  0  0  0  0
    7.4036    0.6800   -4.0600 O   0  0  0  0  0  0  0  0  0  0  0  0
    9.0273   -0.5557   -2.7208 O   0  0  0  0  0  0  0  0  0  0  0  0
    7.6383    1.2549   -1.4567 C   0  0  0  0  0  0  0  0  0  0  0  0
    8.6103    1.6863   -0.5556 C   0  0  0  0  0  0  0  0  0  0  0  0
    8.3213    2.6331    0.3184 C   0  0  0  0  0  0  0  0  0  0  0  0
    7.0462    3.1939    0.3331 C   0  0  0  0  0  0  0  0  0  0  0  0
    6.1537    2.2864   -1.0375 S   0  0  0  0  0  0  0  0  0  0  0  0
    2.9124   -1.4846    1.1273 O   0  0  0  0  0  0  0  0  0  0  0  0
   -1.4648   -2.8987    2.5417 H   0  0  0  0  0  0  0  0  0  0  0  0
   -2.7348   -1.6018    2.8152 H   0  0  0  0  0  0  0  0  0  0  0  0
   -1.0808   -1.4501    3.5026 H   0  0  0  0  0  0  0  0  0  0  0  0
   -1.0785    0.0098    1.7000 H   0  0  0  0  0  0  0  0  0  0  0  0
   -1.6012   -0.5238   -0.5713 H   0  0  0  0  0  0  0  0  0  0  0  0
   -2.0438   -2.1888   -0.2053 H   0  0  0  0  0  0  0  0  0  0  0  0
   -4.4868   -2.5491    0.7464 H   0  0  0  0  0  0  0  0  0  0  0  0
   -2.0776    1.8665    0.2055 H   0  0  0  0  0  0  0  0  0  0  0  0
   -3.3989    3.9941    0.4772 H   0  0  0  0  0  0  0  0  0  0  0  0
   -5.8509    3.8449    1.0040 H   0  0  0  0  0  0  0  0  0  0  0  0
   -8.1153    0.5151    2.5958 H   0  0  0  0  0  0  0  0  0  0  0  0
   -9.2198    1.2347    1.3448 H   0  0  0  0  0  0  0  0  0  0  0  0
   -8.8084   -0.8436    0.4433 H   0  0  0  0  0  0  0  0  0  0  0  0
   -7.4726    0.1168   -0.3270 H   0  0  0  0  0  0  0  0  0  0  0  0
   -6.9463   -2.2457    0.8334 H   0  0  0  0  0  0  0  0  0  0  0  0
   -7.0477   -1.2213    2.3351 H   0  0  0  0  0  0  0  0  0  0  0  0
    0.2046   -2.6207    1.1786 H   0  0  0  0  0  0  0  0  0  0  0  0
    0.9487    0.0812    0.1852 H   0  0  0  0  0  0  0  0  0  0  0  0
    0.3379   -1.1823   -0.9087 H   0  0  0  0  0  0  0  0  0  0  0  0
    2.0564   -2.7627   -0.2127 H   0  0  0  0  0  0  0  0  0  0  0  0
    1.3740   -0.0296   -2.1655 H   0  0  0  0  0  0  0  0  0  0  0  0
    2.7343    0.8553   -3.9430 H   0  0  0  0  0  0  0  0  0  0  0  0
    5.0858    0.3749   -4.0770 H   0  0  0  0  0  0  0  0  0  0  0  0
    4.7797   -1.9826   -0.5298 H   0  0  0  0  0  0  0  0  0  0  0  0
    6.7676   -2.1416   -2.2094 H   0  0  0  0  0  0  0  0  0  0  0  0
    9.6084    1.1972   -0.6205 H   0  0  0  0  0  0  0  0  0  0  0  0
    9.0485    3.0202    1.0611 H   0  0  0  0  0  0  0  0  0  0  0  0
    6.5856    3.9315    0.9072 H   0  0  0  0  0  0  0  0  0  0  0  0
    2.4584   -0.7887    1.6787 H   0  0  0  0  0  0  0  0  0  0  0  0
  1  2  1  0
  2  3  1  0
  3  4  1  0
  4  5  2  0
  5  6  1  0
  6  7  1  0
  7  8  2  0
  8  9  1  0
  9 10  2  0
 10 11  1  0
 11 12  2  0
 12 13  1  0
 13 14  1  0
 14 15  1  0
 15 16  1  0
  2 17  1  0
 17 18  1  0
 18 19  1  0
 19 20  1  0
 20 21  2  0
 21 22  1  0
 22 23  2  0
 23 24  1  0
 24 25  2  0
 24 26  1  0
 26 27  1  0
 27 28  2  0
 27 29  2  0
 27 30  1  0
 30 31  2  0
 31 32  1  0
 32 33  2  0
 33 34  1  0
 19 35  1  0
  8  4  1  0
 25 20  1  0
 34 30  1  0
 16  6  1  0
 12  7  1  0
  1 36  1  0
  1 37  1  0
  1 38  1  0
  2 39  1  1
  3 40  1  0
  3 41  1  0
  5 42  1  0
  9 43  1  0
 10 44  1  0
 11 45  1  0
 14 46  1  0
 14 47  1  0
 15 48  1  0
 15 49  1  0
 16 50  1  0
 16 51  1  0
 17 52  1  0
 18 53  1  0
 18 54  1  0
 19 55  1  6
 21 56  1  0
 22 57  1  0
 23 58  1  0
 25 59  1  0
 26 60  1  0
 31 61  1  0
 32 62  1  0
 33 63  1  0
 35 64  1  0
M  END
>  <Ligand ID>  (1) 
LIG0002209

>  <Ligand>  (1) 
CHEMBL2260989

>  <SMILES>  (1) 
C[C@H](Cc1cn2c3c1cccc3OCCC2)NC[C@@H](c1cccc(c1)NS(=O)(=O)c1cccs1)O

>  <CID>  (1) 
76322965.0

>  <ChEMBL ID>  (1) 
nan

>  <InChiKey>  (1) 
DJZVSBVUKXNTNL-JPYJTQIMSA-N

>  <InChi>  (1) 
InChI=1S/C26H29N3O4S2/c1-18(14-20-17-29-11-5-12-33-24-9-3-8-22(20)26(24)29)27-16-23(30)19-6-2-7-21(15-19)28-35(31,32)25-10-4-13-34-25/h2-4,6-10,13,15,17-18,23,27-28,30H,5,11-12,14,16H2,1H3/t18-,23+/m1/s1

>  <IUPAC Name>  (1) 
N-[3-[(1R)-1-hydroxy-2-[[(2R)-1-(9-oxa-1-azatricyclo[6.4.1.04,13]trideca-2,4(13),5,7-tetraen-3-yl)propan-2-yl]amino]ethyl]phenyl]thiophene-2-sulfonamide

$$$$
