
     RDKit          3D

 95 96  0  0  0  0  0  0  0  0999 V2000
    5.8117    1.6504   -3.8066 C   0  0  0  0  0  0  0  0  0  0  0  0
    5.3500    0.5559   -2.9077 C   0  0  0  0  0  0  0  0  0  0  0  0
    5.4942   -0.6386   -3.3032 O   0  0  0  0  0  0  0  0  0  0  0  0
    4.7559    0.8511   -1.6244 N   0  0  0  0  0  0  0  0  0  0  0  0
    4.3491   -0.2952   -0.8465 C   0  0  2  0  0  0  0  0  0  0  0  0
    2.8283   -0.3882   -0.9889 C   0  0  0  0  0  0  0  0  0  0  0  0
    2.3269    0.5298   -1.6796 O   0  0  0  0  0  0  0  0  0  0  0  0
    2.0993   -1.4334   -0.3788 N   0  0  0  0  0  0  0  0  0  0  0  0
    0.6956   -1.6441   -0.4380 C   0  0  1  0  0  0  0  0  0  0  0  0
   -0.0669   -1.0183    0.6699 C   0  0  0  0  0  0  0  0  0  0  0  0
    0.6296   -0.3032    1.4556 O   0  0  0  0  0  0  0  0  0  0  0  0
   -1.4498   -1.2316    0.7994 N   0  0  0  0  0  0  0  0  0  0  0  0
   -2.3637   -0.7636    1.7694 C   0  0  2  0  0  0  0  0  0  0  0  0
   -3.4807    0.0627    1.2894 C   0  0  0  0  0  0  0  0  0  0  0  0
   -4.2999    0.4856    2.1684 O   0  0  0  0  0  0  0  0  0  0  0  0
   -3.6832    0.4000   -0.0617 N   0  0  0  0  0  0  0  0  0  0  0  0
   -4.8567    1.2363   -0.3745 C   0  0  2  0  0  0  0  0  0  0  0  0
   -5.7036    0.3807   -1.2476 C   0  0  0  0  0  0  0  0  0  0  0  0
   -5.2217   -0.7746   -1.5088 O   0  0  0  0  0  0  0  0  0  0  0  0
   -6.9455    0.7557   -1.7744 N   0  0  0  0  0  0  0  0  0  0  0  0
   -4.3362    2.3946   -1.1513 C   0  0  0  0  0  0  0  0  0  0  0  0
   -5.3189    3.3872   -1.5885 C   0  0  0  0  0  0  0  0  0  0  0  0
   -5.6130    4.4302   -0.7189 C   0  0  0  0  0  0  0  0  0  0  0  0
   -6.5172    5.4247   -1.0265 C   0  0  0  0  0  0  0  0  0  0  0  0
   -7.1652    5.3903   -2.2541 C   0  0  0  0  0  0  0  0  0  0  0  0
   -6.8882    4.3624   -3.1351 C   0  0  0  0  0  0  0  0  0  0  0  0
   -5.9722    3.3686   -2.8051 C   0  0  0  0  0  0  0  0  0  0  0  0
   -8.5427    6.9152   -2.7093 I   0  0  0  0  0  0  0  0  0  0  0  0
   -1.8006   -0.1954    3.0517 C   0  0  0  0  0  0  0  0  0  0  0  0
   -1.0464   -1.1336    3.9127 C   0  0  0  0  0  0  0  0  0  0  0  0
   -1.8892   -2.3060    4.3984 C   0  0  0  0  0  0  0  0  0  0  0  0
   -3.0272   -1.8964    5.1566 N   0  0  0  0  0  0  0  0  0  0  0  0
   -4.0770   -2.5983    5.3436 C   0  0  0  0  0  0  0  0  0  0  0  0
   -5.1149   -1.9987    6.1423 N   0  0  0  0  0  0  0  0  0  0  0  0
   -4.2951   -3.8962    4.8364 N   0  0  0  0  0  0  0  0  0  0  0  0
    0.0586   -1.4052   -1.7968 C   0  0  0  0  0  0  0  0  0  0  0  0
    0.5809   -2.3197   -2.8361 C   0  0  0  0  0  0  0  0  0  0  0  0
    1.6070   -2.1053   -3.6821 C   0  0  0  0  0  0  0  0  0  0  0  0
    2.0114   -3.0599   -4.6207 C   0  0  0  0  0  0  0  0  0  0  0  0
    1.3488   -4.2814   -4.7057 C   0  0  0  0  0  0  0  0  0  0  0  0
    0.3022   -4.5104   -3.8492 C   0  0  0  0  0  0  0  0  0  0  0  0
   -0.0766   -3.5549   -2.9340 C   0  0  0  0  0  0  0  0  0  0  0  0
    1.8284   -5.5048   -5.8720 Cl  0  0  0  0  0  0  0  0  0  0  0  0
    4.6776   -0.2597    0.5909 C   0  0  0  0  0  0  0  0  0  0  0  0
    6.1184   -0.1622    0.9268 C   0  0  0  0  0  0  0  0  0  0  0  0
    6.8427    1.0652    0.4598 C   0  0  0  0  0  0  0  0  0  0  0  0
    8.2481    0.9891    0.9129 N   0  0  0  0  0  0  0  0  0  0  0  0
    8.5624    1.6860    1.9405 C   0  0  0  0  0  0  0  0  0  0  0  0
    7.6874    2.5105    2.6667 N   0  0  0  0  0  0  0  0  0  0  0  0
    9.9243    1.6170    2.3836 N   0  0  0  0  0  0  0  0  0  0  0  0
    5.3307    2.6210   -3.5798 H   0  0  0  0  0  0  0  0  0  0  0  0
    5.6533    1.3012   -4.8471 H   0  0  0  0  0  0  0  0  0  0  0  0
    6.9075    1.8239   -3.6095 H   0  0  0  0  0  0  0  0  0  0  0  0
    4.6340    1.8302   -1.2977 H   0  0  0  0  0  0  0  0  0  0  0  0
    4.7449   -1.2253   -1.3093 H   0  0  0  0  0  0  0  0  0  0  0  0
    2.6894   -2.1265    0.1812 H   0  0  0  0  0  0  0  0  0  0  0  0
    0.5496   -2.7751   -0.3248 H   0  0  0  0  0  0  0  0  0  0  0  0
   -1.8802   -1.8628    0.0369 H   0  0  0  0  0  0  0  0  0  0  0  0
   -2.8034   -1.7700    2.2052 H   0  0  0  0  0  0  0  0  0  0  0  0
   -3.0313    0.0714   -0.8035 H   0  0  0  0  0  0  0  0  0  0  0  0
   -5.4086    1.4834    0.5415 H   0  0  0  0  0  0  0  0  0  0  0  0
   -7.2340    0.4123   -2.7367 H   0  0  0  0  0  0  0  0  0  0  0  0
   -7.5656    1.3706   -1.2024 H   0  0  0  0  0  0  0  0  0  0  0  0
   -3.5272    2.8835   -0.5319 H   0  0  0  0  0  0  0  0  0  0  0  0
   -3.7544    1.9594   -2.0123 H   0  0  0  0  0  0  0  0  0  0  0  0
   -5.1264    4.4903    0.2486 H   0  0  0  0  0  0  0  0  0  0  0  0
   -6.7015    6.2173   -0.2947 H   0  0  0  0  0  0  0  0  0  0  0  0
   -7.3923    4.3225   -4.1076 H   0  0  0  0  0  0  0  0  0  0  0  0
   -5.7703    2.5917   -3.4955 H   0  0  0  0  0  0  0  0  0  0  0  0
   -2.7153    0.1147    3.6461 H   0  0  0  0  0  0  0  0  0  0  0  0
   -1.2688    0.7668    2.8755 H   0  0  0  0  0  0  0  0  0  0  0  0
   -0.8059   -0.5569    4.8648 H   0  0  0  0  0  0  0  0  0  0  0  0
   -0.0970   -1.4889    3.5452 H   0  0  0  0  0  0  0  0  0  0  0  0
   -2.1639   -3.0070    3.6087 H   0  0  0  0  0  0  0  0  0  0  0  0
   -1.2205   -2.8570    5.1040 H   0  0  0  0  0  0  0  0  0  0  0  0
   -6.1039   -1.9702    5.8637 H   0  0  0  0  0  0  0  0  0  0  0  0
   -4.7732   -1.5828    7.0528 H   0  0  0  0  0  0  0  0  0  0  0  0
   -3.9261   -4.2023    3.9223 H   0  0  0  0  0  0  0  0  0  0  0  0
   -4.8492   -4.6094    5.3774 H   0  0  0  0  0  0  0  0  0  0  0  0
   -1.0183   -1.5320   -1.7084 H   0  0  0  0  0  0  0  0  0  0  0  0
    0.2719   -0.3771   -2.1671 H   0  0  0  0  0  0  0  0  0  0  0  0
    2.1527   -1.1953   -3.6791 H   0  0  0  0  0  0  0  0  0  0  0  0
    2.8352   -2.8713   -5.2902 H   0  0  0  0  0  0  0  0  0  0  0  0
   -0.2241   -5.4556   -3.9024 H   0  0  0  0  0  0  0  0  0  0  0  0
   -0.9112   -3.8061   -2.2918 H   0  0  0  0  0  0  0  0  0  0  0  0
    4.1862    0.6706    1.0096 H   0  0  0  0  0  0  0  0  0  0  0  0
    4.2139   -1.1619    1.0659 H   0  0  0  0  0  0  0  0  0  0  0  0
    6.2590   -0.2420    2.0416 H   0  0  0  0  0  0  0  0  0  0  0  0
    6.6971   -1.0417    0.4923 H   0  0  0  0  0  0  0  0  0  0  0  0
    6.3379    1.9395    0.9397 H   0  0  0  0  0  0  0  0  0  0  0  0
    6.8415    1.2228   -0.6282 H   0  0  0  0  0  0  0  0  0  0  0  0
    7.5841    3.5195    2.3544 H   0  0  0  0  0  0  0  0  0  0  0  0
    7.1244    2.1929    3.5044 H   0  0  0  0  0  0  0  0  0  0  0  0
   10.4294    2.4406    2.7840 H   0  0  0  0  0  0  0  0  0  0  0  0
   10.4433    0.7005    2.3051 H   0  0  0  0  0  0  0  0  0  0  0  0
  1  2  1  0
  2  3  2  0
  2  4  1  0
  4  5  1  0
  5  6  1  0
  6  7  2  0
  6  8  1  0
  8  9  1  0
  9 10  1  0
 10 11  2  0
 10 12  1  0
 12 13  1  0
 13 14  1  0
 14 15  2  0
 14 16  1  0
 16 17  1  0
 17 18  1  0
 18 19  2  0
 18 20  1  0
 17 21  1  0
 21 22  1  0
 22 23  2  0
 23 24  1  0
 24 25  2  0
 25 26  1  0
 26 27  2  0
 25 28  1  0
 13 29  1  0
 29 30  1  0
 30 31  1  0
 31 32  1  0
 32 33  2  3
 33 34  1  0
 33 35  1  0
  9 36  1  0
 36 37  1  0
 37 38  2  0
 38 39  1  0
 39 40  2  0
 40 41  1  0
 41 42  2  0
 40 43  1  0
  5 44  1  0
 44 45  1  0
 45 46  1  0
 46 47  1  0
 47 48  2  3
 48 49  1  0
 48 50  1  0
 27 22  1  0
 42 37  1  0
  1 51  1  0
  1 52  1  0
  1 53  1  0
  4 54  1  0
  5 55  1  6
  8 56  1  0
  9 57  1  1
 12 58  1  0
 13 59  1  1
 16 60  1  0
 17 61  1  1
 20 62  1  0
 20 63  1  0
 21 64  1  0
 21 65  1  0
 23 66  1  0
 24 67  1  0
 26 68  1  0
 27 69  1  0
 29 70  1  0
 29 71  1  0
 30 72  1  0
 30 73  1  0
 31 74  1  0
 31 75  1  0
 34 76  1  0
 34 77  1  0
 35 78  1  0
 35 79  1  0
 36 80  1  0
 36 81  1  0
 38 82  1  0
 39 83  1  0
 41 84  1  0
 42 85  1  0
 44 86  1  0
 44 87  1  0
 45 88  1  0
 45 89  1  0
 46 90  1  0
 46 91  1  0
 49 92  1  0
 49 93  1  0
 50 94  1  0
 50 95  1  0
M  END
>  <Ligand ID>  (1) 
LIG0000889

>  <Ligand>  (1) 
CHEMBL3287329

>  <SMILES>  (1) 
CC(=O)N[C@H](C(=O)N[C@@H](C(=O)N[C@H](C(=O)N[C@H](C(=O)N)Cc1ccc(cc1)I)CCCN=C(N)N)Cc1ccc(cc1)Cl)CCCN=C(N)N

>  <CID>  (1) 
90643809.0

>  <ChEMBL ID>  (1) 
nan

>  <InChiKey>  (1) 
XNNYSCVYNQVQJY-ASDGIDEWSA-N

>  <InChi>  (1) 
InChI=1S/C32H45ClIN11O5/c1-18(46)42-23(4-2-14-40-31(36)37)28(48)45-26(17-19-6-10-21(33)11-7-19)30(50)43-24(5-3-15-41-32(38)39)29(49)44-25(27(35)47)16-20-8-12-22(34)13-9-20/h6-13,23-26H,2-5,14-17H2,1H3,(H2,35,47)(H,42,46)(H,43,50)(H,44,49)(H,45,48)(H4,36,37,40)(H4,38,39,41)/t23-,24-,25-,26+/m0/s1

>  <IUPAC Name>  (1) 
(2S)-2-acetamido-N-[(2R)-1-[[(2S)-1-[[(2S)-1-amino-3-(4-iodophenyl)-1-oxopropan-2-yl]amino]-5-(diaminomethylideneamino)-1-oxopentan-2-yl]amino]-3-(4-chlorophenyl)-1-oxopropan-2-yl]-5-(diaminomethylideneamino)pentanamide

$$$$
