
     RDKit          3D

 30 32  0  0  0  0  0  0  0  0999 V2000
   -1.1344    2.4243   -0.1421 C   0  0  0  0  0  0  0  0  0  0  0  0
   -1.2428    0.9375   -0.1531 C   0  0  0  0  0  0  0  0  0  0  0  0
   -0.0491    0.2068   -0.2199 C   0  0  0  0  0  0  0  0  0  0  0  0
   -0.1936   -1.1607   -0.2276 C   0  0  0  0  0  0  0  0  0  0  0  0
   -1.4214   -1.7927   -0.1741 C   0  0  0  0  0  0  0  0  0  0  0  0
   -2.5834   -1.0546   -0.1088 C   0  0  0  0  0  0  0  0  0  0  0  0
   -2.4721    0.3069   -0.0994 C   0  0  0  0  0  0  0  0  0  0  0  0
   -3.5912    1.0791   -0.0359 N   0  0  0  0  0  0  0  0  0  0  0  0
   -4.8114    0.5150    0.0180 C   0  0  0  0  0  0  0  0  0  0  0  0
   -4.9345   -0.8585    0.0091 C   0  0  0  0  0  0  0  0  0  0  0  0
   -3.8100   -1.5987   -0.0544 N   0  0  0  0  0  0  0  0  0  0  0  0
    1.1992    0.8765   -0.2700 N   0  0  0  0  0  0  0  0  0  0  0  0
    2.4514    0.2114   -0.3620 C   0  0  0  0  0  0  0  0  0  0  0  0
    2.6316   -0.8268   -1.1058 N   0  0  0  0  0  0  0  0  0  0  0  0
    4.0256   -1.2733   -0.9804 C   0  0  0  0  0  0  0  0  0  0  0  0
    4.5333   -0.5820    0.2904 C   0  0  0  0  0  0  0  0  0  0  0  0
    3.6481    0.5686    0.3171 N   0  0  0  0  0  0  0  0  0  0  0  0
   -0.8235    2.7252   -1.1744 H   0  0  0  0  0  0  0  0  0  0  0  0
   -2.1284    2.8201    0.1474 H   0  0  0  0  0  0  0  0  0  0  0  0
   -0.4361    2.8025    0.6308 H   0  0  0  0  0  0  0  0  0  0  0  0
    0.6720   -1.8023   -0.2746 H   0  0  0  0  0  0  0  0  0  0  0  0
   -1.5046   -2.8693   -0.1818 H   0  0  0  0  0  0  0  0  0  0  0  0
   -5.7156    1.1209    0.0692 H   0  0  0  0  0  0  0  0  0  0  0  0
   -5.9213   -1.3429    0.0524 H   0  0  0  0  0  0  0  0  0  0  0  0
    1.1942    1.9337   -0.2339 H   0  0  0  0  0  0  0  0  0  0  0  0
    4.6253   -0.9007   -1.8264 H   0  0  0  0  0  0  0  0  0  0  0  0
    4.0736   -2.3796   -0.8656 H   0  0  0  0  0  0  0  0  0  0  0  0
    4.2992   -1.2978    1.1269 H   0  0  0  0  0  0  0  0  0  0  0  0
    5.5975   -0.3117    0.2290 H   0  0  0  0  0  0  0  0  0  0  0  0
    3.8223    1.5229    0.7532 H   0  0  0  0  0  0  0  0  0  0  0  0
  1  2  1  0
  2  3  2  0
  3  4  1  0
  4  5  2  0
  5  6  1  0
  6  7  2  0
  7  8  1  0
  8  9  2  0
  9 10  1  0
 10 11  2  0
  3 12  1  0
 12 13  1  0
 13 14  2  0
 14 15  1  0
 15 16  1  0
 16 17  1  0
  7  2  1  0
 17 13  1  0
 11  6  1  0
  1 18  1  0
  1 19  1  0
  1 20  1  0
  4 21  1  0
  5 22  1  0
  9 23  1  0
 10 24  1  0
 12 25  1  0
 15 26  1  0
 15 27  1  0
 16 28  1  0
 16 29  1  0
 17 30  1  0
M  END
>  <Ligand ID>  (1) 
LIG0003664

>  <Ligand>  (1) 
CHEMBL49137

>  <SMILES>  (1) 
Cc1c(ccc2c1nccn2)NC1=NCCN1

>  <CID>  (1) 
185076.0

>  <ChEMBL ID>  (1) 
nan

>  <InChiKey>  (1) 
QZUXRMOPAGPTIY-UHFFFAOYSA-N

>  <InChi>  (1) 
InChI=1S/C12H13N5/c1-8-9(17-12-15-6-7-16-12)2-3-10-11(8)14-5-4-13-10/h2-5H,6-7H2,1H3,(H2,15,16,17)

>  <IUPAC Name>  (1) 
N-(4,5-dihydro-1H-imidazol-2-yl)-5-methylquinoxalin-6-amine

$$$$
