
     RDKit          3D

 27 28  0  0  0  0  0  0  0  0999 V2000
    3.6265   -0.6517   -1.4730 N   0  0  0  0  0  0  0  0  0  0  0  0
    3.0917    0.3059   -0.5229 C   0  0  0  0  0  0  0  0  0  0  0  0
    1.7743   -0.1450    0.0595 C   0  0  1  0  0  0  0  0  0  0  0  0
    1.1964    0.8525    1.0629 C   0  0  0  0  0  0  0  0  0  0  0  0
    0.5139    0.5237   -0.2620 C   0  0  2  0  0  0  0  0  0  0  0  0
   -0.7659   -0.2112   -0.0858 C   0  0  0  0  0  0  0  0  0  0  0  0
   -0.8693   -1.5742   -0.0436 C   0  0  0  0  0  0  0  0  0  0  0  0
   -2.0979   -2.2149    0.1238 C   0  0  0  0  0  0  0  0  0  0  0  0
   -3.2463   -1.4636    0.2513 C   0  0  0  0  0  0  0  0  0  0  0  0
   -3.1608   -0.0864    0.2110 C   0  0  0  0  0  0  0  0  0  0  0  0
   -1.9321    0.5188    0.0443 C   0  0  0  0  0  0  0  0  0  0  0  0
   -1.8480    2.0155    0.0016 C   0  0  0  0  0  0  0  0  0  0  0  0
    4.6659   -0.6676   -1.4781 H   0  0  0  0  0  0  0  0  0  0  0  0
    3.3234   -1.5973   -1.1394 H   0  0  0  0  0  0  0  0  0  0  0  0
    3.8526    0.4075    0.2947 H   0  0  0  0  0  0  0  0  0  0  0  0
    3.0232    1.3024   -0.9839 H   0  0  0  0  0  0  0  0  0  0  0  0
    1.7569   -1.2086    0.3044 H   0  0  0  0  0  0  0  0  0  0  0  0
    0.8445    0.3743    1.9921 H   0  0  0  0  0  0  0  0  0  0  0  0
    1.6549    1.8385    1.1879 H   0  0  0  0  0  0  0  0  0  0  0  0
    0.4444    1.3328   -1.0159 H   0  0  0  0  0  0  0  0  0  0  0  0
    0.0219   -2.1780   -0.1423 H   0  0  0  0  0  0  0  0  0  0  0  0
   -2.1898   -3.2892    0.1584 H   0  0  0  0  0  0  0  0  0  0  0  0
   -4.2161   -1.9499    0.3830 H   0  0  0  0  0  0  0  0  0  0  0  0
   -4.0199    0.5570    0.3046 H   0  0  0  0  0  0  0  0  0  0  0  0
   -2.8469    2.4555    0.1559 H   0  0  0  0  0  0  0  0  0  0  0  0
   -1.1804    2.4089    0.8113 H   0  0  0  0  0  0  0  0  0  0  0  0
   -1.4171    2.3442   -0.9745 H   0  0  0  0  0  0  0  0  0  0  0  0
  1  2  1  0
  2  3  1  0
  3  4  1  0
  4  5  1  0
  5  6  1  0
  6  7  2  0
  7  8  1  0
  8  9  2  0
  9 10  1  0
 10 11  2  0
 11 12  1  0
  5  3  1  0
 11  6  1  0
  1 13  1  0
  1 14  1  0
  2 15  1  0
  2 16  1  0
  3 17  1  1
  4 18  1  0
  4 19  1  0
  5 20  1  6
  7 21  1  0
  8 22  1  0
  9 23  1  0
 10 24  1  0
 12 25  1  0
 12 26  1  0
 12 27  1  0
M  END
>  <Ligand ID>  (1) 
LIG0003854

>  <Ligand>  (1) 
CHEMBL450599

>  <SMILES>  (1) 
NC[C@H]1C[C@@H]1c1ccccc1C

>  <CID>  (1) 
44572755.0

>  <ChEMBL ID>  (1) 
nan

>  <InChiKey>  (1) 
NIZRNCXPTRPDNO-KOLCDFICSA-N

>  <InChi>  (1) 
InChI=1S/C11H15N/c1-8-4-2-3-5-10(8)11-6-9(11)7-12/h2-5,9,11H,6-7,12H2,1H3/t9-,11+/m1/s1

>  <IUPAC Name>  (1) 
[(1S,2S)-2-(2-methylphenyl)cyclopropyl]methanamine

$$$$
