
     RDKit          3D

 25 25  0  0  0  0  0  0  0  0999 V2000
    3.5165    1.4039   -0.9678 N   0  0  0  0  0  0  0  0  0  0  0  0
    2.9011    0.4140   -0.1388 C   0  0  0  0  0  0  0  0  0  0  0  0
    1.8905   -0.2782   -0.5352 N   0  0  0  0  0  0  0  0  0  0  0  0
    1.2334   -1.2809    0.2481 C   0  0  0  0  0  0  0  0  0  0  0  0
   -0.2489   -1.3083   -0.0977 C   0  0  0  0  0  0  0  0  0  0  0  0
   -0.8087    0.0621    0.2172 C   0  0  0  0  0  0  0  0  0  0  0  0
   -2.2678    0.1351   -0.0909 C   0  0  0  0  0  0  0  0  0  0  0  0
   -3.0569   -0.8764   -0.5968 C   0  0  0  0  0  0  0  0  0  0  0  0
   -4.3280   -0.4362   -0.7437 N   0  0  0  0  0  0  0  0  0  0  0  0
   -4.3367    0.8493   -0.3308 C   0  0  0  0  0  0  0  0  0  0  0  0
   -3.0923    1.2009    0.0656 N   0  0  0  0  0  0  0  0  0  0  0  0
    3.4875    0.2467    1.1629 N   0  0  0  0  0  0  0  0  0  0  0  0
    4.4866    1.2235   -1.2747 H   0  0  0  0  0  0  0  0  0  0  0  0
    2.9764    2.2678   -1.2355 H   0  0  0  0  0  0  0  0  0  0  0  0
    1.6969   -2.2783    0.0372 H   0  0  0  0  0  0  0  0  0  0  0  0
    1.2962   -1.0512    1.3275 H   0  0  0  0  0  0  0  0  0  0  0  0
   -0.6929   -2.0627    0.5670 H   0  0  0  0  0  0  0  0  0  0  0  0
   -0.4183   -1.4921   -1.1736 H   0  0  0  0  0  0  0  0  0  0  0  0
   -0.6609    0.3348    1.2831 H   0  0  0  0  0  0  0  0  0  0  0  0
   -0.2911    0.8376   -0.3791 H   0  0  0  0  0  0  0  0  0  0  0  0
   -2.7209   -1.8769   -0.8432 H   0  0  0  0  0  0  0  0  0  0  0  0
   -5.2223    1.4711   -0.3315 H   0  0  0  0  0  0  0  0  0  0  0  0
   -2.7801    2.1226    0.4340 H   0  0  0  0  0  0  0  0  0  0  0  0
    2.9201   -0.0106    2.0019 H   0  0  0  0  0  0  0  0  0  0  0  0
    4.5207    0.3825    1.3010 H   0  0  0  0  0  0  0  0  0  0  0  0
  1  2  1  0
  2  3  2  3
  3  4  1  0
  4  5  1  0
  5  6  1  0
  6  7  1  0
  7  8  2  0
  8  9  1  0
  9 10  2  0
 10 11  1  0
  2 12  1  0
 11  7  1  0
  1 13  1  0
  1 14  1  0
  4 15  1  0
  4 16  1  0
  5 17  1  0
  5 18  1  0
  6 19  1  0
  6 20  1  0
  8 21  1  0
 10 22  1  0
 11 23  1  0
 12 24  1  0
 12 25  1  0
M  END
>  <Ligand ID>  (1) 
LIG0002460

>  <Ligand>  (1) 
46129-28-6

>  <SMILES>  (1) 
NC(=NCCCc1cnc[nH]1)N

>  <CID>  (1) 
182527.0

>  <ChEMBL ID>  (1) 
nan

>  <InChiKey>  (1) 
VKPJPAPCRZIUMA-UHFFFAOYSA-N

>  <InChi>  (1) 
InChI=1S/C7H13N5/c8-7(9)11-3-1-2-6-4-10-5-12-6/h4-5H,1-3H2,(H,10,12)(H4,8,9,11)

>  <IUPAC Name>  (1) 
2-[3-(1H-imidazol-5-yl)propyl]guanidine

$$$$
