
     RDKit          3D

 57 61  0  0  0  0  0  0  0  0999 V2000
    6.9206    3.4852   -0.3485 N   0  0  0  0  0  0  0  0  0  0  0  0
    7.5481    2.5525   -0.0789 C   0  0  0  0  0  0  0  0  0  0  0  0
    8.3139    1.3919    0.2763 C   0  0  0  0  0  0  0  0  0  0  0  0
    9.5585    1.5730    0.8714 C   0  0  0  0  0  0  0  0  0  0  0  0
   10.2678    0.4587    1.2003 N   0  0  0  0  0  0  0  0  0  0  0  0
    9.7927   -0.7799    0.9633 C   0  0  0  0  0  0  0  0  0  0  0  0
    8.5579   -1.0043    0.3724 C   0  0  0  0  0  0  0  0  0  0  0  0
    7.8206    0.1270    0.0304 C   0  0  0  0  0  0  0  0  0  0  0  0
    6.4719   -0.0609   -0.6143 C   0  0  0  0  0  0  0  0  0  0  0  0
    5.5068    0.1923    0.3581 O   0  0  0  0  0  0  0  0  0  0  0  0
    4.1436    0.1196    0.1405 C   0  0  0  0  0  0  0  0  0  0  0  0
    3.6007   -0.2217   -1.1030 C   0  0  0  0  0  0  0  0  0  0  0  0
    2.2458   -0.2785   -1.2627 N   0  0  0  0  0  0  0  0  0  0  0  0
    1.4128   -0.0109   -0.2406 C   0  0  0  0  0  0  0  0  0  0  0  0
    1.9187    0.3185    0.9603 N   0  0  0  0  0  0  0  0  0  0  0  0
    3.2676    0.3876    1.1660 C   0  0  0  0  0  0  0  0  0  0  0  0
    0.0048   -0.0756   -0.4255 N   0  0  0  0  0  0  0  0  0  0  0  0
   -0.6290   -0.4170   -1.6683 C   0  0  0  0  0  0  0  0  0  0  0  0
   -1.9318   -1.1602   -1.4681 C   0  0  0  0  0  0  0  0  0  0  0  0
   -2.8380   -0.4217   -0.6120 N   0  0  0  0  0  0  0  0  0  0  0  0
   -2.2571    0.6230    0.2113 C   0  0  0  0  0  0  0  0  0  0  0  0
   -0.8836    0.2198    0.7050 C   0  0  1  0  0  0  0  0  0  0  0  0
   -0.9051   -0.9164    1.6796 C   0  0  0  0  0  0  0  0  0  0  0  0
   -4.2156   -0.6872   -0.5614 C   0  0  0  0  0  0  0  0  0  0  0  0
   -4.9318   -1.6337   -1.1920 N   0  0  0  0  0  0  0  0  0  0  0  0
   -6.1954   -1.5368   -0.8715 O   0  0  0  0  0  0  0  0  0  0  0  0
   -6.3489   -0.5251   -0.0217 C   0  0  0  0  0  0  0  0  0  0  0  0
   -5.1232    0.0007    0.1703 N   0  0  0  0  0  0  0  0  0  0  0  0
   -7.5654   -0.0169    0.6231 C   0  0  0  0  0  0  0  0  0  0  0  0
   -8.8210   -0.7832    0.2736 C   0  0  0  0  0  0  0  0  0  0  0  0
   -7.4358    0.3687    2.0632 C   0  0  0  0  0  0  0  0  0  0  0  0
   -7.1765    1.6821    1.6467 O   0  0  0  0  0  0  0  0  0  0  0  0
   -7.7626    1.4850    0.4056 C   0  0  0  0  0  0  0  0  0  0  0  0
    9.9673    2.5606    1.0745 H   0  0  0  0  0  0  0  0  0  0  0  0
   10.4312   -1.6063    1.2603 H   0  0  0  0  0  0  0  0  0  0  0  0
    8.1907   -1.9966    0.1889 H   0  0  0  0  0  0  0  0  0  0  0  0
    6.3299    0.7341   -1.4060 H   0  0  0  0  0  0  0  0  0  0  0  0
    6.3986   -1.0155   -1.1386 H   0  0  0  0  0  0  0  0  0  0  0  0
    4.2808   -0.4346   -1.9169 H   0  0  0  0  0  0  0  0  0  0  0  0
    3.6637    0.6525    2.1335 H   0  0  0  0  0  0  0  0  0  0  0  0
    0.0282   -1.0934   -2.2497 H   0  0  0  0  0  0  0  0  0  0  0  0
   -0.8252    0.4840   -2.3113 H   0  0  0  0  0  0  0  0  0  0  0  0
   -1.7537   -2.1933   -1.1354 H   0  0  0  0  0  0  0  0  0  0  0  0
   -2.4103   -1.2179   -2.4730 H   0  0  0  0  0  0  0  0  0  0  0  0
   -2.8634    0.8156    1.1133 H   0  0  0  0  0  0  0  0  0  0  0  0
   -2.1442    1.5690   -0.3539 H   0  0  0  0  0  0  0  0  0  0  0  0
   -0.4540    1.1133    1.2023 H   0  0  0  0  0  0  0  0  0  0  0  0
   -0.3841   -1.8129    1.3039 H   0  0  0  0  0  0  0  0  0  0  0  0
   -0.4155   -0.6693    2.6492 H   0  0  0  0  0  0  0  0  0  0  0  0
   -1.9779   -1.1482    1.9048 H   0  0  0  0  0  0  0  0  0  0  0  0
   -9.1015   -0.6910   -0.7748 H   0  0  0  0  0  0  0  0  0  0  0  0
   -8.6559   -1.8471    0.5444 H   0  0  0  0  0  0  0  0  0  0  0  0
   -9.6247   -0.3569    0.9218 H   0  0  0  0  0  0  0  0  0  0  0  0
   -8.3884    0.2183    2.6124 H   0  0  0  0  0  0  0  0  0  0  0  0
   -6.6002   -0.1096    2.5988 H   0  0  0  0  0  0  0  0  0  0  0  0
   -8.8253    1.7898    0.3450 H   0  0  0  0  0  0  0  0  0  0  0  0
   -7.1984    1.7993   -0.4770 H   0  0  0  0  0  0  0  0  0  0  0  0
  1  2  3  0
  2  3  1  0
  3  4  2  0
  4  5  1  0
  5  6  2  0
  6  7  1  0
  7  8  2  0
  8  9  1  0
  9 10  1  0
 10 11  1  0
 11 12  2  0
 12 13  1  0
 13 14  2  0
 14 15  1  0
 15 16  2  0
 14 17  1  0
 17 18  1  0
 18 19  1  0
 19 20  1  0
 20 21  1  0
 21 22  1  0
 22 23  1  0
 20 24  1  0
 24 25  2  0
 25 26  1  0
 26 27  1  0
 27 28  2  0
 27 29  1  0
 29 30  1  0
 29 31  1  0
 31 32  1  0
 32 33  1  0
  8  3  1  0
 16 11  1  0
 22 17  1  0
 28 24  1  0
 33 29  1  0
  4 34  1  0
  6 35  1  0
  7 36  1  0
  9 37  1  0
  9 38  1  0
 12 39  1  0
 16 40  1  0
 18 41  1  0
 18 42  1  0
 19 43  1  0
 19 44  1  0
 21 45  1  0
 21 46  1  0
 22 47  1  1
 23 48  1  0
 23 49  1  0
 23 50  1  0
 30 51  1  0
 30 52  1  0
 30 53  1  0
 31 54  1  0
 31 55  1  0
 33 56  1  0
 33 57  1  0
M  END
>  <Ligand ID>  (1) 
LIG0005316

>  <Ligand>  (1) 
SCHEMBL1447914

>  <SMILES>  (1) 
N#Cc1cnccc1COc1cnc(nc1)N1CCN(C[C@H]1C)c1noc(n1)C1(C)COC1

>  <CID>  (1) 
58190329.0

>  <ChEMBL ID>  (1) 
nan

>  <InChiKey>  (1) 
KDUFKSXCNQIELO-OAHLLOKOSA-N

>  <InChi>  (1) 
InChI=1S/C22H24N8O3/c1-15-11-29(21-27-19(33-28-21)22(2)13-31-14-22)5-6-30(15)20-25-9-18(10-26-20)32-12-16-3-4-24-8-17(16)7-23/h3-4,8-10,15H,5-6,11-14H2,1-2H3/t15-/m1/s1

>  <IUPAC Name>  (1) 
4-[[2-[(2R)-2-methyl-4-[5-(3-methyloxetan-3-yl)-1,2,4-oxadiazol-3-yl]piperazin-1-yl]pyrimidin-5-yl]oxymethyl]pyridine-3-carbonitrile

$$$$
