
     RDKit          3D

 63 65  0  0  0  0  0  0  0  0999 V2000
    2.3803   -1.1171   -1.9226 C   0  0  0  0  0  0  0  0  0  0  0  0
    3.0809   -1.1703   -0.5520 C   0  0  2  0  0  0  0  0  0  0  0  0
    2.2479   -1.9525    0.3847 C   0  0  0  0  0  0  0  0  0  0  0  0
    0.8871   -1.4612    0.6421 C   0  0  0  0  0  0  0  0  0  0  0  0
    0.5326   -0.6031    1.6578 C   0  0  0  0  0  0  0  0  0  0  0  0
   -0.7891   -0.2277    1.7797 C   0  0  0  0  0  0  0  0  0  0  0  0
   -1.7854   -0.6665    0.9349 C   0  0  0  0  0  0  0  0  0  0  0  0
   -1.4312   -1.5245   -0.0815 C   0  0  0  0  0  0  0  0  0  0  0  0
   -0.1156   -1.9147   -0.2241 C   0  0  0  0  0  0  0  0  0  0  0  0
   -3.1552   -0.2192    1.1533 C   0  0  0  0  0  0  0  0  0  0  0  0
   -3.5676    0.0275    2.4393 C   0  0  0  0  0  0  0  0  0  0  0  0
   -4.8377    0.4510    2.7359 C   0  0  0  0  0  0  0  0  0  0  0  0
   -5.7514    0.6409    1.6963 C   0  0  0  0  0  0  0  0  0  0  0  0
   -5.3837    0.4058    0.3818 C   0  0  0  0  0  0  0  0  0  0  0  0
   -4.0555   -0.0309    0.1424 C   0  0  0  0  0  0  0  0  0  0  0  0
   -6.1769    0.5624   -0.6163 O   0  0  0  0  0  0  0  0  0  0  0  0
   -6.9765    0.7203   -1.6223 C   0  0  0  0  0  0  0  0  0  0  0  0
   -7.2362   -0.5351   -2.4833 C   0  0  0  0  0  0  0  0  0  0  0  0
   -6.5086    1.7744   -2.6447 C   0  0  0  0  0  0  0  0  0  0  0  0
   -7.0764    1.0908    2.0891 C   0  0  0  0  0  0  0  0  0  0  0  0
   -8.0192    1.3147    1.2939 O   0  0  0  0  0  0  0  0  0  0  0  0
   -7.3812    1.3077    3.4468 O   0  0  0  0  0  0  0  0  0  0  0  0
    3.4595    0.1337   -0.2390 N   0  0  0  0  0  0  0  0  0  0  0  0
    4.1572    0.4500    0.9248 C   0  0  0  0  0  0  0  0  0  0  0  0
    5.5475   -0.0049    1.1048 C   0  0  1  0  0  0  0  0  0  0  0  0
    6.5432    0.4752    0.1552 C   0  0  0  0  0  0  0  0  0  0  0  0
    7.8946    0.3662    0.5035 C   0  0  0  0  0  0  0  0  0  0  0  0
    8.8933    0.7975   -0.3425 C   0  0  0  0  0  0  0  0  0  0  0  0
    8.6191    1.3648   -1.5884 C   0  0  0  0  0  0  0  0  0  0  0  0
    7.2840    1.4674   -1.9215 C   0  0  0  0  0  0  0  0  0  0  0  0
    6.2864    1.0354   -1.0739 C   0  0  0  0  0  0  0  0  0  0  0  0
    5.9517    0.4845    2.3753 O   0  0  0  0  0  0  0  0  0  0  0  0
    2.1884   -2.1077   -2.3347 H   0  0  0  0  0  0  0  0  0  0  0  0
    2.9705   -0.5314   -2.6477 H   0  0  0  0  0  0  0  0  0  0  0  0
    1.4039   -0.5863   -1.8361 H   0  0  0  0  0  0  0  0  0  0  0  0
    3.9958   -1.7711   -0.7627 H   0  0  0  0  0  0  0  0  0  0  0  0
    2.8176   -2.1300    1.3460 H   0  0  0  0  0  0  0  0  0  0  0  0
    2.1816   -3.0011   -0.0338 H   0  0  0  0  0  0  0  0  0  0  0  0
    1.2940   -0.2459    2.3353 H   0  0  0  0  0  0  0  0  0  0  0  0
   -1.0191    0.4576    2.6062 H   0  0  0  0  0  0  0  0  0  0  0  0
   -2.2251   -1.8582   -0.7337 H   0  0  0  0  0  0  0  0  0  0  0  0
    0.1326   -2.5914   -1.0330 H   0  0  0  0  0  0  0  0  0  0  0  0
   -2.8753   -0.1154    3.2372 H   0  0  0  0  0  0  0  0  0  0  0  0
   -5.0954    0.6263    3.7699 H   0  0  0  0  0  0  0  0  0  0  0  0
   -3.7279   -0.2239   -0.8658 H   0  0  0  0  0  0  0  0  0  0  0  0
   -8.0114    1.0738   -1.3585 H   0  0  0  0  0  0  0  0  0  0  0  0
   -7.7243   -0.1740   -3.3918 H   0  0  0  0  0  0  0  0  0  0  0  0
   -7.9461   -1.1779   -1.9516 H   0  0  0  0  0  0  0  0  0  0  0  0
   -6.2765   -1.0137   -2.7415 H   0  0  0  0  0  0  0  0  0  0  0  0
   -7.3490    1.9510   -3.3293 H   0  0  0  0  0  0  0  0  0  0  0  0
   -5.6527    1.3252   -3.1746 H   0  0  0  0  0  0  0  0  0  0  0  0
   -6.2945    2.6925   -2.0927 H   0  0  0  0  0  0  0  0  0  0  0  0
   -8.2735    1.7261    3.7272 H   0  0  0  0  0  0  0  0  0  0  0  0
    2.9100    0.9118   -0.6063 H   0  0  0  0  0  0  0  0  0  0  0  0
    3.5893    0.1255    1.8413 H   0  0  0  0  0  0  0  0  0  0  0  0
    4.1676    1.5769    1.0282 H   0  0  0  0  0  0  0  0  0  0  0  0
    5.6105   -1.1228    1.2462 H   0  0  0  0  0  0  0  0  0  0  0  0
    8.1467   -0.0693    1.4654 H   0  0  0  0  0  0  0  0  0  0  0  0
    9.9098    0.6725    0.0087 H   0  0  0  0  0  0  0  0  0  0  0  0
    9.3946    1.6943   -2.2327 H   0  0  0  0  0  0  0  0  0  0  0  0
    7.0568    1.9058   -2.8891 H   0  0  0  0  0  0  0  0  0  0  0  0
    5.2598    1.1438   -1.3925 H   0  0  0  0  0  0  0  0  0  0  0  0
    5.9235    1.4889    2.2672 H   0  0  0  0  0  0  0  0  0  0  0  0
  1  2  1  0
  2  3  1  0
  3  4  1  0
  4  5  2  0
  5  6  1  0
  6  7  2  0
  7  8  1  0
  8  9  2  0
  7 10  1  0
 10 11  2  0
 11 12  1  0
 12 13  2  0
 13 14  1  0
 14 15  2  0
 14 16  1  0
 16 17  1  0
 17 18  1  0
 17 19  1  0
 13 20  1  0
 20 21  2  0
 20 22  1  0
  2 23  1  0
 23 24  1  0
 24 25  1  0
 25 26  1  0
 26 27  2  0
 27 28  1  0
 28 29  2  0
 29 30  1  0
 30 31  2  0
 25 32  1  0
  9  4  1  0
 15 10  1  0
 31 26  1  0
  1 33  1  0
  1 34  1  0
  1 35  1  0
  2 36  1  6
  3 37  1  0
  3 38  1  0
  5 39  1  0
  6 40  1  0
  8 41  1  0
  9 42  1  0
 11 43  1  0
 12 44  1  0
 15 45  1  0
 17 46  1  0
 18 47  1  0
 18 48  1  0
 18 49  1  0
 19 50  1  0
 19 51  1  0
 19 52  1  0
 22 53  1  0
 23 54  1  0
 24 55  1  0
 24 56  1  0
 25 57  1  1
 27 58  1  0
 28 59  1  0
 29 60  1  0
 30 61  1  0
 31 62  1  0
 32 63  1  0
M  END
>  <Ligand ID>  (1) 
LIG0001105

>  <Ligand>  (1) 
CHEMBL486051

>  <SMILES>  (1) 
C[C@H](Cc1ccc(cc1)c1ccc(c(c1)OC(C)C)C(=O)O)NC[C@@H](c1ccccc1)O

>  <CID>  (1) 
24895361.0

>  <ChEMBL ID>  (1) 
nan

>  <InChiKey>  (1) 
KCTBUMIGOBQWOE-CLOONOSVSA-N

>  <InChi>  (1) 
InChI=1S/C27H31NO4/c1-18(2)32-26-16-23(13-14-24(26)27(30)31)21-11-9-20(10-12-21)15-19(3)28-17-25(29)22-7-5-4-6-8-22/h4-14,16,18-19,25,28-29H,15,17H2,1-3H3,(H,30,31)/t19-,25+/m1/s1

>  <IUPAC Name>  (1) 
4-[4-[(2R)-2-[[(2R)-2-hydroxy-2-phenylethyl]amino]propyl]phenyl]-2-propan-2-yloxybenzoic acid

$$$$
