
     RDKit          3D

 23 23  0  0  0  0  0  0  0  0999 V2000
    3.3473   -0.0970   -0.4978 O   0  0  0  0  0  0  0  0  0  0  0  0
    2.5527   -0.6297    0.2626 C   0  0  0  0  0  0  0  0  0  0  0  0
    1.1093   -0.2549    0.3244 C   0  0  0  0  0  0  0  0  0  0  0  0
    0.3004   -1.4591   -0.0045 C   0  0  0  0  0  0  0  0  0  0  0  0
   -1.1502   -1.3276    0.3769 C   0  0  0  0  0  0  0  0  0  0  0  0
   -1.8322   -0.1710   -0.3012 C   0  0  0  0  0  0  0  0  0  0  0  0
   -1.3798    1.0647    0.4221 C   0  0  0  0  0  0  0  0  0  0  0  0
   -0.3053    1.7257   -0.3984 C   0  0  0  0  0  0  0  0  0  0  0  0
    0.9206    0.9130   -0.5851 C   0  0  0  0  0  0  0  0  0  0  0  0
    2.9597   -1.4054    0.9039 H   0  0  0  0  0  0  0  0  0  0  0  0
    0.9306    0.0088    1.3912 H   0  0  0  0  0  0  0  0  0  0  0  0
    0.6904   -2.2970    0.6254 H   0  0  0  0  0  0  0  0  0  0  0  0
    0.4014   -1.6913   -1.0790 H   0  0  0  0  0  0  0  0  0  0  0  0
   -1.6925   -2.2371    0.1037 H   0  0  0  0  0  0  0  0  0  0  0  0
   -1.2284   -1.1967    1.4789 H   0  0  0  0  0  0  0  0  0  0  0  0
   -1.5652   -0.1183   -1.3768 H   0  0  0  0  0  0  0  0  0  0  0  0
   -2.9340   -0.3190   -0.2598 H   0  0  0  0  0  0  0  0  0  0  0  0
   -0.9573    0.8665    1.4288 H   0  0  0  0  0  0  0  0  0  0  0  0
   -2.2101    1.7920    0.5266 H   0  0  0  0  0  0  0  0  0  0  0  0
   -0.1122    2.7044    0.0907 H   0  0  0  0  0  0  0  0  0  0  0  0
   -0.7159    1.9797   -1.4033 H   0  0  0  0  0  0  0  0  0  0  0  0
    1.8090    1.5874   -0.3999 H   0  0  0  0  0  0  0  0  0  0  0  0
    1.0616    0.5617   -1.6294 H   0  0  0  0  0  0  0  0  0  0  0  0
  1  2  2  0
  2  3  1  0
  3  4  1  0
  4  5  1  0
  5  6  1  0
  6  7  1  0
  7  8  1  0
  8  9  1  0
  9  3  1  0
  2 10  1  0
  3 11  1  0
  4 12  1  0
  4 13  1  0
  5 14  1  0
  5 15  1  0
  6 16  1  0
  6 17  1  0
  7 18  1  0
  7 19  1  0
  8 20  1  0
  8 21  1  0
  9 22  1  0
  9 23  1  0
M  END
>  <Ligand ID>  (1) 
LIG0005054

>  <Ligand>  (1) 
cycloheptanecarbaldehyde

>  <SMILES>  (1) 
O=CC1CCCCCC1

>  <CID>  (1) 
77961.0

>  <ChEMBL ID>  (1) 
nan

>  <InChiKey>  (1) 
UGBFRCHGZFHSBC-UHFFFAOYSA-N

>  <InChi>  (1) 
InChI=1S/C8H14O/c9-7-8-5-3-1-2-4-6-8/h7-8H,1-6H2

>  <IUPAC Name>  (1) 
cycloheptanecarbaldehyde

$$$$
