
     RDKit          3D

 52 54  0  0  0  0  0  0  0  0999 V2000
    8.1873   -2.8914    1.2423 C   0  0  0  0  0  0  0  0  0  0  0  0
    7.2761   -1.7449    0.9985 C   0  0  0  0  0  0  0  0  0  0  0  0
    7.3126   -0.7962    1.8518 O   0  0  0  0  0  0  0  0  0  0  0  0
    6.3989   -1.6762   -0.1141 N   0  0  0  0  0  0  0  0  0  0  0  0
    5.5447   -0.5471   -0.2970 C   0  0  0  0  0  0  0  0  0  0  0  0
    6.0537    0.4987   -1.0329 C   0  0  0  0  0  0  0  0  0  0  0  0
    5.2631    1.5916   -1.2262 C   0  0  0  0  0  0  0  0  0  0  0  0
    3.9732    1.6519   -0.6943 C   0  0  0  0  0  0  0  0  0  0  0  0
    3.4788    0.5946    0.0408 C   0  0  0  0  0  0  0  0  0  0  0  0
    4.2734   -0.5385    0.2521 C   0  0  0  0  0  0  0  0  0  0  0  0
    3.0483    3.1372   -1.0218 S   0  0  0  0  0  0  0  0  0  0  0  0
    1.4048    3.1320   -0.3038 C   0  0  0  0  0  0  0  0  0  0  0  0
    0.5244    2.1066   -0.9228 C   0  0  0  0  0  0  0  0  0  0  0  0
    0.9004    1.3394   -1.8321 O   0  0  0  0  0  0  0  0  0  0  0  0
   -0.8472    1.9956   -0.4399 C   0  0  0  0  0  0  0  0  0  0  0  0
   -1.4600    2.7513    0.5577 C   0  0  0  0  0  0  0  0  0  0  0  0
   -2.7635    2.3187    0.6965 C   0  0  0  0  0  0  0  0  0  0  0  0
   -2.9697    1.3098   -0.1958 N   0  0  0  0  0  0  0  0  0  0  0  0
   -1.8062    1.1258   -0.8740 C   0  0  0  0  0  0  0  0  0  0  0  0
   -1.6833    0.0856   -1.9380 C   0  0  0  0  0  0  0  0  0  0  0  0
   -4.2176    0.6298   -0.3238 C   0  0  0  0  0  0  0  0  0  0  0  0
   -4.3561   -0.5782    0.5631 C   0  0  0  0  0  0  0  0  0  0  0  0
   -5.7501   -1.1055    0.2347 C   0  0  0  0  0  0  0  0  0  0  0  0
   -6.3508   -2.1661    0.7577 C   0  0  0  0  0  0  0  0  0  0  0  0
   -7.6001   -2.4884    0.3442 C   0  0  0  0  0  0  0  0  0  0  0  0
   -8.1634   -1.6939   -0.5914 C   0  0  0  0  0  0  0  0  0  0  0  0
   -6.8616   -0.3923   -0.9303 S   0  0  0  0  0  0  0  0  0  0  0  0
   -3.7290    2.8950    1.6702 C   0  0  0  0  0  0  0  0  0  0  0  0
    9.2125   -2.4894    1.4457 H   0  0  0  0  0  0  0  0  0  0  0  0
    8.2287   -3.4976    0.3240 H   0  0  0  0  0  0  0  0  0  0  0  0
    7.8981   -3.5015    2.1231 H   0  0  0  0  0  0  0  0  0  0  0  0
    6.3986   -2.4697   -0.7872 H   0  0  0  0  0  0  0  0  0  0  0  0
    7.0541    0.4504   -1.4447 H   0  0  0  0  0  0  0  0  0  0  0  0
    5.6654    2.4105   -1.8040 H   0  0  0  0  0  0  0  0  0  0  0  0
    2.4706    0.6585    0.4484 H   0  0  0  0  0  0  0  0  0  0  0  0
    3.8998   -1.3700    0.8236 H   0  0  0  0  0  0  0  0  0  0  0  0
    0.9734    4.1433   -0.4289 H   0  0  0  0  0  0  0  0  0  0  0  0
    1.5062    2.9809    0.7926 H   0  0  0  0  0  0  0  0  0  0  0  0
   -0.9322    3.5348    1.0934 H   0  0  0  0  0  0  0  0  0  0  0  0
   -2.3907   -0.7678   -1.7299 H   0  0  0  0  0  0  0  0  0  0  0  0
   -1.9435    0.4525   -2.9425 H   0  0  0  0  0  0  0  0  0  0  0  0
   -0.6775   -0.3841   -1.8826 H   0  0  0  0  0  0  0  0  0  0  0  0
   -4.2938    0.2473   -1.3765 H   0  0  0  0  0  0  0  0  0  0  0  0
   -5.1033    1.2603   -0.1805 H   0  0  0  0  0  0  0  0  0  0  0  0
   -3.6774   -1.4017    0.3402 H   0  0  0  0  0  0  0  0  0  0  0  0
   -4.4316   -0.3126    1.6381 H   0  0  0  0  0  0  0  0  0  0  0  0
   -5.8384   -2.7991    1.5370 H   0  0  0  0  0  0  0  0  0  0  0  0
   -8.1529   -3.3670    0.7478 H   0  0  0  0  0  0  0  0  0  0  0  0
   -9.1196   -1.6670   -1.1260 H   0  0  0  0  0  0  0  0  0  0  0  0
   -3.2855    2.8800    2.7080 H   0  0  0  0  0  0  0  0  0  0  0  0
   -4.6465    2.3111    1.7580 H   0  0  0  0  0  0  0  0  0  0  0  0
   -3.8954    3.9715    1.4515 H   0  0  0  0  0  0  0  0  0  0  0  0
  1  2  1  0
  2  3  2  0
  2  4  1  0
  4  5  1  0
  5  6  2  0
  6  7  1  0
  7  8  2  0
  8  9  1  0
  9 10  2  0
  8 11  1  0
 11 12  1  0
 12 13  1  0
 13 14  2  0
 13 15  1  0
 15 16  1  0
 16 17  2  0
 17 18  1  0
 18 19  1  0
 19 20  1  0
 18 21  1  0
 21 22  1  0
 22 23  1  0
 23 24  2  0
 24 25  1  0
 25 26  2  0
 26 27  1  0
 17 28  1  0
 10  5  1  0
 19 15  2  0
 27 23  1  0
  1 29  1  0
  1 30  1  0
  1 31  1  0
  4 32  1  0
  6 33  1  0
  7 34  1  0
  9 35  1  0
 10 36  1  0
 12 37  1  0
 12 38  1  0
 16 39  1  0
 20 40  1  0
 20 41  1  0
 20 42  1  0
 21 43  1  0
 21 44  1  0
 22 45  1  0
 22 46  1  0
 24 47  1  0
 25 48  1  0
 26 49  1  0
 28 50  1  0
 28 51  1  0
 28 52  1  0
M  END
>  <Ligand ID>  (1) 
LIG0003732

>  <Ligand>  (1) 
AC1P9QJ2

>  <SMILES>  (1) 
CC(=O)Nc1ccc(cc1)SCC(=O)c1cc(n(c1C)CCc1cccs1)C

>  <CID>  (1) 
8565517.0

>  <ChEMBL ID>  (1) 
nan

>  <InChiKey>  (1) 
XSUVKKAGEGBNBT-UHFFFAOYSA-N

>  <InChi>  (1) 
InChI=1S/C22H24N2O2S2/c1-15-13-21(16(2)24(15)11-10-19-5-4-12-27-19)22(26)14-28-20-8-6-18(7-9-20)23-17(3)25/h4-9,12-13H,10-11,14H2,1-3H3,(H,23,25)

>  <IUPAC Name>  (1) 
N-[4-[2-[2,5-dimethyl-1-(2-thiophen-2-ylethyl)pyrrol-3-yl]-2-oxoethyl]sulfanylphenyl]acetamide

$$$$
