
     RDKit          3D

 76 83  0  0  0  0  0  0  0  0999 V2000
    3.0111   -2.7568    0.6043 C   0  0  0  0  0  0  0  0  0  0  0  0
    2.5797   -1.5576    0.3561 O   0  0  0  0  0  0  0  0  0  0  0  0
    1.4343   -1.1084   -0.1324 C   0  0  2  0  0  0  0  0  0  0  0  0
    1.0263   -1.5587   -1.4966 C   0  0  0  0  0  0  0  0  0  0  0  0
   -0.3030   -0.9100   -1.8473 C   0  0  0  0  0  0  0  0  0  0  0  0
   -0.8705   -0.2018   -0.6696 C   0  0  2  0  0  0  0  0  0  0  0  0
    0.0438    0.8937   -0.2365 C   0  0  0  0  0  0  0  0  0  0  0  0
    1.4437    0.4091    0.0363 C   0  0  2  0  0  0  0  0  0  0  0  0
    2.5037    1.2465   -0.4429 C   0  0  2  0  0  0  0  0  0  0  0  0
    3.9115    1.1059   -0.0048 C   0  0  0  0  0  0  0  0  0  0  0  0
    4.2882    1.2511    1.3957 C   0  0  0  0  0  0  0  0  0  0  0  0
    5.6828    1.9029    1.4128 C   0  0  0  0  0  0  0  0  0  0  0  0
    5.4459    2.9743    0.3909 C   0  0  0  0  0  0  0  0  0  0  0  0
    4.6729    2.2374   -0.6759 C   0  0  0  0  0  0  0  0  0  0  0  0
    2.2105    2.5590    0.0937 O   0  0  0  0  0  0  0  0  0  0  0  0
    2.5815    1.5304   -1.9206 C   0  0  0  0  0  0  0  0  0  0  0  0
   -0.9786   -1.1440    0.5126 C   0  0  2  0  0  0  0  0  0  0  0  0
    0.4023   -1.6041    0.8515 C   0  0  1  0  0  0  0  0  0  0  0  0
    0.2887   -3.0176    0.8671 O   0  0  0  0  0  0  0  0  0  0  0  0
   -0.8093   -3.4700    0.1512 C   0  0  0  0  0  0  0  0  0  0  0  0
   -1.5542   -2.3632   -0.1109 C   0  0  0  0  0  0  0  0  0  0  0  0
   -2.7078   -2.2620   -0.7907 C   0  0  0  0  0  0  0  0  0  0  0  0
   -3.2590   -0.8994   -1.0018 C   0  0  0  0  0  0  0  0  0  0  0  0
   -2.2836    0.2200   -0.9200 C   0  0  1  0  0  0  0  0  0  0  0  0
   -2.6649    1.1764    0.1549 N   0  0  0  0  0  0  0  0  0  0  0  0
   -2.7585    0.4429    1.3475 C   0  0  0  0  0  0  0  0  0  0  0  0
   -1.8319   -0.6840    1.6068 C   0  0  0  0  0  0  0  0  0  0  0  0
   -3.8370    1.8361   -0.2693 C   0  0  0  0  0  0  0  0  0  0  0  0
   -4.4213    2.8936    0.5974 C   0  0  0  0  0  0  0  0  0  0  0  0
   -4.9198    2.7390    1.9550 C   0  0  0  0  0  0  0  0  0  0  0  0
   -5.9344    2.7676    0.8649 C   0  0  0  0  0  0  0  0  0  0  0  0
   -3.2339   -3.4312   -1.2960 C   0  0  0  0  0  0  0  0  0  0  0  0
   -2.5336   -4.6261   -1.0685 C   0  0  0  0  0  0  0  0  0  0  0  0
   -1.3280   -4.6499   -0.3504 C   0  0  0  0  0  0  0  0  0  0  0  0
   -0.6259   -5.8176   -0.1190 O   0  0  0  0  0  0  0  0  0  0  0  0
    2.4276   -3.3098    1.3619 H   0  0  0  0  0  0  0  0  0  0  0  0
    3.1706   -3.4741   -0.2222 H   0  0  0  0  0  0  0  0  0  0  0  0
    4.0439   -2.6820    1.0777 H   0  0  0  0  0  0  0  0  0  0  0  0
    1.7845   -1.4802   -2.2834 H   0  0  0  0  0  0  0  0  0  0  0  0
    0.7964   -2.6526   -1.4445 H   0  0  0  0  0  0  0  0  0  0  0  0
   -0.0846   -0.1332   -2.6157 H   0  0  0  0  0  0  0  0  0  0  0  0
   -0.9792   -1.6207   -2.3587 H   0  0  0  0  0  0  0  0  0  0  0  0
   -0.0162    1.6726   -1.0131 H   0  0  0  0  0  0  0  0  0  0  0  0
   -0.4501    1.3809    0.6498 H   0  0  0  0  0  0  0  0  0  0  0  0
    1.5058    0.4323    1.1853 H   0  0  0  0  0  0  0  0  0  0  0  0
    4.3246    0.1627   -0.4200 H   0  0  0  0  0  0  0  0  0  0  0  0
    3.6814    1.9271    2.0143 H   0  0  0  0  0  0  0  0  0  0  0  0
    4.5317    0.2741    1.8683 H   0  0  0  0  0  0  0  0  0  0  0  0
    6.4495    1.1974    0.9787 H   0  0  0  0  0  0  0  0  0  0  0  0
    5.9717    2.2534    2.4029 H   0  0  0  0  0  0  0  0  0  0  0  0
    4.8644    3.7869    0.8802 H   0  0  0  0  0  0  0  0  0  0  0  0
    6.4217    3.3347    0.0223 H   0  0  0  0  0  0  0  0  0  0  0  0
    4.0012    3.0380   -1.0830 H   0  0  0  0  0  0  0  0  0  0  0  0
    5.4139    1.8986   -1.4209 H   0  0  0  0  0  0  0  0  0  0  0  0
    1.2546    2.6735    0.2254 H   0  0  0  0  0  0  0  0  0  0  0  0
    2.3353    2.5978   -2.1936 H   0  0  0  0  0  0  0  0  0  0  0  0
    3.6415    1.4686   -2.3333 H   0  0  0  0  0  0  0  0  0  0  0  0
    2.0626    0.8195   -2.5722 H   0  0  0  0  0  0  0  0  0  0  0  0
    0.6693   -1.2546    1.8908 H   0  0  0  0  0  0  0  0  0  0  0  0
   -3.7477   -0.8789   -2.0267 H   0  0  0  0  0  0  0  0  0  0  0  0
   -4.1253   -0.8423   -0.3066 H   0  0  0  0  0  0  0  0  0  0  0  0
   -2.3113    0.8158   -1.8512 H   0  0  0  0  0  0  0  0  0  0  0  0
   -3.8277    0.0782    1.4358 H   0  0  0  0  0  0  0  0  0  0  0  0
   -2.6779    1.1105    2.2685 H   0  0  0  0  0  0  0  0  0  0  0  0
   -1.2524   -0.5386    2.5819 H   0  0  0  0  0  0  0  0  0  0  0  0
   -2.4773   -1.5775    1.9048 H   0  0  0  0  0  0  0  0  0  0  0  0
   -3.6987    2.3341   -1.2885 H   0  0  0  0  0  0  0  0  0  0  0  0
   -4.6287    1.0598   -0.5279 H   0  0  0  0  0  0  0  0  0  0  0  0
   -4.1528    3.9750    0.3263 H   0  0  0  0  0  0  0  0  0  0  0  0
   -4.8766    1.8420    2.5906 H   0  0  0  0  0  0  0  0  0  0  0  0
   -4.9685    3.6616    2.6093 H   0  0  0  0  0  0  0  0  0  0  0  0
   -6.5857    3.6252    0.6875 H   0  0  0  0  0  0  0  0  0  0  0  0
   -6.4218    1.7946    0.6473 H   0  0  0  0  0  0  0  0  0  0  0  0
   -4.1583   -3.3960   -1.8456 H   0  0  0  0  0  0  0  0  0  0  0  0
   -2.9401   -5.5640   -1.4623 H   0  0  0  0  0  0  0  0  0  0  0  0
    0.3569   -5.9341   -0.1857 H   0  0  0  0  0  0  0  0  0  0  0  0
  1  2  1  0
  3  2  1  1
  3  4  1  0
  4  5  1  0
  6  5  1  6
  6  7  1  0
  7  8  1  0
  8  9  1  0
  9 10  1  0
 10 11  1  0
 11 12  1  0
 12 13  1  0
 13 14  1  0
  9 15  1  1
  9 16  1  0
  6 17  1  0
 17 18  1  0
 18 19  1  0
 19 20  1  0
 20 21  2  0
 21 22  1  0
 22 23  1  0
 23 24  1  0
 24 25  1  0
 25 26  1  0
 26 27  1  0
 25 28  1  0
 28 29  1  0
 29 30  1  0
 30 31  1  0
 22 32  2  0
 32 33  1  0
 33 34  2  0
 34 35  1  0
  8  3  1  0
 14 10  1  0
 17 27  1  1
 31 29  1  0
 18  3  1  0
 34 20  1  0
 24  6  1  0
 21 17  1  0
  1 36  1  0
  1 37  1  0
  1 38  1  0
  4 39  1  0
  4 40  1  0
  5 41  1  0
  5 42  1  0
  7 43  1  0
  7 44  1  0
  8 45  1  1
 10 46  1  0
 11 47  1  0
 11 48  1  0
 12 49  1  0
 12 50  1  0
 13 51  1  0
 13 52  1  0
 14 53  1  0
 14 54  1  0
 15 55  1  0
 16 56  1  0
 16 57  1  0
 16 58  1  0
 18 59  1  1
 23 60  1  0
 23 61  1  0
 24 62  1  6
 26 63  1  0
 26 64  1  0
 27 65  1  0
 27 66  1  0
 28 67  1  0
 28 68  1  0
 29 69  1  0
 30 70  1  0
 30 71  1  0
 31 72  1  0
 31 73  1  0
 32 74  1  0
 33 75  1  0
 35 76  1  0
M  END
>  <Ligand ID>  (1) 
LIG0005124

>  <Ligand>  (1) 
CHEMBL2338732

>  <SMILES>  (1) 
CO[C@]12CC[C@]3(C[C@@H]1[C@](C1CCCC1)(O)C)[C@@]14[C@H]2Oc2c4c(C[C@H]3N(CC1)CC1CC1)ccc2O

>  <CID>  (1) 
71624777.0

>  <ChEMBL ID>  (1) 
nan

>  <InChiKey>  (1) 
IPFGLNZEKYZGIT-GVOMISRNSA-N

>  <InChi>  (1) 
InChI=1S/C30H41NO4/c1-27(33,20-5-3-4-6-20)22-16-28-11-12-30(22,34-2)26-29(28)13-14-31(17-18-7-8-18)23(28)15-19-9-10-21(32)25(35-26)24(19)29/h9-10,18,20,22-23,26,32-33H,3-8,11-17H2,1-2H3/t22-,23-,26-,27+,28-,29+,30-/m1/s1

>  <IUPAC Name>  (1) 
(1S,2S,6R,14R,15R,16R)-16-[(1S)-1-cyclopentyl-1-hydroxyethyl]-5-(cyclopropylmethyl)-15-methoxy-13-oxa-5-azahexacyclo[13.2.2.12,8.01,6.02,14.012,20]icosa-8(20),9,11-trien-11-ol

$$$$
