
     RDKit          3D

 62 66  0  0  0  0  0  0  0  0999 V2000
   -9.8224    1.2838    0.1759 F   0  0  0  0  0  0  0  0  0  0  0  0
   -8.5312    0.8615    0.1492 C   0  0  0  0  0  0  0  0  0  0  0  0
   -7.6021    1.5289    0.9275 C   0  0  0  0  0  0  0  0  0  0  0  0
   -6.2830    1.0943    0.8996 C   0  0  0  0  0  0  0  0  0  0  0  0
   -5.9422    0.0028    0.0895 C   0  0  0  0  0  0  0  0  0  0  0  0
   -6.8555   -0.6539   -0.6763 C   0  0  0  0  0  0  0  0  0  0  0  0
   -8.1739   -0.2244   -0.6522 C   0  0  0  0  0  0  0  0  0  0  0  0
   -6.1884   -1.6390   -1.3163 N   0  0  0  0  0  0  0  0  0  0  0  0
   -4.8967   -1.5774   -0.9434 C   0  0  0  0  0  0  0  0  0  0  0  0
   -4.0081   -2.3704   -1.3711 O   0  0  0  0  0  0  0  0  0  0  0  0
   -4.7085   -0.5626   -0.0657 N   0  0  0  0  0  0  0  0  0  0  0  0
   -3.4942   -0.1522    0.5734 C   0  0  0  0  0  0  0  0  0  0  0  0
   -2.9273    1.0371   -0.2009 C   0  0  0  0  0  0  0  0  0  0  0  0
   -1.5085    1.1857    0.3603 C   0  0  0  0  0  0  0  0  0  0  0  0
   -0.7528    0.1332   -0.2954 N   0  0  0  0  0  0  0  0  0  0  0  0
   -1.2145   -1.1706    0.1165 C   0  0  0  0  0  0  0  0  0  0  0  0
   -2.5007   -1.2030    0.8626 C   0  0  0  0  0  0  0  0  0  0  0  0
    0.6542    0.3101   -0.1820 C   0  0  0  0  0  0  0  0  0  0  0  0
    1.3588   -0.8150   -0.9375 C   0  0  0  0  0  0  0  0  0  0  0  0
    2.8394   -0.7029   -0.4514 C   0  0  0  0  0  0  0  0  0  0  0  0
    3.3539    0.5469   -0.7834 N   0  0  0  0  0  0  0  0  0  0  0  0
    2.4399    1.4224   -1.4930 C   0  0  0  0  0  0  0  0  0  0  0  0
    1.1054    1.5827   -0.8147 C   0  0  0  0  0  0  0  0  0  0  0  0
    4.3510    1.2092   -0.0663 C   0  0  0  0  0  0  0  0  0  0  0  0
    5.6519    0.5508    0.1024 C   0  0  0  0  0  0  0  0  0  0  0  0
    6.6545    0.8472   -0.8308 C   0  0  0  0  0  0  0  0  0  0  0  0
    7.8991    0.2652   -0.7876 C   0  0  0  0  0  0  0  0  0  0  0  0
    8.2281   -0.6480    0.1860 C   0  0  0  0  0  0  0  0  0  0  0  0
    7.2605   -0.9533    1.1126 C   0  0  0  0  0  0  0  0  0  0  0  0
    5.9884   -0.3585    1.0684 C   0  0  0  0  0  0  0  0  0  0  0  0
    5.0713   -0.7431    2.1535 C   0  0  0  0  0  0  0  0  0  0  0  0
   -7.8837    2.3826    1.5587 H   0  0  0  0  0  0  0  0  0  0  0  0
   -5.5446    1.6073    1.5022 H   0  0  0  0  0  0  0  0  0  0  0  0
   -8.8910   -0.7458   -1.2558 H   0  0  0  0  0  0  0  0  0  0  0  0
   -6.5704   -2.3265   -1.9727 H   0  0  0  0  0  0  0  0  0  0  0  0
   -3.8267    0.3177    1.5493 H   0  0  0  0  0  0  0  0  0  0  0  0
   -2.8736    0.7128   -1.2604 H   0  0  0  0  0  0  0  0  0  0  0  0
   -3.5129    1.9506   -0.0830 H   0  0  0  0  0  0  0  0  0  0  0  0
   -1.5880    1.0512    1.4500 H   0  0  0  0  0  0  0  0  0  0  0  0
   -1.0657    2.1551    0.1542 H   0  0  0  0  0  0  0  0  0  0  0  0
   -1.2071   -1.7947   -0.8218 H   0  0  0  0  0  0  0  0  0  0  0  0
   -0.4589   -1.6947    0.7693 H   0  0  0  0  0  0  0  0  0  0  0  0
   -2.2444   -1.1807    1.9689 H   0  0  0  0  0  0  0  0  0  0  0  0
   -2.9069   -2.2465    0.7452 H   0  0  0  0  0  0  0  0  0  0  0  0
    0.9342    0.2729    0.8934 H   0  0  0  0  0  0  0  0  0  0  0  0
    1.2944   -0.6507   -2.0096 H   0  0  0  0  0  0  0  0  0  0  0  0
    0.9400   -1.7715   -0.6573 H   0  0  0  0  0  0  0  0  0  0  0  0
    2.8439   -1.0301    0.5893 H   0  0  0  0  0  0  0  0  0  0  0  0
    3.3458   -1.4823   -1.0921 H   0  0  0  0  0  0  0  0  0  0  0  0
    2.9628    2.3925   -1.6264 H   0  0  0  0  0  0  0  0  0  0  0  0
    2.3291    1.0158   -2.5168 H   0  0  0  0  0  0  0  0  0  0  0  0
    0.4014    1.9125   -1.6299 H   0  0  0  0  0  0  0  0  0  0  0  0
    1.1904    2.4291   -0.0950 H   0  0  0  0  0  0  0  0  0  0  0  0
    3.9580    1.4294    0.9640 H   0  0  0  0  0  0  0  0  0  0  0  0
    4.5850    2.2111   -0.5569 H   0  0  0  0  0  0  0  0  0  0  0  0
    6.4366    1.5704   -1.6261 H   0  0  0  0  0  0  0  0  0  0  0  0
    8.6688    0.4953   -1.5092 H   0  0  0  0  0  0  0  0  0  0  0  0
    9.1806   -1.1393    0.2758 H   0  0  0  0  0  0  0  0  0  0  0  0
    7.4957   -1.6777    1.8967 H   0  0  0  0  0  0  0  0  0  0  0  0
    4.7030   -1.7901    2.0651 H   0  0  0  0  0  0  0  0  0  0  0  0
    4.2192   -0.0726    2.2882 H   0  0  0  0  0  0  0  0  0  0  0  0
    5.6382   -0.7137    3.1330 H   0  0  0  0  0  0  0  0  0  0  0  0
  1  2  1  0
  2  3  2  0
  3  4  1  0
  4  5  2  0
  5  6  1  0
  6  7  2  0
  6  8  1  0
  8  9  1  0
  9 10  2  0
  9 11  1  0
 11 12  1  0
 12 13  1  0
 13 14  1  0
 14 15  1  0
 15 16  1  0
 16 17  1  0
 15 18  1  0
 18 19  1  0
 19 20  1  0
 20 21  1  0
 21 22  1  0
 22 23  1  0
 21 24  1  0
 24 25  1  0
 25 26  2  0
 26 27  1  0
 27 28  2  0
 28 29  1  0
 29 30  2  0
 30 31  1  0
  7  2  1  0
 17 12  1  0
 23 18  1  0
 30 25  1  0
 11  5  1  0
  3 32  1  0
  4 33  1  0
  7 34  1  0
  8 35  1  0
 12 36  1  0
 13 37  1  0
 13 38  1  0
 14 39  1  0
 14 40  1  0
 16 41  1  0
 16 42  1  0
 17 43  1  0
 17 44  1  0
 18 45  1  0
 19 46  1  0
 19 47  1  0
 20 48  1  0
 20 49  1  0
 22 50  1  0
 22 51  1  0
 23 52  1  0
 23 53  1  0
 24 54  1  0
 24 55  1  0
 26 56  1  0
 27 57  1  0
 28 58  1  0
 29 59  1  0
 31 60  1  0
 31 61  1  0
 31 62  1  0
M  END
>  <Ligand ID>  (1) 
LIG0000959

>  <Ligand>  (1) 
CHEMBL522451

>  <SMILES>  (1) 
Fc1ccc2c(c1)[nH]c(=O)n2C1CCN(CC1)C1CCN(CC1)Cc1ccccc1C

>  <CID>  (1) 
25110764.0

>  <ChEMBL ID>  (1) 
nan

>  <InChiKey>  (1) 
NEAXZQHSZHLDPB-UHFFFAOYSA-N

>  <InChi>  (1) 
InChI=1S/C25H31FN4O/c1-18-4-2-3-5-19(18)17-28-12-8-21(9-13-28)29-14-10-22(11-15-29)30-24-7-6-20(26)16-23(24)27-25(30)31/h2-7,16,21-22H,8-15,17H2,1H3,(H,27,31)

>  <IUPAC Name>  (1) 
6-fluoro-3-[1-[1-[(2-methylphenyl)methyl]piperidin-4-yl]piperidin-4-yl]-1H-benzimidazol-2-one

$$$$
