
     RDKit          3D

 29 28  0  0  0  0  0  0  0  0999 V2000
   -4.7045    0.2841    0.3518 C   0  0  0  0  0  0  0  0  0  0  0  0
   -3.2913   -0.2761    0.1458 C   0  0  0  0  0  0  0  0  0  0  0  0
   -2.6026    0.3982   -0.9974 C   0  0  0  0  0  0  0  0  0  0  0  0
   -1.2004   -0.1083   -1.2577 C   0  0  0  0  0  0  0  0  0  0  0  0
   -0.3906    0.1396    0.0009 C   0  0  0  0  0  0  0  0  0  0  0  0
    1.0502   -0.3499   -0.1882 C   0  0  0  0  0  0  0  0  0  0  0  0
    1.7671   -0.0646    1.0979 C   0  0  0  0  0  0  0  0  0  0  0  0
    3.1246   -0.4573    1.0985 O   0  0  0  0  0  0  0  0  0  0  0  0
    4.0791    0.0342    0.2134 C   0  0  0  0  0  0  0  0  0  0  0  0
    3.7507    0.8942   -0.6693 O   0  0  0  0  0  0  0  0  0  0  0  0
    5.5021   -0.4348    0.2802 C   0  0  0  0  0  0  0  0  0  0  0  0
   -5.3661   -0.5595    0.5912 H   0  0  0  0  0  0  0  0  0  0  0  0
   -4.9936    0.7348   -0.6386 H   0  0  0  0  0  0  0  0  0  0  0  0
   -4.7307    1.0364    1.1455 H   0  0  0  0  0  0  0  0  0  0  0  0
   -2.7660   -0.0673    1.0942 H   0  0  0  0  0  0  0  0  0  0  0  0
   -3.3502   -1.3683   -0.0425 H   0  0  0  0  0  0  0  0  0  0  0  0
   -3.2497    0.2796   -1.8997 H   0  0  0  0  0  0  0  0  0  0  0  0
   -2.5812    1.4834   -0.7705 H   0  0  0  0  0  0  0  0  0  0  0  0
   -1.1772   -1.1493   -1.5773 H   0  0  0  0  0  0  0  0  0  0  0  0
   -0.7660    0.5804   -2.0240 H   0  0  0  0  0  0  0  0  0  0  0  0
   -0.3580    1.1957    0.2664 H   0  0  0  0  0  0  0  0  0  0  0  0
   -0.7794   -0.4463    0.8519 H   0  0  0  0  0  0  0  0  0  0  0  0
    1.0558   -1.4576   -0.3274 H   0  0  0  0  0  0  0  0  0  0  0  0
    1.5353    0.1412   -1.0539 H   0  0  0  0  0  0  0  0  0  0  0  0
    1.2761   -0.6412    1.9089 H   0  0  0  0  0  0  0  0  0  0  0  0
    1.6276    1.0020    1.3417 H   0  0  0  0  0  0  0  0  0  0  0  0
    5.6078   -1.0522    1.1980 H   0  0  0  0  0  0  0  0  0  0  0  0
    5.8137   -1.0102   -0.5910 H   0  0  0  0  0  0  0  0  0  0  0  0
    6.1173    0.4803    0.4511 H   0  0  0  0  0  0  0  0  0  0  0  0
  1  2  1  0
  2  3  1  0
  3  4  1  0
  4  5  1  0
  5  6  1  0
  6  7  1  0
  7  8  1  0
  8  9  1  0
  9 10  2  0
  9 11  1  0
  1 12  1  0
  1 13  1  0
  1 14  1  0
  2 15  1  0
  2 16  1  0
  3 17  1  0
  3 18  1  0
  4 19  1  0
  4 20  1  0
  5 21  1  0
  5 22  1  0
  6 23  1  0
  6 24  1  0
  7 25  1  0
  7 26  1  0
 11 27  1  0
 11 28  1  0
 11 29  1  0
M  END
>  <Ligand ID>  (1) 
LIG0000043

>  <Ligand>  (1) 
heptyl acetate

>  <SMILES>  (1) 
CCCCCCCOC(=O)C

>  <CID>  (1) 
8159.0

>  <ChEMBL ID>  (1) 
nan

>  <InChiKey>  (1) 
ZCZSIDMEHXZRLG-UHFFFAOYSA-N

>  <InChi>  (1) 
InChI=1S/C9H18O2/c1-3-4-5-6-7-8-11-9(2)10/h3-8H2,1-2H3

>  <IUPAC Name>  (1) 
heptyl acetate

$$$$
