
     RDKit          3D

 31 30  0  0  0  0  0  0  0  0999 V2000
   -4.8066   -0.5476   -0.7297 S   0  0  0  0  0  0  0  0  0  0  0  0
   -3.4253   -0.7067   -1.9062 C   0  0  0  0  0  0  0  0  0  0  0  0
   -2.3113    0.2251   -1.4873 C   0  0  0  0  0  0  0  0  0  0  0  0
   -1.7927   -0.0903   -0.0978 C   0  0  0  0  0  0  0  0  0  0  0  0
   -0.7019    0.8715    0.2334 C   0  0  0  0  0  0  0  0  0  0  0  0
   -0.0975    0.6610    1.6026 C   0  0  0  0  0  0  0  0  0  0  0  0
    0.5091   -0.6968    1.7701 C   0  0  0  0  0  0  0  0  0  0  0  0
    1.6116   -0.9815    0.7972 C   0  0  0  0  0  0  0  0  0  0  0  0
    2.7593   -0.0214    0.9022 C   0  0  0  0  0  0  0  0  0  0  0  0
    3.8018   -0.4122   -0.1240 C   0  0  0  0  0  0  0  0  0  0  0  0
    3.0596   -0.3286   -1.7757 S   0  0  0  0  0  0  0  0  0  0  0  0
   -4.6849    0.6815   -0.0592 H   0  0  0  0  0  0  0  0  0  0  0  0
   -3.0568   -1.7302   -1.9782 H   0  0  0  0  0  0  0  0  0  0  0  0
   -3.8172   -0.2974   -2.8682 H   0  0  0  0  0  0  0  0  0  0  0  0
   -2.7803    1.2409   -1.4090 H   0  0  0  0  0  0  0  0  0  0  0  0
   -1.5157    0.2831   -2.2270 H   0  0  0  0  0  0  0  0  0  0  0  0
   -1.3403   -1.1219   -0.1376 H   0  0  0  0  0  0  0  0  0  0  0  0
   -2.6115   -0.1305    0.6160 H   0  0  0  0  0  0  0  0  0  0  0  0
   -1.1578    1.8976    0.2793 H   0  0  0  0  0  0  0  0  0  0  0  0
    0.0414    0.8871   -0.5601 H   0  0  0  0  0  0  0  0  0  0  0  0
    0.7023    1.4156    1.7286 H   0  0  0  0  0  0  0  0  0  0  0  0
   -0.8571    0.8926    2.3580 H   0  0  0  0  0  0  0  0  0  0  0  0
   -0.2153   -1.5228    1.8109 H   0  0  0  0  0  0  0  0  0  0  0  0
    0.9897   -0.6889    2.7893 H   0  0  0  0  0  0  0  0  0  0  0  0
    1.1879   -0.8491   -0.2254 H   0  0  0  0  0  0  0  0  0  0  0  0
    1.9593   -2.0233    0.8810 H   0  0  0  0  0  0  0  0  0  0  0  0
    3.2742   -0.0621    1.8885 H   0  0  0  0  0  0  0  0  0  0  0  0
    2.4256    1.0140    0.7227 H   0  0  0  0  0  0  0  0  0  0  0  0
    4.2262   -1.4084    0.0890 H   0  0  0  0  0  0  0  0  0  0  0  0
    4.6427    0.3315   -0.1157 H   0  0  0  0  0  0  0  0  0  0  0  0
    3.9813    0.0311   -2.7677 H   0  0  0  0  0  0  0  0  0  0  0  0
  1  2  1  0
  2  3  1  0
  3  4  1  0
  4  5  1  0
  5  6  1  0
  6  7  1  0
  7  8  1  0
  8  9  1  0
  9 10  1  0
 10 11  1  0
  1 12  1  0
  2 13  1  0
  2 14  1  0
  3 15  1  0
  3 16  1  0
  4 17  1  0
  4 18  1  0
  5 19  1  0
  5 20  1  0
  6 21  1  0
  6 22  1  0
  7 23  1  0
  7 24  1  0
  8 25  1  0
  8 26  1  0
  9 27  1  0
  9 28  1  0
 10 29  1  0
 10 30  1  0
 11 31  1  0
M  END
>  <Ligand ID>  (1) 
LIG0001074

>  <Ligand>  (1) 
1,9-Nonanedithiol

>  <SMILES>  (1) 
SCCCCCCCCCS

>  <CID>  (1) 
248488.0

>  <ChEMBL ID>  (1) 
nan

>  <InChiKey>  (1) 
GJRCLMJHPWCJEI-UHFFFAOYSA-N

>  <InChi>  (1) 
InChI=1S/C9H20S2/c10-8-6-4-2-1-3-5-7-9-11/h10-11H,1-9H2

>  <IUPAC Name>  (1) 
nonane-1,9-dithiol

$$$$
