
     RDKit          3D

208214  0  0  0  0  0  0  0  0999 V2000
   -5.3355   -7.6296   -3.2703 N   0  0  0  0  0  0  0  0  0  0  0  0
   -5.7595   -7.3715   -1.9389 C   0  0  0  0  0  0  0  0  0  0  0  0
   -4.8469   -7.2376   -1.0580 O   0  0  0  0  0  0  0  0  0  0  0  0
   -7.1660   -7.2386   -1.4677 C   0  0  0  0  0  0  0  0  0  0  0  0
   -7.0921   -6.9023   -0.0144 N   0  0  0  0  0  0  0  0  0  0  0  0
   -6.4852   -5.6741    0.2361 C   0  0  0  0  0  0  0  0  0  0  0  0
   -6.1375   -5.0126   -0.8562 O   0  0  0  0  0  0  0  0  0  0  0  0
   -6.1532   -4.9601    1.4606 C   0  0  1  0  0  0  0  0  0  0  0  0
   -5.8429   -3.6061    0.8021 N   0  0  0  0  0  0  0  0  0  0  0  0
   -5.9801   -2.4005    1.4708 C   0  0  0  0  0  0  0  0  0  0  0  0
   -6.2430   -2.2561    2.6781 O   0  0  0  0  0  0  0  0  0  0  0  0
   -5.8315   -1.1622    0.5627 C   0  0  1  0  0  0  0  0  0  0  0  0
   -4.4854   -0.9027    0.1928 N   0  0  0  0  0  0  0  0  0  0  0  0
   -3.2009   -1.1493    0.6776 C   0  0  0  0  0  0  0  0  0  0  0  0
   -2.9849   -1.7994    1.7435 O   0  0  0  0  0  0  0  0  0  0  0  0
   -2.1152   -0.5936   -0.1662 C   0  0  1  0  0  0  0  0  0  0  0  0
   -2.5258    0.8187   -0.5059 N   0  0  0  0  0  0  0  0  0  0  0  0
   -1.7016    1.9381   -0.2428 C   0  0  0  0  0  0  0  0  0  0  0  0
   -0.5755    1.7917    0.1868 O   0  0  0  0  0  0  0  0  0  0  0  0
   -2.1662    3.3562   -0.4772 C   0  0  1  0  0  0  0  0  0  0  0  0
   -1.0030    4.2315   -0.2458 N   0  0  0  0  0  0  0  0  0  0  0  0
   -0.9244    5.0302    0.9631 C   0  0  0  0  0  0  0  0  0  0  0  0
   -1.9092    4.8690    1.7003 O   0  0  0  0  0  0  0  0  0  0  0  0
    0.1374    5.9341    1.3114 C   0  0  2  0  0  0  0  0  0  0  0  0
   -0.5598    7.3299    1.1620 C   0  0  0  0  0  0  0  0  0  0  0  0
   -1.1124    7.5408   -0.2032 C   0  0  0  0  0  0  0  0  0  0  0  0
   -1.7444    8.9096   -0.3672 C   0  0  0  0  0  0  0  0  0  0  0  0
   -0.7860    9.9734   -0.0729 N   0  0  0  0  0  0  0  0  0  0  0  0
   -0.9612   11.0990   -0.6852 C   0  0  0  0  0  0  0  0  0  0  0  0
   -0.0850   12.2188   -0.4575 N   0  0  0  0  0  0  0  0  0  0  0  0
   -2.0434   11.2912   -1.6212 N   0  0  0  0  0  0  0  0  0  0  0  0
    1.3307    5.8260    0.5310 N   0  0  0  0  0  0  0  0  0  0  0  0
    2.1791    6.8898    0.0907 C   0  0  0  0  0  0  0  0  0  0  0  0
    1.6811    8.0157    0.1730 O   0  0  0  0  0  0  0  0  0  0  0  0
    3.5367    6.7390   -0.4446 C   0  0  1  0  0  0  0  0  0  0  0  0
    4.3356    8.0246   -0.2175 C   0  0  0  0  0  0  0  0  0  0  0  0
    4.4468    8.3858    1.1981 C   0  0  0  0  0  0  0  0  0  0  0  0
    3.5856    9.2911    1.8302 C   0  0  0  0  0  0  0  0  0  0  0  0
    3.7244    9.5940    3.1841 C   0  0  0  0  0  0  0  0  0  0  0  0
    4.7046    9.0295    3.9716 C   0  0  0  0  0  0  0  0  0  0  0  0
    5.5614    8.1361    3.3481 C   0  0  0  0  0  0  0  0  0  0  0  0
    5.4275    7.8376    2.0223 C   0  0  0  0  0  0  0  0  0  0  0  0
    4.2736    5.5616   -0.1145 N   0  0  0  0  0  0  0  0  0  0  0  0
    4.4105    4.3669   -0.8773 C   0  0  0  0  0  0  0  0  0  0  0  0
    3.6446    4.3614   -1.9056 O   0  0  0  0  0  0  0  0  0  0  0  0
    5.2505    3.2109   -0.6343 C   0  0  1  0  0  0  0  0  0  0  0  0
    4.6017    2.0516   -1.3210 N   0  0  0  0  0  0  0  0  0  0  0  0
    4.4913    0.8377   -0.5747 C   0  0  0  0  0  0  0  0  0  0  0  0
    5.0586    0.8267    0.5233 O   0  0  0  0  0  0  0  0  0  0  0  0
    3.7469   -0.3556   -1.0570 C   0  0  0  0  0  0  0  0  0  0  0  0
    3.7649   -1.4134   -0.0647 N   0  0  0  0  0  0  0  0  0  0  0  0
    3.3117   -1.2390    1.2559 C   0  0  0  0  0  0  0  0  0  0  0  0
    2.8768   -0.0871    1.5421 O   0  0  0  0  0  0  0  0  0  0  0  0
    3.3022   -2.2660    2.3466 C   0  0  1  0  0  0  0  0  0  0  0  0
    1.9521   -2.7660    2.6917 C   0  0  0  0  0  0  0  0  0  0  0  0
    0.6831   -1.4431    2.8512 S   0  0  0  0  0  0  0  0  0  0  0  0
    0.4047   -0.4382    1.0973 S   0  0  0  0  0  0  0  0  0  0  0  0
   -0.7178   -0.8565   -0.1325 C   0  0  0  0  0  0  0  0  0  0  0  0
   -0.1546   -0.6576   -1.5800 C   0  0  0  0  0  0  0  0  0  0  0  0
   -0.6723   -2.4762   -0.1313 C   0  0  0  0  0  0  0  0  0  0  0  0
    4.0406   -3.4841    1.8530 N   0  0  0  0  0  0  0  0  0  0  0  0
    5.4745   -3.4269    1.8054 C   0  0  0  0  0  0  0  0  0  0  0  0
    5.9307   -2.2676    2.1957 O   0  0  0  0  0  0  0  0  0  0  0  0
    6.4287   -4.4028    1.4117 C   0  0  2  0  0  0  0  0  0  0  0  0
    7.0269   -4.2323   -0.0099 C   0  0  0  0  0  0  0  0  0  0  0  0
    5.9841   -4.3633   -1.0681 C   0  0  0  0  0  0  0  0  0  0  0  0
    7.7810   -2.9334   -0.1308 C   0  0  0  0  0  0  0  0  0  0  0  0
    5.8648   -5.7760    1.3311 N   0  0  0  0  0  0  0  0  0  0  0  0
    6.7833   -6.8907    1.3841 C   0  0  0  0  0  0  0  0  0  0  0  0
    8.0068   -6.6006    1.5262 O   0  0  0  0  0  0  0  0  0  0  0  0
    6.3496   -8.3009    1.2886 C   0  0  2  0  0  0  0  0  0  0  0  0
    6.6208   -8.9133   -0.0662 C   0  0  0  0  0  0  0  0  0  0  0  0
    8.0739   -8.9058   -0.4553 C   0  0  0  0  0  0  0  0  0  0  0  0
    8.9457   -9.8811   -0.0232 C   0  0  0  0  0  0  0  0  0  0  0  0
   10.2597   -9.7928   -0.4931 C   0  0  0  0  0  0  0  0  0  0  0  0
   10.6943   -8.8219   -1.3267 C   0  0  0  0  0  0  0  0  0  0  0  0
    9.7552   -7.8507   -1.7323 C   0  0  0  0  0  0  0  0  0  0  0  0
    8.4501   -7.8929   -1.2943 C   0  0  0  0  0  0  0  0  0  0  0  0
   11.9549   -8.6619   -1.8365 O   0  0  0  0  0  0  0  0  0  0  0  0
    4.9197   -8.4024    1.5181 N   0  0  0  0  0  0  0  0  0  0  0  0
    6.6044    3.3405   -1.2851 C   0  0  0  0  0  0  0  0  0  0  0  0
    7.4729    4.4323   -0.8931 C   0  0  0  0  0  0  0  0  0  0  0  0
    8.7891    4.5380   -1.4394 C   0  0  0  0  0  0  0  0  0  0  0  0
    9.2991    5.6566   -0.8165 N   0  0  0  0  0  0  0  0  0  0  0  0
    8.4382    6.1740    0.0054 C   0  0  0  0  0  0  0  0  0  0  0  0
    7.3351    5.4217   -0.0484 N   0  0  0  0  0  0  0  0  0  0  0  0
   -2.6342    3.4851   -1.8840 C   0  0  0  0  0  0  0  0  0  0  0  0
   -3.1434    4.8865   -2.0706 C   0  0  0  0  0  0  0  0  0  0  0  0
   -2.6326    5.9425   -2.7690 C   0  0  0  0  0  0  0  0  0  0  0  0
   -3.4848    6.9941   -2.6325 N   0  0  0  0  0  0  0  0  0  0  0  0
   -4.5158    6.6153   -1.8590 C   0  0  0  0  0  0  0  0  0  0  0  0
   -4.3467    5.2931   -1.4834 C   0  0  0  0  0  0  0  0  0  0  0  0
   -5.2538    4.6835   -0.6739 C   0  0  0  0  0  0  0  0  0  0  0  0
   -6.3955    5.3318   -0.1716 C   0  0  0  0  0  0  0  0  0  0  0  0
   -6.5752    6.6238   -0.5415 C   0  0  0  0  0  0  0  0  0  0  0  0
   -5.6563    7.2731   -1.3686 C   0  0  0  0  0  0  0  0  0  0  0  0
   -6.4807   -1.6100   -0.7774 C   0  0  0  0  0  0  0  0  0  0  0  0
   -7.7995   -2.1828   -0.6860 C   0  0  0  0  0  0  0  0  0  0  0  0
   -8.2723   -2.7556   -2.0693 C   0  0  0  0  0  0  0  0  0  0  0  0
   -9.3187   -3.5378   -1.8576 N   0  0  0  0  0  0  0  0  0  0  0  0
  -10.2114   -4.3330   -1.8456 C   0  0  0  0  0  0  0  0  0  0  0  0
  -10.4370   -5.3123   -2.8769 N   0  0  0  0  0  0  0  0  0  0  0  0
  -11.1845   -4.4178   -0.7681 N   0  0  0  0  0  0  0  0  0  0  0  0
   -7.3598   -4.5627    2.2957 C   0  0  0  0  0  0  0  0  0  0  0  0
   -8.3462   -5.6129    2.6187 C   0  0  0  0  0  0  0  0  0  0  0  0
   -8.1348   -6.7725    3.3030 C   0  0  0  0  0  0  0  0  0  0  0  0
   -9.1953   -7.6313    3.6070 C   0  0  0  0  0  0  0  0  0  0  0  0
  -10.4357   -7.2162    3.1799 C   0  0  0  0  0  0  0  0  0  0  0  0
  -10.7360   -6.0922    2.5022 C   0  0  0  0  0  0  0  0  0  0  0  0
   -9.6781   -5.2506    2.2035 C   0  0  0  0  0  0  0  0  0  0  0  0
   -5.4566   -8.6152   -3.6417 H   0  0  0  0  0  0  0  0  0  0  0  0
   -4.9149   -6.9123   -3.9138 H   0  0  0  0  0  0  0  0  0  0  0  0
   -7.6492   -8.1919   -1.5675 H   0  0  0  0  0  0  0  0  0  0  0  0
   -7.6953   -6.4503   -1.9963 H   0  0  0  0  0  0  0  0  0  0  0  0
   -7.4330   -7.4792    0.7389 H   0  0  0  0  0  0  0  0  0  0  0  0
   -5.3267   -5.2027    2.0740 H   0  0  0  0  0  0  0  0  0  0  0  0
   -5.4634   -3.5934   -0.1720 H   0  0  0  0  0  0  0  0  0  0  0  0
   -6.3293   -0.4207    1.0665 H   0  0  0  0  0  0  0  0  0  0  0  0
   -4.4627   -0.3805   -0.7896 H   0  0  0  0  0  0  0  0  0  0  0  0
   -2.4056   -1.0288   -1.2417 H   0  0  0  0  0  0  0  0  0  0  0  0
   -3.4138    1.0381   -0.9727 H   0  0  0  0  0  0  0  0  0  0  0  0
   -2.9432    3.5412    0.2934 H   0  0  0  0  0  0  0  0  0  0  0  0
   -0.2214    4.3370   -0.8776 H   0  0  0  0  0  0  0  0  0  0  0  0
    0.4070    6.0125    2.4202 H   0  0  0  0  0  0  0  0  0  0  0  0
   -0.0268    8.1412    1.6234 H   0  0  0  0  0  0  0  0  0  0  0  0
   -1.4720    7.1927    1.8226 H   0  0  0  0  0  0  0  0  0  0  0  0
   -0.5165    7.3088   -1.0544 H   0  0  0  0  0  0  0  0  0  0  0  0
   -2.0401    6.8574   -0.2834 H   0  0  0  0  0  0  0  0  0  0  0  0
   -2.0890    9.1001   -1.4047 H   0  0  0  0  0  0  0  0  0  0  0  0
   -2.6150    9.0657    0.3098 H   0  0  0  0  0  0  0  0  0  0  0  0
    0.4481   12.1837    0.4549 H   0  0  0  0  0  0  0  0  0  0  0  0
    0.0284   12.9902   -1.1287 H   0  0  0  0  0  0  0  0  0  0  0  0
   -2.9587   11.6788   -1.3849 H   0  0  0  0  0  0  0  0  0  0  0  0
   -1.8218   10.9930   -2.6193 H   0  0  0  0  0  0  0  0  0  0  0  0
    1.6254    4.8929    0.2164 H   0  0  0  0  0  0  0  0  0  0  0  0
    3.3370    6.7408   -1.5945 H   0  0  0  0  0  0  0  0  0  0  0  0
    3.7594    8.7958   -0.8123 H   0  0  0  0  0  0  0  0  0  0  0  0
    5.3244    7.9260   -0.7497 H   0  0  0  0  0  0  0  0  0  0  0  0
    2.8325    9.8306    1.3250 H   0  0  0  0  0  0  0  0  0  0  0  0
    3.0593   10.2881    3.6979 H   0  0  0  0  0  0  0  0  0  0  0  0
    4.7817    9.2593    5.0137 H   0  0  0  0  0  0  0  0  0  0  0  0
    6.3481    7.6737    3.9230 H   0  0  0  0  0  0  0  0  0  0  0  0
    6.1399    7.1777    1.5973 H   0  0  0  0  0  0  0  0  0  0  0  0
    4.7754    5.5205    0.7869 H   0  0  0  0  0  0  0  0  0  0  0  0
    5.3773    2.9327    0.4471 H   0  0  0  0  0  0  0  0  0  0  0  0
    4.2397    2.0507   -2.2534 H   0  0  0  0  0  0  0  0  0  0  0  0
    4.3250   -0.7522   -1.9397 H   0  0  0  0  0  0  0  0  0  0  0  0
    2.7886   -0.0407   -1.4358 H   0  0  0  0  0  0  0  0  0  0  0  0
    4.0642   -2.3565   -0.3084 H   0  0  0  0  0  0  0  0  0  0  0  0
    3.8874   -1.9074    3.2026 H   0  0  0  0  0  0  0  0  0  0  0  0
    1.5267   -3.5572    2.0743 H   0  0  0  0  0  0  0  0  0  0  0  0
    1.9606   -3.2382    3.7426 H   0  0  0  0  0  0  0  0  0  0  0  0
   -0.9088   -1.0263   -2.3047 H   0  0  0  0  0  0  0  0  0  0  0  0
    0.7910   -1.2318   -1.5993 H   0  0  0  0  0  0  0  0  0  0  0  0
    0.0193    0.3763   -1.8417 H   0  0  0  0  0  0  0  0  0  0  0  0
   -1.2068   -2.6834    0.7984 H   0  0  0  0  0  0  0  0  0  0  0  0
    0.3918   -2.7058   -0.1644 H   0  0  0  0  0  0  0  0  0  0  0  0
   -1.2747   -2.7801   -0.9914 H   0  0  0  0  0  0  0  0  0  0  0  0
    3.5247   -4.3240    1.5651 H   0  0  0  0  0  0  0  0  0  0  0  0
    7.3046   -4.4798    2.0540 H   0  0  0  0  0  0  0  0  0  0  0  0
    7.7509   -5.0696   -0.1133 H   0  0  0  0  0  0  0  0  0  0  0  0
    6.1633   -5.3356   -1.6528 H   0  0  0  0  0  0  0  0  0  0  0  0
    4.9859   -4.4961   -0.6501 H   0  0  0  0  0  0  0  0  0  0  0  0
    5.9974   -3.5062   -1.7836 H   0  0  0  0  0  0  0  0  0  0  0  0
    7.3452   -2.3540   -0.9334 H   0  0  0  0  0  0  0  0  0  0  0  0
    7.7126   -2.3493    0.8149 H   0  0  0  0  0  0  0  0  0  0  0  0
    8.8449   -3.1953   -0.3571 H   0  0  0  0  0  0  0  0  0  0  0  0
    4.8385   -5.9431    1.2583 H   0  0  0  0  0  0  0  0  0  0  0  0
    6.8811   -8.9176    2.0176 H   0  0  0  0  0  0  0  0  0  0  0  0
    6.3131   -9.9978   -0.0059 H   0  0  0  0  0  0  0  0  0  0  0  0
    6.0084   -8.4815   -0.8770 H   0  0  0  0  0  0  0  0  0  0  0  0
    8.6676  -10.6712    0.6327 H   0  0  0  0  0  0  0  0  0  0  0  0
   10.9701  -10.5477   -0.1703 H   0  0  0  0  0  0  0  0  0  0  0  0
   10.0400   -7.0805   -2.3920 H   0  0  0  0  0  0  0  0  0  0  0  0
    7.7899   -7.1160   -1.6307 H   0  0  0  0  0  0  0  0  0  0  0  0
   12.3643   -7.7284   -1.9661 H   0  0  0  0  0  0  0  0  0  0  0  0
    4.6801   -9.4002    1.5402 H   0  0  0  0  0  0  0  0  0  0  0  0
    4.6541   -8.0094    2.4658 H   0  0  0  0  0  0  0  0  0  0  0  0
    6.5062    3.2417   -2.4239 H   0  0  0  0  0  0  0  0  0  0  0  0
    7.1352    2.3471   -1.0531 H   0  0  0  0  0  0  0  0  0  0  0  0
    9.2572    3.8807   -2.1510 H   0  0  0  0  0  0  0  0  0  0  0  0
   10.2792    5.9680   -1.0547 H   0  0  0  0  0  0  0  0  0  0  0  0
    8.5297    7.0392    0.6470 H   0  0  0  0  0  0  0  0  0  0  0  0
   -3.3855    2.7325   -2.1812 H   0  0  0  0  0  0  0  0  0  0  0  0
   -1.7171    3.4268   -2.5712 H   0  0  0  0  0  0  0  0  0  0  0  0
   -1.7184    5.9136   -3.3186 H   0  0  0  0  0  0  0  0  0  0  0  0
   -3.3852    7.9429   -3.0329 H   0  0  0  0  0  0  0  0  0  0  0  0
   -5.1835    3.6432   -0.3229 H   0  0  0  0  0  0  0  0  0  0  0  0
   -7.0787    4.8097    0.4777 H   0  0  0  0  0  0  0  0  0  0  0  0
   -7.4232    7.2074   -0.2329 H   0  0  0  0  0  0  0  0  0  0  0  0
   -5.8441    8.3248   -1.6381 H   0  0  0  0  0  0  0  0  0  0  0  0
   -6.6109   -0.5720   -1.2714 H   0  0  0  0  0  0  0  0  0  0  0  0
   -5.7397   -2.0846   -1.4286 H   0  0  0  0  0  0  0  0  0  0  0  0
   -7.9778   -2.9579    0.0249 H   0  0  0  0  0  0  0  0  0  0  0  0
   -8.6354   -1.4032   -0.5102 H   0  0  0  0  0  0  0  0  0  0  0  0
   -8.5132   -1.8211   -2.6855 H   0  0  0  0  0  0  0  0  0  0  0  0
   -7.3634   -3.1554   -2.5946 H   0  0  0  0  0  0  0  0  0  0  0  0
   -9.8952   -6.2201   -2.8677 H   0  0  0  0  0  0  0  0  0  0  0  0
  -11.1149   -5.2312   -3.6391 H   0  0  0  0  0  0  0  0  0  0  0  0
  -11.6963   -5.3186   -0.5879 H   0  0  0  0  0  0  0  0  0  0  0  0
  -11.3265   -3.5472   -0.1940 H   0  0  0  0  0  0  0  0  0  0  0  0
   -7.7982   -3.6500    2.0136 H   0  0  0  0  0  0  0  0  0  0  0  0
   -6.8544   -4.3254    3.3216 H   0  0  0  0  0  0  0  0  0  0  0  0
   -7.1158   -7.0091    3.5857 H   0  0  0  0  0  0  0  0  0  0  0  0
   -9.0213   -8.5662    4.1274 H   0  0  0  0  0  0  0  0  0  0  0  0
  -11.3088   -7.8573    3.4263 H   0  0  0  0  0  0  0  0  0  0  0  0
  -11.7371   -5.8041    2.1704 H   0  0  0  0  0  0  0  0  0  0  0  0
   -9.8694   -4.3277    1.6873 H   0  0  0  0  0  0  0  0  0  0  0  0
  1  2  1  0
  2  3  2  0
  2  4  1  0
  4  5  1  0
  5  6  1  0
  6  7  2  0
  6  8  1  0
  8  9  1  0
  9 10  1  0
 10 11  2  0
 10 12  1  0
 12 13  1  0
 13 14  1  0
 14 15  2  0
 14 16  1  0
 16 17  1  0
 17 18  1  0
 18 19  2  0
 18 20  1  0
 20 21  1  0
 21 22  1  0
 22 23  2  0
 22 24  1  0
 24 25  1  0
 25 26  1  0
 26 27  1  0
 27 28  1  0
 28 29  2  3
 29 30  1  0
 29 31  1  0
 24 32  1  0
 32 33  1  0
 33 34  2  0
 33 35  1  0
 35 36  1  0
 36 37  1  0
 37 38  2  0
 38 39  1  0
 39 40  2  0
 40 41  1  0
 41 42  2  0
 35 43  1  0
 43 44  1  0
 44 45  2  0
 44 46  1  0
 46 47  1  0
 47 48  1  0
 48 49  2  0
 48 50  1  0
 50 51  1  0
 51 52  1  0
 52 53  2  0
 52 54  1  0
 54 55  1  0
 55 56  1  0
 56 57  1  0
 57 58  1  0
 58 59  1  0
 58 60  1  0
 54 61  1  0
 61 62  1  0
 62 63  2  0
 62 64  1  0
 64 65  1  0
 65 66  1  0
 65 67  1  0
 64 68  1  0
 68 69  1  0
 69 70  2  0
 69 71  1  0
 71 72  1  0
 72 73  1  0
 73 74  2  0
 74 75  1  0
 75 76  2  0
 76 77  1  0
 77 78  2  0
 76 79  1  0
 71 80  1  0
 46 81  1  0
 81 82  1  0
 82 83  2  0
 83 84  1  0
 84 85  1  0
 85 86  2  0
 20 87  1  0
 87 88  1  0
 88 89  2  0
 89 90  1  0
 90 91  1  0
 91 92  2  0
 92 93  1  0
 93 94  2  0
 94 95  1  0
 95 96  2  0
 12 97  1  0
 97 98  1  0
 98 99  1  0
 99100  1  0
100101  2  3
101102  1  0
101103  1  0
  8104  1  0
104105  1  0
105106  2  0
106107  1  0
107108  2  0
108109  1  0
109110  2  0
 58 16  1  0
 78 73  1  0
 86 82  1  0
 92 88  1  0
110105  1  0
 42 37  1  0
 96 91  1  0
  1111  1  0
  1112  1  0
  4113  1  0
  4114  1  0
  5115  1  0
  8116  1  1
  9117  1  0
 12118  1  1
 13119  1  0
 16120  1  6
 17121  1  0
 20122  1  1
 21123  1  0
 24124  1  1
 25125  1  0
 25126  1  0
 26127  1  0
 26128  1  0
 27129  1  0
 27130  1  0
 30131  1  0
 30132  1  0
 31133  1  0
 31134  1  0
 32135  1  0
 35136  1  6
 36137  1  0
 36138  1  0
 38139  1  0
 39140  1  0
 40141  1  0
 41142  1  0
 42143  1  0
 43144  1  0
 46145  1  1
 47146  1  0
 50147  1  0
 50148  1  0
 51149  1  0
 54150  1  1
 55151  1  0
 55152  1  0
 59153  1  0
 59154  1  0
 59155  1  0
 60156  1  0
 60157  1  0
 60158  1  0
 61159  1  0
 64160  1  1
 65161  1  0
 66162  1  0
 66163  1  0
 66164  1  0
 67165  1  0
 67166  1  0
 67167  1  0
 68168  1  0
 71169  1  1
 72170  1  0
 72171  1  0
 74172  1  0
 75173  1  0
 77174  1  0
 78175  1  0
 79176  1  0
 80177  1  0
 80178  1  0
 81179  1  0
 81180  1  0
 83181  1  0
 84182  1  0
 85183  1  0
 87184  1  0
 87185  1  0
 89186  1  0
 90187  1  0
 93188  1  0
 94189  1  0
 95190  1  0
 96191  1  0
 97192  1  0
 97193  1  0
 98194  1  0
 98195  1  0
 99196  1  0
 99197  1  0
102198  1  0
102199  1  0
103200  1  0
103201  1  0
104202  1  0
104203  1  0
106204  1  0
107205  1  0
108206  1  0
109207  1  0
110208  1  0
M  END
>  <Ligand ID>  (1) 
LIG0003410

>  <Ligand>  (1) 
CID 44363973

>  <SMILES>  (1) 
NC(=O)CNC(=O)[C@@H](NC(=O)[C@@H](NC(=O)[C@H]1NC(=O)[C@@H](NC(=O)[C@H](CCCN=C(N)N)NC(=O)[C@@H](Cc2ccccc2)NC(=O)[C@@H](NC(=O)CNC(=O)[C@@H](CSSC1(C)C)NC(=O)[C@H](C(C)C)NC(=O)[C@H](Cc1ccc(cc1)O)N)Cc1c[nH]cn1)Cc1c[nH]c2c1cccc2)CCCN=C(N)N)Cc1ccccc1

>  <CID>  (1) 
44363973.0

>  <ChEMBL ID>  (1) 
nan

>  <InChiKey>  (1) 
DBQMOWPZVCVWBP-CBWRAPNLSA-N

>  <InChi>  (1) 
InChI=1S/C73H98N22O13S2/c1-40(2)59(94-61(99)48(74)29-43-23-25-46(96)26-24-43)69(107)93-56-38-109-110-73(3,4)60(70(108)89-51(22-14-28-82-72(78)79)65(103)90-52(62(100)84-36-57(75)97)30-41-15-7-5-8-16-41)95-68(106)54(32-44-34-83-49-20-12-11-19-47(44)49)92-64(102)50(21-13-27-81-71(76)77)88-66(104)53(31-42-17-9-6-10-18-42)91-67(105)55(33-45-35-80-39-86-45)87-58(98)37-85-63(56)101/h5-12,15-20,23-26,34-35,39-40,48,50-56,59-60,83,96H,13-14,21-22,27-33,36-38,74H2,1-4H3,(H2,75,97)(H,80,86)(H,84,100)(H,85,101)(H,87,98)(H,88,104)(H,89,108)(H,90,103)(H,91,105)(H,92,102)(H,93,107)(H,94,99)(H,95,106)(H4,76,77,81)(H4,78,79,82)/t48-,50-,51-,52-,53+,54-,55-,56+,59-,60+/m0/s1

>  <IUPAC Name>  (1) 
(4R,7S,10S,13R,16S,22S)-22-[[(2S)-2-[[(2S)-2-amino-3-(4-hydroxyphenyl)propanoyl]amino]-3-methylbutanoyl]amino]-N-[(2S)-1-[[(2S)-1-[(2-amino-2-oxoethyl)amino]-1-oxo-3-phenylpropan-2-yl]amino]-5-(diaminomethylideneamino)-1-oxopentan-2-yl]-13-benzyl-10-[3-(diaminomethylideneamino)propyl]-16-(1H-imidazol-4-ylmethyl)-7-(1H-indol-3-ylmethyl)-3,3-dimethyl-6,9,12,15,18,21-hexaoxo-1,2-dithia-5,8,11,14,17,20-hexazacyclotricosane-4-carboxamide

$$$$
