
     RDKit          3D

 29 31  0  0  0  0  0  0  0  0999 V2000
   -3.5350   -0.8444   -0.0664 C   0  0  0  0  0  0  0  0  0  0  0  0
   -2.4369    0.1283    0.2294 C   0  0  0  0  0  0  0  0  0  0  0  0
   -2.6837    1.3376    0.8555 C   0  0  0  0  0  0  0  0  0  0  0  0
   -1.6617    2.2180    1.1187 C   0  0  0  0  0  0  0  0  0  0  0  0
   -0.3529    1.9012    0.7551 C   0  0  0  0  0  0  0  0  0  0  0  0
   -0.0800    0.7132    0.1349 C   0  0  0  0  0  0  0  0  0  0  0  0
   -1.1375   -0.1695   -0.1234 C   0  0  0  0  0  0  0  0  0  0  0  0
   -0.8152   -1.4525   -0.7848 C   0  0  0  0  0  0  0  0  0  0  0  0
   -1.7025   -2.3025   -1.0554 O   0  0  0  0  0  0  0  0  0  0  0  0
    0.5774   -1.6823   -1.1072 N   0  0  0  0  0  0  0  0  0  0  0  0
    1.5291   -1.1308   -0.1757 C   0  0  2  0  0  0  0  0  0  0  0  0
    1.2807    0.3862   -0.2538 C   0  0  2  0  0  0  0  0  0  0  0  0
    2.3909    0.8082    0.6292 C   0  0  0  0  0  0  0  0  0  0  0  0
    3.5207    0.0929    0.0112 N   0  0  0  0  0  0  0  0  0  0  0  0
    2.9491   -1.1105   -0.6105 C   0  0  0  0  0  0  0  0  0  0  0  0
   -4.4928   -0.3935    0.2738 H   0  0  0  0  0  0  0  0  0  0  0  0
   -3.6650   -1.0346   -1.1441 H   0  0  0  0  0  0  0  0  0  0  0  0
   -3.4088   -1.7768    0.5246 H   0  0  0  0  0  0  0  0  0  0  0  0
   -3.6942    1.6119    1.1505 H   0  0  0  0  0  0  0  0  0  0  0  0
   -1.8953    3.1667    1.6165 H   0  0  0  0  0  0  0  0  0  0  0  0
    0.4338    2.6064    0.9710 H   0  0  0  0  0  0  0  0  0  0  0  0
    0.7981   -2.2133   -1.9595 H   0  0  0  0  0  0  0  0  0  0  0  0
    1.3758   -1.4621    0.8663 H   0  0  0  0  0  0  0  0  0  0  0  0
    1.5127    0.6968   -1.3128 H   0  0  0  0  0  0  0  0  0  0  0  0
    2.5727    1.8770    0.6837 H   0  0  0  0  0  0  0  0  0  0  0  0
    2.2839    0.3087    1.6322 H   0  0  0  0  0  0  0  0  0  0  0  0
    3.8352    0.7500   -0.7614 H   0  0  0  0  0  0  0  0  0  0  0  0
    2.9604   -1.0201   -1.7287 H   0  0  0  0  0  0  0  0  0  0  0  0
    3.5412   -2.0104   -0.3689 H   0  0  0  0  0  0  0  0  0  0  0  0
  1  2  1  0
  2  3  2  0
  3  4  1  0
  4  5  2  0
  5  6  1  0
  6  7  2  0
  7  8  1  0
  8  9  2  0
  8 10  1  0
 10 11  1  0
 11 12  1  0
 12 13  1  0
 13 14  1  0
 14 15  1  0
  7  2  1  0
 15 11  1  0
 12  6  1  0
  1 16  1  0
  1 17  1  0
  1 18  1  0
  3 19  1  0
  4 20  1  0
  5 21  1  0
 10 22  1  0
 11 23  1  1
 12 24  1  6
 13 25  1  0
 13 26  1  0
 14 27  1  0
 15 28  1  0
 15 29  1  0
M  END
>  <Ligand ID>  (1) 
LIG0003882

>  <Ligand>  (1) 
CHEMBL2337494

>  <SMILES>  (1) 
Cc1cccc2c1C(=O)N[C@@H]1[C@@H]2CNC1

>  <CID>  (1) 
11514226.0

>  <ChEMBL ID>  (1) 
nan

>  <InChiKey>  (1) 
JQRAQHUUWMPGFK-ZJUUUORDSA-N

>  <InChi>  (1) 
InChI=1S/C12H14N2O/c1-7-3-2-4-8-9-5-13-6-10(9)14-12(15)11(7)8/h2-4,9-10,13H,5-6H2,1H3,(H,14,15)/t9-,10+/m1/s1

>  <IUPAC Name>  (1) 
(3aR,9bS)-6-methyl-1,2,3,3a,4,9b-hexahydropyrrolo[3,4-c]isoquinolin-5-one

$$$$
