
     RDKit          3D

 60 63  0  0  0  0  0  0  0  0999 V2000
   -8.0400    1.5077   -1.8568 N   0  0  0  0  0  0  0  0  0  0  0  0
   -7.0764    1.1309   -1.3470 C   0  0  0  0  0  0  0  0  0  0  0  0
   -5.8705    0.6689   -0.7369 C   0  0  0  0  0  0  0  0  0  0  0  0
   -4.7140    0.7855   -1.5169 C   0  0  0  0  0  0  0  0  0  0  0  0
   -3.5089    0.3759   -1.0341 C   0  0  0  0  0  0  0  0  0  0  0  0
   -3.4603   -0.1510    0.2306 C   0  0  0  0  0  0  0  0  0  0  0  0
   -4.5906   -0.2642    0.9912 C   0  0  0  0  0  0  0  0  0  0  0  0
   -5.8627    0.1479    0.5309 C   0  0  0  0  0  0  0  0  0  0  0  0
   -6.8800   -0.0198    1.3764 O   0  0  0  0  0  0  0  0  0  0  0  0
   -8.2007    0.1985    1.4086 C   0  0  0  0  0  0  0  0  0  0  0  0
   -8.8837   -1.1626    1.7208 C   0  0  0  0  0  0  0  0  0  0  0  0
   -8.6410    1.0911    2.5833 C   0  0  0  0  0  0  0  0  0  0  0  0
   -2.3006    0.4948   -1.8412 C   0  0  0  0  0  0  0  0  0  0  0  0
   -2.2352    0.9840   -3.0584 O   0  0  0  0  0  0  0  0  0  0  0  0
   -0.9928    0.9346   -3.4712 N   0  0  0  0  0  0  0  0  0  0  0  0
   -0.2300    0.3980   -2.4939 C   0  0  0  0  0  0  0  0  0  0  0  0
   -1.0544    0.1287   -1.4856 N   0  0  0  0  0  0  0  0  0  0  0  0
    1.2090    0.1854   -2.5929 C   0  0  0  0  0  0  0  0  0  0  0  0
    1.8512    0.5546   -3.7589 C   0  0  0  0  0  0  0  0  0  0  0  0
    3.2198    0.3548   -3.8590 C   0  0  0  0  0  0  0  0  0  0  0  0
    3.8956   -0.2026   -2.7998 C   0  0  0  0  0  0  0  0  0  0  0  0
    3.2474   -0.5766   -1.6198 C   0  0  0  0  0  0  0  0  0  0  0  0
    1.8858   -0.3761   -1.5243 C   0  0  0  0  0  0  0  0  0  0  0  0
    1.4529   -0.8541   -0.1855 C   0  0  0  0  0  0  0  0  0  0  0  0
    2.6929   -0.9160    0.6421 C   0  0  0  0  0  0  0  0  0  0  0  0
    3.7786   -1.1865   -0.3729 C   0  0  2  0  0  0  0  0  0  0  0  0
    5.0404   -0.5574    0.0295 N   0  0  0  0  0  0  0  0  0  0  0  0
    5.3673   -1.1500    1.3046 C   0  0  0  0  0  0  0  0  0  0  0  0
    6.6158   -0.6991    1.9080 C   0  0  0  0  0  0  0  0  0  0  0  0
    6.9080   -1.2171    3.0496 O   0  0  0  0  0  0  0  0  0  0  0  0
    7.5411    0.2228    1.4114 N   0  0  0  0  0  0  0  0  0  0  0  0
    8.7194    0.4938    2.2472 C   0  0  0  0  0  0  0  0  0  0  0  0
    7.4690    0.9361    0.1623 C   0  0  0  0  0  0  0  0  0  0  0  0
   -4.7377    1.1996   -2.5167 H   0  0  0  0  0  0  0  0  0  0  0  0
   -2.4979   -0.4750    0.6088 H   0  0  0  0  0  0  0  0  0  0  0  0
   -4.4802   -0.6918    1.9868 H   0  0  0  0  0  0  0  0  0  0  0  0
   -8.6722    0.6350    0.5323 H   0  0  0  0  0  0  0  0  0  0  0  0
   -9.9465   -1.0448    1.5058 H   0  0  0  0  0  0  0  0  0  0  0  0
   -8.6844   -1.3176    2.8139 H   0  0  0  0  0  0  0  0  0  0  0  0
   -8.3369   -1.8999    1.1308 H   0  0  0  0  0  0  0  0  0  0  0  0
   -8.0213    1.9969    2.6236 H   0  0  0  0  0  0  0  0  0  0  0  0
   -9.7184    1.3024    2.5618 H   0  0  0  0  0  0  0  0  0  0  0  0
   -8.4263    0.4942    3.4981 H   0  0  0  0  0  0  0  0  0  0  0  0
    1.2995    0.9935   -4.5848 H   0  0  0  0  0  0  0  0  0  0  0  0
    3.7363    0.6391   -4.7664 H   0  0  0  0  0  0  0  0  0  0  0  0
    4.9663   -0.3378   -2.9292 H   0  0  0  0  0  0  0  0  0  0  0  0
    1.0284   -1.8684   -0.3177 H   0  0  0  0  0  0  0  0  0  0  0  0
    0.6728   -0.1651    0.2449 H   0  0  0  0  0  0  0  0  0  0  0  0
    2.8779    0.0578    1.1580 H   0  0  0  0  0  0  0  0  0  0  0  0
    2.7072   -1.7857    1.3436 H   0  0  0  0  0  0  0  0  0  0  0  0
    3.9091   -2.2826   -0.5049 H   0  0  0  0  0  0  0  0  0  0  0  0
    4.7532    0.4437    0.2575 H   0  0  0  0  0  0  0  0  0  0  0  0
    5.3863   -2.2641    1.1138 H   0  0  0  0  0  0  0  0  0  0  0  0
    4.4737   -0.9691    1.9552 H   0  0  0  0  0  0  0  0  0  0  0  0
    9.5347   -0.2268    2.0221 H   0  0  0  0  0  0  0  0  0  0  0  0
    9.0701    1.5375    2.0680 H   0  0  0  0  0  0  0  0  0  0  0  0
    8.4415    0.3696    3.3075 H   0  0  0  0  0  0  0  0  0  0  0  0
    8.4527    1.3990   -0.0909 H   0  0  0  0  0  0  0  0  0  0  0  0
    6.7149    1.7705    0.2146 H   0  0  0  0  0  0  0  0  0  0  0  0
    7.1451    0.2294   -0.6209 H   0  0  0  0  0  0  0  0  0  0  0  0
  1  2  3  0
  2  3  1  0
  3  4  2  0
  4  5  1  0
  5  6  2  0
  6  7  1  0
  7  8  2  0
  8  9  1  0
  9 10  1  0
 10 11  1  0
 10 12  1  0
  5 13  1  0
 13 14  1  0
 14 15  1  0
 15 16  2  0
 16 17  1  0
 16 18  1  0
 18 19  2  0
 19 20  1  0
 20 21  2  0
 21 22  1  0
 22 23  2  0
 23 24  1  0
 24 25  1  0
 25 26  1  0
 26 27  1  0
 27 28  1  0
 28 29  1  0
 29 30  2  0
 29 31  1  0
 31 32  1  0
 31 33  1  0
  8  3  1  0
 17 13  2  0
 23 18  1  0
 26 22  1  0
  4 34  1  0
  6 35  1  0
  7 36  1  0
 10 37  1  0
 11 38  1  0
 11 39  1  0
 11 40  1  0
 12 41  1  0
 12 42  1  0
 12 43  1  0
 19 44  1  0
 20 45  1  0
 21 46  1  0
 24 47  1  0
 24 48  1  0
 25 49  1  0
 25 50  1  0
 26 51  1  6
 27 52  1  0
 28 53  1  0
 28 54  1  0
 32 55  1  0
 32 56  1  0
 32 57  1  0
 33 58  1  0
 33 59  1  0
 33 60  1  0
M  END
>  <Ligand ID>  (1) 
LIG0001526

>  <Ligand>  (1) 
SCHEMBL1878491

>  <SMILES>  (1) 
N#Cc1cc(ccc1OC(C)C)c1onc(n1)c1cccc2c1CC[C@@H]2NCC(=O)N(C)C

>  <CID>  (1) 
58344520.0

>  <ChEMBL ID>  (1) 
nan

>  <InChiKey>  (1) 
NNJAIZIFOCFWSB-NRFANRHFSA-N

>  <InChi>  (1) 
InChI=1S/C25H27N5O3/c1-15(2)32-22-11-8-16(12-17(22)13-26)25-28-24(29-33-25)20-7-5-6-19-18(20)9-10-21(19)27-14-23(31)30(3)4/h5-8,11-12,15,21,27H,9-10,14H2,1-4H3/t21-/m0/s1

>  <IUPAC Name>  (1) 
2-[[(1S)-4-[5-(3-cyano-4-propan-2-yloxyphenyl)-1,2,4-oxadiazol-3-yl]-2,3-dihydro-1H-inden-1-yl]amino]-N,N-dimethylacetamide

$$$$
