
     RDKit          3D

 41 45  0  0  0  0  0  0  0  0999 V2000
    0.4134    1.6658    1.0046 O   0  0  0  0  0  0  0  0  0  0  0  0
    0.1931    0.5911    0.3552 C   0  0  0  0  0  0  0  0  0  0  0  0
   -1.1976    0.3177   -0.0095 C   0  0  0  0  0  0  0  0  0  0  0  0
   -1.5084    0.2451   -1.4618 C   0  0  0  0  0  0  0  0  0  0  0  0
   -3.0175    0.5516   -1.4267 C   0  0  0  0  0  0  0  0  0  0  0  0
   -3.0032    1.8200   -0.6000 C   0  0  0  0  0  0  0  0  0  0  0  0
   -2.1555    1.3568    0.5631 C   0  0  0  0  0  0  0  0  0  0  0  0
   -3.0840    0.5889    1.4815 C   0  0  0  0  0  0  0  0  0  0  0  0
   -3.1512   -0.7236    0.7263 C   0  0  0  0  0  0  0  0  0  0  0  0
   -1.6425   -0.9910    0.6424 C   0  0  0  0  0  0  0  0  0  0  0  0
   -3.6670   -0.5768   -0.6592 C   0  0  0  0  0  0  0  0  0  0  0  0
    1.3053   -0.2313    0.0509 N   0  0  0  0  0  0  0  0  0  0  0  0
    1.3348   -1.4860   -0.6630 C   0  0  0  0  0  0  0  0  0  0  0  0
    2.7887   -1.7089   -0.9992 C   0  0  0  0  0  0  0  0  0  0  0  0
    3.5397   -0.7538   -0.1579 C   0  0  0  0  0  0  0  0  0  0  0  0
    2.6405    0.0938    0.4412 C   0  0  0  0  0  0  0  0  0  0  0  0
    3.1962    1.0663    1.2806 C   0  0  0  0  0  0  0  0  0  0  0  0
    4.5568    1.1598    1.4864 C   0  0  0  0  0  0  0  0  0  0  0  0
    5.4325    0.2926    0.8691 C   0  0  0  0  0  0  0  0  0  0  0  0
    4.9095   -0.6741    0.0376 C   0  0  0  0  0  0  0  0  0  0  0  0
   -1.4172   -0.7602   -1.9192 H   0  0  0  0  0  0  0  0  0  0  0  0
   -1.0428    1.0500   -2.0463 H   0  0  0  0  0  0  0  0  0  0  0  0
   -3.4491    0.6462   -2.4138 H   0  0  0  0  0  0  0  0  0  0  0  0
   -4.0543    2.0025   -0.2974 H   0  0  0  0  0  0  0  0  0  0  0  0
   -2.5568    2.6326   -1.1683 H   0  0  0  0  0  0  0  0  0  0  0  0
   -1.6226    2.1672    1.0886 H   0  0  0  0  0  0  0  0  0  0  0  0
   -2.5695    0.3986    2.4464 H   0  0  0  0  0  0  0  0  0  0  0  0
   -4.0681    1.0728    1.5894 H   0  0  0  0  0  0  0  0  0  0  0  0
   -3.6840   -1.5006    1.2615 H   0  0  0  0  0  0  0  0  0  0  0  0
   -1.4306   -1.8694    0.0096 H   0  0  0  0  0  0  0  0  0  0  0  0
   -1.2047   -1.0071    1.6457 H   0  0  0  0  0  0  0  0  0  0  0  0
   -4.7635   -0.5040   -0.6596 H   0  0  0  0  0  0  0  0  0  0  0  0
   -3.4267   -1.5187   -1.2121 H   0  0  0  0  0  0  0  0  0  0  0  0
    0.7970   -1.5004   -1.6131 H   0  0  0  0  0  0  0  0  0  0  0  0
    0.9210   -2.3198   -0.0573 H   0  0  0  0  0  0  0  0  0  0  0  0
    3.0129   -1.5726   -2.0856 H   0  0  0  0  0  0  0  0  0  0  0  0
    3.0770   -2.7674   -0.7860 H   0  0  0  0  0  0  0  0  0  0  0  0
    2.5808    1.7830    1.8023 H   0  0  0  0  0  0  0  0  0  0  0  0
    4.9515    1.9332    2.1493 H   0  0  0  0  0  0  0  0  0  0  0  0
    6.4885    0.4048    1.0607 H   0  0  0  0  0  0  0  0  0  0  0  0
    5.5777   -1.3746   -0.4648 H   0  0  0  0  0  0  0  0  0  0  0  0
  1  2  2  0
  2  3  1  0
  3  4  1  0
  4  5  1  0
  5  6  1  0
  6  7  1  0
  7  8  1  0
  8  9  1  0
  9 10  1  0
  9 11  1  0
  2 12  1  0
 12 13  1  0
 13 14  1  0
 14 15  1  0
 15 16  2  0
 16 17  1  0
 17 18  2  0
 18 19  1  0
 19 20  2  0
 10  3  1  0
 16 12  1  0
  7  3  1  0
 20 15  1  0
 11  5  1  0
  4 21  1  0
  4 22  1  0
  5 23  1  0
  6 24  1  0
  6 25  1  0
  7 26  1  0
  8 27  1  0
  8 28  1  0
  9 29  1  0
 10 30  1  0
 10 31  1  0
 11 32  1  0
 11 33  1  0
 13 34  1  0
 13 35  1  0
 14 36  1  0
 14 37  1  0
 17 38  1  0
 18 39  1  0
 19 40  1  0
 20 41  1  0
M  END
>  <Ligand ID>  (1) 
LIG0001378

>  <Ligand>  (1) 
CHEMBL2338187

>  <SMILES>  (1) 
O=C(C12CC3CC2CC(C1)C3)N1CCc2c1cccc2

>  <CID>  (1) 
71720136.0

>  <ChEMBL ID>  (1) 
nan

>  <InChiKey>  (1) 
IHHKHUAUHBZSOV-UHFFFAOYSA-N

>  <InChi>  (1) 
InChI=1S/C18H21NO/c20-17(19-6-5-14-3-1-2-4-16(14)19)18-10-12-7-13(11-18)9-15(18)8-12/h1-4,12-13,15H,5-11H2

>  <IUPAC Name>  (1) 
2,3-dihydroindol-1-yl(3-tricyclo[3.3.1.03,7]nonanyl)methanone

$$$$
