
     RDKit          3D

 26 28  0  0  0  0  0  0  0  0999 V2000
    0.7911   -3.1252   -1.1404 O   0  0  0  0  0  0  0  0  0  0  0  0
    0.3534   -2.0704   -0.6692 C   0  0  0  0  0  0  0  0  0  0  0  0
   -1.0568   -1.7251   -0.6626 N   0  0  0  0  0  0  0  0  0  0  0  0
   -1.3640   -0.3439   -0.8054 C   0  0  1  0  0  0  0  0  0  0  0  0
   -2.7904    0.0754   -0.6608 C   0  0  0  0  0  0  0  0  0  0  0  0
   -2.5675    1.5276   -0.5334 N   0  0  0  0  0  0  0  0  0  0  0  0
   -1.4175    1.6445    0.3822 C   0  0  0  0  0  0  0  0  0  0  0  0
   -0.8078    0.3326    0.4651 C   0  0  2  0  0  0  0  0  0  0  0  0
    0.6110    0.1102    0.4485 C   0  0  0  0  0  0  0  0  0  0  0  0
    1.2145   -1.0316   -0.0529 C   0  0  0  0  0  0  0  0  0  0  0  0
    2.5812   -1.2142   -0.0212 C   0  0  0  0  0  0  0  0  0  0  0  0
    3.4144   -0.2539    0.5174 C   0  0  0  0  0  0  0  0  0  0  0  0
    2.8358    0.8947    1.0231 C   0  0  0  0  0  0  0  0  0  0  0  0
    1.4637    1.0609    0.9836 C   0  0  0  0  0  0  0  0  0  0  0  0
   -1.7382   -2.5084   -0.5571 H   0  0  0  0  0  0  0  0  0  0  0  0
   -0.8892    0.0737   -1.6906 H   0  0  0  0  0  0  0  0  0  0  0  0
   -3.3175   -0.1152   -1.6025 H   0  0  0  0  0  0  0  0  0  0  0  0
   -3.2319   -0.3471    0.2424 H   0  0  0  0  0  0  0  0  0  0  0  0
   -2.1507    1.7979   -1.4723 H   0  0  0  0  0  0  0  0  0  0  0  0
   -1.9229    1.8768    1.3662 H   0  0  0  0  0  0  0  0  0  0  0  0
   -0.8000    2.5247    0.1658 H   0  0  0  0  0  0  0  0  0  0  0  0
   -1.2287   -0.2681    1.3308 H   0  0  0  0  0  0  0  0  0  0  0  0
    2.9632   -2.1436   -0.4380 H   0  0  0  0  0  0  0  0  0  0  0  0
    4.4862   -0.3979    0.5419 H   0  0  0  0  0  0  0  0  0  0  0  0
    3.4872    1.6458    1.4439 H   0  0  0  0  0  0  0  0  0  0  0  0
    1.0814    1.9799    1.3953 H   0  0  0  0  0  0  0  0  0  0  0  0
  1  2  2  0
  2  3  1  0
  3  4  1  0
  4  5  1  0
  5  6  1  0
  6  7  1  0
  7  8  1  0
  8  9  1  0
  9 10  2  0
 10 11  1  0
 11 12  2  0
 12 13  1  0
 13 14  2  0
 10  2  1  0
  8  4  1  0
 14  9  1  0
  3 15  1  0
  4 16  1  6
  5 17  1  0
  5 18  1  0
  6 19  1  0
  7 20  1  0
  7 21  1  0
  8 22  1  1
 11 23  1  0
 12 24  1  0
 13 25  1  0
 14 26  1  0
M  END
>  <Ligand ID>  (1) 
LIG0002445

>  <Ligand>  (1) 
CHEMBL2337495

>  <SMILES>  (1) 
O=C1N[C@H]2CNC[C@@H]2c2c1cccc2

>  <CID>  (1) 
11492300.0

>  <ChEMBL ID>  (1) 
nan

>  <InChiKey>  (1) 
NTHCRSYJFQWRQI-ZJUUUORDSA-N

>  <InChi>  (1) 
InChI=1S/C11H12N2O/c14-11-8-4-2-1-3-7(8)9-5-12-6-10(9)13-11/h1-4,9-10,12H,5-6H2,(H,13,14)/t9-,10+/m1/s1

>  <IUPAC Name>  (1) 
(3aR,9bS)-1,2,3,3a,4,9b-hexahydropyrrolo[3,4-c]isoquinolin-5-one

$$$$
