
     RDKit          3D

 91 96  0  0  0  0  0  0  0  0999 V2000
   -4.8593    6.6098    2.1084 N   0  0  0  0  0  0  0  0  0  0  0  0
   -4.3531    6.4821    0.7609 C   0  0  0  0  0  0  0  0  0  0  0  0
   -3.3759    5.6607    0.6257 N   0  0  0  0  0  0  0  0  0  0  0  0
   -2.6896    5.3451   -0.5859 C   0  0  0  0  0  0  0  0  0  0  0  0
   -2.3209    3.8546   -0.6019 C   0  0  0  0  0  0  0  0  0  0  0  0
   -1.6118    3.6263   -1.8991 C   0  0  0  0  0  0  0  0  0  0  0  0
   -1.1466    2.2361   -2.1443 C   0  0  2  0  0  0  0  0  0  0  0  0
   -2.2636    1.2420   -2.1632 C   0  0  0  0  0  0  0  0  0  0  0  0
   -1.8744    0.2386   -1.1401 C   0  0  2  0  0  0  0  0  0  0  0  0
   -0.3484    0.2905   -1.2269 C   0  0  0  0  0  0  0  0  0  0  0  0
   -0.1063    1.7516   -1.2257 N   0  0  0  0  0  0  0  0  0  0  0  0
    0.8658    2.5083   -0.5759 C   0  0  0  0  0  0  0  0  0  0  0  0
    0.7456    3.8069   -0.7242 O   0  0  0  0  0  0  0  0  0  0  0  0
    2.0071    2.1446    0.2474 C   0  0  2  0  0  0  0  0  0  0  0  0
    2.3912    0.7827    0.3955 N   0  0  0  0  0  0  0  0  0  0  0  0
    3.6955    0.4035   -0.0906 C   0  0  0  0  0  0  0  0  0  0  0  0
    4.4709    1.2598   -0.6319 O   0  0  0  0  0  0  0  0  0  0  0  0
    4.2267   -0.9744   -0.0005 C   0  0  0  0  0  0  0  0  0  0  0  0
    3.3301   -1.9408    0.5284 N   0  0  0  0  0  0  0  0  0  0  0  0
    3.3659   -3.2301   -0.1308 C   0  0  0  0  0  0  0  0  0  0  0  0
    4.7377   -3.6385   -0.5477 C   0  0  0  0  0  0  0  0  0  0  0  0
    5.5316   -2.6700   -1.1787 C   0  0  0  0  0  0  0  0  0  0  0  0
    4.8519   -1.3317   -1.3322 C   0  0  0  0  0  0  0  0  0  0  0  0
    6.7969   -2.9152   -1.6061 C   0  0  0  0  0  0  0  0  0  0  0  0
    7.3397   -4.1880   -1.4119 C   0  0  0  0  0  0  0  0  0  0  0  0
    6.5558   -5.1485   -0.7871 C   0  0  0  0  0  0  0  0  0  0  0  0
    5.2603   -4.8785   -0.3556 C   0  0  0  0  0  0  0  0  0  0  0  0
    1.9268    2.8209    1.6429 C   0  0  0  0  0  0  0  0  0  0  0  0
    3.1209    2.3919    2.4246 C   0  0  0  0  0  0  0  0  0  0  0  0
    3.0051    1.2123    3.1705 C   0  0  0  0  0  0  0  0  0  0  0  0
    4.1024    0.7870    3.9026 C   0  0  0  0  0  0  0  0  0  0  0  0
    5.2560    1.5031    3.8908 C   0  0  0  0  0  0  0  0  0  0  0  0
    5.4017    2.6697    3.1662 C   0  0  0  0  0  0  0  0  0  0  0  0
    4.3065    3.0884    2.4394 C   0  0  0  0  0  0  0  0  0  0  0  0
   -2.4106   -1.0123   -1.2596 O   0  0  0  0  0  0  0  0  0  0  0  0
   -3.0917   -1.3581   -0.0948 C   0  0  0  0  0  0  0  0  0  0  0  0
   -3.7255   -2.6822   -0.1152 C   0  0  0  0  0  0  0  0  0  0  0  0
   -3.0389   -3.7997    0.2935 C   0  0  0  0  0  0  0  0  0  0  0  0
   -3.5848   -5.0729    0.3121 C   0  0  0  0  0  0  0  0  0  0  0  0
   -4.9103   -5.1799   -0.1172 C   0  0  0  0  0  0  0  0  0  0  0  0
   -5.6403   -4.1034   -0.5343 C   0  0  0  0  0  0  0  0  0  0  0  0
   -5.0330   -2.8655   -0.5265 C   0  0  0  0  0  0  0  0  0  0  0  0
   -6.9344   -4.3257   -0.9369 C   0  0  0  0  0  0  0  0  0  0  0  0
   -7.5278   -5.5631   -0.9413 C   0  0  0  0  0  0  0  0  0  0  0  0
   -6.7979   -6.6406   -0.5232 C   0  0  0  0  0  0  0  0  0  0  0  0
   -5.4856   -6.4573   -0.1084 C   0  0  0  0  0  0  0  0  0  0  0  0
   -4.9207    7.2264   -0.3156 N   0  0  0  0  0  0  0  0  0  0  0  0
   -5.8826    6.4924    2.3142 H   0  0  0  0  0  0  0  0  0  0  0  0
   -4.1997    6.8242    2.9054 H   0  0  0  0  0  0  0  0  0  0  0  0
   -1.7506    5.9148   -0.7346 H   0  0  0  0  0  0  0  0  0  0  0  0
   -3.3586    5.5332   -1.4537 H   0  0  0  0  0  0  0  0  0  0  0  0
   -1.7737    3.5474    0.2820 H   0  0  0  0  0  0  0  0  0  0  0  0
   -3.3208    3.3346   -0.5981 H   0  0  0  0  0  0  0  0  0  0  0  0
   -2.4125    3.8145   -2.7088 H   0  0  0  0  0  0  0  0  0  0  0  0
   -0.8446    4.3756   -2.1584 H   0  0  0  0  0  0  0  0  0  0  0  0
   -0.7168    2.2200   -3.1980 H   0  0  0  0  0  0  0  0  0  0  0  0
   -3.2084    1.7914   -1.9113 H   0  0  0  0  0  0  0  0  0  0  0  0
   -2.3722    0.7280   -3.1496 H   0  0  0  0  0  0  0  0  0  0  0  0
   -2.1470    0.6233   -0.1219 H   0  0  0  0  0  0  0  0  0  0  0  0
   -0.0148   -0.1940   -2.1403 H   0  0  0  0  0  0  0  0  0  0  0  0
   -0.0092   -0.2043   -0.3139 H   0  0  0  0  0  0  0  0  0  0  0  0
    2.9240    2.6920   -0.1832 H   0  0  0  0  0  0  0  0  0  0  0  0
    1.8607    0.0129    0.8398 H   0  0  0  0  0  0  0  0  0  0  0  0
    5.1282   -0.8720    0.6963 H   0  0  0  0  0  0  0  0  0  0  0  0
    3.5628   -2.1255    1.5498 H   0  0  0  0  0  0  0  0  0  0  0  0
    2.9254   -3.9742    0.5464 H   0  0  0  0  0  0  0  0  0  0  0  0
    2.7612   -3.1018   -1.0710 H   0  0  0  0  0  0  0  0  0  0  0  0
    5.6243   -0.5446   -1.5234 H   0  0  0  0  0  0  0  0  0  0  0  0
    4.0812   -1.4090   -2.1037 H   0  0  0  0  0  0  0  0  0  0  0  0
    7.3714   -2.1300   -2.0897 H   0  0  0  0  0  0  0  0  0  0  0  0
    8.3562   -4.4015   -1.7512 H   0  0  0  0  0  0  0  0  0  0  0  0
    6.9811   -6.1405   -0.6362 H   0  0  0  0  0  0  0  0  0  0  0  0
    4.6574   -5.6378    0.1311 H   0  0  0  0  0  0  0  0  0  0  0  0
    1.9886    3.9146    1.5310 H   0  0  0  0  0  0  0  0  0  0  0  0
    1.0357    2.4630    2.1834 H   0  0  0  0  0  0  0  0  0  0  0  0
    2.0700    0.6873    3.1411 H   0  0  0  0  0  0  0  0  0  0  0  0
    3.9700   -0.1364    4.4672 H   0  0  0  0  0  0  0  0  0  0  0  0
    6.1230    1.1851    4.4560 H   0  0  0  0  0  0  0  0  0  0  0  0
    6.3217    3.2487    3.1525 H   0  0  0  0  0  0  0  0  0  0  0  0
    4.3788    4.0059    1.8516 H   0  0  0  0  0  0  0  0  0  0  0  0
   -3.8096   -0.5325    0.0882 H   0  0  0  0  0  0  0  0  0  0  0  0
   -2.3694   -1.3221    0.7374 H   0  0  0  0  0  0  0  0  0  0  0  0
   -2.0089   -3.6645    0.6166 H   0  0  0  0  0  0  0  0  0  0  0  0
   -3.0258   -5.9490    0.6398 H   0  0  0  0  0  0  0  0  0  0  0  0
   -5.6226   -2.0079   -0.8614 H   0  0  0  0  0  0  0  0  0  0  0  0
   -7.5495   -3.4809   -1.2798 H   0  0  0  0  0  0  0  0  0  0  0  0
   -8.5520   -5.7048   -1.2640 H   0  0  0  0  0  0  0  0  0  0  0  0
   -7.2464   -7.6045   -0.5217 H   0  0  0  0  0  0  0  0  0  0  0  0
   -4.8796   -7.2955    0.2319 H   0  0  0  0  0  0  0  0  0  0  0  0
   -5.8661    7.0185   -0.7210 H   0  0  0  0  0  0  0  0  0  0  0  0
   -4.4209    8.0391   -0.7742 H   0  0  0  0  0  0  0  0  0  0  0  0
  1  2  1  0
  2  3  2  3
  3  4  1  0
  4  5  1  0
  5  6  1  0
  6  7  1  0
  7  8  1  0
  8  9  1  0
  9 10  1  0
 10 11  1  0
 11 12  1  0
 12 13  2  0
 12 14  1  0
 14 15  1  0
 15 16  1  0
 16 17  2  0
 16 18  1  0
 18 19  1  0
 19 20  1  0
 20 21  1  0
 21 22  2  0
 22 23  1  0
 22 24  1  0
 24 25  2  0
 25 26  1  0
 26 27  2  0
 14 28  1  0
 28 29  1  0
 29 30  2  0
 30 31  1  0
 31 32  2  0
 32 33  1  0
 33 34  2  0
  9 35  1  0
 35 36  1  0
 36 37  1  0
 37 38  2  0
 38 39  1  0
 39 40  2  0
 40 41  1  0
 41 42  2  0
 41 43  1  0
 43 44  2  0
 44 45  1  0
 45 46  2  0
  2 47  1  0
 11  7  1  0
 23 18  1  0
 34 29  1  0
 42 37  1  0
 27 21  1  0
 46 40  1  0
  1 48  1  0
  1 49  1  0
  4 50  1  0
  4 51  1  0
  5 52  1  0
  5 53  1  0
  6 54  1  0
  6 55  1  0
  7 56  1  6
  8 57  1  0
  8 58  1  0
  9 59  1  1
 10 60  1  0
 10 61  1  0
 14 62  1  6
 15 63  1  0
 18 64  1  0
 19 65  1  0
 20 66  1  0
 20 67  1  0
 23 68  1  0
 23 69  1  0
 24 70  1  0
 25 71  1  0
 26 72  1  0
 27 73  1  0
 28 74  1  0
 28 75  1  0
 30 76  1  0
 31 77  1  0
 32 78  1  0
 33 79  1  0
 34 80  1  0
 36 81  1  0
 36 82  1  0
 38 83  1  0
 39 84  1  0
 42 85  1  0
 43 86  1  0
 44 87  1  0
 45 88  1  0
 46 89  1  0
 47 90  1  0
 47 91  1  0
M  END
>  <Ligand ID>  (1) 
LIG0002421

>  <Ligand>  (1) 
CHEMBL213751

>  <SMILES>  (1) 
NC(=NCCC[C@@H]1C[C@H](CN1C(=O)[C@H](NC(=O)C1NCc2c(C1)cccc2)Cc1ccccc1)OCc1ccc2c(c1)cccc2)N

>  <CID>  (1) 
44413968.0

>  <ChEMBL ID>  (1) 
nan

>  <InChiKey>  (1) 
GBTCAHLJDYHAKJ-JFQBCVLUSA-N

>  <InChi>  (1) 
InChI=1S/C38H44N6O3/c39-38(40)41-18-8-15-32-22-33(47-25-27-16-17-28-11-4-5-12-29(28)19-27)24-44(32)37(46)35(20-26-9-2-1-3-10-26)43-36(45)34-21-30-13-6-7-14-31(30)23-42-34/h1-7,9-14,16-17,19,32-35,42H,8,15,18,20-25H2,(H,43,45)(H4,39,40,41)/t32-,33-,34?,35-/m1/s1

>  <IUPAC Name>  (1) 
N-[(2R)-1-[(2R,4R)-2-[3-(diaminomethylideneamino)propyl]-4-(naphthalen-2-ylmethoxy)pyrrolidin-1-yl]-1-oxo-3-phenylpropan-2-yl]-1,2,3,4-tetrahydroisoquinoline-3-carboxamide

$$$$
