
     RDKit          3D

 41 41  0  0  0  0  0  0  0  0999 V2000
    8.0002   -1.0684   -0.0413 O   0  0  0  0  0  0  0  0  0  0  0  0
    6.6971   -0.5678    0.1320 C   0  0  0  0  0  0  0  0  0  0  0  0
    5.7034   -1.6642    0.3522 C   0  0  0  0  0  0  0  0  0  0  0  0
    4.2837   -1.1801    0.5469 C   0  0  0  0  0  0  0  0  0  0  0  0
    3.8010   -0.4165   -0.6496 C   0  0  0  0  0  0  0  0  0  0  0  0
    2.4061    0.0515   -0.4483 C   0  0  0  0  0  0  0  0  0  0  0  0
    1.2748    0.4471   -0.2991 C   0  0  0  0  0  0  0  0  0  0  0  0
   -0.0661    0.9367   -0.1368 C   0  0  0  0  0  0  0  0  0  0  0  0
   -0.2272    2.3066   -0.1155 C   0  0  0  0  0  0  0  0  0  0  0  0
   -1.4695    2.8877    0.0350 C   0  0  0  0  0  0  0  0  0  0  0  0
   -2.5604    2.0337    0.1652 C   0  0  0  0  0  0  0  0  0  0  0  0
   -2.4044    0.6569    0.1445 C   0  0  0  0  0  0  0  0  0  0  0  0
   -1.1526    0.0964   -0.0071 C   0  0  0  0  0  0  0  0  0  0  0  0
   -3.6252   -0.1894    0.2904 C   0  0  1  0  0  0  0  0  0  0  0  0
   -4.7408    0.3616    1.2303 C   0  0  0  0  0  0  0  0  0  0  0  0
   -4.9029    0.3141   -0.2743 C   0  0  2  0  0  0  0  0  0  0  0  0
   -5.9519   -0.6242   -0.7767 C   0  0  0  0  0  0  0  0  0  0  0  0
   -6.3772   -1.4864    0.3039 N   0  0  0  0  0  0  0  0  0  0  0  0
    0.6867    0.0000    0.0000 Cl  0  0  0  0  0  0  0  0  0  0  0  0
    8.6101   -0.3011   -0.1560 H   0  0  0  0  0  0  0  0  0  0  0  0
    6.4680    0.0596   -0.7521 H   0  0  0  0  0  0  0  0  0  0  0  0
    6.7673    0.1228    1.0078 H   0  0  0  0  0  0  0  0  0  0  0  0
    5.7789   -2.3644   -0.5074 H   0  0  0  0  0  0  0  0  0  0  0  0
    6.0215   -2.2397    1.2491 H   0  0  0  0  0  0  0  0  0  0  0  0
    4.2046   -0.6291    1.4838 H   0  0  0  0  0  0  0  0  0  0  0  0
    3.6707   -2.1240    0.6450 H   0  0  0  0  0  0  0  0  0  0  0  0
    4.4788    0.4711   -0.7736 H   0  0  0  0  0  0  0  0  0  0  0  0
    3.8521   -1.0151   -1.5658 H   0  0  0  0  0  0  0  0  0  0  0  0
    0.6111    2.9797   -0.2156 H   0  0  0  0  0  0  0  0  0  0  0  0
   -1.6043    3.9544    0.0527 H   0  0  0  0  0  0  0  0  0  0  0  0
   -3.5203    2.5195    0.2816 H   0  0  0  0  0  0  0  0  0  0  0  0
   -1.0107   -0.9660   -0.0257 H   0  0  0  0  0  0  0  0  0  0  0  0
   -3.4923   -1.2784    0.2732 H   0  0  0  0  0  0  0  0  0  0  0  0
   -4.4826    1.3711    1.6668 H   0  0  0  0  0  0  0  0  0  0  0  0
   -5.2166   -0.3604    1.8897 H   0  0  0  0  0  0  0  0  0  0  0  0
   -4.9307    1.3189   -0.7776 H   0  0  0  0  0  0  0  0  0  0  0  0
   -5.4982   -1.3041   -1.5434 H   0  0  0  0  0  0  0  0  0  0  0  0
   -6.8341   -0.0947   -1.1704 H   0  0  0  0  0  0  0  0  0  0  0  0
   -6.9416   -1.0063    1.0270 H   0  0  0  0  0  0  0  0  0  0  0  0
   -5.6196   -2.0094    0.7699 H   0  0  0  0  0  0  0  0  0  0  0  0
   -0.6867    0.0000    0.0000 H   0  0  0  0  0  0  0  0  0  0  0  0
  1  2  1  0
  2  3  1  0
  3  4  1  0
  4  5  1  0
  5  6  1  0
  6  7  3  0
  7  8  1  0
  8  9  2  0
  9 10  1  0
 10 11  2  0
 11 12  1  0
 12 13  2  0
 12 14  1  0
 14 15  1  0
 15 16  1  0
 16 17  1  0
 17 18  1  0
 13  8  1  0
 16 14  1  0
  1 20  1  0
  2 21  1  0
  2 22  1  0
  3 23  1  0
  3 24  1  0
  4 25  1  0
  4 26  1  0
  5 27  1  0
  5 28  1  0
  9 29  1  0
 10 30  1  0
 11 31  1  0
 13 32  1  0
 14 33  1  1
 15 34  1  0
 15 35  1  0
 16 36  1  6
 17 37  1  0
 17 38  1  0
 18 39  1  0
 18 40  1  0
 19 41  1  0
M  END
>  <Ligand ID>  (1) 
LIG0005673

>  <Ligand>  (1) 
CHEMBL472678

>  <SMILES>  (1) 
OCCCCC#Cc1cccc(c1)[C@H]1C[C@@H]1CN.Cl

>  <CID>  (1) 
44572370.0

>  <ChEMBL ID>  (1) 
nan

>  <InChiKey>  (1) 
URRHUKYYHCWCKU-QNBGGDODSA-N

>  <InChi>  (1) 
InChI=1S/C16H21NO.ClH/c17-12-15-11-16(15)14-8-5-7-13(10-14)6-3-1-2-4-9-18;/h5,7-8,10,15-16,18H,1-2,4,9,11-12,17H2;1H/t15-,16-;/m1./s1

>  <IUPAC Name>  (1) 
6-[3-[(1S,2S)-2-(aminomethyl)cyclopropyl]phenyl]hex-5-yn-1-ol;hydrochloride

$$$$
