
     RDKit          3D

 61 65  0  0  0  0  0  0  0  0999 V2000
    7.4367    0.9510   -2.1190 O   0  0  0  0  0  0  0  0  0  0  0  0
    8.2855    0.9181   -1.0418 C   0  0  0  0  0  0  0  0  0  0  0  0
    9.3372    1.6389   -1.1247 O   0  0  0  0  0  0  0  0  0  0  0  0
    8.1035    0.1426    0.1835 C   0  0  0  0  0  0  0  0  0  0  0  0
    6.8663   -0.6815    0.2628 C   0  0  0  0  0  0  0  0  0  0  0  0
    6.7579   -1.4235    1.5081 N   0  0  0  0  0  0  0  0  0  0  0  0
    5.6806   -2.3563    1.4833 C   0  0  0  0  0  0  0  0  0  0  0  0
    4.6297   -2.1230    0.4494 C   0  0  0  0  0  0  0  0  0  0  0  0
    4.4271   -0.6544    0.2290 C   0  0  0  0  0  0  0  0  0  0  0  0
    5.6148    0.0882    0.1333 C   0  0  0  0  0  0  0  0  0  0  0  0
    5.2583    1.3710   -0.0610 N   0  0  0  0  0  0  0  0  0  0  0  0
    3.9029    1.4503   -0.0893 C   0  0  0  0  0  0  0  0  0  0  0  0
    3.3705    0.1905    0.0909 C   0  0  0  0  0  0  0  0  0  0  0  0
    2.0155   -0.0654    0.1123 C   0  0  0  0  0  0  0  0  0  0  0  0
    1.1482    0.9919   -0.0551 C   0  0  0  0  0  0  0  0  0  0  0  0
    1.6566    2.2758   -0.2391 C   0  0  0  0  0  0  0  0  0  0  0  0
    3.0263    2.5056   -0.2564 C   0  0  0  0  0  0  0  0  0  0  0  0
   -0.2266    0.8627   -0.0527 O   0  0  0  0  0  0  0  0  0  0  0  0
   -0.7963   -0.4066    0.1285 C   0  0  0  0  0  0  0  0  0  0  0  0
   -2.2726   -0.3790    0.1062 C   0  0  0  0  0  0  0  0  0  0  0  0
   -3.0251   -0.5332   -1.0373 C   0  0  0  0  0  0  0  0  0  0  0  0
   -4.4033   -0.4985   -1.0014 C   0  0  0  0  0  0  0  0  0  0  0  0
   -5.1112   -0.3099    0.1633 C   0  0  0  0  0  0  0  0  0  0  0  0
   -4.3599   -0.1526    1.3296 C   0  0  0  0  0  0  0  0  0  0  0  0
   -2.9600   -0.1890    1.2853 C   0  0  0  0  0  0  0  0  0  0  0  0
   -4.9642    0.0526    2.6567 C   0  0  0  0  0  0  0  0  0  0  0  0
   -4.0041    0.1925    3.6712 F   0  0  0  0  0  0  0  0  0  0  0  0
   -5.5943   -1.1580    2.9931 F   0  0  0  0  0  0  0  0  0  0  0  0
   -5.8779    1.0287    2.7772 F   0  0  0  0  0  0  0  0  0  0  0  0
   -6.5873   -0.2634    0.2459 C   0  0  0  0  0  0  0  0  0  0  0  0
   -7.1292    1.1296    0.0842 C   0  0  0  0  0  0  0  0  0  0  0  0
   -7.4881    1.2835   -1.3719 C   0  0  0  0  0  0  0  0  0  0  0  0
   -7.6399   -0.0823   -1.9418 C   0  0  0  0  0  0  0  0  0  0  0  0
   -7.3007   -1.0097   -0.8438 C   0  0  0  0  0  0  0  0  0  0  0  0
    7.8142    1.0361   -3.0616 H   0  0  0  0  0  0  0  0  0  0  0  0
    9.0135   -0.4687    0.3486 H   0  0  0  0  0  0  0  0  0  0  0  0
    8.0798    0.8258    1.0837 H   0  0  0  0  0  0  0  0  0  0  0  0
    6.8828   -1.4319   -0.5539 H   0  0  0  0  0  0  0  0  0  0  0  0
    6.7154   -0.7544    2.3116 H   0  0  0  0  0  0  0  0  0  0  0  0
    6.0295   -3.4187    1.3957 H   0  0  0  0  0  0  0  0  0  0  0  0
    5.1986   -2.3162    2.4930 H   0  0  0  0  0  0  0  0  0  0  0  0
    4.8638   -2.6292   -0.4955 H   0  0  0  0  0  0  0  0  0  0  0  0
    3.6838   -2.5815    0.8370 H   0  0  0  0  0  0  0  0  0  0  0  0
    5.9283    2.1634   -0.1699 H   0  0  0  0  0  0  0  0  0  0  0  0
    1.6267   -1.0604    0.2551 H   0  0  0  0  0  0  0  0  0  0  0  0
    0.9791    3.1081   -0.3708 H   0  0  0  0  0  0  0  0  0  0  0  0
    3.3924    3.5184   -0.4020 H   0  0  0  0  0  0  0  0  0  0  0  0
   -0.4145   -1.0858   -0.6550 H   0  0  0  0  0  0  0  0  0  0  0  0
   -0.4761   -0.7828    1.1264 H   0  0  0  0  0  0  0  0  0  0  0  0
   -2.5095   -0.6860   -1.9902 H   0  0  0  0  0  0  0  0  0  0  0  0
   -4.9233   -0.6249   -1.9161 H   0  0  0  0  0  0  0  0  0  0  0  0
   -2.3750   -0.0643    2.2067 H   0  0  0  0  0  0  0  0  0  0  0  0
   -6.9503   -0.7330    1.2100 H   0  0  0  0  0  0  0  0  0  0  0  0
   -6.3962    1.9351    0.2931 H   0  0  0  0  0  0  0  0  0  0  0  0
   -8.0472    1.2254    0.6850 H   0  0  0  0  0  0  0  0  0  0  0  0
   -8.3780    1.9424   -1.5093 H   0  0  0  0  0  0  0  0  0  0  0  0
   -6.6763    1.8020   -1.9611 H   0  0  0  0  0  0  0  0  0  0  0  0
   -8.7377   -0.1765   -2.2194 H   0  0  0  0  0  0  0  0  0  0  0  0
   -7.0537   -0.2386   -2.8751 H   0  0  0  0  0  0  0  0  0  0  0  0
   -8.2859   -1.3654   -0.4090 H   0  0  0  0  0  0  0  0  0  0  0  0
   -6.7611   -1.9259   -1.1634 H   0  0  0  0  0  0  0  0  0  0  0  0
  1  2  1  0
  2  3  2  0
  2  4  1  0
  4  5  1  0
  5  6  1  0
  6  7  1  0
  7  8  1  0
  8  9  1  0
  9 10  2  0
 10 11  1  0
 11 12  1  0
 12 13  2  0
 13 14  1  0
 14 15  2  0
 15 16  1  0
 16 17  2  0
 15 18  1  0
 18 19  1  0
 19 20  1  0
 20 21  2  0
 21 22  1  0
 22 23  2  0
 23 24  1  0
 24 25  2  0
 24 26  1  0
 26 27  1  0
 26 28  1  0
 26 29  1  0
 23 30  1  0
 30 31  1  0
 31 32  1  0
 32 33  1  0
 33 34  1  0
 10  5  1  0
 17 12  1  0
 25 20  1  0
 34 30  1  0
 13  9  1  0
  1 35  1  0
  4 36  1  0
  4 37  1  0
  5 38  1  0
  6 39  1  0
  7 40  1  0
  7 41  1  0
  8 42  1  0
  8 43  1  0
 11 44  1  0
 14 45  1  0
 16 46  1  0
 17 47  1  0
 19 48  1  0
 19 49  1  0
 21 50  1  0
 22 51  1  0
 25 52  1  0
 30 53  1  0
 31 54  1  0
 31 55  1  0
 32 56  1  0
 32 57  1  0
 33 58  1  0
 33 59  1  0
 34 60  1  0
 34 61  1  0
M  END
>  <Ligand ID>  (1) 
LIG0000671

>  <Ligand>  (1) 
CHEMBL3403619

>  <SMILES>  (1) 
OC(=O)CC1NCCc2c1[nH]c1c2cc(cc1)OCc1ccc(c(c1)C(F)(F)F)C1CCCC1

>  <CID>  (1) 
49839234.0

>  <ChEMBL ID>  (1) 
nan

>  <InChiKey>  (1) 
ISBCPWVJRHMKFI-UHFFFAOYSA-N

>  <InChi>  (1) 
InChI=1S/C26H27F3N2O3/c27-26(28,29)21-11-15(5-7-18(21)16-3-1-2-4-16)14-34-17-6-8-22-20(12-17)19-9-10-30-23(13-24(32)33)25(19)31-22/h5-8,11-12,16,23,30-31H,1-4,9-10,13-14H2,(H,32,33)

>  <IUPAC Name>  (1) 
2-[6-[[4-cyclopentyl-3-(trifluoromethyl)phenyl]methoxy]-2,3,4,9-tetrahydro-1H-pyrido[3,4-b]indol-1-yl]acetic acid

$$$$
