
     RDKit          3D

 71 74  0  0  0  0  0  0  0  0999 V2000
   -5.3792    5.2714   -0.4181 C   0  0  0  0  0  0  0  0  0  0  0  0
   -4.7000    3.9858    0.1341 C   0  0  0  0  0  0  0  0  0  0  0  0
   -3.2831    4.0537   -0.2218 C   0  0  0  0  0  0  0  0  0  0  0  0
   -2.9046    5.2194   -0.6263 O   0  0  0  0  0  0  0  0  0  0  0  0
   -2.2787    3.0805   -0.2044 N   0  0  0  0  0  0  0  0  0  0  0  0
   -0.9302    3.4588   -0.6755 C   0  0  0  0  0  0  0  0  0  0  0  0
   -0.6861    2.5437   -1.8712 C   0  0  0  0  0  0  0  0  0  0  0  0
   -0.5706    1.0901   -1.4071 C   0  0  2  0  0  0  0  0  0  0  0  0
   -1.6023    0.8000   -0.4017 C   0  0  0  0  0  0  0  0  0  0  0  0
   -2.4130    1.7342    0.1968 C   0  0  0  0  0  0  0  0  0  0  0  0
   -3.3438    1.4160    1.1422 C   0  0  0  0  0  0  0  0  0  0  0  0
   -3.5263    0.1286    1.5525 C   0  0  0  0  0  0  0  0  0  0  0  0
   -2.7301   -0.8444    0.9732 C   0  0  0  0  0  0  0  0  0  0  0  0
   -1.7726   -0.5260    0.0038 C   0  0  0  0  0  0  0  0  0  0  0  0
   -2.9342   -2.2383    1.4356 C   0  0  0  0  0  0  0  0  0  0  0  0
   -4.0445   -2.9316    0.7330 C   0  0  0  0  0  0  0  0  0  0  0  0
   -3.8954   -3.6113   -0.4488 C   0  0  0  0  0  0  0  0  0  0  0  0
   -4.9730   -4.2286   -1.0286 C   0  0  0  0  0  0  0  0  0  0  0  0
   -6.2034   -4.1545   -0.4053 C   0  0  0  0  0  0  0  0  0  0  0  0
   -6.3744   -3.4780    0.7799 C   0  0  0  0  0  0  0  0  0  0  0  0
   -5.2914   -2.8657    1.3490 C   0  0  0  0  0  0  0  0  0  0  0  0
    0.7763    1.0110   -0.8161 N   0  0  0  0  0  0  0  0  0  0  0  0
    1.8127    0.2384   -1.3538 C   0  0  0  0  0  0  0  0  0  0  0  0
    1.6136   -0.4424   -2.4093 O   0  0  0  0  0  0  0  0  0  0  0  0
    3.1745    0.1542   -0.7600 C   0  0  2  0  0  0  0  0  0  0  0  0
    3.6075   -1.2810   -0.6035 C   0  0  0  0  0  0  0  0  0  0  0  0
    4.9409   -1.3397   -0.0131 C   0  0  0  0  0  0  0  0  0  0  0  0
    5.1900   -1.2154    1.3361 C   0  0  0  0  0  0  0  0  0  0  0  0
    4.1243   -1.0631    2.3582 C   0  0  0  0  0  0  0  0  0  0  0  0
    6.4994   -1.2552    1.8311 C   0  0  0  0  0  0  0  0  0  0  0  0
    7.5868   -1.4194    0.9989 C   0  0  0  0  0  0  0  0  0  0  0  0
    7.3322   -1.5441   -0.3506 C   0  0  0  0  0  0  0  0  0  0  0  0
    6.0295   -1.5064   -0.8648 C   0  0  0  0  0  0  0  0  0  0  0  0
    5.7879   -1.6456   -2.3285 C   0  0  0  0  0  0  0  0  0  0  0  0
    8.8933   -1.4616    1.4663 O   0  0  0  0  0  0  0  0  0  0  0  0
    3.3401    0.8706    0.4559 N   0  0  0  0  0  0  0  0  0  0  0  0
   -6.3935    5.2633   -0.0006 H   0  0  0  0  0  0  0  0  0  0  0  0
   -5.3925    5.2387   -1.5252 H   0  0  0  0  0  0  0  0  0  0  0  0
   -4.8322    6.1392   -0.0016 H   0  0  0  0  0  0  0  0  0  0  0  0
   -5.1625    3.0874   -0.2442 H   0  0  0  0  0  0  0  0  0  0  0  0
   -4.8461    4.1135    1.2474 H   0  0  0  0  0  0  0  0  0  0  0  0
   -0.2153    3.3307    0.1325 H   0  0  0  0  0  0  0  0  0  0  0  0
   -0.9008    4.4905   -1.0495 H   0  0  0  0  0  0  0  0  0  0  0  0
   -1.5228    2.6621   -2.5713 H   0  0  0  0  0  0  0  0  0  0  0  0
    0.3038    2.8431   -2.2668 H   0  0  0  0  0  0  0  0  0  0  0  0
   -0.6772    0.4627   -2.2925 H   0  0  0  0  0  0  0  0  0  0  0  0
   -3.9288    2.1912    1.5746 H   0  0  0  0  0  0  0  0  0  0  0  0
   -4.2663   -0.1023    2.3001 H   0  0  0  0  0  0  0  0  0  0  0  0
   -1.1708   -1.3285   -0.4207 H   0  0  0  0  0  0  0  0  0  0  0  0
   -3.1083   -2.1931    2.5304 H   0  0  0  0  0  0  0  0  0  0  0  0
   -2.0248   -2.8611    1.2873 H   0  0  0  0  0  0  0  0  0  0  0  0
   -2.9210   -3.6568   -0.9195 H   0  0  0  0  0  0  0  0  0  0  0  0
   -4.9120   -4.7792   -1.9622 H   0  0  0  0  0  0  0  0  0  0  0  0
   -7.1013   -4.6257   -0.8169 H   0  0  0  0  0  0  0  0  0  0  0  0
   -7.3310   -3.4016    1.2955 H   0  0  0  0  0  0  0  0  0  0  0  0
   -5.4086   -2.3205    2.2944 H   0  0  0  0  0  0  0  0  0  0  0  0
    0.9078    1.5803    0.0428 H   0  0  0  0  0  0  0  0  0  0  0  0
    3.9317    0.6018   -1.4815 H   0  0  0  0  0  0  0  0  0  0  0  0
    2.8200   -1.7458    0.0559 H   0  0  0  0  0  0  0  0  0  0  0  0
    3.5222   -1.8494   -1.5565 H   0  0  0  0  0  0  0  0  0  0  0  0
    4.1547   -0.1110    2.9080 H   0  0  0  0  0  0  0  0  0  0  0  0
    4.4007   -1.8318    3.1523 H   0  0  0  0  0  0  0  0  0  0  0  0
    3.1262   -1.3884    2.0334 H   0  0  0  0  0  0  0  0  0  0  0  0
    6.6926   -1.1573    2.8915 H   0  0  0  0  0  0  0  0  0  0  0  0
    8.1460   -1.6763   -1.0585 H   0  0  0  0  0  0  0  0  0  0  0  0
    5.1567   -2.5247   -2.5623 H   0  0  0  0  0  0  0  0  0  0  0  0
    5.4293   -0.7126   -2.8059 H   0  0  0  0  0  0  0  0  0  0  0  0
    6.7764   -1.8470   -2.7990 H   0  0  0  0  0  0  0  0  0  0  0  0
    9.4428   -0.6018    1.6150 H   0  0  0  0  0  0  0  0  0  0  0  0
    3.9046    1.7419    0.3658 H   0  0  0  0  0  0  0  0  0  0  0  0
    2.5284    0.9642    1.0693 H   0  0  0  0  0  0  0  0  0  0  0  0
  1  2  1  0
  2  3  1  0
  3  4  2  0
  3  5  1  0
  5  6  1  0
  6  7  1  0
  7  8  1  0
  8  9  1  0
  9 10  2  0
 10 11  1  0
 11 12  2  0
 12 13  1  0
 13 14  2  0
 13 15  1  0
 15 16  1  0
 16 17  2  0
 17 18  1  0
 18 19  2  0
 19 20  1  0
 20 21  2  0
  8 22  1  0
 22 23  1  0
 23 24  2  0
 23 25  1  0
 25 26  1  0
 26 27  1  0
 27 28  2  0
 28 29  1  0
 28 30  1  0
 30 31  2  0
 31 32  1  0
 32 33  2  0
 33 34  1  0
 31 35  1  0
 25 36  1  0
 10  5  1  0
 21 16  1  0
 33 27  1  0
 14  9  1  0
  1 37  1  0
  1 38  1  0
  1 39  1  0
  2 40  1  0
  2 41  1  0
  6 42  1  0
  6 43  1  0
  7 44  1  0
  7 45  1  0
  8 46  1  6
 11 47  1  0
 12 48  1  0
 14 49  1  0
 15 50  1  0
 15 51  1  0
 17 52  1  0
 18 53  1  0
 19 54  1  0
 20 55  1  0
 21 56  1  0
 22 57  1  0
 25 58  1  6
 26 59  1  0
 26 60  1  0
 29 61  1  0
 29 62  1  0
 29 63  1  0
 30 64  1  0
 32 65  1  0
 34 66  1  0
 34 67  1  0
 34 68  1  0
 35 69  1  0
 36 70  1  0
 36 71  1  0
M  END
>  <Ligand ID>  (1) 
LIG0004041

>  <Ligand>  (1) 
CHEMBL3822956

>  <SMILES>  (1) 
CCC(=O)N1CC[C@H](c2c1ccc(c2)Cc1ccccc1)NC(=O)[C@H](Cc1c(C)cc(cc1C)O)N

>  <CID>  (1) 
127050108.0

>  <ChEMBL ID>  (1) 
nan

>  <InChiKey>  (1) 
QFHBAYMQVLMKAH-RRPNLBNLSA-N

>  <InChi>  (1) 
InChI=1S/C30H35N3O3/c1-4-29(35)33-13-12-27(25-17-22(10-11-28(25)33)16-21-8-6-5-7-9-21)32-30(36)26(31)18-24-19(2)14-23(34)15-20(24)3/h5-11,14-15,17,26-27,34H,4,12-13,16,18,31H2,1-3H3,(H,32,36)/t26-,27+/m0/s1

>  <IUPAC Name>  (1) 
(2S)-2-amino-N-[(4R)-6-benzyl-1-propanoyl-3,4-dihydro-2H-quinolin-4-yl]-3-(4-hydroxy-2,6-dimethylphenyl)propanamide

$$$$
