
     RDKit          3D

 29 29  0  0  0  0  0  0  0  0999 V2000
   -3.0542   -0.0774   -0.0083 C   0  0  0  0  0  0  0  0  0  0  0  0
   -1.7558   -0.4752   -0.7220 C   0  0  2  0  0  0  0  0  0  0  0  0
   -0.9943   -1.4740    0.0652 C   0  0  0  0  0  0  0  0  0  0  0  0
    0.1306   -1.0021    0.9045 C   0  0  0  0  0  0  0  0  0  0  0  0
    0.8525    0.2097    0.4607 C   0  0  2  0  0  0  0  0  0  0  0  0
   -0.0488    1.2699   -0.1294 C   0  0  1  0  0  0  0  0  0  0  0  0
   -1.0192    0.7435   -1.1342 C   0  0  0  0  0  0  0  0  0  0  0  0
   -0.6821    1.9269    0.9118 O   0  0  0  0  0  0  0  0  0  0  0  0
    2.0361   -0.0375   -0.4063 C   0  0  0  0  0  0  0  0  0  0  0  0
    2.3192   -1.2143   -0.9505 C   0  0  0  0  0  0  0  0  0  0  0  0
    2.9499    1.1070   -0.6732 C   0  0  0  0  0  0  0  0  0  0  0  0
   -3.8578   -0.8242   -0.2305 H   0  0  0  0  0  0  0  0  0  0  0  0
   -2.9412   -0.0580    1.0873 H   0  0  0  0  0  0  0  0  0  0  0  0
   -3.4185    0.8853   -0.4185 H   0  0  0  0  0  0  0  0  0  0  0  0
   -2.1082   -0.9660   -1.6567 H   0  0  0  0  0  0  0  0  0  0  0  0
   -1.7418   -1.9635    0.7512 H   0  0  0  0  0  0  0  0  0  0  0  0
   -0.6527   -2.3103   -0.5808 H   0  0  0  0  0  0  0  0  0  0  0  0
    0.8855   -1.8329    1.0151 H   0  0  0  0  0  0  0  0  0  0  0  0
   -0.2155   -0.8532    1.9705 H   0  0  0  0  0  0  0  0  0  0  0  0
    1.2894    0.7071    1.3779 H   0  0  0  0  0  0  0  0  0  0  0  0
    0.6418    1.9650   -0.6807 H   0  0  0  0  0  0  0  0  0  0  0  0
   -0.5239    0.6255   -2.1197 H   0  0  0  0  0  0  0  0  0  0  0  0
   -1.7831    1.5565   -1.2808 H   0  0  0  0  0  0  0  0  0  0  0  0
   -0.8804    1.2636    1.6157 H   0  0  0  0  0  0  0  0  0  0  0  0
    3.2109   -1.3509   -1.5888 H   0  0  0  0  0  0  0  0  0  0  0  0
    1.7227   -2.1071   -0.8202 H   0  0  0  0  0  0  0  0  0  0  0  0
    2.7635    1.5544   -1.6633 H   0  0  0  0  0  0  0  0  0  0  0  0
    2.8539    1.9207    0.0814 H   0  0  0  0  0  0  0  0  0  0  0  0
    4.0212    0.8114   -0.6542 H   0  0  0  0  0  0  0  0  0  0  0  0
  1  2  1  0
  2  3  1  0
  3  4  1  0
  4  5  1  0
  5  6  1  0
  6  7  1  0
  6  8  1  0
  5  9  1  0
  9 10  2  0
  9 11  1  0
  7  2  1  0
  1 12  1  0
  1 13  1  0
  1 14  1  0
  2 15  1  6
  3 16  1  0
  3 17  1  0
  4 18  1  0
  4 19  1  0
  5 20  1  1
  6 21  1  6
  7 22  1  0
  7 23  1  0
  8 24  1  0
 10 25  1  0
 10 26  1  0
 11 27  1  0
 11 28  1  0
 11 29  1  0
M  END
>  <Ligand ID>  (1) 
LIG0000291

>  <Ligand>  (1) 
Isopulegol

>  <SMILES>  (1) 
C[C@@H]1CC[C@H]([C@@H](C1)O)C(=C)C

>  <CID>  (1) 
170833.0

>  <ChEMBL ID>  (1) 
nan

>  <InChiKey>  (1) 
ZYTMANIQRDEHIO-KXUCPTDWSA-N

>  <InChi>  (1) 
InChI=1S/C10H18O/c1-7(2)9-5-4-8(3)6-10(9)11/h8-11H,1,4-6H2,2-3H3/t8-,9+,10-/m1/s1

>  <IUPAC Name>  (1) 
(1R,2S,5R)-5-methyl-2-prop-1-en-2-ylcyclohexan-1-ol

$$$$
