
     RDKit          3D

 50 52  0  0  0  0  0  0  0  0999 V2000
    8.4467   -1.5451   -0.5237 C   0  0  0  0  0  0  0  0  0  0  0  0
    7.5553   -0.7246    0.4068 C   0  0  0  0  0  0  0  0  0  0  0  0
    6.2605   -0.7069   -0.1924 O   0  0  0  0  0  0  0  0  0  0  0  0
    5.2032   -0.0283    0.4093 C   0  0  0  0  0  0  0  0  0  0  0  0
    5.4515    0.5541    1.4919 O   0  0  0  0  0  0  0  0  0  0  0  0
    3.8737   -0.0156   -0.2183 C   0  0  0  0  0  0  0  0  0  0  0  0
    3.5227   -0.6320   -1.4048 C   0  0  0  0  0  0  0  0  0  0  0  0
    4.4255   -1.4517   -2.2777 C   0  0  0  0  0  0  0  0  0  0  0  0
    2.2241   -0.3808   -1.6499 N   0  0  0  0  0  0  0  0  0  0  0  0
    1.7384    0.3719   -0.6630 C   0  0  0  0  0  0  0  0  0  0  0  0
    2.7421    0.6388    0.2823 C   0  0  0  0  0  0  0  0  0  0  0  0
    2.6136    1.4386    1.5305 C   0  0  0  0  0  0  0  0  0  0  0  0
    0.3870    0.8999   -0.5342 C   0  0  0  0  0  0  0  0  0  0  0  0
   -0.4426    0.6223   -1.4653 O   0  0  0  0  0  0  0  0  0  0  0  0
   -0.0571    1.6668    0.4961 O   0  0  0  0  0  0  0  0  0  0  0  0
   -1.2982    2.2330    0.7133 C   0  0  0  0  0  0  0  0  0  0  0  0
   -2.4490    1.3326    0.8026 C   0  0  0  0  0  0  0  0  0  0  0  0
   -3.4289    1.4932   -0.0815 C   0  0  0  0  0  0  0  0  0  0  0  0
   -4.6302    0.6799   -0.1153 C   0  0  0  0  0  0  0  0  0  0  0  0
   -5.2962    0.1600   -1.1708 N   0  0  0  0  0  0  0  0  0  0  0  0
   -6.3802   -0.4992   -0.7373 C   0  0  0  0  0  0  0  0  0  0  0  0
   -6.3648   -0.3686    0.6601 C   0  0  0  0  0  0  0  0  0  0  0  0
   -5.2958    0.3506    1.0353 N   0  0  0  0  0  0  0  0  0  0  0  0
   -7.3544   -0.9306    1.4244 C   0  0  0  0  0  0  0  0  0  0  0  0
   -8.4170   -1.6512    0.9114 C   0  0  0  0  0  0  0  0  0  0  0  0
   -8.4205   -1.7747   -0.4859 C   0  0  0  0  0  0  0  0  0  0  0  0
   -7.4261   -1.2096   -1.2617 C   0  0  0  0  0  0  0  0  0  0  0  0
   -3.3468    2.5340   -1.1003 C   0  0  0  0  0  0  0  0  0  0  0  0
   -3.2649    3.3712   -1.9183 N   0  0  0  0  0  0  0  0  0  0  0  0
   -2.5424    0.3508    1.7505 O   0  0  0  0  0  0  0  0  0  0  0  0
    8.4752   -2.6019   -0.1748 H   0  0  0  0  0  0  0  0  0  0  0  0
    8.0390   -1.4729   -1.5533 H   0  0  0  0  0  0  0  0  0  0  0  0
    9.4421   -1.0735   -0.5300 H   0  0  0  0  0  0  0  0  0  0  0  0
    7.5542   -1.2612    1.3906 H   0  0  0  0  0  0  0  0  0  0  0  0
    7.9800    0.2879    0.5476 H   0  0  0  0  0  0  0  0  0  0  0  0
    3.9759   -1.5547   -3.2826 H   0  0  0  0  0  0  0  0  0  0  0  0
    4.5549   -2.4716   -1.8735 H   0  0  0  0  0  0  0  0  0  0  0  0
    5.3951   -0.9132   -2.4142 H   0  0  0  0  0  0  0  0  0  0  0  0
    1.6506   -0.7099   -2.4826 H   0  0  0  0  0  0  0  0  0  0  0  0
    3.3789    1.1420    2.2649 H   0  0  0  0  0  0  0  0  0  0  0  0
    2.6724    2.5227    1.2733 H   0  0  0  0  0  0  0  0  0  0  0  0
    1.6261    1.2561    2.0134 H   0  0  0  0  0  0  0  0  0  0  0  0
   -1.4535    3.0114   -0.0763 H   0  0  0  0  0  0  0  0  0  0  0  0
   -1.1957    2.8627    1.6538 H   0  0  0  0  0  0  0  0  0  0  0  0
   -5.0318    0.6056    2.0146 H   0  0  0  0  0  0  0  0  0  0  0  0
   -7.3486   -0.8277    2.5152 H   0  0  0  0  0  0  0  0  0  0  0  0
   -9.1925   -2.0904    1.5168 H   0  0  0  0  0  0  0  0  0  0  0  0
   -9.2311   -2.3311   -0.9591 H   0  0  0  0  0  0  0  0  0  0  0  0
   -7.4693   -1.3331   -2.3363 H   0  0  0  0  0  0  0  0  0  0  0  0
   -1.8512    0.1741    2.4589 H   0  0  0  0  0  0  0  0  0  0  0  0
  1  2  1  0
  2  3  1  0
  3  4  1  0
  4  5  2  0
  4  6  1  0
  6  7  2  0
  7  8  1  0
  7  9  1  0
  9 10  1  0
 10 11  2  0
 11 12  1  0
 10 13  1  0
 13 14  2  0
 13 15  1  0
 15 16  1  0
 16 17  1  0
 17 18  2  3
 18 19  1  0
 19 20  2  0
 20 21  1  0
 21 22  2  0
 22 23  1  0
 22 24  1  0
 24 25  2  0
 25 26  1  0
 26 27  2  0
 18 28  1  0
 28 29  3  0
 17 30  1  0
 11  6  1  0
 23 19  1  0
 27 21  1  0
  1 31  1  0
  1 32  1  0
  1 33  1  0
  2 34  1  0
  2 35  1  0
  8 36  1  0
  8 37  1  0
  8 38  1  0
  9 39  1  0
 12 40  1  0
 12 41  1  0
 12 42  1  0
 16 43  1  0
 16 44  1  0
 23 45  1  0
 24 46  1  0
 25 47  1  0
 26 48  1  0
 27 49  1  0
 30 50  1  0
M  END
>  <Ligand ID>  (1) 
LIG0004446

>  <Ligand>  (1) 
MLS002633585

>  <SMILES>  (1) 
CCOC(=O)c1c(C)[nH]c(c1C)C(=O)OCC(=C(c1nc2c([nH]1)cccc2)C#N)O

>  <CID>  (1) 
2998203.0

>  <ChEMBL ID>  (1) 
nan

>  <InChiKey>  (1) 
XDDCWRDHDZXOCH-UHFFFAOYSA-N

>  <InChi>  (1) 
InChI=1S/C21H20N4O5/c1-4-29-20(27)17-11(2)18(23-12(17)3)21(28)30-10-16(26)13(9-22)19-24-14-7-5-6-8-15(14)25-19/h5-8,23,26H,4,10H2,1-3H3,(H,24,25)

>  <IUPAC Name>  (1) 
2-O-[3-(1H-benzimidazol-2-yl)-3-cyano-2-hydroxyprop-2-enyl] 4-O-ethyl 3,5-dimethyl-1H-pyrrole-2,4-dicarboxylate

$$$$
