
     RDKit          3D

 67 71  0  0  0  0  0  0  0  0999 V2000
   -2.8648   -3.5892   -0.4719 C   0  0  0  0  0  0  0  0  0  0  0  0
   -3.1391   -2.3878   -1.2159 N   0  0  0  0  0  0  0  0  0  0  0  0
   -3.3379   -1.2242   -0.3466 C   0  0  0  0  0  0  0  0  0  0  0  0
   -2.0605   -0.8670    0.3179 C   0  0  0  0  0  0  0  0  0  0  0  0
   -2.1093    0.2706    1.2480 C   0  0  0  0  0  0  0  0  0  0  0  0
   -2.4796    1.5587    0.8011 N   0  0  0  0  0  0  0  0  0  0  0  0
   -1.4785    2.4616    0.2966 C   0  0  0  0  0  0  0  0  0  0  0  0
   -1.8369    3.6240   -0.0306 O   0  0  0  0  0  0  0  0  0  0  0  0
   -0.1110    2.0320    0.1757 C   0  0  0  0  0  0  0  0  0  0  0  0
    0.7173    2.1622    1.2945 C   0  0  0  0  0  0  0  0  0  0  0  0
    2.0318    1.7515    1.1939 C   0  0  0  0  0  0  0  0  0  0  0  0
    2.5699    1.2177    0.0411 C   0  0  0  0  0  0  0  0  0  0  0  0
    1.7509    1.0942   -1.0500 C   0  0  0  0  0  0  0  0  0  0  0  0
    0.4297    1.4927   -0.9920 C   0  0  0  0  0  0  0  0  0  0  0  0
    4.2445    0.7489    0.0730 S   0  0  0  0  0  0  0  0  0  0  0  0
    5.0413    1.6200    1.0244 O   0  0  0  0  0  0  0  0  0  0  0  0
    4.8509    0.9311   -1.2906 O   0  0  0  0  0  0  0  0  0  0  0  0
    4.3767   -0.8630    0.6122 N   0  0  0  0  0  0  0  0  0  0  0  0
    3.7291   -1.8223   -0.2149 C   0  0  0  0  0  0  0  0  0  0  0  0
    4.6094   -2.7857   -0.9306 C   0  0  0  0  0  0  0  0  0  0  0  0
    5.9834   -2.2889   -1.1161 C   0  0  0  0  0  0  0  0  0  0  0  0
    6.5626   -1.5039   -0.1274 C   0  0  0  0  0  0  0  0  0  0  0  0
    5.6970   -1.2284    1.0615 C   0  0  0  0  0  0  0  0  0  0  0  0
    7.8478   -1.0085   -0.2338 C   0  0  0  0  0  0  0  0  0  0  0  0
    8.6181   -1.2804   -1.3479 C   0  0  0  0  0  0  0  0  0  0  0  0
    8.0537   -2.0566   -2.3325 C   0  0  0  0  0  0  0  0  0  0  0  0
    6.7599   -2.5529   -2.2208 C   0  0  0  0  0  0  0  0  0  0  0  0
   -3.8354    2.1114    0.8792 C   0  0  0  0  0  0  0  0  0  0  0  0
   -4.5582    2.5980    1.6204 N   0  0  0  0  0  0  0  0  0  0  0  0
   -5.7799    3.0809    1.4592 C   0  0  0  0  0  0  0  0  0  0  0  0
   -6.2587    2.9837    0.2023 C   0  0  0  0  0  0  0  0  0  0  0  0
   -4.8649    2.1693   -0.7120 S   0  0  0  0  0  0  0  0  0  0  0  0
   -7.4819    3.3913   -0.2740 C   0  0  0  0  0  0  0  0  0  0  0  0
   -8.3306    3.9807    0.6735 C   0  0  0  0  0  0  0  0  0  0  0  0
   -7.8729    4.0956    1.9664 C   0  0  0  0  0  0  0  0  0  0  0  0
   -6.6396    3.6740    2.4023 C   0  0  0  0  0  0  0  0  0  0  0  0
   -9.5484    4.4013    0.2623 F   0  0  0  0  0  0  0  0  0  0  0  0
   -4.2438   -2.5586   -2.1264 C   0  0  0  0  0  0  0  0  0  0  0  0
   -3.5799   -4.3786   -0.7951 H   0  0  0  0  0  0  0  0  0  0  0  0
   -1.8078   -3.9046   -0.5064 H   0  0  0  0  0  0  0  0  0  0  0  0
   -3.0989   -3.4042    0.6123 H   0  0  0  0  0  0  0  0  0  0  0  0
   -3.7293   -0.4454   -1.0186 H   0  0  0  0  0  0  0  0  0  0  0  0
   -4.1265   -1.5098    0.3773 H   0  0  0  0  0  0  0  0  0  0  0  0
   -1.7654   -1.7699    0.9402 H   0  0  0  0  0  0  0  0  0  0  0  0
   -1.2335   -0.8118   -0.4325 H   0  0  0  0  0  0  0  0  0  0  0  0
   -1.0712    0.3924    1.7140 H   0  0  0  0  0  0  0  0  0  0  0  0
   -2.7500   -0.0480    2.1239 H   0  0  0  0  0  0  0  0  0  0  0  0
    0.3136    2.5790    2.2075 H   0  0  0  0  0  0  0  0  0  0  0  0
    2.6476    1.8680    2.0863 H   0  0  0  0  0  0  0  0  0  0  0  0
    2.1542    0.6794   -1.9635 H   0  0  0  0  0  0  0  0  0  0  0  0
   -0.2469    1.4076   -1.8421 H   0  0  0  0  0  0  0  0  0  0  0  0
    2.9916   -2.3656    0.4162 H   0  0  0  0  0  0  0  0  0  0  0  0
    3.1056   -1.2693   -0.9558 H   0  0  0  0  0  0  0  0  0  0  0  0
    4.1736   -3.0678   -1.9345 H   0  0  0  0  0  0  0  0  0  0  0  0
    4.5963   -3.7488   -0.3670 H   0  0  0  0  0  0  0  0  0  0  0  0
    5.6148   -2.1570    1.6429 H   0  0  0  0  0  0  0  0  0  0  0  0
    6.1769   -0.3900    1.5942 H   0  0  0  0  0  0  0  0  0  0  0  0
    8.2680   -0.4009    0.5541 H   0  0  0  0  0  0  0  0  0  0  0  0
    9.6070   -0.8869   -1.4062 H   0  0  0  0  0  0  0  0  0  0  0  0
    8.6522   -2.2757   -3.2122 H   0  0  0  0  0  0  0  0  0  0  0  0
    6.3438   -3.1629   -3.0165 H   0  0  0  0  0  0  0  0  0  0  0  0
   -7.7515    3.2609   -1.2974 H   0  0  0  0  0  0  0  0  0  0  0  0
   -8.5506    4.5608    2.7024 H   0  0  0  0  0  0  0  0  0  0  0  0
   -6.3553    3.8004    3.4360 H   0  0  0  0  0  0  0  0  0  0  0  0
   -3.8702   -2.8918   -3.1171 H   0  0  0  0  0  0  0  0  0  0  0  0
   -4.8595   -3.4155   -1.7454 H   0  0  0  0  0  0  0  0  0  0  0  0
   -4.8906   -1.6780   -2.1613 H   0  0  0  0  0  0  0  0  0  0  0  0
  1  2  1  0
  2  3  1  0
  3  4  1  0
  4  5  1  0
  5  6  1  0
  6  7  1  0
  7  8  2  0
  7  9  1  0
  9 10  2  0
 10 11  1  0
 11 12  2  0
 12 13  1  0
 13 14  2  0
 12 15  1  0
 15 16  2  0
 15 17  2  0
 15 18  1  0
 18 19  1  0
 19 20  1  0
 20 21  1  0
 21 22  2  0
 22 23  1  0
 22 24  1  0
 24 25  2  0
 25 26  1  0
 26 27  2  0
  6 28  1  0
 28 29  2  0
 29 30  1  0
 30 31  2  0
 31 32  1  0
 31 33  1  0
 33 34  2  0
 34 35  1  0
 35 36  2  0
 34 37  1  0
  2 38  1  0
 14  9  1  0
 23 18  1  0
 32 28  1  0
 27 21  1  0
 36 30  1  0
  1 39  1  0
  1 40  1  0
  1 41  1  0
  3 42  1  0
  3 43  1  0
  4 44  1  0
  4 45  1  0
  5 46  1  0
  5 47  1  0
 10 48  1  0
 11 49  1  0
 13 50  1  0
 14 51  1  0
 19 52  1  0
 19 53  1  0
 20 54  1  0
 20 55  1  0
 23 56  1  0
 23 57  1  0
 24 58  1  0
 25 59  1  0
 26 60  1  0
 27 61  1  0
 33 62  1  0
 35 63  1  0
 36 64  1  0
 38 65  1  0
 38 66  1  0
 38 67  1  0
M  END
>  <Ligand ID>  (1) 
LIG0004546

>  <Ligand>  (1) 
MLS001239379

>  <SMILES>  (1) 
CN(CCCN(C(=O)c1ccc(cc1)S(=O)(=O)N1CCc2c(C1)cccc2)c1nc2c(s1)cc(cc2)F)C

>  <CID>  (1) 
24892080.0

>  <ChEMBL ID>  (1) 
nan

>  <InChiKey>  (1) 
OKTMFRKTDSCKQO-UHFFFAOYSA-N

>  <InChi>  (1) 
InChI=1S/C28H29FN4O3S2/c1-31(2)15-5-16-33(28-30-25-13-10-23(29)18-26(25)37-28)27(34)21-8-11-24(12-9-21)38(35,36)32-17-14-20-6-3-4-7-22(20)19-32/h3-4,6-13,18H,5,14-17,19H2,1-2H3

>  <IUPAC Name>  (1) 
4-(3,4-dihydro-1H-isoquinolin-2-ylsulfonyl)-N-[3-(dimethylamino)propyl]-N-(6-fluoro-1,3-benzothiazol-2-yl)benzamide

$$$$
