
     RDKit          3D

 61 62  0  0  0  0  0  0  0  0999 V2000
   -8.3186    1.6006   -0.3003 C   0  0  0  0  0  0  0  0  0  0  0  0
   -7.2478    2.1764    0.5686 C   0  0  0  0  0  0  0  0  0  0  0  0
   -5.8619    1.6071    0.1394 C   0  0  0  0  0  0  0  0  0  0  0  0
   -4.8871    2.2342    1.0521 C   0  0  0  0  0  0  0  0  0  0  0  0
   -3.4601    1.9563    0.9468 C   0  0  0  0  0  0  0  0  0  0  0  0
   -2.8613    0.6423    1.1998 C   0  0  0  0  0  0  0  0  0  0  0  0
   -3.3418   -0.4599    0.3437 C   0  0  0  0  0  0  0  0  0  0  0  0
   -2.5715   -1.7677    0.6297 C   0  0  0  0  0  0  0  0  0  0  0  0
   -1.1263   -1.6226    0.3786 C   0  0  0  0  0  0  0  0  0  0  0  0
   -0.6754   -1.9042   -0.9028 C   0  0  0  0  0  0  0  0  0  0  0  0
    0.6485   -1.8062   -1.2490 C   0  0  0  0  0  0  0  0  0  0  0  0
    1.5380   -1.4139   -0.2761 C   0  0  0  0  0  0  0  0  0  0  0  0
    1.1533   -1.1201    1.0152 C   0  0  0  0  0  0  0  0  0  0  0  0
   -0.2037   -1.2351    1.3162 C   0  0  0  0  0  0  0  0  0  0  0  0
    2.9573   -1.3056   -0.6316 C   0  0  1  0  0  0  0  0  0  0  0  0
    3.3892    0.1221   -0.3647 C   0  0  0  0  0  0  0  0  0  0  0  0
    4.8764   -0.0008   -0.0965 C   0  0  1  0  0  0  0  0  0  0  0  0
    5.1613   -1.4145    0.0007 N   0  0  0  0  0  0  0  0  0  0  0  0
    3.8944   -2.0706    0.2666 C   0  0  2  0  0  0  0  0  0  0  0  0
    4.0600   -3.5120   -0.1969 C   0  0  0  0  0  0  0  0  0  0  0  0
    5.1067   -4.0814    0.5381 O   0  0  0  0  0  0  0  0  0  0  0  0
    5.5724    0.6563   -1.2628 C   0  0  0  0  0  0  0  0  0  0  0  0
    5.2046    2.0168   -1.2315 O   0  0  0  0  0  0  0  0  0  0  0  0
    5.9695    2.7739   -2.5387 P   0  0  0  0  0  0  0  0  0  0  0  0
    6.9167    3.8320   -2.0730 O   0  0  0  0  0  0  0  0  0  0  0  0
    4.7432    3.4131   -3.5254 O   0  0  0  0  0  0  0  0  0  0  0  0
    6.8421    1.6426   -3.4736 O   0  0  0  0  0  0  0  0  0  0  0  0
   -9.2309    1.3161    0.2344 H   0  0  0  0  0  0  0  0  0  0  0  0
   -7.9367    0.6859   -0.7922 H   0  0  0  0  0  0  0  0  0  0  0  0
   -8.5909    2.3149   -1.1214 H   0  0  0  0  0  0  0  0  0  0  0  0
   -7.3920    1.9263    1.6362 H   0  0  0  0  0  0  0  0  0  0  0  0
   -7.1814    3.2666    0.3825 H   0  0  0  0  0  0  0  0  0  0  0  0
   -5.7345    2.0163   -0.9150 H   0  0  0  0  0  0  0  0  0  0  0  0
   -5.9233    0.5467    0.0293 H   0  0  0  0  0  0  0  0  0  0  0  0
   -5.0184    3.3657    0.9584 H   0  0  0  0  0  0  0  0  0  0  0  0
   -5.1884    2.0789    2.1441 H   0  0  0  0  0  0  0  0  0  0  0  0
   -3.0962    2.3734   -0.0744 H   0  0  0  0  0  0  0  0  0  0  0  0
   -2.9185    2.6949    1.6397 H   0  0  0  0  0  0  0  0  0  0  0  0
   -2.9619    0.3584    2.3059 H   0  0  0  0  0  0  0  0  0  0  0  0
   -1.7382    0.6693    1.0891 H   0  0  0  0  0  0  0  0  0  0  0  0
   -4.3743   -0.7510    0.7082 H   0  0  0  0  0  0  0  0  0  0  0  0
   -3.4180   -0.2767   -0.7295 H   0  0  0  0  0  0  0  0  0  0  0  0
   -3.0685   -2.5467    0.0340 H   0  0  0  0  0  0  0  0  0  0  0  0
   -2.7860   -1.9946    1.7044 H   0  0  0  0  0  0  0  0  0  0  0  0
   -1.3830   -2.2130   -1.6648 H   0  0  0  0  0  0  0  0  0  0  0  0
    1.0036   -2.0241   -2.2456 H   0  0  0  0  0  0  0  0  0  0  0  0
    1.8722   -0.8077    1.7850 H   0  0  0  0  0  0  0  0  0  0  0  0
   -0.5607   -1.0120    2.3316 H   0  0  0  0  0  0  0  0  0  0  0  0
    3.1628   -1.5640   -1.6910 H   0  0  0  0  0  0  0  0  0  0  0  0
    3.1574    0.7767   -1.2269 H   0  0  0  0  0  0  0  0  0  0  0  0
    2.9310    0.4880    0.5865 H   0  0  0  0  0  0  0  0  0  0  0  0
    5.1782    0.4663    0.8628 H   0  0  0  0  0  0  0  0  0  0  0  0
    5.4361   -1.7232   -0.9805 H   0  0  0  0  0  0  0  0  0  0  0  0
    5.8865   -1.6672    0.6862 H   0  0  0  0  0  0  0  0  0  0  0  0
    3.6027   -2.0105    1.3140 H   0  0  0  0  0  0  0  0  0  0  0  0
    3.1292   -4.0891   -0.1185 H   0  0  0  0  0  0  0  0  0  0  0  0
    4.3632   -3.5620   -1.2606 H   0  0  0  0  0  0  0  0  0  0  0  0
    5.1485   -5.0521    0.4261 H   0  0  0  0  0  0  0  0  0  0  0  0
    5.1612    0.2061   -2.2007 H   0  0  0  0  0  0  0  0  0  0  0  0
    6.6714    0.5897   -1.2355 H   0  0  0  0  0  0  0  0  0  0  0  0
    4.3197    4.1945   -3.0870 H   0  0  0  0  0  0  0  0  0  0  0  0
  1  2  1  0
  2  3  1  0
  3  4  1  0
  4  5  1  0
  5  6  1  0
  6  7  1  0
  7  8  1  0
  8  9  1  0
  9 10  2  0
 10 11  1  0
 11 12  2  0
 12 13  1  0
 13 14  2  0
 12 15  1  0
 15 16  1  0
 16 17  1  0
 17 18  1  0
 18 19  1  0
 19 20  1  0
 20 21  1  0
 17 22  1  0
 22 23  1  0
 23 24  1  0
 24 25  2  0
 24 26  1  0
 24 27  1  0
 14  9  1  0
 19 15  1  0
  1 28  1  0
  1 29  1  0
  1 30  1  0
  2 31  1  0
  2 32  1  0
  3 33  1  0
  3 34  1  0
  4 35  1  0
  4 36  1  0
  5 37  1  0
  5 38  1  0
  6 39  1  0
  6 40  1  0
  7 41  1  0
  7 42  1  0
  8 43  1  0
  8 44  1  0
 10 45  1  0
 11 46  1  0
 13 47  1  0
 14 48  1  0
 15 49  1  6
 16 50  1  0
 16 51  1  0
 17 52  1  1
 18 53  1  0
 18 54  1  0
 19 55  1  1
 20 56  1  0
 20 57  1  0
 21 58  1  0
 22 59  1  0
 22 60  1  0
 26 61  1  0
M  CHG  2  18   1  27  -1
M  END
>  <Ligand ID>  (1) 
LIG0004233

>  <Ligand>  (1) 
CHEMBL393055

>  <SMILES>  (1) 
CCCCCCCCc1ccc(cc1)[C@H]1C[C@@H]([NH2+][C@@H]1CO)COP(=O)(O)[O-]

>  <CID>  (1) 
44438256.0

>  <ChEMBL ID>  (1) 
nan

>  <InChiKey>  (1) 
DKHSWCUVNLYVPR-VAMGGRTRSA-N

>  <InChi>  (1) 
InChI=1S/C20H34NO5P/c1-2-3-4-5-6-7-8-16-9-11-17(12-10-16)19-13-18(21-20(19)14-22)15-26-27(23,24)25/h9-12,18-22H,2-8,13-15H2,1H3,(H2,23,24,25)/t18-,19-,20-/m1/s1

>  <IUPAC Name>  (1) 
[(2R,4R,5S)-5-(hydroxymethyl)-4-(4-octylphenyl)pyrrolidin-1-ium-2-yl]methyl hydrogen phosphate

$$$$
