
     RDKit          3D

 15 14  0  0  0  0  0  0  0  0999 V2000
    0.5583   -1.3128    0.3764 C   0  0  0  0  0  0  0  0  0  0  0  0
    0.1257    0.1218    0.0944 C   0  0  0  0  0  0  0  0  0  0  0  0
    1.5105    1.2129    0.4660 S   0  0  0  0  0  0  0  0  0  0  0  0
   -0.3310    0.2051   -1.3376 C   0  0  0  0  0  0  0  0  0  0  0  0
   -1.0043    0.5272    1.0348 C   0  0  0  0  0  0  0  0  0  0  0  0
    0.6852   -1.8751   -0.5828 H   0  0  0  0  0  0  0  0  0  0  0  0
   -0.1327   -1.8299    1.0711 H   0  0  0  0  0  0  0  0  0  0  0  0
    1.5574   -1.3486    0.8637 H   0  0  0  0  0  0  0  0  0  0  0  0
    2.0816    1.8027   -0.6582 H   0  0  0  0  0  0  0  0  0  0  0  0
   -0.0873    1.1479   -1.8403 H   0  0  0  0  0  0  0  0  0  0  0  0
    0.1441   -0.6159   -1.9141 H   0  0  0  0  0  0  0  0  0  0  0  0
   -1.4313    0.0594   -1.4486 H   0  0  0  0  0  0  0  0  0  0  0  0
   -0.6870    0.1927    2.0527 H   0  0  0  0  0  0  0  0  0  0  0  0
   -1.9482    0.0738    0.7099 H   0  0  0  0  0  0  0  0  0  0  0  0
   -1.0411    1.6387    1.1126 H   0  0  0  0  0  0  0  0  0  0  0  0
  1  2  1  0
  2  3  1  0
  2  4  1  0
  2  5  1  0
  1  6  1  0
  1  7  1  0
  1  8  1  0
  3  9  1  0
  4 10  1  0
  4 11  1  0
  4 12  1  0
  5 13  1  0
  5 14  1  0
  5 15  1  0
M  END
>  <Ligand ID>  (1) 
LIG0000331

>  <Ligand>  (1) 
tert-Butyl mercaptan

>  <SMILES>  (1) 
CC(S)(C)C

>  <CID>  (1) 
6387.0

>  <ChEMBL ID>  (1) 
nan

>  <InChiKey>  (1) 
WMXCDAVJEZZYLT-UHFFFAOYSA-N

>  <InChi>  (1) 
InChI=1S/C4H10S/c1-4(2,3)5/h5H,1-3H3

>  <IUPAC Name>  (1) 
2-methylpropane-2-thiol

$$$$
