
     RDKit          3D

 70 69  0  0  0  0  0  0  0  0999 V2000
   -6.5244    2.5324    3.5744 C   0  0  0  0  0  0  0  0  0  0  0  0
   -6.2713    1.1362    2.9900 C   0  0  0  0  0  0  0  0  0  0  0  0
   -6.3403    1.2733    1.4975 C   0  0  0  0  0  0  0  0  0  0  0  0
   -6.1232   -0.0534    0.8420 C   0  0  0  0  0  0  0  0  0  0  0  0
   -4.7360   -0.5788    1.2317 C   0  0  0  0  0  0  0  0  0  0  0  0
   -4.4958   -1.8912    0.5597 C   0  0  0  0  0  0  0  0  0  0  0  0
   -3.1957   -2.5216    0.8657 C   0  0  0  0  0  0  0  0  0  0  0  0
   -1.9365   -1.8547    0.4832 C   0  0  0  0  0  0  0  0  0  0  0  0
   -1.6498   -0.5446    1.0342 C   0  0  0  0  0  0  0  0  0  0  0  0
   -1.4270    0.5765    0.3564 C   0  0  0  0  0  0  0  0  0  0  0  0
   -1.4294    0.6985   -1.1108 C   0  0  0  0  0  0  0  0  0  0  0  0
   -0.0579    1.1999   -1.5482 C   0  0  0  0  0  0  0  0  0  0  0  0
   -0.0386    1.3473   -3.0614 C   0  0  0  0  0  0  0  0  0  0  0  0
   -0.2205    0.0528   -3.7474 C   0  0  0  0  0  0  0  0  0  0  0  0
    0.7853   -1.0090   -3.5977 C   0  0  0  0  0  0  0  0  0  0  0  0
    2.0964   -0.8078   -4.2125 C   0  0  0  0  0  0  0  0  0  0  0  0
    3.0162    0.2684   -3.8900 C   0  0  0  0  0  0  0  0  0  0  0  0
    3.5193    0.3595   -2.4981 C   0  0  0  0  0  0  0  0  0  0  0  0
    3.1427    1.2618   -1.7161 O   0  0  0  0  0  0  0  0  0  0  0  0
    4.4268   -0.5970   -2.0968 O   0  0  0  0  0  0  0  0  0  0  0  0
    5.0287   -0.6942   -0.8433 C   0  0  0  0  0  0  0  0  0  0  0  0
    5.9027    0.4754   -0.4598 C   0  0  2  0  0  0  0  0  0  0  0  0
    6.7203    0.1628    0.7796 C   0  0  0  0  0  0  0  0  0  0  0  0
    5.8284    0.1395    1.8454 O   0  0  0  0  0  0  0  0  0  0  0  0
    6.6672   -0.2135    3.2658 P   0  0  0  0  0  0  0  0  0  0  0  0
    6.4001   -1.6501    3.6070 O   0  0  0  0  0  0  0  0  0  0  0  0
    8.3331    0.0077    3.0961 O   0  0  0  0  0  0  0  0  0  0  0  0
    6.0520    0.7583    4.5107 O   0  0  0  0  0  0  0  0  0  0  0  0
    5.2685    1.6833   -0.3876 O   0  0  0  0  0  0  0  0  0  0  0  0
   -7.0202    2.3872    4.5590 H   0  0  0  0  0  0  0  0  0  0  0  0
   -7.2271    3.0384    2.8807 H   0  0  0  0  0  0  0  0  0  0  0  0
   -5.5668    3.0693    3.6653 H   0  0  0  0  0  0  0  0  0  0  0  0
   -6.9854    0.3923    3.3405 H   0  0  0  0  0  0  0  0  0  0  0  0
   -5.2306    0.8771    3.3152 H   0  0  0  0  0  0  0  0  0  0  0  0
   -7.3020    1.7446    1.1662 H   0  0  0  0  0  0  0  0  0  0  0  0
   -5.4910    1.9445    1.1819 H   0  0  0  0  0  0  0  0  0  0  0  0
   -6.2025   -0.0232   -0.2528 H   0  0  0  0  0  0  0  0  0  0  0  0
   -6.8443   -0.7832    1.2721 H   0  0  0  0  0  0  0  0  0  0  0  0
   -4.0548    0.2313    1.0076 H   0  0  0  0  0  0  0  0  0  0  0  0
   -4.7224   -0.7556    2.3381 H   0  0  0  0  0  0  0  0  0  0  0  0
   -4.7195   -1.8400   -0.5366 H   0  0  0  0  0  0  0  0  0  0  0  0
   -5.2942   -2.5915    0.9470 H   0  0  0  0  0  0  0  0  0  0  0  0
   -3.1519   -2.7257    1.9757 H   0  0  0  0  0  0  0  0  0  0  0  0
   -3.1660   -3.5552    0.3949 H   0  0  0  0  0  0  0  0  0  0  0  0
   -1.8405   -1.9080   -0.6300 H   0  0  0  0  0  0  0  0  0  0  0  0
   -1.0990   -2.5503    0.8241 H   0  0  0  0  0  0  0  0  0  0  0  0
   -1.6069   -0.4460    2.1316 H   0  0  0  0  0  0  0  0  0  0  0  0
   -1.2196    1.5077    0.9186 H   0  0  0  0  0  0  0  0  0  0  0  0
   -2.1313    1.5375   -1.3930 H   0  0  0  0  0  0  0  0  0  0  0  0
   -1.7894   -0.1683   -1.6417 H   0  0  0  0  0  0  0  0  0  0  0  0
    0.2596    2.1084   -1.0177 H   0  0  0  0  0  0  0  0  0  0  0  0
    0.6865    0.3942   -1.2844 H   0  0  0  0  0  0  0  0  0  0  0  0
   -0.9657    1.9682   -3.3393 H   0  0  0  0  0  0  0  0  0  0  0  0
    0.8008    1.9683   -3.3103 H   0  0  0  0  0  0  0  0  0  0  0  0
   -1.2266   -0.4088   -3.5051 H   0  0  0  0  0  0  0  0  0  0  0  0
   -0.3379    0.2194   -4.8776 H   0  0  0  0  0  0  0  0  0  0  0  0
    0.8681   -1.3503   -2.5191 H   0  0  0  0  0  0  0  0  0  0  0  0
    0.3359   -1.9350   -4.1021 H   0  0  0  0  0  0  0  0  0  0  0  0
    2.7259   -1.7800   -4.1514 H   0  0  0  0  0  0  0  0  0  0  0  0
    1.9698   -0.7745   -5.3634 H   0  0  0  0  0  0  0  0  0  0  0  0
    2.7415    1.2998   -4.2167 H   0  0  0  0  0  0  0  0  0  0  0  0
    3.9413    0.0784   -4.5802 H   0  0  0  0  0  0  0  0  0  0  0  0
    4.2095   -0.8295   -0.0706 H   0  0  0  0  0  0  0  0  0  0  0  0
    5.6166   -1.6489   -0.7994 H   0  0  0  0  0  0  0  0  0  0  0  0
    6.6735    0.5752   -1.2810 H   0  0  0  0  0  0  0  0  0  0  0  0
    7.4393    0.9700    1.0009 H   0  0  0  0  0  0  0  0  0  0  0  0
    7.2833   -0.7548    0.6179 H   0  0  0  0  0  0  0  0  0  0  0  0
    8.8122   -0.8656    3.1979 H   0  0  0  0  0  0  0  0  0  0  0  0
    6.5691    1.6086    4.4667 H   0  0  0  0  0  0  0  0  0  0  0  0
    5.5214    2.1298    0.4573 H   0  0  0  0  0  0  0  0  0  0  0  0
  1  2  1  0
  2  3  1  0
  3  4  1  0
  4  5  1  0
  5  6  1  0
  6  7  1  0
  7  8  1  0
  8  9  1  0
  9 10  2  0
 10 11  1  0
 11 12  1  0
 12 13  1  0
 13 14  1  0
 14 15  1  0
 15 16  1  0
 16 17  1  0
 17 18  1  0
 18 19  2  0
 18 20  1  0
 20 21  1  0
 21 22  1  0
 22 23  1  0
 23 24  1  0
 24 25  1  0
 25 26  2  0
 25 27  1  0
 25 28  1  0
 22 29  1  0
  1 30  1  0
  1 31  1  0
  1 32  1  0
  2 33  1  0
  2 34  1  0
  3 35  1  0
  3 36  1  0
  4 37  1  0
  4 38  1  0
  5 39  1  0
  5 40  1  0
  6 41  1  0
  6 42  1  0
  7 43  1  0
  7 44  1  0
  8 45  1  0
  8 46  1  0
  9 47  1  0
 10 48  1  0
 11 49  1  0
 11 50  1  0
 12 51  1  0
 12 52  1  0
 13 53  1  0
 13 54  1  0
 14 55  1  0
 14 56  1  0
 15 57  1  0
 15 58  1  0
 16 59  1  0
 16 60  1  0
 17 61  1  0
 17 62  1  0
 21 63  1  0
 21 64  1  0
 22 65  1  6
 23 66  1  0
 23 67  1  0
 27 68  1  0
 28 69  1  0
 29 70  1  0
M  END
>  <Ligand ID>  (1) 
LIG0000593

>  <Ligand>  (1) 
1-Oleoyl Lysophosphatidic Acid

>  <SMILES>  (1) 
CCCCCCCC/C=C\CCCCCCCC(=O)OC[C@H](COP(=O)(O)O)O

>  <CID>  (1) 
5311263.0

>  <ChEMBL ID>  (1) 
nan

>  <InChiKey>  (1) 
WRGQSWVCFNIUNZ-GDCKJWNLSA-N

>  <InChi>  (1) 
InChI=1S/C21H41O7P/c1-2-3-4-5-6-7-8-9-10-11-12-13-14-15-16-17-21(23)27-18-20(22)19-28-29(24,25)26/h9-10,20,22H,2-8,11-19H2,1H3,(H2,24,25,26)/b10-9-/t20-/m1/s1

>  <IUPAC Name>  (1) 
[(2R)-2-hydroxy-3-phosphonooxypropyl] (Z)-octadec-9-enoate

$$$$
