
     RDKit          3D

 49 50  0  0  0  0  0  0  0  0999 V2000
   -1.8049    2.8784   -0.3300 O   0  0  0  0  0  0  0  0  0  0  0  0
   -2.2860    1.6585    0.0724 C   0  0  2  0  0  0  0  0  0  0  0  0
   -1.7867    0.5219   -0.7949 C   0  0  1  0  0  0  0  0  0  0  0  0
   -0.3403    0.2331   -0.6145 C   0  0  0  0  0  0  0  0  0  0  0  0
    0.0500   -0.0478    0.6671 O   0  0  0  0  0  0  0  0  0  0  0  0
    1.7179   -0.3408    0.6319 P   0  0  0  0  0  0  0  0  0  0  0  0
    2.3150    0.0594   -0.7195 O   0  0  0  0  0  0  0  0  0  0  0  0
    2.5601    0.5357    1.7922 O   0  0  0  0  0  0  0  0  0  0  0  0
    4.1961    0.6132    1.3641 P   0  0  0  0  0  0  0  0  0  0  0  0
    5.0499    0.8332    2.6167 O   0  0  0  0  0  0  0  0  0  0  0  0
    4.7425   -0.8346    0.6956 O   0  0  0  0  0  0  0  0  0  0  0  0
    5.5851   -0.6309   -0.7423 P   0  0  0  0  0  0  0  0  0  0  0  0
    5.8385    0.8182   -1.0887 O   0  0  0  0  0  0  0  0  0  0  0  0
    7.1293   -1.3612   -0.6453 O   0  0  0  0  0  0  0  0  0  0  0  0
    8.0799   -0.4421    0.4038 P   0  0  0  0  0  0  0  0  0  0  0  0
    9.5493   -0.5921    0.1106 O   0  0  0  0  0  0  0  0  0  0  0  0
    7.7121   -0.9560    1.9860 O   0  0  0  0  0  0  0  0  0  0  0  0
    7.6226    1.1793    0.2716 O   0  0  0  0  0  0  0  0  0  0  0  0
    4.7314   -1.4351   -1.9593 O   0  0  0  0  0  0  0  0  0  0  0  0
    4.5317    1.9223    0.3487 O   0  0  0  0  0  0  0  0  0  0  0  0
    1.9613   -2.0071    0.7710 O   0  0  0  0  0  0  0  0  0  0  0  0
   -2.6444   -0.4808   -0.4350 O   0  0  0  0  0  0  0  0  0  0  0  0
   -3.8826    0.1361   -0.7267 C   0  0  2  0  0  0  0  0  0  0  0  0
   -3.7926    1.5263   -0.1773 C   0  0  2  0  0  0  0  0  0  0  0  0
   -4.1408    2.4910   -1.1471 O   0  0  0  0  0  0  0  0  0  0  0  0
   -5.0161   -0.6238   -0.3396 N   0  0  0  0  0  0  0  0  0  0  0  0
   -5.8018   -1.2408   -1.2716 C   0  0  0  0  0  0  0  0  0  0  0  0
   -6.9081   -1.9838   -0.9122 C   0  0  0  0  0  0  0  0  0  0  0  0
   -7.2589   -2.1272    0.4272 C   0  0  0  0  0  0  0  0  0  0  0  0
   -8.5602   -3.0011    0.8505 S   0  0  0  0  0  0  0  0  0  0  0  0
   -6.4609   -1.5051    1.3128 N   0  0  0  0  0  0  0  0  0  0  0  0
   -5.3817   -0.7813    0.9489 C   0  0  0  0  0  0  0  0  0  0  0  0
   -4.7161   -0.2480    1.8801 O   0  0  0  0  0  0  0  0  0  0  0  0
   -1.8924    3.5026    0.4380 H   0  0  0  0  0  0  0  0  0  0  0  0
   -2.0847    1.4055    1.1354 H   0  0  0  0  0  0  0  0  0  0  0  0
   -1.9509    0.7585   -1.8680 H   0  0  0  0  0  0  0  0  0  0  0  0
    0.2592    1.0612   -1.0147 H   0  0  0  0  0  0  0  0  0  0  0  0
   -0.1000   -0.6548   -1.2352 H   0  0  0  0  0  0  0  0  0  0  0  0
    7.1901   -1.7924    1.9886 H   0  0  0  0  0  0  0  0  0  0  0  0
    7.9840    1.5820   -0.5613 H   0  0  0  0  0  0  0  0  0  0  0  0
    4.5788   -0.8677   -2.7563 H   0  0  0  0  0  0  0  0  0  0  0  0
    3.7486    2.4695    0.1599 H   0  0  0  0  0  0  0  0  0  0  0  0
    1.5134   -2.4091   -0.0193 H   0  0  0  0  0  0  0  0  0  0  0  0
   -3.8735    0.2388   -1.8415 H   0  0  0  0  0  0  0  0  0  0  0  0
   -4.3965    1.7444    0.6964 H   0  0  0  0  0  0  0  0  0  0  0  0
   -3.8569    3.3604   -0.7533 H   0  0  0  0  0  0  0  0  0  0  0  0
   -5.5027   -1.1111   -2.3164 H   0  0  0  0  0  0  0  0  0  0  0  0
   -7.4759   -2.4387   -1.7060 H   0  0  0  0  0  0  0  0  0  0  0  0
   -6.7310   -1.6164    2.3336 H   0  0  0  0  0  0  0  0  0  0  0  0
  1  2  1  0
  2  3  1  0
  3  4  1  0
  4  5  1  0
  5  6  1  0
  6  7  2  0
  6  8  1  0
  8  9  1  0
  9 10  2  0
  9 11  1  0
 11 12  1  0
 12 13  2  0
 12 14  1  0
 14 15  1  0
 15 16  2  0
 15 17  1  0
 15 18  1  0
 12 19  1  0
  9 20  1  0
  6 21  1  0
  3 22  1  0
 22 23  1  0
 23 24  1  0
 24 25  1  0
 23 26  1  0
 26 27  1  0
 27 28  2  0
 28 29  1  0
 29 30  2  0
 29 31  1  0
 31 32  1  0
 32 33  2  0
 24  2  1  0
 32 26  1  0
  1 34  1  0
  2 35  1  1
  3 36  1  6
  4 37  1  0
  4 38  1  0
 17 39  1  0
 18 40  1  0
 19 41  1  0
 20 42  1  0
 21 43  1  0
 23 44  1  6
 24 45  1  1
 25 46  1  0
 27 47  1  0
 28 48  1  0
 31 49  1  0
M  END
>  <Ligand ID>  (1) 
LIG0002838

>  <Ligand>  (1) 
CHEMBL521451

>  <SMILES>  (1) 
O[C@@H]1[C@@H](COP(=O)(OP(=O)(OP(=O)(OP(=O)(O)O)O)O)O)O[C@H]([C@@H]1O)n1ccc(=S)[nH]c1=O

>  <CID>  (1) 
44586026.0

>  <ChEMBL ID>  (1) 
nan

>  <InChiKey>  (1) 
XRTFVZJYXZGIOL-XVFCMESISA-N

>  <InChi>  (1) 
InChI=1S/C9H16N2O17P4S/c12-6-4(25-8(7(6)13)11-2-1-5(33)10-9(11)14)3-24-30(18,19)27-32(22,23)28-31(20,21)26-29(15,16)17/h1-2,4,6-8,12-13H,3H2,(H,18,19)(H,20,21)(H,22,23)(H,10,14,33)(H2,15,16,17)/t4-,6-,7-,8-/m1/s1

>  <IUPAC Name>  (1) 
[[(2R,3S,4R,5R)-3,4-dihydroxy-5-(2-oxo-4-sulfanylidenepyrimidin-1-yl)oxolan-2-yl]methoxy-hydroxyphosphoryl] [hydroxy(phosphonooxy)phosphoryl] hydrogen phosphate

$$$$
