
     RDKit          3D

 47 50  0  0  0  0  0  0  0  0999 V2000
    8.2590    0.5508    1.4130 C   0  0  0  0  0  0  0  0  0  0  0  0
    7.0644    0.1576    0.7842 O   0  0  0  0  0  0  0  0  0  0  0  0
    5.9742    0.9912    0.5775 C   0  0  0  0  0  0  0  0  0  0  0  0
    5.9979    2.1793    0.9531 O   0  0  0  0  0  0  0  0  0  0  0  0
    4.7863    0.4290   -0.1000 C   0  0  0  0  0  0  0  0  0  0  0  0
    3.6738    1.2100   -0.3304 C   0  0  0  0  0  0  0  0  0  0  0  0
    2.5379    0.7050   -0.9674 C   0  0  0  0  0  0  0  0  0  0  0  0
    2.5291   -0.6066   -1.3756 C   0  0  0  0  0  0  0  0  0  0  0  0
    3.6585   -1.3999   -1.1420 C   0  0  0  0  0  0  0  0  0  0  0  0
    4.7589   -0.8652   -0.5109 C   0  0  0  0  0  0  0  0  0  0  0  0
    1.3980   -1.2655   -2.0551 C   0  0  0  0  0  0  0  0  0  0  0  0
    0.3395   -1.9979   -0.7762 S   0  0  0  0  0  0  0  0  0  0  0  0
   -0.4009   -0.6983    0.1990 C   0  0  0  0  0  0  0  0  0  0  0  0
    0.0570   -0.0990    1.3130 N   0  0  0  0  0  0  0  0  0  0  0  0
   -0.8363    0.8232    1.7038 N   0  0  0  0  0  0  0  0  0  0  0  0
   -1.8611    0.8022    0.8290 C   0  0  0  0  0  0  0  0  0  0  0  0
   -1.6053   -0.1454   -0.1209 N   0  0  0  0  0  0  0  0  0  0  0  0
   -2.4432   -0.5034   -1.2498 C   0  0  0  0  0  0  0  0  0  0  0  0
   -3.3443   -1.5844   -0.7957 C   0  0  0  0  0  0  0  0  0  0  0  0
   -4.5612   -1.5939   -0.2268 C   0  0  0  0  0  0  0  0  0  0  0  0
   -5.1409   -2.7557    0.0781 C   0  0  0  0  0  0  0  0  0  0  0  0
   -4.4306   -3.9057   -0.2201 C   0  0  0  0  0  0  0  0  0  0  0  0
   -2.8966   -3.3432   -0.9535 S   0  0  0  0  0  0  0  0  0  0  0  0
   -3.0748    1.6318    0.8397 C   0  0  0  0  0  0  0  0  0  0  0  0
   -4.0390    1.5147    1.8229 C   0  0  0  0  0  0  0  0  0  0  0  0
   -5.1583    2.3264    1.7748 C   0  0  0  0  0  0  0  0  0  0  0  0
   -5.3028    3.2410    0.7520 C   0  0  0  0  0  0  0  0  0  0  0  0
   -4.3286    3.3430   -0.2210 C   0  0  0  0  0  0  0  0  0  0  0  0
   -3.2373    2.5333   -0.1510 N   0  0  0  0  0  0  0  0  0  0  0  0
    9.0726    0.4658    0.6646 H   0  0  0  0  0  0  0  0  0  0  0  0
    8.4418   -0.1556    2.2750 H   0  0  0  0  0  0  0  0  0  0  0  0
    8.2363    1.5661    1.8232 H   0  0  0  0  0  0  0  0  0  0  0  0
    3.7011    2.2298   -0.0045 H   0  0  0  0  0  0  0  0  0  0  0  0
    1.6620    1.2985   -1.1555 H   0  0  0  0  0  0  0  0  0  0  0  0
    3.6684   -2.4430   -1.4595 H   0  0  0  0  0  0  0  0  0  0  0  0
    5.6303   -1.4925   -0.3353 H   0  0  0  0  0  0  0  0  0  0  0  0
    0.7700   -0.5428   -2.6299 H   0  0  0  0  0  0  0  0  0  0  0  0
    1.7254   -2.0730   -2.7394 H   0  0  0  0  0  0  0  0  0  0  0  0
   -1.8366   -0.8038   -2.1273 H   0  0  0  0  0  0  0  0  0  0  0  0
   -3.0377    0.3808   -1.5100 H   0  0  0  0  0  0  0  0  0  0  0  0
   -5.0812   -0.6145   -0.0125 H   0  0  0  0  0  0  0  0  0  0  0  0
   -6.1405   -2.8528    0.5480 H   0  0  0  0  0  0  0  0  0  0  0  0
   -4.7112   -4.9674   -0.0579 H   0  0  0  0  0  0  0  0  0  0  0  0
   -3.8902    0.7834    2.6116 H   0  0  0  0  0  0  0  0  0  0  0  0
   -5.9187    2.2386    2.5447 H   0  0  0  0  0  0  0  0  0  0  0  0
   -6.2033    3.8761    0.7356 H   0  0  0  0  0  0  0  0  0  0  0  0
   -4.4619    4.0678   -1.0146 H   0  0  0  0  0  0  0  0  0  0  0  0
  1  2  1  0
  2  3  1  0
  3  4  2  0
  3  5  1  0
  5  6  2  0
  6  7  1  0
  7  8  2  0
  8  9  1  0
  9 10  2  0
  8 11  1  0
 11 12  1  0
 12 13  1  0
 13 14  2  0
 14 15  1  0
 15 16  2  0
 16 17  1  0
 17 18  1  0
 18 19  1  0
 19 20  2  0
 20 21  1  0
 21 22  2  0
 22 23  1  0
 16 24  1  0
 24 25  2  0
 25 26  1  0
 26 27  2  0
 27 28  1  0
 28 29  2  0
 10  5  1  0
 17 13  1  0
 23 19  1  0
 29 24  1  0
  1 30  1  0
  1 31  1  0
  1 32  1  0
  6 33  1  0
  7 34  1  0
  9 35  1  0
 10 36  1  0
 11 37  1  0
 11 38  1  0
 18 39  1  0
 18 40  1  0
 20 41  1  0
 21 42  1  0
 22 43  1  0
 25 44  1  0
 26 45  1  0
 27 46  1  0
 28 47  1  0
M  END
>  <Ligand ID>  (1) 
LIG0004711

>  <Ligand>  (1) 
KUC104195N

>  <SMILES>  (1) 
COC(=O)c1ccc(cc1)CSc1nnc(n1Cc1cccs1)c1ccccn1

>  <CID>  (1) 
44620922.0

>  <ChEMBL ID>  (1) 
nan

>  <InChiKey>  (1) 
IPBKDYICPYMVMF-UHFFFAOYSA-N

>  <InChi>  (1) 
InChI=1S/C21H18N4O2S2/c1-27-20(26)16-9-7-15(8-10-16)14-29-21-24-23-19(18-6-2-3-11-22-18)25(21)13-17-5-4-12-28-17/h2-12H,13-14H2,1H3

>  <IUPAC Name>  (1) 
methyl 4-[[5-pyridin-2-yl-4-(thiophen-2-ylmethyl)-1,2,4-triazol-3-yl]sulfanylmethyl]benzoate

$$$$
