
     RDKit          3D

 50 52  0  0  0  0  0  0  0  0999 V2000
    4.0000   -2.0104    0.4289 C   0  0  0  0  0  0  0  0  0  0  0  0
    4.8210   -1.7725   -0.8218 C   0  0  0  0  0  0  0  0  0  0  0  0
    4.8712   -0.2860   -1.0892 C   0  0  0  0  0  0  0  0  0  0  0  0
    3.5097    0.2827   -1.2923 C   0  0  0  0  0  0  0  0  0  0  0  0
    2.9041    0.3730   -2.4573 O   0  0  0  0  0  0  0  0  0  0  0  0
    1.7344    0.9085   -2.3190 N   0  0  0  0  0  0  0  0  0  0  0  0
    1.5326    1.1960   -1.0047 C   0  0  0  0  0  0  0  0  0  0  0  0
    2.6664    0.7992   -0.3301 C   0  0  0  0  0  0  0  0  0  0  0  0
    0.3180    1.8103   -0.4796 C   0  0  0  0  0  0  0  0  0  0  0  0
    0.3499    3.0522   -0.2996 O   0  0  0  0  0  0  0  0  0  0  0  0
   -0.8214    0.9997   -0.2008 N   0  0  0  0  0  0  0  0  0  0  0  0
   -0.7414   -0.4364   -0.4556 C   0  0  0  0  0  0  0  0  0  0  0  0
   -0.7587   -1.1667    0.8912 C   0  0  0  0  0  0  0  0  0  0  0  0
   -0.5895   -2.6447    0.6120 C   0  0  0  0  0  0  0  0  0  0  0  0
   -1.5970   -3.1756   -0.3625 C   0  0  0  0  0  0  0  0  0  0  0  0
   -2.5437   -2.0534   -0.7629 C   0  0  0  0  0  0  0  0  0  0  0  0
   -1.7066   -0.9803   -1.4263 C   0  0  0  0  0  0  0  0  0  0  0  0
   -2.0624    1.5085    0.3324 C   0  0  0  0  0  0  0  0  0  0  0  0
   -2.6537    2.6814   -0.3451 C   0  0  0  0  0  0  0  0  0  0  0  0
   -3.6328    3.2152    0.7107 C   0  0  0  0  0  0  0  0  0  0  0  0
   -3.0599    2.8425    2.0562 C   0  0  0  0  0  0  0  0  0  0  0  0
   -1.7730    2.1285    1.7135 C   0  0  0  0  0  0  0  0  0  0  0  0
    4.3019   -2.9769    0.8776 H   0  0  0  0  0  0  0  0  0  0  0  0
    2.9399   -1.9734    0.1451 H   0  0  0  0  0  0  0  0  0  0  0  0
    4.1604   -1.1905    1.1721 H   0  0  0  0  0  0  0  0  0  0  0  0
    5.8915   -2.0813   -0.6736 H   0  0  0  0  0  0  0  0  0  0  0  0
    4.3291   -2.2808   -1.6497 H   0  0  0  0  0  0  0  0  0  0  0  0
    5.2646    0.1682   -0.1365 H   0  0  0  0  0  0  0  0  0  0  0  0
    5.5639    0.0099   -1.8755 H   0  0  0  0  0  0  0  0  0  0  0  0
    2.8446    0.8813    0.7318 H   0  0  0  0  0  0  0  0  0  0  0  0
    0.2964   -0.5944   -0.8497 H   0  0  0  0  0  0  0  0  0  0  0  0
   -1.6383   -0.9340    1.4914 H   0  0  0  0  0  0  0  0  0  0  0  0
    0.1525   -0.8375    1.4377 H   0  0  0  0  0  0  0  0  0  0  0  0
    0.4678   -2.7533    0.2371 H   0  0  0  0  0  0  0  0  0  0  0  0
   -0.6221   -3.1664    1.5822 H   0  0  0  0  0  0  0  0  0  0  0  0
   -2.1598   -4.0244    0.0887 H   0  0  0  0  0  0  0  0  0  0  0  0
   -1.0604   -3.4776   -1.2968 H   0  0  0  0  0  0  0  0  0  0  0  0
   -3.0564   -1.6656    0.1418 H   0  0  0  0  0  0  0  0  0  0  0  0
   -3.3313   -2.4151   -1.4550 H   0  0  0  0  0  0  0  0  0  0  0  0
   -1.1807   -1.5341   -2.2606 H   0  0  0  0  0  0  0  0  0  0  0  0
   -2.3110   -0.2310   -1.9694 H   0  0  0  0  0  0  0  0  0  0  0  0
   -2.8185    0.6988    0.4504 H   0  0  0  0  0  0  0  0  0  0  0  0
   -3.3346    2.4509   -1.2056 H   0  0  0  0  0  0  0  0  0  0  0  0
   -1.9675    3.5019   -0.5351 H   0  0  0  0  0  0  0  0  0  0  0  0
   -4.6265    2.6858    0.6237 H   0  0  0  0  0  0  0  0  0  0  0  0
   -3.7964    4.2985    0.6049 H   0  0  0  0  0  0  0  0  0  0  0  0
   -2.9016    3.7549    2.6876 H   0  0  0  0  0  0  0  0  0  0  0  0
   -3.6806    2.1324    2.6278 H   0  0  0  0  0  0  0  0  0  0  0  0
   -1.4773    1.3667    2.4309 H   0  0  0  0  0  0  0  0  0  0  0  0
   -1.0169    2.9153    1.5410 H   0  0  0  0  0  0  0  0  0  0  0  0
  1  2  1  0
  2  3  1  0
  3  4  1  0
  4  5  1  0
  5  6  1  0
  6  7  2  0
  7  8  1  0
  7  9  1  0
  9 10  2  0
  9 11  1  0
 11 12  1  0
 12 13  1  0
 13 14  1  0
 14 15  1  0
 15 16  1  0
 16 17  1  0
 11 18  1  0
 18 19  1  0
 19 20  1  0
 20 21  1  0
 21 22  1  0
  8  4  2  0
 17 12  1  0
 22 18  1  0
  1 23  1  0
  1 24  1  0
  1 25  1  0
  2 26  1  0
  2 27  1  0
  3 28  1  0
  3 29  1  0
  8 30  1  0
 12 31  1  0
 13 32  1  0
 13 33  1  0
 14 34  1  0
 14 35  1  0
 15 36  1  0
 15 37  1  0
 16 38  1  0
 16 39  1  0
 17 40  1  0
 17 41  1  0
 18 42  1  0
 19 43  1  0
 19 44  1  0
 20 45  1  0
 20 46  1  0
 21 47  1  0
 21 48  1  0
 22 49  1  0
 22 50  1  0
M  END
>  <Ligand ID>  (1) 
LIG0001853

>  <Ligand>  (1) 
CHEMBL1975908

>  <SMILES>  (1) 
CCCc1onc(c1)C(=O)N(C1CCCCC1)C1CCCC1

>  <CID>  (1) 
25110489.0

>  <ChEMBL ID>  (1) 
nan

>  <InChiKey>  (1) 
CKDKODYRGXRFIX-UHFFFAOYSA-N

>  <InChi>  (1) 
InChI=1S/C18H28N2O2/c1-2-8-16-13-17(19-22-16)18(21)20(15-11-6-7-12-15)14-9-4-3-5-10-14/h13-15H,2-12H2,1H3

>  <IUPAC Name>  (1) 
N-cyclohexyl-N-cyclopentyl-5-propyl-1,2-oxazole-3-carboxamide

$$$$
