
     RDKit          3D

 57 59  0  0  0  0  0  0  0  0999 V2000
    8.2706    2.8690   -0.9870 O   0  0  0  0  0  0  0  0  0  0  0  0
    7.7700    3.1725    0.2678 C   0  0  0  0  0  0  0  0  0  0  0  0
    6.3381    2.7098    0.3341 C   0  0  0  0  0  0  0  0  0  0  0  0
    6.2812    1.3131    0.1167 O   0  0  0  0  0  0  0  0  0  0  0  0
    5.0275    0.7112    0.1434 C   0  0  0  0  0  0  0  0  0  0  0  0
    4.9523   -0.6655   -0.0690 C   0  0  0  0  0  0  0  0  0  0  0  0
    3.7190   -1.3008   -0.0497 C   0  0  0  0  0  0  0  0  0  0  0  0
    2.5605   -0.5606    0.1819 C   0  0  0  0  0  0  0  0  0  0  0  0
    2.6240    0.8000    0.3927 C   0  0  0  0  0  0  0  0  0  0  0  0
    3.8602    1.4125    0.3695 C   0  0  0  0  0  0  0  0  0  0  0  0
    1.3113   -1.2852    0.1895 C   0  0  0  0  0  0  0  0  0  0  0  0
    0.5260   -1.5012   -0.9149 C   0  0  0  0  0  0  0  0  0  0  0  0
    0.9451   -0.9863   -2.1750 C   0  0  0  0  0  0  0  0  0  0  0  0
    1.2873   -0.5564   -3.1898 N   0  0  0  0  0  0  0  0  0  0  0  0
   -0.6552   -2.2026   -0.8314 C   0  0  0  0  0  0  0  0  0  0  0  0
   -1.0278   -2.6774    0.3707 N   0  0  0  0  0  0  0  0  0  0  0  0
   -0.3027   -2.4988    1.4872 C   0  0  0  0  0  0  0  0  0  0  0  0
    0.8821   -1.7960    1.4067 C   0  0  0  0  0  0  0  0  0  0  0  0
    1.6636   -1.6058    2.6173 C   0  0  0  0  0  0  0  0  0  0  0  0
    2.2827   -1.4743    3.5813 N   0  0  0  0  0  0  0  0  0  0  0  0
   -0.7596   -3.0323    2.7355 N   0  0  0  0  0  0  0  0  0  0  0  0
   -1.7122   -2.5186   -2.2168 S   0  0  0  0  0  0  0  0  0  0  0  0
   -2.8911   -1.1703   -2.3729 C   0  0  0  0  0  0  0  0  0  0  0  0
   -3.8233   -1.1481   -1.1973 C   0  0  0  0  0  0  0  0  0  0  0  0
   -4.5534   -2.2959   -0.8981 C   0  0  0  0  0  0  0  0  0  0  0  0
   -5.4117   -2.2405    0.2029 C   0  0  0  0  0  0  0  0  0  0  0  0
   -5.5335   -1.0903    0.9685 C   0  0  0  0  0  0  0  0  0  0  0  0
   -4.8181    0.0340    0.6751 C   0  0  0  0  0  0  0  0  0  0  0  0
   -3.9680   -0.0098   -0.4094 C   0  0  0  0  0  0  0  0  0  0  0  0
   -4.9848    1.2100    1.5112 C   0  0  0  0  0  0  0  0  0  0  0  0
   -5.7879    1.1292    2.4741 O   0  0  0  0  0  0  0  0  0  0  0  0
   -4.2881    2.4318    1.2902 N   0  0  0  0  0  0  0  0  0  0  0  0
   -4.5189    3.5680    2.1854 C   0  0  0  0  0  0  0  0  0  0  0  0
   -3.7581   -1.3451   -3.6024 C   0  0  0  0  0  0  0  0  0  0  0  0
    9.2560    2.7373   -0.9155 H   0  0  0  0  0  0  0  0  0  0  0  0
    7.8369    4.2548    0.5018 H   0  0  0  0  0  0  0  0  0  0  0  0
    8.3148    2.5973    1.0423 H   0  0  0  0  0  0  0  0  0  0  0  0
    5.7072    3.1747   -0.4552 H   0  0  0  0  0  0  0  0  0  0  0  0
    5.8965    3.0090    1.2972 H   0  0  0  0  0  0  0  0  0  0  0  0
    5.8308   -1.2716   -0.2515 H   0  0  0  0  0  0  0  0  0  0  0  0
    3.6513   -2.3734   -0.2146 H   0  0  0  0  0  0  0  0  0  0  0  0
    1.7171    1.3768    0.5736 H   0  0  0  0  0  0  0  0  0  0  0  0
    3.8973    2.4794    0.5363 H   0  0  0  0  0  0  0  0  0  0  0  0
   -1.4127   -2.4755    3.3499 H   0  0  0  0  0  0  0  0  0  0  0  0
   -0.4479   -3.9927    3.0581 H   0  0  0  0  0  0  0  0  0  0  0  0
   -2.4177   -0.1675   -2.4210 H   0  0  0  0  0  0  0  0  0  0  0  0
   -4.4866   -3.2013   -1.4647 H   0  0  0  0  0  0  0  0  0  0  0  0
   -5.9717   -3.1445    0.4196 H   0  0  0  0  0  0  0  0  0  0  0  0
   -6.2338   -1.1588    1.8059 H   0  0  0  0  0  0  0  0  0  0  0  0
   -3.3840    0.8598   -0.6743 H   0  0  0  0  0  0  0  0  0  0  0  0
   -3.6200    2.5129    0.4958 H   0  0  0  0  0  0  0  0  0  0  0  0
   -5.2098    4.2443    1.6524 H   0  0  0  0  0  0  0  0  0  0  0  0
   -3.5533    4.1058    2.2959 H   0  0  0  0  0  0  0  0  0  0  0  0
   -4.9202    3.2001    3.1465 H   0  0  0  0  0  0  0  0  0  0  0  0
   -4.2164   -0.3871   -3.8913 H   0  0  0  0  0  0  0  0  0  0  0  0
   -3.1433   -1.7151   -4.4320 H   0  0  0  0  0  0  0  0  0  0  0  0
   -4.5978   -2.0638   -3.4040 H   0  0  0  0  0  0  0  0  0  0  0  0
  1  2  1  0
  2  3  1  0
  3  4  1  0
  4  5  1  0
  5  6  2  0
  6  7  1  0
  7  8  2  0
  8  9  1  0
  9 10  2  0
  8 11  1  0
 11 12  2  0
 12 13  1  0
 13 14  3  0
 12 15  1  0
 15 16  2  0
 16 17  1  0
 17 18  2  0
 18 19  1  0
 19 20  3  0
 17 21  1  0
 15 22  1  0
 22 23  1  0
 23 24  1  0
 24 25  2  0
 25 26  1  0
 26 27  2  0
 27 28  1  0
 28 29  2  0
 28 30  1  0
 30 31  2  0
 30 32  1  0
 32 33  1  0
 23 34  1  0
 10  5  1  0
 18 11  1  0
 29 24  1  0
  1 35  1  0
  2 36  1  0
  2 37  1  0
  3 38  1  0
  3 39  1  0
  6 40  1  0
  7 41  1  0
  9 42  1  0
 10 43  1  0
 21 44  1  0
 21 45  1  0
 23 46  1  0
 25 47  1  0
 26 48  1  0
 27 49  1  0
 29 50  1  0
 32 51  1  0
 33 52  1  0
 33 53  1  0
 33 54  1  0
 34 55  1  0
 34 56  1  0
 34 57  1  0
M  END
>  <Ligand ID>  (1) 
LIG0003507

>  <Ligand>  (1) 
SCHEMBL244759

>  <SMILES>  (1) 
OCCOc1ccc(cc1)c1c(C#N)c(nc(c1C#N)N)SC(c1cccc(c1)C(=O)NC)C

>  <CID>  (1) 
56592092.0

>  <ChEMBL ID>  (1) 
nan

>  <InChiKey>  (1) 
XLMBXOODCDVPFM-UHFFFAOYSA-N

>  <InChi>  (1) 
InChI=1S/C25H23N5O3S/c1-15(17-4-3-5-18(12-17)24(32)29-2)34-25-21(14-27)22(20(13-26)23(28)30-25)16-6-8-19(9-7-16)33-11-10-31/h3-9,12,15,31H,10-11H2,1-2H3,(H2,28,30)(H,29,32)

>  <IUPAC Name>  (1) 
3-[1-[6-amino-3,5-dicyano-4-[4-(2-hydroxyethoxy)phenyl]pyridin-2-yl]sulfanylethyl]-N-methylbenzamide

$$$$
