
     RDKit          3D

 72 74  0  0  0  0  0  0  0  0999 V2000
    3.0472   -0.4702    2.4189 O   0  0  0  0  0  0  0  0  0  0  0  0
    1.9320   -0.5784    1.6080 C   0  0  0  0  0  0  0  0  0  0  0  0
    1.5572    0.8495    1.1308 C   0  0  0  0  0  0  0  0  0  0  0  0
    0.4084    1.0868    0.7012 O   0  0  0  0  0  0  0  0  0  0  0  0
   -0.7831    1.3742    0.2277 C   0  0  0  0  0  0  0  0  0  0  0  0
   -1.3804    2.1209   -0.5819 C   0  0  0  0  0  0  0  0  0  0  0  0
   -2.7340    2.1732   -0.8118 C   0  0  0  0  0  0  0  0  0  0  0  0
   -3.6044    1.4437   -0.2287 C   0  0  0  0  0  0  0  0  0  0  0  0
   -3.0292    0.5193    0.7496 C   0  0  0  0  0  0  0  0  0  0  0  0
   -1.7018    0.3894    1.0708 C   0  0  0  0  0  0  0  0  0  0  0  0
   -4.9632    1.2557   -0.2156 O   0  0  0  0  0  0  0  0  0  0  0  0
   -5.8737    1.9105   -0.9562 C   0  0  0  0  0  0  0  0  0  0  0  0
   -7.3090    1.4326   -0.7006 C   0  0  0  0  0  0  0  0  0  0  0  0
   -7.5129    0.1569   -1.0112 O   0  0  0  0  0  0  0  0  0  0  0  0
   -7.2217   -0.8362   -0.1191 C   0  0  0  0  0  0  0  0  0  0  0  0
   -8.3005   -0.8439    0.9826 C   0  0  0  0  0  0  0  0  0  0  0  0
   -9.5608   -0.8576    0.1699 C   0  0  0  0  0  0  0  0  0  0  0  0
  -10.0256   -1.7765   -0.6467 C   0  0  0  0  0  0  0  0  0  0  0  0
  -11.1496   -1.8771   -1.3697 C   0  0  0  0  0  0  0  0  0  0  0  0
  -11.9948   -0.7741   -1.2222 C   0  0  0  0  0  0  0  0  0  0  0  0
  -11.6696    0.3261   -0.3595 C   0  0  0  0  0  0  0  0  0  0  0  0
  -10.4391    0.2535    0.3182 C   0  0  0  0  0  0  0  0  0  0  0  0
  -13.1925   -0.6960   -1.9139 F   0  0  0  0  0  0  0  0  0  0  0  0
    2.4865   -1.2276    0.2842 C   0  0  0  0  0  0  0  0  0  0  0  0
    3.4879   -0.4570   -0.3036 N   0  0  0  0  0  0  0  0  0  0  0  0
    4.7748   -0.4455    0.2704 C   0  0  0  0  0  0  0  0  0  0  0  0
    5.4081    0.9452    0.1239 C   0  0  0  0  0  0  0  0  0  0  0  0
    6.7232    0.9782    0.7733 N   0  0  0  0  0  0  0  0  0  0  0  0
    7.8119    0.1427    0.3420 C   0  0  0  0  0  0  0  0  0  0  0  0
    7.7464   -0.6450   -0.5832 O   0  0  0  0  0  0  0  0  0  0  0  0
    9.0480    0.3971    1.1228 N   0  0  0  0  0  0  0  0  0  0  0  0
   10.1467   -0.3734    0.4456 C   0  0  0  0  0  0  0  0  0  0  0  0
   10.3814   -1.6633    0.7376 C   0  0  0  0  0  0  0  0  0  0  0  0
   11.2345   -2.3255   -0.1430 C   0  0  0  0  0  0  0  0  0  0  0  0
   11.7623   -1.6494   -1.2243 C   0  0  0  0  0  0  0  0  0  0  0  0
   11.4908   -0.2870   -1.4905 C   0  0  0  0  0  0  0  0  0  0  0  0
   10.6509    0.3525   -0.6146 C   0  0  0  0  0  0  0  0  0  0  0  0
   12.6228   -2.3004   -2.1612 O   0  0  0  0  0  0  0  0  0  0  0  0
    3.3930    0.4857    2.3348 H   0  0  0  0  0  0  0  0  0  0  0  0
    1.0771   -1.1373    1.8618 H   0  0  0  0  0  0  0  0  0  0  0  0
    1.5199    1.3542    2.2428 H   0  0  0  0  0  0  0  0  0  0  0  0
    2.4652    1.3055    0.7557 H   0  0  0  0  0  0  0  0  0  0  0  0
   -0.7663    2.8332   -1.2318 H   0  0  0  0  0  0  0  0  0  0  0  0
   -3.0944    2.9023   -1.5611 H   0  0  0  0  0  0  0  0  0  0  0  0
   -3.7021   -0.1082    1.3851 H   0  0  0  0  0  0  0  0  0  0  0  0
   -1.2023   -0.2253    1.6715 H   0  0  0  0  0  0  0  0  0  0  0  0
   -5.8807    2.9867   -1.0072 H   0  0  0  0  0  0  0  0  0  0  0  0
   -5.7515    1.5985   -2.0779 H   0  0  0  0  0  0  0  0  0  0  0  0
   -8.0617    2.1249   -1.0514 H   0  0  0  0  0  0  0  0  0  0  0  0
   -7.4255    1.5191    0.4624 H   0  0  0  0  0  0  0  0  0  0  0  0
   -7.1961   -1.8359   -0.5543 H   0  0  0  0  0  0  0  0  0  0  0  0
   -6.1982   -0.6925    0.3268 H   0  0  0  0  0  0  0  0  0  0  0  0
   -8.2304    0.0675    1.6003 H   0  0  0  0  0  0  0  0  0  0  0  0
   -8.1183   -1.7451    1.5196 H   0  0  0  0  0  0  0  0  0  0  0  0
   -9.3333   -2.6522   -0.8393 H   0  0  0  0  0  0  0  0  0  0  0  0
  -11.4728   -2.6715   -2.0138 H   0  0  0  0  0  0  0  0  0  0  0  0
  -12.3316    1.1350   -0.2862 H   0  0  0  0  0  0  0  0  0  0  0  0
  -10.2434    1.0713    0.9766 H   0  0  0  0  0  0  0  0  0  0  0  0
    2.8867   -2.2276    0.5787 H   0  0  0  0  0  0  0  0  0  0  0  0
    1.6033   -1.3534   -0.3656 H   0  0  0  0  0  0  0  0  0  0  0  0
    3.1963    0.3506   -0.8504 H   0  0  0  0  0  0  0  0  0  0  0  0
    4.9535   -0.7717    1.2784 H   0  0  0  0  0  0  0  0  0  0  0  0
    5.4098   -1.1224   -0.4358 H   0  0  0  0  0  0  0  0  0  0  0  0
    5.5866    1.0938   -0.9458 H   0  0  0  0  0  0  0  0  0  0  0  0
    4.7782    1.7280    0.5017 H   0  0  0  0  0  0  0  0  0  0  0  0
    6.7666    1.6078    1.6222 H   0  0  0  0  0  0  0  0  0  0  0  0
    9.1410    0.9477    1.9165 H   0  0  0  0  0  0  0  0  0  0  0  0
    9.9414   -2.1379    1.5978 H   0  0  0  0  0  0  0  0  0  0  0  0
   11.4825   -3.3275    0.0512 H   0  0  0  0  0  0  0  0  0  0  0  0
   11.9803    0.1614   -2.2921 H   0  0  0  0  0  0  0  0  0  0  0  0
   10.4475    1.4269   -0.7569 H   0  0  0  0  0  0  0  0  0  0  0  0
   12.1045   -2.7154   -2.9855 H   0  0  0  0  0  0  0  0  0  0  0  0
  1  2  1  0
  2  3  1  0
  3  4  1  0
  4  5  1  0
  5  6  2  0
  6  7  1  0
  7  8  2  0
  8  9  1  0
  9 10  2  0
  8 11  1  0
 11 12  1  0
 12 13  1  0
 13 14  1  0
 14 15  1  0
 15 16  1  0
 16 17  1  0
 17 18  2  0
 18 19  1  0
 19 20  2  0
 20 21  1  0
 21 22  2  0
 20 23  1  0
  2 24  1  0
 24 25  1  0
 25 26  1  0
 26 27  1  0
 27 28  1  0
 28 29  1  0
 29 30  2  0
 29 31  1  0
 31 32  1  0
 32 33  2  0
 33 34  1  0
 34 35  2  0
 35 36  1  0
 36 37  2  0
 35 38  1  0
 10  5  1  0
 22 17  1  0
 37 32  1  0
  1 39  1  0
  2 40  1  0
  3 41  1  0
  3 42  1  0
  6 43  1  0
  7 44  1  0
  9 45  1  0
 10 46  1  0
 12 47  1  0
 12 48  1  0
 13 49  1  0
 13 50  1  0
 15 51  1  0
 15 52  1  0
 16 53  1  0
 16 54  1  0
 18 55  1  0
 19 56  1  0
 21 57  1  0
 22 58  1  0
 24 59  1  0
 24 60  1  0
 25 61  1  0
 26 62  1  0
 26 63  1  0
 27 64  1  0
 27 65  1  0
 28 66  1  0
 31 67  1  0
 33 68  1  0
 34 69  1  0
 36 70  1  0
 37 71  1  0
 38 72  1  0
M  END
>  <Ligand ID>  (1) 
LIG0002560

>  <Ligand>  (1) 
CHEMBL2348218

>  <SMILES>  (1) 
OC(COc1ccc(cc1)OCCOCCc1ccc(cc1)F)CNCCNC(=O)Nc1ccc(cc1)O

>  <CID>  (1) 
56598832.0

>  <ChEMBL ID>  (1) 
nan

>  <InChiKey>  (1) 
QBHWFJABBIHHGB-UHFFFAOYSA-N

>  <InChi>  (1) 
InChI=1S/C28H34FN3O6/c29-22-3-1-21(2-4-22)13-16-36-17-18-37-26-9-11-27(12-10-26)38-20-25(34)19-30-14-15-31-28(35)32-23-5-7-24(33)8-6-23/h1-12,25,30,33-34H,13-20H2,(H2,31,32,35)

>  <IUPAC Name>  (1) 
1-[2-[[3-[4-[2-[2-(4-fluorophenyl)ethoxy]ethoxy]phenoxy]-2-hydroxypropyl]amino]ethyl]-3-(4-hydroxyphenyl)urea

$$$$
