
     RDKit          3D

 68 72  0  0  0  0  0  0  0  0999 V2000
   -0.9832   -6.3076   -0.5099 C   0  0  0  0  0  0  0  0  0  0  0  0
   -0.9641   -4.8902   -0.5889 O   0  0  0  0  0  0  0  0  0  0  0  0
    0.1090   -4.1734   -0.0830 C   0  0  0  0  0  0  0  0  0  0  0  0
    1.0971   -4.7737    0.4618 O   0  0  0  0  0  0  0  0  0  0  0  0
    0.1142   -2.6824   -0.1738 C   0  0  2  0  0  0  0  0  0  0  0  0
    1.4034   -2.1287    0.4488 C   0  0  0  0  0  0  0  0  0  0  0  0
    1.4510   -0.6507    0.1510 C   0  0  2  0  0  0  0  0  0  0  0  0
    2.5743   -0.0165    0.6956 O   0  0  0  0  0  0  0  0  0  0  0  0
    3.5694    0.5885   -0.0683 C   0  0  0  0  0  0  0  0  0  0  0  0
    3.4484    0.5606   -1.2933 O   0  0  0  0  0  0  0  0  0  0  0  0
    4.6549    1.1978    0.5608 N   0  0  0  0  0  0  0  0  0  0  0  0
    5.7433    1.8517   -0.0532 C   0  0  0  0  0  0  0  0  0  0  0  0
    5.9213    2.0015   -1.4061 C   0  0  0  0  0  0  0  0  0  0  0  0
    7.0258    2.6624   -1.9517 C   0  0  0  0  0  0  0  0  0  0  0  0
    7.9923    3.1960   -1.1261 C   0  0  0  0  0  0  0  0  0  0  0  0
    7.8236    3.0518    0.2213 C   0  0  0  0  0  0  0  0  0  0  0  0
    6.7455    2.4069    0.7479 C   0  0  0  0  0  0  0  0  0  0  0  0
    0.1704    0.0137    0.5336 C   0  0  0  0  0  0  0  0  0  0  0  0
    0.2414    1.0357    1.1837 O   0  0  0  0  0  0  0  0  0  0  0  0
   -1.0865   -0.6215    0.0930 C   0  0  1  0  0  0  0  0  0  0  0  0
   -1.0693   -2.0606    0.5425 C   0  0  2  0  0  0  0  0  0  0  0  0
   -0.8237   -2.2568    2.0072 C   0  0  0  0  0  0  0  0  0  0  0  0
   -2.3420   -2.7885    0.1742 C   0  0  0  0  0  0  0  0  0  0  0  0
   -3.5687   -1.9527    0.5653 C   0  0  0  0  0  0  0  0  0  0  0  0
   -3.4651   -0.6819   -0.1956 C   0  0  2  0  0  0  0  0  0  0  0  0
   -2.3205    0.1287    0.3843 C   0  0  1  0  0  0  0  0  0  0  0  0
   -2.5193    0.5632    1.7882 C   0  0  0  0  0  0  0  0  0  0  0  0
   -2.2869    1.4151   -0.4543 C   0  0  0  0  0  0  0  0  0  0  0  0
   -3.5627    2.1803   -0.1851 C   0  0  2  0  0  0  0  0  0  0  0  0
   -4.6342    1.4320   -0.6947 O   0  0  0  0  0  0  0  0  0  0  0  0
   -4.6928    0.0869   -0.3550 C   0  0  0  0  0  0  0  0  0  0  0  0
   -5.7985   -0.5212   -0.1718 O   0  0  0  0  0  0  0  0  0  0  0  0
   -3.4854    3.5377   -0.7803 C   0  0  0  0  0  0  0  0  0  0  0  0
   -4.5689    4.3871   -0.9652 C   0  0  0  0  0  0  0  0  0  0  0  0
   -4.0148    5.5240   -1.5447 C   0  0  0  0  0  0  0  0  0  0  0  0
   -2.7369    5.3735   -1.6918 O   0  0  0  0  0  0  0  0  0  0  0  0
   -2.3470    4.2001   -1.2531 C   0  0  0  0  0  0  0  0  0  0  0  0
   -0.3950   -6.7072    0.3251 H   0  0  0  0  0  0  0  0  0  0  0  0
   -0.7442   -6.7737   -1.4882 H   0  0  0  0  0  0  0  0  0  0  0  0
   -2.0515   -6.5770   -0.3234 H   0  0  0  0  0  0  0  0  0  0  0  0
    0.0748   -2.3956   -1.2467 H   0  0  0  0  0  0  0  0  0  0  0  0
    2.2403   -2.6027   -0.1192 H   0  0  0  0  0  0  0  0  0  0  0  0
    1.4404   -2.3914    1.5050 H   0  0  0  0  0  0  0  0  0  0  0  0
    1.5255   -0.5684   -0.9538 H   0  0  0  0  0  0  0  0  0  0  0  0
    4.6661    1.1676    1.6217 H   0  0  0  0  0  0  0  0  0  0  0  0
    5.2184    1.6171   -2.1186 H   0  0  0  0  0  0  0  0  0  0  0  0
    7.1396    2.7654   -3.0282 H   0  0  0  0  0  0  0  0  0  0  0  0
    8.8589    3.7129   -1.5059 H   0  0  0  0  0  0  0  0  0  0  0  0
    8.5684    3.4621    0.8840 H   0  0  0  0  0  0  0  0  0  0  0  0
    6.6841    2.3338    1.8364 H   0  0  0  0  0  0  0  0  0  0  0  0
   -1.0266   -0.6787   -1.0332 H   0  0  0  0  0  0  0  0  0  0  0  0
   -1.7859   -2.4200    2.5775 H   0  0  0  0  0  0  0  0  0  0  0  0
   -0.1471   -1.5392    2.4707 H   0  0  0  0  0  0  0  0  0  0  0  0
   -0.3091   -3.2551    2.1382 H   0  0  0  0  0  0  0  0  0  0  0  0
   -2.4194   -3.7016    0.7987 H   0  0  0  0  0  0  0  0  0  0  0  0
   -2.4147   -3.0865   -0.8726 H   0  0  0  0  0  0  0  0  0  0  0  0
   -4.4478   -2.5637    0.3328 H   0  0  0  0  0  0  0  0  0  0  0  0
   -3.5004   -1.7756    1.6773 H   0  0  0  0  0  0  0  0  0  0  0  0
   -3.1214   -0.9617   -1.2347 H   0  0  0  0  0  0  0  0  0  0  0  0
   -2.0102   -0.0313    2.5668 H   0  0  0  0  0  0  0  0  0  0  0  0
   -2.1586    1.6169    1.9792 H   0  0  0  0  0  0  0  0  0  0  0  0
   -3.6200    0.5916    1.9995 H   0  0  0  0  0  0  0  0  0  0  0  0
   -1.4199    2.0462   -0.2055 H   0  0  0  0  0  0  0  0  0  0  0  0
   -2.3122    1.1150   -1.5263 H   0  0  0  0  0  0  0  0  0  0  0  0
   -3.7526    2.3124    0.9138 H   0  0  0  0  0  0  0  0  0  0  0  0
   -5.6132    4.2243   -0.7224 H   0  0  0  0  0  0  0  0  0  0  0  0
   -4.6471    6.3761   -1.8055 H   0  0  0  0  0  0  0  0  0  0  0  0
   -1.3342    3.7998   -1.2491 H   0  0  0  0  0  0  0  0  0  0  0  0
  1  2  1  0
  2  3  1  0
  3  4  2  0
  3  5  1  0
  5  6  1  0
  6  7  1  0
  7  8  1  0
  8  9  1  0
  9 10  2  0
  9 11  1  0
 11 12  1  0
 12 13  2  0
 13 14  1  0
 14 15  2  0
 15 16  1  0
 16 17  2  0
  7 18  1  0
 18 19  2  0
 18 20  1  0
 20 21  1  0
 21 22  1  1
 21 23  1  0
 23 24  1  0
 24 25  1  0
 25 26  1  0
 26 27  1  1
 26 28  1  0
 28 29  1  0
 29 30  1  0
 30 31  1  0
 31 32  2  0
 29 33  1  0
 33 34  1  0
 34 35  2  0
 35 36  1  0
 36 37  1  0
 21  5  1  0
 31 25  1  0
 37 33  2  0
 17 12  1  0
 26 20  1  0
  1 38  1  0
  1 39  1  0
  1 40  1  0
  5 41  1  6
  6 42  1  0
  6 43  1  0
  7 44  1  6
 11 45  1  0
 13 46  1  0
 14 47  1  0
 15 48  1  0
 16 49  1  0
 17 50  1  0
 20 51  1  6
 22 52  1  0
 22 53  1  0
 22 54  1  0
 23 55  1  0
 23 56  1  0
 24 57  1  0
 24 58  1  0
 25 59  1  6
 27 60  1  0
 27 61  1  0
 27 62  1  0
 28 63  1  0
 28 64  1  0
 29 65  1  1
 34 66  1  0
 35 67  1  0
 37 68  1  0
M  END
>  <Ligand ID>  (1) 
LIG0002128

>  <Ligand>  (1) 
CHEMBL190785

>  <SMILES>  (1) 
COC(=O)[C@@H]1C[C@H](OC(=O)Nc2ccccc2)C(=O)[C@H]2[C@@]1(C)CC[C@@H]1[C@]2(C)C[C@H](OC1=O)c1ccoc1

>  <CID>  (1) 
11191431.0

>  <ChEMBL ID>  (1) 
nan

>  <InChiKey>  (1) 
IHDOVLHHTAJFKU-XAGHGKQISA-N

>  <InChi>  (1) 
InChI=1S/C28H31NO8/c1-27-11-9-18-25(32)36-21(16-10-12-35-15-16)14-28(18,2)23(27)22(30)20(13-19(27)24(31)34-3)37-26(33)29-17-7-5-4-6-8-17/h4-8,10,12,15,18-21,23H,9,11,13-14H2,1-3H3,(H,29,33)/t18-,19-,20-,21-,23-,27-,28-/m0/s1

>  <IUPAC Name>  (1) 
methyl (2S,4aR,6aR,7R,9S,10aS,10bR)-2-(furan-3-yl)-6a,10b-dimethyl-4,10-dioxo-9-(phenylcarbamoyloxy)-2,4a,5,6,7,8,9,10a-octahydro-1H-benzo[f]isochromene-7-carboxylate

$$$$
