
     RDKit          3D

 17 16  0  0  0  0  0  0  0  0999 V2000
   -2.0108   -0.7052   -0.2332 C   0  0  0  0  0  0  0  0  0  0  0  0
   -1.1852    0.4935   -0.6450 C   0  0  0  0  0  0  0  0  0  0  0  0
    0.0724    0.6018    0.1896 C   0  0  0  0  0  0  0  0  0  0  0  0
    0.9327   -0.6058    0.0445 C   0  0  0  0  0  0  0  0  0  0  0  0
    0.5589   -1.5185   -0.6955 O   0  0  0  0  0  0  0  0  0  0  0  0
    2.2035   -0.6481    0.8029 C   0  0  0  0  0  0  0  0  0  0  0  0
    0.9372    2.1492   -0.0552 S   0  0  0  0  0  0  0  0  0  0  0  0
   -1.4837   -1.1956    0.6093 H   0  0  0  0  0  0  0  0  0  0  0  0
   -2.9933   -0.3405    0.1316 H   0  0  0  0  0  0  0  0  0  0  0  0
   -2.1037   -1.4679   -1.0297 H   0  0  0  0  0  0  0  0  0  0  0  0
   -1.7797    1.4145   -0.6297 H   0  0  0  0  0  0  0  0  0  0  0  0
   -0.8553    0.2878   -1.7009 H   0  0  0  0  0  0  0  0  0  0  0  0
   -0.2674    0.5901    1.2507 H   0  0  0  0  0  0  0  0  0  0  0  0
    2.9302   -1.3689    0.4041 H   0  0  0  0  0  0  0  0  0  0  0  0
    2.6010    0.3823    0.8799 H   0  0  0  0  0  0  0  0  0  0  0  0
    1.9730   -0.9582    1.8318 H   0  0  0  0  0  0  0  0  0  0  0  0
    0.4702    2.8893   -1.1552 H   0  0  0  0  0  0  0  0  0  0  0  0
  1  2  1  0
  2  3  1  0
  3  4  1  0
  4  5  2  0
  4  6  1  0
  3  7  1  0
  1  8  1  0
  1  9  1  0
  1 10  1  0
  2 11  1  0
  2 12  1  0
  3 13  1  0
  6 14  1  0
  6 15  1  0
  6 16  1  0
  7 17  1  0
M  END
>  <Ligand ID>  (1) 
LIG0002061

>  <Ligand>  (1) 
3-Mercapto-2-pentanone

>  <SMILES>  (1) 
CCC(C(=O)C)S

>  <CID>  (1) 
62237.0

>  <ChEMBL ID>  (1) 
nan

>  <InChiKey>  (1) 
SZECUQRKLXRGSJ-UHFFFAOYSA-N

>  <InChi>  (1) 
InChI=1S/C5H10OS/c1-3-5(7)4(2)6/h5,7H,3H2,1-2H3

>  <IUPAC Name>  (1) 
3-sulfanylpentan-2-one

$$$$
