
     RDKit          3D

 56 59  0  0  0  0  0  0  0  0999 V2000
    8.9378   -1.0675    3.6682 O   0  0  0  0  0  0  0  0  0  0  0  0
    8.4729   -0.3474    2.5581 C   0  0  0  0  0  0  0  0  0  0  0  0
    9.3291    0.1810    1.8020 O   0  0  0  0  0  0  0  0  0  0  0  0
    7.0211   -0.2680    2.3674 C   0  0  0  0  0  0  0  0  0  0  0  0
    6.7029    0.5385    1.1340 C   0  0  1  0  0  0  0  0  0  0  0  0
    7.2975   -0.0659   -0.1208 C   0  0  0  0  0  0  0  0  0  0  0  0
    6.3350    0.4312   -1.1830 C   0  0  0  0  0  0  0  0  0  0  0  0
    5.0417    0.4003   -0.4956 N   0  0  0  0  0  0  0  0  0  0  0  0
    5.2397    0.4614    0.8356 C   0  0  0  0  0  0  0  0  0  0  0  0
    3.9939    0.4299    1.4549 C   0  0  0  0  0  0  0  0  0  0  0  0
    3.7159    0.4859    3.1991 Cl  0  0  0  0  0  0  0  0  0  0  0  0
    3.0536    0.3484    0.4491 C   0  0  0  0  0  0  0  0  0  0  0  0
    3.7193    0.3305   -0.7661 C   0  0  0  0  0  0  0  0  0  0  0  0
    2.9892    0.2519   -1.9373 C   0  0  0  0  0  0  0  0  0  0  0  0
    1.6136    0.1907   -1.9277 C   0  0  0  0  0  0  0  0  0  0  0  0
    0.9652    0.2098   -0.7018 C   0  0  0  0  0  0  0  0  0  0  0  0
    1.6726    0.2878    0.4799 C   0  0  0  0  0  0  0  0  0  0  0  0
   -0.4345    0.1505   -0.6174 O   0  0  0  0  0  0  0  0  0  0  0  0
   -1.2461    0.0691   -1.7666 C   0  0  0  0  0  0  0  0  0  0  0  0
   -2.6601    0.0241   -1.3000 C   0  0  0  0  0  0  0  0  0  0  0  0
   -3.2796   -1.1805   -1.0316 C   0  0  0  0  0  0  0  0  0  0  0  0
   -4.5969   -1.2115   -0.5976 C   0  0  0  0  0  0  0  0  0  0  0  0
   -5.3409   -0.0713   -0.4149 C   0  0  0  0  0  0  0  0  0  0  0  0
   -4.7129    1.1313   -0.6859 C   0  0  0  0  0  0  0  0  0  0  0  0
   -3.4039    1.1856   -1.1185 C   0  0  0  0  0  0  0  0  0  0  0  0
   -5.4784    2.4154   -0.5040 C   0  0  0  0  0  0  0  0  0  0  0  0
   -5.8336    2.4177    0.8519 F   0  0  0  0  0  0  0  0  0  0  0  0
   -4.6796    3.5011   -0.6994 F   0  0  0  0  0  0  0  0  0  0  0  0
   -6.6240    2.3832   -1.2392 F   0  0  0  0  0  0  0  0  0  0  0  0
   -6.6432   -0.0258    0.0101 O   0  0  0  0  0  0  0  0  0  0  0  0
   -7.4532   -1.1002    0.3341 C   0  0  0  0  0  0  0  0  0  0  0  0
   -8.6778   -1.2078   -0.5646 C   0  0  0  0  0  0  0  0  0  0  0  0
   -8.0138   -0.9989    1.7547 C   0  0  0  0  0  0  0  0  0  0  0  0
    9.9301   -1.2655    3.8133 H   0  0  0  0  0  0  0  0  0  0  0  0
    6.6069   -1.2911    2.1812 H   0  0  0  0  0  0  0  0  0  0  0  0
    6.4732    0.2046    3.2059 H   0  0  0  0  0  0  0  0  0  0  0  0
    7.0231    1.5957    1.2154 H   0  0  0  0  0  0  0  0  0  0  0  0
    8.3330    0.2854   -0.3106 H   0  0  0  0  0  0  0  0  0  0  0  0
    7.2131   -1.1677   -0.0519 H   0  0  0  0  0  0  0  0  0  0  0  0
    6.5271    1.4951   -1.4272 H   0  0  0  0  0  0  0  0  0  0  0  0
    6.3770   -0.2298   -2.0575 H   0  0  0  0  0  0  0  0  0  0  0  0
    3.4985    0.2366   -2.9088 H   0  0  0  0  0  0  0  0  0  0  0  0
    1.0488    0.1300   -2.8310 H   0  0  0  0  0  0  0  0  0  0  0  0
    1.1512    0.3009    1.4087 H   0  0  0  0  0  0  0  0  0  0  0  0
   -1.1092    0.9373   -2.4430 H   0  0  0  0  0  0  0  0  0  0  0  0
   -1.0135   -0.8486   -2.3669 H   0  0  0  0  0  0  0  0  0  0  0  0
   -2.7000   -2.0958   -1.1725 H   0  0  0  0  0  0  0  0  0  0  0  0
   -5.0178   -2.1849   -0.4069 H   0  0  0  0  0  0  0  0  0  0  0  0
   -2.9405    2.1425   -1.3223 H   0  0  0  0  0  0  0  0  0  0  0  0
   -6.9111   -2.0519    0.2074 H   0  0  0  0  0  0  0  0  0  0  0  0
   -9.1093   -2.2187   -0.5567 H   0  0  0  0  0  0  0  0  0  0  0  0
   -9.4395   -0.5187   -0.1450 H   0  0  0  0  0  0  0  0  0  0  0  0
   -8.4457   -0.8411   -1.5819 H   0  0  0  0  0  0  0  0  0  0  0  0
   -8.6074   -1.9121    1.9336 H   0  0  0  0  0  0  0  0  0  0  0  0
   -8.7160   -0.1284    1.7489 H   0  0  0  0  0  0  0  0  0  0  0  0
   -7.1946   -0.8545    2.4941 H   0  0  0  0  0  0  0  0  0  0  0  0
  1  2  1  0
  2  3  2  0
  2  4  1  0
  4  5  1  0
  5  6  1  0
  6  7  1  0
  7  8  1  0
  8  9  1  0
  9 10  2  0
 10 11  1  0
 10 12  1  0
 12 13  2  0
 13 14  1  0
 14 15  2  0
 15 16  1  0
 16 17  2  0
 16 18  1  0
 18 19  1  0
 19 20  1  0
 20 21  2  0
 21 22  1  0
 22 23  2  0
 23 24  1  0
 24 25  2  0
 24 26  1  0
 26 27  1  0
 26 28  1  0
 26 29  1  0
 23 30  1  0
 30 31  1  0
 31 32  1  0
 31 33  1  0
  9  5  1  0
 17 12  1  0
 25 20  1  0
 13  8  1  0
  1 34  1  0
  4 35  1  0
  4 36  1  0
  5 37  1  1
  6 38  1  0
  6 39  1  0
  7 40  1  0
  7 41  1  0
 14 42  1  0
 15 43  1  0
 17 44  1  0
 19 45  1  0
 19 46  1  0
 21 47  1  0
 22 48  1  0
 25 49  1  0
 31 50  1  0
 32 51  1  0
 32 52  1  0
 32 53  1  0
 33 54  1  0
 33 55  1  0
 33 56  1  0
M  END
>  <Ligand ID>  (1) 
LIG0000687

>  <Ligand>  (1) 
CHEMBL3359523

>  <SMILES>  (1) 
OC(=O)C[C@H]1CCn2c1c(Cl)c1c2ccc(c1)OCc1ccc(c(c1)C(F)(F)F)OC(C)C

>  <CID>  (1) 
53362086.0

>  <ChEMBL ID>  (1) 
nan

>  <InChiKey>  (1) 
RLGFHVZCVPTTLP-OAHLLOKOSA-N

>  <InChi>  (1) 
InChI=1S/C24H23ClF3NO4/c1-13(2)33-20-6-3-14(9-18(20)24(26,27)28)12-32-16-4-5-19-17(11-16)22(25)23-15(10-21(30)31)7-8-29(19)23/h3-6,9,11,13,15H,7-8,10,12H2,1-2H3,(H,30,31)/t15-/m1/s1

>  <IUPAC Name>  (1) 
2-[(3R)-4-chloro-6-[[4-propan-2-yloxy-3-(trifluoromethyl)phenyl]methoxy]-2,3-dihydro-1H-pyrrolo[1,2-a]indol-3-yl]acetic acid

$$$$
