
     RDKit          3D

 25 25  0  0  0  0  0  0  0  0999 V2000
    1.9075   -2.2863    0.5781 O   0  0  0  0  0  0  0  0  0  0  0  0
    0.8141   -1.7156    0.7636 C   0  0  0  0  0  0  0  0  0  0  0  0
    0.4363   -0.4552    0.0878 C   0  0  0  0  0  0  0  0  0  0  0  0
    1.2790    0.1030   -0.7497 C   0  0  0  0  0  0  0  0  0  0  0  0
    2.6204   -0.4519   -1.0782 C   0  0  0  0  0  0  0  0  0  0  0  0
    0.9082    1.3479   -1.4203 C   0  0  0  0  0  0  0  0  0  0  0  0
   -0.2651    1.8940   -1.1769 C   0  0  0  0  0  0  0  0  0  0  0  0
   -1.2770    1.3428   -0.2544 C   0  0  0  0  0  0  0  0  0  0  0  0
   -0.9013    0.0779    0.4307 C   0  0  0  0  0  0  0  0  0  0  0  0
   -1.9235   -1.0257    0.1110 C   0  0  0  0  0  0  0  0  0  0  0  0
   -0.8687    0.2577    1.9593 C   0  0  0  0  0  0  0  0  0  0  0  0
    0.1363   -2.2069    1.4667 H   0  0  0  0  0  0  0  0  0  0  0  0
    3.1624    0.1997   -1.8027 H   0  0  0  0  0  0  0  0  0  0  0  0
    2.4458   -1.4602   -1.5065 H   0  0  0  0  0  0  0  0  0  0  0  0
    3.2187   -0.5357   -0.1482 H   0  0  0  0  0  0  0  0  0  0  0  0
    1.5796    1.8374   -2.1187 H   0  0  0  0  0  0  0  0  0  0  0  0
   -0.5094    2.8127   -1.6873 H   0  0  0  0  0  0  0  0  0  0  0  0
   -2.1961    1.1469   -0.8849 H   0  0  0  0  0  0  0  0  0  0  0  0
   -1.6173    2.1409    0.4616 H   0  0  0  0  0  0  0  0  0  0  0  0
   -2.3395   -0.8333   -0.8977 H   0  0  0  0  0  0  0  0  0  0  0  0
   -1.4115   -2.0098    0.1049 H   0  0  0  0  0  0  0  0  0  0  0  0
   -2.6883   -1.0238    0.9081 H   0  0  0  0  0  0  0  0  0  0  0  0
   -1.6678    0.9590    2.2736 H   0  0  0  0  0  0  0  0  0  0  0  0
   -0.9767   -0.7603    2.3752 H   0  0  0  0  0  0  0  0  0  0  0  0
    0.1339    0.6448    2.2047 H   0  0  0  0  0  0  0  0  0  0  0  0
  1  2  2  0
  2  3  1  0
  3  4  2  0
  4  5  1  0
  4  6  1  0
  6  7  2  0
  7  8  1  0
  8  9  1  0
  9 10  1  0
  9 11  1  0
  9  3  1  0
  2 12  1  0
  5 13  1  0
  5 14  1  0
  5 15  1  0
  6 16  1  0
  7 17  1  0
  8 18  1  0
  8 19  1  0
 10 20  1  0
 10 21  1  0
 10 22  1  0
 11 23  1  0
 11 24  1  0
 11 25  1  0
M  END
>  <Ligand ID>  (1) 
LIG0000770

>  <Ligand>  (1) 
Safranal

>  <SMILES>  (1) 
O=CC1=C(C)C=CCC1(C)C

>  <CID>  (1) 
61041.0

>  <ChEMBL ID>  (1) 
nan

>  <InChiKey>  (1) 
SGAWOGXMMPSZPB-UHFFFAOYSA-N

>  <InChi>  (1) 
InChI=1S/C10H14O/c1-8-5-4-6-10(2,3)9(8)7-11/h4-5,7H,6H2,1-3H3

>  <IUPAC Name>  (1) 
2,6,6-trimethylcyclohexa-1,3-diene-1-carbaldehyde

$$$$
