
     RDKit          3D

 48 51  0  0  0  0  0  0  0  0999 V2000
    0.8836   -2.0326   -0.8836 O   0  0  0  0  0  0  0  0  0  0  0  0
    0.3720   -0.8567   -0.6542 C   0  0  0  0  0  0  0  0  0  0  0  0
   -0.8974   -0.7519   -0.0387 N   0  0  0  0  0  0  0  0  0  0  0  0
   -1.6167    0.4355    0.2603 C   0  0  0  0  0  0  0  0  0  0  0  0
   -0.7782    1.4029    1.0303 C   0  0  0  0  0  0  0  0  0  0  0  0
   -1.7430    2.3814    1.6766 C   0  0  0  0  0  0  0  0  0  0  0  0
   -2.5382    3.0762    0.6313 C   0  0  0  0  0  0  0  0  0  0  0  0
   -3.1491    2.1951   -0.4196 C   0  0  0  0  0  0  0  0  0  0  0  0
   -2.1091    1.2104   -0.9710 C   0  0  0  0  0  0  0  0  0  0  0  0
   -1.5323   -2.0186    0.3326 C   0  0  0  0  0  0  0  0  0  0  0  0
   -1.8440   -2.9256   -0.8149 C   0  0  0  0  0  0  0  0  0  0  0  0
   -2.0559   -4.2383   -0.0127 C   0  0  0  0  0  0  0  0  0  0  0  0
   -0.7681   -4.2329    0.7888 C   0  0  0  0  0  0  0  0  0  0  0  0
   -0.6854   -2.8083    1.2812 C   0  0  0  0  0  0  0  0  0  0  0  0
    1.2433    0.2101   -1.0897 C   0  0  0  0  0  0  0  0  0  0  0  0
    1.1998    1.1484   -2.0245 N   0  0  0  0  0  0  0  0  0  0  0  0
    2.3085    1.8722   -2.0232 O   0  0  0  0  0  0  0  0  0  0  0  0
    3.1218    1.4380   -1.0882 C   0  0  0  0  0  0  0  0  0  0  0  0
    2.5002    0.3962   -0.4724 C   0  0  0  0  0  0  0  0  0  0  0  0
    4.4771    1.9255   -0.7064 C   0  0  0  0  0  0  0  0  0  0  0  0
    5.4539    0.9747   -0.1210 C   0  0  0  0  0  0  0  0  0  0  0  0
    4.8288    2.0779    0.7531 C   0  0  0  0  0  0  0  0  0  0  0  0
   -2.5708    0.1608    0.8304 H   0  0  0  0  0  0  0  0  0  0  0  0
   -0.1449    0.9196    1.8116 H   0  0  0  0  0  0  0  0  0  0  0  0
   -0.1558    1.9740    0.2810 H   0  0  0  0  0  0  0  0  0  0  0  0
   -2.4204    1.8075    2.3380 H   0  0  0  0  0  0  0  0  0  0  0  0
   -1.1649    3.1696    2.2265 H   0  0  0  0  0  0  0  0  0  0  0  0
   -3.4009    3.5732    1.1532 H   0  0  0  0  0  0  0  0  0  0  0  0
   -1.9727    3.9151    0.1604 H   0  0  0  0  0  0  0  0  0  0  0  0
   -4.0261    1.6676   -0.0194 H   0  0  0  0  0  0  0  0  0  0  0  0
   -3.4296    2.8369   -1.2798 H   0  0  0  0  0  0  0  0  0  0  0  0
   -1.2867    1.8482   -1.3075 H   0  0  0  0  0  0  0  0  0  0  0  0
   -2.5854    0.5816   -1.7093 H   0  0  0  0  0  0  0  0  0  0  0  0
   -2.5185   -1.7615    0.7951 H   0  0  0  0  0  0  0  0  0  0  0  0
   -0.9697   -3.1719   -1.4467 H   0  0  0  0  0  0  0  0  0  0  0  0
   -2.7346   -2.6773   -1.3858 H   0  0  0  0  0  0  0  0  0  0  0  0
   -2.9071   -4.1235    0.6916 H   0  0  0  0  0  0  0  0  0  0  0  0
   -2.1498   -5.1021   -0.6882 H   0  0  0  0  0  0  0  0  0  0  0  0
   -0.7972   -4.9656    1.6237 H   0  0  0  0  0  0  0  0  0  0  0  0
    0.1062   -4.4170    0.1231 H   0  0  0  0  0  0  0  0  0  0  0  0
   -1.1460   -2.7538    2.3030 H   0  0  0  0  0  0  0  0  0  0  0  0
    0.3863   -2.5056    1.3121 H   0  0  0  0  0  0  0  0  0  0  0  0
    2.9121   -0.1838    0.3498 H   0  0  0  0  0  0  0  0  0  0  0  0
    4.9000    2.7382   -1.3292 H   0  0  0  0  0  0  0  0  0  0  0  0
    5.1806   -0.0799    0.1345 H   0  0  0  0  0  0  0  0  0  0  0  0
    6.5334    1.0916   -0.3393 H   0  0  0  0  0  0  0  0  0  0  0  0
    5.5143    2.8900    1.0830 H   0  0  0  0  0  0  0  0  0  0  0  0
    4.1766    1.6886    1.5485 H   0  0  0  0  0  0  0  0  0  0  0  0
  1  2  2  0
  2  3  1  0
  3  4  1  0
  4  5  1  0
  5  6  1  0
  6  7  1  0
  7  8  1  0
  8  9  1  0
  3 10  1  0
 10 11  1  0
 11 12  1  0
 12 13  1  0
 13 14  1  0
  2 15  1  0
 15 16  2  0
 16 17  1  0
 17 18  1  0
 18 19  2  0
 18 20  1  0
 20 21  1  0
 21 22  1  0
  9  4  1  0
 14 10  1  0
 19 15  1  0
 22 20  1  0
  4 23  1  0
  5 24  1  0
  5 25  1  0
  6 26  1  0
  6 27  1  0
  7 28  1  0
  7 29  1  0
  8 30  1  0
  8 31  1  0
  9 32  1  0
  9 33  1  0
 10 34  1  0
 11 35  1  0
 11 36  1  0
 12 37  1  0
 12 38  1  0
 13 39  1  0
 13 40  1  0
 14 41  1  0
 14 42  1  0
 19 43  1  0
 20 44  1  0
 21 45  1  0
 21 46  1  0
 22 47  1  0
 22 48  1  0
M  END
>  <Ligand ID>  (1) 
LIG0001360

>  <Ligand>  (1) 
CHEMBL1972130

>  <SMILES>  (1) 
O=C(N(C1CCCCC1)C1CCCC1)c1noc(c1)C1CC1

>  <CID>  (1) 
25110492.0

>  <ChEMBL ID>  (1) 
nan

>  <InChiKey>  (1) 
PUZZVOMIHNMZOZ-UHFFFAOYSA-N

>  <InChi>  (1) 
InChI=1S/C18H26N2O2/c21-18(16-12-17(22-19-16)13-10-11-13)20(15-8-4-5-9-15)14-6-2-1-3-7-14/h12-15H,1-11H2

>  <IUPAC Name>  (1) 
N-cyclohexyl-N-cyclopentyl-5-cyclopropyl-1,2-oxazole-3-carboxamide

$$$$
