
     RDKit          3D

 24 23  0  0  0  0  0  0  0  0999 V2000
   -2.3819   -1.0666   -0.3634 C   0  0  0  0  0  0  0  0  0  0  0  0
   -2.0154    0.3835   -0.5049 C   0  0  0  0  0  0  0  0  0  0  0  0
   -0.5532    0.6502   -0.6134 C   0  0  0  0  0  0  0  0  0  0  0  0
    0.2309    0.1948    0.5470 C   0  0  0  0  0  0  0  0  0  0  0  0
   -0.2721   -0.3456    1.4964 O   0  0  0  0  0  0  0  0  0  0  0  0
    1.7000    0.4171    0.5330 C   0  0  0  0  0  0  0  0  0  0  0  0
    2.4575   -0.8145    0.1833 C   0  0  0  0  0  0  0  0  0  0  0  0
    1.9283   -1.8852   -0.0639 O   0  0  0  0  0  0  0  0  0  0  0  0
    3.9272   -0.7411    0.1319 C   0  0  0  0  0  0  0  0  0  0  0  0
   -2.6974    1.1500    0.5864 C   0  0  0  0  0  0  0  0  0  0  0  0
   -2.0181   -1.6998   -1.1939 H   0  0  0  0  0  0  0  0  0  0  0  0
   -2.1371   -1.4587    0.6314 H   0  0  0  0  0  0  0  0  0  0  0  0
   -3.5072   -1.0939   -0.4152 H   0  0  0  0  0  0  0  0  0  0  0  0
   -2.4668    0.7447   -1.4757 H   0  0  0  0  0  0  0  0  0  0  0  0
   -0.4215    1.7261   -0.7954 H   0  0  0  0  0  0  0  0  0  0  0  0
   -0.1905    0.0381   -1.4894 H   0  0  0  0  0  0  0  0  0  0  0  0
    2.0017    1.2243   -0.1673 H   0  0  0  0  0  0  0  0  0  0  0  0
    2.0644    0.7196    1.5515 H   0  0  0  0  0  0  0  0  0  0  0  0
    4.3494   -0.9691   -0.8805 H   0  0  0  0  0  0  0  0  0  0  0  0
    4.3063    0.2747    0.3737 H   0  0  0  0  0  0  0  0  0  0  0  0
    4.4457   -1.4388    0.8167 H   0  0  0  0  0  0  0  0  0  0  0  0
   -2.6995    0.5933    1.5373 H   0  0  0  0  0  0  0  0  0  0  0  0
   -3.7847    1.2361    0.2896 H   0  0  0  0  0  0  0  0  0  0  0  0
   -2.2660    2.1607    0.6335 H   0  0  0  0  0  0  0  0  0  0  0  0
  1  2  1  0
  2  3  1  0
  3  4  1  0
  4  5  2  0
  4  6  1  0
  6  7  1  0
  7  8  2  0
  7  9  1  0
  2 10  1  0
  1 11  1  0
  1 12  1  0
  1 13  1  0
  2 14  1  0
  3 15  1  0
  3 16  1  0
  6 17  1  0
  6 18  1  0
  9 19  1  0
  9 20  1  0
  9 21  1  0
 10 22  1  0
 10 23  1  0
 10 24  1  0
M  END
>  <Ligand ID>  (1) 
LIG0004996

>  <Ligand>  (1) 
6-Methyl-2,4-heptanedione

>  <SMILES>  (1) 
CC(CC(=O)CC(=O)C)C

>  <CID>  (1) 
76354.0

>  <ChEMBL ID>  (1) 
nan

>  <InChiKey>  (1) 
IGMOYJSFRIASIE-UHFFFAOYSA-N

>  <InChi>  (1) 
InChI=1S/C8H14O2/c1-6(2)4-8(10)5-7(3)9/h6H,4-5H2,1-3H3

>  <IUPAC Name>  (1) 
6-methylheptane-2,4-dione

$$$$
