
     RDKit          3D

 50 53  0  0  0  0  0  0  0  0999 V2000
   -2.3424   -2.0708    0.3857 O   0  0  0  0  0  0  0  0  0  0  0  0
   -1.7748   -0.9801    1.0248 C   0  0  0  0  0  0  0  0  0  0  0  0
   -2.1474    0.3359    0.4050 C   0  0  0  0  0  0  0  0  0  0  0  0
   -3.4049    0.2640   -0.2752 N   0  0  0  0  0  0  0  0  0  0  0  0
   -3.6805    0.0983   -1.5815 C   0  0  0  0  0  0  0  0  0  0  0  0
   -5.0012    0.0868   -1.8023 N   0  0  0  0  0  0  0  0  0  0  0  0
   -5.6083    0.2484   -0.6161 C   0  0  0  0  0  0  0  0  0  0  0  0
   -4.6111    0.3582    0.3306 C   0  0  0  0  0  0  0  0  0  0  0  0
   -4.9317    0.5307    1.6294 N   0  0  0  0  0  0  0  0  0  0  0  0
   -6.2304    0.5916    1.9694 C   0  0  0  0  0  0  0  0  0  0  0  0
   -6.6087    0.8159    3.6616 Cl  0  0  0  0  0  0  0  0  0  0  0  0
   -7.2229    0.4865    1.0591 N   0  0  0  0  0  0  0  0  0  0  0  0
   -6.9504    0.3120   -0.2600 C   0  0  0  0  0  0  0  0  0  0  0  0
   -7.9920    0.1993   -1.2340 N   0  0  0  0  0  0  0  0  0  0  0  0
   -1.0013    0.7419   -0.4761 C   0  0  1  0  0  0  0  0  0  0  0  0
    0.1231   -0.1130   -0.0850 C   0  0  1  0  0  0  0  0  0  0  0  0
   -0.2663   -1.0319    1.0268 C   0  0  0  0  0  0  0  0  0  0  0  0
    0.1909   -2.3159    0.6568 O   0  0  0  0  0  0  0  0  0  0  0  0
   -0.5061   -0.2531   -1.4402 C   0  0  0  0  0  0  0  0  0  0  0  0
    1.5508    0.3736   -0.0912 C   0  0  0  0  0  0  0  0  0  0  0  0
    1.7607    1.4456    0.7416 O   0  0  0  0  0  0  0  0  0  0  0  0
    3.3718    1.9519    0.7018 P   0  0  0  0  0  0  0  0  0  0  0  0
    3.3940    3.2949    1.4377 O   0  0  0  0  0  0  0  0  0  0  0  0
    4.3823    0.9245    1.5779 O   0  0  0  0  0  0  0  0  0  0  0  0
    4.9190   -0.3982    0.7132 P   0  0  0  0  0  0  0  0  0  0  0  0
    4.6806   -0.3066   -0.7702 O   0  0  0  0  0  0  0  0  0  0  0  0
    6.6062   -0.4918    0.9398 O   0  0  0  0  0  0  0  0  0  0  0  0
    7.4294   -0.1818   -0.5048 P   0  0  0  0  0  0  0  0  0  0  0  0
    7.8518   -1.5002   -1.1588 O   0  0  0  0  0  0  0  0  0  0  0  0
    6.5154    0.7486   -1.5822 O   0  0  0  0  0  0  0  0  0  0  0  0
    8.8720    0.6190   -0.0801 O   0  0  0  0  0  0  0  0  0  0  0  0
    4.2925   -1.8542    1.3424 O   0  0  0  0  0  0  0  0  0  0  0  0
    3.9068    2.2580   -0.8516 O   0  0  0  0  0  0  0  0  0  0  0  0
   -1.6811   -2.7583    0.1018 H   0  0  0  0  0  0  0  0  0  0  0  0
   -2.0811   -1.0481    2.0999 H   0  0  0  0  0  0  0  0  0  0  0  0
   -2.2365    1.0820    1.2470 H   0  0  0  0  0  0  0  0  0  0  0  0
   -2.9389   -0.0127   -2.3641 H   0  0  0  0  0  0  0  0  0  0  0  0
   -8.8689   -0.2891   -0.9702 H   0  0  0  0  0  0  0  0  0  0  0  0
   -7.8837    0.5977   -2.1981 H   0  0  0  0  0  0  0  0  0  0  0  0
   -0.8985    1.8213   -0.7244 H   0  0  0  0  0  0  0  0  0  0  0  0
    0.1972   -0.6836    1.9549 H   0  0  0  0  0  0  0  0  0  0  0  0
   -0.0436   -2.9964    1.3213 H   0  0  0  0  0  0  0  0  0  0  0  0
    0.0679    0.0975   -2.3253 H   0  0  0  0  0  0  0  0  0  0  0  0
   -0.9946   -1.2257   -1.6184 H   0  0  0  0  0  0  0  0  0  0  0  0
    2.1535   -0.4664    0.3126 H   0  0  0  0  0  0  0  0  0  0  0  0
    1.9134    0.6003   -1.1140 H   0  0  0  0  0  0  0  0  0  0  0  0
    6.3241    0.1933   -2.3781 H   0  0  0  0  0  0  0  0  0  0  0  0
    9.2471    0.1107    0.6877 H   0  0  0  0  0  0  0  0  0  0  0  0
    4.5344   -1.8416    2.3201 H   0  0  0  0  0  0  0  0  0  0  0  0
    3.6218    1.6309   -1.5369 H   0  0  0  0  0  0  0  0  0  0  0  0
  1  2  1  0
  2  3  1  0
  3  4  1  0
  4  5  1  0
  5  6  2  0
  6  7  1  0
  7  8  2  0
  8  9  1  0
  9 10  2  0
 10 11  1  0
 10 12  1  0
 12 13  2  0
 13 14  1  0
  3 15  1  0
 15 16  1  0
 16 17  1  0
 17 18  1  0
 16 19  1  0
 16 20  1  6
 20 21  1  0
 21 22  1  0
 22 23  2  0
 22 24  1  0
 24 25  1  0
 25 26  2  0
 25 27  1  0
 27 28  1  0
 28 29  2  0
 28 30  1  0
 28 31  1  0
 25 32  1  0
 22 33  1  0
 17  2  1  0
  8  4  1  0
 19 15  1  0
 13  7  1  0
  1 34  1  0
  2 35  1  0
  3 36  1  0
  5 37  1  0
 14 38  1  0
 14 39  1  0
 15 40  1  6
 17 41  1  0
 18 42  1  0
 19 43  1  0
 19 44  1  0
 20 45  1  0
 20 46  1  0
 30 47  1  0
 31 48  1  0
 32 49  1  0
 33 50  1  0
M  END
>  <Ligand ID>  (1) 
LIG0005702

>  <Ligand>  (1) 
CHEMBL2373323

>  <SMILES>  (1) 
OC1C(n2cnc3c2nc(Cl)nc3N)[C@H]2[C@@](C1O)(C2)COP(=O)(OP(=O)(OP(=O)(O)O)O)O

>  <CID>  (1) 
73348762.0

>  <ChEMBL ID>  (1) 
nan

>  <InChiKey>  (1) 
XJWJKVWELFSXSN-LXHPTIOYSA-N

>  <InChi>  (1) 
InChI=1S/C12H17ClN5O12P3/c13-11-16-9(14)5-10(17-11)18(3-15-5)6-4-1-12(4,8(20)7(6)19)2-28-32(24,25)30-33(26,27)29-31(21,22)23/h3-4,6-8,19-20H,1-2H2,(H,24,25)(H,26,27)(H2,14,16,17)(H2,21,22,23)/t4-,6?,7?,8?,12+/m0/s1

>  <IUPAC Name>  (1) 
[[(1S,5R)-4-(6-amino-2-chloropurin-9-yl)-2,3-dihydroxy-1-bicyclo[3.1.0]hexanyl]methoxy-hydroxyphosphoryl] phosphono hydrogen phosphate

$$$$
