
     RDKit          3D

 19 19  0  0  0  0  0  0  0  0999 V2000
    2.5079   -0.5462    0.1638 C   0  0  0  0  0  0  0  0  0  0  0  0
    1.1434    0.0897    0.1296 C   0  0  0  0  0  0  0  0  0  0  0  0
    1.0848    1.4625   -0.0180 C   0  0  0  0  0  0  0  0  0  0  0  0
   -0.1360    2.1117   -0.0573 C   0  0  0  0  0  0  0  0  0  0  0  0
   -1.2777    1.3712    0.0524 C   0  0  0  0  0  0  0  0  0  0  0  0
   -1.2378    0.0065    0.1997 C   0  0  0  0  0  0  0  0  0  0  0  0
   -0.0091   -0.6613    0.2407 C   0  0  0  0  0  0  0  0  0  0  0  0
    0.0601   -2.0412    0.3888 O   0  0  0  0  0  0  0  0  0  0  0  0
   -2.4430   -0.8486    0.3234 C   0  0  0  0  0  0  0  0  0  0  0  0
    2.3529   -1.5817    0.5243 H   0  0  0  0  0  0  0  0  0  0  0  0
    3.2167    0.0514    0.7510 H   0  0  0  0  0  0  0  0  0  0  0  0
    2.8988   -0.5903   -0.8866 H   0  0  0  0  0  0  0  0  0  0  0  0
    1.9846    2.0792   -0.1080 H   0  0  0  0  0  0  0  0  0  0  0  0
   -0.2108    3.1958   -0.1731 H   0  0  0  0  0  0  0  0  0  0  0  0
   -2.2307    1.8447    0.0254 H   0  0  0  0  0  0  0  0  0  0  0  0
    0.3595   -2.5805   -0.4041 H   0  0  0  0  0  0  0  0  0  0  0  0
   -2.3326   -1.4460    1.2659 H   0  0  0  0  0  0  0  0  0  0  0  0
   -3.3784   -0.2964    0.2451 H   0  0  0  0  0  0  0  0  0  0  0  0
   -2.3526   -1.6203   -0.4957 H   0  0  0  0  0  0  0  0  0  0  0  0
  1  2  1  0
  2  3  2  0
  3  4  1  0
  4  5  2  0
  5  6  1  0
  6  7  2  0
  7  8  1  0
  6  9  1  0
  7  2  1  0
  1 10  1  0
  1 11  1  0
  1 12  1  0
  3 13  1  0
  4 14  1  0
  5 15  1  0
  8 16  1  0
  9 17  1  0
  9 18  1  0
  9 19  1  0
M  END
>  <Ligand ID>  (1) 
LIG0000612

>  <Ligand>  (1) 
2,6-Dimethylphenol

>  <SMILES>  (1) 
Cc1cccc(c1O)C

>  <CID>  (1) 
11335.0

>  <ChEMBL ID>  (1) 
nan

>  <InChiKey>  (1) 
NXXYKOUNUYWIHA-UHFFFAOYSA-N

>  <InChi>  (1) 
InChI=1S/C8H10O/c1-6-4-3-5-7(2)8(6)9/h3-5,9H,1-2H3

>  <IUPAC Name>  (1) 
2,6-dimethylphenol

$$$$
