
     RDKit          3D

 22 22  0  0  0  0  0  0  0  0999 V2000
   -2.1364    1.7996   -1.6946 O   0  0  0  0  0  0  0  0  0  0  0  0
   -1.1303    1.1461   -0.9393 C   0  0  0  0  0  0  0  0  0  0  0  0
   -0.0222    1.7557   -0.9449 O   0  0  0  0  0  0  0  0  0  0  0  0
   -1.3953   -0.1098   -0.2389 C   0  0  2  0  0  0  0  0  0  0  0  0
   -2.8034   -0.5497   -0.4260 N   0  0  0  0  0  0  0  0  0  0  0  0
   -0.9782   -0.1503    1.2341 C   0  0  0  0  0  0  0  0  0  0  0  0
   -0.4374   -1.0971    0.2131 C   0  0  2  0  0  0  0  0  0  0  0  0
    0.9831   -1.2749   -0.0966 C   0  0  0  0  0  0  0  0  0  0  0  0
    2.1904   -0.0596    0.2595 P   0  0  0  0  0  0  0  0  0  0  0  0
    3.4323   -0.7790    0.8399 O   0  0  0  0  0  0  0  0  0  0  0  0
    1.8188    1.0914    1.4080 O   0  0  0  0  0  0  0  0  0  0  0  0
    2.8392    0.7214   -1.1266 O   0  0  0  0  0  0  0  0  0  0  0  0
   -1.8901    2.5309   -2.3722 H   0  0  0  0  0  0  0  0  0  0  0  0
   -2.8032   -1.5910   -0.4668 H   0  0  0  0  0  0  0  0  0  0  0  0
   -3.3496   -0.2253    0.3994 H   0  0  0  0  0  0  0  0  0  0  0  0
   -0.4351    0.7008    1.6355 H   0  0  0  0  0  0  0  0  0  0  0  0
   -1.7347   -0.5259    1.9857 H   0  0  0  0  0  0  0  0  0  0  0  0
   -0.9199   -2.1327    0.3335 H   0  0  0  0  0  0  0  0  0  0  0  0
    1.0460   -1.5032   -1.2083 H   0  0  0  0  0  0  0  0  0  0  0  0
    1.3281   -2.2629    0.3479 H   0  0  0  0  0  0  0  0  0  0  0  0
    2.6410    1.4672    1.8104 H   0  0  0  0  0  0  0  0  0  0  0  0
    3.7568    1.0482   -0.9528 H   0  0  0  0  0  0  0  0  0  0  0  0
  1  2  1  0
  2  3  2  0
  2  4  1  0
  4  5  1  1
  4  6  1  0
  6  7  1  0
  7  8  1  0
  8  9  1  0
  9 10  2  0
  9 11  1  0
  9 12  1  0
  7  4  1  0
  1 13  1  0
  5 14  1  0
  5 15  1  0
  6 16  1  0
  6 17  1  0
  7 18  1  1
  8 19  1  0
  8 20  1  0
 11 21  1  0
 12 22  1  0
M  END
>  <Ligand ID>  (1) 
LIG0001178

>  <Ligand>  (1) 
CHEMBL227288

>  <SMILES>  (1) 
OC(=O)[C@]1(N)C[C@@H]1CP(=O)(O)O

>  <CID>  (1) 
16747848.0

>  <ChEMBL ID>  (1) 
nan

>  <InChiKey>  (1) 
RACNCOSUCJNQDH-WUJLRWPWSA-N

>  <InChi>  (1) 
InChI=1S/C5H10NO5P/c6-5(4(7)8)1-3(5)2-12(9,10)11/h3H,1-2,6H2,(H,7,8)(H2,9,10,11)/t3-,5+/m1/s1

>  <IUPAC Name>  (1) 
(1S,2S)-1-amino-2-(phosphonomethyl)cyclopropane-1-carboxylic acid

$$$$
