
     RDKit          3D

113117  0  0  0  0  0  0  0  0999 V2000
    2.3364   -6.2051    2.7375 N   0  0  0  0  0  0  0  0  0  0  0  0
    2.6696   -6.6247    1.4279 C   0  0  0  0  0  0  0  0  0  0  0  0
    3.0634   -5.9416    0.4652 N   0  0  0  0  0  0  0  0  0  0  0  0
    3.3251   -4.5500    0.2918 C   0  0  0  0  0  0  0  0  0  0  0  0
    4.0008   -3.9755    1.4844 C   0  0  0  0  0  0  0  0  0  0  0  0
    4.3578   -2.5331    1.4308 C   0  0  0  0  0  0  0  0  0  0  0  0
    3.2699   -1.5393    1.2779 C   0  0  1  0  0  0  0  0  0  0  0  0
    3.9306   -0.1753    1.2698 C   0  0  0  0  0  0  0  0  0  0  0  0
    4.6186    0.0916    2.2891 O   0  0  0  0  0  0  0  0  0  0  0  0
    3.7676    0.7142    0.1775 N   0  0  0  0  0  0  0  0  0  0  0  0
    4.4334    1.9973    0.2660 C   0  0  2  0  0  0  0  0  0  0  0  0
    3.4224    3.0519    0.0343 C   0  0  0  0  0  0  0  0  0  0  0  0
    3.7660    4.2584    0.0752 O   0  0  0  0  0  0  0  0  0  0  0  0
    2.0535    2.7331   -0.2376 N   0  0  0  0  0  0  0  0  0  0  0  0
    5.6123    2.0911   -0.6869 C   0  0  0  0  0  0  0  0  0  0  0  0
    6.2746    3.4262   -0.5699 C   0  0  0  0  0  0  0  0  0  0  0  0
    6.2238    4.5019   -1.4283 C   0  0  0  0  0  0  0  0  0  0  0  0
    6.9709    5.5124   -0.9457 N   0  0  0  0  0  0  0  0  0  0  0  0
    7.5231    5.1153    0.2365 C   0  0  0  0  0  0  0  0  0  0  0  0
    7.1032    3.8291    0.4838 C   0  0  0  0  0  0  0  0  0  0  0  0
    7.5338    3.1908    1.6468 C   0  0  0  0  0  0  0  0  0  0  0  0
    8.3676    3.8326    2.5401 C   0  0  0  0  0  0  0  0  0  0  0  0
    8.7831    5.1383    2.2713 C   0  0  0  0  0  0  0  0  0  0  0  0
    8.3657    5.7831    1.1249 C   0  0  0  0  0  0  0  0  0  0  0  0
    2.4523   -1.6791    0.0896 N   0  0  0  0  0  0  0  0  0  0  0  0
    1.0390   -1.6358    0.2879 C   0  0  0  0  0  0  0  0  0  0  0  0
    0.5026   -1.4899    1.4136 O   0  0  0  0  0  0  0  0  0  0  0  0
    0.0963   -1.7705   -0.9115 C   0  0  1  0  0  0  0  0  0  0  0  0
   -1.2123   -1.7508   -0.3809 N   0  0  0  0  0  0  0  0  0  0  0  0
   -2.0795   -0.6590   -0.1790 C   0  0  0  0  0  0  0  0  0  0  0  0
   -1.7592    0.5167   -0.4882 O   0  0  0  0  0  0  0  0  0  0  0  0
   -3.4003   -0.8713    0.4158 C   0  0  1  0  0  0  0  0  0  0  0  0
   -4.1818    0.3592    0.4936 N   0  0  0  0  0  0  0  0  0  0  0  0
   -4.5900    0.8885    1.7643 C   0  0  0  0  0  0  0  0  0  0  0  0
   -4.2243    0.2200    2.7710 O   0  0  0  0  0  0  0  0  0  0  0  0
   -5.3784    2.1241    1.8402 C   0  0  2  0  0  0  0  0  0  0  0  0
   -6.7608    1.8213    2.4213 C   0  0  0  0  0  0  0  0  0  0  0  0
   -6.6750    1.2516    3.7671 C   0  0  0  0  0  0  0  0  0  0  0  0
   -6.6599    1.9266    4.9324 N   0  0  0  0  0  0  0  0  0  0  0  0
   -6.5810    1.0653    5.9615 C   0  0  0  0  0  0  0  0  0  0  0  0
   -6.5436   -0.1987    5.4637 N   0  0  0  0  0  0  0  0  0  0  0  0
   -6.6010   -0.0922    4.1200 C   0  0  0  0  0  0  0  0  0  0  0  0
   -5.6148    2.7047    0.5253 N   0  0  0  0  0  0  0  0  0  0  0  0
   -5.2052    4.0637    0.3074 C   0  0  0  0  0  0  0  0  0  0  0  0
   -4.6717    4.6412    1.2793 O   0  0  0  0  0  0  0  0  0  0  0  0
   -5.4245    4.7050   -1.0164 C   0  0  0  0  0  0  0  0  0  0  0  0
   -4.2606   -1.9403   -0.1639 C   0  0  0  0  0  0  0  0  0  0  0  0
   -4.6368   -1.7973   -1.5790 C   0  0  0  0  0  0  0  0  0  0  0  0
   -3.9490   -2.3572   -2.6364 C   0  0  0  0  0  0  0  0  0  0  0  0
   -4.4608   -2.1341   -3.8941 C   0  0  0  0  0  0  0  0  0  0  0  0
   -5.5880   -1.4050   -4.1592 C   0  0  0  0  0  0  0  0  0  0  0  0
   -6.2687   -0.8503   -3.1153 C   0  0  0  0  0  0  0  0  0  0  0  0
   -5.7897   -1.0505   -1.8432 C   0  0  0  0  0  0  0  0  0  0  0  0
    0.5112   -0.8355   -1.9773 C   0  0  0  0  0  0  0  0  0  0  0  0
   -0.2746   -0.9182   -3.1924 C   0  0  0  0  0  0  0  0  0  0  0  0
    0.0371   -1.9746   -4.0746 C   0  0  0  0  0  0  0  0  0  0  0  0
   -0.5947   -2.1242   -5.2834 C   0  0  0  0  0  0  0  0  0  0  0  0
   -1.5699   -1.2542   -5.7093 C   0  0  0  0  0  0  0  0  0  0  0  0
   -1.8930   -0.2130   -4.8646 C   0  0  0  0  0  0  0  0  0  0  0  0
   -1.2474   -0.0644   -3.6353 C   0  0  0  0  0  0  0  0  0  0  0  0
    2.5223   -8.0532    1.1982 N   0  0  0  0  0  0  0  0  0  0  0  0
    1.4324   -5.6699    2.8411 H   0  0  0  0  0  0  0  0  0  0  0  0
    2.9425   -6.4051    3.5755 H   0  0  0  0  0  0  0  0  0  0  0  0
    3.9036   -4.3721   -0.6540 H   0  0  0  0  0  0  0  0  0  0  0  0
    2.3222   -4.0882    0.0606 H   0  0  0  0  0  0  0  0  0  0  0  0
    4.9584   -4.5666    1.6119 H   0  0  0  0  0  0  0  0  0  0  0  0
    3.4139   -4.2351    2.3940 H   0  0  0  0  0  0  0  0  0  0  0  0
    5.1034   -2.4399    0.5763 H   0  0  0  0  0  0  0  0  0  0  0  0
    5.0152   -2.3077    2.3267 H   0  0  0  0  0  0  0  0  0  0  0  0
    2.5818   -1.6013    2.1521 H   0  0  0  0  0  0  0  0  0  0  0  0
    3.1938    0.4487   -0.6463 H   0  0  0  0  0  0  0  0  0  0  0  0
    4.8799    2.1569    1.2773 H   0  0  0  0  0  0  0  0  0  0  0  0
    1.8636    2.4457   -1.2437 H   0  0  0  0  0  0  0  0  0  0  0  0
    1.3031    2.7781    0.4849 H   0  0  0  0  0  0  0  0  0  0  0  0
    5.2660    1.9993   -1.7310 H   0  0  0  0  0  0  0  0  0  0  0  0
    6.3378    1.3186   -0.4478 H   0  0  0  0  0  0  0  0  0  0  0  0
    5.6696    4.5412   -2.3543 H   0  0  0  0  0  0  0  0  0  0  0  0
    7.0999    6.4473   -1.4125 H   0  0  0  0  0  0  0  0  0  0  0  0
    7.2098    2.1802    1.8522 H   0  0  0  0  0  0  0  0  0  0  0  0
    8.6760    3.3036    3.4270 H   0  0  0  0  0  0  0  0  0  0  0  0
    9.4413    5.6034    3.0063 H   0  0  0  0  0  0  0  0  0  0  0  0
    8.7115    6.7892    0.9608 H   0  0  0  0  0  0  0  0  0  0  0  0
    2.8789   -1.8041   -0.8509 H   0  0  0  0  0  0  0  0  0  0  0  0
    0.2928   -2.7866   -1.3245 H   0  0  0  0  0  0  0  0  0  0  0  0
   -1.6206   -2.7026   -0.0806 H   0  0  0  0  0  0  0  0  0  0  0  0
   -3.1853   -1.2290    1.4854 H   0  0  0  0  0  0  0  0  0  0  0  0
   -4.4181    0.8162   -0.4122 H   0  0  0  0  0  0  0  0  0  0  0  0
   -4.8907    2.8270    2.5227 H   0  0  0  0  0  0  0  0  0  0  0  0
   -7.3852    1.2210    1.7356 H   0  0  0  0  0  0  0  0  0  0  0  0
   -7.2670    2.8125    2.4864 H   0  0  0  0  0  0  0  0  0  0  0  0
   -6.7048    2.9657    4.9904 H   0  0  0  0  0  0  0  0  0  0  0  0
   -6.5488    1.2619    7.0236 H   0  0  0  0  0  0  0  0  0  0  0  0
   -6.5892   -0.9623    3.4644 H   0  0  0  0  0  0  0  0  0  0  0  0
   -6.0694    2.1258   -0.2124 H   0  0  0  0  0  0  0  0  0  0  0  0
   -4.4995    4.6157   -1.6274 H   0  0  0  0  0  0  0  0  0  0  0  0
   -6.3180    4.2592   -1.5132 H   0  0  0  0  0  0  0  0  0  0  0  0
   -5.6930    5.7638   -0.8233 H   0  0  0  0  0  0  0  0  0  0  0  0
   -3.8033   -2.9640   -0.0387 H   0  0  0  0  0  0  0  0  0  0  0  0
   -5.2293   -2.0482    0.4212 H   0  0  0  0  0  0  0  0  0  0  0  0
   -3.0619   -2.9307   -2.4295 H   0  0  0  0  0  0  0  0  0  0  0  0
   -3.9417   -2.5663   -4.7378 H   0  0  0  0  0  0  0  0  0  0  0  0
   -5.9855   -1.2340   -5.1577 H   0  0  0  0  0  0  0  0  0  0  0  0
   -7.1753   -0.2577   -3.2710 H   0  0  0  0  0  0  0  0  0  0  0  0
   -6.3491   -0.5981   -1.0356 H   0  0  0  0  0  0  0  0  0  0  0  0
    1.5678   -1.1474   -2.2576 H   0  0  0  0  0  0  0  0  0  0  0  0
    0.6712    0.2120   -1.6171 H   0  0  0  0  0  0  0  0  0  0  0  0
    0.7961   -2.7077   -3.8141 H   0  0  0  0  0  0  0  0  0  0  0  0
   -0.3087   -2.9698   -5.9295 H   0  0  0  0  0  0  0  0  0  0  0  0
   -2.0514   -1.3923   -6.6629 H   0  0  0  0  0  0  0  0  0  0  0  0
   -2.6624    0.4842   -5.1848 H   0  0  0  0  0  0  0  0  0  0  0  0
   -1.5475    0.7774   -3.0561 H   0  0  0  0  0  0  0  0  0  0  0  0
    3.3500   -8.6671    1.3574 H   0  0  0  0  0  0  0  0  0  0  0  0
    1.5853   -8.3923    0.8825 H   0  0  0  0  0  0  0  0  0  0  0  0
  1  2  1  0
  2  3  2  3
  3  4  1  0
  4  5  1  0
  5  6  1  0
  6  7  1  0
  7  8  1  0
  8  9  2  0
  8 10  1  0
 10 11  1  0
 11 12  1  0
 12 13  2  0
 12 14  1  0
 11 15  1  0
 15 16  1  0
 16 17  2  0
 17 18  1  0
 18 19  1  0
 19 20  2  0
 20 21  1  0
 21 22  2  0
 22 23  1  0
 23 24  2  0
  7 25  1  0
 25 26  1  0
 26 27  2  0
 26 28  1  0
 28 29  1  0
 29 30  1  0
 30 31  2  0
 30 32  1  0
 32 33  1  0
 33 34  1  0
 34 35  2  0
 34 36  1  0
 36 37  1  0
 37 38  1  0
 38 39  1  0
 39 40  1  0
 40 41  2  0
 41 42  1  0
 36 43  1  0
 43 44  1  0
 44 45  2  0
 44 46  1  0
 32 47  1  0
 47 48  1  0
 48 49  2  0
 49 50  1  0
 50 51  2  0
 51 52  1  0
 52 53  2  0
 28 54  1  0
 54 55  1  0
 55 56  2  0
 56 57  1  0
 57 58  2  0
 58 59  1  0
 59 60  2  0
  2 61  1  0
 20 16  1  0
 42 38  2  0
 53 48  1  0
 60 55  1  0
 24 19  1  0
  1 62  1  0
  1 63  1  0
  4 64  1  0
  4 65  1  0
  5 66  1  0
  5 67  1  0
  6 68  1  0
  6 69  1  0
  7 70  1  1
 10 71  1  0
 11 72  1  1
 14 73  1  0
 14 74  1  0
 15 75  1  0
 15 76  1  0
 17 77  1  0
 18 78  1  0
 21 79  1  0
 22 80  1  0
 23 81  1  0
 24 82  1  0
 25 83  1  0
 28 84  1  6
 29 85  1  0
 32 86  1  1
 33 87  1  0
 36 88  1  1
 37 89  1  0
 37 90  1  0
 39 91  1  0
 40 92  1  0
 42 93  1  0
 43 94  1  0
 46 95  1  0
 46 96  1  0
 46 97  1  0
 47 98  1  0
 47 99  1  0
 49100  1  0
 50101  1  0
 51102  1  0
 52103  1  0
 53104  1  0
 54105  1  0
 54106  1  0
 56107  1  0
 57108  1  0
 58109  1  0
 59110  1  0
 60111  1  0
 61112  1  0
 61113  1  0
M  END
>  <Ligand ID>  (1) 
LIG0003293

>  <Ligand>  (1) 
CHEMBL183733

>  <SMILES>  (1) 
NC(=NCCC[C@@H](C(=O)N[C@H](C(=O)N)Cc1c[nH]c2c1cccc2)NC(=O)[C@@H](NC(=O)[C@@H](NC(=O)[C@H](Cc1[nH]cnc1)NC(=O)C)Cc1ccccc1)Cc1ccccc1)N

>  <CID>  (1) 
44394622.0

>  <ChEMBL ID>  (1) 
nan

>  <InChiKey>  (1) 
YEJIRJVNTASVMV-LTLCPEALSA-N

>  <InChi>  (1) 
InChI=1S/C43H52N12O6/c1-26(56)51-37(22-30-24-47-25-50-30)42(61)55-36(20-28-13-6-3-7-14-28)41(60)54-35(19-27-11-4-2-5-12-27)40(59)52-33(17-10-18-48-43(45)46)39(58)53-34(38(44)57)21-29-23-49-32-16-9-8-15-31(29)32/h2-9,11-16,23-25,33-37,49H,10,17-22H2,1H3,(H2,44,57)(H,47,50)(H,51,56)(H,52,59)(H,53,58)(H,54,60)(H,55,61)(H4,45,46,48)/t33-,34-,35-,36-,37-/m0/s1

>  <IUPAC Name>  (1) 
(2S)-2-[[(2S)-2-[[(2S)-2-[[(2S)-2-acetamido-3-(1H-imidazol-5-yl)propanoyl]amino]-3-phenylpropanoyl]amino]-3-phenylpropanoyl]amino]-N-[(2S)-1-amino-3-(1H-indol-3-yl)-1-oxopropan-2-yl]-5-(diaminomethylideneamino)pentanamide

$$$$
