
     RDKit          3D

 63 65  0  0  0  0  0  0  0  0999 V2000
   -7.7916    0.2851   -2.3711 C   0  0  0  0  0  0  0  0  0  0  0  0
   -7.3917   -0.3697   -1.1913 O   0  0  0  0  0  0  0  0  0  0  0  0
   -7.8935    0.0327    0.0208 C   0  0  0  0  0  0  0  0  0  0  0  0
   -8.7872    1.0514    0.2277 C   0  0  0  0  0  0  0  0  0  0  0  0
   -9.2512    1.3995    1.5007 C   0  0  0  0  0  0  0  0  0  0  0  0
   -8.8109    0.7090    2.6193 C   0  0  0  0  0  0  0  0  0  0  0  0
   -7.9144   -0.3101    2.3955 C   0  0  0  0  0  0  0  0  0  0  0  0
   -7.4507   -0.6620    1.1466 C   0  0  0  0  0  0  0  0  0  0  0  0
   -6.4879   -1.7826    1.0679 C   0  0  0  0  0  0  0  0  0  0  0  0
   -5.1437   -1.2031    0.8199 C   0  0  0  0  0  0  0  0  0  0  0  0
   -5.0956    0.0690    0.7079 O   0  0  0  0  0  0  0  0  0  0  0  0
   -3.9600   -1.9911    0.7081 N   0  0  0  0  0  0  0  0  0  0  0  0
   -2.7521   -1.2844    0.4634 C   0  0  0  0  0  0  0  0  0  0  0  0
   -1.9378   -0.7798    1.4486 C   0  0  0  0  0  0  0  0  0  0  0  0
   -0.7545   -0.0885    1.1534 C   0  0  0  0  0  0  0  0  0  0  0  0
   -0.4225    0.0739   -0.1984 C   0  0  0  0  0  0  0  0  0  0  0  0
   -1.2172   -0.4200   -1.2104 C   0  0  0  0  0  0  0  0  0  0  0  0
   -2.3634   -1.0870   -0.8420 C   0  0  0  0  0  0  0  0  0  0  0  0
    0.8131    0.7956   -0.6141 C   0  0  0  0  0  0  0  0  0  0  0  0
    1.9908   -0.1220   -0.7269 C   0  0  0  0  0  0  0  0  0  0  0  0
    3.2000    0.5190   -1.1286 N   0  0  0  0  0  0  0  0  0  0  0  0
    3.7731    1.4307   -0.1946 C   0  0  0  0  0  0  0  0  0  0  0  0
    4.3188    0.8029    1.0621 C   0  0  1  0  0  0  0  0  0  0  0  0
    5.5088   -0.1065    0.7223 C   0  0  0  0  0  0  0  0  0  0  0  0
    6.4405    0.7026    0.0582 O   0  0  0  0  0  0  0  0  0  0  0  0
    7.6524    0.2804   -0.4199 C   0  0  0  0  0  0  0  0  0  0  0  0
    7.9971   -1.0517   -0.2384 C   0  0  0  0  0  0  0  0  0  0  0  0
    9.2076   -1.5671   -0.6922 C   0  0  0  0  0  0  0  0  0  0  0  0
   10.0346   -0.6472   -1.3359 C   0  0  0  0  0  0  0  0  0  0  0  0
    9.7084    0.6620   -1.5206 C   0  0  0  0  0  0  0  0  0  0  0  0
    8.5119    1.1351   -1.0625 C   0  0  0  0  0  0  0  0  0  0  0  0
   11.2866   -1.0568   -1.8376 O   0  0  0  0  0  0  0  0  0  0  0  0
    4.8586    1.8103    1.8974 O   0  0  0  0  0  0  0  0  0  0  0  0
   -7.6796   -0.4240   -3.2474 H   0  0  0  0  0  0  0  0  0  0  0  0
   -8.8184    0.6775   -2.3652 H   0  0  0  0  0  0  0  0  0  0  0  0
   -7.1078    1.1298   -2.6318 H   0  0  0  0  0  0  0  0  0  0  0  0
   -9.1530    1.6146   -0.6162 H   0  0  0  0  0  0  0  0  0  0  0  0
   -9.9564    2.2070    1.6422 H   0  0  0  0  0  0  0  0  0  0  0  0
   -9.1457    0.9496    3.6086 H   0  0  0  0  0  0  0  0  0  0  0  0
   -7.5596   -0.8631    3.2795 H   0  0  0  0  0  0  0  0  0  0  0  0
   -6.8234   -2.4140    0.2206 H   0  0  0  0  0  0  0  0  0  0  0  0
   -6.5152   -2.3938    1.9689 H   0  0  0  0  0  0  0  0  0  0  0  0
   -4.0183   -3.0280    0.8075 H   0  0  0  0  0  0  0  0  0  0  0  0
   -2.2090   -0.9149    2.4720 H   0  0  0  0  0  0  0  0  0  0  0  0
   -0.1119    0.3097    1.9071 H   0  0  0  0  0  0  0  0  0  0  0  0
   -0.9416   -0.2833   -2.2483 H   0  0  0  0  0  0  0  0  0  0  0  0
   -2.9778   -1.4693   -1.6514 H   0  0  0  0  0  0  0  0  0  0  0  0
    0.6548    1.2652   -1.6057 H   0  0  0  0  0  0  0  0  0  0  0  0
    0.9307    1.6202    0.1000 H   0  0  0  0  0  0  0  0  0  0  0  0
    1.7498   -0.8749   -1.5137 H   0  0  0  0  0  0  0  0  0  0  0  0
    2.1951   -0.6968    0.1981 H   0  0  0  0  0  0  0  0  0  0  0  0
    3.9041   -0.2070   -1.3684 H   0  0  0  0  0  0  0  0  0  0  0  0
    3.1358    2.3102    0.0215 H   0  0  0  0  0  0  0  0  0  0  0  0
    4.6765    1.8721   -0.7118 H   0  0  0  0  0  0  0  0  0  0  0  0
    3.6112    0.1982    1.6282 H   0  0  0  0  0  0  0  0  0  0  0  0
    5.9884   -0.4581    1.6829 H   0  0  0  0  0  0  0  0  0  0  0  0
    5.1758   -0.9944    0.1800 H   0  0  0  0  0  0  0  0  0  0  0  0
    7.3357   -1.7603    0.2687 H   0  0  0  0  0  0  0  0  0  0  0  0
    9.4933   -2.5994   -0.5604 H   0  0  0  0  0  0  0  0  0  0  0  0
   10.3827    1.3404   -2.0271 H   0  0  0  0  0  0  0  0  0  0  0  0
    8.2135    2.1750   -1.1906 H   0  0  0  0  0  0  0  0  0  0  0  0
   11.6063   -0.6956   -2.7274 H   0  0  0  0  0  0  0  0  0  0  0  0
    4.0875    2.4406    2.0447 H   0  0  0  0  0  0  0  0  0  0  0  0
  1  2  1  0
  2  3  1  0
  3  4  2  0
  4  5  1  0
  5  6  2  0
  6  7  1  0
  7  8  2  0
  8  9  1  0
  9 10  1  0
 10 11  2  0
 10 12  1  0
 12 13  1  0
 13 14  2  0
 14 15  1  0
 15 16  2  0
 16 17  1  0
 17 18  2  0
 16 19  1  0
 19 20  1  0
 20 21  1  0
 21 22  1  0
 22 23  1  0
 23 24  1  0
 24 25  1  0
 25 26  1  0
 26 27  2  0
 27 28  1  0
 28 29  2  0
 29 30  1  0
 30 31  2  0
 29 32  1  0
 23 33  1  0
  8  3  1  0
 18 13  1  0
 31 26  1  0
  1 34  1  0
  1 35  1  0
  1 36  1  0
  4 37  1  0
  5 38  1  0
  6 39  1  0
  7 40  1  0
  9 41  1  0
  9 42  1  0
 12 43  1  0
 14 44  1  0
 15 45  1  0
 17 46  1  0
 18 47  1  0
 19 48  1  0
 19 49  1  0
 20 50  1  0
 20 51  1  0
 21 52  1  0
 22 53  1  0
 22 54  1  0
 23 55  1  1
 24 56  1  0
 24 57  1  0
 27 58  1  0
 28 59  1  0
 30 60  1  0
 31 61  1  0
 32 62  1  0
 33 63  1  0
M  END
>  <Ligand ID>  (1) 
LIG0004861

>  <Ligand>  (1) 
CHEMBL557269

>  <SMILES>  (1) 
COc1ccccc1CC(=O)Nc1ccc(cc1)CCNC[C@@H](COc1ccc(cc1)O)O

>  <CID>  (1) 
44127052.0

>  <ChEMBL ID>  (1) 
nan

>  <InChiKey>  (1) 
QHYJAWUVFKMSLX-QHCPKHFHSA-N

>  <InChi>  (1) 
InChI=1S/C26H30N2O5/c1-32-25-5-3-2-4-20(25)16-26(31)28-21-8-6-19(7-9-21)14-15-27-17-23(30)18-33-24-12-10-22(29)11-13-24/h2-13,23,27,29-30H,14-18H2,1H3,(H,28,31)/t23-/m0/s1

>  <IUPAC Name>  (1) 
N-[4-[2-[[(2S)-2-hydroxy-3-(4-hydroxyphenoxy)propyl]amino]ethyl]phenyl]-2-(2-methoxyphenyl)acetamide

$$$$
