
     RDKit          3D

 37 39  0  0  0  0  0  0  0  0999 V2000
   -5.3306    1.7548    1.8923 N   0  0  0  0  0  0  0  0  0  0  0  0
   -4.2851    1.0512    1.2353 C   0  0  0  0  0  0  0  0  0  0  0  0
   -4.4720   -0.2416    0.7959 C   0  0  0  0  0  0  0  0  0  0  0  0
   -3.5141   -0.9849    0.1557 C   0  0  0  0  0  0  0  0  0  0  0  0
   -2.2718   -0.4466   -0.0846 C   0  0  0  0  0  0  0  0  0  0  0  0
   -2.0598    0.8385    0.3424 C   0  0  0  0  0  0  0  0  0  0  0  0
   -3.0421    1.5972    0.9972 C   0  0  0  0  0  0  0  0  0  0  0  0
   -1.3057   -1.2868   -0.7631 C   0  0  0  0  0  0  0  0  0  0  0  0
   -0.1312   -0.9543   -1.0633 N   0  0  0  0  0  0  0  0  0  0  0  0
    0.5507    0.2159   -0.8594 N   0  0  0  0  0  0  0  0  0  0  0  0
    1.5871    0.3792    0.0948 C   0  0  0  0  0  0  0  0  0  0  0  0
    1.4141    0.6922    1.4118 C   0  0  0  0  0  0  0  0  0  0  0  0
    2.5149    0.8314    2.2369 C   0  0  0  0  0  0  0  0  0  0  0  0
    3.7811    0.6650    1.7776 N   0  0  0  0  0  0  0  0  0  0  0  0
    3.9706    0.3559    0.4823 C   0  0  0  0  0  0  0  0  0  0  0  0
    2.8880    0.2082   -0.3765 C   0  0  0  0  0  0  0  0  0  0  0  0
    3.0977   -0.1139   -1.7224 C   0  0  0  0  0  0  0  0  0  0  0  0
    4.4037   -0.2812   -2.1759 C   0  0  0  0  0  0  0  0  0  0  0  0
    5.4921   -0.1389   -1.3403 C   0  0  0  0  0  0  0  0  0  0  0  0
    5.2708    0.1812   -0.0062 C   0  0  0  0  0  0  0  0  0  0  0  0
    7.1270   -0.3529   -1.9291 Cl  0  0  0  0  0  0  0  0  0  0  0  0
   -1.7342   -2.6752   -1.1507 C   0  0  0  0  0  0  0  0  0  0  0  0
   -5.4328    1.7844    2.9409 H   0  0  0  0  0  0  0  0  0  0  0  0
   -6.0437    2.2754    1.3329 H   0  0  0  0  0  0  0  0  0  0  0  0
   -5.4293   -0.6949    0.9663 H   0  0  0  0  0  0  0  0  0  0  0  0
   -3.7927   -1.9962   -0.1413 H   0  0  0  0  0  0  0  0  0  0  0  0
   -1.1348    1.3406    0.2020 H   0  0  0  0  0  0  0  0  0  0  0  0
   -2.8374    2.6095    1.3195 H   0  0  0  0  0  0  0  0  0  0  0  0
    0.3452    1.0753   -1.4548 H   0  0  0  0  0  0  0  0  0  0  0  0
    0.4407    0.8342    1.8447 H   0  0  0  0  0  0  0  0  0  0  0  0
    2.4055    1.0822    3.2972 H   0  0  0  0  0  0  0  0  0  0  0  0
    2.2622   -0.2329   -2.4091 H   0  0  0  0  0  0  0  0  0  0  0  0
    4.5682   -0.5305   -3.2184 H   0  0  0  0  0  0  0  0  0  0  0  0
    6.1166    0.2967    0.6649 H   0  0  0  0  0  0  0  0  0  0  0  0
   -2.1619   -3.2108   -0.2511 H   0  0  0  0  0  0  0  0  0  0  0  0
   -2.4241   -2.6722   -1.9974 H   0  0  0  0  0  0  0  0  0  0  0  0
   -0.8328   -3.2553   -1.4062 H   0  0  0  0  0  0  0  0  0  0  0  0
  1  2  1  0
  2  3  2  0
  3  4  1  0
  4  5  2  0
  5  6  1  0
  6  7  2  0
  5  8  1  0
  8  9  2  0
  9 10  1  0
 10 11  1  0
 11 12  2  0
 12 13  1  0
 13 14  2  0
 14 15  1  0
 15 16  2  0
 16 17  1  0
 17 18  2  0
 18 19  1  0
 19 20  2  0
 19 21  1  0
  8 22  1  0
  7  2  1  0
 16 11  1  0
 20 15  1  0
  1 23  1  0
  1 24  1  0
  3 25  1  0
  4 26  1  0
  6 27  1  0
  7 28  1  0
 10 29  1  0
 12 30  1  0
 13 31  1  0
 17 32  1  0
 18 33  1  0
 20 34  1  0
 22 35  1  0
 22 36  1  0
 22 37  1  0
M  END
>  <Ligand ID>  (1) 
LIG0002323

>  <Ligand>  (1) 
AC1NZ9VM

>  <SMILES>  (1) 
Nc1ccc(cc1)/C(=N\Nc1ccnc2c1ccc(c2)Cl)/C

>  <CID>  (1) 
5928348.0

>  <ChEMBL ID>  (1) 
nan

>  <InChiKey>  (1) 
SIXYGYZZIPIIQY-NHDPSOOVSA-N

>  <InChi>  (1) 
InChI=1S/C17H15ClN4/c1-11(12-2-5-14(19)6-3-12)21-22-16-8-9-20-17-10-13(18)4-7-15(16)17/h2-10H,19H2,1H3,(H,20,22)/b21-11-

>  <IUPAC Name>  (1) 
N-[(Z)-1-(4-aminophenyl)ethylideneamino]-7-chloroquinolin-4-amine

$$$$
