
     RDKit          3D

114115  0  0  0  0  0  0  0  0999 V2000
   -8.4797    0.9996    4.4958 C   0  0  0  0  0  0  0  0  0  0  0  0
   -8.8522   -0.7327    4.3461 S   0  0  0  0  0  0  0  0  0  0  0  0
   -7.5072   -1.7211    3.7438 C   0  0  0  0  0  0  0  0  0  0  0  0
   -7.0499   -1.4815    2.3427 C   0  0  0  0  0  0  0  0  0  0  0  0
   -6.4368   -0.1356    2.0571 C   0  0  1  0  0  0  0  0  0  0  0  0
   -5.2277   -0.0136    2.9035 C   0  0  0  0  0  0  0  0  0  0  0  0
   -5.2154   -0.0183    4.1586 O   0  0  0  0  0  0  0  0  0  0  0  0
   -3.9225    0.1249    2.2975 N   0  0  0  0  0  0  0  0  0  0  0  0
   -5.9691   -0.1026    0.6485 N   0  0  0  0  0  0  0  0  0  0  0  0
   -6.7698    0.5898   -0.3116 C   0  0  0  0  0  0  0  0  0  0  0  0
   -7.8196    1.1219    0.1106 O   0  0  0  0  0  0  0  0  0  0  0  0
   -6.3423    0.6360   -1.7020 C   0  0  1  0  0  0  0  0  0  0  0  0
   -4.9299    0.3419   -1.7853 N   0  0  0  0  0  0  0  0  0  0  0  0
   -4.1742   -0.2486   -2.7853 C   0  0  0  0  0  0  0  0  0  0  0  0
   -4.7417   -0.6835   -3.8633 O   0  0  0  0  0  0  0  0  0  0  0  0
   -2.7086   -0.4645   -2.7904 C   0  0  0  0  0  0  0  0  0  0  0  0
   -2.0450    0.1201   -1.6632 N   0  0  0  0  0  0  0  0  0  0  0  0
   -0.6115   -0.0501   -1.6730 C   0  0  0  0  0  0  0  0  0  0  0  0
   -0.1774   -0.7212   -2.6602 O   0  0  0  0  0  0  0  0  0  0  0  0
    0.3120    0.4716   -0.6966 C   0  0  1  0  0  0  0  0  0  0  0  0
    1.7110    0.2135   -1.1043 N   0  0  0  0  0  0  0  0  0  0  0  0
    2.6519   -0.4000   -0.2335 C   0  0  0  0  0  0  0  0  0  0  0  0
    2.3096   -0.6284    0.9300 O   0  0  0  0  0  0  0  0  0  0  0  0
    4.0194   -0.7261   -0.7841 C   0  0  1  0  0  0  0  0  0  0  0  0
    4.9772   -0.7447    0.3167 N   0  0  0  0  0  0  0  0  0  0  0  0
    5.7422    0.4572    0.4713 C   0  0  0  0  0  0  0  0  0  0  0  0
    5.4915    1.3998   -0.3676 O   0  0  0  0  0  0  0  0  0  0  0  0
    6.7583    0.7275    1.4670 C   0  0  1  0  0  0  0  0  0  0  0  0
    7.1651   -0.3429    2.3406 N   0  0  0  0  0  0  0  0  0  0  0  0
    7.3392    0.0138    3.7320 C   0  0  0  0  0  0  0  0  0  0  0  0
    7.1430    1.1791    4.1497 O   0  0  0  0  0  0  0  0  0  0  0  0
    7.7665   -0.9957    4.7301 C   0  0  0  0  0  0  0  0  0  0  0  0
    8.0133   -0.4020    6.0899 C   0  0  0  0  0  0  0  0  0  0  0  0
    6.7680    0.2017    6.6005 C   0  0  0  0  0  0  0  0  0  0  0  0
    6.8103    0.8148    7.7177 O   0  0  0  0  0  0  0  0  0  0  0  0
    5.5457    0.1553    5.9589 O   0  0  0  0  0  0  0  0  0  0  0  0
    8.0207    1.1894    0.7336 C   0  0  0  0  0  0  0  0  0  0  0  0
    8.5365    0.1746   -0.1772 C   0  0  0  0  0  0  0  0  0  0  0  0
    9.5965    0.4259   -0.8111 O   0  0  0  0  0  0  0  0  0  0  0  0
    7.9214   -1.0767   -0.3961 O   0  0  0  0  0  0  0  0  0  0  0  0
    3.8490   -2.1155   -1.3544 C   0  0  0  0  0  0  0  0  0  0  0  0
    5.0414   -2.7082   -1.9789 C   0  0  0  0  0  0  0  0  0  0  0  0
    5.2453   -2.4562   -3.3417 C   0  0  0  0  0  0  0  0  0  0  0  0
    6.3311   -3.0219   -3.9697 C   0  0  0  0  0  0  0  0  0  0  0  0
    7.2455   -3.8386   -3.3178 C   0  0  0  0  0  0  0  0  0  0  0  0
    7.0297   -4.0726   -1.9901 C   0  0  0  0  0  0  0  0  0  0  0  0
    5.9441   -3.5206   -1.3134 C   0  0  0  0  0  0  0  0  0  0  0  0
    2.0262    0.6246   -2.4631 C   0  0  0  0  0  0  0  0  0  0  0  0
    0.1069    1.9320   -0.3326 C   0  0  0  0  0  0  0  0  0  0  0  0
    0.2126    2.9339   -1.3683 C   0  0  0  0  0  0  0  0  0  0  0  0
    1.4392    3.5848   -1.5792 C   0  0  0  0  0  0  0  0  0  0  0  0
    1.6006    4.5650   -2.5289 C   0  0  0  0  0  0  0  0  0  0  0  0
    0.5055    4.8997   -3.2837 C   0  0  0  0  0  0  0  0  0  0  0  0
   -0.7348    4.3069   -3.1394 C   0  0  0  0  0  0  0  0  0  0  0  0
   -0.8425    3.3227   -2.1657 C   0  0  0  0  0  0  0  0  0  0  0  0
   -7.0893   -0.4555   -2.4794 C   0  0  0  0  0  0  0  0  0  0  0  0
   -8.5741   -0.3625   -2.4431 C   0  0  0  0  0  0  0  0  0  0  0  0
   -9.1416    0.9418   -2.9423 C   0  0  0  0  0  0  0  0  0  0  0  0
   -9.2696   -0.9477   -1.2799 C   0  0  0  0  0  0  0  0  0  0  0  0
   -9.1363    1.4129    5.3456 H   0  0  0  0  0  0  0  0  0  0  0  0
   -8.7602    1.5840    3.5767 H   0  0  0  0  0  0  0  0  0  0  0  0
   -7.4425    1.2637    4.7460 H   0  0  0  0  0  0  0  0  0  0  0  0
   -7.8778   -2.8224    3.7551 H   0  0  0  0  0  0  0  0  0  0  0  0
   -6.6463   -1.7961    4.4784 H   0  0  0  0  0  0  0  0  0  0  0  0
   -7.8866   -1.7307    1.6456 H   0  0  0  0  0  0  0  0  0  0  0  0
   -6.2315   -2.2464    2.1630 H   0  0  0  0  0  0  0  0  0  0  0  0
   -7.2092    0.6094    2.1963 H   0  0  0  0  0  0  0  0  0  0  0  0
   -3.5374   -0.7064    1.7467 H   0  0  0  0  0  0  0  0  0  0  0  0
   -3.3638    1.0077    2.3902 H   0  0  0  0  0  0  0  0  0  0  0  0
   -5.0782   -0.5894    0.4199 H   0  0  0  0  0  0  0  0  0  0  0  0
   -6.5024    1.5956   -2.2394 H   0  0  0  0  0  0  0  0  0  0  0  0
   -4.3773    0.6688   -0.9142 H   0  0  0  0  0  0  0  0  0  0  0  0
   -2.2402   -0.1058   -3.7280 H   0  0  0  0  0  0  0  0  0  0  0  0
   -2.4632   -1.5710   -2.7697 H   0  0  0  0  0  0  0  0  0  0  0  0
   -2.4290    0.6297   -0.8778 H   0  0  0  0  0  0  0  0  0  0  0  0
    0.2091   -0.0343    0.2855 H   0  0  0  0  0  0  0  0  0  0  0  0
    4.2456    0.0623   -1.4776 H   0  0  0  0  0  0  0  0  0  0  0  0
    5.1274   -1.5418    0.9575 H   0  0  0  0  0  0  0  0  0  0  0  0
    6.4531    1.6278    2.0842 H   0  0  0  0  0  0  0  0  0  0  0  0
    7.3243   -1.2931    1.9854 H   0  0  0  0  0  0  0  0  0  0  0  0
    7.0495   -1.8196    4.7527 H   0  0  0  0  0  0  0  0  0  0  0  0
    8.7306   -1.4474    4.3321 H   0  0  0  0  0  0  0  0  0  0  0  0
    8.4315   -1.2063    6.7325 H   0  0  0  0  0  0  0  0  0  0  0  0
    8.8179    0.3723    5.9818 H   0  0  0  0  0  0  0  0  0  0  0  0
    4.6645    0.3402    6.4404 H   0  0  0  0  0  0  0  0  0  0  0  0
    7.6985    2.0524    0.0693 H   0  0  0  0  0  0  0  0  0  0  0  0
    8.7744    1.6029    1.4209 H   0  0  0  0  0  0  0  0  0  0  0  0
    8.3935   -1.7553   -1.0141 H   0  0  0  0  0  0  0  0  0  0  0  0
    2.9931   -2.0985   -2.0558 H   0  0  0  0  0  0  0  0  0  0  0  0
    3.4639   -2.8052   -0.5216 H   0  0  0  0  0  0  0  0  0  0  0  0
    4.5645   -1.8287   -3.9118 H   0  0  0  0  0  0  0  0  0  0  0  0
    6.5087   -2.8386   -5.0221 H   0  0  0  0  0  0  0  0  0  0  0  0
    8.0980   -4.2705   -3.8485 H   0  0  0  0  0  0  0  0  0  0  0  0
    7.7530   -4.7201   -1.4810 H   0  0  0  0  0  0  0  0  0  0  0  0
    5.7876   -3.7097   -0.2823 H   0  0  0  0  0  0  0  0  0  0  0  0
    2.2607   -0.2254   -3.1436 H   0  0  0  0  0  0  0  0  0  0  0  0
    2.9038    1.3020   -2.5073 H   0  0  0  0  0  0  0  0  0  0  0  0
    1.1836    1.1457   -2.9687 H   0  0  0  0  0  0  0  0  0  0  0  0
   -0.8567    2.0636    0.2316 H   0  0  0  0  0  0  0  0  0  0  0  0
    0.8715    2.1963    0.4625 H   0  0  0  0  0  0  0  0  0  0  0  0
    2.2990    3.3174   -0.9845 H   0  0  0  0  0  0  0  0  0  0  0  0
    2.5176    5.0878   -2.7204 H   0  0  0  0  0  0  0  0  0  0  0  0
    0.5732    5.6704   -4.0434 H   0  0  0  0  0  0  0  0  0  0  0  0
   -1.5577    4.6041   -3.7536 H   0  0  0  0  0  0  0  0  0  0  0  0
   -1.8214    2.8703   -2.0667 H   0  0  0  0  0  0  0  0  0  0  0  0
   -6.7553   -1.4171   -2.0839 H   0  0  0  0  0  0  0  0  0  0  0  0
   -6.7861   -0.4097   -3.5641 H   0  0  0  0  0  0  0  0  0  0  0  0
   -8.8871   -1.0888   -3.3252 H   0  0  0  0  0  0  0  0  0  0  0  0
   -8.5754    1.2742   -3.8238 H   0  0  0  0  0  0  0  0  0  0  0  0
  -10.1806    0.7308   -3.3238 H   0  0  0  0  0  0  0  0  0  0  0  0
   -9.2497    1.7141   -2.1712 H   0  0  0  0  0  0  0  0  0  0  0  0
   -9.9176   -1.8544   -1.5657 H   0  0  0  0  0  0  0  0  0  0  0  0
   -8.5430   -1.3856   -0.5666 H   0  0  0  0  0  0  0  0  0  0  0  0
   -9.9295   -0.2534   -0.7093 H   0  0  0  0  0  0  0  0  0  0  0  0
  1  2  1  0
  2  3  1  0
  3  4  1  0
  4  5  1  0
  5  6  1  0
  6  7  2  0
  6  8  1  0
  5  9  1  0
  9 10  1  0
 10 11  2  0
 10 12  1  0
 12 13  1  0
 13 14  1  0
 14 15  2  0
 14 16  1  0
 16 17  1  0
 17 18  1  0
 18 19  2  0
 18 20  1  0
 20 21  1  0
 21 22  1  0
 22 23  2  0
 22 24  1  0
 24 25  1  0
 25 26  1  0
 26 27  2  0
 26 28  1  0
 28 29  1  0
 29 30  1  0
 30 31  2  0
 30 32  1  0
 32 33  1  0
 33 34  1  0
 34 35  2  0
 34 36  1  0
 28 37  1  0
 37 38  1  0
 38 39  2  0
 38 40  1  0
 24 41  1  0
 41 42  1  0
 42 43  2  0
 43 44  1  0
 44 45  2  0
 45 46  1  0
 46 47  2  0
 21 48  1  0
 20 49  1  0
 49 50  1  0
 50 51  2  0
 51 52  1  0
 52 53  2  0
 53 54  1  0
 54 55  2  0
 12 56  1  0
 56 57  1  0
 57 58  1  0
 57 59  1  0
 47 42  1  0
 55 50  1  0
  1 60  1  0
  1 61  1  0
  1 62  1  0
  3 63  1  0
  3 64  1  0
  4 65  1  0
  4 66  1  0
  5 67  1  6
  8 68  1  0
  8 69  1  0
  9 70  1  0
 12 71  1  6
 13 72  1  0
 16 73  1  0
 16 74  1  0
 17 75  1  0
 20 76  1  1
 24 77  1  6
 25 78  1  0
 28 79  1  1
 29 80  1  0
 32 81  1  0
 32 82  1  0
 33 83  1  0
 33 84  1  0
 36 85  1  0
 37 86  1  0
 37 87  1  0
 40 88  1  0
 41 89  1  0
 41 90  1  0
 43 91  1  0
 44 92  1  0
 45 93  1  0
 46 94  1  0
 47 95  1  0
 48 96  1  0
 48 97  1  0
 48 98  1  0
 49 99  1  0
 49100  1  0
 51101  1  0
 52102  1  0
 53103  1  0
 54104  1  0
 55105  1  0
 56106  1  0
 56107  1  0
 57108  1  0
 58109  1  0
 58110  1  0
 58111  1  0
 59112  1  0
 59113  1  0
 59114  1  0
M  END
>  <Ligand ID>  (1) 
LIG0001504

>  <Ligand>  (1) 
senktide

>  <SMILES>  (1) 
CSCC[C@@H](C(=O)N)NC(=O)[C@@H](NC(=O)CNC(=O)[C@@H](N(C(=O)[C@@H](NC(=O)[C@@H](NC(=O)CCC(=O)O)CC(=O)O)Cc1ccccc1)C)Cc1ccccc1)CC(C)C

>  <CID>  (1) 
108147.0

>  <ChEMBL ID>  (1) 
nan

>  <InChiKey>  (1) 
HMHYXLVEFVGOPM-QKUYTOGTSA-N

>  <InChi>  (1) 
InChI=1S/C40H55N7O11S/c1-24(2)19-28(37(55)45-27(36(41)54)17-18-59-4)44-33(49)23-42-39(57)31(21-26-13-9-6-10-14-26)47(3)40(58)30(20-25-11-7-5-8-12-25)46-38(56)29(22-35(52)53)43-32(48)15-16-34(50)51/h5-14,24,27-31H,15-23H2,1-4H3,(H2,41,54)(H,42,57)(H,43,48)(H,44,49)(H,45,55)(H,46,56)(H,50,51)(H,52,53)/t27-,28-,29-,30-,31-/m0/s1

>  <IUPAC Name>  (1) 
(3S)-4-[[(2S)-1-[[(2S)-1-[[2-[[(2S)-1-[[(2S)-1-amino-4-methylsulfanyl-1-oxobutan-2-yl]amino]-4-methyl-1-oxopentan-2-yl]amino]-2-oxoethyl]amino]-1-oxo-3-phenylpropan-2-yl]-methylamino]-1-oxo-3-phenylpropan-2-yl]amino]-3-(3-carboxypropanoylamino)-4-oxobutanoic acid

$$$$
