
     RDKit          3D

 66 70  0  0  0  0  0  0  0  0999 V2000
   -2.1738    6.7440   -3.0289 N   0  0  0  0  0  0  0  0  0  0  0  0
   -2.5602    6.2784   -1.9258 N   0  0  0  0  0  0  0  0  0  0  0  0
   -2.9529    5.7984   -0.8363 N   0  0  0  0  0  0  0  0  0  0  0  0
   -3.7240    4.5621   -0.9254 C   0  0  0  0  0  0  0  0  0  0  0  0
   -3.7305    4.1031   -2.3464 C   0  0  0  0  0  0  0  0  0  0  0  0
   -2.4309    3.8899   -2.8057 O   0  0  0  0  0  0  0  0  0  0  0  0
   -1.5637    2.9509   -2.2499 C   0  0  0  0  0  0  0  0  0  0  0  0
   -1.9826    2.2166   -1.2416 N   0  0  0  0  0  0  0  0  0  0  0  0
   -1.2630    1.2736   -0.6020 C   0  0  0  0  0  0  0  0  0  0  0  0
   -1.8968    0.5397    0.4188 N   0  0  0  0  0  0  0  0  0  0  0  0
   -3.2596    0.8190    0.8709 C   0  0  0  0  0  0  0  0  0  0  0  0
   -3.8126   -0.2868    1.6709 C   0  0  0  0  0  0  0  0  0  0  0  0
   -3.6329   -0.4771    3.0087 C   0  0  0  0  0  0  0  0  0  0  0  0
   -4.2296   -1.5339    3.6902 C   0  0  0  0  0  0  0  0  0  0  0  0
   -5.0324   -2.4285    3.0119 C   0  0  0  0  0  0  0  0  0  0  0  0
   -5.2241   -2.2514    1.6493 C   0  0  0  0  0  0  0  0  0  0  0  0
   -4.6201   -1.1989    1.0145 C   0  0  0  0  0  0  0  0  0  0  0  0
   -5.7139   -3.5765    3.6365 C   0  0  0  0  0  0  0  0  0  0  0  0
   -6.9616   -3.1964    4.0786 F   0  0  0  0  0  0  0  0  0  0  0  0
   -4.9519   -4.0261    4.6870 F   0  0  0  0  0  0  0  0  0  0  0  0
   -5.8453   -4.5631    2.6665 F   0  0  0  0  0  0  0  0  0  0  0  0
    0.0213    1.0800   -1.0562 C   0  0  0  0  0  0  0  0  0  0  0  0
    0.4755    1.8255   -2.0941 C   0  0  0  0  0  0  0  0  0  0  0  0
   -0.2932    2.7834   -2.7314 N   0  0  0  0  0  0  0  0  0  0  0  0
    1.7501    1.6686   -2.5474 C   0  0  0  0  0  0  0  0  0  0  0  0
    2.5461    0.7224   -1.9001 C   0  0  0  0  0  0  0  0  0  0  0  0
    2.0967   -0.0379   -0.8482 C   0  0  0  0  0  0  0  0  0  0  0  0
    0.7741    0.1268   -0.3813 C   0  0  0  0  0  0  0  0  0  0  0  0
    2.9883   -0.9976   -0.2114 C   0  0  0  0  0  0  0  0  0  0  0  0
    3.3433   -2.1944   -1.0077 C   0  0  0  0  0  0  0  0  0  0  0  0
    3.2393   -2.3100   -2.3693 C   0  0  0  0  0  0  0  0  0  0  0  0
    3.6348   -3.5116   -2.9493 C   0  0  0  0  0  0  0  0  0  0  0  0
    4.1198   -4.5678   -2.2165 C   0  0  0  0  0  0  0  0  0  0  0  0
    4.2238   -4.4641   -0.8736 C   0  0  0  0  0  0  0  0  0  0  0  0
    3.8399   -3.2860   -0.2587 C   0  0  0  0  0  0  0  0  0  0  0  0
    4.6161   -6.0564   -2.9893 Cl  0  0  0  0  0  0  0  0  0  0  0  0
    4.1400   -0.4285    0.5236 C   0  0  0  0  0  0  0  0  0  0  0  0
    4.0385   -0.1445    1.9034 C   0  0  0  0  0  0  0  0  0  0  0  0
    5.1000    0.3991    2.6021 C   0  0  0  0  0  0  0  0  0  0  0  0
    6.2959    0.6861    1.9844 C   0  0  0  0  0  0  0  0  0  0  0  0
    6.3900    0.4068    0.6374 C   0  0  0  0  0  0  0  0  0  0  0  0
    5.3339   -0.1346   -0.0567 C   0  0  0  0  0  0  0  0  0  0  0  0
    7.6240    1.3715    2.8784 Cl  0  0  0  0  0  0  0  0  0  0  0  0
   -3.2783    3.8047   -0.2748 H   0  0  0  0  0  0  0  0  0  0  0  0
   -4.7761    4.7984   -0.5758 H   0  0  0  0  0  0  0  0  0  0  0  0
   -4.3461    3.1696   -2.4571 H   0  0  0  0  0  0  0  0  0  0  0  0
   -4.2237    4.8836   -2.9992 H   0  0  0  0  0  0  0  0  0  0  0  0
   -1.4429   -0.2685    0.9348 H   0  0  0  0  0  0  0  0  0  0  0  0
   -3.9066    0.9845   -0.0059 H   0  0  0  0  0  0  0  0  0  0  0  0
   -3.1985    1.7565    1.4777 H   0  0  0  0  0  0  0  0  0  0  0  0
   -2.9971    0.2120    3.5659 H   0  0  0  0  0  0  0  0  0  0  0  0
   -4.1069   -1.7037    4.7446 H   0  0  0  0  0  0  0  0  0  0  0  0
   -5.8543   -2.9475    1.0934 H   0  0  0  0  0  0  0  0  0  0  0  0
   -4.8065   -1.1097   -0.0556 H   0  0  0  0  0  0  0  0  0  0  0  0
    2.1132    2.2602   -3.3712 H   0  0  0  0  0  0  0  0  0  0  0  0
    3.5535    0.6444   -2.2858 H   0  0  0  0  0  0  0  0  0  0  0  0
    0.4332   -0.4523    0.4416 H   0  0  0  0  0  0  0  0  0  0  0  0
    2.3591   -1.4499    0.6506 H   0  0  0  0  0  0  0  0  0  0  0  0
    2.8557   -1.4954   -2.9366 H   0  0  0  0  0  0  0  0  0  0  0  0
    3.5757   -3.6540   -4.0201 H   0  0  0  0  0  0  0  0  0  0  0  0
    4.5976   -5.2882   -0.2972 H   0  0  0  0  0  0  0  0  0  0  0  0
    3.9298   -3.2049    0.8273 H   0  0  0  0  0  0  0  0  0  0  0  0
    3.0980   -0.3668    2.4334 H   0  0  0  0  0  0  0  0  0  0  0  0
    4.9180    0.5853    3.6581 H   0  0  0  0  0  0  0  0  0  0  0  0
    7.3117    0.5999    0.0868 H   0  0  0  0  0  0  0  0  0  0  0  0
    5.4557   -0.3323   -1.1146 H   0  0  0  0  0  0  0  0  0  0  0  0
  1  2  2  0
  2  3  2  0
  3  4  1  0
  4  5  1  0
  5  6  1  0
  6  7  1  0
  7  8  2  0
  8  9  1  0
  9 10  1  0
 10 11  1  0
 11 12  1  0
 12 13  2  0
 13 14  1  0
 14 15  2  0
 15 16  1  0
 16 17  2  0
 15 18  1  0
 18 19  1  0
 18 20  1  0
 18 21  1  0
  9 22  2  0
 22 23  1  0
 23 24  2  0
 23 25  1  0
 25 26  2  0
 26 27  1  0
 27 28  2  0
 27 29  1  0
 29 30  1  0
 30 31  2  0
 31 32  1  0
 32 33  2  0
 33 34  1  0
 34 35  2  0
 33 36  1  0
 29 37  1  0
 37 38  2  0
 38 39  1  0
 39 40  2  0
 40 41  1  0
 41 42  2  0
 40 43  1  0
 24  7  1  0
 35 30  1  0
 42 37  1  0
 17 12  1  0
 28 22  1  0
  4 44  1  0
  4 45  1  0
  5 46  1  0
  5 47  1  0
 10 48  1  0
 11 49  1  0
 11 50  1  0
 13 51  1  0
 14 52  1  0
 16 53  1  0
 17 54  1  0
 25 55  1  0
 26 56  1  0
 28 57  1  0
 29 58  1  0
 31 59  1  0
 32 60  1  0
 34 61  1  0
 35 62  1  0
 38 63  1  0
 39 64  1  0
 41 65  1  0
 42 66  1  0
M  CHG  2   1  -1   2   1
M  END
>  <Ligand ID>  (1) 
LIG0005951

>  <Ligand>  (1) 
SCHEMBL17557532

>  <SMILES>  (1) 
[N-]=[N+]=NCCOc1nc(NCc2ccc(cc2)C(F)(F)F)c2c(n1)ccc(c2)C(c1ccc(cc1)Cl)c1ccc(cc1)Cl

>  <CID>  (1) 
118916019.0

>  <ChEMBL ID>  (1) 
nan

>  <InChiKey>  (1) 
QGLUDJOMKLQXQH-UHFFFAOYSA-N

>  <InChi>  (1) 
InChI=1S/C31H23Cl2F3N6O/c32-24-10-3-20(4-11-24)28(21-5-12-25(33)13-6-21)22-7-14-27-26(17-22)29(41-30(40-27)43-16-15-39-42-37)38-18-19-1-8-23(9-2-19)31(34,35)36/h1-14,17,28H,15-16,18H2,(H,38,40,41)

>  <IUPAC Name>  (1) 
2-(2-azidoethoxy)-6-[bis(4-chlorophenyl)methyl]-N-[[4-(trifluoromethyl)phenyl]methyl]quinazolin-4-amine

$$$$
