
     RDKit          3D

 37 37  0  0  0  0  0  0  0  0999 V2000
   -3.1208    0.9139    2.3928 N   0  0  0  0  0  0  0  0  0  0  0  0
   -1.9439    0.2316    2.8670 C   0  0  0  0  0  0  0  0  0  0  0  0
   -1.3405   -0.6634    1.7727 C   0  0  1  0  0  0  0  0  0  0  0  0
   -2.2005   -1.7595    1.2157 C   0  0  0  0  0  0  0  0  0  0  0  0
   -1.8536   -0.5492    0.4162 C   0  0  2  0  0  0  0  0  0  0  0  0
   -1.0890   -0.6433   -0.8261 C   0  0  0  0  0  0  0  0  0  0  0  0
   -1.8290   -0.8611   -2.0008 C   0  0  0  0  0  0  0  0  0  0  0  0
   -1.2333   -0.9708   -3.2272 C   0  0  0  0  0  0  0  0  0  0  0  0
   -2.1865   -1.2411   -4.6633 Cl  0  0  0  0  0  0  0  0  0  0  0  0
    0.1278   -0.8625   -3.2945 C   0  0  0  0  0  0  0  0  0  0  0  0
    0.8518   -0.6499   -2.1483 C   0  0  0  0  0  0  0  0  0  0  0  0
    0.3071   -0.5315   -0.8905 C   0  0  0  0  0  0  0  0  0  0  0  0
    0.9694   -0.3230    0.2643 O   0  0  0  0  0  0  0  0  0  0  0  0
    2.3116   -0.1700    0.5189 C   0  0  0  0  0  0  0  0  0  0  0  0
    2.9955    0.9628   -0.1236 C   0  0  0  0  0  0  0  0  0  0  0  0
    4.0217    0.8555   -0.9607 C   0  0  0  0  0  0  0  0  0  0  0  0
    2.4755    2.3428    0.2074 C   0  0  0  0  0  0  0  0  0  0  0  0
    0.6849    0.0000    0.0000 Cl  0  0  0  0  0  0  0  0  0  0  0  0
   -2.9431    1.6372    1.6919 H   0  0  0  0  0  0  0  0  0  0  0  0
   -3.8379    1.0983    3.1002 H   0  0  0  0  0  0  0  0  0  0  0  0
   -2.1706   -0.3288    3.7746 H   0  0  0  0  0  0  0  0  0  0  0  0
   -1.1879    1.0138    3.0636 H   0  0  0  0  0  0  0  0  0  0  0  0
   -0.3235   -0.9591    2.0711 H   0  0  0  0  0  0  0  0  0  0  0  0
   -3.2317   -1.9117    1.5939 H   0  0  0  0  0  0  0  0  0  0  0  0
   -1.6992   -2.7389    1.0102 H   0  0  0  0  0  0  0  0  0  0  0  0
   -2.7360    0.1517    0.3050 H   0  0  0  0  0  0  0  0  0  0  0  0
   -2.9109   -0.9501   -1.9691 H   0  0  0  0  0  0  0  0  0  0  0  0
    0.6161   -0.9466   -4.2551 H   0  0  0  0  0  0  0  0  0  0  0  0
    1.9221   -0.5758   -2.2539 H   0  0  0  0  0  0  0  0  0  0  0  0
    2.4198   -0.0059    1.6284 H   0  0  0  0  0  0  0  0  0  0  0  0
    2.8101   -1.1413    0.2662 H   0  0  0  0  0  0  0  0  0  0  0  0
    4.3617   -0.1608   -1.1691 H   0  0  0  0  0  0  0  0  0  0  0  0
    4.4722    1.7394   -1.3937 H   0  0  0  0  0  0  0  0  0  0  0  0
    1.6073    2.6155   -0.3994 H   0  0  0  0  0  0  0  0  0  0  0  0
    3.3343    3.0380    0.1084 H   0  0  0  0  0  0  0  0  0  0  0  0
    2.2337    2.3439    1.3072 H   0  0  0  0  0  0  0  0  0  0  0  0
   -0.6849    0.0000    0.0000 H   0  0  0  0  0  0  0  0  0  0  0  0
  1  2  1  0
  2  3  1  0
  3  4  1  0
  4  5  1  0
  5  6  1  0
  6  7  2  0
  7  8  1  0
  8  9  1  0
  8 10  2  0
 10 11  1  0
 11 12  2  0
 12 13  1  0
 13 14  1  0
 14 15  1  0
 15 16  2  0
 15 17  1  0
  5  3  1  0
 12  6  1  0
  1 19  1  0
  1 20  1  0
  2 21  1  0
  2 22  1  0
  3 23  1  6
  4 24  1  0
  4 25  1  0
  5 26  1  1
  7 27  1  0
 10 28  1  0
 11 29  1  0
 14 30  1  0
 14 31  1  0
 16 32  1  0
 16 33  1  0
 17 34  1  0
 17 35  1  0
 17 36  1  0
 18 37  1  0
M  END
>  <Ligand ID>  (1) 
LIG0003257

>  <Ligand>  (1) 
CHEMBL3416053

>  <SMILES>  (1) 
NC[C@H]1C[C@@H]1c1cc(Cl)ccc1OCC(=C)C.Cl

>  <CID>  (1) 
118733801.0

>  <ChEMBL ID>  (1) 
nan

>  <InChiKey>  (1) 
WDRQFVHWRDQRMK-IYJPBCIQSA-N

>  <InChi>  (1) 
InChI=1S/C14H18ClNO.ClH/c1-9(2)8-17-14-4-3-11(15)6-13(14)12-5-10(12)7-16;/h3-4,6,10,12H,1,5,7-8,16H2,2H3;1H/t10-,12+;/m1./s1

>  <IUPAC Name>  (1) 
[(1S,2S)-2-[5-chloro-2-(2-methylprop-2-enoxy)phenyl]cyclopropyl]methanamine;hydrochloride

$$$$
