
     RDKit          3D

 43 44  0  0  0  0  0  0  0  0999 V2000
   -2.7068   -3.4402   -0.7804 C   0  0  0  0  0  0  0  0  0  0  0  0
   -2.8191   -1.9039   -0.7386 C   0  0  0  0  0  0  0  0  0  0  0  0
   -1.4928   -1.3973   -0.2542 C   0  0  0  0  0  0  0  0  0  0  0  0
   -1.4213    0.0823   -0.1569 N   0  0  0  0  0  0  0  0  0  0  0  0
   -0.0242    0.2526    0.3426 C   0  0  0  0  0  0  0  0  0  0  0  0
    0.3289    1.6686    0.5025 C   0  0  0  0  0  0  0  0  0  0  0  0
    1.7759    2.0357    0.5673 C   0  0  0  0  0  0  0  0  0  0  0  0
    2.7384    1.0001    0.2431 C   0  0  0  0  0  0  0  0  0  0  0  0
    2.3268   -0.2005   -0.2211 C   0  0  0  0  0  0  0  0  0  0  0  0
    0.8995   -0.5845   -0.4496 C   0  0  0  0  0  0  0  0  0  0  0  0
    3.3163   -1.1437   -0.5131 C   0  0  0  0  0  0  0  0  0  0  0  0
    4.6514   -0.8986   -0.3490 C   0  0  0  0  0  0  0  0  0  0  0  0
    5.0437    0.3293    0.1242 C   0  0  0  0  0  0  0  0  0  0  0  0
    4.0869    1.2780    0.4202 C   0  0  0  0  0  0  0  0  0  0  0  0
    5.6436   -1.8197   -0.6333 O   0  0  0  0  0  0  0  0  0  0  0  0
   -2.3648    0.5490    0.8011 C   0  0  0  0  0  0  0  0  0  0  0  0
   -2.8071    1.9656    0.7362 C   0  0  0  0  0  0  0  0  0  0  0  0
   -3.4484    2.3149   -0.6020 C   0  0  0  0  0  0  0  0  0  0  0  0
   -3.7003   -3.8857   -1.0184 H   0  0  0  0  0  0  0  0  0  0  0  0
   -1.9939   -3.6608   -1.6034 H   0  0  0  0  0  0  0  0  0  0  0  0
   -2.3308   -3.8401    0.1683 H   0  0  0  0  0  0  0  0  0  0  0  0
   -3.7064   -1.5917   -0.2178 H   0  0  0  0  0  0  0  0  0  0  0  0
   -2.9891   -1.6377   -1.8192 H   0  0  0  0  0  0  0  0  0  0  0  0
   -0.7827   -1.6621   -1.0652 H   0  0  0  0  0  0  0  0  0  0  0  0
   -1.2043   -1.7760    0.7341 H   0  0  0  0  0  0  0  0  0  0  0  0
   -0.0893   -0.2261    1.3688 H   0  0  0  0  0  0  0  0  0  0  0  0
   -0.0714    1.9882    1.5143 H   0  0  0  0  0  0  0  0  0  0  0  0
   -0.1870    2.3166   -0.2373 H   0  0  0  0  0  0  0  0  0  0  0  0
    1.9611    2.8916   -0.1411 H   0  0  0  0  0  0  0  0  0  0  0  0
    2.0821    2.4578    1.5634 H   0  0  0  0  0  0  0  0  0  0  0  0
    0.7121   -0.5195   -1.5466 H   0  0  0  0  0  0  0  0  0  0  0  0
    0.8759   -1.6416   -0.0615 H   0  0  0  0  0  0  0  0  0  0  0  0
    3.0211   -2.1163   -0.8864 H   0  0  0  0  0  0  0  0  0  0  0  0
    6.0966    0.6013    0.2819 H   0  0  0  0  0  0  0  0  0  0  0  0
    4.3784    2.2555    0.7967 H   0  0  0  0  0  0  0  0  0  0  0  0
    5.8053   -2.5792    0.0091 H   0  0  0  0  0  0  0  0  0  0  0  0
   -1.8415    0.4467    1.8218 H   0  0  0  0  0  0  0  0  0  0  0  0
   -3.2461   -0.1403    0.9755 H   0  0  0  0  0  0  0  0  0  0  0  0
   -3.6607    2.1484    1.4721 H   0  0  0  0  0  0  0  0  0  0  0  0
   -2.0776    2.7273    0.9643 H   0  0  0  0  0  0  0  0  0  0  0  0
   -2.7168    2.1407   -1.4147 H   0  0  0  0  0  0  0  0  0  0  0  0
   -4.4047    1.8053   -0.7585 H   0  0  0  0  0  0  0  0  0  0  0  0
   -3.6569    3.4104   -0.5599 H   0  0  0  0  0  0  0  0  0  0  0  0
  1  2  1  0
  2  3  1  0
  3  4  1  0
  4  5  1  0
  5  6  1  0
  6  7  1  0
  7  8  1  0
  8  9  2  0
  9 10  1  0
  9 11  1  0
 11 12  2  0
 12 13  1  0
 13 14  2  0
 12 15  1  0
  4 16  1  0
 16 17  1  0
 17 18  1  0
 10  5  1  0
 14  8  1  0
  1 19  1  0
  1 20  1  0
  1 21  1  0
  2 22  1  0
  2 23  1  0
  3 24  1  0
  3 25  1  0
  5 26  1  0
  6 27  1  0
  6 28  1  0
  7 29  1  0
  7 30  1  0
 10 31  1  0
 10 32  1  0
 11 33  1  0
 13 34  1  0
 14 35  1  0
 15 36  1  0
 16 37  1  0
 16 38  1  0
 17 39  1  0
 17 40  1  0
 18 41  1  0
 18 42  1  0
 18 43  1  0
M  END
>  <Ligand ID>  (1) 
LIG0004341

>  <Ligand>  (1) 
7-OH-DPAT

>  <SMILES>  (1) 
CCCN(C1CCc2c(C1)cc(cc2)O)CCC

>  <CID>  (1) 
1219.0

>  <ChEMBL ID>  (1) 
nan

>  <InChiKey>  (1) 
BLYMJBIZMIGWFK-UHFFFAOYSA-N

>  <InChi>  (1) 
InChI=1S/C16H25NO/c1-3-9-17(10-4-2)15-7-5-13-6-8-16(18)12-14(13)11-15/h6,8,12,15,18H,3-5,7,9-11H2,1-2H3

>  <IUPAC Name>  (1) 
7-(dipropylamino)-5,6,7,8-tetrahydronaphthalen-2-ol

$$$$
