
     RDKit          3D

 29 29  0  0  0  0  0  0  0  0999 V2000
    4.0470    0.3820    0.2666 O   0  0  0  0  0  0  0  0  0  0  0  0
    3.1692   -0.4555   -0.3942 C   0  0  0  0  0  0  0  0  0  0  0  0
    3.4290   -0.8352   -1.5713 O   0  0  0  0  0  0  0  0  0  0  0  0
    1.8973   -0.9492    0.2225 C   0  0  0  0  0  0  0  0  0  0  0  0
    1.1355    0.1394    0.8787 C   0  0  0  0  0  0  0  0  0  0  0  0
    0.6805    1.2626    0.0555 C   0  0  0  0  0  0  0  0  0  0  0  0
   -0.3400    1.1046   -0.9971 C   0  0  0  0  0  0  0  0  0  0  0  0
   -1.6935    0.7705   -0.5692 C   0  0  0  0  0  0  0  0  0  0  0  0
   -2.3794   -0.3564   -0.2388 C   0  0  0  0  0  0  0  0  0  0  0  0
   -1.8905   -1.7280   -0.2696 C   0  0  0  0  0  0  0  0  0  0  0  0
   -3.6089   -0.0278    0.1283 O   0  0  0  0  0  0  0  0  0  0  0  0
   -3.7954    1.2480    0.0651 N   0  0  0  0  0  0  0  0  0  0  0  0
   -2.6529    1.8009   -0.3588 C   0  0  0  0  0  0  0  0  0  0  0  0
   -2.4941    3.0246   -0.5293 O   0  0  0  0  0  0  0  0  0  0  0  0
    1.2592   -1.7523   -0.7397 N   0  0  0  0  0  0  0  0  0  0  0  0
    4.8129    0.7688   -0.2900 H   0  0  0  0  0  0  0  0  0  0  0  0
    2.2469   -1.6312    1.0535 H   0  0  0  0  0  0  0  0  0  0  0  0
    1.8296    0.5477    1.6851 H   0  0  0  0  0  0  0  0  0  0  0  0
    0.3009   -0.3228    1.4775 H   0  0  0  0  0  0  0  0  0  0  0  0
    1.5642    1.8249   -0.3624 H   0  0  0  0  0  0  0  0  0  0  0  0
    0.2366    2.0256    0.7891 H   0  0  0  0  0  0  0  0  0  0  0  0
   -0.0520    0.3401   -1.7750 H   0  0  0  0  0  0  0  0  0  0  0  0
   -0.3908    2.0701   -1.5915 H   0  0  0  0  0  0  0  0  0  0  0  0
   -2.7727   -2.4162   -0.0901 H   0  0  0  0  0  0  0  0  0  0  0  0
   -1.1999   -1.8870    0.5787 H   0  0  0  0  0  0  0  0  0  0  0  0
   -1.4318   -2.0039   -1.2464 H   0  0  0  0  0  0  0  0  0  0  0  0
   -4.6918    1.7339    0.3079 H   0  0  0  0  0  0  0  0  0  0  0  0
    0.8581   -2.6471   -0.3740 H   0  0  0  0  0  0  0  0  0  0  0  0
    1.9269   -2.0309   -1.4921 H   0  0  0  0  0  0  0  0  0  0  0  0
  1  2  1  0
  2  3  2  0
  2  4  1  0
  4  5  1  0
  5  6  1  0
  6  7  1  0
  7  8  1  0
  8  9  2  0
  9 10  1  0
  9 11  1  0
 11 12  1  0
 12 13  1  0
 13 14  2  0
  4 15  1  0
 13  8  1  0
  1 16  1  0
  4 17  1  0
  5 18  1  0
  5 19  1  0
  6 20  1  0
  6 21  1  0
  7 22  1  0
  7 23  1  0
 10 24  1  0
 10 25  1  0
 10 26  1  0
 12 27  1  0
 15 28  1  0
 15 29  1  0
M  END
>  <Ligand ID>  (1) 
LIG0001674

>  <Ligand>  (1) 
CHEMBL324686

>  <SMILES>  (1) 
OC(=O)C(CCCc1c(C)o[nH]c1=O)N

>  <CID>  (1) 
44338561.0

>  <ChEMBL ID>  (1) 
nan

>  <InChiKey>  (1) 
KPBUTYWLSJNOCV-UHFFFAOYSA-N

>  <InChi>  (1) 
InChI=1S/C9H14N2O4/c1-5-6(8(12)11-15-5)3-2-4-7(10)9(13)14/h7H,2-4,10H2,1H3,(H,11,12)(H,13,14)

>  <IUPAC Name>  (1) 
2-amino-5-(5-methyl-3-oxo-1,2-oxazol-4-yl)pentanoic acid

$$$$
