
     RDKit          3D

 70 73  0  0  0  0  0  0  0  0999 V2000
   -3.3481   -3.0811    3.1895 C   0  0  0  0  0  0  0  0  0  0  0  0
   -2.3147   -2.2309    2.5958 N   0  0  0  0  0  0  0  0  0  0  0  0
   -2.7269   -1.1552    1.7793 C   0  0  0  0  0  0  0  0  0  0  0  0
   -3.9839   -1.0212    1.6377 O   0  0  0  0  0  0  0  0  0  0  0  0
   -1.8456   -0.1982    1.0970 C   0  0  1  0  0  0  0  0  0  0  0  0
   -0.4525   -0.5152    1.3133 N   0  0  0  0  0  0  0  0  0  0  0  0
    0.2219   -1.6573    0.7273 C   0  0  0  0  0  0  0  0  0  0  0  0
    1.4864   -1.1990   -0.0018 C   0  0  0  0  0  0  0  0  0  0  0  0
    2.3224   -0.4167    0.8988 N   0  0  0  0  0  0  0  0  0  0  0  0
    1.8134    0.5843    1.7769 C   0  0  2  0  0  0  0  0  0  0  0  0
    0.3567    0.3681    2.1199 C   0  0  0  0  0  0  0  0  0  0  0  0
   -0.1557    0.9555    3.1059 O   0  0  0  0  0  0  0  0  0  0  0  0
    2.0374    2.0004    1.3884 C   0  0  0  0  0  0  0  0  0  0  0  0
    1.4468    2.4354    0.0935 C   0  0  0  0  0  0  0  0  0  0  0  0
    3.7361   -0.6749    0.9297 C   0  0  0  0  0  0  0  0  0  0  0  0
    4.5039    0.0011    1.7009 O   0  0  0  0  0  0  0  0  0  0  0  0
    4.3911   -1.7034    0.1090 C   0  0  1  0  0  0  0  0  0  0  0  0
    4.4882   -1.2351   -1.3272 C   0  0  0  0  0  0  0  0  0  0  0  0
    5.2674   -0.0063   -1.5002 C   0  0  0  0  0  0  0  0  0  0  0  0
    6.6399   -0.1447   -1.7062 C   0  0  0  0  0  0  0  0  0  0  0  0
    7.4628    0.9526   -1.8845 C   0  0  0  0  0  0  0  0  0  0  0  0
    6.9501    2.2378   -1.8646 C   0  0  0  0  0  0  0  0  0  0  0  0
    5.5916    2.3592   -1.6601 C   0  0  0  0  0  0  0  0  0  0  0  0
    4.7561    1.2709   -1.4803 C   0  0  0  0  0  0  0  0  0  0  0  0
    7.7825    3.2791   -2.0414 F   0  0  0  0  0  0  0  0  0  0  0  0
    5.7923   -1.7436    0.5877 N   0  0  0  0  0  0  0  0  0  0  0  0
   -2.1917   -0.0682   -0.3424 C   0  0  0  0  0  0  0  0  0  0  0  0
   -3.5558    0.3930   -0.6376 C   0  0  0  0  0  0  0  0  0  0  0  0
   -3.8132    1.7617   -0.6417 C   0  0  0  0  0  0  0  0  0  0  0  0
   -5.0785    2.2416   -0.9388 C   0  0  0  0  0  0  0  0  0  0  0  0
   -6.1371    1.4084   -1.2421 C   0  0  0  0  0  0  0  0  0  0  0  0
   -5.8810    0.0519   -1.2381 C   0  0  0  0  0  0  0  0  0  0  0  0
   -4.6188   -0.4268   -0.9419 C   0  0  0  0  0  0  0  0  0  0  0  0
   -6.9115   -0.8326   -1.5366 C   0  0  0  0  0  0  0  0  0  0  0  0
   -8.1899   -0.3901   -1.8385 C   0  0  0  0  0  0  0  0  0  0  0  0
   -8.4321    0.9798   -1.8384 C   0  0  0  0  0  0  0  0  0  0  0  0
   -7.3988    1.8577   -1.5394 C   0  0  0  0  0  0  0  0  0  0  0  0
   -4.1897   -3.2469    2.5122 H   0  0  0  0  0  0  0  0  0  0  0  0
   -3.6146   -2.7252    4.2012 H   0  0  0  0  0  0  0  0  0  0  0  0
   -2.8734   -4.0913    3.3404 H   0  0  0  0  0  0  0  0  0  0  0  0
   -1.3190   -2.4231    2.7863 H   0  0  0  0  0  0  0  0  0  0  0  0
   -2.0886    0.7933    1.6118 H   0  0  0  0  0  0  0  0  0  0  0  0
   -0.3929   -2.2032    0.0149 H   0  0  0  0  0  0  0  0  0  0  0  0
    0.6058   -2.2912    1.5514 H   0  0  0  0  0  0  0  0  0  0  0  0
    1.2163   -0.6827   -0.9234 H   0  0  0  0  0  0  0  0  0  0  0  0
    2.0329   -2.1354   -0.2256 H   0  0  0  0  0  0  0  0  0  0  0  0
    2.3441    0.4327    2.7628 H   0  0  0  0  0  0  0  0  0  0  0  0
    3.1230    2.2204    1.4779 H   0  0  0  0  0  0  0  0  0  0  0  0
    1.5731    2.6312    2.2030 H   0  0  0  0  0  0  0  0  0  0  0  0
    0.6037    3.1736    0.2475 H   0  0  0  0  0  0  0  0  0  0  0  0
    2.1968    3.0427   -0.4949 H   0  0  0  0  0  0  0  0  0  0  0  0
    1.0273    1.6606   -0.5440 H   0  0  0  0  0  0  0  0  0  0  0  0
    3.9504   -2.7002    0.1448 H   0  0  0  0  0  0  0  0  0  0  0  0
    4.8914   -2.0807   -1.9567 H   0  0  0  0  0  0  0  0  0  0  0  0
    3.4769   -1.0416   -1.7795 H   0  0  0  0  0  0  0  0  0  0  0  0
    7.0922   -1.1476   -1.7299 H   0  0  0  0  0  0  0  0  0  0  0  0
    8.5321    0.7902   -2.0428 H   0  0  0  0  0  0  0  0  0  0  0  0
    5.1901    3.3660   -1.6445 H   0  0  0  0  0  0  0  0  0  0  0  0
    3.7037    1.3758   -1.3247 H   0  0  0  0  0  0  0  0  0  0  0  0
    5.8361   -1.4835    1.5931 H   0  0  0  0  0  0  0  0  0  0  0  0
    6.1691   -2.6816    0.3588 H   0  0  0  0  0  0  0  0  0  0  0  0
   -2.0957   -1.0685   -0.8672 H   0  0  0  0  0  0  0  0  0  0  0  0
   -1.4353    0.5569   -0.9083 H   0  0  0  0  0  0  0  0  0  0  0  0
   -3.0607    2.4873   -0.4201 H   0  0  0  0  0  0  0  0  0  0  0  0
   -5.2767    3.3006   -0.9418 H   0  0  0  0  0  0  0  0  0  0  0  0
   -4.4875   -1.4915   -0.9669 H   0  0  0  0  0  0  0  0  0  0  0  0
   -6.7109   -1.9150   -1.5344 H   0  0  0  0  0  0  0  0  0  0  0  0
   -9.0034   -1.0709   -2.0735 H   0  0  0  0  0  0  0  0  0  0  0  0
   -9.4313    1.2967   -2.0757 H   0  0  0  0  0  0  0  0  0  0  0  0
   -7.5963    2.9141   -1.5419 H   0  0  0  0  0  0  0  0  0  0  0  0
  1  2  1  0
  2  3  1  0
  3  4  2  0
  3  5  1  0
  5  6  1  0
  6  7  1  0
  7  8  1  0
  8  9  1  0
  9 10  1  0
 10 11  1  0
 11 12  2  0
 10 13  1  0
 13 14  1  0
  9 15  1  0
 15 16  2  0
 15 17  1  0
 17 18  1  0
 18 19  1  0
 19 20  2  0
 20 21  1  0
 21 22  2  0
 22 23  1  0
 23 24  2  0
 22 25  1  0
 17 26  1  0
  5 27  1  0
 27 28  1  0
 28 29  2  0
 29 30  1  0
 30 31  2  0
 31 32  1  0
 32 33  2  0
 32 34  1  0
 34 35  2  0
 35 36  1  0
 36 37  2  0
 11  6  1  0
 24 19  1  0
 33 28  1  0
 37 31  1  0
  1 38  1  0
  1 39  1  0
  1 40  1  0
  2 41  1  0
  5 42  1  1
  7 43  1  0
  7 44  1  0
  8 45  1  0
  8 46  1  0
 10 47  1  1
 13 48  1  0
 13 49  1  0
 14 50  1  0
 14 51  1  0
 14 52  1  0
 17 53  1  6
 18 54  1  0
 18 55  1  0
 20 56  1  0
 21 57  1  0
 23 58  1  0
 24 59  1  0
 26 60  1  0
 26 61  1  0
 27 62  1  0
 27 63  1  0
 29 64  1  0
 30 65  1  0
 33 66  1  0
 34 67  1  0
 35 68  1  0
 36 69  1  0
 37 70  1  0
M  END
>  <Ligand ID>  (1) 
LIG0003543

>  <Ligand>  (1) 
CHEMBL460349

>  <SMILES>  (1) 
CNC(=O)[C@@H](N1CCN([C@H](C1=O)CC)C(=O)[C@@H](Cc1ccc(cc1)F)N)Cc1ccc2c(c1)cccc2

>  <CID>  (1) 
25132524.0

>  <ChEMBL ID>  (1) 
nan

>  <InChiKey>  (1) 
YBCXRFXRMKTZQS-ZNZIZOMTSA-N

>  <InChi>  (1) 
InChI=1S/C29H33FN4O3/c1-3-25-29(37)34(15-14-33(25)28(36)24(31)17-19-9-12-23(30)13-10-19)26(27(35)32-2)18-20-8-11-21-6-4-5-7-22(21)16-20/h4-13,16,24-26H,3,14-15,17-18,31H2,1-2H3,(H,32,35)/t24-,25+,26+/m1/s1

>  <IUPAC Name>  (1) 
(2S)-2-[(3S)-4-[(2R)-2-amino-3-(4-fluorophenyl)propanoyl]-3-ethyl-2-oxopiperazin-1-yl]-N-methyl-3-naphthalen-2-ylpropanamide

$$$$
