
     RDKit          3D

 55 58  0  0  0  0  0  0  0  0999 V2000
   -0.0892    2.7065   -0.9393 O   0  0  0  0  0  0  0  0  0  0  0  0
   -0.1762    1.4781   -0.0521 S   0  0  0  0  0  0  0  0  0  0  0  0
   -0.4610    1.9598    1.3414 O   0  0  0  0  0  0  0  0  0  0  0  0
    1.2660    0.5344   -0.1690 C   0  0  0  0  0  0  0  0  0  0  0  0
    1.6390   -0.2471    0.8899 C   0  0  0  0  0  0  0  0  0  0  0  0
    2.7848   -0.9979    0.7992 C   0  0  0  0  0  0  0  0  0  0  0  0
    3.5910   -1.0058   -0.3190 C   0  0  0  0  0  0  0  0  0  0  0  0
    3.2159   -0.2193   -1.3849 C   0  0  0  0  0  0  0  0  0  0  0  0
    2.0599    0.5501   -1.3175 C   0  0  0  0  0  0  0  0  0  0  0  0
    5.0382   -1.9646   -0.4120 S   0  0  0  0  0  0  0  0  0  0  0  0
    5.2506   -2.3335   -1.8528 O   0  0  0  0  0  0  0  0  0  0  0  0
    4.7693   -3.2286    0.3572 O   0  0  0  0  0  0  0  0  0  0  0  0
    6.4376   -1.1517    0.1387 N   0  0  0  0  0  0  0  0  0  0  0  0
    6.3912   -0.7567    1.5126 C   0  0  0  0  0  0  0  0  0  0  0  0
    7.6271   -0.5723    2.3112 C   0  0  0  0  0  0  0  0  0  0  0  0
    6.9058    0.6648    1.7840 C   0  0  0  0  0  0  0  0  0  0  0  0
   -1.5417    0.5878   -0.6160 N   0  0  0  0  0  0  0  0  0  0  0  0
   -1.3623    0.2466   -2.0077 C   0  0  0  0  0  0  0  0  0  0  0  0
   -2.5083   -0.5330   -2.5560 C   0  0  0  0  0  0  0  0  0  0  0  0
   -3.8602    0.0184   -2.1653 C   0  0  0  0  0  0  0  0  0  0  0  0
   -3.9091    0.3835   -0.6977 C   0  0  0  0  0  0  0  0  0  0  0  0
   -2.7612    1.3637   -0.4857 C   0  0  0  0  0  0  0  0  0  0  0  0
   -5.2141    1.0333   -0.3904 C   0  0  0  0  0  0  0  0  0  0  0  0
   -5.4707    1.2034    1.0790 C   0  0  0  0  0  0  0  0  0  0  0  0
   -5.3245   -0.1393    1.7684 C   0  0  0  0  0  0  0  0  0  0  0  0
   -3.9087   -0.6371    1.5771 C   0  0  0  0  0  0  0  0  0  0  0  0
   -3.6057   -0.8419    0.1127 C   0  0  0  0  0  0  0  0  0  0  0  0
    1.0314   -0.2705    1.7920 H   0  0  0  0  0  0  0  0  0  0  0  0
    3.0716   -1.6144    1.6449 H   0  0  0  0  0  0  0  0  0  0  0  0
    3.7793   -0.1629   -2.2917 H   0  0  0  0  0  0  0  0  0  0  0  0
    1.7814    1.1631   -2.1678 H   0  0  0  0  0  0  0  0  0  0  0  0
    6.6217   -0.3535   -0.4772 H   0  0  0  0  0  0  0  0  0  0  0  0
    5.4742   -1.0089    2.0768 H   0  0  0  0  0  0  0  0  0  0  0  0
    7.5668   -0.7682    3.4117 H   0  0  0  0  0  0  0  0  0  0  0  0
    8.6266   -0.7162    1.8932 H   0  0  0  0  0  0  0  0  0  0  0  0
    6.3515    1.2937    2.5043 H   0  0  0  0  0  0  0  0  0  0  0  0
    7.3641    1.2205    0.9464 H   0  0  0  0  0  0  0  0  0  0  0  0
   -1.1122    1.1256   -2.6362 H   0  0  0  0  0  0  0  0  0  0  0  0
   -0.4511   -0.4180   -2.0561 H   0  0  0  0  0  0  0  0  0  0  0  0
   -2.4407   -1.6294   -2.3152 H   0  0  0  0  0  0  0  0  0  0  0  0
   -2.4689   -0.4775   -3.6650 H   0  0  0  0  0  0  0  0  0  0  0  0
   -4.6050   -0.7802   -2.3415 H   0  0  0  0  0  0  0  0  0  0  0  0
   -4.1334    0.8758   -2.8142 H   0  0  0  0  0  0  0  0  0  0  0  0
   -2.8367    1.8557    0.5081 H   0  0  0  0  0  0  0  0  0  0  0  0
   -2.7386    2.1460   -1.2941 H   0  0  0  0  0  0  0  0  0  0  0  0
   -6.0389    0.4697   -0.8627 H   0  0  0  0  0  0  0  0  0  0  0  0
   -5.1795    2.0593   -0.8526 H   0  0  0  0  0  0  0  0  0  0  0  0
   -6.5392    1.4866    1.2074 H   0  0  0  0  0  0  0  0  0  0  0  0
   -4.8457    1.9912    1.5270 H   0  0  0  0  0  0  0  0  0  0  0  0
   -5.5208   -0.0756    2.8427 H   0  0  0  0  0  0  0  0  0  0  0  0
   -5.9982   -0.8434    1.2679 H   0  0  0  0  0  0  0  0  0  0  0  0
   -3.1519    0.0250    2.0277 H   0  0  0  0  0  0  0  0  0  0  0  0
   -3.8220   -1.6443    2.0686 H   0  0  0  0  0  0  0  0  0  0  0  0
   -4.0729   -1.7614   -0.2930 H   0  0  0  0  0  0  0  0  0  0  0  0
   -2.4963   -1.0147    0.0427 H   0  0  0  0  0  0  0  0  0  0  0  0
  1  2  2  0
  2  3  2  0
  2  4  1  0
  4  5  2  0
  5  6  1  0
  6  7  2  0
  7  8  1  0
  8  9  2  0
  7 10  1  0
 10 11  2  0
 10 12  2  0
 10 13  1  0
 13 14  1  0
 14 15  1  0
 15 16  1  0
  2 17  1  0
 17 18  1  0
 18 19  1  0
 19 20  1  0
 20 21  1  0
 21 22  1  0
 21 23  1  0
 23 24  1  0
 24 25  1  0
 25 26  1  0
 26 27  1  0
  9  4  1  0
 16 14  1  0
 22 17  1  0
 27 21  1  0
  5 28  1  0
  6 29  1  0
  8 30  1  0
  9 31  1  0
 13 32  1  0
 14 33  1  0
 15 34  1  0
 15 35  1  0
 16 36  1  0
 16 37  1  0
 18 38  1  0
 18 39  1  0
 19 40  1  0
 19 41  1  0
 20 42  1  0
 20 43  1  0
 22 44  1  0
 22 45  1  0
 23 46  1  0
 23 47  1  0
 24 48  1  0
 24 49  1  0
 25 50  1  0
 25 51  1  0
 26 52  1  0
 26 53  1  0
 27 54  1  0
 27 55  1  0
M  END
>  <Ligand ID>  (1) 
LIG0003073

>  <Ligand>  (1) 
MLS000030752

>  <SMILES>  (1) 
O=S(=O)(c1ccc(cc1)S(=O)(=O)NC1CC1)N1CCCC2(C1)CCCCC2

>  <CID>  (1) 
653596.0

>  <ChEMBL ID>  (1) 
nan

>  <InChiKey>  (1) 
MFOIDJVVDQNIJJ-UHFFFAOYSA-N

>  <InChi>  (1) 
InChI=1S/C19H28N2O4S2/c22-26(23,20-16-5-6-16)17-7-9-18(10-8-17)27(24,25)21-14-4-13-19(15-21)11-2-1-3-12-19/h7-10,16,20H,1-6,11-15H2

>  <IUPAC Name>  (1) 
4-(2-azaspiro[5.5]undecan-2-ylsulfonyl)-N-cyclopropylbenzenesulfonamide

$$$$
