
     RDKit          3D

201209  0  0  0  0  0  0  0  0999 V2000
    6.7209   -6.2616    1.3345 N   0  0  0  0  0  0  0  0  0  0  0  0
    7.1367   -4.9999    1.8169 C   0  0  0  0  0  0  0  0  0  0  0  0
    8.4048   -4.7563    1.8644 N   0  0  0  0  0  0  0  0  0  0  0  0
    6.2031   -4.0154    2.2425 N   0  0  0  0  0  0  0  0  0  0  0  0
    6.7490   -2.6577    2.4138 C   0  0  0  0  0  0  0  0  0  0  0  0
    7.1284   -2.0778    1.0787 C   0  0  0  0  0  0  0  0  0  0  0  0
    5.9624   -1.9646    0.1711 C   0  0  0  0  0  0  0  0  0  0  0  0
    4.8793   -1.0291    0.7370 C   0  0  2  0  0  0  0  0  0  0  0  0
    3.7707   -1.0127   -0.1792 N   0  0  0  0  0  0  0  0  0  0  0  0
    3.7828   -0.7508   -1.5718 C   0  0  0  0  0  0  0  0  0  0  0  0
    4.8342   -0.3429   -2.0585 O   0  0  0  0  0  0  0  0  0  0  0  0
    2.5518   -0.9539   -2.4166 C   0  0  1  0  0  0  0  0  0  0  0  0
    2.8626   -1.4638   -3.7757 C   0  0  0  0  0  0  0  0  0  0  0  0
    3.5216   -2.7395   -3.9392 C   0  0  0  0  0  0  0  0  0  0  0  0
    2.7393   -3.8730   -4.1161 C   0  0  0  0  0  0  0  0  0  0  0  0
    3.2553   -5.1361   -4.2778 C   0  0  0  0  0  0  0  0  0  0  0  0
    4.6124   -5.2991   -4.2643 C   0  0  0  0  0  0  0  0  0  0  0  0
    5.4431   -4.2224   -4.0934 C   0  0  0  0  0  0  0  0  0  0  0  0
    4.8938   -2.9601   -3.9345 C   0  0  0  0  0  0  0  0  0  0  0  0
    6.8031   -4.4552   -4.0808 C   0  0  0  0  0  0  0  0  0  0  0  0
    7.3341   -5.7350   -4.2354 C   0  0  0  0  0  0  0  0  0  0  0  0
    6.5046   -6.8209   -4.4065 C   0  0  0  0  0  0  0  0  0  0  0  0
    5.1506   -6.5780   -4.4179 C   0  0  0  0  0  0  0  0  0  0  0  0
    1.6615   -1.7642   -1.6172 N   0  0  0  0  0  0  0  0  0  0  0  0
    0.2596   -1.6186   -1.4848 C   0  0  0  0  0  0  0  0  0  0  0  0
   -0.2140   -0.6932   -2.2091 O   0  0  0  0  0  0  0  0  0  0  0  0
   -0.6346   -2.3812   -0.6572 C   0  0  2  0  0  0  0  0  0  0  0  0
   -0.5919   -3.8678   -0.6127 C   0  0  0  0  0  0  0  0  0  0  0  0
    0.5786   -4.5769   -0.1648 C   0  0  0  0  0  0  0  0  0  0  0  0
    1.6346   -5.1970   -0.7958 C   0  0  0  0  0  0  0  0  0  0  0  0
    2.4511   -5.8001    0.0793 N   0  0  0  0  0  0  0  0  0  0  0  0
    1.9227   -5.5715    1.2974 C   0  0  0  0  0  0  0  0  0  0  0  0
    0.8144   -4.8490    1.1684 N   0  0  0  0  0  0  0  0  0  0  0  0
   -2.0579   -2.0372   -0.9221 N   0  0  0  0  0  0  0  0  0  0  0  0
   -3.0026   -2.2455    0.1261 C   0  0  0  0  0  0  0  0  0  0  0  0
   -2.5301   -2.6117    1.2080 O   0  0  0  0  0  0  0  0  0  0  0  0
   -4.4561   -2.0693    0.0057 C   0  0  1  0  0  0  0  0  0  0  0  0
   -4.9223   -2.8673    1.1908 N   0  0  0  0  0  0  0  0  0  0  0  0
   -5.5614   -4.1009    1.0426 C   0  0  0  0  0  0  0  0  0  0  0  0
   -5.7576   -4.5578   -0.0950 O   0  0  0  0  0  0  0  0  0  0  0  0
   -5.9868   -4.8388    2.2416 C   0  0  2  0  0  0  0  0  0  0  0  0
   -7.4158   -5.3213    2.1807 C   0  0  0  0  0  0  0  0  0  0  0  0
   -7.7158   -6.0510    3.4716 C   0  0  0  0  0  0  0  0  0  0  0  0
   -8.2505   -5.3520    4.5542 C   0  0  0  0  0  0  0  0  0  0  0  0
   -8.5047   -6.0230    5.7260 C   0  0  0  0  0  0  0  0  0  0  0  0
   -8.2385   -7.3888    5.8562 C   0  0  0  0  0  0  0  0  0  0  0  0
   -7.7095   -8.0687    4.7758 C   0  0  0  0  0  0  0  0  0  0  0  0
   -7.4471   -7.4074    3.5843 C   0  0  0  0  0  0  0  0  0  0  0  0
   -8.5183   -8.0033    7.0727 O   0  0  0  0  0  0  0  0  0  0  0  0
   -5.8452   -3.9892    3.4050 N   0  0  0  0  0  0  0  0  0  0  0  0
   -5.0560   -0.7342    0.1787 C   0  0  0  0  0  0  0  0  0  0  0  0
   -4.5934    0.4056   -0.5652 C   0  0  0  0  0  0  0  0  0  0  0  0
   -3.3922    0.6710   -0.6327 O   0  0  0  0  0  0  0  0  0  0  0  0
   -5.3587    1.3746   -1.3206 N   0  0  0  0  0  0  0  0  0  0  0  0
   -6.7409    1.0235   -1.4867 C   0  0  2  0  0  0  0  0  0  0  0  0
   -7.5493    1.0211   -0.2608 C   0  0  0  0  0  0  0  0  0  0  0  0
   -7.0817    1.2896    0.9032 O   0  0  0  0  0  0  0  0  0  0  0  0
   -8.9269    0.7203   -0.2791 N   0  0  0  0  0  0  0  0  0  0  0  0
   -6.8877   -0.1325   -2.4292 C   0  0  0  0  0  0  0  0  0  0  0  0
   -8.2848   -0.5176   -2.6078 C   0  0  0  0  0  0  0  0  0  0  0  0
   -9.1032    0.0876   -3.5742 C   0  0  0  0  0  0  0  0  0  0  0  0
  -10.3973   -0.2929   -3.7818 C   0  0  0  0  0  0  0  0  0  0  0  0
  -10.9294   -1.3257   -3.0002 C   0  0  0  0  0  0  0  0  0  0  0  0
  -10.1597   -1.9514   -2.0344 C   0  0  0  0  0  0  0  0  0  0  0  0
   -8.8495   -1.5143   -1.8771 C   0  0  0  0  0  0  0  0  0  0  0  0
  -12.2637   -1.6997   -3.2321 O   0  0  0  0  0  0  0  0  0  0  0  0
   -4.7378    2.5865   -1.8497 C   0  0  0  0  0  0  0  0  0  0  0  0
   -5.8281    3.4153   -2.4626 C   0  0  0  0  0  0  0  0  0  0  0  0
   -3.9138    3.3008   -0.9284 N   0  0  0  0  0  0  0  0  0  0  0  0
   -4.3134    3.8521    0.3239 C   0  0  0  0  0  0  0  0  0  0  0  0
   -5.4590    3.7114    0.6746 O   0  0  0  0  0  0  0  0  0  0  0  0
   -3.3303    4.5964    1.2062 C   0  0  1  0  0  0  0  0  0  0  0  0
   -2.2472    5.0726    0.3953 N   0  0  0  0  0  0  0  0  0  0  0  0
   -0.8900    4.6539    0.4449 C   0  0  0  0  0  0  0  0  0  0  0  0
   -0.6226    3.8299    1.3238 O   0  0  0  0  0  0  0  0  0  0  0  0
    0.0335    5.2259   -0.5258 C   0  0  1  0  0  0  0  0  0  0  0  0
    1.4158    4.8357   -0.4413 N   0  0  0  0  0  0  0  0  0  0  0  0
    2.4420    5.8484   -0.6521 C   0  0  0  0  0  0  0  0  0  0  0  0
    2.0086    6.9831   -0.8270 O   0  0  0  0  0  0  0  0  0  0  0  0
    3.8685    5.5592   -0.6606 C   0  0  1  0  0  0  0  0  0  0  0  0
    4.2825    4.2236   -0.3609 N   0  0  0  0  0  0  0  0  0  0  0  0
    5.4007    3.9742    0.5176 C   0  0  0  0  0  0  0  0  0  0  0  0
    5.9178    5.0228    0.9682 O   0  0  0  0  0  0  0  0  0  0  0  0
    5.9449    2.6894    0.8954 C   0  0  1  0  0  0  0  0  0  0  0  0
    5.1872    1.5185    0.4236 N   0  0  0  0  0  0  0  0  0  0  0  0
    5.4688    0.2621    1.0928 C   0  0  0  0  0  0  0  0  0  0  0  0
    6.2883    0.3989    2.0242 O   0  0  0  0  0  0  0  0  0  0  0  0
    7.3838    2.5456    0.3068 C   0  0  0  0  0  0  0  0  0  0  0  0
    8.2825    3.5991    0.8019 C   0  0  0  0  0  0  0  0  0  0  0  0
    8.7232    4.7028    0.0617 C   0  0  0  0  0  0  0  0  0  0  0  0
    9.5397    5.4418    0.8288 N   0  0  0  0  0  0  0  0  0  0  0  0
    9.6251    4.8372    2.0233 C   0  0  0  0  0  0  0  0  0  0  0  0
    8.8638    3.6944    2.0510 C   0  0  0  0  0  0  0  0  0  0  0  0
    8.8312    2.9474    3.1929 C   0  0  0  0  0  0  0  0  0  0  0  0
    9.5566    3.3390    4.3060 C   0  0  0  0  0  0  0  0  0  0  0  0
   10.3307    4.4998    4.2791 C   0  0  0  0  0  0  0  0  0  0  0  0
   10.3661    5.2552    3.1297 C   0  0  0  0  0  0  0  0  0  0  0  0
    4.3109    5.9445   -2.1015 C   0  0  0  0  0  0  0  0  0  0  0  0
    5.7605    5.6758   -2.2532 C   0  0  0  0  0  0  0  0  0  0  0  0
    6.0997    4.4489   -2.1338 O   0  0  0  0  0  0  0  0  0  0  0  0
    6.7248    6.6839   -2.5127 N   0  0  0  0  0  0  0  0  0  0  0  0
   -0.5006    4.9324   -1.9441 C   0  0  0  0  0  0  0  0  0  0  0  0
   -4.0883    5.7508    1.7747 C   0  0  0  0  0  0  0  0  0  0  0  0
   -3.3025    6.6026    2.6888 C   0  0  0  0  0  0  0  0  0  0  0  0
   -2.5932    7.7185    2.2996 C   0  0  0  0  0  0  0  0  0  0  0  0
   -1.8982    8.4008    3.2797 C   0  0  0  0  0  0  0  0  0  0  0  0
   -1.8813    8.0260    4.5984 C   0  0  0  0  0  0  0  0  0  0  0  0
   -2.5924    6.9060    4.9941 C   0  0  0  0  0  0  0  0  0  0  0  0
   -3.2939    6.2069    4.0356 C   0  0  0  0  0  0  0  0  0  0  0  0
   -3.8282    2.2149   -3.0014 C   0  0  0  0  0  0  0  0  0  0  0  0
   -2.6287    2.5839   -2.9376 O   0  0  0  0  0  0  0  0  0  0  0  0
   -4.2600    1.5000   -4.0961 O   0  0  0  0  0  0  0  0  0  0  0  0
    7.1191   -6.5705    0.4084 H   0  0  0  0  0  0  0  0  0  0  0  0
    6.0664   -6.9062    1.8061 H   0  0  0  0  0  0  0  0  0  0  0  0
    9.1283   -5.4405    1.5667 H   0  0  0  0  0  0  0  0  0  0  0  0
    5.2075   -4.2423    2.4126 H   0  0  0  0  0  0  0  0  0  0  0  0
    5.9873   -2.0947    2.9360 H   0  0  0  0  0  0  0  0  0  0  0  0
    7.6254   -2.7645    3.0930 H   0  0  0  0  0  0  0  0  0  0  0  0
    7.6256   -1.1193    1.2178 H   0  0  0  0  0  0  0  0  0  0  0  0
    7.9275   -2.7545    0.6153 H   0  0  0  0  0  0  0  0  0  0  0  0
    5.4285   -2.9330    0.0107 H   0  0  0  0  0  0  0  0  0  0  0  0
    6.2564   -1.5570   -0.8003 H   0  0  0  0  0  0  0  0  0  0  0  0
    4.5268   -1.5737    1.6710 H   0  0  0  0  0  0  0  0  0  0  0  0
    2.8290   -1.2012    0.2049 H   0  0  0  0  0  0  0  0  0  0  0  0
    2.0828    0.0774   -2.5157 H   0  0  0  0  0  0  0  0  0  0  0  0
    1.9328   -1.4994   -4.4315 H   0  0  0  0  0  0  0  0  0  0  0  0
    3.4590   -0.6456   -4.2965 H   0  0  0  0  0  0  0  0  0  0  0  0
    1.6516   -3.7646   -4.1240 H   0  0  0  0  0  0  0  0  0  0  0  0
    2.5716   -5.9659   -4.4160 H   0  0  0  0  0  0  0  0  0  0  0  0
    5.5969   -2.1526   -3.8219 H   0  0  0  0  0  0  0  0  0  0  0  0
    7.4777   -3.6253   -3.9471 H   0  0  0  0  0  0  0  0  0  0  0  0
    8.4097   -5.9189   -4.2303 H   0  0  0  0  0  0  0  0  0  0  0  0
    6.9173   -7.8128   -4.5254 H   0  0  0  0  0  0  0  0  0  0  0  0
    4.4471   -7.3829   -4.5511 H   0  0  0  0  0  0  0  0  0  0  0  0
    2.0771   -2.5244   -1.0770 H   0  0  0  0  0  0  0  0  0  0  0  0
   -0.5498   -2.0562    0.4495 H   0  0  0  0  0  0  0  0  0  0  0  0
   -1.5361   -4.2113   -0.0811 H   0  0  0  0  0  0  0  0  0  0  0  0
   -0.8045   -4.2598   -1.6738 H   0  0  0  0  0  0  0  0  0  0  0  0
    1.7735   -5.2042   -1.8435 H   0  0  0  0  0  0  0  0  0  0  0  0
    2.4025   -5.9605    2.2014 H   0  0  0  0  0  0  0  0  0  0  0  0
    0.2178   -4.5375    1.9677 H   0  0  0  0  0  0  0  0  0  0  0  0
   -2.4093   -1.6660   -1.7846 H   0  0  0  0  0  0  0  0  0  0  0  0
   -4.8882   -2.5893   -0.8624 H   0  0  0  0  0  0  0  0  0  0  0  0
   -4.7175   -2.4127    2.1143 H   0  0  0  0  0  0  0  0  0  0  0  0
   -5.3408   -5.7575    2.3820 H   0  0  0  0  0  0  0  0  0  0  0  0
   -8.0828   -4.4392    2.1246 H   0  0  0  0  0  0  0  0  0  0  0  0
   -7.6022   -5.9584    1.3074 H   0  0  0  0  0  0  0  0  0  0  0  0
   -8.4745   -4.2924    4.4907 H   0  0  0  0  0  0  0  0  0  0  0  0
   -8.9181   -5.4481    6.5422 H   0  0  0  0  0  0  0  0  0  0  0  0
   -7.5000   -9.1395    4.8758 H   0  0  0  0  0  0  0  0  0  0  0  0
   -7.0310   -7.9842    2.7639 H   0  0  0  0  0  0  0  0  0  0  0  0
   -9.2342   -8.6772    7.2201 H   0  0  0  0  0  0  0  0  0  0  0  0
   -6.4024   -3.1172    3.2506 H   0  0  0  0  0  0  0  0  0  0  0  0
   -4.8744   -3.7581    3.6553 H   0  0  0  0  0  0  0  0  0  0  0  0
   -5.0011   -0.4088    1.2823 H   0  0  0  0  0  0  0  0  0  0  0  0
   -6.1574   -0.9006   -0.0497 H   0  0  0  0  0  0  0  0  0  0  0  0
   -7.2455    1.8801   -2.0838 H   0  0  0  0  0  0  0  0  0  0  0  0
   -9.6226    1.0910   -0.9494 H   0  0  0  0  0  0  0  0  0  0  0  0
   -9.3056    0.0665    0.4563 H   0  0  0  0  0  0  0  0  0  0  0  0
   -6.6060    0.3180   -3.4571 H   0  0  0  0  0  0  0  0  0  0  0  0
   -6.2075   -0.9918   -2.2524 H   0  0  0  0  0  0  0  0  0  0  0  0
   -8.6377    0.8758   -4.1395 H   0  0  0  0  0  0  0  0  0  0  0  0
  -10.9986    0.2022   -4.5432 H   0  0  0  0  0  0  0  0  0  0  0  0
  -10.5747   -2.7356   -1.4404 H   0  0  0  0  0  0  0  0  0  0  0  0
   -8.2565   -2.0037   -1.1227 H   0  0  0  0  0  0  0  0  0  0  0  0
  -12.4513   -2.2382   -4.0626 H   0  0  0  0  0  0  0  0  0  0  0  0
   -6.2578    2.9970   -3.3684 H   0  0  0  0  0  0  0  0  0  0  0  0
   -6.5881    3.6817   -1.7112 H   0  0  0  0  0  0  0  0  0  0  0  0
   -5.3382    4.4092   -2.7027 H   0  0  0  0  0  0  0  0  0  0  0  0
   -2.9130    3.4630   -1.1381 H   0  0  0  0  0  0  0  0  0  0  0  0
   -2.9872    3.8977    2.0056 H   0  0  0  0  0  0  0  0  0  0  0  0
   -2.4608    5.8090   -0.2942 H   0  0  0  0  0  0  0  0  0  0  0  0
   -0.0166    6.3335   -0.4683 H   0  0  0  0  0  0  0  0  0  0  0  0
    1.7925    3.9140   -0.2416 H   0  0  0  0  0  0  0  0  0  0  0  0
    4.4570    6.2627   -0.0330 H   0  0  0  0  0  0  0  0  0  0  0  0
    3.8458    3.3704   -0.7216 H   0  0  0  0  0  0  0  0  0  0  0  0
    6.1539    2.6346    1.9815 H   0  0  0  0  0  0  0  0  0  0  0  0
    4.4899    1.4971   -0.2834 H   0  0  0  0  0  0  0  0  0  0  0  0
    7.3479    2.4514   -0.7854 H   0  0  0  0  0  0  0  0  0  0  0  0
    7.7563    1.5579    0.6750 H   0  0  0  0  0  0  0  0  0  0  0  0
    8.4843    4.9642   -0.9511 H   0  0  0  0  0  0  0  0  0  0  0  0
   10.0237    6.3280    0.5420 H   0  0  0  0  0  0  0  0  0  0  0  0
    8.2338    2.0605    3.2056 H   0  0  0  0  0  0  0  0  0  0  0  0
    9.5569    2.7716    5.2379 H   0  0  0  0  0  0  0  0  0  0  0  0
   10.8953    4.7916    5.1638 H   0  0  0  0  0  0  0  0  0  0  0  0
   10.9639    6.1588    3.0956 H   0  0  0  0  0  0  0  0  0  0  0  0
    3.7601    5.3149   -2.8188 H   0  0  0  0  0  0  0  0  0  0  0  0
    4.1380    7.0233   -2.2183 H   0  0  0  0  0  0  0  0  0  0  0  0
    7.0868    6.8116   -3.4891 H   0  0  0  0  0  0  0  0  0  0  0  0
    7.0908    7.3063   -1.7584 H   0  0  0  0  0  0  0  0  0  0  0  0
   -1.5468    5.2620   -1.9600 H   0  0  0  0  0  0  0  0  0  0  0  0
   -0.3279    3.8887   -2.2094 H   0  0  0  0  0  0  0  0  0  0  0  0
    0.0651    5.6209   -2.6102 H   0  0  0  0  0  0  0  0  0  0  0  0
   -4.9998    5.4077    2.3489 H   0  0  0  0  0  0  0  0  0  0  0  0
   -4.5535    6.3803    0.9555 H   0  0  0  0  0  0  0  0  0  0  0  0
   -2.6123    8.0096    1.2626 H   0  0  0  0  0  0  0  0  0  0  0  0
   -1.3310    9.2877    3.0038 H   0  0  0  0  0  0  0  0  0  0  0  0
   -1.3421    8.5443    5.3816 H   0  0  0  0  0  0  0  0  0  0  0  0
   -2.6197    6.5560    6.0238 H   0  0  0  0  0  0  0  0  0  0  0  0
   -3.8558    5.3206    4.3576 H   0  0  0  0  0  0  0  0  0  0  0  0
   -3.7868    1.5134   -4.9946 H   0  0  0  0  0  0  0  0  0  0  0  0
  1  2  1  0
  2  3  2  3
  2  4  1  0
  4  5  1  0
  5  6  1  0
  6  7  1  0
  7  8  1  0
  8  9  1  0
  9 10  1  0
 10 11  2  0
 10 12  1  0
 12 13  1  0
 13 14  1  0
 14 15  2  0
 15 16  1  0
 16 17  2  0
 17 18  1  0
 18 19  2  0
 18 20  1  0
 20 21  2  0
 21 22  1  0
 22 23  2  0
 12 24  1  0
 24 25  1  0
 25 26  2  0
 25 27  1  0
 27 28  1  0
 28 29  1  0
 29 30  2  0
 30 31  1  0
 31 32  2  0
 32 33  1  0
 27 34  1  0
 34 35  1  0
 35 36  2  0
 35 37  1  0
 37 38  1  0
 38 39  1  0
 39 40  2  0
 39 41  1  0
 41 42  1  0
 42 43  1  0
 43 44  2  0
 44 45  1  0
 45 46  2  0
 46 47  1  0
 47 48  2  0
 46 49  1  0
 41 50  1  0
 37 51  1  0
 51 52  1  0
 52 53  2  0
 52 54  1  0
 54 55  1  0
 55 56  1  0
 56 57  2  0
 56 58  1  0
 55 59  1  0
 59 60  1  0
 60 61  2  0
 61 62  1  0
 62 63  2  0
 63 64  1  0
 64 65  2  0
 63 66  1  0
 54 67  1  0
 67 68  1  0
 67 69  1  0
 69 70  1  0
 70 71  2  0
 70 72  1  0
 72 73  1  0
 73 74  1  0
 74 75  2  0
 74 76  1  0
 76 77  1  0
 77 78  1  0
 78 79  2  0
 78 80  1  0
 80 81  1  0
 81 82  1  0
 82 83  2  0
 82 84  1  0
 84 85  1  0
 85 86  1  0
 86 87  2  0
 84 88  1  0
 88 89  1  0
 89 90  2  0
 90 91  1  0
 91 92  1  0
 92 93  2  0
 93 94  1  0
 94 95  2  0
 95 96  1  0
 96 97  2  0
 80 98  1  0
 98 99  1  0
 99100  2  0
 99101  1  0
 76102  1  0
 72103  1  0
103104  1  0
104105  2  0
105106  1  0
106107  2  0
107108  1  0
108109  2  0
 67110  1  0
110111  2  0
110112  1  0
 86  8  1  0
 93 89  1  0
109104  1  0
 19 14  1  0
 33 29  1  0
 48 43  1  0
 65 60  1  0
 97 92  1  0
 23 17  1  0
  1113  1  0
  1114  1  0
  3115  1  0
  4116  1  0
  5117  1  0
  5118  1  0
  6119  1  0
  6120  1  0
  7121  1  0
  7122  1  0
  8123  1  1
  9124  1  0
 12125  1  6
 13126  1  0
 13127  1  0
 15128  1  0
 16129  1  0
 19130  1  0
 20131  1  0
 21132  1  0
 22133  1  0
 23134  1  0
 24135  1  0
 27136  1  1
 28137  1  0
 28138  1  0
 30139  1  0
 32140  1  0
 33141  1  0
 34142  1  0
 37143  1  6
 38144  1  0
 41145  1  1
 42146  1  0
 42147  1  0
 44148  1  0
 45149  1  0
 47150  1  0
 48151  1  0
 49152  1  0
 50153  1  0
 50154  1  0
 51155  1  0
 51156  1  0
 55157  1  6
 58158  1  0
 58159  1  0
 59160  1  0
 59161  1  0
 61162  1  0
 62163  1  0
 64164  1  0
 65165  1  0
 66166  1  0
 68167  1  0
 68168  1  0
 68169  1  0
 69170  1  0
 72171  1  1
 73172  1  0
 76173  1  1
 77174  1  0
 80175  1  1
 81176  1  0
 84177  1  1
 85178  1  0
 88179  1  0
 88180  1  0
 90181  1  0
 91182  1  0
 94183  1  0
 95184  1  0
 96185  1  0
 97186  1  0
 98187  1  0
 98188  1  0
101189  1  0
101190  1  0
102191  1  0
102192  1  0
102193  1  0
103194  1  0
103195  1  0
105196  1  0
106197  1  0
107198  1  0
108199  1  0
109200  1  0
112201  1  0
M  END
>  <Ligand ID>  (1) 
LIG0005515

>  <Ligand>  (1) 
CHEMBL2096728

>  <SMILES>  (1) 
NC(=N)NCCC[C@@H]1NC(=O)[C@@H](Cc2ccc3c(c2)cccc3)NC(=O)[C@H](Cc2cnc[nH]2)NC(=O)[C@@H](NC(=O)[C@H](Cc2ccc(cc2)O)N)CC(=O)N([C@H](C(=O)N)Cc2ccc(cc2)O)C(C)(NC(=O)[C@@H](NC(=O)[C@@H](NC(=O)[C@@H](NC(=O)[C@@H](NC1=O)Cc1c[nH]c2c1cccc2)CC(=O)N)C)Cc1ccccc1)C(=O)O

>  <CID>  (1) 
91900711.0

>  <ChEMBL ID>  (1) 
nan

>  <InChiKey>  (1) 
FMLOYHHQNWSDOJ-ZJEFCHKESA-N

>  <InChi>  (1) 
InChI=1S/C77H89N19O16/c1-41-66(102)89-57(31-42-11-4-3-5-12-42)74(110)95-77(2,75(111)112)96(62(65(80)101)33-44-21-26-51(98)27-22-44)64(100)37-61(90-67(103)53(78)30-43-19-24-50(97)25-20-43)73(109)93-59(35-49-39-83-40-86-49)72(108)91-56(32-45-18-23-46-13-6-7-14-47(46)29-45)70(106)88-55(17-10-28-84-76(81)82)68(104)92-58(34-48-38-85-54-16-9-8-15-52(48)54)71(107)94-60(36-63(79)99)69(105)87-41/h3-9,11-16,18-27,29,38-41,53,55-62,85,97-98H,10,17,28,30-37,78H2,1-2H3,(H2,79,99)(H2,80,101)(H,83,86)(H,87,105)(H,88,106)(H,89,102)(H,90,103)(H,91,108)(H,92,104)(H,93,109)(H,94,107)(H,95,110)(H,111,112)(H4,81,82,84)/t41-,53-,55-,56+,57-,58-,59-,60-,61-,62-,77?/m0/s1

>  <IUPAC Name>  (1) 
(5S,8S,11S,14S,17S,20R,23S,26S)-1-[(2S)-1-amino-3-(4-hydroxyphenyl)-1-oxopropan-2-yl]-26-[[(2S)-2-amino-3-(4-hydroxyphenyl)propanoyl]amino]-11-(2-amino-2-oxoethyl)-5-benzyl-17-(3-carbamimidamidopropyl)-23-(1H-imidazol-5-ylmethyl)-14-(1H-indol-3-ylmethyl)-2,8-dimethyl-20-(naphthalen-2-ylmethyl)-4,7,10,13,16,19,22,25,28-nonaoxo-1,3,6,9,12,15,18,21,24-nonazacyclooctacosane-2-carboxylic acid

$$$$
