
     RDKit          3D

 50 53  0  0  0  0  0  0  0  0999 V2000
    8.1962   -0.6155   -2.7947 Br  0  0  0  0  0  0  0  0  0  0  0  0
    6.5850   -0.7429   -1.7913 C   0  0  0  0  0  0  0  0  0  0  0  0
    5.7283    0.3200   -1.6053 C   0  0  0  0  0  0  0  0  0  0  0  0
    4.5655    0.2153   -0.8774 C   0  0  0  0  0  0  0  0  0  0  0  0
    4.1872   -0.9945   -0.2788 C   0  0  0  0  0  0  0  0  0  0  0  0
    5.0479   -2.0409   -0.4724 C   0  0  0  0  0  0  0  0  0  0  0  0
    6.2255   -1.9399   -1.2081 C   0  0  0  0  0  0  0  0  0  0  0  0
    2.9886   -1.0206    0.4509 N   0  0  0  0  0  0  0  0  0  0  0  0
    2.4301   -2.1182    1.1342 C   0  0  0  0  0  0  0  0  0  0  0  0
    2.9887   -3.2341    1.1501 O   0  0  0  0  0  0  0  0  0  0  0  0
    1.1426   -1.9840    1.8674 C   0  0  0  0  0  0  0  0  0  0  0  0
    0.6673   -0.6216    1.7087 N   0  0  0  0  0  0  0  0  0  0  0  0
    1.0445    0.3032    2.5775 N   0  0  0  0  0  0  0  0  0  0  0  0
    0.6433    1.5824    2.4715 C   0  0  0  0  0  0  0  0  0  0  0  0
    1.1217    2.5405    3.4874 C   0  0  0  0  0  0  0  0  0  0  0  0
   -0.1793    1.9209    1.4287 C   0  0  0  0  0  0  0  0  0  0  0  0
   -0.6142    0.9740    0.4715 C   0  0  0  0  0  0  0  0  0  0  0  0
   -0.1558   -0.2906    0.6628 C   0  0  0  0  0  0  0  0  0  0  0  0
   -0.4452   -1.2371   -0.0927 O   0  0  0  0  0  0  0  0  0  0  0  0
   -1.5037    1.4893   -0.5674 C   0  0  0  0  0  0  0  0  0  0  0  0
   -2.9397    1.2545   -0.3920 C   0  0  0  0  0  0  0  0  0  0  0  0
   -3.6167    2.1757    0.4298 C   0  0  0  0  0  0  0  0  0  0  0  0
   -4.9459    2.0119    0.7535 C   0  0  0  0  0  0  0  0  0  0  0  0
   -5.6760    0.9354    0.2849 C   0  0  0  0  0  0  0  0  0  0  0  0
   -5.0188    0.0323   -0.5218 C   0  0  0  0  0  0  0  0  0  0  0  0
   -3.6819    0.2073   -0.8411 C   0  0  0  0  0  0  0  0  0  0  0  0
   -3.1193   -0.7168   -1.6803 C   0  0  0  0  0  0  0  0  0  0  0  0
   -3.8494   -1.7676   -2.1745 C   0  0  0  0  0  0  0  0  0  0  0  0
   -5.1916   -1.9671   -1.8660 C   0  0  0  0  0  0  0  0  0  0  0  0
   -5.7560   -1.0203   -1.0138 C   0  0  0  0  0  0  0  0  0  0  0  0
    5.9694    1.2757   -2.0430 H   0  0  0  0  0  0  0  0  0  0  0  0
    3.9434    1.1096   -0.7803 H   0  0  0  0  0  0  0  0  0  0  0  0
    4.8379   -2.9952   -0.0540 H   0  0  0  0  0  0  0  0  0  0  0  0
    6.8834   -2.7819   -1.3434 H   0  0  0  0  0  0  0  0  0  0  0  0
    2.4275   -0.1180    0.5030 H   0  0  0  0  0  0  0  0  0  0  0  0
    0.3819   -2.7161    1.5272 H   0  0  0  0  0  0  0  0  0  0  0  0
    1.3246   -2.2073    2.9273 H   0  0  0  0  0  0  0  0  0  0  0  0
    0.2533    2.9100    4.0731 H   0  0  0  0  0  0  0  0  0  0  0  0
    1.5572    3.3966    2.9281 H   0  0  0  0  0  0  0  0  0  0  0  0
    1.8090    2.0889    4.1997 H   0  0  0  0  0  0  0  0  0  0  0  0
   -0.4947    2.9594    1.3563 H   0  0  0  0  0  0  0  0  0  0  0  0
   -1.1589    1.1660   -1.5994 H   0  0  0  0  0  0  0  0  0  0  0  0
   -1.3626    2.6061   -0.6277 H   0  0  0  0  0  0  0  0  0  0  0  0
   -3.0862    3.0441    0.8263 H   0  0  0  0  0  0  0  0  0  0  0  0
   -5.3990    2.7712    1.3978 H   0  0  0  0  0  0  0  0  0  0  0  0
   -6.7013    0.8698    0.5756 H   0  0  0  0  0  0  0  0  0  0  0  0
   -2.0925   -0.5784   -1.9639 H   0  0  0  0  0  0  0  0  0  0  0  0
   -3.4026   -2.5028   -2.8406 H   0  0  0  0  0  0  0  0  0  0  0  0
   -5.7604   -2.7969   -2.2571 H   0  0  0  0  0  0  0  0  0  0  0  0
   -6.7985   -1.1516   -0.7580 H   0  0  0  0  0  0  0  0  0  0  0  0
  1  2  1  0
  2  3  2  0
  3  4  1  0
  4  5  2  0
  5  6  1  0
  6  7  2  0
  5  8  1  0
  8  9  1  0
  9 10  2  0
  9 11  1  0
 11 12  1  0
 12 13  1  0
 13 14  2  0
 14 15  1  0
 14 16  1  0
 16 17  2  0
 17 18  1  0
 18 19  2  0
 17 20  1  0
 20 21  1  0
 21 22  2  0
 22 23  1  0
 23 24  2  0
 24 25  1  0
 25 26  2  0
 26 27  1  0
 27 28  2  0
 28 29  1  0
 29 30  2  0
  7  2  1  0
 18 12  1  0
 26 21  1  0
 30 25  1  0
  3 31  1  0
  4 32  1  0
  6 33  1  0
  7 34  1  0
  8 35  1  0
 11 36  1  0
 11 37  1  0
 15 38  1  0
 15 39  1  0
 15 40  1  0
 16 41  1  0
 20 42  1  0
 20 43  1  0
 22 44  1  0
 23 45  1  0
 24 46  1  0
 27 47  1  0
 28 48  1  0
 29 49  1  0
 30 50  1  0
M  END
>  <Ligand ID>  (1) 
LIG0003950

>  <Ligand>  (1) 
CHEMBL2391438

>  <SMILES>  (1) 
Brc1ccc(cc1)NC(=O)Cn1nc(C)cc(c1=O)Cc1cccc2c1cccc2

>  <CID>  (1) 
71699061.0

>  <ChEMBL ID>  (1) 
nan

>  <InChiKey>  (1) 
YSXUKSMIDAEZEQ-UHFFFAOYSA-N

>  <InChi>  (1) 
InChI=1S/C24H20BrN3O2/c1-16-13-19(14-18-7-4-6-17-5-2-3-8-22(17)18)24(30)28(27-16)15-23(29)26-21-11-9-20(25)10-12-21/h2-13H,14-15H2,1H3,(H,26,29)

>  <IUPAC Name>  (1) 
N-(4-bromophenyl)-2-[3-methyl-5-(naphthalen-1-ylmethyl)-6-oxopyridazin-1-yl]acetamide

$$$$
