
     RDKit          3D

 55 57  0  0  0  0  0  0  0  0999 V2000
    1.9783    3.4289    1.6635 O   0  0  0  0  0  0  0  0  0  0  0  0
    1.6618    2.1002    1.4017 C   0  0  2  0  0  0  0  0  0  0  0  0
    2.8797    1.2846    1.0122 C   0  0  2  0  0  0  0  0  0  0  0  0
    3.8604    2.1845    0.5728 O   0  0  0  0  0  0  0  0  0  0  0  0
    2.3569    0.4272   -0.1020 C   0  0  2  0  0  0  0  0  0  0  0  0
    0.9666    0.5958   -0.1149 O   0  0  0  0  0  0  0  0  0  0  0  0
    0.8126    1.9580    0.1566 C   0  0  1  0  0  0  0  0  0  0  0  0
   -0.5299    2.3199    0.4725 N   0  0  0  0  0  0  0  0  0  0  0  0
   -0.8049    3.6083    0.7272 C   0  0  0  0  0  0  0  0  0  0  0  0
   -2.0691    4.0615    1.0399 C   0  0  0  0  0  0  0  0  0  0  0  0
   -3.1036    3.1378    1.0927 C   0  0  0  0  0  0  0  0  0  0  0  0
   -4.2769    3.5183    1.3766 O   0  0  0  0  0  0  0  0  0  0  0  0
   -2.8127    1.8418    0.8339 N   0  0  0  0  0  0  0  0  0  0  0  0
   -1.5589    1.4467    0.5323 C   0  0  0  0  0  0  0  0  0  0  0  0
   -1.1564   -0.2711    0.1903 S   0  0  0  0  0  0  0  0  0  0  0  0
   -2.7174   -1.2249    0.3302 C   0  0  0  0  0  0  0  0  0  0  0  0
   -3.6182   -0.7759   -0.7906 C   0  0  0  0  0  0  0  0  0  0  0  0
   -4.9331   -1.4685   -0.8049 C   0  0  0  0  0  0  0  0  0  0  0  0
   -5.9969   -0.9301   -0.1108 C   0  0  0  0  0  0  0  0  0  0  0  0
   -7.2531   -1.5314   -0.0855 C   0  0  0  0  0  0  0  0  0  0  0  0
   -7.4387   -2.7084   -0.7804 C   0  0  0  0  0  0  0  0  0  0  0  0
   -6.3732   -3.2548   -1.4801 C   0  0  0  0  0  0  0  0  0  0  0  0
   -5.1262   -2.6522   -1.5015 C   0  0  0  0  0  0  0  0  0  0  0  0
    2.7756   -0.9995    0.1508 C   0  0  0  0  0  0  0  0  0  0  0  0
    4.1512   -1.1368    0.1563 O   0  0  0  0  0  0  0  0  0  0  0  0
    4.6673   -2.7015    0.4232 P   0  0  0  0  0  0  0  0  0  0  0  0
    3.6560   -3.4942    1.1893 O   0  0  0  0  0  0  0  0  0  0  0  0
    5.1484   -3.4656   -1.0074 O   0  0  0  0  0  0  0  0  0  0  0  0
    6.1135   -2.4071   -1.8809 P   0  0  0  0  0  0  0  0  0  0  0  0
    5.4703   -2.2691   -3.2553 O   0  0  0  0  0  0  0  0  0  0  0  0
    6.1233   -0.8539   -1.1787 O   0  0  0  0  0  0  0  0  0  0  0  0
    7.6832   -2.9620   -2.1100 O   0  0  0  0  0  0  0  0  0  0  0  0
    6.0812   -2.5891    1.3802 O   0  0  0  0  0  0  0  0  0  0  0  0
    2.7771    3.4446    2.2539 H   0  0  0  0  0  0  0  0  0  0  0  0
    1.1174    1.6220    2.2407 H   0  0  0  0  0  0  0  0  0  0  0  0
    3.2624    0.7037    1.8694 H   0  0  0  0  0  0  0  0  0  0  0  0
    3.6541    2.4748   -0.3720 H   0  0  0  0  0  0  0  0  0  0  0  0
    2.8055    0.8047   -1.0479 H   0  0  0  0  0  0  0  0  0  0  0  0
    1.2630    2.5934   -0.6371 H   0  0  0  0  0  0  0  0  0  0  0  0
   -0.0172    4.3742    0.6967 H   0  0  0  0  0  0  0  0  0  0  0  0
   -2.2484    5.1146    1.2393 H   0  0  0  0  0  0  0  0  0  0  0  0
   -3.1841   -0.8999    1.2824 H   0  0  0  0  0  0  0  0  0  0  0  0
   -2.5597   -2.3030    0.2982 H   0  0  0  0  0  0  0  0  0  0  0  0
   -3.8041    0.3105   -0.7410 H   0  0  0  0  0  0  0  0  0  0  0  0
   -3.1178   -1.0136   -1.7539 H   0  0  0  0  0  0  0  0  0  0  0  0
   -5.9187   -0.0087    0.4547 H   0  0  0  0  0  0  0  0  0  0  0  0
   -8.0861   -1.1168    0.4534 H   0  0  0  0  0  0  0  0  0  0  0  0
   -8.3860   -3.2134   -0.7946 H   0  0  0  0  0  0  0  0  0  0  0  0
   -6.5383   -4.1946   -2.0294 H   0  0  0  0  0  0  0  0  0  0  0  0
   -4.2877   -3.0662   -2.0412 H   0  0  0  0  0  0  0  0  0  0  0  0
    2.4374   -1.2566    1.1819 H   0  0  0  0  0  0  0  0  0  0  0  0
    2.2548   -1.7044   -0.5418 H   0  0  0  0  0  0  0  0  0  0  0  0
    7.0493   -0.5002   -1.0733 H   0  0  0  0  0  0  0  0  0  0  0  0
    8.2615   -2.5526   -1.3914 H   0  0  0  0  0  0  0  0  0  0  0  0
    6.6485   -1.9113    0.9541 H   0  0  0  0  0  0  0  0  0  0  0  0
  1  2  1  0
  2  3  1  0
  3  4  1  0
  3  5  1  0
  5  6  1  0
  6  7  1  0
  7  8  1  0
  8  9  1  0
  9 10  2  0
 10 11  1  0
 11 12  2  0
 11 13  1  0
 13 14  2  0
 14 15  1  0
 15 16  1  0
 16 17  1  0
 17 18  1  0
 18 19  2  0
 19 20  1  0
 20 21  2  0
 21 22  1  0
 22 23  2  0
  5 24  1  0
 24 25  1  0
 25 26  1  0
 26 27  2  0
 26 28  1  0
 28 29  1  0
 29 30  2  0
 29 31  1  0
 29 32  1  0
 26 33  1  0
  7  2  1  0
 14  8  1  0
 23 18  1  0
  1 34  1  0
  2 35  1  1
  3 36  1  1
  4 37  1  0
  5 38  1  6
  7 39  1  6
  9 40  1  0
 10 41  1  0
 16 42  1  0
 16 43  1  0
 17 44  1  0
 17 45  1  0
 19 46  1  0
 20 47  1  0
 21 48  1  0
 22 49  1  0
 23 50  1  0
 24 51  1  0
 24 52  1  0
 31 53  1  0
 32 54  1  0
 33 55  1  0
M  END
>  <Ligand ID>  (1) 
LIG0002687

>  <Ligand>  (1) 
CHEMBL1767413

>  <SMILES>  (1) 
O[C@@H]1[C@H](O)[C@H](O[C@H]1n1ccc(=O)nc1SCCc1ccccc1)COP(=O)(OP(=O)(O)O)O

>  <CID>  (1) 
52952283.0

>  <ChEMBL ID>  (1) 
nan

>  <InChiKey>  (1) 
FQUNDQXKPMUPEE-DTZQCDIJSA-N

>  <InChi>  (1) 
InChI=1S/C17H22N2O11P2S/c20-13-6-8-19(17(18-13)33-9-7-11-4-2-1-3-5-11)16-15(22)14(21)12(29-16)10-28-32(26,27)30-31(23,24)25/h1-6,8,12,14-16,21-22H,7,9-10H2,(H,26,27)(H2,23,24,25)/t12-,14-,15-,16-/m1/s1

>  <IUPAC Name>  (1) 
[(2R,3S,4R,5R)-3,4-dihydroxy-5-[4-oxo-2-(2-phenylethylsulfanyl)pyrimidin-1-yl]oxolan-2-yl]methyl phosphono hydrogen phosphate

$$$$
