
     RDKit          3D

 46 49  0  0  0  0  0  0  0  0999 V2000
    1.8584    2.6205   -2.7088 Cl  0  0  0  0  0  0  0  0  0  0  0  0
    2.7406    2.4350   -1.1939 C   0  0  0  0  0  0  0  0  0  0  0  0
    3.4214    3.5298   -0.7297 C   0  0  0  0  0  0  0  0  0  0  0  0
    4.1255    3.4465    0.4424 C   0  0  0  0  0  0  0  0  0  0  0  0
    4.1533    2.2590    1.1629 C   0  0  0  0  0  0  0  0  0  0  0  0
    3.4530    1.1794    0.6588 C   0  0  0  0  0  0  0  0  0  0  0  0
    2.7346    1.2162   -0.5098 C   0  0  0  0  0  0  0  0  0  0  0  0
    2.0268    0.1935   -1.0582 O   0  0  0  0  0  0  0  0  0  0  0  0
    1.8880   -1.0865   -0.5511 C   0  0  2  0  0  0  0  0  0  0  0  0
    2.4300   -2.1519   -1.5121 C   0  0  0  0  0  0  0  0  0  0  0  0
    2.4658   -3.4272   -0.7024 C   0  0  0  0  0  0  0  0  0  0  0  0
    1.0467   -3.9219   -0.5414 C   0  0  0  0  0  0  0  0  0  0  0  0
    0.1163   -2.8099   -0.3110 C   0  0  0  0  0  0  0  0  0  0  0  0
    0.4729   -1.4772   -0.3083 C   0  0  0  0  0  0  0  0  0  0  0  0
   -0.4268   -0.5010   -0.0906 N   0  0  0  0  0  0  0  0  0  0  0  0
   -1.7442   -0.7366    0.1420 C   0  0  0  0  0  0  0  0  0  0  0  0
   -2.1207   -2.0670    0.1431 C   0  0  0  0  0  0  0  0  0  0  0  0
   -1.2128   -3.0967   -0.0789 C   0  0  0  0  0  0  0  0  0  0  0  0
   -2.6738    0.3262    0.3683 N   0  0  0  0  0  0  0  0  0  0  0  0
   -4.0418   -0.0083    0.6384 C   0  0  0  0  0  0  0  0  0  0  0  0
   -4.8614    1.0810    1.2430 C   0  0  0  0  0  0  0  0  0  0  0  0
   -4.3815    2.4199    0.9763 N   0  0  0  0  0  0  0  0  0  0  0  0
   -2.9568    2.5424    1.2189 C   0  0  0  0  0  0  0  0  0  0  0  0
   -2.1515    1.6759    0.3028 C   0  0  0  0  0  0  0  0  0  0  0  0
    3.4287    4.4792   -1.2587 H   0  0  0  0  0  0  0  0  0  0  0  0
    4.6863    4.2670    0.8711 H   0  0  0  0  0  0  0  0  0  0  0  0
    4.6982    2.1644    2.0871 H   0  0  0  0  0  0  0  0  0  0  0  0
    3.4831    0.2647    1.2276 H   0  0  0  0  0  0  0  0  0  0  0  0
    2.4245   -1.2340    0.3906 H   0  0  0  0  0  0  0  0  0  0  0  0
    3.3928   -1.8898   -1.9491 H   0  0  0  0  0  0  0  0  0  0  0  0
    1.6521   -2.2458   -2.3070 H   0  0  0  0  0  0  0  0  0  0  0  0
    3.1058   -4.1958   -1.1790 H   0  0  0  0  0  0  0  0  0  0  0  0
    2.8241   -3.1553    0.3253 H   0  0  0  0  0  0  0  0  0  0  0  0
    0.7709   -4.4445   -1.4817 H   0  0  0  0  0  0  0  0  0  0  0  0
    0.9583   -4.6065    0.3312 H   0  0  0  0  0  0  0  0  0  0  0  0
   -3.1320   -2.3521    0.3154 H   0  0  0  0  0  0  0  0  0  0  0  0
   -1.5278   -4.1434   -0.0745 H   0  0  0  0  0  0  0  0  0  0  0  0
   -4.1552   -0.8993    1.2916 H   0  0  0  0  0  0  0  0  0  0  0  0
   -4.4904   -0.2794   -0.3627 H   0  0  0  0  0  0  0  0  0  0  0  0
   -5.8875    1.0417    0.8100 H   0  0  0  0  0  0  0  0  0  0  0  0
   -5.0015    0.8976    2.3286 H   0  0  0  0  0  0  0  0  0  0  0  0
   -4.8450    3.0366    1.6918 H   0  0  0  0  0  0  0  0  0  0  0  0
   -2.6992    3.5996    0.9788 H   0  0  0  0  0  0  0  0  0  0  0  0
   -2.6750    2.3279    2.2578 H   0  0  0  0  0  0  0  0  0  0  0  0
   -1.0902    1.7408    0.6114 H   0  0  0  0  0  0  0  0  0  0  0  0
   -2.2827    1.9851   -0.7728 H   0  0  0  0  0  0  0  0  0  0  0  0
  1  2  1  0
  2  3  2  0
  3  4  1  0
  4  5  2  0
  5  6  1  0
  6  7  2  0
  7  8  1  0
  8  9  1  0
  9 10  1  0
 10 11  1  0
 11 12  1  0
 12 13  1  0
 13 14  2  0
 14 15  1  0
 15 16  2  0
 16 17  1  0
 17 18  2  0
 16 19  1  0
 19 20  1  0
 20 21  1  0
 21 22  1  0
 22 23  1  0
 23 24  1  0
  7  2  1  0
 14  9  1  0
 24 19  1  0
 18 13  1  0
  3 25  1  0
  4 26  1  0
  5 27  1  0
  6 28  1  0
  9 29  1  1
 10 30  1  0
 10 31  1  0
 11 32  1  0
 11 33  1  0
 12 34  1  0
 12 35  1  0
 17 36  1  0
 18 37  1  0
 20 38  1  0
 20 39  1  0
 21 40  1  0
 21 41  1  0
 22 42  1  0
 23 43  1  0
 23 44  1  0
 24 45  1  0
 24 46  1  0
M  END
>  <Ligand ID>  (1) 
LIG0002897

>  <Ligand>  (1) 
CHEMBL593545

>  <SMILES>  (1) 
Clc1ccccc1O[C@@H]1CCCc2c1nc(cc2)N1CCNCC1

>  <CID>  (1) 
46228430.0

>  <ChEMBL ID>  (1) 
nan

>  <InChiKey>  (1) 
HNSZXWWGMZAANA-QGZVFWFLSA-N

>  <InChi>  (1) 
InChI=1S/C19H22ClN3O/c20-15-5-1-2-6-16(15)24-17-7-3-4-14-8-9-18(22-19(14)17)23-12-10-21-11-13-23/h1-2,5-6,8-9,17,21H,3-4,7,10-13H2/t17-/m1/s1

>  <IUPAC Name>  (1) 
(8R)-8-(2-chlorophenoxy)-2-piperazin-1-yl-5,6,7,8-tetrahydroquinoline

$$$$
