
     RDKit          3D

 46 48  0  0  0  0  0  0  0  0999 V2000
   -0.4245    0.9236    3.0264 N   0  0  0  0  0  0  0  0  0  0  0  0
   -0.6685    0.4679    1.9914 C   0  0  0  0  0  0  0  0  0  0  0  0
   -0.9815   -0.1123    0.6755 C   0  0  0  0  0  0  0  0  0  0  0  0
   -2.4168    0.1028    0.3239 C   0  0  0  0  0  0  0  0  0  0  0  0
   -3.3273   -0.9665    0.3350 C   0  0  0  0  0  0  0  0  0  0  0  0
   -4.6581   -0.7198    0.0031 C   0  0  0  0  0  0  0  0  0  0  0  0
   -5.0883    0.5659   -0.3368 C   0  0  0  0  0  0  0  0  0  0  0  0
   -4.1968    1.6129   -0.3476 C   0  0  0  0  0  0  0  0  0  0  0  0
   -2.8732    1.3715   -0.0177 C   0  0  0  0  0  0  0  0  0  0  0  0
   -4.6607    2.9578   -0.7014 C   0  0  0  0  0  0  0  0  0  0  0  0
   -5.5188    3.4292    0.2989 F   0  0  0  0  0  0  0  0  0  0  0  0
   -5.4067    2.9067   -1.8643 F   0  0  0  0  0  0  0  0  0  0  0  0
   -3.6408    3.8643   -0.8961 F   0  0  0  0  0  0  0  0  0  0  0  0
   -5.6797   -1.7847   -0.0149 C   0  0  0  0  0  0  0  0  0  0  0  0
   -6.4847   -1.7952    1.1064 F   0  0  0  0  0  0  0  0  0  0  0  0
   -5.1122   -3.0424   -0.1484 F   0  0  0  0  0  0  0  0  0  0  0  0
   -6.5342   -1.6450   -1.1178 F   0  0  0  0  0  0  0  0  0  0  0  0
   -0.1862    0.4755   -0.3470 N   0  0  0  0  0  0  0  0  0  0  0  0
    1.2172    0.2958   -0.2655 C   0  0  0  0  0  0  0  0  0  0  0  0
    1.7457   -1.0433   -0.4841 C   0  0  0  0  0  0  0  0  0  0  0  0
    1.0568   -2.1317   -0.9521 C   0  0  0  0  0  0  0  0  0  0  0  0
    1.6389   -3.3414   -1.1267 N   0  0  0  0  0  0  0  0  0  0  0  0
    2.9358   -3.5769   -0.8573 C   0  0  0  0  0  0  0  0  0  0  0  0
    3.6712   -2.5008   -0.3816 C   0  0  0  0  0  0  0  0  0  0  0  0
    3.1004   -1.2547   -0.1945 C   0  0  0  0  0  0  0  0  0  0  0  0
    3.9471   -0.1749    0.3007 C   0  0  0  0  0  0  0  0  0  0  0  0
    4.1245    0.1029    1.6366 C   0  0  0  0  0  0  0  0  0  0  0  0
    3.5076   -0.6536    2.5717 F   0  0  0  0  0  0  0  0  0  0  0  0
    4.9521    1.1719    1.9794 C   0  0  0  0  0  0  0  0  0  0  0  0
    5.5731    1.9238    0.9811 C   0  0  0  0  0  0  0  0  0  0  0  0
    5.4012    1.6524   -0.3593 C   0  0  0  0  0  0  0  0  0  0  0  0
    4.5794    0.5929   -0.6856 C   0  0  0  0  0  0  0  0  0  0  0  0
    4.3892    0.3065   -2.0170 F   0  0  0  0  0  0  0  0  0  0  0  0
   -0.8309   -1.1919    0.7551 H   0  0  0  0  0  0  0  0  0  0  0  0
   -3.0030   -1.9628    0.5989 H   0  0  0  0  0  0  0  0  0  0  0  0
   -6.1172    0.7787   -0.5992 H   0  0  0  0  0  0  0  0  0  0  0  0
   -2.2223    2.2393   -0.0411 H   0  0  0  0  0  0  0  0  0  0  0  0
   -0.5178    1.3719   -0.6986 H   0  0  0  0  0  0  0  0  0  0  0  0
    1.5188    0.5770    0.7973 H   0  0  0  0  0  0  0  0  0  0  0  0
    1.7891    1.0365   -0.8738 H   0  0  0  0  0  0  0  0  0  0  0  0
    0.0273   -2.0542   -1.2153 H   0  0  0  0  0  0  0  0  0  0  0  0
    3.4223   -4.5275   -0.9871 H   0  0  0  0  0  0  0  0  0  0  0  0
    4.7363   -2.6557   -0.1509 H   0  0  0  0  0  0  0  0  0  0  0  0
    5.1256    1.4305    3.0119 H   0  0  0  0  0  0  0  0  0  0  0  0
    6.2238    2.7624    1.2146 H   0  0  0  0  0  0  0  0  0  0  0  0
    5.8669    2.2146   -1.1551 H   0  0  0  0  0  0  0  0  0  0  0  0
  1  2  3  0
  2  3  1  0
  3  4  1  0
  4  5  2  0
  5  6  1  0
  6  7  2  0
  7  8  1  0
  8  9  2  0
  8 10  1  0
 10 11  1  0
 10 12  1  0
 10 13  1  0
  6 14  1  0
 14 15  1  0
 14 16  1  0
 14 17  1  0
  3 18  1  0
 18 19  1  0
 19 20  1  0
 20 21  2  0
 21 22  1  0
 22 23  2  0
 23 24  1  0
 24 25  2  0
 25 26  1  0
 26 27  2  0
 27 28  1  0
 27 29  1  0
 29 30  2  0
 30 31  1  0
 31 32  2  0
 32 33  1  0
  9  4  1  0
 25 20  1  0
 32 26  1  0
  3 34  1  0
  5 35  1  0
  7 36  1  0
  9 37  1  0
 18 38  1  0
 19 39  1  0
 19 40  1  0
 21 41  1  0
 23 42  1  0
 24 43  1  0
 29 44  1  0
 30 45  1  0
 31 46  1  0
M  END
>  <Ligand ID>  (1) 
LIG0005776

>  <Ligand>  (1) 
CHEMBL2435926

>  <SMILES>  (1) 
N#CC(c1cc(cc(c1)C(F)(F)F)C(F)(F)F)NCc1cnccc1c1c(F)cccc1F

>  <CID>  (1) 
73357024.0

>  <ChEMBL ID>  (1) 
nan

>  <InChiKey>  (1) 
ULMLHZBEGFAWRK-UHFFFAOYSA-N

>  <InChi>  (1) 
InChI=1S/C22H13F8N3/c23-17-2-1-3-18(24)20(17)16-4-5-32-10-13(16)11-33-19(9-31)12-6-14(21(25,26)27)8-15(7-12)22(28,29)30/h1-8,10,19,33H,11H2

>  <IUPAC Name>  (1) 
2-[3,5-bis(trifluoromethyl)phenyl]-2-[[4-(2,6-difluorophenyl)pyridin-3-yl]methylamino]acetonitrile

$$$$
