
     RDKit          3D

219228  0  0  0  0  0  0  0  0999 V2000
   11.3582    4.4739    3.9948 O   0  0  0  0  0  0  0  0  0  0  0  0
   10.4751    4.8496    2.9720 C   0  0  0  0  0  0  0  0  0  0  0  0
   10.9512    5.0249    1.6810 C   0  0  0  0  0  0  0  0  0  0  0  0
   10.1023    5.3898    0.6772 C   0  0  0  0  0  0  0  0  0  0  0  0
    8.7256    5.6072    0.8865 C   0  0  0  0  0  0  0  0  0  0  0  0
    8.2950    5.4248    2.1672 C   0  0  0  0  0  0  0  0  0  0  0  0
    9.1353    5.0532    3.2166 C   0  0  0  0  0  0  0  0  0  0  0  0
    7.9542    6.0407   -0.2660 C   0  0  0  0  0  0  0  0  0  0  0  0
    7.4680    5.0828   -1.2525 C   0  0  1  0  0  0  0  0  0  0  0  0
    6.5430    4.0146   -0.9830 C   0  0  0  0  0  0  0  0  0  0  0  0
    5.8391    3.6254   -2.0160 O   0  0  0  0  0  0  0  0  0  0  0  0
    6.2530    3.3124    0.1836 N   0  0  0  0  0  0  0  0  0  0  0  0
    5.2183    2.2276    0.0344 C   0  0  1  0  0  0  0  0  0  0  0  0
    5.3513    1.4698    1.3010 C   0  0  0  0  0  0  0  0  0  0  0  0
    4.6647   -0.0877    1.5992 S   0  0  0  0  0  0  0  0  0  0  0  0
    2.6836   -0.5151    1.2300 S   0  0  0  0  0  0  0  0  0  0  0  0
    2.4213   -1.2976   -0.4102 C   0  0  0  0  0  0  0  0  0  0  0  0
    3.0029   -2.6907   -0.3893 C   0  0  2  0  0  0  0  0  0  0  0  0
    2.3394   -3.4888    0.6536 N   0  0  0  0  0  0  0  0  0  0  0  0
    2.4673   -4.8974    0.5377 C   0  0  0  0  0  0  0  0  0  0  0  0
    3.3117   -5.2978   -0.3430 O   0  0  0  0  0  0  0  0  0  0  0  0
    1.7617   -5.9219    1.3004 C   0  0  2  0  0  0  0  0  0  0  0  0
    1.1328   -6.9383    0.3066 C   0  0  0  0  0  0  0  0  0  0  0  0
    2.1620   -7.5859   -0.5323 C   0  0  0  0  0  0  0  0  0  0  0  0
    2.4803   -7.2363   -1.8225 C   0  0  0  0  0  0  0  0  0  0  0  0
    3.5213   -7.8991   -2.4984 C   0  0  0  0  0  0  0  0  0  0  0  0
    4.2397   -8.9106   -1.8749 C   0  0  0  0  0  0  0  0  0  0  0  0
    3.9308   -9.2614   -0.5988 C   0  0  0  0  0  0  0  0  0  0  0  0
    2.9088   -8.5965    0.0350 C   0  0  0  0  0  0  0  0  0  0  0  0
    0.7630   -5.4302    2.1880 N   0  0  0  0  0  0  0  0  0  0  0  0
   -0.0895   -6.1413    3.0314 C   0  0  0  0  0  0  0  0  0  0  0  0
   -0.0616   -7.4038    3.0428 O   0  0  0  0  0  0  0  0  0  0  0  0
   -1.0516   -5.3662    3.9094 C   0  0  2  0  0  0  0  0  0  0  0  0
   -0.4200   -5.2236    5.2482 C   0  0  0  0  0  0  0  0  0  0  0  0
   -2.3579   -6.0645    3.9635 N   0  0  0  0  0  0  0  0  0  0  0  0
   -3.2259   -5.6479    2.9328 C   0  0  0  0  0  0  0  0  0  0  0  0
   -2.7961   -4.8020    2.0443 O   0  0  0  0  0  0  0  0  0  0  0  0
   -4.6514   -6.0436    2.6729 C   0  0  2  0  0  0  0  0  0  0  0  0
   -4.8946   -7.5042    2.6500 C   0  0  0  0  0  0  0  0  0  0  0  0
   -6.3337   -7.7506    2.4006 C   0  0  0  0  0  0  0  0  0  0  0  0
   -7.1649   -6.8506    2.1319 O   0  0  0  0  0  0  0  0  0  0  0  0
   -6.8185   -9.1138    2.4753 N   0  0  0  0  0  0  0  0  0  0  0  0
   -5.0116   -5.3409    1.4164 N   0  0  0  0  0  0  0  0  0  0  0  0
   -5.8182   -4.1935    1.3665 C   0  0  0  0  0  0  0  0  0  0  0  0
   -6.4606   -3.8979    2.4226 O   0  0  0  0  0  0  0  0  0  0  0  0
   -5.8741   -3.4090    0.1170 C   0  0  1  0  0  0  0  0  0  0  0  0
   -6.0921   -1.9420    0.4631 N   0  0  0  0  0  0  0  0  0  0  0  0
   -6.9982   -1.1609   -0.2581 C   0  0  0  0  0  0  0  0  0  0  0  0
   -7.6509   -2.0350   -0.9909 O   0  0  0  0  0  0  0  0  0  0  0  0
   -7.4992    0.1742   -0.5044 C   0  0  0  0  0  0  0  0  0  0  0  0
   -6.6907    1.6531   -0.1590 S   0  0  0  0  0  0  0  0  0  0  0  0
   -5.3993    2.4426   -0.9737 C   0  0  0  0  0  0  0  0  0  0  0  0
   -4.0488    1.8601   -1.1249 C   0  0  1  0  0  0  0  0  0  0  0  0
   -2.9942    2.7511   -1.5100 N   0  0  0  0  0  0  0  0  0  0  0  0
   -2.4137    2.9089   -2.7585 C   0  0  0  0  0  0  0  0  0  0  0  0
   -2.9571    2.3224   -3.7513 O   0  0  0  0  0  0  0  0  0  0  0  0
   -1.1808    3.7576   -2.9318 C   0  0  2  0  0  0  0  0  0  0  0  0
   -0.5783    4.0290   -1.6206 N   0  0  0  0  0  0  0  0  0  0  0  0
    0.6939    3.4923   -1.2807 C   0  0  0  0  0  0  0  0  0  0  0  0
    1.2686    2.8588   -2.2660 O   0  0  0  0  0  0  0  0  0  0  0  0
    1.4472    3.5303   -0.0572 C   0  0  1  0  0  0  0  0  0  0  0  0
    2.7064    2.7996   -0.2959 N   0  0  0  0  0  0  0  0  0  0  0  0
    3.9590    3.1321    0.1680 C   0  0  0  0  0  0  0  0  0  0  0  0
    4.2722    4.2207    0.7533 O   0  0  0  0  0  0  0  0  0  0  0  0
    1.8039    4.8701    0.5257 C   0  0  0  0  0  0  0  0  0  0  0  0
    0.6527    5.7272    0.8723 C   0  0  0  0  0  0  0  0  0  0  0  0
    0.0107    6.7608    0.2632 C   0  0  0  0  0  0  0  0  0  0  0  0
   -0.9372    7.2313    1.0507 N   0  0  0  0  0  0  0  0  0  0  0  0
   -0.9371    6.5190    2.1855 C   0  0  0  0  0  0  0  0  0  0  0  0
    0.0259    5.6018    2.0882 N   0  0  0  0  0  0  0  0  0  0  0  0
   -1.3780    4.8982   -3.8308 C   0  0  0  0  0  0  0  0  0  0  0  0
   -2.3811    5.8978   -3.5112 C   0  0  0  0  0  0  0  0  0  0  0  0
   -2.0647    7.0667   -2.8348 C   0  0  0  0  0  0  0  0  0  0  0  0
   -2.9914    8.0311   -2.5179 C   0  0  0  0  0  0  0  0  0  0  0  0
   -4.3227    7.8854   -2.8681 C   0  0  0  0  0  0  0  0  0  0  0  0
   -4.6659    6.7247   -3.5458 C   0  0  0  0  0  0  0  0  0  0  0  0
   -3.7288    5.7586   -3.8590 C   0  0  0  0  0  0  0  0  0  0  0  0
   -5.3140    8.8992   -2.5319 C   0  0  0  0  0  0  0  0  0  0  0  0
   -4.9533   10.2488   -2.4654 C   0  0  0  0  0  0  0  0  0  0  0  0
   -5.8828   11.2365   -2.1630 C   0  0  0  0  0  0  0  0  0  0  0  0
   -7.2079   10.8701   -1.9183 C   0  0  0  0  0  0  0  0  0  0  0  0
   -7.5780    9.5349   -1.9793 C   0  0  0  0  0  0  0  0  0  0  0  0
   -6.6424    8.5500   -2.2837 C   0  0  0  0  0  0  0  0  0  0  0  0
   -3.5491    1.1604    0.1239 C   0  0  0  0  0  0  0  0  0  0  0  0
   -2.5529    1.4772    0.7601 O   0  0  0  0  0  0  0  0  0  0  0  0
   -4.3477    0.0763    0.5007 N   0  0  0  0  0  0  0  0  0  0  0  0
   -4.2456   -0.7543    1.6535 C   0  0  1  0  0  0  0  0  0  0  0  0
   -4.2250    0.1443    2.8966 C   0  0  0  0  0  0  0  0  0  0  0  0
   -5.2750    1.0822    3.1706 C   0  0  0  0  0  0  0  0  0  0  0  0
   -6.6889    0.7570    3.4295 C   0  0  0  0  0  0  0  0  0  0  0  0
   -6.9670   -0.0468    4.5950 N   0  0  0  0  0  0  0  0  0  0  0  0
   -8.2083   -0.3527    4.7825 C   0  0  0  0  0  0  0  0  0  0  0  0
   -8.6156   -1.1544    5.9113 N   0  0  0  0  0  0  0  0  0  0  0  0
   -9.2635    0.0561    3.9117 N   0  0  0  0  0  0  0  0  0  0  0  0
   -5.4599   -1.6054    1.7278 C   0  0  0  0  0  0  0  0  0  0  0  0
   -4.5354   -3.5946   -0.5515 C   0  0  0  0  0  0  0  0  0  0  0  0
   -4.4931   -2.8672   -1.8450 C   0  0  0  0  0  0  0  0  0  0  0  0
   -3.7460   -1.7619   -2.2024 C   0  0  0  0  0  0  0  0  0  0  0  0
   -3.9479   -1.4379   -3.4850 N   0  0  0  0  0  0  0  0  0  0  0  0
   -4.8310   -2.3151   -4.0197 C   0  0  0  0  0  0  0  0  0  0  0  0
   -5.1789   -3.2024   -3.0276 C   0  0  0  0  0  0  0  0  0  0  0  0
   -6.0801   -4.2182   -3.3027 C   0  0  0  0  0  0  0  0  0  0  0  0
   -6.6350   -4.3424   -4.5790 C   0  0  0  0  0  0  0  0  0  0  0  0
   -6.2879   -3.4546   -5.5644 C   0  0  0  0  0  0  0  0  0  0  0  0
   -5.3997   -2.4684   -5.2664 C   0  0  0  0  0  0  0  0  0  0  0  0
    4.4771   -2.5431   -0.0772 C   0  0  0  0  0  0  0  0  0  0  0  0
    4.9478   -2.7579    1.0577 O   0  0  0  0  0  0  0  0  0  0  0  0
    5.2791   -2.1555   -1.1636 N   0  0  0  0  0  0  0  0  0  0  0  0
    6.7012   -1.9211   -1.1837 C   0  0  2  0  0  0  0  0  0  0  0  0
    7.2713   -1.8312   -2.4929 C   0  0  0  0  0  0  0  0  0  0  0  0
    6.4607   -2.0686   -3.4905 O   0  0  0  0  0  0  0  0  0  0  0  0
    8.5791   -1.5193   -2.8781 N   0  0  0  0  0  0  0  0  0  0  0  0
    7.4326   -2.9712   -0.3417 C   0  0  0  0  0  0  0  0  0  0  0  0
    8.8822   -2.7211   -0.4548 C   0  0  0  0  0  0  0  0  0  0  0  0
    9.5743   -1.7680    0.2610 C   0  0  0  0  0  0  0  0  0  0  0  0
   10.9459   -1.6700    0.0827 C   0  0  0  0  0  0  0  0  0  0  0  0
   11.6275   -2.5041   -0.7924 C   0  0  0  0  0  0  0  0  0  0  0  0
   10.9339   -3.4789   -1.5274 C   0  0  0  0  0  0  0  0  0  0  0  0
    9.5731   -3.5644   -1.3426 C   0  0  0  0  0  0  0  0  0  0  0  0
   12.9802   -2.4128   -0.9728 O   0  0  0  0  0  0  0  0  0  0  0  0
    7.0303    5.8596   -2.4485 N   0  0  0  0  0  0  0  0  0  0  0  0
   12.1044    3.8665    3.7253 H   0  0  0  0  0  0  0  0  0  0  0  0
   12.0115    4.8550    1.5239 H   0  0  0  0  0  0  0  0  0  0  0  0
   10.5383    5.5148   -0.3077 H   0  0  0  0  0  0  0  0  0  0  0  0
    7.2535    5.5657    2.3680 H   0  0  0  0  0  0  0  0  0  0  0  0
    8.7121    4.9264    4.2013 H   0  0  0  0  0  0  0  0  0  0  0  0
    7.1424    6.7234    0.1292 H   0  0  0  0  0  0  0  0  0  0  0  0
    8.6090    6.7922   -0.8314 H   0  0  0  0  0  0  0  0  0  0  0  0
    8.4222    4.5692   -1.6760 H   0  0  0  0  0  0  0  0  0  0  0  0
    6.7030    3.5204    1.0571 H   0  0  0  0  0  0  0  0  0  0  0  0
    5.1670    1.8110   -0.9204 H   0  0  0  0  0  0  0  0  0  0  0  0
    5.1145    2.2356    2.1248 H   0  0  0  0  0  0  0  0  0  0  0  0
    6.4874    1.3714    1.4515 H   0  0  0  0  0  0  0  0  0  0  0  0
    2.8626   -0.6325   -1.1586 H   0  0  0  0  0  0  0  0  0  0  0  0
    1.3455   -1.3709   -0.5655 H   0  0  0  0  0  0  0  0  0  0  0  0
    2.9912   -3.2352   -1.3340 H   0  0  0  0  0  0  0  0  0  0  0  0
    1.8354   -2.9800    1.3966 H   0  0  0  0  0  0  0  0  0  0  0  0
    2.4547   -6.5746    1.8488 H   0  0  0  0  0  0  0  0  0  0  0  0
    0.4056   -6.4439   -0.3395 H   0  0  0  0  0  0  0  0  0  0  0  0
    0.5936   -7.7133    0.8786 H   0  0  0  0  0  0  0  0  0  0  0  0
    1.9168   -6.4395   -2.3311 H   0  0  0  0  0  0  0  0  0  0  0  0
    3.7863   -7.6304   -3.5133 H   0  0  0  0  0  0  0  0  0  0  0  0
    5.0515   -9.4333   -2.3903 H   0  0  0  0  0  0  0  0  0  0  0  0
    4.4947  -10.0580   -0.0944 H   0  0  0  0  0  0  0  0  0  0  0  0
    2.6896   -8.9026    1.0730 H   0  0  0  0  0  0  0  0  0  0  0  0
    0.6614   -4.3574    2.1996 H   0  0  0  0  0  0  0  0  0  0  0  0
   -1.1939   -4.4052    3.4333 H   0  0  0  0  0  0  0  0  0  0  0  0
    0.0422   -6.1939    5.6149 H   0  0  0  0  0  0  0  0  0  0  0  0
    0.4563   -4.5301    5.1405 H   0  0  0  0  0  0  0  0  0  0  0  0
   -1.0716   -4.7836    6.0152 H   0  0  0  0  0  0  0  0  0  0  0  0
   -2.5790   -6.7705    4.6842 H   0  0  0  0  0  0  0  0  0  0  0  0
   -5.2576   -5.5798    3.4603 H   0  0  0  0  0  0  0  0  0  0  0  0
   -4.2604   -8.0602    1.9146 H   0  0  0  0  0  0  0  0  0  0  0  0
   -4.7158   -7.8990    3.6931 H   0  0  0  0  0  0  0  0  0  0  0  0
   -6.2321   -9.9391    2.2850 H   0  0  0  0  0  0  0  0  0  0  0  0
   -7.8409   -9.2639    2.7365 H   0  0  0  0  0  0  0  0  0  0  0  0
   -4.5946   -5.8323    0.5748 H   0  0  0  0  0  0  0  0  0  0  0  0
   -6.6195   -3.6627   -0.6234 H   0  0  0  0  0  0  0  0  0  0  0  0
   -7.9116    0.2600   -1.5790 H   0  0  0  0  0  0  0  0  0  0  0  0
   -8.5198    0.1901    0.0614 H   0  0  0  0  0  0  0  0  0  0  0  0
   -5.7360    2.6618   -2.0548 H   0  0  0  0  0  0  0  0  0  0  0  0
   -5.2499    3.4706   -0.4931 H   0  0  0  0  0  0  0  0  0  0  0  0
   -4.1681    1.0394   -1.9087 H   0  0  0  0  0  0  0  0  0  0  0  0
   -2.6238    3.3715   -0.7148 H   0  0  0  0  0  0  0  0  0  0  0  0
   -0.4794    3.0431   -3.4747 H   0  0  0  0  0  0  0  0  0  0  0  0
   -1.1596    4.6124   -0.9899 H   0  0  0  0  0  0  0  0  0  0  0  0
    0.9923    2.9277    0.8175 H   0  0  0  0  0  0  0  0  0  0  0  0
    2.5964    1.9368   -0.8986 H   0  0  0  0  0  0  0  0  0  0  0  0
    2.5197    5.3906   -0.1358 H   0  0  0  0  0  0  0  0  0  0  0  0
    2.3958    4.6802    1.4984 H   0  0  0  0  0  0  0  0  0  0  0  0
    0.2822    7.1162   -0.7232 H   0  0  0  0  0  0  0  0  0  0  0  0
   -1.5675    6.6143    3.0562 H   0  0  0  0  0  0  0  0  0  0  0  0
    0.2728    4.8895    2.8207 H   0  0  0  0  0  0  0  0  0  0  0  0
   -0.3665    5.3545   -4.0319 H   0  0  0  0  0  0  0  0  0  0  0  0
   -1.6679    4.4751   -4.8424 H   0  0  0  0  0  0  0  0  0  0  0  0
   -1.0437    7.2111   -2.5851 H   0  0  0  0  0  0  0  0  0  0  0  0
   -2.6672    8.9115   -1.9855 H   0  0  0  0  0  0  0  0  0  0  0  0
   -5.7058    6.6200   -3.8179 H   0  0  0  0  0  0  0  0  0  0  0  0
   -4.0571    4.8715   -4.3812 H   0  0  0  0  0  0  0  0  0  0  0  0
   -3.9374   10.5866   -2.6445 H   0  0  0  0  0  0  0  0  0  0  0  0
   -5.6146   12.2850   -2.1182 H   0  0  0  0  0  0  0  0  0  0  0  0
   -7.9494   11.6336   -1.6791 H   0  0  0  0  0  0  0  0  0  0  0  0
   -8.6123    9.2453   -1.7947 H   0  0  0  0  0  0  0  0  0  0  0  0
   -6.9639    7.4954   -2.3219 H   0  0  0  0  0  0  0  0  0  0  0  0
   -5.0667   -0.2066   -0.2110 H   0  0  0  0  0  0  0  0  0  0  0  0
   -3.2616   -1.2113    1.6546 H   0  0  0  0  0  0  0  0  0  0  0  0
   -4.1118   -0.5751    3.7596 H   0  0  0  0  0  0  0  0  0  0  0  0
   -3.2160    0.6753    2.8584 H   0  0  0  0  0  0  0  0  0  0  0  0
   -5.3154    1.9644    2.4376 H   0  0  0  0  0  0  0  0  0  0  0  0
   -4.9526    1.6964    4.1151 H   0  0  0  0  0  0  0  0  0  0  0  0
   -7.2726    0.4823    2.5262 H   0  0  0  0  0  0  0  0  0  0  0  0
   -7.1800    1.7730    3.6857 H   0  0  0  0  0  0  0  0  0  0  0  0
   -9.0049   -2.1023    5.7116 H   0  0  0  0  0  0  0  0  0  0  0  0
   -8.4978   -0.7582    6.8796 H   0  0  0  0  0  0  0  0  0  0  0  0
   -9.7426    0.9743    3.9683 H   0  0  0  0  0  0  0  0  0  0  0  0
   -9.6138   -0.5818    3.1441 H   0  0  0  0  0  0  0  0  0  0  0  0
   -4.9229   -2.5999    2.1013 H   0  0  0  0  0  0  0  0  0  0  0  0
   -6.1294   -1.4760    2.5836 H   0  0  0  0  0  0  0  0  0  0  0  0
   -3.7181   -3.1478    0.0851 H   0  0  0  0  0  0  0  0  0  0  0  0
   -4.2881   -4.6264   -0.7866 H   0  0  0  0  0  0  0  0  0  0  0  0
   -3.1028   -1.2582   -1.5165 H   0  0  0  0  0  0  0  0  0  0  0  0
   -3.5105   -0.6395   -3.9959 H   0  0  0  0  0  0  0  0  0  0  0  0
   -6.3921   -4.9540   -2.5784 H   0  0  0  0  0  0  0  0  0  0  0  0
   -7.3371   -5.1510   -4.7651 H   0  0  0  0  0  0  0  0  0  0  0  0
   -6.6925   -3.4984   -6.5770 H   0  0  0  0  0  0  0  0  0  0  0  0
   -5.0985   -1.7596   -6.0373 H   0  0  0  0  0  0  0  0  0  0  0  0
    4.7999   -2.0085   -2.1166 H   0  0  0  0  0  0  0  0  0  0  0  0
    6.9070   -0.9898   -0.5712 H   0  0  0  0  0  0  0  0  0  0  0  0
    9.0358   -2.0062   -3.7000 H   0  0  0  0  0  0  0  0  0  0  0  0
    9.1944   -0.8081   -2.4159 H   0  0  0  0  0  0  0  0  0  0  0  0
    7.2205   -4.0076   -0.6518 H   0  0  0  0  0  0  0  0  0  0  0  0
    7.2042   -2.8122    0.7532 H   0  0  0  0  0  0  0  0  0  0  0  0
    9.0324   -1.1253    0.9227 H   0  0  0  0  0  0  0  0  0  0  0  0
   11.5433   -0.9356    0.6222 H   0  0  0  0  0  0  0  0  0  0  0  0
   11.4566   -4.1461   -2.2074 H   0  0  0  0  0  0  0  0  0  0  0  0
    9.0584   -4.3198   -1.9263 H   0  0  0  0  0  0  0  0  0  0  0  0
   13.6772   -2.4646   -0.2562 H   0  0  0  0  0  0  0  0  0  0  0  0
    6.2005    6.4592   -2.1463 H   0  0  0  0  0  0  0  0  0  0  0  0
    6.6076    5.1466   -3.1102 H   0  0  0  0  0  0  0  0  0  0  0  0
  1  2  1  0
  2  3  2  0
  3  4  1  0
  4  5  2  0
  5  6  1  0
  6  7  2  0
  5  8  1  0
  8  9  1  0
  9 10  1  0
 10 11  2  0
 10 12  1  0
 12 13  1  0
 13 14  1  0
 14 15  1  0
 15 16  1  0
 16 17  1  0
 17 18  1  0
 18 19  1  0
 19 20  1  0
 20 21  2  0
 20 22  1  0
 22 23  1  0
 23 24  1  0
 24 25  2  0
 25 26  1  0
 26 27  2  0
 27 28  1  0
 28 29  2  0
 22 30  1  0
 30 31  1  0
 31 32  2  0
 31 33  1  0
 33 34  1  0
 33 35  1  0
 35 36  1  0
 36 37  2  0
 36 38  1  0
 38 39  1  0
 39 40  1  0
 40 41  2  0
 40 42  1  0
 38 43  1  0
 43 44  1  0
 44 45  2  0
 44 46  1  0
 46 47  1  0
 47 48  1  0
 48 49  2  0
 48 50  1  0
 50 51  1  0
 51 52  1  0
 52 53  1  0
 53 54  1  0
 54 55  1  0
 55 56  2  0
 55 57  1  0
 57 58  1  0
 58 59  1  0
 59 60  2  0
 59 61  1  0
 61 62  1  0
 62 63  1  0
 63 64  2  0
 61 65  1  0
 65 66  1  0
 66 67  2  0
 67 68  1  0
 68 69  2  0
 69 70  1  0
 57 71  1  0
 71 72  1  0
 72 73  2  0
 73 74  1  0
 74 75  2  0
 75 76  1  0
 76 77  2  0
 75 78  1  0
 78 79  2  0
 79 80  1  0
 80 81  2  0
 81 82  1  0
 82 83  2  0
 53 84  1  0
 84 85  2  0
 84 86  1  0
 86 87  1  0
 87 88  1  0
 88 89  1  0
 89 90  1  0
 90 91  1  0
 91 92  2  3
 92 93  1  0
 92 94  1  0
 87 95  1  0
 46 96  1  0
 96 97  1  0
 97 98  2  0
 98 99  1  0
 99100  1  0
100101  2  0
101102  1  0
102103  2  0
103104  1  0
104105  2  0
 18106  1  0
106107  2  0
106108  1  0
108109  1  0
109110  1  0
110111  2  0
110112  1  0
109113  1  0
113114  1  0
114115  2  0
115116  1  0
116117  2  0
117118  1  0
118119  2  0
117120  1  0
  9121  1  0
  7  2  1  0
 63 13  1  0
 70 66  1  0
 77 72  1  0
 83 78  1  0
101 97  1  0
119114  1  0
 29 24  1  0
 95 47  1  0
105100  1  0
  1122  1  0
  3123  1  0
  4124  1  0
  6125  1  0
  7126  1  0
  8127  1  0
  8128  1  0
  9129  1  6
 12130  1  0
 13131  1  6
 14132  1  0
 14133  1  0
 17134  1  0
 17135  1  0
 18136  1  6
 19137  1  0
 22138  1  1
 23139  1  0
 23140  1  0
 25141  1  0
 26142  1  0
 27143  1  0
 28144  1  0
 29145  1  0
 30146  1  0
 33147  1  6
 34148  1  0
 34149  1  0
 34150  1  0
 35151  1  0
 38152  1  1
 39153  1  0
 39154  1  0
 42155  1  0
 42156  1  0
 43157  1  0
 46158  1  6
 50159  1  0
 50160  1  0
 52161  1  0
 52162  1  0
 53163  1  6
 54164  1  0
 57165  1  6
 58166  1  0
 61167  1  1
 62168  1  0
 65169  1  0
 65170  1  0
 67171  1  0
 69172  1  0
 70173  1  0
 71174  1  0
 71175  1  0
 73176  1  0
 74177  1  0
 76178  1  0
 77179  1  0
 79180  1  0
 80181  1  0
 81182  1  0
 82183  1  0
 83184  1  0
 86185  1  0
 87186  1  6
 88187  1  0
 88188  1  0
 89189  1  0
 89190  1  0
 90191  1  0
 90192  1  0
 93193  1  0
 93194  1  0
 94195  1  0
 94196  1  0
 95197  1  0
 95198  1  0
 96199  1  0
 96200  1  0
 98201  1  0
 99202  1  0
102203  1  0
103204  1  0
104205  1  0
105206  1  0
108207  1  0
109208  1  1
112209  1  0
112210  1  0
113211  1  0
113212  1  0
115213  1  0
116214  1  0
118215  1  0
119216  1  0
120217  1  0
121218  1  0
121219  1  0
M  END
>  <Ligand ID>  (1) 
LIG0002283

>  <Ligand>  (1) 
BDBM50427693

>  <SMILES>  (1) 
Oc1ccc(cc1)C[C@@H](C(=O)N[C@H]1CSSC[C@H](NC(=O)[C@H](Cc2ccccc2)NC(=O)[C@H](C)NC(=O)[C@H](CC(=O)N)NC(=O)[C@@H](N2C(=O)CSC[C@@H](NC(=O)[C@H](NC(=O)[C@@H](NC1=O)Cc1cnc[nH]1)Cc1ccc(cc1)c1ccccc1)C(=O)N[C@@H](CCCN=C(N)N)C2)Cc1c[nH]c2c1cccc2)C(=O)N[C@H](C(=O)N)Cc1ccc(cc1)O)N

>  <CID>  (1) 
91899990.0

>  <ChEMBL ID>  (1) 
nan

>  <InChiKey>  (1) 
JNZZLOWHYPHQNM-SDPBZCNWSA-N

>  <InChi>  (1) 
InChI=1S/C83H98N20O15S3/c1-46-73(109)96-62(33-47-11-4-2-5-12-47)76(112)102-68(80(116)95-61(72(86)108)32-50-22-28-57(105)29-23-50)43-121-120-42-67(100-74(110)59(84)31-48-20-26-56(104)27-21-48)81(117)98-64(36-55-39-89-45-92-55)78(114)97-63(34-49-18-24-52(25-19-49)51-13-6-3-7-14-51)77(113)101-66-41-119-44-71(107)103(40-54(94-79(66)115)15-10-30-90-83(87)88)69(35-53-38-91-60-17-9-8-16-58(53)60)82(118)99-65(37-70(85)106)75(111)93-46/h2-9,11-14,16-29,38-39,45-46,54,59,61-69,91,104-105H,10,15,30-37,40-44,84H2,1H3,(H2,85,106)(H2,86,108)(H,89,92)(H,93,111)(H,94,115)(H,95,116)(H,96,109)(H,97,114)(H,98,117)(H,99,118)(H,100,110)(H,101,113)(H,102,112)(H4,87,88,90)/t46-,54-,59-,61-,62-,63+,64-,65-,66+,67-,68-,69-/m0/s1

>  <IUPAC Name>  (1) 
(2S,5S,8S,11S,14R,19R,22S,25R,28S,34S)-N-[(2S)-1-amino-3-(4-hydroxyphenyl)-1-oxopropan-2-yl]-19-[[(2S)-2-amino-3-(4-hydroxyphenyl)propanoyl]amino]-5-(2-amino-2-oxoethyl)-11-benzyl-34-[3-(diaminomethylideneamino)propyl]-22-(1H-imidazol-5-ylmethyl)-2-(1H-indol-3-ylmethyl)-8-methyl-3,6,9,12,20,23,26,32,36-nonaoxo-25-[(4-phenylphenyl)methyl]-16,17,30-trithia-1,4,7,10,13,21,24,27,35-nonazabicyclo[26.4.4]hexatriacontane-14-carboxamide

$$$$
