
     RDKit          3D

 40 41  0  0  0  0  0  0  0  0999 V2000
   -4.9510    1.6589    0.5383 C   0  0  0  0  0  0  0  0  0  0  0  0
   -3.6166    1.9779   -0.0805 C   0  0  0  0  0  0  0  0  0  0  0  0
   -3.0779    0.7817   -1.3005 S   0  0  0  0  0  0  0  0  0  0  0  0
   -2.7310   -0.8245   -0.6240 C   0  0  0  0  0  0  0  0  0  0  0  0
   -3.7648   -1.7163   -0.5660 N   0  0  0  0  0  0  0  0  0  0  0  0
   -3.5587   -2.9458   -0.0629 C   0  0  0  0  0  0  0  0  0  0  0  0
   -4.4971   -3.7742   -0.0034 O   0  0  0  0  0  0  0  0  0  0  0  0
   -2.3066   -3.3465    0.4080 C   0  0  0  0  0  0  0  0  0  0  0  0
   -1.2870   -2.3924    0.3236 C   0  0  0  0  0  0  0  0  0  0  0  0
   -1.4963   -1.1653   -0.1792 N   0  0  0  0  0  0  0  0  0  0  0  0
   -0.4432   -0.2008   -0.2574 C   0  0  2  0  0  0  0  0  0  0  0  0
    0.7668   -0.7093   -0.7593 O   0  0  0  0  0  0  0  0  0  0  0  0
    1.7237    0.1928   -0.2292 C   0  0  1  0  0  0  0  0  0  0  0  0
    1.3419    0.0581    1.2349 C   0  0  2  0  0  0  0  0  0  0  0  0
   -0.1309    0.4241    1.0860 C   0  0  1  0  0  0  0  0  0  0  0  0
   -0.1466    1.8206    0.9176 O   0  0  0  0  0  0  0  0  0  0  0  0
    2.0398    0.8850    2.0708 O   0  0  0  0  0  0  0  0  0  0  0  0
    3.1268   -0.2115   -0.4949 C   0  0  0  0  0  0  0  0  0  0  0  0
    3.9420    0.7840    0.0928 O   0  0  0  0  0  0  0  0  0  0  0  0
    5.5750    0.5151   -0.1755 P   0  0  0  0  0  0  0  0  0  0  0  0
    6.2745    0.5867    1.1678 O   0  0  0  0  0  0  0  0  0  0  0  0
    5.7846   -0.9885   -0.8825 O   0  0  0  0  0  0  0  0  0  0  0  0
    6.2348    1.7691   -1.1157 O   0  0  0  0  0  0  0  0  0  0  0  0
   -5.0473    0.6525    0.9512 H   0  0  0  0  0  0  0  0  0  0  0  0
   -5.7963    1.9287   -0.1388 H   0  0  0  0  0  0  0  0  0  0  0  0
   -5.0636    2.3736    1.4061 H   0  0  0  0  0  0  0  0  0  0  0  0
   -3.7061    2.9485   -0.5997 H   0  0  0  0  0  0  0  0  0  0  0  0
   -2.9001    2.1374    0.7465 H   0  0  0  0  0  0  0  0  0  0  0  0
   -2.1358   -4.3247    0.8100 H   0  0  0  0  0  0  0  0  0  0  0  0
   -0.2966   -2.6879    0.6882 H   0  0  0  0  0  0  0  0  0  0  0  0
   -0.7238    0.5926   -1.0113 H   0  0  0  0  0  0  0  0  0  0  0  0
    1.4698    1.2068   -0.5659 H   0  0  0  0  0  0  0  0  0  0  0  0
    1.4844   -1.0115    1.4790 H   0  0  0  0  0  0  0  0  0  0  0  0
   -0.7613    0.0908    1.9061 H   0  0  0  0  0  0  0  0  0  0  0  0
   -0.3409    2.0770   -0.0286 H   0  0  0  0  0  0  0  0  0  0  0  0
    1.5892    0.8337    2.9530 H   0  0  0  0  0  0  0  0  0  0  0  0
    3.3296   -0.1568   -1.5858 H   0  0  0  0  0  0  0  0  0  0  0  0
    3.3945   -1.1943   -0.1129 H   0  0  0  0  0  0  0  0  0  0  0  0
    5.1736   -1.1238   -1.6326 H   0  0  0  0  0  0  0  0  0  0  0  0
    5.5287    2.4787   -1.2297 H   0  0  0  0  0  0  0  0  0  0  0  0
  1  2  1  0
  2  3  1  0
  3  4  1  0
  4  5  2  0
  5  6  1  0
  6  7  2  0
  6  8  1  0
  8  9  2  0
  9 10  1  0
 10 11  1  0
 11 12  1  0
 12 13  1  0
 13 14  1  0
 14 15  1  0
 15 16  1  0
 14 17  1  0
 13 18  1  0
 18 19  1  0
 19 20  1  0
 20 21  2  0
 20 22  1  0
 20 23  1  0
 10  4  1  0
 15 11  1  0
  1 24  1  0
  1 25  1  0
  1 26  1  0
  2 27  1  0
  2 28  1  0
  8 29  1  0
  9 30  1  0
 11 31  1  6
 13 32  1  6
 14 33  1  1
 15 34  1  1
 16 35  1  0
 17 36  1  0
 18 37  1  0
 18 38  1  0
 22 39  1  0
 23 40  1  0
M  END
>  <Ligand ID>  (1) 
LIG0004499

>  <Ligand>  (1) 
CHEMBL1767418

>  <SMILES>  (1) 
CCSc1nc(=O)ccn1[C@@H]1O[C@@H]([C@H]([C@H]1O)O)COP(=O)(O)O

>  <CID>  (1) 
52952395.0

>  <ChEMBL ID>  (1) 
nan

>  <InChiKey>  (1) 
HAIWBDSVRZGGKI-PEBGCTIMSA-N

>  <InChi>  (1) 
InChI=1S/C11H17N2O8PS/c1-2-23-11-12-7(14)3-4-13(11)10-9(16)8(15)6(21-10)5-20-22(17,18)19/h3-4,6,8-10,15-16H,2,5H2,1H3,(H2,17,18,19)/t6-,8-,9-,10-/m1/s1

>  <IUPAC Name>  (1) 
[(2R,3S,4R,5R)-5-(2-ethylsulfanyl-4-oxopyrimidin-1-yl)-3,4-dihydroxyoxolan-2-yl]methyl dihydrogen phosphate

$$$$
