
     RDKit          3D

 56 56  0  0  0  0  0  0  0  0999 V2000
    7.8980   -1.5818   -0.4219 C   0  0  0  0  0  0  0  0  0  0  0  0
    7.0686   -0.3415   -0.7479 C   0  0  0  0  0  0  0  0  0  0  0  0
    7.1121    0.6482    0.3764 C   0  0  0  0  0  0  0  0  0  0  0  0
    6.3128    1.8813    0.1018 C   0  0  0  0  0  0  0  0  0  0  0  0
    4.8490    1.5972   -0.1345 C   0  0  0  0  0  0  0  0  0  0  0  0
    4.1835    0.9395    1.0263 C   0  0  0  0  0  0  0  0  0  0  0  0
    2.7398    0.6992    0.6974 C   0  0  0  0  0  0  0  0  0  0  0  0
    2.5250   -0.1870   -0.5049 C   0  0  0  0  0  0  0  0  0  0  0  0
    1.0321   -0.3022   -0.6644 C   0  0  0  0  0  0  0  0  0  0  0  0
    0.3830    0.6267   -1.4558 C   0  0  0  0  0  0  0  0  0  0  0  0
   -0.9911    0.5708   -1.6396 C   0  0  0  0  0  0  0  0  0  0  0  0
   -1.7315   -0.4298   -1.0230 C   0  0  0  0  0  0  0  0  0  0  0  0
   -1.0719   -1.3448   -0.2401 C   0  0  0  0  0  0  0  0  0  0  0  0
    0.3078   -1.2981   -0.0485 C   0  0  0  0  0  0  0  0  0  0  0  0
   -3.1433   -0.4691   -1.2252 N   0  0  0  0  0  0  0  0  0  0  0  0
   -3.9843    0.2403   -0.3350 C   0  0  0  0  0  0  0  0  0  0  0  0
   -3.5283    0.9100    0.6364 O   0  0  0  0  0  0  0  0  0  0  0  0
   -5.4832    0.2424   -0.4893 C   0  0  1  0  0  0  0  0  0  0  0  0
   -5.8887   -1.2068   -0.3131 C   0  0  0  0  0  0  0  0  0  0  0  0
   -7.3598   -1.4331   -0.4302 C   0  0  0  0  0  0  0  0  0  0  0  0
   -8.2929   -0.5069    0.8044 P   0  0  0  0  0  0  0  0  0  0  0  0
   -9.5987   -1.2512    1.0400 O   0  0  0  0  0  0  0  0  0  0  0  0
   -7.4765   -0.4897    2.2671 O   0  0  0  0  0  0  0  0  0  0  0  0
   -8.6372    1.0515    0.2533 O   0  0  0  0  0  0  0  0  0  0  0  0
   -5.9817    1.0672    0.5959 N   0  0  0  0  0  0  0  0  0  0  0  0
    7.8610   -2.2420   -1.2997 H   0  0  0  0  0  0  0  0  0  0  0  0
    7.3708   -2.1012    0.4142 H   0  0  0  0  0  0  0  0  0  0  0  0
    8.9392   -1.3044   -0.1424 H   0  0  0  0  0  0  0  0  0  0  0  0
    7.3604    0.1177   -1.7070 H   0  0  0  0  0  0  0  0  0  0  0  0
    6.0245   -0.7410   -0.8893 H   0  0  0  0  0  0  0  0  0  0  0  0
    8.1779    0.9760    0.4643 H   0  0  0  0  0  0  0  0  0  0  0  0
    6.8788    0.1593    1.3266 H   0  0  0  0  0  0  0  0  0  0  0  0
    6.7658    2.4023   -0.7656 H   0  0  0  0  0  0  0  0  0  0  0  0
    6.3928    2.5999    0.9425 H   0  0  0  0  0  0  0  0  0  0  0  0
    4.8085    0.9780   -1.0661 H   0  0  0  0  0  0  0  0  0  0  0  0
    4.3036    2.5320   -0.3742 H   0  0  0  0  0  0  0  0  0  0  0  0
    4.6935    0.0545    1.4056 H   0  0  0  0  0  0  0  0  0  0  0  0
    4.1701    1.7024    1.8509 H   0  0  0  0  0  0  0  0  0  0  0  0
    2.2526    1.6808    0.5360 H   0  0  0  0  0  0  0  0  0  0  0  0
    2.1871    0.2395    1.5511 H   0  0  0  0  0  0  0  0  0  0  0  0
    2.9165   -1.1999   -0.3290 H   0  0  0  0  0  0  0  0  0  0  0  0
    2.9553    0.2000   -1.4260 H   0  0  0  0  0  0  0  0  0  0  0  0
    0.9602    1.4094   -1.9385 H   0  0  0  0  0  0  0  0  0  0  0  0
   -1.4859    1.3068   -2.2635 H   0  0  0  0  0  0  0  0  0  0  0  0
   -1.6679   -2.1171    0.2319 H   0  0  0  0  0  0  0  0  0  0  0  0
    0.8231   -2.0219    0.5697 H   0  0  0  0  0  0  0  0  0  0  0  0
   -3.5799   -1.0136   -2.0220 H   0  0  0  0  0  0  0  0  0  0  0  0
   -5.8020    0.6760   -1.4492 H   0  0  0  0  0  0  0  0  0  0  0  0
   -5.4698   -1.5245    0.6587 H   0  0  0  0  0  0  0  0  0  0  0  0
   -5.3694   -1.8075   -1.0795 H   0  0  0  0  0  0  0  0  0  0  0  0
   -7.5431   -2.5016   -0.2504 H   0  0  0  0  0  0  0  0  0  0  0  0
   -7.6568   -1.1738   -1.4672 H   0  0  0  0  0  0  0  0  0  0  0  0
   -7.6250   -1.3157    2.7897 H   0  0  0  0  0  0  0  0  0  0  0  0
   -9.4778    1.3414    0.6776 H   0  0  0  0  0  0  0  0  0  0  0  0
   -6.0766    2.0544    0.2528 H   0  0  0  0  0  0  0  0  0  0  0  0
   -5.3298    1.0013    1.4124 H   0  0  0  0  0  0  0  0  0  0  0  0
  1  2  1  0
  2  3  1  0
  3  4  1  0
  4  5  1  0
  5  6  1  0
  6  7  1  0
  7  8  1  0
  8  9  1  0
  9 10  2  0
 10 11  1  0
 11 12  2  0
 12 13  1  0
 13 14  2  0
 12 15  1  0
 15 16  1  0
 16 17  2  0
 16 18  1  0
 18 19  1  0
 19 20  1  0
 20 21  1  0
 21 22  2  0
 21 23  1  0
 21 24  1  0
 18 25  1  0
 14  9  1  0
  1 26  1  0
  1 27  1  0
  1 28  1  0
  2 29  1  0
  2 30  1  0
  3 31  1  0
  3 32  1  0
  4 33  1  0
  4 34  1  0
  5 35  1  0
  5 36  1  0
  6 37  1  0
  6 38  1  0
  7 39  1  0
  7 40  1  0
  8 41  1  0
  8 42  1  0
 10 43  1  0
 11 44  1  0
 13 45  1  0
 14 46  1  0
 15 47  1  0
 18 48  1  6
 19 49  1  0
 19 50  1  0
 20 51  1  0
 20 52  1  0
 23 53  1  0
 24 54  1  0
 25 55  1  0
 25 56  1  0
M  END
>  <Ligand ID>  (1) 
LIG0004249

>  <Ligand>  (1) 
CHEMBL227851

>  <SMILES>  (1) 
CCCCCCCCc1ccc(cc1)NC(=O)[C@@H](CCP(=O)(O)O)N

>  <CID>  (1) 
44422573.0

>  <ChEMBL ID>  (1) 
nan

>  <InChiKey>  (1) 
CSAPJUDXEBTDJR-QGZVFWFLSA-N

>  <InChi>  (1) 
InChI=1S/C18H31N2O4P/c1-2-3-4-5-6-7-8-15-9-11-16(12-10-15)20-18(21)17(19)13-14-25(22,23)24/h9-12,17H,2-8,13-14,19H2,1H3,(H,20,21)(H2,22,23,24)/t17-/m1/s1

>  <IUPAC Name>  (1) 
[(3R)-3-amino-4-(4-octylanilino)-4-oxobutyl]phosphonic acid

$$$$
