
     RDKit          3D

 34 36  0  0  0  0  0  0  0  0999 V2000
   -1.4626    2.2833    0.8022 C   0  0  0  0  0  0  0  0  0  0  0  0
   -2.7742    1.6301    0.3393 C   0  0  0  0  0  0  0  0  0  0  0  0
   -3.9008    2.3459    0.3601 C   0  0  0  0  0  0  0  0  0  0  0  0
   -5.0415    1.7735   -0.1161 N   0  0  0  0  0  0  0  0  0  0  0  0
   -4.4922    0.1070   -0.6307 S   0  0  0  0  0  0  0  0  0  0  0  0
   -2.8002    0.3848   -0.1407 C   0  0  0  0  0  0  0  0  0  0  0  0
   -1.8938   -0.7078   -0.3956 C   0  0  0  0  0  0  0  0  0  0  0  0
   -2.2226   -1.6739   -1.3655 C   0  0  0  0  0  0  0  0  0  0  0  0
   -1.4611   -2.7707   -1.6412 C   0  0  0  0  0  0  0  0  0  0  0  0
   -0.3080   -2.9896   -0.9679 C   0  0  0  0  0  0  0  0  0  0  0  0
    0.0714   -2.0878   -0.0081 C   0  0  0  0  0  0  0  0  0  0  0  0
   -0.7141   -0.9565    0.2775 C   0  0  0  0  0  0  0  0  0  0  0  0
   -0.2524   -0.1426    1.2443 O   0  0  0  0  0  0  0  0  0  0  0  0
    0.8666   -0.1615    2.0435 C   0  0  0  0  0  0  0  0  0  0  0  0
    2.1710   -0.1019    1.3411 C   0  0  0  0  0  0  0  0  0  0  0  0
    3.1890   -0.8676    1.3739 N   0  0  0  0  0  0  0  0  0  0  0  0
    4.2659   -0.4547    0.5337 C   0  0  0  0  0  0  0  0  0  0  0  0
    3.9097    0.9714    0.1706 C   0  0  0  0  0  0  0  0  0  0  0  0
    2.4865    0.9697    0.4324 N   0  0  0  0  0  0  0  0  0  0  0  0
   -1.3409    2.1146    1.8555 H   0  0  0  0  0  0  0  0  0  0  0  0
   -1.5733    3.4199    0.7188 H   0  0  0  0  0  0  0  0  0  0  0  0
   -0.6566    2.0791    0.0960 H   0  0  0  0  0  0  0  0  0  0  0  0
   -4.0016    3.3899    0.7415 H   0  0  0  0  0  0  0  0  0  0  0  0
   -3.1379   -1.5731   -1.9637 H   0  0  0  0  0  0  0  0  0  0  0  0
   -1.7582   -3.4849   -2.3978 H   0  0  0  0  0  0  0  0  0  0  0  0
    0.3040   -3.8470   -1.1726 H   0  0  0  0  0  0  0  0  0  0  0  0
    0.9918   -2.2876    0.5170 H   0  0  0  0  0  0  0  0  0  0  0  0
    0.8031   -1.0881    2.6805 H   0  0  0  0  0  0  0  0  0  0  0  0
    0.8302    0.7466    2.7178 H   0  0  0  0  0  0  0  0  0  0  0  0
    4.2809   -1.0086   -0.4376 H   0  0  0  0  0  0  0  0  0  0  0  0
    5.2266   -0.5475    1.0769 H   0  0  0  0  0  0  0  0  0  0  0  0
    4.1815    1.2530   -0.8579 H   0  0  0  0  0  0  0  0  0  0  0  0
    4.3868    1.6349    0.9321 H   0  0  0  0  0  0  0  0  0  0  0  0
    1.8269    1.6477    0.0149 H   0  0  0  0  0  0  0  0  0  0  0  0
  1  2  1  0
  2  3  1  0
  3  4  2  0
  4  5  1  0
  5  6  1  0
  6  7  1  0
  7  8  2  0
  8  9  1  0
  9 10  2  0
 10 11  1  0
 11 12  2  0
 12 13  1  0
 13 14  1  0
 14 15  1  0
 15 16  2  0
 16 17  1  0
 17 18  1  0
 18 19  1  0
  6  2  2  0
 12  7  1  0
 19 15  1  0
  1 20  1  0
  1 21  1  0
  1 22  1  0
  3 23  1  0
  8 24  1  0
  9 25  1  0
 10 26  1  0
 11 27  1  0
 14 28  1  0
 14 29  1  0
 17 30  1  0
 17 31  1  0
 18 32  1  0
 18 33  1  0
 19 34  1  0
M  END
>  <Ligand ID>  (1) 
LIG0003687

>  <Ligand>  (1) 
CHEMBL341747

>  <SMILES>  (1) 
Cc1cnsc1c1ccccc1OCC1=NCCN1

>  <CID>  (1) 
10038958.0

>  <ChEMBL ID>  (1) 
nan

>  <InChiKey>  (1) 
NBTBSFIAXGORAY-UHFFFAOYSA-N

>  <InChi>  (1) 
InChI=1S/C14H15N3OS/c1-10-8-17-19-14(10)11-4-2-3-5-12(11)18-9-13-15-6-7-16-13/h2-5,8H,6-7,9H2,1H3,(H,15,16)

>  <IUPAC Name>  (1) 
5-[2-(4,5-dihydro-1H-imidazol-2-ylmethoxy)phenyl]-4-methyl-1,2-thiazole

$$$$
