
     RDKit          3D

 15 16  0  0  0  0  0  0  0  0999 V2000
    4.2004    0.9113   -0.1362 S   0  0  0  0  0  0  0  0  0  0  0  0
    2.6443    0.7083   -0.0459 C   0  0  0  0  0  0  0  0  0  0  0  0
    1.4516    2.0428    0.4641 S   0  0  0  0  0  0  0  0  0  0  0  0
   -0.0037    0.9230    0.2734 C   0  0  0  0  0  0  0  0  0  0  0  0
    0.5754   -0.2788   -0.1381 C   0  0  0  0  0  0  0  0  0  0  0  0
    1.8628   -0.3332   -0.2786 N   0  0  0  0  0  0  0  0  0  0  0  0
   -0.3795   -1.3000   -0.3479 C   0  0  0  0  0  0  0  0  0  0  0  0
   -1.7179   -1.0608   -0.1478 C   0  0  0  0  0  0  0  0  0  0  0  0
   -2.2313    0.1502    0.2600 C   0  0  0  0  0  0  0  0  0  0  0  0
   -1.3175    1.1606    0.4706 C   0  0  0  0  0  0  0  0  0  0  0  0
    2.3598   -1.2558   -0.5995 H   0  0  0  0  0  0  0  0  0  0  0  0
   -0.1005   -2.2828   -0.6656 H   0  0  0  0  0  0  0  0  0  0  0  0
   -2.4199   -1.8647   -0.3178 H   0  0  0  0  0  0  0  0  0  0  0  0
   -3.2794    0.3457    0.4191 H   0  0  0  0  0  0  0  0  0  0  0  0
   -1.6447    2.1342    0.7903 H   0  0  0  0  0  0  0  0  0  0  0  0
  1  2  2  0
  2  3  1  0
  3  4  1  0
  4  5  2  0
  5  6  1  0
  5  7  1  0
  7  8  2  0
  8  9  1  0
  9 10  2  0
  6  2  1  0
 10  4  1  0
  6 11  1  0
  7 12  1  0
  8 13  1  0
  9 14  1  0
 10 15  1  0
M  END
>  <Ligand ID>  (1) 
LIG0005064

>  <Ligand>  (1) 
2-Mercaptobenzothiazole

>  <SMILES>  (1) 
S=c1sc2c([nH]1)cccc2

>  <CID>  (1) 
697993.0

>  <ChEMBL ID>  (1) 
nan

>  <InChiKey>  (1) 
YXIWHUQXZSMYRE-UHFFFAOYSA-N

>  <InChi>  (1) 
InChI=1S/C7H5NS2/c9-7-8-5-3-1-2-4-6(5)10-7/h1-4H,(H,8,9)

>  <IUPAC Name>  (1) 
3H-1,3-benzothiazole-2-thione

$$$$
