
     RDKit          3D

 52 53  0  0  0  0  0  0  0  0999 V2000
    7.6292    1.4678    1.5477 C   0  0  0  0  0  0  0  0  0  0  0  0
    6.8716    1.3203    0.3884 O   0  0  0  0  0  0  0  0  0  0  0  0
    5.5671    0.9829    0.2332 C   0  0  0  0  0  0  0  0  0  0  0  0
    5.0727    0.9235   -1.0645 C   0  0  0  0  0  0  0  0  0  0  0  0
    3.7461    0.5854   -1.3184 C   0  0  0  0  0  0  0  0  0  0  0  0
    2.8571    0.2919   -0.3014 C   0  0  0  0  0  0  0  0  0  0  0  0
    3.3420    0.3499    0.9823 C   0  0  0  0  0  0  0  0  0  0  0  0
    4.6766    0.6889    1.2606 C   0  0  0  0  0  0  0  0  0  0  0  0
    1.4763   -0.0648   -0.5934 C   0  0  0  0  0  0  0  0  0  0  0  0
    1.0355   -0.1218   -1.9698 C   0  0  0  0  0  0  0  0  0  0  0  0
   -0.7249   -0.6257   -1.7934 S   0  0  0  0  0  0  0  0  0  0  0  0
   -0.5875   -0.6779    0.0935 C   0  0  0  0  0  0  0  0  0  0  0  0
    0.5265   -0.3705    0.2392 N   0  0  0  0  0  0  0  0  0  0  0  0
   -1.7752   -1.0232    0.8129 N   0  0  0  0  0  0  0  0  0  0  0  0
   -2.2015   -2.4049    0.8862 C   0  0  0  0  0  0  0  0  0  0  0  0
   -3.3370   -2.6571    1.4438 O   0  0  0  0  0  0  0  0  0  0  0  0
   -1.4752   -3.5213    0.3976 C   0  0  0  0  0  0  0  0  0  0  0  0
   -1.6477   -4.4103   -0.6560 C   0  0  0  0  0  0  0  0  0  0  0  0
   -0.7525   -5.3767   -0.8121 C   0  0  0  0  0  0  0  0  0  0  0  0
    0.3088   -5.4456    0.0867 C   0  0  0  0  0  0  0  0  0  0  0  0
    0.0402   -4.0907    1.2064 S   0  0  0  0  0  0  0  0  0  0  0  0
   -2.5244   -0.0769    1.5494 C   0  0  0  0  0  0  0  0  0  0  0  0
   -3.6888    0.6058    0.9290 C   0  0  0  0  0  0  0  0  0  0  0  0
   -3.4213    1.4455   -0.2760 C   0  0  0  0  0  0  0  0  0  0  0  0
   -4.6200    2.1287   -0.7807 N   0  0  0  0  0  0  0  0  0  0  0  0
   -4.2029    2.8924   -1.9490 C   0  0  0  0  0  0  0  0  0  0  0  0
   -5.1060    3.0856    0.1996 C   0  0  0  0  0  0  0  0  0  0  0  0
    0.6902    0.0000    0.0000 Cl  0  0  0  0  0  0  0  0  0  0  0  0
    7.2504    0.9851    2.4526 H   0  0  0  0  0  0  0  0  0  0  0  0
    7.8555    2.5671    1.7421 H   0  0  0  0  0  0  0  0  0  0  0  0
    8.6576    1.0295    1.3585 H   0  0  0  0  0  0  0  0  0  0  0  0
    5.7507    1.1497   -1.9013 H   0  0  0  0  0  0  0  0  0  0  0  0
    3.4560    0.5722   -2.3513 H   0  0  0  0  0  0  0  0  0  0  0  0
    2.6418    0.1236    1.7775 H   0  0  0  0  0  0  0  0  0  0  0  0
    5.0506    0.7313    2.2647 H   0  0  0  0  0  0  0  0  0  0  0  0
    1.5469    0.0666   -2.8607 H   0  0  0  0  0  0  0  0  0  0  0  0
   -2.5250   -4.2743   -1.3233 H   0  0  0  0  0  0  0  0  0  0  0  0
   -0.8023   -6.1397   -1.6190 H   0  0  0  0  0  0  0  0  0  0  0  0
    1.1360   -6.1657    0.1111 H   0  0  0  0  0  0  0  0  0  0  0  0
   -1.8006    0.7078    1.9123 H   0  0  0  0  0  0  0  0  0  0  0  0
   -2.9256   -0.5931    2.4755 H   0  0  0  0  0  0  0  0  0  0  0  0
   -4.2279    1.2433    1.6708 H   0  0  0  0  0  0  0  0  0  0  0  0
   -4.4296   -0.2250    0.6859 H   0  0  0  0  0  0  0  0  0  0  0  0
   -3.1844    0.7233   -1.1119 H   0  0  0  0  0  0  0  0  0  0  0  0
   -2.5580    2.1240   -0.1995 H   0  0  0  0  0  0  0  0  0  0  0  0
   -5.0684    3.2930   -2.4874 H   0  0  0  0  0  0  0  0  0  0  0  0
   -3.6061    3.7771   -1.5780 H   0  0  0  0  0  0  0  0  0  0  0  0
   -3.5289    2.3024   -2.5717 H   0  0  0  0  0  0  0  0  0  0  0  0
   -5.9990    2.6531    0.6699 H   0  0  0  0  0  0  0  0  0  0  0  0
   -4.3379    3.4220    0.9142 H   0  0  0  0  0  0  0  0  0  0  0  0
   -5.4361    4.0255   -0.3193 H   0  0  0  0  0  0  0  0  0  0  0  0
   -0.6902    0.0000    0.0000 H   0  0  0  0  0  0  0  0  0  0  0  0
  1  2  1  0
  2  3  1  0
  3  4  2  0
  4  5  1  0
  5  6  2  0
  6  7  1  0
  7  8  2  0
  6  9  1  0
  9 10  2  0
 10 11  1  0
 11 12  1  0
 12 13  2  0
 12 14  1  0
 14 15  1  0
 15 16  2  0
 15 17  1  0
 17 18  2  0
 18 19  1  0
 19 20  2  0
 20 21  1  0
 14 22  1  0
 22 23  1  0
 23 24  1  0
 24 25  1  0
 25 26  1  0
 25 27  1  0
  8  3  1  0
 13  9  1  0
 21 17  1  0
  1 29  1  0
  1 30  1  0
  1 31  1  0
  4 32  1  0
  5 33  1  0
  7 34  1  0
  8 35  1  0
 10 36  1  0
 18 37  1  0
 19 38  1  0
 20 39  1  0
 22 40  1  0
 22 41  1  0
 23 42  1  0
 23 43  1  0
 24 44  1  0
 24 45  1  0
 26 46  1  0
 26 47  1  0
 26 48  1  0
 27 49  1  0
 27 50  1  0
 27 51  1  0
 28 52  1  0
M  END
>  <Ligand ID>  (1) 
LIG0004541

>  <Ligand>  (1) 
SMR000002184

>  <SMILES>  (1) 
COc1ccc(cc1)c1csc(n1)N(C(=O)c1cccs1)CCCN(C)C.Cl

>  <CID>  (1) 
6603157.0

>  <ChEMBL ID>  (1) 
nan

>  <InChiKey>  (1) 
GTFNRFFXOMZEIN-UHFFFAOYSA-N

>  <InChi>  (1) 
InChI=1S/C20H23N3O2S2.ClH/c1-22(2)11-5-12-23(19(24)18-6-4-13-26-18)20-21-17(14-27-20)15-7-9-16(25-3)10-8-15;/h4,6-10,13-14H,5,11-12H2,1-3H3;1H

>  <IUPAC Name>  (1) 
N-[3-(dimethylamino)propyl]-N-[4-(4-methoxyphenyl)-1,3-thiazol-2-yl]thiophene-2-carboxamide;hydrochloride

$$$$
