
     RDKit          3D

 55 58  0  0  0  0  0  0  0  0999 V2000
   -7.3085   -1.5023    3.6046 Cl  0  0  0  0  0  0  0  0  0  0  0  0
   -7.1667   -1.1671    1.8830 C   0  0  0  0  0  0  0  0  0  0  0  0
   -8.1017   -1.7608    1.0526 C   0  0  0  0  0  0  0  0  0  0  0  0
   -8.0103   -1.5135   -0.2925 C   0  0  0  0  0  0  0  0  0  0  0  0
   -7.0122   -0.6964   -0.7888 C   0  0  0  0  0  0  0  0  0  0  0  0
   -6.0659   -0.0902    0.0119 C   0  0  0  0  0  0  0  0  0  0  0  0
   -6.1631   -0.3449    1.3801 C   0  0  0  0  0  0  0  0  0  0  0  0
   -5.0189    0.7728   -0.5523 C   0  0  2  0  0  0  0  0  0  0  0  0
   -3.6747    0.0829   -0.6762 C   0  0  0  0  0  0  0  0  0  0  0  0
   -2.8131    1.0101   -1.3860 N   0  0  0  0  0  0  0  0  0  0  0  0
   -1.4721    0.4982   -1.5892 C   0  0  1  0  0  0  0  0  0  0  0  0
   -0.6616    1.5084   -2.3205 C   0  0  0  0  0  0  0  0  0  0  0  0
    0.1593    2.3095   -1.3328 C   0  0  0  0  0  0  0  0  0  0  0  0
    1.1828    1.3332   -0.8107 C   0  0  0  0  0  0  0  0  0  0  0  0
    0.6474    0.1564   -0.2976 C   0  0  0  0  0  0  0  0  0  0  0  0
   -0.8274    0.0367   -0.3315 C   0  0  0  0  0  0  0  0  0  0  0  0
    1.4838   -0.8174    0.2077 C   0  0  0  0  0  0  0  0  0  0  0  0
    2.8567   -0.5819    0.1849 C   0  0  0  0  0  0  0  0  0  0  0  0
    3.3656    0.6037   -0.3339 C   0  0  0  0  0  0  0  0  0  0  0  0
    2.5305    1.5929   -0.8463 C   0  0  0  0  0  0  0  0  0  0  0  0
    3.7369   -1.5550    0.6926 O   0  0  0  0  0  0  0  0  0  0  0  0
    5.1118   -1.3583    0.6879 C   0  0  0  0  0  0  0  0  0  0  0  0
    5.8639   -1.7719   -0.4138 C   0  0  0  0  0  0  0  0  0  0  0  0
    7.2327   -1.5812   -0.4292 C   0  0  0  0  0  0  0  0  0  0  0  0
    7.9023   -0.9819    0.6304 C   0  0  0  0  0  0  0  0  0  0  0  0
    7.1599   -0.5740    1.7173 C   0  0  0  0  0  0  0  0  0  0  0  0
    5.7857   -0.7643    1.7352 C   0  0  0  0  0  0  0  0  0  0  0  0
    7.7498    0.0662    2.8875 C   0  0  0  0  0  0  0  0  0  0  0  0
    7.0779    0.4412    3.8835 O   0  0  0  0  0  0  0  0  0  0  0  0
    9.1294    0.3008    2.9615 O   0  0  0  0  0  0  0  0  0  0  0  0
   -4.8353    1.9423    0.1519 O   0  0  0  0  0  0  0  0  0  0  0  0
   -8.8918   -2.4021    1.4035 H   0  0  0  0  0  0  0  0  0  0  0  0
   -8.7112   -1.9453   -1.0156 H   0  0  0  0  0  0  0  0  0  0  0  0
   -6.9579   -0.5142   -1.8537 H   0  0  0  0  0  0  0  0  0  0  0  0
   -5.4567    0.0950    2.0724 H   0  0  0  0  0  0  0  0  0  0  0  0
   -5.3202    1.0308   -1.6028 H   0  0  0  0  0  0  0  0  0  0  0  0
   -3.8448   -0.8465   -1.2466 H   0  0  0  0  0  0  0  0  0  0  0  0
   -3.2607   -0.2021    0.3108 H   0  0  0  0  0  0  0  0  0  0  0  0
   -2.8672    1.9680   -1.0322 H   0  0  0  0  0  0  0  0  0  0  0  0
   -1.6125   -0.4119   -2.2416 H   0  0  0  0  0  0  0  0  0  0  0  0
   -1.2850    2.1588   -2.9641 H   0  0  0  0  0  0  0  0  0  0  0  0
    0.0868    0.9328   -2.9387 H   0  0  0  0  0  0  0  0  0  0  0  0
   -0.4423    2.7555   -0.5317 H   0  0  0  0  0  0  0  0  0  0  0  0
    0.6272    3.1268   -1.9150 H   0  0  0  0  0  0  0  0  0  0  0  0
   -1.1212   -1.0217   -0.0758 H   0  0  0  0  0  0  0  0  0  0  0  0
   -1.2335    0.6263    0.5403 H   0  0  0  0  0  0  0  0  0  0  0  0
    1.0565   -1.7282    0.6039 H   0  0  0  0  0  0  0  0  0  0  0  0
    4.4198    0.7845   -0.3513 H   0  0  0  0  0  0  0  0  0  0  0  0
    2.8949    2.5188   -1.2536 H   0  0  0  0  0  0  0  0  0  0  0  0
    5.3219   -2.2348   -1.2247 H   0  0  0  0  0  0  0  0  0  0  0  0
    7.7841   -1.9119   -1.2949 H   0  0  0  0  0  0  0  0  0  0  0  0
    8.9749   -0.8306    0.6225 H   0  0  0  0  0  0  0  0  0  0  0  0
    5.1823   -0.4458    2.5910 H   0  0  0  0  0  0  0  0  0  0  0  0
    9.4924    1.1899    3.3228 H   0  0  0  0  0  0  0  0  0  0  0  0
   -4.6804    1.7138    1.1028 H   0  0  0  0  0  0  0  0  0  0  0  0
  1  2  1  0
  2  3  2  0
  3  4  1  0
  4  5  2  0
  5  6  1  0
  6  7  2  0
  6  8  1  0
  8  9  1  0
  9 10  1  0
 10 11  1  0
 11 12  1  0
 12 13  1  0
 13 14  1  0
 14 15  2  0
 15 16  1  0
 15 17  1  0
 17 18  2  0
 18 19  1  0
 19 20  2  0
 18 21  1  0
 21 22  1  0
 22 23  2  0
 23 24  1  0
 24 25  2  0
 25 26  1  0
 26 27  2  0
 26 28  1  0
 28 29  2  0
 28 30  1  0
  8 31  1  0
  7  2  1  0
 16 11  1  0
 27 22  1  0
 20 14  1  0
  3 32  1  0
  4 33  1  0
  5 34  1  0
  7 35  1  0
  8 36  1  6
  9 37  1  0
  9 38  1  0
 10 39  1  0
 11 40  1  6
 12 41  1  0
 12 42  1  0
 13 43  1  0
 13 44  1  0
 16 45  1  0
 16 46  1  0
 17 47  1  0
 19 48  1  0
 20 49  1  0
 23 50  1  0
 24 51  1  0
 25 52  1  0
 27 53  1  0
 30 54  1  0
 31 55  1  0
M  END
>  <Ligand ID>  (1) 
LIG0002992

>  <Ligand>  (1) 
CHEMBL497847

>  <SMILES>  (1) 
Clc1cccc(c1)[C@H](CN[C@H]1CCc2c(C1)cc(cc2)Oc1cccc(c1)C(=O)O)O

>  <CID>  (1) 
24949262.0

>  <ChEMBL ID>  (1) 
nan

>  <InChiKey>  (1) 
TUVSIMUHFGGVNU-URXFXBBRSA-N

>  <InChi>  (1) 
InChI=1S/C25H24ClNO4/c26-20-5-1-3-17(11-20)24(28)15-27-21-9-7-16-8-10-23(14-19(16)12-21)31-22-6-2-4-18(13-22)25(29)30/h1-6,8,10-11,13-14,21,24,27-28H,7,9,12,15H2,(H,29,30)/t21-,24-/m0/s1

>  <IUPAC Name>  (1) 
3-[[(7S)-7-[[(2R)-2-(3-chlorophenyl)-2-hydroxyethyl]amino]-5,6,7,8-tetrahydronaphthalen-2-yl]oxy]benzoic acid

$$$$
