
     RDKit          3D

 47 50  0  0  0  0  0  0  0  0999 V2000
   -9.5032    2.4519   -0.3716 F   0  0  0  0  0  0  0  0  0  0  0  0
   -8.3073    1.8177   -0.2117 C   0  0  0  0  0  0  0  0  0  0  0  0
   -7.3202    2.4583    0.4874 C   0  0  0  0  0  0  0  0  0  0  0  0
   -6.0999    1.8306    0.6600 C   0  0  0  0  0  0  0  0  0  0  0  0
   -5.9446    0.5761    0.1098 C   0  0  0  0  0  0  0  0  0  0  0  0
   -6.9473   -0.0620   -0.5941 C   0  0  0  0  0  0  0  0  0  0  0  0
   -8.1742    0.5659   -0.7693 C   0  0  0  0  0  0  0  0  0  0  0  0
   -6.6597   -1.6723   -1.2659 Cl  0  0  0  0  0  0  0  0  0  0  0  0
   -4.6586   -0.0884    0.2903 C   0  0  0  0  0  0  0  0  0  0  0  0
   -3.5940    0.4006    0.9459 N   0  0  0  0  0  0  0  0  0  0  0  0
   -2.6335   -0.4532    0.9065 O   0  0  0  0  0  0  0  0  0  0  0  0
   -3.0102   -1.5066    0.2456 C   0  0  0  0  0  0  0  0  0  0  0  0
   -4.2838   -1.3005   -0.1533 N   0  0  0  0  0  0  0  0  0  0  0  0
   -2.2733   -2.7559   -0.0741 C   0  0  0  0  0  0  0  0  0  0  0  0
   -0.8780   -2.7382    0.4816 C   0  0  0  0  0  0  0  0  0  0  0  0
   -0.0307   -1.6112   -0.0440 C   0  0  0  0  0  0  0  0  0  0  0  0
    1.3164   -1.6598    0.5433 N   0  0  0  0  0  0  0  0  0  0  0  0
    2.2418   -0.6502    0.1403 C   0  0  0  0  0  0  0  0  0  0  0  0
    1.8141    0.2991   -0.7683 C   0  0  0  0  0  0  0  0  0  0  0  0
    2.6974    1.2950   -1.1779 C   0  0  0  0  0  0  0  0  0  0  0  0
    3.9793    1.2940   -0.6539 C   0  0  0  0  0  0  0  0  0  0  0  0
    4.3784    0.3331    0.2520 C   0  0  0  0  0  0  0  0  0  0  0  0
    3.5190   -0.6567    0.6666 C   0  0  0  0  0  0  0  0  0  0  0  0
    5.6524    0.3281    0.7757 C   0  0  0  0  0  0  0  0  0  0  0  0
    6.5095    1.3260    0.3539 C   0  0  0  0  0  0  0  0  0  0  0  0
    6.0978    2.2976   -0.5653 C   0  0  0  0  0  0  0  0  0  0  0  0
    4.8279    2.2650   -1.0584 N   0  0  0  0  0  0  0  0  0  0  0  0
    7.8050    1.4213    0.8090 O   0  0  0  0  0  0  0  0  0  0  0  0
    8.8745    0.7540    0.1229 C   0  0  0  0  0  0  0  0  0  0  0  0
    8.8538    1.3035   -1.1649 F   0  0  0  0  0  0  0  0  0  0  0  0
   10.0930    1.1144    0.6507 F   0  0  0  0  0  0  0  0  0  0  0  0
    8.6627   -0.5935    0.0530 F   0  0  0  0  0  0  0  0  0  0  0  0
   -7.5137    3.4422    0.8908 H   0  0  0  0  0  0  0  0  0  0  0  0
   -5.2988    2.3097    1.2075 H   0  0  0  0  0  0  0  0  0  0  0  0
   -8.9547    0.0702   -1.3167 H   0  0  0  0  0  0  0  0  0  0  0  0
   -2.2114   -2.9411   -1.1740 H   0  0  0  0  0  0  0  0  0  0  0  0
   -2.7826   -3.6313    0.3746 H   0  0  0  0  0  0  0  0  0  0  0  0
   -0.8778   -2.8006    1.5855 H   0  0  0  0  0  0  0  0  0  0  0  0
   -0.3867   -3.6770    0.1119 H   0  0  0  0  0  0  0  0  0  0  0  0
    0.0333   -1.7654   -1.1522 H   0  0  0  0  0  0  0  0  0  0  0  0
   -0.4070   -0.6038    0.2112 H   0  0  0  0  0  0  0  0  0  0  0  0
    1.5881   -2.4005    1.2270 H   0  0  0  0  0  0  0  0  0  0  0  0
    0.8155    0.3162   -1.1891 H   0  0  0  0  0  0  0  0  0  0  0  0
    2.3956    2.0629   -1.8948 H   0  0  0  0  0  0  0  0  0  0  0  0
    3.8099   -1.4218    1.3770 H   0  0  0  0  0  0  0  0  0  0  0  0
    5.9900   -0.4235    1.4948 H   0  0  0  0  0  0  0  0  0  0  0  0
    6.7961    3.0801   -0.8854 H   0  0  0  0  0  0  0  0  0  0  0  0
  1  2  1  0
  2  3  2  0
  3  4  1  0
  4  5  2  0
  5  6  1  0
  6  7  2  0
  6  8  1  0
  5  9  1  0
  9 10  2  0
 10 11  1  0
 11 12  1  0
 12 13  2  0
 12 14  1  0
 14 15  1  0
 15 16  1  0
 16 17  1  0
 17 18  1  0
 18 19  2  0
 19 20  1  0
 20 21  2  0
 21 22  1  0
 22 23  2  0
 22 24  1  0
 24 25  2  0
 25 26  1  0
 26 27  2  0
 25 28  1  0
 28 29  1  0
 29 30  1  0
 29 31  1  0
 29 32  1  0
  7  2  1  0
 13  9  1  0
 23 18  1  0
 27 21  1  0
  3 33  1  0
  4 34  1  0
  7 35  1  0
 14 36  1  0
 14 37  1  0
 15 38  1  0
 15 39  1  0
 16 40  1  0
 16 41  1  0
 17 42  1  0
 19 43  1  0
 20 44  1  0
 23 45  1  0
 24 46  1  0
 26 47  1  0
M  END
>  <Ligand ID>  (1) 
LIG0001282

>  <Ligand>  (1) 
CHEMBL499066

>  <SMILES>  (1) 
Fc1ccc(c(c1)Cl)c1noc(n1)CCCNc1ccc2c(c1)cc(cn2)OC(F)(F)F

>  <CID>  (1) 
44586998.0

>  <ChEMBL ID>  (1) 
nan

>  <InChiKey>  (1) 
HBTYATWGNXKNSB-UHFFFAOYSA-N

>  <InChi>  (1) 
InChI=1S/C21H15ClF4N4O2/c22-17-10-13(23)3-5-16(17)20-29-19(32-30-20)2-1-7-27-14-4-6-18-12(8-14)9-15(11-28-18)31-21(24,25)26/h3-6,8-11,27H,1-2,7H2

>  <IUPAC Name>  (1) 
N-[3-[3-(2-chloro-4-fluorophenyl)-1,2,4-oxadiazol-5-yl]propyl]-3-(trifluoromethoxy)quinolin-6-amine

$$$$
