
     RDKit          3D

122125  0  0  0  0  0  0  0  0999 V2000
   -6.5866   -1.0113    2.4336 C   0  0  0  0  0  0  0  0  0  0  0  0
   -7.5388   -0.8277    1.2250 C   0  0  2  0  0  0  0  0  0  0  0  0
   -6.6462   -0.4769    0.0974 C   0  0  0  0  0  0  0  0  0  0  0  0
   -5.6164   -1.1755   -0.1951 O   0  0  0  0  0  0  0  0  0  0  0  0
   -6.9242    0.6518   -0.6802 N   0  0  0  0  0  0  0  0  0  0  0  0
   -6.1982    1.2083   -1.7794 C   0  0  0  0  0  0  0  0  0  0  0  0
   -4.8720    1.7389   -1.4525 C   0  0  0  0  0  0  0  0  0  0  0  0
   -4.2566    2.3053   -2.4469 O   0  0  0  0  0  0  0  0  0  0  0  0
   -4.1752    1.7362   -0.2450 N   0  0  0  0  0  0  0  0  0  0  0  0
   -2.9082    2.3432   -0.0259 C   0  0  2  0  0  0  0  0  0  0  0  0
   -1.7018    1.6748   -0.5078 C   0  0  0  0  0  0  0  0  0  0  0  0
   -0.5890    2.2587   -0.1950 O   0  0  0  0  0  0  0  0  0  0  0  0
   -1.5690    0.5083   -1.2608 N   0  0  0  0  0  0  0  0  0  0  0  0
   -0.2815    0.1084   -1.6213 N   0  0  0  0  0  0  0  0  0  0  0  0
    0.5612   -0.7942   -0.9727 C   0  0  0  0  0  0  0  0  0  0  0  0
    0.2811   -1.4232    0.0758 O   0  0  0  0  0  0  0  0  0  0  0  0
    1.9072   -1.0421   -1.5599 C   0  0  2  0  0  0  0  0  0  0  0  0
    1.7005   -1.4643   -3.0102 C   0  0  0  0  0  0  0  0  0  0  0  0
    2.9992   -1.7500   -3.7013 C   0  0  0  0  0  0  0  0  0  0  0  0
    3.6377   -0.6685   -4.3175 C   0  0  0  0  0  0  0  0  0  0  0  0
    4.8461   -0.8438   -4.9984 C   0  0  0  0  0  0  0  0  0  0  0  0
    5.3881   -2.1085   -5.0443 C   0  0  0  0  0  0  0  0  0  0  0  0
    4.7616   -3.1894   -4.4367 C   0  0  0  0  0  0  0  0  0  0  0  0
    3.5499   -3.0156   -3.7526 C   0  0  0  0  0  0  0  0  0  0  0  0
    2.7112   -1.9802   -0.8443 N   0  0  0  0  0  0  0  0  0  0  0  0
    4.0629   -1.7261   -0.4583 C   0  0  0  0  0  0  0  0  0  0  0  0
    4.5033   -0.5723   -0.8019 O   0  0  0  0  0  0  0  0  0  0  0  0
    4.8853   -2.7093    0.2692 C   0  0  0  0  0  0  0  0  0  0  0  0
    6.2259   -2.1582    0.4610 N   0  0  0  0  0  0  0  0  0  0  0  0
    6.9577   -1.8211   -0.6970 C   0  0  0  0  0  0  0  0  0  0  0  0
    6.3657   -2.0373   -1.8224 O   0  0  0  0  0  0  0  0  0  0  0  0
    8.2987   -1.2561   -0.7671 C   0  0  2  0  0  0  0  0  0  0  0  0
    8.9316   -1.1765    0.5430 N   0  0  0  0  0  0  0  0  0  0  0  0
   10.2263   -1.7684    0.6486 C   0  0  0  0  0  0  0  0  0  0  0  0
   10.7657   -2.3210   -0.3635 O   0  0  0  0  0  0  0  0  0  0  0  0
   11.0159   -1.7852    1.9009 C   0  0  2  0  0  0  0  0  0  0  0  0
   11.2198   -0.4290    2.5094 C   0  0  0  0  0  0  0  0  0  0  0  0
   11.9137    0.5358    1.6130 C   0  0  0  0  0  0  0  0  0  0  0  0
   11.1901    1.3948    0.7740 C   0  0  0  0  0  0  0  0  0  0  0  0
   11.8439    2.2825   -0.0657 C   0  0  0  0  0  0  0  0  0  0  0  0
   13.2127    2.3554   -0.1084 C   0  0  0  0  0  0  0  0  0  0  0  0
   13.9302    1.5112    0.7158 C   0  0  0  0  0  0  0  0  0  0  0  0
   13.2903    0.6158    1.5642 C   0  0  0  0  0  0  0  0  0  0  0  0
   13.9292    3.2109   -0.9137 O   0  0  0  0  0  0  0  0  0  0  0  0
   12.2946   -2.4008    1.6922 N   0  0  0  0  0  0  0  0  0  0  0  0
    8.2460    0.1875   -1.2991 C   0  0  0  0  0  0  0  0  0  0  0  0
   -2.7684    3.0959    1.2465 C   0  0  0  0  0  0  0  0  0  0  0  0
   -2.9228    2.3768    2.5020 C   0  0  0  0  0  0  0  0  0  0  0  0
   -1.7428    1.8865    3.0959 C   0  0  0  0  0  0  0  0  0  0  0  0
   -1.8114    1.2179    4.2979 C   0  0  0  0  0  0  0  0  0  0  0  0
   -3.0184    1.0241    4.9214 C   0  0  0  0  0  0  0  0  0  0  0  0
   -4.2094    1.4920    4.3677 C   0  0  0  0  0  0  0  0  0  0  0  0
   -4.1514    2.1730    3.1480 C   0  0  0  0  0  0  0  0  0  0  0  0
   -8.4791    0.1531    1.6175 N   0  0  0  0  0  0  0  0  0  0  0  0
   -9.7713   -0.1136    2.2244 C   0  0  0  0  0  0  0  0  0  0  0  0
  -10.0281   -1.3255    2.3951 O   0  0  0  0  0  0  0  0  0  0  0  0
  -10.6046    1.0287    2.5718 C   0  0  2  0  0  0  0  0  0  0  0  0
  -12.0548    0.7280    2.6127 C   0  0  0  0  0  0  0  0  0  0  0  0
  -12.6256    0.2955    1.3559 C   0  0  0  0  0  0  0  0  0  0  0  0
  -12.8155   -1.0207    0.9517 C   0  0  0  0  0  0  0  0  0  0  0  0
  -13.4040   -1.3041   -0.2751 C   0  0  0  0  0  0  0  0  0  0  0  0
  -13.8136   -0.3149   -1.1239 C   0  0  0  0  0  0  0  0  0  0  0  0
  -13.6316    0.9925   -0.7433 C   0  0  0  0  0  0  0  0  0  0  0  0
  -13.0523    1.2967    0.4665 C   0  0  0  0  0  0  0  0  0  0  0  0
  -14.4097   -0.5372   -2.3588 O   0  0  0  0  0  0  0  0  0  0  0  0
  -10.3792    2.1365    1.6507 N   0  0  0  0  0  0  0  0  0  0  0  0
   -6.2627   -0.0565    2.8454 H   0  0  0  0  0  0  0  0  0  0  0  0
   -7.0651   -1.6338    3.1828 H   0  0  0  0  0  0  0  0  0  0  0  0
   -5.6868   -1.5744    2.0942 H   0  0  0  0  0  0  0  0  0  0  0  0
   -8.0409   -1.8107    1.0752 H   0  0  0  0  0  0  0  0  0  0  0  0
   -7.8208    1.1786   -0.4235 H   0  0  0  0  0  0  0  0  0  0  0  0
   -6.1212    0.4661   -2.6328 H   0  0  0  0  0  0  0  0  0  0  0  0
   -6.7705    2.0570   -2.2209 H   0  0  0  0  0  0  0  0  0  0  0  0
   -4.6395    1.2383    0.5757 H   0  0  0  0  0  0  0  0  0  0  0  0
   -2.9570    3.2380   -0.8084 H   0  0  0  0  0  0  0  0  0  0  0  0
   -2.4442   -0.0097   -1.5196 H   0  0  0  0  0  0  0  0  0  0  0  0
    0.0751    0.5877   -2.5114 H   0  0  0  0  0  0  0  0  0  0  0  0
    2.4195   -0.0584   -1.6351 H   0  0  0  0  0  0  0  0  0  0  0  0
    1.0066   -2.3111   -3.0874 H   0  0  0  0  0  0  0  0  0  0  0  0
    1.2547   -0.6092   -3.5377 H   0  0  0  0  0  0  0  0  0  0  0  0
    3.1914    0.3064   -4.2606 H   0  0  0  0  0  0  0  0  0  0  0  0
    5.3506   -0.0049   -5.4798 H   0  0  0  0  0  0  0  0  0  0  0  0
    6.3319   -2.2898   -5.5687 H   0  0  0  0  0  0  0  0  0  0  0  0
    5.2024   -4.1812   -4.4877 H   0  0  0  0  0  0  0  0  0  0  0  0
    3.0418   -3.8428   -3.2759 H   0  0  0  0  0  0  0  0  0  0  0  0
    2.3021   -2.9016   -0.5952 H   0  0  0  0  0  0  0  0  0  0  0  0
    4.8763   -3.7005   -0.1770 H   0  0  0  0  0  0  0  0  0  0  0  0
    4.4791   -2.8090    1.3168 H   0  0  0  0  0  0  0  0  0  0  0  0
    6.6630   -2.0101    1.3880 H   0  0  0  0  0  0  0  0  0  0  0  0
    8.9243   -1.8777   -1.4599 H   0  0  0  0  0  0  0  0  0  0  0  0
    8.4971   -0.7288    1.3723 H   0  0  0  0  0  0  0  0  0  0  0  0
   10.4500   -2.4283    2.6247 H   0  0  0  0  0  0  0  0  0  0  0  0
   11.8649   -0.5680    3.4206 H   0  0  0  0  0  0  0  0  0  0  0  0
   10.2846    0.0369    2.8855 H   0  0  0  0  0  0  0  0  0  0  0  0
   10.1146    1.3795    0.7617 H   0  0  0  0  0  0  0  0  0  0  0  0
   11.2471    2.9383   -0.7061 H   0  0  0  0  0  0  0  0  0  0  0  0
   15.0196    1.4922    0.7493 H   0  0  0  0  0  0  0  0  0  0  0  0
   13.8750   -0.0289    2.1934 H   0  0  0  0  0  0  0  0  0  0  0  0
   13.7138    4.1718   -1.0988 H   0  0  0  0  0  0  0  0  0  0  0  0
   12.3794   -3.3090    2.2022 H   0  0  0  0  0  0  0  0  0  0  0  0
   12.4100   -2.6045    0.6780 H   0  0  0  0  0  0  0  0  0  0  0  0
    7.5300    0.2794   -2.1377 H   0  0  0  0  0  0  0  0  0  0  0  0
    9.2526    0.5604   -1.5179 H   0  0  0  0  0  0  0  0  0  0  0  0
    7.8364    0.7834   -0.4516 H   0  0  0  0  0  0  0  0  0  0  0  0
   -1.7742    3.6181    1.2413 H   0  0  0  0  0  0  0  0  0  0  0  0
   -3.4959    3.9748    1.1929 H   0  0  0  0  0  0  0  0  0  0  0  0
   -0.7752    2.0386    2.6080 H   0  0  0  0  0  0  0  0  0  0  0  0
   -0.9080    0.8285    4.7862 H   0  0  0  0  0  0  0  0  0  0  0  0
   -3.0794    0.5017    5.8622 H   0  0  0  0  0  0  0  0  0  0  0  0
   -5.1441    1.3265    4.8788 H   0  0  0  0  0  0  0  0  0  0  0  0
   -5.0395    2.5568    2.6930 H   0  0  0  0  0  0  0  0  0  0  0  0
   -8.2153    1.1699    1.4704 H   0  0  0  0  0  0  0  0  0  0  0  0
  -10.2884    1.4004    3.6261 H   0  0  0  0  0  0  0  0  0  0  0  0
  -12.2205   -0.0966    3.4058 H   0  0  0  0  0  0  0  0  0  0  0  0
  -12.6175    1.6205    3.0301 H   0  0  0  0  0  0  0  0  0  0  0  0
  -12.5341   -1.8302    1.5646 H   0  0  0  0  0  0  0  0  0  0  0  0
  -13.5623   -2.3307   -0.6151 H   0  0  0  0  0  0  0  0  0  0  0  0
  -13.9450    1.8190   -1.3916 H   0  0  0  0  0  0  0  0  0  0  0  0
  -12.9327    2.3359    0.7223 H   0  0  0  0  0  0  0  0  0  0  0  0
  -15.4318   -0.6342   -2.4249 H   0  0  0  0  0  0  0  0  0  0  0  0
  -10.4114    1.7573    0.6949 H   0  0  0  0  0  0  0  0  0  0  0  0
   -9.5054    2.6013    1.8516 H   0  0  0  0  0  0  0  0  0  0  0  0
  1  2  1  0
  2  3  1  0
  3  4  2  0
  3  5  1  0
  5  6  1  0
  6  7  1  0
  7  8  2  0
  7  9  1  0
  9 10  1  0
 10 11  1  0
 11 12  2  0
 11 13  1  0
 13 14  1  0
 14 15  1  0
 15 16  2  0
 15 17  1  0
 17 18  1  0
 18 19  1  0
 19 20  2  0
 20 21  1  0
 21 22  2  0
 22 23  1  0
 23 24  2  0
 17 25  1  0
 25 26  1  0
 26 27  2  0
 26 28  1  0
 28 29  1  0
 29 30  1  0
 30 31  2  0
 30 32  1  0
 32 33  1  0
 33 34  1  0
 34 35  2  0
 34 36  1  0
 36 37  1  0
 37 38  1  0
 38 39  2  0
 39 40  1  0
 40 41  2  0
 41 42  1  0
 42 43  2  0
 41 44  1  0
 36 45  1  0
 32 46  1  0
 10 47  1  0
 47 48  1  0
 48 49  2  0
 49 50  1  0
 50 51  2  0
 51 52  1  0
 52 53  2  0
  2 54  1  0
 54 55  1  0
 55 56  2  0
 55 57  1  0
 57 58  1  0
 58 59  1  0
 59 60  2  0
 60 61  1  0
 61 62  2  0
 62 63  1  0
 63 64  2  0
 62 65  1  0
 57 66  1  0
 24 19  1  0
 43 38  1  0
 53 48  1  0
 64 59  1  0
  1 67  1  0
  1 68  1  0
  1 69  1  0
  2 70  1  6
  5 71  1  0
  6 72  1  0
  6 73  1  0
  9 74  1  0
 10 75  1  6
 13 76  1  0
 14 77  1  0
 17 78  1  6
 18 79  1  0
 18 80  1  0
 20 81  1  0
 21 82  1  0
 22 83  1  0
 23 84  1  0
 24 85  1  0
 25 86  1  0
 28 87  1  0
 28 88  1  0
 29 89  1  0
 32 90  1  6
 33 91  1  0
 36 92  1  1
 37 93  1  0
 37 94  1  0
 39 95  1  0
 40 96  1  0
 42 97  1  0
 43 98  1  0
 44 99  1  0
 45100  1  0
 45101  1  0
 46102  1  0
 46103  1  0
 46104  1  0
 47105  1  0
 47106  1  0
 49107  1  0
 50108  1  0
 51109  1  0
 52110  1  0
 53111  1  0
 54112  1  0
 57113  1  1
 58114  1  0
 58115  1  0
 60116  1  0
 61117  1  0
 63118  1  0
 64119  1  0
 65120  1  0
 66121  1  0
 66122  1  0
M  END
>  <Ligand ID>  (1) 
LIG0002198

>  <Ligand>  (1) 
Biphalin

>  <SMILES>  (1) 
C[C@H](C(=O)NCC(=O)N[C@H](C(=O)NNC(=O)[C@H](Cc1ccccc1)NC(=O)CNC(=O)[C@H](NC(=O)[C@H](Cc1ccc(cc1)O)N)C)Cc1ccccc1)NC(=O)[C@H](Cc1ccc(cc1)O)N

>  <CID>  (1) 
5487663.0

>  <ChEMBL ID>  (1) 
nan

>  <InChiKey>  (1) 
DESSEGDLRYOPTJ-VRANXALZSA-N

>  <InChi>  (1) 
InChI=1S/C46H56N10O10/c1-27(51-43(63)35(47)21-31-13-17-33(57)18-14-31)41(61)49-25-39(59)53-37(23-29-9-5-3-6-10-29)45(65)55-56-46(66)38(24-30-11-7-4-8-12-30)54-40(60)26-50-42(62)28(2)52-44(64)36(48)22-32-15-19-34(58)20-16-32/h3-20,27-28,35-38,57-58H,21-26,47-48H2,1-2H3,(H,49,61)(H,50,62)(H,51,63)(H,52,64)(H,53,59)(H,54,60)(H,55,65)(H,56,66)/t27-,28-,35+,36+,37+,38+/m1/s1

>  <IUPAC Name>  (1) 
(2S)-2-amino-N-[(2R)-1-[[2-[[(2S)-1-[2-[(2S)-2-[[2-[[(2R)-2-[[(2S)-2-amino-3-(4-hydroxyphenyl)propanoyl]amino]propanoyl]amino]acetyl]amino]-3-phenylpropanoyl]hydrazinyl]-1-oxo-3-phenylpropan-2-yl]amino]-2-oxoethyl]amino]-1-oxopropan-2-yl]-3-(4-hydroxyphenyl)propanamide

$$$$
