
     RDKit          3D

 57 57  0  0  0  0  0  0  0  0999 V2000
    3.5702    2.3079   -2.6026 C   0  0  0  0  0  0  0  0  0  0  0  0
    4.1766    0.9316   -2.4807 C   0  0  0  0  0  0  0  0  0  0  0  0
    4.4026    0.6252   -0.9606 C   0  0  0  0  0  0  0  0  0  0  0  0
    4.9953   -0.7283   -0.9003 C   0  0  0  0  0  0  0  0  0  0  0  0
    5.3787   -1.3072    0.3789 C   0  0  0  0  0  0  0  0  0  0  0  0
    4.4938   -1.6748    1.4620 C   0  0  0  0  0  0  0  0  0  0  0  0
    3.6225   -0.7418    2.1734 C   0  0  0  0  0  0  0  0  0  0  0  0
    2.5803   -0.0965    1.5768 O   0  0  0  0  0  0  0  0  0  0  0  0
    1.4289   -0.5105    0.9866 C   0  0  0  0  0  0  0  0  0  0  0  0
    0.9836   -1.7964    0.8406 C   0  0  0  0  0  0  0  0  0  0  0  0
   -0.2067   -2.1116    0.2206 C   0  0  0  0  0  0  0  0  0  0  0  0
   -1.0366   -1.1109   -0.3011 C   0  0  0  0  0  0  0  0  0  0  0  0
   -0.5956    0.1771   -0.1574 C   0  0  0  0  0  0  0  0  0  0  0  0
    0.5943    0.4887    0.4626 C   0  0  0  0  0  0  0  0  0  0  0  0
   -2.2717   -1.5452   -0.9464 C   0  0  0  0  0  0  0  0  0  0  0  0
   -3.4633   -1.7201   -0.0909 C   0  0  0  0  0  0  0  0  0  0  0  0
   -3.9227   -0.4799    0.5892 C   0  0  2  0  0  0  0  0  0  0  0  0
   -4.3206    0.5975   -0.3969 C   0  0  0  0  0  0  0  0  0  0  0  0
   -4.8340    1.7204    0.2604 O   0  0  0  0  0  0  0  0  0  0  0  0
   -5.2817    2.9274   -0.8142 P   0  0  0  0  0  0  0  0  0  0  0  0
   -6.6836    2.6595   -1.3603 O   0  0  0  0  0  0  0  0  0  0  0  0
   -5.2156    4.4650   -0.0969 O   0  0  0  0  0  0  0  0  0  0  0  0
   -4.1816    2.9300   -2.0985 O   0  0  0  0  0  0  0  0  0  0  0  0
   -2.9201    0.1085    1.4503 N   0  0  0  0  0  0  0  0  0  0  0  0
   -5.1050   -0.8285    1.4700 C   0  0  0  0  0  0  0  0  0  0  0  0
    2.9784    2.5714   -1.7068 H   0  0  0  0  0  0  0  0  0  0  0  0
    2.8566    2.3764   -3.4580 H   0  0  0  0  0  0  0  0  0  0  0  0
    4.4029    3.0227   -2.8050 H   0  0  0  0  0  0  0  0  0  0  0  0
    5.1369    0.8203   -2.9953 H   0  0  0  0  0  0  0  0  0  0  0  0
    3.4085    0.1942   -2.7957 H   0  0  0  0  0  0  0  0  0  0  0  0
    5.1654    1.3720   -0.6079 H   0  0  0  0  0  0  0  0  0  0  0  0
    3.4461    0.8191   -0.5257 H   0  0  0  0  0  0  0  0  0  0  0  0
    5.9219   -0.6856   -1.5895 H   0  0  0  0  0  0  0  0  0  0  0  0
    4.3450   -1.4479   -1.5173 H   0  0  0  0  0  0  0  0  0  0  0  0
    6.0150   -2.2705    0.1717 H   0  0  0  0  0  0  0  0  0  0  0  0
    6.2252   -0.6688    0.8672 H   0  0  0  0  0  0  0  0  0  0  0  0
    5.1891   -2.1476    2.2764 H   0  0  0  0  0  0  0  0  0  0  0  0
    3.8769   -2.6102    1.2174 H   0  0  0  0  0  0  0  0  0  0  0  0
    3.1426   -1.3642    3.0240 H   0  0  0  0  0  0  0  0  0  0  0  0
    4.2300   -0.0109    2.8091 H   0  0  0  0  0  0  0  0  0  0  0  0
    1.5626   -2.6162    1.2233 H   0  0  0  0  0  0  0  0  0  0  0  0
   -0.5038   -3.1482    0.1360 H   0  0  0  0  0  0  0  0  0  0  0  0
   -1.1753    1.0006   -0.5375 H   0  0  0  0  0  0  0  0  0  0  0  0
    0.8933    1.5361    0.5473 H   0  0  0  0  0  0  0  0  0  0  0  0
   -2.0980   -2.5226   -1.4806 H   0  0  0  0  0  0  0  0  0  0  0  0
   -2.5428   -0.8273   -1.7575 H   0  0  0  0  0  0  0  0  0  0  0  0
   -4.3057   -2.0212   -0.7857 H   0  0  0  0  0  0  0  0  0  0  0  0
   -3.4030   -2.5863    0.6086 H   0  0  0  0  0  0  0  0  0  0  0  0
   -3.4583    0.8822   -1.0013 H   0  0  0  0  0  0  0  0  0  0  0  0
   -5.0696    0.1856   -1.1188 H   0  0  0  0  0  0  0  0  0  0  0  0
   -6.0233    4.6446    0.4517 H   0  0  0  0  0  0  0  0  0  0  0  0
   -4.5178    2.3004   -2.7784 H   0  0  0  0  0  0  0  0  0  0  0  0
   -2.8461   -0.3629    2.3725 H   0  0  0  0  0  0  0  0  0  0  0  0
   -2.9710    1.1407    1.5101 H   0  0  0  0  0  0  0  0  0  0  0  0
   -4.6971   -1.3863    2.3320 H   0  0  0  0  0  0  0  0  0  0  0  0
   -5.7095   -1.5565    0.8797 H   0  0  0  0  0  0  0  0  0  0  0  0
   -5.6632    0.0799    1.7607 H   0  0  0  0  0  0  0  0  0  0  0  0
  1  2  1  0
  2  3  1  0
  3  4  1  0
  4  5  1  0
  5  6  1  0
  6  7  1  0
  7  8  1  0
  8  9  1  0
  9 10  2  0
 10 11  1  0
 11 12  2  0
 12 13  1  0
 13 14  2  0
 12 15  1  0
 15 16  1  0
 16 17  1  0
 17 18  1  0
 18 19  1  0
 19 20  1  0
 20 21  2  0
 20 22  1  0
 20 23  1  0
 17 24  1  1
 17 25  1  0
 14  9  1  0
  1 26  1  0
  1 27  1  0
  1 28  1  0
  2 29  1  0
  2 30  1  0
  3 31  1  0
  3 32  1  0
  4 33  1  0
  4 34  1  0
  5 35  1  0
  5 36  1  0
  6 37  1  0
  6 38  1  0
  7 39  1  0
  7 40  1  0
 10 41  1  0
 11 42  1  0
 13 43  1  0
 14 44  1  0
 15 45  1  0
 15 46  1  0
 16 47  1  0
 16 48  1  0
 18 49  1  0
 18 50  1  0
 22 51  1  0
 23 52  1  0
 24 53  1  0
 24 54  1  0
 25 55  1  0
 25 56  1  0
 25 57  1  0
M  END
>  <Ligand ID>  (1) 
LIG0004295

>  <Ligand>  (1) 
AFD(R)

>  <SMILES>  (1) 
CCCCCCCOc1ccc(cc1)CC[C@](COP(=O)(O)O)(N)C

>  <CID>  (1) 
10904818.0

>  <ChEMBL ID>  (1) 
nan

>  <InChiKey>  (1) 
NMRLBSIYIBOLLJ-GOSISDBHSA-N

>  <InChi>  (1) 
InChI=1S/C18H32NO5P/c1-3-4-5-6-7-14-23-17-10-8-16(9-11-17)12-13-18(2,19)15-24-25(20,21)22/h8-11H,3-7,12-15,19H2,1-2H3,(H2,20,21,22)/t18-/m1/s1

>  <IUPAC Name>  (1) 
[(2R)-2-amino-4-(4-heptoxyphenyl)-2-methylbutyl] dihydrogen phosphate

$$$$
