
     RDKit          3D

 57 61  0  0  0  0  0  0  0  0999 V2000
   -5.9649    5.0353   -0.7657 Cl  0  0  0  0  0  0  0  0  0  0  0  0
   -4.8978    3.7003   -0.3877 C   0  0  0  0  0  0  0  0  0  0  0  0
   -5.4213    2.4361   -0.2348 C   0  0  0  0  0  0  0  0  0  0  0  0
   -4.5854    1.3682    0.0652 C   0  0  0  0  0  0  0  0  0  0  0  0
   -3.2283    1.5496    0.2145 C   0  0  0  0  0  0  0  0  0  0  0  0
   -2.7145    2.8079    0.0613 C   0  0  0  0  0  0  0  0  0  0  0  0
   -3.5376    3.8973   -0.2408 C   0  0  0  0  0  0  0  0  0  0  0  0
   -2.3815    0.3509    0.5380 C   0  0  0  0  0  0  0  0  0  0  0  0
   -1.8867   -0.2932   -0.6888 C   0  0  0  0  0  0  0  0  0  0  0  0
   -2.7477   -0.7936   -1.6503 C   0  0  0  0  0  0  0  0  0  0  0  0
   -2.3108   -1.4123   -2.8032 C   0  0  0  0  0  0  0  0  0  0  0  0
   -0.9569   -1.5476   -3.0262 C   0  0  0  0  0  0  0  0  0  0  0  0
   -0.0616   -1.0635   -2.0954 C   0  0  0  0  0  0  0  0  0  0  0  0
   -0.5247   -0.4575   -0.9665 C   0  0  0  0  0  0  0  0  0  0  0  0
    1.2957   -1.1903   -2.3025 C   0  0  0  0  0  0  0  0  0  0  0  0
    1.6767   -1.8003   -3.4404 N   0  0  0  0  0  0  0  0  0  0  0  0
    0.8346   -2.2841   -4.3693 C   0  0  0  0  0  0  0  0  0  0  0  0
   -0.4792   -2.1474   -4.1427 N   0  0  0  0  0  0  0  0  0  0  0  0
    2.2751   -0.7154   -1.3873 N   0  0  0  0  0  0  0  0  0  0  0  0
    3.6915   -0.9127   -1.7255 C   0  0  0  0  0  0  0  0  0  0  0  0
    4.5944   -0.3791   -0.7019 C   0  0  0  0  0  0  0  0  0  0  0  0
    5.0313   -1.1557    0.3627 C   0  0  0  0  0  0  0  0  0  0  0  0
    5.8764   -0.6769    1.3320 C   0  0  0  0  0  0  0  0  0  0  0  0
    6.3204    0.6196    1.2665 C   0  0  0  0  0  0  0  0  0  0  0  0
    5.9056    1.4069    0.2284 C   0  0  0  0  0  0  0  0  0  0  0  0
    5.0500    0.9139   -0.7485 C   0  0  0  0  0  0  0  0  0  0  0  0
    7.2420    1.1519    2.3180 C   0  0  0  0  0  0  0  0  0  0  0  0
    6.9741    0.6441    3.5567 F   0  0  0  0  0  0  0  0  0  0  0  0
    8.5356    0.7809    1.9552 F   0  0  0  0  0  0  0  0  0  0  0  0
    7.2326    2.5213    2.3614 F   0  0  0  0  0  0  0  0  0  0  0  0
   -2.9464   -0.5238    1.5506 C   0  0  0  0  0  0  0  0  0  0  0  0
   -2.8486   -0.1300    2.8942 C   0  0  0  0  0  0  0  0  0  0  0  0
   -3.3558   -0.9109    3.9129 C   0  0  0  0  0  0  0  0  0  0  0  0
   -3.9815   -2.1112    3.6681 C   0  0  0  0  0  0  0  0  0  0  0  0
   -4.0858   -2.5128    2.3527 C   0  0  0  0  0  0  0  0  0  0  0  0
   -3.5764   -1.7275    1.3379 C   0  0  0  0  0  0  0  0  0  0  0  0
   -4.6184   -3.0903    4.9548 Cl  0  0  0  0  0  0  0  0  0  0  0  0
   -6.4890    2.2955   -0.3526 H   0  0  0  0  0  0  0  0  0  0  0  0
   -5.0801    0.4075    0.1685 H   0  0  0  0  0  0  0  0  0  0  0  0
   -1.6414    2.9669    0.1766 H   0  0  0  0  0  0  0  0  0  0  0  0
   -3.1494    4.8931   -0.3644 H   0  0  0  0  0  0  0  0  0  0  0  0
   -1.4584    0.8239    1.0075 H   0  0  0  0  0  0  0  0  0  0  0  0
   -3.8398   -0.7158   -1.5516 H   0  0  0  0  0  0  0  0  0  0  0  0
   -2.9786   -1.8058   -3.5583 H   0  0  0  0  0  0  0  0  0  0  0  0
    0.1389   -0.0631   -0.2096 H   0  0  0  0  0  0  0  0  0  0  0  0
    1.2276   -2.7626   -5.2597 H   0  0  0  0  0  0  0  0  0  0  0  0
    2.0914   -0.2417   -0.5010 H   0  0  0  0  0  0  0  0  0  0  0  0
    3.8445   -1.9816   -1.9529 H   0  0  0  0  0  0  0  0  0  0  0  0
    3.8758   -0.3462   -2.6690 H   0  0  0  0  0  0  0  0  0  0  0  0
    4.7069   -2.1798    0.4528 H   0  0  0  0  0  0  0  0  0  0  0  0
    6.2154   -1.2856    2.1613 H   0  0  0  0  0  0  0  0  0  0  0  0
    6.2750    2.4335    0.2024 H   0  0  0  0  0  0  0  0  0  0  0  0
    4.7263    1.5367   -1.5634 H   0  0  0  0  0  0  0  0  0  0  0  0
   -2.3647    0.8106    3.1614 H   0  0  0  0  0  0  0  0  0  0  0  0
   -3.2621   -0.5733    4.9484 H   0  0  0  0  0  0  0  0  0  0  0  0
   -4.5736   -3.4562    2.1151 H   0  0  0  0  0  0  0  0  0  0  0  0
   -3.6887   -2.1042    0.3350 H   0  0  0  0  0  0  0  0  0  0  0  0
  1  2  1  0
  2  3  2  0
  3  4  1  0
  4  5  2  0
  5  6  1  0
  6  7  2  0
  5  8  1  0
  8  9  1  0
  9 10  2  0
 10 11  1  0
 11 12  2  0
 12 13  1  0
 13 14  2  0
 13 15  1  0
 15 16  2  0
 16 17  1  0
 17 18  2  0
 15 19  1  0
 19 20  1  0
 20 21  1  0
 21 22  2  0
 22 23  1  0
 23 24  2  0
 24 25  1  0
 25 26  2  0
 24 27  1  0
 27 28  1  0
 27 29  1  0
 27 30  1  0
  8 31  1  0
 31 32  2  0
 32 33  1  0
 33 34  2  0
 34 35  1  0
 35 36  2  0
 34 37  1  0
  7  2  1  0
 14  9  1  0
 26 21  1  0
 36 31  1  0
 18 12  1  0
  3 38  1  0
  4 39  1  0
  6 40  1  0
  7 41  1  0
  8 42  1  0
 10 43  1  0
 11 44  1  0
 14 45  1  0
 17 46  1  0
 19 47  1  0
 20 48  1  0
 20 49  1  0
 22 50  1  0
 23 51  1  0
 25 52  1  0
 26 53  1  0
 32 54  1  0
 33 55  1  0
 35 56  1  0
 36 57  1  0
M  END
>  <Ligand ID>  (1) 
LIG0005954

>  <Ligand>  (1) 
SCHEMBL17557720

>  <SMILES>  (1) 
Clc1ccc(cc1)C(c1ccc2c(c1)c(ncn2)NCc1ccc(cc1)C(F)(F)F)c1ccc(cc1)Cl

>  <CID>  (1) 
118916198.0

>  <ChEMBL ID>  (1) 
nan

>  <InChiKey>  (1) 
NAVSCPMNDCTLRV-UHFFFAOYSA-N

>  <InChi>  (1) 
InChI=1S/C29H20Cl2F3N3/c30-23-10-3-19(4-11-23)27(20-5-12-24(31)13-6-20)21-7-14-26-25(15-21)28(37-17-36-26)35-16-18-1-8-22(9-2-18)29(32,33)34/h1-15,17,27H,16H2,(H,35,36,37)

>  <IUPAC Name>  (1) 
6-[bis(4-chlorophenyl)methyl]-N-[[4-(trifluoromethyl)phenyl]methyl]quinazolin-4-amine

$$$$
