
     RDKit          3D

 76 81  0  0  0  0  0  0  0  0999 V2000
   -1.3267   -1.1450   -2.1470 O   0  0  0  0  0  0  0  0  0  0  0  0
   -1.7336   -0.7509   -1.0099 C   0  0  0  0  0  0  0  0  0  0  0  0
   -2.5519    0.4830   -0.9405 C   0  0  2  0  0  0  0  0  0  0  0  0
   -2.9377    0.8691    0.3812 N   0  0  0  0  0  0  0  0  0  0  0  0
   -3.3410    2.2621    0.3561 C   0  0  0  0  0  0  0  0  0  0  0  0
   -4.2844    2.5644   -0.7311 C   0  0  0  0  0  0  0  0  0  0  0  0
   -4.5246    1.6154   -1.7046 C   0  0  0  0  0  0  0  0  0  0  0  0
   -3.8706    0.2799   -1.7154 C   0  0  0  0  0  0  0  0  0  0  0  0
   -5.4215    1.9407   -2.7126 C   0  0  0  0  0  0  0  0  0  0  0  0
   -6.0413    3.1730   -2.7254 C   0  0  0  0  0  0  0  0  0  0  0  0
   -5.8037    4.1308   -1.7495 C   0  0  0  0  0  0  0  0  0  0  0  0
   -4.8984    3.7971   -0.7358 C   0  0  0  0  0  0  0  0  0  0  0  0
   -1.3871   -1.5158    0.1537 N   0  0  0  0  0  0  0  0  0  0  0  0
   -0.6010   -2.7036    0.0426 C   0  0  1  0  0  0  0  0  0  0  0  0
    0.7190   -2.5915    0.6338 C   0  0  0  0  0  0  0  0  0  0  0  0
    1.3706   -3.7351    0.6419 O   0  0  0  0  0  0  0  0  0  0  0  0
    1.4256   -1.5256    1.1887 N   0  0  0  0  0  0  0  0  0  0  0  0
    1.0481   -0.1459    1.2996 C   0  0  0  0  0  0  0  0  0  0  0  0
    2.0903    0.6472    0.4676 C   0  0  0  0  0  0  0  0  0  0  0  0
    3.3194    0.5029    1.2163 N   0  0  0  0  0  0  0  0  0  0  0  0
    3.7934   -0.8260    1.4820 C   0  0  0  0  0  0  0  0  0  0  0  0
    2.7509   -1.8465    1.7769 C   0  0  0  0  0  0  0  0  0  0  0  0
    4.0775    1.5915    1.7197 C   0  0  0  0  0  0  0  0  0  0  0  0
    4.2208    1.6276    3.1125 C   0  0  0  0  0  0  0  0  0  0  0  0
    4.9201    2.6245    3.7515 C   0  0  0  0  0  0  0  0  0  0  0  0
    5.4826    3.6007    2.9628 C   0  0  0  0  0  0  0  0  0  0  0  0
    5.3418    3.5652    1.5977 C   0  0  0  0  0  0  0  0  0  0  0  0
    4.6372    2.5638    0.9288 C   0  0  0  0  0  0  0  0  0  0  0  0
    4.5601    2.6261   -0.5314 C   0  0  0  0  0  0  0  0  0  0  0  0
    5.4623    1.7172   -1.1986 N   0  0  0  0  0  0  0  0  0  0  0  0
    5.2125    0.4620   -1.5973 C   0  0  0  0  0  0  0  0  0  0  0  0
    6.3200   -0.0415   -2.1770 N   0  0  0  0  0  0  0  0  0  0  0  0
    7.2349    0.9503   -2.1117 C   0  0  0  0  0  0  0  0  0  0  0  0
    6.7264    2.0347   -1.5157 N   0  0  0  0  0  0  0  0  0  0  0  0
   -1.3508   -3.8758    0.6675 C   0  0  0  0  0  0  0  0  0  0  0  0
   -2.6518   -4.1100   -0.0054 C   0  0  0  0  0  0  0  0  0  0  0  0
   -3.7540   -3.4267    0.4848 C   0  0  0  0  0  0  0  0  0  0  0  0
   -4.9757   -3.6322   -0.1223 C   0  0  0  0  0  0  0  0  0  0  0  0
   -5.0921   -4.5021   -1.1961 C   0  0  0  0  0  0  0  0  0  0  0  0
   -3.9958   -5.1784   -1.6806 C   0  0  0  0  0  0  0  0  0  0  0  0
   -2.7595   -4.9792   -1.0763 C   0  0  0  0  0  0  0  0  0  0  0  0
   -6.6430   -4.7818   -1.9884 Cl  0  0  0  0  0  0  0  0  0  0  0  0
   -2.0176    1.3018   -1.4222 H   0  0  0  0  0  0  0  0  0  0  0  0
   -2.2582    0.7124    1.1307 H   0  0  0  0  0  0  0  0  0  0  0  0
   -3.8632    2.4664    1.3245 H   0  0  0  0  0  0  0  0  0  0  0  0
   -2.4781    2.9561    0.3131 H   0  0  0  0  0  0  0  0  0  0  0  0
   -4.4604   -0.4461   -1.0958 H   0  0  0  0  0  0  0  0  0  0  0  0
   -3.7099   -0.1122   -2.7177 H   0  0  0  0  0  0  0  0  0  0  0  0
   -5.6730    1.2590   -3.5191 H   0  0  0  0  0  0  0  0  0  0  0  0
   -6.7360    3.4184   -3.5142 H   0  0  0  0  0  0  0  0  0  0  0  0
   -6.2917    5.0990   -1.7590 H   0  0  0  0  0  0  0  0  0  0  0  0
   -4.7171    4.5575    0.0288 H   0  0  0  0  0  0  0  0  0  0  0  0
   -1.7235   -1.2419    1.1120 H   0  0  0  0  0  0  0  0  0  0  0  0
   -0.4342   -2.9594   -1.0529 H   0  0  0  0  0  0  0  0  0  0  0  0
    0.0509    0.1407    1.0219 H   0  0  0  0  0  0  0  0  0  0  0  0
    1.2435    0.1221    2.3890 H   0  0  0  0  0  0  0  0  0  0  0  0
    2.1543    0.1077   -0.4941 H   0  0  0  0  0  0  0  0  0  0  0  0
    1.7483    1.7011    0.3821 H   0  0  0  0  0  0  0  0  0  0  0  0
    4.4677   -0.8063    2.3832 H   0  0  0  0  0  0  0  0  0  0  0  0
    4.3662   -1.1891    0.5939 H   0  0  0  0  0  0  0  0  0  0  0  0
    2.6092   -1.9902    2.8884 H   0  0  0  0  0  0  0  0  0  0  0  0
    3.0947   -2.8379    1.4050 H   0  0  0  0  0  0  0  0  0  0  0  0
    3.7784    0.8603    3.7400 H   0  0  0  0  0  0  0  0  0  0  0  0
    5.0080    2.6202    4.8284 H   0  0  0  0  0  0  0  0  0  0  0  0
    6.0337    4.3872    3.4572 H   0  0  0  0  0  0  0  0  0  0  0  0
    5.7974    4.3507    1.0095 H   0  0  0  0  0  0  0  0  0  0  0  0
    3.5213    2.5194   -0.9234 H   0  0  0  0  0  0  0  0  0  0  0  0
    4.8549    3.6628   -0.8517 H   0  0  0  0  0  0  0  0  0  0  0  0
    4.3058   -0.1170   -1.5138 H   0  0  0  0  0  0  0  0  0  0  0  0
    8.2506    0.8266   -2.5142 H   0  0  0  0  0  0  0  0  0  0  0  0
   -0.6830   -4.7603    0.6017 H   0  0  0  0  0  0  0  0  0  0  0  0
   -1.4886   -3.6560    1.7436 H   0  0  0  0  0  0  0  0  0  0  0  0
   -3.6988   -2.7470    1.3101 H   0  0  0  0  0  0  0  0  0  0  0  0
   -5.8674   -3.1364    0.2059 H   0  0  0  0  0  0  0  0  0  0  0  0
   -4.0582   -5.8668   -2.5237 H   0  0  0  0  0  0  0  0  0  0  0  0
   -1.8932   -5.5182   -1.4604 H   0  0  0  0  0  0  0  0  0  0  0  0
  1  2  2  0
  2  3  1  0
  3  4  1  0
  4  5  1  0
  5  6  1  0
  6  7  2  0
  7  8  1  0
  7  9  1  0
  9 10  2  0
 10 11  1  0
 11 12  2  0
  2 13  1  0
 13 14  1  0
 14 15  1  0
 15 16  2  0
 15 17  1  0
 17 18  1  0
 18 19  1  0
 19 20  1  0
 20 21  1  0
 21 22  1  0
 20 23  1  0
 23 24  2  0
 24 25  1  0
 25 26  2  0
 26 27  1  0
 27 28  2  0
 28 29  1  0
 29 30  1  0
 30 31  1  0
 31 32  2  0
 32 33  1  0
 33 34  2  0
 14 35  1  0
 35 36  1  0
 36 37  2  0
 37 38  1  0
 38 39  2  0
 39 40  1  0
 40 41  2  0
 39 42  1  0
  8  3  1  0
 22 17  1  0
 28 23  1  0
 34 30  1  0
 41 36  1  0
 12  6  1  0
  3 43  1  6
  4 44  1  0
  5 45  1  0
  5 46  1  0
  8 47  1  0
  8 48  1  0
  9 49  1  0
 10 50  1  0
 11 51  1  0
 12 52  1  0
 13 53  1  0
 14 54  1  6
 18 55  1  0
 18 56  1  0
 19 57  1  0
 19 58  1  0
 21 59  1  0
 21 60  1  0
 22 61  1  0
 22 62  1  0
 24 63  1  0
 25 64  1  0
 26 65  1  0
 27 66  1  0
 29 67  1  0
 29 68  1  0
 31 69  1  0
 33 70  1  0
 35 71  1  0
 35 72  1  0
 37 73  1  0
 38 74  1  0
 40 75  1  0
 41 76  1  0
M  END
>  <Ligand ID>  (1) 
LIG0000678

>  <Ligand>  (1) 
CHEMBL340355

>  <SMILES>  (1) 
O=C([C@@H]1NCc2c(C1)cccc2)N[C@@H](C(=O)N1CCN(CC1)c1ccccc1Cn1cncn1)Cc1ccc(cc1)Cl

>  <CID>  (1) 
24848995.0

>  <ChEMBL ID>  (1) 
nan

>  <InChiKey>  (1) 
PKHOEKKVDQTOOR-FQLXRVMXSA-N

>  <InChi>  (1) 
InChI=1S/C32H34ClN7O2/c33-27-11-9-23(10-12-27)17-29(37-31(41)28-18-24-5-1-2-6-25(24)19-35-28)32(42)39-15-13-38(14-16-39)30-8-4-3-7-26(30)20-40-22-34-21-36-40/h1-12,21-22,28-29,35H,13-20H2,(H,37,41)/t28-,29-/m1/s1

>  <IUPAC Name>  (1) 
(3R)-N-[(2R)-3-(4-chlorophenyl)-1-oxo-1-[4-[2-(1,2,4-triazol-1-ylmethyl)phenyl]piperazin-1-yl]propan-2-yl]-1,2,3,4-tetrahydroisoquinoline-3-carboxamide

$$$$
