
     RDKit          3D

 26 26  0  0  0  0  0  0  0  0999 V2000
    3.9474    0.2610   -0.0945 N   0  0  0  0  0  0  0  0  0  0  0  0
    2.8107   -0.0483    0.7674 C   0  0  0  0  0  0  0  0  0  0  0  0
    1.5143    0.3657    0.1107 C   0  0  1  0  0  0  0  0  0  0  0  0
    1.1465   -0.2558   -1.2165 C   0  0  0  0  0  0  0  0  0  0  0  0
    0.4459   -0.6403    0.0721 C   0  0  2  0  0  0  0  0  0  0  0  0
   -0.9875   -0.2049    0.1272 C   0  0  0  0  0  0  0  0  0  0  0  0
   -1.2999    1.0329    0.6441 C   0  0  0  0  0  0  0  0  0  0  0  0
   -2.6390    1.4284    0.6905 C   0  0  0  0  0  0  0  0  0  0  0  0
   -3.6356    0.5694    0.2155 C   0  0  0  0  0  0  0  0  0  0  0  0
   -3.2961   -0.6816   -0.3047 C   0  0  0  0  0  0  0  0  0  0  0  0
   -1.9515   -1.0631   -0.3443 C   0  0  0  0  0  0  0  0  0  0  0  0
   -1.5254   -2.6439   -1.0021 Cl  0  0  0  0  0  0  0  0  0  0  0  0
   -4.5733   -1.7186   -0.8852 Cl  0  0  0  0  0  0  0  0  0  0  0  0
    0.6890    0.0000    0.0000 Cl  0  0  0  0  0  0  0  0  0  0  0  0
    3.5811    0.6854   -0.9576 H   0  0  0  0  0  0  0  0  0  0  0  0
    4.4922   -0.5793   -0.3199 H   0  0  0  0  0  0  0  0  0  0  0  0
    2.8914    0.4678    1.7282 H   0  0  0  0  0  0  0  0  0  0  0  0
    2.8085   -1.1427    0.9679 H   0  0  0  0  0  0  0  0  0  0  0  0
    1.3078    1.4410    0.1912 H   0  0  0  0  0  0  0  0  0  0  0  0
    0.5950    0.3460   -1.9579 H   0  0  0  0  0  0  0  0  0  0  0  0
    1.9056   -0.9340   -1.6536 H   0  0  0  0  0  0  0  0  0  0  0  0
    0.6456   -1.6499    0.4978 H   0  0  0  0  0  0  0  0  0  0  0  0
   -0.5604    1.7221    1.0195 H   0  0  0  0  0  0  0  0  0  0  0  0
   -2.9432    2.3888    1.0856 H   0  0  0  0  0  0  0  0  0  0  0  0
   -4.6801    0.8541    0.2412 H   0  0  0  0  0  0  0  0  0  0  0  0
   -0.6890    0.0000    0.0000 H   0  0  0  0  0  0  0  0  0  0  0  0
  1  2  1  0
  2  3  1  0
  3  4  1  0
  4  5  1  0
  5  6  1  0
  6  7  2  0
  7  8  1  0
  8  9  2  0
  9 10  1  0
 10 11  2  0
 11 12  1  0
 10 13  1  0
  5  3  1  0
 11  6  1  0
  1 15  1  0
  1 16  1  0
  2 17  1  0
  2 18  1  0
  3 19  1  6
  4 20  1  0
  4 21  1  0
  5 22  1  1
  7 23  1  0
  8 24  1  0
  9 25  1  0
 14 26  1  0
M  END
>  <Ligand ID>  (1) 
LIG0002353

>  <Ligand>  (1) 
CHEMBL464475

>  <SMILES>  (1) 
NC[C@H]1C[C@@H]1c1cccc(c1Cl)Cl.Cl

>  <CID>  (1) 
44572167.0

>  <ChEMBL ID>  (1) 
nan

>  <InChiKey>  (1) 
WANXSJZUKXJLEY-HNJRQZNRSA-N

>  <InChi>  (1) 
InChI=1S/C10H11Cl2N.ClH/c11-9-3-1-2-7(10(9)12)8-4-6(8)5-13;/h1-3,6,8H,4-5,13H2;1H/t6-,8+;/m1./s1

>  <IUPAC Name>  (1) 
[(1S,2S)-2-(2,3-dichlorophenyl)cyclopropyl]methanamine;hydrochloride

$$$$
