
     RDKit          3D

 40 43  0  0  0  0  0  0  0  0999 V2000
   -1.4818    2.6972   -0.7412 Cl  0  0  0  0  0  0  0  0  0  0  0  0
   -0.7121    1.2634   -0.0466 C   0  0  0  0  0  0  0  0  0  0  0  0
    0.6254    1.3329    0.2882 C   0  0  0  0  0  0  0  0  0  0  0  0
    1.2694    0.2357    0.8346 C   0  0  0  0  0  0  0  0  0  0  0  0
    0.4987   -0.9093    1.0179 C   0  0  0  0  0  0  0  0  0  0  0  0
   -0.8299   -0.9706    0.6827 C   0  0  0  0  0  0  0  0  0  0  0  0
   -1.4699    0.1228    0.1388 C   0  0  0  0  0  0  0  0  0  0  0  0
   -2.8454    0.0969   -0.2211 N   0  0  0  0  0  0  0  0  0  0  0  0
   -3.8809    0.4666    0.7136 C   0  0  0  0  0  0  0  0  0  0  0  0
   -3.7403    0.8424    1.9055 O   0  0  0  0  0  0  0  0  0  0  0  0
   -5.1684    0.3318    0.0348 C   0  0  0  0  0  0  0  0  0  0  0  0
   -4.9066   -0.1005   -1.2508 C   0  0  0  0  0  0  0  0  0  0  0  0
   -3.4588   -0.2578   -1.4437 C   0  0  0  0  0  0  0  0  0  0  0  0
   -2.8630   -0.6309   -2.4779 O   0  0  0  0  0  0  0  0  0  0  0  0
   -6.0014   -0.2982   -2.0850 C   0  0  0  0  0  0  0  0  0  0  0  0
   -5.8089   -0.7209   -3.3550 F   0  0  0  0  0  0  0  0  0  0  0  0
   -7.2900   -0.0740   -1.6527 C   0  0  0  0  0  0  0  0  0  0  0  0
   -7.5327    0.3603   -0.3572 C   0  0  0  0  0  0  0  0  0  0  0  0
   -6.4578    0.5621    0.4858 C   0  0  0  0  0  0  0  0  0  0  0  0
    2.6446    0.2571    1.1959 N   0  0  0  0  0  0  0  0  0  0  0  0
    3.6921   -0.1029    0.3030 C   0  0  0  0  0  0  0  0  0  0  0  0
    3.4085   -0.4609   -0.8695 O   0  0  0  0  0  0  0  0  0  0  0  0
    5.0778   -0.0404    0.7939 C   0  0  0  0  0  0  0  0  0  0  0  0
    5.4744    0.3235    2.0088 O   0  0  0  0  0  0  0  0  0  0  0  0
    6.7822    0.2576    2.0847 C   0  0  0  0  0  0  0  0  0  0  0  0
    7.3170   -0.1658    0.8847 C   0  0  0  0  0  0  0  0  0  0  0  0
    6.2038   -0.3549    0.0589 C   0  0  0  0  0  0  0  0  0  0  0  0
    6.3066   -0.8132   -1.3416 C   0  0  0  0  0  0  0  0  0  0  0  0
    1.2192    2.2466    0.1362 H   0  0  0  0  0  0  0  0  0  0  0  0
    0.9366   -1.8068    1.4410 H   0  0  0  0  0  0  0  0  0  0  0  0
   -1.4337   -1.8668    0.8261 H   0  0  0  0  0  0  0  0  0  0  0  0
   -8.1643   -0.2258   -2.3001 H   0  0  0  0  0  0  0  0  0  0  0  0
   -8.5228    0.5490    0.0259 H   0  0  0  0  0  0  0  0  0  0  0  0
   -6.6153    0.9056    1.5174 H   0  0  0  0  0  0  0  0  0  0  0  0
    2.8750    0.5577    2.1786 H   0  0  0  0  0  0  0  0  0  0  0  0
    7.3453    0.5107    2.9912 H   0  0  0  0  0  0  0  0  0  0  0  0
    8.3560   -0.3206    0.6269 H   0  0  0  0  0  0  0  0  0  0  0  0
    5.4189   -1.3689   -1.6428 H   0  0  0  0  0  0  0  0  0  0  0  0
    6.5378    0.0812   -1.9689 H   0  0  0  0  0  0  0  0  0  0  0  0
    7.1946   -1.5029   -1.4211 H   0  0  0  0  0  0  0  0  0  0  0  0
  1  2  1  0
  2  3  2  0
  3  4  1  0
  4  5  2  0
  5  6  1  0
  6  7  2  0
  7  8  1  0
  8  9  1  0
  9 10  2  0
  9 11  1  0
 11 12  2  0
 12 13  1  0
 13 14  2  0
 12 15  1  0
 15 16  1  0
 15 17  2  0
 17 18  1  0
 18 19  2  0
  4 20  1  0
 20 21  1  0
 21 22  2  0
 21 23  1  0
 23 24  1  0
 24 25  1  0
 25 26  2  0
 26 27  1  0
 27 28  1  0
  7  2  1  0
 13  8  1  0
 27 23  2  0
 19 11  1  0
  3 29  1  0
  5 30  1  0
  6 31  1  0
 17 32  1  0
 18 33  1  0
 19 34  1  0
 20 35  1  0
 25 36  1  0
 26 37  1  0
 28 38  1  0
 28 39  1  0
 28 40  1  0
M  END
>  <Ligand ID>  (1) 
LIG0003676

>  <Ligand>  (1) 
CHEMBL3628113

>  <SMILES>  (1) 
Clc1cc(ccc1N1C(=O)c2c(C1=O)c(F)ccc2)NC(=O)c1occc1C

>  <CID>  (1) 
122193177.0

>  <ChEMBL ID>  (1) 
nan

>  <InChiKey>  (1) 
HHRZBUWNLICHOO-UHFFFAOYSA-N

>  <InChi>  (1) 
InChI=1S/C20H12ClFN2O4/c1-10-7-8-28-17(10)18(25)23-11-5-6-15(13(21)9-11)24-19(26)12-3-2-4-14(22)16(12)20(24)27/h2-9H,1H3,(H,23,25)

>  <IUPAC Name>  (1) 
N-[3-chloro-4-(4-fluoro-1,3-dioxoisoindol-2-yl)phenyl]-3-methylfuran-2-carboxamide

$$$$
