
     RDKit          3D

 60 60  0  0  0  0  0  0  0  0999 V2000
    5.3640   -1.6619    0.9228 C   0  0  0  0  0  0  0  0  0  0  0  0
    4.2065   -0.9729    1.4750 N   0  0  0  0  0  0  0  0  0  0  0  0
    3.8652    0.0827    0.5154 C   0  0  0  0  0  0  0  0  0  0  0  0
    3.0342   -0.5185   -0.6066 C   0  0  0  0  0  0  0  0  0  0  0  0
    1.6548   -0.7698   -0.1592 N   0  0  0  0  0  0  0  0  0  0  0  0
    1.7526   -1.0721    1.2587 C   0  0  0  0  0  0  0  0  0  0  0  0
    3.0313   -1.8501    1.5173 C   0  0  0  0  0  0  0  0  0  0  0  0
    0.9649    0.4847   -0.3879 C   0  0  0  0  0  0  0  0  0  0  0  0
   -0.4726    0.4484    0.0042 C   0  0  1  0  0  0  0  0  0  0  0  0
   -1.0658    1.8140   -0.2890 C   0  0  0  0  0  0  0  0  0  0  0  0
   -0.9587    2.1257   -1.6443 O   0  0  0  0  0  0  0  0  0  0  0  0
   -2.5029    1.9097    0.1034 C   0  0  0  0  0  0  0  0  0  0  0  0
   -3.0883    3.1474   -0.5335 C   0  0  0  0  0  0  0  0  0  0  0  0
   -2.1249    4.3094   -0.5082 C   0  0  0  0  0  0  0  0  0  0  0  0
   -1.0770    4.1584    0.5693 C   0  0  0  0  0  0  0  0  0  0  0  0
   -0.2915    2.8834    0.4401 C   0  0  0  0  0  0  0  0  0  0  0  0
   -1.2419   -0.6442   -0.6133 C   0  0  0  0  0  0  0  0  0  0  0  0
   -1.3142   -0.8284   -1.9911 C   0  0  0  0  0  0  0  0  0  0  0  0
   -2.0416   -1.8577   -2.5597 C   0  0  0  0  0  0  0  0  0  0  0  0
   -2.7342   -2.7561   -1.7773 C   0  0  0  0  0  0  0  0  0  0  0  0
   -2.6773   -2.5937   -0.4110 C   0  0  0  0  0  0  0  0  0  0  0  0
   -1.9536   -1.5691    0.1599 C   0  0  0  0  0  0  0  0  0  0  0  0
   -3.3452   -3.4552    0.4236 O   0  0  0  0  0  0  0  0  0  0  0  0
   -2.7968   -4.6458    0.9541 C   0  0  0  0  0  0  0  0  0  0  0  0
   -1.6697   -4.4038    1.7241 F   0  0  0  0  0  0  0  0  0  0  0  0
   -2.5539   -5.6102   -0.0006 F   0  0  0  0  0  0  0  0  0  0  0  0
   -3.7268   -5.2000    1.8217 F   0  0  0  0  0  0  0  0  0  0  0  0
    0.6906    0.0000    0.0000 Cl  0  0  0  0  0  0  0  0  0  0  0  0
    0.6863    0.0000    0.0000 Cl  0  0  0  0  0  0  0  0  0  0  0  0
    5.0903   -2.4007    0.1548 H   0  0  0  0  0  0  0  0  0  0  0  0
    6.0146   -0.8808    0.4622 H   0  0  0  0  0  0  0  0  0  0  0  0
    5.9025   -2.1586    1.7615 H   0  0  0  0  0  0  0  0  0  0  0  0
    4.7999    0.4461    0.0839 H   0  0  0  0  0  0  0  0  0  0  0  0
    3.3751    0.9328    1.0070 H   0  0  0  0  0  0  0  0  0  0  0  0
    3.5298   -1.4258   -0.9510 H   0  0  0  0  0  0  0  0  0  0  0  0
    3.0458    0.2405   -1.4245 H   0  0  0  0  0  0  0  0  0  0  0  0
    0.9289   -1.6938    1.6325 H   0  0  0  0  0  0  0  0  0  0  0  0
    1.7304   -0.1361    1.8824 H   0  0  0  0  0  0  0  0  0  0  0  0
    3.0061   -2.3887    2.4840 H   0  0  0  0  0  0  0  0  0  0  0  0
    3.1467   -2.5861    0.6904 H   0  0  0  0  0  0  0  0  0  0  0  0
    1.1457    0.8476   -1.3959 H   0  0  0  0  0  0  0  0  0  0  0  0
    1.4738    1.2085    0.3151 H   0  0  0  0  0  0  0  0  0  0  0  0
   -0.5476    0.3205    1.1243 H   0  0  0  0  0  0  0  0  0  0  0  0
   -1.8052    1.9208   -2.0699 H   0  0  0  0  0  0  0  0  0  0  0  0
   -2.6267    2.0190    1.1988 H   0  0  0  0  0  0  0  0  0  0  0  0
   -3.1148    1.0567   -0.2756 H   0  0  0  0  0  0  0  0  0  0  0  0
   -3.4662    2.9707   -1.5587 H   0  0  0  0  0  0  0  0  0  0  0  0
   -4.0129    3.3916    0.0638 H   0  0  0  0  0  0  0  0  0  0  0  0
   -1.6787    4.5242   -1.5141 H   0  0  0  0  0  0  0  0  0  0  0  0
   -2.7195    5.2108   -0.2491 H   0  0  0  0  0  0  0  0  0  0  0  0
   -1.5889    4.2360    1.5461 H   0  0  0  0  0  0  0  0  0  0  0  0
   -0.3764    5.0126    0.4621 H   0  0  0  0  0  0  0  0  0  0  0  0
   -0.0729    2.5072    1.4574 H   0  0  0  0  0  0  0  0  0  0  0  0
    0.6982    3.0481   -0.0532 H   0  0  0  0  0  0  0  0  0  0  0  0
   -0.8014   -0.1707   -2.6531 H   0  0  0  0  0  0  0  0  0  0  0  0
   -2.0980   -2.0013   -3.6330 H   0  0  0  0  0  0  0  0  0  0  0  0
   -3.3073   -3.5654   -2.1972 H   0  0  0  0  0  0  0  0  0  0  0  0
   -1.9080   -1.4400    1.2414 H   0  0  0  0  0  0  0  0  0  0  0  0
   -0.6906    0.0000    0.0000 H   0  0  0  0  0  0  0  0  0  0  0  0
   -0.6863    0.0000    0.0000 H   0  0  0  0  0  0  0  0  0  0  0  0
  1  2  1  0
  2  3  1  0
  3  4  1  0
  4  5  1  0
  5  6  1  0
  6  7  1  0
  5  8  1  0
  8  9  1  0
  9 10  1  0
 10 11  1  0
 10 12  1  0
 12 13  1  0
 13 14  1  0
 14 15  1  0
 15 16  1  0
  9 17  1  0
 17 18  2  0
 18 19  1  0
 19 20  2  0
 20 21  1  0
 21 22  2  0
 21 23  1  0
 23 24  1  0
 24 25  1  0
 24 26  1  0
 24 27  1  0
  7  2  1  0
 16 10  1  0
 22 17  1  0
  1 30  1  0
  1 31  1  0
  1 32  1  0
  3 33  1  0
  3 34  1  0
  4 35  1  0
  4 36  1  0
  6 37  1  0
  6 38  1  0
  7 39  1  0
  7 40  1  0
  8 41  1  0
  8 42  1  0
  9 43  1  1
 11 44  1  0
 12 45  1  0
 12 46  1  0
 13 47  1  0
 13 48  1  0
 14 49  1  0
 14 50  1  0
 15 51  1  0
 15 52  1  0
 16 53  1  0
 16 54  1  0
 18 55  1  0
 19 56  1  0
 20 57  1  0
 22 58  1  0
 28 59  1  0
 29 60  1  0
M  END
>  <Ligand ID>  (1) 
LIG0000710

>  <Ligand>  (1) 
WAY-256805

>  <SMILES>  (1) 
CN1CCN(CC1)C[C@@H](C1(O)CCCCC1)c1cccc(c1)OC(F)(F)F.Cl.Cl

>  <CID>  (1) 
24894910.0

>  <ChEMBL ID>  (1) 
nan

>  <InChiKey>  (1) 
DJVJRXDBDBMWFD-JPKZNVRTSA-N

>  <InChi>  (1) 
InChI=1S/C20H29F3N2O2.2ClH/c1-24-10-12-25(13-11-24)15-18(19(26)8-3-2-4-9-19)16-6-5-7-17(14-16)27-20(21,22)23;;/h5-7,14,18,26H,2-4,8-13,15H2,1H3;2*1H/t18-;;/m1../s1

>  <IUPAC Name>  (1) 
1-[(1S)-2-(4-methylpiperazin-1-yl)-1-[3-(trifluoromethoxy)phenyl]ethyl]cyclohexan-1-ol;dihydrochloride

$$$$
