
     RDKit          3D

 19 18  0  0  0  0  0  0  0  0999 V2000
   -2.4836    0.6692   -0.5458 C   0  0  0  0  0  0  0  0  0  0  0  0
   -1.8445   -0.1928    0.4999 C   0  0  0  0  0  0  0  0  0  0  0  0
   -0.4122    0.1209    0.7659 C   0  0  0  0  0  0  0  0  0  0  0  0
    0.3977   -0.0698   -0.4491 C   0  0  0  0  0  0  0  0  0  0  0  0
    0.1600    0.3606   -1.5446 O   0  0  0  0  0  0  0  0  0  0  0  0
    1.6642   -0.8869   -0.3240 C   0  0  0  0  0  0  0  0  0  0  0  0
    2.7962    0.1007   -0.2050 C   0  0  0  0  0  0  0  0  0  0  0  0
   -1.8113    1.3377   -1.0918 H   0  0  0  0  0  0  0  0  0  0  0  0
   -3.3088    1.2679   -0.0485 H   0  0  0  0  0  0  0  0  0  0  0  0
   -3.0489    0.0339   -1.2985 H   0  0  0  0  0  0  0  0  0  0  0  0
   -1.9555   -1.2642    0.1346 H   0  0  0  0  0  0  0  0  0  0  0  0
   -2.4066   -0.1839    1.4759 H   0  0  0  0  0  0  0  0  0  0  0  0
   -0.3193    1.1931    1.0775 H   0  0  0  0  0  0  0  0  0  0  0  0
    0.0183   -0.4667    1.5913 H   0  0  0  0  0  0  0  0  0  0  0  0
    1.8042   -1.5335   -1.2049 H   0  0  0  0  0  0  0  0  0  0  0  0
    1.6073   -1.5483    0.5815 H   0  0  0  0  0  0  0  0  0  0  0  0
    2.7100    0.8617   -0.9996 H   0  0  0  0  0  0  0  0  0  0  0  0
    3.7673   -0.4208   -0.3070 H   0  0  0  0  0  0  0  0  0  0  0  0
    2.6656    0.6213    0.7781 H   0  0  0  0  0  0  0  0  0  0  0  0
  1  2  1  0
  2  3  1  0
  3  4  1  0
  4  5  2  0
  4  6  1  0
  6  7  1  0
  1  8  1  0
  1  9  1  0
  1 10  1  0
  2 11  1  0
  2 12  1  0
  3 13  1  0
  3 14  1  0
  6 15  1  0
  6 16  1  0
  7 17  1  0
  7 18  1  0
  7 19  1  0
M  END
>  <Ligand ID>  (1) 
LIG0000463

>  <Ligand>  (1) 
hexan-3-one

>  <SMILES>  (1) 
CCCC(=O)CC

>  <CID>  (1) 
11509.0

>  <ChEMBL ID>  (1) 
nan

>  <InChiKey>  (1) 
PFCHFHIRKBAQGU-UHFFFAOYSA-N

>  <InChi>  (1) 
InChI=1S/C6H12O/c1-3-5-6(7)4-2/h3-5H2,1-2H3

>  <IUPAC Name>  (1) 
hexan-3-one

$$$$
