
     RDKit          3D

 29 31  0  0  0  0  0  0  0  0999 V2000
   -4.4673    2.2531    1.3293 O   0  0  0  0  0  0  0  0  0  0  0  0
   -4.3120    1.1272    0.8369 C   0  0  0  0  0  0  0  0  0  0  0  0
   -5.4358    0.1963    0.5658 C   0  0  0  0  0  0  0  0  0  0  0  0
   -4.8275   -1.1436    0.2127 C   0  0  0  0  0  0  0  0  0  0  0  0
   -3.7705   -1.0881   -0.8367 C   0  0  0  0  0  0  0  0  0  0  0  0
   -2.5879   -0.3495   -0.3057 C   0  0  0  0  0  0  0  0  0  0  0  0
   -2.9091    0.7442    0.5226 C   0  0  0  0  0  0  0  0  0  0  0  0
   -1.3210    1.4428    1.0163 S   0  0  0  0  0  0  0  0  0  0  0  0
   -0.3931    0.0947   -0.0152 C   0  0  0  0  0  0  0  0  0  0  0  0
   -1.2959   -0.4980   -0.4428 N   0  0  0  0  0  0  0  0  0  0  0  0
    1.0493    0.1530    0.0001 C   0  0  0  0  0  0  0  0  0  0  0  0
    2.2514    0.1851   -0.0000 C   0  0  0  0  0  0  0  0  0  0  0  0
    3.6844    0.2041   -0.0163 C   0  0  0  0  0  0  0  0  0  0  0  0
    4.3395    1.3122    0.4886 C   0  0  0  0  0  0  0  0  0  0  0  0
    5.7297    1.3129    0.4645 C   0  0  0  0  0  0  0  0  0  0  0  0
    6.4378    0.2459   -0.0453 C   0  0  0  0  0  0  0  0  0  0  0  0
    5.7410   -0.8511   -0.5444 C   0  0  0  0  0  0  0  0  0  0  0  0
    4.3527   -0.8821   -0.5344 C   0  0  0  0  0  0  0  0  0  0  0  0
   -5.9561    0.0403    1.5495 H   0  0  0  0  0  0  0  0  0  0  0  0
   -6.1046    0.5795   -0.2006 H   0  0  0  0  0  0  0  0  0  0  0  0
   -4.4766   -1.6971    1.0855 H   0  0  0  0  0  0  0  0  0  0  0  0
   -5.6855   -1.7443   -0.2063 H   0  0  0  0  0  0  0  0  0  0  0  0
   -4.1455   -0.6252   -1.7793 H   0  0  0  0  0  0  0  0  0  0  0  0
   -3.5146   -2.1244   -1.1016 H   0  0  0  0  0  0  0  0  0  0  0  0
    3.7926    2.1624    0.8945 H   0  0  0  0  0  0  0  0  0  0  0  0
    6.2696    2.1648    0.8521 H   0  0  0  0  0  0  0  0  0  0  0  0
    7.5220    0.2373   -0.0684 H   0  0  0  0  0  0  0  0  0  0  0  0
    6.2404   -1.7110   -0.9539 H   0  0  0  0  0  0  0  0  0  0  0  0
    3.7922   -1.7416   -0.9252 H   0  0  0  0  0  0  0  0  0  0  0  0
  1  2  2  0
  2  3  1  0
  3  4  1  0
  4  5  1  0
  5  6  1  0
  6  7  2  0
  7  8  1  0
  8  9  1  0
  9 10  2  0
  9 11  1  0
 11 12  3  0
 12 13  1  0
 13 14  2  0
 14 15  1  0
 15 16  2  0
 16 17  1  0
 17 18  2  0
  7  2  1  0
 18 13  1  0
 10  6  1  0
  3 19  1  0
  3 20  1  0
  4 21  1  0
  4 22  1  0
  5 23  1  0
  5 24  1  0
 14 25  1  0
 15 26  1  0
 16 27  1  0
 17 28  1  0
 18 29  1  0
M  END
>  <Ligand ID>  (1) 
LIG0000499

>  <Ligand>  (1) 
CHEMBL2426621

>  <SMILES>  (1) 
O=C1CCCc2c1sc(n2)C#Cc1ccccc1

>  <CID>  (1) 
53235518.0

>  <ChEMBL ID>  (1) 
nan

>  <InChiKey>  (1) 
SZGKTGVROKLYCT-UHFFFAOYSA-N

>  <InChi>  (1) 
InChI=1S/C15H11NOS/c17-13-8-4-7-12-15(13)18-14(16-12)10-9-11-5-2-1-3-6-11/h1-3,5-6H,4,7-8H2

>  <IUPAC Name>  (1) 
2-(2-phenylethynyl)-5,6-dihydro-4H-1,3-benzothiazol-7-one

$$$$
