
     RDKit          3D

 14 13  0  0  0  0  0  0  0  0999 V2000
   -1.9664    0.2066   -0.3168 C   0  0  0  0  0  0  0  0  0  0  0  0
   -0.4975    0.1753   -0.6759 C   0  0  0  0  0  0  0  0  0  0  0  0
    0.3125   -0.3575    0.4804 C   0  0  0  0  0  0  0  0  0  0  0  0
    1.7484   -0.3690    0.0794 C   0  0  0  0  0  0  0  0  0  0  0  0
    2.4371   -1.4278    0.0471 O   0  0  0  0  0  0  0  0  0  0  0  0
    2.3073    0.8624   -0.2644 O   0  0  0  0  0  0  0  0  0  0  0  0
   -0.2658   -2.0799    1.0973 Br  0  0  0  0  0  0  0  0  0  0  0  0
   -2.1492   -0.2589    0.6660 H   0  0  0  0  0  0  0  0  0  0  0  0
   -2.5970   -0.2619   -1.1110 H   0  0  0  0  0  0  0  0  0  0  0  0
   -2.3485    1.2573   -0.2473 H   0  0  0  0  0  0  0  0  0  0  0  0
   -0.3540   -0.3466   -1.6199 H   0  0  0  0  0  0  0  0  0  0  0  0
   -0.1653    1.2304   -0.8136 H   0  0  0  0  0  0  0  0  0  0  0  0
    0.2149    0.3711    1.3106 H   0  0  0  0  0  0  0  0  0  0  0  0
    3.3234    0.9985   -0.1586 H   0  0  0  0  0  0  0  0  0  0  0  0
  1  2  1  0
  2  3  1  0
  3  4  1  0
  4  5  2  0
  4  6  1  0
  3  7  1  0
  1  8  1  0
  1  9  1  0
  1 10  1  0
  2 11  1  0
  2 12  1  0
  3 13  1  0
  6 14  1  0
M  END
>  <Ligand ID>  (1) 
LIG0005010

>  <Ligand>  (1) 
2-bromobutanoic acid

>  <SMILES>  (1) 
CCC(C(=O)O)Br

>  <CID>  (1) 
6655.0

>  <ChEMBL ID>  (1) 
nan

>  <InChiKey>  (1) 
YAQLSKVCTLCIIE-UHFFFAOYSA-N

>  <InChi>  (1) 
InChI=1S/C4H7BrO2/c1-2-3(5)4(6)7/h3H,2H2,1H3,(H,6,7)

>  <IUPAC Name>  (1) 
2-bromobutanoic acid

$$$$
