
     RDKit          3D

 29 29  0  0  0  0  0  0  0  0999 V2000
   -4.0251    1.1871   -0.3761 N   0  0  0  0  0  0  0  0  0  0  0  0
   -3.8373   -0.2390   -0.5766 C   0  0  0  0  0  0  0  0  0  0  0  0
   -2.8592   -0.8289    0.4030 C   0  0  0  0  0  0  0  0  0  0  0  0
   -1.4871   -0.1943    0.2972 C   0  0  0  0  0  0  0  0  0  0  0  0
   -0.5653   -0.8399    1.3109 C   0  0  0  0  0  0  0  0  0  0  0  0
    0.8333   -0.2544    1.2652 C   0  0  0  0  0  0  0  0  0  0  0  0
    1.4938   -0.4286   -0.0858 C   0  0  0  0  0  0  0  0  0  0  0  0
    2.8623    0.1529   -0.1031 C   0  0  0  0  0  0  0  0  0  0  0  0
    3.2475    1.4042   -0.4246 N   0  0  0  0  0  0  0  0  0  0  0  0
    4.5946    1.4355   -0.2841 C   0  0  0  0  0  0  0  0  0  0  0  0
    5.0492    0.2415    0.1140 N   0  0  0  0  0  0  0  0  0  0  0  0
    4.0037   -0.5812    0.2374 C   0  0  0  0  0  0  0  0  0  0  0  0
   -3.6777    1.4003    0.5905 H   0  0  0  0  0  0  0  0  0  0  0  0
   -3.5330    1.7525   -1.0958 H   0  0  0  0  0  0  0  0  0  0  0  0
   -4.8238   -0.7128   -0.3538 H   0  0  0  0  0  0  0  0  0  0  0  0
   -3.5258   -0.4708   -1.6114 H   0  0  0  0  0  0  0  0  0  0  0  0
   -2.7803   -1.8955    0.1994 H   0  0  0  0  0  0  0  0  0  0  0  0
   -3.2375   -0.7144    1.4401 H   0  0  0  0  0  0  0  0  0  0  0  0
   -1.5275    0.9027    0.4371 H   0  0  0  0  0  0  0  0  0  0  0  0
   -1.0649   -0.3909   -0.7056 H   0  0  0  0  0  0  0  0  0  0  0  0
   -0.9492   -0.6027    2.3248 H   0  0  0  0  0  0  0  0  0  0  0  0
   -0.5156   -1.9223    1.2132 H   0  0  0  0  0  0  0  0  0  0  0  0
    0.7254    0.8012    1.5478 H   0  0  0  0  0  0  0  0  0  0  0  0
    1.4112   -0.7726    2.0577 H   0  0  0  0  0  0  0  0  0  0  0  0
    0.8916    0.1763   -0.8100 H   0  0  0  0  0  0  0  0  0  0  0  0
    1.4429   -1.4601   -0.4510 H   0  0  0  0  0  0  0  0  0  0  0  0
    2.6000    2.1638   -0.7177 H   0  0  0  0  0  0  0  0  0  0  0  0
    5.2082    2.3031   -0.4685 H   0  0  0  0  0  0  0  0  0  0  0  0
    4.0454   -1.6126    0.5423 H   0  0  0  0  0  0  0  0  0  0  0  0
  1  2  1  0
  2  3  1  0
  3  4  1  0
  4  5  1  0
  5  6  1  0
  6  7  1  0
  7  8  1  0
  8  9  1  0
  9 10  1  0
 10 11  2  0
 11 12  1  0
 12  8  2  0
  1 13  1  0
  1 14  1  0
  2 15  1  0
  2 16  1  0
  3 17  1  0
  3 18  1  0
  4 19  1  0
  4 20  1  0
  5 21  1  0
  5 22  1  0
  6 23  1  0
  6 24  1  0
  7 25  1  0
  7 26  1  0
  9 27  1  0
 10 28  1  0
 12 29  1  0
M  END
>  <Ligand ID>  (1) 
LIG0005757

>  <Ligand>  (1) 
CHEMBL554031

>  <SMILES>  (1) 
NCCCCCCc1[nH]cnc1

>  <CID>  (1) 
10261471.0

>  <ChEMBL ID>  (1) 
nan

>  <InChiKey>  (1) 
QDMPFGBUXBHFTH-UHFFFAOYSA-N

>  <InChi>  (1) 
InChI=1S/C9H17N3/c10-6-4-2-1-3-5-9-7-11-8-12-9/h7-8H,1-6,10H2,(H,11,12)

>  <IUPAC Name>  (1) 
6-(1H-imidazol-5-yl)hexan-1-amine

$$$$
