
     RDKit          3D

 36 38  0  0  0  0  0  0  0  0999 V2000
   -6.5596    1.5735   -1.2507 N   0  0  0  0  0  0  0  0  0  0  0  0
   -5.8155    0.6981   -0.4113 C   0  0  0  0  0  0  0  0  0  0  0  0
   -6.5132   -0.1151    0.4226 N   0  0  0  0  0  0  0  0  0  0  0  0
   -5.8431   -0.9573    1.2319 C   0  0  0  0  0  0  0  0  0  0  0  0
   -4.4645   -1.0156    1.2359 C   0  0  0  0  0  0  0  0  0  0  0  0
   -3.7847   -0.1916    0.3920 C   0  0  0  0  0  0  0  0  0  0  0  0
   -4.4890    0.6488   -0.4142 N   0  0  0  0  0  0  0  0  0  0  0  0
   -2.3295   -0.1798    0.3216 C   0  0  0  0  0  0  0  0  0  0  0  0
   -1.5244   -0.9905    1.0954 C   0  0  0  0  0  0  0  0  0  0  0  0
   -0.1487   -0.9701    1.0171 C   0  0  0  0  0  0  0  0  0  0  0  0
    0.4901   -0.1063    0.1294 C   0  0  0  0  0  0  0  0  0  0  0  0
   -0.2924    0.7088   -0.6495 C   0  0  0  0  0  0  0  0  0  0  0  0
   -1.6768    0.6725   -0.5550 C   0  0  0  0  0  0  0  0  0  0  0  0
    1.8616   -0.1428    0.1079 O   0  0  0  0  0  0  0  0  0  0  0  0
    2.7137    0.6228   -0.6909 C   0  0  0  0  0  0  0  0  0  0  0  0
    4.1111    0.1974   -0.3267 C   0  0  0  0  0  0  0  0  0  0  0  0
    4.5990    0.6798    0.8704 C   0  0  0  0  0  0  0  0  0  0  0  0
    3.8409    1.4988    1.6701 F   0  0  0  0  0  0  0  0  0  0  0  0
    5.8932    0.3120    1.2516 C   0  0  0  0  0  0  0  0  0  0  0  0
    6.6325   -0.5092    0.4329 C   0  0  0  0  0  0  0  0  0  0  0  0
    6.1249   -0.9878   -0.7729 C   0  0  0  0  0  0  0  0  0  0  0  0
    4.8462   -0.6291   -1.1577 C   0  0  0  0  0  0  0  0  0  0  0  0
    4.1586   -1.2044   -2.6670 Cl  0  0  0  0  0  0  0  0  0  0  0  0
   -6.8106    2.5394   -0.9043 H   0  0  0  0  0  0  0  0  0  0  0  0
   -6.8719    1.2888   -2.2150 H   0  0  0  0  0  0  0  0  0  0  0  0
   -6.3813   -1.6074    1.8975 H   0  0  0  0  0  0  0  0  0  0  0  0
   -3.9813   -1.7027    1.8984 H   0  0  0  0  0  0  0  0  0  0  0  0
   -1.9601   -1.6785    1.7993 H   0  0  0  0  0  0  0  0  0  0  0  0
    0.4406   -1.6403    1.6598 H   0  0  0  0  0  0  0  0  0  0  0  0
    0.1875    1.3722   -1.3303 H   0  0  0  0  0  0  0  0  0  0  0  0
   -2.2497    1.3365   -1.1922 H   0  0  0  0  0  0  0  0  0  0  0  0
    2.5763    0.4888   -1.7812 H   0  0  0  0  0  0  0  0  0  0  0  0
    2.5847    1.7191   -0.5060 H   0  0  0  0  0  0  0  0  0  0  0  0
    6.2868    0.6856    2.1911 H   0  0  0  0  0  0  0  0  0  0  0  0
    7.6289   -0.7759    0.7549 H   0  0  0  0  0  0  0  0  0  0  0  0
    6.7196   -1.6383   -1.4143 H   0  0  0  0  0  0  0  0  0  0  0  0
  1  2  1  0
  2  3  2  0
  3  4  1  0
  4  5  2  0
  5  6  1  0
  6  7  2  0
  6  8  1  0
  8  9  2  0
  9 10  1  0
 10 11  2  0
 11 12  1  0
 12 13  2  0
 11 14  1  0
 14 15  1  0
 15 16  1  0
 16 17  2  0
 17 18  1  0
 17 19  1  0
 19 20  2  0
 20 21  1  0
 21 22  2  0
 22 23  1  0
  7  2  1  0
 13  8  1  0
 22 16  1  0
  1 24  1  0
  1 25  1  0
  4 26  1  0
  5 27  1  0
  9 28  1  0
 10 29  1  0
 12 30  1  0
 13 31  1  0
 15 32  1  0
 15 33  1  0
 19 34  1  0
 20 35  1  0
 21 36  1  0
M  END
>  <Ligand ID>  (1) 
LIG0005775

>  <Ligand>  (1) 
4-{4-[(2-chloro-6-fluorobenzyl)oxy]phenyl}-2-pyrimidinamine

>  <SMILES>  (1) 
Nc1nccc(n1)c1ccc(cc1)OCc1c(F)cccc1Cl

>  <CID>  (1) 
1472403.0

>  <ChEMBL ID>  (1) 
nan

>  <InChiKey>  (1) 
LAMKPYKCCSEZKX-UHFFFAOYSA-N

>  <InChi>  (1) 
InChI=1S/C17H13ClFN3O/c18-14-2-1-3-15(19)13(14)10-23-12-6-4-11(5-7-12)16-8-9-21-17(20)22-16/h1-9H,10H2,(H2,20,21,22)

>  <IUPAC Name>  (1) 
4-[4-[(2-chloro-6-fluorophenyl)methoxy]phenyl]pyrimidin-2-amine

$$$$
