
     RDKit          3D

 45 49  0  0  0  0  0  0  0  0999 V2000
   -2.9600   -1.8186   -1.3705 C   0  0  0  0  0  0  0  0  0  0  0  0
   -1.8342   -1.0537   -0.7043 C   0  0  2  0  0  0  0  0  0  0  0  0
   -0.4729   -1.5832   -1.0846 C   0  0  0  0  0  0  0  0  0  0  0  0
    0.5758   -1.1444   -0.1269 C   0  0  1  0  0  0  0  0  0  0  0  0
    1.8083   -0.6383   -0.8469 C   0  0  1  0  0  0  0  0  0  0  0  0
    1.6954    0.6735   -1.5165 C   0  0  0  0  0  0  0  0  0  0  0  0
    0.6199    1.5259   -0.9668 C   0  0  0  0  0  0  0  0  0  0  0  0
   -0.0656    1.1268    0.1298 C   0  0  0  0  0  0  0  0  0  0  0  0
    0.2019   -0.1283    0.8740 C   0  0  1  0  0  0  0  0  0  0  0  0
   -1.1127   -0.2907    1.5896 C   0  0  2  0  0  0  0  0  0  0  0  0
   -2.0561   -1.0868    0.7717 C   0  0  1  0  0  0  0  0  0  0  0  0
   -3.3949   -0.8100    1.0352 O   0  0  0  0  0  0  0  0  0  0  0  0
   -1.5481    1.0519    1.8471 O   0  0  0  0  0  0  0  0  0  0  0  0
   -1.0975    1.8004    0.7373 C   0  0  0  0  0  0  0  0  0  0  0  0
   -1.4668    3.0037    0.1709 C   0  0  0  0  0  0  0  0  0  0  0  0
   -2.4936    3.7249    0.7354 O   0  0  0  0  0  0  0  0  0  0  0  0
   -0.7881    3.4596   -0.9624 C   0  0  0  0  0  0  0  0  0  0  0  0
    0.2467    2.7409   -1.5385 C   0  0  0  0  0  0  0  0  0  0  0  0
    1.3192    0.1061    1.8348 C   0  0  0  0  0  0  0  0  0  0  0  0
    2.6389    0.3008    1.1978 C   0  0  0  0  0  0  0  0  0  0  0  0
    2.9071   -0.5882    0.0957 N   0  0  0  0  0  0  0  0  0  0  0  0
    3.3270   -1.9033    0.5273 C   0  0  0  0  0  0  0  0  0  0  0  0
   -3.7989   -1.1164   -1.6495 H   0  0  0  0  0  0  0  0  0  0  0  0
   -3.4169   -2.5717   -0.7223 H   0  0  0  0  0  0  0  0  0  0  0  0
   -2.5858   -2.3379   -2.2740 H   0  0  0  0  0  0  0  0  0  0  0  0
   -1.9056   -0.0036   -1.0588 H   0  0  0  0  0  0  0  0  0  0  0  0
   -0.2262   -1.3100   -2.1353 H   0  0  0  0  0  0  0  0  0  0  0  0
   -0.5317   -2.6873   -1.0821 H   0  0  0  0  0  0  0  0  0  0  0  0
    0.9377   -2.0458    0.4373 H   0  0  0  0  0  0  0  0  0  0  0  0
    2.0660   -1.4144   -1.5979 H   0  0  0  0  0  0  0  0  0  0  0  0
    2.6405    1.2666   -1.3788 H   0  0  0  0  0  0  0  0  0  0  0  0
    1.5799    0.5600   -2.6235 H   0  0  0  0  0  0  0  0  0  0  0  0
   -0.9304   -0.7799    2.5488 H   0  0  0  0  0  0  0  0  0  0  0  0
   -1.9227   -2.1670    1.0752 H   0  0  0  0  0  0  0  0  0  0  0  0
   -3.6724   -1.1260    1.9314 H   0  0  0  0  0  0  0  0  0  0  0  0
   -2.8193    4.5890    0.3259 H   0  0  0  0  0  0  0  0  0  0  0  0
   -1.1051    4.4112   -1.3817 H   0  0  0  0  0  0  0  0  0  0  0  0
    0.7750    3.0967   -2.4221 H   0  0  0  0  0  0  0  0  0  0  0  0
    1.2871   -0.7282    2.5747 H   0  0  0  0  0  0  0  0  0  0  0  0
    1.0674    1.0680    2.3703 H   0  0  0  0  0  0  0  0  0  0  0  0
    3.4552    0.1336    1.9362 H   0  0  0  0  0  0  0  0  0  0  0  0
    2.7126    1.3593    0.8253 H   0  0  0  0  0  0  0  0  0  0  0  0
    4.4151   -1.8467    0.7496 H   0  0  0  0  0  0  0  0  0  0  0  0
    3.1585   -2.5939   -0.3078 H   0  0  0  0  0  0  0  0  0  0  0  0
    2.7702   -2.2246    1.4296 H   0  0  0  0  0  0  0  0  0  0  0  0
  1  2  1  0
  2  3  1  0
  3  4  1  0
  4  5  1  0
  5  6  1  0
  6  7  1  0
  7  8  2  0
  8  9  1  0
  9 10  1  0
 10 11  1  0
 11 12  1  0
 10 13  1  0
 13 14  1  0
 14 15  2  0
 15 16  1  0
 15 17  1  0
 17 18  2  0
  9 19  1  1
 19 20  1  0
 20 21  1  0
 21 22  1  0
 11  2  1  0
  9  4  1  0
 21  5  1  0
 18  7  1  0
 14  8  1  0
  1 23  1  0
  1 24  1  0
  1 25  1  0
  2 26  1  6
  3 27  1  0
  3 28  1  0
  4 29  1  1
  5 30  1  6
  6 31  1  0
  6 32  1  0
 10 33  1  1
 11 34  1  1
 12 35  1  0
 16 36  1  0
 17 37  1  0
 18 38  1  0
 19 39  1  0
 19 40  1  0
 20 41  1  0
 20 42  1  0
 22 43  1  0
 22 44  1  0
 22 45  1  0
M  END
>  <Ligand ID>  (1) 
LIG0000797

>  <Ligand>  (1) 
CHEMBL2418739

>  <SMILES>  (1) 
C[C@@H]1C[C@H]2[C@H]3Cc4c5[C@]2([C@H]([C@H]1O)Oc5c(O)cc4)CCN3C

>  <CID>  (1) 
71819401.0

>  <ChEMBL ID>  (1) 
nan

>  <InChiKey>  (1) 
DSQWJPSUVUVXPZ-CHBFXNIQSA-N

>  <InChi>  (1) 
InChI=1S/C18H23NO3/c1-9-7-11-12-8-10-3-4-13(20)16-14(10)18(11,5-6-19(12)2)17(22-16)15(9)21/h3-4,9,11-12,15,17,20-21H,5-8H2,1-2H3/t9-,11+,12-,15+,17+,18+/m1/s1

>  <IUPAC Name>  (1) 
(4R,4aR,6R,7S,7aR,12bS)-3,6-dimethyl-2,4,4a,5,6,7,7a,13-octahydro-1H-4,12-methanobenzofuro[3,2-e]isoquinoline-7,9-diol

$$$$
