
     RDKit          3D

 54 56  0  0  0  0  0  0  0  0999 V2000
   -1.6560   -1.5063   -0.0211 C   0  0  0  0  0  0  0  0  0  0  0  0
   -1.5520   -0.0021   -0.0129 C   0  0  2  0  0  0  0  0  0  0  0  0
   -0.5530    0.3789    1.0699 C   0  0  0  0  0  0  0  0  0  0  0  0
    0.7786   -0.2288    0.7733 C   0  0  0  0  0  0  0  0  0  0  0  0
    1.1463   -1.4768    1.2311 C   0  0  0  0  0  0  0  0  0  0  0  0
    2.3968   -2.0137    0.9358 C   0  0  0  0  0  0  0  0  0  0  0  0
    3.2699   -1.2576    0.1646 C   0  0  0  0  0  0  0  0  0  0  0  0
    2.9194   -0.0077   -0.3020 C   0  0  0  0  0  0  0  0  0  0  0  0
    1.6768    0.5106   -0.0009 C   0  0  0  0  0  0  0  0  0  0  0  0
    3.7765    0.7744   -1.0790 O   0  0  0  0  0  0  0  0  0  0  0  0
    5.0431    0.3158   -1.4201 C   0  0  0  0  0  0  0  0  0  0  0  0
    5.2712   -0.4204   -2.5872 C   0  0  0  0  0  0  0  0  0  0  0  0
    6.5519   -0.8701   -2.9085 C   0  0  0  0  0  0  0  0  0  0  0  0
    7.5847   -0.5678   -2.0430 C   0  0  0  0  0  0  0  0  0  0  0  0
    7.3606    0.1582   -0.8916 C   0  0  0  0  0  0  0  0  0  0  0  0
    6.0996    0.6094   -0.5611 C   0  0  0  0  0  0  0  0  0  0  0  0
    8.4977    0.4405   -0.0240 C   0  0  0  0  0  0  0  0  0  0  0  0
    9.6399    0.0204   -0.3432 O   0  0  0  0  0  0  0  0  0  0  0  0
    8.3646    1.1627    1.1524 O   0  0  0  0  0  0  0  0  0  0  0  0
   -2.7977    0.6742    0.1743 N   0  0  0  0  0  0  0  0  0  0  0  0
   -3.4596    0.3580    1.4076 C   0  0  0  0  0  0  0  0  0  0  0  0
   -4.7556    1.0503    1.6099 C   0  0  1  0  0  0  0  0  0  0  0  0
   -5.7651    0.6483    0.6203 C   0  0  0  0  0  0  0  0  0  0  0  0
   -7.0931    0.9839    0.9143 C   0  0  0  0  0  0  0  0  0  0  0  0
   -8.1319    0.6565    0.0697 C   0  0  0  0  0  0  0  0  0  0  0  0
   -7.8975   -0.0210   -1.1084 C   0  0  0  0  0  0  0  0  0  0  0  0
   -6.6034   -0.3514   -1.4008 C   0  0  0  0  0  0  0  0  0  0  0  0
   -5.5525   -0.0202   -0.5462 C   0  0  0  0  0  0  0  0  0  0  0  0
   -6.2826   -1.2148   -2.8971 Cl  0  0  0  0  0  0  0  0  0  0  0  0
   -5.2255    0.6400    2.8916 O   0  0  0  0  0  0  0  0  0  0  0  0
   -0.8290   -1.9788   -0.5517 H   0  0  0  0  0  0  0  0  0  0  0  0
   -2.5936   -1.8540   -0.5279 H   0  0  0  0  0  0  0  0  0  0  0  0
   -1.7868   -1.8106    1.0366 H   0  0  0  0  0  0  0  0  0  0  0  0
   -1.0844    0.3785   -0.9661 H   0  0  0  0  0  0  0  0  0  0  0  0
   -0.4440    1.4747    1.1605 H   0  0  0  0  0  0  0  0  0  0  0  0
   -0.8714    0.0026    2.0715 H   0  0  0  0  0  0  0  0  0  0  0  0
    0.4660   -2.0554    1.8268 H   0  0  0  0  0  0  0  0  0  0  0  0
    2.7073   -2.9922    1.2848 H   0  0  0  0  0  0  0  0  0  0  0  0
    4.2522   -1.6206   -0.0968 H   0  0  0  0  0  0  0  0  0  0  0  0
    1.3684    1.4844   -0.3484 H   0  0  0  0  0  0  0  0  0  0  0  0
    4.4533   -0.6435   -3.2452 H   0  0  0  0  0  0  0  0  0  0  0  0
    6.7091   -1.4402   -3.8189 H   0  0  0  0  0  0  0  0  0  0  0  0
    8.6024   -0.9142   -2.2797 H   0  0  0  0  0  0  0  0  0  0  0  0
    5.9637    1.1772    0.3527 H   0  0  0  0  0  0  0  0  0  0  0  0
    9.0894    1.8500    1.4042 H   0  0  0  0  0  0  0  0  0  0  0  0
   -2.6358    1.6837    0.1109 H   0  0  0  0  0  0  0  0  0  0  0  0
   -3.6607   -0.7413    1.5004 H   0  0  0  0  0  0  0  0  0  0  0  0
   -2.7753    0.6995    2.2288 H   0  0  0  0  0  0  0  0  0  0  0  0
   -4.6591    2.1622    1.6885 H   0  0  0  0  0  0  0  0  0  0  0  0
   -7.3435    1.5157    1.8233 H   0  0  0  0  0  0  0  0  0  0  0  0
   -9.1606    0.9112    0.2879 H   0  0  0  0  0  0  0  0  0  0  0  0
   -8.6946   -0.2921   -1.7931 H   0  0  0  0  0  0  0  0  0  0  0  0
   -4.5812   -0.3224   -0.8544 H   0  0  0  0  0  0  0  0  0  0  0  0
   -5.5443   -0.3152    2.8375 H   0  0  0  0  0  0  0  0  0  0  0  0
  1  2  1  0
  2  3  1  0
  3  4  1  0
  4  5  2  0
  5  6  1  0
  6  7  2  0
  7  8  1  0
  8  9  2  0
  8 10  1  0
 10 11  1  0
 11 12  2  0
 12 13  1  0
 13 14  2  0
 14 15  1  0
 15 16  2  0
 15 17  1  0
 17 18  2  0
 17 19  1  0
  2 20  1  0
 20 21  1  0
 21 22  1  0
 22 23  1  0
 23 24  2  0
 24 25  1  0
 25 26  2  0
 26 27  1  0
 27 28  2  0
 27 29  1  0
 22 30  1  0
  9  4  1  0
 16 11  1  0
 28 23  1  0
  1 31  1  0
  1 32  1  0
  1 33  1  0
  2 34  1  6
  3 35  1  0
  3 36  1  0
  5 37  1  0
  6 38  1  0
  7 39  1  0
  9 40  1  0
 12 41  1  0
 13 42  1  0
 14 43  1  0
 16 44  1  0
 19 45  1  0
 20 46  1  0
 21 47  1  0
 21 48  1  0
 22 49  1  1
 24 50  1  0
 25 51  1  0
 26 52  1  0
 28 53  1  0
 30 54  1  0
M  END
>  <Ligand ID>  (1) 
LIG0005450

>  <Ligand>  (1) 
CHEMBL492006

>  <SMILES>  (1) 
C[C@H](Cc1cccc(c1)Oc1cccc(c1)C(=O)O)NC[C@@H](c1cccc(c1)Cl)O

>  <CID>  (1) 
44579651.0

>  <ChEMBL ID>  (1) 
nan

>  <InChiKey>  (1) 
SDXNMKXISDPYTA-MWTRTKDXSA-N

>  <InChi>  (1) 
InChI=1S/C24H24ClNO4/c1-16(26-15-23(27)18-6-3-8-20(25)13-18)11-17-5-2-9-21(12-17)30-22-10-4-7-19(14-22)24(28)29/h2-10,12-14,16,23,26-27H,11,15H2,1H3,(H,28,29)/t16-,23+/m1/s1

>  <IUPAC Name>  (1) 
3-[3-[(2R)-2-[[(2R)-2-(3-chlorophenyl)-2-hydroxyethyl]amino]propyl]phenoxy]benzoic acid

$$$$
