
     RDKit          3D

142146  0  0  0  0  0  0  0  0999 V2000
   -5.8958    5.9944    3.9923 N   0  0  0  0  0  0  0  0  0  0  0  0
   -4.7984    5.2192    3.4216 C   0  0  0  0  0  0  0  0  0  0  0  0
   -4.9440    5.1889    1.9250 C   0  0  0  0  0  0  0  0  0  0  0  0
   -3.8580    4.4184    1.2219 C   0  0  0  0  0  0  0  0  0  0  0  0
   -3.8800    2.9919    1.7272 C   0  0  0  0  0  0  0  0  0  0  0  0
   -2.8442    2.1358    1.1038 C   0  0  1  0  0  0  0  0  0  0  0  0
   -1.5279    2.7951    1.4843 N   0  0  0  0  0  0  0  0  0  0  0  0
   -0.4163    2.4498    0.7068 C   0  0  0  0  0  0  0  0  0  0  0  0
   -0.6043    1.5324   -0.1310 O   0  0  0  0  0  0  0  0  0  0  0  0
    0.9540    3.0205    0.7578 C   0  0  1  0  0  0  0  0  0  0  0  0
    1.8772    2.0873    0.1444 N   0  0  0  0  0  0  0  0  0  0  0  0
    3.2343    1.9187    0.5197 C   0  0  0  0  0  0  0  0  0  0  0  0
    3.6946    2.7268    1.3198 O   0  0  0  0  0  0  0  0  0  0  0  0
    4.0173    0.7782   -0.0941 C   0  0  1  0  0  0  0  0  0  0  0  0
    5.0337    0.2433    0.8561 C   0  0  0  0  0  0  0  0  0  0  0  0
    5.7814   -0.8890    0.1861 C   0  0  0  0  0  0  0  0  0  0  0  0
    6.8270   -1.4793    1.1127 C   0  0  0  0  0  0  0  0  0  0  0  0
    7.7951   -0.4975    1.5108 N   0  0  0  0  0  0  0  0  0  0  0  0
    8.8778   -0.2945    0.8533 C   0  0  0  0  0  0  0  0  0  0  0  0
    9.7813    0.6973    1.3197 N   0  0  0  0  0  0  0  0  0  0  0  0
    9.2431   -1.0038   -0.3214 N   0  0  0  0  0  0  0  0  0  0  0  0
    3.0884   -0.2106   -0.5984 N   0  0  0  0  0  0  0  0  0  0  0  0
    2.8441   -0.5630   -1.9492 C   0  0  0  0  0  0  0  0  0  0  0  0
    3.4568    0.0750   -2.7971 O   0  0  0  0  0  0  0  0  0  0  0  0
    1.9130   -1.6311   -2.3670 C   0  0  2  0  0  0  0  0  0  0  0  0
    1.2379   -2.3097   -1.3068 N   0  0  0  0  0  0  0  0  0  0  0  0
   -0.0697   -2.8921   -1.3729 C   0  0  0  0  0  0  0  0  0  0  0  0
   -0.6484   -2.7796   -2.4585 O   0  0  0  0  0  0  0  0  0  0  0  0
   -0.6818   -3.6025   -0.1716 C   0  0  2  0  0  0  0  0  0  0  0  0
   -1.3542   -2.6298    0.6652 N   0  0  0  0  0  0  0  0  0  0  0  0
   -2.7898   -2.7095    0.9460 C   0  0  0  0  0  0  0  0  0  0  0  0
   -3.2888   -3.7362    0.4754 O   0  0  0  0  0  0  0  0  0  0  0  0
   -3.5079   -1.6625    1.7149 C   0  0  1  0  0  0  0  0  0  0  0  0
   -3.6618   -0.3634    1.1154 N   0  0  0  0  0  0  0  0  0  0  0  0
   -2.7824    0.7325    1.5415 C   0  0  0  0  0  0  0  0  0  0  0  0
   -1.9635    0.3581    2.3091 O   0  0  0  0  0  0  0  0  0  0  0  0
   -4.5923    0.0745    0.1957 C   0  0  0  0  0  0  0  0  0  0  0  0
   -4.5670    1.2892   -0.3210 O   0  0  0  0  0  0  0  0  0  0  0  0
   -5.7406   -0.6519   -0.3616 C   0  0  0  0  0  0  0  0  0  0  0  0
   -6.5985    0.3035   -1.0384 N   0  0  0  0  0  0  0  0  0  0  0  0
   -7.9040    0.5577   -0.4808 C   0  0  0  0  0  0  0  0  0  0  0  0
   -8.3263   -0.0008    0.5526 O   0  0  0  0  0  0  0  0  0  0  0  0
   -8.8444    1.5344   -1.1379 C   0  0  0  0  0  0  0  0  0  0  0  0
   -5.4838   -1.8999   -1.0973 C   0  0  0  0  0  0  0  0  0  0  0  0
   -4.5704   -1.9079   -2.2555 C   0  0  0  0  0  0  0  0  0  0  0  0
   -4.8674   -1.0693   -3.4388 C   0  0  0  0  0  0  0  0  0  0  0  0
   -6.2042   -1.4146   -4.0499 C   0  0  0  0  0  0  0  0  0  0  0  0
   -4.6914   -2.2016    2.4193 C   0  0  0  0  0  0  0  0  0  0  0  0
   -4.1928   -3.2044    3.4282 C   0  0  0  0  0  0  0  0  0  0  0  0
   -2.9470   -3.2348    3.5791 O   0  0  0  0  0  0  0  0  0  0  0  0
   -5.0355   -4.0316    4.1387 O   0  0  0  0  0  0  0  0  0  0  0  0
    0.3513   -4.4582    0.4562 C   0  0  0  0  0  0  0  0  0  0  0  0
    0.0119   -5.3007    1.5967 C   0  0  0  0  0  0  0  0  0  0  0  0
    1.0142   -6.0634    2.1881 N   0  0  0  0  0  0  0  0  0  0  0  0
    0.4769   -6.7720    3.1785 C   0  0  0  0  0  0  0  0  0  0  0  0
   -0.8330   -6.5268    3.2820 N   0  0  0  0  0  0  0  0  0  0  0  0
   -1.1016   -5.6154    2.2964 C   0  0  0  0  0  0  0  0  0  0  0  0
    2.6258   -2.6132   -3.3068 C   0  0  0  0  0  0  0  0  0  0  0  0
    3.7926   -3.2600   -2.6687 C   0  0  0  0  0  0  0  0  0  0  0  0
    3.5464   -4.4236   -1.9356 C   0  0  0  0  0  0  0  0  0  0  0  0
    4.6151   -5.0398   -1.3510 C   0  0  0  0  0  0  0  0  0  0  0  0
    5.8996   -4.5724   -1.4518 C   0  0  0  0  0  0  0  0  0  0  0  0
    6.1552   -3.4153   -2.1792 C   0  0  0  0  0  0  0  0  0  0  0  0
    5.0892   -2.7915   -2.7682 C   0  0  0  0  0  0  0  0  0  0  0  0
    0.8422    4.3140   -0.0617 C   0  0  0  0  0  0  0  0  0  0  0  0
    2.1002    5.0556   -0.1867 C   0  0  0  0  0  0  0  0  0  0  0  0
    2.4983    6.1318    0.5967 C   0  0  0  0  0  0  0  0  0  0  0  0
    3.7178    6.5488    0.2256 N   0  0  0  0  0  0  0  0  0  0  0  0
    4.1584    5.7800   -0.7935 C   0  0  0  0  0  0  0  0  0  0  0  0
    3.1529    4.8438   -1.0579 C   0  0  0  0  0  0  0  0  0  0  0  0
    3.3811    3.9559   -2.0712 C   0  0  0  0  0  0  0  0  0  0  0  0
    4.5183    3.9157   -2.8425 C   0  0  0  0  0  0  0  0  0  0  0  0
    5.4942    4.8519   -2.5575 C   0  0  0  0  0  0  0  0  0  0  0  0
    5.3345    5.7770   -1.5528 C   0  0  0  0  0  0  0  0  0  0  0  0
   -6.1490    5.6455    4.9236 H   0  0  0  0  0  0  0  0  0  0  0  0
   -5.7617    7.0090    3.8986 H   0  0  0  0  0  0  0  0  0  0  0  0
   -3.8365    5.6550    3.7572 H   0  0  0  0  0  0  0  0  0  0  0  0
   -4.9002    4.2086    3.8553 H   0  0  0  0  0  0  0  0  0  0  0  0
   -5.0628    6.2046    1.4953 H   0  0  0  0  0  0  0  0  0  0  0  0
   -5.9118    4.6608    1.7239 H   0  0  0  0  0  0  0  0  0  0  0  0
   -2.8770    4.8947    1.3498 H   0  0  0  0  0  0  0  0  0  0  0  0
   -4.1574    4.3724    0.1440 H   0  0  0  0  0  0  0  0  0  0  0  0
   -4.9132    2.6513    1.7647 H   0  0  0  0  0  0  0  0  0  0  0  0
   -3.5933    3.0393    2.8491 H   0  0  0  0  0  0  0  0  0  0  0  0
   -2.7958    2.2449    0.0114 H   0  0  0  0  0  0  0  0  0  0  0  0
   -1.4385    3.4367    2.2403 H   0  0  0  0  0  0  0  0  0  0  0  0
    1.2551    3.2404    1.7736 H   0  0  0  0  0  0  0  0  0  0  0  0
    1.5398    1.5046   -0.6184 H   0  0  0  0  0  0  0  0  0  0  0  0
    4.5611    1.1651   -0.9993 H   0  0  0  0  0  0  0  0  0  0  0  0
    5.7693    1.0687    1.0328 H   0  0  0  0  0  0  0  0  0  0  0  0
    4.6295   -0.0365    1.8315 H   0  0  0  0  0  0  0  0  0  0  0  0
    5.1013   -1.7212   -0.0913 H   0  0  0  0  0  0  0  0  0  0  0  0
    6.2621   -0.5516   -0.7350 H   0  0  0  0  0  0  0  0  0  0  0  0
    6.2921   -1.8642    2.0268 H   0  0  0  0  0  0  0  0  0  0  0  0
    7.3210   -2.3499    0.6598 H   0  0  0  0  0  0  0  0  0  0  0  0
   10.4169    1.2116    0.6667 H   0  0  0  0  0  0  0  0  0  0  0  0
    9.8532    0.9667    2.3480 H   0  0  0  0  0  0  0  0  0  0  0  0
    9.9196   -1.8077   -0.1740 H   0  0  0  0  0  0  0  0  0  0  0  0
    8.8770   -0.7619   -1.2811 H   0  0  0  0  0  0  0  0  0  0  0  0
    2.5300   -0.7169    0.0963 H   0  0  0  0  0  0  0  0  0  0  0  0
    1.1378   -1.1701   -2.9941 H   0  0  0  0  0  0  0  0  0  0  0  0
    1.7011   -2.3976   -0.4027 H   0  0  0  0  0  0  0  0  0  0  0  0
   -1.4632   -4.2422   -0.6011 H   0  0  0  0  0  0  0  0  0  0  0  0
   -0.9076   -1.8306    1.1183 H   0  0  0  0  0  0  0  0  0  0  0  0
   -2.6789   -1.4586    2.5343 H   0  0  0  0  0  0  0  0  0  0  0  0
   -6.3826   -0.9701    0.5411 H   0  0  0  0  0  0  0  0  0  0  0  0
   -6.3755    0.8420   -1.8872 H   0  0  0  0  0  0  0  0  0  0  0  0
   -9.8345    1.0057   -1.2240 H   0  0  0  0  0  0  0  0  0  0  0  0
   -9.0474    2.3970   -0.4815 H   0  0  0  0  0  0  0  0  0  0  0  0
   -8.5424    1.7934   -2.1560 H   0  0  0  0  0  0  0  0  0  0  0  0
   -5.3105   -2.8103   -0.5016 H   0  0  0  0  0  0  0  0  0  0  0  0
   -6.5252   -2.1585   -1.5538 H   0  0  0  0  0  0  0  0  0  0  0  0
   -3.5243   -1.7254   -1.8596 H   0  0  0  0  0  0  0  0  0  0  0  0
   -4.4742   -2.9757   -2.6448 H   0  0  0  0  0  0  0  0  0  0  0  0
   -4.1159   -1.3773   -4.2511 H   0  0  0  0  0  0  0  0  0  0  0  0
   -4.7982   -0.0022   -3.2613 H   0  0  0  0  0  0  0  0  0  0  0  0
   -6.3467   -2.5145   -3.9545 H   0  0  0  0  0  0  0  0  0  0  0  0
   -6.1686   -1.1186   -5.1330 H   0  0  0  0  0  0  0  0  0  0  0  0
   -6.9900   -0.8612   -3.5283 H   0  0  0  0  0  0  0  0  0  0  0  0
   -5.4306   -2.6648    1.7871 H   0  0  0  0  0  0  0  0  0  0  0  0
   -5.1986   -1.3731    2.9729 H   0  0  0  0  0  0  0  0  0  0  0  0
   -4.7003   -4.9577    4.4276 H   0  0  0  0  0  0  0  0  0  0  0  0
    1.3163   -3.9032    0.6521 H   0  0  0  0  0  0  0  0  0  0  0  0
    0.6215   -5.2182   -0.3727 H   0  0  0  0  0  0  0  0  0  0  0  0
    2.0171   -6.0856    1.9117 H   0  0  0  0  0  0  0  0  0  0  0  0
    1.0485   -7.4476    3.7986 H   0  0  0  0  0  0  0  0  0  0  0  0
   -2.0815   -5.2531    2.1364 H   0  0  0  0  0  0  0  0  0  0  0  0
    1.9067   -3.3317   -3.7461 H   0  0  0  0  0  0  0  0  0  0  0  0
    3.0261   -2.0478   -4.1747 H   0  0  0  0  0  0  0  0  0  0  0  0
    2.5723   -4.8475   -1.8128 H   0  0  0  0  0  0  0  0  0  0  0  0
    4.4732   -5.9409   -0.7661 H   0  0  0  0  0  0  0  0  0  0  0  0
    6.7473   -5.0822   -0.9741 H   0  0  0  0  0  0  0  0  0  0  0  0
    7.1768   -3.0829   -2.2299 H   0  0  0  0  0  0  0  0  0  0  0  0
    5.2755   -1.8915   -3.3443 H   0  0  0  0  0  0  0  0  0  0  0  0
    0.0720    4.9774    0.3765 H   0  0  0  0  0  0  0  0  0  0  0  0
    0.4420    4.0556   -1.0865 H   0  0  0  0  0  0  0  0  0  0  0  0
    1.9038    6.5508    1.3736 H   0  0  0  0  0  0  0  0  0  0  0  0
    4.3010    7.3294    0.6055 H   0  0  0  0  0  0  0  0  0  0  0  0
    2.6170    3.2280   -2.2936 H   0  0  0  0  0  0  0  0  0  0  0  0
    4.7032    3.2282   -3.6371 H   0  0  0  0  0  0  0  0  0  0  0  0
    6.4098    4.8589   -3.1424 H   0  0  0  0  0  0  0  0  0  0  0  0
    6.0814    6.5297   -1.3011 H   0  0  0  0  0  0  0  0  0  0  0  0
  1  2  1  0
  2  3  1  0
  3  4  1  0
  4  5  1  0
  5  6  1  0
  6  7  1  0
  7  8  1  0
  8  9  2  0
  8 10  1  0
 10 11  1  0
 11 12  1  0
 12 13  2  0
 12 14  1  0
 14 15  1  0
 15 16  1  0
 16 17  1  0
 17 18  1  0
 18 19  2  3
 19 20  1  0
 19 21  1  0
 14 22  1  0
 22 23  1  0
 23 24  2  0
 23 25  1  0
 25 26  1  0
 26 27  1  0
 27 28  2  0
 27 29  1  0
 29 30  1  0
 30 31  1  0
 31 32  2  0
 31 33  1  0
 33 34  1  0
 34 35  1  0
 35 36  2  0
 34 37  1  0
 37 38  2  0
 37 39  1  0
 39 40  1  0
 40 41  1  0
 41 42  2  0
 41 43  1  0
 39 44  1  0
 44 45  1  0
 45 46  1  0
 46 47  1  0
 33 48  1  0
 48 49  1  0
 49 50  2  0
 49 51  1  0
 29 52  1  0
 52 53  1  0
 53 54  1  0
 54 55  1  0
 55 56  2  0
 56 57  1  0
 25 58  1  0
 58 59  1  0
 59 60  2  0
 60 61  1  0
 61 62  2  0
 62 63  1  0
 63 64  2  0
 10 65  1  0
 65 66  1  0
 66 67  2  0
 67 68  1  0
 68 69  1  0
 69 70  2  0
 70 71  1  0
 71 72  2  0
 72 73  1  0
 73 74  2  0
 35  6  1  0
 57 53  2  0
 64 59  1  0
 70 66  1  0
 74 69  1  0
  1 75  1  0
  1 76  1  0
  2 77  1  0
  2 78  1  0
  3 79  1  0
  3 80  1  0
  4 81  1  0
  4 82  1  0
  5 83  1  0
  5 84  1  0
  6 85  1  6
  7 86  1  0
 10 87  1  1
 11 88  1  0
 14 89  1  6
 15 90  1  0
 15 91  1  0
 16 92  1  0
 16 93  1  0
 17 94  1  0
 17 95  1  0
 20 96  1  0
 20 97  1  0
 21 98  1  0
 21 99  1  0
 22100  1  0
 25101  1  6
 26102  1  0
 29103  1  6
 30104  1  0
 33105  1  1
 39106  1  0
 40107  1  0
 43108  1  0
 43109  1  0
 43110  1  0
 44111  1  0
 44112  1  0
 45113  1  0
 45114  1  0
 46115  1  0
 46116  1  0
 47117  1  0
 47118  1  0
 47119  1  0
 48120  1  0
 48121  1  0
 51122  1  0
 52123  1  0
 52124  1  0
 54125  1  0
 55126  1  0
 57127  1  0
 58128  1  0
 58129  1  0
 60130  1  0
 61131  1  0
 62132  1  0
 63133  1  0
 64134  1  0
 65135  1  0
 65136  1  0
 67137  1  0
 68138  1  0
 71139  1  0
 72140  1  0
 73141  1  0
 74142  1  0
M  END
>  <Ligand ID>  (1) 
LIG0001857

>  <Ligand>  (1) 
CHEMBL408600

>  <SMILES>  (1) 
NCCCC[C@H]1NC(=O)[C@@H](NC(=O)[C@@H](CCCN=C(N)N)NC(=O)[C@H](NC(=O)[C@H](NC(=O)[C@@H](N(C1=O)C(=O)C(NC(=O)C)CCCC)CC(=O)O)Cc1[nH]cnc1)Cc1ccccc1)Cc1c[nH]c2c1cccc2

>  <CID>  (1) 
44400308.0

>  <ChEMBL ID>  (1) 
nan

>  <InChiKey>  (1) 
ULUABNVCTYCFOE-UALIOAIOSA-N

>  <InChi>  (1) 
InChI=1S/C50H68N14O10/c1-3-4-16-36(58-29(2)65)48(73)64-41(25-42(66)67)47(72)63-40(24-32-27-54-28-57-32)46(71)61-38(22-30-13-6-5-7-14-30)44(69)59-35(19-12-21-55-50(52)53)43(68)62-39(23-31-26-56-34-17-9-8-15-33(31)34)45(70)60-37(49(64)74)18-10-11-20-51/h5-9,13-15,17,26-28,35-41,56H,3-4,10-12,16,18-25,51H2,1-2H3,(H,54,57)(H,58,65)(H,59,69)(H,60,70)(H,61,71)(H,62,68)(H,63,72)(H,66,67)(H4,52,53,55)/t35-,36?,37-,38-,39+,40-,41+/m1/s1

>  <IUPAC Name>  (1) 
2-[(2S,5R,8R,11R,14S,17R)-1-(2-acetamidohexanoyl)-17-(4-aminobutyl)-8-benzyl-11-[3-(diaminomethylideneamino)propyl]-5-(1H-imidazol-5-ylmethyl)-14-(1H-indol-3-ylmethyl)-3,6,9,12,15,18-hexaoxo-1,4,7,10,13,16-hexazacyclooctadec-2-yl]acetic acid

$$$$
