
     RDKit          3D

 59 63  0  0  0  0  0  0  0  0999 V2000
    5.3324    2.2434    3.3764 C   0  0  0  0  0  0  0  0  0  0  0  0
    5.3659    1.1597    2.3713 C   0  0  0  0  0  0  0  0  0  0  0  0
    6.5284    0.4249    2.2566 C   0  0  0  0  0  0  0  0  0  0  0  0
    6.6184   -0.5960    1.3374 C   0  0  0  0  0  0  0  0  0  0  0  0
    5.5063   -0.8604    0.5351 C   0  0  0  0  0  0  0  0  0  0  0  0
    4.3425   -0.1306    0.6441 C   0  0  0  0  0  0  0  0  0  0  0  0
    4.2494    0.8965    1.5665 C   0  0  0  0  0  0  0  0  0  0  0  0
    3.2375   -0.4219   -0.1814 O   0  0  0  0  0  0  0  0  0  0  0  0
    3.4357   -1.4809   -1.0835 C   0  0  0  0  0  0  0  0  0  0  0  0
    2.2963   -1.7942   -1.9462 C   0  0  0  0  0  0  0  0  0  0  0  0
    2.4640   -2.7603   -2.7743 O   0  0  0  0  0  0  0  0  0  0  0  0
    1.0470   -1.1245   -1.9358 N   0  0  0  0  0  0  0  0  0  0  0  0
    0.7706   -0.0244   -1.0348 C   0  0  0  0  0  0  0  0  0  0  0  0
   -0.5582    0.6229   -1.2432 C   0  0  0  0  0  0  0  0  0  0  0  0
   -1.6065   -0.3279   -1.6500 N   0  0  0  0  0  0  0  0  0  0  0  0
   -1.2424   -1.7163   -1.9768 C   0  0  0  0  0  0  0  0  0  0  0  0
   -0.0021   -1.5617   -2.8701 C   0  0  0  0  0  0  0  0  0  0  0  0
   -2.9354    0.1453   -1.7220 C   0  0  0  0  0  0  0  0  0  0  0  0
   -3.3483    0.5004   -2.9645 N   0  0  0  0  0  0  0  0  0  0  0  0
   -4.5294    1.0279   -3.2527 C   0  0  0  0  0  0  0  0  0  0  0  0
   -4.9685    1.4143   -4.6154 C   0  0  0  0  0  0  0  0  0  0  0  0
   -5.3714    1.2172   -2.2049 N   0  0  0  0  0  0  0  0  0  0  0  0
   -5.0059    0.8790   -0.9540 C   0  0  0  0  0  0  0  0  0  0  0  0
   -3.7810    0.3243   -0.6148 C   0  0  0  0  0  0  0  0  0  0  0  0
   -3.5753    0.0370    0.6794 C   0  0  0  0  0  0  0  0  0  0  0  0
   -2.3963   -0.6111    1.4039 C   0  0  0  0  0  0  0  0  0  0  0  0
   -1.9623    0.3197    2.4902 C   0  0  0  0  0  0  0  0  0  0  0  0
   -3.0585    0.5232    3.5166 C   0  0  0  0  0  0  0  0  0  0  0  0
   -4.3991    0.0316    3.0037 C   0  0  0  0  0  0  0  0  0  0  0  0
   -4.6019    0.3214    1.5789 C   0  0  0  0  0  0  0  0  0  0  0  0
   -5.9069    1.0086    0.6090 S   0  0  0  0  0  0  0  0  0  0  0  0
    4.5043    2.9569    3.1807 H   0  0  0  0  0  0  0  0  0  0  0  0
    6.2897    2.8088    3.3191 H   0  0  0  0  0  0  0  0  0  0  0  0
    5.2313    1.8824    4.4060 H   0  0  0  0  0  0  0  0  0  0  0  0
    7.3947    0.6467    2.8955 H   0  0  0  0  0  0  0  0  0  0  0  0
    7.5146   -1.1958    1.2178 H   0  0  0  0  0  0  0  0  0  0  0  0
    5.6096   -1.6562   -0.1634 H   0  0  0  0  0  0  0  0  0  0  0  0
    3.3479    1.4878    1.6766 H   0  0  0  0  0  0  0  0  0  0  0  0
    4.3220   -1.2503   -1.7448 H   0  0  0  0  0  0  0  0  0  0  0  0
    3.7583   -2.4196   -0.5533 H   0  0  0  0  0  0  0  0  0  0  0  0
    0.9168   -0.3477    0.0231 H   0  0  0  0  0  0  0  0  0  0  0  0
    1.5448    0.7423   -1.2538 H   0  0  0  0  0  0  0  0  0  0  0  0
   -0.4586    1.4154   -2.0363 H   0  0  0  0  0  0  0  0  0  0  0  0
   -0.8846    1.1204   -0.3312 H   0  0  0  0  0  0  0  0  0  0  0  0
   -0.9066   -2.2603   -1.0872 H   0  0  0  0  0  0  0  0  0  0  0  0
   -2.0071   -2.2007   -2.5818 H   0  0  0  0  0  0  0  0  0  0  0  0
   -0.2170   -0.7880   -3.6333 H   0  0  0  0  0  0  0  0  0  0  0  0
    0.2589   -2.4870   -3.3803 H   0  0  0  0  0  0  0  0  0  0  0  0
   -4.0578    1.5660   -5.2478 H   0  0  0  0  0  0  0  0  0  0  0  0
   -5.6435    2.2971   -4.6305 H   0  0  0  0  0  0  0  0  0  0  0  0
   -5.4802    0.5162   -5.0682 H   0  0  0  0  0  0  0  0  0  0  0  0
   -2.8877   -1.4971    1.9150 H   0  0  0  0  0  0  0  0  0  0  0  0
   -1.6060   -0.9102    0.7595 H   0  0  0  0  0  0  0  0  0  0  0  0
   -1.7135    1.2914    2.0506 H   0  0  0  0  0  0  0  0  0  0  0  0
   -1.1090   -0.1724    3.0258 H   0  0  0  0  0  0  0  0  0  0  0  0
   -2.8256    0.0688    4.5010 H   0  0  0  0  0  0  0  0  0  0  0  0
   -3.1897    1.6087    3.6811 H   0  0  0  0  0  0  0  0  0  0  0  0
   -5.2231    0.4805    3.5638 H   0  0  0  0  0  0  0  0  0  0  0  0
   -4.4277   -1.0602    3.1518 H   0  0  0  0  0  0  0  0  0  0  0  0
  1  2  1  0
  2  3  2  0
  3  4  1  0
  4  5  2  0
  5  6  1  0
  6  7  2  0
  6  8  1  0
  8  9  1  0
  9 10  1  0
 10 11  2  0
 10 12  1  0
 12 13  1  0
 13 14  1  0
 14 15  1  0
 15 16  1  0
 16 17  1  0
 15 18  1  0
 18 19  2  0
 19 20  1  0
 20 21  1  0
 20 22  2  0
 22 23  1  0
 23 24  2  0
 24 25  1  0
 25 26  1  0
 26 27  1  0
 27 28  1  0
 28 29  1  0
 29 30  1  0
 30 31  1  0
  7  2  1  0
 17 12  1  0
 24 18  1  0
 30 25  2  0
 31 23  1  0
  1 32  1  0
  1 33  1  0
  1 34  1  0
  3 35  1  0
  4 36  1  0
  5 37  1  0
  7 38  1  0
  9 39  1  0
  9 40  1  0
 13 41  1  0
 13 42  1  0
 14 43  1  0
 14 44  1  0
 16 45  1  0
 16 46  1  0
 17 47  1  0
 17 48  1  0
 21 49  1  0
 21 50  1  0
 21 51  1  0
 26 52  1  0
 26 53  1  0
 27 54  1  0
 27 55  1  0
 28 56  1  0
 28 57  1  0
 29 58  1  0
 29 59  1  0
M  END
>  <Ligand ID>  (1) 
LIG0003777

>  <Ligand>  (1) 
MLS-0437133.0001

>  <SMILES>  (1) 
Cc1cccc(c1)OCC(=O)N1CCN(CC1)c1nc(C)nc2c1c1CCCCc1s2

>  <CID>  (1) 
1434959.0

>  <ChEMBL ID>  (1) 
nan

>  <InChiKey>  (1) 
GBBFDWPPCQLGGT-UHFFFAOYSA-N

>  <InChi>  (1) 
InChI=1S/C24H28N4O2S/c1-16-6-5-7-18(14-16)30-15-21(29)27-10-12-28(13-11-27)23-22-19-8-3-4-9-20(19)31-24(22)26-17(2)25-23/h5-7,14H,3-4,8-13,15H2,1-2H3

>  <IUPAC Name>  (1) 
2-(3-methylphenoxy)-1-[4-(2-methyl-5,6,7,8-tetrahydro-[1]benzothiolo[2,3-d]pyrimidin-4-yl)piperazin-1-yl]ethanone

$$$$
