
     RDKit          3D

 57 59  0  0  0  0  0  0  0  0999 V2000
   -1.9639    0.8324   -0.9011 O   0  0  0  0  0  0  0  0  0  0  0  0
   -3.0973    0.2399   -1.3942 C   0  0  2  0  0  0  0  0  0  0  0  0
   -4.3277    1.0038   -0.9484 C   0  0  0  0  0  0  0  0  0  0  0  0
   -4.4370    1.0775    0.4572 O   0  0  0  0  0  0  0  0  0  0  0  0
   -5.5147    1.7512    1.0167 C   0  0  0  0  0  0  0  0  0  0  0  0
   -6.4930    2.3522    0.2446 C   0  0  0  0  0  0  0  0  0  0  0  0
   -7.5189    2.9963    0.9067 C   0  0  0  0  0  0  0  0  0  0  0  0
   -7.5990    3.0593    2.2890 C   0  0  0  0  0  0  0  0  0  0  0  0
   -6.6049    2.4482    3.0275 C   0  0  0  0  0  0  0  0  0  0  0  0
   -5.5582    1.7913    2.4141 C   0  0  0  0  0  0  0  0  0  0  0  0
   -8.6350    3.7096    2.9463 O   0  0  0  0  0  0  0  0  0  0  0  0
   -3.2300   -1.2281   -1.2203 C   0  0  0  0  0  0  0  0  0  0  0  0
   -2.2151   -2.0309   -1.8351 N   0  0  0  0  0  0  0  0  0  0  0  0
   -0.9665   -1.8943   -1.1783 C   0  0  0  0  0  0  0  0  0  0  0  0
    0.1327   -2.7320   -1.8272 C   0  0  0  0  0  0  0  0  0  0  0  0
    1.3577   -2.4641   -0.9895 C   0  0  0  0  0  0  0  0  0  0  0  0
    1.6100   -3.3095    0.0679 C   0  0  0  0  0  0  0  0  0  0  0  0
    2.7138   -3.0927    0.8707 C   0  0  0  0  0  0  0  0  0  0  0  0
    3.5930   -2.0252    0.6357 C   0  0  0  0  0  0  0  0  0  0  0  0
    3.2891   -1.2230   -0.4268 C   0  0  0  0  0  0  0  0  0  0  0  0
    2.1981   -1.4036   -1.2533 C   0  0  0  0  0  0  0  0  0  0  0  0
    4.6788   -1.9044    1.5089 N   0  0  0  0  0  0  0  0  0  0  0  0
    6.3189   -1.6551    1.1021 S   0  0  0  0  0  0  0  0  0  0  0  0
    7.2006   -1.7016    2.3438 O   0  0  0  0  0  0  0  0  0  0  0  0
    6.7760   -2.8140    0.2213 O   0  0  0  0  0  0  0  0  0  0  0  0
    6.5836   -0.1628    0.2614 C   0  0  0  0  0  0  0  0  0  0  0  0
    6.6823   -0.0375   -1.1054 C   0  0  0  0  0  0  0  0  0  0  0  0
    6.8943    1.2123   -1.6506 C   0  0  0  0  0  0  0  0  0  0  0  0
    7.0123    2.3518   -0.8672 C   0  0  0  0  0  0  0  0  0  0  0  0
    6.9139    2.2317    0.5110 C   0  0  0  0  0  0  0  0  0  0  0  0
    6.7035    0.9902    1.0462 C   0  0  0  0  0  0  0  0  0  0  0  0
    7.3340    4.2347   -1.7308 I   0  0  0  0  0  0  0  0  0  0  0  0
   -2.0852    1.5615   -0.2725 H   0  0  0  0  0  0  0  0  0  0  0  0
   -3.0590    0.4263   -2.5178 H   0  0  0  0  0  0  0  0  0  0  0  0
   -4.3109    2.0395   -1.3773 H   0  0  0  0  0  0  0  0  0  0  0  0
   -5.2610    0.5283   -1.3289 H   0  0  0  0  0  0  0  0  0  0  0  0
   -6.4425    2.3097   -0.8381 H   0  0  0  0  0  0  0  0  0  0  0  0
   -8.2869    3.4680    0.2898 H   0  0  0  0  0  0  0  0  0  0  0  0
   -6.6123    2.4643    4.1112 H   0  0  0  0  0  0  0  0  0  0  0  0
   -4.7956    1.3229    3.0258 H   0  0  0  0  0  0  0  0  0  0  0  0
   -9.3077    4.2383    2.4018 H   0  0  0  0  0  0  0  0  0  0  0  0
   -3.1654   -1.4223   -0.1032 H   0  0  0  0  0  0  0  0  0  0  0  0
   -4.2600   -1.5738   -1.4749 H   0  0  0  0  0  0  0  0  0  0  0  0
   -2.2083   -2.0100   -2.8663 H   0  0  0  0  0  0  0  0  0  0  0  0
   -1.0858   -2.3362   -0.1482 H   0  0  0  0  0  0  0  0  0  0  0  0
   -0.5609   -0.8927   -1.0545 H   0  0  0  0  0  0  0  0  0  0  0  0
   -0.1016   -3.7954   -1.8899 H   0  0  0  0  0  0  0  0  0  0  0  0
    0.3318   -2.2735   -2.8159 H   0  0  0  0  0  0  0  0  0  0  0  0
    0.9202   -4.1393    0.2452 H   0  0  0  0  0  0  0  0  0  0  0  0
    2.8851   -3.7795    1.6985 H   0  0  0  0  0  0  0  0  0  0  0  0
    3.9249   -0.3847   -0.6442 H   0  0  0  0  0  0  0  0  0  0  0  0
    2.0140   -0.7392   -2.0718 H   0  0  0  0  0  0  0  0  0  0  0  0
    4.4523   -1.9766    2.5501 H   0  0  0  0  0  0  0  0  0  0  0  0
    6.5884   -0.9342   -1.7099 H   0  0  0  0  0  0  0  0  0  0  0  0
    6.9678    1.2810   -2.7429 H   0  0  0  0  0  0  0  0  0  0  0  0
    6.9983    3.0916    1.1792 H   0  0  0  0  0  0  0  0  0  0  0  0
    6.6291    0.9225    2.1272 H   0  0  0  0  0  0  0  0  0  0  0  0
  1  2  1  0
  2  3  1  0
  3  4  1  0
  4  5  1  0
  5  6  2  0
  6  7  1  0
  7  8  2  0
  8  9  1  0
  9 10  2  0
  8 11  1  0
  2 12  1  0
 12 13  1  0
 13 14  1  0
 14 15  1  0
 15 16  1  0
 16 17  2  0
 17 18  1  0
 18 19  2  0
 19 20  1  0
 20 21  2  0
 19 22  1  0
 22 23  1  0
 23 24  2  0
 23 25  2  0
 23 26  1  0
 26 27  2  0
 27 28  1  0
 28 29  2  0
 29 30  1  0
 30 31  2  0
 29 32  1  0
 10  5  1  0
 21 16  1  0
 31 26  1  0
  1 33  1  0
  2 34  1  6
  3 35  1  0
  3 36  1  0
  6 37  1  0
  7 38  1  0
  9 39  1  0
 10 40  1  0
 11 41  1  0
 12 42  1  0
 12 43  1  0
 13 44  1  0
 14 45  1  0
 14 46  1  0
 15 47  1  0
 15 48  1  0
 17 49  1  0
 18 50  1  0
 20 51  1  0
 21 52  1  0
 22 53  1  0
 27 54  1  0
 28 55  1  0
 30 56  1  0
 31 57  1  0
M  END
>  <Ligand ID>  (1) 
LIG0005938

>  <Ligand>  (1) 
L742791

>  <SMILES>  (1) 
O[C@H](COc1ccc(cc1)O)CNCCc1ccc(cc1)NS(=O)(=O)c1ccc(cc1)I

>  <CID>  (1) 
16118894.0

>  <ChEMBL ID>  (1) 
nan

>  <InChiKey>  (1) 
ZNTDIRUBXSTBGJ-NRFANRHFSA-N

>  <InChi>  (1) 
InChI=1S/C23H25IN2O5S/c24-18-3-11-23(12-4-18)32(29,30)26-19-5-1-17(2-6-19)13-14-25-15-21(28)16-31-22-9-7-20(27)8-10-22/h1-12,21,25-28H,13-16H2/t21-/m0/s1

>  <IUPAC Name>  (1) 
N-[4-[2-[[(2S)-2-hydroxy-3-(4-hydroxyphenoxy)propyl]amino]ethyl]phenyl]-4-iodobenzenesulfonamide

$$$$
