
     RDKit          3D

 46 48  0  0  0  0  0  0  0  0999 V2000
   -4.9479   -1.1960   -0.9724 C   0  0  0  0  0  0  0  0  0  0  0  0
   -4.5614   -0.0585   -0.1101 C   0  0  2  0  0  0  0  0  0  0  0  0
   -4.5953    1.2672   -0.9076 C   0  0  0  0  0  0  0  0  0  0  0  0
   -3.9949    2.1861    0.1309 C   0  0  0  0  0  0  0  0  0  0  0  0
   -3.2855    1.2716    1.0989 C   0  0  0  0  0  0  0  0  0  0  0  0
   -3.1809   -0.0149    0.3525 N   0  0  0  0  0  0  0  0  0  0  0  0
   -2.8529   -1.0527    1.3120 C   0  0  0  0  0  0  0  0  0  0  0  0
   -2.4335   -2.2955    0.5896 C   0  0  0  0  0  0  0  0  0  0  0  0
   -1.1940   -1.8701   -0.2382 C   0  0  0  0  0  0  0  0  0  0  0  0
   -0.2230   -1.4196    0.6596 O   0  0  0  0  0  0  0  0  0  0  0  0
    1.0184   -0.9441    0.3591 C   0  0  0  0  0  0  0  0  0  0  0  0
    1.5648   -0.8094   -0.8820 C   0  0  0  0  0  0  0  0  0  0  0  0
    2.8469   -0.3113   -1.0993 C   0  0  0  0  0  0  0  0  0  0  0  0
    3.6130    0.0690   -0.0023 C   0  0  0  0  0  0  0  0  0  0  0  0
    3.0885   -0.0558    1.2584 C   0  0  0  0  0  0  0  0  0  0  0  0
    1.8192   -0.5512    1.4371 C   0  0  0  0  0  0  0  0  0  0  0  0
    4.9575    0.5868   -0.2453 C   0  0  0  0  0  0  0  0  0  0  0  0
    5.7944    0.9903    0.7708 C   0  0  0  0  0  0  0  0  0  0  0  0
    7.0507    1.4690    0.4948 C   0  0  0  0  0  0  0  0  0  0  0  0
    7.4248    1.5245   -0.8313 C   0  0  0  0  0  0  0  0  0  0  0  0
    8.5918    1.9712   -1.0609 O   0  0  0  0  0  0  0  0  0  0  0  0
    6.5942    1.1268   -1.8092 N   0  0  0  0  0  0  0  0  0  0  0  0
    5.3758    0.6644   -1.5079 N   0  0  0  0  0  0  0  0  0  0  0  0
   -4.2123   -1.4525   -1.7351 H   0  0  0  0  0  0  0  0  0  0  0  0
   -5.8788   -0.8490   -1.5330 H   0  0  0  0  0  0  0  0  0  0  0  0
   -5.3380   -2.0162   -0.3488 H   0  0  0  0  0  0  0  0  0  0  0  0
   -5.2926    0.0878    0.7133 H   0  0  0  0  0  0  0  0  0  0  0  0
   -3.9187    1.1469   -1.7625 H   0  0  0  0  0  0  0  0  0  0  0  0
   -5.6365    1.5285   -1.1617 H   0  0  0  0  0  0  0  0  0  0  0  0
   -3.3370    2.9694   -0.2971 H   0  0  0  0  0  0  0  0  0  0  0  0
   -4.8765    2.6542    0.6574 H   0  0  0  0  0  0  0  0  0  0  0  0
   -2.2983    1.6702    1.3325 H   0  0  0  0  0  0  0  0  0  0  0  0
   -3.8886    1.0750    2.0061 H   0  0  0  0  0  0  0  0  0  0  0  0
   -3.7142   -1.2453    1.9868 H   0  0  0  0  0  0  0  0  0  0  0  0
   -1.9691   -0.6758    1.8760 H   0  0  0  0  0  0  0  0  0  0  0  0
   -2.0517   -3.0804    1.2959 H   0  0  0  0  0  0  0  0  0  0  0  0
   -3.1402   -2.7100   -0.1265 H   0  0  0  0  0  0  0  0  0  0  0  0
   -0.8042   -2.7413   -0.8105 H   0  0  0  0  0  0  0  0  0  0  0  0
   -1.4471   -1.0585   -0.9373 H   0  0  0  0  0  0  0  0  0  0  0  0
    0.9721   -1.1027   -1.7298 H   0  0  0  0  0  0  0  0  0  0  0  0
    3.2123   -0.2345   -2.1198 H   0  0  0  0  0  0  0  0  0  0  0  0
    3.6400    0.2256    2.1295 H   0  0  0  0  0  0  0  0  0  0  0  0
    1.4337   -0.6367    2.4530 H   0  0  0  0  0  0  0  0  0  0  0  0
    5.4936    0.9442    1.7967 H   0  0  0  0  0  0  0  0  0  0  0  0
    7.6884    1.7792    1.3144 H   0  0  0  0  0  0  0  0  0  0  0  0
    6.8931    1.1741   -2.7980 H   0  0  0  0  0  0  0  0  0  0  0  0
  1  2  1  0
  2  3  1  0
  3  4  1  0
  4  5  1  0
  5  6  1  0
  6  7  1  0
  7  8  1  0
  8  9  1  0
  9 10  1  0
 10 11  1  0
 11 12  2  0
 12 13  1  0
 13 14  2  0
 14 15  1  0
 15 16  2  0
 14 17  1  0
 17 18  1  0
 18 19  2  0
 19 20  1  0
 20 21  2  0
 20 22  1  0
 22 23  1  0
  6  2  1  0
 16 11  1  0
 23 17  2  0
  1 24  1  0
  1 25  1  0
  1 26  1  0
  2 27  1  1
  3 28  1  0
  3 29  1  0
  4 30  1  0
  4 31  1  0
  5 32  1  0
  5 33  1  0
  7 34  1  0
  7 35  1  0
  8 36  1  0
  8 37  1  0
  9 38  1  0
  9 39  1  0
 12 40  1  0
 13 41  1  0
 15 42  1  0
 16 43  1  0
 18 44  1  0
 19 45  1  0
 22 46  1  0
M  END
>  <Ligand ID>  (1) 
LIG0005251

>  <Ligand>  (1) 
Irdabisant

>  <SMILES>  (1) 
C[C@@H]1CCCN1CCCOc1ccc(cc1)c1ccc(=O)[nH]n1

>  <CID>  (1) 
25070031.0

>  <ChEMBL ID>  (1) 
nan

>  <InChiKey>  (1) 
XUKROCVZGZNGSI-CQSZACIVSA-N

>  <InChi>  (1) 
InChI=1S/C18H23N3O2/c1-14-4-2-11-21(14)12-3-13-23-16-7-5-15(6-8-16)17-9-10-18(22)20-19-17/h5-10,14H,2-4,11-13H2,1H3,(H,20,22)/t14-/m1/s1

>  <IUPAC Name>  (1) 
3-[4-[3-[(2R)-2-methylpyrrolidin-1-yl]propoxy]phenyl]-1H-pyridazin-6-one

$$$$
