
     RDKit          3D

 16 16  0  0  0  0  0  0  0  0999 V2000
   -2.8481    0.2749    0.0306 C   0  0  0  0  0  0  0  0  0  0  0  0
   -1.3582    0.1355    0.0081 C   0  0  0  0  0  0  0  0  0  0  0  0
   -0.5764    1.1981   -0.2731 N   0  0  0  0  0  0  0  0  0  0  0  0
    0.7731    1.0809   -0.2956 C   0  0  0  0  0  0  0  0  0  0  0  0
    1.3771   -0.1367   -0.0293 C   0  0  0  0  0  0  0  0  0  0  0  0
    0.5742   -1.1837    0.2490 N   0  0  0  0  0  0  0  0  0  0  0  0
   -0.7723   -1.0876    0.2764 C   0  0  0  0  0  0  0  0  0  0  0  0
    2.8759   -0.2892   -0.0490 C   0  0  0  0  0  0  0  0  0  0  0  0
   -3.2994    0.2067   -0.9706 H   0  0  0  0  0  0  0  0  0  0  0  0
   -3.3265   -0.4849    0.6683 H   0  0  0  0  0  0  0  0  0  0  0  0
   -3.1541    1.2562    0.4530 H   0  0  0  0  0  0  0  0  0  0  0  0
    1.3666    1.9505   -0.5240 H   0  0  0  0  0  0  0  0  0  0  0  0
   -1.4065   -1.9386    0.5019 H   0  0  0  0  0  0  0  0  0  0  0  0
    3.2509   -0.4742    0.9954 H   0  0  0  0  0  0  0  0  0  0  0  0
    3.3145    0.6438   -0.3998 H   0  0  0  0  0  0  0  0  0  0  0  0
    3.2092   -1.1516   -0.6415 H   0  0  0  0  0  0  0  0  0  0  0  0
  1  2  1  0
  2  3  2  0
  3  4  1  0
  4  5  2  0
  5  6  1  0
  6  7  2  0
  5  8  1  0
  7  2  1  0
  1  9  1  0
  1 10  1  0
  1 11  1  0
  4 12  1  0
  7 13  1  0
  8 14  1  0
  8 15  1  0
  8 16  1  0
M  END
>  <Ligand ID>  (1) 
LIG0000256

>  <Ligand>  (1) 
2,5-Dimethylpyrazine

>  <SMILES>  (1) 
Cc1ncc(nc1)C

>  <CID>  (1) 
31252.0

>  <ChEMBL ID>  (1) 
nan

>  <InChiKey>  (1) 
LCZUOKDVTBMCMX-UHFFFAOYSA-N

>  <InChi>  (1) 
InChI=1S/C6H8N2/c1-5-3-8-6(2)4-7-5/h3-4H,1-2H3

>  <IUPAC Name>  (1) 
2,5-dimethylpyrazine

$$$$
