
     RDKit          3D

 50 53  0  0  0  0  0  0  0  0999 V2000
   -5.5007    0.2485    0.6612 C   0  0  0  0  0  0  0  0  0  0  0  0
   -5.2810   -0.8985   -0.2743 C   0  0  0  0  0  0  0  0  0  0  0  0
   -4.3869   -0.5511   -1.4447 C   0  0  0  0  0  0  0  0  0  0  0  0
   -3.0723   -0.1248   -1.0043 N   0  0  0  0  0  0  0  0  0  0  0  0
   -1.9228   -0.9062   -1.3017 C   0  0  0  0  0  0  0  0  0  0  0  0
   -1.9696   -1.9877   -1.9478 O   0  0  0  0  0  0  0  0  0  0  0  0
   -0.6032   -0.4723   -0.8561 C   0  0  0  0  0  0  0  0  0  0  0  0
    0.5805   -1.1434   -1.0832 C   0  0  0  0  0  0  0  0  0  0  0  0
    0.7646   -2.3804   -1.7883 N   0  0  0  0  0  0  0  0  0  0  0  0
    1.6066   -0.4404   -0.5205 N   0  0  0  0  0  0  0  0  0  0  0  0
    1.1182    0.6711    0.0667 C   0  0  0  0  0  0  0  0  0  0  0  0
   -0.2527    0.6535   -0.1402 C   0  0  0  0  0  0  0  0  0  0  0  0
   -0.9853    1.6681    0.3547 N   0  0  0  0  0  0  0  0  0  0  0  0
   -0.4575    2.6991    1.0400 C   0  0  0  0  0  0  0  0  0  0  0  0
   -1.2745    3.7100    1.5206 C   0  0  0  0  0  0  0  0  0  0  0  0
   -0.6679    4.7286    2.2098 C   0  0  0  0  0  0  0  0  0  0  0  0
    0.6949    4.7919    2.4425 C   0  0  0  0  0  0  0  0  0  0  0  0
    1.4787    3.7676    1.9492 C   0  0  0  0  0  0  0  0  0  0  0  0
    0.9143    2.7183    1.2479 C   0  0  0  0  0  0  0  0  0  0  0  0
    1.6726    1.6976    0.7531 N   0  0  0  0  0  0  0  0  0  0  0  0
    2.9507   -0.8379   -0.5629 N   0  0  0  0  0  0  0  0  0  0  0  0
    3.3640   -1.9510   -0.0738 C   0  0  0  0  0  0  0  0  0  0  0  0
    4.7569   -2.3553   -0.1216 C   0  0  0  0  0  0  0  0  0  0  0  0
    5.7071   -1.5436   -0.7053 C   0  0  0  0  0  0  0  0  0  0  0  0
    7.0205   -1.9933   -0.7157 C   0  0  0  0  0  0  0  0  0  0  0  0
    7.3897   -3.2087   -0.1667 C   0  0  0  0  0  0  0  0  0  0  0  0
    6.4284   -3.9701    0.3935 N   0  0  0  0  0  0  0  0  0  0  0  0
    5.1500   -3.5503    0.4127 C   0  0  0  0  0  0  0  0  0  0  0  0
   -5.0226    0.4165   -2.3971 C   0  0  0  0  0  0  0  0  0  0  0  0
   -4.7367    1.0354    0.6106 H   0  0  0  0  0  0  0  0  0  0  0  0
   -6.5246    0.6883    0.5310 H   0  0  0  0  0  0  0  0  0  0  0  0
   -5.4503   -0.1598    1.6997 H   0  0  0  0  0  0  0  0  0  0  0  0
   -4.8487   -1.8043    0.1950 H   0  0  0  0  0  0  0  0  0  0  0  0
   -6.2680   -1.1812   -0.7029 H   0  0  0  0  0  0  0  0  0  0  0  0
   -4.2198   -1.5135   -1.9897 H   0  0  0  0  0  0  0  0  0  0  0  0
   -3.0273    0.7666   -0.4708 H   0  0  0  0  0  0  0  0  0  0  0  0
    0.8492   -3.2982   -1.3092 H   0  0  0  0  0  0  0  0  0  0  0  0
    0.8066   -2.2739   -2.8433 H   0  0  0  0  0  0  0  0  0  0  0  0
   -2.3444    3.6891    1.3550 H   0  0  0  0  0  0  0  0  0  0  0  0
   -1.2909    5.5156    2.5859 H   0  0  0  0  0  0  0  0  0  0  0  0
    1.1038    5.6201    2.9908 H   0  0  0  0  0  0  0  0  0  0  0  0
    2.5630    3.7814    2.1128 H   0  0  0  0  0  0  0  0  0  0  0  0
    2.6264   -2.5892    0.3834 H   0  0  0  0  0  0  0  0  0  0  0  0
    5.4500   -0.5806   -1.1467 H   0  0  0  0  0  0  0  0  0  0  0  0
    7.8279   -1.4115   -1.1570 H   0  0  0  0  0  0  0  0  0  0  0  0
    8.3882   -3.5806   -0.1594 H   0  0  0  0  0  0  0  0  0  0  0  0
    4.4091   -4.1810    0.8668 H   0  0  0  0  0  0  0  0  0  0  0  0
   -4.4960    1.3909   -2.2767 H   0  0  0  0  0  0  0  0  0  0  0  0
   -4.9063    0.0882   -3.4475 H   0  0  0  0  0  0  0  0  0  0  0  0
   -6.1120    0.5425   -2.2161 H   0  0  0  0  0  0  0  0  0  0  0  0
  1  2  1  0
  2  3  1  0
  3  4  1  0
  4  5  1  0
  5  6  2  0
  5  7  1  0
  7  8  2  0
  8  9  1  0
  8 10  1  0
 10 11  1  0
 11 12  2  0
 12 13  1  0
 13 14  2  0
 14 15  1  0
 15 16  2  0
 16 17  1  0
 17 18  2  0
 18 19  1  0
 19 20  2  0
 10 21  1  0
 21 22  2  0
 22 23  1  0
 23 24  2  0
 24 25  1  0
 25 26  2  0
 26 27  1  0
 27 28  2  0
  3 29  1  0
 12  7  1  0
 19 14  1  0
 28 23  1  0
 20 11  1  0
  1 30  1  0
  1 31  1  0
  1 32  1  0
  2 33  1  0
  2 34  1  0
  3 35  1  0
  4 36  1  0
  9 37  1  0
  9 38  1  0
 15 39  1  0
 16 40  1  0
 17 41  1  0
 18 42  1  0
 22 43  1  0
 24 44  1  0
 25 45  1  0
 26 46  1  0
 28 47  1  0
 29 48  1  0
 29 49  1  0
 29 50  1  0
M  END
>  <Ligand ID>  (1) 
LIG0004052

>  <Ligand>  (1) 
MLS000040301

>  <SMILES>  (1) 
CCC(NC(=O)c1c(N)n(c2c1nc1ccccc1n2)/N=C/c1cccnc1)C

>  <CID>  (1) 
9568667.0

>  <ChEMBL ID>  (1) 
nan

>  <InChiKey>  (1) 
QIRNGGUFFRZXIW-WYMPLXKRSA-N

>  <InChi>  (1) 
InChI=1S/C21H21N7O/c1-3-13(2)25-21(29)17-18-20(27-16-9-5-4-8-15(16)26-18)28(19(17)22)24-12-14-7-6-10-23-11-14/h4-13H,3,22H2,1-2H3,(H,25,29)/b24-12+

>  <IUPAC Name>  (1) 
2-amino-N-butan-2-yl-1-[(E)-pyridin-3-ylmethylideneamino]pyrrolo[3,2-b]quinoxaline-3-carboxamide

$$$$
