
     RDKit          3D

 47 51  0  0  0  0  0  0  0  0999 V2000
    0.7335    1.6760    0.4420 O   0  0  0  0  0  0  0  0  0  0  0  0
    0.2134    0.5578    0.0679 C   0  0  0  0  0  0  0  0  0  0  0  0
   -1.2319    0.3972   -0.0272 C   0  0  0  0  0  0  0  0  0  0  0  0
   -1.6373   -0.7468    0.9014 C   0  0  0  0  0  0  0  0  0  0  0  0
   -3.1286   -0.9056    0.9746 C   0  0  0  0  0  0  0  0  0  0  0  0
   -3.7131   -1.0902   -0.4002 C   0  0  0  0  0  0  0  0  0  0  0  0
   -3.3617    0.1425   -1.1739 C   0  0  0  0  0  0  0  0  0  0  0  0
   -1.8634    0.3259   -1.3495 C   0  0  0  0  0  0  0  0  0  0  0  0
   -3.9153    1.4046   -0.6103 C   0  0  0  0  0  0  0  0  0  0  0  0
   -3.3215    1.5598    0.7878 C   0  0  0  0  0  0  0  0  0  0  0  0
   -1.8376    1.6308    0.6735 C   0  0  0  0  0  0  0  0  0  0  0  0
   -3.7592    0.3562    1.5567 C   0  0  0  0  0  0  0  0  0  0  0  0
    1.1497   -0.4692   -0.2323 N   0  0  0  0  0  0  0  0  0  0  0  0
    0.9705   -1.8216   -0.6612 C   0  0  0  0  0  0  0  0  0  0  0  0
    2.1789   -2.0996   -1.5325 C   0  0  0  0  0  0  0  0  0  0  0  0
    3.1981   -1.2734   -0.9046 C   0  0  0  0  0  0  0  0  0  0  0  0
    2.5879   -0.3031   -0.1382 C   0  0  0  0  0  0  0  0  0  0  0  0
    3.3957    0.5888    0.5384 C   0  0  0  0  0  0  0  0  0  0  0  0
    4.7713    0.5434    0.4755 C   0  0  0  0  0  0  0  0  0  0  0  0
    5.3869   -0.4350   -0.2971 C   0  0  0  0  0  0  0  0  0  0  0  0
    4.5871   -1.3305   -0.9768 C   0  0  0  0  0  0  0  0  0  0  0  0
    5.5804    1.5517    1.2426 C   0  0  0  0  0  0  0  0  0  0  0  0
    6.8935    1.0878    1.2504 F   0  0  0  0  0  0  0  0  0  0  0  0
    5.1285    1.7327    2.5183 F   0  0  0  0  0  0  0  0  0  0  0  0
    5.5231    2.7334    0.5039 F   0  0  0  0  0  0  0  0  0  0  0  0
   -1.1800   -1.7009    0.6616 H   0  0  0  0  0  0  0  0  0  0  0  0
   -1.3208   -0.4100    1.9326 H   0  0  0  0  0  0  0  0  0  0  0  0
   -3.3541   -1.7595    1.6114 H   0  0  0  0  0  0  0  0  0  0  0  0
   -3.2965   -1.9479   -0.9532 H   0  0  0  0  0  0  0  0  0  0  0  0
   -4.7992   -1.1318   -0.3120 H   0  0  0  0  0  0  0  0  0  0  0  0
   -3.7457   -0.0241   -2.2232 H   0  0  0  0  0  0  0  0  0  0  0  0
   -1.5501   -0.5098   -1.9654 H   0  0  0  0  0  0  0  0  0  0  0  0
   -1.7920    1.3176   -1.8389 H   0  0  0  0  0  0  0  0  0  0  0  0
   -3.5755    2.2283   -1.2863 H   0  0  0  0  0  0  0  0  0  0  0  0
   -5.0026    1.4568   -0.5169 H   0  0  0  0  0  0  0  0  0  0  0  0
   -3.6619    2.4670    1.2827 H   0  0  0  0  0  0  0  0  0  0  0  0
   -1.4315    1.5624    1.7254 H   0  0  0  0  0  0  0  0  0  0  0  0
   -1.4558    2.5614    0.2635 H   0  0  0  0  0  0  0  0  0  0  0  0
   -4.8687    0.2599    1.3854 H   0  0  0  0  0  0  0  0  0  0  0  0
   -3.6008    0.4266    2.6358 H   0  0  0  0  0  0  0  0  0  0  0  0
    1.0649   -2.4820    0.2265 H   0  0  0  0  0  0  0  0  0  0  0  0
    0.1284   -2.0522   -1.3007 H   0  0  0  0  0  0  0  0  0  0  0  0
    2.0082   -1.6717   -2.5632 H   0  0  0  0  0  0  0  0  0  0  0  0
    2.4348   -3.1752   -1.5971 H   0  0  0  0  0  0  0  0  0  0  0  0
    2.9560    1.3622    1.1481 H   0  0  0  0  0  0  0  0  0  0  0  0
    6.4667   -0.4809   -0.3543 H   0  0  0  0  0  0  0  0  0  0  0  0
    5.0472   -2.1095   -1.5913 H   0  0  0  0  0  0  0  0  0  0  0  0
  1  2  2  0
  2  3  1  0
  3  4  1  0
  4  5  1  0
  5  6  1  0
  6  7  1  0
  7  8  1  0
  7  9  1  0
  9 10  1  0
 10 11  1  0
 10 12  1  0
  2 13  1  0
 13 14  1  0
 14 15  1  0
 15 16  1  0
 16 17  2  0
 17 18  1  0
 18 19  2  0
 19 20  1  0
 20 21  2  0
 19 22  1  0
 22 23  1  0
 22 24  1  0
 22 25  1  0
 11  3  1  0
 17 13  1  0
  8  3  1  0
 21 16  1  0
 12  5  1  0
  4 26  1  0
  4 27  1  0
  5 28  1  0
  6 29  1  0
  6 30  1  0
  7 31  1  0
  8 32  1  0
  8 33  1  0
  9 34  1  0
  9 35  1  0
 10 36  1  0
 11 37  1  0
 11 38  1  0
 12 39  1  0
 12 40  1  0
 14 41  1  0
 14 42  1  0
 15 43  1  0
 15 44  1  0
 18 45  1  0
 20 46  1  0
 21 47  1  0
M  END
>  <Ligand ID>  (1) 
LIG0001376

>  <Ligand>  (1) 
CHEMBL2338184

>  <SMILES>  (1) 
O=C(C12CC3CC(C2)CC(C1)C3)N1CCc2c1cc(cc2)C(F)(F)F

>  <CID>  (1) 
71559637.0

>  <ChEMBL ID>  (1) 
nan

>  <InChiKey>  (1) 
UZCKQJYJNVYGCR-UHFFFAOYSA-N

>  <InChi>  (1) 
InChI=1S/C20H22F3NO/c21-20(22,23)16-2-1-15-3-4-24(17(15)8-16)18(25)19-9-12-5-13(10-19)7-14(6-12)11-19/h1-2,8,12-14H,3-7,9-11H2

>  <IUPAC Name>  (1) 
1-adamantyl-[6-(trifluoromethyl)-2,3-dihydroindol-1-yl]methanone

$$$$
