
     RDKit          3D

 48 51  0  0  0  0  0  0  0  0999 V2000
   -6.4245   -0.1966   -2.4834 C   0  0  0  0  0  0  0  0  0  0  0  0
   -5.8136   -0.3917   -1.1295 C   0  0  0  0  0  0  0  0  0  0  0  0
   -5.4066    0.8391   -0.4898 N   0  0  0  0  0  0  0  0  0  0  0  0
   -4.3083    1.4795   -1.1335 C   0  0  0  0  0  0  0  0  0  0  0  0
   -3.0833    1.6452   -0.2228 C   0  0  0  0  0  0  0  0  0  0  0  0
   -2.7499    0.4231    0.4446 N   0  0  0  0  0  0  0  0  0  0  0  0
   -3.8608   -0.3562    0.9863 C   0  0  0  0  0  0  0  0  0  0  0  0
   -5.0970    0.4763    0.8984 C   0  0  0  0  0  0  0  0  0  0  0  0
   -1.4236   -0.0754    0.6189 C   0  0  0  0  0  0  0  0  0  0  0  0
   -1.2863   -1.3458    1.1177 C   0  0  0  0  0  0  0  0  0  0  0  0
   -0.0231   -1.8363    1.2911 C   0  0  0  0  0  0  0  0  0  0  0  0
    1.1336   -1.0960    0.9813 C   0  0  0  0  0  0  0  0  0  0  0  0
    1.0121    0.1744    0.4809 C   0  0  0  0  0  0  0  0  0  0  0  0
   -0.3179    0.6405    0.3189 C   0  0  0  0  0  0  0  0  0  0  0  0
    2.2527    1.2613   -0.0270 S   0  0  0  0  0  0  0  0  0  0  0  0
    3.9222    0.9541    0.0785 C   0  0  0  0  0  0  0  0  0  0  0  0
    4.7806    1.3745    1.0585 N   0  0  0  0  0  0  0  0  0  0  0  0
    6.0219    0.9705    0.7508 C   0  0  0  0  0  0  0  0  0  0  0  0
    5.9737    0.2832   -0.4348 C   0  0  0  0  0  0  0  0  0  0  0  0
    4.6924    0.2790   -0.8352 N   0  0  0  0  0  0  0  0  0  0  0  0
    7.0925   -0.2732   -1.0379 C   0  0  0  0  0  0  0  0  0  0  0  0
    8.3134   -0.1264   -0.4134 C   0  0  0  0  0  0  0  0  0  0  0  0
    8.4024    0.5629    0.7881 C   0  0  0  0  0  0  0  0  0  0  0  0
    7.2537    1.1030    1.3554 C   0  0  0  0  0  0  0  0  0  0  0  0
    2.3486   -1.7738    1.2093 N   0  0  0  0  0  0  0  0  0  0  0  0
    2.3231   -3.0402    1.0379 O   0  0  0  0  0  0  0  0  0  0  0  0
    3.5403   -1.2701    1.5630 O   0  0  0  0  0  0  0  0  0  0  0  0
   -7.1637   -1.0091   -2.6400 H   0  0  0  0  0  0  0  0  0  0  0  0
   -6.9405    0.7676   -2.6281 H   0  0  0  0  0  0  0  0  0  0  0  0
   -5.6498   -0.3827   -3.2838 H   0  0  0  0  0  0  0  0  0  0  0  0
   -5.0353   -1.1495   -1.2207 H   0  0  0  0  0  0  0  0  0  0  0  0
   -6.6075   -0.8185   -0.4583 H   0  0  0  0  0  0  0  0  0  0  0  0
   -4.5915    2.5093   -1.4454 H   0  0  0  0  0  0  0  0  0  0  0  0
   -3.9495    0.9526   -2.0399 H   0  0  0  0  0  0  0  0  0  0  0  0
   -2.2508    1.9591   -0.8504 H   0  0  0  0  0  0  0  0  0  0  0  0
   -3.3181    2.4037    0.5424 H   0  0  0  0  0  0  0  0  0  0  0  0
   -3.6675   -0.5263    2.0693 H   0  0  0  0  0  0  0  0  0  0  0  0
   -3.8860   -1.3046    0.4526 H   0  0  0  0  0  0  0  0  0  0  0  0
   -4.9394    1.3840    1.5172 H   0  0  0  0  0  0  0  0  0  0  0  0
   -5.9575   -0.1074    1.2599 H   0  0  0  0  0  0  0  0  0  0  0  0
   -2.1461   -1.9541    1.3712 H   0  0  0  0  0  0  0  0  0  0  0  0
    0.0587   -2.8460    1.6877 H   0  0  0  0  0  0  0  0  0  0  0  0
   -0.4654    1.6535   -0.0725 H   0  0  0  0  0  0  0  0  0  0  0  0
    4.3448   -0.1784   -1.7213 H   0  0  0  0  0  0  0  0  0  0  0  0
    7.0048   -0.8122   -1.9807 H   0  0  0  0  0  0  0  0  0  0  0  0
    9.1641   -0.5660   -0.9028 H   0  0  0  0  0  0  0  0  0  0  0  0
    9.3739    0.6681    1.2635 H   0  0  0  0  0  0  0  0  0  0  0  0
    7.3541    1.6440    2.3077 H   0  0  0  0  0  0  0  0  0  0  0  0
  1  2  1  0
  2  3  1  0
  3  4  1  0
  4  5  1  0
  5  6  1  0
  6  7  1  0
  7  8  1  0
  6  9  1  0
  9 10  2  0
 10 11  1  0
 11 12  2  0
 12 13  1  0
 13 14  2  0
 13 15  1  0
 15 16  1  0
 16 17  2  0
 17 18  1  0
 18 19  2  0
 19 20  1  0
 19 21  1  0
 21 22  2  0
 22 23  1  0
 23 24  2  0
 12 25  1  0
 25 26  2  0
 25 27  1  0
  8  3  1  0
 14  9  1  0
 20 16  1  0
 24 18  1  0
  1 28  1  0
  1 29  1  0
  1 30  1  0
  2 31  1  0
  2 32  1  0
  4 33  1  0
  4 34  1  0
  5 35  1  0
  5 36  1  0
  7 37  1  0
  7 38  1  0
  8 39  1  0
  8 40  1  0
 10 41  1  0
 11 42  1  0
 14 43  1  0
 20 44  1  0
 21 45  1  0
 22 46  1  0
 23 47  1  0
 24 48  1  0
M  CHG  2  25   1  27  -1
M  END
>  <Ligand ID>  (1) 
LIG0004405

>  <Ligand>  (1) 
MLS000579941

>  <SMILES>  (1) 
CCN1CCN(CC1)c1ccc(c(c1)Sc1nc2c([nH]1)cccc2)[N+](=O)[O-]

>  <CID>  (1) 
2947809.0

>  <ChEMBL ID>  (1) 
nan

>  <InChiKey>  (1) 
IUEQXWALPVLROR-UHFFFAOYSA-N

>  <InChi>  (1) 
InChI=1S/C19H21N5O2S/c1-2-22-9-11-23(12-10-22)14-7-8-17(24(25)26)18(13-14)27-19-20-15-5-3-4-6-16(15)21-19/h3-8,13H,2,9-12H2,1H3,(H,20,21)

>  <IUPAC Name>  (1) 
2-[5-(4-ethylpiperazin-1-yl)-2-nitrophenyl]sulfanyl-1H-benzimidazole

$$$$
