
     RDKit          3D

 76 78  0  0  0  0  0  0  0  0999 V2000
   -8.9350    3.4555   -0.6299 O   0  0  0  0  0  0  0  0  0  0  0  0
   -7.7133    2.8545   -0.9841 C   0  0  0  0  0  0  0  0  0  0  0  0
   -7.8422    1.3439   -0.9945 C   0  0  1  0  0  0  0  0  0  0  0  0
   -6.6523    0.7485   -1.3390 O   0  0  0  0  0  0  0  0  0  0  0  0
   -5.7593    0.7145   -0.2774 C   0  0  2  0  0  0  0  0  0  0  0  0
   -4.4876    0.3570   -0.6816 O   0  0  0  0  0  0  0  0  0  0  0  0
   -3.3996    1.5505   -0.1446 P   0  0  0  0  0  0  0  0  0  0  0  0
   -4.1225    2.8179    0.2364 O   0  0  0  0  0  0  0  0  0  0  0  0
   -2.5002    0.9986    1.1718 O   0  0  0  0  0  0  0  0  0  0  0  0
   -1.5390   -0.2850    0.6677 P   0  0  0  0  0  0  0  0  0  0  0  0
   -2.0987   -0.8491   -0.5961 O   0  0  0  0  0  0  0  0  0  0  0  0
    0.0731    0.2322    0.4224 O   0  0  0  0  0  0  0  0  0  0  0  0
    1.0597   -1.1205    0.5943 P   0  0  0  0  0  0  0  0  0  0  0  0
    0.4504   -2.2968   -0.1727 O   0  0  0  0  0  0  0  0  0  0  0  0
    2.6056   -0.9099   -0.0045 O   0  0  0  0  0  0  0  0  0  0  0  0
    2.8108    0.4914   -0.8921 P   0  0  0  0  0  0  0  0  0  0  0  0
    2.9787    0.0978   -2.3387 O   0  0  0  0  0  0  0  0  0  0  0  0
    4.1232    1.3973   -0.3304 O   0  0  0  0  0  0  0  0  0  0  0  0
    5.1346    0.6001    0.1518 C   0  0  0  0  0  0  0  0  0  0  0  0
    6.2740    1.4693    0.6365 C   0  0  1  0  0  0  0  0  0  0  0  0
    7.3122    0.6977    1.1300 O   0  0  0  0  0  0  0  0  0  0  0  0
    8.2197    0.4613    0.1097 C   0  0  2  0  0  0  0  0  0  0  0  0
    7.7139    1.1032   -1.1297 C   0  0  1  0  0  0  0  0  0  0  0  0
    6.8792    2.2397   -0.5205 C   0  0  2  0  0  0  0  0  0  0  0  0
    7.6679    3.2347    0.0110 O   0  0  0  0  0  0  0  0  0  0  0  0
    8.7317    1.7068   -1.8816 O   0  0  0  0  0  0  0  0  0  0  0  0
    8.5731   -0.9129    0.0253 N   0  0  0  0  0  0  0  0  0  0  0  0
    8.0611   -1.8010   -0.8381 C   0  0  0  0  0  0  0  0  0  0  0  0
    8.4393   -3.1308   -0.8803 C   0  0  0  0  0  0  0  0  0  0  0  0
    9.4021   -3.5912    0.0138 C   0  0  0  0  0  0  0  0  0  0  0  0
    9.7826   -4.7898    0.0191 O   0  0  0  0  0  0  0  0  0  0  0  0
    9.9069   -2.6755    0.8788 N   0  0  0  0  0  0  0  0  0  0  0  0
    9.5140   -1.3929    0.8887 C   0  0  0  0  0  0  0  0  0  0  0  0
   10.0448   -0.6016    1.7395 O   0  0  0  0  0  0  0  0  0  0  0  0
    1.4273    1.4505   -0.7574 O   0  0  0  0  0  0  0  0  0  0  0  0
    1.1843   -1.6167    2.2097 O   0  0  0  0  0  0  0  0  0  0  0  0
   -1.5521   -1.4553    1.9147 O   0  0  0  0  0  0  0  0  0  0  0  0
   -2.3183    1.8382   -1.4191 O   0  0  0  0  0  0  0  0  0  0  0  0
   -6.3235   -0.2920    0.7332 C   0  0  1  0  0  0  0  0  0  0  0  0
   -7.5721    0.3254    1.3001 C   0  0  2  0  0  0  0  0  0  0  0  0
   -8.4967    0.8156    0.2372 C   0  0  2  0  0  0  0  0  0  0  0  0
   -9.3220   -0.2730   -0.1150 O   0  0  0  0  0  0  0  0  0  0  0  0
   -7.1689    1.3335    2.1817 O   0  0  0  0  0  0  0  0  0  0  0  0
   -6.6881   -1.5057    0.0311 N   0  0  0  0  0  0  0  0  0  0  0  0
   -6.0937   -2.7132    0.4599 C   0  0  0  0  0  0  0  0  0  0  0  0
   -5.2796   -2.7091    1.4197 O   0  0  0  0  0  0  0  0  0  0  0  0
   -6.4324   -3.9751   -0.2226 C   0  0  0  0  0  0  0  0  0  0  0  0
   -9.5983    3.1785   -1.3289 H   0  0  0  0  0  0  0  0  0  0  0  0
   -6.9426    3.1903   -0.2811 H   0  0  0  0  0  0  0  0  0  0  0  0
   -7.4830    3.2531   -1.9928 H   0  0  0  0  0  0  0  0  0  0  0  0
   -8.5451    1.1290   -1.8527 H   0  0  0  0  0  0  0  0  0  0  0  0
   -5.6941    1.6785    0.2803 H   0  0  0  0  0  0  0  0  0  0  0  0
    5.4741   -0.1504   -0.5806 H   0  0  0  0  0  0  0  0  0  0  0  0
    4.7993    0.0308    1.0569 H   0  0  0  0  0  0  0  0  0  0  0  0
    5.8612    2.1450    1.4053 H   0  0  0  0  0  0  0  0  0  0  0  0
    9.1513    1.0284    0.4038 H   0  0  0  0  0  0  0  0  0  0  0  0
    7.0120    0.5303   -1.7352 H   0  0  0  0  0  0  0  0  0  0  0  0
    6.1213    2.6033   -1.2424 H   0  0  0  0  0  0  0  0  0  0  0  0
    7.7357    3.2271    0.9981 H   0  0  0  0  0  0  0  0  0  0  0  0
    8.4496    1.7985   -2.8226 H   0  0  0  0  0  0  0  0  0  0  0  0
    7.3256   -1.4749   -1.5299 H   0  0  0  0  0  0  0  0  0  0  0  0
    8.0388   -3.8503   -1.5643 H   0  0  0  0  0  0  0  0  0  0  0  0
   10.6392   -2.9837    1.5732 H   0  0  0  0  0  0  0  0  0  0  0  0
    1.6132    2.3886   -1.0795 H   0  0  0  0  0  0  0  0  0  0  0  0
    1.2247   -0.8196    2.7769 H   0  0  0  0  0  0  0  0  0  0  0  0
   -1.7378   -1.0073    2.7612 H   0  0  0  0  0  0  0  0  0  0  0  0
   -2.2731    1.0368   -2.0120 H   0  0  0  0  0  0  0  0  0  0  0  0
   -5.5971   -0.4842    1.5454 H   0  0  0  0  0  0  0  0  0  0  0  0
   -8.1047   -0.4487    1.9062 H   0  0  0  0  0  0  0  0  0  0  0  0
   -9.1526    1.6316    0.6391 H   0  0  0  0  0  0  0  0  0  0  0  0
   -9.5999   -0.2397   -1.0577 H   0  0  0  0  0  0  0  0  0  0  0  0
   -7.8975    1.5297    2.8348 H   0  0  0  0  0  0  0  0  0  0  0  0
   -7.3689   -1.4190   -0.7512 H   0  0  0  0  0  0  0  0  0  0  0  0
   -7.4857   -4.2612   -0.0760 H   0  0  0  0  0  0  0  0  0  0  0  0
   -6.2687   -3.8684   -1.3239 H   0  0  0  0  0  0  0  0  0  0  0  0
   -5.7699   -4.8105    0.1362 H   0  0  0  0  0  0  0  0  0  0  0  0
  1  2  1  0
  2  3  1  0
  3  4  1  0
  4  5  1  0
  5  6  1  0
  6  7  1  0
  7  8  2  0
  7  9  1  0
  9 10  1  0
 10 11  2  0
 10 12  1  0
 12 13  1  0
 13 14  2  0
 13 15  1  0
 15 16  1  0
 16 17  2  0
 16 18  1  0
 18 19  1  0
 19 20  1  0
 20 21  1  0
 21 22  1  0
 22 23  1  0
 23 24  1  0
 24 25  1  0
 23 26  1  0
 22 27  1  0
 27 28  1  0
 28 29  2  0
 29 30  1  0
 30 31  2  0
 30 32  1  0
 32 33  1  0
 33 34  2  0
 16 35  1  0
 13 36  1  0
 10 37  1  0
  7 38  1  0
  5 39  1  0
 39 40  1  0
 40 41  1  0
 41 42  1  0
 40 43  1  0
 39 44  1  0
 44 45  1  0
 45 46  2  0
 45 47  1  0
 41  3  1  0
 24 20  1  0
 33 27  1  0
  1 48  1  0
  2 49  1  0
  2 50  1  0
  3 51  1  6
  5 52  1  1
 19 53  1  0
 19 54  1  0
 20 55  1  1
 22 56  1  1
 23 57  1  6
 24 58  1  6
 25 59  1  0
 26 60  1  0
 28 61  1  0
 29 62  1  0
 32 63  1  0
 35 64  1  0
 36 65  1  0
 37 66  1  0
 38 67  1  0
 39 68  1  1
 40 69  1  1
 41 70  1  1
 42 71  1  0
 43 72  1  0
 44 73  1  0
 47 74  1  0
 47 75  1  0
 47 76  1  0
M  END
>  <Ligand ID>  (1) 
LIG0003314

>  <Ligand>  (1) 
CHEMBL1784889

>  <SMILES>  (1) 
OC[C@H]1O[C@H](OP(=O)(OP(=O)(OP(=O)(OP(=O)(OC[C@H]2O[C@H]([C@@H]([C@@H]2O)O)n2ccc(=O)[nH]c2=O)O)O)O)O)[C@@H]([C@H]([C@@H]1O)O)NC(=O)C

>  <CID>  (1) 
53309380.0

>  <ChEMBL ID>  (1) 
nan

>  <InChiKey>  (1) 
SMSKYAZAKPGTPK-CFRASDGPSA-N

>  <InChi>  (1) 
InChI=1S/C17H29N3O23P4/c1-6(22)18-10-13(26)11(24)7(4-21)39-16(10)40-45(31,32)42-47(35,36)43-46(33,34)41-44(29,30)37-5-8-12(25)14(27)15(38-8)20-3-2-9(23)19-17(20)28/h2-3,7-8,10-16,21,24-27H,4-5H2,1H3,(H,18,22)(H,29,30)(H,31,32)(H,33,34)(H,35,36)(H,19,23,28)/t7-,8-,10-,11-,12-,13-,14-,15-,16-/m1/s1

>  <IUPAC Name>  (1) 
[(2R,3R,4R,5S,6R)-3-acetamido-4,5-dihydroxy-6-(hydroxymethyl)oxan-2-yl] [[[[(2R,3S,4R,5R)-5-(2,4-dioxopyrimidin-1-yl)-3,4-dihydroxyoxolan-2-yl]methoxy-hydroxyphosphoryl]oxy-hydroxyphosphoryl]oxy-hydroxyphosphoryl] hydrogen phosphate

$$$$
