
     RDKit          3D

 49 52  0  0  0  0  0  0  0  0999 V2000
    4.9110    0.8210    2.5421 C   0  0  0  0  0  0  0  0  0  0  0  0
    3.7376    0.6598    1.7672 O   0  0  0  0  0  0  0  0  0  0  0  0
    3.8323    0.8473    0.4055 C   0  0  0  0  0  0  0  0  0  0  0  0
    4.9732    1.1782   -0.2644 C   0  0  0  0  0  0  0  0  0  0  0  0
    5.0031    1.3543   -1.6507 C   0  0  0  0  0  0  0  0  0  0  0  0
    3.8393    1.1908   -2.3913 C   0  0  0  0  0  0  0  0  0  0  0  0
    2.6716    0.8540   -1.7207 C   0  0  0  0  0  0  0  0  0  0  0  0
    2.6695    0.6840   -0.3338 C   0  0  0  0  0  0  0  0  0  0  0  0
    1.3790    0.3182    0.3540 C   0  0  0  0  0  0  0  0  0  0  0  0
    1.3247   -1.0411    0.7288 N   0  0  0  0  0  0  0  0  0  0  0  0
    0.0660   -1.5054    1.2898 C   0  0  2  0  0  0  0  0  0  0  0  0
   -0.8639   -2.0891    0.2958 C   0  0  0  0  0  0  0  0  0  0  0  0
   -1.3166   -1.2937   -0.7944 N   0  0  0  0  0  0  0  0  0  0  0  0
   -0.5967   -1.1786   -1.9593 C   0  0  0  0  0  0  0  0  0  0  0  0
   -1.2222   -0.3430   -2.8471 C   0  0  0  0  0  0  0  0  0  0  0  0
   -2.3672    0.0811   -2.2300 C   0  0  0  0  0  0  0  0  0  0  0  0
   -2.3915   -0.5179   -0.9852 C   0  0  0  0  0  0  0  0  0  0  0  0
   -3.4795   -0.2290   -0.1991 C   0  0  0  0  0  0  0  0  0  0  0  0
   -3.6151   -0.7824    1.0444 C   0  0  0  0  0  0  0  0  0  0  0  0
   -4.7402   -0.4909    1.8342 C   0  0  0  0  0  0  0  0  0  0  0  0
   -5.6813    0.3591    1.3110 C   0  0  0  0  0  0  0  0  0  0  0  0
   -5.5481    0.8966    0.0997 N   0  0  0  0  0  0  0  0  0  0  0  0
   -4.4627    0.6117   -0.6551 C   0  0  0  0  0  0  0  0  0  0  0  0
   -4.4349    1.2148   -1.9060 C   0  0  0  0  0  0  0  0  0  0  0  0
   -3.3463    0.9255   -2.6978 C   0  0  0  0  0  0  0  0  0  0  0  0
   -0.4796   -0.5252    2.2772 C   0  0  0  0  0  0  0  0  0  0  0  0
    5.5951   -0.0488    2.3823 H   0  0  0  0  0  0  0  0  0  0  0  0
    5.4452    1.7522    2.2455 H   0  0  0  0  0  0  0  0  0  0  0  0
    4.5831    0.8569    3.6218 H   0  0  0  0  0  0  0  0  0  0  0  0
    5.8916    1.3103    0.2965 H   0  0  0  0  0  0  0  0  0  0  0  0
    5.9373    1.6185   -2.1432 H   0  0  0  0  0  0  0  0  0  0  0  0
    3.8600    1.3263   -3.4652 H   0  0  0  0  0  0  0  0  0  0  0  0
    1.7347    0.7161   -2.2615 H   0  0  0  0  0  0  0  0  0  0  0  0
    1.3283    0.9176    1.3081 H   0  0  0  0  0  0  0  0  0  0  0  0
    0.5034    0.6368   -0.2138 H   0  0  0  0  0  0  0  0  0  0  0  0
    1.8339   -1.7282    0.1734 H   0  0  0  0  0  0  0  0  0  0  0  0
    0.3919   -2.3897    1.9358 H   0  0  0  0  0  0  0  0  0  0  0  0
   -1.6102   -2.8243    0.7080 H   0  0  0  0  0  0  0  0  0  0  0  0
   -0.1824   -2.9004   -0.2240 H   0  0  0  0  0  0  0  0  0  0  0  0
    0.3478   -1.6612   -2.1972 H   0  0  0  0  0  0  0  0  0  0  0  0
   -0.8755   -0.0745   -3.8395 H   0  0  0  0  0  0  0  0  0  0  0  0
   -2.9276   -1.4519    1.5031 H   0  0  0  0  0  0  0  0  0  0  0  0
   -4.8632   -0.9187    2.8188 H   0  0  0  0  0  0  0  0  0  0  0  0
   -6.5406    0.5769    1.9257 H   0  0  0  0  0  0  0  0  0  0  0  0
   -5.2203    1.8667   -2.2275 H   0  0  0  0  0  0  0  0  0  0  0  0
   -3.2681    1.3691   -3.6916 H   0  0  0  0  0  0  0  0  0  0  0  0
   -1.0821    0.2921    1.8609 H   0  0  0  0  0  0  0  0  0  0  0  0
   -1.1188   -1.0817    2.9936 H   0  0  0  0  0  0  0  0  0  0  0  0
    0.3747   -0.1605    2.8908 H   0  0  0  0  0  0  0  0  0  0  0  0
  1  2  1  0
  2  3  1  0
  3  4  2  0
  4  5  1  0
  5  6  2  0
  6  7  1  0
  7  8  2  0
  8  9  1  0
  9 10  1  0
 10 11  1  0
 11 12  1  0
 12 13  1  0
 13 14  1  0
 14 15  2  0
 15 16  1  0
 16 17  2  0
 17 18  1  0
 18 19  2  0
 19 20  1  0
 20 21  2  0
 21 22  1  0
 22 23  2  0
 23 24  1  0
 24 25  2  0
 11 26  1  0
  8  3  1  0
 17 13  1  0
 23 18  1  0
 25 16  1  0
  1 27  1  0
  1 28  1  0
  1 29  1  0
  4 30  1  0
  5 31  1  0
  6 32  1  0
  7 33  1  0
  9 34  1  0
  9 35  1  0
 10 36  1  0
 11 37  1  1
 12 38  1  0
 12 39  1  0
 14 40  1  0
 15 41  1  0
 19 42  1  0
 20 43  1  0
 21 44  1  0
 24 45  1  0
 25 46  1  0
 26 47  1  0
 26 48  1  0
 26 49  1  0
M  END
>  <Ligand ID>  (1) 
LIG0002147

>  <Ligand>  (1) 
CHEMBL383042

>  <SMILES>  (1) 
COc1ccccc1CN[C@H](Cn1ccc2c1c1cccnc1cc2)C

>  <CID>  (1) 
44407327.0

>  <ChEMBL ID>  (1) 
nan

>  <InChiKey>  (1) 
QYFDJULDEBKKKE-INIZCTEOSA-N

>  <InChi>  (1) 
InChI=1S/C22H23N3O/c1-16(24-14-18-6-3-4-8-21(18)26-2)15-25-13-11-17-9-10-20-19(22(17)25)7-5-12-23-20/h3-13,16,24H,14-15H2,1-2H3/t16-/m0/s1

>  <IUPAC Name>  (1) 
(2S)-N-[(2-methoxyphenyl)methyl]-1-pyrrolo[2,3-f]quinolin-1-ylpropan-2-amine

$$$$
