
     RDKit          3D

 21 20  0  0  0  0  0  0  0  0999 V2000
    0.5374   -1.6186    0.0373 C   0  0  0  0  0  0  0  0  0  0  0  0
    0.3150   -0.2582   -0.5120 C   0  0  0  0  0  0  0  0  0  0  0  0
    1.2873    0.6362   -0.4575 C   0  0  0  0  0  0  0  0  0  0  0  0
    2.5899    0.3389    0.1285 C   0  0  0  0  0  0  0  0  0  0  0  0
    2.8205   -0.8010    0.6052 O   0  0  0  0  0  0  0  0  0  0  0  0
    3.5604    1.3323    0.1483 O   0  0  0  0  0  0  0  0  0  0  0  0
   -1.0029    0.0954   -1.1231 C   0  0  0  0  0  0  0  0  0  0  0  0
   -2.1236   -0.0498   -0.1291 C   0  0  0  0  0  0  0  0  0  0  0  0
   -1.9736    0.8176    1.0719 C   0  0  0  0  0  0  0  0  0  0  0  0
    0.6941   -1.6179    1.1248 H   0  0  0  0  0  0  0  0  0  0  0  0
    1.3102   -2.1637   -0.5446 H   0  0  0  0  0  0  0  0  0  0  0  0
   -0.3922   -2.2372   -0.1116 H   0  0  0  0  0  0  0  0  0  0  0  0
    1.0735    1.6123   -0.8719 H   0  0  0  0  0  0  0  0  0  0  0  0
    4.5485    1.1164    0.3564 H   0  0  0  0  0  0  0  0  0  0  0  0
   -0.9731    1.1522   -1.4581 H   0  0  0  0  0  0  0  0  0  0  0  0
   -1.1868   -0.5863   -1.9746 H   0  0  0  0  0  0  0  0  0  0  0  0
   -2.2396   -1.1269    0.1331 H   0  0  0  0  0  0  0  0  0  0  0  0
   -3.0560    0.2507   -0.6570 H   0  0  0  0  0  0  0  0  0  0  0  0
   -0.9547    1.2191    1.2265 H   0  0  0  0  0  0  0  0  0  0  0  0
   -2.1798    0.1881    1.9789 H   0  0  0  0  0  0  0  0  0  0  0  0
   -2.6544    1.7003    1.0284 H   0  0  0  0  0  0  0  0  0  0  0  0
  1  2  1  0
  2  3  2  0
  3  4  1  0
  4  5  2  0
  4  6  1  0
  2  7  1  0
  7  8  1  0
  8  9  1  0
  1 10  1  0
  1 11  1  0
  1 12  1  0
  3 13  1  0
  6 14  1  0
  7 15  1  0
  7 16  1  0
  8 17  1  0
  8 18  1  0
  9 19  1  0
  9 20  1  0
  9 21  1  0
M  END
>  <Ligand ID>  (1) 
LIG0000360

>  <Ligand>  (1) 
(E)-3-methyl-2-hexenoic acid

>  <SMILES>  (1) 
C/C(=C\C(=O)O)/CCC

>  <CID>  (1) 
6443739.0

>  <ChEMBL ID>  (1) 
nan

>  <InChiKey>  (1) 
NTWSIWWJPQHFTO-AATRIKPKSA-N

>  <InChi>  (1) 
InChI=1S/C7H12O2/c1-3-4-6(2)5-7(8)9/h5H,3-4H2,1-2H3,(H,8,9)/b6-5+

>  <IUPAC Name>  (1) 
(E)-3-methylhex-2-enoic acid

$$$$
