
     RDKit          3D

 53 55  0  0  0  0  0  0  0  0999 V2000
   -6.8104    1.9638   -1.7086 O   0  0  0  0  0  0  0  0  0  0  0  0
   -6.3687    2.0488   -0.3724 C   0  0  0  0  0  0  0  0  0  0  0  0
   -6.8936    0.9329    0.4629 C   0  0  0  0  0  0  0  0  0  0  0  0
   -6.5746   -0.3440    0.1021 O   0  0  0  0  0  0  0  0  0  0  0  0
   -5.3687   -0.9360    0.0425 C   0  0  0  0  0  0  0  0  0  0  0  0
   -5.3372   -2.2736   -0.3919 C   0  0  0  0  0  0  0  0  0  0  0  0
   -4.1829   -2.9900   -0.4960 C   0  0  0  0  0  0  0  0  0  0  0  0
   -2.9815   -2.4401   -0.1800 C   0  0  0  0  0  0  0  0  0  0  0  0
   -2.9608   -1.1305    0.2516 C   0  0  0  0  0  0  0  0  0  0  0  0
   -4.1415   -0.4051    0.3560 C   0  0  0  0  0  0  0  0  0  0  0  0
   -1.6631   -0.5553    0.5866 C   0  0  0  0  0  0  0  0  0  0  0  0
   -0.9856    0.0712   -0.4529 C   0  0  0  0  0  0  0  0  0  0  0  0
   -1.5396    0.1418   -1.7712 C   0  0  0  0  0  0  0  0  0  0  0  0
   -1.9844    0.2045   -2.8569 N   0  0  0  0  0  0  0  0  0  0  0  0
    0.2518    0.6282   -0.1653 C   0  0  0  0  0  0  0  0  0  0  0  0
    1.1088    1.4339   -1.5307 S   0  0  0  0  0  0  0  0  0  0  0  0
    2.1551    0.2393   -2.4099 C   0  0  0  0  0  0  0  0  0  0  0  0
    3.2379   -0.1858   -1.4823 C   0  0  0  0  0  0  0  0  0  0  0  0
    3.1016   -1.2749   -0.6309 C   0  0  0  0  0  0  0  0  0  0  0  0
    4.1108   -1.6618    0.2296 C   0  0  0  0  0  0  0  0  0  0  0  0
    5.2680   -0.9542    0.2398 N   0  0  0  0  0  0  0  0  0  0  0  0
    5.4581    0.1096   -0.5619 C   0  0  0  0  0  0  0  0  0  0  0  0
    4.4468    0.5142   -1.4382 C   0  0  0  0  0  0  0  0  0  0  0  0
    6.7109    0.8806   -0.5546 C   0  0  0  0  0  0  0  0  0  0  0  0
    6.8782    1.8760   -1.3111 O   0  0  0  0  0  0  0  0  0  0  0  0
    7.7543    0.4859    0.3317 N   0  0  0  0  0  0  0  0  0  0  0  0
    8.9755    1.2959    0.2895 C   0  0  0  0  0  0  0  0  0  0  0  0
    0.7805    0.5673    1.0699 N   0  0  0  0  0  0  0  0  0  0  0  0
    0.1211   -0.0457    2.0940 C   0  0  0  0  0  0  0  0  0  0  0  0
   -1.1164   -0.6155    1.8534 C   0  0  0  0  0  0  0  0  0  0  0  0
   -1.8406   -1.2672    2.8997 C   0  0  0  0  0  0  0  0  0  0  0  0
   -2.4277   -1.7834    3.7564 N   0  0  0  0  0  0  0  0  0  0  0  0
    0.7147   -0.0887    3.3853 N   0  0  0  0  0  0  0  0  0  0  0  0
   -6.6882    2.8880   -2.0789 H   0  0  0  0  0  0  0  0  0  0  0  0
   -6.8689    2.9976    0.0071 H   0  0  0  0  0  0  0  0  0  0  0  0
   -5.2985    2.2129   -0.2852 H   0  0  0  0  0  0  0  0  0  0  0  0
   -8.0309    0.9922    0.4895 H   0  0  0  0  0  0  0  0  0  0  0  0
   -6.5969    1.1765    1.5231 H   0  0  0  0  0  0  0  0  0  0  0  0
   -6.2612   -2.7798   -0.6621 H   0  0  0  0  0  0  0  0  0  0  0  0
   -4.2188   -4.0291   -0.8404 H   0  0  0  0  0  0  0  0  0  0  0  0
   -2.0851   -3.0457   -0.2773 H   0  0  0  0  0  0  0  0  0  0  0  0
   -4.0507    0.5966    0.7109 H   0  0  0  0  0  0  0  0  0  0  0  0
    1.5758   -0.6417   -2.7712 H   0  0  0  0  0  0  0  0  0  0  0  0
    2.5605    0.7418   -3.3025 H   0  0  0  0  0  0  0  0  0  0  0  0
    2.1865   -1.8485   -0.6274 H   0  0  0  0  0  0  0  0  0  0  0  0
    3.9924   -2.5229    0.8981 H   0  0  0  0  0  0  0  0  0  0  0  0
    4.5756    1.3622   -2.0892 H   0  0  0  0  0  0  0  0  0  0  0  0
    7.6868   -0.3240    0.9835 H   0  0  0  0  0  0  0  0  0  0  0  0
    9.0594    1.8463   -0.6576 H   0  0  0  0  0  0  0  0  0  0  0  0
    9.8718    0.7363    0.5613 H   0  0  0  0  0  0  0  0  0  0  0  0
    8.8547    2.0818    1.0919 H   0  0  0  0  0  0  0  0  0  0  0  0
    0.3113   -0.7517    4.0963 H   0  0  0  0  0  0  0  0  0  0  0  0
    1.5276    0.5318    3.5940 H   0  0  0  0  0  0  0  0  0  0  0  0
  1  2  1  0
  2  3  1  0
  3  4  1  0
  4  5  1  0
  5  6  2  0
  6  7  1  0
  7  8  2  0
  8  9  1  0
  9 10  2  0
  9 11  1  0
 11 12  2  0
 12 13  1  0
 13 14  3  0
 12 15  1  0
 15 16  1  0
 16 17  1  0
 17 18  1  0
 18 19  2  0
 19 20  1  0
 20 21  2  0
 21 22  1  0
 22 23  2  0
 22 24  1  0
 24 25  2  0
 24 26  1  0
 26 27  1  0
 15 28  2  0
 28 29  1  0
 29 30  2  0
 30 31  1  0
 31 32  3  0
 29 33  1  0
 10  5  1  0
 30 11  1  0
 23 18  1  0
  1 34  1  0
  2 35  1  0
  2 36  1  0
  3 37  1  0
  3 38  1  0
  6 39  1  0
  7 40  1  0
  8 41  1  0
 10 42  1  0
 17 43  1  0
 17 44  1  0
 19 45  1  0
 20 46  1  0
 23 47  1  0
 26 48  1  0
 27 49  1  0
 27 50  1  0
 27 51  1  0
 33 52  1  0
 33 53  1  0
M  END
>  <Ligand ID>  (1) 
LIG0004662

>  <Ligand>  (1) 
CHEMBL3912903

>  <SMILES>  (1) 
OCCOc1cccc(c1)c1c(C#N)c(SCc2ccnc(c2)C(=O)NC)nc(c1C#N)N

>  <CID>  (1) 
68047404.0

>  <ChEMBL ID>  (1) 
nan

>  <InChiKey>  (1) 
HJBORWZYZBZOKH-UHFFFAOYSA-N

>  <InChi>  (1) 
InChI=1S/C23H20N6O3S/c1-27-22(31)19-9-14(5-6-28-19)13-33-23-18(12-25)20(17(11-24)21(26)29-23)15-3-2-4-16(10-15)32-8-7-30/h2-6,9-10,30H,7-8,13H2,1H3,(H2,26,29)(H,27,31)

>  <IUPAC Name>  (1) 
4-[[6-amino-3,5-dicyano-4-[3-(2-hydroxyethoxy)phenyl]pyridin-2-yl]sulfanylmethyl]-N-methylpyridine-2-carboxamide

$$$$
