
     RDKit          3D

116119  0  0  0  0  0  0  0  0999 V2000
    8.9968   -1.9695   -1.7404 C   0  0  0  0  0  0  0  0  0  0  0  0
    7.5461   -2.3923   -1.9480 C   0  0  0  0  0  0  0  0  0  0  0  0
    6.8541   -1.4672   -2.9133 C   0  0  0  0  0  0  0  0  0  0  0  0
    5.4026   -1.8380   -3.1655 C   0  0  0  0  0  0  0  0  0  0  0  0
    4.6238   -1.8058   -1.9027 C   0  0  2  0  0  0  0  0  0  0  0  0
    3.2063   -2.1613   -2.0644 N   0  0  0  0  0  0  0  0  0  0  0  0
    2.7028   -3.0969   -1.1285 C   0  0  0  0  0  0  0  0  0  0  0  0
    3.5114   -3.5759   -0.3175 O   0  0  0  0  0  0  0  0  0  0  0  0
    1.2977   -3.5623   -1.0177 C   0  0  0  0  0  0  0  0  0  0  0  0
    1.2792   -4.4265    0.2478 C   0  0  0  0  0  0  0  0  0  0  0  0
   -0.1497   -4.7733    0.5825 C   0  0  2  0  0  0  0  0  0  0  0  0
   -0.9174   -3.5249    0.7398 N   0  0  0  0  0  0  0  0  0  0  0  0
   -2.2810   -3.4294    0.2763 C   0  0  0  0  0  0  0  0  0  0  0  0
   -2.7273   -4.5111   -0.1510 O   0  0  0  0  0  0  0  0  0  0  0  0
   -3.0643   -2.2057    0.3063 C   0  0  1  0  0  0  0  0  0  0  0  0
   -2.3318   -0.9944    0.7033 N   0  0  0  0  0  0  0  0  0  0  0  0
   -2.8930   -0.0518    1.6209 C   0  0  0  0  0  0  0  0  0  0  0  0
   -4.0023   -0.4022    2.0841 O   0  0  0  0  0  0  0  0  0  0  0  0
   -2.3280    1.2135    2.0410 C   0  0  1  0  0  0  0  0  0  0  0  0
   -0.9820    1.4783    1.6243 N   0  0  0  0  0  0  0  0  0  0  0  0
   -0.3245    2.6080    2.2406 C   0  0  0  0  0  0  0  0  0  0  0  0
   -1.0818    3.1697    3.0873 O   0  0  0  0  0  0  0  0  0  0  0  0
    0.9798    3.1473    2.0282 C   0  0  2  0  0  0  0  0  0  0  0  0
    2.0441    2.4393    1.3861 N   0  0  0  0  0  0  0  0  0  0  0  0
    2.1948    2.0968    0.0198 C   0  0  0  0  0  0  0  0  0  0  0  0
    1.2174    2.2268   -0.6947 O   0  0  0  0  0  0  0  0  0  0  0  0
    3.5301    1.5816   -0.4596 C   0  0  1  0  0  0  0  0  0  0  0  0
    3.4762    0.4321   -1.2946 N   0  0  0  0  0  0  0  0  0  0  0  0
    4.6010   -0.4791   -1.2179 C   0  0  0  0  0  0  0  0  0  0  0  0
    5.5581   -0.0929   -0.5567 O   0  0  0  0  0  0  0  0  0  0  0  0
    4.1938    2.7699   -1.1758 C   0  0  0  0  0  0  0  0  0  0  0  0
    5.5026    2.4340   -1.7130 C   0  0  0  0  0  0  0  0  0  0  0  0
    5.5356    1.8838   -2.8694 O   0  0  0  0  0  0  0  0  0  0  0  0
    6.7122    2.6686   -1.0641 O   0  0  0  0  0  0  0  0  0  0  0  0
    1.4600    3.9679    3.1832 C   0  0  0  0  0  0  0  0  0  0  0  0
    0.6621    5.1324    3.5202 C   0  0  0  0  0  0  0  0  0  0  0  0
   -0.2364    5.2632    4.5409 C   0  0  0  0  0  0  0  0  0  0  0  0
   -0.9662    6.4310    4.7442 C   0  0  0  0  0  0  0  0  0  0  0  0
   -0.8115    7.5186    3.9167 C   0  0  0  0  0  0  0  0  0  0  0  0
    0.0881    7.4044    2.8869 C   0  0  0  0  0  0  0  0  0  0  0  0
    0.8023    6.2583    2.6884 C   0  0  0  0  0  0  0  0  0  0  0  0
   -3.3000    2.3098    1.5823 C   0  0  0  0  0  0  0  0  0  0  0  0
   -3.5636    2.4228    0.1496 C   0  0  0  0  0  0  0  0  0  0  0  0
   -2.4398    2.7010   -0.7790 C   0  0  0  0  0  0  0  0  0  0  0  0
   -3.0213    2.7616   -2.1343 N   0  0  0  0  0  0  0  0  0  0  0  0
   -3.5711    3.8719   -2.5136 C   0  0  0  0  0  0  0  0  0  0  0  0
   -3.6503    5.0291   -1.7155 N   0  0  0  0  0  0  0  0  0  0  0  0
   -4.1228    3.9020   -3.8274 N   0  0  0  0  0  0  0  0  0  0  0  0
   -3.7767   -1.9646   -1.0180 C   0  0  0  0  0  0  0  0  0  0  0  0
   -4.6850   -3.1105   -1.2491 C   0  0  0  0  0  0  0  0  0  0  0  0
   -4.5845   -4.1839   -2.0985 C   0  0  0  0  0  0  0  0  0  0  0  0
   -5.6684   -4.9563   -1.9495 N   0  0  0  0  0  0  0  0  0  0  0  0
   -6.4971   -4.4433   -1.0304 C   0  0  0  0  0  0  0  0  0  0  0  0
   -5.9017   -3.2865   -0.5778 C   0  0  0  0  0  0  0  0  0  0  0  0
   -6.5765   -2.5692    0.3854 C   0  0  0  0  0  0  0  0  0  0  0  0
   -7.7977   -2.9804    0.8848 C   0  0  0  0  0  0  0  0  0  0  0  0
   -8.3869   -4.1337    0.4307 C   0  0  0  0  0  0  0  0  0  0  0  0
   -7.7243   -4.8796   -0.5455 C   0  0  0  0  0  0  0  0  0  0  0  0
   -0.0712   -5.4406    1.9422 C   0  0  0  0  0  0  0  0  0  0  0  0
   -0.6448   -4.8163    2.8808 O   0  0  0  0  0  0  0  0  0  0  0  0
    0.6010   -6.6643    2.1019 N   0  0  0  0  0  0  0  0  0  0  0  0
    9.0576   -0.9266   -1.3392 H   0  0  0  0  0  0  0  0  0  0  0  0
    9.3925   -2.6554   -0.9463 H   0  0  0  0  0  0  0  0  0  0  0  0
    9.6231   -2.1256   -2.6337 H   0  0  0  0  0  0  0  0  0  0  0  0
    7.5745   -3.4098   -2.3680 H   0  0  0  0  0  0  0  0  0  0  0  0
    7.0880   -2.3351   -0.9379 H   0  0  0  0  0  0  0  0  0  0  0  0
    7.4216   -1.3857   -3.8693 H   0  0  0  0  0  0  0  0  0  0  0  0
    6.8619   -0.4625   -2.4570 H   0  0  0  0  0  0  0  0  0  0  0  0
    5.3719   -2.8578   -3.6054 H   0  0  0  0  0  0  0  0  0  0  0  0
    5.0152   -1.1397   -3.9391 H   0  0  0  0  0  0  0  0  0  0  0  0
    5.0922   -2.5476   -1.1984 H   0  0  0  0  0  0  0  0  0  0  0  0
    2.5748   -1.8123   -2.7622 H   0  0  0  0  0  0  0  0  0  0  0  0
    1.0409   -4.1223   -1.9177 H   0  0  0  0  0  0  0  0  0  0  0  0
    0.6589   -2.6794   -0.9137 H   0  0  0  0  0  0  0  0  0  0  0  0
    1.7989   -5.3829    0.0402 H   0  0  0  0  0  0  0  0  0  0  0  0
    1.8127   -3.9289    1.0697 H   0  0  0  0  0  0  0  0  0  0  0  0
   -0.5738   -5.4534   -0.1499 H   0  0  0  0  0  0  0  0  0  0  0  0
   -0.5583   -2.6794    1.1684 H   0  0  0  0  0  0  0  0  0  0  0  0
   -3.9025   -2.2937    1.0442 H   0  0  0  0  0  0  0  0  0  0  0  0
   -1.3997   -0.7514    0.3637 H   0  0  0  0  0  0  0  0  0  0  0  0
   -2.3783    1.3414    3.1248 H   0  0  0  0  0  0  0  0  0  0  0  0
   -0.4249    0.9683    0.9567 H   0  0  0  0  0  0  0  0  0  0  0  0
    0.8227    4.0150    1.1927 H   0  0  0  0  0  0  0  0  0  0  0  0
    2.8215    2.1104    1.9941 H   0  0  0  0  0  0  0  0  0  0  0  0
    4.1620    1.4031    0.4040 H   0  0  0  0  0  0  0  0  0  0  0  0
    2.7613    0.1418   -1.9562 H   0  0  0  0  0  0  0  0  0  0  0  0
    4.3223    3.5305   -0.3524 H   0  0  0  0  0  0  0  0  0  0  0  0
    3.5530    3.2125   -1.9501 H   0  0  0  0  0  0  0  0  0  0  0  0
    7.5043    2.9724   -1.6492 H   0  0  0  0  0  0  0  0  0  0  0  0
    1.5292    3.3225    4.1181 H   0  0  0  0  0  0  0  0  0  0  0  0
    2.5340    4.2802    3.0258 H   0  0  0  0  0  0  0  0  0  0  0  0
   -0.4009    4.4742    5.2457 H   0  0  0  0  0  0  0  0  0  0  0  0
   -1.6810    6.5188    5.5649 H   0  0  0  0  0  0  0  0  0  0  0  0
   -1.3794    8.4233    4.0784 H   0  0  0  0  0  0  0  0  0  0  0  0
    0.2015    8.2787    2.2363 H   0  0  0  0  0  0  0  0  0  0  0  0
    1.4996    6.2434    1.8480 H   0  0  0  0  0  0  0  0  0  0  0  0
   -4.2715    1.9795    2.0509 H   0  0  0  0  0  0  0  0  0  0  0  0
   -3.0645    3.2507    2.0589 H   0  0  0  0  0  0  0  0  0  0  0  0
   -4.2656    3.2861    0.0292 H   0  0  0  0  0  0  0  0  0  0  0  0
   -4.1684    1.5745   -0.2844 H   0  0  0  0  0  0  0  0  0  0  0  0
   -2.0146    3.7112   -0.6097 H   0  0  0  0  0  0  0  0  0  0  0  0
   -1.6863    1.8964   -0.8609 H   0  0  0  0  0  0  0  0  0  0  0  0
   -2.7874    5.4636   -1.3140 H   0  0  0  0  0  0  0  0  0  0  0  0
   -4.5946    5.4731   -1.5134 H   0  0  0  0  0  0  0  0  0  0  0  0
   -4.1845    3.0596   -4.4387 H   0  0  0  0  0  0  0  0  0  0  0  0
   -4.5024    4.7954   -4.2535 H   0  0  0  0  0  0  0  0  0  0  0  0
   -3.0580   -1.8914   -1.8440 H   0  0  0  0  0  0  0  0  0  0  0  0
   -4.4263   -1.0671   -0.8866 H   0  0  0  0  0  0  0  0  0  0  0  0
   -3.7472   -4.3482   -2.7686 H   0  0  0  0  0  0  0  0  0  0  0  0
   -5.7889   -5.8458   -2.5194 H   0  0  0  0  0  0  0  0  0  0  0  0
   -6.1802   -1.6515    0.7900 H   0  0  0  0  0  0  0  0  0  0  0  0
   -8.3367   -2.4229    1.6422 H   0  0  0  0  0  0  0  0  0  0  0  0
   -9.3278   -4.4633    0.8056 H   0  0  0  0  0  0  0  0  0  0  0  0
   -8.1855   -5.7807   -0.8991 H   0  0  0  0  0  0  0  0  0  0  0  0
    0.6650   -7.3089    1.2869 H   0  0  0  0  0  0  0  0  0  0  0  0
    1.0290   -6.9316    3.0056 H   0  0  0  0  0  0  0  0  0  0  0  0
  1  2  1  0
  2  3  1  0
  3  4  1  0
  4  5  1  0
  5  6  1  0
  6  7  1  0
  7  8  2  0
  7  9  1  0
  9 10  1  0
 10 11  1  0
 11 12  1  0
 12 13  1  0
 13 14  2  0
 13 15  1  0
 15 16  1  0
 16 17  1  0
 17 18  2  0
 17 19  1  0
 19 20  1  0
 20 21  1  0
 21 22  2  0
 21 23  1  0
 23 24  1  0
 24 25  1  0
 25 26  2  0
 25 27  1  0
 27 28  1  0
 28 29  1  0
 29 30  2  0
 27 31  1  0
 31 32  1  0
 32 33  2  0
 32 34  1  0
 23 35  1  0
 35 36  1  0
 36 37  2  0
 37 38  1  0
 38 39  2  0
 39 40  1  0
 40 41  2  0
 19 42  1  0
 42 43  1  0
 43 44  1  0
 44 45  1  0
 45 46  2  3
 46 47  1  0
 46 48  1  0
 15 49  1  0
 49 50  1  0
 50 51  2  0
 51 52  1  0
 52 53  1  0
 53 54  2  0
 54 55  1  0
 55 56  2  0
 56 57  1  0
 57 58  2  0
 11 59  1  0
 59 60  2  0
 59 61  1  0
 29  5  1  0
 41 36  1  0
 54 50  1  0
 58 53  1  0
  1 62  1  0
  1 63  1  0
  1 64  1  0
  2 65  1  0
  2 66  1  0
  3 67  1  0
  3 68  1  0
  4 69  1  0
  4 70  1  0
  5 71  1  1
  6 72  1  0
  9 73  1  0
  9 74  1  0
 10 75  1  0
 10 76  1  0
 11 77  1  6
 12 78  1  0
 15 79  1  1
 16 80  1  0
 19 81  1  1
 20 82  1  0
 23 83  1  6
 24 84  1  0
 27 85  1  1
 28 86  1  0
 31 87  1  0
 31 88  1  0
 34 89  1  0
 35 90  1  0
 35 91  1  0
 37 92  1  0
 38 93  1  0
 39 94  1  0
 40 95  1  0
 41 96  1  0
 42 97  1  0
 42 98  1  0
 43 99  1  0
 43100  1  0
 44101  1  0
 44102  1  0
 47103  1  0
 47104  1  0
 48105  1  0
 48106  1  0
 49107  1  0
 49108  1  0
 51109  1  0
 52110  1  0
 55111  1  0
 56112  1  0
 57113  1  0
 58114  1  0
 61115  1  0
 61116  1  0
M  END
>  <Ligand ID>  (1) 
LIG0001839

>  <Ligand>  (1) 
CHEMBL203170

>  <SMILES>  (1) 
CCCC[C@@H]1NC(=O)CC[C@H](NC(=O)[C@@H](NC(=O)[C@@H](NC(=O)[C@H](NC(=O)[C@@H](NC1=O)CC(=O)O)Cc1ccccc1)CCCN=C(N)N)Cc1c[nH]c2c1cccc2)C(=O)N

>  <CID>  (1) 
11629290.0

>  <ChEMBL ID>  (1) 
nan

>  <InChiKey>  (1) 
HUAMIBCEKZFYST-BCLKUREPSA-N

>  <InChi>  (1) 
InChI=1S/C41H55N11O9/c1-2-3-13-28-36(57)52-32(21-34(54)55)40(61)50-30(19-23-10-5-4-6-11-23)38(59)49-29(15-9-18-45-41(43)44)37(58)51-31(20-24-22-46-26-14-8-7-12-25(24)26)39(60)48-27(35(42)56)16-17-33(53)47-28/h4-8,10-12,14,22,27-32,46H,2-3,9,13,15-21H2,1H3,(H2,42,56)(H,47,53)(H,48,60)(H,49,59)(H,50,61)(H,51,58)(H,52,57)(H,54,55)(H4,43,44,45)/t27-,28-,29-,30+,31-,32-/m0/s1

>  <IUPAC Name>  (1) 
2-[(2S,5S,8R,11S,14S,17S)-8-benzyl-2-butyl-17-carbamoyl-11-[3-(diaminomethylideneamino)propyl]-14-(1H-indol-3-ylmethyl)-3,6,9,12,15,20-hexaoxo-1,4,7,10,13,16-hexazacycloicos-5-yl]acetic acid

$$$$
