
     RDKit          3D

183189  0  0  0  0  0  0  0  0999 V2000
   -4.0684    6.2965   -1.8665 N   0  0  0  0  0  0  0  0  0  0  0  0
   -4.2979    5.6588   -3.0522 N   0  0  0  0  0  0  0  0  0  0  0  0
   -3.0964    5.2525   -3.7050 C   0  0  1  0  0  0  0  0  0  0  0  0
   -2.2655    4.2877   -2.9642 C   0  0  0  0  0  0  0  0  0  0  0  0
   -1.2107    3.8204   -3.5184 O   0  0  0  0  0  0  0  0  0  0  0  0
   -2.5301    3.8236   -1.6548 N   0  0  0  0  0  0  0  0  0  0  0  0
   -1.7384    2.9158   -0.8824 C   0  0  2  0  0  0  0  0  0  0  0  0
   -2.4506    1.9070   -0.0790 C   0  0  0  0  0  0  0  0  0  0  0  0
   -3.1583    0.8464   -0.8186 C   0  0  0  0  0  0  0  0  0  0  0  0
   -3.3447    0.7530   -2.0217 O   0  0  0  0  0  0  0  0  0  0  0  0
   -3.7019   -0.2356   -0.0227 N   0  0  0  0  0  0  0  0  0  0  0  0
   -4.2953   -1.4213   -0.6967 C   0  0  0  0  0  0  0  0  0  0  0  0
   -3.2103   -2.4419   -0.5544 N   0  0  0  0  0  0  0  0  0  0  0  0
   -2.5073   -2.9471   -1.6880 C   0  0  0  0  0  0  0  0  0  0  0  0
   -2.9387   -2.5524   -2.7761 O   0  0  0  0  0  0  0  0  0  0  0  0
   -1.4166   -3.8336   -1.4419 C   0  0  0  0  0  0  0  0  0  0  0  0
   -1.0745   -4.1134   -0.2273 O   0  0  0  0  0  0  0  0  0  0  0  0
   -0.5655   -4.5191   -2.4646 C   0  0  2  0  0  0  0  0  0  0  0  0
   -1.4789   -5.2378   -3.3675 C   0  0  0  0  0  0  0  0  0  0  0  0
   -0.9842   -6.0031   -4.4948 C   0  0  0  0  0  0  0  0  0  0  0  0
   -0.4481   -5.2809   -5.5704 C   0  0  0  0  0  0  0  0  0  0  0  0
   -0.0079   -5.8709   -6.7245 C   0  0  0  0  0  0  0  0  0  0  0  0
   -0.0768   -7.2387   -6.8721 C   0  0  0  0  0  0  0  0  0  0  0  0
   -0.5920   -7.9856   -5.8459 C   0  0  0  0  0  0  0  0  0  0  0  0
   -1.0411   -7.3734   -4.6673 C   0  0  0  0  0  0  0  0  0  0  0  0
    0.5226   -5.0749   -1.7879 N   0  0  0  0  0  0  0  0  0  0  0  0
    1.2955   -6.2413   -1.8428 C   0  0  0  0  0  0  0  0  0  0  0  0
    0.8976   -7.1545   -2.5451 O   0  0  0  0  0  0  0  0  0  0  0  0
    2.5655   -6.4513   -1.0951 C   0  0  1  0  0  0  0  0  0  0  0  0
    3.6071   -6.7494   -2.1990 C   0  0  0  0  0  0  0  0  0  0  0  0
    3.0835   -5.2364   -0.4725 N   0  0  0  0  0  0  0  0  0  0  0  0
    3.8832   -5.3110    0.7211 C   0  0  0  0  0  0  0  0  0  0  0  0
    3.9765   -6.4906    1.1579 O   0  0  0  0  0  0  0  0  0  0  0  0
    4.5347   -4.2324    1.3992 C   0  0  1  0  0  0  0  0  0  0  0  0
    4.4028   -2.8625    0.9557 N   0  0  0  0  0  0  0  0  0  0  0  0
    5.3904   -2.2463    0.0870 C   0  0  0  0  0  0  0  0  0  0  0  0
    6.1812   -3.0611   -0.4054 O   0  0  0  0  0  0  0  0  0  0  0  0
    5.4922   -0.8328   -0.2185 C   0  0  2  0  0  0  0  0  0  0  0  0
    4.4989    0.0215    0.4628 N   0  0  0  0  0  0  0  0  0  0  0  0
    4.8409    0.7918    1.6095 C   0  0  0  0  0  0  0  0  0  0  0  0
    6.0581    0.6297    1.9640 O   0  0  0  0  0  0  0  0  0  0  0  0
    4.0246    1.6893    2.3875 C   0  0  1  0  0  0  0  0  0  0  0  0
    2.6957    2.0306    1.9180 N   0  0  0  0  0  0  0  0  0  0  0  0
    2.2905    3.4080    1.9611 C   0  0  0  0  0  0  0  0  0  0  0  0
    3.1868    4.1918    2.3708 O   0  0  0  0  0  0  0  0  0  0  0  0
    1.0091    3.9847    1.5968 C   0  0  1  0  0  0  0  0  0  0  0  0
    0.1135    3.0783    0.9064 N   0  0  0  0  0  0  0  0  0  0  0  0
   -0.7873    3.6633   -0.0239 C   0  0  0  0  0  0  0  0  0  0  0  0
   -0.7662    4.8991   -0.1097 O   0  0  0  0  0  0  0  0  0  0  0  0
    0.3036    4.4361    2.9131 C   0  0  0  0  0  0  0  0  0  0  0  0
    1.1555    5.4596    3.5570 C   0  0  0  0  0  0  0  0  0  0  0  0
    0.9682    6.7739    3.0817 C   0  0  0  0  0  0  0  0  0  0  0  0
    1.7130    7.8127    3.6274 C   0  0  0  0  0  0  0  0  0  0  0  0
    2.6291    7.5977    4.6240 C   0  0  0  0  0  0  0  0  0  0  0  0
    2.7817    6.2971    5.0668 C   0  0  0  0  0  0  0  0  0  0  0  0
    2.0639    5.2361    4.5499 C   0  0  0  0  0  0  0  0  0  0  0  0
    3.9542    1.3870    3.8857 C   0  0  0  0  0  0  0  0  0  0  0  0
    5.2798    1.4902    4.5369 C   0  0  0  0  0  0  0  0  0  0  0  0
    5.1140    1.1907    6.0463 C   0  0  0  0  0  0  0  0  0  0  0  0
    6.4236    1.3608    6.6427 N   0  0  0  0  0  0  0  0  0  0  0  0
    6.7666    2.5083    7.1500 C   0  0  0  0  0  0  0  0  0  0  0  0
    5.8860    3.6351    7.1394 N   0  0  0  0  0  0  0  0  0  0  0  0
    8.0478    2.7255    7.7335 N   0  0  0  0  0  0  0  0  0  0  0  0
    5.6873   -0.4618   -1.6398 C   0  0  0  0  0  0  0  0  0  0  0  0
    6.9052   -1.1094   -2.2140 C   0  0  0  0  0  0  0  0  0  0  0  0
    8.2287   -0.7276   -1.9658 C   0  0  0  0  0  0  0  0  0  0  0  0
    9.0597   -1.6250   -2.5782 N   0  0  0  0  0  0  0  0  0  0  0  0
    8.3427   -2.5653   -3.2071 C   0  0  0  0  0  0  0  0  0  0  0  0
    7.0139   -2.2460   -2.9828 C   0  0  0  0  0  0  0  0  0  0  0  0
    6.0067   -3.0514   -3.5545 C   0  0  0  0  0  0  0  0  0  0  0  0
    6.3575   -4.1326   -4.3137 C   0  0  0  0  0  0  0  0  0  0  0  0
    7.6649   -4.4775   -4.5506 C   0  0  0  0  0  0  0  0  0  0  0  0
    8.6512   -3.6831   -3.9886 C   0  0  0  0  0  0  0  0  0  0  0  0
    4.3679   -4.3352    2.8934 C   0  0  0  0  0  0  0  0  0  0  0  0
    4.9302   -5.5622    3.4747 C   0  0  0  0  0  0  0  0  0  0  0  0
    4.2835   -6.6023    3.7348 O   0  0  0  0  0  0  0  0  0  0  0  0
    6.3309   -5.5930    3.7761 N   0  0  0  0  0  0  0  0  0  0  0  0
   -5.4810   -1.8692    0.0237 C   0  0  0  0  0  0  0  0  0  0  0  0
   -6.1225   -2.8641   -0.4702 O   0  0  0  0  0  0  0  0  0  0  0  0
   -6.0100   -1.3293    1.2147 N   0  0  0  0  0  0  0  0  0  0  0  0
   -7.1559   -1.9351    1.7305 N   0  0  0  0  0  0  0  0  0  0  0  0
   -8.3924   -1.3534    1.2444 C   0  0  1  0  0  0  0  0  0  0  0  0
   -9.4728   -2.2615    1.7109 C   0  0  0  0  0  0  0  0  0  0  0  0
   -9.1196   -3.2465    2.4021 O   0  0  0  0  0  0  0  0  0  0  0  0
  -10.8542   -1.9710    1.3522 C   0  0  0  0  0  0  0  0  0  0  0  0
  -11.1876   -0.9502    0.6694 O   0  0  0  0  0  0  0  0  0  0  0  0
  -11.8628   -2.8697    1.7823 O   0  0  0  0  0  0  0  0  0  0  0  0
   -8.5669    0.0647    1.7648 C   0  0  0  0  0  0  0  0  0  0  0  0
   -8.6372    0.1474    3.2438 C   0  0  0  0  0  0  0  0  0  0  0  0
   -7.5246    0.2075    4.0575 C   0  0  0  0  0  0  0  0  0  0  0  0
   -7.6355    0.3036    5.4222 C   0  0  0  0  0  0  0  0  0  0  0  0
   -8.8996    0.3436    6.0006 C   0  0  0  0  0  0  0  0  0  0  0  0
  -10.0118    0.2845    5.1981 C   0  0  0  0  0  0  0  0  0  0  0  0
   -9.9146    0.1858    3.8180 C   0  0  0  0  0  0  0  0  0  0  0  0
   -8.9445    0.4414    7.3811 O   0  0  0  0  0  0  0  0  0  0  0  0
   -3.2917    4.7858   -5.1156 C   0  0  0  0  0  0  0  0  0  0  0  0
   -3.8708    5.8376   -5.9854 C   0  0  0  0  0  0  0  0  0  0  0  0
   -3.0201    6.7106   -6.6177 C   0  0  0  0  0  0  0  0  0  0  0  0
   -3.4278    7.7318   -7.4728 C   0  0  0  0  0  0  0  0  0  0  0  0
   -4.8249    7.8556   -7.6879 C   0  0  0  0  0  0  0  0  0  0  0  0
   -5.6515    6.9789   -7.0497 C   0  0  0  0  0  0  0  0  0  0  0  0
   -5.2154    5.9789   -6.2070 C   0  0  0  0  0  0  0  0  0  0  0  0
   -5.3145    8.8394   -8.5231 O   0  0  0  0  0  0  0  0  0  0  0  0
   -4.7839    6.1830   -1.1360 H   0  0  0  0  0  0  0  0  0  0  0  0
   -3.6712    7.2398   -2.0071 H   0  0  0  0  0  0  0  0  0  0  0  0
   -5.0261    4.9174   -3.0189 H   0  0  0  0  0  0  0  0  0  0  0  0
   -2.4456    6.1887   -3.8058 H   0  0  0  0  0  0  0  0  0  0  0  0
   -3.4176    4.1793   -1.1834 H   0  0  0  0  0  0  0  0  0  0  0  0
   -1.0574    2.3665   -1.6221 H   0  0  0  0  0  0  0  0  0  0  0  0
   -3.1586    2.3695    0.6678 H   0  0  0  0  0  0  0  0  0  0  0  0
   -1.7096    1.3666    0.5719 H   0  0  0  0  0  0  0  0  0  0  0  0
   -3.6399   -0.1228    0.9733 H   0  0  0  0  0  0  0  0  0  0  0  0
   -4.4546   -1.2695   -1.7558 H   0  0  0  0  0  0  0  0  0  0  0  0
   -2.9546   -2.8029    0.3522 H   0  0  0  0  0  0  0  0  0  0  0  0
   -0.1877   -3.6615   -3.1509 H   0  0  0  0  0  0  0  0  0  0  0  0
   -2.1203   -4.4133   -3.8483 H   0  0  0  0  0  0  0  0  0  0  0  0
   -2.2991   -5.7968   -2.8065 H   0  0  0  0  0  0  0  0  0  0  0  0
   -0.3661   -4.2027   -5.4948 H   0  0  0  0  0  0  0  0  0  0  0  0
    0.4092   -5.2540   -7.5411 H   0  0  0  0  0  0  0  0  0  0  0  0
    0.2846   -7.6760   -7.7893 H   0  0  0  0  0  0  0  0  0  0  0  0
   -0.6755   -9.0744   -5.9113 H   0  0  0  0  0  0  0  0  0  0  0  0
   -1.4384   -7.9427   -3.8420 H   0  0  0  0  0  0  0  0  0  0  0  0
    0.8996   -4.4363   -0.9691 H   0  0  0  0  0  0  0  0  0  0  0  0
    2.4638   -7.3008   -0.4366 H   0  0  0  0  0  0  0  0  0  0  0  0
    4.6092   -6.7768   -1.7499 H   0  0  0  0  0  0  0  0  0  0  0  0
    3.3445   -7.7101   -2.6839 H   0  0  0  0  0  0  0  0  0  0  0  0
    3.5258   -5.9673   -2.9644 H   0  0  0  0  0  0  0  0  0  0  0  0
    2.9196   -4.2935   -0.8053 H   0  0  0  0  0  0  0  0  0  0  0  0
    5.6849   -4.4031    1.2595 H   0  0  0  0  0  0  0  0  0  0  0  0
    3.6429   -2.2254    1.2066 H   0  0  0  0  0  0  0  0  0  0  0  0
    6.5057   -0.5593    0.3139 H   0  0  0  0  0  0  0  0  0  0  0  0
    3.5282    0.1086    0.1729 H   0  0  0  0  0  0  0  0  0  0  0  0
    4.6007    2.6822    2.4035 H   0  0  0  0  0  0  0  0  0  0  0  0
    1.9987    1.3919    1.5378 H   0  0  0  0  0  0  0  0  0  0  0  0
    1.1036    4.9493    1.0142 H   0  0  0  0  0  0  0  0  0  0  0  0
    0.0570    2.0768    1.0167 H   0  0  0  0  0  0  0  0  0  0  0  0
   -0.7223    4.7439    2.7288 H   0  0  0  0  0  0  0  0  0  0  0  0
    0.2857    3.5606    3.6145 H   0  0  0  0  0  0  0  0  0  0  0  0
    0.2530    6.9895    2.3028 H   0  0  0  0  0  0  0  0  0  0  0  0
    1.5720    8.8329    3.2666 H   0  0  0  0  0  0  0  0  0  0  0  0
    3.1830    8.4364    5.0176 H   0  0  0  0  0  0  0  0  0  0  0  0
    3.5081    6.1606    5.8576 H   0  0  0  0  0  0  0  0  0  0  0  0
    2.1862    4.2164    4.9108 H   0  0  0  0  0  0  0  0  0  0  0  0
    3.2696    2.1617    4.3150 H   0  0  0  0  0  0  0  0  0  0  0  0
    3.4748    0.3849    4.0359 H   0  0  0  0  0  0  0  0  0  0  0  0
    5.6165    2.5688    4.5365 H   0  0  0  0  0  0  0  0  0  0  0  0
    6.0556    0.8385    4.1474 H   0  0  0  0  0  0  0  0  0  0  0  0
    4.3571    1.8606    6.4463 H   0  0  0  0  0  0  0  0  0  0  0  0
    4.8471    0.1176    6.1400 H   0  0  0  0  0  0  0  0  0  0  0  0
    6.1761    4.5942    6.8577 H   0  0  0  0  0  0  0  0  0  0  0  0
    4.8656    3.5545    7.4203 H   0  0  0  0  0  0  0  0  0  0  0  0
    8.5384    3.6366    7.6932 H   0  0  0  0  0  0  0  0  0  0  0  0
    8.5786    1.9674    8.2577 H   0  0  0  0  0  0  0  0  0  0  0  0
    5.7082    0.6316   -1.8186 H   0  0  0  0  0  0  0  0  0  0  0  0
    4.8463   -0.8195   -2.2992 H   0  0  0  0  0  0  0  0  0  0  0  0
    8.5370    0.1441   -1.3642 H   0  0  0  0  0  0  0  0  0  0  0  0
   10.1145   -1.5657   -2.5367 H   0  0  0  0  0  0  0  0  0  0  0  0
    4.9758   -2.8401   -3.4001 H   0  0  0  0  0  0  0  0  0  0  0  0
    5.5480   -4.7290   -4.7396 H   0  0  0  0  0  0  0  0  0  0  0  0
    7.8816   -5.3281   -5.1492 H   0  0  0  0  0  0  0  0  0  0  0  0
    9.7148   -3.9318   -4.1506 H   0  0  0  0  0  0  0  0  0  0  0  0
    4.9457   -3.4894    3.3657 H   0  0  0  0  0  0  0  0  0  0  0  0
    3.2820   -4.2647    3.1804 H   0  0  0  0  0  0  0  0  0  0  0  0
    6.8659   -6.3777    3.3599 H   0  0  0  0  0  0  0  0  0  0  0  0
    6.8132   -4.8952    4.3649 H   0  0  0  0  0  0  0  0  0  0  0  0
   -5.5249   -0.5079    1.6272 H   0  0  0  0  0  0  0  0  0  0  0  0
   -7.1455   -2.9558    1.7781 H   0  0  0  0  0  0  0  0  0  0  0  0
   -8.3841   -1.3347    0.1543 H   0  0  0  0  0  0  0  0  0  0  0  0
  -12.8327   -2.6645    1.7387 H   0  0  0  0  0  0  0  0  0  0  0  0
   -7.6562    0.6589    1.4696 H   0  0  0  0  0  0  0  0  0  0  0  0
   -9.4307    0.5386    1.2723 H   0  0  0  0  0  0  0  0  0  0  0  0
   -6.5532    0.1833    3.6338 H   0  0  0  0  0  0  0  0  0  0  0  0
   -6.7501    0.3467    6.0456 H   0  0  0  0  0  0  0  0  0  0  0  0
  -10.9917    0.3233    5.6463 H   0  0  0  0  0  0  0  0  0  0  0  0
  -10.8193    0.1485    3.2504 H   0  0  0  0  0  0  0  0  0  0  0  0
   -9.1505   -0.3620    7.9805 H   0  0  0  0  0  0  0  0  0  0  0  0
   -2.3200    4.4991   -5.5249 H   0  0  0  0  0  0  0  0  0  0  0  0
   -3.9758    3.9060   -5.0651 H   0  0  0  0  0  0  0  0  0  0  0  0
   -1.9533    6.6122   -6.4417 H   0  0  0  0  0  0  0  0  0  0  0  0
   -2.7396    8.4046   -7.9445 H   0  0  0  0  0  0  0  0  0  0  0  0
   -6.7292    7.0953   -7.2344 H   0  0  0  0  0  0  0  0  0  0  0  0
   -5.9317    5.3164   -5.7267 H   0  0  0  0  0  0  0  0  0  0  0  0
   -5.5657    9.7661   -8.1344 H   0  0  0  0  0  0  0  0  0  0  0  0
  1  2  1  0
  2  3  1  0
  3  4  1  0
  4  5  2  0
  4  6  1  0
  6  7  1  0
  7  8  1  0
  8  9  1  0
  9 10  2  0
  9 11  1  0
 11 12  1  0
 12 13  1  0
 13 14  1  0
 14 15  2  0
 14 16  1  0
 16 17  2  0
 16 18  1  0
 18 19  1  0
 19 20  1  0
 20 21  2  0
 21 22  1  0
 22 23  2  0
 23 24  1  0
 24 25  2  0
 18 26  1  0
 26 27  1  0
 27 28  2  0
 27 29  1  0
 29 30  1  0
 29 31  1  0
 31 32  1  0
 32 33  2  0
 32 34  1  0
 34 35  1  0
 35 36  1  0
 36 37  2  0
 36 38  1  0
 38 39  1  0
 39 40  1  0
 40 41  2  0
 40 42  1  0
 42 43  1  0
 43 44  1  0
 44 45  2  0
 44 46  1  0
 46 47  1  0
 47 48  1  0
 48 49  2  0
 46 50  1  0
 50 51  1  0
 51 52  2  0
 52 53  1  0
 53 54  2  0
 54 55  1  0
 55 56  2  0
 42 57  1  0
 57 58  1  0
 58 59  1  0
 59 60  1  0
 60 61  2  3
 61 62  1  0
 61 63  1  0
 38 64  1  0
 64 65  1  0
 65 66  2  0
 66 67  1  0
 67 68  1  0
 68 69  2  0
 69 70  1  0
 70 71  2  0
 71 72  1  0
 72 73  2  0
 34 74  1  0
 74 75  1  0
 75 76  2  0
 75 77  1  0
 12 78  1  0
 78 79  2  0
 78 80  1  0
 80 81  1  0
 81 82  1  0
 82 83  1  0
 83 84  2  0
 83 85  1  0
 85 86  2  0
 85 87  1  0
 82 88  1  0
 88 89  1  0
 89 90  2  0
 90 91  1  0
 91 92  2  0
 92 93  1  0
 93 94  2  0
 92 95  1  0
  3 96  1  0
 96 97  1  0
 97 98  2  0
 98 99  1  0
 99100  2  0
100101  1  0
101102  2  0
100103  1  0
 48  7  1  0
 56 51  1  0
 69 65  1  0
 94 89  1  0
102 97  1  0
 25 20  1  0
 73 68  1  0
  1104  1  0
  1105  1  0
  2106  1  0
  3107  1  6
  6108  1  0
  7109  1  6
  8110  1  0
  8111  1  0
 11112  1  0
 12113  1  0
 13114  1  0
 18115  1  6
 19116  1  0
 19117  1  0
 21118  1  0
 22119  1  0
 23120  1  0
 24121  1  0
 25122  1  0
 26123  1  0
 29124  1  1
 30125  1  0
 30126  1  0
 30127  1  0
 31128  1  0
 34129  1  1
 35130  1  0
 38131  1  1
 39132  1  0
 42133  1  1
 43134  1  0
 46135  1  6
 47136  1  0
 50137  1  0
 50138  1  0
 52139  1  0
 53140  1  0
 54141  1  0
 55142  1  0
 56143  1  0
 57144  1  0
 57145  1  0
 58146  1  0
 58147  1  0
 59148  1  0
 59149  1  0
 62150  1  0
 62151  1  0
 63152  1  0
 63153  1  0
 64154  1  0
 64155  1  0
 66156  1  0
 67157  1  0
 70158  1  0
 71159  1  0
 72160  1  0
 73161  1  0
 74162  1  0
 74163  1  0
 77164  1  0
 77165  1  0
 80166  1  0
 81167  1  0
 82168  1  6
 87169  1  0
 88170  1  0
 88171  1  0
 90172  1  0
 91173  1  0
 93174  1  0
 94175  1  0
 95176  1  0
 96177  1  0
 96178  1  0
 98179  1  0
 99180  1  0
101181  1  0
102182  1  0
103183  1  0
M  END
>  <Ligand ID>  (1) 
LIG0002167

>  <Ligand>  (1) 
CID 44310242

>  <SMILES>  (1) 
NN[C@@H](C(=O)N[C@@H]1CC(=O)NC(NC(=O)C(=O)[C@H](Cc2ccccc2)NC(=O)[C@@H](C)NC(=O)[C@@H](NC(=O)[C@H](NC(=O)[C@@H](NC(=O)[C@@H](NC1=O)Cc1ccccc1)CCCN=C(N)N)Cc1c[nH]c2c1cccc2)CC(=O)N)C(=O)NN[C@@H](C(=O)C(=O)O)Cc1ccc(cc1)O)Cc1ccc(cc1)O

>  <CID>  (1) 
44310242.0

>  <ChEMBL ID>  (1) 
nan

>  <InChiKey>  (1) 
BXPSHOXUOUAVOO-DTLZHJRJSA-N

>  <InChi>  (1) 
InChI=1S/C68H80N18O17/c1-35-58(93)77-46(27-36-11-4-2-5-12-36)55(91)65(100)83-57(66(101)86-85-47(56(92)67(102)103)28-38-18-22-41(87)23-19-38)82-54(90)33-51(81-64(99)52(84-72)30-39-20-24-42(88)25-21-39)63(98)78-48(29-37-13-6-3-7-14-37)61(96)76-45(17-10-26-73-68(70)71)59(94)79-49(31-40-34-74-44-16-9-8-15-43(40)44)62(97)80-50(32-53(69)89)60(95)75-35/h2-9,11-16,18-25,34-35,45-52,57,74,84-85,87-88H,10,17,26-33,72H2,1H3,(H2,69,89)(H,75,95)(H,76,96)(H,77,93)(H,78,98)(H,79,94)(H,80,97)(H,81,99)(H,82,90)(H,83,100)(H,86,101)(H,102,103)(H4,70,71,73)/t35-,45+,46+,47-,48+,49-,50+,51-,52-,57?/m1/s1

>  <IUPAC Name>  (1) 
(3R)-3-[2-[(6S,9R,12S,15R,18S,21S,24R)-12-(2-amino-2-oxoethyl)-6,21-dibenzyl-18-[3-(diaminomethylideneamino)propyl]-24-[[(2R)-2-hydrazinyl-3-(4-hydroxyphenyl)propanoyl]amino]-15-(1H-indol-3-ylmethyl)-9-methyl-4,5,8,11,14,17,20,23,26-nonaoxo-1,3,7,10,13,16,19,22-octazacyclohexacosane-2-carbonyl]hydrazinyl]-4-(4-hydroxyphenyl)-2-oxobutanoic acid

$$$$
