
     RDKit          3D

 59 61  0  0  0  0  0  0  0  0999 V2000
   -2.2014    6.6870   -0.7574 O   0  0  0  0  0  0  0  0  0  0  0  0
   -1.4439    5.6475   -0.1613 C   0  0  0  0  0  0  0  0  0  0  0  0
   -0.1619    5.4186   -0.9335 C   0  0  0  0  0  0  0  0  0  0  0  0
    0.5661    4.3290   -0.2091 N   0  0  0  0  0  0  0  0  0  0  0  0
   -0.0648    3.1281   -0.1939 C   0  0  0  0  0  0  0  0  0  0  0  0
    0.8500    2.7156    1.1361 N   0  0  0  0  0  0  0  0  0  0  0  0
    0.7509    1.5997    1.7255 C   0  0  0  0  0  0  0  0  0  0  0  0
    1.6897    1.3472    3.2730 S   0  0  0  0  0  0  0  0  0  0  0  0
    3.3692    0.8486    3.0320 C   0  0  0  0  0  0  0  0  0  0  0  0
    3.5086   -0.4366    2.3656 C   0  0  0  0  0  0  0  0  0  0  0  0
    3.3315   -1.6751    2.9872 C   0  0  0  0  0  0  0  0  0  0  0  0
    3.5795   -2.8571    2.3179 C   0  0  0  0  0  0  0  0  0  0  0  0
    4.0033   -2.7828    1.0326 N   0  0  0  0  0  0  0  0  0  0  0  0
    4.1931   -1.6369    0.3791 C   0  0  0  0  0  0  0  0  0  0  0  0
    3.9509   -0.4143    1.0195 C   0  0  0  0  0  0  0  0  0  0  0  0
    4.7318   -1.5306   -0.9719 C   0  0  0  0  0  0  0  0  0  0  0  0
    4.8702   -0.4419   -1.5828 O   0  0  0  0  0  0  0  0  0  0  0  0
    5.1207   -2.7639   -1.5981 N   0  0  0  0  0  0  0  0  0  0  0  0
    5.6998   -2.7310   -2.9350 C   0  0  0  0  0  0  0  0  0  0  0  0
   -0.0781    0.5107    1.4357 C   0  0  0  0  0  0  0  0  0  0  0  0
   -0.8827    0.8066    0.3054 C   0  0  0  0  0  0  0  0  0  0  0  0
   -0.6562    2.0022   -0.1795 C   0  0  0  0  0  0  0  0  0  0  0  0
   -1.5573    2.2150   -1.4759 C   0  0  0  0  0  0  0  0  0  0  0  0
   -2.1932    2.3827   -2.4172 N   0  0  0  0  0  0  0  0  0  0  0  0
   -1.8335   -0.1877   -0.1429 C   0  0  0  0  0  0  0  0  0  0  0  0
   -1.4377   -1.2265   -0.9271 C   0  0  0  0  0  0  0  0  0  0  0  0
   -2.3941   -2.1356   -1.3405 C   0  0  0  0  0  0  0  0  0  0  0  0
   -3.7339   -2.0069   -0.9767 C   0  0  0  0  0  0  0  0  0  0  0  0
   -4.1098   -0.9684   -0.1982 N   0  0  0  0  0  0  0  0  0  0  0  0
   -3.1693   -0.1034    0.1916 C   0  0  0  0  0  0  0  0  0  0  0  0
   -4.5966   -2.9785   -1.4526 O   0  0  0  0  0  0  0  0  0  0  0  0
   -5.9703   -2.9813   -1.1892 C   0  0  0  0  0  0  0  0  0  0  0  0
   -6.2962   -3.0523    0.2650 C   0  0  0  0  0  0  0  0  0  0  0  0
   -5.7864   -4.2116    0.8751 O   0  0  0  0  0  0  0  0  0  0  0  0
   -0.1188   -0.6865    2.1411 C   0  0  0  0  0  0  0  0  0  0  0  0
   -0.1358   -1.6710    2.7129 N   0  0  0  0  0  0  0  0  0  0  0  0
   -2.3725    6.4013   -1.7019 H   0  0  0  0  0  0  0  0  0  0  0  0
   -1.2513    5.8692    0.9060 H   0  0  0  0  0  0  0  0  0  0  0  0
   -2.0581    4.7175   -0.2372 H   0  0  0  0  0  0  0  0  0  0  0  0
    0.4488    6.3372   -0.8302 H   0  0  0  0  0  0  0  0  0  0  0  0
   -0.2918    5.2008   -1.9813 H   0  0  0  0  0  0  0  0  0  0  0  0
    1.4734    4.6653    0.1249 H   0  0  0  0  0  0  0  0  0  0  0  0
    3.9178    0.7597    4.0316 H   0  0  0  0  0  0  0  0  0  0  0  0
    3.9727    1.6240    2.4439 H   0  0  0  0  0  0  0  0  0  0  0  0
    3.0029   -1.7390    4.0057 H   0  0  0  0  0  0  0  0  0  0  0  0
    3.4289   -3.8036    2.8325 H   0  0  0  0  0  0  0  0  0  0  0  0
    4.0942    0.5331    0.5164 H   0  0  0  0  0  0  0  0  0  0  0  0
    4.9794   -3.6638   -1.0643 H   0  0  0  0  0  0  0  0  0  0  0  0
    5.5018   -1.7132   -3.3451 H   0  0  0  0  0  0  0  0  0  0  0  0
    6.8131   -2.8002   -2.8239 H   0  0  0  0  0  0  0  0  0  0  0  0
    5.3010   -3.4555   -3.6387 H   0  0  0  0  0  0  0  0  0  0  0  0
   -0.4056   -1.3822   -1.2555 H   0  0  0  0  0  0  0  0  0  0  0  0
   -2.0984   -2.9665   -1.9697 H   0  0  0  0  0  0  0  0  0  0  0  0
   -3.4824    0.7299    0.8222 H   0  0  0  0  0  0  0  0  0  0  0  0
   -6.4710   -2.0736   -1.6122 H   0  0  0  0  0  0  0  0  0  0  0  0
   -6.3985   -3.8907   -1.6920 H   0  0  0  0  0  0  0  0  0  0  0  0
   -5.9352   -2.1929    0.8703 H   0  0  0  0  0  0  0  0  0  0  0  0
   -7.4193   -3.1410    0.4005 H   0  0  0  0  0  0  0  0  0  0  0  0
   -6.1432   -4.1748    1.8094 H   0  0  0  0  0  0  0  0  0  0  0  0
  1  2  1  0
  2  3  1  0
  3  4  1  0
  4  5  1  0
  5  6  2  0
  6  7  1  0
  7  8  1  0
  8  9  1  0
  9 10  1  0
 10 11  2  0
 11 12  1  0
 12 13  2  0
 13 14  1  0
 14 15  2  0
 14 16  1  0
 16 17  2  0
 16 18  1  0
 18 19  1  0
  7 20  2  0
 20 21  1  0
 21 22  2  0
 22 23  1  0
 23 24  3  0
 21 25  1  0
 25 26  2  0
 26 27  1  0
 27 28  2  0
 28 29  1  0
 29 30  2  0
 28 31  1  0
 31 32  1  0
 32 33  1  0
 33 34  1  0
 20 35  1  0
 35 36  3  0
 22  5  1  0
 30 25  1  0
 15 10  1  0
  1 37  1  0
  2 38  1  0
  2 39  1  0
  3 40  1  0
  3 41  1  0
  4 42  1  0
  9 43  1  0
  9 44  1  0
 11 45  1  0
 12 46  1  0
 15 47  1  0
 18 48  1  0
 19 49  1  0
 19 50  1  0
 19 51  1  0
 26 52  1  0
 27 53  1  0
 30 54  1  0
 32 55  1  0
 32 56  1  0
 33 57  1  0
 33 58  1  0
 34 59  1  0
M  END
>  <Ligand ID>  (1) 
LIG0004676

>  <Ligand>  (1) 
SCHEMBL3373607

>  <SMILES>  (1) 
OCCNc1nc(SCc2ccnc(c2)C(=O)NC)c(c(c1C#N)c1ccc(nc1)OCCO)C#N

>  <CID>  (1) 
68617624.0

>  <ChEMBL ID>  (1) 
nan

>  <InChiKey>  (1) 
MPNXBQZUKWRSLD-UHFFFAOYSA-N

>  <InChi>  (1) 
InChI=1S/C24H23N7O4S/c1-27-23(34)19-10-15(4-5-28-19)14-36-24-18(12-26)21(17(11-25)22(31-24)29-6-7-32)16-2-3-20(30-13-16)35-9-8-33/h2-5,10,13,32-33H,6-9,14H2,1H3,(H,27,34)(H,29,31)

>  <IUPAC Name>  (1) 
4-[[3,5-dicyano-4-[6-(2-hydroxyethoxy)pyridin-3-yl]-6-(2-hydroxyethylamino)pyridin-2-yl]sulfanylmethyl]-N-methylpyridine-2-carboxamide

$$$$
