
     RDKit          3D

 26 27  0  0  0  0  0  0  0  0999 V2000
    3.6481    1.6118    0.0002 C   0  0  0  0  0  0  0  0  0  0  0  0
    2.8876    0.3197    0.0841 C   0  0  0  0  0  0  0  0  0  0  0  0
    3.5229   -0.9043    0.1014 C   0  0  0  0  0  0  0  0  0  0  0  0
    2.7371   -2.0231    0.1799 C   0  0  0  0  0  0  0  0  0  0  0  0
    1.3845   -1.9792    0.2404 N   0  0  0  0  0  0  0  0  0  0  0  0
    0.7393   -0.8044    0.2255 C   0  0  0  0  0  0  0  0  0  0  0  0
    1.5085    0.3350    0.1469 C   0  0  0  0  0  0  0  0  0  0  0  0
   -0.7168   -0.7939    0.2920 C   0  0  0  0  0  0  0  0  0  0  0  0
   -1.4092   -1.9540    0.3678 N   0  0  0  0  0  0  0  0  0  0  0  0
   -2.7533   -1.9748    0.4304 C   0  0  0  0  0  0  0  0  0  0  0  0
   -3.5223   -0.8267    0.4222 C   0  0  0  0  0  0  0  0  0  0  0  0
   -2.8479    0.3706    0.3458 C   0  0  0  0  0  0  0  0  0  0  0  0
   -1.4684    0.3624    0.2827 C   0  0  0  0  0  0  0  0  0  0  0  0
   -3.6131    1.6581    0.3321 C   0  0  0  0  0  0  0  0  0  0  0  0
    3.1625    2.1825   -0.8293 H   0  0  0  0  0  0  0  0  0  0  0  0
    4.6984    1.3725   -0.1818 H   0  0  0  0  0  0  0  0  0  0  0  0
    3.4407    2.1273    0.9594 H   0  0  0  0  0  0  0  0  0  0  0  0
    4.6004   -0.9281    0.0527 H   0  0  0  0  0  0  0  0  0  0  0  0
    3.2569   -2.9845    0.1924 H   0  0  0  0  0  0  0  0  0  0  0  0
    1.0378    1.3075    0.1317 H   0  0  0  0  0  0  0  0  0  0  0  0
   -3.3005   -2.9146    0.4912 H   0  0  0  0  0  0  0  0  0  0  0  0
   -4.6030   -0.8297    0.4720 H   0  0  0  0  0  0  0  0  0  0  0  0
   -0.9863    1.3261    0.2240 H   0  0  0  0  0  0  0  0  0  0  0  0
   -4.3372    1.6792    1.1669 H   0  0  0  0  0  0  0  0  0  0  0  0
   -4.1862    1.7612   -0.5987 H   0  0  0  0  0  0  0  0  0  0  0  0
   -2.8805    2.5033    0.4056 H   0  0  0  0  0  0  0  0  0  0  0  0
  1  2  1  0
  2  3  2  0
  3  4  1  0
  4  5  2  0
  5  6  1  0
  6  7  2  0
  6  8  1  0
  8  9  2  0
  9 10  1  0
 10 11  2  0
 11 12  1  0
 12 13  2  0
 12 14  1  0
  7  2  1  0
 13  8  1  0
  1 15  1  0
  1 16  1  0
  1 17  1  0
  3 18  1  0
  4 19  1  0
  7 20  1  0
 10 21  1  0
 11 22  1  0
 13 23  1  0
 14 24  1  0
 14 25  1  0
 14 26  1  0
M  END
>  <Ligand ID>  (1) 
LIG0003785

>  <Ligand>  (1) 
1134-35-6

>  <SMILES>  (1) 
Cc1ccnc(c1)c1nccc(c1)C

>  <CID>  (1) 
14338.0

>  <ChEMBL ID>  (1) 
nan

>  <InChiKey>  (1) 
NBPGPQJFYXNFKN-UHFFFAOYSA-N

>  <InChi>  (1) 
InChI=1S/C12H12N2/c1-9-3-5-13-11(7-9)12-8-10(2)4-6-14-12/h3-8H,1-2H3

>  <IUPAC Name>  (1) 
4-methyl-2-(4-methylpyridin-2-yl)pyridine

$$$$
