
     RDKit          3D

 55 58  0  0  0  0  0  0  0  0999 V2000
    3.1635    2.6931    2.1527 C   0  0  0  0  0  0  0  0  0  0  0  0
    2.4519    2.1269    1.0009 C   0  0  0  0  0  0  0  0  0  0  0  0
    2.8606    2.1004   -0.2085 N   0  0  0  0  0  0  0  0  0  0  0  0
    4.1359    2.6605   -0.5638 C   0  0  0  0  0  0  0  0  0  0  0  0
    5.2441    1.6707   -0.5632 C   0  0  0  0  0  0  0  0  0  0  0  0
    5.5138    0.9618   -1.7246 C   0  0  0  0  0  0  0  0  0  0  0  0
    6.5437    0.0250   -1.7747 C   0  0  0  0  0  0  0  0  0  0  0  0
    7.3284   -0.2233   -0.6594 C   0  0  0  0  0  0  0  0  0  0  0  0
    7.0600    0.4819    0.4956 C   0  0  0  0  0  0  0  0  0  0  0  0
    6.0335    1.4117    0.5352 C   0  0  0  0  0  0  0  0  0  0  0  0
    8.3387   -1.1300   -0.6771 F   0  0  0  0  0  0  0  0  0  0  0  0
    1.1573    1.5414    1.2420 N   0  0  0  0  0  0  0  0  0  0  0  0
    0.7442    0.3202    0.6579 C   0  0  0  0  0  0  0  0  0  0  0  0
    1.5197   -0.4669   -0.1506 C   0  0  0  0  0  0  0  0  0  0  0  0
    1.0650   -1.6601   -0.7084 C   0  0  0  0  0  0  0  0  0  0  0  0
   -0.2200   -2.0983   -0.4550 C   0  0  0  0  0  0  0  0  0  0  0  0
   -1.0157   -1.3225    0.3551 C   0  0  0  0  0  0  0  0  0  0  0  0
   -0.5531   -0.1438    0.9004 C   0  0  0  0  0  0  0  0  0  0  0  0
   -2.3230   -1.9791    0.4842 C   0  0  1  0  0  0  0  0  0  0  0  0
   -3.3908   -1.2333   -0.1533 N   0  0  0  0  0  0  0  0  0  0  0  0
   -4.5174   -0.8225    0.5902 C   0  0  0  0  0  0  0  0  0  0  0  0
   -4.5801   -1.1134    1.8136 O   0  0  0  0  0  0  0  0  0  0  0  0
   -5.6310   -0.0709    0.0237 C   0  0  0  0  0  0  0  0  0  0  0  0
   -6.6781    0.2688    0.8608 C   0  0  0  0  0  0  0  0  0  0  0  0
   -7.7352    0.9839    0.3170 C   0  0  0  0  0  0  0  0  0  0  0  0
   -7.7787    1.3622   -1.0079 C   0  0  0  0  0  0  0  0  0  0  0  0
   -6.7302    1.0221   -1.8467 C   0  0  0  0  0  0  0  0  0  0  0  0
   -5.6860    0.3132   -1.2999 C   0  0  0  0  0  0  0  0  0  0  0  0
   -9.2734    2.3467   -1.6777 Br  0  0  0  0  0  0  0  0  0  0  0  0
   -2.1422   -3.3646   -0.0520 C   0  0  1  0  0  0  0  0  0  0  0  0
   -0.9300   -3.3099   -0.9231 C   0  0  0  0  0  0  0  0  0  0  0  0
   -2.0741   -4.3411    0.9344 O   0  0  0  0  0  0  0  0  0  0  0  0
    3.7733    1.8563    2.5973 H   0  0  0  0  0  0  0  0  0  0  0  0
    3.7825    3.5673    1.9634 H   0  0  0  0  0  0  0  0  0  0  0  0
    2.4461    2.9537    2.9895 H   0  0  0  0  0  0  0  0  0  0  0  0
    4.1014    3.1028   -1.6040 H   0  0  0  0  0  0  0  0  0  0  0  0
    4.4549    3.5023    0.0781 H   0  0  0  0  0  0  0  0  0  0  0  0
    4.9362    1.1064   -2.6405 H   0  0  0  0  0  0  0  0  0  0  0  0
    6.7485   -0.5198   -2.6728 H   0  0  0  0  0  0  0  0  0  0  0  0
    7.6750    0.2855    1.3648 H   0  0  0  0  0  0  0  0  0  0  0  0
    5.8679    1.9311    1.4500 H   0  0  0  0  0  0  0  0  0  0  0  0
    0.4820    2.0392    1.8852 H   0  0  0  0  0  0  0  0  0  0  0  0
    2.5311   -0.1881   -0.3848 H   0  0  0  0  0  0  0  0  0  0  0  0
    1.7058   -2.2570   -1.3430 H   0  0  0  0  0  0  0  0  0  0  0  0
   -1.2237    0.4404    1.5397 H   0  0  0  0  0  0  0  0  0  0  0  0
   -2.6256   -2.1065    1.5624 H   0  0  0  0  0  0  0  0  0  0  0  0
   -3.3227   -1.0002   -1.1702 H   0  0  0  0  0  0  0  0  0  0  0  0
   -6.6891   -0.0051    1.9045 H   0  0  0  0  0  0  0  0  0  0  0  0
   -8.5493    1.2358    1.0143 H   0  0  0  0  0  0  0  0  0  0  0  0
   -6.7302    1.3061   -2.9083 H   0  0  0  0  0  0  0  0  0  0  0  0
   -4.8742    0.0548   -1.9665 H   0  0  0  0  0  0  0  0  0  0  0  0
   -3.0288   -3.5778   -0.7147 H   0  0  0  0  0  0  0  0  0  0  0  0
   -0.3206   -4.2232   -0.6627 H   0  0  0  0  0  0  0  0  0  0  0  0
   -1.1656   -3.2914   -2.0063 H   0  0  0  0  0  0  0  0  0  0  0  0
   -1.8762   -3.8922    1.8067 H   0  0  0  0  0  0  0  0  0  0  0  0
  1  2  1  0
  2  3  2  3
  3  4  1  0
  4  5  1  0
  5  6  2  0
  6  7  1  0
  7  8  2  0
  8  9  1  0
  9 10  2  0
  8 11  1  0
  2 12  1  0
 12 13  1  0
 13 14  2  0
 14 15  1  0
 15 16  2  0
 16 17  1  0
 17 18  2  0
 17 19  1  0
 19 20  1  0
 20 21  1  0
 21 22  2  0
 21 23  1  0
 23 24  2  0
 24 25  1  0
 25 26  2  0
 26 27  1  0
 27 28  2  0
 26 29  1  0
 19 30  1  0
 30 31  1  0
 30 32  1  0
 10  5  1  0
 18 13  1  0
 28 23  1  0
 31 16  1  0
  1 33  1  0
  1 34  1  0
  1 35  1  0
  4 36  1  0
  4 37  1  0
  6 38  1  0
  7 39  1  0
  9 40  1  0
 10 41  1  0
 12 42  1  0
 14 43  1  0
 15 44  1  0
 18 45  1  0
 19 46  1  1
 20 47  1  0
 24 48  1  0
 25 49  1  0
 27 50  1  0
 28 51  1  0
 30 52  1  6
 31 53  1  0
 31 54  1  0
 32 55  1  0
M  END
>  <Ligand ID>  (1) 
LIG0003262

>  <Ligand>  (1) 
CHEMBL3618440

>  <SMILES>  (1) 
CC(=NCc1ccc(cc1)F)Nc1ccc2c(c1)[C@@H](NC(=O)c1ccc(cc1)Br)[C@@H](C2)O

>  <CID>  (1) 
59654579.0

>  <ChEMBL ID>  (1) 
nan

>  <InChiKey>  (1) 
JVWDGMMGXIGYDW-DNQXCXABSA-N

>  <InChi>  (1) 
InChI=1S/C25H23BrFN3O2/c1-15(28-14-16-2-9-20(27)10-3-16)29-21-11-6-18-12-23(31)24(22(18)13-21)30-25(32)17-4-7-19(26)8-5-17/h2-11,13,23-24,31H,12,14H2,1H3,(H,28,29)(H,30,32)/t23-,24-/m1/s1

>  <IUPAC Name>  (1) 
4-bromo-N-[(1R,2R)-6-[[N-[(4-fluorophenyl)methyl]-C-methylcarbonimidoyl]amino]-2-hydroxy-2,3-dihydro-1H-inden-1-yl]benzamide

$$$$
