
     RDKit          3D

 50 54  0  0  0  0  0  0  0  0999 V2000
   -2.1503   -2.0579   -0.7464 C   0  0  0  0  0  0  0  0  0  0  0  0
   -0.9730   -1.1276   -0.7064 C   0  0  1  0  0  0  0  0  0  0  0  0
   -1.4226    0.3149   -0.6646 C   0  0  0  0  0  0  0  0  0  0  0  0
   -0.2643    1.2676   -0.7694 C   0  0  0  0  0  0  0  0  0  0  0  0
    1.0573    0.6611   -0.5244 C   0  0  0  0  0  0  0  0  0  0  0  0
    1.2351   -0.5944    0.0350 C   0  0  0  0  0  0  0  0  0  0  0  0
   -0.0212   -1.3442    0.4102 C   0  0  2  0  0  0  0  0  0  0  0  0
    0.3499   -2.8071    0.4838 C   0  0  0  0  0  0  0  0  0  0  0  0
   -0.4445   -0.7989    1.7454 C   0  0  0  0  0  0  0  0  0  0  0  0
   -1.2673    0.4139    1.7052 C   0  0  0  0  0  0  0  0  0  0  0  0
   -2.1991    0.4522    0.5610 N   0  0  0  0  0  0  0  0  0  0  0  0
   -2.9378    1.6865    0.6069 C   0  0  0  0  0  0  0  0  0  0  0  0
   -4.1635    1.8145   -0.1947 C   0  0  0  0  0  0  0  0  0  0  0  0
   -5.2470    0.8023    0.1976 C   0  0  0  0  0  0  0  0  0  0  0  0
   -4.7146    0.9509   -1.2174 C   0  0  0  0  0  0  0  0  0  0  0  0
    2.4473   -1.1642    0.2694 C   0  0  0  0  0  0  0  0  0  0  0  0
    3.5805   -0.4717   -0.0610 C   0  0  0  0  0  0  0  0  0  0  0  0
    3.4714    0.7791   -0.6199 C   0  0  0  0  0  0  0  0  0  0  0  0
    2.2154    1.3486   -0.8530 C   0  0  0  0  0  0  0  0  0  0  0  0
    4.7395    1.1861   -0.8238 N   0  0  0  0  0  0  0  0  0  0  0  0
    5.6101    0.2406   -0.4146 C   0  0  0  0  0  0  0  0  0  0  0  0
    4.8808   -0.7928    0.0610 N   0  0  0  0  0  0  0  0  0  0  0  0
    7.0885    0.2264   -0.4316 C   0  0  0  0  0  0  0  0  0  0  0  0
   -2.8331   -1.7662   -1.5607 H   0  0  0  0  0  0  0  0  0  0  0  0
   -1.7461   -3.0843   -1.0083 H   0  0  0  0  0  0  0  0  0  0  0  0
   -2.6625   -2.0826    0.2106 H   0  0  0  0  0  0  0  0  0  0  0  0
   -0.3997   -1.2258   -1.6694 H   0  0  0  0  0  0  0  0  0  0  0  0
   -2.0735    0.4967   -1.5083 H   0  0  0  0  0  0  0  0  0  0  0  0
   -0.1978    1.6649   -1.8271 H   0  0  0  0  0  0  0  0  0  0  0  0
   -0.3442    2.1802   -0.1539 H   0  0  0  0  0  0  0  0  0  0  0  0
    0.9844   -3.1103   -0.3518 H   0  0  0  0  0  0  0  0  0  0  0  0
    0.9025   -2.9716    1.4402 H   0  0  0  0  0  0  0  0  0  0  0  0
   -0.5593   -3.4507    0.5678 H   0  0  0  0  0  0  0  0  0  0  0  0
   -0.9597   -1.6426    2.2720 H   0  0  0  0  0  0  0  0  0  0  0  0
    0.4704   -0.5993    2.3654 H   0  0  0  0  0  0  0  0  0  0  0  0
   -0.7076    1.3636    1.6611 H   0  0  0  0  0  0  0  0  0  0  0  0
   -1.9191    0.4778    2.6090 H   0  0  0  0  0  0  0  0  0  0  0  0
   -2.2233    2.5500    0.4652 H   0  0  0  0  0  0  0  0  0  0  0  0
   -3.2429    1.8119    1.6940 H   0  0  0  0  0  0  0  0  0  0  0  0
   -4.5761    2.8795   -0.1871 H   0  0  0  0  0  0  0  0  0  0  0  0
   -4.9392   -0.1077    0.7078 H   0  0  0  0  0  0  0  0  0  0  0  0
   -6.2335    1.1685    0.4776 H   0  0  0  0  0  0  0  0  0  0  0  0
   -4.3079    0.0623   -1.6851 H   0  0  0  0  0  0  0  0  0  0  0  0
   -5.5195    1.4032   -1.8881 H   0  0  0  0  0  0  0  0  0  0  0  0
    2.5884   -2.1548    0.7059 H   0  0  0  0  0  0  0  0  0  0  0  0
    2.1863    2.3175   -1.2852 H   0  0  0  0  0  0  0  0  0  0  0  0
    4.9995    2.1004   -1.2389 H   0  0  0  0  0  0  0  0  0  0  0  0
    7.4880    1.2665   -0.3409 H   0  0  0  0  0  0  0  0  0  0  0  0
    7.5140   -0.1925   -1.3588 H   0  0  0  0  0  0  0  0  0  0  0  0
    7.4410   -0.3405    0.4510 H   0  0  0  0  0  0  0  0  0  0  0  0
  1  2  1  0
  2  3  1  0
  3  4  1  0
  4  5  1  0
  5  6  1  0
  6  7  1  0
  7  8  1  1
  7  9  1  0
  9 10  1  0
 10 11  1  0
 11 12  1  0
 12 13  1  0
 13 14  1  0
 14 15  1  0
  6 16  2  0
 16 17  1  0
 17 18  2  0
 18 19  1  0
 18 20  1  0
 20 21  1  0
 21 22  2  0
 21 23  1  0
  7  2  1  0
 15 13  1  0
 22 17  1  0
 11  3  1  0
 19  5  2  0
  1 24  1  0
  1 25  1  0
  1 26  1  0
  2 27  1  6
  3 28  1  0
  4 29  1  0
  4 30  1  0
  8 31  1  0
  8 32  1  0
  8 33  1  0
  9 34  1  0
  9 35  1  0
 10 36  1  0
 10 37  1  0
 12 38  1  0
 12 39  1  0
 13 40  1  0
 14 41  1  0
 14 42  1  0
 15 43  1  0
 15 44  1  0
 16 45  1  0
 19 46  1  0
 20 47  1  0
 23 48  1  0
 23 49  1  0
 23 50  1  0
M  END
>  <Ligand ID>  (1) 
LIG0005531

>  <Ligand>  (1) 
CHEMBL473699

>  <SMILES>  (1) 
C[C@H]1C2Cc3c([C@@]1(C)CCN2CC1CC1)cc1c(c3)[nH]c(n1)C

>  <CID>  (1) 
44591193.0

>  <ChEMBL ID>  (1) 
nan

>  <InChiKey>  (1) 
PVOGJENIZFDIAO-BFKPJKFSSA-N

>  <InChi>  (1) 
InChI=1S/C20H27N3/c1-12-19-9-15-8-17-18(22-13(2)21-17)10-16(15)20(12,3)6-7-23(19)11-14-4-5-14/h8,10,12,14,19H,4-7,9,11H2,1-3H3,(H,21,22)/t12-,19?,20-/m0/s1

>  <IUPAC Name>  (1) 
(1S,16R)-13-(cyclopropylmethyl)-1,6,16-trimethyl-5,7,13-triazatetracyclo[10.3.1.02,10.04,8]hexadeca-2,4(8),5,9-tetraene

$$$$
