
     RDKit          3D

 48 51  0  0  0  0  0  0  0  0999 V2000
    8.3322    0.0118   -0.3858 F   0  0  0  0  0  0  0  0  0  0  0  0
    7.0096    0.2061   -0.1654 C   0  0  0  0  0  0  0  0  0  0  0  0
    6.0968   -0.7085   -0.6412 C   0  0  0  0  0  0  0  0  0  0  0  0
    4.7488   -0.5135   -0.4184 C   0  0  0  0  0  0  0  0  0  0  0  0
    4.2473    0.5683    0.2686 C   0  0  0  0  0  0  0  0  0  0  0  0
    5.2001    1.4780    0.7379 C   0  0  0  0  0  0  0  0  0  0  0  0
    6.5427    1.3072    0.5303 C   0  0  0  0  0  0  0  0  0  0  0  0
    4.4908    2.4229    1.3609 N   0  0  0  0  0  0  0  0  0  0  0  0
    3.2157    2.1270    1.2857 N   0  0  0  0  0  0  0  0  0  0  0  0
    3.0139    0.9773    0.6141 N   0  0  0  0  0  0  0  0  0  0  0  0
    1.7696    0.3462    0.3516 C   0  0  0  0  0  0  0  0  0  0  0  0
    1.2978    0.3169   -1.0555 C   0  0  0  0  0  0  0  0  0  0  0  0
   -0.2021    0.0702   -1.0312 C   0  0  0  0  0  0  0  0  0  0  0  0
   -0.6672   -0.6111    0.0900 N   0  0  0  0  0  0  0  0  0  0  0  0
    0.1736   -1.3775    0.9112 C   0  0  0  0  0  0  0  0  0  0  0  0
    1.6192   -1.0299    0.9509 C   0  0  0  0  0  0  0  0  0  0  0  0
   -1.8813   -1.3220   -0.1682 C   0  0  0  0  0  0  0  0  0  0  0  0
   -3.0836   -0.4965   -0.2556 C   0  0  0  0  0  0  0  0  0  0  0  0
   -3.1908    0.8177    0.1284 C   0  0  0  0  0  0  0  0  0  0  0  0
   -4.3806    1.5365    0.0481 C   0  0  0  0  0  0  0  0  0  0  0  0
   -4.4207    2.9388    0.4832 C   0  0  0  0  0  0  0  0  0  0  0  0
   -5.5144    0.9025   -0.4426 C   0  0  0  0  0  0  0  0  0  0  0  0
   -5.4389   -0.4210   -0.8380 C   0  0  0  0  0  0  0  0  0  0  0  0
   -4.2381   -1.1022   -0.7426 C   0  0  0  0  0  0  0  0  0  0  0  0
   -4.2552   -2.5260   -1.1856 C   0  0  0  0  0  0  0  0  0  0  0  0
    6.4563   -1.5770   -1.1829 H   0  0  0  0  0  0  0  0  0  0  0  0
    4.0667   -1.2307   -0.7995 H   0  0  0  0  0  0  0  0  0  0  0  0
    7.2075    2.0607    0.9282 H   0  0  0  0  0  0  0  0  0  0  0  0
    0.9857    0.9548    0.9043 H   0  0  0  0  0  0  0  0  0  0  0  0
    1.5377    1.3009   -1.5306 H   0  0  0  0  0  0  0  0  0  0  0  0
    1.7267   -0.4634   -1.7072 H   0  0  0  0  0  0  0  0  0  0  0  0
   -0.5282   -0.4314   -1.9881 H   0  0  0  0  0  0  0  0  0  0  0  0
   -0.6546    1.0777   -1.1011 H   0  0  0  0  0  0  0  0  0  0  0  0
   -0.2131   -1.3129    1.9755 H   0  0  0  0  0  0  0  0  0  0  0  0
    0.0429   -2.4784    0.6860 H   0  0  0  0  0  0  0  0  0  0  0  0
    2.0449   -0.9350    1.9900 H   0  0  0  0  0  0  0  0  0  0  0  0
    2.1661   -1.8253    0.4524 H   0  0  0  0  0  0  0  0  0  0  0  0
   -1.8325   -1.9008   -1.1308 H   0  0  0  0  0  0  0  0  0  0  0  0
   -2.0100   -2.1365    0.6022 H   0  0  0  0  0  0  0  0  0  0  0  0
   -2.3195    1.3252    0.5208 H   0  0  0  0  0  0  0  0  0  0  0  0
   -5.4942    3.2119    0.6730 H   0  0  0  0  0  0  0  0  0  0  0  0
   -4.0474    3.5985   -0.3097 H   0  0  0  0  0  0  0  0  0  0  0  0
   -3.8924    3.0657    1.4563 H   0  0  0  0  0  0  0  0  0  0  0  0
   -6.4431    1.4368   -0.5164 H   0  0  0  0  0  0  0  0  0  0  0  0
   -6.3328   -0.8916   -1.2169 H   0  0  0  0  0  0  0  0  0  0  0  0
   -4.4080   -2.6493   -2.2670 H   0  0  0  0  0  0  0  0  0  0  0  0
   -5.1454   -2.9996   -0.6740 H   0  0  0  0  0  0  0  0  0  0  0  0
   -3.3985   -3.1196   -0.8414 H   0  0  0  0  0  0  0  0  0  0  0  0
  1  2  1  0
  2  3  2  0
  3  4  1  0
  4  5  2  0
  5  6  1  0
  6  7  2  0
  6  8  1  0
  8  9  2  0
  9 10  1  0
 10 11  1  0
 11 12  1  0
 12 13  1  0
 13 14  1  0
 14 15  1  0
 15 16  1  0
 14 17  1  0
 17 18  1  0
 18 19  2  0
 19 20  1  0
 20 21  1  0
 20 22  2  0
 22 23  1  0
 23 24  2  0
 24 25  1  0
  7  2  1  0
 16 11  1  0
 24 18  1  0
 10  5  1  0
  3 26  1  0
  4 27  1  0
  7 28  1  0
 11 29  1  0
 12 30  1  0
 12 31  1  0
 13 32  1  0
 13 33  1  0
 15 34  1  0
 15 35  1  0
 16 36  1  0
 16 37  1  0
 17 38  1  0
 17 39  1  0
 19 40  1  0
 21 41  1  0
 21 42  1  0
 21 43  1  0
 22 44  1  0
 23 45  1  0
 25 46  1  0
 25 47  1  0
 25 48  1  0
M  END
>  <Ligand ID>  (1) 
LIG0003702

>  <Ligand>  (1) 
MLS000076503

>  <SMILES>  (1) 
Fc1ccc2c(c1)nnn2C1CCN(CC1)Cc1cc(C)ccc1C

>  <CID>  (1) 
650506.0

>  <ChEMBL ID>  (1) 
nan

>  <InChiKey>  (1) 
NZZQSURXSGKBES-UHFFFAOYSA-N

>  <InChi>  (1) 
InChI=1S/C20H23FN4/c1-14-3-4-15(2)16(11-14)13-24-9-7-18(8-10-24)25-20-6-5-17(21)12-19(20)22-23-25/h3-6,11-12,18H,7-10,13H2,1-2H3

>  <IUPAC Name>  (1) 
1-[1-[(2,5-dimethylphenyl)methyl]piperidin-4-yl]-5-fluorobenzotriazole

$$$$
