
     RDKit          3D

 58 60  0  0  0  0  0  0  0  0999 V2000
    8.5821    3.5382    0.2728 C   0  0  0  0  0  0  0  0  0  0  0  0
    7.7122    2.3391    0.4961 C   0  0  0  0  0  0  0  0  0  0  0  0
    6.2934    2.7002    0.5589 N   0  0  0  0  0  0  0  0  0  0  0  0
    5.2879    1.7313    0.7627 C   0  0  0  0  0  0  0  0  0  0  0  0
    3.9768    2.0080    0.8147 N   0  0  0  0  0  0  0  0  0  0  0  0
    3.0279    1.0721    1.0084 C   0  0  0  0  0  0  0  0  0  0  0  0
    1.6303    1.5352    1.0480 C   0  0  0  0  0  0  0  0  0  0  0  0
    0.8357    0.4835    1.8083 C   0  0  0  0  0  0  0  0  0  0  0  0
    1.0627   -0.8276    1.2200 N   0  0  0  0  0  0  0  0  0  0  0  0
    2.4356   -1.3444    1.3680 C   0  0  0  0  0  0  0  0  0  0  0  0
    3.4055   -0.2607    1.1652 C   0  0  0  0  0  0  0  0  0  0  0  0
    4.7457   -0.5610    1.1149 C   0  0  0  0  0  0  0  0  0  0  0  0
    5.6465    0.4488    0.9145 N   0  0  0  0  0  0  0  0  0  0  0  0
    5.3121   -1.8862    1.2703 C   0  0  0  0  0  0  0  0  0  0  0  0
    6.5810   -2.0595    1.1771 O   0  0  0  0  0  0  0  0  0  0  0  0
    4.5752   -3.0695    1.5280 N   0  0  0  0  0  0  0  0  0  0  0  0
    0.0560   -1.5660    0.5455 C   0  0  0  0  0  0  0  0  0  0  0  0
    0.3117   -2.7125    0.0449 O   0  0  0  0  0  0  0  0  0  0  0  0
   -1.3059   -1.0187    0.4122 C   0  0  0  0  0  0  0  0  0  0  0  0
   -2.1542   -1.9252   -0.4403 C   0  0  0  0  0  0  0  0  0  0  0  0
   -3.5250   -1.4447   -0.6163 C   0  0  0  0  0  0  0  0  0  0  0  0
   -3.8245   -0.5927   -1.6675 C   0  0  0  0  0  0  0  0  0  0  0  0
   -5.1403   -0.1671   -1.7954 C   0  0  0  0  0  0  0  0  0  0  0  0
   -6.1349   -0.5599   -0.9255 C   0  0  0  0  0  0  0  0  0  0  0  0
   -5.8373   -1.4117    0.1261 C   0  0  0  0  0  0  0  0  0  0  0  0
   -4.5295   -1.8321    0.2498 C   0  0  0  0  0  0  0  0  0  0  0  0
   -7.5405   -0.0634   -1.1146 C   0  0  0  0  0  0  0  0  0  0  0  0
   -7.5434    1.4308   -0.8488 C   0  0  0  0  0  0  0  0  0  0  0  0
   -8.0003   -0.3653   -2.5117 C   0  0  0  0  0  0  0  0  0  0  0  0
    9.1822    3.7325    1.1892 H   0  0  0  0  0  0  0  0  0  0  0  0
    9.2572    3.3545   -0.5702 H   0  0  0  0  0  0  0  0  0  0  0  0
    7.9259    4.4265    0.1272 H   0  0  0  0  0  0  0  0  0  0  0  0
    7.9526    1.7838    1.4070 H   0  0  0  0  0  0  0  0  0  0  0  0
    7.7949    1.6296   -0.3550 H   0  0  0  0  0  0  0  0  0  0  0  0
    5.9952    3.7101    0.4505 H   0  0  0  0  0  0  0  0  0  0  0  0
    1.2542    1.4920   -0.0042 H   0  0  0  0  0  0  0  0  0  0  0  0
    1.4847    2.4989    1.5407 H   0  0  0  0  0  0  0  0  0  0  0  0
   -0.2308    0.7593    1.7428 H   0  0  0  0  0  0  0  0  0  0  0  0
    1.2264    0.4532    2.8369 H   0  0  0  0  0  0  0  0  0  0  0  0
    2.5757   -2.2299    0.7241 H   0  0  0  0  0  0  0  0  0  0  0  0
    2.4864   -1.6801    2.4203 H   0  0  0  0  0  0  0  0  0  0  0  0
    4.1845   -3.3333    2.4569 H   0  0  0  0  0  0  0  0  0  0  0  0
    4.3923   -3.7619    0.7409 H   0  0  0  0  0  0  0  0  0  0  0  0
   -1.2164   -0.0086   -0.0369 H   0  0  0  0  0  0  0  0  0  0  0  0
   -1.8356   -0.9751    1.4095 H   0  0  0  0  0  0  0  0  0  0  0  0
   -2.1942   -2.9019    0.0888 H   0  0  0  0  0  0  0  0  0  0  0  0
   -1.6966   -2.1226   -1.4313 H   0  0  0  0  0  0  0  0  0  0  0  0
   -3.0607   -0.2873   -2.3412 H   0  0  0  0  0  0  0  0  0  0  0  0
   -5.4073    0.5030   -2.6101 H   0  0  0  0  0  0  0  0  0  0  0  0
   -6.5990   -1.7347    0.8208 H   0  0  0  0  0  0  0  0  0  0  0  0
   -4.2429   -2.5078    1.0670 H   0  0  0  0  0  0  0  0  0  0  0  0
   -8.2334   -0.5348   -0.3814 H   0  0  0  0  0  0  0  0  0  0  0  0
   -6.5130    1.8395   -0.9528 H   0  0  0  0  0  0  0  0  0  0  0  0
   -7.8669    1.6101    0.1916 H   0  0  0  0  0  0  0  0  0  0  0  0
   -8.2274    1.9618   -1.5175 H   0  0  0  0  0  0  0  0  0  0  0  0
   -9.1024   -0.4108   -2.6057 H   0  0  0  0  0  0  0  0  0  0  0  0
   -7.6104   -1.3557   -2.8573 H   0  0  0  0  0  0  0  0  0  0  0  0
   -7.6176    0.4706   -3.1480 H   0  0  0  0  0  0  0  0  0  0  0  0
  1  2  1  0
  2  3  1  0
  3  4  1  0
  4  5  2  0
  5  6  1  0
  6  7  1  0
  7  8  1  0
  8  9  1  0
  9 10  1  0
 10 11  1  0
 11 12  1  0
 12 13  2  0
 12 14  1  0
 14 15  2  0
 14 16  1  0
  9 17  1  0
 17 18  2  0
 17 19  1  0
 19 20  1  0
 20 21  1  0
 21 22  2  0
 22 23  1  0
 23 24  2  0
 24 25  1  0
 25 26  2  0
 24 27  1  0
 27 28  1  0
 27 29  1  0
 13  4  1  0
 26 21  1  0
 11  6  2  0
  1 30  1  0
  1 31  1  0
  1 32  1  0
  2 33  1  0
  2 34  1  0
  3 35  1  0
  7 36  1  0
  7 37  1  0
  8 38  1  0
  8 39  1  0
 10 40  1  0
 10 41  1  0
 16 42  1  0
 16 43  1  0
 19 44  1  0
 19 45  1  0
 20 46  1  0
 20 47  1  0
 22 48  1  0
 23 49  1  0
 25 50  1  0
 26 51  1  0
 27 52  1  0
 28 53  1  0
 28 54  1  0
 28 55  1  0
 29 56  1  0
 29 57  1  0
 29 58  1  0
M  END
>  <Ligand ID>  (1) 
LIG0004422

>  <Ligand>  (1) 
CHEMBL2331646

>  <SMILES>  (1) 
CCNc1nc2CCN(Cc2c(n1)C(=O)N)C(=O)CCc1ccc(cc1)C(C)C

>  <CID>  (1) 
71541719.0

>  <ChEMBL ID>  (1) 
nan

>  <InChiKey>  (1) 
BXJNYBTXBRHAEU-UHFFFAOYSA-N

>  <InChi>  (1) 
InChI=1S/C22H29N5O2/c1-4-24-22-25-18-11-12-27(13-17(18)20(26-22)21(23)29)19(28)10-7-15-5-8-16(9-6-15)14(2)3/h5-6,8-9,14H,4,7,10-13H2,1-3H3,(H2,23,29)(H,24,25,26)

>  <IUPAC Name>  (1) 
2-(ethylamino)-6-[3-(4-propan-2-ylphenyl)propanoyl]-7,8-dihydro-5H-pyrido[4,3-d]pyrimidine-4-carboxamide

$$$$
