
     RDKit          3D

 20 19  0  0  0  0  0  0  0  0999 V2000
   -2.6607    0.2424    0.6471 C   0  0  0  0  0  0  0  0  0  0  0  0
   -1.5447    1.1541    0.2575 C   0  0  0  0  0  0  0  0  0  0  0  0
   -0.1750    0.6094    0.5074 C   0  0  0  0  0  0  0  0  0  0  0  0
    0.0190   -0.6622   -0.2709 C   0  0  0  0  0  0  0  0  0  0  0  0
    1.3825   -1.2768   -0.0681 C   0  0  0  0  0  0  0  0  0  0  0  0
    2.4783   -0.3872   -0.4800 C   0  0  0  0  0  0  0  0  0  0  0  0
    2.7162   -0.2358   -1.7215 O   0  0  0  0  0  0  0  0  0  0  0  0
    3.2838    0.3095    0.4145 O   0  0  0  0  0  0  0  0  0  0  0  0
   -3.2939   -0.0441   -0.2338 H   0  0  0  0  0  0  0  0  0  0  0  0
   -3.3869    0.7391    1.3473 H   0  0  0  0  0  0  0  0  0  0  0  0
   -2.3542   -0.6950    1.1354 H   0  0  0  0  0  0  0  0  0  0  0  0
   -1.6846    1.4724   -0.7890 H   0  0  0  0  0  0  0  0  0  0  0  0
   -1.6400    2.0872    0.8778 H   0  0  0  0  0  0  0  0  0  0  0  0
   -0.0590    0.4660    1.5952 H   0  0  0  0  0  0  0  0  0  0  0  0
    0.5554    1.3701    0.1894 H   0  0  0  0  0  0  0  0  0  0  0  0
   -0.1024   -0.4549   -1.3309 H   0  0  0  0  0  0  0  0  0  0  0  0
   -0.7232   -1.4069    0.1249 H   0  0  0  0  0  0  0  0  0  0  0  0
    1.5176   -1.6303    0.9692 H   0  0  0  0  0  0  0  0  0  0  0  0
    1.4170   -2.1880   -0.7049 H   0  0  0  0  0  0  0  0  0  0  0  0
    4.2547    0.5310    0.1940 H   0  0  0  0  0  0  0  0  0  0  0  0
  1  2  1  0
  2  3  1  0
  3  4  1  0
  4  5  1  0
  5  6  1  0
  6  7  2  0
  6  8  1  0
  1  9  1  0
  1 10  1  0
  1 11  1  0
  2 12  1  0
  2 13  1  0
  3 14  1  0
  3 15  1  0
  4 16  1  0
  4 17  1  0
  5 18  1  0
  5 19  1  0
  8 20  1  0
M  END
>  <Ligand ID>  (1) 
LIG0000012

>  <Ligand>  (1) 
caproic acid

>  <SMILES>  (1) 
CCCCCC(=O)O

>  <CID>  (1) 
8892.0

>  <ChEMBL ID>  (1) 
nan

>  <InChiKey>  (1) 
FUZZWVXGSFPDMH-UHFFFAOYSA-N

>  <InChi>  (1) 
InChI=1S/C6H12O2/c1-2-3-4-5-6(7)8/h2-5H2,1H3,(H,7,8)

>  <IUPAC Name>  (1) 
hexanoic acid

$$$$
