
     RDKit          3D

 51 53  0  0  0  0  0  0  0  0999 V2000
    0.3398   -2.8811   -1.0073 C   0  0  0  0  0  0  0  0  0  0  0  0
   -1.0391   -3.0144   -0.4719 C   0  0  0  0  0  0  0  0  0  0  0  0
   -1.6420   -1.7534    0.0088 N   0  0  0  0  0  0  0  0  0  0  0  0
   -0.8491   -0.6038    0.0828 C   0  0  0  0  0  0  0  0  0  0  0  0
    0.5007   -0.8018    0.2016 N   0  0  0  0  0  0  0  0  0  0  0  0
    1.4172    0.1265    0.3339 C   0  0  0  0  0  0  0  0  0  0  0  0
    2.7935   -0.1828    0.4517 N   0  0  0  0  0  0  0  0  0  0  0  0
    3.7651    0.3066   -0.5045 C   0  0  0  0  0  0  0  0  0  0  0  0
    4.7910   -0.7382   -0.8588 C   0  0  0  0  0  0  0  0  0  0  0  0
    5.1142   -1.5596    0.2076 O   0  0  0  0  0  0  0  0  0  0  0  0
    4.8104   -0.9604    1.4406 C   0  0  0  0  0  0  0  0  0  0  0  0
    3.2979   -1.0172    1.5540 C   0  0  0  0  0  0  0  0  0  0  0  0
    1.0461    1.4525    0.3629 C   0  0  0  0  0  0  0  0  0  0  0  0
   -0.3032    1.7131    0.2469 C   0  0  0  0  0  0  0  0  0  0  0  0
   -1.2509    0.7006    0.1069 C   0  0  0  0  0  0  0  0  0  0  0  0
   -2.6439    1.0780   -0.0263 C   0  0  0  0  0  0  0  0  0  0  0  0
   -2.8996    2.3866   -0.5927 N   0  0  0  0  0  0  0  0  0  0  0  0
   -3.8145    3.1554    0.2195 C   0  0  0  0  0  0  0  0  0  0  0  0
   -1.7734    3.1759   -0.9184 C   0  0  0  0  0  0  0  0  0  0  0  0
   -0.8083    3.1273    0.2681 C   0  0  0  0  0  0  0  0  0  0  0  0
    1.9872    2.5216    0.5046 C   0  0  0  0  0  0  0  0  0  0  0  0
    2.7476    3.4043    0.6355 N   0  0  0  0  0  0  0  0  0  0  0  0
   -3.0212   -1.9139    0.4364 C   0  0  0  0  0  0  0  0  0  0  0  0
   -3.9362   -2.2609   -0.7025 C   0  0  0  0  0  0  0  0  0  0  0  0
    1.1576   -2.9716   -0.2563 H   0  0  0  0  0  0  0  0  0  0  0  0
    0.4663   -2.0703   -1.7367 H   0  0  0  0  0  0  0  0  0  0  0  0
    0.5023   -3.8185   -1.6455 H   0  0  0  0  0  0  0  0  0  0  0  0
   -1.6781   -3.5420   -1.1872 H   0  0  0  0  0  0  0  0  0  0  0  0
   -0.9603   -3.7183    0.4089 H   0  0  0  0  0  0  0  0  0  0  0  0
    3.2040    0.5928   -1.4216 H   0  0  0  0  0  0  0  0  0  0  0  0
    4.2895    1.1904   -0.1255 H   0  0  0  0  0  0  0  0  0  0  0  0
    5.7309   -0.2716   -1.2201 H   0  0  0  0  0  0  0  0  0  0  0  0
    4.3994   -1.3583   -1.7168 H   0  0  0  0  0  0  0  0  0  0  0  0
    5.1252    0.0902    1.4259 H   0  0  0  0  0  0  0  0  0  0  0  0
    5.3268   -1.5415    2.2301 H   0  0  0  0  0  0  0  0  0  0  0  0
    2.9777   -2.0569    1.3383 H   0  0  0  0  0  0  0  0  0  0  0  0
    2.9391   -0.6185    2.5204 H   0  0  0  0  0  0  0  0  0  0  0  0
   -3.1697    1.1098    0.9765 H   0  0  0  0  0  0  0  0  0  0  0  0
   -3.2330    0.3830   -0.6537 H   0  0  0  0  0  0  0  0  0  0  0  0
   -4.7912    3.3290   -0.2865 H   0  0  0  0  0  0  0  0  0  0  0  0
   -3.4315    4.1822    0.4670 H   0  0  0  0  0  0  0  0  0  0  0  0
   -4.0005    2.5717    1.1540 H   0  0  0  0  0  0  0  0  0  0  0  0
   -1.1946    2.8311   -1.7964 H   0  0  0  0  0  0  0  0  0  0  0  0
   -2.0930    4.2332   -0.9912 H   0  0  0  0  0  0  0  0  0  0  0  0
   -1.3168    3.3046    1.2229 H   0  0  0  0  0  0  0  0  0  0  0  0
    0.0035    3.8501    0.1536 H   0  0  0  0  0  0  0  0  0  0  0  0
   -2.9845   -2.8742    1.0667 H   0  0  0  0  0  0  0  0  0  0  0  0
   -3.3847   -1.1625    1.1306 H   0  0  0  0  0  0  0  0  0  0  0  0
   -4.5006   -3.1990   -0.5075 H   0  0  0  0  0  0  0  0  0  0  0  0
   -3.3148   -2.4421   -1.6023 H   0  0  0  0  0  0  0  0  0  0  0  0
   -4.6986   -1.4838   -0.9271 H   0  0  0  0  0  0  0  0  0  0  0  0
  1  2  1  0
  2  3  1  0
  3  4  1  0
  4  5  2  0
  5  6  1  0
  6  7  1  0
  7  8  1  0
  8  9  1  0
  9 10  1  0
 10 11  1  0
 11 12  1  0
  6 13  2  0
 13 14  1  0
 14 15  2  0
 15 16  1  0
 16 17  1  0
 17 18  1  0
 17 19  1  0
 19 20  1  0
 13 21  1  0
 21 22  3  0
  3 23  1  0
 23 24  1  0
 15  4  1  0
 12  7  1  0
 20 14  1  0
  1 25  1  0
  1 26  1  0
  1 27  1  0
  2 28  1  0
  2 29  1  0
  8 30  1  0
  8 31  1  0
  9 32  1  0
  9 33  1  0
 11 34  1  0
 11 35  1  0
 12 36  1  0
 12 37  1  0
 16 38  1  0
 16 39  1  0
 18 40  1  0
 18 41  1  0
 18 42  1  0
 19 43  1  0
 19 44  1  0
 20 45  1  0
 20 46  1  0
 23 47  1  0
 23 48  1  0
 24 49  1  0
 24 50  1  0
 24 51  1  0
M  END
>  <Ligand ID>  (1) 
LIG0004372

>  <Ligand>  (1) 
SMR000037346

>  <SMILES>  (1) 
CCN(c1nc(N2CCOCC2)c(c2c1CN(C)CC2)C#N)CC

>  <CID>  (1) 
659395.0

>  <ChEMBL ID>  (1) 
nan

>  <InChiKey>  (1) 
NBAPZTQKBHEQEF-UHFFFAOYSA-N

>  <InChi>  (1) 
InChI=1S/C18H27N5O/c1-4-22(5-2)18-16-13-21(3)7-6-14(16)15(12-19)17(20-18)23-8-10-24-11-9-23/h4-11,13H2,1-3H3

>  <IUPAC Name>  (1) 
1-(diethylamino)-7-methyl-3-morpholin-4-yl-6,8-dihydro-5H-2,7-naphthyridine-4-carbonitrile

$$$$
