
     RDKit          3D

 43 46  0  0  0  0  0  0  0  0999 V2000
   -0.9663   -0.7792    2.2157 C   0  0  0  0  0  0  0  0  0  0  0  0
   -0.6933   -0.3754    0.7925 C   0  0  2  0  0  0  0  0  0  0  0  0
   -1.7163    0.5591    0.2483 C   0  0  0  0  0  0  0  0  0  0  0  0
   -1.4744    1.9374    0.1848 C   0  0  0  0  0  0  0  0  0  0  0  0
   -2.3973    2.8186   -0.3291 C   0  0  0  0  0  0  0  0  0  0  0  0
   -3.6118    2.3742   -0.8078 C   0  0  0  0  0  0  0  0  0  0  0  0
   -3.8783    1.0219   -0.7579 C   0  0  0  0  0  0  0  0  0  0  0  0
   -2.9371    0.1501   -0.2369 C   0  0  0  0  0  0  0  0  0  0  0  0
   -3.2781   -1.1828   -0.2149 C   0  0  0  0  0  0  0  0  0  0  0  0
   -4.4967   -1.6198   -0.6902 C   0  0  0  0  0  0  0  0  0  0  0  0
   -5.4268   -0.7459   -1.2074 C   0  0  0  0  0  0  0  0  0  0  0  0
   -5.1015    0.5956   -1.2368 C   0  0  0  0  0  0  0  0  0  0  0  0
   -0.3619   -1.4595   -0.0887 N   0  0  0  0  0  0  0  0  0  0  0  0
    0.8122   -2.1409    0.3533 C   0  0  0  0  0  0  0  0  0  0  0  0
    2.0270   -1.2979    0.4291 C   0  0  0  0  0  0  0  0  0  0  0  0
    2.5251   -0.5486    1.4749 C   0  0  0  0  0  0  0  0  0  0  0  0
    3.6873    0.0807    1.1016 C   0  0  0  0  0  0  0  0  0  0  0  0
    3.8992   -0.3007   -0.2142 C   0  0  0  0  0  0  0  0  0  0  0  0
    2.9015   -1.1181   -0.5905 N   0  0  0  0  0  0  0  0  0  0  0  0
    5.0146    0.1670   -0.9151 C   0  0  0  0  0  0  0  0  0  0  0  0
    5.8816    1.0142   -0.2437 C   0  0  0  0  0  0  0  0  0  0  0  0
    5.6647    1.3901    1.0663 C   0  0  0  0  0  0  0  0  0  0  0  0
    4.5632    0.9263    1.7537 C   0  0  0  0  0  0  0  0  0  0  0  0
   -0.3294   -0.2636    2.9627 H   0  0  0  0  0  0  0  0  0  0  0  0
   -0.9896   -1.8751    2.3766 H   0  0  0  0  0  0  0  0  0  0  0  0
   -2.0102   -0.4228    2.4593 H   0  0  0  0  0  0  0  0  0  0  0  0
    0.2737    0.2284    0.8580 H   0  0  0  0  0  0  0  0  0  0  0  0
   -0.5352    2.3495    0.5466 H   0  0  0  0  0  0  0  0  0  0  0  0
   -2.2176    3.8859   -0.3817 H   0  0  0  0  0  0  0  0  0  0  0  0
   -4.3391    3.0646   -1.2127 H   0  0  0  0  0  0  0  0  0  0  0  0
   -2.6096   -1.9070    0.1761 H   0  0  0  0  0  0  0  0  0  0  0  0
   -4.7238   -2.6883   -0.6527 H   0  0  0  0  0  0  0  0  0  0  0  0
   -6.3867   -1.1066   -1.5800 H   0  0  0  0  0  0  0  0  0  0  0  0
   -5.8388    1.2953   -1.6475 H   0  0  0  0  0  0  0  0  0  0  0  0
   -0.2753   -1.0484   -1.0432 H   0  0  0  0  0  0  0  0  0  0  0  0
    1.0457   -2.9887   -0.3525 H   0  0  0  0  0  0  0  0  0  0  0  0
    0.6443   -2.5515    1.3626 H   0  0  0  0  0  0  0  0  0  0  0  0
    2.0697   -0.4700    2.4389 H   0  0  0  0  0  0  0  0  0  0  0  0
    2.8307   -1.5377   -1.5263 H   0  0  0  0  0  0  0  0  0  0  0  0
    5.2005   -0.1133   -1.9327 H   0  0  0  0  0  0  0  0  0  0  0  0
    6.7667    1.3963   -0.7724 H   0  0  0  0  0  0  0  0  0  0  0  0
    6.3800    2.0541    1.5323 H   0  0  0  0  0  0  0  0  0  0  0  0
    4.4077    1.2325    2.7852 H   0  0  0  0  0  0  0  0  0  0  0  0
  1  2  1  0
  2  3  1  0
  3  4  2  0
  4  5  1  0
  5  6  2  0
  6  7  1  0
  7  8  2  0
  8  9  1  0
  9 10  2  0
 10 11  1  0
 11 12  2  0
  2 13  1  0
 13 14  1  0
 14 15  1  0
 15 16  2  0
 16 17  1  0
 17 18  2  0
 18 19  1  0
 18 20  1  0
 20 21  2  0
 21 22  1  0
 22 23  2  0
  8  3  1  0
 19 15  1  0
 12  7  1  0
 23 17  1  0
  1 24  1  0
  1 25  1  0
  1 26  1  0
  2 27  1  1
  4 28  1  0
  5 29  1  0
  6 30  1  0
  9 31  1  0
 10 32  1  0
 11 33  1  0
 12 34  1  0
 13 35  1  0
 14 36  1  0
 14 37  1  0
 16 38  1  0
 19 39  1  0
 20 40  1  0
 21 41  1  0
 22 42  1  0
 23 43  1  0
M  END
>  <Ligand ID>  (1) 
LIG0005443

>  <Ligand>  (1) 
calindol

>  <SMILES>  (1) 
C[C@H](c1cccc2c1cccc2)NCc1cc2c([nH]1)cccc2

>  <CID>  (1) 
9882793.0

>  <ChEMBL ID>  (1) 
nan

>  <InChiKey>  (1) 
JLPWXRZETODYFC-OAHLLOKOSA-N

>  <InChi>  (1) 
InChI=1S/C21H20N2/c1-15(19-11-6-9-16-7-2-4-10-20(16)19)22-14-18-13-17-8-3-5-12-21(17)23-18/h2-13,15,22-23H,14H2,1H3/t15-/m1/s1

>  <IUPAC Name>  (1) 
(1R)-N-(1H-indol-2-ylmethyl)-1-naphthalen-1-ylethanamine

$$$$
