
     RDKit          3D

 58 61  0  0  0  0  0  0  0  0999 V2000
    6.8327    2.9406    1.0485 N   0  0  0  0  0  0  0  0  0  0  0  0
    7.4570    2.0847    0.6260 C   0  0  0  0  0  0  0  0  0  0  0  0
    8.2243    0.9922    0.0966 C   0  0  0  0  0  0  0  0  0  0  0  0
    9.4927    1.1666   -0.4426 C   0  0  0  0  0  0  0  0  0  0  0  0
   10.2007    0.1238   -0.9376 N   0  0  0  0  0  0  0  0  0  0  0  0
    9.7072   -1.1260   -0.9290 C   0  0  0  0  0  0  0  0  0  0  0  0
    8.4549   -1.3578   -0.4070 C   0  0  0  0  0  0  0  0  0  0  0  0
    7.7353   -0.2988    0.0960 C   0  0  0  0  0  0  0  0  0  0  0  0
    6.3662   -0.5092    0.6736 C   0  0  0  0  0  0  0  0  0  0  0  0
    5.4576   -0.0483   -0.2874 O   0  0  0  0  0  0  0  0  0  0  0  0
    4.0797   -0.0675   -0.1357 C   0  0  0  0  0  0  0  0  0  0  0  0
    3.4441   -0.5483    0.9904 C   0  0  0  0  0  0  0  0  0  0  0  0
    2.1077   -0.5063    1.0019 N   0  0  0  0  0  0  0  0  0  0  0  0
    1.3328   -0.0387    0.0167 C   0  0  0  0  0  0  0  0  0  0  0  0
    1.9742    0.4299   -1.0827 N   0  0  0  0  0  0  0  0  0  0  0  0
    3.3160    0.4238   -1.1751 C   0  0  0  0  0  0  0  0  0  0  0  0
   -0.1065   -0.0279    0.1029 N   0  0  0  0  0  0  0  0  0  0  0  0
   -0.8335    0.4935   -1.0125 C   0  0  0  0  0  0  0  0  0  0  0  0
   -2.2290    0.9460   -0.7119 C   0  0  0  0  0  0  0  0  0  0  0  0
   -2.7139    0.5949    0.5939 N   0  0  0  0  0  0  0  0  0  0  0  0
   -1.7974    0.4079    1.7248 C   0  0  0  0  0  0  0  0  0  0  0  0
   -0.6872   -0.5476    1.3135 C   0  0  1  0  0  0  0  0  0  0  0  0
   -1.1589   -1.9577    1.1738 C   0  0  0  0  0  0  0  0  0  0  0  0
   -4.1152    0.4203    0.8180 C   0  0  0  0  0  0  0  0  0  0  0  0
   -4.5455    0.1172    1.9458 O   0  0  0  0  0  0  0  0  0  0  0  0
   -4.9961    0.5872   -0.2150 O   0  0  0  0  0  0  0  0  0  0  0  0
   -6.3690    0.4662   -0.2026 C   0  0  0  0  0  0  0  0  0  0  0  0
   -6.8313    0.7563   -1.6400 C   0  0  0  0  0  0  0  0  0  0  0  0
   -8.0261    0.0894   -1.7611 O   0  0  0  0  0  0  0  0  0  0  0  0
   -7.6945   -1.1687   -1.2544 C   0  0  0  0  0  0  0  0  0  0  0  0
   -6.9183   -0.9059    0.0234 C   0  0  0  0  0  0  0  0  0  0  0  0
   -7.1329    1.4235    0.6655 C   0  0  0  0  0  0  0  0  0  0  0  0
   -6.8097    1.3483    2.0057 F   0  0  0  0  0  0  0  0  0  0  0  0
   -8.4738    1.0403    0.5809 F   0  0  0  0  0  0  0  0  0  0  0  0
   -7.0861    2.7211    0.1838 F   0  0  0  0  0  0  0  0  0  0  0  0
    9.8943    2.1779   -0.4505 H   0  0  0  0  0  0  0  0  0  0  0  0
   10.2634   -1.9802   -1.3242 H   0  0  0  0  0  0  0  0  0  0  0  0
    8.0094   -2.3557   -0.3772 H   0  0  0  0  0  0  0  0  0  0  0  0
    6.2745   -0.0146    1.6513 H   0  0  0  0  0  0  0  0  0  0  0  0
    6.1854   -1.6094    0.8166 H   0  0  0  0  0  0  0  0  0  0  0  0
    4.0568   -0.9271    1.7902 H   0  0  0  0  0  0  0  0  0  0  0  0
    3.8091    0.8078   -2.0739 H   0  0  0  0  0  0  0  0  0  0  0  0
   -0.2562    1.3444   -1.4343 H   0  0  0  0  0  0  0  0  0  0  0  0
   -0.8404   -0.2848   -1.8285 H   0  0  0  0  0  0  0  0  0  0  0  0
   -2.9251    0.4711   -1.4635 H   0  0  0  0  0  0  0  0  0  0  0  0
   -2.3296    2.0348   -0.9153 H   0  0  0  0  0  0  0  0  0  0  0  0
   -1.2965    1.3694    1.9759 H   0  0  0  0  0  0  0  0  0  0  0  0
   -2.3159   -0.0300    2.5771 H   0  0  0  0  0  0  0  0  0  0  0  0
    0.0484   -0.5169    2.1472 H   0  0  0  0  0  0  0  0  0  0  0  0
   -2.0824   -2.1023    1.7686 H   0  0  0  0  0  0  0  0  0  0  0  0
   -1.3431   -2.2420    0.1156 H   0  0  0  0  0  0  0  0  0  0  0  0
   -0.4044   -2.6810    1.5567 H   0  0  0  0  0  0  0  0  0  0  0  0
   -6.0858    0.2347   -2.2955 H   0  0  0  0  0  0  0  0  0  0  0  0
   -6.8742    1.8278   -1.8499 H   0  0  0  0  0  0  0  0  0  0  0  0
   -7.0092   -1.6925   -1.9510 H   0  0  0  0  0  0  0  0  0  0  0  0
   -8.6255   -1.7287   -1.0810 H   0  0  0  0  0  0  0  0  0  0  0  0
   -6.1315   -1.6408    0.2110 H   0  0  0  0  0  0  0  0  0  0  0  0
   -7.6799   -0.9267    0.8534 H   0  0  0  0  0  0  0  0  0  0  0  0
  1  2  3  0
  2  3  1  0
  3  4  2  0
  4  5  1  0
  5  6  2  0
  6  7  1  0
  7  8  2  0
  8  9  1  0
  9 10  1  0
 10 11  1  0
 11 12  2  0
 12 13  1  0
 13 14  2  0
 14 15  1  0
 15 16  2  0
 14 17  1  0
 17 18  1  0
 18 19  1  0
 19 20  1  0
 20 21  1  0
 21 22  1  0
 22 23  1  0
 20 24  1  0
 24 25  2  0
 24 26  1  0
 26 27  1  0
 27 28  1  0
 28 29  1  0
 29 30  1  0
 30 31  1  0
 27 32  1  0
 32 33  1  0
 32 34  1  0
 32 35  1  0
  8  3  1  0
 16 11  1  0
 22 17  1  0
 31 27  1  0
  4 36  1  0
  6 37  1  0
  7 38  1  0
  9 39  1  0
  9 40  1  0
 12 41  1  0
 16 42  1  0
 18 43  1  0
 18 44  1  0
 19 45  1  0
 19 46  1  0
 21 47  1  0
 21 48  1  0
 22 49  1  1
 23 50  1  0
 23 51  1  0
 23 52  1  0
 28 53  1  0
 28 54  1  0
 30 55  1  0
 30 56  1  0
 31 57  1  0
 31 58  1  0
M  END
>  <Ligand ID>  (1) 
LIG0005294

>  <Ligand>  (1) 
CHEMBL3220236

>  <SMILES>  (1) 
N#Cc1cnccc1COc1cnc(nc1)N1CCN(C[C@H]1C)C(=O)OC1(COCC1)C(F)(F)F

>  <CID>  (1) 
90666910.0

>  <ChEMBL ID>  (1) 
nan

>  <InChiKey>  (1) 
PYMAMRCIPWXUOA-RBFZIWAESA-N

>  <InChi>  (1) 
InChI=1S/C22H23F3N6O4/c1-15-12-30(20(32)35-21(22(23,24)25)3-7-33-14-21)5-6-31(15)19-28-10-18(11-29-19)34-13-16-2-4-27-9-17(16)8-26/h2,4,9-11,15H,3,5-7,12-14H2,1H3/t15-,21?/m1/s1

>  <IUPAC Name>  (1) 
[3-(trifluoromethyl)oxolan-3-yl] (3R)-4-[5-[(3-cyanopyridin-4-yl)methoxy]pyrimidin-2-yl]-3-methylpiperazine-1-carboxylate

$$$$
