
     RDKit          3D

 61 65  0  0  0  0  0  0  0  0999 V2000
   -7.7993   -2.1229    1.1439 C   0  0  0  0  0  0  0  0  0  0  0  0
   -6.4747   -1.7872    0.7513 O   0  0  0  0  0  0  0  0  0  0  0  0
   -6.2237   -0.4742    0.3760 C   0  0  0  0  0  0  0  0  0  0  0  0
   -7.2276    0.4992    0.3779 C   0  0  0  0  0  0  0  0  0  0  0  0
   -6.9122    1.7887   -0.0068 C   0  0  0  0  0  0  0  0  0  0  0  0
   -5.6256    2.1178   -0.3889 C   0  0  0  0  0  0  0  0  0  0  0  0
   -4.6103    1.1668   -0.3988 C   0  0  0  0  0  0  0  0  0  0  0  0
   -4.9237   -0.1314   -0.0124 C   0  0  0  0  0  0  0  0  0  0  0  0
   -3.8843   -1.1755   -0.0057 C   0  0  0  0  0  0  0  0  0  0  0  0
   -3.8120   -2.0173    1.0905 C   0  0  0  0  0  0  0  0  0  0  0  0
   -2.8402   -2.9967    1.1008 C   0  0  0  0  0  0  0  0  0  0  0  0
   -1.9673   -3.1224    0.0360 C   0  0  0  0  0  0  0  0  0  0  0  0
   -2.0137   -2.3085   -1.0563 C   0  0  0  0  0  0  0  0  0  0  0  0
   -2.9963   -1.3182   -1.0673 C   0  0  0  0  0  0  0  0  0  0  0  0
   -1.1192   -2.3610   -2.2301 C   0  0  0  0  0  0  0  0  0  0  0  0
   -0.0460   -1.5072   -2.2451 O   0  0  0  0  0  0  0  0  0  0  0  0
    1.0476   -1.3087   -1.4906 C   0  0  0  0  0  0  0  0  0  0  0  0
    1.4479   -1.9888   -0.3703 C   0  0  0  0  0  0  0  0  0  0  0  0
    2.5960   -1.7060    0.3413 C   0  0  0  0  0  0  0  0  0  0  0  0
    3.3923   -0.6764   -0.0993 C   0  0  0  0  0  0  0  0  0  0  0  0
    3.0497    0.0474   -1.2175 C   0  0  0  0  0  0  0  0  0  0  0  0
    1.9046   -0.2635   -1.8947 C   0  0  0  0  0  0  0  0  0  0  0  0
    4.0641    1.0764   -1.4632 C   0  0  0  0  0  0  0  0  0  0  0  0
    5.0342    0.9072   -0.4018 N   0  0  0  0  0  0  0  0  0  0  0  0
    4.6301   -0.1597    0.4313 C   0  0  0  0  0  0  0  0  0  0  0  0
    5.2140   -0.6188    1.4689 O   0  0  0  0  0  0  0  0  0  0  0  0
    6.2359    1.6919   -0.2010 C   0  0  0  0  0  0  0  0  0  0  0  0
    6.3322    2.3868    1.0984 C   0  0  0  0  0  0  0  0  0  0  0  0
    7.4679    1.7988    1.8576 C   0  0  0  0  0  0  0  0  0  0  0  0
    8.4171    1.3432    0.7707 C   0  0  0  0  0  0  0  0  0  0  0  0
    7.4962    0.8495   -0.3328 C   0  0  0  0  0  0  0  0  0  0  0  0
   -5.3036    3.4810   -0.7929 C   0  0  0  0  0  0  0  0  0  0  0  0
   -4.1380    3.8313   -1.1516 O   0  0  0  0  0  0  0  0  0  0  0  0
   -6.3051    4.4517   -0.7909 O   0  0  0  0  0  0  0  0  0  0  0  0
   -7.8415   -3.1342    1.6042 H   0  0  0  0  0  0  0  0  0  0  0  0
   -8.2068   -1.4104    1.8904 H   0  0  0  0  0  0  0  0  0  0  0  0
   -8.4844   -2.1517    0.2548 H   0  0  0  0  0  0  0  0  0  0  0  0
   -8.2341    0.2421    0.6767 H   0  0  0  0  0  0  0  0  0  0  0  0
   -7.7123    2.5364    0.0014 H   0  0  0  0  0  0  0  0  0  0  0  0
   -3.5927    1.4267   -0.7009 H   0  0  0  0  0  0  0  0  0  0  0  0
   -4.4689   -1.9563    1.9396 H   0  0  0  0  0  0  0  0  0  0  0  0
   -2.7779   -3.6604    1.9574 H   0  0  0  0  0  0  0  0  0  0  0  0
   -1.2234   -3.9035    0.0692 H   0  0  0  0  0  0  0  0  0  0  0  0
   -3.1074   -0.6379   -1.8780 H   0  0  0  0  0  0  0  0  0  0  0  0
   -1.7930   -2.2107   -3.1346 H   0  0  0  0  0  0  0  0  0  0  0  0
   -0.7839   -3.4495   -2.3496 H   0  0  0  0  0  0  0  0  0  0  0  0
    0.8473   -2.7929   -0.0213 H   0  0  0  0  0  0  0  0  0  0  0  0
    2.8526   -2.2844    1.2195 H   0  0  0  0  0  0  0  0  0  0  0  0
    1.6515    0.3305   -2.7872 H   0  0  0  0  0  0  0  0  0  0  0  0
    3.6586    2.1153   -1.4993 H   0  0  0  0  0  0  0  0  0  0  0  0
    4.5943    0.9308   -2.4270 H   0  0  0  0  0  0  0  0  0  0  0  0
    6.2851    2.4645   -1.0258 H   0  0  0  0  0  0  0  0  0  0  0  0
    5.3845    2.4338    1.6715 H   0  0  0  0  0  0  0  0  0  0  0  0
    6.5980    3.4729    0.9343 H   0  0  0  0  0  0  0  0  0  0  0  0
    8.0283    2.5417    2.4645 H   0  0  0  0  0  0  0  0  0  0  0  0
    7.2292    0.9311    2.4936 H   0  0  0  0  0  0  0  0  0  0  0  0
    9.1189    0.5504    1.1022 H   0  0  0  0  0  0  0  0  0  0  0  0
    8.9750    2.2287    0.3532 H   0  0  0  0  0  0  0  0  0  0  0  0
    7.2424   -0.1986   -0.0814 H   0  0  0  0  0  0  0  0  0  0  0  0
    7.9445    0.9494   -1.3414 H   0  0  0  0  0  0  0  0  0  0  0  0
   -6.2911    5.2430   -1.4346 H   0  0  0  0  0  0  0  0  0  0  0  0
  1  2  1  0
  2  3  1  0
  3  4  2  0
  4  5  1  0
  5  6  2  0
  6  7  1  0
  7  8  2  0
  8  9  1  0
  9 10  2  0
 10 11  1  0
 11 12  2  0
 12 13  1  0
 13 14  2  0
 13 15  1  0
 15 16  1  0
 16 17  1  0
 17 18  2  0
 18 19  1  0
 19 20  2  0
 20 21  1  0
 21 22  2  0
 21 23  1  0
 23 24  1  0
 24 25  1  0
 25 26  2  0
 24 27  1  0
 27 28  1  0
 28 29  1  0
 29 30  1  0
 30 31  1  0
  6 32  1  0
 32 33  2  0
 32 34  1  0
  8  3  1  0
 14  9  1  0
 22 17  1  0
 31 27  1  0
 25 20  1  0
  1 35  1  0
  1 36  1  0
  1 37  1  0
  4 38  1  0
  5 39  1  0
  7 40  1  0
 10 41  1  0
 11 42  1  0
 12 43  1  0
 14 44  1  0
 15 45  1  0
 15 46  1  0
 18 47  1  0
 19 48  1  0
 22 49  1  0
 23 50  1  0
 23 51  1  0
 27 52  1  0
 28 53  1  0
 28 54  1  0
 29 55  1  0
 29 56  1  0
 30 57  1  0
 30 58  1  0
 31 59  1  0
 31 60  1  0
 34 61  1  0
M  END
>  <Ligand ID>  (1) 
LIG0000519

>  <Ligand>  (1) 
CHEMBL2179631

>  <SMILES>  (1) 
COc1ccc(cc1c1cccc(c1)COc1ccc2c(c1)CN(C2=O)C1CCCC1)C(=O)O

>  <CID>  (1) 
66799669.0

>  <ChEMBL ID>  (1) 
nan

>  <InChiKey>  (1) 
BUZSAAKSFZMGDU-UHFFFAOYSA-N

>  <InChi>  (1) 
InChI=1S/C28H27NO5/c1-33-26-12-9-20(28(31)32)15-25(26)19-6-4-5-18(13-19)17-34-23-10-11-24-21(14-23)16-29(27(24)30)22-7-2-3-8-22/h4-6,9-15,22H,2-3,7-8,16-17H2,1H3,(H,31,32)

>  <IUPAC Name>  (1) 
3-[3-[(2-cyclopentyl-1-oxo-3H-isoindol-5-yl)oxymethyl]phenyl]-4-methoxybenzoic acid

$$$$
