
     RDKit          3D

 50 54  0  0  0  0  0  0  0  0999 V2000
   -3.9466    5.7021    1.4341 Cl  0  0  0  0  0  0  0  0  0  0  0  0
   -3.1245    4.2131    1.0357 C   0  0  0  0  0  0  0  0  0  0  0  0
   -1.8177    3.9612    1.3315 C   0  0  0  0  0  0  0  0  0  0  0  0
   -1.2290    2.7474    0.9813 C   0  0  0  0  0  0  0  0  0  0  0  0
   -1.9090    1.7472    0.3306 C   0  0  0  0  0  0  0  0  0  0  0  0
   -3.2430    2.0085    0.0305 C   0  0  0  0  0  0  0  0  0  0  0  0
   -3.8348    3.2288    0.3823 C   0  0  0  0  0  0  0  0  0  0  0  0
   -1.3312    0.5050   -0.0167 N   0  0  0  0  0  0  0  0  0  0  0  0
    0.0051    0.1574    0.4017 C   0  0  0  0  0  0  0  0  0  0  0  0
    0.3594    0.4817    1.5858 O   0  0  0  0  0  0  0  0  0  0  0  0
    0.9521   -0.5541   -0.4968 C   0  0  0  0  0  0  0  0  0  0  0  0
    0.1850   -1.1430   -1.6550 C   0  0  0  0  0  0  0  0  0  0  0  0
   -1.0770   -1.1057   -1.7629 N   0  0  0  0  0  0  0  0  0  0  0  0
   -2.0028   -0.5044   -0.8192 C   0  0  0  0  0  0  0  0  0  0  0  0
   -2.5636   -1.6073    0.0024 C   0  0  0  0  0  0  0  0  0  0  0  0
   -2.9672   -2.7426   -0.6677 C   0  0  0  0  0  0  0  0  0  0  0  0
   -3.4889   -3.7687    0.0964 C   0  0  0  0  0  0  0  0  0  0  0  0
   -3.6106   -3.6893    1.4518 C   0  0  0  0  0  0  0  0  0  0  0  0
   -3.2047   -2.5564    2.0933 C   0  0  0  0  0  0  0  0  0  0  0  0
   -2.6775   -1.5052    1.3738 C   0  0  0  0  0  0  0  0  0  0  0  0
   -4.2963   -5.0789    2.3054 Cl  0  0  0  0  0  0  0  0  0  0  0  0
    0.9659   -1.7698   -2.6754 N   0  0  0  0  0  0  0  0  0  0  0  0
    2.1891   -1.0836   -3.0293 C   0  0  0  0  0  0  0  0  0  0  0  0
    3.1682   -1.6976   -4.1802 S   0  0  0  0  0  0  0  0  0  0  0  0
    2.4685    0.1212   -2.3298 N   0  0  0  0  0  0  0  0  0  0  0  0
    2.0444    0.3441   -0.9419 C   0  0  0  0  0  0  0  0  0  0  0  0
    3.2861    0.3135   -0.1467 C   0  0  0  0  0  0  0  0  0  0  0  0
    4.3664    1.0282   -0.6292 C   0  0  0  0  0  0  0  0  0  0  0  0
    5.5744    1.0501    0.0600 C   0  0  0  0  0  0  0  0  0  0  0  0
    5.7486    0.3662    1.2455 C   0  0  0  0  0  0  0  0  0  0  0  0
    4.6696   -0.3426    1.7196 C   0  0  0  0  0  0  0  0  0  0  0  0
    3.4632   -0.3646    1.0314 C   0  0  0  0  0  0  0  0  0  0  0  0
    7.2893    0.4307    2.0666 Cl  0  0  0  0  0  0  0  0  0  0  0  0
   -1.2573    4.7283    1.8428 H   0  0  0  0  0  0  0  0  0  0  0  0
   -0.1897    2.6482    1.2527 H   0  0  0  0  0  0  0  0  0  0  0  0
   -3.8881    1.3189   -0.4684 H   0  0  0  0  0  0  0  0  0  0  0  0
   -4.8905    3.4147    0.1355 H   0  0  0  0  0  0  0  0  0  0  0  0
    1.3118   -1.4311    0.1245 H   0  0  0  0  0  0  0  0  0  0  0  0
   -2.7701   -0.0077   -1.4144 H   0  0  0  0  0  0  0  0  0  0  0  0
   -2.8890   -2.8501   -1.7477 H   0  0  0  0  0  0  0  0  0  0  0  0
   -3.8135   -4.6751   -0.4187 H   0  0  0  0  0  0  0  0  0  0  0  0
   -3.2972   -2.4833    3.1712 H   0  0  0  0  0  0  0  0  0  0  0  0
   -2.3396   -0.5807    1.8388 H   0  0  0  0  0  0  0  0  0  0  0  0
    0.6659   -2.6491   -3.1246 H   0  0  0  0  0  0  0  0  0  0  0  0
    2.9957    0.8511   -2.8551 H   0  0  0  0  0  0  0  0  0  0  0  0
    1.6933    1.4204   -0.9360 H   0  0  0  0  0  0  0  0  0  0  0  0
    4.3464    1.6018   -1.5454 H   0  0  0  0  0  0  0  0  0  0  0  0
    6.4213    1.6197   -0.3329 H   0  0  0  0  0  0  0  0  0  0  0  0
    4.8116   -0.8780    2.6511 H   0  0  0  0  0  0  0  0  0  0  0  0
    2.6782   -0.9406    1.4719 H   0  0  0  0  0  0  0  0  0  0  0  0
  1  2  1  0
  2  3  2  0
  3  4  1  0
  4  5  2  0
  5  6  1  0
  6  7  2  0
  5  8  1  0
  8  9  1  0
  9 10  2  0
  9 11  1  0
 11 12  1  0
 12 13  2  0
 13 14  1  0
 14 15  1  0
 15 16  2  0
 16 17  1  0
 17 18  2  0
 18 19  1  0
 19 20  2  0
 18 21  1  0
 12 22  1  0
 22 23  1  0
 23 24  2  0
 23 25  1  0
 25 26  1  0
 26 27  1  0
 27 28  2  0
 28 29  1  0
 29 30  2  0
 30 31  1  0
 31 32  2  0
 30 33  1  0
  7  2  1  0
 14  8  1  0
 20 15  1  0
 32 27  1  0
 26 11  1  0
  3 34  1  0
  4 35  1  0
  6 36  1  0
  7 37  1  0
 11 38  1  0
 14 39  1  0
 16 40  1  0
 17 41  1  0
 19 42  1  0
 20 43  1  0
 22 44  1  0
 25 45  1  0
 26 46  1  0
 28 47  1  0
 29 48  1  0
 31 49  1  0
 32 50  1  0
M  END
>  <Ligand ID>  (1) 
LIG0005905

>  <Ligand>  (1) 
BDBM57212

>  <SMILES>  (1) 
Clc1ccc(cc1)N1C(=O)C2C(=NC1c1ccc(cc1)Cl)NC(=S)NC2c1ccc(cc1)Cl

>  <CID>  (1) 
91897295.0

>  <ChEMBL ID>  (1) 
nan

>  <InChiKey>  (1) 
UYOLVCDCNXOLBF-UHFFFAOYSA-N

>  <InChi>  (1) 
InChI=1S/C24H17Cl3N4OS/c25-15-5-1-13(2-6-15)20-19-21(30-24(33)28-20)29-22(14-3-7-16(26)8-4-14)31(23(19)32)18-11-9-17(27)10-12-18/h1-12,19-20,22H,(H2,28,29,30,33)

>  <IUPAC Name>  (1) 
4,6,7-tris(4-chlorophenyl)-2-sulfanylidene-3,4,4a,7-tetrahydro-1H-pyrimido[4,5-d]pyrimidin-5-one

$$$$
