
     RDKit          3D

 17 17  0  0  0  0  0  0  0  0999 V2000
    0.4962    2.6048    0.2015 O   0  0  0  0  0  0  0  0  0  0  0  0
    0.2868    1.4372   -0.0969 C   0  0  0  0  0  0  0  0  0  0  0  0
   -1.0899    0.9384   -0.3476 C   0  0  0  0  0  0  0  0  0  0  0  0
   -1.3200   -0.4498    0.1570 C   0  0  0  0  0  0  0  0  0  0  0  0
   -0.1429   -1.3533   -0.1709 C   0  0  0  0  0  0  0  0  0  0  0  0
    1.0263   -0.7368    0.6026 C   0  0  0  0  0  0  0  0  0  0  0  0
    1.4198    0.4688   -0.2193 C   0  0  0  0  0  0  0  0  0  0  0  0
   -1.7645    1.6131    0.2575 H   0  0  0  0  0  0  0  0  0  0  0  0
   -1.4048    1.1147   -1.3916 H   0  0  0  0  0  0  0  0  0  0  0  0
   -1.3707   -0.4131    1.2627 H   0  0  0  0  0  0  0  0  0  0  0  0
   -2.2675   -0.8226   -0.2817 H   0  0  0  0  0  0  0  0  0  0  0  0
    0.1116   -1.2815   -1.2682 H   0  0  0  0  0  0  0  0  0  0  0  0
   -0.3059   -2.3683    0.1814 H   0  0  0  0  0  0  0  0  0  0  0  0
    0.6582   -0.3701    1.5834 H   0  0  0  0  0  0  0  0  0  0  0  0
    1.8510   -1.4645    0.7250 H   0  0  0  0  0  0  0  0  0  0  0  0
    2.3770    0.9102    0.1136 H   0  0  0  0  0  0  0  0  0  0  0  0
    1.4394    0.1728   -1.3085 H   0  0  0  0  0  0  0  0  0  0  0  0
  1  2  2  0
  2  3  1  0
  3  4  1  0
  4  5  1  0
  5  6  1  0
  6  7  1  0
  7  2  1  0
  3  8  1  0
  3  9  1  0
  4 10  1  0
  4 11  1  0
  5 12  1  0
  5 13  1  0
  6 14  1  0
  6 15  1  0
  7 16  1  0
  7 17  1  0
M  END
>  <Ligand ID>  (1) 
LIG0000051

>  <Ligand>  (1) 
Cyclohexanone

>  <SMILES>  (1) 
O=C1CCCCC1

>  <CID>  (1) 
7967.0

>  <ChEMBL ID>  (1) 
nan

>  <InChiKey>  (1) 
JHIVVAPYMSGYDF-UHFFFAOYSA-N

>  <InChi>  (1) 
InChI=1S/C6H10O/c7-6-4-2-1-3-5-6/h1-5H2

>  <IUPAC Name>  (1) 
cyclohexanone

$$$$
