
     RDKit          3D

 54 58  0  0  0  0  0  0  0  0999 V2000
    2.8563    0.1521    1.9534 O   0  0  0  0  0  0  0  0  0  0  0  0
    2.4582    0.0423    0.7398 C   0  0  0  0  0  0  0  0  0  0  0  0
    1.0271    0.0888    0.5422 C   0  0  0  0  0  0  0  0  0  0  0  0
    0.3919    1.2855    0.7910 C   0  0  0  0  0  0  0  0  0  0  0  0
   -0.9541    1.4385    0.6548 C   0  0  0  0  0  0  0  0  0  0  0  0
   -1.6998    0.3146    0.2425 C   0  0  0  0  0  0  0  0  0  0  0  0
   -1.0907   -0.8650   -0.0031 N   0  0  0  0  0  0  0  0  0  0  0  0
    0.2626   -1.0170    0.1320 C   0  0  0  0  0  0  0  0  0  0  0  0
    0.9115   -2.0558   -0.1127 N   0  0  0  0  0  0  0  0  0  0  0  0
   -1.9026   -1.9730   -0.3877 C   0  0  0  0  0  0  0  0  0  0  0  0
   -2.5891   -2.5741    0.8378 C   0  0  0  0  0  0  0  0  0  0  0  0
   -3.8915   -3.1144    0.3503 C   0  0  0  0  0  0  0  0  0  0  0  0
   -4.2777   -2.2578   -0.8351 C   0  0  0  0  0  0  0  0  0  0  0  0
   -2.9625   -1.7412   -1.3983 C   0  0  0  0  0  0  0  0  0  0  0  0
   -3.0120    0.4999    0.1036 N   0  0  0  0  0  0  0  0  0  0  0  0
   -3.6317    1.6648    0.3243 C   0  0  0  0  0  0  0  0  0  0  0  0
   -2.9190    2.7468    0.7168 N   0  0  0  0  0  0  0  0  0  0  0  0
   -1.5843    2.6133    0.8772 C   0  0  0  0  0  0  0  0  0  0  0  0
   -0.8918    3.6037    1.2442 O   0  0  0  0  0  0  0  0  0  0  0  0
   -3.5696    3.9013    0.9167 C   0  0  0  0  0  0  0  0  0  0  0  0
   -4.9208    4.0241    0.7376 C   0  0  0  0  0  0  0  0  0  0  0  0
   -5.7015    2.9342    0.3323 C   0  0  0  0  0  0  0  0  0  0  0  0
   -4.9882    1.7586    0.1383 C   0  0  0  0  0  0  0  0  0  0  0  0
    3.3999   -0.1104   -0.3356 N   0  0  0  0  0  0  0  0  0  0  0  0
    4.8012   -0.1171    0.0478 C   0  0  0  0  0  0  0  0  0  0  0  0
    5.4815   -1.2402   -0.6850 C   0  0  0  0  0  0  0  0  0  0  0  0
    6.9343   -0.8329   -0.7080 C   0  0  0  0  0  0  0  0  0  0  0  0
    6.9681    0.6498   -0.5292 C   0  0  0  0  0  0  0  0  0  0  0  0
    5.5080    1.1040   -0.5314 C   0  0  0  0  0  0  0  0  0  0  0  0
    0.9765    2.1606    1.1178 H   0  0  0  0  0  0  0  0  0  0  0  0
    0.6605   -2.9588   -0.4082 H   0  0  0  0  0  0  0  0  0  0  0  0
   -1.2405   -2.7878   -0.7570 H   0  0  0  0  0  0  0  0  0  0  0  0
   -1.9693   -3.3691    1.2896 H   0  0  0  0  0  0  0  0  0  0  0  0
   -2.6831   -1.7816    1.5863 H   0  0  0  0  0  0  0  0  0  0  0  0
   -4.6229   -3.0581    1.1704 H   0  0  0  0  0  0  0  0  0  0  0  0
   -3.7876   -4.1712    0.0126 H   0  0  0  0  0  0  0  0  0  0  0  0
   -4.9549   -1.4506   -0.4904 H   0  0  0  0  0  0  0  0  0  0  0  0
   -4.8557   -2.8651   -1.5690 H   0  0  0  0  0  0  0  0  0  0  0  0
   -2.7933   -2.4106   -2.3041 H   0  0  0  0  0  0  0  0  0  0  0  0
   -3.0470   -0.7468   -1.8350 H   0  0  0  0  0  0  0  0  0  0  0  0
   -3.0136    4.7710    1.2344 H   0  0  0  0  0  0  0  0  0  0  0  0
   -5.4783    4.9459    0.8938 H   0  0  0  0  0  0  0  0  0  0  0  0
   -6.7653    3.0036    0.1840 H   0  0  0  0  0  0  0  0  0  0  0  0
   -5.5804    0.9046   -0.1744 H   0  0  0  0  0  0  0  0  0  0  0  0
    3.0716   -0.2146   -1.2986 H   0  0  0  0  0  0  0  0  0  0  0  0
    4.9355   -0.1262    1.1426 H   0  0  0  0  0  0  0  0  0  0  0  0
    5.3451   -2.2398   -0.2128 H   0  0  0  0  0  0  0  0  0  0  0  0
    5.0434   -1.2202   -1.7248 H   0  0  0  0  0  0  0  0  0  0  0  0
    7.4395   -1.3886    0.1268 H   0  0  0  0  0  0  0  0  0  0  0  0
    7.4413   -1.1713   -1.6381 H   0  0  0  0  0  0  0  0  0  0  0  0
    7.4774    0.8976    0.4092 H   0  0  0  0  0  0  0  0  0  0  0  0
    7.4495    1.1024   -1.4229 H   0  0  0  0  0  0  0  0  0  0  0  0
    5.3634    2.0162    0.0854 H   0  0  0  0  0  0  0  0  0  0  0  0
    5.1746    1.2350   -1.5737 H   0  0  0  0  0  0  0  0  0  0  0  0
  1  2  2  0
  2  3  1  0
  3  4  2  0
  4  5  1  0
  5  6  2  0
  6  7  1  0
  7  8  1  0
  8  9  2  3
  7 10  1  0
 10 11  1  0
 11 12  1  0
 12 13  1  0
 13 14  1  0
  6 15  1  0
 15 16  2  0
 16 17  1  0
 17 18  1  0
 18 19  2  0
 17 20  1  0
 20 21  2  0
 21 22  1  0
 22 23  2  0
  2 24  1  0
 24 25  1  0
 25 26  1  0
 26 27  1  0
 27 28  1  0
 28 29  1  0
  8  3  1  0
 14 10  1  0
 23 16  1  0
 29 25  1  0
 18  5  1  0
  4 30  1  0
  9 31  1  0
 10 32  1  0
 11 33  1  0
 11 34  1  0
 12 35  1  0
 12 36  1  0
 13 37  1  0
 13 38  1  0
 14 39  1  0
 14 40  1  0
 20 41  1  0
 21 42  1  0
 22 43  1  0
 23 44  1  0
 24 45  1  0
 25 46  1  0
 26 47  1  0
 26 48  1  0
 27 49  1  0
 27 50  1  0
 28 51  1  0
 28 52  1  0
 29 53  1  0
 29 54  1  0
M  END
>  <Ligand ID>  (1) 
LIG0003035

>  <Ligand>  (1) 
MLS000085137

>  <SMILES>  (1) 
O=C(c1cc2c(n(c1=N)C1CCCC1)nc1n(c2=O)cccc1)NC1CCCC1

>  <CID>  (1) 
3151386.0

>  <ChEMBL ID>  (1) 
nan

>  <InChiKey>  (1) 
WSMRFHOWYRGFDM-UHFFFAOYSA-N

>  <InChi>  (1) 
InChI=1S/C22H25N5O2/c23-19-16(21(28)24-14-7-1-2-8-14)13-17-20(27(19)15-9-3-4-10-15)25-18-11-5-6-12-26(18)22(17)29/h5-6,11-15,23H,1-4,7-10H2,(H,24,28)

>  <IUPAC Name>  (1) 
N,7-dicyclopentyl-6-imino-2-oxo-1,7,9-triazatricyclo[8.4.0.03,8]tetradeca-3(8),4,9,11,13-pentaene-5-carboxamide

$$$$
