
     RDKit          3D

 29 29  0  0  0  0  0  0  0  0999 V2000
    4.3591    0.5271   -1.0940 C   0  0  0  0  0  0  0  0  0  0  0  0
    3.4835    1.1601   -0.3189 C   0  0  0  0  0  0  0  0  0  0  0  0
    2.9294    0.5356    0.8972 C   0  0  0  0  0  0  0  0  0  0  0  0
    1.4463    0.4040    0.8498 C   0  0  0  0  0  0  0  0  0  0  0  0
    0.7121    1.4611    1.3488 C   0  0  0  0  0  0  0  0  0  0  0  0
   -0.6662    1.4058    1.3359 C   0  0  0  0  0  0  0  0  0  0  0  0
   -1.2840    0.2784    0.8168 C   0  0  0  0  0  0  0  0  0  0  0  0
   -0.5412   -0.7883    0.3133 C   0  0  0  0  0  0  0  0  0  0  0  0
    0.8531   -0.7284    0.3282 C   0  0  0  0  0  0  0  0  0  0  0  0
   -1.1903   -1.8812   -0.1894 O   0  0  0  0  0  0  0  0  0  0  0  0
   -0.4462   -2.9721   -0.7042 C   0  0  0  0  0  0  0  0  0  0  0  0
   -2.6788    0.1652    0.7772 O   0  0  0  0  0  0  0  0  0  0  0  0
   -3.3826    0.6183   -0.3372 C   0  0  0  0  0  0  0  0  0  0  0  0
   -2.7900    1.1311   -1.3170 O   0  0  0  0  0  0  0  0  0  0  0  0
   -4.8775    0.5149   -0.4178 C   0  0  0  0  0  0  0  0  0  0  0  0
    4.6942   -0.4685   -0.8572 H   0  0  0  0  0  0  0  0  0  0  0  0
    4.7487    1.0086   -1.9792 H   0  0  0  0  0  0  0  0  0  0  0  0
    3.1597    2.1616   -0.5756 H   0  0  0  0  0  0  0  0  0  0  0  0
    3.3366   -0.5000    0.9750 H   0  0  0  0  0  0  0  0  0  0  0  0
    3.2338    1.1443    1.7713 H   0  0  0  0  0  0  0  0  0  0  0  0
    1.1653    2.3539    1.7601 H   0  0  0  0  0  0  0  0  0  0  0  0
   -1.2983    2.2007    1.7119 H   0  0  0  0  0  0  0  0  0  0  0  0
    1.4694   -1.5248   -0.0483 H   0  0  0  0  0  0  0  0  0  0  0  0
    0.2665   -2.6700   -1.5060 H   0  0  0  0  0  0  0  0  0  0  0  0
   -1.1075   -3.7403   -1.1591 H   0  0  0  0  0  0  0  0  0  0  0  0
    0.1108   -3.4584    0.1285 H   0  0  0  0  0  0  0  0  0  0  0  0
   -5.2913   -0.1169    0.3702 H   0  0  0  0  0  0  0  0  0  0  0  0
   -5.1529    0.2364   -1.4407 H   0  0  0  0  0  0  0  0  0  0  0  0
   -5.2615    1.5419   -0.2573 H   0  0  0  0  0  0  0  0  0  0  0  0
  1  2  2  0
  2  3  1  0
  3  4  1  0
  4  5  2  0
  5  6  1  0
  6  7  2  0
  7  8  1  0
  8  9  2  0
  8 10  1  0
 10 11  1  0
  7 12  1  0
 12 13  1  0
 13 14  2  0
 13 15  1  0
  9  4  1  0
  1 16  1  0
  1 17  1  0
  2 18  1  0
  3 19  1  0
  3 20  1  0
  5 21  1  0
  6 22  1  0
  9 23  1  0
 11 24  1  0
 11 25  1  0
 11 26  1  0
 15 27  1  0
 15 28  1  0
 15 29  1  0
M  END
>  <Ligand ID>  (1) 
LIG0000021

>  <Ligand>  (1) 
eugenol acetate

>  <SMILES>  (1) 
C=CCc1ccc(c(c1)OC)OC(=O)C

>  <CID>  (1) 
7136.0

>  <ChEMBL ID>  (1) 
nan

>  <InChiKey>  (1) 
SCCDQYPEOIRVGX-UHFFFAOYSA-N

>  <InChi>  (1) 
InChI=1S/C12H14O3/c1-4-5-10-6-7-11(15-9(2)13)12(8-10)14-3/h4,6-8H,1,5H2,2-3H3

>  <IUPAC Name>  (1) 
(2-methoxy-4-prop-2-enylphenyl) acetate

$$$$
