
     RDKit          3D

 34 36  0  0  0  0  0  0  0  0999 V2000
    3.9314   -1.3195   -0.2247 C   0  0  0  0  0  0  0  0  0  0  0  0
    2.8811   -0.2827   -0.5024 C   0  0  0  0  0  0  0  0  0  0  0  0
    1.9010   -0.3221    0.5931 N   0  0  0  0  0  0  0  0  0  0  0  0
    0.7432    0.5066    0.4422 C   0  0  0  0  0  0  0  0  0  0  0  0
   -0.4235   -0.1300    0.0351 C   0  0  0  0  0  0  0  0  0  0  0  0
   -0.2173   -1.5944   -0.1539 C   0  0  0  0  0  0  0  0  0  0  0  0
   -1.3972   -2.2705    0.5420 C   0  0  0  0  0  0  0  0  0  0  0  0
   -2.4881   -2.2065   -0.3923 N   0  0  0  0  0  0  0  0  0  0  0  0
   -3.4061   -1.1408   -0.1248 C   0  0  0  0  0  0  0  0  0  0  0  0
   -2.9395    0.2201   -0.5691 C   0  0  0  0  0  0  0  0  0  0  0  0
   -1.5845    0.5787   -0.1489 C   0  0  0  0  0  0  0  0  0  0  0  0
   -1.5399    1.9217    0.0843 N   0  0  0  0  0  0  0  0  0  0  0  0
   -0.3866    2.5321    0.4840 C   0  0  0  0  0  0  0  0  0  0  0  0
    0.7587    1.8290    0.6649 N   0  0  0  0  0  0  0  0  0  0  0  0
    1.7108    2.6647    1.0409 N   0  0  0  0  0  0  0  0  0  0  0  0
    1.2065    3.9141    1.1107 C   0  0  0  0  0  0  0  0  0  0  0  0
   -0.1280    3.8711    0.7622 C   0  0  0  0  0  0  0  0  0  0  0  0
    3.7392   -1.9453    0.6720 H   0  0  0  0  0  0  0  0  0  0  0  0
    4.9301   -0.8381   -0.0191 H   0  0  0  0  0  0  0  0  0  0  0  0
    4.0684   -1.9413   -1.1516 H   0  0  0  0  0  0  0  0  0  0  0  0
    2.3215   -0.4455   -1.4405 H   0  0  0  0  0  0  0  0  0  0  0  0
    3.3919    0.7385   -0.4893 H   0  0  0  0  0  0  0  0  0  0  0  0
    2.0608   -0.9258    1.4235 H   0  0  0  0  0  0  0  0  0  0  0  0
    0.7454   -1.9426    0.2654 H   0  0  0  0  0  0  0  0  0  0  0  0
   -0.2531   -1.7621   -1.2706 H   0  0  0  0  0  0  0  0  0  0  0  0
   -1.6860   -1.6234    1.4246 H   0  0  0  0  0  0  0  0  0  0  0  0
   -1.0664   -3.2692    0.8181 H   0  0  0  0  0  0  0  0  0  0  0  0
   -2.9980   -3.1130   -0.3200 H   0  0  0  0  0  0  0  0  0  0  0  0
   -4.3114   -1.3539   -0.7587 H   0  0  0  0  0  0  0  0  0  0  0  0
   -3.7846   -1.1429    0.9034 H   0  0  0  0  0  0  0  0  0  0  0  0
   -2.9995    0.3098   -1.6725 H   0  0  0  0  0  0  0  0  0  0  0  0
   -3.6620    0.9491   -0.1320 H   0  0  0  0  0  0  0  0  0  0  0  0
    1.7008    4.8352    1.3837 H   0  0  0  0  0  0  0  0  0  0  0  0
   -0.8189    4.6991    0.7185 H   0  0  0  0  0  0  0  0  0  0  0  0
  1  2  1  0
  2  3  1  0
  3  4  1  0
  4  5  2  0
  5  6  1  0
  6  7  1  0
  7  8  1  0
  8  9  1  0
  9 10  1  0
 10 11  1  0
 11 12  2  0
 12 13  1  0
 13 14  1  0
 14 15  1  0
 15 16  2  0
 16 17  1  0
 14  4  1  0
 11  5  1  0
 17 13  2  0
  1 18  1  0
  1 19  1  0
  1 20  1  0
  2 21  1  0
  2 22  1  0
  3 23  1  0
  6 24  1  0
  6 25  1  0
  7 26  1  0
  7 27  1  0
  8 28  1  0
  9 29  1  0
  9 30  1  0
 10 31  1  0
 10 32  1  0
 16 33  1  0
 17 34  1  0
M  END
>  <Ligand ID>  (1) 
LIG0004421

>  <Ligand>  (1) 
CHEMBL1643674

>  <SMILES>  (1) 
CCNc1c2CCNCCc2nc2n1ncc2

>  <CID>  (1) 
53324165.0

>  <ChEMBL ID>  (1) 
nan

>  <InChiKey>  (1) 
XEJGTSRXQHSTCR-UHFFFAOYSA-N

>  <InChi>  (1) 
InChI=1S/C12H17N5/c1-2-14-12-9-3-6-13-7-4-10(9)16-11-5-8-15-17(11)12/h5,8,13-14H,2-4,6-7H2,1H3

>  <IUPAC Name>  (1) 
N-ethyl-2,6,7,12-tetrazatricyclo[7.5.0.03,7]tetradeca-1,3,5,8-tetraen-8-amine

$$$$
