
     RDKit          3D

 38 40  0  0  0  0  0  0  0  0999 V2000
    4.7796    2.0705    0.5623 C   0  0  0  0  0  0  0  0  0  0  0  0
    4.3047    1.1221   -0.3579 O   0  0  0  0  0  0  0  0  0  0  0  0
    3.1094    0.4493   -0.2546 C   0  0  0  0  0  0  0  0  0  0  0  0
    2.2061    0.6120    0.7697 C   0  0  0  0  0  0  0  0  0  0  0  0
    1.0100   -0.0802    0.8461 C   0  0  0  0  0  0  0  0  0  0  0  0
    0.7172   -0.9881   -0.1767 C   0  0  0  0  0  0  0  0  0  0  0  0
    1.6150   -1.1613   -1.2112 C   0  0  0  0  0  0  0  0  0  0  0  0
    2.8168   -0.4573   -1.2760 C   0  0  0  0  0  0  0  0  0  0  0  0
   -0.5402   -1.6944   -0.0671 C   0  0  0  0  0  0  0  0  0  0  0  0
   -1.7698   -1.0768   -0.1015 C   0  0  0  0  0  0  0  0  0  0  0  0
   -2.7264   -2.0170    0.0274 N   0  0  0  0  0  0  0  0  0  0  0  0
   -2.1330   -3.1990    0.1408 N   0  0  0  0  0  0  0  0  0  0  0  0
   -0.7904   -3.0469    0.0877 C   0  0  0  0  0  0  0  0  0  0  0  0
    0.2401   -4.1057    0.1762 C   0  0  0  0  0  0  0  0  0  0  0  0
    1.0876   -3.9111    1.2476 F   0  0  0  0  0  0  0  0  0  0  0  0
    0.9080   -4.3241   -1.0036 F   0  0  0  0  0  0  0  0  0  0  0  0
   -0.4127   -5.3146    0.4532 F   0  0  0  0  0  0  0  0  0  0  0  0
   -2.0748    0.3361   -0.2493 C   0  0  0  0  0  0  0  0  0  0  0  0
   -1.7167    1.0190   -1.4121 C   0  0  0  0  0  0  0  0  0  0  0  0
   -2.0010    2.3695   -1.5715 C   0  0  0  0  0  0  0  0  0  0  0  0
   -2.6398    3.0247   -0.5677 C   0  0  0  0  0  0  0  0  0  0  0  0
   -3.0020    2.3651    0.5910 C   0  0  0  0  0  0  0  0  0  0  0  0
   -2.7240    1.0203    0.7599 C   0  0  0  0  0  0  0  0  0  0  0  0
   -3.1071    0.4043    1.9384 O   0  0  0  0  0  0  0  0  0  0  0  0
   -2.9396    4.3903   -0.7018 O   0  0  0  0  0  0  0  0  0  0  0  0
    5.4634    1.5033    1.2582 H   0  0  0  0  0  0  0  0  0  0  0  0
    3.9776    2.5685    1.1390 H   0  0  0  0  0  0  0  0  0  0  0  0
    5.3856    2.8449    0.0345 H   0  0  0  0  0  0  0  0  0  0  0  0
    2.4293    1.3098    1.5585 H   0  0  0  0  0  0  0  0  0  0  0  0
    0.3056    0.0646    1.6691 H   0  0  0  0  0  0  0  0  0  0  0  0
    1.3824   -1.8646   -2.0000 H   0  0  0  0  0  0  0  0  0  0  0  0
    3.4941   -0.6142   -2.0942 H   0  0  0  0  0  0  0  0  0  0  0  0
   -2.6651   -4.0995    0.2537 H   0  0  0  0  0  0  0  0  0  0  0  0
   -1.2012    0.5051   -2.2327 H   0  0  0  0  0  0  0  0  0  0  0  0
   -1.7292    2.9124   -2.4677 H   0  0  0  0  0  0  0  0  0  0  0  0
   -3.5063    2.9252    1.3604 H   0  0  0  0  0  0  0  0  0  0  0  0
   -3.6363   -0.4791    1.9007 H   0  0  0  0  0  0  0  0  0  0  0  0
   -3.9171    4.6169   -0.5087 H   0  0  0  0  0  0  0  0  0  0  0  0
  1  2  1  0
  2  3  1  0
  3  4  2  0
  4  5  1  0
  5  6  2  0
  6  7  1  0
  7  8  2  0
  6  9  1  0
  9 10  1  0
 10 11  2  0
 11 12  1  0
 12 13  1  0
 13 14  1  0
 14 15  1  0
 14 16  1  0
 14 17  1  0
 10 18  1  0
 18 19  2  0
 19 20  1  0
 20 21  2  0
 21 22  1  0
 22 23  2  0
 23 24  1  0
 21 25  1  0
  8  3  1  0
 13  9  2  0
 23 18  1  0
  1 26  1  0
  1 27  1  0
  1 28  1  0
  4 29  1  0
  5 30  1  0
  7 31  1  0
  8 32  1  0
 12 33  1  0
 19 34  1  0
 20 35  1  0
 22 36  1  0
 24 37  1  0
 25 38  1  0
M  END
>  <Ligand ID>  (1) 
LIG0004799

>  <Ligand>  (1) 
MLS000778974

>  <SMILES>  (1) 
COc1ccc(cc1)c1c(n[nH]c1C(F)(F)F)c1ccc(cc1O)O

>  <CID>  (1) 
1322439.0

>  <ChEMBL ID>  (1) 
nan

>  <InChiKey>  (1) 
FVVBPMRBFOQCQK-UHFFFAOYSA-N

>  <InChi>  (1) 
InChI=1S/C17H13F3N2O3/c1-25-11-5-2-9(3-6-11)14-15(21-22-16(14)17(18,19)20)12-7-4-10(23)8-13(12)24/h2-8,23-24H,1H3,(H,21,22)

>  <IUPAC Name>  (1) 
4-[4-(4-methoxyphenyl)-5-(trifluoromethyl)-1H-pyrazol-3-yl]benzene-1,3-diol

$$$$
