
     RDKit          3D

 23 23  0  0  0  0  0  0  0  0999 V2000
   -2.0671   -1.0772    0.2483 C   0  0  0  0  0  0  0  0  0  0  0  0
   -1.8953    0.3629   -0.1873 C   0  0  2  0  0  0  0  0  0  0  0  0
   -0.7278    0.5559   -1.1047 C   0  0  0  0  0  0  0  0  0  0  0  0
    0.5783    0.1856   -0.5589 C   0  0  0  0  0  0  0  0  0  0  0  0
    1.3296    1.1514    0.1186 C   0  0  0  0  0  0  0  0  0  0  0  0
    2.5687    0.8588    0.6545 C   0  0  0  0  0  0  0  0  0  0  0  0
    3.0373   -0.4335    0.4928 C   0  0  0  0  0  0  0  0  0  0  0  0
    2.3063   -1.4047   -0.1761 C   0  0  0  0  0  0  0  0  0  0  0  0
    1.0808   -1.1116   -0.7050 C   0  0  0  0  0  0  0  0  0  0  0  0
   -1.8774    1.2130    0.9778 N   0  0  0  0  0  0  0  0  0  0  0  0
   -3.1507   -1.3053    0.4742 H   0  0  0  0  0  0  0  0  0  0  0  0
   -1.5372   -1.2631    1.2065 H   0  0  0  0  0  0  0  0  0  0  0  0
   -1.7938   -1.8037   -0.5432 H   0  0  0  0  0  0  0  0  0  0  0  0
   -2.7985    0.6324   -0.7750 H   0  0  0  0  0  0  0  0  0  0  0  0
   -0.6982    1.6442   -1.3477 H   0  0  0  0  0  0  0  0  0  0  0  0
   -0.9487    0.0379   -2.0542 H   0  0  0  0  0  0  0  0  0  0  0  0
    0.9008    2.1449    0.2082 H   0  0  0  0  0  0  0  0  0  0  0  0
    3.1322    1.6254    1.1756 H   0  0  0  0  0  0  0  0  0  0  0  0
    4.0136   -0.6404    0.9224 H   0  0  0  0  0  0  0  0  0  0  0  0
    2.6996   -2.4125   -0.2881 H   0  0  0  0  0  0  0  0  0  0  0  0
    0.5276   -1.8756   -1.2201 H   0  0  0  0  0  0  0  0  0  0  0  0
   -2.4566    0.7503    1.7247 H   0  0  0  0  0  0  0  0  0  0  0  0
   -2.2233    2.1648    0.7565 H   0  0  0  0  0  0  0  0  0  0  0  0
  1  2  1  0
  2  3  1  0
  3  4  1  0
  4  5  2  0
  5  6  1  0
  6  7  2  0
  7  8  1  0
  8  9  2  0
  2 10  1  0
  9  4  1  0
  1 11  1  0
  1 12  1  0
  1 13  1  0
  2 14  1  6
  3 15  1  0
  3 16  1  0
  5 17  1  0
  6 18  1  0
  7 19  1  0
  8 20  1  0
  9 21  1  0
 10 22  1  0
 10 23  1  0
M  END
>  <Ligand ID>  (1) 
LIG0001110

>  <Ligand>  (1) 
R(-)amphetamine

>  <SMILES>  (1) 
C[C@H](Cc1ccccc1)N

>  <CID>  (1) 
32893.0

>  <ChEMBL ID>  (1) 
nan

>  <InChiKey>  (1) 
KWTSXDURSIMDCE-MRVPVSSYSA-N

>  <InChi>  (1) 
InChI=1S/C9H13N/c1-8(10)7-9-5-3-2-4-6-9/h2-6,8H,7,10H2,1H3/t8-/m1/s1

>  <IUPAC Name>  (1) 
(2R)-1-phenylpropan-2-amine

$$$$
