
     RDKit          3D

 55 57  0  0  0  0  0  0  0  0999 V2000
    9.1136    3.2374   -0.9993 C   0  0  0  0  0  0  0  0  0  0  0  0
    7.9210    2.5061   -0.9296 O   0  0  0  0  0  0  0  0  0  0  0  0
    7.2281    2.1604    0.1971 C   0  0  0  0  0  0  0  0  0  0  0  0
    7.6869    2.5260    1.3286 O   0  0  0  0  0  0  0  0  0  0  0  0
    5.9888    1.3877    0.0939 C   0  0  0  0  0  0  0  0  0  0  0  0
    5.4626    0.9751   -1.1125 C   0  0  0  0  0  0  0  0  0  0  0  0
    4.2822    0.2433   -1.1532 C   0  0  0  0  0  0  0  0  0  0  0  0
    3.6104   -0.0871    0.0074 C   0  0  0  0  0  0  0  0  0  0  0  0
    4.1359    0.3263    1.2303 C   0  0  0  0  0  0  0  0  0  0  0  0
    5.3119    1.0554    1.2706 C   0  0  0  0  0  0  0  0  0  0  0  0
    2.3987   -0.8345    0.0177 N   0  0  0  0  0  0  0  0  0  0  0  0
    2.2923   -2.0611   -0.5311 C   0  0  0  0  0  0  0  0  0  0  0  0
    3.3193   -2.8660   -1.2208 C   0  0  0  0  0  0  0  0  0  0  0  0
    0.9920   -2.4591   -0.3287 C   0  0  0  0  0  0  0  0  0  0  0  0
    0.2851   -1.4690    0.3525 C   0  0  0  0  0  0  0  0  0  0  0  0
    1.2072   -0.4635    0.5514 C   0  0  0  0  0  0  0  0  0  0  0  0
    0.9519    0.8313    1.2412 C   0  0  0  0  0  0  0  0  0  0  0  0
   -1.1124   -1.4814    0.7667 C   0  0  0  0  0  0  0  0  0  0  0  0
   -1.5369   -0.4669    1.3746 O   0  0  0  0  0  0  0  0  0  0  0  0
   -1.9155   -2.6709    0.4449 C   0  0  0  0  0  0  0  0  0  0  0  0
   -3.2468   -2.6243    0.8355 O   0  0  0  0  0  0  0  0  0  0  0  0
   -4.2126   -1.7261    0.4314 C   0  0  0  0  0  0  0  0  0  0  0  0
   -4.0041   -0.7006   -0.4606 C   0  0  0  0  0  0  0  0  0  0  0  0
   -4.9884    0.1842   -0.8466 C   0  0  0  0  0  0  0  0  0  0  0  0
   -6.2789    0.0569   -0.3194 C   0  0  0  0  0  0  0  0  0  0  0  0
   -6.4782   -0.9532    0.5570 C   0  0  0  0  0  0  0  0  0  0  0  0
   -5.4825   -1.8542    0.9524 C   0  0  0  0  0  0  0  0  0  0  0  0
   -7.2299    0.9973   -0.7609 N   0  0  0  0  0  0  0  0  0  0  0  0
   -8.5866    1.0545   -0.3599 C   0  0  0  0  0  0  0  0  0  0  0  0
   -9.0991    0.2579    0.4483 O   0  0  0  0  0  0  0  0  0  0  0  0
   -9.5030    2.1165   -0.9105 C   0  0  0  0  0  0  0  0  0  0  0  0
    9.4892    3.5221    0.0110 H   0  0  0  0  0  0  0  0  0  0  0  0
    9.8754    2.5361   -1.4375 H   0  0  0  0  0  0  0  0  0  0  0  0
    9.0659    4.1133   -1.6825 H   0  0  0  0  0  0  0  0  0  0  0  0
    6.0112    1.2491   -2.0019 H   0  0  0  0  0  0  0  0  0  0  0  0
    3.8754   -0.0778   -2.1143 H   0  0  0  0  0  0  0  0  0  0  0  0
    3.6638    0.1022    2.1560 H   0  0  0  0  0  0  0  0  0  0  0  0
    5.7465    1.3915    2.2022 H   0  0  0  0  0  0  0  0  0  0  0  0
    3.2003   -2.8310   -2.3352 H   0  0  0  0  0  0  0  0  0  0  0  0
    3.2865   -3.9269   -0.9291 H   0  0  0  0  0  0  0  0  0  0  0  0
    4.3400   -2.4734   -0.9906 H   0  0  0  0  0  0  0  0  0  0  0  0
    0.5724   -3.4030   -0.6495 H   0  0  0  0  0  0  0  0  0  0  0  0
    0.9519    0.6972    2.3398 H   0  0  0  0  0  0  0  0  0  0  0  0
    1.7512    1.5687    0.9957 H   0  0  0  0  0  0  0  0  0  0  0  0
   -0.0220    1.2566    0.9298 H   0  0  0  0  0  0  0  0  0  0  0  0
   -1.8643   -2.9335   -0.6388 H   0  0  0  0  0  0  0  0  0  0  0  0
   -1.4266   -3.5273    0.9659 H   0  0  0  0  0  0  0  0  0  0  0  0
   -3.0273   -0.5637   -0.8990 H   0  0  0  0  0  0  0  0  0  0  0  0
   -4.7434    0.9645   -1.5536 H   0  0  0  0  0  0  0  0  0  0  0  0
   -7.4407   -1.1141    1.0031 H   0  0  0  0  0  0  0  0  0  0  0  0
   -5.6959   -2.6502    1.6615 H   0  0  0  0  0  0  0  0  0  0  0  0
   -6.9421    1.7484   -1.4587 H   0  0  0  0  0  0  0  0  0  0  0  0
  -10.2178    1.6791   -1.6351 H   0  0  0  0  0  0  0  0  0  0  0  0
  -10.0902    2.5872   -0.0920 H   0  0  0  0  0  0  0  0  0  0  0  0
   -8.8722    2.8870   -1.4060 H   0  0  0  0  0  0  0  0  0  0  0  0
  1  2  1  0
  2  3  1  0
  3  4  2  0
  3  5  1  0
  5  6  2  0
  6  7  1  0
  7  8  2  0
  8  9  1  0
  9 10  2  0
  8 11  1  0
 11 12  1  0
 12 13  1  0
 12 14  2  0
 14 15  1  0
 15 16  2  0
 16 17  1  0
 15 18  1  0
 18 19  2  0
 18 20  1  0
 20 21  1  0
 21 22  1  0
 22 23  2  0
 23 24  1  0
 24 25  2  0
 25 26  1  0
 26 27  2  0
 25 28  1  0
 28 29  1  0
 29 30  2  0
 29 31  1  0
 10  5  1  0
 16 11  1  0
 27 22  1  0
  1 32  1  0
  1 33  1  0
  1 34  1  0
  6 35  1  0
  7 36  1  0
  9 37  1  0
 10 38  1  0
 13 39  1  0
 13 40  1  0
 13 41  1  0
 14 42  1  0
 17 43  1  0
 17 44  1  0
 17 45  1  0
 20 46  1  0
 20 47  1  0
 23 48  1  0
 24 49  1  0
 26 50  1  0
 27 51  1  0
 28 52  1  0
 31 53  1  0
 31 54  1  0
 31 55  1  0
M  END
>  <Ligand ID>  (1) 
LIG0003719

>  <Ligand>  (1) 
CHEMBL3560146

>  <SMILES>  (1) 
COC(=O)c1ccc(cc1)n1c(C)cc(c1C)C(=O)COc1ccc(cc1)NC(=O)C

>  <CID>  (1) 
73058456.0

>  <ChEMBL ID>  (1) 
nan

>  <InChiKey>  (1) 
BQZANZFRNAZTLQ-UHFFFAOYSA-N

>  <InChi>  (1) 
InChI=1S/C24H24N2O5/c1-15-13-22(16(2)26(15)20-9-5-18(6-10-20)24(29)30-4)23(28)14-31-21-11-7-19(8-12-21)25-17(3)27/h5-13H,14H2,1-4H3,(H,25,27)

>  <IUPAC Name>  (1) 
methyl 4-[3-[2-(4-acetamidophenoxy)acetyl]-2,5-dimethylpyrrol-1-yl]benzoate

$$$$
