
     RDKit          3D

 42 42  0  0  0  0  0  0  0  0999 V2000
   -5.2784    1.2191    0.8498 C   0  0  0  0  0  0  0  0  0  0  0  0
   -3.9233    0.6237    1.0523 C   0  0  0  0  0  0  0  0  0  0  0  0
   -3.4210   -0.3070    0.1685 N   0  0  0  0  0  0  0  0  0  0  0  0
   -2.0982   -0.8096    0.3143 C   0  0  0  0  0  0  0  0  0  0  0  0
   -1.1009    0.2591    0.0293 C   0  0  0  0  0  0  0  0  0  0  0  0
    0.2949   -0.1759    0.1702 N   0  0  0  0  0  0  0  0  0  0  0  0
    1.2604    0.8479   -0.0913 C   0  0  0  0  0  0  0  0  0  0  0  0
    0.7479    1.9733   -0.4016 O   0  0  0  0  0  0  0  0  0  0  0  0
    2.6858    0.6831   -0.0258 C   0  0  0  0  0  0  0  0  0  0  0  0
    3.4599    1.8177   -0.3003 C   0  0  0  0  0  0  0  0  0  0  0  0
    4.8227    1.8030   -0.2693 C   0  0  0  0  0  0  0  0  0  0  0  0
    5.6974    3.2838   -0.6271 Cl  0  0  0  0  0  0  0  0  0  0  0  0
    5.5255    0.6549    0.0389 C   0  0  0  0  0  0  0  0  0  0  0  0
    4.7797   -0.4709    0.3123 C   0  0  0  0  0  0  0  0  0  0  0  0
    3.3789   -0.4498    0.2782 C   0  0  0  0  0  0  0  0  0  0  0  0
    2.7139   -1.5965    0.5585 O   0  0  0  0  0  0  0  0  0  0  0  0
    3.2404   -2.8478    0.8849 C   0  0  0  0  0  0  0  0  0  0  0  0
    6.9481    0.6835    0.0574 N   0  0  0  0  0  0  0  0  0  0  0  0
   -3.8788   -0.3119   -1.1568 C   0  0  0  0  0  0  0  0  0  0  0  0
   -5.3047   -0.8113   -1.2372 C   0  0  0  0  0  0  0  0  0  0  0  0
   -5.2926    2.1699    1.4905 H   0  0  0  0  0  0  0  0  0  0  0  0
   -6.1221    0.6347    1.2698 H   0  0  0  0  0  0  0  0  0  0  0  0
   -5.4291    1.6034   -0.1704 H   0  0  0  0  0  0  0  0  0  0  0  0
   -3.9171    0.1802    2.0944 H   0  0  0  0  0  0  0  0  0  0  0  0
   -3.2183    1.5284    1.1211 H   0  0  0  0  0  0  0  0  0  0  0  0
   -1.9952   -1.1555    1.3801 H   0  0  0  0  0  0  0  0  0  0  0  0
   -1.9115   -1.6497   -0.3957 H   0  0  0  0  0  0  0  0  0  0  0  0
   -1.1588    0.5990   -1.0482 H   0  0  0  0  0  0  0  0  0  0  0  0
   -1.3099    1.1436    0.6231 H   0  0  0  0  0  0  0  0  0  0  0  0
    0.5765   -1.1285    0.4348 H   0  0  0  0  0  0  0  0  0  0  0  0
    2.9672    2.7725   -0.5558 H   0  0  0  0  0  0  0  0  0  0  0  0
    5.3240   -1.3787    0.5539 H   0  0  0  0  0  0  0  0  0  0  0  0
    2.5315   -3.3753    1.5798 H   0  0  0  0  0  0  0  0  0  0  0  0
    3.3075   -3.4817   -0.0259 H   0  0  0  0  0  0  0  0  0  0  0  0
    4.2056   -2.8560    1.3864 H   0  0  0  0  0  0  0  0  0  0  0  0
    7.4338    0.9974    0.9423 H   0  0  0  0  0  0  0  0  0  0  0  0
    7.4670    0.3955   -0.8009 H   0  0  0  0  0  0  0  0  0  0  0  0
   -3.8336    0.7141   -1.6405 H   0  0  0  0  0  0  0  0  0  0  0  0
   -3.2242   -0.9165   -1.8547 H   0  0  0  0  0  0  0  0  0  0  0  0
   -5.9352   -0.0509   -1.7165 H   0  0  0  0  0  0  0  0  0  0  0  0
   -5.2763   -1.7432   -1.8736 H   0  0  0  0  0  0  0  0  0  0  0  0
   -5.7395   -1.0712   -0.2578 H   0  0  0  0  0  0  0  0  0  0  0  0
  1  2  1  0
  2  3  1  0
  3  4  1  0
  4  5  1  0
  5  6  1  0
  6  7  1  0
  7  8  2  0
  7  9  1  0
  9 10  2  0
 10 11  1  0
 11 12  1  0
 11 13  2  0
 13 14  1  0
 14 15  2  0
 15 16  1  0
 16 17  1  0
 13 18  1  0
  3 19  1  0
 19 20  1  0
 15  9  1  0
  1 21  1  0
  1 22  1  0
  1 23  1  0
  2 24  1  0
  2 25  1  0
  4 26  1  0
  4 27  1  0
  5 28  1  0
  5 29  1  0
  6 30  1  0
 10 31  1  0
 14 32  1  0
 17 33  1  0
 17 34  1  0
 17 35  1  0
 18 36  1  0
 18 37  1  0
 19 38  1  0
 19 39  1  0
 20 40  1  0
 20 41  1  0
 20 42  1  0
M  END
>  <Ligand ID>  (1) 
LIG0004381

>  <Ligand>  (1) 
metoclopramide

>  <SMILES>  (1) 
CCN(CCNC(=O)c1cc(Cl)c(cc1OC)N)CC

>  <CID>  (1) 
4168.0

>  <ChEMBL ID>  (1) 
nan

>  <InChiKey>  (1) 
TTWJBBZEZQICBI-UHFFFAOYSA-N

>  <InChi>  (1) 
InChI=1S/C14H22ClN3O2/c1-4-18(5-2)7-6-17-14(19)10-8-11(15)12(16)9-13(10)20-3/h8-9H,4-7,16H2,1-3H3,(H,17,19)

>  <IUPAC Name>  (1) 
4-amino-5-chloro-N-[2-(diethylamino)ethyl]-2-methoxybenzamide

$$$$
