
     RDKit          3D

 35 34  0  0  0  0  0  0  0  0999 V2000
    5.4275    2.9957   -0.2202 Br  0  0  0  0  0  0  0  0  0  0  0  0
    3.6574    2.1988   -0.2796 C   0  0  0  0  0  0  0  0  0  0  0  0
    3.7589    0.6756   -0.1225 C   0  0  0  0  0  0  0  0  0  0  0  0
    2.3268    0.1616   -0.1831 C   0  0  0  0  0  0  0  0  0  0  0  0
    2.2550   -1.3189   -0.0452 C   0  0  0  0  0  0  0  0  0  0  0  0
    0.8428   -1.8284   -0.1112 C   0  0  0  0  0  0  0  0  0  0  0  0
   -0.0454   -1.2748    0.9622 C   0  0  0  0  0  0  0  0  0  0  0  0
   -1.4513   -1.7963    0.8913 C   0  0  0  0  0  0  0  0  0  0  0  0
   -2.1858   -1.5150   -0.3622 C   0  0  0  0  0  0  0  0  0  0  0  0
   -2.3767   -0.0808   -0.7254 C   0  0  0  0  0  0  0  0  0  0  0  0
   -3.1508    0.6806    0.3281 C   0  0  0  0  0  0  0  0  0  0  0  0
   -3.3204    2.0926   -0.0668 C   0  0  0  0  0  0  0  0  0  0  0  0
   -2.3825    2.9244    0.0405 O   0  0  0  0  0  0  0  0  0  0  0  0
   -4.5676    2.4963   -0.5732 O   0  0  0  0  0  0  0  0  0  0  0  0
    3.0859    2.6412    0.5583 H   0  0  0  0  0  0  0  0  0  0  0  0
    3.1202    2.4160   -1.2008 H   0  0  0  0  0  0  0  0  0  0  0  0
    4.3938    0.2522   -0.9057 H   0  0  0  0  0  0  0  0  0  0  0  0
    4.1407    0.5103    0.9048 H   0  0  0  0  0  0  0  0  0  0  0  0
    1.8030    0.7151    0.6280 H   0  0  0  0  0  0  0  0  0  0  0  0
    1.9012    0.4881   -1.1347 H   0  0  0  0  0  0  0  0  0  0  0  0
    2.7895   -1.7587   -0.9199 H   0  0  0  0  0  0  0  0  0  0  0  0
    2.6907   -1.6872    0.8979 H   0  0  0  0  0  0  0  0  0  0  0  0
    0.4536   -1.4995   -1.1195 H   0  0  0  0  0  0  0  0  0  0  0  0
    0.8190   -2.9354   -0.1619 H   0  0  0  0  0  0  0  0  0  0  0  0
    0.0297   -0.1894    0.9598 H   0  0  0  0  0  0  0  0  0  0  0  0
    0.3620   -1.6439    1.9344 H   0  0  0  0  0  0  0  0  0  0  0  0
   -2.0459   -1.4594    1.7617 H   0  0  0  0  0  0  0  0  0  0  0  0
   -1.3830   -2.9000    0.9939 H   0  0  0  0  0  0  0  0  0  0  0  0
   -3.2273   -1.9234   -0.1980 H   0  0  0  0  0  0  0  0  0  0  0  0
   -1.7938   -2.1284   -1.1961 H   0  0  0  0  0  0  0  0  0  0  0  0
   -1.4500    0.4965   -0.8849 H   0  0  0  0  0  0  0  0  0  0  0  0
   -2.9756   -0.0665   -1.6635 H   0  0  0  0  0  0  0  0  0  0  0  0
   -4.1061    0.1680    0.4869 H   0  0  0  0  0  0  0  0  0  0  0  0
   -2.5559    0.6089    1.2585 H   0  0  0  0  0  0  0  0  0  0  0  0
   -4.8396    3.4843   -0.5724 H   0  0  0  0  0  0  0  0  0  0  0  0
  1  2  1  0
  2  3  1  0
  3  4  1  0
  4  5  1  0
  5  6  1  0
  6  7  1  0
  7  8  1  0
  8  9  1  0
  9 10  1  0
 10 11  1  0
 11 12  1  0
 12 13  2  0
 12 14  1  0
  2 15  1  0
  2 16  1  0
  3 17  1  0
  3 18  1  0
  4 19  1  0
  4 20  1  0
  5 21  1  0
  5 22  1  0
  6 23  1  0
  6 24  1  0
  7 25  1  0
  7 26  1  0
  8 27  1  0
  8 28  1  0
  9 29  1  0
  9 30  1  0
 10 31  1  0
 10 32  1  0
 11 33  1  0
 11 34  1  0
 14 35  1  0
M  END
>  <Ligand ID>  (1) 
LIG0002038

>  <Ligand>  (1) 
11-Bromo-undecanoic acid

>  <SMILES>  (1) 
BrCCCCCCCCCCC(=O)O

>  <CID>  (1) 
17812.0

>  <ChEMBL ID>  (1) 
nan

>  <InChiKey>  (1) 
IUDGNRWYNOEIKF-UHFFFAOYSA-N

>  <InChi>  (1) 
InChI=1S/C11H21BrO2/c12-10-8-6-4-2-1-3-5-7-9-11(13)14/h1-10H2,(H,13,14)

>  <IUPAC Name>  (1) 
11-bromoundecanoic acid

$$$$
