
     RDKit          3D

 57 60  0  0  0  0  0  0  0  0999 V2000
   -7.5603    1.7738   -0.2114 C   0  0  0  0  0  0  0  0  0  0  0  0
   -6.2420    1.1768   -0.5387 C   0  0  0  0  0  0  0  0  0  0  0  0
   -5.0945    1.9442   -0.5780 C   0  0  0  0  0  0  0  0  0  0  0  0
   -3.8864    1.3498   -0.8869 C   0  0  0  0  0  0  0  0  0  0  0  0
   -3.7436    0.0190   -1.1636 C   0  0  0  0  0  0  0  0  0  0  0  0
   -4.9044   -0.7533   -1.1232 C   0  0  0  0  0  0  0  0  0  0  0  0
   -6.1200   -0.1694   -0.8152 C   0  0  0  0  0  0  0  0  0  0  0  0
   -2.4577   -0.6399   -1.4897 C   0  0  0  0  0  0  0  0  0  0  0  0
   -1.8676   -1.1623   -0.3183 N   0  0  0  0  0  0  0  0  0  0  0  0
   -1.5520   -0.2926    0.7412 C   0  0  0  0  0  0  0  0  0  0  0  0
   -1.7718   -1.0848    2.0411 C   0  0  0  0  0  0  0  0  0  0  0  0
   -1.3172   -2.4945    1.8721 C   0  0  0  0  0  0  0  0  0  0  0  0
   -0.3815   -2.7177    0.7398 C   0  0  0  0  0  0  0  0  0  0  0  0
   -0.7896   -2.0893   -0.5470 C   0  0  0  0  0  0  0  0  0  0  0  0
    0.3575   -1.3295   -1.1282 C   0  0  0  0  0  0  0  0  0  0  0  0
    0.6654   -0.0309   -0.4348 C   0  0  0  0  0  0  0  0  0  0  0  0
   -0.1495    0.2157    0.7919 C   0  0  0  0  0  0  0  0  0  0  0  0
    2.0857   -0.0197   -0.1335 N   0  0  0  0  0  0  0  0  0  0  0  0
    2.9696    0.9047   -0.7415 C   0  0  0  0  0  0  0  0  0  0  0  0
    2.4514    1.7215   -1.5633 O   0  0  0  0  0  0  0  0  0  0  0  0
    4.3993    0.9260   -0.4469 C   0  0  0  0  0  0  0  0  0  0  0  0
    5.0146    0.0743    0.4267 C   0  0  0  0  0  0  0  0  0  0  0  0
    6.3931    0.1696    0.6460 C   0  0  0  0  0  0  0  0  0  0  0  0
    7.1452    1.1276   -0.0203 C   0  0  0  0  0  0  0  0  0  0  0  0
    6.5278    1.9763   -0.8918 C   0  0  0  0  0  0  0  0  0  0  0  0
    5.1853    1.8623   -1.0870 C   0  0  0  0  0  0  0  0  0  0  0  0
    8.6158    1.2255    0.2168 C   0  0  0  0  0  0  0  0  0  0  0  0
   -8.1996    1.6592   -1.1072 H   0  0  0  0  0  0  0  0  0  0  0  0
   -7.4284    2.8614   -0.0416 H   0  0  0  0  0  0  0  0  0  0  0  0
   -8.0436    1.2746    0.6427 H   0  0  0  0  0  0  0  0  0  0  0  0
   -5.1404    3.0209   -0.3651 H   0  0  0  0  0  0  0  0  0  0  0  0
   -3.0232    2.0004   -0.9083 H   0  0  0  0  0  0  0  0  0  0  0  0
   -4.8676   -1.8034   -1.3296 H   0  0  0  0  0  0  0  0  0  0  0  0
   -7.0255   -0.7594   -0.7813 H   0  0  0  0  0  0  0  0  0  0  0  0
   -1.8023    0.0291   -2.0836 H   0  0  0  0  0  0  0  0  0  0  0  0
   -2.7043   -1.5214   -2.1508 H   0  0  0  0  0  0  0  0  0  0  0  0
   -2.2992    0.5244    0.7986 H   0  0  0  0  0  0  0  0  0  0  0  0
   -1.2870   -0.5574    2.8838 H   0  0  0  0  0  0  0  0  0  0  0  0
   -2.8657   -1.1154    2.2255 H   0  0  0  0  0  0  0  0  0  0  0  0
   -0.8004   -2.7855    2.8170 H   0  0  0  0  0  0  0  0  0  0  0  0
   -2.1707   -3.2198    1.8010 H   0  0  0  0  0  0  0  0  0  0  0  0
    0.6448   -2.4965    1.0758 H   0  0  0  0  0  0  0  0  0  0  0  0
   -0.3707   -3.8322    0.5538 H   0  0  0  0  0  0  0  0  0  0  0  0
   -1.1258   -2.8155   -1.3135 H   0  0  0  0  0  0  0  0  0  0  0  0
    1.2377   -2.0367   -1.1007 H   0  0  0  0  0  0  0  0  0  0  0  0
    0.1644   -1.2000   -2.2142 H   0  0  0  0  0  0  0  0  0  0  0  0
    0.4906    0.7781   -1.1746 H   0  0  0  0  0  0  0  0  0  0  0  0
    0.4335   -0.1728    1.6534 H   0  0  0  0  0  0  0  0  0  0  0  0
   -0.1946    1.3132    0.9588 H   0  0  0  0  0  0  0  0  0  0  0  0
    2.4312   -0.7251    0.5539 H   0  0  0  0  0  0  0  0  0  0  0  0
    4.4328   -0.6672    0.9425 H   0  0  0  0  0  0  0  0  0  0  0  0
    6.9176   -0.4751    1.3201 H   0  0  0  0  0  0  0  0  0  0  0  0
    7.0818    2.7398   -1.4328 H   0  0  0  0  0  0  0  0  0  0  0  0
    4.7090    2.5487   -1.7867 H   0  0  0  0  0  0  0  0  0  0  0  0
    9.0469    0.2212   -0.0120 H   0  0  0  0  0  0  0  0  0  0  0  0
    9.0380    2.0108   -0.4093 H   0  0  0  0  0  0  0  0  0  0  0  0
    8.7482    1.5182    1.2690 H   0  0  0  0  0  0  0  0  0  0  0  0
  1  2  1  0
  2  3  2  0
  3  4  1  0
  4  5  2  0
  5  6  1  0
  6  7  2  0
  5  8  1  0
  8  9  1  0
  9 10  1  0
 10 11  1  0
 11 12  1  0
 12 13  1  0
 13 14  1  0
 14 15  1  0
 15 16  1  0
 16 17  1  0
 16 18  1  0
 18 19  1  0
 19 20  2  0
 19 21  1  0
 21 22  2  0
 22 23  1  0
 23 24  2  0
 24 25  1  0
 25 26  2  0
 24 27  1  0
  7  2  1  0
 14  9  1  0
 26 21  1  0
 17 10  1  0
  1 28  1  0
  1 29  1  0
  1 30  1  0
  3 31  1  0
  4 32  1  0
  6 33  1  0
  7 34  1  0
  8 35  1  0
  8 36  1  0
 10 37  1  0
 11 38  1  0
 11 39  1  0
 12 40  1  0
 12 41  1  0
 13 42  1  0
 13 43  1  0
 14 44  1  0
 15 45  1  0
 15 46  1  0
 16 47  1  0
 17 48  1  0
 17 49  1  0
 18 50  1  0
 22 51  1  0
 23 52  1  0
 25 53  1  0
 26 54  1  0
 27 55  1  0
 27 56  1  0
 27 57  1  0
M  END
>  <Ligand ID>  (1) 
LIG0003817

>  <Ligand>  (1) 
MLS000709692

>  <SMILES>  (1) 
Cc1ccc(cc1)CN1C2CCCC1CC(C2)NC(=O)c1ccc(cc1)C

>  <CID>  (1) 
3218139.0

>  <ChEMBL ID>  (1) 
nan

>  <InChiKey>  (1) 
QJBJGFACSBPWFU-UHFFFAOYSA-N

>  <InChi>  (1) 
InChI=1S/C24H30N2O/c1-17-6-10-19(11-7-17)16-26-22-4-3-5-23(26)15-21(14-22)25-24(27)20-12-8-18(2)9-13-20/h6-13,21-23H,3-5,14-16H2,1-2H3,(H,25,27)

>  <IUPAC Name>  (1) 
4-methyl-N-[9-[(4-methylphenyl)methyl]-9-azabicyclo[3.3.1]nonan-3-yl]benzamide

$$$$
