
     RDKit          3D

 16 15  0  0  0  0  0  0  0  0999 V2000
    3.0266    0.1295    0.5555 C   0  0  0  0  0  0  0  0  0  0  0  0
    1.7181   -0.5382    0.1372 C   0  0  0  0  0  0  0  0  0  0  0  0
    0.6108    0.3347    0.3991 O   0  0  0  0  0  0  0  0  0  0  0  0
   -0.6697   -0.0897    0.0877 C   0  0  0  0  0  0  0  0  0  0  0  0
   -0.7542   -1.2583   -0.4214 O   0  0  0  0  0  0  0  0  0  0  0  0
   -1.8496    0.7175    0.3141 C   0  0  0  0  0  0  0  0  0  0  0  0
   -1.6953    1.8556    0.8173 O   0  0  0  0  0  0  0  0  0  0  0  0
   -3.1776    0.1819   -0.0498 C   0  0  0  0  0  0  0  0  0  0  0  0
    3.3407    0.8238   -0.2569 H   0  0  0  0  0  0  0  0  0  0  0  0
    2.8344    0.6410    1.5079 H   0  0  0  0  0  0  0  0  0  0  0  0
    3.7825   -0.6900    0.6274 H   0  0  0  0  0  0  0  0  0  0  0  0
    1.5297   -1.4358    0.7686 H   0  0  0  0  0  0  0  0  0  0  0  0
    1.7735   -0.7660   -0.9313 H   0  0  0  0  0  0  0  0  0  0  0  0
   -3.0985   -0.2084   -1.0841 H   0  0  0  0  0  0  0  0  0  0  0  0
   -3.9390    0.9700    0.0104 H   0  0  0  0  0  0  0  0  0  0  0  0
   -3.4325   -0.6676    0.6110 H   0  0  0  0  0  0  0  0  0  0  0  0
  1  2  1  0
  2  3  1  0
  3  4  1  0
  4  5  2  0
  4  6  1  0
  6  7  2  0
  6  8  1  0
  1  9  1  0
  1 10  1  0
  1 11  1  0
  2 12  1  0
  2 13  1  0
  8 14  1  0
  8 15  1  0
  8 16  1  0
M  END
>  <Ligand ID>  (1) 
LIG0000630

>  <Ligand>  (1) 
Ethyl pyruvate

>  <SMILES>  (1) 
CCOC(=O)C(=O)C

>  <CID>  (1) 
12041.0

>  <ChEMBL ID>  (1) 
nan

>  <InChiKey>  (1) 
XXRCUYVCPSWGCC-UHFFFAOYSA-N

>  <InChi>  (1) 
InChI=1S/C5H8O3/c1-3-8-5(7)4(2)6/h3H2,1-2H3

>  <IUPAC Name>  (1) 
ethyl 2-oxopropanoate

$$$$
