
     RDKit          3D

 45 47  0  0  0  0  0  0  0  0999 V2000
   -6.2104    2.9887   -1.4769 C   0  0  0  0  0  0  0  0  0  0  0  0
   -5.6989    2.4523   -0.2939 O   0  0  0  0  0  0  0  0  0  0  0  0
   -4.6319    1.5957   -0.1762 C   0  0  0  0  0  0  0  0  0  0  0  0
   -3.8854    1.1236   -1.2325 C   0  0  0  0  0  0  0  0  0  0  0  0
   -2.8166    0.2594   -1.0596 C   0  0  0  0  0  0  0  0  0  0  0  0
   -2.4923   -0.1396    0.2178 C   0  0  0  0  0  0  0  0  0  0  0  0
   -3.2406    0.3336    1.2778 C   0  0  0  0  0  0  0  0  0  0  0  0
   -4.2916    1.1834    1.1071 C   0  0  0  0  0  0  0  0  0  0  0  0
   -1.3653   -1.0502    0.3951 C   0  0  0  0  0  0  0  0  0  0  0  0
   -1.2952   -2.1354   -0.4766 C   0  0  0  0  0  0  0  0  0  0  0  0
   -0.2128   -2.9825   -0.2826 C   0  0  0  0  0  0  0  0  0  0  0  0
   -0.0303   -4.1865   -1.1607 C   0  0  0  0  0  0  0  0  0  0  0  0
    0.7009   -2.7618    0.6843 N   0  0  0  0  0  0  0  0  0  0  0  0
    0.6148   -1.7107    1.5132 N   0  0  0  0  0  0  0  0  0  0  0  0
   -0.4037   -0.8614    1.3755 C   0  0  0  0  0  0  0  0  0  0  0  0
   -0.4830    0.1234    2.1532 O   0  0  0  0  0  0  0  0  0  0  0  0
    1.6538   -1.5731    2.5155 C   0  0  0  0  0  0  0  0  0  0  0  0
    2.8110   -0.7656    2.0343 C   0  0  0  0  0  0  0  0  0  0  0  0
    3.7501   -0.5902    2.8156 O   0  0  0  0  0  0  0  0  0  0  0  0
    2.8013   -0.2391    0.7361 N   0  0  0  0  0  0  0  0  0  0  0  0
    3.8080    0.5408    0.1284 C   0  0  0  0  0  0  0  0  0  0  0  0
    3.6055    0.9729   -1.1876 C   0  0  0  0  0  0  0  0  0  0  0  0
    4.5361    1.7303   -1.8383 C   0  0  0  0  0  0  0  0  0  0  0  0
    5.7250    2.1150   -1.2462 C   0  0  0  0  0  0  0  0  0  0  0  0
    5.9406    1.7008    0.0431 C   0  0  0  0  0  0  0  0  0  0  0  0
    4.9815    0.9243    0.7037 C   0  0  0  0  0  0  0  0  0  0  0  0
    7.0207    3.1681   -2.1488 Br  0  0  0  0  0  0  0  0  0  0  0  0
   -5.9837    2.3107   -2.3047 H   0  0  0  0  0  0  0  0  0  0  0  0
   -7.2973    3.2034   -1.3748 H   0  0  0  0  0  0  0  0  0  0  0  0
   -5.6964    3.9781   -1.6459 H   0  0  0  0  0  0  0  0  0  0  0  0
   -4.1413    1.4378   -2.2347 H   0  0  0  0  0  0  0  0  0  0  0  0
   -2.2410   -0.1022   -1.8958 H   0  0  0  0  0  0  0  0  0  0  0  0
   -2.9468   -0.0099    2.2733 H   0  0  0  0  0  0  0  0  0  0  0  0
   -4.8611    1.5384    1.9596 H   0  0  0  0  0  0  0  0  0  0  0  0
   -2.0285   -2.3093   -1.2499 H   0  0  0  0  0  0  0  0  0  0  0  0
   -0.1503   -5.0708   -0.4861 H   0  0  0  0  0  0  0  0  0  0  0  0
   -0.7892   -4.1909   -1.9637 H   0  0  0  0  0  0  0  0  0  0  0  0
    0.9976   -4.2267   -1.5651 H   0  0  0  0  0  0  0  0  0  0  0  0
    1.9612   -2.5955    2.8241 H   0  0  0  0  0  0  0  0  0  0  0  0
    1.2190   -1.1030    3.4213 H   0  0  0  0  0  0  0  0  0  0  0  0
    1.9363   -0.4567    0.1531 H   0  0  0  0  0  0  0  0  0  0  0  0
    2.6900    0.7124   -1.7310 H   0  0  0  0  0  0  0  0  0  0  0  0
    4.3499    2.0414   -2.8380 H   0  0  0  0  0  0  0  0  0  0  0  0
    6.8571    1.9810    0.5395 H   0  0  0  0  0  0  0  0  0  0  0  0
    5.2328    0.6455    1.7084 H   0  0  0  0  0  0  0  0  0  0  0  0
  1  2  1  0
  2  3  1  0
  3  4  2  0
  4  5  1  0
  5  6  2  0
  6  7  1  0
  7  8  2  0
  6  9  1  0
  9 10  2  0
 10 11  1  0
 11 12  1  0
 11 13  2  0
 13 14  1  0
 14 15  1  0
 15 16  2  0
 14 17  1  0
 17 18  1  0
 18 19  2  0
 18 20  1  0
 20 21  1  0
 21 22  2  0
 22 23  1  0
 23 24  2  0
 24 25  1  0
 25 26  2  0
 24 27  1  0
  8  3  1  0
 15  9  1  0
 26 21  1  0
  1 28  1  0
  1 29  1  0
  1 30  1  0
  4 31  1  0
  5 32  1  0
  7 33  1  0
  8 34  1  0
 10 35  1  0
 12 36  1  0
 12 37  1  0
 12 38  1  0
 17 39  1  0
 17 40  1  0
 20 41  1  0
 22 42  1  0
 23 43  1  0
 25 44  1  0
 26 45  1  0
M  END
>  <Ligand ID>  (1) 
LIG0003936

>  <Ligand>  (1) 
CHEMBL2391452

>  <SMILES>  (1) 
COc1ccc(cc1)c1cc(C)nn(c1=O)CC(=O)Nc1ccc(cc1)Br

>  <CID>  (1) 
71698446.0

>  <ChEMBL ID>  (1) 
nan

>  <InChiKey>  (1) 
AJOBDTHTCCXCQQ-UHFFFAOYSA-N

>  <InChi>  (1) 
InChI=1S/C20H18BrN3O3/c1-13-11-18(14-3-9-17(27-2)10-4-14)20(26)24(23-13)12-19(25)22-16-7-5-15(21)6-8-16/h3-11H,12H2,1-2H3,(H,22,25)

>  <IUPAC Name>  (1) 
N-(4-bromophenyl)-2-[5-(4-methoxyphenyl)-3-methyl-6-oxopyridazin-1-yl]acetamide

$$$$
