
     RDKit          3D

 10  9  0  0  0  0  0  0  0  0999 V2000
    2.0458   -0.3139   -0.5638 S   0  0  0  0  0  0  0  0  0  0  0  0
    0.3675   -0.5586    0.0653 C   0  0  0  0  0  0  0  0  0  0  0  0
   -0.4192    0.7345   -0.0061 C   0  0  0  0  0  0  0  0  0  0  0  0
   -2.0814    0.4883    0.6180 S   0  0  0  0  0  0  0  0  0  0  0  0
    2.9981   -0.2068    0.4508 H   0  0  0  0  0  0  0  0  0  0  0  0
    0.3272   -1.0211    1.0583 H   0  0  0  0  0  0  0  0  0  0  0  0
   -0.1285   -1.2865   -0.6246 H   0  0  0  0  0  0  0  0  0  0  0  0
    0.1160    1.5705    0.4874 H   0  0  0  0  0  0  0  0  0  0  0  0
   -0.4890    0.9988   -1.0930 H   0  0  0  0  0  0  0  0  0  0  0  0
   -2.7363   -0.4053   -0.2205 H   0  0  0  0  0  0  0  0  0  0  0  0
  1  2  1  0
  2  3  1  0
  3  4  1  0
  1  5  1  0
  2  6  1  0
  2  7  1  0
  3  8  1  0
  3  9  1  0
  4 10  1  0
M  END
>  <Ligand ID>  (1) 
LIG0000484

>  <Ligand>  (1) 
1,2-Ethanedithiol

>  <SMILES>  (1) 
SCCS

>  <CID>  (1) 
10902.0

>  <ChEMBL ID>  (1) 
nan

>  <InChiKey>  (1) 
VYMPLPIFKRHAAC-UHFFFAOYSA-N

>  <InChi>  (1) 
InChI=1S/C2H6S2/c3-1-2-4/h3-4H,1-2H2

>  <IUPAC Name>  (1) 
ethane-1,2-dithiol

$$$$
