
     RDKit          3D

102105  0  0  0  0  0  0  0  0999 V2000
   -6.4585   -4.9609   -4.2686 C   0  0  0  0  0  0  0  0  0  0  0  0
   -6.4236   -4.4357   -3.0526 C   0  0  0  0  0  0  0  0  0  0  0  0
   -6.1507   -2.9862   -2.7971 C   0  0  0  0  0  0  0  0  0  0  0  0
   -4.9504   -2.8775   -1.9668 N   0  0  0  0  0  0  0  0  0  0  0  0
   -4.5685   -1.5427   -1.5989 C   0  0  0  0  0  0  0  0  0  0  0  0
   -5.2626   -0.5750   -1.9871 O   0  0  0  0  0  0  0  0  0  0  0  0
   -3.3883   -1.3697   -0.7845 N   0  0  0  0  0  0  0  0  0  0  0  0
   -3.0193   -0.0357   -0.3788 C   0  0  2  0  0  0  0  0  0  0  0  0
   -1.7696    0.4683   -0.9686 C   0  0  0  0  0  0  0  0  0  0  0  0
   -1.0617   -0.1992   -1.7866 O   0  0  0  0  0  0  0  0  0  0  0  0
   -1.3523    1.7714   -0.5892 N   0  0  0  0  0  0  0  0  0  0  0  0
   -0.1723    2.4499   -1.0483 C   0  0  2  0  0  0  0  0  0  0  0  0
    0.9571    2.4235   -0.0816 C   0  0  0  0  0  0  0  0  0  0  0  0
    1.9029    3.2487   -0.3219 O   0  0  0  0  0  0  0  0  0  0  0  0
    1.0237    1.5616    1.0364 N   0  0  0  0  0  0  0  0  0  0  0  0
    2.1890    1.6780    1.8971 C   0  0  2  0  0  0  0  0  0  0  0  0
    3.4016    1.1380    1.1581 C   0  0  0  0  0  0  0  0  0  0  0  0
    4.4867    1.2702    1.8451 O   0  0  0  0  0  0  0  0  0  0  0  0
    3.3506    0.5732   -0.1067 N   0  0  0  0  0  0  0  0  0  0  0  0
    4.6155    0.1115   -0.7127 C   0  0  2  0  0  0  0  0  0  0  0  0
    4.7144    0.7587   -2.0067 C   0  0  0  0  0  0  0  0  0  0  0  0
    3.6376    1.3823   -2.3867 O   0  0  0  0  0  0  0  0  0  0  0  0
    5.7816    0.8190   -2.9031 N   0  0  0  0  0  0  0  0  0  0  0  0
    4.6869   -1.3811   -0.6750 C   0  0  0  0  0  0  0  0  0  0  0  0
    5.8915   -1.9618   -1.2662 C   0  0  0  0  0  0  0  0  0  0  0  0
    7.0295   -2.2659   -0.5243 C   0  0  0  0  0  0  0  0  0  0  0  0
    7.9924   -2.7513   -1.3337 N   0  0  0  0  0  0  0  0  0  0  0  0
    7.5066   -2.7720   -2.5924 C   0  0  0  0  0  0  0  0  0  0  0  0
    6.1995   -2.2843   -2.5688 C   0  0  0  0  0  0  0  0  0  0  0  0
    5.5009   -2.2310   -3.7315 C   0  0  0  0  0  0  0  0  0  0  0  0
    6.0507   -2.6407   -4.9089 C   0  0  0  0  0  0  0  0  0  0  0  0
    7.3652   -3.1301   -4.9372 C   0  0  0  0  0  0  0  0  0  0  0  0
    8.0951   -3.1929   -3.7613 C   0  0  0  0  0  0  0  0  0  0  0  0
    2.0499    1.0327    3.2256 C   0  0  0  0  0  0  0  0  0  0  0  0
    1.7978   -0.4600    3.1042 C   0  0  0  0  0  0  0  0  0  0  0  0
    1.6862   -1.0555    4.4837 C   0  0  0  0  0  0  0  0  0  0  0  0
    0.6202   -0.5252    5.2723 N   0  0  0  0  0  0  0  0  0  0  0  0
   -0.3618   -1.2883    5.5960 C   0  0  0  0  0  0  0  0  0  0  0  0
   -0.5035   -2.6472    5.2400 N   0  0  0  0  0  0  0  0  0  0  0  0
   -1.3963   -0.6787    6.3886 N   0  0  0  0  0  0  0  0  0  0  0  0
   -0.3858    3.7402   -1.7432 C   0  0  0  0  0  0  0  0  0  0  0  0
   -1.0738    4.7990   -0.9698 C   0  0  0  0  0  0  0  0  0  0  0  0
   -0.4159    5.7038   -0.1552 C   0  0  0  0  0  0  0  0  0  0  0  0
   -1.1458    6.6830    0.5378 C   0  0  0  0  0  0  0  0  0  0  0  0
   -2.5097    6.7545    0.4161 C   0  0  0  0  0  0  0  0  0  0  0  0
   -3.1530    5.8531   -0.3944 C   0  0  0  0  0  0  0  0  0  0  0  0
   -2.4571    4.8607   -1.1019 C   0  0  0  0  0  0  0  0  0  0  0  0
   -3.1182    0.1368    1.1210 C   0  0  0  0  0  0  0  0  0  0  0  0
   -4.5276   -0.1158    1.5551 C   0  0  0  0  0  0  0  0  0  0  0  0
   -4.9855   -1.3564    1.9333 C   0  0  0  0  0  0  0  0  0  0  0  0
   -6.3125   -1.4945    2.3107 C   0  0  0  0  0  0  0  0  0  0  0  0
   -7.1874   -0.4043    2.3138 C   0  0  0  0  0  0  0  0  0  0  0  0
   -6.7325    0.8404    1.9360 C   0  0  0  0  0  0  0  0  0  0  0  0
   -5.4186    0.9624    1.5655 C   0  0  0  0  0  0  0  0  0  0  0  0
   -8.8762   -0.5965    2.7890 Cl  0  0  0  0  0  0  0  0  0  0  0  0
   -6.2877   -4.3549   -5.1586 H   0  0  0  0  0  0  0  0  0  0  0  0
   -6.6632   -6.0236   -4.3737 H   0  0  0  0  0  0  0  0  0  0  0  0
   -6.5940   -5.0477   -2.1771 H   0  0  0  0  0  0  0  0  0  0  0  0
   -5.9816   -2.4551   -3.7736 H   0  0  0  0  0  0  0  0  0  0  0  0
   -7.0305   -2.5276   -2.3272 H   0  0  0  0  0  0  0  0  0  0  0  0
   -4.3956   -3.6827   -1.6480 H   0  0  0  0  0  0  0  0  0  0  0  0
   -2.8613   -2.2308   -0.5335 H   0  0  0  0  0  0  0  0  0  0  0  0
   -3.8474    0.6257   -0.7890 H   0  0  0  0  0  0  0  0  0  0  0  0
   -1.9500    2.3104    0.0883 H   0  0  0  0  0  0  0  0  0  0  0  0
    0.2057    1.7529   -1.8794 H   0  0  0  0  0  0  0  0  0  0  0  0
    0.2517    0.8767    1.2151 H   0  0  0  0  0  0  0  0  0  0  0  0
    2.4343    2.7455    1.9892 H   0  0  0  0  0  0  0  0  0  0  0  0
    2.4416    0.4807   -0.6062 H   0  0  0  0  0  0  0  0  0  0  0  0
    5.4045    0.4771    0.0022 H   0  0  0  0  0  0  0  0  0  0  0  0
    6.7693    0.9869   -2.5976 H   0  0  0  0  0  0  0  0  0  0  0  0
    5.6581    0.7006   -3.9417 H   0  0  0  0  0  0  0  0  0  0  0  0
    4.5894   -1.6909    0.4116 H   0  0  0  0  0  0  0  0  0  0  0  0
    3.7970   -1.8404   -1.2088 H   0  0  0  0  0  0  0  0  0  0  0  0
    7.1251   -2.1339    0.5375 H   0  0  0  0  0  0  0  0  0  0  0  0
    8.9328   -3.0448   -0.9835 H   0  0  0  0  0  0  0  0  0  0  0  0
    4.4834   -1.8511   -3.6886 H   0  0  0  0  0  0  0  0  0  0  0  0
    5.4875   -2.5954   -5.8188 H   0  0  0  0  0  0  0  0  0  0  0  0
    7.8472   -3.4624   -5.8319 H   0  0  0  0  0  0  0  0  0  0  0  0
    9.1145   -3.5717   -3.7864 H   0  0  0  0  0  0  0  0  0  0  0  0
    1.1732    1.4577    3.7551 H   0  0  0  0  0  0  0  0  0  0  0  0
    2.9424    1.2227    3.8165 H   0  0  0  0  0  0  0  0  0  0  0  0
    0.8323   -0.6596    2.5852 H   0  0  0  0  0  0  0  0  0  0  0  0
    2.5709   -0.9714    2.5140 H   0  0  0  0  0  0  0  0  0  0  0  0
    2.6385   -0.7730    5.0240 H   0  0  0  0  0  0  0  0  0  0  0  0
    1.7341   -2.1678    4.4494 H   0  0  0  0  0  0  0  0  0  0  0  0
    0.2758   -3.3382    5.1800 H   0  0  0  0  0  0  0  0  0  0  0  0
   -1.4987   -2.9620    5.0231 H   0  0  0  0  0  0  0  0  0  0  0  0
   -2.1207   -0.0498    5.9755 H   0  0  0  0  0  0  0  0  0  0  0  0
   -1.4345   -0.8692    7.4335 H   0  0  0  0  0  0  0  0  0  0  0  0
   -0.9416    3.5229   -2.6819 H   0  0  0  0  0  0  0  0  0  0  0  0
    0.6168    4.1023   -2.0848 H   0  0  0  0  0  0  0  0  0  0  0  0
    0.6598    5.6576   -0.0543 H   0  0  0  0  0  0  0  0  0  0  0  0
   -0.6454    7.3906    1.1766 H   0  0  0  0  0  0  0  0  0  0  0  0
   -3.0870    7.5177    0.9573 H   0  0  0  0  0  0  0  0  0  0  0  0
   -4.2498    5.9263   -0.4836 H   0  0  0  0  0  0  0  0  0  0  0  0
   -2.9787    4.1516   -1.7415 H   0  0  0  0  0  0  0  0  0  0  0  0
   -2.8869    1.1596    1.3932 H   0  0  0  0  0  0  0  0  0  0  0  0
   -2.4516   -0.6169    1.5976 H   0  0  0  0  0  0  0  0  0  0  0  0
   -4.3149   -2.1752    1.9277 H   0  0  0  0  0  0  0  0  0  0  0  0
   -6.7316   -2.4474    2.6157 H   0  0  0  0  0  0  0  0  0  0  0  0
   -7.3603    1.7213    1.9184 H   0  0  0  0  0  0  0  0  0  0  0  0
   -5.0672    1.9519    1.2683 H   0  0  0  0  0  0  0  0  0  0  0  0
  1  2  2  0
  2  3  1  0
  3  4  1  0
  4  5  1  0
  5  6  2  0
  5  7  1  0
  7  8  1  0
  8  9  1  0
  9 10  2  0
  9 11  1  0
 11 12  1  0
 12 13  1  0
 13 14  2  0
 13 15  1  0
 15 16  1  0
 16 17  1  0
 17 18  2  0
 17 19  1  0
 19 20  1  0
 20 21  1  0
 21 22  2  0
 21 23  1  0
 20 24  1  0
 24 25  1  0
 25 26  2  0
 26 27  1  0
 27 28  1  0
 28 29  2  0
 29 30  1  0
 30 31  2  0
 31 32  1  0
 32 33  2  0
 16 34  1  0
 34 35  1  0
 35 36  1  0
 36 37  1  0
 37 38  2  3
 38 39  1  0
 38 40  1  0
 12 41  1  0
 41 42  1  0
 42 43  2  0
 43 44  1  0
 44 45  2  0
 45 46  1  0
 46 47  2  0
  8 48  1  0
 48 49  1  0
 49 50  2  0
 50 51  1  0
 51 52  2  0
 52 53  1  0
 53 54  2  0
 52 55  1  0
 29 25  1  0
 47 42  1  0
 54 49  1  0
 33 28  1  0
  1 56  1  0
  1 57  1  0
  2 58  1  0
  3 59  1  0
  3 60  1  0
  4 61  1  0
  7 62  1  0
  8 63  1  6
 11 64  1  0
 12 65  1  6
 15 66  1  0
 16 67  1  1
 19 68  1  0
 20 69  1  1
 23 70  1  0
 23 71  1  0
 24 72  1  0
 24 73  1  0
 26 74  1  0
 27 75  1  0
 30 76  1  0
 31 77  1  0
 32 78  1  0
 33 79  1  0
 34 80  1  0
 34 81  1  0
 35 82  1  0
 35 83  1  0
 36 84  1  0
 36 85  1  0
 39 86  1  0
 39 87  1  0
 40 88  1  0
 40 89  1  0
 41 90  1  0
 41 91  1  0
 43 92  1  0
 44 93  1  0
 45 94  1  0
 46 95  1  0
 47 96  1  0
 48 97  1  0
 48 98  1  0
 50 99  1  0
 51100  1  0
 53101  1  0
 54102  1  0
M  END
>  <Ligand ID>  (1) 
LIG0002337

>  <Ligand>  (1) 
CHEMBL184870

>  <SMILES>  (1) 
C=CCNC(=O)N[C@H](C(=O)N[C@H](C(=O)N[C@H](C(=O)N[C@H](C(=O)N)Cc1c[nH]c2c1cccc2)CCCN=C(N)N)Cc1ccccc1)Cc1ccc(cc1)Cl

>  <CID>  (1) 
44394733.0

>  <ChEMBL ID>  (1) 
nan

>  <InChiKey>  (1) 
VRCDKEVSYZWTDF-YRCZKMHPSA-N

>  <InChi>  (1) 
InChI=1S/C39H47ClN10O5/c1-2-18-45-39(55)50-33(21-25-14-16-27(40)17-15-25)37(54)49-32(20-24-9-4-3-5-10-24)36(53)47-30(13-8-19-44-38(42)43)35(52)48-31(34(41)51)22-26-23-46-29-12-7-6-11-28(26)29/h2-7,9-12,14-17,23,30-33,46H,1,8,13,18-22H2,(H2,41,51)(H,47,53)(H,48,52)(H,49,54)(H4,42,43,44)(H2,45,50,55)/t30-,31-,32-,33-/m0/s1

>  <IUPAC Name>  (1) 
(2S)-N-[(2S)-1-amino-3-(1H-indol-3-yl)-1-oxopropan-2-yl]-2-[[(2S)-2-[[(2S)-3-(4-chlorophenyl)-2-(prop-2-enylcarbamoylamino)propanoyl]amino]-3-phenylpropanoyl]amino]-5-(diaminomethylideneamino)pentanamide

$$$$
