
     RDKit          3D

144149  0  0  0  0  0  0  0  0999 V2000
   10.1350   -5.5350   -2.3751 C   0  0  0  0  0  0  0  0  0  0  0  0
   10.1304   -4.1775   -1.7507 C   0  0  0  0  0  0  0  0  0  0  0  0
    8.9939   -3.2857   -2.2481 C   0  0  0  0  0  0  0  0  0  0  0  0
    9.1660   -1.9763   -1.5166 C   0  0  0  0  0  0  0  0  0  0  0  0
    8.1168   -0.9417   -1.8629 C   0  0  1  0  0  0  0  0  0  0  0  0
    6.7520   -1.4248   -1.5283 C   0  0  0  0  0  0  0  0  0  0  0  0
    6.1972   -2.1784   -2.3753 O   0  0  0  0  0  0  0  0  0  0  0  0
    6.1816   -1.0256   -0.3198 N   0  0  0  0  0  0  0  0  0  0  0  0
    4.8608   -1.3982    0.1724 C   0  0  1  0  0  0  0  0  0  0  0  0
    5.0171   -2.6761    0.8989 C   0  0  0  0  0  0  0  0  0  0  0  0
    3.8558   -3.2210    1.6159 C   0  0  0  0  0  0  0  0  0  0  0  0
    3.0188   -2.5912    2.2709 O   0  0  0  0  0  0  0  0  0  0  0  0
    3.5553   -4.6599    1.6159 N   0  0  0  0  0  0  0  0  0  0  0  0
    2.4169   -5.1711    2.3367 C   0  0  0  0  0  0  0  0  0  0  0  0
    1.0872   -4.6013    1.9641 C   0  0  0  0  0  0  0  0  0  0  0  0
    0.0695   -5.2870    2.8770 C   0  0  0  0  0  0  0  0  0  0  0  0
   -1.2291   -4.6561    2.8562 C   0  0  0  0  0  0  0  0  0  0  0  0
   -1.9746   -4.6686    1.5216 C   0  0  2  0  0  0  0  0  0  0  0  0
   -3.2198   -3.9117    1.8004 N   0  0  0  0  0  0  0  0  0  0  0  0
   -3.5109   -2.6670    1.1329 C   0  0  0  0  0  0  0  0  0  0  0  0
   -2.7602   -2.3944    0.1950 O   0  0  0  0  0  0  0  0  0  0  0  0
   -4.6511   -1.8276    1.6089 C   0  0  1  0  0  0  0  0  0  0  0  0
   -4.5529   -0.4998    0.9147 N   0  0  0  0  0  0  0  0  0  0  0  0
   -3.4056    0.3243    1.0725 C   0  0  0  0  0  0  0  0  0  0  0  0
   -2.4552   -0.2152    1.6616 O   0  0  0  0  0  0  0  0  0  0  0  0
   -3.2997    1.7156    0.5686 C   0  0  1  0  0  0  0  0  0  0  0  0
   -2.1033    2.0321   -0.1507 N   0  0  0  0  0  0  0  0  0  0  0  0
   -0.8976    2.5501    0.4101 C   0  0  0  0  0  0  0  0  0  0  0  0
   -0.9057    2.6815    1.6387 O   0  0  0  0  0  0  0  0  0  0  0  0
    0.2889    2.8946   -0.4555 C   0  0  2  0  0  0  0  0  0  0  0  0
    1.3871    3.0985    0.4622 N   0  0  0  0  0  0  0  0  0  0  0  0
    2.4966    2.2174    0.3523 C   0  0  0  0  0  0  0  0  0  0  0  0
    2.4824    1.4416   -0.6201 O   0  0  0  0  0  0  0  0  0  0  0  0
    3.6573    2.1300    1.2655 C   0  0  1  0  0  0  0  0  0  0  0  0
    4.5146    1.0915    0.6567 N   0  0  0  0  0  0  0  0  0  0  0  0
    4.0842   -0.3096    0.7354 C   0  0  0  0  0  0  0  0  0  0  0  0
    2.9875   -0.3919    1.3325 O   0  0  0  0  0  0  0  0  0  0  0  0
    4.3646    3.3473    1.6459 C   0  0  0  0  0  0  0  0  0  0  0  0
    4.9750    4.1309    0.5680 C   0  0  0  0  0  0  0  0  0  0  0  0
    6.2221    4.0073    0.0589 N   0  0  0  0  0  0  0  0  0  0  0  0
    6.4097    4.9130   -0.9069 C   0  0  0  0  0  0  0  0  0  0  0  0
    5.2946    5.6163   -1.0225 N   0  0  0  0  0  0  0  0  0  0  0  0
    4.3956    5.1599   -0.1305 C   0  0  0  0  0  0  0  0  0  0  0  0
   -0.0126    3.9572   -1.4252 C   0  0  0  0  0  0  0  0  0  0  0  0
   -0.4488    5.2557   -0.9517 C   0  0  0  0  0  0  0  0  0  0  0  0
    0.3401    6.3495   -0.6940 C   0  0  0  0  0  0  0  0  0  0  0  0
   -0.1491    7.5528   -0.2439 C   0  0  0  0  0  0  0  0  0  0  0  0
   -1.4926    7.7283   -0.0215 C   0  0  0  0  0  0  0  0  0  0  0  0
   -2.3306    6.6411   -0.2705 C   0  0  0  0  0  0  0  0  0  0  0  0
   -1.8205    5.4402   -0.7238 C   0  0  0  0  0  0  0  0  0  0  0  0
   -3.7040    6.7655   -0.0542 C   0  0  0  0  0  0  0  0  0  0  0  0
   -4.2100    7.9715    0.4045 C   0  0  0  0  0  0  0  0  0  0  0  0
   -3.3860    9.0521    0.6514 C   0  0  0  0  0  0  0  0  0  0  0  0
   -2.0095    8.9203    0.4324 C   0  0  0  0  0  0  0  0  0  0  0  0
   -4.5781    2.3006    0.0764 C   0  0  0  0  0  0  0  0  0  0  0  0
   -5.6013    2.3914    1.1923 C   0  0  0  0  0  0  0  0  0  0  0  0
   -6.9172    2.9829    0.7055 C   0  0  0  0  0  0  0  0  0  0  0  0
   -7.3917    2.1009   -0.3440 N   0  0  0  0  0  0  0  0  0  0  0  0
   -7.8810    2.6291   -1.4225 C   0  0  0  0  0  0  0  0  0  0  0  0
   -7.9040    4.0542   -1.4713 N   0  0  0  0  0  0  0  0  0  0  0  0
   -8.3587    1.8065   -2.4788 N   0  0  0  0  0  0  0  0  0  0  0  0
   -6.0055   -2.3572    1.4467 C   0  0  0  0  0  0  0  0  0  0  0  0
   -6.5093   -2.5591    0.0841 C   0  0  0  0  0  0  0  0  0  0  0  0
   -7.4031   -1.6363   -0.4952 C   0  0  0  0  0  0  0  0  0  0  0  0
   -7.7176   -2.0145   -1.7401 N   0  0  0  0  0  0  0  0  0  0  0  0
   -7.0585   -3.1651   -2.0078 C   0  0  0  0  0  0  0  0  0  0  0  0
   -6.3225   -3.4918   -0.8881 C   0  0  0  0  0  0  0  0  0  0  0  0
   -5.5672   -4.6215   -0.9144 C   0  0  0  0  0  0  0  0  0  0  0  0
   -5.5358   -5.4220   -2.0331 C   0  0  0  0  0  0  0  0  0  0  0  0
   -6.2778   -5.0856   -3.1515 C   0  0  0  0  0  0  0  0  0  0  0  0
   -7.0557   -3.9399   -3.1495 C   0  0  0  0  0  0  0  0  0  0  0  0
   -2.3433   -6.0391    1.1599 C   0  0  0  0  0  0  0  0  0  0  0  0
   -3.4274   -6.6037    1.1610 O   0  0  0  0  0  0  0  0  0  0  0  0
   -1.2163   -6.8761    0.7195 N   0  0  0  0  0  0  0  0  0  0  0  0
    8.4077    0.1888   -0.9643 N   0  0  0  0  0  0  0  0  0  0  0  0
   11.1753   -5.7954   -2.7313 H   0  0  0  0  0  0  0  0  0  0  0  0
    9.9247   -6.3238   -1.6096 H   0  0  0  0  0  0  0  0  0  0  0  0
    9.4461   -5.6699   -3.2126 H   0  0  0  0  0  0  0  0  0  0  0  0
   10.0244   -4.2731   -0.6385 H   0  0  0  0  0  0  0  0  0  0  0  0
   11.0893   -3.6593   -1.9386 H   0  0  0  0  0  0  0  0  0  0  0  0
    8.0141   -3.7577   -2.0595 H   0  0  0  0  0  0  0  0  0  0  0  0
    9.1656   -3.0924   -3.3281 H   0  0  0  0  0  0  0  0  0  0  0  0
   10.1775   -1.5933   -1.7566 H   0  0  0  0  0  0  0  0  0  0  0  0
    9.1761   -2.2031   -0.4307 H   0  0  0  0  0  0  0  0  0  0  0  0
    8.1931   -0.6378   -2.8982 H   0  0  0  0  0  0  0  0  0  0  0  0
    6.7255   -0.3907    0.3351 H   0  0  0  0  0  0  0  0  0  0  0  0
    4.2984   -1.7299   -0.7959 H   0  0  0  0  0  0  0  0  0  0  0  0
    5.3321   -3.4643    0.1454 H   0  0  0  0  0  0  0  0  0  0  0  0
    5.8785   -2.6608    1.6220 H   0  0  0  0  0  0  0  0  0  0  0  0
    4.2257   -5.1978    1.0665 H   0  0  0  0  0  0  0  0  0  0  0  0
    2.3831   -6.2827    2.1550 H   0  0  0  0  0  0  0  0  0  0  0  0
    2.6079   -5.0863    3.4437 H   0  0  0  0  0  0  0  0  0  0  0  0
    1.0318   -3.5136    2.0973 H   0  0  0  0  0  0  0  0  0  0  0  0
    0.8751   -4.7985    0.8867 H   0  0  0  0  0  0  0  0  0  0  0  0
    0.0555   -6.3878    2.6776 H   0  0  0  0  0  0  0  0  0  0  0  0
    0.4866   -5.2228    3.9259 H   0  0  0  0  0  0  0  0  0  0  0  0
   -1.1615   -3.5720    3.1189 H   0  0  0  0  0  0  0  0  0  0  0  0
   -1.9541   -5.0801    3.5907 H   0  0  0  0  0  0  0  0  0  0  0  0
   -1.4186   -4.1937    0.7135 H   0  0  0  0  0  0  0  0  0  0  0  0
   -3.9259   -4.2217    2.4579 H   0  0  0  0  0  0  0  0  0  0  0  0
   -4.3568   -1.5676    2.6517 H   0  0  0  0  0  0  0  0  0  0  0  0
   -5.2766   -0.1592    0.2943 H   0  0  0  0  0  0  0  0  0  0  0  0
   -3.1910    2.2689    1.6211 H   0  0  0  0  0  0  0  0  0  0  0  0
   -2.0763    1.8822   -1.1651 H   0  0  0  0  0  0  0  0  0  0  0  0
    0.4732    1.9364   -1.0413 H   0  0  0  0  0  0  0  0  0  0  0  0
    1.4575    3.8100    1.1840 H   0  0  0  0  0  0  0  0  0  0  0  0
    3.2068    1.6569    2.2116 H   0  0  0  0  0  0  0  0  0  0  0  0
    5.3786    1.2333    0.1790 H   0  0  0  0  0  0  0  0  0  0  0  0
    3.7578    4.0227    2.3314 H   0  0  0  0  0  0  0  0  0  0  0  0
    5.2100    3.0391    2.3401 H   0  0  0  0  0  0  0  0  0  0  0  0
    6.9486    3.3034    0.3758 H   0  0  0  0  0  0  0  0  0  0  0  0
    7.2970    5.0778   -1.5131 H   0  0  0  0  0  0  0  0  0  0  0  0
    3.3835    5.4892    0.0640 H   0  0  0  0  0  0  0  0  0  0  0  0
    0.9180    4.1234   -2.0544 H   0  0  0  0  0  0  0  0  0  0  0  0
   -0.7229    3.5150   -2.1949 H   0  0  0  0  0  0  0  0  0  0  0  0
    1.3947    6.2542   -0.8639 H   0  0  0  0  0  0  0  0  0  0  0  0
    0.4873    8.4148   -0.0436 H   0  0  0  0  0  0  0  0  0  0  0  0
   -2.5187    4.6530   -0.9023 H   0  0  0  0  0  0  0  0  0  0  0  0
   -4.3362    5.9100   -0.2527 H   0  0  0  0  0  0  0  0  0  0  0  0
   -5.2864    8.0903    0.5824 H   0  0  0  0  0  0  0  0  0  0  0  0
   -3.8094    9.9961    1.0128 H   0  0  0  0  0  0  0  0  0  0  0  0
   -1.3602    9.7564    0.6232 H   0  0  0  0  0  0  0  0  0  0  0  0
   -4.3841    3.3122   -0.3605 H   0  0  0  0  0  0  0  0  0  0  0  0
   -5.0145    1.6939   -0.7507 H   0  0  0  0  0  0  0  0  0  0  0  0
   -5.2361    3.1597    1.9556 H   0  0  0  0  0  0  0  0  0  0  0  0
   -5.7084    1.4787    1.7799 H   0  0  0  0  0  0  0  0  0  0  0  0
   -6.8076    4.0204    0.3917 H   0  0  0  0  0  0  0  0  0  0  0  0
   -7.6797    2.9518    1.5240 H   0  0  0  0  0  0  0  0  0  0  0  0
   -8.8254    4.5751   -1.4439 H   0  0  0  0  0  0  0  0  0  0  0  0
   -7.0238    4.6378   -1.5343 H   0  0  0  0  0  0  0  0  0  0  0  0
   -9.2701    1.3421   -2.3494 H   0  0  0  0  0  0  0  0  0  0  0  0
   -7.7632    1.7141   -3.3346 H   0  0  0  0  0  0  0  0  0  0  0  0
   -6.7212   -1.7131    2.0508 H   0  0  0  0  0  0  0  0  0  0  0  0
   -6.0476   -3.3332    2.0394 H   0  0  0  0  0  0  0  0  0  0  0  0
   -7.8043   -0.7396   -0.0425 H   0  0  0  0  0  0  0  0  0  0  0  0
   -8.3584   -1.5187   -2.4002 H   0  0  0  0  0  0  0  0  0  0  0  0
   -5.0054   -4.8739   -0.0527 H   0  0  0  0  0  0  0  0  0  0  0  0
   -4.9404   -6.3306   -2.0860 H   0  0  0  0  0  0  0  0  0  0  0  0
   -6.2952   -5.6750   -4.0577 H   0  0  0  0  0  0  0  0  0  0  0  0
   -7.6459   -3.6514   -4.0064 H   0  0  0  0  0  0  0  0  0  0  0  0
   -0.5467   -6.4953    0.0055 H   0  0  0  0  0  0  0  0  0  0  0  0
   -1.1185   -7.8400    1.1428 H   0  0  0  0  0  0  0  0  0  0  0  0
    9.3770    0.4927   -1.1370 H   0  0  0  0  0  0  0  0  0  0  0  0
    7.7543    0.9583   -1.1462 H   0  0  0  0  0  0  0  0  0  0  0  0
  1  2  1  0
  2  3  1  0
  3  4  1  0
  4  5  1  0
  5  6  1  0
  6  7  2  0
  6  8  1  0
  8  9  1  0
  9 10  1  0
 10 11  1  0
 11 12  2  0
 11 13  1  0
 13 14  1  0
 14 15  1  0
 15 16  1  0
 16 17  1  0
 17 18  1  0
 18 19  1  0
 19 20  1  0
 20 21  2  0
 20 22  1  0
 22 23  1  0
 23 24  1  0
 24 25  2  0
 24 26  1  0
 26 27  1  0
 27 28  1  0
 28 29  2  0
 28 30  1  0
 30 31  1  0
 31 32  1  0
 32 33  2  0
 32 34  1  0
 34 35  1  0
 35 36  1  0
 36 37  2  0
 34 38  1  0
 38 39  1  0
 39 40  1  0
 40 41  1  0
 41 42  2  0
 42 43  1  0
 30 44  1  0
 44 45  1  0
 45 46  2  0
 46 47  1  0
 47 48  2  0
 48 49  1  0
 49 50  2  0
 49 51  1  0
 51 52  2  0
 52 53  1  0
 53 54  2  0
 26 55  1  0
 55 56  1  0
 56 57  1  0
 57 58  1  0
 58 59  2  3
 59 60  1  0
 59 61  1  0
 22 62  1  0
 62 63  1  0
 63 64  2  0
 64 65  1  0
 65 66  1  0
 66 67  2  0
 67 68  1  0
 68 69  2  0
 69 70  1  0
 70 71  2  0
 18 72  1  0
 72 73  2  0
 72 74  1  0
  5 75  1  0
 36  9  1  0
 43 39  2  0
 50 45  1  0
 67 63  1  0
 54 48  1  0
 71 66  1  0
  1 76  1  0
  1 77  1  0
  1 78  1  0
  2 79  1  0
  2 80  1  0
  3 81  1  0
  3 82  1  0
  4 83  1  0
  4 84  1  0
  5 85  1  6
  8 86  1  0
  9 87  1  6
 10 88  1  0
 10 89  1  0
 13 90  1  0
 14 91  1  0
 14 92  1  0
 15 93  1  0
 15 94  1  0
 16 95  1  0
 16 96  1  0
 17 97  1  0
 17 98  1  0
 18 99  1  6
 19100  1  0
 22101  1  1
 23102  1  0
 26103  1  1
 27104  1  0
 30105  1  6
 31106  1  0
 34107  1  1
 35108  1  0
 38109  1  0
 38110  1  0
 40111  1  0
 41112  1  0
 43113  1  0
 44114  1  0
 44115  1  0
 46116  1  0
 47117  1  0
 50118  1  0
 51119  1  0
 52120  1  0
 53121  1  0
 54122  1  0
 55123  1  0
 55124  1  0
 56125  1  0
 56126  1  0
 57127  1  0
 57128  1  0
 60129  1  0
 60130  1  0
 61131  1  0
 61132  1  0
 62133  1  0
 62134  1  0
 64135  1  0
 65136  1  0
 68137  1  0
 69138  1  0
 70139  1  0
 71140  1  0
 74141  1  0
 74142  1  0
 75143  1  0
 75144  1  0
M  END
>  <Ligand ID>  (1) 
LIG0001773

>  <Ligand>  (1) 
CHEMBL393075

>  <SMILES>  (1) 
CCCC[C@@H](C(=O)N[C@H]1CC(=O)NCCCC[C@H](NC(=O)[C@@H](NC(=O)[C@@H](NC(=O)[C@H](NC(=O)[C@@H](NC1=O)Cc1[nH]cnc1)Cc1ccc2c(c1)cccc2)CCCN=C(N)N)Cc1c[nH]c2c1cccc2)C(=O)N)N

>  <CID>  (1) 
44431515.0

>  <ChEMBL ID>  (1) 
nan

>  <InChiKey>  (1) 
ZPANOUCVWZTSLE-VIONFHLBSA-N

>  <InChi>  (1) 
InChI=1S/C52H69N15O8/c1-2-3-14-36(53)46(70)64-43-26-44(68)58-20-9-8-16-38(45(54)69)62-49(73)41(24-33-27-60-37-15-7-6-13-35(33)37)66-47(71)39(17-10-21-59-52(55)56)63-48(72)40(23-30-18-19-31-11-4-5-12-32(31)22-30)65-50(74)42(67-51(43)75)25-34-28-57-29-61-34/h4-7,11-13,15,18-19,22,27-29,36,38-43,60H,2-3,8-10,14,16-17,20-21,23-26,53H2,1H3,(H2,54,69)(H,57,61)(H,58,68)(H,62,73)(H,63,72)(H,64,70)(H,65,74)(H,66,71)(H,67,75)(H4,55,56,59)/t36-,38-,39-,40+,41-,42-,43-/m0/s1

>  <IUPAC Name>  (1) 
(3S,6S,9R,12S,15S,23S)-15-[[(2S)-2-aminohexanoyl]amino]-6-[3-(diaminomethylideneamino)propyl]-12-(1H-imidazol-5-ylmethyl)-3-(1H-indol-3-ylmethyl)-9-(naphthalen-2-ylmethyl)-2,5,8,11,14,17-hexaoxo-1,4,7,10,13,18-hexazacyclotricosane-23-carboxamide

$$$$
