
     RDKit          3D

 53 54  0  0  0  0  0  0  0  0999 V2000
   -2.1762    2.2311   -1.1191 C   0  0  0  0  0  0  0  0  0  0  0  0
   -1.6910    1.0270   -0.3301 C   0  0  2  0  0  0  0  0  0  0  0  0
   -0.2014    0.9437   -0.5805 C   0  0  0  0  0  0  0  0  0  0  0  0
    0.3410   -0.1711    0.1411 N   0  0  0  0  0  0  0  0  0  0  0  0
    1.7524   -0.4068    0.0099 C   0  0  0  0  0  0  0  0  0  0  0  0
    2.3691   -1.4704    0.6782 C   0  0  0  0  0  0  0  0  0  0  0  0
    3.7384   -1.6906    0.5467 C   0  0  0  0  0  0  0  0  0  0  0  0
    4.5128   -0.8509   -0.2552 C   0  0  0  0  0  0  0  0  0  0  0  0
    3.9212    0.1874   -0.9101 C   0  0  0  0  0  0  0  0  0  0  0  0
    2.5660    0.3893   -0.7676 C   0  0  0  0  0  0  0  0  0  0  0  0
    5.9751   -1.0571   -0.4143 C   0  0  0  0  0  0  0  0  0  0  0  0
    6.6150   -0.2942    0.6136 N   0  0  0  0  0  0  0  0  0  0  0  0
    8.3177   -0.3802    0.6278 S   0  0  0  0  0  0  0  0  0  0  0  0
    8.7388   -1.8046    0.8033 O   0  0  0  0  0  0  0  0  0  0  0  0
    8.7904    0.4410    1.8110 O   0  0  0  0  0  0  0  0  0  0  0  0
    9.0682    0.2374   -0.8597 C   0  0  0  0  0  0  0  0  0  0  0  0
   -2.2863   -0.1978   -0.8325 N   0  0  0  0  0  0  0  0  0  0  0  0
   -3.7347   -0.1607   -0.7469 C   0  0  0  0  0  0  0  0  0  0  0  0
   -4.2093   -0.1854    0.6913 C   0  0  1  0  0  0  0  0  0  0  0  0
   -5.6893   -0.0709    0.6819 C   0  0  0  0  0  0  0  0  0  0  0  0
   -6.3259    1.1180    0.9705 C   0  0  0  0  0  0  0  0  0  0  0  0
   -7.6938    1.2707    0.9733 C   0  0  0  0  0  0  0  0  0  0  0  0
   -8.4596    0.1674    0.6692 C   0  0  0  0  0  0  0  0  0  0  0  0
   -7.8609   -1.0386    0.3750 C   0  0  0  0  0  0  0  0  0  0  0  0
   -6.4815   -1.1687    0.3783 C   0  0  0  0  0  0  0  0  0  0  0  0
   -8.9160   -2.3861    0.0004 Cl  0  0  0  0  0  0  0  0  0  0  0  0
   -3.7943   -1.3269    1.3492 O   0  0  0  0  0  0  0  0  0  0  0  0
   -3.1337    2.6225   -0.7251 H   0  0  0  0  0  0  0  0  0  0  0  0
   -2.1662    2.0237   -2.1897 H   0  0  0  0  0  0  0  0  0  0  0  0
   -1.4174    3.0261   -0.9365 H   0  0  0  0  0  0  0  0  0  0  0  0
   -1.8590    1.2103    0.7355 H   0  0  0  0  0  0  0  0  0  0  0  0
   -0.0816    0.7623   -1.6750 H   0  0  0  0  0  0  0  0  0  0  0  0
    0.2972    1.9030   -0.3434 H   0  0  0  0  0  0  0  0  0  0  0  0
   -0.1861   -0.8217    0.7495 H   0  0  0  0  0  0  0  0  0  0  0  0
    1.7827   -2.1325    1.3048 H   0  0  0  0  0  0  0  0  0  0  0  0
    4.2317   -2.5093    1.0567 H   0  0  0  0  0  0  0  0  0  0  0  0
    4.4962    0.8680   -1.5481 H   0  0  0  0  0  0  0  0  0  0  0  0
    2.1031    1.2085   -1.2863 H   0  0  0  0  0  0  0  0  0  0  0  0
    6.2447   -0.8029   -1.4385 H   0  0  0  0  0  0  0  0  0  0  0  0
    6.1457   -2.1516   -0.2921 H   0  0  0  0  0  0  0  0  0  0  0  0
    6.1985    0.6214    0.7951 H   0  0  0  0  0  0  0  0  0  0  0  0
   10.1564    0.2239   -0.7125 H   0  0  0  0  0  0  0  0  0  0  0  0
    8.7586   -0.3107   -1.7493 H   0  0  0  0  0  0  0  0  0  0  0  0
    8.7637    1.3016   -0.9827 H   0  0  0  0  0  0  0  0  0  0  0  0
   -1.9310   -0.9782   -0.2402 H   0  0  0  0  0  0  0  0  0  0  0  0
   -4.1106   -1.0926   -1.2155 H   0  0  0  0  0  0  0  0  0  0  0  0
   -4.1549    0.6810   -1.3003 H   0  0  0  0  0  0  0  0  0  0  0  0
   -3.8164    0.7313    1.1954 H   0  0  0  0  0  0  0  0  0  0  0  0
   -5.6668    1.9594    1.2047 H   0  0  0  0  0  0  0  0  0  0  0  0
   -8.0879    2.2397    1.2125 H   0  0  0  0  0  0  0  0  0  0  0  0
   -9.5369    0.3126    0.6777 H   0  0  0  0  0  0  0  0  0  0  0  0
   -6.0685   -2.1352    0.1410 H   0  0  0  0  0  0  0  0  0  0  0  0
   -4.1474   -2.1128    0.8403 H   0  0  0  0  0  0  0  0  0  0  0  0
  1  2  1  0
  2  3  1  0
  3  4  1  0
  4  5  1  0
  5  6  2  0
  6  7  1  0
  7  8  2  0
  8  9  1  0
  9 10  2  0
  8 11  1  0
 11 12  1  0
 12 13  1  0
 13 14  2  0
 13 15  2  0
 13 16  1  0
  2 17  1  0
 17 18  1  0
 18 19  1  0
 19 20  1  0
 20 21  2  0
 21 22  1  0
 22 23  2  0
 23 24  1  0
 24 25  2  0
 24 26  1  0
 19 27  1  0
 10  5  1  0
 25 20  1  0
  1 28  1  0
  1 29  1  0
  1 30  1  0
  2 31  1  1
  3 32  1  0
  3 33  1  0
  4 34  1  0
  6 35  1  0
  7 36  1  0
  9 37  1  0
 10 38  1  0
 11 39  1  0
 11 40  1  0
 12 41  1  0
 16 42  1  0
 16 43  1  0
 16 44  1  0
 17 45  1  0
 18 46  1  0
 18 47  1  0
 19 48  1  1
 21 49  1  0
 22 50  1  0
 23 51  1  0
 25 52  1  0
 27 53  1  0
M  END
>  <Ligand ID>  (1) 
LIG0002249

>  <Ligand>  (1) 
CHEMBL153916

>  <SMILES>  (1) 
C[C@H](CNc1ccc(cc1)CNS(=O)(=O)C)NC[C@@H](c1cccc(c1)Cl)O

>  <CID>  (1) 
11026016.0

>  <ChEMBL ID>  (1) 
nan

>  <InChiKey>  (1) 
JGYNTMJALPWZNW-KUHUBIRLSA-N

>  <InChi>  (1) 
InChI=1S/C19H26ClN3O3S/c1-14(21-13-19(24)16-4-3-5-17(20)10-16)11-22-18-8-6-15(7-9-18)12-23-27(2,25)26/h3-10,14,19,21-24H,11-13H2,1-2H3/t14-,19+/m1/s1

>  <IUPAC Name>  (1) 
N-[[4-[[(2R)-2-[[(2R)-2-(3-chlorophenyl)-2-hydroxyethyl]amino]propyl]amino]phenyl]methyl]methanesulfonamide

$$$$
