
     RDKit          3D

139141  0  0  0  0  0  0  0  0999 V2000
  -10.5825    0.4938   -0.7786 C   0  0  0  0  0  0  0  0  0  0  0  0
   -9.2707    1.1852   -0.9266 C   0  0  0  0  0  0  0  0  0  0  0  0
   -8.1354    0.1916   -1.0123 C   0  0  1  0  0  0  0  0  0  0  0  0
   -7.9959   -0.6813    0.1545 C   0  0  2  0  0  0  0  0  0  0  0  0
   -7.8111   -0.0361    1.4788 N   0  0  0  0  0  0  0  0  0  0  0  0
   -6.9876    1.0871    1.5721 C   0  0  0  0  0  0  0  0  0  0  0  0
   -6.5221    1.5449    0.5120 O   0  0  0  0  0  0  0  0  0  0  0  0
   -6.5706    1.8426    2.8090 C   0  0  1  0  0  0  0  0  0  0  0  0
   -5.6872    2.8867    2.2123 N   0  0  0  0  0  0  0  0  0  0  0  0
   -4.2929    2.5859    1.9954 C   0  0  0  0  0  0  0  0  0  0  0  0
   -3.9261    1.5014    2.4640 O   0  0  0  0  0  0  0  0  0  0  0  0
   -3.3695    3.4654    1.2854 C   0  0  1  0  0  0  0  0  0  0  0  0
   -4.0222    4.7308    0.9920 N   0  0  0  0  0  0  0  0  0  0  0  0
   -2.0425    3.6335    1.9412 C   0  0  0  0  0  0  0  0  0  0  0  0
   -1.0578    4.5548    0.6418 S   0  0  0  0  0  0  0  0  0  0  0  0
   -0.9553    3.0781   -0.9502 S   0  0  0  0  0  0  0  0  0  0  0  0
    0.5671    2.1530   -0.6361 C   0  0  0  0  0  0  0  0  0  0  0  0
    0.6797    0.9025   -1.4953 C   0  0  2  0  0  0  0  0  0  0  0  0
   -0.2976   -0.0884   -1.1032 N   0  0  0  0  0  0  0  0  0  0  0  0
   -0.3889   -0.6838    0.1840 C   0  0  0  0  0  0  0  0  0  0  0  0
    0.4739   -0.2958    1.0061 O   0  0  0  0  0  0  0  0  0  0  0  0
   -1.3550   -1.6736    0.6476 C   0  0  1  0  0  0  0  0  0  0  0  0
   -2.2568   -2.2666   -0.3192 N   0  0  0  0  0  0  0  0  0  0  0  0
   -3.6367   -2.0277   -0.2965 C   0  0  0  0  0  0  0  0  0  0  0  0
   -3.9532   -1.0819    0.5140 O   0  0  0  0  0  0  0  0  0  0  0  0
   -4.7490   -2.6367   -1.0228 C   0  0  1  0  0  0  0  0  0  0  0  0
   -5.9626   -1.7861   -1.0393 N   0  0  0  0  0  0  0  0  0  0  0  0
   -6.7178   -1.4863    0.0905 C   0  0  0  0  0  0  0  0  0  0  0  0
   -6.2964   -1.9116    1.1811 O   0  0  0  0  0  0  0  0  0  0  0  0
   -4.5631   -3.4720   -2.1978 C   0  0  0  0  0  0  0  0  0  0  0  0
   -3.8234   -4.7495   -1.9759 C   0  0  0  0  0  0  0  0  0  0  0  0
   -4.6303   -5.6041   -1.0331 C   0  0  0  0  0  0  0  0  0  0  0  0
   -5.8181   -5.3890   -0.7402 O   0  0  0  0  0  0  0  0  0  0  0  0
   -4.0004   -6.7348   -0.4374 N   0  0  0  0  0  0  0  0  0  0  0  0
   -0.6977   -2.8696    1.3522 C   0  0  0  0  0  0  0  0  0  0  0  0
    0.2302   -3.6011    0.4800 C   0  0  0  0  0  0  0  0  0  0  0  0
    0.4581   -3.2940   -0.7230 O   0  0  0  0  0  0  0  0  0  0  0  0
    0.9151   -4.7209    1.0161 N   0  0  0  0  0  0  0  0  0  0  0  0
    2.0623    0.3537   -1.4466 C   0  0  0  0  0  0  0  0  0  0  0  0
    2.1961   -0.7486   -0.8586 O   0  0  0  0  0  0  0  0  0  0  0  0
    3.1222    1.0794   -2.0461 N   0  0  0  0  0  0  0  0  0  0  0  0
    2.8813    2.3133   -2.8416 C   0  0  0  0  0  0  0  0  0  0  0  0
    3.9102    3.2311   -2.2485 C   0  0  0  0  0  0  0  0  0  0  0  0
    4.9949    2.3647   -1.6848 C   0  0  0  0  0  0  0  0  0  0  0  0
    4.5420    0.9376   -2.0824 C   0  0  1  0  0  0  0  0  0  0  0  0
    5.1756   -0.0233   -1.1807 C   0  0  0  0  0  0  0  0  0  0  0  0
    4.6383   -0.7847   -0.3676 O   0  0  0  0  0  0  0  0  0  0  0  0
    6.6141   -0.0899   -1.2477 N   0  0  0  0  0  0  0  0  0  0  0  0
    7.3487   -1.0313   -0.3706 C   0  0  2  0  0  0  0  0  0  0  0  0
    8.0170   -0.1274    0.5999 C   0  0  0  0  0  0  0  0  0  0  0  0
    8.6473   -0.5007    1.6077 O   0  0  0  0  0  0  0  0  0  0  0  0
    7.9820    1.3191    0.4360 N   0  0  0  0  0  0  0  0  0  0  0  0
    8.6504    2.1777    1.4129 C   0  0  0  0  0  0  0  0  0  0  0  0
    8.4733    3.5975    1.0108 C   0  0  0  0  0  0  0  0  0  0  0  0
    8.9742    4.5052    1.7229 O   0  0  0  0  0  0  0  0  0  0  0  0
    7.7478    3.9583   -0.1662 N   0  0  0  0  0  0  0  0  0  0  0  0
    8.2239   -1.8897   -1.1971 C   0  0  0  0  0  0  0  0  0  0  0  0
    9.0511   -2.9410   -0.6559 C   0  0  0  0  0  0  0  0  0  0  0  0
   10.1340   -2.7880    0.3086 C   0  0  0  0  0  0  0  0  0  0  0  0
   11.2029   -1.9216   -0.0365 N   0  0  0  0  0  0  0  0  0  0  0  0
   12.3006   -1.8761    0.8914 C   0  0  0  0  0  0  0  0  0  0  0  0
   11.8897   -1.3806    2.2512 C   0  0  0  0  0  0  0  0  0  0  0  0
   12.9313   -3.2394    1.0974 C   0  0  0  0  0  0  0  0  0  0  0  0
   -7.6218    2.4401    3.6173 C   0  0  0  0  0  0  0  0  0  0  0  0
   -8.4157    3.4311    2.9043 C   0  0  0  0  0  0  0  0  0  0  0  0
   -9.5486    3.4088    2.1771 C   0  0  0  0  0  0  0  0  0  0  0  0
  -10.0330    4.5409    1.6560 C   0  0  0  0  0  0  0  0  0  0  0  0
   -9.3179    5.6985    1.9043 C   0  0  0  0  0  0  0  0  0  0  0  0
   -7.9071    5.1346    2.9193 S   0  0  0  0  0  0  0  0  0  0  0  0
   -8.5742   -0.7393   -2.1827 C   0  0  0  0  0  0  0  0  0  0  0  0
  -10.4774   -0.5669   -0.5851 H   0  0  0  0  0  0  0  0  0  0  0  0
  -11.2172    0.5934   -1.6925 H   0  0  0  0  0  0  0  0  0  0  0  0
  -11.0875    0.9545    0.1047 H   0  0  0  0  0  0  0  0  0  0  0  0
   -9.0990    1.9979   -0.2245 H   0  0  0  0  0  0  0  0  0  0  0  0
   -9.3037    1.6876   -1.9485 H   0  0  0  0  0  0  0  0  0  0  0  0
   -7.1847    0.6249   -1.3256 H   0  0  0  0  0  0  0  0  0  0  0  0
   -8.8918   -1.3477    0.2410 H   0  0  0  0  0  0  0  0  0  0  0  0
   -8.2565   -0.3672    2.3311 H   0  0  0  0  0  0  0  0  0  0  0  0
   -5.8947    1.0986    3.3227 H   0  0  0  0  0  0  0  0  0  0  0  0
   -5.9816    3.8062    1.9441 H   0  0  0  0  0  0  0  0  0  0  0  0
   -3.2500    2.9896    0.2508 H   0  0  0  0  0  0  0  0  0  0  0  0
   -3.4588    5.2655    0.3083 H   0  0  0  0  0  0  0  0  0  0  0  0
   -4.3113    5.2414    1.8329 H   0  0  0  0  0  0  0  0  0  0  0  0
   -2.1037    4.2921    2.8248 H   0  0  0  0  0  0  0  0  0  0  0  0
   -1.5453    2.6870    2.1454 H   0  0  0  0  0  0  0  0  0  0  0  0
    0.4687    1.7893    0.4332 H   0  0  0  0  0  0  0  0  0  0  0  0
    1.4726    2.7689   -0.6069 H   0  0  0  0  0  0  0  0  0  0  0  0
    0.4274    1.2244   -2.5456 H   0  0  0  0  0  0  0  0  0  0  0  0
   -1.0076   -0.4241   -1.7696 H   0  0  0  0  0  0  0  0  0  0  0  0
   -1.9531   -1.1737    1.4698 H   0  0  0  0  0  0  0  0  0  0  0  0
   -1.8643   -2.8428   -1.0449 H   0  0  0  0  0  0  0  0  0  0  0  0
   -5.1250   -3.3678   -0.1351 H   0  0  0  0  0  0  0  0  0  0  0  0
   -6.2260   -1.4057   -1.9339 H   0  0  0  0  0  0  0  0  0  0  0  0
   -4.1348   -2.9017   -3.0772 H   0  0  0  0  0  0  0  0  0  0  0  0
   -5.6037   -3.7842   -2.5490 H   0  0  0  0  0  0  0  0  0  0  0  0
   -3.8020   -5.2656   -2.9854 H   0  0  0  0  0  0  0  0  0  0  0  0
   -2.8323   -4.7158   -1.5568 H   0  0  0  0  0  0  0  0  0  0  0  0
   -3.7666   -7.5837   -1.0301 H   0  0  0  0  0  0  0  0  0  0  0  0
   -3.7855   -6.6911    0.5794 H   0  0  0  0  0  0  0  0  0  0  0  0
   -0.2456   -2.5750    2.3075 H   0  0  0  0  0  0  0  0  0  0  0  0
   -1.5499   -3.5655    1.5904 H   0  0  0  0  0  0  0  0  0  0  0  0
    1.9520   -4.7982    1.0894 H   0  0  0  0  0  0  0  0  0  0  0  0
    0.3087   -5.5213    1.3589 H   0  0  0  0  0  0  0  0  0  0  0  0
    3.2463    2.1149   -3.8983 H   0  0  0  0  0  0  0  0  0  0  0  0
    1.8612    2.6393   -2.8552 H   0  0  0  0  0  0  0  0  0  0  0  0
    4.3083    3.9587   -2.9929 H   0  0  0  0  0  0  0  0  0  0  0  0
    3.4030    3.8554   -1.4740 H   0  0  0  0  0  0  0  0  0  0  0  0
    5.9942    2.5838   -2.0533 H   0  0  0  0  0  0  0  0  0  0  0  0
    4.8785    2.4065   -0.5732 H   0  0  0  0  0  0  0  0  0  0  0  0
    4.9261    0.8469   -3.1370 H   0  0  0  0  0  0  0  0  0  0  0  0
    7.1559    0.5238   -1.9215 H   0  0  0  0  0  0  0  0  0  0  0  0
    6.5933   -1.6243    0.1587 H   0  0  0  0  0  0  0  0  0  0  0  0
    7.4874    1.7564   -0.3673 H   0  0  0  0  0  0  0  0  0  0  0  0
    9.7361    1.9829    1.4830 H   0  0  0  0  0  0  0  0  0  0  0  0
    8.1988    2.0354    2.4166 H   0  0  0  0  0  0  0  0  0  0  0  0
    8.1451    3.7362   -1.1126 H   0  0  0  0  0  0  0  0  0  0  0  0
    6.8291    4.4341   -0.1609 H   0  0  0  0  0  0  0  0  0  0  0  0
    8.7741   -1.2570   -1.9915 H   0  0  0  0  0  0  0  0  0  0  0  0
    7.4861   -2.4226   -1.9053 H   0  0  0  0  0  0  0  0  0  0  0  0
    9.5088   -3.4885   -1.5624 H   0  0  0  0  0  0  0  0  0  0  0  0
    8.3643   -3.7508   -0.2610 H   0  0  0  0  0  0  0  0  0  0  0  0
    9.8921   -2.7270    1.3818 H   0  0  0  0  0  0  0  0  0  0  0  0
   10.6571   -3.8376    0.2982 H   0  0  0  0  0  0  0  0  0  0  0  0
   10.9684   -0.9533   -0.2695 H   0  0  0  0  0  0  0  0  0  0  0  0
   13.1091   -1.1948    0.5072 H   0  0  0  0  0  0  0  0  0  0  0  0
   11.2325   -2.1136    2.7252 H   0  0  0  0  0  0  0  0  0  0  0  0
   11.3201   -0.4334    2.0921 H   0  0  0  0  0  0  0  0  0  0  0  0
   12.8057   -1.1797    2.8619 H   0  0  0  0  0  0  0  0  0  0  0  0
   13.0028   -3.8369    0.1829 H   0  0  0  0  0  0  0  0  0  0  0  0
   12.4561   -3.7655    1.9592 H   0  0  0  0  0  0  0  0  0  0  0  0
   13.9864   -3.0554    1.4334 H   0  0  0  0  0  0  0  0  0  0  0  0
   -7.1527    2.8762    4.5350 H   0  0  0  0  0  0  0  0  0  0  0  0
   -8.3431    1.6763    3.9966 H   0  0  0  0  0  0  0  0  0  0  0  0
  -10.0806    2.4274    2.0151 H   0  0  0  0  0  0  0  0  0  0  0  0
  -10.9576    4.6024    1.0480 H   0  0  0  0  0  0  0  0  0  0  0  0
   -9.4805    6.7395    1.6069 H   0  0  0  0  0  0  0  0  0  0  0  0
   -9.6521   -0.5361   -2.4133 H   0  0  0  0  0  0  0  0  0  0  0  0
   -8.5385   -1.7858   -1.8685 H   0  0  0  0  0  0  0  0  0  0  0  0
   -8.0327   -0.5132   -3.0990 H   0  0  0  0  0  0  0  0  0  0  0  0
  1  2  1  0
  2  3  1  0
  3  4  1  0
  4  5  1  0
  5  6  1  0
  6  7  2  0
  6  8  1  0
  8  9  1  0
  9 10  1  0
 10 11  2  0
 10 12  1  0
 12 13  1  0
 12 14  1  0
 14 15  1  0
 15 16  1  0
 16 17  1  0
 17 18  1  0
 18 19  1  0
 19 20  1  0
 20 21  2  0
 20 22  1  0
 22 23  1  0
 23 24  1  0
 24 25  2  0
 24 26  1  0
 26 27  1  0
 27 28  1  0
 28 29  2  0
 26 30  1  0
 30 31  1  0
 31 32  1  0
 32 33  2  0
 32 34  1  0
 22 35  1  0
 35 36  1  0
 36 37  2  0
 36 38  1  0
 18 39  1  0
 39 40  2  0
 39 41  1  0
 41 42  1  0
 42 43  1  0
 43 44  1  0
 44 45  1  0
 45 46  1  0
 46 47  2  0
 46 48  1  0
 48 49  1  0
 49 50  1  0
 50 51  2  0
 50 52  1  0
 52 53  1  0
 53 54  1  0
 54 55  2  0
 54 56  1  0
 49 57  1  0
 57 58  1  0
 58 59  1  0
 59 60  1  0
 60 61  1  0
 61 62  1  0
 61 63  1  0
  8 64  1  0
 64 65  1  0
 65 66  2  0
 66 67  1  0
 67 68  2  0
 68 69  1  0
  3 70  1  0
 28  4  1  0
 45 41  1  0
 69 65  1  0
  1 71  1  0
  1 72  1  0
  1 73  1  0
  2 74  1  0
  2 75  1  0
  3 76  1  6
  4 77  1  1
  5 78  1  0
  8 79  1  1
  9 80  1  0
 12 81  1  6
 13 82  1  0
 13 83  1  0
 14 84  1  0
 14 85  1  0
 17 86  1  0
 17 87  1  0
 18 88  1  6
 19 89  1  0
 22 90  1  1
 23 91  1  0
 26 92  1  1
 27 93  1  0
 30 94  1  0
 30 95  1  0
 31 96  1  0
 31 97  1  0
 34 98  1  0
 34 99  1  0
 35100  1  0
 35101  1  0
 38102  1  0
 38103  1  0
 42104  1  0
 42105  1  0
 43106  1  0
 43107  1  0
 44108  1  0
 44109  1  0
 45110  1  6
 48111  1  0
 49112  1  1
 52113  1  0
 53114  1  0
 53115  1  0
 56116  1  0
 56117  1  0
 57118  1  0
 57119  1  0
 58120  1  0
 58121  1  0
 59122  1  0
 59123  1  0
 60124  1  0
 61125  1  0
 62126  1  0
 62127  1  0
 62128  1  0
 63129  1  0
 63130  1  0
 63131  1  0
 64132  1  0
 64133  1  0
 66134  1  0
 67135  1  0
 68136  1  0
 70137  1  0
 70138  1  0
 70139  1  0
M  END
>  <Ligand ID>  (1) 
LIG0000929

>  <Ligand>  (1) 
CHEMBL1817761

>  <SMILES>  (1) 
CC[C@@H]([C@@H]1NC(=O)[C@@H](NC(=O)[C@@H](N)CSSC[C@H](NC(=O)[C@@H](NC(=O)[C@@H](NC1=O)CCC(=O)N)CC(=O)N)C(=O)N1CCC[C@H]1C(=O)N[C@H](C(=O)NCC(=O)N)CCCNC(C)C)Cc1cccs1)C

>  <CID>  (1) 
53362796.0

>  <ChEMBL ID>  (1) 
nan

>  <InChiKey>  (1) 
XYNXIAMYWXOFMX-GHDRINTISA-N

>  <InChi>  (1) 
InChI=1S/C43H69N13O11S3/c1-5-23(4)35-42(66)51-27(12-13-32(45)57)38(62)53-29(18-33(46)58)39(63)54-30(21-70-69-20-25(44)36(60)52-28(40(64)55-35)17-24-9-8-16-68-24)43(67)56-15-7-11-31(56)41(65)50-26(10-6-14-48-22(2)3)37(61)49-19-34(47)59/h8-9,16,22-23,25-31,35,48H,5-7,10-15,17-21,44H2,1-4H3,(H2,45,57)(H2,46,58)(H2,47,59)(H,49,61)(H,50,65)(H,51,66)(H,52,60)(H,53,62)(H,54,63)(H,55,64)/t23-,25-,26-,27-,28-,29-,30-,31-,35-/m0/s1

>  <IUPAC Name>  (1) 
(2S)-1-[(4R,7S,10S,13S,16S,19R)-19-amino-7-(2-amino-2-oxoethyl)-10-(3-amino-3-oxopropyl)-13-[(2S)-butan-2-yl]-6,9,12,15,18-pentaoxo-16-(thiophen-2-ylmethyl)-1,2-dithia-5,8,11,14,17-pentazacycloicosane-4-carbonyl]-N-[(2S)-1-[(2-amino-2-oxoethyl)amino]-1-oxo-5-(propan-2-ylamino)pentan-2-yl]pyrrolidine-2-carboxamide

$$$$
