
     RDKit          3D

142144  0  0  0  0  0  0  0  0999 V2000
   -9.9599   -0.0077   -0.3676 C   0  0  0  0  0  0  0  0  0  0  0  0
   -9.5667   -1.3348   -0.9773 C   0  0  0  0  0  0  0  0  0  0  0  0
   -8.0695   -1.3878   -1.2068 C   0  0  1  0  0  0  0  0  0  0  0  0
   -7.3116   -1.2616   -0.0006 C   0  0  2  0  0  0  0  0  0  0  0  0
   -7.3783   -0.0928    0.8618 N   0  0  0  0  0  0  0  0  0  0  0  0
   -6.3195    0.8621    0.7262 C   0  0  0  0  0  0  0  0  0  0  0  0
   -5.5263    0.5956   -0.2172 O   0  0  0  0  0  0  0  0  0  0  0  0
   -6.0418    2.0658    1.4999 C   0  0  2  0  0  0  0  0  0  0  0  0
   -7.1013    3.0217    1.8453 C   0  0  0  0  0  0  0  0  0  0  0  0
   -7.8338    3.7048    0.7952 C   0  0  0  0  0  0  0  0  0  0  0  0
   -7.2210    4.8033    0.1836 C   0  0  0  0  0  0  0  0  0  0  0  0
   -7.8776    5.5308   -0.8079 C   0  0  0  0  0  0  0  0  0  0  0  0
   -9.1484    5.1729   -1.1999 C   0  0  0  0  0  0  0  0  0  0  0  0
   -9.7723    4.1024   -0.6179 C   0  0  0  0  0  0  0  0  0  0  0  0
   -9.0974    3.4099    0.3540 C   0  0  0  0  0  0  0  0  0  0  0  0
   -4.8702    2.7887    0.9086 N   0  0  0  0  0  0  0  0  0  0  0  0
   -3.6572    2.9815    1.6147 C   0  0  0  0  0  0  0  0  0  0  0  0
   -3.6103    2.5183    2.7601 O   0  0  0  0  0  0  0  0  0  0  0  0
   -2.4609    3.6848    1.0899 C   0  0  1  0  0  0  0  0  0  0  0  0
   -1.3892    3.5541    2.0476 N   0  0  0  0  0  0  0  0  0  0  0  0
   -1.9543    3.0760   -0.2326 C   0  0  0  0  0  0  0  0  0  0  0  0
   -1.6775    1.3352   -0.0836 S   0  0  0  0  0  0  0  0  0  0  0  0
   -1.1208    0.4266   -1.8489 S   0  0  0  0  0  0  0  0  0  0  0  0
    0.6298    0.2507   -2.0714 C   0  0  0  0  0  0  0  0  0  0  0  0
    1.2603   -0.7861   -1.0710 C   0  0  2  0  0  0  0  0  0  0  0  0
    0.2268   -1.7647   -0.8651 N   0  0  0  0  0  0  0  0  0  0  0  0
    0.2455   -3.1455   -1.1723 C   0  0  0  0  0  0  0  0  0  0  0  0
    1.2963   -3.6322   -1.5348 O   0  0  0  0  0  0  0  0  0  0  0  0
   -1.0624   -3.9889   -1.0368 C   0  0  1  0  0  0  0  0  0  0  0  0
   -2.0282   -3.0620   -0.5675 N   0  0  0  0  0  0  0  0  0  0  0  0
   -3.0086   -3.0886    0.4618 C   0  0  0  0  0  0  0  0  0  0  0  0
   -3.2934   -4.1801    0.9303 O   0  0  0  0  0  0  0  0  0  0  0  0
   -3.5919   -1.7723    0.8275 C   0  0  1  0  0  0  0  0  0  0  0  0
   -4.9999   -1.6902    1.0449 N   0  0  0  0  0  0  0  0  0  0  0  0
   -5.8390   -1.6224   -0.1335 C   0  0  0  0  0  0  0  0  0  0  0  0
   -5.2965   -1.8843   -1.1912 O   0  0  0  0  0  0  0  0  0  0  0  0
   -2.8406   -1.1010    1.9509 C   0  0  0  0  0  0  0  0  0  0  0  0
   -2.7234   -1.7236    3.2652 C   0  0  0  0  0  0  0  0  0  0  0  0
   -1.9645   -2.9762    3.4104 C   0  0  0  0  0  0  0  0  0  0  0  0
   -1.0629   -3.3701    2.6290 O   0  0  0  0  0  0  0  0  0  0  0  0
   -2.2944   -3.7981    4.5484 N   0  0  0  0  0  0  0  0  0  0  0  0
   -1.3314   -4.4519   -2.4644 C   0  0  0  0  0  0  0  0  0  0  0  0
   -2.5150   -5.2819   -2.5568 C   0  0  0  0  0  0  0  0  0  0  0  0
   -2.9547   -5.5079   -3.7505 O   0  0  0  0  0  0  0  0  0  0  0  0
   -3.2627   -5.8841   -1.5318 N   0  0  0  0  0  0  0  0  0  0  0  0
    1.7845   -0.0542    0.0467 C   0  0  0  0  0  0  0  0  0  0  0  0
    1.2930   -0.0912    1.2243 O   0  0  0  0  0  0  0  0  0  0  0  0
    2.9374    0.7805   -0.1437 N   0  0  0  0  0  0  0  0  0  0  0  0
    3.4724    1.5853    0.9539 C   0  0  0  0  0  0  0  0  0  0  0  0
    4.1668    2.7723    0.3122 C   0  0  0  0  0  0  0  0  0  0  0  0
    3.9902    2.5824   -1.1839 C   0  0  0  0  0  0  0  0  0  0  0  0
    3.7599    1.0490   -1.2624 C   0  0  1  0  0  0  0  0  0  0  0  0
    5.0726    0.4691   -1.3960 C   0  0  0  0  0  0  0  0  0  0  0  0
    5.6491    0.6315   -2.5529 O   0  0  0  0  0  0  0  0  0  0  0  0
    5.8591   -0.2554   -0.4727 N   0  0  0  0  0  0  0  0  0  0  0  0
    7.1609   -0.6991   -0.9372 C   0  0  2  0  0  0  0  0  0  0  0  0
    7.7044   -1.8864   -0.3024 C   0  0  0  0  0  0  0  0  0  0  0  0
    8.8562   -2.2869   -0.6998 O   0  0  0  0  0  0  0  0  0  0  0  0
    7.0898   -2.6544    0.7200 N   0  0  0  0  0  0  0  0  0  0  0  0
    7.8702   -3.8108    1.1855 C   0  0  0  0  0  0  0  0  0  0  0  0
    8.1362   -4.7739    0.0992 C   0  0  0  0  0  0  0  0  0  0  0  0
    7.7295   -4.6253   -1.0738 O   0  0  0  0  0  0  0  0  0  0  0  0
    8.8973   -5.9337    0.3943 N   0  0  0  0  0  0  0  0  0  0  0  0
    8.1363    0.4919   -0.9140 C   0  0  0  0  0  0  0  0  0  0  0  0
    8.3361    1.0836    0.4362 C   0  0  0  0  0  0  0  0  0  0  0  0
    9.2699    2.2878    0.3916 C   0  0  0  0  0  0  0  0  0  0  0  0
   10.5438    1.8788   -0.1196 N   0  0  0  0  0  0  0  0  0  0  0  0
   11.4659    2.9998   -0.2377 C   0  0  0  0  0  0  0  0  0  0  0  0
   12.7992    2.5478   -0.7419 C   0  0  0  0  0  0  0  0  0  0  0  0
   11.6139    3.7698    1.0339 C   0  0  0  0  0  0  0  0  0  0  0  0
   -7.8031   -2.7334   -1.8595 C   0  0  0  0  0  0  0  0  0  0  0  0
  -10.8479    0.4011   -0.9310 H   0  0  0  0  0  0  0  0  0  0  0  0
  -10.2830   -0.0695    0.6725 H   0  0  0  0  0  0  0  0  0  0  0  0
   -9.1221    0.7293   -0.5010 H   0  0  0  0  0  0  0  0  0  0  0  0
   -9.8910   -2.2047   -0.3850 H   0  0  0  0  0  0  0  0  0  0  0  0
  -10.1044   -1.4435   -1.9677 H   0  0  0  0  0  0  0  0  0  0  0  0
   -7.8779   -0.6373   -2.0102 H   0  0  0  0  0  0  0  0  0  0  0  0
   -7.6076   -2.1077    0.7318 H   0  0  0  0  0  0  0  0  0  0  0  0
   -8.0808    0.1298    1.5510 H   0  0  0  0  0  0  0  0  0  0  0  0
   -5.5973    1.7196    2.4944 H   0  0  0  0  0  0  0  0  0  0  0  0
   -7.8458    2.4529    2.4913 H   0  0  0  0  0  0  0  0  0  0  0  0
   -6.6594    3.7438    2.6066 H   0  0  0  0  0  0  0  0  0  0  0  0
   -6.2344    5.1385    0.4355 H   0  0  0  0  0  0  0  0  0  0  0  0
   -7.4096    6.3869   -1.2923 H   0  0  0  0  0  0  0  0  0  0  0  0
   -9.6918    5.7246   -1.9789 H   0  0  0  0  0  0  0  0  0  0  0  0
  -10.7836    3.8420   -0.9504 H   0  0  0  0  0  0  0  0  0  0  0  0
   -9.6049    2.5836    0.8220 H   0  0  0  0  0  0  0  0  0  0  0  0
   -4.8956    3.1751   -0.0359 H   0  0  0  0  0  0  0  0  0  0  0  0
   -2.6816    4.7603    0.8917 H   0  0  0  0  0  0  0  0  0  0  0  0
   -1.1162    2.5775    2.1844 H   0  0  0  0  0  0  0  0  0  0  0  0
   -1.5656    4.0945    2.9219 H   0  0  0  0  0  0  0  0  0  0  0  0
   -2.7428    3.2529   -1.0014 H   0  0  0  0  0  0  0  0  0  0  0  0
   -1.0723    3.6474   -0.5420 H   0  0  0  0  0  0  0  0  0  0  0  0
    0.8565   -0.1486   -3.0637 H   0  0  0  0  0  0  0  0  0  0  0  0
    1.1635    1.2189   -1.9183 H   0  0  0  0  0  0  0  0  0  0  0  0
    2.1473   -1.2612   -1.6106 H   0  0  0  0  0  0  0  0  0  0  0  0
   -0.6294   -1.4275   -0.4058 H   0  0  0  0  0  0  0  0  0  0  0  0
   -0.8458   -4.7759   -0.3426 H   0  0  0  0  0  0  0  0  0  0  0  0
   -2.1081   -2.1702   -1.1491 H   0  0  0  0  0  0  0  0  0  0  0  0
   -3.4090   -1.1159   -0.0554 H   0  0  0  0  0  0  0  0  0  0  0  0
   -5.5162   -1.6784    1.9214 H   0  0  0  0  0  0  0  0  0  0  0  0
   -3.2695   -0.0920    2.0709 H   0  0  0  0  0  0  0  0  0  0  0  0
   -1.8028   -0.9707    1.5646 H   0  0  0  0  0  0  0  0  0  0  0  0
   -2.1321   -0.9754    3.8919 H   0  0  0  0  0  0  0  0  0  0  0  0
   -3.6807   -1.7585    3.8510 H   0  0  0  0  0  0  0  0  0  0  0  0
   -2.0852   -3.3268    5.4790 H   0  0  0  0  0  0  0  0  0  0  0  0
   -2.6902   -4.7411    4.4794 H   0  0  0  0  0  0  0  0  0  0  0  0
   -1.5241   -3.5019   -3.0464 H   0  0  0  0  0  0  0  0  0  0  0  0
   -0.4204   -4.9587   -2.8613 H   0  0  0  0  0  0  0  0  0  0  0  0
   -4.2783   -5.5915   -1.4576 H   0  0  0  0  0  0  0  0  0  0  0  0
   -2.9155   -6.5844   -0.8477 H   0  0  0  0  0  0  0  0  0  0  0  0
    2.6346    2.0096    1.5762 H   0  0  0  0  0  0  0  0  0  0  0  0
    4.1177    1.0606    1.6449 H   0  0  0  0  0  0  0  0  0  0  0  0
    5.2452    2.7004    0.5966 H   0  0  0  0  0  0  0  0  0  0  0  0
    3.7233    3.7277    0.6191 H   0  0  0  0  0  0  0  0  0  0  0  0
    3.1185    3.1168   -1.5680 H   0  0  0  0  0  0  0  0  0  0  0  0
    4.8952    2.8692   -1.7366 H   0  0  0  0  0  0  0  0  0  0  0  0
    3.2627    0.9264   -2.2717 H   0  0  0  0  0  0  0  0  0  0  0  0
    5.4701   -0.4311    0.4657 H   0  0  0  0  0  0  0  0  0  0  0  0
    7.0567   -0.8770   -2.0519 H   0  0  0  0  0  0  0  0  0  0  0  0
    6.1739   -2.3884    1.0769 H   0  0  0  0  0  0  0  0  0  0  0  0
    8.8686   -3.4527    1.5716 H   0  0  0  0  0  0  0  0  0  0  0  0
    7.3505   -4.2498    2.0459 H   0  0  0  0  0  0  0  0  0  0  0  0
    8.4732   -6.6451    1.0411 H   0  0  0  0  0  0  0  0  0  0  0  0
    9.8479   -6.0957   -0.0089 H   0  0  0  0  0  0  0  0  0  0  0  0
    9.0767    0.1172   -1.3334 H   0  0  0  0  0  0  0  0  0  0  0  0
    7.7618    1.2560   -1.6335 H   0  0  0  0  0  0  0  0  0  0  0  0
    8.7496    0.3421    1.1738 H   0  0  0  0  0  0  0  0  0  0  0  0
    7.3751    1.4345    0.8538 H   0  0  0  0  0  0  0  0  0  0  0  0
    9.4115    2.6999    1.4106 H   0  0  0  0  0  0  0  0  0  0  0  0
    8.8631    3.0354   -0.3197 H   0  0  0  0  0  0  0  0  0  0  0  0
   11.0069    1.1256    0.4403 H   0  0  0  0  0  0  0  0  0  0  0  0
   11.0003    3.6792   -1.0101 H   0  0  0  0  0  0  0  0  0  0  0  0
   13.5845    2.7797    0.0066 H   0  0  0  0  0  0  0  0  0  0  0  0
   12.7667    1.4293   -0.8335 H   0  0  0  0  0  0  0  0  0  0  0  0
   13.0451    2.9406   -1.7446 H   0  0  0  0  0  0  0  0  0  0  0  0
   11.4236    3.1111    1.9111 H   0  0  0  0  0  0  0  0  0  0  0  0
   12.6681    4.1099    1.1157 H   0  0  0  0  0  0  0  0  0  0  0  0
   10.9028    4.6342    1.0282 H   0  0  0  0  0  0  0  0  0  0  0  0
   -7.7951   -3.5733   -1.1472 H   0  0  0  0  0  0  0  0  0  0  0  0
   -6.9465   -2.7155   -2.5652 H   0  0  0  0  0  0  0  0  0  0  0  0
   -8.6918   -2.9271   -2.5327 H   0  0  0  0  0  0  0  0  0  0  0  0
  1  2  1  0
  2  3  1  0
  3  4  1  0
  4  5  1  0
  5  6  1  0
  6  7  2  0
  6  8  1  0
  8  9  1  0
  9 10  1  0
 10 11  2  0
 11 12  1  0
 12 13  2  0
 13 14  1  0
 14 15  2  0
  8 16  1  0
 16 17  1  0
 17 18  2  0
 17 19  1  0
 19 20  1  0
 19 21  1  0
 21 22  1  0
 22 23  1  0
 23 24  1  0
 24 25  1  0
 25 26  1  0
 26 27  1  0
 27 28  2  0
 27 29  1  0
 29 30  1  0
 30 31  1  0
 31 32  2  0
 31 33  1  0
 33 34  1  0
 34 35  1  0
 35 36  2  0
 33 37  1  0
 37 38  1  0
 38 39  1  0
 39 40  2  0
 39 41  1  0
 29 42  1  0
 42 43  1  0
 43 44  2  0
 43 45  1  0
 25 46  1  0
 46 47  2  0
 46 48  1  0
 48 49  1  0
 49 50  1  0
 50 51  1  0
 51 52  1  0
 52 53  1  0
 53 54  2  0
 53 55  1  0
 55 56  1  0
 56 57  1  0
 57 58  2  0
 57 59  1  0
 59 60  1  0
 60 61  1  0
 61 62  2  0
 61 63  1  0
 56 64  1  0
 64 65  1  0
 65 66  1  0
 66 67  1  0
 67 68  1  0
 68 69  1  0
 68 70  1  0
  3 71  1  0
 35  4  1  0
 52 48  1  0
 15 10  1  0
  1 72  1  0
  1 73  1  0
  1 74  1  0
  2 75  1  0
  2 76  1  0
  3 77  1  6
  4 78  1  1
  5 79  1  0
  8 80  1  1
  9 81  1  0
  9 82  1  0
 11 83  1  0
 12 84  1  0
 13 85  1  0
 14 86  1  0
 15 87  1  0
 16 88  1  0
 19 89  1  6
 20 90  1  0
 20 91  1  0
 21 92  1  0
 21 93  1  0
 24 94  1  0
 24 95  1  0
 25 96  1  6
 26 97  1  0
 29 98  1  1
 30 99  1  0
 33100  1  6
 34101  1  0
 37102  1  0
 37103  1  0
 38104  1  0
 38105  1  0
 41106  1  0
 41107  1  0
 42108  1  0
 42109  1  0
 45110  1  0
 45111  1  0
 49112  1  0
 49113  1  0
 50114  1  0
 50115  1  0
 51116  1  0
 51117  1  0
 52118  1  6
 55119  1  0
 56120  1  6
 59121  1  0
 60122  1  0
 60123  1  0
 63124  1  0
 63125  1  0
 64126  1  0
 64127  1  0
 65128  1  0
 65129  1  0
 66130  1  0
 66131  1  0
 67132  1  0
 68133  1  0
 69134  1  0
 69135  1  0
 69136  1  0
 70137  1  0
 70138  1  0
 70139  1  0
 71140  1  0
 71141  1  0
 71142  1  0
M  END
>  <Ligand ID>  (1) 
LIG0000921

>  <Ligand>  (1) 
CHEMBL1817704

>  <SMILES>  (1) 
CC[C@@H]([C@@H]1NC(=O)[C@H](Cc2ccccc2)NC(=O)[C@@H](N)CSSC[C@H](NC(=O)[C@@H](NC(=O)[C@@H](NC1=O)CCC(=O)N)CC(=O)N)C(=O)N1CCC[C@H]1C(=O)N[C@H](C(=O)NCC(=O)N)CCCNC(C)C)C

>  <CID>  (1) 
11578939.0

>  <ChEMBL ID>  (1) 
nan

>  <InChiKey>  (1) 
JBEIGYDQPPRIPD-HOHGFJJGSA-N

>  <InChi>  (1) 
InChI=1S/C45H71N13O11S2/c1-5-25(4)37-44(68)53-29(15-16-34(47)59)40(64)55-31(20-35(48)60)41(65)56-32(23-71-70-22-27(46)38(62)54-30(42(66)57-37)19-26-11-7-6-8-12-26)45(69)58-18-10-14-33(58)43(67)52-28(13-9-17-50-24(2)3)39(63)51-21-36(49)61/h6-8,11-12,24-25,27-33,37,50H,5,9-10,13-23,46H2,1-4H3,(H2,47,59)(H2,48,60)(H2,49,61)(H,51,63)(H,52,67)(H,53,68)(H,54,62)(H,55,64)(H,56,65)(H,57,66)/t25-,27-,28-,29-,30-,31-,32-,33-,37-/m0/s1

>  <IUPAC Name>  (1) 
(2S)-1-[(4R,7S,10S,13S,16S,19R)-19-amino-7-(2-amino-2-oxoethyl)-10-(3-amino-3-oxopropyl)-16-benzyl-13-[(2S)-butan-2-yl]-6,9,12,15,18-pentaoxo-1,2-dithia-5,8,11,14,17-pentazacycloicosane-4-carbonyl]-N-[(2S)-1-[(2-amino-2-oxoethyl)amino]-1-oxo-5-(propan-2-ylamino)pentan-2-yl]pyrrolidine-2-carboxamide

$$$$
