
     RDKit          3D

 54 56  0  0  0  0  0  0  0  0999 V2000
    1.7905   -3.2184   -0.3414 O   0  0  0  0  0  0  0  0  0  0  0  0
    2.1298   -1.9097   -0.1751 C   0  0  2  0  0  0  0  0  0  0  0  0
    3.3106   -1.6679    0.7521 C   0  0  2  0  0  0  0  0  0  0  0  0
    3.2266   -2.5482    1.7999 O   0  0  0  0  0  0  0  0  0  0  0  0
    2.9820   -0.2704    1.3057 C   0  0  2  0  0  0  0  0  0  0  0  0
    1.8303    0.1237    0.5853 O   0  0  0  0  0  0  0  0  0  0  0  0
    1.1286   -1.0753    0.5943 C   0  0  1  0  0  0  0  0  0  0  0  0
   -0.2027   -1.1478    0.2654 N   0  0  0  0  0  0  0  0  0  0  0  0
   -1.1543   -1.0998    1.2557 C   0  0  0  0  0  0  0  0  0  0  0  0
   -2.4835   -1.2382    0.9664 C   0  0  0  0  0  0  0  0  0  0  0  0
   -2.8704   -1.4292   -0.3484 C   0  0  0  0  0  0  0  0  0  0  0  0
   -1.9353   -1.4692   -1.2946 N   0  0  0  0  0  0  0  0  0  0  0  0
   -0.6302   -1.3329   -1.0093 C   0  0  0  0  0  0  0  0  0  0  0  0
    0.2164   -1.3786   -1.9347 O   0  0  0  0  0  0  0  0  0  0  0  0
   -4.2578   -1.6212   -0.6580 N   0  0  0  0  0  0  0  0  0  0  0  0
   -5.1591   -0.6376   -0.7123 O   0  0  0  0  0  0  0  0  0  0  0  0
   -6.0003   -0.6231    0.4047 C   0  0  0  0  0  0  0  0  0  0  0  0
   -6.9279    0.5174    0.1928 C   0  0  0  0  0  0  0  0  0  0  0  0
   -8.1452    0.3514   -0.4279 C   0  0  0  0  0  0  0  0  0  0  0  0
   -8.9455    1.4464   -0.6157 C   0  0  0  0  0  0  0  0  0  0  0  0
   -8.5120    2.6662   -0.1806 C   0  0  0  0  0  0  0  0  0  0  0  0
   -7.3128    2.8583    0.4358 C   0  0  0  0  0  0  0  0  0  0  0  0
   -6.4981    1.7706    0.6313 C   0  0  0  0  0  0  0  0  0  0  0  0
   -9.6748    4.1660   -0.4347 Br  0  0  0  0  0  0  0  0  0  0  0  0
    4.1918    0.5636    1.0819 C   0  0  0  0  0  0  0  0  0  0  0  0
    4.6040    0.4646   -0.2597 O   0  0  0  0  0  0  0  0  0  0  0  0
    6.2969    0.4412   -0.3401 P   0  0  0  0  0  0  0  0  0  0  0  0
    6.7051    0.8006   -1.7411 O   0  0  0  0  0  0  0  0  0  0  0  0
    6.8892    1.5201    0.8170 O   0  0  0  0  0  0  0  0  0  0  0  0
    8.0899    2.4588    0.0581 P   0  0  0  0  0  0  0  0  0  0  0  0
    9.3165    1.5755   -0.0459 O   0  0  0  0  0  0  0  0  0  0  0  0
    8.3821    3.8434    0.9714 O   0  0  0  0  0  0  0  0  0  0  0  0
    7.5483    2.8496   -1.4945 O   0  0  0  0  0  0  0  0  0  0  0  0
    6.9159   -1.1002    0.0551 O   0  0  0  0  0  0  0  0  0  0  0  0
    2.5567   -3.6554   -0.8155 H   0  0  0  0  0  0  0  0  0  0  0  0
    2.4378   -1.3989   -1.1365 H   0  0  0  0  0  0  0  0  0  0  0  0
    4.2661   -1.6711    0.2072 H   0  0  0  0  0  0  0  0  0  0  0  0
    3.7012   -3.4039    1.6560 H   0  0  0  0  0  0  0  0  0  0  0  0
    2.6760   -0.3102    2.3694 H   0  0  0  0  0  0  0  0  0  0  0  0
    1.2638   -1.4442    1.6721 H   0  0  0  0  0  0  0  0  0  0  0  0
   -0.8312   -0.9450    2.2943 H   0  0  0  0  0  0  0  0  0  0  0  0
   -3.1897   -1.1935    1.7757 H   0  0  0  0  0  0  0  0  0  0  0  0
   -4.5586   -2.6192   -0.8563 H   0  0  0  0  0  0  0  0  0  0  0  0
   -5.4586   -0.4321    1.3598 H   0  0  0  0  0  0  0  0  0  0  0  0
   -6.5259   -1.5717    0.5469 H   0  0  0  0  0  0  0  0  0  0  0  0
   -8.4188   -0.6515   -0.7429 H   0  0  0  0  0  0  0  0  0  0  0  0
   -9.9057    1.3143   -1.1128 H   0  0  0  0  0  0  0  0  0  0  0  0
   -7.0030    3.8276    0.7556 H   0  0  0  0  0  0  0  0  0  0  0  0
   -5.5330    1.8643    1.1196 H   0  0  0  0  0  0  0  0  0  0  0  0
    4.9920    0.1843    1.7474 H   0  0  0  0  0  0  0  0  0  0  0  0
    4.0623    1.6327    1.3466 H   0  0  0  0  0  0  0  0  0  0  0  0
    7.5232    4.0481    1.4356 H   0  0  0  0  0  0  0  0  0  0  0  0
    6.5704    3.0967   -1.4397 H   0  0  0  0  0  0  0  0  0  0  0  0
    6.5307   -1.3213    0.9447 H   0  0  0  0  0  0  0  0  0  0  0  0
  1  2  1  0
  2  3  1  0
  3  4  1  0
  3  5  1  0
  5  6  1  0
  6  7  1  0
  7  8  1  0
  8  9  1  0
  9 10  2  0
 10 11  1  0
 11 12  2  0
 12 13  1  0
 13 14  2  0
 11 15  1  0
 15 16  1  0
 16 17  1  0
 17 18  1  0
 18 19  2  0
 19 20  1  0
 20 21  2  0
 21 22  1  0
 22 23  2  0
 21 24  1  0
  5 25  1  0
 25 26  1  0
 26 27  1  0
 27 28  2  0
 27 29  1  0
 29 30  1  0
 30 31  2  0
 30 32  1  0
 30 33  1  0
 27 34  1  0
  7  2  1  0
 13  8  1  0
 23 18  1  0
  1 35  1  0
  2 36  1  6
  3 37  1  6
  4 38  1  0
  5 39  1  1
  7 40  1  1
  9 41  1  0
 10 42  1  0
 15 43  1  0
 17 44  1  0
 17 45  1  0
 19 46  1  0
 20 47  1  0
 22 48  1  0
 23 49  1  0
 25 50  1  0
 25 51  1  0
 32 52  1  0
 33 53  1  0
 34 54  1  0
M  END
>  <Ligand ID>  (1) 
LIG0002564

>  <Ligand>  (1) 
CHEMBL3220048

>  <SMILES>  (1) 
O[C@@H]1[C@H](O)[C@H](O[C@H]1n1ccc(nc1=O)NOCc1ccc(cc1)Br)COP(=O)(OP(=O)(O)O)O

>  <CID>  (1) 
90666791.0

>  <ChEMBL ID>  (1) 
nan

>  <InChiKey>  (1) 
IWXAQKCGEZAJBX-NMFUWQPSSA-N

>  <InChi>  (1) 
InChI=1S/C16H20BrN3O12P2/c17-10-3-1-9(2-4-10)7-29-19-12-5-6-20(16(23)18-12)15-14(22)13(21)11(31-15)8-30-34(27,28)32-33(24,25)26/h1-6,11,13-15,21-22H,7-8H2,(H,27,28)(H,18,19,23)(H2,24,25,26)/t11-,13-,14-,15-/m1/s1

>  <IUPAC Name>  (1) 
[(2R,3S,4R,5R)-5-[4-[(4-bromophenyl)methoxyamino]-2-oxopyrimidin-1-yl]-3,4-dihydroxyoxolan-2-yl]methyl phosphono hydrogen phosphate

$$$$
