
     RDKit          3D

 27 28  0  0  0  0  0  0  0  0999 V2000
   -5.8822   -1.1817   -0.5316 F   0  0  0  0  0  0  0  0  0  0  0  0
   -4.6108   -0.8222   -0.1865 C   0  0  0  0  0  0  0  0  0  0  0  0
   -4.0124    0.1512   -0.9906 C   0  0  0  0  0  0  0  0  0  0  0  0
   -2.7274    0.5237   -0.6528 C   0  0  0  0  0  0  0  0  0  0  0  0
   -2.0389   -0.0145    0.4149 C   0  0  0  0  0  0  0  0  0  0  0  0
   -2.6604   -0.9825    1.1984 C   0  0  0  0  0  0  0  0  0  0  0  0
   -3.9489   -1.3786    0.8868 C   0  0  0  0  0  0  0  0  0  0  0  0
   -0.6771    0.4200    0.7252 C   0  0  0  0  0  0  0  0  0  0  0  0
   -0.0154   -0.0481    1.6923 O   0  0  0  0  0  0  0  0  0  0  0  0
   -0.0796    1.3763   -0.0590 O   0  0  0  0  0  0  0  0  0  0  0  0
    1.2250    1.8718    0.1431 C   0  0  0  0  0  0  0  0  0  0  0  0
    2.2608    0.8782    0.0708 N   0  0  0  0  0  0  0  0  0  0  0  0
    2.6795    0.1958    1.1345 N   0  0  0  0  0  0  0  0  0  0  0  0
    3.6513   -0.7406    1.0828 C   0  0  0  0  0  0  0  0  0  0  0  0
    4.2532   -1.0153   -0.1377 C   0  0  0  0  0  0  0  0  0  0  0  0
    3.8205   -0.3073   -1.2476 C   0  0  0  0  0  0  0  0  0  0  0  0
    2.8135    0.6536   -1.1579 C   0  0  0  0  0  0  0  0  0  0  0  0
    2.4239    1.2942   -2.1695 O   0  0  0  0  0  0  0  0  0  0  0  0
    4.5935   -0.6225   -2.9611 Br  0  0  0  0  0  0  0  0  0  0  0  0
    5.6420   -2.3341   -0.2867 Br  0  0  0  0  0  0  0  0  0  0  0  0
   -4.5366    0.5861   -1.8338 H   0  0  0  0  0  0  0  0  0  0  0  0
   -2.2422    1.2794   -1.2644 H   0  0  0  0  0  0  0  0  0  0  0  0
   -2.1203   -1.4031    2.0342 H   0  0  0  0  0  0  0  0  0  0  0  0
   -4.4472   -2.1297    1.4849 H   0  0  0  0  0  0  0  0  0  0  0  0
    1.2095    2.3272    1.1701 H   0  0  0  0  0  0  0  0  0  0  0  0
    1.4597    2.7025   -0.5404 H   0  0  0  0  0  0  0  0  0  0  0  0
    3.9670   -1.2799    1.9816 H   0  0  0  0  0  0  0  0  0  0  0  0
  1  2  1  0
  2  3  2  0
  3  4  1  0
  4  5  2  0
  5  6  1  0
  6  7  2  0
  5  8  1  0
  8  9  2  0
  8 10  1  0
 10 11  1  0
 11 12  1  0
 12 13  1  0
 13 14  2  0
 14 15  1  0
 15 16  2  0
 16 17  1  0
 17 18  2  0
 16 19  1  0
 15 20  1  0
  7  2  1  0
 17 12  1  0
  3 21  1  0
  4 22  1  0
  6 23  1  0
  7 24  1  0
 11 25  1  0
 11 26  1  0
 14 27  1  0
M  END
>  <Ligand ID>  (1) 
LIG0005884

>  <Ligand>  (1) 
MLS000541288

>  <SMILES>  (1) 
Fc1ccc(cc1)C(=O)OCn1ncc(c(c1=O)Br)Br

>  <CID>  (1) 
1474489.0

>  <ChEMBL ID>  (1) 
nan

>  <InChiKey>  (1) 
FJCYBRSOBUDNOK-UHFFFAOYSA-N

>  <InChi>  (1) 
InChI=1S/C12H7Br2FN2O3/c13-9-5-16-17(11(18)10(9)14)6-20-12(19)7-1-3-8(15)4-2-7/h1-5H,6H2

>  <IUPAC Name>  (1) 
(4,5-dibromo-6-oxopyridazin-1-yl)methyl 4-fluorobenzoate

$$$$
