
     RDKit          3D

 44 45  0  0  0  0  0  0  0  0999 V2000
    7.9108   -1.1967    1.0363 C   0  0  0  0  0  0  0  0  0  0  0  0
    6.5136   -1.0928    1.1764 O   0  0  0  0  0  0  0  0  0  0  0  0
    6.0863    0.0195    0.5337 N   0  0  0  0  0  0  0  0  0  0  0  0
    4.7015    0.2348    0.3546 C   0  0  0  0  0  0  0  0  0  0  0  0
    3.7604   -0.6620    0.8188 C   0  0  0  0  0  0  0  0  0  0  0  0
    2.4037   -0.3946    0.6116 C   0  0  0  0  0  0  0  0  0  0  0  0
    1.9877    0.7143   -0.0288 N   0  0  0  0  0  0  0  0  0  0  0  0
    2.9427    1.5814   -0.4758 C   0  0  0  0  0  0  0  0  0  0  0  0
    2.6381    2.6421   -1.0844 O   0  0  0  0  0  0  0  0  0  0  0  0
    4.2450    1.3293   -0.2795 N   0  0  0  0  0  0  0  0  0  0  0  0
    0.6283    1.0563   -0.2780 C   0  0  2  0  0  0  0  0  0  0  0  0
   -0.2398    0.3929    0.5833 O   0  0  0  0  0  0  0  0  0  0  0  0
   -1.5151    0.5434    0.0722 C   0  0  1  0  0  0  0  0  0  0  0  0
   -1.3752    0.8069   -1.4119 C   0  0  2  0  0  0  0  0  0  0  0  0
    0.1016    0.5341   -1.6188 C   0  0  1  0  0  0  0  0  0  0  0  0
    0.6511    1.1768   -2.6958 O   0  0  0  0  0  0  0  0  0  0  0  0
   -1.6465    2.1774   -1.6115 O   0  0  0  0  0  0  0  0  0  0  0  0
   -2.3529   -0.7351    0.2113 C   0  0  0  0  0  0  0  0  0  0  0  0
   -3.5977   -0.4657   -0.3297 O   0  0  0  0  0  0  0  0  0  0  0  0
   -4.6436   -1.7714   -0.2537 P   0  0  0  0  0  0  0  0  0  0  0  0
   -5.5304   -1.9080   -1.4664 O   0  0  0  0  0  0  0  0  0  0  0  0
   -5.6678   -1.4885    1.0839 O   0  0  0  0  0  0  0  0  0  0  0  0
   -6.3916    0.0334    0.9806 P   0  0  0  0  0  0  0  0  0  0  0  0
   -7.8622   -0.2102    0.6548 O   0  0  0  0  0  0  0  0  0  0  0  0
   -6.2950    0.8363    2.4819 O   0  0  0  0  0  0  0  0  0  0  0  0
   -5.7249    1.0027   -0.2061 O   0  0  0  0  0  0  0  0  0  0  0  0
   -3.8606   -3.2410    0.0083 O   0  0  0  0  0  0  0  0  0  0  0  0
    8.3999   -0.4137    1.6523 H   0  0  0  0  0  0  0  0  0  0  0  0
    8.2655   -2.2110    1.2615 H   0  0  0  0  0  0  0  0  0  0  0  0
    8.1350   -0.9134   -0.0335 H   0  0  0  0  0  0  0  0  0  0  0  0
    6.7668    0.7088    0.1750 H   0  0  0  0  0  0  0  0  0  0  0  0
    4.0733   -1.5729    1.3437 H   0  0  0  0  0  0  0  0  0  0  0  0
    1.6345   -1.0910    0.9705 H   0  0  0  0  0  0  0  0  0  0  0  0
    0.3985    2.1225   -0.2504 H   0  0  0  0  0  0  0  0  0  0  0  0
   -1.9970    1.3650    0.6160 H   0  0  0  0  0  0  0  0  0  0  0  0
   -2.0194    0.1714   -2.0407 H   0  0  0  0  0  0  0  0  0  0  0  0
    0.2001   -0.5770   -1.6694 H   0  0  0  0  0  0  0  0  0  0  0  0
    0.9720    0.4801   -3.3398 H   0  0  0  0  0  0  0  0  0  0  0  0
   -2.0908    2.5741   -0.8174 H   0  0  0  0  0  0  0  0  0  0  0  0
   -1.8334   -1.5999   -0.1991 H   0  0  0  0  0  0  0  0  0  0  0  0
   -2.5182   -0.9252    1.2977 H   0  0  0  0  0  0  0  0  0  0  0  0
   -6.6735    1.7513    2.3192 H   0  0  0  0  0  0  0  0  0  0  0  0
   -6.4482    1.3746   -0.7987 H   0  0  0  0  0  0  0  0  0  0  0  0
   -3.1325   -3.1595    0.6456 H   0  0  0  0  0  0  0  0  0  0  0  0
  1  2  1  0
  2  3  1  0
  3  4  1  0
  4  5  1  0
  5  6  2  0
  6  7  1  0
  7  8  1  0
  8  9  2  0
  8 10  1  0
  7 11  1  0
 11 12  1  0
 12 13  1  0
 13 14  1  0
 14 15  1  0
 15 16  1  0
 14 17  1  0
 13 18  1  0
 18 19  1  0
 19 20  1  0
 20 21  2  0
 20 22  1  0
 22 23  1  0
 23 24  2  0
 23 25  1  0
 23 26  1  0
 20 27  1  0
 10  4  2  0
 15 11  1  0
  1 28  1  0
  1 29  1  0
  1 30  1  0
  3 31  1  0
  5 32  1  0
  6 33  1  0
 11 34  1  6
 13 35  1  1
 14 36  1  6
 15 37  1  6
 16 38  1  0
 17 39  1  0
 18 40  1  0
 18 41  1  0
 25 42  1  0
 26 43  1  0
 27 44  1  0
M  END
>  <Ligand ID>  (1) 
LIG0002020

>  <Ligand>  (1) 
CHEMBL1084020

>  <SMILES>  (1) 
CONc1ccn(c(=O)n1)[C@@H]1O[C@@H]([C@H]([C@H]1O)O)COP(=O)(OP(=O)(O)O)O

>  <CID>  (1) 
45485253.0

>  <ChEMBL ID>  (1) 
nan

>  <InChiKey>  (1) 
GSCCOZXWAPBMKO-ZOQUXTDFSA-N

>  <InChi>  (1) 
InChI=1S/C10H17N3O12P2/c1-22-12-6-2-3-13(10(16)11-6)9-8(15)7(14)5(24-9)4-23-27(20,21)25-26(17,18)19/h2-3,5,7-9,14-15H,4H2,1H3,(H,20,21)(H,11,12,16)(H2,17,18,19)/t5-,7-,8-,9-/m1/s1

>  <IUPAC Name>  (1) 
[(2R,3S,4R,5R)-3,4-dihydroxy-5-[4-(methoxyamino)-2-oxopyrimidin-1-yl]oxolan-2-yl]methyl phosphono hydrogen phosphate

$$$$
