
     RDKit          3D

 52 54  0  0  0  0  0  0  0  0999 V2000
    6.8966    4.1322    0.1117 Cl  0  0  0  0  0  0  0  0  0  0  0  0
    6.3390    2.5067    0.4102 C   0  0  0  0  0  0  0  0  0  0  0  0
    6.4522    1.9382    1.6774 C   0  0  0  0  0  0  0  0  0  0  0  0
    6.0030    0.6504    1.8814 C   0  0  0  0  0  0  0  0  0  0  0  0
    5.4387   -0.0896    0.8426 C   0  0  0  0  0  0  0  0  0  0  0  0
    5.3217    0.4594   -0.4090 C   0  0  0  0  0  0  0  0  0  0  0  0
    5.7798    1.7699   -0.6147 C   0  0  0  0  0  0  0  0  0  0  0  0
    4.7629   -0.2694   -1.5380 C   0  0  2  0  0  0  0  0  0  0  0  0
    3.3300   -0.6639   -1.4450 C   0  0  0  0  0  0  0  0  0  0  0  0
    2.3520    0.3378   -1.3377 N   0  0  0  0  0  0  0  0  0  0  0  0
    2.2453    1.0879   -0.1464 C   0  0  0  0  0  0  0  0  0  0  0  0
    1.7449    0.2886    1.0395 C   0  0  0  0  0  0  0  0  0  0  0  0
    0.3887   -0.2387    0.7658 C   0  0  0  0  0  0  0  0  0  0  0  0
    0.1291   -1.4547    0.1842 C   0  0  0  0  0  0  0  0  0  0  0  0
   -1.1734   -1.8454   -0.0283 C   0  0  0  0  0  0  0  0  0  0  0  0
   -2.2677   -1.0605    0.3210 C   0  0  0  0  0  0  0  0  0  0  0  0
   -1.9828    0.1571    0.9051 C   0  0  0  0  0  0  0  0  0  0  0  0
   -0.6799    0.5546    1.1206 C   0  0  0  0  0  0  0  0  0  0  0  0
   -3.5615   -1.5504    0.0825 N   0  0  0  0  0  0  0  0  0  0  0  0
   -4.7382   -0.7919   -0.0788 C   0  0  0  0  0  0  0  0  0  0  0  0
   -4.7802    0.5112   -0.5209 C   0  0  0  0  0  0  0  0  0  0  0  0
   -5.9615    1.2288   -0.6467 C   0  0  0  0  0  0  0  0  0  0  0  0
   -7.1695    0.6286   -0.3189 C   0  0  0  0  0  0  0  0  0  0  0  0
   -7.1571   -0.6773    0.1265 C   0  0  0  0  0  0  0  0  0  0  0  0
   -5.9770   -1.3593    0.2403 C   0  0  0  0  0  0  0  0  0  0  0  0
   -8.3920   -1.3593    0.4852 C   0  0  0  0  0  0  0  0  0  0  0  0
   -8.4055   -2.5664    0.8991 O   0  0  0  0  0  0  0  0  0  0  0  0
   -9.6256   -0.7270    0.3951 O   0  0  0  0  0  0  0  0  0  0  0  0
    5.4973   -1.4901   -1.6139 O   0  0  0  0  0  0  0  0  0  0  0  0
    6.8878    2.5263    2.4579 H   0  0  0  0  0  0  0  0  0  0  0  0
    6.0921    0.2135    2.8653 H   0  0  0  0  0  0  0  0  0  0  0  0
    5.0937   -1.1108    1.0491 H   0  0  0  0  0  0  0  0  0  0  0  0
    5.7098    2.2485   -1.5870 H   0  0  0  0  0  0  0  0  0  0  0  0
    4.9088    0.2876   -2.4870 H   0  0  0  0  0  0  0  0  0  0  0  0
    3.1548   -1.4369   -0.6623 H   0  0  0  0  0  0  0  0  0  0  0  0
    3.1093   -1.2278   -2.4065 H   0  0  0  0  0  0  0  0  0  0  0  0
    2.1288    0.8518   -2.2151 H   0  0  0  0  0  0  0  0  0  0  0  0
    3.0891    1.6734    0.1889 H   0  0  0  0  0  0  0  0  0  0  0  0
    1.4183    1.8466   -0.3302 H   0  0  0  0  0  0  0  0  0  0  0  0
    2.3949   -0.5882    1.2509 H   0  0  0  0  0  0  0  0  0  0  0  0
    1.7477    0.9259    1.9420 H   0  0  0  0  0  0  0  0  0  0  0  0
    0.9377   -2.0915   -0.0980 H   0  0  0  0  0  0  0  0  0  0  0  0
   -1.3704   -2.8221   -0.4967 H   0  0  0  0  0  0  0  0  0  0  0  0
   -2.7693    0.8251    1.2223 H   0  0  0  0  0  0  0  0  0  0  0  0
   -0.5066    1.5187    1.5825 H   0  0  0  0  0  0  0  0  0  0  0  0
   -3.6767   -2.6051    0.0148 H   0  0  0  0  0  0  0  0  0  0  0  0
   -3.8810    1.0307   -0.8049 H   0  0  0  0  0  0  0  0  0  0  0  0
   -5.9906    2.2552   -0.9959 H   0  0  0  0  0  0  0  0  0  0  0  0
   -8.1051    1.1779   -0.4113 H   0  0  0  0  0  0  0  0  0  0  0  0
   -5.9785   -2.3744    0.5883 H   0  0  0  0  0  0  0  0  0  0  0  0
  -10.4639   -1.2300    0.0746 H   0  0  0  0  0  0  0  0  0  0  0  0
    5.2601   -2.0016   -2.4019 H   0  0  0  0  0  0  0  0  0  0  0  0
  1  2  1  0
  2  3  2  0
  3  4  1  0
  4  5  2  0
  5  6  1  0
  6  7  2  0
  6  8  1  0
  8  9  1  0
  9 10  1  0
 10 11  1  0
 11 12  1  0
 12 13  1  0
 13 14  2  0
 14 15  1  0
 15 16  2  0
 16 17  1  0
 17 18  2  0
 16 19  1  0
 19 20  1  0
 20 21  2  0
 21 22  1  0
 22 23  2  0
 23 24  1  0
 24 25  2  0
 24 26  1  0
 26 27  2  0
 26 28  1  0
  8 29  1  0
  7  2  1  0
 18 13  1  0
 25 20  1  0
  3 30  1  0
  4 31  1  0
  5 32  1  0
  7 33  1  0
  8 34  1  6
  9 35  1  0
  9 36  1  0
 10 37  1  0
 11 38  1  0
 11 39  1  0
 12 40  1  0
 12 41  1  0
 14 42  1  0
 15 43  1  0
 17 44  1  0
 18 45  1  0
 19 46  1  0
 21 47  1  0
 22 48  1  0
 23 49  1  0
 25 50  1  0
 28 51  1  0
 29 52  1  0
M  END
>  <Ligand ID>  (1) 
LIG0005830

>  <Ligand>  (1) 
CHEMBL273098

>  <SMILES>  (1) 
Clc1cccc(c1)[C@H](CNCCc1ccc(cc1)Nc1cccc(c1)C(=O)O)O

>  <CID>  (1) 
24823626.0

>  <ChEMBL ID>  (1) 
nan

>  <InChiKey>  (1) 
MEVGYBUXWXTZND-QFIPXVFZSA-N

>  <InChi>  (1) 
InChI=1S/C23H23ClN2O3/c24-19-5-1-3-17(13-19)22(27)15-25-12-11-16-7-9-20(10-8-16)26-21-6-2-4-18(14-21)23(28)29/h1-10,13-14,22,25-27H,11-12,15H2,(H,28,29)/t22-/m0/s1

>  <IUPAC Name>  (1) 
3-[4-[2-[[(2R)-2-(3-chlorophenyl)-2-hydroxyethyl]amino]ethyl]anilino]benzoic acid

$$$$
