
     RDKit          3D

 16 15  0  0  0  0  0  0  0  0999 V2000
   -2.1867   -0.2278    0.1199 C   0  0  0  0  0  0  0  0  0  0  0  0
   -0.7199   -0.4028    0.4931 C   0  0  0  0  0  0  0  0  0  0  0  0
    0.0456    0.6566   -0.2521 C   0  0  0  0  0  0  0  0  0  0  0  0
    1.5242    0.6138    0.0135 C   0  0  0  0  0  0  0  0  0  0  0  0
    2.1366   -0.6787   -0.3815 C   0  0  0  0  0  0  0  0  0  0  0  0
    2.3400   -0.8935   -1.5711 O   0  0  0  0  0  0  0  0  0  0  0  0
   -2.4620    0.8381   -0.0361 H   0  0  0  0  0  0  0  0  0  0  0  0
   -2.4511   -0.8204   -0.7775 H   0  0  0  0  0  0  0  0  0  0  0  0
   -2.8547   -0.6062    0.9270 H   0  0  0  0  0  0  0  0  0  0  0  0
   -0.4117   -1.4308    0.2503 H   0  0  0  0  0  0  0  0  0  0  0  0
   -0.6116   -0.1974    1.5869 H   0  0  0  0  0  0  0  0  0  0  0  0
   -0.1517    0.6556   -1.3349 H   0  0  0  0  0  0  0  0  0  0  0  0
   -0.3147    1.6440    0.1396 H   0  0  0  0  0  0  0  0  0  0  0  0
    1.7078    0.8716    1.0622 H   0  0  0  0  0  0  0  0  0  0  0  0
    1.9954    1.4292   -0.5843 H   0  0  0  0  0  0  0  0  0  0  0  0
    2.4145   -1.4512    0.3450 H   0  0  0  0  0  0  0  0  0  0  0  0
  1  2  1  0
  2  3  1  0
  3  4  1  0
  4  5  1  0
  5  6  2  0
  1  7  1  0
  1  8  1  0
  1  9  1  0
  2 10  1  0
  2 11  1  0
  3 12  1  0
  3 13  1  0
  4 14  1  0
  4 15  1  0
  5 16  1  0
M  END
>  <Ligand ID>  (1) 
LIG0000144

>  <Ligand>  (1) 
Valeraldehyde

>  <SMILES>  (1) 
CCCCC=O

>  <CID>  (1) 
8063.0

>  <ChEMBL ID>  (1) 
nan

>  <InChiKey>  (1) 
HGBOYTHUEUWSSQ-UHFFFAOYSA-N

>  <InChi>  (1) 
InChI=1S/C5H10O/c1-2-3-4-5-6/h5H,2-4H2,1H3

>  <IUPAC Name>  (1) 
pentanal

$$$$
