
     RDKit          3D

 41 42  0  0  0  0  0  0  0  0999 V2000
    2.1228    2.5038    0.3875 C   0  0  0  0  0  0  0  0  0  0  0  0
    2.4645    1.3334    1.1250 N   0  0  0  0  0  0  0  0  0  0  0  0
    3.6397    0.3290    0.4198 S   0  0  0  0  0  0  0  0  0  0  0  0
    4.9434    1.0332    0.1662 O   0  0  0  0  0  0  0  0  0  0  0  0
    3.9629   -0.8670    1.2744 O   0  0  0  0  0  0  0  0  0  0  0  0
    3.0960   -0.2988   -1.1420 C   0  0  0  0  0  0  0  0  0  0  0  0
    1.8453   -1.1101   -0.9970 C   0  0  0  0  0  0  0  0  0  0  0  0
    2.0075   -2.4662   -0.7364 C   0  0  0  0  0  0  0  0  0  0  0  0
    0.8563   -3.2476   -0.5972 C   0  0  0  0  0  0  0  0  0  0  0  0
   -0.4081   -2.6882   -0.7150 C   0  0  0  0  0  0  0  0  0  0  0  0
   -0.5474   -1.3412   -0.9728 C   0  0  0  0  0  0  0  0  0  0  0  0
    0.5871   -0.5620   -1.1124 C   0  0  0  0  0  0  0  0  0  0  0  0
   -1.9131   -1.0215   -1.0614 C   0  0  0  0  0  0  0  0  0  0  0  0
   -2.5726    0.2476   -1.2867 C   0  0  0  0  0  0  0  0  0  0  0  0
   -2.8416    1.0323   -0.0570 C   0  0  0  0  0  0  0  0  0  0  0  0
   -1.7611    1.3580    0.7848 N   0  0  0  0  0  0  0  0  0  0  0  0
   -1.2382    0.2982    1.6015 C   0  0  0  0  0  0  0  0  0  0  0  0
   -2.0372    2.5708    1.5340 C   0  0  0  0  0  0  0  0  0  0  0  0
   -2.5472   -2.2277   -0.8473 C   0  0  0  0  0  0  0  0  0  0  0  0
   -1.6462   -3.2078   -0.6426 N   0  0  0  0  0  0  0  0  0  0  0  0
    1.2396    2.9630    0.9123 H   0  0  0  0  0  0  0  0  0  0  0  0
    2.9138    3.2861    0.4156 H   0  0  0  0  0  0  0  0  0  0  0  0
    1.8656    2.2810   -0.6418 H   0  0  0  0  0  0  0  0  0  0  0  0
    2.5118    1.4473    2.1442 H   0  0  0  0  0  0  0  0  0  0  0  0
    3.8603   -0.9430   -1.6235 H   0  0  0  0  0  0  0  0  0  0  0  0
    2.8920    0.5220   -1.8625 H   0  0  0  0  0  0  0  0  0  0  0  0
    2.9762   -2.9333   -0.6376 H   0  0  0  0  0  0  0  0  0  0  0  0
    1.0100   -4.2992   -0.3953 H   0  0  0  0  0  0  0  0  0  0  0  0
    0.4565    0.4744   -1.3125 H   0  0  0  0  0  0  0  0  0  0  0  0
   -3.5234    0.1106   -1.9018 H   0  0  0  0  0  0  0  0  0  0  0  0
   -1.9551    0.9048   -1.9788 H   0  0  0  0  0  0  0  0  0  0  0  0
   -3.6219    0.4967    0.5950 H   0  0  0  0  0  0  0  0  0  0  0  0
   -3.4227    1.9731   -0.3337 H   0  0  0  0  0  0  0  0  0  0  0  0
   -1.7710   -0.6628    1.4580 H   0  0  0  0  0  0  0  0  0  0  0  0
   -1.4197    0.5405    2.7085 H   0  0  0  0  0  0  0  0  0  0  0  0
   -0.1563    0.1031    1.4945 H   0  0  0  0  0  0  0  0  0  0  0  0
   -2.5232    2.3637    2.5119 H   0  0  0  0  0  0  0  0  0  0  0  0
   -1.0971    3.1460    1.6165 H   0  0  0  0  0  0  0  0  0  0  0  0
   -2.7811    3.2088    0.9915 H   0  0  0  0  0  0  0  0  0  0  0  0
   -3.6291   -2.4166   -0.8351 H   0  0  0  0  0  0  0  0  0  0  0  0
   -1.8376   -4.2347   -0.4507 H   0  0  0  0  0  0  0  0  0  0  0  0
  1  2  1  0
  2  3  1  0
  3  4  2  0
  3  5  2  0
  3  6  1  0
  6  7  1  0
  7  8  2  0
  8  9  1  0
  9 10  2  0
 10 11  1  0
 11 12  2  0
 11 13  1  0
 13 14  1  0
 14 15  1  0
 15 16  1  0
 16 17  1  0
 16 18  1  0
 13 19  2  0
 19 20  1  0
 12  7  1  0
 20 10  1  0
  1 21  1  0
  1 22  1  0
  1 23  1  0
  2 24  1  0
  6 25  1  0
  6 26  1  0
  8 27  1  0
  9 28  1  0
 12 29  1  0
 14 30  1  0
 14 31  1  0
 15 32  1  0
 15 33  1  0
 17 34  1  0
 17 35  1  0
 17 36  1  0
 18 37  1  0
 18 38  1  0
 18 39  1  0
 19 40  1  0
 20 41  1  0
M  END
>  <Ligand ID>  (1) 
LIG0000712

>  <Ligand>  (1) 
sumatriptan

>  <SMILES>  (1) 
CNS(=O)(=O)Cc1ccc2c(c1)c(CCN(C)C)c[nH]2

>  <CID>  (1) 
5358.0

>  <ChEMBL ID>  (1) 
nan

>  <InChiKey>  (1) 
KQKPFRSPSRPDEB-UHFFFAOYSA-N

>  <InChi>  (1) 
InChI=1S/C14H21N3O2S/c1-15-20(18,19)10-11-4-5-14-13(8-11)12(9-16-14)6-7-17(2)3/h4-5,8-9,15-16H,6-7,10H2,1-3H3

>  <IUPAC Name>  (1) 
1-[3-[2-(dimethylamino)ethyl]-1H-indol-5-yl]-N-methylmethanesulfonamide

$$$$
