
     RDKit          3D

223228  0  0  0  0  0  0  0  0999 V2000
    3.7945   -8.3468    0.3662 N   0  0  0  0  0  0  0  0  0  0  0  0
    2.9554   -7.3492    0.9621 C   0  0  0  0  0  0  0  0  0  0  0  0
    3.5287   -6.5115    1.7443 O   0  0  0  0  0  0  0  0  0  0  0  0
    1.5138   -7.3154    0.6694 C   0  0  0  0  0  0  0  0  0  0  0  0
    0.9141   -5.9025    0.9431 C   0  0  2  0  0  0  0  0  0  0  0  0
   -0.5626   -6.0337    0.7398 N   0  0  0  0  0  0  0  0  0  0  0  0
   -1.3903   -6.8252    1.5623 C   0  0  0  0  0  0  0  0  0  0  0  0
   -0.8062   -7.4594    2.4725 O   0  0  0  0  0  0  0  0  0  0  0  0
   -2.8491   -6.9988    1.4593 C   0  0  2  0  0  0  0  0  0  0  0  0
   -3.0983   -8.0963    0.3568 C   0  0  0  0  0  0  0  0  0  0  0  0
   -2.4415   -9.3340    0.8034 C   0  0  0  0  0  0  0  0  0  0  0  0
   -3.1924  -10.1959    1.6237 C   0  0  0  0  0  0  0  0  0  0  0  0
   -2.6764  -11.3802    2.0734 C   0  0  0  0  0  0  0  0  0  0  0  0
   -1.3937  -11.7445    1.7139 C   0  0  0  0  0  0  0  0  0  0  0  0
   -0.6456  -10.8906    0.9012 C   0  0  0  0  0  0  0  0  0  0  0  0
   -1.1797   -9.7097    0.4629 C   0  0  0  0  0  0  0  0  0  0  0  0
   -3.5661   -5.8638    0.9009 N   0  0  0  0  0  0  0  0  0  0  0  0
   -4.9859   -5.7937    0.8492 C   0  0  0  0  0  0  0  0  0  0  0  0
   -5.5917   -6.8115    1.2249 O   0  0  0  0  0  0  0  0  0  0  0  0
   -5.7732   -4.6447    0.3838 C   0  0  2  0  0  0  0  0  0  0  0  0
   -6.0469   -4.8146   -1.1384 C   0  0  0  0  0  0  0  0  0  0  0  0
   -6.8096   -6.0909   -1.3205 C   0  0  0  0  0  0  0  0  0  0  0  0
   -8.1760   -6.0600   -1.2236 C   0  0  0  0  0  0  0  0  0  0  0  0
   -8.9980   -7.1486   -1.3942 C   0  0  0  0  0  0  0  0  0  0  0  0
   -8.3870   -8.3591   -1.6834 C   0  0  0  0  0  0  0  0  0  0  0  0
   -7.0062   -8.4090   -1.7820 C   0  0  0  0  0  0  0  0  0  0  0  0
   -6.2078   -7.2818   -1.6023 C   0  0  0  0  0  0  0  0  0  0  0  0
   -5.2264   -3.3596    0.6718 N   0  0  0  0  0  0  0  0  0  0  0  0
   -5.2430   -2.1631   -0.0797 C   0  0  0  0  0  0  0  0  0  0  0  0
   -5.5722   -2.2336   -1.2594 O   0  0  0  0  0  0  0  0  0  0  0  0
   -4.8590   -0.9018    0.5283 C   0  0  2  0  0  0  0  0  0  0  0  0
   -6.0928    0.0262    0.5033 C   0  0  0  0  0  0  0  0  0  0  0  0
   -7.2696   -0.3933    1.2179 C   0  0  0  0  0  0  0  0  0  0  0  0
   -8.0730   -1.5695    0.8188 C   0  0  0  0  0  0  0  0  0  0  0  0
   -8.5703   -1.4660   -0.5428 N   0  0  0  0  0  0  0  0  0  0  0  0
   -9.5191   -0.4590   -0.8126 C   0  0  0  0  0  0  0  0  0  0  0  0
  -10.2723    0.1269    0.0188 N   0  0  0  0  0  0  0  0  0  0  0  0
   -9.6348   -0.0362   -2.1942 N   0  0  0  0  0  0  0  0  0  0  0  0
   -3.8684   -0.1150   -0.2422 N   0  0  0  0  0  0  0  0  0  0  0  0
   -3.3181    0.9899    0.4579 C   0  0  0  0  0  0  0  0  0  0  0  0
   -3.7507    1.1918    1.5959 O   0  0  0  0  0  0  0  0  0  0  0  0
   -2.2549    1.8957   -0.1787 C   0  0  2  0  0  0  0  0  0  0  0  0
   -1.0100    1.6812    0.5892 C   0  0  0  0  0  0  0  0  0  0  0  0
    0.5325    2.1247   -0.2668 S   0  0  0  0  0  0  0  0  0  0  0  0
    2.0770    1.7308    1.2124 S   0  0  0  0  0  0  0  0  0  0  0  0
    2.3875   -0.0370    1.0719 C   0  0  0  0  0  0  0  0  0  0  0  0
    2.9602   -0.4045   -0.2173 C   0  0  2  0  0  0  0  0  0  0  0  0
    2.9210   -1.9123   -0.3787 N   0  0  0  0  0  0  0  0  0  0  0  0
    2.8247   -2.4884   -1.6641 C   0  0  0  0  0  0  0  0  0  0  0  0
    2.7478   -1.6724   -2.6029 O   0  0  0  0  0  0  0  0  0  0  0  0
    2.8244   -3.9259   -1.9012 C   0  0  1  0  0  0  0  0  0  0  0  0
    2.6067   -4.6962   -0.6835 N   0  0  0  0  0  0  0  0  0  0  0  0
    1.3476   -5.0658   -0.1807 C   0  0  0  0  0  0  0  0  0  0  0  0
    0.3855   -4.5482   -0.8679 O   0  0  0  0  0  0  0  0  0  0  0  0
    2.0407   -4.3043   -3.1045 C   0  0  0  0  0  0  0  0  0  0  0  0
    2.1283   -5.7463   -3.3689 C   0  0  0  0  0  0  0  0  0  0  0  0
    3.3178   -6.1713   -3.9981 C   0  0  0  0  0  0  0  0  0  0  0  0
    3.5122   -7.4951   -4.3207 C   0  0  0  0  0  0  0  0  0  0  0  0
    2.5808   -8.4829   -4.0589 C   0  0  0  0  0  0  0  0  0  0  0  0
    1.4068   -8.0395   -3.4362 C   0  0  0  0  0  0  0  0  0  0  0  0
    1.2099   -6.7150   -3.1132 C   0  0  0  0  0  0  0  0  0  0  0  0
    4.4236   -0.2006   -0.3823 C   0  0  0  0  0  0  0  0  0  0  0  0
    5.0602   -1.2557   -0.7516 O   0  0  0  0  0  0  0  0  0  0  0  0
    5.2158    0.9486   -0.2058 N   0  0  0  0  0  0  0  0  0  0  0  0
    6.6303    0.7780   -0.5005 C   0  0  2  0  0  0  0  0  0  0  0  0
    7.4241    0.2781    0.6562 C   0  0  0  0  0  0  0  0  0  0  0  0
    6.9812    0.2201    1.8205 O   0  0  0  0  0  0  0  0  0  0  0  0
    8.7581   -0.1531    0.3154 N   0  0  0  0  0  0  0  0  0  0  0  0
    9.6998   -0.7151    1.2298 C   0  0  2  0  0  0  0  0  0  0  0  0
   11.0697   -0.4100    0.8805 C   0  0  0  0  0  0  0  0  0  0  0  0
   11.9840   -1.1519    1.3848 O   0  0  0  0  0  0  0  0  0  0  0  0
   11.5556    0.6296    0.0320 N   0  0  0  0  0  0  0  0  0  0  0  0
   12.9807    0.6645   -0.1725 C   0  0  2  0  0  0  0  0  0  0  0  0
   13.6162    1.1540    1.1503 C   0  0  0  0  0  0  0  0  0  0  0  0
   12.8400    1.3728    2.0966 O   0  0  0  0  0  0  0  0  0  0  0  0
   15.0162    1.3092    1.1668 N   0  0  0  0  0  0  0  0  0  0  0  0
   13.3917    1.5779   -1.2668 C   0  0  0  0  0  0  0  0  0  0  0  0
   13.0282    3.0244   -0.9640 C   0  0  0  0  0  0  0  0  0  0  0  0
   13.5035    3.8920   -2.0859 C   0  0  0  0  0  0  0  0  0  0  0  0
   13.2523    5.3070   -1.8086 N   0  0  0  0  0  0  0  0  0  0  0  0
   14.0250    5.8592   -0.7238 C   0  0  0  0  0  0  0  0  0  0  0  0
   15.0760    5.2267   -0.2561 N   0  0  0  0  0  0  0  0  0  0  0  0
   13.6775    7.1157   -0.1240 N   0  0  0  0  0  0  0  0  0  0  0  0
    9.4497   -2.2454    1.1522 C   0  0  0  0  0  0  0  0  0  0  0  0
    7.2121    1.9968   -1.0904 C   0  0  0  0  0  0  0  0  0  0  0  0
    7.1012    3.1885   -0.2237 C   0  0  0  0  0  0  0  0  0  0  0  0
    8.0284    3.5218    0.7177 C   0  0  0  0  0  0  0  0  0  0  0  0
    7.9177    4.6658    1.5155 C   0  0  0  0  0  0  0  0  0  0  0  0
    6.8178    5.4923    1.3365 C   0  0  0  0  0  0  0  0  0  0  0  0
    5.8803    5.1439    0.3731 C   0  0  0  0  0  0  0  0  0  0  0  0
    5.9973    4.0063   -0.4124 C   0  0  0  0  0  0  0  0  0  0  0  0
    6.6973    6.6272    2.1139 O   0  0  0  0  0  0  0  0  0  0  0  0
   -2.8572    3.1915    0.1996 N   0  0  0  0  0  0  0  0  0  0  0  0
   -3.0292    3.7367    1.4600 C   0  0  0  0  0  0  0  0  0  0  0  0
   -2.6087    3.2178    2.5545 O   0  0  0  0  0  0  0  0  0  0  0  0
   -3.7667    5.0081    1.6435 C   0  0  1  0  0  0  0  0  0  0  0  0
   -4.3387    5.5913    0.5034 N   0  0  0  0  0  0  0  0  0  0  0  0
   -4.7153    6.9661    0.3384 C   0  0  0  0  0  0  0  0  0  0  0  0
   -4.5607    7.8353    1.2202 O   0  0  0  0  0  0  0  0  0  0  0  0
   -5.3346    7.2688   -1.0012 C   0  0  1  0  0  0  0  0  0  0  0  0
   -6.3592    8.2682   -0.7793 N   0  0  0  0  0  0  0  0  0  0  0  0
   -7.4733    8.2094   -1.7014 C   0  0  0  0  0  0  0  0  0  0  0  0
   -7.4015    7.3182   -2.6174 O   0  0  0  0  0  0  0  0  0  0  0  0
   -8.6412    9.0614   -1.6684 C   0  0  2  0  0  0  0  0  0  0  0  0
   -8.4839   10.2461   -2.6562 C   0  0  2  0  0  0  0  0  0  0  0  0
   -9.6297   11.0171   -2.6441 O   0  0  0  0  0  0  0  0  0  0  0  0
   -8.0696    9.7577   -4.0046 C   0  0  0  0  0  0  0  0  0  0  0  0
   -8.8062    9.7189   -0.3698 N   0  0  0  0  0  0  0  0  0  0  0  0
  -10.1120    9.5945    0.2232 C   0  0  0  0  0  0  0  0  0  0  0  0
  -11.0351    8.9613   -0.3693 O   0  0  0  0  0  0  0  0  0  0  0  0
  -10.4093   10.1616    1.4605 O   0  0  0  0  0  0  0  0  0  0  0  0
   -4.2372    7.9367   -1.8446 C   0  0  0  0  0  0  0  0  0  0  0  0
   -4.9249    4.5702    2.6155 C   0  0  0  0  0  0  0  0  0  0  0  0
   -5.7744    5.7109    2.9017 C   0  0  0  0  0  0  0  0  0  0  0  0
   -5.4872    6.5446    3.9592 C   0  0  0  0  0  0  0  0  0  0  0  0
   -6.2358    7.6437    4.2922 C   0  0  0  0  0  0  0  0  0  0  0  0
   -7.3313    7.9319    3.5333 C   0  0  0  0  0  0  0  0  0  0  0  0
   -7.6799    7.1335    2.4534 C   0  0  0  0  0  0  0  0  0  0  0  0
   -6.9083    6.0176    2.1269 C   0  0  0  0  0  0  0  0  0  0  0  0
   -8.0805    9.0460    3.8759 O   0  0  0  0  0  0  0  0  0  0  0  0
    3.9601   -8.4241   -0.6413 H   0  0  0  0  0  0  0  0  0  0  0  0
    4.2826   -9.0691    0.9815 H   0  0  0  0  0  0  0  0  0  0  0  0
    1.3549   -7.5366   -0.4015 H   0  0  0  0  0  0  0  0  0  0  0  0
    0.9972   -8.0798    1.3172 H   0  0  0  0  0  0  0  0  0  0  0  0
    1.1836   -5.6603    1.9419 H   0  0  0  0  0  0  0  0  0  0  0  0
   -1.0376   -5.5395   -0.0214 H   0  0  0  0  0  0  0  0  0  0  0  0
   -3.2696   -7.4646    2.3273 H   0  0  0  0  0  0  0  0  0  0  0  0
   -4.1621   -8.2415    0.3167 H   0  0  0  0  0  0  0  0  0  0  0  0
   -2.6344   -7.6652   -0.5536 H   0  0  0  0  0  0  0  0  0  0  0  0
   -4.2078   -9.9142    1.9058 H   0  0  0  0  0  0  0  0  0  0  0  0
   -3.2728  -12.0317    2.7143 H   0  0  0  0  0  0  0  0  0  0  0  0
   -0.9472  -12.6789    2.0498 H   0  0  0  0  0  0  0  0  0  0  0  0
    0.3797  -11.1649    0.6112 H   0  0  0  0  0  0  0  0  0  0  0  0
   -0.5951   -9.0306   -0.1816 H   0  0  0  0  0  0  0  0  0  0  0  0
   -3.0784   -5.0447    0.5243 H   0  0  0  0  0  0  0  0  0  0  0  0
   -6.8135   -4.6968    0.7741 H   0  0  0  0  0  0  0  0  0  0  0  0
   -6.7875   -4.0227   -1.3806 H   0  0  0  0  0  0  0  0  0  0  0  0
   -5.1743   -4.7057   -1.7464 H   0  0  0  0  0  0  0  0  0  0  0  0
   -8.6521   -5.1005   -0.9865 H   0  0  0  0  0  0  0  0  0  0  0  0
  -10.0826   -7.0936   -1.3124 H   0  0  0  0  0  0  0  0  0  0  0  0
   -8.9572   -9.2652   -1.8311 H   0  0  0  0  0  0  0  0  0  0  0  0
   -6.5561   -9.3723   -2.0179 H   0  0  0  0  0  0  0  0  0  0  0  0
   -5.1419   -7.3770   -1.6833 H   0  0  0  0  0  0  0  0  0  0  0  0
   -4.7147   -3.2666    1.5832 H   0  0  0  0  0  0  0  0  0  0  0  0
   -4.6068   -0.9688    1.5971 H   0  0  0  0  0  0  0  0  0  0  0  0
   -6.3572    0.1791   -0.6088 H   0  0  0  0  0  0  0  0  0  0  0  0
   -5.8097    1.0633    0.8301 H   0  0  0  0  0  0  0  0  0  0  0  0
   -6.9292   -0.6399    2.2997 H   0  0  0  0  0  0  0  0  0  0  0  0
   -7.9673    0.4904    1.4732 H   0  0  0  0  0  0  0  0  0  0  0  0
   -9.0414   -1.5712    1.4463 H   0  0  0  0  0  0  0  0  0  0  0  0
   -7.6434   -2.5271    1.0375 H   0  0  0  0  0  0  0  0  0  0  0  0
   -8.2837   -2.0839   -1.3266 H   0  0  0  0  0  0  0  0  0  0  0  0
  -10.2935   -0.0586    1.0138 H   0  0  0  0  0  0  0  0  0  0  0  0
   -8.8308    0.4582   -2.6228 H   0  0  0  0  0  0  0  0  0  0  0  0
  -10.4941   -0.2207   -2.7471 H   0  0  0  0  0  0  0  0  0  0  0  0
   -3.5577   -0.2832   -1.1779 H   0  0  0  0  0  0  0  0  0  0  0  0
   -2.1871    1.7808   -1.2443 H   0  0  0  0  0  0  0  0  0  0  0  0
   -0.9662    0.5839    0.9000 H   0  0  0  0  0  0  0  0  0  0  0  0
   -0.9571    2.2191    1.5527 H   0  0  0  0  0  0  0  0  0  0  0  0
    1.4536   -0.6317    1.2771 H   0  0  0  0  0  0  0  0  0  0  0  0
    3.1156   -0.3531    1.8794 H   0  0  0  0  0  0  0  0  0  0  0  0
    2.4526    0.0671   -1.0675 H   0  0  0  0  0  0  0  0  0  0  0  0
    2.9582   -2.5293    0.4149 H   0  0  0  0  0  0  0  0  0  0  0  0
    3.9221   -4.1872   -2.1840 H   0  0  0  0  0  0  0  0  0  0  0  0
    3.4306   -4.9689   -0.1642 H   0  0  0  0  0  0  0  0  0  0  0  0
    2.5241   -3.7772   -3.9830 H   0  0  0  0  0  0  0  0  0  0  0  0
    0.9571   -4.0510   -3.0574 H   0  0  0  0  0  0  0  0  0  0  0  0
    4.1012   -5.4317   -4.2224 H   0  0  0  0  0  0  0  0  0  0  0  0
    4.4410   -7.7972   -4.8128 H   0  0  0  0  0  0  0  0  0  0  0  0
    2.7324   -9.5274   -4.3088 H   0  0  0  0  0  0  0  0  0  0  0  0
    0.6532   -8.7916   -3.2068 H   0  0  0  0  0  0  0  0  0  0  0  0
    0.2800   -6.4611   -2.6587 H   0  0  0  0  0  0  0  0  0  0  0  0
    4.7565    1.8135    0.1159 H   0  0  0  0  0  0  0  0  0  0  0  0
    6.7434   -0.0475   -1.2906 H   0  0  0  0  0  0  0  0  0  0  0  0
    9.1071   -0.0530   -0.6985 H   0  0  0  0  0  0  0  0  0  0  0  0
    9.4412   -0.3862    2.2637 H   0  0  0  0  0  0  0  0  0  0  0  0
   10.8698    1.2924   -0.3805 H   0  0  0  0  0  0  0  0  0  0  0  0
   13.3507   -0.3647   -0.3282 H   0  0  0  0  0  0  0  0  0  0  0  0
   15.4056    2.0647    1.7738 H   0  0  0  0  0  0  0  0  0  0  0  0
   15.6424    0.7150    0.6110 H   0  0  0  0  0  0  0  0  0  0  0  0
   14.4646    1.5560   -1.5236 H   0  0  0  0  0  0  0  0  0  0  0  0
   12.8295    1.3151   -2.2126 H   0  0  0  0  0  0  0  0  0  0  0  0
   11.8963    3.0735   -0.9970 H   0  0  0  0  0  0  0  0  0  0  0  0
   13.3409    3.3384    0.0375 H   0  0  0  0  0  0  0  0  0  0  0  0
   14.5402    3.6767   -2.3847 H   0  0  0  0  0  0  0  0  0  0  0  0
   12.8674    3.6333   -2.9836 H   0  0  0  0  0  0  0  0  0  0  0  0
   12.5654    5.8805   -2.3495 H   0  0  0  0  0  0  0  0  0  0  0  0
   15.3520    4.3182   -0.6688 H   0  0  0  0  0  0  0  0  0  0  0  0
   12.7508    7.5569   -0.2180 H   0  0  0  0  0  0  0  0  0  0  0  0
   14.4036    7.6211    0.4404 H   0  0  0  0  0  0  0  0  0  0  0  0
    9.0382   -2.5038    0.1557 H   0  0  0  0  0  0  0  0  0  0  0  0
   10.3208   -2.8239    1.4612 H   0  0  0  0  0  0  0  0  0  0  0  0
    8.6312   -2.4492    1.8857 H   0  0  0  0  0  0  0  0  0  0  0  0
    6.7300    2.2671   -2.0766 H   0  0  0  0  0  0  0  0  0  0  0  0
    8.3041    1.8638   -1.3594 H   0  0  0  0  0  0  0  0  0  0  0  0
    8.8798    2.8378    0.8222 H   0  0  0  0  0  0  0  0  0  0  0  0
    8.6858    4.8792    2.2556 H   0  0  0  0  0  0  0  0  0  0  0  0
    5.0227    5.7870    0.2327 H   0  0  0  0  0  0  0  0  0  0  0  0
    5.2189    3.7847   -1.1543 H   0  0  0  0  0  0  0  0  0  0  0  0
    5.9019    6.8162    2.6846 H   0  0  0  0  0  0  0  0  0  0  0  0
   -3.1738    3.7402   -0.6527 H   0  0  0  0  0  0  0  0  0  0  0  0
   -3.2083    5.6958    2.2587 H   0  0  0  0  0  0  0  0  0  0  0  0
   -4.5427    4.9777   -0.3399 H   0  0  0  0  0  0  0  0  0  0  0  0
   -5.7421    6.4315   -1.5365 H   0  0  0  0  0  0  0  0  0  0  0  0
   -6.3577    8.9943   -0.0446 H   0  0  0  0  0  0  0  0  0  0  0  0
   -9.5863    8.5420   -1.9707 H   0  0  0  0  0  0  0  0  0  0  0  0
   -7.6335   10.8398   -2.1766 H   0  0  0  0  0  0  0  0  0  0  0  0
   -9.4919   11.9301   -2.2979 H   0  0  0  0  0  0  0  0  0  0  0  0
   -8.6824    8.9158   -4.3785 H   0  0  0  0  0  0  0  0  0  0  0  0
   -7.0035    9.3822   -3.9368 H   0  0  0  0  0  0  0  0  0  0  0  0
   -8.1421   10.5899   -4.7333 H   0  0  0  0  0  0  0  0  0  0  0  0
   -8.0598   10.2395    0.1111 H   0  0  0  0  0  0  0  0  0  0  0  0
  -11.0104    9.6923    2.0867 H   0  0  0  0  0  0  0  0  0  0  0  0
   -3.7242    8.6826   -1.2446 H   0  0  0  0  0  0  0  0  0  0  0  0
   -4.6999    8.4567   -2.6919 H   0  0  0  0  0  0  0  0  0  0  0  0
   -3.6100    7.1116   -2.2348 H   0  0  0  0  0  0  0  0  0  0  0  0
   -5.4083    3.6777    2.1885 H   0  0  0  0  0  0  0  0  0  0  0  0
   -4.3917    4.2603    3.5280 H   0  0  0  0  0  0  0  0  0  0  0  0
   -4.6130    6.3260    4.5794 H   0  0  0  0  0  0  0  0  0  0  0  0
   -5.9897    8.2810    5.1176 H   0  0  0  0  0  0  0  0  0  0  0  0
   -8.5714    7.3959    1.8943 H   0  0  0  0  0  0  0  0  0  0  0  0
   -7.1832    5.4136    1.2853 H   0  0  0  0  0  0  0  0  0  0  0  0
   -7.6235    9.8986    4.1587 H   0  0  0  0  0  0  0  0  0  0  0  0
  1  2  1  0
  2  3  2  0
  2  4  1  0
  4  5  1  0
  5  6  1  0
  6  7  1  0
  7  8  2  0
  7  9  1  0
  9 10  1  0
 10 11  1  0
 11 12  2  0
 12 13  1  0
 13 14  2  0
 14 15  1  0
 15 16  2  0
  9 17  1  0
 17 18  1  0
 18 19  2  0
 18 20  1  0
 20 21  1  0
 21 22  1  0
 22 23  2  0
 23 24  1  0
 24 25  2  0
 25 26  1  0
 26 27  2  0
 20 28  1  0
 28 29  1  0
 29 30  2  0
 29 31  1  0
 31 32  1  0
 32 33  1  0
 33 34  1  0
 34 35  1  0
 35 36  1  0
 36 37  2  3
 36 38  1  0
 31 39  1  0
 39 40  1  0
 40 41  2  0
 40 42  1  0
 42 43  1  0
 43 44  1  0
 44 45  1  0
 45 46  1  0
 46 47  1  0
 47 48  1  0
 48 49  1  0
 49 50  2  0
 49 51  1  0
 51 52  1  0
 52 53  1  0
 53 54  2  0
 51 55  1  0
 55 56  1  0
 56 57  2  0
 57 58  1  0
 58 59  2  0
 59 60  1  0
 60 61  2  0
 47 62  1  0
 62 63  2  0
 62 64  1  0
 64 65  1  0
 65 66  1  0
 66 67  2  0
 66 68  1  0
 68 69  1  0
 69 70  1  0
 70 71  2  0
 70 72  1  0
 72 73  1  0
 73 74  1  0
 74 75  2  0
 74 76  1  0
 73 77  1  0
 77 78  1  0
 78 79  1  0
 79 80  1  0
 80 81  1  0
 81 82  2  3
 81 83  1  0
 69 84  1  0
 65 85  1  0
 85 86  1  0
 86 87  2  0
 87 88  1  0
 88 89  2  0
 89 90  1  0
 90 91  2  0
 89 92  1  0
 42 93  1  0
 93 94  1  0
 94 95  2  0
 94 96  1  0
 96 97  1  0
 97 98  1  0
 98 99  2  0
 98100  1  0
100101  1  0
101102  1  0
102103  2  0
102104  1  0
104105  1  0
105106  1  0
105107  1  0
104108  1  0
108109  1  0
109110  2  0
109111  1  0
100112  1  0
 96113  1  0
113114  1  0
114115  2  0
115116  1  0
116117  2  0
117118  1  0
118119  2  0
117120  1  0
 53  5  1  0
 61 56  1  0
 91 86  1  0
119114  1  0
 16 11  1  0
 27 22  1  0
  1121  1  0
  1122  1  0
  4123  1  0
  4124  1  0
  5125  1  1
  6126  1  0
  9127  1  1
 10128  1  0
 10129  1  0
 12130  1  0
 13131  1  0
 14132  1  0
 15133  1  0
 16134  1  0
 17135  1  0
 20136  1  1
 21137  1  0
 21138  1  0
 23139  1  0
 24140  1  0
 25141  1  0
 26142  1  0
 27143  1  0
 28144  1  0
 31145  1  1
 32146  1  0
 32147  1  0
 33148  1  0
 33149  1  0
 34150  1  0
 34151  1  0
 35152  1  0
 37153  1  0
 38154  1  0
 38155  1  0
 39156  1  0
 42157  1  6
 43158  1  0
 43159  1  0
 46160  1  0
 46161  1  0
 47162  1  6
 48163  1  0
 51164  1  6
 52165  1  0
 55166  1  0
 55167  1  0
 57168  1  0
 58169  1  0
 59170  1  0
 60171  1  0
 61172  1  0
 64173  1  0
 65174  1  6
 68175  1  0
 69176  1  1
 72177  1  0
 73178  1  6
 76179  1  0
 76180  1  0
 77181  1  0
 77182  1  0
 78183  1  0
 78184  1  0
 79185  1  0
 79186  1  0
 80187  1  0
 82188  1  0
 83189  1  0
 83190  1  0
 84191  1  0
 84192  1  0
 84193  1  0
 85194  1  0
 85195  1  0
 87196  1  0
 88197  1  0
 90198  1  0
 91199  1  0
 92200  1  0
 93201  1  0
 96202  1  1
 97203  1  0
100204  1  6
101205  1  0
104206  1  6
105207  1  1
106208  1  0
107209  1  0
107210  1  0
107211  1  0
108212  1  0
111213  1  0
112214  1  0
112215  1  0
112216  1  0
113217  1  0
113218  1  0
115219  1  0
116220  1  0
118221  1  0
119222  1  0
120223  1  0
M  END
>  <Ligand ID>  (1) 
LIG0005332

>  <Ligand>  (1) 
CHEMBL3578001

>  <SMILES>  (1) 
NC(=O)C[C@@H]1NC(=O)[C@H](Cc2ccccc2)NC(=O)[C@H](Cc2ccccc2)NC(=O)[C@H](CCCNC(=N)N)NC(=O)[C@H](CSSC[C@H](NC(=O)[C@@H](NC1=O)Cc1ccccc1)C(=O)N[C@H](C(=O)N[C@H](C(=O)N[C@H](C(=O)N)CCCNC(=N)N)C)Cc1ccc(cc1)O)NC(=O)[C@@H](NC(=O)[C@@H](NC(=O)[C@H]([C@H](O)C)NC(=O)O)C)Cc1ccc(cc1)O

>  <CID>  (1) 
122178172.0

>  <ChEMBL ID>  (1) 
nan

>  <InChiKey>  (1) 
CADGUJRMKNUYDE-XQFOLYGRSA-N

>  <InChi>  (1) 
InChI=1S/C78H103N21O19S2/c1-41(64(105)89-51(63(80)104)21-13-31-85-76(81)82)87-67(108)53(36-47-23-27-49(101)28-24-47)95-74(115)60-40-120-119-39-59(97-70(111)54(37-48-25-29-50(102)30-26-48)91-65(106)42(2)88-75(116)62(43(3)100)99-78(117)118)73(114)90-52(22-14-32-86-77(83)84)66(107)92-55(33-44-15-7-4-8-16-44)68(109)93-56(34-45-17-9-5-10-18-45)69(110)96-58(38-61(79)103)72(113)94-57(71(112)98-60)35-46-19-11-6-12-20-46/h4-12,15-20,23-30,41-43,51-60,62,99-102H,13-14,21-22,31-40H2,1-3H3,(H2,79,103)(H2,80,104)(H,87,108)(H,88,116)(H,89,105)(H,90,114)(H,91,106)(H,92,107)(H,93,109)(H,94,113)(H,95,115)(H,96,110)(H,97,111)(H,98,112)(H,117,118)(H4,81,82,85)(H4,83,84,86)/t41-,42-,43+,51-,52-,53-,54-,55-,56-,57-,58-,59-,60-,62-/m0/s1

>  <IUPAC Name>  (1) 
[(2S,3R)-1-[[(2S)-1-[[(2S)-1-[[(4R,7S,10S,13S,16S,19S,22R)-4-[[(2S)-1-[[(2S)-1-[[(2S)-1-amino-5-carbamimidamido-1-oxopentan-2-yl]amino]-1-oxopropan-2-yl]amino]-3-(4-hydroxyphenyl)-1-oxopropan-2-yl]carbamoyl]-10-(2-amino-2-oxoethyl)-7,13,16-tribenzyl-19-(3-carbamimidamidopropyl)-6,9,12,15,18,21-hexaoxo-1,2-dithia-5,8,11,14,17,20-hexazacyclotricos-22-yl]amino]-3-(4-hydroxyphenyl)-1-oxopropan-2-yl]amino]-1-oxopropan-2-yl]amino]-3-hydroxy-1-oxobutan-2-yl]carbamic acid

$$$$
