
     RDKit          3D

 52 56  0  0  0  0  0  0  0  0999 V2000
    8.5139    1.6793   -1.0361 O   0  0  0  0  0  0  0  0  0  0  0  0
    8.1847    0.5497   -0.2874 C   0  0  0  0  0  0  0  0  0  0  0  0
    9.0599   -0.3511   -0.2234 O   0  0  0  0  0  0  0  0  0  0  0  0
    6.8914    0.4163    0.3886 C   0  0  0  0  0  0  0  0  0  0  0  0
    5.9187    1.3932    0.3302 C   0  0  0  0  0  0  0  0  0  0  0  0
    4.6934    1.2439    0.9827 C   0  0  0  0  0  0  0  0  0  0  0  0
    4.4425    0.0977    1.7034 C   0  0  0  0  0  0  0  0  0  0  0  0
    5.4461   -0.8756    1.7454 C   0  0  0  0  0  0  0  0  0  0  0  0
    6.6467   -0.7218    1.1021 C   0  0  0  0  0  0  0  0  0  0  0  0
    3.1748   -0.1531    2.4293 C   0  0  0  0  0  0  0  0  0  0  0  0
    2.1790   -0.8243    1.6127 N   0  0  0  0  0  0  0  0  0  0  0  0
    1.8366   -0.0413    0.4392 C   0  0  0  0  0  0  0  0  0  0  0  0
    0.8327   -0.6731   -0.4231 C   0  0  0  0  0  0  0  0  0  0  0  0
    1.2058   -1.7910   -1.7948 S   0  0  0  0  0  0  0  0  0  0  0  0
   -0.5542   -2.0286   -2.2179 C   0  0  0  0  0  0  0  0  0  0  0  0
   -1.2375   -1.2633   -1.3089 C   0  0  0  0  0  0  0  0  0  0  0  0
   -0.5088   -0.5824   -0.4055 C   0  0  0  0  0  0  0  0  0  0  0  0
   -2.6387   -1.3007   -1.4619 C   0  0  0  0  0  0  0  0  0  0  0  0
   -3.2099   -2.0587   -2.4580 C   0  0  0  0  0  0  0  0  0  0  0  0
   -2.4907   -2.8169   -3.3561 C   0  0  0  0  0  0  0  0  0  0  0  0
   -1.1195   -2.7917   -3.2196 C   0  0  0  0  0  0  0  0  0  0  0  0
   -3.5375   -0.5722   -0.5854 C   0  0  0  0  0  0  0  0  0  0  0  0
   -3.4770   -0.6131    0.7900 C   0  0  0  0  0  0  0  0  0  0  0  0
   -4.3467    0.1040    1.6023 C   0  0  0  0  0  0  0  0  0  0  0  0
   -5.3139    0.8918    0.9997 C   0  0  0  0  0  0  0  0  0  0  0  0
   -5.4018    0.9547   -0.3804 C   0  0  0  0  0  0  0  0  0  0  0  0
   -4.5145    0.2234   -1.1756 C   0  0  0  0  0  0  0  0  0  0  0  0
   -6.3772    1.7492   -0.9517 C   0  0  0  0  0  0  0  0  0  0  0  0
   -7.2190    2.4437   -0.1072 C   0  0  0  0  0  0  0  0  0  0  0  0
   -7.1343    2.3832    1.2518 C   0  0  0  0  0  0  0  0  0  0  0  0
   -6.1581    1.5881    1.8391 C   0  0  0  0  0  0  0  0  0  0  0  0
    9.1769    1.6344   -1.8127 H   0  0  0  0  0  0  0  0  0  0  0  0
    6.1227    2.2977   -0.2413 H   0  0  0  0  0  0  0  0  0  0  0  0
    3.9268    2.0095    0.9390 H   0  0  0  0  0  0  0  0  0  0  0  0
    5.2317   -1.7849    2.3244 H   0  0  0  0  0  0  0  0  0  0  0  0
    7.3614   -1.5292    1.1922 H   0  0  0  0  0  0  0  0  0  0  0  0
    3.3908   -0.8509    3.2669 H   0  0  0  0  0  0  0  0  0  0  0  0
    2.7920    0.7792    2.8792 H   0  0  0  0  0  0  0  0  0  0  0  0
    2.5839   -1.7269    1.3452 H   0  0  0  0  0  0  0  0  0  0  0  0
    2.7759    0.0678   -0.1526 H   0  0  0  0  0  0  0  0  0  0  0  0
    1.4937    0.9716    0.6959 H   0  0  0  0  0  0  0  0  0  0  0  0
   -0.9975    0.0730    0.3694 H   0  0  0  0  0  0  0  0  0  0  0  0
   -4.2857   -2.0785   -2.5651 H   0  0  0  0  0  0  0  0  0  0  0  0
   -2.9318   -3.4130   -4.1388 H   0  0  0  0  0  0  0  0  0  0  0  0
   -0.4778   -3.3548   -3.8779 H   0  0  0  0  0  0  0  0  0  0  0  0
   -2.7492   -1.2155    1.2836 H   0  0  0  0  0  0  0  0  0  0  0  0
   -4.2775    0.0545    2.6884 H   0  0  0  0  0  0  0  0  0  0  0  0
   -4.6035    0.2892   -2.2618 H   0  0  0  0  0  0  0  0  0  0  0  0
   -6.4682    1.8167   -2.0402 H   0  0  0  0  0  0  0  0  0  0  0  0
   -7.9950    3.0759   -0.5436 H   0  0  0  0  0  0  0  0  0  0  0  0
   -7.8020    2.9339    1.9019 H   0  0  0  0  0  0  0  0  0  0  0  0
   -6.0549    1.5107    2.9246 H   0  0  0  0  0  0  0  0  0  0  0  0
  1  2  1  0
  2  3  2  0
  2  4  1  0
  4  5  2  0
  5  6  1  0
  6  7  2  0
  7  8  1  0
  8  9  2  0
  7 10  1  0
 10 11  1  0
 11 12  1  0
 12 13  1  0
 13 14  1  0
 14 15  1  0
 15 16  2  0
 16 17  1  0
 16 18  1  0
 18 19  2  0
 19 20  1  0
 20 21  2  0
 18 22  1  0
 22 23  2  0
 23 24  1  0
 24 25  2  0
 25 26  1  0
 26 27  2  0
 26 28  1  0
 28 29  2  0
 29 30  1  0
 30 31  2  0
  9  4  1  0
 17 13  2  0
 27 22  1  0
 21 15  1  0
 31 25  1  0
  1 32  1  0
  5 33  1  0
  6 34  1  0
  8 35  1  0
  9 36  1  0
 10 37  1  0
 10 38  1  0
 11 39  1  0
 12 40  1  0
 12 41  1  0
 17 42  1  0
 19 43  1  0
 20 44  1  0
 21 45  1  0
 23 46  1  0
 24 47  1  0
 27 48  1  0
 28 49  1  0
 29 50  1  0
 30 51  1  0
 31 52  1  0
M  END
>  <Ligand ID>  (1) 
LIG0001274

>  <Ligand>  (1) 
CHEMBL3884011

>  <SMILES>  (1) 
OC(=O)c1ccc(cc1)CNCc1sc2c(c1)c(ccc2)c1ccc2c(c1)cccc2

>  <CID>  (1) 
134130548.0

>  <ChEMBL ID>  (1) 
nan

>  <InChiKey>  (1) 
YSQLRLSKRCCCEG-UHFFFAOYSA-N

>  <InChi>  (1) 
InChI=1S/C27H21NO2S/c29-27(30)20-10-8-18(9-11-20)16-28-17-23-15-25-24(6-3-7-26(25)31-23)22-13-12-19-4-1-2-5-21(19)14-22/h1-15,28H,16-17H2,(H,29,30)

>  <IUPAC Name>  (1) 
4-[[(4-naphthalen-2-yl-1-benzothiophen-2-yl)methylamino]methyl]benzoic acid

$$$$
