
     RDKit          3D

 77 84  0  0  0  0  0  0  0  0999 V2000
   -3.0691    5.8409    2.8058 C   0  0  0  0  0  0  0  0  0  0  0  0
   -2.3825    5.0129    1.9184 O   0  0  0  0  0  0  0  0  0  0  0  0
   -2.7767    3.7579    1.5347 C   0  0  0  0  0  0  0  0  0  0  0  0
   -3.9470    3.1458    2.0024 C   0  0  0  0  0  0  0  0  0  0  0  0
   -4.3272    1.8609    1.5951 C   0  0  0  0  0  0  0  0  0  0  0  0
   -3.5203    1.1702    0.6983 C   0  0  0  0  0  0  0  0  0  0  0  0
   -2.4047    1.8342    0.2904 C   0  0  0  0  0  0  0  0  0  0  0  0
   -1.9655    3.0596    0.6315 C   0  0  0  0  0  0  0  0  0  0  0  0
   -0.7784    3.2722   -0.0439 O   0  0  0  0  0  0  0  0  0  0  0  0
   -0.2950    2.0341   -0.5553 C   0  0  2  0  0  0  0  0  0  0  0  0
   -1.5150    1.1613   -0.6868 C   0  0  2  0  0  0  0  0  0  0  0  0
   -2.0573    1.0787   -2.0514 C   0  0  0  0  0  0  0  0  0  0  0  0
   -2.5662   -0.2102   -2.5495 C   0  0  0  0  0  0  0  0  0  0  0  0
   -2.7495   -1.2723   -1.6329 N   0  0  0  0  0  0  0  0  0  0  0  0
   -2.5442   -0.9488   -0.2580 C   0  0  2  0  0  0  0  0  0  0  0  0
   -3.7467   -0.1922    0.2166 C   0  0  0  0  0  0  0  0  0  0  0  0
   -1.2572   -0.2025   -0.0989 C   0  0  2  0  0  0  0  0  0  0  0  0
   -0.9522   -0.1423    1.3979 C   0  0  0  0  0  0  0  0  0  0  0  0
    0.1674    0.8248    1.5863 C   0  0  0  0  0  0  0  0  0  0  0  0
    0.7251    1.3407    0.2802 C   0  0  2  0  0  0  0  0  0  0  0  0
    1.8746    2.0472    0.5105 O   0  0  0  0  0  0  0  0  0  0  0  0
    1.7712    3.2422    1.1587 C   0  0  0  0  0  0  0  0  0  0  0  0
    1.1314    0.1015   -0.5364 C   0  0  2  0  0  0  0  0  0  0  0  0
   -0.0668   -0.7966   -0.7406 C   0  0  0  0  0  0  0  0  0  0  0  0
    2.3212   -0.5789    0.0443 C   0  0  0  0  0  0  0  0  0  0  0  0
    2.7166   -2.0129   -0.9835 S   0  0  0  0  0  0  0  0  0  0  0  0
    2.8351   -1.6521   -2.4311 O   0  0  0  0  0  0  0  0  0  0  0  0
    4.1421   -2.8873   -0.3469 C   0  0  0  0  0  0  0  0  0  0  0  0
    5.3616   -2.0747   -0.2877 C   0  0  0  0  0  0  0  0  0  0  0  0
    5.6525   -1.3465    0.8489 C   0  0  0  0  0  0  0  0  0  0  0  0
    6.8089   -0.5776    0.9022 C   0  0  0  0  0  0  0  0  0  0  0  0
    7.6547   -0.5505   -0.1832 C   0  0  0  0  0  0  0  0  0  0  0  0
    7.3769   -1.2773   -1.3346 C   0  0  0  0  0  0  0  0  0  0  0  0
    6.2210   -2.0347   -1.3643 C   0  0  0  0  0  0  0  0  0  0  0  0
   -2.5632   -2.5950   -2.0505 C   0  0  0  0  0  0  0  0  0  0  0  0
   -2.8299   -3.5446   -0.9024 C   0  0  0  0  0  0  0  0  0  0  0  0
   -2.6945   -5.0098   -1.0995 C   0  0  0  0  0  0  0  0  0  0  0  0
   -1.7763   -4.2220   -0.1524 C   0  0  0  0  0  0  0  0  0  0  0  0
   -3.5411    5.2028    3.5972 H   0  0  0  0  0  0  0  0  0  0  0  0
   -2.4050    6.6025    3.2753 H   0  0  0  0  0  0  0  0  0  0  0  0
   -3.8936    6.4128    2.3314 H   0  0  0  0  0  0  0  0  0  0  0  0
   -4.5867    3.6933    2.7122 H   0  0  0  0  0  0  0  0  0  0  0  0
   -5.2194    1.3793    1.9451 H   0  0  0  0  0  0  0  0  0  0  0  0
    0.1206    2.1876   -1.5666 H   0  0  0  0  0  0  0  0  0  0  0  0
   -2.8906    1.8508   -2.1080 H   0  0  0  0  0  0  0  0  0  0  0  0
   -1.3323    1.4847   -2.8182 H   0  0  0  0  0  0  0  0  0  0  0  0
   -1.9450   -0.5817   -3.4039 H   0  0  0  0  0  0  0  0  0  0  0  0
   -3.5772   -0.0487   -3.0382 H   0  0  0  0  0  0  0  0  0  0  0  0
   -2.4507   -1.8762    0.3319 H   0  0  0  0  0  0  0  0  0  0  0  0
   -4.3086   -0.8143    0.9786 H   0  0  0  0  0  0  0  0  0  0  0  0
   -4.4840   -0.1092   -0.6227 H   0  0  0  0  0  0  0  0  0  0  0  0
   -0.6368   -1.2036    1.6396 H   0  0  0  0  0  0  0  0  0  0  0  0
   -1.8221    0.0376    2.0226 H   0  0  0  0  0  0  0  0  0  0  0  0
    0.9910    0.3179    2.1248 H   0  0  0  0  0  0  0  0  0  0  0  0
   -0.1685    1.6490    2.2502 H   0  0  0  0  0  0  0  0  0  0  0  0
    2.8287    3.6335    1.2584 H   0  0  0  0  0  0  0  0  0  0  0  0
    1.2633    4.0579    0.5921 H   0  0  0  0  0  0  0  0  0  0  0  0
    1.3654    3.2154    2.1754 H   0  0  0  0  0  0  0  0  0  0  0  0
    1.4367    0.5438   -1.5217 H   0  0  0  0  0  0  0  0  0  0  0  0
    0.1725   -1.8120   -0.3446 H   0  0  0  0  0  0  0  0  0  0  0  0
   -0.2001   -0.9502   -1.8343 H   0  0  0  0  0  0  0  0  0  0  0  0
    2.2732   -0.8494    1.0956 H   0  0  0  0  0  0  0  0  0  0  0  0
    3.1948    0.1060   -0.0689 H   0  0  0  0  0  0  0  0  0  0  0  0
    4.3013   -3.7877   -0.9475 H   0  0  0  0  0  0  0  0  0  0  0  0
    3.8823   -3.1880    0.7026 H   0  0  0  0  0  0  0  0  0  0  0  0
    4.9779   -1.3789    1.6919 H   0  0  0  0  0  0  0  0  0  0  0  0
    7.0226   -0.0199    1.7850 H   0  0  0  0  0  0  0  0  0  0  0  0
    8.5539    0.0448   -0.1472 H   0  0  0  0  0  0  0  0  0  0  0  0
    8.0323   -1.2538   -2.1702 H   0  0  0  0  0  0  0  0  0  0  0  0
    5.9740   -2.6048   -2.2282 H   0  0  0  0  0  0  0  0  0  0  0  0
   -1.5662   -2.8063   -2.4678 H   0  0  0  0  0  0  0  0  0  0  0  0
   -3.2911   -2.7971   -2.8869 H   0  0  0  0  0  0  0  0  0  0  0  0
   -3.7672   -3.2665   -0.3398 H   0  0  0  0  0  0  0  0  0  0  0  0
   -2.2727   -5.3975   -2.0442 H   0  0  0  0  0  0  0  0  0  0  0  0
   -3.3558   -5.7098   -0.5793 H   0  0  0  0  0  0  0  0  0  0  0  0
   -1.9221   -4.3639    0.9418 H   0  0  0  0  0  0  0  0  0  0  0  0
   -0.7282   -4.2567   -0.4461 H   0  0  0  0  0  0  0  0  0  0  0  0
  1  2  1  0
  2  3  1  0
  3  4  2  0
  4  5  1  0
  5  6  2  0
  6  7  1  0
  7  8  2  0
  8  9  1  0
  9 10  1  0
 10 11  1  0
 11 12  1  6
 12 13  1  0
 13 14  1  0
 14 15  1  0
 15 16  1  0
 15 17  1  0
 17 18  1  1
 18 19  1  0
 19 20  1  0
 20 21  1  1
 21 22  1  0
 20 23  1  0
 23 24  1  0
 23 25  1  0
 25 26  1  0
 26 27  2  0
 26 28  1  0
 28 29  1  0
 29 30  2  0
 30 31  1  0
 31 32  2  0
 32 33  1  0
 33 34  2  0
 14 35  1  0
 35 36  1  0
 36 37  1  0
 37 38  1  0
  8  3  1  0
 20 10  1  0
 34 29  1  0
 38 36  1  0
 16  6  1  0
 24 17  1  0
 11  7  1  0
 17 11  1  0
  1 39  1  0
  1 40  1  0
  1 41  1  0
  4 42  1  0
  5 43  1  0
 10 44  1  6
 12 45  1  0
 12 46  1  0
 13 47  1  0
 13 48  1  0
 15 49  1  1
 16 50  1  0
 16 51  1  0
 18 52  1  0
 18 53  1  0
 19 54  1  0
 19 55  1  0
 22 56  1  0
 22 57  1  0
 22 58  1  0
 23 59  1  6
 24 60  1  0
 24 61  1  0
 25 62  1  0
 25 63  1  0
 28 64  1  0
 28 65  1  0
 30 66  1  0
 31 67  1  0
 32 68  1  0
 33 69  1  0
 34 70  1  0
 35 71  1  0
 35 72  1  0
 36 73  1  0
 37 74  1  0
 37 75  1  0
 38 76  1  0
 38 77  1  0
M  END
>  <Ligand ID>  (1) 
LIG0004773

>  <Ligand>  (1) 
SCHEMBL15485868

>  <SMILES>  (1) 
COc1ccc2c3c1O[C@@H]1[C@@]43CCN([C@H](C2)[C@@]24CC[C@@]1(OC)[C@H](C2)CS(=O)Cc1ccccc1)CC1CC1

>  <CID>  (1) 
86711655.0

>  <ChEMBL ID>  (1) 
nan

>  <InChiKey>  (1) 
GJUXFJLLYFLPTH-CGRKGAIHSA-N

>  <InChi>  (1) 
InChI=1S/C32H39NO4S/c1-35-25-11-10-23-16-26-30-12-13-32(36-2,24(17-30)20-38(34)19-22-6-4-3-5-7-22)29-31(30,27(23)28(25)37-29)14-15-33(26)18-21-8-9-21/h3-7,10-11,21,24,26,29H,8-9,12-20H2,1-2H3/t24-,26-,29-,30-,31+,32-,38?/m1/s1

>  <IUPAC Name>  (1) 
(1S,2S,6R,14R,15R,16S)-16-(benzylsulfinylmethyl)-5-(cyclopropylmethyl)-11,15-dimethoxy-13-oxa-5-azahexacyclo[13.2.2.12,8.01,6.02,14.012,20]icosa-8(20),9,11-triene

$$$$
