
     RDKit          3D

 59 58  0  0  0  0  0  0  0  0999 V2000
   -7.9850    0.2968   -0.8692 C   0  0  0  0  0  0  0  0  0  0  0  0
   -6.9097    1.2368   -1.3392 C   0  0  0  0  0  0  0  0  0  0  0  0
   -6.1667    1.7439   -0.1282 C   0  0  0  0  0  0  0  0  0  0  0  0
   -5.5743    0.5803    0.6108 C   0  0  0  0  0  0  0  0  0  0  0  0
   -4.6297   -0.1867   -0.2617 C   0  0  0  0  0  0  0  0  0  0  0  0
   -3.5078    0.6939   -0.7372 C   0  0  0  0  0  0  0  0  0  0  0  0
   -2.7709    1.2464    0.4383 C   0  0  0  0  0  0  0  0  0  0  0  0
   -2.1912    0.1743    1.3131 C   0  0  0  0  0  0  0  0  0  0  0  0
   -1.2221   -0.6551    0.4817 C   0  0  0  0  0  0  0  0  0  0  0  0
   -0.5794   -1.7296    1.2800 C   0  0  0  0  0  0  0  0  0  0  0  0
    0.3585   -2.5503    0.4884 C   0  0  0  0  0  0  0  0  0  0  0  0
    1.5944   -1.9649   -0.0114 C   0  0  0  0  0  0  0  0  0  0  0  0
    1.6587   -0.7967   -0.8921 C   0  0  0  0  0  0  0  0  0  0  0  0
    3.1270   -0.5131   -1.3450 C   0  0  0  0  0  0  0  0  0  0  0  0
    4.0250   -0.2356   -0.1916 C   0  0  0  0  0  0  0  0  0  0  0  0
    5.4123    0.0300   -0.7731 C   0  0  0  0  0  0  0  0  0  0  0  0
    6.4149    0.3247    0.2963 C   0  0  0  0  0  0  0  0  0  0  0  0
    7.7330    0.5699   -0.3614 C   0  0  0  0  0  0  0  0  0  0  0  0
    7.8424    0.5063   -1.6312 O   0  0  0  0  0  0  0  0  0  0  0  0
    8.8078    0.8620    0.4391 O   0  0  0  0  0  0  0  0  0  0  0  0
   10.1118    1.1156   -0.0510 C   0  0  0  0  0  0  0  0  0  0  0  0
   -7.6491   -0.7602   -0.8834 H   0  0  0  0  0  0  0  0  0  0  0  0
   -8.9087    0.3692   -1.4682 H   0  0  0  0  0  0  0  0  0  0  0  0
   -8.2802    0.5053    0.1837 H   0  0  0  0  0  0  0  0  0  0  0  0
   -6.2478    0.7349   -2.0339 H   0  0  0  0  0  0  0  0  0  0  0  0
   -7.3711    2.1264   -1.8390 H   0  0  0  0  0  0  0  0  0  0  0  0
   -5.3412    2.4517   -0.3828 H   0  0  0  0  0  0  0  0  0  0  0  0
   -6.8698    2.3042    0.5512 H   0  0  0  0  0  0  0  0  0  0  0  0
   -6.4400   -0.0576    0.9460 H   0  0  0  0  0  0  0  0  0  0  0  0
   -5.0577    0.9263    1.5572 H   0  0  0  0  0  0  0  0  0  0  0  0
   -4.2351   -1.0284    0.3791 H   0  0  0  0  0  0  0  0  0  0  0  0
   -5.1368   -0.6361   -1.1494 H   0  0  0  0  0  0  0  0  0  0  0  0
   -3.8885    1.5543   -1.3544 H   0  0  0  0  0  0  0  0  0  0  0  0
   -2.7892    0.1279   -1.3751 H   0  0  0  0  0  0  0  0  0  0  0  0
   -1.9606    1.9107    0.0156 H   0  0  0  0  0  0  0  0  0  0  0  0
   -3.3952    1.9697    1.0287 H   0  0  0  0  0  0  0  0  0  0  0  0
   -1.5249    0.6766    2.0790 H   0  0  0  0  0  0  0  0  0  0  0  0
   -2.9364   -0.4540    1.8001 H   0  0  0  0  0  0  0  0  0  0  0  0
   -1.9244   -1.2199   -0.2281 H   0  0  0  0  0  0  0  0  0  0  0  0
   -0.5942    0.0284   -0.0267 H   0  0  0  0  0  0  0  0  0  0  0  0
   -0.0495   -1.2847    2.1972 H   0  0  0  0  0  0  0  0  0  0  0  0
   -1.3917   -2.3642    1.7571 H   0  0  0  0  0  0  0  0  0  0  0  0
    0.5995   -3.4490    1.1747 H   0  0  0  0  0  0  0  0  0  0  0  0
   -0.2673   -3.0217   -0.3427 H   0  0  0  0  0  0  0  0  0  0  0  0
    2.1308   -2.8127   -0.5844 H   0  0  0  0  0  0  0  0  0  0  0  0
    2.2896   -1.8400    0.8935 H   0  0  0  0  0  0  0  0  0  0  0  0
    0.9726   -0.8163   -1.7385 H   0  0  0  0  0  0  0  0  0  0  0  0
    1.4718    0.1903   -0.3427 H   0  0  0  0  0  0  0  0  0  0  0  0
    3.1180    0.3482   -2.0416 H   0  0  0  0  0  0  0  0  0  0  0  0
    3.4063   -1.4182   -1.9204 H   0  0  0  0  0  0  0  0  0  0  0  0
    4.0793   -1.0006    0.5853 H   0  0  0  0  0  0  0  0  0  0  0  0
    3.7079    0.6983    0.3213 H   0  0  0  0  0  0  0  0  0  0  0  0
    5.7740   -0.8025   -1.3901 H   0  0  0  0  0  0  0  0  0  0  0  0
    5.3150    0.9078   -1.4456 H   0  0  0  0  0  0  0  0  0  0  0  0
    6.0600    1.2459    0.8281 H   0  0  0  0  0  0  0  0  0  0  0  0
    6.4567   -0.4669    1.0573 H   0  0  0  0  0  0  0  0  0  0  0  0
   10.8843    0.7193    0.6415 H   0  0  0  0  0  0  0  0  0  0  0  0
   10.2350    2.2124   -0.1669 H   0  0  0  0  0  0  0  0  0  0  0  0
   10.2094    0.6762   -1.0676 H   0  0  0  0  0  0  0  0  0  0  0  0
  1  2  1  0
  2  3  1  0
  3  4  1  0
  4  5  1  0
  5  6  1  0
  6  7  1  0
  7  8  1  0
  8  9  1  0
  9 10  1  0
 10 11  1  0
 11 12  1  0
 12 13  1  0
 13 14  1  0
 14 15  1  0
 15 16  1  0
 16 17  1  0
 17 18  1  0
 18 19  2  0
 18 20  1  0
 20 21  1  0
  1 22  1  0
  1 23  1  0
  1 24  1  0
  2 25  1  0
  2 26  1  0
  3 27  1  0
  3 28  1  0
  4 29  1  0
  4 30  1  0
  5 31  1  0
  5 32  1  0
  6 33  1  0
  6 34  1  0
  7 35  1  0
  7 36  1  0
  8 37  1  0
  8 38  1  0
  9 39  1  0
  9 40  1  0
 10 41  1  0
 10 42  1  0
 11 43  1  0
 11 44  1  0
 12 45  1  0
 12 46  1  0
 13 47  1  0
 13 48  1  0
 14 49  1  0
 14 50  1  0
 15 51  1  0
 15 52  1  0
 16 53  1  0
 16 54  1  0
 17 55  1  0
 17 56  1  0
 21 57  1  0
 21 58  1  0
 21 59  1  0
M  END
>  <Ligand ID>  (1) 
LIG0000552

>  <Ligand>  (1) 
Methyl Stearate

>  <SMILES>  (1) 
CCCCCCCCCCCCCCCCCC(=O)OC

>  <CID>  (1) 
8201.0

>  <ChEMBL ID>  (1) 
nan

>  <InChiKey>  (1) 
HPEUJPJOZXNMSJ-UHFFFAOYSA-N

>  <InChi>  (1) 
InChI=1S/C19H38O2/c1-3-4-5-6-7-8-9-10-11-12-13-14-15-16-17-18-19(20)21-2/h3-18H2,1-2H3

>  <IUPAC Name>  (1) 
methyl octadecanoate

$$$$
