
     RDKit          3D

110112  0  0  0  0  0  0  0  0999 V2000
  -10.6981    3.7910   -1.2172 C   0  0  0  0  0  0  0  0  0  0  0  0
   -9.5601    3.4705    0.1771 S   0  0  0  0  0  0  0  0  0  0  0  0
   -7.8943    3.9476   -0.3515 C   0  0  0  0  0  0  0  0  0  0  0  0
   -6.8677    3.7360    0.7048 C   0  0  0  0  0  0  0  0  0  0  0  0
   -6.6954    2.3430    1.1879 C   0  0  1  0  0  0  0  0  0  0  0  0
   -8.0047    1.8759    1.7616 C   0  0  0  0  0  0  0  0  0  0  0  0
   -8.5944    2.5061    2.6814 O   0  0  0  0  0  0  0  0  0  0  0  0
   -8.6446    0.6816    1.2833 N   0  0  0  0  0  0  0  0  0  0  0  0
   -6.3505    1.3748    0.1563 N   0  0  0  0  0  0  0  0  0  0  0  0
   -5.1835    0.5900    0.3519 C   0  0  0  0  0  0  0  0  0  0  0  0
   -4.4952    0.7846    1.4099 O   0  0  0  0  0  0  0  0  0  0  0  0
   -4.7205   -0.4300   -0.5756 C   0  0  1  0  0  0  0  0  0  0  0  0
   -3.4997   -1.0961   -0.1504 N   0  0  0  0  0  0  0  0  0  0  0  0
   -2.5359   -1.6239   -1.0362 C   0  0  0  0  0  0  0  0  0  0  0  0
   -2.8319   -1.4843   -2.2854 O   0  0  0  0  0  0  0  0  0  0  0  0
   -1.2910   -2.2891   -0.7246 C   0  0  2  0  0  0  0  0  0  0  0  0
   -1.5391   -3.6657   -0.1056 C   0  0  0  0  0  0  0  0  0  0  0  0
   -1.5941   -3.3682    1.3616 C   0  0  0  0  0  0  0  0  0  0  0  0
   -0.8636   -2.0854    1.5302 C   0  0  0  0  0  0  0  0  0  0  0  0
   -0.3960   -1.6792    0.2283 N   0  0  0  0  0  0  0  0  0  0  0  0
    0.7225   -0.8893   -0.1561 C   0  0  0  0  0  0  0  0  0  0  0  0
    0.9767   -0.6605   -1.3930 O   0  0  0  0  0  0  0  0  0  0  0  0
    1.6772   -0.2784    0.8004 C   0  0  2  0  0  0  0  0  0  0  0  0
    1.0069    0.9323    1.4260 C   0  0  0  0  0  0  0  0  0  0  0  0
    0.6643    1.9592    0.4375 C   0  0  0  0  0  0  0  0  0  0  0  0
    1.6441    2.9390    0.2098 C   0  0  0  0  0  0  0  0  0  0  0  0
    1.4598    3.9644   -0.6869 C   0  0  0  0  0  0  0  0  0  0  0  0
    0.2763    4.0517   -1.3984 C   0  0  0  0  0  0  0  0  0  0  0  0
   -0.6887    3.0730   -1.1627 C   0  0  0  0  0  0  0  0  0  0  0  0
   -0.5113    2.0441   -0.2680 C   0  0  0  0  0  0  0  0  0  0  0  0
    2.7913    0.1738   -0.0489 N   0  0  0  0  0  0  0  0  0  0  0  0
    4.1248   -0.1295    0.3076 C   0  0  0  0  0  0  0  0  0  0  0  0
    4.3384   -0.7747    1.3760 O   0  0  0  0  0  0  0  0  0  0  0  0
    5.3049    0.2545   -0.4900 C   0  0  2  0  0  0  0  0  0  0  0  0
    5.2934   -0.5372   -1.8231 C   0  0  0  0  0  0  0  0  0  0  0  0
    5.3425   -1.9883   -1.6069 C   0  0  0  0  0  0  0  0  0  0  0  0
    6.5527   -2.6527   -1.5671 C   0  0  0  0  0  0  0  0  0  0  0  0
    6.6521   -4.0107   -1.3631 C   0  0  0  0  0  0  0  0  0  0  0  0
    5.4878   -4.7549   -1.1888 C   0  0  0  0  0  0  0  0  0  0  0  0
    4.2445   -4.1164   -1.2227 C   0  0  0  0  0  0  0  0  0  0  0  0
    4.1713   -2.7417   -1.4306 C   0  0  0  0  0  0  0  0  0  0  0  0
    6.5318   -0.1221    0.1584 N   0  0  0  0  0  0  0  0  0  0  0  0
    7.8183    0.4126   -0.2044 C   0  0  0  0  0  0  0  0  0  0  0  0
    7.8677    1.2338   -1.1429 O   0  0  0  0  0  0  0  0  0  0  0  0
    8.9656   -0.0767    0.5820 C   0  0  0  0  0  0  0  0  0  0  0  0
   10.3096    0.1364   -0.0048 C   0  0  0  0  0  0  0  0  0  0  0  0
   10.6913    1.5305   -0.2910 C   0  0  0  0  0  0  0  0  0  0  0  0
   10.7125    2.4854    0.8721 C   0  0  0  0  0  0  0  0  0  0  0  0
    9.4425    2.6699    1.5190 N   0  0  0  0  0  0  0  0  0  0  0  0
   -5.8019   -1.4295   -0.9367 C   0  0  0  0  0  0  0  0  0  0  0  0
   -6.3911   -2.1877    0.1911 C   0  0  0  0  0  0  0  0  0  0  0  0
   -5.4571   -3.0291    0.9950 C   0  0  0  0  0  0  0  0  0  0  0  0
   -7.4123   -3.1504   -0.4431 C   0  0  0  0  0  0  0  0  0  0  0  0
  -10.2008    3.5746   -2.1798 H   0  0  0  0  0  0  0  0  0  0  0  0
  -11.0249    4.8528   -1.2472 H   0  0  0  0  0  0  0  0  0  0  0  0
  -11.5893    3.1156   -1.1750 H   0  0  0  0  0  0  0  0  0  0  0  0
   -7.6683    3.4854   -1.3289 H   0  0  0  0  0  0  0  0  0  0  0  0
   -7.9101    5.0574   -0.5504 H   0  0  0  0  0  0  0  0  0  0  0  0
   -5.8640    4.1130    0.3581 H   0  0  0  0  0  0  0  0  0  0  0  0
   -7.1517    4.3907    1.5754 H   0  0  0  0  0  0  0  0  0  0  0  0
   -5.9442    2.3318    2.0038 H   0  0  0  0  0  0  0  0  0  0  0  0
   -8.9445    0.5768    0.2772 H   0  0  0  0  0  0  0  0  0  0  0  0
   -8.8387   -0.1405    1.8854 H   0  0  0  0  0  0  0  0  0  0  0  0
   -6.9236    1.2550   -0.6940 H   0  0  0  0  0  0  0  0  0  0  0  0
   -4.4637    0.0317   -1.5736 H   0  0  0  0  0  0  0  0  0  0  0  0
   -3.3449   -1.1761    0.8532 H   0  0  0  0  0  0  0  0  0  0  0  0
   -0.7331   -2.5036   -1.6759 H   0  0  0  0  0  0  0  0  0  0  0  0
   -0.6978   -4.3452   -0.3659 H   0  0  0  0  0  0  0  0  0  0  0  0
   -2.5028   -4.0223   -0.4702 H   0  0  0  0  0  0  0  0  0  0  0  0
   -2.6476   -3.2457    1.6968 H   0  0  0  0  0  0  0  0  0  0  0  0
   -1.0825   -4.1634    1.9670 H   0  0  0  0  0  0  0  0  0  0  0  0
    0.0979   -2.3223    2.1011 H   0  0  0  0  0  0  0  0  0  0  0  0
   -1.4041   -1.2844    2.0751 H   0  0  0  0  0  0  0  0  0  0  0  0
    2.0389   -0.9192    1.5823 H   0  0  0  0  0  0  0  0  0  0  0  0
    1.6148    1.3479    2.2802 H   0  0  0  0  0  0  0  0  0  0  0  0
    0.0612    0.5773    1.8772 H   0  0  0  0  0  0  0  0  0  0  0  0
    2.5972    2.9096    0.7499 H   0  0  0  0  0  0  0  0  0  0  0  0
    2.2737    4.6866   -0.8007 H   0  0  0  0  0  0  0  0  0  0  0  0
    0.1308    4.8576   -2.1036 H   0  0  0  0  0  0  0  0  0  0  0  0
   -1.6298    3.1291   -1.7178 H   0  0  0  0  0  0  0  0  0  0  0  0
   -1.2524    1.2743   -0.0747 H   0  0  0  0  0  0  0  0  0  0  0  0
    2.6255    0.7259   -0.9276 H   0  0  0  0  0  0  0  0  0  0  0  0
    5.3425    1.2996   -0.8237 H   0  0  0  0  0  0  0  0  0  0  0  0
    6.1910   -0.2298   -2.3958 H   0  0  0  0  0  0  0  0  0  0  0  0
    4.4232   -0.2700   -2.4401 H   0  0  0  0  0  0  0  0  0  0  0  0
    7.4723   -2.0674   -1.7070 H   0  0  0  0  0  0  0  0  0  0  0  0
    7.6400   -4.4666   -1.3462 H   0  0  0  0  0  0  0  0  0  0  0  0
    5.5306   -5.8268   -1.0288 H   0  0  0  0  0  0  0  0  0  0  0  0
    3.3199   -4.6395   -1.0923 H   0  0  0  0  0  0  0  0  0  0  0  0
    3.2028   -2.2773   -1.4535 H   0  0  0  0  0  0  0  0  0  0  0  0
    6.4452   -0.8345    0.9440 H   0  0  0  0  0  0  0  0  0  0  0  0
    8.9496    0.4087    1.6041 H   0  0  0  0  0  0  0  0  0  0  0  0
    8.7667   -1.1698    0.8047 H   0  0  0  0  0  0  0  0  0  0  0  0
   10.4837   -0.5499   -0.8911 H   0  0  0  0  0  0  0  0  0  0  0  0
   11.0515   -0.2523    0.7646 H   0  0  0  0  0  0  0  0  0  0  0  0
   11.7427    1.5260   -0.7178 H   0  0  0  0  0  0  0  0  0  0  0  0
   10.0214    2.0265   -1.0579 H   0  0  0  0  0  0  0  0  0  0  0  0
   11.5046    2.1654    1.5908 H   0  0  0  0  0  0  0  0  0  0  0  0
   11.0345    3.4939    0.4797 H   0  0  0  0  0  0  0  0  0  0  0  0
    8.8588    3.4011    1.0504 H   0  0  0  0  0  0  0  0  0  0  0  0
    9.6012    2.9266    2.5195 H   0  0  0  0  0  0  0  0  0  0  0  0
   -6.6423   -0.8383   -1.3997 H   0  0  0  0  0  0  0  0  0  0  0  0
   -5.4767   -2.1167   -1.7169 H   0  0  0  0  0  0  0  0  0  0  0  0
   -7.0318   -1.5528    0.8632 H   0  0  0  0  0  0  0  0  0  0  0  0
   -5.0545   -2.5437    1.8792 H   0  0  0  0  0  0  0  0  0  0  0  0
   -6.0394   -3.9134    1.3792 H   0  0  0  0  0  0  0  0  0  0  0  0
   -4.6395   -3.4433    0.3917 H   0  0  0  0  0  0  0  0  0  0  0  0
   -6.9184   -3.5604   -1.3484 H   0  0  0  0  0  0  0  0  0  0  0  0
   -8.3101   -2.5896   -0.7747 H   0  0  0  0  0  0  0  0  0  0  0  0
   -7.6394   -3.9863    0.2233 H   0  0  0  0  0  0  0  0  0  0  0  0
  1  2  1  0
  2  3  1  0
  3  4  1  0
  4  5  1  0
  5  6  1  0
  6  7  2  0
  6  8  1  0
  5  9  1  0
  9 10  1  0
 10 11  2  0
 10 12  1  0
 12 13  1  0
 13 14  1  0
 14 15  2  0
 14 16  1  0
 16 17  1  0
 17 18  1  0
 18 19  1  0
 19 20  1  0
 20 21  1  0
 21 22  2  0
 21 23  1  0
 23 24  1  0
 24 25  1  0
 25 26  2  0
 26 27  1  0
 27 28  2  0
 28 29  1  0
 29 30  2  0
 23 31  1  0
 31 32  1  0
 32 33  2  0
 32 34  1  0
 34 35  1  0
 35 36  1  0
 36 37  2  0
 37 38  1  0
 38 39  2  0
 39 40  1  0
 40 41  2  0
 34 42  1  0
 42 43  1  0
 43 44  2  0
 43 45  1  0
 45 46  1  0
 46 47  1  0
 47 48  1  0
 48 49  1  0
 12 50  1  0
 50 51  1  0
 51 52  1  0
 51 53  1  0
 20 16  1  0
 30 25  1  0
 41 36  1  0
  1 54  1  0
  1 55  1  0
  1 56  1  0
  3 57  1  0
  3 58  1  0
  4 59  1  0
  4 60  1  0
  5 61  1  1
  8 62  1  0
  8 63  1  0
  9 64  1  0
 12 65  1  6
 13 66  1  0
 16 67  1  6
 17 68  1  0
 17 69  1  0
 18 70  1  0
 18 71  1  0
 19 72  1  0
 19 73  1  0
 23 74  1  1
 24 75  1  0
 24 76  1  0
 26 77  1  0
 27 78  1  0
 28 79  1  0
 29 80  1  0
 30 81  1  0
 31 82  1  0
 34 83  1  6
 35 84  1  0
 35 85  1  0
 37 86  1  0
 38 87  1  0
 39 88  1  0
 40 89  1  0
 41 90  1  0
 42 91  1  0
 45 92  1  0
 45 93  1  0
 46 94  1  0
 46 95  1  0
 47 96  1  0
 47 97  1  0
 48 98  1  0
 48 99  1  0
 49100  1  0
 49101  1  0
 50102  1  0
 50103  1  0
 51104  1  0
 52105  1  0
 52106  1  0
 52107  1  0
 53108  1  0
 53109  1  0
 53110  1  0
M  END
>  <Ligand ID>  (1) 
LIG0003428

>  <Ligand>  (1) 
CHEMBL407511

>  <SMILES>  (1) 
CSCC[C@@H](C(=O)N)NC(=O)[C@@H](NC(=O)[C@@H]1CCCN1C(=O)[C@H](Cc1ccccc1)NC(=O)[C@H](Cc1ccccc1)NC(=O)CCCCN)CC(C)C

>  <CID>  (1) 
10259515.0

>  <ChEMBL ID>  (1) 
nan

>  <InChiKey>  (1) 
BWXRCFNZBHEVIO-ZTTXAYQISA-N

>  <InChi>  (1) 
InChI=1S/C39H57N7O6S/c1-26(2)23-30(36(49)43-29(35(41)48)19-22-53-3)44-38(51)33-17-12-21-46(33)39(52)32(25-28-15-8-5-9-16-28)45-37(50)31(24-27-13-6-4-7-14-27)42-34(47)18-10-11-20-40/h4-9,13-16,26,29-33H,10-12,17-25,40H2,1-3H3,(H2,41,48)(H,42,47)(H,43,49)(H,44,51)(H,45,50)/t29-,30-,31-,32-,33-/m0/s1

>  <IUPAC Name>  (1) 
(2S)-N-[(2S)-1-[[(2S)-1-amino-4-methylsulfanyl-1-oxobutan-2-yl]amino]-4-methyl-1-oxopentan-2-yl]-1-[(2S)-2-[[(2S)-2-(5-aminopentanoylamino)-3-phenylpropanoyl]amino]-3-phenylpropanoyl]pyrrolidine-2-carboxamide

$$$$
