
     RDKit          3D

 55 59  0  0  0  0  0  0  0  0999 V2000
   -0.1457    3.4535   -1.0487 C   0  0  0  0  0  0  0  0  0  0  0  0
    0.4139    2.3899   -0.5003 O   0  0  0  0  0  0  0  0  0  0  0  0
   -0.1276    1.5294    0.3710 C   0  0  1  0  0  0  0  0  0  0  0  0
   -0.6296    2.1294    1.6575 C   0  0  0  0  0  0  0  0  0  0  0  0
   -1.9309    2.8708    1.4871 C   0  0  0  0  0  0  0  0  0  0  0  0
   -2.6533    2.4309    0.2604 C   0  0  0  0  0  0  0  0  0  0  0  0
   -3.4131    3.2390   -0.2507 O   0  0  0  0  0  0  0  0  0  0  0  0
   -2.4747    1.0686   -0.3386 C   0  0  0  0  0  0  0  0  0  0  0  0
   -1.0858    0.5133   -0.1984 C   0  0  1  0  0  0  0  0  0  0  0  0
   -0.5465    0.2513   -1.5963 C   0  0  0  0  0  0  0  0  0  0  0  0
    0.9553    0.1488   -1.5913 C   0  0  0  0  0  0  0  0  0  0  0  0
    1.5388   -0.1333   -0.3168 N   0  0  0  0  0  0  0  0  0  0  0  0
    1.1158    0.6913    0.7797 C   0  0  2  0  0  0  0  0  0  0  0  0
    0.8228   -0.1855    1.9528 C   0  0  0  0  0  0  0  0  0  0  0  0
   -0.2954   -1.1032    1.5893 C   0  0  0  0  0  0  0  0  0  0  0  0
   -1.1434   -0.7636    0.5703 C   0  0  0  0  0  0  0  0  0  0  0  0
   -2.1288   -1.6894    0.2568 C   0  0  0  0  0  0  0  0  0  0  0  0
   -3.0634   -1.5116   -0.7462 O   0  0  0  0  0  0  0  0  0  0  0  0
   -4.0511   -2.4481   -1.0554 C   0  0  0  0  0  0  0  0  0  0  0  0
   -2.2142   -2.8833    0.9686 C   0  0  0  0  0  0  0  0  0  0  0  0
   -1.3507   -3.2028    1.9924 C   0  0  0  0  0  0  0  0  0  0  0  0
   -0.3727   -2.2843    2.3006 C   0  0  0  0  0  0  0  0  0  0  0  0
    2.9771   -0.0349   -0.4460 C   0  0  0  0  0  0  0  0  0  0  0  0
    3.5890   -1.1259   -1.2896 C   0  0  0  0  0  0  0  0  0  0  0  0
    5.1058   -1.0112   -1.4197 C   0  0  0  0  0  0  0  0  0  0  0  0
    4.4972   -2.1200   -0.6499 C   0  0  0  0  0  0  0  0  0  0  0  0
    0.6755    3.9205   -1.7091 H   0  0  0  0  0  0  0  0  0  0  0  0
   -0.3003    4.2956   -0.3064 H   0  0  0  0  0  0  0  0  0  0  0  0
   -0.9679    3.3798   -1.7594 H   0  0  0  0  0  0  0  0  0  0  0  0
    0.1475    2.7539    2.0768 H   0  0  0  0  0  0  0  0  0  0  0  0
   -0.8500    1.3051    2.3627 H   0  0  0  0  0  0  0  0  0  0  0  0
   -1.8147    3.9755    1.5183 H   0  0  0  0  0  0  0  0  0  0  0  0
   -2.6041    2.6493    2.3399 H   0  0  0  0  0  0  0  0  0  0  0  0
   -3.1853    0.4496    0.2809 H   0  0  0  0  0  0  0  0  0  0  0  0
   -2.8321    1.0498   -1.3630 H   0  0  0  0  0  0  0  0  0  0  0  0
   -1.0247   -0.6252   -2.0688 H   0  0  0  0  0  0  0  0  0  0  0  0
   -0.8316    1.1095   -2.2150 H   0  0  0  0  0  0  0  0  0  0  0  0
    1.2096   -0.7277   -2.2448 H   0  0  0  0  0  0  0  0  0  0  0  0
    1.4758    1.0129   -2.0475 H   0  0  0  0  0  0  0  0  0  0  0  0
    1.8738    1.4413    1.0835 H   0  0  0  0  0  0  0  0  0  0  0  0
    1.7194   -0.8795    2.0281 H   0  0  0  0  0  0  0  0  0  0  0  0
    0.7571    0.2775    2.9253 H   0  0  0  0  0  0  0  0  0  0  0  0
   -4.5377   -2.1262   -2.0019 H   0  0  0  0  0  0  0  0  0  0  0  0
   -4.8028   -2.5658   -0.2513 H   0  0  0  0  0  0  0  0  0  0  0  0
   -3.5455   -3.4183   -1.3187 H   0  0  0  0  0  0  0  0  0  0  0  0
   -2.9756   -3.6044    0.7306 H   0  0  0  0  0  0  0  0  0  0  0  0
   -1.4581   -4.1436    2.5165 H   0  0  0  0  0  0  0  0  0  0  0  0
    0.3219   -2.5143    3.1044 H   0  0  0  0  0  0  0  0  0  0  0  0
    3.5037   -0.0549    0.5388 H   0  0  0  0  0  0  0  0  0  0  0  0
    3.2976    0.9323   -0.9102 H   0  0  0  0  0  0  0  0  0  0  0  0
    3.0873   -1.4902   -2.2044 H   0  0  0  0  0  0  0  0  0  0  0  0
    5.6283   -0.2328   -0.8388 H   0  0  0  0  0  0  0  0  0  0  0  0
    5.5710   -1.1917   -2.4213 H   0  0  0  0  0  0  0  0  0  0  0  0
    4.5448   -3.1342   -1.0489 H   0  0  0  0  0  0  0  0  0  0  0  0
    4.5280   -2.0628    0.4650 H   0  0  0  0  0  0  0  0  0  0  0  0
  1  2  1  0
  3  2  1  6
  3  4  1  0
  4  5  1  0
  5  6  1  0
  6  7  2  0
  6  8  1  0
  9  8  1  6
  9 10  1  0
 10 11  1  0
 11 12  1  0
 12 13  1  0
 13 14  1  0
 14 15  1  0
 15 16  2  0
 16 17  1  0
 17 18  1  0
 18 19  1  0
 17 20  2  0
 20 21  1  0
 21 22  2  0
 12 23  1  0
 23 24  1  0
 24 25  1  0
 25 26  1  0
 13  3  1  0
 22 15  1  0
 26 24  1  0
  9  3  1  0
 16  9  1  0
  1 27  1  0
  1 28  1  0
  1 29  1  0
  4 30  1  0
  4 31  1  0
  5 32  1  0
  5 33  1  0
  8 34  1  0
  8 35  1  0
 10 36  1  0
 10 37  1  0
 11 38  1  0
 11 39  1  0
 13 40  1  1
 14 41  1  0
 14 42  1  0
 19 43  1  0
 19 44  1  0
 19 45  1  0
 20 46  1  0
 21 47  1  0
 22 48  1  0
 23 49  1  0
 23 50  1  0
 24 51  1  0
 25 52  1  0
 25 53  1  0
 26 54  1  0
 26 55  1  0
M  END
>  <Ligand ID>  (1) 
LIG0004877

>  <Ligand>  (1) 
Cyprodime

>  <SMILES>  (1) 
CO[C@]12CCC(=O)C[C@]32CCN([C@@H]1Cc1c3c(OC)ccc1)CC1CC1

>  <CID>  (1) 
5748293.0

>  <ChEMBL ID>  (1) 
nan

>  <InChiKey>  (1) 
INUCRGMCKDQKNA-CEMLEFRQSA-N

>  <InChi>  (1) 
InChI=1S/C22H29NO3/c1-25-18-5-3-4-16-12-19-22(26-2)9-8-17(24)13-21(22,20(16)18)10-11-23(19)14-15-6-7-15/h3-5,15,19H,6-14H2,1-2H3/t19-,21-,22-/m1/s1

>  <IUPAC Name>  (1) 
(1R,9R,10S)-17-(cyclopropylmethyl)-3,10-dimethoxy-17-azatetracyclo[7.5.3.01,10.02,7]heptadeca-2(7),3,5-trien-13-one

$$$$
