
     RDKit          3D

 46 47  0  0  0  0  0  0  0  0999 V2000
    0.0532   -1.1405    0.4118 O   0  0  0  0  0  0  0  0  0  0  0  0
    0.0463   -0.3386    1.3571 C   0  0  0  0  0  0  0  0  0  0  0  0
    1.2756    0.3112    1.8738 C   0  0  0  0  0  0  0  0  0  0  0  0
    2.4839   -0.1187    1.1241 C   0  0  0  0  0  0  0  0  0  0  0  0
    3.2343   -1.2170    1.5046 C   0  0  0  0  0  0  0  0  0  0  0  0
    4.3428   -1.5585    0.7628 C   0  0  0  0  0  0  0  0  0  0  0  0
    4.7396   -0.8449   -0.3535 C   0  0  0  0  0  0  0  0  0  0  0  0
    3.9829    0.2647   -0.7393 C   0  0  0  0  0  0  0  0  0  0  0  0
    2.8739    0.5987    0.0106 C   0  0  0  0  0  0  0  0  0  0  0  0
    4.3318    1.0837   -1.9157 C   0  0  0  0  0  0  0  0  0  0  0  0
    5.9443   -1.2313   -1.1441 C   0  0  0  0  0  0  0  0  0  0  0  0
   -1.1804   -0.0057    1.9965 N   0  0  0  0  0  0  0  0  0  0  0  0
   -2.3797   -0.6209    1.5144 C   0  0  0  0  0  0  0  0  0  0  0  0
   -2.7044   -0.3408    0.0772 C   0  0  0  0  0  0  0  0  0  0  0  0
   -2.8787    1.1229   -0.1553 C   0  0  0  0  0  0  0  0  0  0  0  0
   -2.0209    1.9770   -0.8325 C   0  0  0  0  0  0  0  0  0  0  0  0
   -2.5712    3.2471   -0.8091 C   0  0  0  0  0  0  0  0  0  0  0  0
   -3.7630    3.0886   -0.1007 C   0  0  0  0  0  0  0  0  0  0  0  0
   -3.9120    1.8486    0.2638 O   0  0  0  0  0  0  0  0  0  0  0  0
   -3.9935   -0.9100   -0.2204 N   0  0  0  0  0  0  0  0  0  0  0  0
   -4.1020   -2.3134   -0.0409 C   0  0  0  0  0  0  0  0  0  0  0  0
   -4.6662   -0.3538   -1.3482 C   0  0  0  0  0  0  0  0  0  0  0  0
    1.2165    1.3936    1.9890 H   0  0  0  0  0  0  0  0  0  0  0  0
    1.4078   -0.1133    2.9119 H   0  0  0  0  0  0  0  0  0  0  0  0
    2.9133   -1.7599    2.3727 H   0  0  0  0  0  0  0  0  0  0  0  0
    4.9457   -2.4164    1.0436 H   0  0  0  0  0  0  0  0  0  0  0  0
    2.2822    1.4681   -0.2928 H   0  0  0  0  0  0  0  0  0  0  0  0
    5.0504    0.5757   -2.5668 H   0  0  0  0  0  0  0  0  0  0  0  0
    4.6821    2.0693   -1.5479 H   0  0  0  0  0  0  0  0  0  0  0  0
    3.3959    1.2403   -2.5259 H   0  0  0  0  0  0  0  0  0  0  0  0
    5.7458   -1.3197   -2.2281 H   0  0  0  0  0  0  0  0  0  0  0  0
    6.8006   -0.5502   -0.9349 H   0  0  0  0  0  0  0  0  0  0  0  0
    6.2592   -2.2449   -0.8203 H   0  0  0  0  0  0  0  0  0  0  0  0
   -1.1794    0.6846    2.8089 H   0  0  0  0  0  0  0  0  0  0  0  0
   -2.4564   -1.7118    1.7061 H   0  0  0  0  0  0  0  0  0  0  0  0
   -3.2340   -0.1956    2.0979 H   0  0  0  0  0  0  0  0  0  0  0  0
   -1.9823   -0.6908   -0.6567 H   0  0  0  0  0  0  0  0  0  0  0  0
   -1.0831    1.7237   -1.3045 H   0  0  0  0  0  0  0  0  0  0  0  0
   -2.1881    4.1552   -1.2306 H   0  0  0  0  0  0  0  0  0  0  0  0
   -4.4761    3.8891    0.1208 H   0  0  0  0  0  0  0  0  0  0  0  0
   -4.9296   -2.7124   -0.6645 H   0  0  0  0  0  0  0  0  0  0  0  0
   -4.3918   -2.5596    1.0063 H   0  0  0  0  0  0  0  0  0  0  0  0
   -3.2190   -2.9012   -0.3083 H   0  0  0  0  0  0  0  0  0  0  0  0
   -5.5588    0.1945   -0.9759 H   0  0  0  0  0  0  0  0  0  0  0  0
   -4.0587    0.3862   -1.9220 H   0  0  0  0  0  0  0  0  0  0  0  0
   -5.0786   -1.1529   -2.0004 H   0  0  0  0  0  0  0  0  0  0  0  0
  1  2  2  0
  2  3  1  0
  3  4  1  0
  4  5  2  0
  5  6  1  0
  6  7  2  0
  7  8  1  0
  8  9  2  0
  8 10  1  0
  7 11  1  0
  2 12  1  0
 12 13  1  0
 13 14  1  0
 14 15  1  0
 15 16  2  0
 16 17  1  0
 17 18  2  0
 18 19  1  0
 14 20  1  0
 20 21  1  0
 20 22  1  0
  9  4  1  0
 19 15  1  0
  3 23  1  0
  3 24  1  0
  5 25  1  0
  6 26  1  0
  9 27  1  0
 10 28  1  0
 10 29  1  0
 10 30  1  0
 11 31  1  0
 11 32  1  0
 11 33  1  0
 12 34  1  0
 13 35  1  0
 13 36  1  0
 14 37  1  0
 16 38  1  0
 17 39  1  0
 18 40  1  0
 21 41  1  0
 21 42  1  0
 21 43  1  0
 22 44  1  0
 22 45  1  0
 22 46  1  0
M  END
>  <Ligand ID>  (1) 
LIG0003612

>  <Ligand>  (1) 
MLS000770928

>  <SMILES>  (1) 
O=C(Cc1ccc(c(c1)C)C)NCC(c1ccco1)N(C)C

>  <CID>  (1) 
4883199.0

>  <ChEMBL ID>  (1) 
nan

>  <InChiKey>  (1) 
XYBVOSAZFBEJTL-UHFFFAOYSA-N

>  <InChi>  (1) 
InChI=1S/C18H24N2O2/c1-13-7-8-15(10-14(13)2)11-18(21)19-12-16(20(3)4)17-6-5-9-22-17/h5-10,16H,11-12H2,1-4H3,(H,19,21)

>  <IUPAC Name>  (1) 
N-[2-(dimethylamino)-2-(furan-2-yl)ethyl]-2-(3,4-dimethylphenyl)acetamide

$$$$
