
     RDKit          3D

 57 59  0  0  0  0  0  0  0  0999 V2000
   -4.7884    0.9283   -0.1015 O   0  0  0  0  0  0  0  0  0  0  0  0
   -4.8956    0.1133   -1.0368 C   0  0  0  0  0  0  0  0  0  0  0  0
   -6.2946   -0.1161   -1.5513 C   0  0  2  0  0  0  0  0  0  0  0  0
   -7.0758   -0.7047   -0.3956 C   0  0  0  0  0  0  0  0  0  0  0  0
   -7.0759    0.2440    0.6350 O   0  0  0  0  0  0  0  0  0  0  0  0
   -7.9117   -0.2882    1.9862 P   0  0  0  0  0  0  0  0  0  0  0  0
   -7.0180   -0.2835    3.2167 O   0  0  0  0  0  0  0  0  0  0  0  0
   -8.4611   -1.8770    1.7352 O   0  0  0  0  0  0  0  0  0  0  0  0
   -9.2297    0.7455    2.3096 O   0  0  0  0  0  0  0  0  0  0  0  0
   -6.2829   -1.0701   -2.6137 N   0  0  0  0  0  0  0  0  0  0  0  0
   -6.9086    1.1794   -2.0242 C   0  0  0  0  0  0  0  0  0  0  0  0
   -3.8010   -0.5682   -1.6018 N   0  0  0  0  0  0  0  0  0  0  0  0
   -2.4502   -0.4467   -1.2172 C   0  0  0  0  0  0  0  0  0  0  0  0
   -1.5190   -1.2121   -1.9104 C   0  0  0  0  0  0  0  0  0  0  0  0
   -0.1808   -1.1411   -1.5843 C   0  0  0  0  0  0  0  0  0  0  0  0
    0.3095   -0.3337   -0.5826 C   0  0  0  0  0  0  0  0  0  0  0  0
   -0.6098    0.4277    0.1083 C   0  0  0  0  0  0  0  0  0  0  0  0
   -1.9654    0.3529   -0.2253 C   0  0  0  0  0  0  0  0  0  0  0  0
    1.6660   -0.2964   -0.2912 O   0  0  0  0  0  0  0  0  0  0  0  0
    2.0981    0.5590    0.7539 C   0  0  0  0  0  0  0  0  0  0  0  0
    3.5660    0.3944    0.8379 C   0  0  0  0  0  0  0  0  0  0  0  0
    4.3476    1.2411    0.0609 C   0  0  0  0  0  0  0  0  0  0  0  0
    5.7204    1.1194    0.1112 C   0  0  0  0  0  0  0  0  0  0  0  0
    6.3698    0.1979    0.8948 C   0  0  0  0  0  0  0  0  0  0  0  0
    5.5779   -0.6393    1.6638 C   0  0  0  0  0  0  0  0  0  0  0  0
    4.1914   -0.5388    1.6328 C   0  0  0  0  0  0  0  0  0  0  0  0
    7.8352    0.1069    0.9142 C   0  0  0  0  0  0  0  0  0  0  0  0
    8.5335   -0.2906    2.0424 C   0  0  0  0  0  0  0  0  0  0  0  0
    9.9076   -0.3568    1.9999 C   0  0  0  0  0  0  0  0  0  0  0  0
   10.5992   -0.0352    0.8571 C   0  0  0  0  0  0  0  0  0  0  0  0
    9.9276    0.3668   -0.2901 C   0  0  0  0  0  0  0  0  0  0  0  0
    8.5439    0.4206   -0.2067 C   0  0  0  0  0  0  0  0  0  0  0  0
   -6.5268   -1.5944   -0.0267 H   0  0  0  0  0  0  0  0  0  0  0  0
   -8.1050   -0.9918   -0.6883 H   0  0  0  0  0  0  0  0  0  0  0  0
   -9.3026   -1.8168    1.1960 H   0  0  0  0  0  0  0  0  0  0  0  0
   -9.4169    1.2215    1.4665 H   0  0  0  0  0  0  0  0  0  0  0  0
   -5.7367   -0.8211   -3.4517 H   0  0  0  0  0  0  0  0  0  0  0  0
   -5.9343   -1.9792   -2.2393 H   0  0  0  0  0  0  0  0  0  0  0  0
   -7.9919    1.1399   -1.7508 H   0  0  0  0  0  0  0  0  0  0  0  0
   -6.8815    1.2052   -3.1411 H   0  0  0  0  0  0  0  0  0  0  0  0
   -6.4148    2.0731   -1.6221 H   0  0  0  0  0  0  0  0  0  0  0  0
   -4.0445   -1.2353   -2.3963 H   0  0  0  0  0  0  0  0  0  0  0  0
   -1.8192   -1.8818   -2.7218 H   0  0  0  0  0  0  0  0  0  0  0  0
    0.5016   -1.7528   -2.1498 H   0  0  0  0  0  0  0  0  0  0  0  0
   -0.2786    1.0820    0.9079 H   0  0  0  0  0  0  0  0  0  0  0  0
   -2.6156    0.9742    0.3569 H   0  0  0  0  0  0  0  0  0  0  0  0
    1.7549    1.5852    0.6093 H   0  0  0  0  0  0  0  0  0  0  0  0
    1.6341    0.1719    1.6930 H   0  0  0  0  0  0  0  0  0  0  0  0
    3.9099    1.9955   -0.5845 H   0  0  0  0  0  0  0  0  0  0  0  0
    6.3346    1.7760   -0.4918 H   0  0  0  0  0  0  0  0  0  0  0  0
    6.0573   -1.3744    2.2905 H   0  0  0  0  0  0  0  0  0  0  0  0
    3.5657   -1.1874    2.2292 H   0  0  0  0  0  0  0  0  0  0  0  0
    8.0018   -0.5453    2.9441 H   0  0  0  0  0  0  0  0  0  0  0  0
   10.4077   -0.6752    2.9144 H   0  0  0  0  0  0  0  0  0  0  0  0
   11.6754   -0.0855    0.8191 H   0  0  0  0  0  0  0  0  0  0  0  0
   10.4725    0.6204   -1.1910 H   0  0  0  0  0  0  0  0  0  0  0  0
    8.0278    0.7329   -1.0987 H   0  0  0  0  0  0  0  0  0  0  0  0
  1  2  2  0
  2  3  1  0
  3  4  1  0
  4  5  1  0
  5  6  1  0
  6  7  2  0
  6  8  1  0
  6  9  1  0
  3 10  1  6
  3 11  1  0
  2 12  1  0
 12 13  1  0
 13 14  2  0
 14 15  1  0
 15 16  2  0
 16 17  1  0
 17 18  2  0
 16 19  1  0
 19 20  1  0
 20 21  1  0
 21 22  2  0
 22 23  1  0
 23 24  2  0
 24 25  1  0
 25 26  2  0
 24 27  1  0
 27 28  2  0
 28 29  1  0
 29 30  2  0
 30 31  1  0
 31 32  2  0
 18 13  1  0
 26 21  1  0
 32 27  1  0
  4 33  1  0
  4 34  1  0
  8 35  1  0
  9 36  1  0
 10 37  1  0
 10 38  1  0
 11 39  1  0
 11 40  1  0
 11 41  1  0
 12 42  1  0
 14 43  1  0
 15 44  1  0
 17 45  1  0
 18 46  1  0
 20 47  1  0
 20 48  1  0
 22 49  1  0
 23 50  1  0
 25 51  1  0
 26 52  1  0
 28 53  1  0
 29 54  1  0
 30 55  1  0
 31 56  1  0
 32 57  1  0
M  END
>  <Ligand ID>  (1) 
LIG0005095

>  <Ligand>  (1) 
CHEMBL473563

>  <SMILES>  (1) 
O=C([C@](COP(=O)(O)O)(N)C)Nc1ccc(cc1)OCc1ccc(cc1)c1ccccc1

>  <CID>  (1) 
11683935.0

>  <ChEMBL ID>  (1) 
nan

>  <InChiKey>  (1) 
WJTKHEJZIPMAKN-QHCPKHFHSA-N

>  <InChi>  (1) 
InChI=1S/C23H25N2O6P/c1-23(24,16-31-32(27,28)29)22(26)25-20-11-13-21(14-12-20)30-15-17-7-9-19(10-8-17)18-5-3-2-4-6-18/h2-14H,15-16,24H2,1H3,(H,25,26)(H2,27,28,29)/t23-/m0/s1

>  <IUPAC Name>  (1) 
[(2S)-2-amino-2-methyl-3-oxo-3-[4-[(4-phenylphenyl)methoxy]anilino]propyl] dihydrogen phosphate

$$$$
