
     RDKit          3D

 47 50  0  0  0  0  0  0  0  0999 V2000
   -4.5227   -2.5098    0.6144 C   0  0  0  0  0  0  0  0  0  0  0  0
   -4.4548   -1.2724   -0.2204 C   0  0  2  0  0  0  0  0  0  0  0  0
   -4.5463   -1.5497   -1.6936 C   0  0  0  0  0  0  0  0  0  0  0  0
   -3.5848   -0.6112   -2.3873 C   0  0  0  0  0  0  0  0  0  0  0  0
   -3.2431    0.3782   -1.2772 C   0  0  0  0  0  0  0  0  0  0  0  0
   -3.1870   -0.5691   -0.1479 N   0  0  0  0  0  0  0  0  0  0  0  0
   -2.1181   -0.7247    0.7788 C   0  0  0  0  0  0  0  0  0  0  0  0
   -2.1654   -1.5810    1.7264 O   0  0  0  0  0  0  0  0  0  0  0  0
   -0.9452    0.1170    0.6373 C   0  0  0  0  0  0  0  0  0  0  0  0
   -1.0753    1.4436    1.0005 C   0  0  0  0  0  0  0  0  0  0  0  0
   -0.0300    2.2787    0.8982 N   0  0  0  0  0  0  0  0  0  0  0  0
    1.1565    1.8197    0.4377 C   0  0  0  0  0  0  0  0  0  0  0  0
    1.3161    0.4766    0.0619 C   0  0  0  0  0  0  0  0  0  0  0  0
    0.2420   -0.3114    0.1840 N   0  0  0  0  0  0  0  0  0  0  0  0
    2.5482    0.1169   -0.3902 O   0  0  0  0  0  0  0  0  0  0  0  0
    3.0605   -1.0730   -0.8274 C   0  0  0  0  0  0  0  0  0  0  0  0
    3.1363   -2.2334    0.0867 C   0  0  0  0  0  0  0  0  0  0  0  0
    3.9325   -2.1910    1.3416 C   0  0  0  0  0  0  0  0  0  0  0  0
    2.3981   -2.4402    1.3314 C   0  0  0  0  0  0  0  0  0  0  0  0
    2.2703    2.7314    0.3443 N   0  0  0  0  0  0  0  0  0  0  0  0
    3.5283    2.7609    1.0232 C   0  0  0  0  0  0  0  0  0  0  0  0
    3.8776    4.0615    0.3572 C   0  0  0  0  0  0  0  0  0  0  0  0
    2.6011    3.9228   -0.4183 C   0  0  0  0  0  0  0  0  0  0  0  0
    3.8792    5.1743    1.1522 F   0  0  0  0  0  0  0  0  0  0  0  0
    4.9965    4.0226   -0.4493 F   0  0  0  0  0  0  0  0  0  0  0  0
   -4.6953   -2.3089    1.6782 H   0  0  0  0  0  0  0  0  0  0  0  0
   -3.6169   -3.1228    0.4878 H   0  0  0  0  0  0  0  0  0  0  0  0
   -5.3970   -3.1021    0.2375 H   0  0  0  0  0  0  0  0  0  0  0  0
   -5.2513   -0.5374    0.0167 H   0  0  0  0  0  0  0  0  0  0  0  0
   -4.3136   -2.6092   -1.9337 H   0  0  0  0  0  0  0  0  0  0  0  0
   -5.5597   -1.3124   -2.0866 H   0  0  0  0  0  0  0  0  0  0  0  0
   -2.6687   -1.1800   -2.6456 H   0  0  0  0  0  0  0  0  0  0  0  0
   -4.0190   -0.0989   -3.2685 H   0  0  0  0  0  0  0  0  0  0  0  0
   -4.1071    1.0292   -1.0655 H   0  0  0  0  0  0  0  0  0  0  0  0
   -2.2888    0.8898   -1.4166 H   0  0  0  0  0  0  0  0  0  0  0  0
   -2.0178    1.8156    1.3705 H   0  0  0  0  0  0  0  0  0  0  0  0
    2.4318   -1.4076   -1.7188 H   0  0  0  0  0  0  0  0  0  0  0  0
    4.0771   -0.9675   -1.2970 H   0  0  0  0  0  0  0  0  0  0  0  0
    3.3200   -3.2034   -0.4900 H   0  0  0  0  0  0  0  0  0  0  0  0
    4.5573   -3.0499    1.6407 H   0  0  0  0  0  0  0  0  0  0  0  0
    4.2632   -1.2140    1.7878 H   0  0  0  0  0  0  0  0  0  0  0  0
    1.8242   -1.6887    1.8758 H   0  0  0  0  0  0  0  0  0  0  0  0
    2.0833   -3.4880    1.6114 H   0  0  0  0  0  0  0  0  0  0  0  0
    4.2266    1.9767    0.6984 H   0  0  0  0  0  0  0  0  0  0  0  0
    3.4724    2.9039    2.1328 H   0  0  0  0  0  0  0  0  0  0  0  0
    2.7509    3.7241   -1.5135 H   0  0  0  0  0  0  0  0  0  0  0  0
    1.8579    4.7147   -0.2661 H   0  0  0  0  0  0  0  0  0  0  0  0
  1  2  1  0
  2  3  1  0
  3  4  1  0
  4  5  1  0
  5  6  1  0
  6  7  1  0
  7  8  2  0
  7  9  1  0
  9 10  2  0
 10 11  1  0
 11 12  2  0
 12 13  1  0
 13 14  2  0
 13 15  1  0
 15 16  1  0
 16 17  1  0
 17 18  1  0
 18 19  1  0
 12 20  1  0
 20 21  1  0
 21 22  1  0
 22 23  1  0
 22 24  1  0
 22 25  1  0
  6  2  1  0
 14  9  1  0
 19 17  1  0
 23 20  1  0
  1 26  1  0
  1 27  1  0
  1 28  1  0
  2 29  1  1
  3 30  1  0
  3 31  1  0
  4 32  1  0
  4 33  1  0
  5 34  1  0
  5 35  1  0
 10 36  1  0
 16 37  1  0
 16 38  1  0
 17 39  1  0
 18 40  1  0
 18 41  1  0
 19 42  1  0
 19 43  1  0
 21 44  1  0
 21 45  1  0
 23 46  1  0
 23 47  1  0
M  END
>  <Ligand ID>  (1) 
LIG0005242

>  <Ligand>  (1) 
SCHEMBL15776242

>  <SMILES>  (1) 
C[C@@H]1CCCN1C(=O)c1cnc(c(n1)OCC1CC1)N1CC(C1)(F)F

>  <CID>  (1) 
90203617.0

>  <ChEMBL ID>  (1) 
nan

>  <InChiKey>  (1) 
ZXJWVSDWNJTBJK-LLVKDONJSA-N

>  <InChi>  (1) 
InChI=1S/C17H22F2N4O2/c1-11-3-2-6-23(11)16(24)13-7-20-14(22-9-17(18,19)10-22)15(21-13)25-8-12-4-5-12/h7,11-12H,2-6,8-10H2,1H3/t11-/m1/s1

>  <IUPAC Name>  (1) 
[6-(cyclopropylmethoxy)-5-(3,3-difluoroazetidin-1-yl)pyrazin-2-yl]-[(2R)-2-methylpyrrolidin-1-yl]methanone

$$$$
