
     RDKit          3D

 34 36  0  0  0  0  0  0  0  0999 V2000
   -3.6911    0.2355    0.3690 C   0  0  0  0  0  0  0  0  0  0  0  0
   -2.2256    0.0402    0.7286 C   0  0  2  0  0  0  0  0  0  0  0  0
   -1.4406    0.2952   -0.5316 C   0  0  1  0  0  0  0  0  0  0  0  0
    0.0199    0.1888   -0.3525 C   0  0  0  0  0  0  0  0  0  0  0  0
    0.6970   -1.0118   -0.5273 C   0  0  0  0  0  0  0  0  0  0  0  0
    0.2563   -2.2817   -0.8729 O   0  0  0  0  0  0  0  0  0  0  0  0
    1.2919   -3.2260   -0.6353 C   0  0  0  0  0  0  0  0  0  0  0  0
    2.5768   -2.4329   -0.5844 C   0  0  0  0  0  0  0  0  0  0  0  0
    2.0806   -1.0628   -0.3465 C   0  0  0  0  0  0  0  0  0  0  0  0
    2.8008    0.0772    0.0088 C   0  0  0  0  0  0  0  0  0  0  0  0
    2.1275    1.2669    0.1817 C   0  0  0  0  0  0  0  0  0  0  0  0
    0.7847    1.2893    0.0002 C   0  0  0  0  0  0  0  0  0  0  0  0
    0.3572    2.7000    0.2567 C   0  0  0  0  0  0  0  0  0  0  0  0
    1.6230    3.4841    0.2943 C   0  0  0  0  0  0  0  0  0  0  0  0
    2.6173    2.5186    0.5300 O   0  0  0  0  0  0  0  0  0  0  0  0
    4.7057   -0.0238    0.2508 Br  0  0  0  0  0  0  0  0  0  0  0  0
   -1.8743   -0.5302   -1.5577 O   0  0  0  0  0  0  0  0  0  0  0  0
   -2.0861   -1.3350    1.1812 N   0  0  0  0  0  0  0  0  0  0  0  0
   -3.8313    1.0719   -0.3680 H   0  0  0  0  0  0  0  0  0  0  0  0
   -4.1637   -0.6478   -0.0562 H   0  0  0  0  0  0  0  0  0  0  0  0
   -4.2563    0.5695    1.2820 H   0  0  0  0  0  0  0  0  0  0  0  0
   -1.9858    0.7555    1.5150 H   0  0  0  0  0  0  0  0  0  0  0  0
   -1.6714    1.3343   -0.8466 H   0  0  0  0  0  0  0  0  0  0  0  0
    1.1826   -3.7108    0.3725 H   0  0  0  0  0  0  0  0  0  0  0  0
    1.3679   -3.9950   -1.4147 H   0  0  0  0  0  0  0  0  0  0  0  0
    3.2747   -2.7796    0.2147 H   0  0  0  0  0  0  0  0  0  0  0  0
    3.1460   -2.4575   -1.5440 H   0  0  0  0  0  0  0  0  0  0  0  0
   -0.3287    3.0129   -0.5667 H   0  0  0  0  0  0  0  0  0  0  0  0
   -0.2012    2.6780    1.2107 H   0  0  0  0  0  0  0  0  0  0  0  0
    1.7395    4.0015   -0.6960 H   0  0  0  0  0  0  0  0  0  0  0  0
    1.5424    4.2164    1.1307 H   0  0  0  0  0  0  0  0  0  0  0  0
   -1.1848   -0.8368   -2.1684 H   0  0  0  0  0  0  0  0  0  0  0  0
   -2.3684   -1.9186    0.3372 H   0  0  0  0  0  0  0  0  0  0  0  0
   -2.8823   -1.4855    1.8573 H   0  0  0  0  0  0  0  0  0  0  0  0
  1  2  1  0
  2  3  1  0
  3  4  1  0
  4  5  2  0
  5  6  1  0
  6  7  1  0
  7  8  1  0
  8  9  1  0
  9 10  2  0
 10 11  1  0
 11 12  2  0
 12 13  1  0
 13 14  1  0
 14 15  1  0
 10 16  1  0
  3 17  1  0
  2 18  1  0
 12  4  1  0
  9  5  1  0
 15 11  1  0
  1 19  1  0
  1 20  1  0
  1 21  1  0
  2 22  1  1
  3 23  1  6
  7 24  1  0
  7 25  1  0
  8 26  1  0
  8 27  1  0
 13 28  1  0
 13 29  1  0
 14 30  1  0
 14 31  1  0
 17 32  1  0
 18 33  1  0
 18 34  1  0
M  END
>  <Ligand ID>  (1) 
LIG0002191

>  <Ligand>  (1) 
CHEMBL391196

>  <SMILES>  (1) 
C[C@H]([C@@H](c1c2OCCc2c(c2c1CCO2)Br)O)N

>  <CID>  (1) 
44431705.0

>  <ChEMBL ID>  (1) 
nan

>  <InChiKey>  (1) 
KVNVBZLTIQWYEK-KBUNVGBDSA-N

>  <InChi>  (1) 
InChI=1S/C13H16BrNO3/c1-6(15)11(16)9-7-2-4-18-13(7)10(14)8-3-5-17-12(8)9/h6,11,16H,2-5,15H2,1H3/t6-,11+/m1/s1

>  <IUPAC Name>  (1) 
(1R,2R)-2-amino-1-(4-bromo-2,3,6,7-tetrahydrofuro[2,3-f][1]benzofuran-8-yl)propan-1-ol

$$$$
