
     RDKit          3D

141143  0  0  0  0  0  0  0  0999 V2000
    7.8887   -2.1239   -0.2019 C   0  0  0  0  0  0  0  0  0  0  0  0
    8.3433   -0.7323   -0.4893 C   0  0  0  0  0  0  0  0  0  0  0  0
    7.2988    0.3183   -0.4659 C   0  0  1  0  0  0  0  0  0  0  0  0
    6.2351    0.1471   -1.5135 C   0  0  2  0  0  0  0  0  0  0  0  0
    5.2688    1.2684   -1.3328 N   0  0  0  0  0  0  0  0  0  0  0  0
    5.5071    2.4600   -2.0603 C   0  0  0  0  0  0  0  0  0  0  0  0
    6.5343    2.4492   -2.7847 O   0  0  0  0  0  0  0  0  0  0  0  0
    4.7139    3.7035   -2.0825 C   0  0  1  0  0  0  0  0  0  0  0  0
    3.5330    3.7268   -1.2738 N   0  0  0  0  0  0  0  0  0  0  0  0
    2.3118    3.0968   -1.7708 C   0  0  0  0  0  0  0  0  0  0  0  0
    2.4742    2.4802   -2.8237 O   0  0  0  0  0  0  0  0  0  0  0  0
    1.0309    3.2155   -1.0206 C   0  0  0  0  0  0  0  0  0  0  0  0
    0.2002    1.9906   -1.1363 C   0  0  0  0  0  0  0  0  0  0  0  0
   -1.1945    2.2568   -0.5719 C   0  0  0  0  0  0  0  0  0  0  0  0
   -2.0408    0.6200   -0.4113 S   0  0  0  0  0  0  0  0  0  0  0  0
   -1.2668   -0.2279    1.0215 C   0  0  0  0  0  0  0  0  0  0  0  0
   -1.5196   -1.6874    1.0571 C   0  0  2  0  0  0  0  0  0  0  0  0
   -0.7448   -2.2842   -0.0873 N   0  0  0  0  0  0  0  0  0  0  0  0
   -0.4574   -3.6440    0.0531 C   0  0  0  0  0  0  0  0  0  0  0  0
   -1.0311   -4.1794    1.0762 O   0  0  0  0  0  0  0  0  0  0  0  0
    0.3491   -4.5682   -0.7480 C   0  0  1  0  0  0  0  0  0  0  0  0
    1.6153   -4.1903   -1.2279 N   0  0  0  0  0  0  0  0  0  0  0  0
    2.4651   -3.1151   -0.8723 C   0  0  0  0  0  0  0  0  0  0  0  0
    1.9921   -2.2841   -0.0885 O   0  0  0  0  0  0  0  0  0  0  0  0
    3.8311   -2.9408   -1.3753 C   0  0  1  0  0  0  0  0  0  0  0  0
    4.3711   -1.5981   -1.0346 N   0  0  0  0  0  0  0  0  0  0  0  0
    5.5628   -1.1156   -1.6463 C   0  0  0  0  0  0  0  0  0  0  0  0
    6.0929   -1.9822   -2.4251 O   0  0  0  0  0  0  0  0  0  0  0  0
    4.7887   -3.9718   -0.7510 C   0  0  0  0  0  0  0  0  0  0  0  0
    4.3271   -5.3570   -1.0970 C   0  0  0  0  0  0  0  0  0  0  0  0
    5.3111   -6.3736   -0.5332 C   0  0  0  0  0  0  0  0  0  0  0  0
    6.2903   -6.0097    0.1616 O   0  0  0  0  0  0  0  0  0  0  0  0
    5.0402   -7.7444   -0.8495 N   0  0  0  0  0  0  0  0  0  0  0  0
    0.2477   -5.9935   -0.2214 C   0  0  0  0  0  0  0  0  0  0  0  0
    0.6901   -6.1140    1.1816 C   0  0  0  0  0  0  0  0  0  0  0  0
    1.8518   -5.9026    1.5958 O   0  0  0  0  0  0  0  0  0  0  0  0
   -0.2562   -6.5036    2.2028 N   0  0  0  0  0  0  0  0  0  0  0  0
   -2.9631   -1.9921    0.7848 C   0  0  0  0  0  0  0  0  0  0  0  0
   -3.1995   -2.2130   -0.4625 O   0  0  0  0  0  0  0  0  0  0  0  0
   -3.9876   -2.0606    1.7346 N   0  0  0  0  0  0  0  0  0  0  0  0
   -3.9183   -1.8265    3.1405 C   0  0  0  0  0  0  0  0  0  0  0  0
   -4.2760   -0.5415    3.6941 C   0  0  0  0  0  0  0  0  0  0  0  0
   -3.4406    0.4751    4.0764 C   0  0  0  0  0  0  0  0  0  0  0  0
   -3.8753    1.6785    4.5989 C   0  0  0  0  0  0  0  0  0  0  0  0
   -5.2161    1.9094    4.7625 C   0  0  0  0  0  0  0  0  0  0  0  0
   -6.0894    0.9191    4.3938 C   0  0  0  0  0  0  0  0  0  0  0  0
   -5.6488   -0.2777    3.8730 C   0  0  0  0  0  0  0  0  0  0  0  0
   -5.2947   -2.5220    1.2343 C   0  0  0  0  0  0  0  0  0  0  0  0
   -6.2055   -1.5240    0.7303 C   0  0  0  0  0  0  0  0  0  0  0  0
   -7.3556   -1.9532    0.3238 O   0  0  0  0  0  0  0  0  0  0  0  0
   -6.0147   -0.1336    0.6167 N   0  0  0  0  0  0  0  0  0  0  0  0
   -7.1093    0.7486    0.0655 C   0  0  2  0  0  0  0  0  0  0  0  0
   -6.7947    1.0571   -1.3264 C   0  0  0  0  0  0  0  0  0  0  0  0
   -5.5675    0.9788   -1.6825 O   0  0  0  0  0  0  0  0  0  0  0  0
   -7.7064    1.4259   -2.3450 N   0  0  0  0  0  0  0  0  0  0  0  0
   -7.3106    1.7120   -3.7067 C   0  0  0  0  0  0  0  0  0  0  0  0
   -8.5170    2.0585   -4.4875 C   0  0  0  0  0  0  0  0  0  0  0  0
   -8.4465    2.3505   -5.7087 O   0  0  0  0  0  0  0  0  0  0  0  0
   -9.8342    2.0862   -3.9148 N   0  0  0  0  0  0  0  0  0  0  0  0
   -7.3395    1.8251    1.0428 C   0  0  0  0  0  0  0  0  0  0  0  0
   -8.3450    2.8493    0.7510 C   0  0  0  0  0  0  0  0  0  0  0  0
   -8.0626    3.6851   -0.4409 C   0  0  0  0  0  0  0  0  0  0  0  0
   -9.7628    2.2970    0.6821 C   0  0  0  0  0  0  0  0  0  0  0  0
    5.5380    4.9530   -1.9619 C   0  0  0  0  0  0  0  0  0  0  0  0
    6.3063    5.0276   -0.7184 C   0  0  0  0  0  0  0  0  0  0  0  0
    5.7221    5.6004    0.4124 C   0  0  0  0  0  0  0  0  0  0  0  0
    6.3849    5.6977    1.6156 C   0  0  0  0  0  0  0  0  0  0  0  0
    7.6609    5.2332    1.7658 C   0  0  0  0  0  0  0  0  0  0  0  0
    8.2653    4.6597    0.6563 C   0  0  0  0  0  0  0  0  0  0  0  0
    7.5945    4.5659   -0.5487 C   0  0  0  0  0  0  0  0  0  0  0  0
    8.3493    5.3174    2.9694 O   0  0  0  0  0  0  0  0  0  0  0  0
    6.6974    0.4976    0.9175 C   0  0  0  0  0  0  0  0  0  0  0  0
    8.1392   -2.8509   -0.9812 H   0  0  0  0  0  0  0  0  0  0  0  0
    8.4826   -2.4742    0.6973 H   0  0  0  0  0  0  0  0  0  0  0  0
    6.8409   -2.1623    0.1713 H   0  0  0  0  0  0  0  0  0  0  0  0
    9.2267   -0.4716    0.1539 H   0  0  0  0  0  0  0  0  0  0  0  0
    8.8116   -0.7856   -1.5284 H   0  0  0  0  0  0  0  0  0  0  0  0
    7.8051    1.2867   -0.6999 H   0  0  0  0  0  0  0  0  0  0  0  0
    6.7754    0.4074   -2.4739 H   0  0  0  0  0  0  0  0  0  0  0  0
    4.4634    1.2417   -0.7322 H   0  0  0  0  0  0  0  0  0  0  0  0
    4.3034    3.7028   -3.1588 H   0  0  0  0  0  0  0  0  0  0  0  0
    3.4169    4.1347   -0.3457 H   0  0  0  0  0  0  0  0  0  0  0  0
    1.2033    3.5495    0.0128 H   0  0  0  0  0  0  0  0  0  0  0  0
    0.4495    4.0555   -1.5056 H   0  0  0  0  0  0  0  0  0  0  0  0
    0.0747    1.6855   -2.1978 H   0  0  0  0  0  0  0  0  0  0  0  0
    0.6598    1.1151   -0.6111 H   0  0  0  0  0  0  0  0  0  0  0  0
   -1.7739    2.8439   -1.2941 H   0  0  0  0  0  0  0  0  0  0  0  0
   -1.0628    2.7399    0.4051 H   0  0  0  0  0  0  0  0  0  0  0  0
   -0.1628    0.0027    0.9057 H   0  0  0  0  0  0  0  0  0  0  0  0
   -1.5778    0.3609    1.8877 H   0  0  0  0  0  0  0  0  0  0  0  0
   -1.2438   -2.1552    1.9953 H   0  0  0  0  0  0  0  0  0  0  0  0
   -0.4674   -1.7756   -0.8975 H   0  0  0  0  0  0  0  0  0  0  0  0
   -0.2676   -4.6635   -1.7733 H   0  0  0  0  0  0  0  0  0  0  0  0
    2.0087   -4.7634   -2.0343 H   0  0  0  0  0  0  0  0  0  0  0  0
    3.9293   -3.0732   -2.4509 H   0  0  0  0  0  0  0  0  0  0  0  0
    3.9320   -0.9739   -0.3646 H   0  0  0  0  0  0  0  0  0  0  0  0
    5.7946   -3.7674   -1.1717 H   0  0  0  0  0  0  0  0  0  0  0  0
    4.7942   -3.7813    0.3254 H   0  0  0  0  0  0  0  0  0  0  0  0
    3.3958   -5.6187   -0.5640 H   0  0  0  0  0  0  0  0  0  0  0  0
    4.2435   -5.4649   -2.1713 H   0  0  0  0  0  0  0  0  0  0  0  0
    5.7928   -8.4461   -1.0320 H   0  0  0  0  0  0  0  0  0  0  0  0
    4.0245   -8.0667   -0.9002 H   0  0  0  0  0  0  0  0  0  0  0  0
   -0.7975   -6.3470   -0.3030 H   0  0  0  0  0  0  0  0  0  0  0  0
    0.8689   -6.6408   -0.8745 H   0  0  0  0  0  0  0  0  0  0  0  0
   -0.9305   -7.2717    2.0894 H   0  0  0  0  0  0  0  0  0  0  0  0
   -0.2299   -5.9483    3.1108 H   0  0  0  0  0  0  0  0  0  0  0  0
   -4.5079   -2.6115    3.7159 H   0  0  0  0  0  0  0  0  0  0  0  0
   -2.8607   -2.0449    3.5202 H   0  0  0  0  0  0  0  0  0  0  0  0
   -2.3867    0.3359    3.9928 H   0  0  0  0  0  0  0  0  0  0  0  0
   -3.2070    2.4798    4.8957 H   0  0  0  0  0  0  0  0  0  0  0  0
   -5.5907    2.8337    5.1667 H   0  0  0  0  0  0  0  0  0  0  0  0
   -7.1585    1.0762    4.5129 H   0  0  0  0  0  0  0  0  0  0  0  0
   -6.3935   -1.0158    3.6110 H   0  0  0  0  0  0  0  0  0  0  0  0
   -5.8141   -3.0570    2.0814 H   0  0  0  0  0  0  0  0  0  0  0  0
   -5.1304   -3.3094    0.4537 H   0  0  0  0  0  0  0  0  0  0  0  0
   -5.1171    0.2807    0.9165 H   0  0  0  0  0  0  0  0  0  0  0  0
   -8.0102    0.0587    0.0795 H   0  0  0  0  0  0  0  0  0  0  0  0
   -8.7185    1.4633   -2.0803 H   0  0  0  0  0  0  0  0  0  0  0  0
   -6.8751    0.7589   -4.1082 H   0  0  0  0  0  0  0  0  0  0  0  0
   -6.5805    2.5372   -3.7499 H   0  0  0  0  0  0  0  0  0  0  0  0
  -10.2544    1.2392   -3.4781 H   0  0  0  0  0  0  0  0  0  0  0  0
  -10.4101    2.9835   -3.9263 H   0  0  0  0  0  0  0  0  0  0  0  0
   -7.6205    1.2958    2.0104 H   0  0  0  0  0  0  0  0  0  0  0  0
   -6.3852    2.3549    1.3354 H   0  0  0  0  0  0  0  0  0  0  0  0
   -8.3681    3.5519    1.6609 H   0  0  0  0  0  0  0  0  0  0  0  0
   -8.7949    3.6615   -1.2523 H   0  0  0  0  0  0  0  0  0  0  0  0
   -8.0853    4.7777   -0.0978 H   0  0  0  0  0  0  0  0  0  0  0  0
   -7.0198    3.5465   -0.8346 H   0  0  0  0  0  0  0  0  0  0  0  0
   -9.8083    1.3254    1.2207 H   0  0  0  0  0  0  0  0  0  0  0  0
  -10.4260    2.9948    1.2253 H   0  0  0  0  0  0  0  0  0  0  0  0
  -10.1610    2.1954   -0.3222 H   0  0  0  0  0  0  0  0  0  0  0  0
    4.8334    5.8136   -2.0839 H   0  0  0  0  0  0  0  0  0  0  0  0
    6.1966    5.0105   -2.8510 H   0  0  0  0  0  0  0  0  0  0  0  0
    4.7105    6.0019    0.3945 H   0  0  0  0  0  0  0  0  0  0  0  0
    5.9140    6.1492    2.4879 H   0  0  0  0  0  0  0  0  0  0  0  0
    9.2820    4.2841    0.7524 H   0  0  0  0  0  0  0  0  0  0  0  0
    8.1309    4.1129   -1.3709 H   0  0  0  0  0  0  0  0  0  0  0  0
    7.9769    5.9706    3.6808 H   0  0  0  0  0  0  0  0  0  0  0  0
    6.1312    1.4328    0.8892 H   0  0  0  0  0  0  0  0  0  0  0  0
    6.1260   -0.3584    1.2609 H   0  0  0  0  0  0  0  0  0  0  0  0
    7.5671    0.5923    1.6113 H   0  0  0  0  0  0  0  0  0  0  0  0
  1  2  1  0
  2  3  1  0
  3  4  1  0
  4  5  1  0
  5  6  1  0
  6  7  2  0
  6  8  1  0
  8  9  1  0
  9 10  1  0
 10 11  2  0
 10 12  1  0
 12 13  1  0
 13 14  1  0
 14 15  1  0
 15 16  1  0
 16 17  1  0
 17 18  1  0
 18 19  1  0
 19 20  2  0
 19 21  1  0
 21 22  1  0
 22 23  1  0
 23 24  2  0
 23 25  1  0
 25 26  1  0
 26 27  1  0
 27 28  2  0
 25 29  1  0
 29 30  1  0
 30 31  1  0
 31 32  2  0
 31 33  1  0
 21 34  1  0
 34 35  1  0
 35 36  2  0
 35 37  1  0
 17 38  1  0
 38 39  2  0
 38 40  1  0
 40 41  1  0
 41 42  1  0
 42 43  2  0
 43 44  1  0
 44 45  2  0
 45 46  1  0
 46 47  2  0
 40 48  1  0
 48 49  1  0
 49 50  2  0
 49 51  1  0
 51 52  1  0
 52 53  1  0
 53 54  2  0
 53 55  1  0
 55 56  1  0
 56 57  1  0
 57 58  2  0
 57 59  1  0
 52 60  1  0
 60 61  1  0
 61 62  1  0
 61 63  1  0
  8 64  1  0
 64 65  1  0
 65 66  2  0
 66 67  1  0
 67 68  2  0
 68 69  1  0
 69 70  2  0
 68 71  1  0
  3 72  1  0
 27  4  1  0
 47 42  1  0
 70 65  1  0
  1 73  1  0
  1 74  1  0
  1 75  1  0
  2 76  1  0
  2 77  1  0
  3 78  1  6
  4 79  1  6
  5 80  1  0
  8 81  1  6
  9 82  1  0
 12 83  1  0
 12 84  1  0
 13 85  1  0
 13 86  1  0
 14 87  1  0
 14 88  1  0
 16 89  1  0
 16 90  1  0
 17 91  1  1
 18 92  1  0
 21 93  1  6
 22 94  1  0
 25 95  1  6
 26 96  1  0
 29 97  1  0
 29 98  1  0
 30 99  1  0
 30100  1  0
 33101  1  0
 33102  1  0
 34103  1  0
 34104  1  0
 37105  1  0
 37106  1  0
 41107  1  0
 41108  1  0
 43109  1  0
 44110  1  0
 45111  1  0
 46112  1  0
 47113  1  0
 48114  1  0
 48115  1  0
 51116  1  0
 52117  1  6
 55118  1  0
 56119  1  0
 56120  1  0
 59121  1  0
 59122  1  0
 60123  1  0
 60124  1  0
 61125  1  0
 62126  1  0
 62127  1  0
 62128  1  0
 63129  1  0
 63130  1  0
 63131  1  0
 64132  1  0
 64133  1  0
 66134  1  0
 67135  1  0
 69136  1  0
 70137  1  0
 71138  1  0
 72139  1  0
 72140  1  0
 72141  1  0
M  END
>  <Ligand ID>  (1) 
LIG0001570

>  <Ligand>  (1) 
CHEMBL3354588

>  <SMILES>  (1) 
CC[C@@H]([C@@H]1NC(=O)[C@@H](NC(=O)CCCSC[C@H](NC(=O)[C@@H](NC(=O)[C@@H](NC1=O)CCC(=O)N)CC(=O)N)C(=O)N(Cc1ccccc1)CC(=O)N[C@H](C(=O)NCC(=O)N)CC(C)C)Cc1ccc(cc1)O)C

>  <CID>  (1) 
118720278.0

>  <ChEMBL ID>  (1) 
nan

>  <InChiKey>  (1) 
SKGHLFOXMFVBHN-OTQBRQNKSA-N

>  <InChi>  (1) 
InChI=1S/C48H69N11O12S/c1-5-28(4)42-47(70)55-32(17-18-37(49)61)44(67)56-35(22-38(50)62)45(68)57-36(26-72-19-9-12-40(64)53-34(46(69)58-42)21-29-13-15-31(60)16-14-29)48(71)59(24-30-10-7-6-8-11-30)25-41(65)54-33(20-27(2)3)43(66)52-23-39(51)63/h6-8,10-11,13-16,27-28,32-36,42,60H,5,9,12,17-26H2,1-4H3,(H2,49,61)(H2,50,62)(H2,51,63)(H,52,66)(H,53,64)(H,54,65)(H,55,70)(H,56,67)(H,57,68)(H,58,69)/t28-,32-,33-,34-,35-,36-,42-/m0/s1

>  <IUPAC Name>  (1) 
(3R,6S,9S,12S,15S)-6-(2-amino-2-oxoethyl)-N-[2-[[(2S)-1-[(2-amino-2-oxoethyl)amino]-4-methyl-1-oxopentan-2-yl]amino]-2-oxoethyl]-9-(3-amino-3-oxopropyl)-N-benzyl-12-[(2S)-butan-2-yl]-15-[(4-hydroxyphenyl)methyl]-5,8,11,14,17-pentaoxo-1-thia-4,7,10,13,16-pentazacycloicosane-3-carboxamide

$$$$
