
     RDKit          3D

 48 53  0  0  0  0  0  0  0  0999 V2000
   -3.4746   -2.9938    1.0432 O   0  0  0  0  0  0  0  0  0  0  0  0
   -2.8905   -2.0461    0.4987 C   0  0  0  0  0  0  0  0  0  0  0  0
   -2.9092   -1.8092   -0.9547 C   0  0  0  0  0  0  0  0  0  0  0  0
   -1.5165   -1.6449   -1.4842 C   0  0  0  0  0  0  0  0  0  0  0  0
   -0.4961   -1.1810   -0.5270 C   0  0  2  0  0  0  0  0  0  0  0  0
   -1.0020   -0.4640    0.6995 C   0  0  2  0  0  0  0  0  0  0  0  0
   -2.1390   -1.1117    1.3896 C   0  0  1  0  0  0  0  0  0  0  0  0
   -3.0728   -0.0418    1.6334 O   0  0  0  0  0  0  0  0  0  0  0  0
   -2.8827    0.9649    0.6978 C   0  0  0  0  0  0  0  0  0  0  0  0
   -1.6644    0.7474    0.1496 C   0  0  0  0  0  0  0  0  0  0  0  0
   -1.1012    1.5232   -0.8148 C   0  0  0  0  0  0  0  0  0  0  0  0
    0.2624    1.1337   -1.2811 C   0  0  0  0  0  0  0  0  0  0  0  0
    0.5638   -0.2822   -1.0943 C   0  0  1  0  0  0  0  0  0  0  0  0
    1.7519   -0.5376   -0.3031 N   0  0  0  0  0  0  0  0  0  0  0  0
    1.5128   -0.2940    1.0956 C   0  0  0  0  0  0  0  0  0  0  0  0
    0.1437   -0.0731    1.5659 C   0  0  0  0  0  0  0  0  0  0  0  0
    2.9023    0.1504   -0.8341 C   0  0  0  0  0  0  0  0  0  0  0  0
    4.1995   -0.4127   -0.3758 C   0  0  0  0  0  0  0  0  0  0  0  0
    4.6583   -0.5005    0.9948 C   0  0  0  0  0  0  0  0  0  0  0  0
    5.2683    0.5422    0.0898 C   0  0  0  0  0  0  0  0  0  0  0  0
   -1.7948    2.6064   -1.2853 C   0  0  0  0  0  0  0  0  0  0  0  0
   -3.0422    2.8576   -0.7483 C   0  0  0  0  0  0  0  0  0  0  0  0
   -3.6064    2.0546    0.2415 C   0  0  0  0  0  0  0  0  0  0  0  0
   -4.8591    2.3133    0.7760 O   0  0  0  0  0  0  0  0  0  0  0  0
    0.1642   -2.3350   -0.0400 O   0  0  0  0  0  0  0  0  0  0  0  0
   -3.4800   -0.8995   -1.2602 H   0  0  0  0  0  0  0  0  0  0  0  0
   -3.4097   -2.6637   -1.4592 H   0  0  0  0  0  0  0  0  0  0  0  0
   -1.2178   -2.6417   -1.9278 H   0  0  0  0  0  0  0  0  0  0  0  0
   -1.5334   -0.9698   -2.3905 H   0  0  0  0  0  0  0  0  0  0  0  0
   -1.8862   -1.5692    2.3770 H   0  0  0  0  0  0  0  0  0  0  0  0
    0.3302    1.4987   -2.3369 H   0  0  0  0  0  0  0  0  0  0  0  0
    0.9469    1.7749   -0.6906 H   0  0  0  0  0  0  0  0  0  0  0  0
    0.8162   -0.7133   -2.1103 H   0  0  0  0  0  0  0  0  0  0  0  0
    2.0883    0.6488    1.3143 H   0  0  0  0  0  0  0  0  0  0  0  0
    2.0143   -1.1034    1.6555 H   0  0  0  0  0  0  0  0  0  0  0  0
    0.0022   -0.6479    2.5309 H   0  0  0  0  0  0  0  0  0  0  0  0
   -0.0321    0.9978    1.8909 H   0  0  0  0  0  0  0  0  0  0  0  0
    2.8587    1.2447   -0.5796 H   0  0  0  0  0  0  0  0  0  0  0  0
    2.8587    0.1198   -1.9615 H   0  0  0  0  0  0  0  0  0  0  0  0
    4.6070   -1.2329   -1.0679 H   0  0  0  0  0  0  0  0  0  0  0  0
    5.4152   -1.2925    1.3041 H   0  0  0  0  0  0  0  0  0  0  0  0
    4.1294   -0.1264    1.8592 H   0  0  0  0  0  0  0  0  0  0  0  0
    6.2945    0.3906   -0.2992 H   0  0  0  0  0  0  0  0  0  0  0  0
    5.0314    1.5914    0.3090 H   0  0  0  0  0  0  0  0  0  0  0  0
   -1.3478    3.2261   -2.0560 H   0  0  0  0  0  0  0  0  0  0  0  0
   -3.6064    3.7197   -1.1163 H   0  0  0  0  0  0  0  0  0  0  0  0
   -5.6341    2.0760    0.1372 H   0  0  0  0  0  0  0  0  0  0  0  0
   -0.2209   -2.5945    0.8101 H   0  0  0  0  0  0  0  0  0  0  0  0
  1  2  2  0
  2  3  1  0
  3  4  1  0
  4  5  1  0
  5  6  1  0
  6  7  1  0
  7  8  1  0
  8  9  1  0
  9 10  2  0
 10 11  1  0
 11 12  1  0
 12 13  1  0
 13 14  1  0
 14 15  1  0
 15 16  1  0
 14 17  1  0
 17 18  1  0
 18 19  1  0
 19 20  1  0
 11 21  2  0
 21 22  1  0
 22 23  2  0
 23 24  1  0
  5 25  1  1
  7  2  1  0
 23  9  1  0
 13  5  1  0
 20 18  1  0
  6 16  1  1
 10  6  1  0
  3 26  1  0
  3 27  1  0
  4 28  1  0
  4 29  1  0
  7 30  1  1
 12 31  1  0
 12 32  1  0
 13 33  1  6
 15 34  1  0
 15 35  1  0
 16 36  1  0
 16 37  1  0
 17 38  1  0
 17 39  1  0
 18 40  1  0
 19 41  1  0
 19 42  1  0
 20 43  1  0
 20 44  1  0
 21 45  1  0
 22 46  1  0
 24 47  1  0
 25 48  1  0
M  END
>  <Ligand ID>  (1) 
LIG0000665

>  <Ligand>  (1) 
NALTREXONE

>  <SMILES>  (1) 
O=C1CC[C@@]2([C@@]34[C@H]1Oc1c4c(C[C@H]2N(CC3)CC2CC2)ccc1O)O

>  <CID>  (1) 
5360515.0

>  <ChEMBL ID>  (1) 
nan

>  <InChiKey>  (1) 
DQCKKXVULJGBQN-XFWGSAIBSA-N

>  <InChi>  (1) 
InChI=1S/C20H23NO4/c22-13-4-3-12-9-15-20(24)6-5-14(23)18-19(20,16(12)17(13)25-18)7-8-21(15)10-11-1-2-11/h3-4,11,15,18,22,24H,1-2,5-10H2/t15-,18+,19+,20-/m1/s1

>  <IUPAC Name>  (1) 
(4R,4aS,7aR,12bS)-3-(cyclopropylmethyl)-4a,9-dihydroxy-2,4,5,6,7a,13-hexahydro-1H-4,12-methanobenzofuro[3,2-e]isoquinolin-7-one

$$$$
