
     RDKit          3D

 77 84  0  0  0  0  0  0  0  0999 V2000
   -1.3067   -5.9085   -2.8906 C   0  0  0  0  0  0  0  0  0  0  0  0
   -0.8315   -4.9463   -1.9642 O   0  0  0  0  0  0  0  0  0  0  0  0
   -1.5677   -3.8438   -1.6368 C   0  0  0  0  0  0  0  0  0  0  0  0
   -2.8266   -3.5591   -2.1643 C   0  0  0  0  0  0  0  0  0  0  0  0
   -3.5514   -2.4312   -1.8137 C   0  0  0  0  0  0  0  0  0  0  0  0
   -3.0005   -1.5442   -0.8949 C   0  0  0  0  0  0  0  0  0  0  0  0
   -1.7762   -1.8667   -0.4094 C   0  0  0  0  0  0  0  0  0  0  0  0
   -1.0188   -2.9558   -0.7188 C   0  0  0  0  0  0  0  0  0  0  0  0
    0.1474   -2.8437    0.0156 O   0  0  0  0  0  0  0  0  0  0  0  0
    0.2646   -1.5617    0.5955 C   0  0  2  0  0  0  0  0  0  0  0  0
   -1.1441   -0.9898    0.5910 C   0  0  2  0  0  0  0  0  0  0  0  0
   -1.7967   -1.1473    1.9002 C   0  0  0  0  0  0  0  0  0  0  0  0
   -2.8618   -0.1879    2.2519 C   0  0  0  0  0  0  0  0  0  0  0  0
   -2.9193    0.9296    1.4403 N   0  0  0  0  0  0  0  0  0  0  0  0
   -2.7119    0.7536    0.0401 C   0  0  2  0  0  0  0  0  0  0  0  0
   -3.6428   -0.2863   -0.4748 C   0  0  0  0  0  0  0  0  0  0  0  0
   -1.2259    0.3759   -0.0572 C   0  0  2  0  0  0  0  0  0  0  0  0
   -0.7706    0.3134   -1.4747 C   0  0  0  0  0  0  0  0  0  0  0  0
    0.6170   -0.2459   -1.5042 C   0  0  0  0  0  0  0  0  0  0  0  0
    1.1196   -0.5779   -0.1312 C   0  0  2  0  0  0  0  0  0  0  0  0
    2.4726   -0.8917   -0.1655 O   0  0  0  0  0  0  0  0  0  0  0  0
    2.7732   -2.0794   -0.7731 C   0  0  0  0  0  0  0  0  0  0  0  0
    1.0428    0.7147    0.6946 C   0  0  2  0  0  0  0  0  0  0  0  0
   -0.3606    1.2955    0.7109 C   0  0  0  0  0  0  0  0  0  0  0  0
    2.0408    1.7377    0.2770 C   0  0  0  0  0  0  0  0  0  0  0  0
    3.4045    1.2970    0.3956 N   0  0  0  0  0  0  0  0  0  0  0  0
    4.2628    2.4003   -0.0196 C   0  0  0  0  0  0  0  0  0  0  0  0
    5.6987    2.0588    0.0685 C   0  0  0  0  0  0  0  0  0  0  0  0
    6.4578    2.2616    1.2069 C   0  0  0  0  0  0  0  0  0  0  0  0
    7.7844    1.8985    1.1500 C   0  0  0  0  0  0  0  0  0  0  0  0
    8.3789    1.3521    0.0308 C   0  0  0  0  0  0  0  0  0  0  0  0
    7.6160    1.1491   -1.1113 C   0  0  0  0  0  0  0  0  0  0  0  0
    6.2983    1.5127   -1.0464 C   0  0  0  0  0  0  0  0  0  0  0  0
   -3.5602    2.1144    1.8468 C   0  0  0  0  0  0  0  0  0  0  0  0
   -5.0519    2.0399    1.9823 C   0  0  0  0  0  0  0  0  0  0  0  0
   -5.7027    3.3365    2.4209 C   0  0  0  0  0  0  0  0  0  0  0  0
   -5.9384    2.7993    1.0583 C   0  0  0  0  0  0  0  0  0  0  0  0
   -2.0342   -6.5808   -2.4365 H   0  0  0  0  0  0  0  0  0  0  0  0
   -0.4350   -6.4994   -3.2591 H   0  0  0  0  0  0  0  0  0  0  0  0
   -1.7455   -5.4227   -3.7628 H   0  0  0  0  0  0  0  0  0  0  0  0
   -3.2607   -4.2625   -2.8906 H   0  0  0  0  0  0  0  0  0  0  0  0
   -4.5264   -2.2115   -2.2238 H   0  0  0  0  0  0  0  0  0  0  0  0
    0.6644   -1.6507    1.6219 H   0  0  0  0  0  0  0  0  0  0  0  0
   -1.0613   -1.2432    2.7512 H   0  0  0  0  0  0  0  0  0  0  0  0
   -2.2881   -2.1771    1.8943 H   0  0  0  0  0  0  0  0  0  0  0  0
   -2.7424    0.1572    3.3174 H   0  0  0  0  0  0  0  0  0  0  0  0
   -3.8873   -0.6737    2.2654 H   0  0  0  0  0  0  0  0  0  0  0  0
   -2.8672    1.6987   -0.4777 H   0  0  0  0  0  0  0  0  0  0  0  0
   -4.2833    0.1218   -1.3215 H   0  0  0  0  0  0  0  0  0  0  0  0
   -4.3828   -0.5675    0.3172 H   0  0  0  0  0  0  0  0  0  0  0  0
   -1.4375   -0.1819   -2.1773 H   0  0  0  0  0  0  0  0  0  0  0  0
   -0.7238    1.3884   -1.8291 H   0  0  0  0  0  0  0  0  0  0  0  0
    1.3228    0.4697   -1.9580 H   0  0  0  0  0  0  0  0  0  0  0  0
    0.6056   -1.1235   -2.1835 H   0  0  0  0  0  0  0  0  0  0  0  0
    2.4601   -2.1490   -1.8339 H   0  0  0  0  0  0  0  0  0  0  0  0
    2.4633   -2.9735   -0.2352 H   0  0  0  0  0  0  0  0  0  0  0  0
    3.9011   -2.1322   -0.8220 H   0  0  0  0  0  0  0  0  0  0  0  0
    1.3099    0.3961    1.7385 H   0  0  0  0  0  0  0  0  0  0  0  0
   -0.3411    2.2903    0.1917 H   0  0  0  0  0  0  0  0  0  0  0  0
   -0.6956    1.4152    1.7753 H   0  0  0  0  0  0  0  0  0  0  0  0
    1.9204    2.6748    0.8560 H   0  0  0  0  0  0  0  0  0  0  0  0
    1.8434    2.0543   -0.7901 H   0  0  0  0  0  0  0  0  0  0  0  0
    3.6117    1.1161    1.4100 H   0  0  0  0  0  0  0  0  0  0  0  0
    3.9711    2.6673   -1.0408 H   0  0  0  0  0  0  0  0  0  0  0  0
    4.0865    3.3030    0.6007 H   0  0  0  0  0  0  0  0  0  0  0  0
    5.9944    2.6925    2.0948 H   0  0  0  0  0  0  0  0  0  0  0  0
    8.4112    2.0442    2.0284 H   0  0  0  0  0  0  0  0  0  0  0  0
    9.4287    1.0745    0.0138 H   0  0  0  0  0  0  0  0  0  0  0  0
    8.0878    0.7188   -1.9907 H   0  0  0  0  0  0  0  0  0  0  0  0
    5.7000    1.3492   -1.9535 H   0  0  0  0  0  0  0  0  0  0  0  0
   -3.3659    2.8867    1.0447 H   0  0  0  0  0  0  0  0  0  0  0  0
   -3.0784    2.5119    2.7646 H   0  0  0  0  0  0  0  0  0  0  0  0
   -5.4145    1.1111    2.4711 H   0  0  0  0  0  0  0  0  0  0  0  0
   -5.0730    4.2710    2.4393 H   0  0  0  0  0  0  0  0  0  0  0  0
   -6.4712    3.2694    3.2154 H   0  0  0  0  0  0  0  0  0  0  0  0
   -6.9397    2.3602    0.8800 H   0  0  0  0  0  0  0  0  0  0  0  0
   -5.5408    3.3334    0.1876 H   0  0  0  0  0  0  0  0  0  0  0  0
  1  2  1  0
  2  3  1  0
  3  4  2  0
  4  5  1  0
  5  6  2  0
  6  7  1  0
  7  8  2  0
  8  9  1  0
  9 10  1  0
 10 11  1  0
 11 12  1  1
 12 13  1  0
 13 14  1  0
 14 15  1  0
 15 16  1  0
 15 17  1  0
 17 18  1  6
 18 19  1  0
 19 20  1  0
 20 21  1  6
 21 22  1  0
 20 23  1  0
 23 24  1  0
 23 25  1  0
 25 26  1  0
 26 27  1  0
 27 28  1  0
 28 29  2  0
 29 30  1  0
 30 31  2  0
 31 32  1  0
 32 33  2  0
 14 34  1  0
 34 35  1  0
 35 36  1  0
 36 37  1  0
  8  3  1  0
 20 10  1  0
 33 28  1  0
 37 35  1  0
 16  6  1  0
 24 17  1  0
 11  7  1  0
 17 11  1  0
  1 38  1  0
  1 39  1  0
  1 40  1  0
  4 41  1  0
  5 42  1  0
 10 43  1  1
 12 44  1  0
 12 45  1  0
 13 46  1  0
 13 47  1  0
 15 48  1  6
 16 49  1  0
 16 50  1  0
 18 51  1  0
 18 52  1  0
 19 53  1  0
 19 54  1  0
 22 55  1  0
 22 56  1  0
 22 57  1  0
 23 58  1  1
 24 59  1  0
 24 60  1  0
 25 61  1  0
 25 62  1  0
 26 63  1  0
 27 64  1  0
 27 65  1  0
 29 66  1  0
 30 67  1  0
 31 68  1  0
 32 69  1  0
 33 70  1  0
 34 71  1  0
 34 72  1  0
 35 73  1  0
 36 74  1  0
 36 75  1  0
 37 76  1  0
 37 77  1  0
M  END
>  <Ligand ID>  (1) 
LIG0004770

>  <Ligand>  (1) 
SCHEMBL15486004

>  <SMILES>  (1) 
COc1ccc2c3c1O[C@@H]1[C@@]43CCN([C@H](C2)[C@@]24CC[C@@]1(OC)[C@H](C2)CNCc1ccccc1)CC1CC1

>  <CID>  (1) 
86711651.0

>  <ChEMBL ID>  (1) 
nan

>  <InChiKey>  (1) 
PGANIOBIXBHMAK-BUVWRSTLSA-N

>  <InChi>  (1) 
InChI=1S/C32H40N2O3/c1-35-25-11-10-23-16-26-30-12-13-32(36-2,24(17-30)19-33-18-21-6-4-3-5-7-21)29-31(30,27(23)28(25)37-29)14-15-34(26)20-22-8-9-22/h3-7,10-11,22,24,26,29,33H,8-9,12-20H2,1-2H3/t24-,26-,29-,30-,31+,32-/m1/s1

>  <IUPAC Name>  (1) 
N-benzyl-1-[(1S,2S,6R,14R,15R,16R)-5-(cyclopropylmethyl)-11,15-dimethoxy-13-oxa-5-azahexacyclo[13.2.2.12,8.01,6.02,14.012,20]icosa-8(20),9,11-trien-16-yl]methanamine

$$$$
