
     RDKit          3D

 24 25  0  0  0  0  0  0  0  0999 V2000
   -2.9308   -0.0800    0.5749 N   0  0  0  0  0  0  0  0  0  0  0  0
   -2.3133   -1.2326   -0.0605 C   0  0  0  0  0  0  0  0  0  0  0  0
   -1.5587   -0.7089   -1.2758 C   0  0  0  0  0  0  0  0  0  0  0  0
   -0.5242    0.2789   -0.8603 C   0  0  0  0  0  0  0  0  0  0  0  0
   -0.6066    1.6501   -0.9433 C   0  0  0  0  0  0  0  0  0  0  0  0
    0.4985    2.2386   -0.4620 N   0  0  0  0  0  0  0  0  0  0  0  0
    1.3136    1.2422   -0.0599 C   0  0  0  0  0  0  0  0  0  0  0  0
    0.7149    0.0200   -0.2908 C   0  0  0  0  0  0  0  0  0  0  0  0
    1.3659   -1.1714    0.0396 C   0  0  0  0  0  0  0  0  0  0  0  0
    2.6193   -1.1637    0.6033 C   0  0  0  0  0  0  0  0  0  0  0  0
    3.3074   -2.2704    0.9485 F   0  0  0  0  0  0  0  0  0  0  0  0
    3.2111    0.0524    0.8321 C   0  0  0  0  0  0  0  0  0  0  0  0
    2.5770    1.2543    0.5091 C   0  0  0  0  0  0  0  0  0  0  0  0
   -3.1106   -0.2897    1.5654 H   0  0  0  0  0  0  0  0  0  0  0  0
   -3.7799    0.2365    0.0700 H   0  0  0  0  0  0  0  0  0  0  0  0
   -1.6643   -1.8173    0.6015 H   0  0  0  0  0  0  0  0  0  0  0  0
   -3.1058   -1.8971   -0.4571 H   0  0  0  0  0  0  0  0  0  0  0  0
   -1.0338   -1.6101   -1.6847 H   0  0  0  0  0  0  0  0  0  0  0  0
   -2.2892   -0.2944   -1.9879 H   0  0  0  0  0  0  0  0  0  0  0  0
   -1.4982    2.1353   -1.3621 H   0  0  0  0  0  0  0  0  0  0  0  0
    0.6758    3.2679   -0.4157 H   0  0  0  0  0  0  0  0  0  0  0  0
    0.8876   -2.1427   -0.1456 H   0  0  0  0  0  0  0  0  0  0  0  0
    4.2152    0.0949    1.2821 H   0  0  0  0  0  0  0  0  0  0  0  0
    3.0292    2.2071    0.6822 H   0  0  0  0  0  0  0  0  0  0  0  0
  1  2  1  0
  2  3  1  0
  3  4  1  0
  4  5  2  0
  5  6  1  0
  6  7  1  0
  7  8  2  0
  8  9  1  0
  9 10  2  0
 10 11  1  0
 10 12  1  0
 12 13  2  0
  8  4  1  0
 13  7  1  0
  1 14  1  0
  1 15  1  0
  2 16  1  0
  2 17  1  0
  3 18  1  0
  3 19  1  0
  5 20  1  0
  6 21  1  0
  9 22  1  0
 12 23  1  0
 13 24  1  0
M  END
>  <Ligand ID>  (1) 
LIG0002793

>  <Ligand>  (1) 
5-fluorotryptamine

>  <SMILES>  (1) 
NCCc1c[nH]c2c1cc(F)cc2

>  <CID>  (1) 
164682.0

>  <ChEMBL ID>  (1) 
nan

>  <InChiKey>  (1) 
ZKIORVIXEWIOGB-UHFFFAOYSA-N

>  <InChi>  (1) 
InChI=1S/C10H11FN2/c11-8-1-2-10-9(5-8)7(3-4-12)6-13-10/h1-2,5-6,13H,3-4,12H2

>  <IUPAC Name>  (1) 
2-(5-fluoro-1H-indol-3-yl)ethanamine

$$$$
