
     RDKit          3D

 44 46  0  0  0  0  0  0  0  0999 V2000
   -1.2309   -0.5836   -1.9986 S   0  0  0  0  0  0  0  0  0  0  0  0
   -0.5711    0.1269   -0.6670 C   0  0  0  0  0  0  0  0  0  0  0  0
    0.8365    0.4622   -0.7293 N   0  0  0  0  0  0  0  0  0  0  0  0
    1.3766    1.0819    0.4619 C   0  0  0  0  0  0  0  0  0  0  0  0
    2.7395    1.5932    0.1899 C   0  0  0  0  0  0  0  0  0  0  0  0
    3.6728    0.6775   -0.5365 C   0  0  0  0  0  0  0  0  0  0  0  0
    3.0575   -0.0925   -1.6519 C   0  0  0  0  0  0  0  0  0  0  0  0
    1.6121    0.1854   -1.9049 C   0  0  0  0  0  0  0  0  0  0  0  0
    4.3115   -0.2617    0.4258 C   0  0  0  0  0  0  0  0  0  0  0  0
    3.6758   -1.2732    1.1513 C   0  0  0  0  0  0  0  0  0  0  0  0
    4.6011   -1.9074    1.9172 N   0  0  0  0  0  0  0  0  0  0  0  0
    5.7838   -1.3279    1.6938 C   0  0  0  0  0  0  0  0  0  0  0  0
    5.6027   -0.3448    0.8010 N   0  0  0  0  0  0  0  0  0  0  0  0
   -1.3382    0.3979    0.4904 N   0  0  0  0  0  0  0  0  0  0  0  0
   -2.7452    0.0949    0.6278 C   0  0  0  0  0  0  0  0  0  0  0  0
   -3.0739   -1.3479    0.4549 C   0  0  0  0  0  0  0  0  0  0  0  0
   -4.5379   -1.4804    0.0298 C   0  0  0  0  0  0  0  0  0  0  0  0
   -5.2900   -0.3358    0.6730 C   0  0  0  0  0  0  0  0  0  0  0  0
   -4.9852    0.9905   -0.0056 C   0  0  0  0  0  0  0  0  0  0  0  0
   -3.5136    0.8809   -0.4294 C   0  0  0  0  0  0  0  0  0  0  0  0
    1.2719    0.4683    1.3686 H   0  0  0  0  0  0  0  0  0  0  0  0
    0.7428    1.9968    0.6634 H   0  0  0  0  0  0  0  0  0  0  0  0
    2.6946    2.5814   -0.3146 H   0  0  0  0  0  0  0  0  0  0  0  0
    3.2134    1.7944    1.1954 H   0  0  0  0  0  0  0  0  0  0  0  0
    4.4863    1.3348   -0.9139 H   0  0  0  0  0  0  0  0  0  0  0  0
    3.1710   -1.1905   -1.4909 H   0  0  0  0  0  0  0  0  0  0  0  0
    3.6038    0.1145   -2.5998 H   0  0  0  0  0  0  0  0  0  0  0  0
    1.4707    1.0442   -2.5989 H   0  0  0  0  0  0  0  0  0  0  0  0
    1.1201   -0.6833   -2.3954 H   0  0  0  0  0  0  0  0  0  0  0  0
    2.6485   -1.5431    1.1436 H   0  0  0  0  0  0  0  0  0  0  0  0
    6.7635   -1.5474    2.1137 H   0  0  0  0  0  0  0  0  0  0  0  0
    6.3445    0.2982    0.4190 H   0  0  0  0  0  0  0  0  0  0  0  0
   -0.8224    0.8529    1.2938 H   0  0  0  0  0  0  0  0  0  0  0  0
   -3.0670    0.3927    1.6496 H   0  0  0  0  0  0  0  0  0  0  0  0
   -3.0320   -1.8482    1.4586 H   0  0  0  0  0  0  0  0  0  0  0  0
   -2.4124   -1.9283   -0.1864 H   0  0  0  0  0  0  0  0  0  0  0  0
   -4.5675   -1.4662   -1.0674 H   0  0  0  0  0  0  0  0  0  0  0  0
   -4.9633   -2.4419    0.3422 H   0  0  0  0  0  0  0  0  0  0  0  0
   -5.0004   -0.2538    1.7257 H   0  0  0  0  0  0  0  0  0  0  0  0
   -6.3727   -0.5369    0.5353 H   0  0  0  0  0  0  0  0  0  0  0  0
   -5.5715    1.0583   -0.9311 H   0  0  0  0  0  0  0  0  0  0  0  0
   -5.1529    1.8465    0.6465 H   0  0  0  0  0  0  0  0  0  0  0  0
   -3.5239    0.2608   -1.3473 H   0  0  0  0  0  0  0  0  0  0  0  0
   -3.0289    1.8597   -0.5280 H   0  0  0  0  0  0  0  0  0  0  0  0
  1  2  2  0
  2  3  1  0
  3  4  1  0
  4  5  1  0
  5  6  1  0
  6  7  1  0
  7  8  1  0
  6  9  1  0
  9 10  2  0
 10 11  1  0
 11 12  2  0
 12 13  1  0
  2 14  1  0
 14 15  1  0
 15 16  1  0
 16 17  1  0
 17 18  1  0
 18 19  1  0
 19 20  1  0
  8  3  1  0
 13  9  1  0
 20 15  1  0
  4 21  1  0
  4 22  1  0
  5 23  1  0
  5 24  1  0
  6 25  1  0
  7 26  1  0
  7 27  1  0
  8 28  1  0
  8 29  1  0
 10 30  1  0
 12 31  1  0
 13 32  1  0
 14 33  1  0
 15 34  1  0
 16 35  1  0
 16 36  1  0
 17 37  1  0
 17 38  1  0
 18 39  1  0
 18 40  1  0
 19 41  1  0
 19 42  1  0
 20 43  1  0
 20 44  1  0
M  END
>  <Ligand ID>  (1) 
LIG0003065

>  <Ligand>  (1) 
Thioperamide

>  <SMILES>  (1) 
S=C(N1CCC(CC1)c1cnc[nH]1)NC1CCCCC1

>  <CID>  (1) 
3035905.0

>  <ChEMBL ID>  (1) 
nan

>  <InChiKey>  (1) 
QKDDJDBFONZGBW-UHFFFAOYSA-N

>  <InChi>  (1) 
InChI=1S/C15H24N4S/c20-15(18-13-4-2-1-3-5-13)19-8-6-12(7-9-19)14-10-16-11-17-14/h10-13H,1-9H2,(H,16,17)(H,18,20)

>  <IUPAC Name>  (1) 
N-cyclohexyl-4-(1H-imidazol-5-yl)piperidine-1-carbothioamide

$$$$
