
     RDKit          3D

186194  0  0  0  0  0  0  0  0999 V2000
   -8.4688    5.5792   -3.4926 O   0  0  0  0  0  0  0  0  0  0  0  0
   -7.4074    4.9790   -2.8247 C   0  0  0  0  0  0  0  0  0  0  0  0
   -6.5968    5.7238   -1.9653 C   0  0  0  0  0  0  0  0  0  0  0  0
   -5.5367    5.1693   -1.2932 C   0  0  0  0  0  0  0  0  0  0  0  0
   -5.2772    3.8358   -1.4777 C   0  0  0  0  0  0  0  0  0  0  0  0
   -6.0814    3.0709   -2.3341 C   0  0  0  0  0  0  0  0  0  0  0  0
   -7.1409    3.6194   -3.0118 C   0  0  0  0  0  0  0  0  0  0  0  0
   -4.1054    3.1876   -0.8618 C   0  0  0  0  0  0  0  0  0  0  0  0
   -4.3849    2.6882    0.5195 C   0  0  2  0  0  0  0  0  0  0  0  0
   -3.2465    2.0109    1.0804 N   0  0  0  0  0  0  0  0  0  0  0  0
   -3.0004    0.7108    0.4937 C   0  0  0  0  0  0  0  0  0  0  0  0
   -2.0666    0.1565    1.0453 O   0  0  0  0  0  0  0  0  0  0  0  0
   -3.7351    0.0985   -0.5879 C   0  0  0  0  0  0  0  0  0  0  0  0
   -4.0100   -1.3501   -0.5913 C   0  0  2  0  0  0  0  0  0  0  0  0
   -4.7205   -1.9203    0.4978 N   0  0  0  0  0  0  0  0  0  0  0  0
   -5.9705   -2.5716    0.2074 C   0  0  0  0  0  0  0  0  0  0  0  0
   -6.4270   -2.6564   -0.9703 O   0  0  0  0  0  0  0  0  0  0  0  0
   -6.8470   -3.2012    1.2488 C   0  0  2  0  0  0  0  0  0  0  0  0
   -8.2518   -2.8426    0.8921 C   0  0  0  0  0  0  0  0  0  0  0  0
   -9.3173   -3.3510    1.7502 C   0  0  0  0  0  0  0  0  0  0  0  0
   -9.8534   -2.6875    2.8403 C   0  0  0  0  0  0  0  0  0  0  0  0
  -10.8909   -3.2359    3.5712 C   0  0  0  0  0  0  0  0  0  0  0  0
  -11.4102   -4.4686    3.2145 C   0  0  0  0  0  0  0  0  0  0  0  0
  -10.9051   -5.1512    2.1445 C   0  0  0  0  0  0  0  0  0  0  0  0
   -9.8668   -4.6003    1.4150 C   0  0  0  0  0  0  0  0  0  0  0  0
  -12.4519   -5.0244    3.9449 O   0  0  0  0  0  0  0  0  0  0  0  0
   -6.4419   -2.9202    2.5746 N   0  0  0  0  0  0  0  0  0  0  0  0
   -3.0495   -2.2454   -1.2712 C   0  0  0  0  0  0  0  0  0  0  0  0
   -2.3668   -1.8814   -2.2431 O   0  0  0  0  0  0  0  0  0  0  0  0
   -2.8252   -3.6103   -0.8506 N   0  0  0  0  0  0  0  0  0  0  0  0
   -2.1765   -4.6346   -1.6121 C   0  0  1  0  0  0  0  0  0  0  0  0
   -2.4915   -4.5197   -3.0916 C   0  0  0  0  0  0  0  0  0  0  0  0
   -1.8732   -5.6070   -3.8595 C   0  0  0  0  0  0  0  0  0  0  0  0
   -0.7033   -5.7188   -4.4983 N   0  0  0  0  0  0  0  0  0  0  0  0
   -0.6179   -6.9395   -5.0622 C   0  0  0  0  0  0  0  0  0  0  0  0
   -1.7386   -7.6461   -4.7974 N   0  0  0  0  0  0  0  0  0  0  0  0
   -2.5250   -6.8391   -4.0549 C   0  0  0  0  0  0  0  0  0  0  0  0
   -0.8751   -5.1067   -1.3046 C   0  0  0  0  0  0  0  0  0  0  0  0
   -0.3130   -5.9856   -2.0060 O   0  0  0  0  0  0  0  0  0  0  0  0
   -0.0207   -4.6922   -0.1947 N   0  0  0  0  0  0  0  0  0  0  0  0
    1.3166   -5.2895   -0.1211 C   0  0  2  0  0  0  0  0  0  0  0  0
    1.0917   -6.6603    0.6265 C   0  0  0  0  0  0  0  0  0  0  0  0
    2.3240   -7.4185    0.7905 C   0  0  0  0  0  0  0  0  0  0  0  0
    2.6183   -8.3816   -0.1803 C   0  0  0  0  0  0  0  0  0  0  0  0
    3.7764   -9.1415   -0.1085 C   0  0  0  0  0  0  0  0  0  0  0  0
    4.6552   -8.9475    0.9378 C   0  0  0  0  0  0  0  0  0  0  0  0
    4.3366   -7.9817    1.8896 C   0  0  0  0  0  0  0  0  0  0  0  0
    3.2150   -7.2200    1.8508 C   0  0  0  0  0  0  0  0  0  0  0  0
    2.2757   -4.5702    0.6989 C   0  0  0  0  0  0  0  0  0  0  0  0
    1.8632   -3.8023    1.6048 O   0  0  0  0  0  0  0  0  0  0  0  0
    3.7065   -4.5991    0.6145 N   0  0  0  0  0  0  0  0  0  0  0  0
    4.5573   -5.1096   -0.3959 C   0  0  0  0  0  0  0  0  0  0  0  0
    5.8968   -5.3178    0.1987 C   0  0  0  0  0  0  0  0  0  0  0  0
    5.8723   -4.6808    1.5445 C   0  0  0  0  0  0  0  0  0  0  0  0
    4.5284   -3.9785    1.6299 C   0  0  1  0  0  0  0  0  0  0  0  0
    4.7197   -2.5546    1.5908 C   0  0  0  0  0  0  0  0  0  0  0  0
    3.8795   -1.8123    2.1774 O   0  0  0  0  0  0  0  0  0  0  0  0
    5.7711   -1.8182    0.9571 N   0  0  0  0  0  0  0  0  0  0  0  0
    5.8291   -0.3375    1.0576 C   0  0  2  0  0  0  0  0  0  0  0  0
    6.1690    0.3817   -0.1544 C   0  0  0  0  0  0  0  0  0  0  0  0
    6.7929   -0.0390   -1.1475 O   0  0  0  0  0  0  0  0  0  0  0  0
    5.7388    1.7374   -0.2764 N   0  0  0  0  0  0  0  0  0  0  0  0
    6.1174    2.6614   -1.3211 C   0  0  2  0  0  0  0  0  0  0  0  0
    5.8133    4.0592   -0.9079 C   0  0  0  0  0  0  0  0  0  0  0  0
    6.6227    4.9674   -0.7282 O   0  0  0  0  0  0  0  0  0  0  0  0
    4.4204    4.4503   -0.7017 N   0  0  0  0  0  0  0  0  0  0  0  0
    4.0857    5.7297   -0.1224 C   0  0  2  0  0  0  0  0  0  0  0  0
    2.7308    5.8073    0.3893 C   0  0  0  0  0  0  0  0  0  0  0  0
    2.2883    6.7461    1.0757 O   0  0  0  0  0  0  0  0  0  0  0  0
    1.7137    4.7879    0.1599 N   0  0  0  0  0  0  0  0  0  0  0  0
    0.3786    4.8819    0.6647 C   0  0  2  0  0  0  0  0  0  0  0  0
   -0.2342    3.6051    1.1157 C   0  0  0  0  0  0  0  0  0  0  0  0
    0.2884    2.4932    1.0914 O   0  0  0  0  0  0  0  0  0  0  0  0
   -1.5621    3.6759    1.6188 N   0  0  0  0  0  0  0  0  0  0  0  0
   -2.3935    2.6266    2.0789 C   0  0  0  0  0  0  0  0  0  0  0  0
   -1.9142    1.7530    3.1844 C   0  0  0  0  0  0  0  0  0  0  0  0
   -3.4940    3.4301    2.8785 C   0  0  0  0  0  0  0  0  0  0  0  0
   -4.3758    2.7594    3.4602 O   0  0  0  0  0  0  0  0  0  0  0  0
   -3.4479    4.8047    2.9090 O   0  0  0  0  0  0  0  0  0  0  0  0
   -0.4737    5.2944   -0.5743 C   0  0  0  0  0  0  0  0  0  0  0  0
    0.0371    6.5788   -1.0827 C   0  0  0  0  0  0  0  0  0  0  0  0
   -0.4815    7.7388   -0.5242 C   0  0  0  0  0  0  0  0  0  0  0  0
   -0.0363    8.9195   -0.9998 C   0  0  0  0  0  0  0  0  0  0  0  0
    0.9080    9.0009   -2.0199 C   0  0  0  0  0  0  0  0  0  0  0  0
    1.3944    7.8104   -2.5439 C   0  0  0  0  0  0  0  0  0  0  0  0
    0.9672    6.5664   -2.0845 C   0  0  0  0  0  0  0  0  0  0  0  0
    4.3380    6.8561   -1.1441 C   0  0  0  0  0  0  0  0  0  0  0  0
    5.3191    2.3611   -2.6068 C   0  0  0  0  0  0  0  0  0  0  0  0
    5.7886    3.3856   -3.5751 C   0  0  0  0  0  0  0  0  0  0  0  0
    5.4261    4.5700   -3.6078 O   0  0  0  0  0  0  0  0  0  0  0  0
    6.7571    3.0071   -4.5974 N   0  0  0  0  0  0  0  0  0  0  0  0
    6.8577   -0.0157    2.1334 C   0  0  0  0  0  0  0  0  0  0  0  0
    7.1272    1.3771    2.3634 C   0  0  0  0  0  0  0  0  0  0  0  0
    6.5760    2.2225    3.3145 C   0  0  0  0  0  0  0  0  0  0  0  0
    7.1134    3.4337    3.1750 N   0  0  0  0  0  0  0  0  0  0  0  0
    8.0006    3.4762    2.1879 C   0  0  0  0  0  0  0  0  0  0  0  0
    8.0216    2.1886    1.6650 C   0  0  0  0  0  0  0  0  0  0  0  0
    8.9006    1.9627    0.6052 C   0  0  0  0  0  0  0  0  0  0  0  0
    9.7163    2.9212    0.0768 C   0  0  0  0  0  0  0  0  0  0  0  0
    9.6829    4.2135    0.6208 C   0  0  0  0  0  0  0  0  0  0  0  0
    8.8220    4.4839    1.6765 C   0  0  0  0  0  0  0  0  0  0  0  0
   -5.6838    2.0643    0.7150 C   0  0  0  0  0  0  0  0  0  0  0  0
   -6.7604    2.5017    0.2269 O   0  0  0  0  0  0  0  0  0  0  0  0
   -5.8408    0.8586    1.5065 N   0  0  0  0  0  0  0  0  0  0  0  0
   -9.4372    5.4146   -3.2272 H   0  0  0  0  0  0  0  0  0  0  0  0
   -6.7976    6.7813   -1.8055 H   0  0  0  0  0  0  0  0  0  0  0  0
   -4.9043    5.7655   -0.6124 H   0  0  0  0  0  0  0  0  0  0  0  0
   -5.8823    2.0009   -2.4878 H   0  0  0  0  0  0  0  0  0  0  0  0
   -7.7309    2.9930   -3.6583 H   0  0  0  0  0  0  0  0  0  0  0  0
   -3.6499    2.5000   -1.5731 H   0  0  0  0  0  0  0  0  0  0  0  0
   -3.3264    4.0430   -0.7520 H   0  0  0  0  0  0  0  0  0  0  0  0
   -4.4255    3.7000    1.1228 H   0  0  0  0  0  0  0  0  0  0  0  0
   -4.6425    0.6889   -0.9086 H   0  0  0  0  0  0  0  0  0  0  0  0
   -3.0558    0.2694   -1.5168 H   0  0  0  0  0  0  0  0  0  0  0  0
   -4.8584   -1.3889   -1.4491 H   0  0  0  0  0  0  0  0  0  0  0  0
   -4.4386   -1.9248    1.4945 H   0  0  0  0  0  0  0  0  0  0  0  0
   -6.7032   -4.3124    1.0916 H   0  0  0  0  0  0  0  0  0  0  0  0
   -8.3648   -1.7115    0.9093 H   0  0  0  0  0  0  0  0  0  0  0  0
   -8.4255   -3.0891   -0.1901 H   0  0  0  0  0  0  0  0  0  0  0  0
   -9.4203   -1.7246    3.0741 H   0  0  0  0  0  0  0  0  0  0  0  0
  -11.2574   -2.6694    4.3984 H   0  0  0  0  0  0  0  0  0  0  0  0
  -11.2859   -6.1327    1.8166 H   0  0  0  0  0  0  0  0  0  0  0  0
   -9.4590   -5.1541    0.5538 H   0  0  0  0  0  0  0  0  0  0  0  0
  -13.3765   -5.0499    3.4817 H   0  0  0  0  0  0  0  0  0  0  0  0
   -7.0549   -2.2380    3.0866 H   0  0  0  0  0  0  0  0  0  0  0  0
   -6.2352   -3.7729    3.1345 H   0  0  0  0  0  0  0  0  0  0  0  0
   -3.1880   -3.7995    0.0915 H   0  0  0  0  0  0  0  0  0  0  0  0
   -2.8883   -5.5651   -1.3624 H   0  0  0  0  0  0  0  0  0  0  0  0
   -2.0980   -3.5499   -3.4748 H   0  0  0  0  0  0  0  0  0  0  0  0
   -3.6082   -4.5925   -3.2348 H   0  0  0  0  0  0  0  0  0  0  0  0
    0.0228   -4.9918   -4.5509 H   0  0  0  0  0  0  0  0  0  0  0  0
    0.2240   -7.2591   -5.6300 H   0  0  0  0  0  0  0  0  0  0  0  0
   -3.5026   -7.1243   -3.6702 H   0  0  0  0  0  0  0  0  0  0  0  0
   -0.4253   -4.0268    0.4273 H   0  0  0  0  0  0  0  0  0  0  0  0
    1.6528   -5.6178   -1.0960 H   0  0  0  0  0  0  0  0  0  0  0  0
    0.5741   -6.4493    1.5777 H   0  0  0  0  0  0  0  0  0  0  0  0
    0.3792   -7.2315   -0.0004 H   0  0  0  0  0  0  0  0  0  0  0  0
    1.9312   -8.5498   -1.0033 H   0  0  0  0  0  0  0  0  0  0  0  0
    3.9749   -9.8947   -0.8934 H   0  0  0  0  0  0  0  0  0  0  0  0
    5.5655   -9.5187    1.0234 H   0  0  0  0  0  0  0  0  0  0  0  0
    5.0386   -7.8347    2.7011 H   0  0  0  0  0  0  0  0  0  0  0  0
    2.9476   -6.4597    2.5878 H   0  0  0  0  0  0  0  0  0  0  0  0
    4.6969   -4.3629   -1.2336 H   0  0  0  0  0  0  0  0  0  0  0  0
    4.2230   -6.0833   -0.8467 H   0  0  0  0  0  0  0  0  0  0  0  0
    6.1684   -6.4059    0.2811 H   0  0  0  0  0  0  0  0  0  0  0  0
    6.6694   -4.8388   -0.4548 H   0  0  0  0  0  0  0  0  0  0  0  0
    6.7412   -4.0011    1.6427 H   0  0  0  0  0  0  0  0  0  0  0  0
    5.9625   -5.4495    2.3585 H   0  0  0  0  0  0  0  0  0  0  0  0
    4.0200   -4.2477    2.6016 H   0  0  0  0  0  0  0  0  0  0  0  0
    6.4512   -2.3703    0.4500 H   0  0  0  0  0  0  0  0  0  0  0  0
    4.8479   -0.0408    1.4741 H   0  0  0  0  0  0  0  0  0  0  0  0
    5.0945    2.0631    0.4467 H   0  0  0  0  0  0  0  0  0  0  0  0
    7.1414    2.4550   -1.6229 H   0  0  0  0  0  0  0  0  0  0  0  0
    3.7661    3.7305   -1.0208 H   0  0  0  0  0  0  0  0  0  0  0  0
    4.8312    5.9099    0.6749 H   0  0  0  0  0  0  0  0  0  0  0  0
    2.0058    3.9998   -0.3860 H   0  0  0  0  0  0  0  0  0  0  0  0
    0.2092    5.6309    1.4501 H   0  0  0  0  0  0  0  0  0  0  0  0
   -1.9376    4.6536    1.6296 H   0  0  0  0  0  0  0  0  0  0  0  0
   -2.7779    1.2934    3.6939 H   0  0  0  0  0  0  0  0  0  0  0  0
   -1.1066    1.0452    2.9342 H   0  0  0  0  0  0  0  0  0  0  0  0
   -1.4623    2.4211    3.9566 H   0  0  0  0  0  0  0  0  0  0  0  0
   -4.1667    5.3713    3.3785 H   0  0  0  0  0  0  0  0  0  0  0  0
   -1.5236    5.4035   -0.2036 H   0  0  0  0  0  0  0  0  0  0  0  0
   -0.4495    4.5337   -1.3413 H   0  0  0  0  0  0  0  0  0  0  0  0
   -1.2319    7.6861    0.2771 H   0  0  0  0  0  0  0  0  0  0  0  0
   -0.4056    9.8565   -0.5970 H   0  0  0  0  0  0  0  0  0  0  0  0
    1.2899    9.8991   -2.4297 H   0  0  0  0  0  0  0  0  0  0  0  0
    2.1250    7.8073   -3.3327 H   0  0  0  0  0  0  0  0  0  0  0  0
    1.3510    5.6463   -2.5008 H   0  0  0  0  0  0  0  0  0  0  0  0
    3.6895    7.7125   -0.8037 H   0  0  0  0  0  0  0  0  0  0  0  0
    4.0884    6.4921   -2.1308 H   0  0  0  0  0  0  0  0  0  0  0  0
    5.4141    7.1293   -1.1145 H   0  0  0  0  0  0  0  0  0  0  0  0
    4.2540    2.4093   -2.4191 H   0  0  0  0  0  0  0  0  0  0  0  0
    5.6843    1.3769   -2.9600 H   0  0  0  0  0  0  0  0  0  0  0  0
    6.3723    2.7554   -5.5538 H   0  0  0  0  0  0  0  0  0  0  0  0
    7.7733    2.9918   -4.3755 H   0  0  0  0  0  0  0  0  0  0  0  0
    6.5732   -0.5676    3.0885 H   0  0  0  0  0  0  0  0  0  0  0  0
    7.8322   -0.5088    1.8124 H   0  0  0  0  0  0  0  0  0  0  0  0
    5.8467    1.9080    4.0108 H   0  0  0  0  0  0  0  0  0  0  0  0
    6.8799    4.2708    3.7668 H   0  0  0  0  0  0  0  0  0  0  0  0
    8.9769    0.9598    0.1480 H   0  0  0  0  0  0  0  0  0  0  0  0
   10.3998    2.7854   -0.7346 H   0  0  0  0  0  0  0  0  0  0  0  0
   10.3221    4.9978    0.2320 H   0  0  0  0  0  0  0  0  0  0  0  0
    8.7679    5.4605    2.1274 H   0  0  0  0  0  0  0  0  0  0  0  0
   -5.0171    0.4664    2.0531 H   0  0  0  0  0  0  0  0  0  0  0  0
   -6.7188    0.3338    1.5742 H   0  0  0  0  0  0  0  0  0  0  0  0
  1  2  1  0
  2  3  2  0
  3  4  1  0
  4  5  2  0
  5  6  1  0
  6  7  2  0
  5  8  1  0
  8  9  1  0
  9 10  1  0
 10 11  1  0
 11 12  2  0
 11 13  1  0
 13 14  1  0
 14 15  1  0
 15 16  1  0
 16 17  2  0
 16 18  1  0
 18 19  1  0
 19 20  1  0
 20 21  2  0
 21 22  1  0
 22 23  2  0
 23 24  1  0
 24 25  2  0
 23 26  1  0
 18 27  1  0
 14 28  1  0
 28 29  2  0
 28 30  1  0
 30 31  1  0
 31 32  1  0
 32 33  1  0
 33 34  1  0
 34 35  1  0
 35 36  2  0
 36 37  1  0
 31 38  1  0
 38 39  2  0
 38 40  1  0
 40 41  1  0
 41 42  1  0
 42 43  1  0
 43 44  2  0
 44 45  1  0
 45 46  2  0
 46 47  1  0
 47 48  2  0
 41 49  1  0
 49 50  2  0
 49 51  1  0
 51 52  1  0
 52 53  1  0
 53 54  1  0
 54 55  1  0
 55 56  1  0
 56 57  2  0
 56 58  1  0
 58 59  1  0
 59 60  1  0
 60 61  2  0
 60 62  1  0
 62 63  1  0
 63 64  1  0
 64 65  2  0
 64 66  1  0
 66 67  1  0
 67 68  1  0
 68 69  2  0
 68 70  1  0
 70 71  1  0
 71 72  1  0
 72 73  2  0
 72 74  1  0
 74 75  1  0
 75 76  1  0
 75 77  1  0
 77 78  2  0
 77 79  1  0
 71 80  1  0
 80 81  1  0
 81 82  2  0
 82 83  1  0
 83 84  2  0
 84 85  1  0
 85 86  2  0
 67 87  1  0
 63 88  1  0
 88 89  1  0
 89 90  2  0
 89 91  1  0
 59 92  1  0
 92 93  1  0
 93 94  2  0
 94 95  1  0
 95 96  1  0
 96 97  2  0
 97 98  1  0
 98 99  2  0
 99100  1  0
100101  2  0
  9102  1  0
102103  2  0
102104  1  0
  7  2  1  0
 75 10  1  0
 86 81  1  0
 97 93  1  0
 25 20  1  0
 37 33  2  0
 48 43  1  0
 55 51  1  0
101 96  1  0
  1105  1  0
  3106  1  0
  4107  1  0
  6108  1  0
  7109  1  0
  8110  1  0
  8111  1  0
  9112  1  1
 13113  1  0
 13114  1  0
 14115  1  6
 15116  1  0
 18117  1  6
 19118  1  0
 19119  1  0
 21120  1  0
 22121  1  0
 24122  1  0
 25123  1  0
 26124  1  0
 27125  1  0
 27126  1  0
 30127  1  0
 31128  1  1
 32129  1  0
 32130  1  0
 34131  1  0
 35132  1  0
 37133  1  0
 40134  1  0
 41135  1  6
 42136  1  0
 42137  1  0
 44138  1  0
 45139  1  0
 46140  1  0
 47141  1  0
 48142  1  0
 52143  1  0
 52144  1  0
 53145  1  0
 53146  1  0
 54147  1  0
 54148  1  0
 55149  1  1
 58150  1  0
 59151  1  1
 62152  1  0
 63153  1  6
 66154  1  0
 67155  1  1
 70156  1  0
 71157  1  1
 74158  1  0
 76159  1  0
 76160  1  0
 76161  1  0
 79162  1  0
 80163  1  0
 80164  1  0
 82165  1  0
 83166  1  0
 84167  1  0
 85168  1  0
 86169  1  0
 87170  1  0
 87171  1  0
 87172  1  0
 88173  1  0
 88174  1  0
 91175  1  0
 91176  1  0
 92177  1  0
 92178  1  0
 94179  1  0
 95180  1  0
 98181  1  0
 99182  1  0
100183  1  0
101184  1  0
104185  1  0
104186  1  0
M  END
>  <Ligand ID>  (1) 
LIG0001169

>  <Ligand>  (1) 
CHEMBL2096730

>  <SMILES>  (1) 
Oc1ccc(cc1)C[C@H](N1C(=O)C[C@H](NC(=O)[C@H](Cc2ccc(cc2)O)N)C(=O)N[C@@H](Cc2[nH]cnc2)C(=O)N[C@H](Cc2ccccc2)C(=O)N2CCC[C@H]2C(=O)N[C@H](C(=O)N[C@H](C(=O)N[C@H](C(=O)N[C@H](C(=O)NC1(C)C(=O)O)Cc1ccccc1)C)CC(=O)N)Cc1c[nH]c2c1cccc2)C(=O)N

>  <CID>  (1) 
91900713.0

>  <ChEMBL ID>  (1) 
nan

>  <InChiKey>  (1) 
YNOJBDMJAJBSSK-QRPDVHSMSA-N

>  <InChi>  (1) 
InChI=1S/C72H82N16O16/c1-39-62(94)80-51(29-40-12-5-3-6-13-40)68(100)86-72(2,71(103)104)88(58(61(75)93)31-43-21-25-47(90)26-22-43)60(92)35-55(81-63(95)49(73)28-42-19-23-46(89)24-20-42)67(99)82-53(33-45-37-76-38-78-45)66(98)85-56(30-41-14-7-4-8-15-41)70(102)87-27-11-18-57(87)69(101)84-52(32-44-36-77-50-17-10-9-16-48(44)50)65(97)83-54(34-59(74)91)64(96)79-39/h3-10,12-17,19-26,36-39,49,51-58,77,89-90H,11,18,27-35,73H2,1-2H3,(H2,74,91)(H2,75,93)(H,76,78)(H,79,96)(H,80,94)(H,81,95)(H,82,99)(H,83,97)(H,84,101)(H,85,98)(H,86,100)(H,103,104)/t39-,49-,51-,52-,53-,54-,55-,56+,57-,58-,72?/m0/s1

>  <IUPAC Name>  (1) 
(3R,6S,9S,16S,19S,22S,25S,28S)-12-[(2S)-1-amino-3-(4-hydroxyphenyl)-1-oxopropan-2-yl]-9-[[(2S)-2-amino-3-(4-hydroxyphenyl)propanoyl]amino]-22-(2-amino-2-oxoethyl)-3,16-dibenzyl-6-(1H-imidazol-5-ylmethyl)-25-(1H-indol-3-ylmethyl)-13,19-dimethyl-2,5,8,11,15,18,21,24,27-nonaoxo-1,4,7,12,14,17,20,23,26-nonazabicyclo[26.3.0]hentriacontane-13-carboxylic acid

$$$$
