
     RDKit          3D

 44 45  0  0  0  0  0  0  0  0999 V2000
   -0.8521    1.2917   -2.3636 O   0  0  0  0  0  0  0  0  0  0  0  0
   -1.6098    0.7753   -1.3198 C   0  0  2  0  0  0  0  0  0  0  0  0
   -0.9699   -0.4539   -0.7084 C   0  0  1  0  0  0  0  0  0  0  0  0
    0.2100   -0.1055    0.1570 C   0  0  0  0  0  0  0  0  0  0  0  0
    1.1856    0.3944   -0.7131 O   0  0  0  0  0  0  0  0  0  0  0  0
    2.5815    0.8309    0.1339 P   0  0  0  0  0  0  0  0  0  0  0  0
    2.3576    2.2806    0.5710 O   0  0  0  0  0  0  0  0  0  0  0  0
    3.9777    0.7113   -0.8086 O   0  0  0  0  0  0  0  0  0  0  0  0
    4.8571   -0.6310   -0.2777 P   0  0  0  0  0  0  0  0  0  0  0  0
    5.6066   -1.3147   -1.3933 O   0  0  0  0  0  0  0  0  0  0  0  0
    5.8810   -0.1169    0.9639 O   0  0  0  0  0  0  0  0  0  0  0  0
    7.3988    0.3230    0.3785 P   0  0  0  0  0  0  0  0  0  0  0  0
    8.2710    0.5904    1.5845 O   0  0  0  0  0  0  0  0  0  0  0  0
    8.0530   -0.8617   -0.6410 O   0  0  0  0  0  0  0  0  0  0  0  0
    7.2280    1.7963   -0.4410 O   0  0  0  0  0  0  0  0  0  0  0  0
    3.7599   -1.7415    0.4052 O   0  0  0  0  0  0  0  0  0  0  0  0
    2.7647   -0.0910    1.5345 O   0  0  0  0  0  0  0  0  0  0  0  0
   -2.0285   -0.9691    0.0313 O   0  0  0  0  0  0  0  0  0  0  0  0
   -3.1587   -0.8721   -0.7340 C   0  0  2  0  0  0  0  0  0  0  0  0
   -2.9005    0.1531   -1.8159 C   0  0  2  0  0  0  0  0  0  0  0  0
   -2.6393   -0.5001   -3.0073 O   0  0  0  0  0  0  0  0  0  0  0  0
   -4.2788   -0.3599    0.0597 N   0  0  0  0  0  0  0  0  0  0  0  0
   -5.5057   -0.5328   -0.4692 C   0  0  0  0  0  0  0  0  0  0  0  0
   -6.6339   -0.0762    0.2172 C   0  0  0  0  0  0  0  0  0  0  0  0
   -6.4169    0.5434    1.4329 C   0  0  0  0  0  0  0  0  0  0  0  0
   -7.4312    0.9554    2.0529 O   0  0  0  0  0  0  0  0  0  0  0  0
   -5.1624    0.6913    1.9187 N   0  0  0  0  0  0  0  0  0  0  0  0
   -4.0755    0.2449    1.2451 C   0  0  0  0  0  0  0  0  0  0  0  0
   -2.9043    0.3753    1.6839 O   0  0  0  0  0  0  0  0  0  0  0  0
   -0.4570    0.5604   -2.9006 H   0  0  0  0  0  0  0  0  0  0  0  0
   -1.7992    1.5616   -0.5576 H   0  0  0  0  0  0  0  0  0  0  0  0
   -0.6835   -1.1078   -1.5308 H   0  0  0  0  0  0  0  0  0  0  0  0
   -0.0298    0.6168    0.9467 H   0  0  0  0  0  0  0  0  0  0  0  0
    0.6145   -1.0438    0.5878 H   0  0  0  0  0  0  0  0  0  0  0  0
    8.3518   -1.6164   -0.0773 H   0  0  0  0  0  0  0  0  0  0  0  0
    6.8982    2.4549    0.2080 H   0  0  0  0  0  0  0  0  0  0  0  0
    4.1343   -2.6716    0.4000 H   0  0  0  0  0  0  0  0  0  0  0  0
    3.1892    0.3907    2.2790 H   0  0  0  0  0  0  0  0  0  0  0  0
   -3.4354   -1.8619   -1.1538 H   0  0  0  0  0  0  0  0  0  0  0  0
   -3.7153    0.8977   -1.8971 H   0  0  0  0  0  0  0  0  0  0  0  0
   -2.3642   -1.4400   -2.8288 H   0  0  0  0  0  0  0  0  0  0  0  0
   -5.6367   -1.0295   -1.4368 H   0  0  0  0  0  0  0  0  0  0  0  0
   -7.6276   -0.2025   -0.1850 H   0  0  0  0  0  0  0  0  0  0  0  0
   -5.0043    1.1603    2.8380 H   0  0  0  0  0  0  0  0  0  0  0  0
  1  2  1  0
  2  3  1  0
  3  4  1  0
  4  5  1  0
  5  6  1  0
  6  7  2  0
  6  8  1  0
  8  9  1  0
  9 10  2  0
  9 11  1  0
 11 12  1  0
 12 13  2  0
 12 14  1  0
 12 15  1  0
  9 16  1  0
  6 17  1  0
  3 18  1  0
 18 19  1  0
 19 20  1  0
 20 21  1  0
 19 22  1  0
 22 23  1  0
 23 24  2  0
 24 25  1  0
 25 26  2  0
 25 27  1  0
 27 28  1  0
 28 29  2  0
 20  2  1  0
 28 22  1  0
  1 30  1  0
  2 31  1  1
  3 32  1  6
  4 33  1  0
  4 34  1  0
 14 35  1  0
 15 36  1  0
 16 37  1  0
 17 38  1  0
 19 39  1  6
 20 40  1  6
 21 41  1  0
 23 42  1  0
 24 43  1  0
 27 44  1  0
M  END
>  <Ligand ID>  (1) 
LIG0000831

>  <Ligand>  (1) 
UTP

>  <SMILES>  (1) 
O[C@@H]1[C@@H](COP(=O)(OP(=O)(OP(=O)(O)O)O)O)O[C@H]([C@@H]1O)n1ccc(=O)[nH]c1=O

>  <CID>  (1) 
6133.0

>  <ChEMBL ID>  (1) 
nan

>  <InChiKey>  (1) 
PGAVKCOVUIYSFO-XVFCMESISA-N

>  <InChi>  (1) 
InChI=1S/C9H15N2O15P3/c12-5-1-2-11(9(15)10-5)8-7(14)6(13)4(24-8)3-23-28(19,20)26-29(21,22)25-27(16,17)18/h1-2,4,6-8,13-14H,3H2,(H,19,20)(H,21,22)(H,10,12,15)(H2,16,17,18)/t4-,6-,7-,8-/m1/s1

>  <IUPAC Name>  (1) 
[[(2R,3S,4R,5R)-5-(2,4-dioxopyrimidin-1-yl)-3,4-dihydroxyoxolan-2-yl]methoxy-hydroxyphosphoryl] phosphono hydrogen phosphate

$$$$
