
     RDKit          3D

 49 51  0  0  0  0  0  0  0  0999 V2000
   -6.6072    0.9963   -3.8117 C   0  0  0  0  0  0  0  0  0  0  0  0
   -5.3831    0.9993   -3.1046 O   0  0  0  0  0  0  0  0  0  0  0  0
   -5.3445    0.3331   -1.8799 C   0  0  0  0  0  0  0  0  0  0  0  0
   -6.4065   -0.3143   -1.3299 C   0  0  0  0  0  0  0  0  0  0  0  0
   -6.2997   -0.9519   -0.1171 C   0  0  0  0  0  0  0  0  0  0  0  0
   -5.1118   -0.9574    0.5843 C   0  0  0  0  0  0  0  0  0  0  0  0
   -4.0190   -0.3080    0.0486 C   0  0  0  0  0  0  0  0  0  0  0  0
   -4.1404    0.3278   -1.1694 C   0  0  0  0  0  0  0  0  0  0  0  0
   -2.7720   -0.3257    0.8063 C   0  0  0  0  0  0  0  0  0  0  0  0
   -2.7630   -0.9331    1.9077 O   0  0  0  0  0  0  0  0  0  0  0  0
   -1.5814    0.2998    0.3706 N   0  0  0  0  0  0  0  0  0  0  0  0
   -0.4171    0.2111    1.2083 C   0  0  0  0  0  0  0  0  0  0  0  0
   -0.1925    1.1832    2.1675 C   0  0  0  0  0  0  0  0  0  0  0  0
    0.9418    1.0431    2.9403 C   0  0  0  0  0  0  0  0  0  0  0  0
    1.2000    2.0681    3.9683 C   0  0  0  0  0  0  0  0  0  0  0  0
    1.8017    0.0121    2.7807 N   0  0  0  0  0  0  0  0  0  0  0  0
    1.5699   -0.9223    1.8465 N   0  0  0  0  0  0  0  0  0  0  0  0
    0.4647   -0.8330    1.0554 C   0  0  0  0  0  0  0  0  0  0  0  0
    0.3019   -1.7231    0.2107 O   0  0  0  0  0  0  0  0  0  0  0  0
    2.4876   -2.0309    1.6695 C   0  0  0  0  0  0  0  0  0  0  0  0
    3.5273   -1.6600    0.6793 C   0  0  0  0  0  0  0  0  0  0  0  0
    4.4439   -2.4909    0.3684 O   0  0  0  0  0  0  0  0  0  0  0  0
    3.5756   -0.3971    0.0286 N   0  0  0  0  0  0  0  0  0  0  0  0
    4.6407   -0.1942   -0.8999 C   0  0  0  0  0  0  0  0  0  0  0  0
    4.5297   -0.5032   -2.2382 C   0  0  0  0  0  0  0  0  0  0  0  0
    5.5785   -0.2967   -3.1191 C   0  0  0  0  0  0  0  0  0  0  0  0
    6.7555    0.2372   -2.6015 C   0  0  0  0  0  0  0  0  0  0  0  0
    6.8658    0.5469   -1.2588 C   0  0  0  0  0  0  0  0  0  0  0  0
    5.8103    0.3377   -0.3790 C   0  0  0  0  0  0  0  0  0  0  0  0
    8.2768    0.5703   -3.7124 Br  0  0  0  0  0  0  0  0  0  0  0  0
   -6.7176    0.0138   -4.3085 H   0  0  0  0  0  0  0  0  0  0  0  0
   -7.4832    1.2260   -3.1675 H   0  0  0  0  0  0  0  0  0  0  0  0
   -6.5759    1.7501   -4.6260 H   0  0  0  0  0  0  0  0  0  0  0  0
   -7.3558   -0.3299   -1.8543 H   0  0  0  0  0  0  0  0  0  0  0  0
   -7.1592   -1.4762    0.3288 H   0  0  0  0  0  0  0  0  0  0  0  0
   -5.0623   -1.4690    1.5364 H   0  0  0  0  0  0  0  0  0  0  0  0
   -3.3050    0.8388   -1.6052 H   0  0  0  0  0  0  0  0  0  0  0  0
   -1.5669    0.8094   -0.5406 H   0  0  0  0  0  0  0  0  0  0  0  0
   -0.8840    2.0094    2.2934 H   0  0  0  0  0  0  0  0  0  0  0  0
    1.9065    1.6805    4.7278 H   0  0  0  0  0  0  0  0  0  0  0  0
    1.6005    2.9642    3.4578 H   0  0  0  0  0  0  0  0  0  0  0  0
    0.2359    2.3635    4.4182 H   0  0  0  0  0  0  0  0  0  0  0  0
    3.0138   -2.1610    2.6470 H   0  0  0  0  0  0  0  0  0  0  0  0
    1.9515   -2.9576    1.3465 H   0  0  0  0  0  0  0  0  0  0  0  0
    2.8536    0.3156    0.2453 H   0  0  0  0  0  0  0  0  0  0  0  0
    3.6073   -0.9152   -2.6119 H   0  0  0  0  0  0  0  0  0  0  0  0
    5.5087   -0.5346   -4.1782 H   0  0  0  0  0  0  0  0  0  0  0  0
    7.7784    0.9593   -0.8652 H   0  0  0  0  0  0  0  0  0  0  0  0
    5.9204    0.5890    0.6733 H   0  0  0  0  0  0  0  0  0  0  0  0
  1  2  1  0
  2  3  1  0
  3  4  2  0
  4  5  1  0
  5  6  2  0
  6  7  1  0
  7  8  2  0
  7  9  1  0
  9 10  2  0
  9 11  1  0
 11 12  1  0
 12 13  2  0
 13 14  1  0
 14 15  1  0
 14 16  2  0
 16 17  1  0
 17 18  1  0
 18 19  2  0
 17 20  1  0
 20 21  1  0
 21 22  2  0
 21 23  1  0
 23 24  1  0
 24 25  2  0
 25 26  1  0
 26 27  2  0
 27 28  1  0
 28 29  2  0
 27 30  1  0
  8  3  1  0
 18 12  1  0
 29 24  1  0
  1 31  1  0
  1 32  1  0
  1 33  1  0
  4 34  1  0
  5 35  1  0
  6 36  1  0
  8 37  1  0
 11 38  1  0
 13 39  1  0
 15 40  1  0
 15 41  1  0
 15 42  1  0
 20 43  1  0
 20 44  1  0
 23 45  1  0
 25 46  1  0
 26 47  1  0
 28 48  1  0
 29 49  1  0
M  END
>  <Ligand ID>  (1) 
LIG0003956

>  <Ligand>  (1) 
CHEMBL2391450

>  <SMILES>  (1) 
COc1cccc(c1)C(=O)Nc1cc(C)nn(c1=O)CC(=O)Nc1ccc(cc1)Br

>  <CID>  (1) 
71699143.0

>  <ChEMBL ID>  (1) 
nan

>  <InChiKey>  (1) 
ZXZVORLKOGCNCE-UHFFFAOYSA-N

>  <InChi>  (1) 
InChI=1S/C21H19BrN4O4/c1-13-10-18(24-20(28)14-4-3-5-17(11-14)30-2)21(29)26(25-13)12-19(27)23-16-8-6-15(22)7-9-16/h3-11H,12H2,1-2H3,(H,23,27)(H,24,28)

>  <IUPAC Name>  (1) 
N-[2-[2-(4-bromoanilino)-2-oxoethyl]-6-methyl-3-oxopyridazin-4-yl]-3-methoxybenzamide

$$$$
