
     RDKit          3D

 33 32  0  0  0  0  0  0  0  0999 V2000
   -5.6764    1.3339    0.3251 C   0  0  0  0  0  0  0  0  0  0  0  0
   -4.6954    0.9250   -0.4841 C   0  0  0  0  0  0  0  0  0  0  0  0
   -3.3147    0.6720    0.0443 C   0  0  0  0  0  0  0  0  0  0  0  0
   -2.9780   -0.7806   -0.2255 C   0  0  0  0  0  0  0  0  0  0  0  0
   -1.6194   -1.1621    0.2566 C   0  0  0  0  0  0  0  0  0  0  0  0
   -0.5061   -0.3516   -0.3969 C   0  0  0  0  0  0  0  0  0  0  0  0
    0.7667   -0.8845    0.2180 C   0  0  0  0  0  0  0  0  0  0  0  0
    1.9987   -0.1863   -0.3200 C   0  0  0  0  0  0  0  0  0  0  0  0
    3.1572   -0.8404    0.3978 C   0  0  0  0  0  0  0  0  0  0  0  0
    4.4995   -0.3193    0.0337 C   0  0  0  0  0  0  0  0  0  0  0  0
    4.7170    1.1089    0.2958 C   0  0  0  0  0  0  0  0  0  0  0  0
    3.9013    1.9006    0.7885 O   0  0  0  0  0  0  0  0  0  0  0  0
    5.9751    1.6318   -0.0456 O   0  0  0  0  0  0  0  0  0  0  0  0
   -5.4528    1.4765    1.3590 H   0  0  0  0  0  0  0  0  0  0  0  0
   -6.6464    1.4967   -0.1234 H   0  0  0  0  0  0  0  0  0  0  0  0
   -4.8433    0.7573   -1.5469 H   0  0  0  0  0  0  0  0  0  0  0  0
   -3.2536    0.9172    1.1181 H   0  0  0  0  0  0  0  0  0  0  0  0
   -2.5763    1.2948   -0.4881 H   0  0  0  0  0  0  0  0  0  0  0  0
   -3.7053   -1.3655    0.3957 H   0  0  0  0  0  0  0  0  0  0  0  0
   -3.1827   -1.0748   -1.2556 H   0  0  0  0  0  0  0  0  0  0  0  0
   -1.6162   -1.0230    1.3592 H   0  0  0  0  0  0  0  0  0  0  0  0
   -1.4719   -2.2340    0.0881 H   0  0  0  0  0  0  0  0  0  0  0  0
   -0.6357    0.7221   -0.2517 H   0  0  0  0  0  0  0  0  0  0  0  0
   -0.5035   -0.5863   -1.4784 H   0  0  0  0  0  0  0  0  0  0  0  0
    0.8168   -1.9639   -0.0323 H   0  0  0  0  0  0  0  0  0  0  0  0
    0.7146   -0.6880    1.3071 H   0  0  0  0  0  0  0  0  0  0  0  0
    1.9936    0.8960   -0.0853 H   0  0  0  0  0  0  0  0  0  0  0  0
    2.1007   -0.2902   -1.4089 H   0  0  0  0  0  0  0  0  0  0  0  0
    2.9467   -0.6703    1.4922 H   0  0  0  0  0  0  0  0  0  0  0  0
    3.1141   -1.9195    0.1997 H   0  0  0  0  0  0  0  0  0  0  0  0
    5.2362   -0.9108    0.6264 H   0  0  0  0  0  0  0  0  0  0  0  0
    4.6627   -0.5010   -1.0523 H   0  0  0  0  0  0  0  0  0  0  0  0
    6.0769    2.6193   -0.2823 H   0  0  0  0  0  0  0  0  0  0  0  0
  1  2  2  0
  2  3  1  0
  3  4  1  0
  4  5  1  0
  5  6  1  0
  6  7  1  0
  7  8  1  0
  8  9  1  0
  9 10  1  0
 10 11  1  0
 11 12  2  0
 11 13  1  0
  1 14  1  0
  1 15  1  0
  2 16  1  0
  3 17  1  0
  3 18  1  0
  4 19  1  0
  4 20  1  0
  5 21  1  0
  5 22  1  0
  6 23  1  0
  6 24  1  0
  7 25  1  0
  7 26  1  0
  8 27  1  0
  8 28  1  0
  9 29  1  0
  9 30  1  0
 10 31  1  0
 10 32  1  0
 13 33  1  0
M  END
>  <Ligand ID>  (1) 
LIG0004984

>  <Ligand>  (1) 
Undecylenic Acid

>  <SMILES>  (1) 
C=CCCCCCCCCC(=O)O

>  <CID>  (1) 
5634.0

>  <ChEMBL ID>  (1) 
nan

>  <InChiKey>  (1) 
FRPZMMHWLSIFAZ-UHFFFAOYSA-N

>  <InChi>  (1) 
InChI=1S/C11H20O2/c1-2-3-4-5-6-7-8-9-10-11(12)13/h2H,1,3-10H2,(H,12,13)

>  <IUPAC Name>  (1) 
undec-10-enoic acid

$$$$
