
     RDKit          3D

 25 26  0  0  0  0  0  0  0  0999 V2000
   -4.3442    1.3188    0.3316 O   0  0  0  0  0  0  0  0  0  0  0  0
   -3.0860    1.4044   -0.2314 C   0  0  0  0  0  0  0  0  0  0  0  0
   -2.7872    2.4138   -0.9209 O   0  0  0  0  0  0  0  0  0  0  0  0
   -2.1216    0.3290   -0.0216 C   0  0  0  0  0  0  0  0  0  0  0  0
   -2.3401   -0.7370    0.6669 N   0  0  0  0  0  0  0  0  0  0  0  0
   -1.2060   -1.5496    0.6595 O   0  0  0  0  0  0  0  0  0  0  0  0
   -0.5614   -1.2442   -0.5671 C   0  0  1  0  0  0  0  0  0  0  0  0
   -0.7334    0.2621   -0.5520 C   0  0  2  0  0  0  0  0  0  0  0  0
    0.2924    0.7033    0.4359 C   0  0  0  0  0  0  0  0  0  0  0  0
    1.4112   -0.3084    0.3407 C   0  0  2  0  0  0  0  0  0  0  0  0
    0.9102   -1.4305   -0.5238 C   0  0  0  0  0  0  0  0  0  0  0  0
    1.7595   -0.8543    1.6260 N   0  0  0  0  0  0  0  0  0  0  0  0
    2.5996    0.3801   -0.2245 C   0  0  0  0  0  0  0  0  0  0  0  0
    2.5274    0.9399   -1.3579 O   0  0  0  0  0  0  0  0  0  0  0  0
    3.8228    0.4426    0.4474 O   0  0  0  0  0  0  0  0  0  0  0  0
   -5.1211    1.9005    0.0836 H   0  0  0  0  0  0  0  0  0  0  0  0
   -1.0610   -1.7144   -1.4330 H   0  0  0  0  0  0  0  0  0  0  0  0
   -0.6360    0.7093   -1.5500 H   0  0  0  0  0  0  0  0  0  0  0  0
    0.6675    1.7318    0.2587 H   0  0  0  0  0  0  0  0  0  0  0  0
   -0.1330    0.6156    1.4591 H   0  0  0  0  0  0  0  0  0  0  0  0
    1.2891   -1.2872   -1.5599 H   0  0  0  0  0  0  0  0  0  0  0  0
    1.1616   -2.4333   -0.1206 H   0  0  0  0  0  0  0  0  0  0  0  0
    0.9231   -1.2103    2.1232 H   0  0  0  0  0  0  0  0  0  0  0  0
    2.3888   -1.6785    1.4662 H   0  0  0  0  0  0  0  0  0  0  0  0
    4.3779    1.2964    0.3992 H   0  0  0  0  0  0  0  0  0  0  0  0
  1  2  1  0
  2  3  2  0
  2  4  1  0
  4  5  2  0
  5  6  1  0
  6  7  1  0
  7  8  1  0
  8  9  1  0
  9 10  1  0
 10 11  1  0
 10 12  1  1
 10 13  1  0
 13 14  2  0
 13 15  1  0
  8  4  1  0
 11  7  1  0
  1 16  1  0
  7 17  1  6
  8 18  1  6
  9 19  1  0
  9 20  1  0
 11 21  1  0
 11 22  1  0
 12 23  1  0
 12 24  1  0
 15 25  1  0
M  END
>  <Ligand ID>  (1) 
LIG0005734

>  <Ligand>  (1) 
CHEMBL198310

>  <SMILES>  (1) 
OC(=O)C1=NO[C@H]2[C@@H]1C[C@](C2)(N)C(=O)O

>  <CID>  (1) 
12991435.0

>  <ChEMBL ID>  (1) 
nan

>  <InChiKey>  (1) 
NTVFQKSMRLANLZ-JJXKXHSHSA-N

>  <InChi>  (1) 
InChI=1S/C8H10N2O5/c9-8(7(13)14)1-3-4(2-8)15-10-5(3)6(11)12/h3-4H,1-2,9H2,(H,11,12)(H,13,14)/t3-,4+,8+/m0/s1

>  <IUPAC Name>  (1) 
(3aR,5R,6aR)-5-amino-3a,4,6,6a-tetrahydrocyclopenta[d][1,2]oxazole-3,5-dicarboxylic acid

$$$$
