
     RDKit          3D

 61 65  0  0  0  0  0  0  0  0999 V2000
    1.2443   -0.1299    2.0547 O   0  0  0  0  0  0  0  0  0  0  0  0
    1.3998   -0.2818    0.7982 C   0  0  0  0  0  0  0  0  0  0  0  0
    2.7070   -0.6611    0.2554 C   0  0  0  0  0  0  0  0  0  0  0  0
    3.8575   -0.8925    0.9202 C   0  0  0  0  0  0  0  0  0  0  0  0
    4.9551   -1.2330    0.2177 C   0  0  0  0  0  0  0  0  0  0  0  0
    4.8396   -1.3249   -1.1341 C   0  0  0  0  0  0  0  0  0  0  0  0
    3.1019   -0.9147   -1.4612 S   0  0  0  0  0  0  0  0  0  0  0  0
    5.8582   -1.6695   -2.1066 C   0  0  0  0  0  0  0  0  0  0  0  0
    7.1541   -2.0237   -1.4592 C   0  0  0  0  0  0  0  0  0  0  0  0
    7.3182   -1.0935   -0.2730 C   0  0  0  0  0  0  0  0  0  0  0  0
    6.3449   -1.5363    0.7646 C   0  0  0  0  0  0  0  0  0  0  0  0
    0.3234   -0.0913   -0.1156 N   0  0  0  0  0  0  0  0  0  0  0  0
   -0.9321    0.2768    0.4488 C   0  0  0  0  0  0  0  0  0  0  0  0
   -1.8077   -0.7306    0.8211 C   0  0  0  0  0  0  0  0  0  0  0  0
   -3.0286   -0.3639    1.3698 C   0  0  0  0  0  0  0  0  0  0  0  0
   -3.3643    0.9646    1.5413 C   0  0  0  0  0  0  0  0  0  0  0  0
   -2.4589    1.9366    1.1551 C   0  0  0  0  0  0  0  0  0  0  0  0
   -1.2298    1.6144    0.6034 C   0  0  0  0  0  0  0  0  0  0  0  0
   -0.3742    2.6705    0.2391 N   0  0  0  0  0  0  0  0  0  0  0  0
    0.9627    3.0110    0.6825 C   0  0  0  0  0  0  0  0  0  0  0  0
    1.0949    4.5022    0.5479 C   0  0  0  0  0  0  0  0  0  0  0  0
   -0.2474    4.9394    0.0147 C   0  0  0  0  0  0  0  0  0  0  0  0
   -0.7089    3.7116   -0.7403 C   0  0  0  0  0  0  0  0  0  0  0  0
   -4.1283   -1.6610    1.8369 S   0  0  0  0  0  0  0  0  0  0  0  0
   -3.3002   -2.8918    2.1743 O   0  0  0  0  0  0  0  0  0  0  0  0
   -4.9164   -1.3391    3.0488 O   0  0  0  0  0  0  0  0  0  0  0  0
   -5.1605   -2.0944    0.5521 N   0  0  0  0  0  0  0  0  0  0  0  0
   -4.4710   -2.5911   -0.6026 C   0  0  0  0  0  0  0  0  0  0  0  0
   -5.5353   -3.0380   -1.5854 C   0  0  0  0  0  0  0  0  0  0  0  0
   -6.2857   -1.9729   -2.0471 O   0  0  0  0  0  0  0  0  0  0  0  0
   -6.2556   -0.8511   -1.2544 C   0  0  0  0  0  0  0  0  0  0  0  0
   -6.1460   -1.1137    0.2173 C   0  0  0  0  0  0  0  0  0  0  0  0
    3.8856   -0.7996    2.0366 H   0  0  0  0  0  0  0  0  0  0  0  0
    6.0596   -0.8305   -2.8315 H   0  0  0  0  0  0  0  0  0  0  0  0
    5.4944   -2.4994   -2.7767 H   0  0  0  0  0  0  0  0  0  0  0  0
    8.0162   -1.8232   -2.1420 H   0  0  0  0  0  0  0  0  0  0  0  0
    7.1862   -3.0551   -1.0551 H   0  0  0  0  0  0  0  0  0  0  0  0
    8.3516   -1.2245    0.1185 H   0  0  0  0  0  0  0  0  0  0  0  0
    7.1127   -0.0413   -0.5148 H   0  0  0  0  0  0  0  0  0  0  0  0
    6.4345   -2.5875    1.0708 H   0  0  0  0  0  0  0  0  0  0  0  0
    6.5384   -0.9239    1.6839 H   0  0  0  0  0  0  0  0  0  0  0  0
    0.4301   -0.2105   -1.1453 H   0  0  0  0  0  0  0  0  0  0  0  0
   -1.5242   -1.7561    0.6779 H   0  0  0  0  0  0  0  0  0  0  0  0
   -4.3316    1.1907    1.9749 H   0  0  0  0  0  0  0  0  0  0  0  0
   -2.7189    2.9858    1.2882 H   0  0  0  0  0  0  0  0  0  0  0  0
    1.1813    2.6301    1.6906 H   0  0  0  0  0  0  0  0  0  0  0  0
    1.6477    2.4783   -0.0375 H   0  0  0  0  0  0  0  0  0  0  0  0
    1.9193    4.7124   -0.1615 H   0  0  0  0  0  0  0  0  0  0  0  0
    1.2668    5.0059    1.5215 H   0  0  0  0  0  0  0  0  0  0  0  0
   -0.9078    5.1161    0.8833 H   0  0  0  0  0  0  0  0  0  0  0  0
   -0.1855    5.8196   -0.6571 H   0  0  0  0  0  0  0  0  0  0  0  0
   -0.1214    3.5930   -1.6674 H   0  0  0  0  0  0  0  0  0  0  0  0
   -1.7826    3.7204   -0.9640 H   0  0  0  0  0  0  0  0  0  0  0  0
   -3.7873   -1.8369   -1.0552 H   0  0  0  0  0  0  0  0  0  0  0  0
   -3.8440   -3.4586   -0.3393 H   0  0  0  0  0  0  0  0  0  0  0  0
   -5.0983   -3.6443   -2.4056 H   0  0  0  0  0  0  0  0  0  0  0  0
   -6.2391   -3.6849   -0.9844 H   0  0  0  0  0  0  0  0  0  0  0  0
   -7.2143   -0.2812   -1.3984 H   0  0  0  0  0  0  0  0  0  0  0  0
   -5.4576   -0.1477   -1.5888 H   0  0  0  0  0  0  0  0  0  0  0  0
   -7.1574   -1.4402    0.5846 H   0  0  0  0  0  0  0  0  0  0  0  0
   -5.9653   -0.1344    0.7098 H   0  0  0  0  0  0  0  0  0  0  0  0
  1  2  2  0
  2  3  1  0
  3  4  2  0
  4  5  1  0
  5  6  2  0
  6  7  1  0
  6  8  1  0
  8  9  1  0
  9 10  1  0
 10 11  1  0
  2 12  1  0
 12 13  1  0
 13 14  2  0
 14 15  1  0
 15 16  2  0
 16 17  1  0
 17 18  2  0
 18 19  1  0
 19 20  1  0
 20 21  1  0
 21 22  1  0
 22 23  1  0
 15 24  1  0
 24 25  2  0
 24 26  2  0
 24 27  1  0
 27 28  1  0
 28 29  1  0
 29 30  1  0
 30 31  1  0
 31 32  1  0
  7  3  1  0
 18 13  1  0
 23 19  1  0
 32 27  1  0
 11  5  1  0
  4 33  1  0
  8 34  1  0
  8 35  1  0
  9 36  1  0
  9 37  1  0
 10 38  1  0
 10 39  1  0
 11 40  1  0
 11 41  1  0
 12 42  1  0
 14 43  1  0
 16 44  1  0
 17 45  1  0
 20 46  1  0
 20 47  1  0
 21 48  1  0
 21 49  1  0
 22 50  1  0
 22 51  1  0
 23 52  1  0
 23 53  1  0
 28 54  1  0
 28 55  1  0
 29 56  1  0
 29 57  1  0
 31 58  1  0
 31 59  1  0
 32 60  1  0
 32 61  1  0
M  END
>  <Ligand ID>  (1) 
LIG0001370

>  <Ligand>  (1) 
MLS-0435541.0001

>  <SMILES>  (1) 
O=C(c1cc2c(s1)CCCC2)Nc1cc(ccc1N1CCCC1)S(=O)(=O)N1CCOCC1

>  <CID>  (1) 
17460708.0

>  <ChEMBL ID>  (1) 
nan

>  <InChiKey>  (1) 
PODUXAQFLMUPKS-UHFFFAOYSA-N

>  <InChi>  (1) 
InChI=1S/C23H29N3O4S2/c27-23(22-15-17-5-1-2-6-21(17)31-22)24-19-16-18(7-8-20(19)25-9-3-4-10-25)32(28,29)26-11-13-30-14-12-26/h7-8,15-16H,1-6,9-14H2,(H,24,27)

>  <IUPAC Name>  (1) 
N-(5-morpholin-4-ylsulfonyl-2-pyrrolidin-1-ylphenyl)-4,5,6,7-tetrahydro-1-benzothiophene-2-carboxamide

$$$$
