
     RDKit          3D

 36 38  0  0  0  0  0  0  0  0999 V2000
    6.7457    1.9217    1.0382 Cl  0  0  0  0  0  0  0  0  0  0  0  0
    5.5109    0.8248    0.4465 C   0  0  0  0  0  0  0  0  0  0  0  0
    5.8317   -0.0629   -0.5691 C   0  0  0  0  0  0  0  0  0  0  0  0
    4.8264   -0.9060   -1.0011 C   0  0  0  0  0  0  0  0  0  0  0  0
    3.5615   -0.8897   -0.4705 C   0  0  0  0  0  0  0  0  0  0  0  0
    3.2338   -0.0153    0.5345 C   0  0  0  0  0  0  0  0  0  0  0  0
    4.2388    0.8413    0.9801 C   0  0  0  0  0  0  0  0  0  0  0  0
    1.9072    0.0884    1.1717 C   0  0  0  0  0  0  0  0  0  0  0  0
    0.9854    1.0840    0.5222 C   0  0  0  0  0  0  0  0  0  0  0  0
    0.6572    0.8573   -0.7755 O   0  0  0  0  0  0  0  0  0  0  0  0
   -0.0514   -0.2704   -1.0720 C   0  0  0  0  0  0  0  0  0  0  0  0
   -1.4005   -0.3328   -0.4368 C   0  0  0  0  0  0  0  0  0  0  0  0
   -2.4651    0.2077   -1.0895 N   0  0  0  0  0  0  0  0  0  0  0  0
   -3.7088    0.1928   -0.5953 C   0  0  0  0  0  0  0  0  0  0  0  0
   -4.6787    0.7588   -1.3328 N   0  0  0  0  0  0  0  0  0  0  0  0
   -5.9633    0.7746   -0.8832 C   0  0  0  0  0  0  0  0  0  0  0  0
   -6.2305    0.1922    0.3489 C   0  0  0  0  0  0  0  0  0  0  0  0
   -5.2396   -0.3863    1.1029 C   0  0  0  0  0  0  0  0  0  0  0  0
   -3.9589   -0.3894    0.6300 C   0  0  0  0  0  0  0  0  0  0  0  0
   -2.8821   -0.9385    1.2946 C   0  0  0  0  0  0  0  0  0  0  0  0
   -3.0860   -1.4766    2.4170 O   0  0  0  0  0  0  0  0  0  0  0  0
   -1.6497   -0.8926    0.7445 N   0  0  0  0  0  0  0  0  0  0  0  0
    6.8262   -0.0868   -0.9974 H   0  0  0  0  0  0  0  0  0  0  0  0
    5.0911   -1.5941   -1.7949 H   0  0  0  0  0  0  0  0  0  0  0  0
    2.8285   -1.5732   -0.8498 H   0  0  0  0  0  0  0  0  0  0  0  0
    4.0129    1.5542    1.7828 H   0  0  0  0  0  0  0  0  0  0  0  0
    1.4401   -0.9167    1.3282 H   0  0  0  0  0  0  0  0  0  0  0  0
    2.0429    0.4727    2.2292 H   0  0  0  0  0  0  0  0  0  0  0  0
    0.0642    1.0992    1.1443 H   0  0  0  0  0  0  0  0  0  0  0  0
    1.5242    2.0701    0.5794 H   0  0  0  0  0  0  0  0  0  0  0  0
   -0.2341   -0.2444   -2.1843 H   0  0  0  0  0  0  0  0  0  0  0  0
    0.4915   -1.2220   -0.8966 H   0  0  0  0  0  0  0  0  0  0  0  0
   -6.7141    1.2356   -1.4985 H   0  0  0  0  0  0  0  0  0  0  0  0
   -7.2580    0.2009    0.7164 H   0  0  0  0  0  0  0  0  0  0  0  0
   -5.4141   -0.8511    2.0718 H   0  0  0  0  0  0  0  0  0  0  0  0
   -0.8853   -1.3276    1.2985 H   0  0  0  0  0  0  0  0  0  0  0  0
  1  2  1  0
  2  3  2  0
  3  4  1  0
  4  5  2  0
  5  6  1  0
  6  7  2  0
  6  8  1  0
  8  9  1  0
  9 10  1  0
 10 11  1  0
 11 12  1  0
 12 13  2  0
 13 14  1  0
 14 15  2  0
 15 16  1  0
 16 17  2  0
 17 18  1  0
 18 19  2  0
 19 20  1  0
 20 21  2  0
 20 22  1  0
  7  2  1  0
 22 12  1  0
 19 14  1  0
  3 23  1  0
  4 24  1  0
  5 25  1  0
  7 26  1  0
  8 27  1  0
  8 28  1  0
  9 29  1  0
  9 30  1  0
 11 31  1  0
 11 32  1  0
 16 33  1  0
 17 34  1  0
 18 35  1  0
 22 36  1  0
M  END
>  <Ligand ID>  (1) 
LIG0005846

>  <Ligand>  (1) 
CHEMBL1224219

>  <SMILES>  (1) 
Clc1cccc(c1)CCOCc1nc2ncccc2c(=O)[nH]1

>  <CID>  (1) 
135899178.0

>  <ChEMBL ID>  (1) 
nan

>  <InChiKey>  (1) 
HEKFYWONLKTJOD-UHFFFAOYSA-N

>  <InChi>  (1) 
InChI=1S/C16H14ClN3O2/c17-12-4-1-3-11(9-12)6-8-22-10-14-19-15-13(16(21)20-14)5-2-7-18-15/h1-5,7,9H,6,8,10H2,(H,18,19,20,21)

>  <IUPAC Name>  (1) 
2-[2-(3-chlorophenyl)ethoxymethyl]-3H-pyrido[2,3-d]pyrimidin-4-one

$$$$
