
     RDKit          3D

 66 70  0  0  0  0  0  0  0  0999 V2000
    6.8170    0.8336   -0.9052 O   0  0  0  0  0  0  0  0  0  0  0  0
    7.3768    0.4365    0.3246 C   0  0  0  0  0  0  0  0  0  0  0  0
    6.7742    0.8742    1.3530 O   0  0  0  0  0  0  0  0  0  0  0  0
    8.5744   -0.4264    0.4103 C   0  0  0  0  0  0  0  0  0  0  0  0
    8.3457   -1.8666    0.1274 C   0  0  0  0  0  0  0  0  0  0  0  0
    7.3461   -2.5479    1.0492 C   0  0  0  0  0  0  0  0  0  0  0  0
    6.1363   -2.0962    1.0754 O   0  0  0  0  0  0  0  0  0  0  0  0
    4.9145   -1.6768    0.9265 C   0  0  0  0  0  0  0  0  0  0  0  0
    4.1690   -1.1870    1.9826 C   0  0  0  0  0  0  0  0  0  0  0  0
    2.8903   -0.7492    1.8045 C   0  0  0  0  0  0  0  0  0  0  0  0
    2.3523   -0.8039    0.5498 C   0  0  0  0  0  0  0  0  0  0  0  0
    3.0310   -1.2808   -0.5588 C   0  0  0  0  0  0  0  0  0  0  0  0
    4.3186   -1.7153   -0.3494 C   0  0  0  0  0  0  0  0  0  0  0  0
    1.0054   -0.3684    0.3628 N   0  0  0  0  0  0  0  0  0  0  0  0
    0.6669    0.6371   -0.5792 C   0  0  0  0  0  0  0  0  0  0  0  0
    1.6509    1.2534   -1.3055 C   0  0  0  0  0  0  0  0  0  0  0  0
    1.2901    2.2382   -2.2061 C   0  0  0  0  0  0  0  0  0  0  0  0
    2.2069    2.8160   -2.8855 O   0  0  0  0  0  0  0  0  0  0  0  0
    0.0040    2.5931   -2.3754 N   0  0  0  0  0  0  0  0  0  0  0  0
   -0.9777    2.0201   -1.6916 C   0  0  0  0  0  0  0  0  0  0  0  0
   -0.6515    1.0316   -0.7833 C   0  0  0  0  0  0  0  0  0  0  0  0
   -1.6793    0.4483   -0.0949 C   0  0  0  0  0  0  0  0  0  0  0  0
   -3.0150    0.8188   -0.2830 C   0  0  0  0  0  0  0  0  0  0  0  0
   -3.2734    1.8077   -1.1989 C   0  0  0  0  0  0  0  0  0  0  0  0
   -2.2635    2.4232   -1.9164 C   0  0  0  0  0  0  0  0  0  0  0  0
   -4.0867    0.1144    0.4924 C   0  0  0  0  0  0  0  0  0  0  0  0
   -4.7696   -0.8944   -0.3448 C   0  0  0  0  0  0  0  0  0  0  0  0
   -3.9956   -1.5339   -1.3144 C   0  0  0  0  0  0  0  0  0  0  0  0
   -4.5751   -2.4867   -2.1181 C   0  0  0  0  0  0  0  0  0  0  0  0
   -5.8966   -2.8444   -2.0107 C   0  0  0  0  0  0  0  0  0  0  0  0
   -6.6707   -2.2214   -1.0572 C   0  0  0  0  0  0  0  0  0  0  0  0
   -6.0766   -1.2513   -0.2410 C   0  0  0  0  0  0  0  0  0  0  0  0
   -6.6085   -4.0721   -3.0629 Cl  0  0  0  0  0  0  0  0  0  0  0  0
   -5.0234    1.0416    1.1381 C   0  0  0  0  0  0  0  0  0  0  0  0
   -4.8155    1.4170    2.4700 C   0  0  0  0  0  0  0  0  0  0  0  0
   -5.6619    2.2843    3.1196 C   0  0  0  0  0  0  0  0  0  0  0  0
   -6.7391    2.8079    2.4761 C   0  0  0  0  0  0  0  0  0  0  0  0
   -6.9754    2.4599    1.1622 C   0  0  0  0  0  0  0  0  0  0  0  0
   -6.1289    1.5954    0.5197 C   0  0  0  0  0  0  0  0  0  0  0  0
   -7.8237    3.9171    3.2928 Cl  0  0  0  0  0  0  0  0  0  0  0  0
    6.3179    1.7035   -1.0091 H   0  0  0  0  0  0  0  0  0  0  0  0
    9.3721   -0.0012   -0.2381 H   0  0  0  0  0  0  0  0  0  0  0  0
    8.9384   -0.3360    1.4671 H   0  0  0  0  0  0  0  0  0  0  0  0
    9.3147   -2.4152    0.3188 H   0  0  0  0  0  0  0  0  0  0  0  0
    8.1295   -2.0328   -0.9247 H   0  0  0  0  0  0  0  0  0  0  0  0
    7.4033   -3.6487    0.7701 H   0  0  0  0  0  0  0  0  0  0  0  0
    7.8490   -2.4573    2.0790 H   0  0  0  0  0  0  0  0  0  0  0  0
    4.6354   -1.1587    2.9694 H   0  0  0  0  0  0  0  0  0  0  0  0
    2.3110   -0.3632    2.6391 H   0  0  0  0  0  0  0  0  0  0  0  0
    2.6128   -1.3274   -1.5457 H   0  0  0  0  0  0  0  0  0  0  0  0
    4.8655   -2.0928   -1.2043 H   0  0  0  0  0  0  0  0  0  0  0  0
    0.3054   -0.8541    0.9803 H   0  0  0  0  0  0  0  0  0  0  0  0
    2.7050    1.0380   -1.2337 H   0  0  0  0  0  0  0  0  0  0  0  0
   -0.1694    3.3582   -3.0892 H   0  0  0  0  0  0  0  0  0  0  0  0
   -1.5125   -0.3204    0.6235 H   0  0  0  0  0  0  0  0  0  0  0  0
   -4.2804    2.1412   -1.3898 H   0  0  0  0  0  0  0  0  0  0  0  0
   -2.4455    3.2060   -2.6424 H   0  0  0  0  0  0  0  0  0  0  0  0
   -3.5791   -0.4666    1.3201 H   0  0  0  0  0  0  0  0  0  0  0  0
   -2.9539   -1.3115   -1.4655 H   0  0  0  0  0  0  0  0  0  0  0  0
   -3.9871   -2.9761   -2.8591 H   0  0  0  0  0  0  0  0  0  0  0  0
   -7.7353   -2.4560   -0.9099 H   0  0  0  0  0  0  0  0  0  0  0  0
   -6.7063   -0.7801    0.5100 H   0  0  0  0  0  0  0  0  0  0  0  0
   -3.9555    0.9894    2.9686 H   0  0  0  0  0  0  0  0  0  0  0  0
   -5.4336    2.5214    4.1405 H   0  0  0  0  0  0  0  0  0  0  0  0
   -7.8175    2.8537    0.6212 H   0  0  0  0  0  0  0  0  0  0  0  0
   -6.3465    1.3402   -0.5212 H   0  0  0  0  0  0  0  0  0  0  0  0
  1  2  1  0
  2  3  2  0
  2  4  1  0
  4  5  1  0
  5  6  1  0
  6  7  1  0
  7  8  1  0
  8  9  2  0
  9 10  1  0
 10 11  2  0
 11 12  1  0
 12 13  2  0
 11 14  1  0
 14 15  1  0
 15 16  2  0
 16 17  1  0
 17 18  2  0
 17 19  1  0
 19 20  1  0
 20 21  2  0
 21 22  1  0
 22 23  2  0
 23 24  1  0
 24 25  2  0
 23 26  1  0
 26 27  1  0
 27 28  2  0
 28 29  1  0
 29 30  2  0
 30 31  1  0
 31 32  2  0
 30 33  1  0
 26 34  1  0
 34 35  2  0
 35 36  1  0
 36 37  2  0
 37 38  1  0
 38 39  2  0
 37 40  1  0
 13  8  1  0
 21 15  1  0
 32 27  1  0
 39 34  1  0
 25 20  1  0
  1 41  1  0
  4 42  1  0
  4 43  1  0
  5 44  1  0
  5 45  1  0
  6 46  1  0
  6 47  1  0
  9 48  1  0
 10 49  1  0
 12 50  1  0
 13 51  1  0
 14 52  1  0
 16 53  1  0
 19 54  1  0
 22 55  1  0
 24 56  1  0
 25 57  1  0
 26 58  1  0
 28 59  1  0
 29 60  1  0
 31 61  1  0
 32 62  1  0
 35 63  1  0
 36 64  1  0
 38 65  1  0
 39 66  1  0
M  END
>  <Ligand ID>  (1) 
LIG0005899

>  <Ligand>  (1) 
CHEMBL3953885

>  <SMILES>  (1) 
OC(=O)CCCOc1ccc(cc1)Nc1cc(=O)[nH]c2c1cc(cc2)C(c1ccc(cc1)Cl)c1ccc(cc1)Cl

>  <CID>  (1) 
118324104.0

>  <ChEMBL ID>  (1) 
nan

>  <InChiKey>  (1) 
HTIUIYGFPALAHO-UHFFFAOYSA-N

>  <InChi>  (1) 
InChI=1S/C32H26Cl2N2O4/c33-23-8-3-20(4-9-23)32(21-5-10-24(34)11-6-21)22-7-16-28-27(18-22)29(19-30(37)36-28)35-25-12-14-26(15-13-25)40-17-1-2-31(38)39/h3-16,18-19,32H,1-2,17H2,(H,38,39)(H2,35,36,37)

>  <IUPAC Name>  (1) 
4-[4-[[6-[bis(4-chlorophenyl)methyl]-2-oxo-1H-quinolin-4-yl]amino]phenoxy]butanoic acid

$$$$
