
     RDKit          3D

 19 20  0  0  0  0  0  0  0  0999 V2000
   -1.2697   -2.4027    0.1326 O   0  0  0  0  0  0  0  0  0  0  0  0
   -1.1190   -1.1624    0.2634 C   0  0  0  0  0  0  0  0  0  0  0  0
   -2.2541   -0.2383    0.5773 C   0  0  0  0  0  0  0  0  0  0  0  0
   -2.2074    0.8445   -0.5020 C   0  0  0  0  0  0  0  0  0  0  0  0
   -0.9375    1.4358   -0.5089 O   0  0  0  0  0  0  0  0  0  0  0  0
    0.2532    0.7606   -0.2839 C   0  0  0  0  0  0  0  0  0  0  0  0
    0.2025   -0.5618    0.1099 C   0  0  0  0  0  0  0  0  0  0  0  0
    1.3298   -1.3198    0.3583 C   0  0  0  0  0  0  0  0  0  0  0  0
    2.5726   -0.7122    0.2012 C   0  0  0  0  0  0  0  0  0  0  0  0
    2.6299    0.6289   -0.1981 C   0  0  0  0  0  0  0  0  0  0  0  0
    1.4856    1.3631   -0.4397 C   0  0  0  0  0  0  0  0  0  0  0  0
   -3.2018   -0.7817    0.5754 H   0  0  0  0  0  0  0  0  0  0  0  0
   -2.0239    0.2529    1.5567 H   0  0  0  0  0  0  0  0  0  0  0  0
   -2.3340    0.3529   -1.4831 H   0  0  0  0  0  0  0  0  0  0  0  0
   -2.9493    1.6280   -0.3304 H   0  0  0  0  0  0  0  0  0  0  0  0
    1.2202   -2.3522    0.6644 H   0  0  0  0  0  0  0  0  0  0  0  0
    3.4796   -1.2719    0.3861 H   0  0  0  0  0  0  0  0  0  0  0  0
    3.5877    1.1375   -0.3312 H   0  0  0  0  0  0  0  0  0  0  0  0
    1.5359    2.3989   -0.7480 H   0  0  0  0  0  0  0  0  0  0  0  0
  1  2  2  0
  2  3  1  0
  3  4  1  0
  4  5  1  0
  5  6  1  0
  6  7  2  0
  7  8  1  0
  8  9  2  0
  9 10  1  0
 10 11  2  0
  7  2  1  0
 11  6  1  0
  3 12  1  0
  3 13  1  0
  4 14  1  0
  4 15  1  0
  8 16  1  0
  9 17  1  0
 10 18  1  0
 11 19  1  0
M  END
>  <Ligand ID>  (1) 
LIG0000092

>  <Ligand>  (1) 
4-chromanone

>  <SMILES>  (1) 
O=C1CCOc2c1cccc2

>  <CID>  (1) 
68110.0

>  <ChEMBL ID>  (1) 
nan

>  <InChiKey>  (1) 
MSTDXOZUKAQDRL-UHFFFAOYSA-N

>  <InChi>  (1) 
InChI=1S/C9H8O2/c10-8-5-6-11-9-4-2-1-3-7(8)9/h1-4H,5-6H2

>  <IUPAC Name>  (1) 
2,3-dihydrochromen-4-one

$$$$
