
     RDKit          3D

 67 70  0  0  0  0  0  0  0  0999 V2000
   -9.1705   -4.2252   -0.4549 O   0  0  0  0  0  0  0  0  0  0  0  0
   -8.4063   -3.1597    0.0473 C   0  0  0  0  0  0  0  0  0  0  0  0
   -7.6308   -3.6645    1.2358 C   0  0  0  0  0  0  0  0  0  0  0  0
   -6.8139   -2.7426    1.8669 O   0  0  0  0  0  0  0  0  0  0  0  0
   -5.7345   -2.0373    1.4510 C   0  0  0  0  0  0  0  0  0  0  0  0
   -5.1560   -1.1594    2.3818 C   0  0  0  0  0  0  0  0  0  0  0  0
   -4.0648   -0.3927    2.0897 C   0  0  0  0  0  0  0  0  0  0  0  0
   -3.5062   -0.4713    0.8558 C   0  0  0  0  0  0  0  0  0  0  0  0
   -4.0189   -1.3101   -0.1081 C   0  0  0  0  0  0  0  0  0  0  0  0
   -5.1309   -2.0769    0.2234 C   0  0  0  0  0  0  0  0  0  0  0  0
   -2.3482    0.3430    0.5467 C   0  0  0  0  0  0  0  0  0  0  0  0
   -1.1048   -0.1985    0.8015 C   0  0  0  0  0  0  0  0  0  0  0  0
   -0.9583   -1.5159    1.3510 C   0  0  0  0  0  0  0  0  0  0  0  0
   -0.8485   -2.5711    1.7944 N   0  0  0  0  0  0  0  0  0  0  0  0
   -0.0165    0.5939    0.4998 C   0  0  0  0  0  0  0  0  0  0  0  0
    1.6020   -0.1028    0.8289 S   0  0  0  0  0  0  0  0  0  0  0  0
    2.2538   -1.0135   -0.5745 C   0  0  0  0  0  0  0  0  0  0  0  0
    3.5944   -1.5739   -0.2609 C   0  0  0  0  0  0  0  0  0  0  0  0
    3.5987   -2.8552    0.2987 C   0  0  0  0  0  0  0  0  0  0  0  0
    4.7791   -3.4780    0.6313 C   0  0  0  0  0  0  0  0  0  0  0  0
    5.9445   -2.7711    0.3826 C   0  0  0  0  0  0  0  0  0  0  0  0
    5.9817   -1.5219   -0.1610 C   0  0  0  0  0  0  0  0  0  0  0  0
    4.7720   -0.9023   -0.4937 C   0  0  0  0  0  0  0  0  0  0  0  0
    7.2061   -0.7770   -0.4234 C   0  0  0  0  0  0  0  0  0  0  0  0
    7.1893    0.3929   -0.9350 O   0  0  0  0  0  0  0  0  0  0  0  0
    8.4820   -1.3058   -0.1271 N   0  0  0  0  0  0  0  0  0  0  0  0
    9.6578   -0.5124   -0.4133 C   0  0  0  0  0  0  0  0  0  0  0  0
    9.5607    0.7733    0.3847 C   0  0  0  0  0  0  0  0  0  0  0  0
   -0.1495    1.8252   -0.0143 N   0  0  0  0  0  0  0  0  0  0  0  0
   -1.3607    2.4043   -0.2846 C   0  0  0  0  0  0  0  0  0  0  0  0
   -2.4543    1.6273    0.0119 C   0  0  0  0  0  0  0  0  0  0  0  0
   -3.7807    2.1175   -0.1881 C   0  0  0  0  0  0  0  0  0  0  0  0
   -4.8415    2.4986   -0.3302 N   0  0  0  0  0  0  0  0  0  0  0  0
   -1.3886    3.6794   -0.8506 N   0  0  0  0  0  0  0  0  0  0  0  0
   -0.2007    4.5779   -0.7945 C   0  0  0  0  0  0  0  0  0  0  0  0
   -0.8770    5.8657   -0.3412 C   0  0  0  0  0  0  0  0  0  0  0  0
   -2.3573    5.7302   -0.7174 C   0  0  0  0  0  0  0  0  0  0  0  0
   -2.3346    4.4641   -1.5796 C   0  0  0  0  0  0  0  0  0  0  0  0
   -8.6264   -5.0231   -0.6543 H   0  0  0  0  0  0  0  0  0  0  0  0
   -9.1480   -2.3909    0.3957 H   0  0  0  0  0  0  0  0  0  0  0  0
   -7.7872   -2.8025   -0.7665 H   0  0  0  0  0  0  0  0  0  0  0  0
   -7.0042   -4.5430    0.8759 H   0  0  0  0  0  0  0  0  0  0  0  0
   -8.4030   -4.0695    1.9483 H   0  0  0  0  0  0  0  0  0  0  0  0
   -5.5749   -1.0643    3.3902 H   0  0  0  0  0  0  0  0  0  0  0  0
   -3.6544    0.2686    2.8386 H   0  0  0  0  0  0  0  0  0  0  0  0
   -3.5601   -1.3620   -1.0927 H   0  0  0  0  0  0  0  0  0  0  0  0
   -5.4956   -2.7290   -0.5500 H   0  0  0  0  0  0  0  0  0  0  0  0
    2.4229   -0.2680   -1.4055 H   0  0  0  0  0  0  0  0  0  0  0  0
    1.5560   -1.8003   -0.9227 H   0  0  0  0  0  0  0  0  0  0  0  0
    2.6859   -3.4002    0.4898 H   0  0  0  0  0  0  0  0  0  0  0  0
    4.7963   -4.4570    1.0597 H   0  0  0  0  0  0  0  0  0  0  0  0
    6.8691   -3.2653    0.6459 H   0  0  0  0  0  0  0  0  0  0  0  0
    4.7359    0.0843   -0.9263 H   0  0  0  0  0  0  0  0  0  0  0  0
    8.6026   -2.2523    0.2922 H   0  0  0  0  0  0  0  0  0  0  0  0
   10.5912   -1.0495   -0.1882 H   0  0  0  0  0  0  0  0  0  0  0  0
    9.7014   -0.2100   -1.4996 H   0  0  0  0  0  0  0  0  0  0  0  0
   10.5924    1.0626    0.6972 H   0  0  0  0  0  0  0  0  0  0  0  0
    8.9126    0.6017    1.2790 H   0  0  0  0  0  0  0  0  0  0  0  0
    9.0933    1.5528   -0.2306 H   0  0  0  0  0  0  0  0  0  0  0  0
    0.5440    4.2252   -0.0841 H   0  0  0  0  0  0  0  0  0  0  0  0
    0.1385    4.6574   -1.8461 H   0  0  0  0  0  0  0  0  0  0  0  0
   -0.7292    5.9596    0.7494 H   0  0  0  0  0  0  0  0  0  0  0  0
   -0.3860    6.6793   -0.9139 H   0  0  0  0  0  0  0  0  0  0  0  0
   -2.7446    6.5946   -1.2568 H   0  0  0  0  0  0  0  0  0  0  0  0
   -2.9084    5.5811    0.2313 H   0  0  0  0  0  0  0  0  0  0  0  0
   -3.2923    4.0514   -1.8126 H   0  0  0  0  0  0  0  0  0  0  0  0
   -1.8958    4.8141   -2.5659 H   0  0  0  0  0  0  0  0  0  0  0  0
  1  2  1  0
  2  3  1  0
  3  4  1  0
  4  5  1  0
  5  6  2  0
  6  7  1  0
  7  8  2  0
  8  9  1  0
  9 10  2  0
  8 11  1  0
 11 12  2  0
 12 13  1  0
 13 14  3  0
 12 15  1  0
 15 16  1  0
 16 17  1  0
 17 18  1  0
 18 19  2  0
 19 20  1  0
 20 21  2  0
 21 22  1  0
 22 23  2  0
 22 24  1  0
 24 25  2  0
 24 26  1  0
 26 27  1  0
 27 28  1  0
 15 29  2  0
 29 30  1  0
 30 31  2  0
 31 32  1  0
 32 33  3  0
 30 34  1  0
 34 35  1  0
 35 36  1  0
 36 37  1  0
 37 38  1  0
 10  5  1  0
 31 11  1  0
 38 34  1  0
 23 18  1  0
  1 39  1  0
  2 40  1  0
  2 41  1  0
  3 42  1  0
  3 43  1  0
  6 44  1  0
  7 45  1  0
  9 46  1  0
 10 47  1  0
 17 48  1  0
 17 49  1  0
 19 50  1  0
 20 51  1  0
 21 52  1  0
 23 53  1  0
 26 54  1  0
 27 55  1  0
 27 56  1  0
 28 57  1  0
 28 58  1  0
 28 59  1  0
 35 60  1  0
 35 61  1  0
 36 62  1  0
 36 63  1  0
 37 64  1  0
 37 65  1  0
 38 66  1  0
 38 67  1  0
M  END
>  <Ligand ID>  (1) 
LIG0004413

>  <Ligand>  (1) 
SCHEMBL246621

>  <SMILES>  (1) 
OCCOc1ccc(cc1)c1c(C#N)c(SCc2cccc(c2)C(=O)NCC)nc(c1C#N)N1CCCC1

>  <CID>  (1) 
66631991.0

>  <ChEMBL ID>  (1) 
nan

>  <InChiKey>  (1) 
AFDZAPUKPRXNJZ-UHFFFAOYSA-N

>  <InChi>  (1) 
InChI=1S/C29H29N5O3S/c1-2-32-28(36)22-7-5-6-20(16-22)19-38-29-25(18-31)26(21-8-10-23(11-9-21)37-15-14-35)24(17-30)27(33-29)34-12-3-4-13-34/h5-11,16,35H,2-4,12-15,19H2,1H3,(H,32,36)

>  <IUPAC Name>  (1) 
3-[[3,5-dicyano-4-[4-(2-hydroxyethoxy)phenyl]-6-pyrrolidin-1-ylpyridin-2-yl]sulfanylmethyl]-N-ethylbenzamide

$$$$
