
     RDKit          3D

 56 59  0  0  0  0  0  0  0  0999 V2000
    4.9962   -0.2269    0.5769 O   0  0  0  0  0  0  0  0  0  0  0  0
    4.9592    1.0339    0.6656 C   0  0  0  0  0  0  0  0  0  0  0  0
    3.7879    1.7263    1.1272 N   0  0  0  0  0  0  0  0  0  0  0  0
    2.6803    0.8710    1.4735 C   0  0  0  0  0  0  0  0  0  0  0  0
    2.5353    0.3923    2.7302 N   0  0  0  0  0  0  0  0  0  0  0  0
    1.4898   -0.4164    3.0617 C   0  0  0  0  0  0  0  0  0  0  0  0
    0.5590   -0.7651    2.1307 N   0  0  0  0  0  0  0  0  0  0  0  0
    0.6656   -0.3127    0.8752 C   0  0  0  0  0  0  0  0  0  0  0  0
    1.7289    0.5091    0.5401 C   0  0  0  0  0  0  0  0  0  0  0  0
    1.5683    0.7918   -0.7529 N   0  0  0  0  0  0  0  0  0  0  0  0
    0.4602    0.1810   -1.2152 C   0  0  0  0  0  0  0  0  0  0  0  0
   -0.1156   -0.5156   -0.2030 N   0  0  0  0  0  0  0  0  0  0  0  0
   -1.3097   -1.2795   -0.3518 C   0  0  2  0  0  0  0  0  0  0  0  0
   -2.2781   -0.6265   -1.1158 O   0  0  0  0  0  0  0  0  0  0  0  0
   -3.4045   -1.4281   -0.9970 C   0  0  1  0  0  0  0  0  0  0  0  0
   -3.4091   -1.9978    0.3858 C   0  0  2  0  0  0  0  0  0  0  0  0
   -2.0674   -1.5009    0.9404 C   0  0  1  0  0  0  0  0  0  0  0  0
   -1.4704   -2.4790    1.7268 O   0  0  0  0  0  0  0  0  0  0  0  0
   -3.4087   -3.3976    0.2893 O   0  0  0  0  0  0  0  0  0  0  0  0
   -4.6539   -0.6104   -1.2445 C   0  0  0  0  0  0  0  0  0  0  0  0
   -4.7151    0.4057   -0.3158 O   0  0  0  0  0  0  0  0  0  0  0  0
   -6.0798    1.3785   -0.5091 P   0  0  0  0  0  0  0  0  0  0  0  0
   -5.7113    2.8422   -0.4424 O   0  0  0  0  0  0  0  0  0  0  0  0
   -7.1684    1.0307    0.7322 O   0  0  0  0  0  0  0  0  0  0  0  0
   -8.5736    0.3082    0.1474 P   0  0  0  0  0  0  0  0  0  0  0  0
   -9.3034    1.2706   -0.7281 O   0  0  0  0  0  0  0  0  0  0  0  0
   -8.2798   -1.0902   -0.7370 O   0  0  0  0  0  0  0  0  0  0  0  0
   -9.5289   -0.0847    1.5097 O   0  0  0  0  0  0  0  0  0  0  0  0
   -6.7484    0.9824   -2.0155 O   0  0  0  0  0  0  0  0  0  0  0  0
    6.1093    1.7979    0.2986 N   0  0  0  0  0  0  0  0  0  0  0  0
    7.3040    1.1877   -0.1665 C   0  0  0  0  0  0  0  0  0  0  0  0
    7.4632    0.9656   -1.5279 C   0  0  0  0  0  0  0  0  0  0  0  0
    8.6267    0.3704   -1.9901 C   0  0  0  0  0  0  0  0  0  0  0  0
    9.6394   -0.0124   -1.1432 C   0  0  0  0  0  0  0  0  0  0  0  0
    9.4885    0.2048    0.2073 C   0  0  0  0  0  0  0  0  0  0  0  0
    8.3271    0.8001    0.6802 C   0  0  0  0  0  0  0  0  0  0  0  0
    3.7379    2.7599    1.2069 H   0  0  0  0  0  0  0  0  0  0  0  0
    1.4352   -0.7644    4.0887 H   0  0  0  0  0  0  0  0  0  0  0  0
    0.0937    0.2418   -2.2363 H   0  0  0  0  0  0  0  0  0  0  0  0
   -1.1601   -2.2717   -0.8228 H   0  0  0  0  0  0  0  0  0  0  0  0
   -3.2934   -2.2177   -1.7938 H   0  0  0  0  0  0  0  0  0  0  0  0
   -4.2427   -1.6395    1.0108 H   0  0  0  0  0  0  0  0  0  0  0  0
   -2.2762   -0.5761    1.4864 H   0  0  0  0  0  0  0  0  0  0  0  0
   -1.6915   -2.3611    2.6842 H   0  0  0  0  0  0  0  0  0  0  0  0
   -3.4139   -3.6965   -0.6547 H   0  0  0  0  0  0  0  0  0  0  0  0
   -5.5524   -1.2324   -1.1388 H   0  0  0  0  0  0  0  0  0  0  0  0
   -4.6339   -0.1962   -2.2749 H   0  0  0  0  0  0  0  0  0  0  0  0
   -8.2798   -0.8937   -1.6990 H   0  0  0  0  0  0  0  0  0  0  0  0
   -9.1327   -0.8510    1.9941 H   0  0  0  0  0  0  0  0  0  0  0  0
   -6.4332    1.6684   -2.6421 H   0  0  0  0  0  0  0  0  0  0  0  0
    6.1249    2.8509    0.3559 H   0  0  0  0  0  0  0  0  0  0  0  0
    6.6945    1.2506   -2.2208 H   0  0  0  0  0  0  0  0  0  0  0  0
    8.7862    0.1795   -3.0613 H   0  0  0  0  0  0  0  0  0  0  0  0
   10.5426   -0.4785   -1.5397 H   0  0  0  0  0  0  0  0  0  0  0  0
   10.2981   -0.1037    0.8612 H   0  0  0  0  0  0  0  0  0  0  0  0
    8.2338    0.9601    1.7527 H   0  0  0  0  0  0  0  0  0  0  0  0
  1  2  2  0
  2  3  1  0
  3  4  1  0
  4  5  2  0
  5  6  1  0
  6  7  2  0
  7  8  1  0
  8  9  2  0
  9 10  1  0
 10 11  2  0
 11 12  1  0
 12 13  1  0
 13 14  1  0
 14 15  1  0
 15 16  1  0
 16 17  1  0
 17 18  1  0
 16 19  1  0
 15 20  1  0
 20 21  1  0
 21 22  1  0
 22 23  2  0
 22 24  1  0
 24 25  1  0
 25 26  2  0
 25 27  1  0
 25 28  1  0
 22 29  1  0
  2 30  1  0
 30 31  1  0
 31 32  2  0
 32 33  1  0
 33 34  2  0
 34 35  1  0
 35 36  2  0
  9  4  1  0
 17 13  1  0
 36 31  1  0
 12  8  1  0
  3 37  1  0
  6 38  1  0
 11 39  1  0
 13 40  1  6
 15 41  1  6
 16 42  1  1
 17 43  1  1
 18 44  1  0
 19 45  1  0
 20 46  1  0
 20 47  1  0
 27 48  1  0
 28 49  1  0
 29 50  1  0
 30 51  1  0
 32 52  1  0
 33 53  1  0
 34 54  1  0
 35 55  1  0
 36 56  1  0
M  END
>  <Ligand ID>  (1) 
LIG0002719

>  <Ligand>  (1) 
CHEMBL1162163

>  <SMILES>  (1) 
O=C(Nc1ncnc2c1ncn2[C@@H]1O[C@@H]([C@H]([C@H]1O)O)COP(=O)(OP(=O)(O)O)O)Nc1ccccc1

>  <CID>  (1) 
10098947.0

>  <ChEMBL ID>  (1) 
nan

>  <InChiKey>  (1) 
NPEOZNAZFLOGJY-XNIJJKJLSA-N

>  <InChi>  (1) 
InChI=1S/C17H20N6O11P2/c24-12-10(6-32-36(30,31)34-35(27,28)29)33-16(13(12)25)23-8-20-11-14(18-7-19-15(11)23)22-17(26)21-9-4-2-1-3-5-9/h1-5,7-8,10,12-13,16,24-25H,6H2,(H,30,31)(H2,27,28,29)(H2,18,19,21,22,26)/t10-,12-,13-,16-/m1/s1

>  <IUPAC Name>  (1) 
[(2R,3S,4R,5R)-3,4-dihydroxy-5-[6-(phenylcarbamoylamino)purin-9-yl]oxolan-2-yl]methyl phosphono hydrogen phosphate

$$$$
