
     RDKit          3D

 21 21  0  0  0  0  0  0  0  0999 V2000
    3.6845    0.2583    0.2176 C   0  0  0  0  0  0  0  0  0  0  0  0
    2.3822    0.6296    0.5973 O   0  0  0  0  0  0  0  0  0  0  0  0
    1.2161    0.1359    0.0764 C   0  0  0  0  0  0  0  0  0  0  0  0
    1.1397   -0.8181   -0.9185 C   0  0  0  0  0  0  0  0  0  0  0  0
   -0.0997   -1.2606   -1.3866 C   0  0  0  0  0  0  0  0  0  0  0  0
   -1.2802   -0.7591   -0.8704 C   0  0  0  0  0  0  0  0  0  0  0  0
   -1.2108    0.1981    0.1278 C   0  0  0  0  0  0  0  0  0  0  0  0
    0.0261    0.6236    0.5782 C   0  0  0  0  0  0  0  0  0  0  0  0
    0.0580    1.5980    1.5940 O   0  0  0  0  0  0  0  0  0  0  0  0
   -2.3520    0.7499    0.6967 O   0  0  0  0  0  0  0  0  0  0  0  0
   -3.6448    0.3767    0.3005 C   0  0  0  0  0  0  0  0  0  0  0  0
    4.2570    1.0910   -0.2437 H   0  0  0  0  0  0  0  0  0  0  0  0
    3.7623   -0.6626   -0.3614 H   0  0  0  0  0  0  0  0  0  0  0  0
    4.2283    0.0467    1.1847 H   0  0  0  0  0  0  0  0  0  0  0  0
    2.0549   -1.2166   -1.3289 H   0  0  0  0  0  0  0  0  0  0  0  0
   -0.1758   -2.0111   -2.1694 H   0  0  0  0  0  0  0  0  0  0  0  0
   -2.2466   -1.0984   -1.2293 H   0  0  0  0  0  0  0  0  0  0  0  0
    0.1741    1.2535    2.5438 H   0  0  0  0  0  0  0  0  0  0  0  0
   -3.7884    0.6392   -0.7659 H   0  0  0  0  0  0  0  0  0  0  0  0
   -4.3660    0.9365    0.9193 H   0  0  0  0  0  0  0  0  0  0  0  0
   -3.8191   -0.7104    0.4379 H   0  0  0  0  0  0  0  0  0  0  0  0
  1  2  1  0
  2  3  1  0
  3  4  2  0
  4  5  1  0
  5  6  2  0
  6  7  1  0
  7  8  2  0
  8  9  1  0
  7 10  1  0
 10 11  1  0
  8  3  1  0
  1 12  1  0
  1 13  1  0
  1 14  1  0
  4 15  1  0
  5 16  1  0
  6 17  1  0
  9 18  1  0
 11 19  1  0
 11 20  1  0
 11 21  1  0
M  END
>  <Ligand ID>  (1) 
LIG0000635

>  <Ligand>  (1) 
2,6-Dimethoxyphenol

>  <SMILES>  (1) 
COc1cccc(c1O)OC

>  <CID>  (1) 
7041.0

>  <ChEMBL ID>  (1) 
nan

>  <InChiKey>  (1) 
KLIDCXVFHGNTTM-UHFFFAOYSA-N

>  <InChi>  (1) 
InChI=1S/C8H10O3/c1-10-6-4-3-5-7(11-2)8(6)9/h3-5,9H,1-2H3

>  <IUPAC Name>  (1) 
2,6-dimethoxyphenol

$$$$
