
     RDKit          3D

 47 47  0  0  0  0  0  0  0  0999 V2000
   -1.9882   -1.3184    2.0081 C   0  0  0  0  0  0  0  0  0  0  0  0
   -1.2275   -0.6968    0.8275 C   0  0  0  0  0  0  0  0  0  0  0  0
   -2.2106   -0.3215   -0.2159 C   0  0  0  0  0  0  0  0  0  0  0  0
   -3.4998   -0.5139   -0.0614 C   0  0  0  0  0  0  0  0  0  0  0  0
   -4.6100   -0.2188   -0.9436 C   0  0  0  0  0  0  0  0  0  0  0  0
   -4.5054    0.8135   -1.9899 C   0  0  0  0  0  0  0  0  0  0  0  0
   -5.3701   -1.4828   -1.3766 C   0  0  0  0  0  0  0  0  0  0  0  0
   -1.7603    0.2686   -1.5106 C   0  0  0  0  0  0  0  0  0  0  0  0
   -0.5400    0.3941    1.2063 O   0  0  0  0  0  0  0  0  0  0  0  0
    0.7832    0.4919    1.2527 C   0  0  0  0  0  0  0  0  0  0  0  0
    1.6481    0.3018    0.0829 C   0  0  0  0  0  0  0  0  0  0  0  0
    3.0332    0.4667    0.4281 O   0  0  0  0  0  0  0  0  0  0  0  0
    4.0163    0.3283   -0.5340 C   0  0  0  0  0  0  0  0  0  0  0  0
    3.6527    0.0560   -1.7072 O   0  0  0  0  0  0  0  0  0  0  0  0
    5.4350    0.4937   -0.1970 C   0  0  0  0  0  0  0  0  0  0  0  0
    6.3586   -0.5466   -0.7623 C   0  0  0  0  0  0  0  0  0  0  0  0
    6.4047    0.8489   -1.2738 C   0  0  0  0  0  0  0  0  0  0  0  0
    1.0577    1.9324    1.7544 C   0  0  0  0  0  0  0  0  0  0  0  0
    1.3898   -0.3597    2.3951 C   0  0  0  0  0  0  0  0  0  0  0  0
   -2.6596   -0.6366    2.5040 H   0  0  0  0  0  0  0  0  0  0  0  0
   -2.4436   -2.2522    1.6505 H   0  0  0  0  0  0  0  0  0  0  0  0
   -1.2250   -1.6533    2.7564 H   0  0  0  0  0  0  0  0  0  0  0  0
   -0.6259   -1.5372    0.4285 H   0  0  0  0  0  0  0  0  0  0  0  0
   -3.7787   -0.9891    0.9162 H   0  0  0  0  0  0  0  0  0  0  0  0
   -5.4089    0.2434   -0.2181 H   0  0  0  0  0  0  0  0  0  0  0  0
   -3.9438    0.5916   -2.8979 H   0  0  0  0  0  0  0  0  0  0  0  0
   -4.3004    1.7972   -1.5141 H   0  0  0  0  0  0  0  0  0  0  0  0
   -5.5701    0.9878   -2.4007 H   0  0  0  0  0  0  0  0  0  0  0  0
   -5.9565   -1.9192   -0.5415 H   0  0  0  0  0  0  0  0  0  0  0  0
   -4.5879   -2.2384   -1.6361 H   0  0  0  0  0  0  0  0  0  0  0  0
   -6.0613   -1.2748   -2.1935 H   0  0  0  0  0  0  0  0  0  0  0  0
   -0.6292    0.3046   -1.5001 H   0  0  0  0  0  0  0  0  0  0  0  0
   -2.0413    1.3154   -1.6633 H   0  0  0  0  0  0  0  0  0  0  0  0
   -1.9590   -0.4188   -2.3613 H   0  0  0  0  0  0  0  0  0  0  0  0
    1.4894    1.0997   -0.7017 H   0  0  0  0  0  0  0  0  0  0  0  0
    1.5748   -0.6392   -0.4510 H   0  0  0  0  0  0  0  0  0  0  0  0
    5.6584    0.7332    0.8650 H   0  0  0  0  0  0  0  0  0  0  0  0
    5.9445   -1.3073   -1.4719 H   0  0  0  0  0  0  0  0  0  0  0  0
    7.1881   -0.9575   -0.1577 H   0  0  0  0  0  0  0  0  0  0  0  0
    5.9818    1.0895   -2.2781 H   0  0  0  0  0  0  0  0  0  0  0  0
    7.2647    1.4559   -0.9546 H   0  0  0  0  0  0  0  0  0  0  0  0
    2.1104    2.2178    1.6006 H   0  0  0  0  0  0  0  0  0  0  0  0
    0.7341    2.0375    2.8105 H   0  0  0  0  0  0  0  0  0  0  0  0
    0.4450    2.6703    1.1862 H   0  0  0  0  0  0  0  0  0  0  0  0
    2.4990   -0.2788    2.3650 H   0  0  0  0  0  0  0  0  0  0  0  0
    1.0826    0.0501    3.3805 H   0  0  0  0  0  0  0  0  0  0  0  0
    1.1503   -1.4289    2.2643 H   0  0  0  0  0  0  0  0  0  0  0  0
  1  2  1  0
  2  3  1  0
  3  4  2  0
  4  5  1  0
  5  6  1  0
  5  7  1  0
  3  8  1  0
  2  9  1  0
  9 10  1  0
 10 11  1  0
 11 12  1  0
 12 13  1  0
 13 14  2  0
 13 15  1  0
 15 16  1  0
 16 17  1  0
 10 18  1  0
 10 19  1  0
 17 15  1  0
  1 20  1  0
  1 21  1  0
  1 22  1  0
  2 23  1  0
  4 24  1  0
  5 25  1  0
  6 26  1  0
  6 27  1  0
  6 28  1  0
  7 29  1  0
  7 30  1  0
  7 31  1  0
  8 32  1  0
  8 33  1  0
  8 34  1  0
 11 35  1  0
 11 36  1  0
 15 37  1  0
 16 38  1  0
 16 39  1  0
 17 40  1  0
 17 41  1  0
 18 42  1  0
 18 43  1  0
 18 44  1  0
 19 45  1  0
 19 46  1  0
 19 47  1  0
M  END
>  <Ligand ID>  (1) 
LIG0001020

>  <Ligand>  (1) 
sylkolide

>  <SMILES>  (1) 
CC(/C(=C/C(C)C)/C)OC(COC(=O)C1CC1)(C)C

>  <CID>  (1) 
11277198.0

>  <ChEMBL ID>  (1) 
nan

>  <InChiKey>  (1) 
ZYIJXTQXQNXPSH-FMIVXFBMSA-N

>  <InChi>  (1) 
InChI=1S/C16H28O3/c1-11(2)9-12(3)13(4)19-16(5,6)10-18-15(17)14-7-8-14/h9,11,13-14H,7-8,10H2,1-6H3/b12-9+

>  <IUPAC Name>  (1) 
[2-[(E)-3,5-dimethylhex-3-en-2-yl]oxy-2-methylpropyl] cyclopropanecarboxylate

$$$$
