
     RDKit          3D

 56 59  0  0  0  0  0  0  0  0999 V2000
   -2.8184   -1.1765    1.5551 O   0  0  0  0  0  0  0  0  0  0  0  0
   -2.2807   -0.2523    0.8977 C   0  0  0  0  0  0  0  0  0  0  0  0
   -2.9968    0.6046   -0.0768 C   0  0  0  0  0  0  0  0  0  0  0  0
   -4.4444    0.8577    0.0940 C   0  0  0  0  0  0  0  0  0  0  0  0
   -4.0734   -0.0793   -0.9655 C   0  0  0  0  0  0  0  0  0  0  0  0
   -4.1196    0.4093   -2.4177 C   0  0  0  0  0  0  0  0  0  0  0  0
   -4.1078   -1.5713   -0.8341 C   0  0  0  0  0  0  0  0  0  0  0  0
   -4.9305    2.2425   -0.3803 C   0  0  0  0  0  0  0  0  0  0  0  0
   -5.2060    0.4033    1.3098 C   0  0  0  0  0  0  0  0  0  0  0  0
   -0.8446   -0.0373    1.1388 C   0  0  0  0  0  0  0  0  0  0  0  0
   -0.0377    0.9056    0.5470 C   0  0  0  0  0  0  0  0  0  0  0  0
    1.2384    0.8004    1.0221 N   0  0  0  0  0  0  0  0  0  0  0  0
    1.2117   -0.1915    1.8930 C   0  0  0  0  0  0  0  0  0  0  0  0
   -0.0514   -0.7507    2.0082 C   0  0  0  0  0  0  0  0  0  0  0  0
   -0.3260   -1.7954    2.8628 C   0  0  0  0  0  0  0  0  0  0  0  0
    0.6789   -2.3386    3.6608 C   0  0  0  0  0  0  0  0  0  0  0  0
    1.9262   -1.7768    3.5407 C   0  0  0  0  0  0  0  0  0  0  0  0
    2.1956   -0.7335    2.6856 C   0  0  0  0  0  0  0  0  0  0  0  0
    2.2873    1.6583    0.5201 C   0  0  0  0  0  0  0  0  0  0  0  0
    2.8408    1.1387   -0.7518 C   0  0  0  0  0  0  0  0  0  0  0  0
    3.4730   -0.1314   -0.7658 N   0  0  0  0  0  0  0  0  0  0  0  0
    3.7350   -0.4312   -2.1927 C   0  0  0  0  0  0  0  0  0  0  0  0
    5.0521    0.1909   -2.5814 C   0  0  0  0  0  0  0  0  0  0  0  0
    6.0841   -0.5866   -2.0316 O   0  0  0  0  0  0  0  0  0  0  0  0
    5.6376   -1.1682   -0.8334 C   0  0  0  0  0  0  0  0  0  0  0  0
    4.7820   -0.1235   -0.1252 C   0  0  0  0  0  0  0  0  0  0  0  0
   -2.4078    1.3843   -0.6016 H   0  0  0  0  0  0  0  0  0  0  0  0
   -3.6822   -0.3705   -3.0759 H   0  0  0  0  0  0  0  0  0  0  0  0
   -5.1628    0.5842   -2.7430 H   0  0  0  0  0  0  0  0  0  0  0  0
   -3.4864    1.3151   -2.5183 H   0  0  0  0  0  0  0  0  0  0  0  0
   -4.5382   -1.8796    0.1172 H   0  0  0  0  0  0  0  0  0  0  0  0
   -4.6666   -2.0559   -1.6714 H   0  0  0  0  0  0  0  0  0  0  0  0
   -3.0362   -1.9241   -0.8656 H   0  0  0  0  0  0  0  0  0  0  0  0
   -5.9439    2.4709    0.0036 H   0  0  0  0  0  0  0  0  0  0  0  0
   -5.0213    2.2482   -1.4842 H   0  0  0  0  0  0  0  0  0  0  0  0
   -4.2399    2.9982    0.0289 H   0  0  0  0  0  0  0  0  0  0  0  0
   -5.0554    1.1238    2.1472 H   0  0  0  0  0  0  0  0  0  0  0  0
   -6.3044    0.5114    1.0653 H   0  0  0  0  0  0  0  0  0  0  0  0
   -5.0698   -0.6346    1.6002 H   0  0  0  0  0  0  0  0  0  0  0  0
   -0.4103    1.6117   -0.1888 H   0  0  0  0  0  0  0  0  0  0  0  0
   -1.2992   -2.2470    2.9689 H   0  0  0  0  0  0  0  0  0  0  0  0
    0.4673   -3.1569    4.3311 H   0  0  0  0  0  0  0  0  0  0  0  0
    2.7375   -2.1669    4.1425 H   0  0  0  0  0  0  0  0  0  0  0  0
    3.1810   -0.3163    2.6373 H   0  0  0  0  0  0  0  0  0  0  0  0
    3.0917    1.7939    1.3020 H   0  0  0  0  0  0  0  0  0  0  0  0
    1.8885    2.7048    0.3994 H   0  0  0  0  0  0  0  0  0  0  0  0
    2.0304    1.0942   -1.5456 H   0  0  0  0  0  0  0  0  0  0  0  0
    3.5208    1.9459   -1.1674 H   0  0  0  0  0  0  0  0  0  0  0  0
    3.6978   -1.5157   -2.3402 H   0  0  0  0  0  0  0  0  0  0  0  0
    2.9245    0.0660   -2.8029 H   0  0  0  0  0  0  0  0  0  0  0  0
    5.1113    1.2186   -2.1759 H   0  0  0  0  0  0  0  0  0  0  0  0
    5.1732    0.2012   -3.6916 H   0  0  0  0  0  0  0  0  0  0  0  0
    6.5271   -1.3134   -0.1729 H   0  0  0  0  0  0  0  0  0  0  0  0
    5.1010   -2.1133   -1.0059 H   0  0  0  0  0  0  0  0  0  0  0  0
    5.2979    0.8478   -0.1837 H   0  0  0  0  0  0  0  0  0  0  0  0
    4.6687   -0.4934    0.9008 H   0  0  0  0  0  0  0  0  0  0  0  0
  1  2  2  0
  2  3  1  0
  3  4  1  0
  4  5  1  0
  5  6  1  0
  5  7  1  0
  4  8  1  0
  4  9  1  0
  2 10  1  0
 10 11  2  0
 11 12  1  0
 12 13  1  0
 13 14  2  0
 14 15  1  0
 15 16  2  0
 16 17  1  0
 17 18  2  0
 12 19  1  0
 19 20  1  0
 20 21  1  0
 21 22  1  0
 22 23  1  0
 23 24  1  0
 24 25  1  0
 25 26  1  0
  5  3  1  0
 14 10  1  0
 26 21  1  0
 18 13  1  0
  3 27  1  0
  6 28  1  0
  6 29  1  0
  6 30  1  0
  7 31  1  0
  7 32  1  0
  7 33  1  0
  8 34  1  0
  8 35  1  0
  8 36  1  0
  9 37  1  0
  9 38  1  0
  9 39  1  0
 11 40  1  0
 15 41  1  0
 16 42  1  0
 17 43  1  0
 18 44  1  0
 19 45  1  0
 19 46  1  0
 20 47  1  0
 20 48  1  0
 22 49  1  0
 22 50  1  0
 23 51  1  0
 23 52  1  0
 25 53  1  0
 25 54  1  0
 26 55  1  0
 26 56  1  0
M  END
>  <Ligand ID>  (1) 
LIG0001658

>  <Ligand>  (1) 
895155-26-7

>  <SMILES>  (1) 
O=C(C1C(C1(C)C)(C)C)c1cn(c2c1cccc2)CCN1CCOCC1

>  <CID>  (1) 
11584525.0

>  <ChEMBL ID>  (1) 
nan

>  <InChiKey>  (1) 
ZCFHOMLAFTWDFM-UHFFFAOYSA-N

>  <InChi>  (1) 
InChI=1S/C22H30N2O2/c1-21(2)20(22(21,3)4)19(25)17-15-24(18-8-6-5-7-16(17)18)10-9-23-11-13-26-14-12-23/h5-8,15,20H,9-14H2,1-4H3

>  <IUPAC Name>  (1) 
[1-(2-morpholin-4-ylethyl)indol-3-yl]-(2,2,3,3-tetramethylcyclopropyl)methanone

$$$$
