
     RDKit          3D

 60 62  0  0  0  0  0  0  0  0999 V2000
   -6.1933    2.0309   -1.6481 C   0  0  0  0  0  0  0  0  0  0  0  0
   -6.3649    1.6246   -0.3966 C   0  0  0  0  0  0  0  0  0  0  0  0
   -7.4255    0.7537    0.0879 C   0  0  0  0  0  0  0  0  0  0  0  0
   -6.9532   -0.5423    0.7007 C   0  0  0  0  0  0  0  0  0  0  0  0
   -6.2828   -1.3945   -0.0124 O   0  0  0  0  0  0  0  0  0  0  0  0
   -5.1625   -1.4369   -0.6583 C   0  0  0  0  0  0  0  0  0  0  0  0
   -3.8212   -1.3027   -0.0149 C   0  0  2  0  0  0  0  0  0  0  0  0
   -3.5939   -0.0235    0.6552 C   0  0  0  0  0  0  0  0  0  0  0  0
   -2.2418    0.0633    1.3566 C   0  0  0  0  0  0  0  0  0  0  0  0
   -1.1702   -0.5109    0.5048 C   0  0  0  0  0  0  0  0  0  0  0  0
   -1.4080   -1.2950   -0.5991 C   0  0  0  0  0  0  0  0  0  0  0  0
   -2.7855   -1.6550   -1.0609 C   0  0  0  0  0  0  0  0  0  0  0  0
   -0.3609   -1.8008   -1.3533 C   0  0  0  0  0  0  0  0  0  0  0  0
    0.9512   -1.5276   -1.0119 C   0  0  0  0  0  0  0  0  0  0  0  0
    1.1905   -0.7411    0.0953 C   0  0  0  0  0  0  0  0  0  0  0  0
    0.1412   -0.2428    0.8389 C   0  0  0  0  0  0  0  0  0  0  0  0
    2.5806   -0.4143    0.5100 C   0  0  1  0  0  0  0  0  0  0  0  0
    3.4463   -1.6383    0.6907 C   0  0  0  0  0  0  0  0  0  0  0  0
    4.8261   -0.9794    0.7890 C   0  0  0  0  0  0  0  0  0  0  0  0
    4.7794   -0.0248   -0.3966 C   0  0  2  0  0  0  0  0  0  0  0  0
    3.3203    0.3295   -0.5779 C   0  0  0  0  0  0  0  0  0  0  0  0
    5.3058   -0.7297   -1.5443 N   0  0  0  0  0  0  0  0  0  0  0  0
    5.5920    1.2281   -0.1186 C   0  0  0  0  0  0  0  0  0  0  0  0
    6.9086    0.8843    0.1357 O   0  0  0  0  0  0  0  0  0  0  0  0
    7.8013    2.3032    0.4445 P   0  0  0  0  0  0  0  0  0  0  0  0
    9.0166    2.3813   -0.4390 O   0  0  0  0  0  0  0  0  0  0  0  0
    6.8102    3.6573    0.2342 O   0  0  0  0  0  0  0  0  0  0  0  0
    8.3405    2.2574    2.0563 O   0  0  0  0  0  0  0  0  0  0  0  0
   -5.3920    2.6800   -1.9751 H   0  0  0  0  0  0  0  0  0  0  0  0
   -6.8864    1.7098   -2.4276 H   0  0  0  0  0  0  0  0  0  0  0  0
   -5.6333    1.9995    0.3271 H   0  0  0  0  0  0  0  0  0  0  0  0
   -8.1973    0.5595   -0.6886 H   0  0  0  0  0  0  0  0  0  0  0  0
   -7.9644    1.2988    0.9174 H   0  0  0  0  0  0  0  0  0  0  0  0
   -7.9553   -1.0492    1.0239 H   0  0  0  0  0  0  0  0  0  0  0  0
   -6.5296   -0.2460    1.7076 H   0  0  0  0  0  0  0  0  0  0  0  0
   -5.2295   -0.6740   -1.5305 H   0  0  0  0  0  0  0  0  0  0  0  0
   -5.1696   -2.4225   -1.2824 H   0  0  0  0  0  0  0  0  0  0  0  0
   -3.7602   -2.1653    0.7272 H   0  0  0  0  0  0  0  0  0  0  0  0
   -3.6219    0.8384   -0.0761 H   0  0  0  0  0  0  0  0  0  0  0  0
   -4.3297    0.1911    1.4312 H   0  0  0  0  0  0  0  0  0  0  0  0
   -2.0191    1.1439    1.4652 H   0  0  0  0  0  0  0  0  0  0  0  0
   -2.2679   -0.3565    2.3826 H   0  0  0  0  0  0  0  0  0  0  0  0
   -2.8508   -2.7228   -1.3265 H   0  0  0  0  0  0  0  0  0  0  0  0
   -2.9700   -1.0669   -1.9835 H   0  0  0  0  0  0  0  0  0  0  0  0
   -0.5244   -2.4258   -2.2341 H   0  0  0  0  0  0  0  0  0  0  0  0
    1.7494   -1.9345   -1.6171 H   0  0  0  0  0  0  0  0  0  0  0  0
    0.3531    0.3795    1.7142 H   0  0  0  0  0  0  0  0  0  0  0  0
    2.6000    0.2153    1.4032 H   0  0  0  0  0  0  0  0  0  0  0  0
    3.4626   -2.2467   -0.2149 H   0  0  0  0  0  0  0  0  0  0  0  0
    3.1967   -2.1990    1.6060 H   0  0  0  0  0  0  0  0  0  0  0  0
    5.6473   -1.6956    0.7426 H   0  0  0  0  0  0  0  0  0  0  0  0
    4.8078   -0.3849    1.7258 H   0  0  0  0  0  0  0  0  0  0  0  0
    3.1745    1.4332   -0.4269 H   0  0  0  0  0  0  0  0  0  0  0  0
    2.9907    0.0330   -1.5897 H   0  0  0  0  0  0  0  0  0  0  0  0
    5.7293   -1.6371   -1.3071 H   0  0  0  0  0  0  0  0  0  0  0  0
    5.9185   -0.1190   -2.1045 H   0  0  0  0  0  0  0  0  0  0  0  0
    5.1656    1.7513    0.7510 H   0  0  0  0  0  0  0  0  0  0  0  0
    5.5714    1.8342   -1.0403 H   0  0  0  0  0  0  0  0  0  0  0  0
    6.1277    3.6621    0.9557 H   0  0  0  0  0  0  0  0  0  0  0  0
    7.5596    2.3621    2.6617 H   0  0  0  0  0  0  0  0  0  0  0  0
  1  2  2  0
  2  3  1  0
  3  4  1  0
  4  5  1  0
  5  6  1  0
  6  7  1  0
  7  8  1  0
  8  9  1  0
  9 10  1  0
 10 11  2  0
 11 12  1  0
 11 13  1  0
 13 14  2  0
 14 15  1  0
 15 16  2  0
 15 17  1  0
 17 18  1  0
 18 19  1  0
 19 20  1  0
 20 21  1  0
 20 22  1  6
 20 23  1  0
 23 24  1  0
 24 25  1  0
 25 26  2  0
 25 27  1  0
 25 28  1  0
 12  7  1  0
 21 17  1  0
 16 10  1  0
  1 29  1  0
  1 30  1  0
  2 31  1  0
  3 32  1  0
  3 33  1  0
  4 34  1  0
  4 35  1  0
  6 36  1  0
  6 37  1  0
  7 38  1  1
  8 39  1  0
  8 40  1  0
  9 41  1  0
  9 42  1  0
 12 43  1  0
 12 44  1  0
 13 45  1  0
 14 46  1  0
 16 47  1  0
 17 48  1  1
 18 49  1  0
 18 50  1  0
 19 51  1  0
 19 52  1  0
 21 53  1  0
 21 54  1  0
 22 55  1  0
 22 56  1  0
 23 57  1  0
 23 58  1  0
 27 59  1  0
 28 60  1  0
M  END
>  <Ligand ID>  (1) 
LIG0005621

>  <Ligand>  (1) 
BDBM65086

>  <SMILES>  (1) 
C=CCCOC[C@@H]1CCc2c(C1)ccc(c2)[C@H]1CC[C@](C1)(N)COP(=O)(O)O

>  <CID>  (1) 
131953599.0

>  <ChEMBL ID>  (1) 
nan

>  <InChiKey>  (1) 
CMZLYZJYQGTREC-TYCQWZJGSA-N

>  <InChi>  (1) 
InChI=1S/C21H32NO5P/c1-2-3-10-26-14-16-4-5-18-12-19(7-6-17(18)11-16)20-8-9-21(22,13-20)15-27-28(23,24)25/h2,6-7,12,16,20H,1,3-5,8-11,13-15,22H2,(H2,23,24,25)/t16-,20+,21-/m1/s1

>  <IUPAC Name>  (1) 
[(1R,3S)-1-amino-3-[(6R)-6-(but-3-enoxymethyl)-5,6,7,8-tetrahydronaphthalen-2-yl]cyclopentyl]methyl dihydrogen phosphate

$$$$
