
     RDKit          3D

 57 60  0  0  0  0  0  0  0  0999 V2000
    9.6755    0.6168   -1.0973 C   0  0  0  0  0  0  0  0  0  0  0  0
    9.7349    0.7692    0.6877 S   0  0  0  0  0  0  0  0  0  0  0  0
    9.4238    2.1665    1.1742 O   0  0  0  0  0  0  0  0  0  0  0  0
    8.6716   -0.4570    1.4152 C   0  0  0  0  0  0  0  0  0  0  0  0
    7.2557   -0.3139    0.9898 C   0  0  0  0  0  0  0  0  0  0  0  0
    6.7923   -0.9809   -0.1481 C   0  0  0  0  0  0  0  0  0  0  0  0
    5.4622   -0.8319   -0.5275 C   0  0  0  0  0  0  0  0  0  0  0  0
    4.6264   -0.0298    0.2250 C   0  0  0  0  0  0  0  0  0  0  0  0
    5.0924    0.6354    1.3614 C   0  0  0  0  0  0  0  0  0  0  0  0
    6.4076    0.4897    1.7388 C   0  0  0  0  0  0  0  0  0  0  0  0
    4.3045    1.4177    2.1071 F   0  0  0  0  0  0  0  0  0  0  0  0
    3.1965    0.1831   -0.1095 C   0  0  0  0  0  0  0  0  0  0  0  0
    2.3774   -0.5715    0.7645 O   0  0  0  0  0  0  0  0  0  0  0  0
    0.9927   -0.4530    0.5469 C   0  0  0  0  0  0  0  0  0  0  0  0
    0.5218    0.3682   -0.4765 C   0  0  0  0  0  0  0  0  0  0  0  0
   -0.7991    0.4896   -0.6942 N   0  0  0  0  0  0  0  0  0  0  0  0
   -1.6844   -0.1771    0.0695 C   0  0  0  0  0  0  0  0  0  0  0  0
   -1.2386   -0.9839    1.0741 N   0  0  0  0  0  0  0  0  0  0  0  0
    0.0720   -1.1299    1.3211 C   0  0  0  0  0  0  0  0  0  0  0  0
   -3.1030   -0.0733   -0.1326 N   0  0  0  0  0  0  0  0  0  0  0  0
   -4.0317   -0.8030    0.7109 C   0  0  0  0  0  0  0  0  0  0  0  0
   -4.9098   -1.5872   -0.2430 C   0  0  0  0  0  0  0  0  0  0  0  0
   -5.6490   -0.5296   -0.9524 N   0  0  0  0  0  0  0  0  0  0  0  0
   -4.8590    0.3156   -1.8162 C   0  0  0  0  0  0  0  0  0  0  0  0
   -3.5739    0.7759   -1.1952 C   0  0  1  0  0  0  0  0  0  0  0  0
   -3.7134    2.1655   -0.6061 C   0  0  0  0  0  0  0  0  0  0  0  0
   -7.0527   -0.3634   -0.7860 C   0  0  0  0  0  0  0  0  0  0  0  0
   -7.8485    0.5512   -1.3675 N   0  0  0  0  0  0  0  0  0  0  0  0
   -9.0724    0.3133   -0.9075 N   0  0  0  0  0  0  0  0  0  0  0  0
   -9.0462   -0.7282   -0.0552 C   0  0  0  0  0  0  0  0  0  0  0  0
   -7.7890   -1.1042   -0.0169 O   0  0  0  0  0  0  0  0  0  0  0  0
  -10.1395   -1.3666    0.7067 C   0  0  0  0  0  0  0  0  0  0  0  0
  -10.3419   -2.6826    0.3618 F   0  0  0  0  0  0  0  0  0  0  0  0
   -9.9080   -1.3310    2.0817 F   0  0  0  0  0  0  0  0  0  0  0  0
  -11.3004   -0.6129    0.5211 F   0  0  0  0  0  0  0  0  0  0  0  0
    8.8206    1.1384   -1.5494 H   0  0  0  0  0  0  0  0  0  0  0  0
    9.5763   -0.4638   -1.3279 H   0  0  0  0  0  0  0  0  0  0  0  0
   10.6213    1.0084   -1.5262 H   0  0  0  0  0  0  0  0  0  0  0  0
    9.0823   -1.4613    1.1571 H   0  0  0  0  0  0  0  0  0  0  0  0
    8.7727   -0.4009    2.5346 H   0  0  0  0  0  0  0  0  0  0  0  0
    7.4480   -1.5966   -0.7196 H   0  0  0  0  0  0  0  0  0  0  0  0
    5.0468   -1.3247   -1.4009 H   0  0  0  0  0  0  0  0  0  0  0  0
    6.8202    0.9910    2.6232 H   0  0  0  0  0  0  0  0  0  0  0  0
    2.9400   -0.1066   -1.1466 H   0  0  0  0  0  0  0  0  0  0  0  0
    2.9239    1.2690   -0.0305 H   0  0  0  0  0  0  0  0  0  0  0  0
    1.1784    0.9189   -1.1104 H   0  0  0  0  0  0  0  0  0  0  0  0
    0.4668   -1.7585    2.1057 H   0  0  0  0  0  0  0  0  0  0  0  0
   -4.6853   -0.0162    1.1880 H   0  0  0  0  0  0  0  0  0  0  0  0
   -3.5373   -1.4300    1.4515 H   0  0  0  0  0  0  0  0  0  0  0  0
   -4.2194   -2.0934   -0.9547 H   0  0  0  0  0  0  0  0  0  0  0  0
   -5.5944   -2.2803    0.2624 H   0  0  0  0  0  0  0  0  0  0  0  0
   -5.4354    1.2154   -2.1125 H   0  0  0  0  0  0  0  0  0  0  0  0
   -4.6873   -0.2689   -2.7494 H   0  0  0  0  0  0  0  0  0  0  0  0
   -2.8137    0.8434   -2.0008 H   0  0  0  0  0  0  0  0  0  0  0  0
   -2.8118    2.7716   -0.7246 H   0  0  0  0  0  0  0  0  0  0  0  0
   -4.5174    2.6801   -1.1755 H   0  0  0  0  0  0  0  0  0  0  0  0
   -3.9420    2.1208    0.4810 H   0  0  0  0  0  0  0  0  0  0  0  0
  1  2  1  0
  2  3  2  0
  2  4  1  0
  4  5  1  0
  5  6  2  0
  6  7  1  0
  7  8  2  0
  8  9  1  0
  9 10  2  0
  9 11  1  0
  8 12  1  0
 12 13  1  0
 13 14  1  0
 14 15  2  0
 15 16  1  0
 16 17  2  0
 17 18  1  0
 18 19  2  0
 17 20  1  0
 20 21  1  0
 21 22  1  0
 22 23  1  0
 23 24  1  0
 24 25  1  0
 25 26  1  0
 23 27  1  0
 27 28  2  0
 28 29  1  0
 29 30  2  0
 30 31  1  0
 30 32  1  0
 32 33  1  0
 32 34  1  0
 32 35  1  0
 10  5  1  0
 19 14  1  0
 25 20  1  0
 31 27  1  0
  1 36  1  0
  1 37  1  0
  1 38  1  0
  4 39  1  0
  4 40  1  0
  6 41  1  0
  7 42  1  0
 10 43  1  0
 12 44  1  0
 12 45  1  0
 15 46  1  0
 19 47  1  0
 21 48  1  0
 21 49  1  0
 22 50  1  0
 22 51  1  0
 24 52  1  0
 24 53  1  0
 25 54  1  6
 26 55  1  0
 26 56  1  0
 26 57  1  0
M  END
>  <Ligand ID>  (1) 
LIG0005276

>  <Ligand>  (1) 
CHEMBL3358003

>  <SMILES>  (1) 
CS(=O)Cc1ccc(c(c1)F)COc1cnc(nc1)N1CCN(C[C@H]1C)c1nnc(o1)C(F)(F)F

>  <CID>  (1) 
118722579.0

>  <ChEMBL ID>  (1) 
nan

>  <InChiKey>  (1) 
WCQOTOGCXLWYJC-AUJFFYSJSA-N

>  <InChi>  (1) 
InChI=1S/C21H22F4N6O3S/c1-13-10-30(20-29-28-18(34-20)21(23,24)25)5-6-31(13)19-26-8-16(9-27-19)33-11-15-4-3-14(7-17(15)22)12-35(2)32/h3-4,7-9,13H,5-6,10-12H2,1-2H3/t13-,35?/m1/s1

>  <IUPAC Name>  (1) 
2-[(3R)-4-[5-[[2-fluoro-4-(methylsulfinylmethyl)phenyl]methoxy]pyrimidin-2-yl]-3-methylpiperazin-1-yl]-5-(trifluoromethyl)-1,3,4-oxadiazole

$$$$
