
     RDKit          3D

 82 88  0  0  0  0  0  0  0  0999 V2000
   -2.6844   -6.2759    1.2070 C   0  0  0  0  0  0  0  0  0  0  0  0
   -2.0974   -5.0218    1.1643 O   0  0  0  0  0  0  0  0  0  0  0  0
   -2.7083   -3.8549    0.7803 C   0  0  0  0  0  0  0  0  0  0  0  0
   -4.0177   -3.7537    0.3575 C   0  0  0  0  0  0  0  0  0  0  0  0
   -4.6035   -2.5449   -0.0286 C   0  0  0  0  0  0  0  0  0  0  0  0
   -3.8310   -1.3908    0.0172 C   0  0  0  0  0  0  0  0  0  0  0  0
   -2.5487   -1.5473    0.4451 C   0  0  0  0  0  0  0  0  0  0  0  0
   -1.9339   -2.6968    0.8266 C   0  0  0  0  0  0  0  0  0  0  0  0
   -0.6341   -2.3602    1.1655 O   0  0  0  0  0  0  0  0  0  0  0  0
   -0.3261   -1.0523    0.7796 C   0  0  2  0  0  0  0  0  0  0  0  0
   -1.6706   -0.3604    0.5624 C   0  0  2  0  0  0  0  0  0  0  0  0
   -2.0264    0.4220    1.7570 C   0  0  0  0  0  0  0  0  0  0  0  0
   -3.0226    1.5083    1.5630 C   0  0  0  0  0  0  0  0  0  0  0  0
   -3.1756    1.8987    0.2493 N   0  0  0  0  0  0  0  0  0  0  0  0
   -3.2156    0.9014   -0.7613 C   0  0  2  0  0  0  0  0  0  0  0  0
   -4.3078   -0.0636   -0.4266 C   0  0  0  0  0  0  0  0  0  0  0  0
   -1.8149    0.3013   -0.7750 C   0  0  2  0  0  0  0  0  0  0  0  0
   -1.6376   -0.7298   -1.8653 C   0  0  0  0  0  0  0  0  0  0  0  0
   -0.3302   -1.4164   -1.6356 C   0  0  0  0  0  0  0  0  0  0  0  0
    0.4357   -0.8502   -0.4753 C   0  0  2  0  0  0  0  0  0  0  0  0
    1.7300   -1.3355   -0.4818 O   0  0  0  0  0  0  0  0  0  0  0  0
    1.8621   -2.6823   -0.2734 C   0  0  0  0  0  0  0  0  0  0  0  0
    0.5703    0.6804   -0.6339 C   0  0  2  0  0  0  0  0  0  0  0  0
   -0.7695    1.3274   -0.9532 C   0  0  0  0  0  0  0  0  0  0  0  0
    1.5837    1.0081   -1.6877 C   0  0  0  0  0  0  0  0  0  0  0  0
    2.8397    0.4657   -1.3044 O   0  0  0  0  0  0  0  0  0  0  0  0
    3.5278    0.8356   -0.1730 C   0  0  0  0  0  0  0  0  0  0  0  0
    3.1004    1.7195    0.6453 O   0  0  0  0  0  0  0  0  0  0  0  0
    4.8516    0.2352    0.2131 C   0  0  2  0  0  0  0  0  0  0  0  0
    5.9029    1.3305    0.2705 C   0  0  0  0  0  0  0  0  0  0  0  0
    7.2521    0.7862    0.6586 C   0  0  0  0  0  0  0  0  0  0  0  0
    8.2610    1.9276    0.6970 C   0  0  0  0  0  0  0  0  0  0  0  0
    7.7241   -0.2741   -0.2821 C   0  0  0  0  0  0  0  0  0  0  0  0
    5.2032   -0.7690   -0.7583 N   0  0  0  0  0  0  0  0  0  0  0  0
   -3.3318    3.2399   -0.1020 C   0  0  0  0  0  0  0  0  0  0  0  0
   -4.6623    3.7558    0.3946 C   0  0  0  0  0  0  0  0  0  0  0  0
   -5.0118    5.1662    0.1166 C   0  0  0  0  0  0  0  0  0  0  0  0
   -5.6796    4.0068   -0.6366 C   0  0  0  0  0  0  0  0  0  0  0  0
   -2.8338   -6.5432    2.2871 H   0  0  0  0  0  0  0  0  0  0  0  0
   -1.9656   -7.0273    0.7734 H   0  0  0  0  0  0  0  0  0  0  0  0
   -3.6237   -6.2748    0.6291 H   0  0  0  0  0  0  0  0  0  0  0  0
   -4.6697   -4.6140    0.3025 H   0  0  0  0  0  0  0  0  0  0  0  0
   -5.6302   -2.4794   -0.3597 H   0  0  0  0  0  0  0  0  0  0  0  0
    0.2089   -0.4856    1.5884 H   0  0  0  0  0  0  0  0  0  0  0  0
   -2.4383   -0.3217    2.5124 H   0  0  0  0  0  0  0  0  0  0  0  0
   -1.1365    0.9031    2.2531 H   0  0  0  0  0  0  0  0  0  0  0  0
   -2.7904    2.4179    2.1842 H   0  0  0  0  0  0  0  0  0  0  0  0
   -4.0199    1.1490    1.9643 H   0  0  0  0  0  0  0  0  0  0  0  0
   -3.4209    1.3874   -1.7346 H   0  0  0  0  0  0  0  0  0  0  0  0
   -5.0394   -0.1686   -1.2818 H   0  0  0  0  0  0  0  0  0  0  0  0
   -4.9344    0.3335    0.3958 H   0  0  0  0  0  0  0  0  0  0  0  0
   -1.5139   -0.1380   -2.8138 H   0  0  0  0  0  0  0  0  0  0  0  0
   -2.4875   -1.3825   -2.0353 H   0  0  0  0  0  0  0  0  0  0  0  0
    0.3460   -1.3953   -2.5320 H   0  0  0  0  0  0  0  0  0  0  0  0
   -0.5373   -2.4879   -1.4149 H   0  0  0  0  0  0  0  0  0  0  0  0
    2.9648   -2.9064   -0.3168 H   0  0  0  0  0  0  0  0  0  0  0  0
    1.5551   -3.0053    0.7605 H   0  0  0  0  0  0  0  0  0  0  0  0
    1.3624   -3.3282   -1.0375 H   0  0  0  0  0  0  0  0  0  0  0  0
    0.9507    1.0176    0.3438 H   0  0  0  0  0  0  0  0  0  0  0  0
   -0.9498    2.2371   -0.3333 H   0  0  0  0  0  0  0  0  0  0  0  0
   -0.7195    1.7008   -2.0126 H   0  0  0  0  0  0  0  0  0  0  0  0
    1.3107    0.7506   -2.7070 H   0  0  0  0  0  0  0  0  0  0  0  0
    1.7128    2.1239   -1.6510 H   0  0  0  0  0  0  0  0  0  0  0  0
    4.7159   -0.2454    1.1894 H   0  0  0  0  0  0  0  0  0  0  0  0
    5.9802    1.7286   -0.7656 H   0  0  0  0  0  0  0  0  0  0  0  0
    5.5626    2.0971    0.9872 H   0  0  0  0  0  0  0  0  0  0  0  0
    7.2003    0.3893    1.7152 H   0  0  0  0  0  0  0  0  0  0  0  0
    9.0324    1.6626    1.4303 H   0  0  0  0  0  0  0  0  0  0  0  0
    7.7514    2.8678    0.9307 H   0  0  0  0  0  0  0  0  0  0  0  0
    8.7402    1.9522   -0.3054 H   0  0  0  0  0  0  0  0  0  0  0  0
    7.3603   -1.2697    0.1076 H   0  0  0  0  0  0  0  0  0  0  0  0
    7.4094   -0.1013   -1.3224 H   0  0  0  0  0  0  0  0  0  0  0  0
    8.8505   -0.3242   -0.2248 H   0  0  0  0  0  0  0  0  0  0  0  0
    5.0513   -1.7213   -0.3690 H   0  0  0  0  0  0  0  0  0  0  0  0
    4.6042   -0.6525   -1.5952 H   0  0  0  0  0  0  0  0  0  0  0  0
   -3.2053    3.3868   -1.1917 H   0  0  0  0  0  0  0  0  0  0  0  0
   -2.5567    3.8646    0.3997 H   0  0  0  0  0  0  0  0  0  0  0  0
   -4.9650    3.2771    1.3675 H   0  0  0  0  0  0  0  0  0  0  0  0
   -5.5954    5.6708    0.9160 H   0  0  0  0  0  0  0  0  0  0  0  0
   -4.2576    5.7533   -0.4561 H   0  0  0  0  0  0  0  0  0  0  0  0
   -6.7273    3.7611   -0.3486 H   0  0  0  0  0  0  0  0  0  0  0  0
   -5.4551    3.9034   -1.7102 H   0  0  0  0  0  0  0  0  0  0  0  0
  1  2  1  0
  2  3  1  0
  3  4  2  0
  4  5  1  0
  5  6  2  0
  6  7  1  0
  7  8  2  0
  8  9  1  0
  9 10  1  0
 10 11  1  0
 11 12  1  1
 12 13  1  0
 13 14  1  0
 14 15  1  0
 15 16  1  0
 15 17  1  0
 17 18  1  6
 18 19  1  0
 19 20  1  0
 20 21  1  1
 21 22  1  0
 20 23  1  0
 23 24  1  0
 23 25  1  0
 25 26  1  0
 26 27  1  0
 27 28  2  0
 27 29  1  0
 29 30  1  0
 30 31  1  0
 31 32  1  0
 31 33  1  0
 29 34  1  0
 14 35  1  0
 35 36  1  0
 36 37  1  0
 37 38  1  0
  8  3  1  0
 20 10  1  0
 38 36  1  0
 16  6  1  0
 24 17  1  0
 11  7  1  0
 17 11  1  0
  1 39  1  0
  1 40  1  0
  1 41  1  0
  4 42  1  0
  5 43  1  0
 10 44  1  1
 12 45  1  0
 12 46  1  0
 13 47  1  0
 13 48  1  0
 15 49  1  6
 16 50  1  0
 16 51  1  0
 18 52  1  0
 18 53  1  0
 19 54  1  0
 19 55  1  0
 22 56  1  0
 22 57  1  0
 22 58  1  0
 23 59  1  1
 24 60  1  0
 24 61  1  0
 25 62  1  0
 25 63  1  0
 29 64  1  1
 30 65  1  0
 30 66  1  0
 31 67  1  0
 32 68  1  0
 32 69  1  0
 32 70  1  0
 33 71  1  0
 33 72  1  0
 33 73  1  0
 34 74  1  0
 34 75  1  0
 35 76  1  0
 35 77  1  0
 36 78  1  0
 37 79  1  0
 37 80  1  0
 38 81  1  0
 38 82  1  0
M  END
>  <Ligand ID>  (1) 
LIG0003449

>  <Ligand>  (1) 
SCHEMBL15485693

>  <SMILES>  (1) 
COc1ccc2c3c1O[C@@H]1[C@@]43CCN([C@H](C2)[C@@]24CC[C@@]1(OC)[C@H](C2)COC(=O)[C@H](CC(C)C)N)CC1CC1

>  <CID>  (1) 
89978581.0

>  <ChEMBL ID>  (1) 
nan

>  <InChiKey>  (1) 
RMOUVFCRISRYIQ-UAJHMDHNSA-N

>  <InChi>  (1) 
InChI=1S/C31H44N2O5/c1-18(2)13-22(32)27(34)37-17-21-15-29-9-10-31(21,36-4)28-30(29)11-12-33(16-19-5-6-19)24(29)14-20-7-8-23(35-3)26(38-28)25(20)30/h7-8,18-19,21-22,24,28H,5-6,9-17,32H2,1-4H3/t21-,22+,24-,28-,29-,30+,31-/m1/s1

>  <IUPAC Name>  (1) 
[(1S,2S,6R,14R,15R,16R)-5-(cyclopropylmethyl)-11,15-dimethoxy-13-oxa-5-azahexacyclo[13.2.2.12,8.01,6.02,14.012,20]icosa-8(20),9,11-trien-16-yl]methyl (2S)-2-amino-4-methylpentanoate

$$$$
