
     RDKit          3D

 38 40  0  0  0  0  0  0  0  0999 V2000
    4.8929   -1.5670    0.8229 C   0  0  0  0  0  0  0  0  0  0  0  0
    4.1317   -2.2860   -0.2740 C   0  0  0  0  0  0  0  0  0  0  0  0
    2.8795   -1.5794   -0.4765 N   0  0  0  0  0  0  0  0  0  0  0  0
    2.9022   -0.2112   -0.8670 C   0  0  0  0  0  0  0  0  0  0  0  0
    4.0024    0.4141   -1.0446 O   0  0  0  0  0  0  0  0  0  0  0  0
    1.6705    0.5886   -1.0962 C   0  0  1  0  0  0  0  0  0  0  0  0
    0.5752   -0.2320   -0.8628 O   0  0  0  0  0  0  0  0  0  0  0  0
   -0.4505    0.6111   -0.4426 C   0  0  2  0  0  0  0  0  0  0  0  0
    0.2252    1.5021    0.5523 C   0  0  1  0  0  0  0  0  0  0  0  0
    1.5845    1.7012   -0.0583 C   0  0  2  0  0  0  0  0  0  0  0  0
    1.7189    2.9512   -0.6155 O   0  0  0  0  0  0  0  0  0  0  0  0
   -0.4950    2.6961    0.6070 O   0  0  0  0  0  0  0  0  0  0  0  0
   -1.5226   -0.0894    0.1872 N   0  0  0  0  0  0  0  0  0  0  0  0
   -1.5110   -1.1698    0.9778 C   0  0  0  0  0  0  0  0  0  0  0  0
   -2.7826   -1.4871    1.3483 N   0  0  0  0  0  0  0  0  0  0  0  0
   -3.6212   -0.6048    0.7926 C   0  0  0  0  0  0  0  0  0  0  0  0
   -2.8234    0.2679    0.0663 C   0  0  0  0  0  0  0  0  0  0  0  0
   -3.4176    1.2646   -0.5999 N   0  0  0  0  0  0  0  0  0  0  0  0
   -4.7541    1.3982   -0.5528 C   0  0  0  0  0  0  0  0  0  0  0  0
   -5.5399    0.5444    0.1583 N   0  0  0  0  0  0  0  0  0  0  0  0
   -4.9954   -0.4793    0.8496 C   0  0  0  0  0  0  0  0  0  0  0  0
   -5.8297   -1.3618    1.5869 N   0  0  0  0  0  0  0  0  0  0  0  0
    5.5488   -2.2481    1.4061 H   0  0  0  0  0  0  0  0  0  0  0  0
    4.1975   -1.0184    1.5130 H   0  0  0  0  0  0  0  0  0  0  0  0
    5.5125   -0.7589    0.3340 H   0  0  0  0  0  0  0  0  0  0  0  0
    3.9095   -3.3341    0.0299 H   0  0  0  0  0  0  0  0  0  0  0  0
    4.7429   -2.2316   -1.1961 H   0  0  0  0  0  0  0  0  0  0  0  0
    1.9585   -2.0626   -0.3394 H   0  0  0  0  0  0  0  0  0  0  0  0
    1.6513    1.0327   -2.1186 H   0  0  0  0  0  0  0  0  0  0  0  0
   -0.7856    1.1796   -1.3299 H   0  0  0  0  0  0  0  0  0  0  0  0
    0.2448    1.0135    1.5259 H   0  0  0  0  0  0  0  0  0  0  0  0
    2.3836    1.5362    0.7046 H   0  0  0  0  0  0  0  0  0  0  0  0
    2.1019    3.5437    0.0659 H   0  0  0  0  0  0  0  0  0  0  0  0
   -0.1801    3.3412   -0.0731 H   0  0  0  0  0  0  0  0  0  0  0  0
   -0.6315   -1.7194    1.2853 H   0  0  0  0  0  0  0  0  0  0  0  0
   -5.1915    2.2176   -1.1060 H   0  0  0  0  0  0  0  0  0  0  0  0
   -5.5918   -1.6911    2.5394 H   0  0  0  0  0  0  0  0  0  0  0  0
   -6.7107   -1.6721    1.1216 H   0  0  0  0  0  0  0  0  0  0  0  0
  1  2  1  0
  2  3  1  0
  3  4  1  0
  4  5  2  0
  4  6  1  0
  6  7  1  0
  7  8  1  0
  8  9  1  0
  9 10  1  0
 10 11  1  0
  9 12  1  0
  8 13  1  0
 13 14  1  0
 14 15  2  0
 15 16  1  0
 16 17  2  0
 17 18  1  0
 18 19  2  0
 19 20  1  0
 20 21  2  0
 21 22  1  0
 10  6  1  0
 17 13  1  0
 21 16  1  0
  1 23  1  0
  1 24  1  0
  1 25  1  0
  2 26  1  0
  2 27  1  0
  3 28  1  0
  6 29  1  6
  8 30  1  6
  9 31  1  1
 10 32  1  1
 11 33  1  0
 12 34  1  0
 14 35  1  0
 19 36  1  0
 22 37  1  0
 22 38  1  0
M  END
>  <Ligand ID>  (1) 
LIG0001931

>  <Ligand>  (1) 
NECA

>  <SMILES>  (1) 
CCNC(=O)[C@H]1O[C@H]([C@@H]([C@@H]1O)O)n1cnc2c1ncnc2N

>  <CID>  (1) 
448222.0

>  <ChEMBL ID>  (1) 
nan

>  <InChiKey>  (1) 
JADDQZYHOWSFJD-FLNNQWSLSA-N

>  <InChi>  (1) 
InChI=1S/C12H16N6O4/c1-2-14-11(21)8-6(19)7(20)12(22-8)18-4-17-5-9(13)15-3-16-10(5)18/h3-4,6-8,12,19-20H,2H2,1H3,(H,14,21)(H2,13,15,16)/t6-,7+,8-,12+/m0/s1

>  <IUPAC Name>  (1) 
(2S,3S,4R,5R)-5-(6-aminopurin-9-yl)-N-ethyl-3,4-dihydroxyoxolane-2-carboxamide

$$$$
