
     RDKit          3D

 70 73  0  0  0  0  0  0  0  0999 V2000
   -3.2321   -2.2810   -1.5177 C   0  0  0  0  0  0  0  0  0  0  0  0
   -4.3065   -2.9129   -0.6732 C   0  0  0  0  0  0  0  0  0  0  0  0
   -3.8747   -3.1968    0.6803 N   0  0  0  0  0  0  0  0  0  0  0  0
   -4.2033   -1.8360    1.6868 S   0  0  0  0  0  0  0  0  0  0  0  0
   -5.6989   -1.5977    1.6482 O   0  0  0  0  0  0  0  0  0  0  0  0
   -3.8677   -2.1773    3.1133 O   0  0  0  0  0  0  0  0  0  0  0  0
   -3.3142   -0.4438    1.1200 C   0  0  0  0  0  0  0  0  0  0  0  0
   -3.8611    0.4230    0.1828 C   0  0  0  0  0  0  0  0  0  0  0  0
   -3.1113    1.5101   -0.2297 C   0  0  0  0  0  0  0  0  0  0  0  0
   -1.8459    1.7216    0.2847 C   0  0  0  0  0  0  0  0  0  0  0  0
   -1.2779    0.8757    1.2172 C   0  0  0  0  0  0  0  0  0  0  0  0
   -2.0385   -0.2069    1.6208 C   0  0  0  0  0  0  0  0  0  0  0  0
    0.0581    1.1051    1.7534 C   0  0  0  0  0  0  0  0  0  0  0  0
    0.2845    1.7924    2.7838 O   0  0  0  0  0  0  0  0  0  0  0  0
    1.1920    0.5390    1.1062 N   0  0  0  0  0  0  0  0  0  0  0  0
    2.5178    0.7708    1.6440 C   0  0  0  0  0  0  0  0  0  0  0  0
    3.4758    0.8061    0.4492 C   0  0  0  0  0  0  0  0  0  0  0  0
    3.5141   -0.5135   -0.1144 N   0  0  0  0  0  0  0  0  0  0  0  0
    2.2538   -1.2406   -0.2018 C   0  0  0  0  0  0  0  0  0  0  0  0
    1.0991   -0.2774   -0.0889 C   0  0  0  0  0  0  0  0  0  0  0  0
    4.6930   -1.1504   -0.5902 C   0  0  0  0  0  0  0  0  0  0  0  0
    5.9286   -0.5384   -0.5920 C   0  0  0  0  0  0  0  0  0  0  0  0
    7.0646   -1.1731   -1.0575 C   0  0  0  0  0  0  0  0  0  0  0  0
    7.0034   -2.4521   -1.5410 C   0  0  0  0  0  0  0  0  0  0  0  0
    5.7724   -3.0929   -1.5511 C   0  0  0  0  0  0  0  0  0  0  0  0
    4.6459   -2.4419   -1.0813 C   0  0  0  0  0  0  0  0  0  0  0  0
   -1.1279    2.8784   -0.1948 N   0  0  0  0  0  0  0  0  0  0  0  0
   -0.7305    3.9139    0.7389 C   0  0  0  0  0  0  0  0  0  0  0  0
   -1.1684    5.2442    0.1777 C   0  0  0  0  0  0  0  0  0  0  0  0
   -0.6024    5.3695   -1.2184 C   0  0  0  0  0  0  0  0  0  0  0  0
   -1.2446    4.3049   -2.1166 C   0  0  0  0  0  0  0  0  0  0  0  0
   -0.8425    2.9365   -1.5910 C   0  0  0  0  0  0  0  0  0  0  0  0
   -2.5227   -3.6550    0.7526 C   0  0  0  0  0  0  0  0  0  0  0  0
   -2.3137   -4.7003    1.8273 C   0  0  0  0  0  0  0  0  0  0  0  0
   -3.6621   -1.4595   -2.0975 H   0  0  0  0  0  0  0  0  0  0  0  0
   -2.8531   -3.0852   -2.1977 H   0  0  0  0  0  0  0  0  0  0  0  0
   -2.4418   -1.8835   -0.8519 H   0  0  0  0  0  0  0  0  0  0  0  0
   -4.7391   -3.8139   -1.1692 H   0  0  0  0  0  0  0  0  0  0  0  0
   -5.1529   -2.2006   -0.5802 H   0  0  0  0  0  0  0  0  0  0  0  0
   -4.8517    0.2427   -0.2093 H   0  0  0  0  0  0  0  0  0  0  0  0
   -3.5068    2.1958   -0.9511 H   0  0  0  0  0  0  0  0  0  0  0  0
   -1.5899   -0.8699    2.3535 H   0  0  0  0  0  0  0  0  0  0  0  0
    2.5648    1.7189    2.2040 H   0  0  0  0  0  0  0  0  0  0  0  0
    2.8209   -0.0324    2.3442 H   0  0  0  0  0  0  0  0  0  0  0  0
    2.9711    1.4811   -0.2874 H   0  0  0  0  0  0  0  0  0  0  0  0
    4.4531    1.2155    0.7559 H   0  0  0  0  0  0  0  0  0  0  0  0
    2.1730   -1.7042   -1.2075 H   0  0  0  0  0  0  0  0  0  0  0  0
    2.2095   -1.9518    0.6309 H   0  0  0  0  0  0  0  0  0  0  0  0
    0.1468   -0.8235   -0.1506 H   0  0  0  0  0  0  0  0  0  0  0  0
    1.1141    0.3881   -0.9908 H   0  0  0  0  0  0  0  0  0  0  0  0
    6.0538    0.4692   -0.2266 H   0  0  0  0  0  0  0  0  0  0  0  0
    8.0232   -0.6780   -1.0514 H   0  0  0  0  0  0  0  0  0  0  0  0
    7.8983   -2.9561   -1.9094 H   0  0  0  0  0  0  0  0  0  0  0  0
    5.7219   -4.1152   -1.9371 H   0  0  0  0  0  0  0  0  0  0  0  0
    3.7207   -3.0205   -1.1262 H   0  0  0  0  0  0  0  0  0  0  0  0
   -1.2888    3.7681    1.7110 H   0  0  0  0  0  0  0  0  0  0  0  0
    0.3373    3.8905    1.0040 H   0  0  0  0  0  0  0  0  0  0  0  0
   -2.2585    5.3137    0.2124 H   0  0  0  0  0  0  0  0  0  0  0  0
   -0.7065    6.0361    0.8029 H   0  0  0  0  0  0  0  0  0  0  0  0
    0.4809    5.2154   -1.1540 H   0  0  0  0  0  0  0  0  0  0  0  0
   -0.8471    6.3327   -1.6805 H   0  0  0  0  0  0  0  0  0  0  0  0
   -2.3392    4.4494   -2.0223 H   0  0  0  0  0  0  0  0  0  0  0  0
   -0.8510    4.4833   -3.1313 H   0  0  0  0  0  0  0  0  0  0  0  0
    0.2711    2.8838   -1.7710 H   0  0  0  0  0  0  0  0  0  0  0  0
   -1.3792    2.1778   -2.1642 H   0  0  0  0  0  0  0  0  0  0  0  0
   -2.2198   -4.0913   -0.2155 H   0  0  0  0  0  0  0  0  0  0  0  0
   -1.7975   -2.8421    0.9851 H   0  0  0  0  0  0  0  0  0  0  0  0
   -1.2537   -4.7382    2.1636 H   0  0  0  0  0  0  0  0  0  0  0  0
   -2.5056   -5.6894    1.3549 H   0  0  0  0  0  0  0  0  0  0  0  0
   -3.0344   -4.6101    2.6643 H   0  0  0  0  0  0  0  0  0  0  0  0
  1  2  1  0
  2  3  1  0
  3  4  1  0
  4  5  2  0
  4  6  2  0
  4  7  1  0
  7  8  2  0
  8  9  1  0
  9 10  2  0
 10 11  1  0
 11 12  2  0
 11 13  1  0
 13 14  2  0
 13 15  1  0
 15 16  1  0
 16 17  1  0
 17 18  1  0
 18 19  1  0
 19 20  1  0
 18 21  1  0
 21 22  2  0
 22 23  1  0
 23 24  2  0
 24 25  1  0
 25 26  2  0
 10 27  1  0
 27 28  1  0
 28 29  1  0
 29 30  1  0
 30 31  1  0
 31 32  1  0
  3 33  1  0
 33 34  1  0
 12  7  1  0
 20 15  1  0
 26 21  1  0
 32 27  1  0
  1 35  1  0
  1 36  1  0
  1 37  1  0
  2 38  1  0
  2 39  1  0
  8 40  1  0
  9 41  1  0
 12 42  1  0
 16 43  1  0
 16 44  1  0
 17 45  1  0
 17 46  1  0
 19 47  1  0
 19 48  1  0
 20 49  1  0
 20 50  1  0
 22 51  1  0
 23 52  1  0
 24 53  1  0
 25 54  1  0
 26 55  1  0
 28 56  1  0
 28 57  1  0
 29 58  1  0
 29 59  1  0
 30 60  1  0
 30 61  1  0
 31 62  1  0
 31 63  1  0
 32 64  1  0
 32 65  1  0
 33 66  1  0
 33 67  1  0
 34 68  1  0
 34 69  1  0
 34 70  1  0
M  END
>  <Ligand ID>  (1) 
LIG0001914

>  <Ligand>  (1) 
MLS-0435533.0001

>  <SMILES>  (1) 
CCN(S(=O)(=O)c1ccc(c(c1)C(=O)N1CCN(CC1)c1ccccc1)N1CCCCC1)CC

>  <CID>  (1) 
25702685.0

>  <ChEMBL ID>  (1) 
nan

>  <InChiKey>  (1) 
LPOWMGHPBUAXGD-UHFFFAOYSA-N

>  <InChi>  (1) 
InChI=1S/C26H36N4O3S/c1-3-30(4-2)34(32,33)23-13-14-25(28-15-9-6-10-16-28)24(21-23)26(31)29-19-17-27(18-20-29)22-11-7-5-8-12-22/h5,7-8,11-14,21H,3-4,6,9-10,15-20H2,1-2H3

>  <IUPAC Name>  (1) 
N,N-diethyl-3-(4-phenylpiperazine-1-carbonyl)-4-piperidin-1-ylbenzenesulfonamide

$$$$
