
     RDKit          3D

 64 68  0  0  0  0  0  0  0  0999 V2000
   -9.4215    2.3602   -0.1925 C   0  0  0  0  0  0  0  0  0  0  0  0
   -8.4453    1.5993   -0.8422 O   0  0  0  0  0  0  0  0  0  0  0  0
   -7.4022    0.9228   -0.2367 C   0  0  0  0  0  0  0  0  0  0  0  0
   -6.5402    0.2305   -1.0514 C   0  0  0  0  0  0  0  0  0  0  0  0
   -5.4811   -0.4631   -0.5103 C   0  0  0  0  0  0  0  0  0  0  0  0
   -5.2090   -0.5187    0.8382 C   0  0  0  0  0  0  0  0  0  0  0  0
   -6.0901    0.1867    1.6690 C   0  0  0  0  0  0  0  0  0  0  0  0
   -7.1690    0.8933    1.1108 C   0  0  0  0  0  0  0  0  0  0  0  0
   -4.0578   -1.2142    1.4364 C   0  0  0  0  0  0  0  0  0  0  0  0
   -2.8830   -0.3490    1.7514 C   0  0  2  0  0  0  0  0  0  0  0  0
   -2.2653    0.3461    0.6880 N   0  0  0  0  0  0  0  0  0  0  0  0
   -1.5307   -0.1869   -0.3957 C   0  0  0  0  0  0  0  0  0  0  0  0
   -2.1929   -0.9158   -1.2988 N   0  0  0  0  0  0  0  0  0  0  0  0
   -1.6631   -1.4641   -2.3859 C   0  0  0  0  0  0  0  0  0  0  0  0
   -2.5280   -2.2108   -3.2412 N   0  0  0  0  0  0  0  0  0  0  0  0
   -0.3337   -1.2814   -2.6210 C   0  0  0  0  0  0  0  0  0  0  0  0
    0.3969   -0.5236   -1.6990 C   0  0  0  0  0  0  0  0  0  0  0  0
   -0.2169    0.0105   -0.6012 N   0  0  0  0  0  0  0  0  0  0  0  0
    1.6603   -0.5005   -2.1717 N   0  0  0  0  0  0  0  0  0  0  0  0
    1.6831   -1.2240   -3.3429 C   0  0  0  0  0  0  0  0  0  0  0  0
    0.4691   -1.6959   -3.6112 N   0  0  0  0  0  0  0  0  0  0  0  0
    2.8092    0.1222   -1.6438 C   0  0  2  0  0  0  0  0  0  0  0  0
    3.4505   -0.5325   -0.5929 O   0  0  0  0  0  0  0  0  0  0  0  0
    4.6428    0.2401   -0.5776 C   0  0  1  0  0  0  0  0  0  0  0  0
    4.0336    1.6338   -0.3770 C   0  0  2  0  0  0  0  0  0  0  0  0
    2.6757    1.5027   -1.0974 C   0  0  1  0  0  0  0  0  0  0  0  0
    2.7115    2.3729   -2.2093 O   0  0  0  0  0  0  0  0  0  0  0  0
    4.8464    2.5452   -1.0557 O   0  0  0  0  0  0  0  0  0  0  0  0
    5.5728   -0.1523    0.4754 C   0  0  0  0  0  0  0  0  0  0  0  0
    5.4170   -0.3913    1.7837 N   0  0  0  0  0  0  0  0  0  0  0  0
    6.5808   -0.7440    2.3092 N   0  0  0  0  0  0  0  0  0  0  0  0
    7.5077   -0.7418    1.3544 N   0  0  0  0  0  0  0  0  0  0  0  0
    6.8989   -0.3841    0.2478 N   0  0  0  0  0  0  0  0  0  0  0  0
    8.9154   -1.0633    1.4382 C   0  0  0  0  0  0  0  0  0  0  0  0
    9.7140    0.1767    1.7537 C   0  0  0  0  0  0  0  0  0  0  0  0
   -1.8908   -1.2491    2.5053 C   0  0  0  0  0  0  0  0  0  0  0  0
  -10.0515    1.7945    0.5114 H   0  0  0  0  0  0  0  0  0  0  0  0
   -8.9508    3.2742    0.2629 H   0  0  0  0  0  0  0  0  0  0  0  0
  -10.1065    2.7715   -0.9696 H   0  0  0  0  0  0  0  0  0  0  0  0
   -6.6921    0.2301   -2.1210 H   0  0  0  0  0  0  0  0  0  0  0  0
   -4.8565   -0.9984   -1.2047 H   0  0  0  0  0  0  0  0  0  0  0  0
   -5.9717    0.2119    2.7414 H   0  0  0  0  0  0  0  0  0  0  0  0
   -7.8532    1.4406    1.7474 H   0  0  0  0  0  0  0  0  0  0  0  0
   -4.4125   -1.6282    2.4250 H   0  0  0  0  0  0  0  0  0  0  0  0
   -3.8038   -2.1167    0.8413 H   0  0  0  0  0  0  0  0  0  0  0  0
   -3.2277    0.3720    2.5299 H   0  0  0  0  0  0  0  0  0  0  0  0
   -2.3504    1.4135    0.6825 H   0  0  0  0  0  0  0  0  0  0  0  0
   -2.7520   -3.2132   -3.1133 H   0  0  0  0  0  0  0  0  0  0  0  0
   -2.9596   -1.6989   -4.0551 H   0  0  0  0  0  0  0  0  0  0  0  0
    2.5548   -1.3936   -3.9650 H   0  0  0  0  0  0  0  0  0  0  0  0
    3.6154    0.1948   -2.4442 H   0  0  0  0  0  0  0  0  0  0  0  0
    5.0577    0.1706   -1.5914 H   0  0  0  0  0  0  0  0  0  0  0  0
    3.8948    1.8709    0.6858 H   0  0  0  0  0  0  0  0  0  0  0  0
    1.8311    1.6849   -0.4382 H   0  0  0  0  0  0  0  0  0  0  0  0
    3.6380    2.3610   -2.5579 H   0  0  0  0  0  0  0  0  0  0  0  0
    5.8072    2.3337   -0.8587 H   0  0  0  0  0  0  0  0  0  0  0  0
    9.3099   -1.5016    0.5050 H   0  0  0  0  0  0  0  0  0  0  0  0
    9.0640   -1.8354    2.2208 H   0  0  0  0  0  0  0  0  0  0  0  0
    9.9137    0.6587    0.7590 H   0  0  0  0  0  0  0  0  0  0  0  0
   10.7150   -0.0906    2.1601 H   0  0  0  0  0  0  0  0  0  0  0  0
    9.1361    0.8152    2.4390 H   0  0  0  0  0  0  0  0  0  0  0  0
   -2.4786   -1.5845    3.4095 H   0  0  0  0  0  0  0  0  0  0  0  0
   -0.9806   -0.7249    2.7986 H   0  0  0  0  0  0  0  0  0  0  0  0
   -1.7556   -2.1485    1.8947 H   0  0  0  0  0  0  0  0  0  0  0  0
  1  2  1  0
  2  3  1  0
  3  4  2  0
  4  5  1  0
  5  6  2  0
  6  7  1  0
  7  8  2  0
  6  9  1  0
  9 10  1  0
 10 11  1  0
 11 12  1  0
 12 13  2  0
 13 14  1  0
 14 15  1  0
 14 16  2  0
 16 17  1  0
 17 18  2  0
 17 19  1  0
 19 20  1  0
 20 21  2  0
 19 22  1  0
 22 23  1  0
 23 24  1  0
 24 25  1  0
 25 26  1  0
 26 27  1  0
 25 28  1  0
 24 29  1  0
 29 30  1  0
 30 31  2  0
 31 32  1  0
 32 33  1  0
 32 34  1  0
 34 35  1  0
 10 36  1  0
  8  3  1  0
 18 12  1  0
 26 22  1  0
 33 29  2  0
 21 16  1  0
  1 37  1  0
  1 38  1  0
  1 39  1  0
  4 40  1  0
  5 41  1  0
  7 42  1  0
  8 43  1  0
  9 44  1  0
  9 45  1  0
 10 46  1  1
 11 47  1  0
 15 48  1  0
 15 49  1  0
 20 50  1  0
 22 51  1  6
 24 52  1  6
 25 53  1  1
 26 54  1  1
 27 55  1  0
 28 56  1  0
 34 57  1  0
 34 58  1  0
 35 59  1  0
 35 60  1  0
 35 61  1  0
 36 62  1  0
 36 63  1  0
 36 64  1  0
M  END
>  <Ligand ID>  (1) 
LIG0004410

>  <Ligand>  (1) 
CHEMBL2096798

>  <SMILES>  (1) 
COc1ccc(cc1)C[C@H](Nc1nc(N)c2c(n1)n(cn2)[C@@H]1O[C@@H]([C@H]([C@H]1O)O)c1nnn(n1)CC)C

>  <CID>  (1) 
70689262.0

>  <ChEMBL ID>  (1) 
nan

>  <InChiKey>  (1) 
WOKSHSWUKATBJD-NPZWOMMPSA-N

>  <InChi>  (1) 
InChI=1S/C22H28N10O4/c1-4-32-29-19(28-30-32)17-15(33)16(34)21(36-17)31-10-24-14-18(23)26-22(27-20(14)31)25-11(2)9-12-5-7-13(35-3)8-6-12/h5-8,10-11,15-17,21,33-34H,4,9H2,1-3H3,(H3,23,25,26,27)/t11-,15+,16-,17+,21-/m1/s1

>  <IUPAC Name>  (1) 
(2R,3R,4S,5R)-2-[6-amino-2-[[(2R)-1-(4-methoxyphenyl)propan-2-yl]amino]purin-9-yl]-5-(2-ethyltetrazol-5-yl)oxolane-3,4-diol

$$$$
