
     RDKit          3D

 72 75  0  0  0  0  0  0  0  0999 V2000
   -4.8629    6.5434   -0.9684 C   0  0  0  0  0  0  0  0  0  0  0  0
   -3.5190    6.5610   -0.7453 O   0  0  0  0  0  0  0  0  0  0  0  0
   -2.9758    5.5643    0.0022 C   0  0  0  0  0  0  0  0  0  0  0  0
   -3.1108    4.1969   -0.5599 C   0  0  0  0  0  0  0  0  0  0  0  0
   -3.6617    3.9929   -1.6618 O   0  0  0  0  0  0  0  0  0  0  0  0
   -2.5638    3.1351    0.2540 N   0  0  0  0  0  0  0  0  0  0  0  0
   -1.8647    3.4309    1.5025 C   0  0  0  0  0  0  0  0  0  0  0  0
   -1.0713    2.2436    1.9109 C   0  0  0  0  0  0  0  0  0  0  0  0
   -0.4820    1.5360    0.7091 C   0  0  2  0  0  0  0  0  0  0  0  0
   -1.6441    0.9237    0.0090 C   0  0  0  0  0  0  0  0  0  0  0  0
   -2.7186    1.8028   -0.2056 C   0  0  0  0  0  0  0  0  0  0  0  0
   -3.8736    1.4011   -0.8326 C   0  0  0  0  0  0  0  0  0  0  0  0
   -3.9359    0.0867   -1.2475 C   0  0  0  0  0  0  0  0  0  0  0  0
   -2.8696   -0.7856   -1.0349 C   0  0  0  0  0  0  0  0  0  0  0  0
   -1.7055   -0.3756   -0.4011 C   0  0  0  0  0  0  0  0  0  0  0  0
   -3.0036   -2.1736   -1.5022 C   0  0  0  0  0  0  0  0  0  0  0  0
   -3.5961   -3.0681   -0.4790 C   0  0  0  0  0  0  0  0  0  0  0  0
   -2.8664   -3.7670    0.4480 C   0  0  0  0  0  0  0  0  0  0  0  0
   -3.5394   -4.5794    1.3633 C   0  0  0  0  0  0  0  0  0  0  0  0
   -4.9036   -4.7097    1.3760 C   0  0  0  0  0  0  0  0  0  0  0  0
   -5.6335   -4.0106    0.4487 C   0  0  0  0  0  0  0  0  0  0  0  0
   -4.9835   -3.2071   -0.4580 C   0  0  0  0  0  0  0  0  0  0  0  0
    0.5797    0.6349    1.0045 N   0  0  0  0  0  0  0  0  0  0  0  0
    1.8494    0.8540    0.4266 C   0  0  0  0  0  0  0  0  0  0  0  0
    2.0343    1.8520   -0.3517 O   0  0  0  0  0  0  0  0  0  0  0  0
    3.0341   -0.0083    0.6542 C   0  0  2  0  0  0  0  0  0  0  0  0
    3.7052   -0.4107   -0.6348 C   0  0  0  0  0  0  0  0  0  0  0  0
    4.8706   -1.2658   -0.2984 C   0  0  0  0  0  0  0  0  0  0  0  0
    6.0271   -0.7058    0.1988 C   0  0  0  0  0  0  0  0  0  0  0  0
    6.2234    0.7334    0.4364 C   0  0  0  0  0  0  0  0  0  0  0  0
    7.0936   -1.5461    0.4996 C   0  0  0  0  0  0  0  0  0  0  0  0
    7.0384   -2.9063    0.3206 C   0  0  0  0  0  0  0  0  0  0  0  0
    5.8736   -3.4352   -0.1763 C   0  0  0  0  0  0  0  0  0  0  0  0
    4.7660   -2.6464   -0.4984 C   0  0  0  0  0  0  0  0  0  0  0  0
    3.5468   -3.2711   -1.0314 C   0  0  0  0  0  0  0  0  0  0  0  0
    8.1144   -3.7066    0.6296 O   0  0  0  0  0  0  0  0  0  0  0  0
    2.7817   -1.1186    1.5398 N   0  0  0  0  0  0  0  0  0  0  0  0
   -5.1946    5.6525   -1.4905 H   0  0  0  0  0  0  0  0  0  0  0  0
   -5.4683    6.6229   -0.0363 H   0  0  0  0  0  0  0  0  0  0  0  0
   -5.0849    7.4030   -1.6582 H   0  0  0  0  0  0  0  0  0  0  0  0
   -3.3730    5.5761    1.0642 H   0  0  0  0  0  0  0  0  0  0  0  0
   -1.8911    5.8222    0.1475 H   0  0  0  0  0  0  0  0  0  0  0  0
   -2.6392    3.6255    2.2815 H   0  0  0  0  0  0  0  0  0  0  0  0
   -1.2038    4.3139    1.3601 H   0  0  0  0  0  0  0  0  0  0  0  0
   -0.2666    2.4421    2.6364 H   0  0  0  0  0  0  0  0  0  0  0  0
   -1.7603    1.4987    2.3899 H   0  0  0  0  0  0  0  0  0  0  0  0
   -0.1187    2.3358    0.0193 H   0  0  0  0  0  0  0  0  0  0  0  0
   -4.6612    2.1205   -0.9635 H   0  0  0  0  0  0  0  0  0  0  0  0
   -4.8379   -0.2442   -1.7426 H   0  0  0  0  0  0  0  0  0  0  0  0
   -0.8648   -1.0227   -0.2215 H   0  0  0  0  0  0  0  0  0  0  0  0
   -3.6805   -2.1762   -2.3923 H   0  0  0  0  0  0  0  0  0  0  0  0
   -2.0430   -2.5879   -1.8780 H   0  0  0  0  0  0  0  0  0  0  0  0
   -1.8057   -3.6778    0.4526 H   0  0  0  0  0  0  0  0  0  0  0  0
   -2.9908   -5.1522    2.1174 H   0  0  0  0  0  0  0  0  0  0  0  0
   -5.4481   -5.3299    2.0712 H   0  0  0  0  0  0  0  0  0  0  0  0
   -6.7290   -4.0825    0.4192 H   0  0  0  0  0  0  0  0  0  0  0  0
   -5.5913   -2.6715   -1.1732 H   0  0  0  0  0  0  0  0  0  0  0  0
    0.4467   -0.1845    1.6369 H   0  0  0  0  0  0  0  0  0  0  0  0
    3.7603    0.6420    1.1998 H   0  0  0  0  0  0  0  0  0  0  0  0
    3.0072   -0.9220   -1.3305 H   0  0  0  0  0  0  0  0  0  0  0  0
    4.0536    0.5123   -1.1364 H   0  0  0  0  0  0  0  0  0  0  0  0
    6.0979    1.0214    1.5186 H   0  0  0  0  0  0  0  0  0  0  0  0
    7.2689    1.0541    0.2040 H   0  0  0  0  0  0  0  0  0  0  0  0
    5.5796    1.3998   -0.1523 H   0  0  0  0  0  0  0  0  0  0  0  0
    8.0326   -1.1479    0.8970 H   0  0  0  0  0  0  0  0  0  0  0  0
    5.8451   -4.5100   -0.3122 H   0  0  0  0  0  0  0  0  0  0  0  0
    2.6144   -2.9993   -0.5116 H   0  0  0  0  0  0  0  0  0  0  0  0
    3.6423   -4.3732   -0.9455 H   0  0  0  0  0  0  0  0  0  0  0  0
    3.4069   -3.0742   -2.1206 H   0  0  0  0  0  0  0  0  0  0  0  0
    9.0346   -3.2724    0.6586 H   0  0  0  0  0  0  0  0  0  0  0  0
    1.8978   -1.5855    1.3222 H   0  0  0  0  0  0  0  0  0  0  0  0
    2.8115   -0.8240    2.5442 H   0  0  0  0  0  0  0  0  0  0  0  0
  1  2  1  0
  2  3  1  0
  3  4  1  0
  4  5  2  0
  4  6  1  0
  6  7  1  0
  7  8  1  0
  8  9  1  0
  9 10  1  0
 10 11  2  0
 11 12  1  0
 12 13  2  0
 13 14  1  0
 14 15  2  0
 14 16  1  0
 16 17  1  0
 17 18  2  0
 18 19  1  0
 19 20  2  0
 20 21  1  0
 21 22  2  0
  9 23  1  0
 23 24  1  0
 24 25  2  0
 24 26  1  0
 26 27  1  0
 27 28  1  0
 28 29  2  0
 29 30  1  0
 29 31  1  0
 31 32  2  0
 32 33  1  0
 33 34  2  0
 34 35  1  0
 32 36  1  0
 26 37  1  0
 11  6  1  0
 22 17  1  0
 34 28  1  0
 15 10  1  0
  1 38  1  0
  1 39  1  0
  1 40  1  0
  3 41  1  0
  3 42  1  0
  7 43  1  0
  7 44  1  0
  8 45  1  0
  8 46  1  0
  9 47  1  6
 12 48  1  0
 13 49  1  0
 15 50  1  0
 16 51  1  0
 16 52  1  0
 18 53  1  0
 19 54  1  0
 20 55  1  0
 21 56  1  0
 22 57  1  0
 23 58  1  0
 26 59  1  1
 27 60  1  0
 27 61  1  0
 30 62  1  0
 30 63  1  0
 30 64  1  0
 31 65  1  0
 33 66  1  0
 35 67  1  0
 35 68  1  0
 35 69  1  0
 36 70  1  0
 37 71  1  0
 37 72  1  0
M  END
>  <Ligand ID>  (1) 
LIG0003757

>  <Ligand>  (1) 
CHEMBL3822963

>  <SMILES>  (1) 
COCC(=O)N1CC[C@H](c2c1ccc(c2)Cc1ccccc1)NC(=O)[C@H](Cc1c(C)cc(cc1C)O)N

>  <CID>  (1) 
127049275.0

>  <ChEMBL ID>  (1) 
nan

>  <InChiKey>  (1) 
HPMVNXXVOVDOMU-RRPNLBNLSA-N

>  <InChi>  (1) 
InChI=1S/C30H35N3O4/c1-19-13-23(34)14-20(2)24(19)17-26(31)30(36)32-27-11-12-33(29(35)18-37-3)28-10-9-22(16-25(27)28)15-21-7-5-4-6-8-21/h4-10,13-14,16,26-27,34H,11-12,15,17-18,31H2,1-3H3,(H,32,36)/t26-,27+/m0/s1

>  <IUPAC Name>  (1) 
(2S)-2-amino-N-[(4R)-6-benzyl-1-(2-methoxyacetyl)-3,4-dihydro-2H-quinolin-4-yl]-3-(4-hydroxy-2,6-dimethylphenyl)propanamide

$$$$
