
     RDKit          3D

 44 46  0  0  0  0  0  0  0  0999 V2000
   -2.2410    1.2558    1.1368 O   0  0  0  0  0  0  0  0  0  0  0  0
   -2.2048    1.0973   -0.1313 C   0  0  0  0  0  0  0  0  0  0  0  0
   -0.9794    1.4141   -0.8882 C   0  0  0  0  0  0  0  0  0  0  0  0
   -0.0589    0.2987   -0.9855 N   0  0  0  0  0  0  0  0  0  0  0  0
   -0.1150   -0.5713   -1.9962 N   0  0  0  0  0  0  0  0  0  0  0  0
    0.7479   -1.6056   -2.0811 C   0  0  0  0  0  0  0  0  0  0  0  0
    0.7174   -2.5936   -3.1894 C   0  0  0  0  0  0  0  0  0  0  0  0
    1.7127   -1.7592   -1.0888 C   0  0  0  0  0  0  0  0  0  0  0  0
    1.7954   -0.8635   -0.0187 C   0  0  0  0  0  0  0  0  0  0  0  0
    0.8842    0.1534   -0.0102 C   0  0  0  0  0  0  0  0  0  0  0  0
    0.9014    0.9832    0.9116 O   0  0  0  0  0  0  0  0  0  0  0  0
    2.8427   -1.0709    1.0090 C   0  0  0  0  0  0  0  0  0  0  0  0
    3.9713   -0.1243    0.8478 C   0  0  0  0  0  0  0  0  0  0  0  0
    5.0218   -0.4031   -0.0111 C   0  0  0  0  0  0  0  0  0  0  0  0
    6.0884    0.4906   -0.1575 C   0  0  0  0  0  0  0  0  0  0  0  0
    6.1270    1.6848    0.5536 C   0  0  0  0  0  0  0  0  0  0  0  0
    5.0773    1.9494    1.4032 C   0  0  0  0  0  0  0  0  0  0  0  0
    4.0114    1.0678    1.5566 C   0  0  0  0  0  0  0  0  0  0  0  0
   -3.4031    0.6090   -0.7182 N   0  0  0  0  0  0  0  0  0  0  0  0
   -4.4898    0.3587    0.1870 C   0  0  0  0  0  0  0  0  0  0  0  0
   -5.3432    1.4194    0.4157 C   0  0  0  0  0  0  0  0  0  0  0  0
   -6.4212    1.3032    1.2670 C   0  0  0  0  0  0  0  0  0  0  0  0
   -6.6252    0.0725    1.8949 C   0  0  0  0  0  0  0  0  0  0  0  0
   -5.7535   -0.9968    1.6558 C   0  0  0  0  0  0  0  0  0  0  0  0
   -4.6712   -0.8612    0.7937 C   0  0  0  0  0  0  0  0  0  0  0  0
   -7.6793   -0.0203    2.7218 F   0  0  0  0  0  0  0  0  0  0  0  0
   -0.4612    2.2304   -0.3234 H   0  0  0  0  0  0  0  0  0  0  0  0
   -1.2135    1.8121   -1.9070 H   0  0  0  0  0  0  0  0  0  0  0  0
    1.0527   -3.5795   -2.7642 H   0  0  0  0  0  0  0  0  0  0  0  0
   -0.2935   -2.7396   -3.5677 H   0  0  0  0  0  0  0  0  0  0  0  0
    1.4644   -2.3278   -3.9536 H   0  0  0  0  0  0  0  0  0  0  0  0
    2.4077   -2.6030   -1.1692 H   0  0  0  0  0  0  0  0  0  0  0  0
    3.1930   -2.1234    0.9254 H   0  0  0  0  0  0  0  0  0  0  0  0
    2.3739   -0.9150    2.0257 H   0  0  0  0  0  0  0  0  0  0  0  0
    5.0343   -1.3332   -0.5932 H   0  0  0  0  0  0  0  0  0  0  0  0
    6.9133    0.2794   -0.8274 H   0  0  0  0  0  0  0  0  0  0  0  0
    6.9400    2.3921    0.4586 H   0  0  0  0  0  0  0  0  0  0  0  0
    5.0991    2.8803    1.9624 H   0  0  0  0  0  0  0  0  0  0  0  0
    3.2474    1.3694    2.2473 H   0  0  0  0  0  0  0  0  0  0  0  0
   -3.4489    0.4578   -1.7311 H   0  0  0  0  0  0  0  0  0  0  0  0
   -5.2132    2.3945   -0.0581 H   0  0  0  0  0  0  0  0  0  0  0  0
   -7.0950    2.1313    1.4511 H   0  0  0  0  0  0  0  0  0  0  0  0
   -5.9288   -1.9302    2.1475 H   0  0  0  0  0  0  0  0  0  0  0  0
   -3.9848   -1.6836    0.5983 H   0  0  0  0  0  0  0  0  0  0  0  0
  1  2  2  0
  2  3  1  0
  3  4  1  0
  4  5  1  0
  5  6  2  0
  6  7  1  0
  6  8  1  0
  8  9  2  0
  9 10  1  0
 10 11  2  0
  9 12  1  0
 12 13  1  0
 13 14  2  0
 14 15  1  0
 15 16  2  0
 16 17  1  0
 17 18  2  0
  2 19  1  0
 19 20  1  0
 20 21  2  0
 21 22  1  0
 22 23  2  0
 23 24  1  0
 24 25  2  0
 23 26  1  0
 10  4  1  0
 18 13  1  0
 25 20  1  0
  3 27  1  0
  3 28  1  0
  7 29  1  0
  7 30  1  0
  7 31  1  0
  8 32  1  0
 12 33  1  0
 12 34  1  0
 14 35  1  0
 15 36  1  0
 16 37  1  0
 17 38  1  0
 18 39  1  0
 19 40  1  0
 21 41  1  0
 22 42  1  0
 24 43  1  0
 25 44  1  0
M  END
>  <Ligand ID>  (1) 
LIG0003948

>  <Ligand>  (1) 
CHEMBL2391278

>  <SMILES>  (1) 
O=C(Cn1nc(C)cc(c1=O)Cc1ccccc1)Nc1ccc(cc1)F

>  <CID>  (1) 
71698881.0

>  <ChEMBL ID>  (1) 
nan

>  <InChiKey>  (1) 
JZDSOBVWSSBOKM-UHFFFAOYSA-N

>  <InChi>  (1) 
InChI=1S/C20H18FN3O2/c1-14-11-16(12-15-5-3-2-4-6-15)20(26)24(23-14)13-19(25)22-18-9-7-17(21)8-10-18/h2-11H,12-13H2,1H3,(H,22,25)

>  <IUPAC Name>  (1) 
2-(5-benzyl-3-methyl-6-oxopyridazin-1-yl)-N-(4-fluorophenyl)acetamide

$$$$
