
     RDKit          3D

 72 76  0  0  0  0  0  0  0  0999 V2000
    8.4877   -2.1618   -2.2326 C   0  0  0  0  0  0  0  0  0  0  0  0
    7.8019   -1.2289   -1.4596 O   0  0  0  0  0  0  0  0  0  0  0  0
    6.4788   -1.2430   -1.1074 C   0  0  0  0  0  0  0  0  0  0  0  0
    5.9851   -0.1990   -0.3173 C   0  0  0  0  0  0  0  0  0  0  0  0
    4.6483   -0.1706    0.0652 C   0  0  0  0  0  0  0  0  0  0  0  0
    3.7605   -1.1470   -0.3058 C   0  0  0  0  0  0  0  0  0  0  0  0
    4.2631   -2.1880   -1.0962 C   0  0  0  0  0  0  0  0  0  0  0  0
    5.5831   -2.2364   -1.4866 C   0  0  0  0  0  0  0  0  0  0  0  0
    2.3517   -1.1715    0.0544 C   0  0  0  0  0  0  0  0  0  0  0  0
    1.5656   -0.1134    0.0794 C   0  0  0  0  0  0  0  0  0  0  0  0
    2.0004    1.2624   -0.2565 C   0  0  0  0  0  0  0  0  0  0  0  0
    0.8550    1.9958   -0.7547 N   0  0  0  0  0  0  0  0  0  0  0  0
   -0.3904    1.3715   -1.1542 C   0  0  0  0  0  0  0  0  0  0  0  0
   -0.8581    0.3908   -0.1472 C   0  0  0  0  0  0  0  0  0  0  0  0
    0.1587   -0.3588    0.4704 C   0  0  0  0  0  0  0  0  0  0  0  0
   -0.4317   -1.1904    1.3425 N   0  0  0  0  0  0  0  0  0  0  0  0
   -1.7584   -0.9830    1.2857 N   0  0  0  0  0  0  0  0  0  0  0  0
   -2.0525   -0.0254    0.3871 C   0  0  0  0  0  0  0  0  0  0  0  0
   -3.3424    0.5208   -0.0113 C   0  0  0  0  0  0  0  0  0  0  0  0
   -3.3371    1.4026   -0.9045 O   0  0  0  0  0  0  0  0  0  0  0  0
   -4.5803    0.1307    0.5312 N   0  0  0  0  0  0  0  0  0  0  0  0
   -5.8049    0.7426    0.0541 C   0  0  1  0  0  0  0  0  0  0  0  0
   -6.7057   -0.2721   -0.4973 C   0  0  0  0  0  0  0  0  0  0  0  0
   -6.2603   -1.2860   -1.3168 C   0  0  0  0  0  0  0  0  0  0  0  0
   -7.1096   -2.2487   -1.8415 C   0  0  0  0  0  0  0  0  0  0  0  0
   -8.4603   -2.1612   -1.5097 C   0  0  0  0  0  0  0  0  0  0  0  0
   -8.8613   -1.1249   -0.6830 C   0  0  0  0  0  0  0  0  0  0  0  0
   -8.0067   -0.2109   -0.1943 N   0  0  0  0  0  0  0  0  0  0  0  0
   -6.4630    1.5837    1.1273 C   0  0  0  0  0  0  0  0  0  0  0  0
    0.2666   -2.1249    2.1691 C   0  0  0  0  0  0  0  0  0  0  0  0
   -0.0111   -3.4845    1.9702 C   0  0  0  0  0  0  0  0  0  0  0  0
    0.6261   -4.4419    2.7335 C   0  0  0  0  0  0  0  0  0  0  0  0
    1.5472   -4.0668    3.7045 C   0  0  0  0  0  0  0  0  0  0  0  0
    1.7929   -2.7213    3.8698 C   0  0  0  0  0  0  0  0  0  0  0  0
    1.1634   -1.7428    3.1134 C   0  0  0  0  0  0  0  0  0  0  0  0
    1.4997   -0.0422    3.3524 Cl  0  0  0  0  0  0  0  0  0  0  0  0
    2.3750   -5.2564    4.6927 Cl  0  0  0  0  0  0  0  0  0  0  0  0
    0.9821    3.4077   -0.8451 C   0  0  0  0  0  0  0  0  0  0  0  0
    0.0300    4.1034   -1.2679 O   0  0  0  0  0  0  0  0  0  0  0  0
    2.2220    4.1215   -0.4524 C   0  0  0  0  0  0  0  0  0  0  0  0
    2.0584    5.8729   -0.6713 S   0  0  0  0  0  0  0  0  0  0  0  0
    3.3337    6.5621   -0.2882 O   0  0  0  0  0  0  0  0  0  0  0  0
    1.7849    6.1341   -2.1326 O   0  0  0  0  0  0  0  0  0  0  0  0
    0.7872    6.5293    0.2673 N   0  0  0  0  0  0  0  0  0  0  0  0
    8.7823   -1.7991   -3.2459 H   0  0  0  0  0  0  0  0  0  0  0  0
    9.4564   -2.4087   -1.7073 H   0  0  0  0  0  0  0  0  0  0  0  0
    7.9765   -3.1479   -2.3164 H   0  0  0  0  0  0  0  0  0  0  0  0
    6.6586    0.5811   -0.0113 H   0  0  0  0  0  0  0  0  0  0  0  0
    4.3392    0.6480    0.6700 H   0  0  0  0  0  0  0  0  0  0  0  0
    3.5834   -2.9797   -1.4075 H   0  0  0  0  0  0  0  0  0  0  0  0
    5.9500   -3.0638   -2.1063 H   0  0  0  0  0  0  0  0  0  0  0  0
    1.9685   -2.1777    0.3189 H   0  0  0  0  0  0  0  0  0  0  0  0
    2.2951    1.8290    0.6801 H   0  0  0  0  0  0  0  0  0  0  0  0
    2.7836    1.2870   -1.0269 H   0  0  0  0  0  0  0  0  0  0  0  0
   -1.1650    2.1400   -1.3160 H   0  0  0  0  0  0  0  0  0  0  0  0
   -0.2144    0.8759   -2.1539 H   0  0  0  0  0  0  0  0  0  0  0  0
   -4.5704   -0.6036    1.2765 H   0  0  0  0  0  0  0  0  0  0  0  0
   -5.5318    1.4521   -0.7508 H   0  0  0  0  0  0  0  0  0  0  0  0
   -5.2034   -1.3504   -1.5734 H   0  0  0  0  0  0  0  0  0  0  0  0
   -6.7593   -3.0511   -2.4887 H   0  0  0  0  0  0  0  0  0  0  0  0
   -9.1877   -2.8913   -1.8912 H   0  0  0  0  0  0  0  0  0  0  0  0
   -9.8939   -1.0222   -0.4038 H   0  0  0  0  0  0  0  0  0  0  0  0
   -6.4581    1.1001    2.1257 H   0  0  0  0  0  0  0  0  0  0  0  0
   -5.8872    2.5420    1.1829 H   0  0  0  0  0  0  0  0  0  0  0  0
   -7.4802    1.8507    0.7861 H   0  0  0  0  0  0  0  0  0  0  0  0
   -0.7392   -3.7961    1.2041 H   0  0  0  0  0  0  0  0  0  0  0  0
    0.4426   -5.5130    2.6150 H   0  0  0  0  0  0  0  0  0  0  0  0
    2.5213   -2.4245    4.6374 H   0  0  0  0  0  0  0  0  0  0  0  0
    2.5873    3.8482    0.5461 H   0  0  0  0  0  0  0  0  0  0  0  0
    3.0116    3.7958   -1.1689 H   0  0  0  0  0  0  0  0  0  0  0  0
   -0.1592    6.2461   -0.0211 H   0  0  0  0  0  0  0  0  0  0  0  0
    0.9179    7.5031    0.5649 H   0  0  0  0  0  0  0  0  0  0  0  0
  1  2  1  0
  2  3  1  0
  3  4  2  0
  4  5  1  0
  5  6  2  0
  6  7  1  0
  7  8  2  0
  6  9  1  0
  9 10  2  0
 10 11  1  0
 11 12  1  0
 12 13  1  0
 13 14  1  0
 14 15  2  0
 15 16  1  0
 16 17  1  0
 17 18  2  0
 18 19  1  0
 19 20  2  0
 19 21  1  0
 21 22  1  0
 22 23  1  0
 23 24  2  0
 24 25  1  0
 25 26  2  0
 26 27  1  0
 27 28  2  0
 22 29  1  0
 16 30  1  0
 30 31  2  0
 31 32  1  0
 32 33  2  0
 33 34  1  0
 34 35  2  0
 35 36  1  0
 33 37  1  0
 12 38  1  0
 38 39  2  0
 38 40  1  0
 40 41  1  0
 41 42  2  0
 41 43  2  0
 41 44  1  0
  8  3  1  0
 15 10  1  0
 28 23  1  0
 35 30  1  0
 18 14  1  0
  1 45  1  0
  1 46  1  0
  1 47  1  0
  4 48  1  0
  5 49  1  0
  7 50  1  0
  8 51  1  0
  9 52  1  0
 11 53  1  0
 11 54  1  0
 13 55  1  0
 13 56  1  0
 21 57  1  0
 22 58  1  6
 24 59  1  0
 25 60  1  0
 26 61  1  0
 27 62  1  0
 29 63  1  0
 29 64  1  0
 29 65  1  0
 31 66  1  0
 32 67  1  0
 34 68  1  0
 40 69  1  0
 40 70  1  0
 44 71  1  0
 44 72  1  0
M  END
>  <Ligand ID>  (1) 
LIG0005442

>  <Ligand>  (1) 
CHEMBL3896570

>  <SMILES>  (1) 
COc1ccc(cc1)/C=C/1\CN(Cc2c1n(nc2C(=O)N[C@@H](c1ccccn1)C)c1ccc(cc1Cl)Cl)C(=O)CS(=O)(=O)N

>  <CID>  (1) 
134134129.0

>  <ChEMBL ID>  (1) 
nan

>  <InChiKey>  (1) 
UIHMQZJVBBITKP-JZQBQCRLSA-N

>  <InChi>  (1) 
InChI=1S/C30H28Cl2N6O5S/c1-18(25-5-3-4-12-34-25)35-30(40)28-23-16-37(27(39)17-44(33,41)42)15-20(13-19-6-9-22(43-2)10-7-19)29(23)38(36-28)26-11-8-21(31)14-24(26)32/h3-14,18H,15-17H2,1-2H3,(H,35,40)(H2,33,41,42)/b20-13+/t18-/m1/s1

>  <IUPAC Name>  (1) 
(7E)-1-(2,4-dichlorophenyl)-7-[(4-methoxyphenyl)methylidene]-N-[(1R)-1-pyridin-2-ylethyl]-5-(2-sulfamoylacetyl)-4,6-dihydropyrazolo[4,3-c]pyridine-3-carboxamide

$$$$
