
     RDKit          3D

 62 64  0  0  0  0  0  0  0  0999 V2000
   -5.6382   -4.1192    0.3556 C   0  0  0  0  0  0  0  0  0  0  0  0
   -4.7380   -3.3727   -0.6059 C   0  0  0  0  0  0  0  0  0  0  0  0
   -3.8133   -2.6291    0.2020 O   0  0  0  0  0  0  0  0  0  0  0  0
   -2.8385   -1.8271   -0.3583 C   0  0  0  0  0  0  0  0  0  0  0  0
   -2.7306   -1.7227   -1.6242 O   0  0  0  0  0  0  0  0  0  0  0  0
   -1.8942   -1.0689    0.5480 C   0  0  0  0  0  0  0  0  0  0  0  0
   -1.1974   -2.1650    1.3452 C   0  0  0  0  0  0  0  0  0  0  0  0
    0.0219   -2.6608    0.6592 C   0  0  0  0  0  0  0  0  0  0  0  0
    0.9324   -1.5623    0.4565 N   0  0  0  0  0  0  0  0  0  0  0  0
    0.4202   -0.5408   -0.3983 C   0  0  0  0  0  0  0  0  0  0  0  0
   -1.0055   -0.1641   -0.1911 C   0  0  0  0  0  0  0  0  0  0  0  0
    2.2120   -2.0135   -0.0332 C   0  0  0  0  0  0  0  0  0  0  0  0
    3.1059   -0.8580   -0.1519 C   0  0  0  0  0  0  0  0  0  0  0  0
    3.2978   -0.0934   -1.2653 C   0  0  0  0  0  0  0  0  0  0  0  0
    4.1638    0.9976   -1.2952 C   0  0  0  0  0  0  0  0  0  0  0  0
    4.8613    1.3252   -0.1536 C   0  0  0  0  0  0  0  0  0  0  0  0
    4.6945    0.5759    0.9926 C   0  0  0  0  0  0  0  0  0  0  0  0
    3.8302   -0.4964    0.9879 C   0  0  0  0  0  0  0  0  0  0  0  0
    5.7691    2.4336   -0.1103 N   0  0  0  0  0  0  0  0  0  0  0  0
    7.1222    2.1437   -0.4561 C   0  0  0  0  0  0  0  0  0  0  0  0
    7.3591    0.9291   -0.7625 O   0  0  0  0  0  0  0  0  0  0  0  0
    8.1779    3.1831   -0.4586 C   0  0  0  0  0  0  0  0  0  0  0  0
   -2.7371   -0.3683    1.5802 C   0  0  0  0  0  0  0  0  0  0  0  0
   -3.7564    0.5834    1.1235 C   0  0  0  0  0  0  0  0  0  0  0  0
   -3.3918    1.7527    0.3596 C   0  0  0  0  0  0  0  0  0  0  0  0
   -2.9819    2.8954    1.0598 C   0  0  0  0  0  0  0  0  0  0  0  0
   -2.6505    4.0591    0.4234 C   0  0  0  0  0  0  0  0  0  0  0  0
   -2.7034    4.1688   -0.9537 C   0  0  0  0  0  0  0  0  0  0  0  0
   -3.1045    3.0568   -1.6688 C   0  0  0  0  0  0  0  0  0  0  0  0
   -3.4341    1.8947   -1.0131 C   0  0  0  0  0  0  0  0  0  0  0  0
   -6.3546   -3.3674    0.7609 H   0  0  0  0  0  0  0  0  0  0  0  0
   -6.1461   -4.9763   -0.1307 H   0  0  0  0  0  0  0  0  0  0  0  0
   -5.0024   -4.4275    1.2012 H   0  0  0  0  0  0  0  0  0  0  0  0
   -5.3070   -2.6879   -1.2648 H   0  0  0  0  0  0  0  0  0  0  0  0
   -4.2295   -4.0946   -1.2656 H   0  0  0  0  0  0  0  0  0  0  0  0
   -0.9194   -1.7687    2.3414 H   0  0  0  0  0  0  0  0  0  0  0  0
   -1.9357   -2.9679    1.5216 H   0  0  0  0  0  0  0  0  0  0  0  0
    0.5393   -3.3581    1.3578 H   0  0  0  0  0  0  0  0  0  0  0  0
   -0.1876   -3.2554   -0.2514 H   0  0  0  0  0  0  0  0  0  0  0  0
    1.0487    0.3575   -0.2504 H   0  0  0  0  0  0  0  0  0  0  0  0
    0.6068   -0.8733   -1.4442 H   0  0  0  0  0  0  0  0  0  0  0  0
   -1.4471   -0.0752   -1.2307 H   0  0  0  0  0  0  0  0  0  0  0  0
   -1.0840    0.8570    0.2336 H   0  0  0  0  0  0  0  0  0  0  0  0
    2.0978   -2.4880   -1.0460 H   0  0  0  0  0  0  0  0  0  0  0  0
    2.6760   -2.7795    0.6137 H   0  0  0  0  0  0  0  0  0  0  0  0
    2.7826   -0.3192   -2.1626 H   0  0  0  0  0  0  0  0  0  0  0  0
    4.3017    1.5875   -2.1804 H   0  0  0  0  0  0  0  0  0  0  0  0
    5.2384    0.8316    1.8821 H   0  0  0  0  0  0  0  0  0  0  0  0
    3.7345   -1.0548    1.9173 H   0  0  0  0  0  0  0  0  0  0  0  0
    5.4812    3.3868    0.1516 H   0  0  0  0  0  0  0  0  0  0  0  0
    8.4570    3.5269    0.5588 H   0  0  0  0  0  0  0  0  0  0  0  0
    7.9403    4.0628   -1.0802 H   0  0  0  0  0  0  0  0  0  0  0  0
    9.0924    2.7125   -0.9058 H   0  0  0  0  0  0  0  0  0  0  0  0
   -3.2376   -1.1573    2.2285 H   0  0  0  0  0  0  0  0  0  0  0  0
   -1.9689    0.1058    2.2751 H   0  0  0  0  0  0  0  0  0  0  0  0
   -4.4131    0.9394    1.9839 H   0  0  0  0  0  0  0  0  0  0  0  0
   -4.4865   -0.0080    0.4778 H   0  0  0  0  0  0  0  0  0  0  0  0
   -2.9210    2.8716    2.1325 H   0  0  0  0  0  0  0  0  0  0  0  0
   -2.3340    4.9409    0.9658 H   0  0  0  0  0  0  0  0  0  0  0  0
   -2.4524    5.0624   -1.4973 H   0  0  0  0  0  0  0  0  0  0  0  0
   -3.1749    3.0536   -2.7558 H   0  0  0  0  0  0  0  0  0  0  0  0
   -3.7478    1.0260   -1.5773 H   0  0  0  0  0  0  0  0  0  0  0  0
  1  2  1  0
  2  3  1  0
  3  4  1  0
  4  5  2  0
  4  6  1  0
  6  7  1  0
  7  8  1  0
  8  9  1  0
  9 10  1  0
 10 11  1  0
  9 12  1  0
 12 13  1  0
 13 14  2  0
 14 15  1  0
 15 16  2  0
 16 17  1  0
 17 18  2  0
 16 19  1  0
 19 20  1  0
 20 21  2  0
 20 22  1  0
  6 23  1  0
 23 24  1  0
 24 25  1  0
 25 26  2  0
 26 27  1  0
 27 28  2  0
 28 29  1  0
 29 30  2  0
 11  6  1  0
 18 13  1  0
 30 25  1  0
  1 31  1  0
  1 32  1  0
  1 33  1  0
  2 34  1  0
  2 35  1  0
  7 36  1  0
  7 37  1  0
  8 38  1  0
  8 39  1  0
 10 40  1  0
 10 41  1  0
 11 42  1  0
 11 43  1  0
 12 44  1  0
 12 45  1  0
 14 46  1  0
 15 47  1  0
 17 48  1  0
 18 49  1  0
 19 50  1  0
 22 51  1  0
 22 52  1  0
 22 53  1  0
 23 54  1  0
 23 55  1  0
 24 56  1  0
 24 57  1  0
 26 58  1  0
 27 59  1  0
 28 60  1  0
 29 61  1  0
 30 62  1  0
M  END
>  <Ligand ID>  (1) 
LIG0004431

>  <Ligand>  (1) 
MLS001000244

>  <SMILES>  (1) 
CCOC(=O)C1(CCN(CC1)Cc1ccc(cc1)NC(=O)C)CCc1ccccc1

>  <CID>  (1) 
23723457.0

>  <ChEMBL ID>  (1) 
nan

>  <InChiKey>  (1) 
VUXRYYSKTWDPLO-UHFFFAOYSA-N

>  <InChi>  (1) 
InChI=1S/C25H32N2O3/c1-3-30-24(29)25(14-13-21-7-5-4-6-8-21)15-17-27(18-16-25)19-22-9-11-23(12-10-22)26-20(2)28/h4-12H,3,13-19H2,1-2H3,(H,26,28)

>  <IUPAC Name>  (1) 
ethyl 1-[(4-acetamidophenyl)methyl]-4-(2-phenylethyl)piperidine-4-carboxylate

$$$$
