
     RDKit          3D

 75 79  0  0  0  0  0  0  0  0999 V2000
   -6.6637    3.2105    0.4434 C   0  0  0  0  0  0  0  0  0  0  0  0
   -6.6411    1.8978   -0.0423 O   0  0  0  0  0  0  0  0  0  0  0  0
   -5.5188    1.1385    0.1988 C   0  0  0  0  0  0  0  0  0  0  0  0
   -4.3603    1.5665    0.8096 C   0  0  0  0  0  0  0  0  0  0  0  0
   -3.2586    0.8244    1.0876 C   0  0  0  0  0  0  0  0  0  0  0  0
   -3.3230   -0.5209    0.6649 C   0  0  0  0  0  0  0  0  0  0  0  0
   -4.4539   -0.9659    0.0462 C   0  0  0  0  0  0  0  0  0  0  0  0
   -5.6033   -0.1387   -0.1975 C   0  0  0  0  0  0  0  0  0  0  0  0
   -6.8077   -0.6480   -0.7607 C   0  0  0  0  0  0  0  0  0  0  0  0
   -7.0828   -0.2818   -2.0700 C   0  0  0  0  0  0  0  0  0  0  0  0
   -8.1486   -0.8972   -2.6651 C   0  0  0  0  0  0  0  0  0  0  0  0
   -8.8852   -1.8709   -2.0061 C   0  0  0  0  0  0  0  0  0  0  0  0
   -8.6300   -2.2319   -0.6953 C   0  0  0  0  0  0  0  0  0  0  0  0
   -7.5738   -1.5650   -0.0953 C   0  0  0  0  0  0  0  0  0  0  0  0
   -7.6185   -1.5529    1.4023 C   0  0  0  0  0  0  0  0  0  0  0  0
   -8.7511   -0.6305    1.7332 N   0  0  0  0  0  0  0  0  0  0  0  0
   -2.1870   -1.2828    1.0485 N   0  0  0  0  0  0  0  0  0  0  0  0
   -1.0146   -0.7009    0.5643 C   0  0  0  0  0  0  0  0  0  0  0  0
   -1.1523    0.2677   -0.4475 C   0  0  0  0  0  0  0  0  0  0  0  0
   -0.1339    1.0887   -0.6685 C   0  0  0  0  0  0  0  0  0  0  0  0
    1.0259    0.9400    0.1006 C   0  0  0  0  0  0  0  0  0  0  0  0
    1.1472   -0.0265    1.0468 C   0  0  0  0  0  0  0  0  0  0  0  0
    0.1757   -0.8558    1.3228 C   0  0  0  0  0  0  0  0  0  0  0  0
    2.1470    1.8787   -0.0335 C   0  0  0  0  0  0  0  0  0  0  0  0
    2.8463    1.3623   -1.2607 C   0  0  0  0  0  0  0  0  0  0  0  0
    3.0919    0.0312   -1.4404 N   0  0  0  0  0  0  0  0  0  0  0  0
    3.9592   -0.6234   -0.5686 C   0  0  0  0  0  0  0  0  0  0  0  0
    5.1804    0.2281   -0.2843 C   0  0  1  0  0  0  0  0  0  0  0  0
    6.2996   -0.5700    0.3280 C   0  0  0  0  0  0  0  0  0  0  0  0
    6.2090   -1.9074    0.2812 C   0  0  0  0  0  0  0  0  0  0  0  0
    7.3619   -2.6727    0.4520 C   0  0  0  0  0  0  0  0  0  0  0  0
    8.4932   -2.0522    0.6802 C   0  0  0  0  0  0  0  0  0  0  0  0
    8.5604   -0.6603    0.7542 C   0  0  0  0  0  0  0  0  0  0  0  0
    7.4705    0.1435    0.6108 C   0  0  0  0  0  0  0  0  0  0  0  0
    7.5011    1.4939    0.5230 C   0  0  0  0  0  0  0  0  0  0  0  0
    8.7528    2.1065    0.4588 C   0  0  0  0  0  0  0  0  0  0  0  0
    9.7401    1.2279    0.5394 C   0  0  0  0  0  0  0  0  0  0  0  0
   10.9958    1.8048    0.4967 O   0  0  0  0  0  0  0  0  0  0  0  0
    9.8108   -0.0628    0.6711 N   0  0  0  0  0  0  0  0  0  0  0  0
    9.7808   -2.7146    0.8491 O   0  0  0  0  0  0  0  0  0  0  0  0
    5.7707    0.5696   -1.5120 O   0  0  0  0  0  0  0  0  0  0  0  0
   -5.8641    3.8538    0.1398 H   0  0  0  0  0  0  0  0  0  0  0  0
   -7.7028    3.5571    0.3645 H   0  0  0  0  0  0  0  0  0  0  0  0
   -6.5616    3.0470    1.5776 H   0  0  0  0  0  0  0  0  0  0  0  0
   -4.2928    2.6544    0.8532 H   0  0  0  0  0  0  0  0  0  0  0  0
   -2.4383    1.3064    1.5894 H   0  0  0  0  0  0  0  0  0  0  0  0
   -4.4361   -2.0185   -0.2556 H   0  0  0  0  0  0  0  0  0  0  0  0
   -6.4811    0.4526   -2.5633 H   0  0  0  0  0  0  0  0  0  0  0  0
   -8.4521   -0.5387   -3.6127 H   0  0  0  0  0  0  0  0  0  0  0  0
   -9.6457   -2.3747   -2.5779 H   0  0  0  0  0  0  0  0  0  0  0  0
   -9.1882   -2.9852   -0.1945 H   0  0  0  0  0  0  0  0  0  0  0  0
   -7.8278   -2.4742    1.8997 H   0  0  0  0  0  0  0  0  0  0  0  0
   -6.7437   -0.9698    1.7876 H   0  0  0  0  0  0  0  0  0  0  0  0
   -8.5154    0.3332    1.5621 H   0  0  0  0  0  0  0  0  0  0  0  0
   -9.6042   -0.9352    1.2450 H   0  0  0  0  0  0  0  0  0  0  0  0
   -2.1972   -2.1316    1.6238 H   0  0  0  0  0  0  0  0  0  0  0  0
   -2.0645    0.2934   -1.0698 H   0  0  0  0  0  0  0  0  0  0  0  0
   -0.1905    1.8211   -1.4375 H   0  0  0  0  0  0  0  0  0  0  0  0
    2.0702   -0.0968    1.6132 H   0  0  0  0  0  0  0  0  0  0  0  0
    0.2562   -1.6676    2.0172 H   0  0  0  0  0  0  0  0  0  0  0  0
    2.7367    2.0554    0.8870 H   0  0  0  0  0  0  0  0  0  0  0  0
    1.6495    2.9032   -0.2338 H   0  0  0  0  0  0  0  0  0  0  0  0
    3.8216    1.9251   -1.3521 H   0  0  0  0  0  0  0  0  0  0  0  0
    2.1925    1.7279   -2.1254 H   0  0  0  0  0  0  0  0  0  0  0  0
    2.3570   -0.5398   -1.9304 H   0  0  0  0  0  0  0  0  0  0  0  0
    3.7013   -1.2720    0.2400 H   0  0  0  0  0  0  0  0  0  0  0  0
    4.4202   -1.3792   -1.3905 H   0  0  0  0  0  0  0  0  0  0  0  0
    4.8746    1.0819    0.3062 H   0  0  0  0  0  0  0  0  0  0  0  0
    5.3200   -2.4902    0.0456 H   0  0  0  0  0  0  0  0  0  0  0  0
    7.3736   -3.7479    0.3837 H   0  0  0  0  0  0  0  0  0  0  0  0
    6.5675    2.0471    0.5612 H   0  0  0  0  0  0  0  0  0  0  0  0
    8.8372    3.1767    0.2943 H   0  0  0  0  0  0  0  0  0  0  0  0
   10.6610   -0.6204    0.8182 H   0  0  0  0  0  0  0  0  0  0  0  0
   10.3457   -2.4200   -0.0425 H   0  0  0  0  0  0  0  0  0  0  0  0
    6.5095    0.0780   -1.8496 H   0  0  0  0  0  0  0  0  0  0  0  0
  1  2  1  0
  2  3  1  0
  3  4  2  0
  4  5  1  0
  5  6  2  0
  6  7  1  0
  7  8  2  0
  8  9  1  0
  9 10  2  0
 10 11  1  0
 11 12  2  0
 12 13  1  0
 13 14  2  0
 14 15  1  0
 15 16  1  0
  6 17  1  0
 17 18  1  0
 18 19  2  0
 19 20  1  0
 20 21  2  0
 21 22  1  0
 22 23  2  0
 21 24  1  0
 24 25  1  0
 25 26  1  0
 26 27  1  0
 27 28  1  0
 28 29  1  0
 29 30  2  0
 30 31  1  0
 31 32  2  0
 32 33  1  0
 33 34  2  0
 34 35  1  0
 35 36  2  0
 36 37  1  0
 37 38  2  0
 37 39  1  0
 32 40  1  0
 28 41  1  0
  8  3  1  0
 14  9  1  0
 23 18  1  0
 34 29  1  0
 39 33  1  0
  1 42  1  0
  1 43  1  0
  1 44  1  0
  4 45  1  0
  5 46  1  0
  7 47  1  0
 10 48  1  0
 11 49  1  0
 12 50  1  0
 13 51  1  0
 15 52  1  0
 15 53  1  0
 16 54  1  0
 16 55  1  0
 17 56  1  0
 19 57  1  0
 20 58  1  0
 22 59  1  0
 23 60  1  0
 24 61  1  0
 24 62  1  0
 25 63  1  0
 25 64  1  0
 26 65  1  0
 27 66  1  0
 27 67  1  0
 28 68  1  1
 30 69  1  0
 31 70  1  0
 35 71  1  0
 36 72  1  0
 39 73  1  0
 40 74  1  0
 41 75  1  0
M  END
>  <Ligand ID>  (1) 
LIG0004737

>  <Ligand>  (1) 
CHEMBL3298324

>  <SMILES>  (1) 
COc1ccc(cc1c1ccccc1CN)Nc1ccc(cc1)CCNC[C@@H](c1ccc(c2c1ccc(=O)[nH]2)O)O

>  <CID>  (1) 
90645344.0

>  <ChEMBL ID>  (1) 
nan

>  <InChiKey>  (1) 
QUIWZJSYFWGPPN-PMERELPUSA-N

>  <InChi>  (1) 
InChI=1S/C33H34N4O4/c1-41-31-14-10-24(18-28(31)25-5-3-2-4-22(25)19-34)36-23-8-6-21(7-9-23)16-17-35-20-30(39)26-11-13-29(38)33-27(26)12-15-32(40)37-33/h2-15,18,30,35-36,38-39H,16-17,19-20,34H2,1H3,(H,37,40)/t30-/m0/s1

>  <IUPAC Name>  (1) 
5-[(1R)-2-[2-[4-[3-[2-(aminomethyl)phenyl]-4-methoxyanilino]phenyl]ethylamino]-1-hydroxyethyl]-8-hydroxy-1H-quinolin-2-one

$$$$
