
     RDKit          3D

 47 49  0  0  0  0  0  0  0  0999 V2000
   -4.4307    1.7926    1.7886 C   0  0  0  0  0  0  0  0  0  0  0  0
   -3.6971    1.6619    0.4465 C   0  0  2  0  0  0  0  0  0  0  0  0
   -4.6391    2.2840   -0.5668 C   0  0  0  0  0  0  0  0  0  0  0  0
   -4.1250    2.2480   -1.8422 F   0  0  0  0  0  0  0  0  0  0  0  0
   -5.8514    1.6676   -0.5220 F   0  0  0  0  0  0  0  0  0  0  0  0
   -4.7960    3.6098   -0.2098 F   0  0  0  0  0  0  0  0  0  0  0  0
   -3.3954    0.3346    0.1659 O   0  0  0  0  0  0  0  0  0  0  0  0
   -2.1597   -0.2291   -0.0358 C   0  0  0  0  0  0  0  0  0  0  0  0
   -0.9653    0.4557    0.0084 C   0  0  0  0  0  0  0  0  0  0  0  0
    0.2625   -0.1549   -0.2017 C   0  0  0  0  0  0  0  0  0  0  0  0
    0.2639   -1.4711   -0.4578 N   0  0  0  0  0  0  0  0  0  0  0  0
   -0.8986   -2.1856   -0.5102 C   0  0  0  0  0  0  0  0  0  0  0  0
   -2.1119   -1.5858   -0.3032 C   0  0  0  0  0  0  0  0  0  0  0  0
   -3.3521   -2.3696   -0.3631 C   0  0  0  0  0  0  0  0  0  0  0  0
   -4.0006   -2.4536   -1.7207 C   0  0  0  0  0  0  0  0  0  0  0  0
   -3.3596   -3.6850   -1.1416 C   0  0  0  0  0  0  0  0  0  0  0  0
    1.4985    0.6383   -0.1395 C   0  0  0  0  0  0  0  0  0  0  0  0
    1.5029    1.8704    0.0997 O   0  0  0  0  0  0  0  0  0  0  0  0
    2.7340   -0.0310   -0.3617 N   0  0  0  0  0  0  0  0  0  0  0  0
    3.9975    0.6305   -0.3272 C   0  0  0  0  0  0  0  0  0  0  0  0
    4.1834    1.7360   -1.3141 C   0  0  0  0  0  0  0  0  0  0  0  0
    5.4902    1.2598   -1.5162 O   0  0  0  0  0  0  0  0  0  0  0  0
    4.9791   -0.0181   -1.2874 C   0  0  0  0  0  0  0  0  0  0  0  0
    4.5888    0.8642    1.0394 C   0  0  0  0  0  0  0  0  0  0  0  0
    4.8159   -0.3996    1.7759 C   0  0  0  0  0  0  0  0  0  0  0  0
    4.5156   -1.4894    1.2338 O   0  0  0  0  0  0  0  0  0  0  0  0
    5.3722   -0.3031    3.0810 N   0  0  0  0  0  0  0  0  0  0  0  0
   -3.7307    1.9525    2.6215 H   0  0  0  0  0  0  0  0  0  0  0  0
   -5.0788    0.9076    1.9597 H   0  0  0  0  0  0  0  0  0  0  0  0
   -5.1002    2.6804    1.7825 H   0  0  0  0  0  0  0  0  0  0  0  0
   -2.8025    2.2940    0.5027 H   0  0  0  0  0  0  0  0  0  0  0  0
   -0.9602    1.4970    0.2106 H   0  0  0  0  0  0  0  0  0  0  0  0
   -0.7717   -3.2382   -0.7243 H   0  0  0  0  0  0  0  0  0  0  0  0
   -4.0051   -2.3783    0.5306 H   0  0  0  0  0  0  0  0  0  0  0  0
   -5.1066   -2.3824   -1.6999 H   0  0  0  0  0  0  0  0  0  0  0  0
   -3.5273   -1.9846   -2.5829 H   0  0  0  0  0  0  0  0  0  0  0  0
   -2.4228   -4.0475   -1.6055 H   0  0  0  0  0  0  0  0  0  0  0  0
   -4.0743   -4.4686   -0.8194 H   0  0  0  0  0  0  0  0  0  0  0  0
    2.7249   -1.0671   -0.5625 H   0  0  0  0  0  0  0  0  0  0  0  0
    4.1242    2.7353   -0.8824 H   0  0  0  0  0  0  0  0  0  0  0  0
    3.5598    1.5507   -2.2163 H   0  0  0  0  0  0  0  0  0  0  0  0
    5.6788   -0.7344   -0.8328 H   0  0  0  0  0  0  0  0  0  0  0  0
    4.4410   -0.4141   -2.1555 H   0  0  0  0  0  0  0  0  0  0  0  0
    3.8797    1.5110    1.5896 H   0  0  0  0  0  0  0  0  0  0  0  0
    5.5404    1.4153    0.9185 H   0  0  0  0  0  0  0  0  0  0  0  0
    6.2830    0.2191    3.2161 H   0  0  0  0  0  0  0  0  0  0  0  0
    4.9265   -0.7254    3.9316 H   0  0  0  0  0  0  0  0  0  0  0  0
  1  2  1  0
  2  3  1  0
  3  4  1  0
  3  5  1  0
  3  6  1  0
  2  7  1  0
  7  8  1  0
  8  9  2  0
  9 10  1  0
 10 11  2  0
 11 12  1  0
 12 13  2  0
 13 14  1  0
 14 15  1  0
 15 16  1  0
 10 17  1  0
 17 18  2  0
 17 19  1  0
 19 20  1  0
 20 21  1  0
 21 22  1  0
 22 23  1  0
 20 24  1  0
 24 25  1  0
 25 26  2  0
 25 27  1  0
 13  8  1  0
 16 14  1  0
 23 20  1  0
  1 28  1  0
  1 29  1  0
  1 30  1  0
  2 31  1  1
  9 32  1  0
 12 33  1  0
 14 34  1  0
 15 35  1  0
 15 36  1  0
 16 37  1  0
 16 38  1  0
 19 39  1  0
 21 40  1  0
 21 41  1  0
 23 42  1  0
 23 43  1  0
 24 44  1  0
 24 45  1  0
 27 46  1  0
 27 47  1  0
M  END
>  <Ligand ID>  (1) 
LIG0005401

>  <Ligand>  (1) 
SCHEMBL15790134

>  <SMILES>  (1) 
C[C@H](C(F)(F)F)Oc1cc(ncc1C1CC1)C(=O)NC1(COC1)CC(=O)N

>  <CID>  (1) 
90214918.0

>  <ChEMBL ID>  (1) 
nan

>  <InChiKey>  (1) 
APUABHWPSMMJPZ-SECBINFHSA-N

>  <InChi>  (1) 
InChI=1S/C17H20F3N3O4/c1-9(17(18,19)20)27-13-4-12(22-6-11(13)10-2-3-10)15(25)23-16(5-14(21)24)7-26-8-16/h4,6,9-10H,2-3,5,7-8H2,1H3,(H2,21,24)(H,23,25)/t9-/m1/s1

>  <IUPAC Name>  (1) 
N-[3-(2-amino-2-oxoethyl)oxetan-3-yl]-5-cyclopropyl-4-[(2R)-1,1,1-trifluoropropan-2-yl]oxypyridine-2-carboxamide

$$$$
