
     RDKit          3D

 41 44  0  0  0  0  0  0  0  0999 V2000
   -3.2240    1.1119   -2.2702 O   0  0  0  0  0  0  0  0  0  0  0  0
   -3.3439    0.6916   -1.0813 C   0  0  0  0  0  0  0  0  0  0  0  0
   -2.2896    0.6744   -0.2313 N   0  0  0  0  0  0  0  0  0  0  0  0
   -2.3961    0.2441    1.0096 C   0  0  0  0  0  0  0  0  0  0  0  0
   -1.3658    0.2081    2.0723 C   0  0  0  0  0  0  0  0  0  0  0  0
   -0.2951   -1.1566    2.1833 S   0  0  0  0  0  0  0  0  0  0  0  0
    1.2049   -1.2533    1.3245 C   0  0  0  0  0  0  0  0  0  0  0  0
    1.9514   -2.4138    1.2943 N   0  0  0  0  0  0  0  0  0  0  0  0
    3.0816   -2.2183    0.6761 C   0  0  0  0  0  0  0  0  0  0  0  0
    3.1308   -0.9176    0.2695 C   0  0  0  0  0  0  0  0  0  0  0  0
    1.9711   -0.3484    0.6752 N   0  0  0  0  0  0  0  0  0  0  0  0
    1.6904    1.0412    0.4463 C   0  0  0  0  0  0  0  0  0  0  0  0
    4.2567   -0.3456   -0.4515 C   0  0  0  0  0  0  0  0  0  0  0  0
    4.8374    0.8743   -0.0873 C   0  0  0  0  0  0  0  0  0  0  0  0
    5.9195    1.3998   -0.7681 C   0  0  0  0  0  0  0  0  0  0  0  0
    6.4923    0.7420   -1.8601 C   0  0  0  0  0  0  0  0  0  0  0  0
    5.9164   -0.4657   -2.2235 C   0  0  0  0  0  0  0  0  0  0  0  0
    4.8387   -0.9947   -1.5480 C   0  0  0  0  0  0  0  0  0  0  0  0
   -3.6389   -0.1853    1.3943 N   0  0  0  0  0  0  0  0  0  0  0  0
   -4.7126   -0.1932    0.6152 C   0  0  0  0  0  0  0  0  0  0  0  0
   -4.6057    0.2506   -0.6695 C   0  0  0  0  0  0  0  0  0  0  0  0
   -5.7011    0.2809   -1.5255 C   0  0  0  0  0  0  0  0  0  0  0  0
   -6.9071   -0.1643   -0.9978 C   0  0  0  0  0  0  0  0  0  0  0  0
   -7.0385   -0.6166    0.2924 C   0  0  0  0  0  0  0  0  0  0  0  0
   -5.9316   -0.6423    1.1409 C   0  0  0  0  0  0  0  0  0  0  0  0
   -1.4004    1.0075   -0.6169 H   0  0  0  0  0  0  0  0  0  0  0  0
   -1.9147    0.2913    3.0704 H   0  0  0  0  0  0  0  0  0  0  0  0
   -0.8263    1.2218    2.0783 H   0  0  0  0  0  0  0  0  0  0  0  0
    3.8504   -2.9754    0.5279 H   0  0  0  0  0  0  0  0  0  0  0  0
    2.3356    1.4443   -0.3854 H   0  0  0  0  0  0  0  0  0  0  0  0
    1.9435    1.6718    1.3546 H   0  0  0  0  0  0  0  0  0  0  0  0
    0.6695    1.2302    0.1159 H   0  0  0  0  0  0  0  0  0  0  0  0
    4.4279    1.4353    0.7700 H   0  0  0  0  0  0  0  0  0  0  0  0
    6.3655    2.3529   -0.4606 H   0  0  0  0  0  0  0  0  0  0  0  0
    7.3340    1.1258   -2.4018 H   0  0  0  0  0  0  0  0  0  0  0  0
    6.3468   -1.0038   -3.0844 H   0  0  0  0  0  0  0  0  0  0  0  0
    4.4262   -1.9440   -1.8630 H   0  0  0  0  0  0  0  0  0  0  0  0
   -5.5928    0.6406   -2.5441 H   0  0  0  0  0  0  0  0  0  0  0  0
   -7.7690   -0.1379   -1.6746 H   0  0  0  0  0  0  0  0  0  0  0  0
   -8.0104   -0.9613    0.6849 H   0  0  0  0  0  0  0  0  0  0  0  0
   -6.0271   -1.0022    2.1540 H   0  0  0  0  0  0  0  0  0  0  0  0
  1  2  2  0
  2  3  1  0
  3  4  1  0
  4  5  1  0
  5  6  1  0
  6  7  1  0
  7  8  2  0
  8  9  1  0
  9 10  2  0
 10 11  1  0
 11 12  1  0
 10 13  1  0
 13 14  2  0
 14 15  1  0
 15 16  2  0
 16 17  1  0
 17 18  2  0
  4 19  2  0
 19 20  1  0
 20 21  2  0
 21 22  1  0
 22 23  2  0
 23 24  1  0
 24 25  2  0
 21  2  1  0
 11  7  1  0
 18 13  1  0
 25 20  1  0
  3 26  1  0
  5 27  1  0
  5 28  1  0
  9 29  1  0
 12 30  1  0
 12 31  1  0
 12 32  1  0
 14 33  1  0
 15 34  1  0
 16 35  1  0
 17 36  1  0
 18 37  1  0
 22 38  1  0
 23 39  1  0
 24 40  1  0
 25 41  1  0
M  END
>  <Ligand ID>  (1) 
LIG0004560

>  <Ligand>  (1) 
ASN 03787482

>  <SMILES>  (1) 
O=c1[nH]c(CSc2ncc(n2C)c2ccccc2)nc2c1cccc2

>  <CID>  (1) 
135450641.0

>  <ChEMBL ID>  (1) 
nan

>  <InChiKey>  (1) 
OYJMHBWMRQYJDV-UHFFFAOYSA-N

>  <InChi>  (1) 
InChI=1S/C19H16N4OS/c1-23-16(13-7-3-2-4-8-13)11-20-19(23)25-12-17-21-15-10-6-5-9-14(15)18(24)22-17/h2-11H,12H2,1H3,(H,21,22,24)

>  <IUPAC Name>  (1) 
2-[(1-methyl-5-phenylimidazol-2-yl)sulfanylmethyl]-3H-quinazolin-4-one

$$$$
