
     RDKit          3D

123128  0  0  0  0  0  0  0  0999 V2000
   -5.4035   -4.7727    2.3417 C   0  0  0  0  0  0  0  0  0  0  0  0
   -5.0240   -3.9534    1.1173 C   0  0  0  0  0  0  0  0  0  0  0  0
   -4.6505   -4.8518   -0.0073 C   0  0  0  0  0  0  0  0  0  0  0  0
   -4.2542   -4.1565   -1.2895 C   0  0  0  0  0  0  0  0  0  0  0  0
   -3.0855   -3.2541   -1.1694 C   0  0  2  0  0  0  0  0  0  0  0  0
   -1.9506   -4.0994   -0.7363 N   0  0  0  0  0  0  0  0  0  0  0  0
   -0.7391   -4.1768   -1.4961 C   0  0  0  0  0  0  0  0  0  0  0  0
   -0.6658   -3.3810   -2.4391 O   0  0  0  0  0  0  0  0  0  0  0  0
    0.3462   -5.1642   -1.1466 C   0  0  0  0  0  0  0  0  0  0  0  0
    1.4777   -5.0099   -2.0907 C   0  0  0  0  0  0  0  0  0  0  0  0
    2.5969   -4.1848   -1.5992 C   0  0  2  0  0  0  0  0  0  0  0  0
    2.3059   -2.8888   -1.0794 N   0  0  0  0  0  0  0  0  0  0  0  0
    3.2419   -2.3842   -0.0847 C   0  0  0  0  0  0  0  0  0  0  0  0
    4.1807   -3.1417    0.1609 O   0  0  0  0  0  0  0  0  0  0  0  0
    3.1377   -1.0995    0.5964 C   0  0  1  0  0  0  0  0  0  0  0  0
    2.0105   -0.2754    0.0953 N   0  0  0  0  0  0  0  0  0  0  0  0
    2.2380    0.7731   -0.8514 C   0  0  0  0  0  0  0  0  0  0  0  0
    3.3969    0.8579   -1.2741 O   0  0  0  0  0  0  0  0  0  0  0  0
    1.1264    1.6923   -1.2997 C   0  0  1  0  0  0  0  0  0  0  0  0
   -0.0079    1.6759   -0.4212 N   0  0  0  0  0  0  0  0  0  0  0  0
    0.1059    1.8470    1.0196 C   0  0  0  0  0  0  0  0  0  0  0  0
    1.2736    2.0359    1.3954 O   0  0  0  0  0  0  0  0  0  0  0  0
   -1.0749    1.7968    1.9164 C   0  0  2  0  0  0  0  0  0  0  0  0
   -2.2244    1.5478    1.0794 N   0  0  0  0  0  0  0  0  0  0  0  0
   -3.1058    0.4020    1.2928 C   0  0  0  0  0  0  0  0  0  0  0  0
   -2.7871   -0.2566    2.2947 O   0  0  0  0  0  0  0  0  0  0  0  0
   -4.1883    0.1864    0.3649 C   0  0  1  0  0  0  0  0  0  0  0  0
   -4.2256   -1.0700   -0.3910 N   0  0  0  0  0  0  0  0  0  0  0  0
   -3.1855   -2.0215   -0.4050 C   0  0  0  0  0  0  0  0  0  0  0  0
   -2.2295   -1.7372    0.3631 O   0  0  0  0  0  0  0  0  0  0  0  0
   -5.4990   -1.0510   -1.0062 C   0  0  0  0  0  0  0  0  0  0  0  0
   -6.4548   -0.2012   -0.1817 C   0  0  0  0  0  0  0  0  0  0  0  0
   -5.5770    0.2931    0.9506 C   0  0  0  0  0  0  0  0  0  0  0  0
   -1.2395    3.0640    2.7304 C   0  0  0  0  0  0  0  0  0  0  0  0
   -1.4161    4.2789    1.9011 C   0  0  0  0  0  0  0  0  0  0  0  0
   -0.3103    5.0224    1.5568 C   0  0  0  0  0  0  0  0  0  0  0  0
   -0.3726    6.1601    0.7799 C   0  0  0  0  0  0  0  0  0  0  0  0
   -1.5933    6.5647    0.3333 C   0  0  0  0  0  0  0  0  0  0  0  0
   -2.7297    5.8523    0.6526 C   0  0  0  0  0  0  0  0  0  0  0  0
   -2.6371    4.7169    1.4320 C   0  0  0  0  0  0  0  0  0  0  0  0
   -3.9367    6.3236    0.1601 C   0  0  0  0  0  0  0  0  0  0  0  0
   -4.0426    7.4530   -0.6198 C   0  0  0  0  0  0  0  0  0  0  0  0
   -2.8717    8.1248   -0.9067 C   0  0  0  0  0  0  0  0  0  0  0  0
   -1.6383    7.7193   -0.4551 C   0  0  0  0  0  0  0  0  0  0  0  0
    1.5714    2.9816   -1.8461 C   0  0  0  0  0  0  0  0  0  0  0  0
    2.3756    3.8804   -0.9863 C   0  0  0  0  0  0  0  0  0  0  0  0
    2.7212    5.1483   -1.7866 C   0  0  0  0  0  0  0  0  0  0  0  0
    3.4838    4.6531   -2.9406 N   0  0  0  0  0  0  0  0  0  0  0  0
    3.9097    5.4554   -3.8570 C   0  0  0  0  0  0  0  0  0  0  0  0
    3.6604    6.8742   -3.7969 N   0  0  0  0  0  0  0  0  0  0  0  0
    4.6382    4.8963   -4.9365 N   0  0  0  0  0  0  0  0  0  0  0  0
    3.1215   -1.1525    2.0748 C   0  0  0  0  0  0  0  0  0  0  0  0
    4.2882   -1.7493    2.6954 C   0  0  0  0  0  0  0  0  0  0  0  0
    5.4269   -1.0011    3.0460 C   0  0  0  0  0  0  0  0  0  0  0  0
    6.3666   -1.8128    3.5509 N   0  0  0  0  0  0  0  0  0  0  0  0
    5.9027   -3.0866    3.5552 C   0  0  0  0  0  0  0  0  0  0  0  0
    4.6311   -3.0385    3.0312 C   0  0  0  0  0  0  0  0  0  0  0  0
    3.9453   -4.2430    2.9603 C   0  0  0  0  0  0  0  0  0  0  0  0
    4.5315   -5.4075    3.3961 C   0  0  0  0  0  0  0  0  0  0  0  0
    5.8195   -5.4269    3.9194 C   0  0  0  0  0  0  0  0  0  0  0  0
    6.5203   -4.2262    3.9984 C   0  0  0  0  0  0  0  0  0  0  0  0
    3.4392   -3.9045   -2.8695 C   0  0  0  0  0  0  0  0  0  0  0  0
    3.6827   -2.6953   -3.1557 O   0  0  0  0  0  0  0  0  0  0  0  0
    3.9043   -4.9654   -3.6587 N   0  0  0  0  0  0  0  0  0  0  0  0
   -5.1612   -5.8514    2.1393 H   0  0  0  0  0  0  0  0  0  0  0  0
   -4.9288   -4.4007    3.2700 H   0  0  0  0  0  0  0  0  0  0  0  0
   -6.4982   -4.6685    2.4711 H   0  0  0  0  0  0  0  0  0  0  0  0
   -4.1115   -3.3972    1.4225 H   0  0  0  0  0  0  0  0  0  0  0  0
   -5.8308   -3.2688    0.8388 H   0  0  0  0  0  0  0  0  0  0  0  0
   -5.5149   -5.5494   -0.2081 H   0  0  0  0  0  0  0  0  0  0  0  0
   -3.8312   -5.5121    0.3548 H   0  0  0  0  0  0  0  0  0  0  0  0
   -3.8427   -5.0579   -1.9153 H   0  0  0  0  0  0  0  0  0  0  0  0
   -5.0813   -3.8422   -1.9180 H   0  0  0  0  0  0  0  0  0  0  0  0
   -2.8086   -2.8972   -2.2295 H   0  0  0  0  0  0  0  0  0  0  0  0
   -1.9615   -4.6612    0.1134 H   0  0  0  0  0  0  0  0  0  0  0  0
   -0.1476   -6.1696   -1.1675 H   0  0  0  0  0  0  0  0  0  0  0  0
    0.6929   -5.0104   -0.1035 H   0  0  0  0  0  0  0  0  0  0  0  0
    1.0939   -4.4894   -3.0367 H   0  0  0  0  0  0  0  0  0  0  0  0
    1.8766   -6.0066   -2.4340 H   0  0  0  0  0  0  0  0  0  0  0  0
    3.3224   -4.7498   -0.9546 H   0  0  0  0  0  0  0  0  0  0  0  0
    1.5520   -2.2520   -1.2864 H   0  0  0  0  0  0  0  0  0  0  0  0
    4.0342   -0.4419    0.3259 H   0  0  0  0  0  0  0  0  0  0  0  0
    1.0446   -0.4162    0.3740 H   0  0  0  0  0  0  0  0  0  0  0  0
    0.7266    1.1254   -2.2465 H   0  0  0  0  0  0  0  0  0  0  0  0
   -0.9634    1.5412   -0.7396 H   0  0  0  0  0  0  0  0  0  0  0  0
   -0.9197    0.9724    2.6481 H   0  0  0  0  0  0  0  0  0  0  0  0
   -2.5076    2.1448    0.3100 H   0  0  0  0  0  0  0  0  0  0  0  0
   -4.1478    0.9818   -0.4319 H   0  0  0  0  0  0  0  0  0  0  0  0
   -5.4253   -0.5195   -2.0094 H   0  0  0  0  0  0  0  0  0  0  0  0
   -6.0246   -1.9912   -1.1560 H   0  0  0  0  0  0  0  0  0  0  0  0
   -6.7687    0.7055   -0.7347 H   0  0  0  0  0  0  0  0  0  0  0  0
   -7.3146   -0.7667    0.1972 H   0  0  0  0  0  0  0  0  0  0  0  0
   -5.8226    1.3024    1.2824 H   0  0  0  0  0  0  0  0  0  0  0  0
   -5.6710   -0.4133    1.7984 H   0  0  0  0  0  0  0  0  0  0  0  0
   -0.4135    3.1527    3.4643 H   0  0  0  0  0  0  0  0  0  0  0  0
   -2.1693    2.9711    3.3448 H   0  0  0  0  0  0  0  0  0  0  0  0
    0.6645    4.7055    1.9114 H   0  0  0  0  0  0  0  0  0  0  0  0
    0.5420    6.6861    0.5559 H   0  0  0  0  0  0  0  0  0  0  0  0
   -3.5178    4.1576    1.6855 H   0  0  0  0  0  0  0  0  0  0  0  0
   -4.8360    5.7867    0.3947 H   0  0  0  0  0  0  0  0  0  0  0  0
   -4.9470    7.8498   -1.0190 H   0  0  0  0  0  0  0  0  0  0  0  0
   -2.9093    9.0289   -1.5242 H   0  0  0  0  0  0  0  0  0  0  0  0
   -0.7228    8.2458   -0.6794 H   0  0  0  0  0  0  0  0  0  0  0  0
    2.0740    2.8387   -2.8449 H   0  0  0  0  0  0  0  0  0  0  0  0
    0.6364    3.5561   -2.1265 H   0  0  0  0  0  0  0  0  0  0  0  0
    3.3821    3.4000   -0.8056 H   0  0  0  0  0  0  0  0  0  0  0  0
    1.9067    4.2421   -0.0796 H   0  0  0  0  0  0  0  0  0  0  0  0
    3.2918    5.8687   -1.2022 H   0  0  0  0  0  0  0  0  0  0  0  0
    1.7652    5.5418   -2.2003 H   0  0  0  0  0  0  0  0  0  0  0  0
    2.7354    7.2850   -4.0644 H   0  0  0  0  0  0  0  0  0  0  0  0
    4.4705    7.4708   -3.4671 H   0  0  0  0  0  0  0  0  0  0  0  0
    4.1612    4.2494   -5.6159 H   0  0  0  0  0  0  0  0  0  0  0  0
    5.6482    5.1040   -5.0878 H   0  0  0  0  0  0  0  0  0  0  0  0
    2.2037   -1.6926    2.4627 H   0  0  0  0  0  0  0  0  0  0  0  0
    2.9854   -0.1085    2.5022 H   0  0  0  0  0  0  0  0  0  0  0  0
    5.5417    0.0771    2.9303 H   0  0  0  0  0  0  0  0  0  0  0  0
    7.3091   -1.4705    3.8818 H   0  0  0  0  0  0  0  0  0  0  0  0
    2.9458   -4.1823    2.5463 H   0  0  0  0  0  0  0  0  0  0  0  0
    3.9674   -6.3507    3.3302 H   0  0  0  0  0  0  0  0  0  0  0  0
    6.2877   -6.3381    4.2623 H   0  0  0  0  0  0  0  0  0  0  0  0
    7.5251   -4.2390    4.4060 H   0  0  0  0  0  0  0  0  0  0  0  0
    4.1718   -4.7758   -4.6365 H   0  0  0  0  0  0  0  0  0  0  0  0
    3.9832   -5.9367   -3.2774 H   0  0  0  0  0  0  0  0  0  0  0  0
  1  2  1  0
  2  3  1  0
  3  4  1  0
  4  5  1  0
  5  6  1  0
  6  7  1  0
  7  8  2  0
  7  9  1  0
  9 10  1  0
 10 11  1  0
 11 12  1  0
 12 13  1  0
 13 14  2  0
 13 15  1  0
 15 16  1  0
 16 17  1  0
 17 18  2  0
 17 19  1  0
 19 20  1  0
 20 21  1  0
 21 22  2  0
 21 23  1  0
 23 24  1  0
 24 25  1  0
 25 26  2  0
 25 27  1  0
 27 28  1  0
 28 29  1  0
 29 30  2  0
 28 31  1  0
 31 32  1  0
 32 33  1  0
 23 34  1  0
 34 35  1  0
 35 36  2  0
 36 37  1  0
 37 38  2  0
 38 39  1  0
 39 40  2  0
 39 41  1  0
 41 42  2  0
 42 43  1  0
 43 44  2  0
 19 45  1  0
 45 46  1  0
 46 47  1  0
 47 48  1  0
 48 49  2  3
 49 50  1  0
 49 51  1  0
 15 52  1  0
 52 53  1  0
 53 54  2  0
 54 55  1  0
 55 56  1  0
 56 57  2  0
 57 58  1  0
 58 59  2  0
 59 60  1  0
 60 61  2  0
 11 62  1  0
 62 63  2  0
 62 64  1  0
 29  5  1  0
 40 35  1  0
 57 53  1  0
 33 27  1  0
 44 38  1  0
 61 56  1  0
  1 65  1  0
  1 66  1  0
  1 67  1  0
  2 68  1  0
  2 69  1  0
  3 70  1  0
  3 71  1  0
  4 72  1  0
  4 73  1  0
  5 74  1  6
  6 75  1  0
  9 76  1  0
  9 77  1  0
 10 78  1  0
 10 79  1  0
 11 80  1  1
 12 81  1  0
 15 82  1  1
 16 83  1  0
 19 84  1  6
 20 85  1  0
 23 86  1  1
 24 87  1  0
 27 88  1  6
 31 89  1  0
 31 90  1  0
 32 91  1  0
 32 92  1  0
 33 93  1  0
 33 94  1  0
 34 95  1  0
 34 96  1  0
 36 97  1  0
 37 98  1  0
 40 99  1  0
 41100  1  0
 42101  1  0
 43102  1  0
 44103  1  0
 45104  1  0
 45105  1  0
 46106  1  0
 46107  1  0
 47108  1  0
 47109  1  0
 50110  1  0
 50111  1  0
 51112  1  0
 51113  1  0
 52114  1  0
 52115  1  0
 54116  1  0
 55117  1  0
 58118  1  0
 59119  1  0
 60120  1  0
 61121  1  0
 64122  1  0
 64123  1  0
M  END
>  <Ligand ID>  (1) 
LIG0001848

>  <Ligand>  (1) 
CHEMBL203760

>  <SMILES>  (1) 
CCCC[C@@H]1NC(=O)CC[C@H](NC(=O)[C@@H](NC(=O)[C@@H](NC(=O)[C@H](NC(=O)[C@H]2N(C1=O)CCC2)Cc1ccc2c(c1)cccc2)CCCN=C(N)N)Cc1c[nH]c2c1cccc2)C(=O)N

>  <CID>  (1) 
11629326.0

>  <ChEMBL ID>  (1) 
nan

>  <InChiKey>  (1) 
QQCJWXXVYXUARZ-ZPRVLUMXSA-N

>  <InChi>  (1) 
InChI=1S/C46H59N11O7/c1-2-3-13-35-45(64)57-22-9-16-38(57)44(63)56-36(24-27-17-18-28-10-4-5-11-29(28)23-27)42(61)54-34(15-8-21-50-46(48)49)41(60)55-37(25-30-26-51-32-14-7-6-12-31(30)32)43(62)53-33(40(47)59)19-20-39(58)52-35/h4-7,10-12,14,17-18,23,26,33-38,51H,2-3,8-9,13,15-16,19-22,24-25H2,1H3,(H2,47,59)(H,52,58)(H,53,62)(H,54,61)(H,55,60)(H,56,63)(H4,48,49,50)/t33-,34-,35-,36+,37-,38-/m0/s1

>  <IUPAC Name>  (1) 
(3S,8S,11S,14S,17R,20S)-3-butyl-14-[3-(diaminomethylideneamino)propyl]-11-(1H-indol-3-ylmethyl)-17-(naphthalen-2-ylmethyl)-2,5,10,13,16,19-hexaoxo-1,4,9,12,15,18-hexazabicyclo[18.3.0]tricosane-8-carboxamide

$$$$
