
     RDKit          3D

 44 48  0  0  0  0  0  0  0  0999 V2000
   -2.8621   -1.2498   -2.0068 O   0  0  0  0  0  0  0  0  0  0  0  0
   -3.1064   -0.2364   -1.3272 C   0  0  0  0  0  0  0  0  0  0  0  0
   -4.3712    0.5324   -1.3804 C   0  0  0  0  0  0  0  0  0  0  0  0
   -5.5225   -0.3818   -1.1216 C   0  0  1  0  0  0  0  0  0  0  0  0
   -5.1271   -1.2694    0.0107 C   0  0  0  0  0  0  0  0  0  0  0  0
   -5.0674   -0.5010    1.1117 C   0  0  0  0  0  0  0  0  0  0  0  0
   -5.4519    0.8755    0.7165 C   0  0  1  0  0  0  0  0  0  0  0  0
   -4.3484    1.4270   -0.1438 C   0  0  1  0  0  0  0  0  0  0  0  0
   -3.0218    1.1868    0.4767 C   0  0  0  0  0  0  0  0  0  0  0  0
   -2.6881    1.6509    1.5867 O   0  0  0  0  0  0  0  0  0  0  0  0
   -2.2488    0.3709   -0.3909 N   0  0  0  0  0  0  0  0  0  0  0  0
   -0.8370    0.2385   -0.2710 C   0  0  0  0  0  0  0  0  0  0  0  0
   -0.0268    1.1068   -0.9556 C   0  0  0  0  0  0  0  0  0  0  0  0
    1.3327    1.0328   -0.8827 C   0  0  0  0  0  0  0  0  0  0  0  0
    1.9797    0.0680   -0.1064 C   0  0  0  0  0  0  0  0  0  0  0  0
    1.1504   -0.7920    0.5714 C   0  0  0  0  0  0  0  0  0  0  0  0
   -0.2378   -0.7213    0.5010 C   0  0  0  0  0  0  0  0  0  0  0  0
   -1.2296   -1.8483    1.3902 Cl  0  0  0  0  0  0  0  0  0  0  0  0
    3.3760    0.0556   -0.0823 N   0  0  0  0  0  0  0  0  0  0  0  0
    4.2092   -0.8233    0.6275 C   0  0  0  0  0  0  0  0  0  0  0  0
    3.7644   -1.7302    1.3466 O   0  0  0  0  0  0  0  0  0  0  0  0
    5.6795   -0.6944    0.5396 C   0  0  0  0  0  0  0  0  0  0  0  0
    6.5268   -1.5392    1.2223 C   0  0  0  0  0  0  0  0  0  0  0  0
    7.9045   -1.3676    1.0994 C   0  0  0  0  0  0  0  0  0  0  0  0
    8.4497   -0.3787    0.3159 C   0  0  0  0  0  0  0  0  0  0  0  0
    7.5574    0.4474   -0.3524 C   0  0  0  0  0  0  0  0  0  0  0  0
    6.2374    0.2620   -0.2180 N   0  0  0  0  0  0  0  0  0  0  0  0
   -6.4777    0.5409   -0.3803 C   0  0  0  0  0  0  0  0  0  0  0  0
   -4.4722    1.1563   -2.2887 H   0  0  0  0  0  0  0  0  0  0  0  0
   -5.9480   -0.8905   -1.9765 H   0  0  0  0  0  0  0  0  0  0  0  0
   -4.9288   -2.3345   -0.0601 H   0  0  0  0  0  0  0  0  0  0  0  0
   -4.7891   -0.8352    2.0983 H   0  0  0  0  0  0  0  0  0  0  0  0
   -5.8292    1.5195    1.4816 H   0  0  0  0  0  0  0  0  0  0  0  0
   -4.5335    2.4737   -0.4153 H   0  0  0  0  0  0  0  0  0  0  0  0
   -0.4823    1.8593   -1.5607 H   0  0  0  0  0  0  0  0  0  0  0  0
    1.9077    1.7624   -1.4591 H   0  0  0  0  0  0  0  0  0  0  0  0
    1.5476   -1.5676    1.1943 H   0  0  0  0  0  0  0  0  0  0  0  0
    3.8838    0.7922   -0.6649 H   0  0  0  0  0  0  0  0  0  0  0  0
    6.0924   -2.3113    1.8340 H   0  0  0  0  0  0  0  0  0  0  0  0
    8.5805   -2.0337    1.6378 H   0  0  0  0  0  0  0  0  0  0  0  0
    9.5108   -0.2165    0.1973 H   0  0  0  0  0  0  0  0  0  0  0  0
    7.9671    1.2395   -0.9803 H   0  0  0  0  0  0  0  0  0  0  0  0
   -7.3505    0.0164    0.0265 H   0  0  0  0  0  0  0  0  0  0  0  0
   -6.6999    1.4536   -0.9609 H   0  0  0  0  0  0  0  0  0  0  0  0
  1  2  2  0
  2  3  1  0
  3  4  1  0
  4  5  1  0
  5  6  2  0
  6  7  1  0
  7  8  1  0
  8  9  1  0
  9 10  2  0
  9 11  1  0
 11 12  1  0
 12 13  2  0
 13 14  1  0
 14 15  2  0
 15 16  1  0
 16 17  2  0
 17 18  1  0
 15 19  1  0
 19 20  1  0
 20 21  2  0
 20 22  1  0
 22 23  2  0
 23 24  1  0
 24 25  2  0
 25 26  1  0
 26 27  2  0
  7 28  1  0
 11  2  1  0
 17 12  1  0
 27 22  1  0
  8  3  1  0
 28  4  1  0
  3 29  1  0
  4 30  1  6
  5 31  1  0
  6 32  1  0
  7 33  1  1
  8 34  1  6
 13 35  1  0
 14 36  1  0
 16 37  1  0
 19 38  1  0
 23 39  1  0
 24 40  1  0
 25 41  1  0
 26 42  1  0
 28 43  1  0
 28 44  1  0
M  END
>  <Ligand ID>  (1) 
LIG0000583

>  <Ligand>  (1) 
ML182

>  <SMILES>  (1) 
O=C1C2[C@H]3C=C[C@@H]([C@H]2C(=O)N1c1ccc(cc1Cl)NC(=O)c1ccccn1)C3

>  <CID>  (1) 
46869947.0

>  <ChEMBL ID>  (1) 
nan

>  <InChiKey>  (1) 
LJUABYFUJVRUSJ-KNGMQDLYSA-N

>  <InChi>  (1) 
InChI=1S/C21H16ClN3O3/c22-14-10-13(24-19(26)15-3-1-2-8-23-15)6-7-16(14)25-20(27)17-11-4-5-12(9-11)18(17)21(25)28/h1-8,10-12,17-18H,9H2,(H,24,26)/t11-,12+,17-,18?/m1/s1

>  <IUPAC Name>  (1) 
N-[3-chloro-4-[(1S,2R,7R)-3,5-dioxo-4-azatricyclo[5.2.1.02,6]dec-8-en-4-yl]phenyl]pyridine-2-carboxamide

$$$$
