
     RDKit          3D

 24 24  0  0  0  0  0  0  0  0999 V2000
    3.3306    0.5353    0.8016 N   0  0  0  0  0  0  0  0  0  0  0  0
    3.4058    0.1330   -0.5631 C   0  0  0  0  0  0  0  0  0  0  0  0
    4.5485   -0.1436   -1.1065 N   0  0  0  0  0  0  0  0  0  0  0  0
    1.9597   -0.0170   -1.6058 S   0  0  0  0  0  0  0  0  0  0  0  0
    0.5193    0.4086   -0.6058 C   0  0  0  0  0  0  0  0  0  0  0  0
    0.3121   -0.6189    0.4778 C   0  0  0  0  0  0  0  0  0  0  0  0
   -0.8984   -0.2111    1.2847 C   0  0  0  0  0  0  0  0  0  0  0  0
   -2.0730   -0.1593    0.3890 C   0  0  0  0  0  0  0  0  0  0  0  0
   -2.8980   -1.2650    0.1511 C   0  0  0  0  0  0  0  0  0  0  0  0
   -3.8618   -0.8569   -0.7145 N   0  0  0  0  0  0  0  0  0  0  0  0
   -3.6482    0.4548   -1.0073 C   0  0  0  0  0  0  0  0  0  0  0  0
   -2.5633    0.8726   -0.3362 N   0  0  0  0  0  0  0  0  0  0  0  0
    4.0214    0.0522    1.4514 H   0  0  0  0  0  0  0  0  0  0  0  0
    2.6515    1.2527    1.1533 H   0  0  0  0  0  0  0  0  0  0  0  0
    4.6773   -0.4383   -2.0796 H   0  0  0  0  0  0  0  0  0  0  0  0
   -0.4012    0.4739   -1.2310 H   0  0  0  0  0  0  0  0  0  0  0  0
    0.6079    1.3915   -0.1125 H   0  0  0  0  0  0  0  0  0  0  0  0
    0.1302   -1.5821   -0.0530 H   0  0  0  0  0  0  0  0  0  0  0  0
    1.2166   -0.6622    1.1012 H   0  0  0  0  0  0  0  0  0  0  0  0
   -0.7517    0.7669    1.7743 H   0  0  0  0  0  0  0  0  0  0  0  0
   -1.0368   -0.9631    2.0870 H   0  0  0  0  0  0  0  0  0  0  0  0
   -2.7732   -2.2540    0.5871 H   0  0  0  0  0  0  0  0  0  0  0  0
   -4.3018    0.9997   -1.6877 H   0  0  0  0  0  0  0  0  0  0  0  0
   -2.1734    1.8302   -0.3726 H   0  0  0  0  0  0  0  0  0  0  0  0
  1  2  1  0
  2  3  2  3
  2  4  1  0
  4  5  1  0
  5  6  1  0
  6  7  1  0
  7  8  1  0
  8  9  2  0
  9 10  1  0
 10 11  2  0
 11 12  1  0
 12  8  1  0
  1 13  1  0
  1 14  1  0
  3 15  1  0
  5 16  1  0
  5 17  1  0
  6 18  1  0
  6 19  1  0
  7 20  1  0
  7 21  1  0
  9 22  1  0
 11 23  1  0
 12 24  1  0
M  END
>  <Ligand ID>  (1) 
LIG0005762

>  <Ligand>  (1) 
VUF 8328

>  <SMILES>  (1) 
NC(=N)SCCCc1cnc[nH]1

>  <CID>  (1) 
10176414.0

>  <ChEMBL ID>  (1) 
nan

>  <InChiKey>  (1) 
QJUVWGBVEFRHCN-UHFFFAOYSA-N

>  <InChi>  (1) 
InChI=1S/C7H12N4S/c8-7(9)12-3-1-2-6-4-10-5-11-6/h4-5H,1-3H2,(H3,8,9)(H,10,11)

>  <IUPAC Name>  (1) 
3-(1H-imidazol-5-yl)propyl carbamimidothioate

$$$$
