
     RDKit          3D

 54 56  0  0  0  0  0  0  0  0999 V2000
   -4.1349    1.7503    0.9466 O   0  0  0  0  0  0  0  0  0  0  0  0
   -3.8043    0.4735    0.5160 C   0  0  0  0  0  0  0  0  0  0  0  0
   -3.5525    0.4038   -0.9614 C   0  0  0  0  0  0  0  0  0  0  0  0
   -4.7848    0.8294   -1.7018 C   0  0  0  0  0  0  0  0  0  0  0  0
   -5.7155   -0.1479   -2.0365 C   0  0  0  0  0  0  0  0  0  0  0  0
   -6.8644    0.2342   -2.7243 C   0  0  0  0  0  0  0  0  0  0  0  0
   -7.0888    1.5553   -3.0740 C   0  0  0  0  0  0  0  0  0  0  0  0
   -6.1333    2.4847   -2.7176 C   0  0  0  0  0  0  0  0  0  0  0  0
   -4.9785    2.1591   -2.0364 C   0  0  0  0  0  0  0  0  0  0  0  0
   -6.3170    3.7788   -3.0406 F   0  0  0  0  0  0  0  0  0  0  0  0
   -8.2151    1.9006   -3.7432 F   0  0  0  0  0  0  0  0  0  0  0  0
   -2.6473   -0.0903    1.2537 C   0  0  0  0  0  0  0  0  0  0  0  0
   -1.4903   -0.4054    0.6655 C   0  0  0  0  0  0  0  0  0  0  0  0
   -0.3845   -0.9603    1.4555 C   0  0  1  0  0  0  0  0  0  0  0  0
    0.1420   -2.2765    0.9895 C   0  0  0  0  0  0  0  0  0  0  0  0
    1.2449   -1.9542    0.0312 C   0  0  0  0  0  0  0  0  0  0  0  0
    1.2865   -0.4748   -0.0107 C   0  0  0  0  0  0  0  0  0  0  0  0
    1.5881    0.2253   -0.9519 O   0  0  0  0  0  0  0  0  0  0  0  0
    0.8640   -0.0681    1.3855 C   0  0  2  0  0  0  0  0  0  0  0  0
    1.7690   -0.5497    2.4556 C   0  0  0  0  0  0  0  0  0  0  0  0
    3.0621    0.1312    2.6654 C   0  0  0  0  0  0  0  0  0  0  0  0
    4.0172    0.1537    1.5542 C   0  0  0  0  0  0  0  0  0  0  0  0
    4.1425    1.1727    0.6353 C   0  0  0  0  0  0  0  0  0  0  0  0
    5.0536    1.1588   -0.3992 C   0  0  0  0  0  0  0  0  0  0  0  0
    5.9055    0.0775   -0.5536 C   0  0  0  0  0  0  0  0  0  0  0  0
    5.8080   -0.9524    0.3418 C   0  0  0  0  0  0  0  0  0  0  0  0
    4.8916   -0.9262    1.3728 C   0  0  0  0  0  0  0  0  0  0  0  0
    6.8598    0.0846   -1.6535 C   0  0  0  0  0  0  0  0  0  0  0  0
    6.8779    1.0743   -2.4273 O   0  0  0  0  0  0  0  0  0  0  0  0
    7.7289   -0.9820   -1.8390 O   0  0  0  0  0  0  0  0  0  0  0  0
   -3.9650    1.7954    1.9246 H   0  0  0  0  0  0  0  0  0  0  0  0
   -4.6641   -0.1948    0.7408 H   0  0  0  0  0  0  0  0  0  0  0  0
   -3.2855   -0.6431   -1.2063 H   0  0  0  0  0  0  0  0  0  0  0  0
   -2.7001    1.0760   -1.1864 H   0  0  0  0  0  0  0  0  0  0  0  0
   -5.5431   -1.1891   -1.7633 H   0  0  0  0  0  0  0  0  0  0  0  0
   -7.5615   -0.5579   -2.9646 H   0  0  0  0  0  0  0  0  0  0  0  0
   -4.2293    2.8794   -1.7554 H   0  0  0  0  0  0  0  0  0  0  0  0
   -2.7246   -0.2643    2.3324 H   0  0  0  0  0  0  0  0  0  0  0  0
   -1.3686   -0.2529   -0.3858 H   0  0  0  0  0  0  0  0  0  0  0  0
   -0.6562   -1.0074    2.5283 H   0  0  0  0  0  0  0  0  0  0  0  0
   -0.6539   -2.8127    0.3826 H   0  0  0  0  0  0  0  0  0  0  0  0
    0.4738   -2.9335    1.8261 H   0  0  0  0  0  0  0  0  0  0  0  0
    1.0858   -2.3996   -0.9757 H   0  0  0  0  0  0  0  0  0  0  0  0
    2.1931   -2.3672    0.4912 H   0  0  0  0  0  0  0  0  0  0  0  0
    0.6359    0.9913    1.4470 H   0  0  0  0  0  0  0  0  0  0  0  0
    1.9379   -1.6533    2.3796 H   0  0  0  0  0  0  0  0  0  0  0  0
    1.1987   -0.4498    3.4257 H   0  0  0  0  0  0  0  0  0  0  0  0
    2.9122    1.1491    3.1118 H   0  0  0  0  0  0  0  0  0  0  0  0
    3.5875   -0.4306    3.4953 H   0  0  0  0  0  0  0  0  0  0  0  0
    3.4710    2.0377    0.7473 H   0  0  0  0  0  0  0  0  0  0  0  0
    5.1057    2.0032   -1.1014 H   0  0  0  0  0  0  0  0  0  0  0  0
    6.4732   -1.8181    0.2374 H   0  0  0  0  0  0  0  0  0  0  0  0
    4.8426   -1.7642    2.0666 H   0  0  0  0  0  0  0  0  0  0  0  0
    8.3040   -1.0539   -2.6488 H   0  0  0  0  0  0  0  0  0  0  0  0
  1  2  1  0
  2  3  1  0
  3  4  1  0
  4  5  2  0
  5  6  1  0
  6  7  2  0
  7  8  1  0
  8  9  2  0
  8 10  1  0
  7 11  1  0
  2 12  1  0
 12 13  2  0
 13 14  1  0
 14 15  1  0
 15 16  1  0
 16 17  1  0
 17 18  2  0
 17 19  1  0
 19 20  1  0
 20 21  1  0
 21 22  1  0
 22 23  2  0
 23 24  1  0
 24 25  2  0
 25 26  1  0
 26 27  2  0
 25 28  1  0
 28 29  2  0
 28 30  1  0
  9  4  1  0
 19 14  1  0
 27 22  1  0
  1 31  1  0
  2 32  1  0
  3 33  1  0
  3 34  1  0
  5 35  1  0
  6 36  1  0
  9 37  1  0
 12 38  1  0
 13 39  1  0
 14 40  1  1
 15 41  1  0
 15 42  1  0
 16 43  1  0
 16 44  1  0
 19 45  1  6
 20 46  1  0
 20 47  1  0
 21 48  1  0
 21 49  1  0
 23 50  1  0
 24 51  1  0
 26 52  1  0
 27 53  1  0
 30 54  1  0
M  END
>  <Ligand ID>  (1) 
LIG0001314

>  <Ligand>  (1) 
CHEMBL3976710

>  <SMILES>  (1) 
OC(Cc1ccc(c(c1)F)F)/C=C/[C@H]1CCC(=O)[C@@H]1CCc1ccc(cc1)C(=O)O

>  <CID>  (1) 
118517490.0

>  <ChEMBL ID>  (1) 
nan

>  <InChiKey>  (1) 
PGDLVWMBYBRVFO-QVVBJLIYSA-N

>  <InChi>  (1) 
InChI=1S/C24H24F2O4/c25-21-11-4-16(14-22(21)26)13-19(27)9-7-17-8-12-23(28)20(17)10-3-15-1-5-18(6-2-15)24(29)30/h1-2,4-7,9,11,14,17,19-20,27H,3,8,10,12-13H2,(H,29,30)/b9-7+/t17-,19?,20+/m0/s1

>  <IUPAC Name>  (1) 
4-[2-[(1R,2R)-2-[(E)-4-(3,4-difluorophenyl)-3-hydroxybut-1-enyl]-5-oxocyclopentyl]ethyl]benzoic acid

$$$$
