
     RDKit          3D

209217  0  0  0  0  0  0  0  0999 V2000
  -12.3436   -0.2225   -2.6245 N   0  0  0  0  0  0  0  0  0  0  0  0
  -11.2657    0.2675   -3.4060 C   0  0  0  0  0  0  0  0  0  0  0  0
  -10.5801   -0.5275   -4.2047 N   0  0  0  0  0  0  0  0  0  0  0  0
  -10.8308    1.6080   -3.4074 N   0  0  0  0  0  0  0  0  0  0  0  0
   -9.4732    2.0546   -3.3963 C   0  0  0  0  0  0  0  0  0  0  0  0
   -8.7923    1.8083   -2.1096 C   0  0  0  0  0  0  0  0  0  0  0  0
   -8.6547    0.3889   -1.6474 C   0  0  0  0  0  0  0  0  0  0  0  0
   -8.0040    0.2771   -0.3305 C   0  0  2  0  0  0  0  0  0  0  0  0
   -6.7077    0.7030   -0.0141 N   0  0  0  0  0  0  0  0  0  0  0  0
   -6.4158    2.0135    0.3371 C   0  0  0  0  0  0  0  0  0  0  0  0
   -7.0560    3.0446    0.0963 O   0  0  0  0  0  0  0  0  0  0  0  0
   -5.1210    2.2351    1.1190 C   0  0  2  0  0  0  0  0  0  0  0  0
   -5.8469    2.8182    2.4190 C   0  0  0  0  0  0  0  0  0  0  0  0
   -7.3112    2.1365    2.8876 S   0  0  0  0  0  0  0  0  0  0  0  0
   -7.9339    0.7407    3.5522 C   0  0  0  0  0  0  0  0  0  0  0  0
   -7.9890   -0.5383    2.8912 C   0  0  0  0  0  0  0  0  0  0  0  0
   -8.4194   -1.4618    3.7518 O   0  0  0  0  0  0  0  0  0  0  0  0
   -7.8107   -1.2413    1.6932 N   0  0  0  0  0  0  0  0  0  0  0  0
   -8.4615   -0.9357    0.4467 C   0  0  0  0  0  0  0  0  0  0  0  0
   -7.3195   -2.6237    1.8047 C   0  0  1  0  0  0  0  0  0  0  0  0
   -7.8008   -3.8131    1.2428 C   0  0  0  0  0  0  0  0  0  0  0  0
   -7.9746   -4.2104   -0.1331 C   0  0  0  0  0  0  0  0  0  0  0  0
   -6.9722   -4.8050   -0.8940 C   0  0  0  0  0  0  0  0  0  0  0  0
   -7.3993   -5.0336   -2.1418 N   0  0  0  0  0  0  0  0  0  0  0  0
   -8.6583   -4.6198   -2.2646 C   0  0  0  0  0  0  0  0  0  0  0  0
   -9.0347   -4.1094   -1.0352 C   0  0  0  0  0  0  0  0  0  0  0  0
  -10.3116   -3.6034   -0.8483 C   0  0  0  0  0  0  0  0  0  0  0  0
  -11.2074   -3.6176   -1.8953 C   0  0  0  0  0  0  0  0  0  0  0  0
  -10.8208   -4.1340   -3.1236 C   0  0  0  0  0  0  0  0  0  0  0  0
   -9.5570   -4.6379   -3.3343 C   0  0  0  0  0  0  0  0  0  0  0  0
   -5.7774   -2.6187    1.7967 C   0  0  0  0  0  0  0  0  0  0  0  0
   -5.2015   -1.4989    1.7889 O   0  0  0  0  0  0  0  0  0  0  0  0
   -4.9898   -3.7670    1.8027 N   0  0  0  0  0  0  0  0  0  0  0  0
   -3.5389   -3.5390    1.9243 C   0  0  1  0  0  0  0  0  0  0  0  0
   -3.0937   -4.1339    3.2771 C   0  0  0  0  0  0  0  0  0  0  0  0
   -3.3431   -5.5811    3.3629 C   0  0  0  0  0  0  0  0  0  0  0  0
   -3.7457   -6.2841    2.3833 O   0  0  0  0  0  0  0  0  0  0  0  0
   -3.1401   -6.2966    4.5901 N   0  0  0  0  0  0  0  0  0  0  0  0
   -2.7879   -4.2196    0.8399 C   0  0  0  0  0  0  0  0  0  0  0  0
   -3.2832   -5.0877    0.0797 O   0  0  0  0  0  0  0  0  0  0  0  0
   -1.4487   -3.8399    0.6654 N   0  0  0  0  0  0  0  0  0  0  0  0
   -0.5044   -4.4564   -0.2613 C   0  0  1  0  0  0  0  0  0  0  0  0
   -0.3645   -3.5516   -1.4878 C   0  0  0  0  0  0  0  0  0  0  0  0
    0.7817   -4.4560    0.4990 C   0  0  0  0  0  0  0  0  0  0  0  0
    0.6854   -3.8664    1.6480 O   0  0  0  0  0  0  0  0  0  0  0  0
    1.9987   -5.0014    0.1018 N   0  0  0  0  0  0  0  0  0  0  0  0
    3.1501   -4.7915    0.9849 C   0  0  1  0  0  0  0  0  0  0  0  0
    3.6671   -6.0391    1.5882 C   0  0  0  0  0  0  0  0  0  0  0  0
    4.1390   -7.0862    0.6875 C   0  0  0  0  0  0  0  0  0  0  0  0
    5.4495   -7.2510    0.2799 C   0  0  0  0  0  0  0  0  0  0  0  0
    5.7635   -8.2939   -0.5708 C   0  0  0  0  0  0  0  0  0  0  0  0
    4.8166   -9.1845   -1.0335 C   0  0  0  0  0  0  0  0  0  0  0  0
    3.5040   -9.0240   -0.6310 C   0  0  0  0  0  0  0  0  0  0  0  0
    3.1877   -7.9928    0.2125 C   0  0  0  0  0  0  0  0  0  0  0  0
    4.1437   -3.8904    0.3576 C   0  0  0  0  0  0  0  0  0  0  0  0
    5.0759   -3.4836    1.0540 O   0  0  0  0  0  0  0  0  0  0  0  0
    3.9549   -3.5434   -1.0287 N   0  0  0  0  0  0  0  0  0  0  0  0
    4.8155   -2.6260   -1.7234 C   0  0  1  0  0  0  0  0  0  0  0  0
    4.1817   -1.4491   -2.2773 C   0  0  0  0  0  0  0  0  0  0  0  0
    5.2699   -0.0014   -2.4731 S   0  0  0  0  0  0  0  0  0  0  0  0
    5.7225    0.8304   -0.5499 S   0  0  0  0  0  0  0  0  0  0  0  0
    4.4546    2.0490   -0.0889 C   0  0  0  0  0  0  0  0  0  0  0  0
    4.5482    3.2469   -1.0139 C   0  0  1  0  0  0  0  0  0  0  0  0
    3.4731    4.2371   -0.7333 C   0  0  0  0  0  0  0  0  0  0  0  0
    3.6900    5.3776   -0.2468 O   0  0  0  0  0  0  0  0  0  0  0  0
    2.1105    3.8847   -1.0401 N   0  0  0  0  0  0  0  0  0  0  0  0
    1.1374    4.9458   -0.6904 C   0  0  2  0  0  0  0  0  0  0  0  0
   -0.2588    4.5203   -0.7602 C   0  0  0  0  0  0  0  0  0  0  0  0
   -0.6131    3.5506   -1.4933 O   0  0  0  0  0  0  0  0  0  0  0  0
   -1.2674    5.1593   -0.0056 N   0  0  0  0  0  0  0  0  0  0  0  0
   -2.6725    4.9598   -0.0619 C   0  0  1  0  0  0  0  0  0  0  0  0
   -3.0885    3.7073    0.6293 C   0  0  0  0  0  0  0  0  0  0  0  0
   -2.3235    2.9124    1.2006 O   0  0  0  0  0  0  0  0  0  0  0  0
   -4.4808    3.4314    0.6178 N   0  0  0  0  0  0  0  0  0  0  0  0
   -3.4235    6.1796    0.3510 C   0  0  0  0  0  0  0  0  0  0  0  0
   -3.0898    6.6518    1.7185 C   0  0  0  0  0  0  0  0  0  0  0  0
   -2.1128    7.6514    1.8671 C   0  0  0  0  0  0  0  0  0  0  0  0
   -1.7384    8.1226    3.1155 C   0  0  0  0  0  0  0  0  0  0  0  0
   -2.3138    7.6237    4.2617 C   0  0  0  0  0  0  0  0  0  0  0  0
   -3.2682    6.6465    4.1088 C   0  0  0  0  0  0  0  0  0  0  0  0
   -3.6520    6.1681    2.8712 C   0  0  0  0  0  0  0  0  0  0  0  0
    1.2896    5.9608   -1.8809 C   0  0  0  0  0  0  0  0  0  0  0  0
    0.4236    7.1151   -1.7252 C   0  0  0  0  0  0  0  0  0  0  0  0
    0.8137    8.2965   -1.0909 C   0  0  0  0  0  0  0  0  0  0  0  0
   -0.2566    9.1297   -1.1771 N   0  0  0  0  0  0  0  0  0  0  0  0
   -1.2258    8.4661   -1.8331 C   0  0  0  0  0  0  0  0  0  0  0  0
   -0.8350    7.2364   -2.1762 N   0  0  0  0  0  0  0  0  0  0  0  0
    5.8402    3.8349   -0.8092 N   0  0  0  0  0  0  0  0  0  0  0  0
    6.2770    4.5268    0.3453 C   0  0  0  0  0  0  0  0  0  0  0  0
    5.5177    4.6877    1.3396 O   0  0  0  0  0  0  0  0  0  0  0  0
    7.6464    5.1126    0.4771 C   0  0  2  0  0  0  0  0  0  0  0  0
    7.5128    6.6016    0.1627 C   0  0  0  0  0  0  0  0  0  0  0  0
    8.8384    7.2498    0.2775 C   0  0  0  0  0  0  0  0  0  0  0  0
    9.7322    7.3022   -0.7709 C   0  0  0  0  0  0  0  0  0  0  0  0
   10.9390    7.9308   -0.5345 C   0  0  0  0  0  0  0  0  0  0  0  0
   11.2635    8.4906    0.6826 C   0  0  0  0  0  0  0  0  0  0  0  0
   10.3730    8.4417    1.7372 C   0  0  0  0  0  0  0  0  0  0  0  0
    9.1673    7.8138    1.4992 C   0  0  0  0  0  0  0  0  0  0  0  0
   12.4726    9.1152    0.9028 O   0  0  0  0  0  0  0  0  0  0  0  0
    8.4197    4.4860   -0.6087 N   0  0  0  0  0  0  0  0  0  0  0  0
    6.2386   -2.5730   -1.3673 C   0  0  0  0  0  0  0  0  0  0  0  0
    6.8352   -1.4679   -1.5723 O   0  0  0  0  0  0  0  0  0  0  0  0
    6.8666   -3.7106   -0.8376 N   0  0  0  0  0  0  0  0  0  0  0  0
    8.2079   -3.8837   -0.3706 C   0  0  2  0  0  0  0  0  0  0  0  0
    8.7982   -2.7063    0.2939 C   0  0  0  0  0  0  0  0  0  0  0  0
   10.0285   -2.7932    0.6744 O   0  0  0  0  0  0  0  0  0  0  0  0
    8.1824   -1.4840    0.5765 N   0  0  0  0  0  0  0  0  0  0  0  0
    9.0847   -4.5827   -1.3524 C   0  0  0  0  0  0  0  0  0  0  0  0
   10.4765   -4.7970   -0.9043 C   0  0  0  0  0  0  0  0  0  0  0  0
   11.5179   -3.9469   -1.1908 C   0  0  0  0  0  0  0  0  0  0  0  0
   12.7622   -4.2812   -0.6748 C   0  0  0  0  0  0  0  0  0  0  0  0
   12.9563   -5.4109    0.0890 C   0  0  0  0  0  0  0  0  0  0  0  0
   11.9142   -6.2749    0.3837 C   0  0  0  0  0  0  0  0  0  0  0  0
   10.6864   -5.9420   -0.1259 C   0  0  0  0  0  0  0  0  0  0  0  0
   14.2220   -5.6945    0.5803 O   0  0  0  0  0  0  0  0  0  0  0  0
  -13.3564    0.0051   -2.7961 H   0  0  0  0  0  0  0  0  0  0  0  0
  -12.1595   -0.8683   -1.7964 H   0  0  0  0  0  0  0  0  0  0  0  0
  -10.8562   -1.5113   -4.2345 H   0  0  0  0  0  0  0  0  0  0  0  0
  -11.5943    2.3464   -3.4075 H   0  0  0  0  0  0  0  0  0  0  0  0
   -9.4207    3.1713   -3.5972 H   0  0  0  0  0  0  0  0  0  0  0  0
   -8.8699    1.5895   -4.2252 H   0  0  0  0  0  0  0  0  0  0  0  0
   -7.7266    2.1813   -2.2649 H   0  0  0  0  0  0  0  0  0  0  0  0
   -9.2026    2.4462   -1.2868 H   0  0  0  0  0  0  0  0  0  0  0  0
   -8.1598   -0.2072   -2.4426 H   0  0  0  0  0  0  0  0  0  0  0  0
   -9.6978   -0.0394   -1.6123 H   0  0  0  0  0  0  0  0  0  0  0  0
   -8.6610    1.1229    0.2508 H   0  0  0  0  0  0  0  0  0  0  0  0
   -5.9183    0.0152   -0.0857 H   0  0  0  0  0  0  0  0  0  0  0  0
   -4.5768    1.3753    1.3512 H   0  0  0  0  0  0  0  0  0  0  0  0
   -5.9999    3.9151    2.1114 H   0  0  0  0  0  0  0  0  0  0  0  0
   -5.0088    2.9122    3.1668 H   0  0  0  0  0  0  0  0  0  0  0  0
   -9.0561    0.9240    3.8722 H   0  0  0  0  0  0  0  0  0  0  0  0
   -7.5520    0.5506    4.6622 H   0  0  0  0  0  0  0  0  0  0  0  0
   -8.2381   -1.7318   -0.3161 H   0  0  0  0  0  0  0  0  0  0  0  0
   -9.5750   -0.9984    0.5310 H   0  0  0  0  0  0  0  0  0  0  0  0
   -7.3744   -2.8541    2.9838 H   0  0  0  0  0  0  0  0  0  0  0  0
   -8.7958   -4.1810    1.8245 H   0  0  0  0  0  0  0  0  0  0  0  0
   -7.1684   -4.6677    1.7027 H   0  0  0  0  0  0  0  0  0  0  0  0
   -5.9654   -5.0639   -0.5625 H   0  0  0  0  0  0  0  0  0  0  0  0
   -6.8001   -5.4853   -2.9092 H   0  0  0  0  0  0  0  0  0  0  0  0
  -10.5731   -3.2073    0.1286 H   0  0  0  0  0  0  0  0  0  0  0  0
  -12.2100   -3.2400   -1.7789 H   0  0  0  0  0  0  0  0  0  0  0  0
  -11.5450   -4.1206   -3.9096 H   0  0  0  0  0  0  0  0  0  0  0  0
   -9.2719   -5.0389   -4.3045 H   0  0  0  0  0  0  0  0  0  0  0  0
   -5.2789   -4.7481    1.7290 H   0  0  0  0  0  0  0  0  0  0  0  0
   -3.2749   -2.4832    1.9302 H   0  0  0  0  0  0  0  0  0  0  0  0
   -3.6301   -3.5461    4.0484 H   0  0  0  0  0  0  0  0  0  0  0  0
   -2.0238   -3.9289    3.3510 H   0  0  0  0  0  0  0  0  0  0  0  0
   -2.9169   -7.3386    4.5775 H   0  0  0  0  0  0  0  0  0  0  0  0
   -3.1957   -5.8232    5.5359 H   0  0  0  0  0  0  0  0  0  0  0  0
   -1.0462   -3.0286    1.2326 H   0  0  0  0  0  0  0  0  0  0  0  0
   -0.7730   -5.4560   -0.5281 H   0  0  0  0  0  0  0  0  0  0  0  0
   -0.9240   -2.6066   -1.3088 H   0  0  0  0  0  0  0  0  0  0  0  0
   -0.7421   -4.0612   -2.3989 H   0  0  0  0  0  0  0  0  0  0  0  0
    0.7172   -3.3566   -1.6169 H   0  0  0  0  0  0  0  0  0  0  0  0
    2.1031   -5.5399   -0.7757 H   0  0  0  0  0  0  0  0  0  0  0  0
    2.7512   -4.1850    1.8681 H   0  0  0  0  0  0  0  0  0  0  0  0
    4.5795   -5.7362    2.2069 H   0  0  0  0  0  0  0  0  0  0  0  0
    2.9838   -6.4490    2.3850 H   0  0  0  0  0  0  0  0  0  0  0  0
    6.2029   -6.5494    0.6370 H   0  0  0  0  0  0  0  0  0  0  0  0
    6.8106   -8.4227   -0.8828 H   0  0  0  0  0  0  0  0  0  0  0  0
    5.1192   -9.9907   -1.7040 H   0  0  0  0  0  0  0  0  0  0  0  0
    2.7707   -9.7356   -1.0111 H   0  0  0  0  0  0  0  0  0  0  0  0
    2.1493   -7.8843    0.5166 H   0  0  0  0  0  0  0  0  0  0  0  0
    3.1439   -3.9732   -1.5622 H   0  0  0  0  0  0  0  0  0  0  0  0
    4.9910   -3.3192   -2.7214 H   0  0  0  0  0  0  0  0  0  0  0  0
    3.2142   -1.1440   -1.7819 H   0  0  0  0  0  0  0  0  0  0  0  0
    3.8060   -1.5858   -3.3550 H   0  0  0  0  0  0  0  0  0  0  0  0
    4.6165    2.2988    0.9681 H   0  0  0  0  0  0  0  0  0  0  0  0
    3.4298    1.6375   -0.1561 H   0  0  0  0  0  0  0  0  0  0  0  0
    4.4095    2.8861   -2.0445 H   0  0  0  0  0  0  0  0  0  0  0  0
    1.8308    2.9853   -1.4601 H   0  0  0  0  0  0  0  0  0  0  0  0
    1.4391    5.5371    0.1594 H   0  0  0  0  0  0  0  0  0  0  0  0
   -0.9146    5.8812    0.7001 H   0  0  0  0  0  0  0  0  0  0  0  0
   -2.8948    4.7736   -1.1726 H   0  0  0  0  0  0  0  0  0  0  0  0
   -5.1616    4.1529    0.2134 H   0  0  0  0  0  0  0  0  0  0  0  0
   -4.5370    6.0601    0.2332 H   0  0  0  0  0  0  0  0  0  0  0  0
   -3.1771    7.0113   -0.3372 H   0  0  0  0  0  0  0  0  0  0  0  0
   -1.6368    8.0898    1.0249 H   0  0  0  0  0  0  0  0  0  0  0  0
   -0.9611    8.9029    3.1347 H   0  0  0  0  0  0  0  0  0  0  0  0
   -2.0190    7.9920    5.2407 H   0  0  0  0  0  0  0  0  0  0  0  0
   -3.7078    6.2590    5.0340 H   0  0  0  0  0  0  0  0  0  0  0  0
   -4.3995    5.4061    2.8340 H   0  0  0  0  0  0  0  0  0  0  0  0
    0.9856    5.4384   -2.8262 H   0  0  0  0  0  0  0  0  0  0  0  0
    2.3685    6.2016   -1.9369 H   0  0  0  0  0  0  0  0  0  0  0  0
    1.7682    8.4801   -0.6309 H   0  0  0  0  0  0  0  0  0  0  0  0
   -2.2000    8.8663   -2.0584 H   0  0  0  0  0  0  0  0  0  0  0  0
   -1.3285    6.4804   -2.6775 H   0  0  0  0  0  0  0  0  0  0  0  0
    6.5434    3.7440   -1.5991 H   0  0  0  0  0  0  0  0  0  0  0  0
    8.1095    4.9893    1.4456 H   0  0  0  0  0  0  0  0  0  0  0  0
    6.8038    7.0666    0.8765 H   0  0  0  0  0  0  0  0  0  0  0  0
    7.1220    6.6926   -0.8887 H   0  0  0  0  0  0  0  0  0  0  0  0
    9.4930    6.8691   -1.7330 H   0  0  0  0  0  0  0  0  0  0  0  0
   11.6670    7.9869   -1.3216 H   0  0  0  0  0  0  0  0  0  0  0  0
   10.5959    8.8746    2.7139 H   0  0  0  0  0  0  0  0  0  0  0  0
    8.4590    7.7726    2.3198 H   0  0  0  0  0  0  0  0  0  0  0  0
   12.4857   10.1216    0.9168 H   0  0  0  0  0  0  0  0  0  0  0  0
    8.2077    3.4567   -0.4940 H   0  0  0  0  0  0  0  0  0  0  0  0
    9.4253    4.5800   -0.2631 H   0  0  0  0  0  0  0  0  0  0  0  0
    6.2700   -4.6000   -0.8363 H   0  0  0  0  0  0  0  0  0  0  0  0
    8.0684   -4.6564    0.4944 H   0  0  0  0  0  0  0  0  0  0  0  0
    8.6303   -0.5673    0.2725 H   0  0  0  0  0  0  0  0  0  0  0  0
    7.2519   -1.4302    1.1031 H   0  0  0  0  0  0  0  0  0  0  0  0
    9.1101   -4.0016   -2.3308 H   0  0  0  0  0  0  0  0  0  0  0  0
    8.6893   -5.5725   -1.6522 H   0  0  0  0  0  0  0  0  0  0  0  0
   11.3309   -3.0680   -1.7904 H   0  0  0  0  0  0  0  0  0  0  0  0
   13.5874   -3.5987   -0.8947 H   0  0  0  0  0  0  0  0  0  0  0  0
   12.0375   -7.1661    0.9904 H   0  0  0  0  0  0  0  0  0  0  0  0
    9.8708   -6.6128    0.1017 H   0  0  0  0  0  0  0  0  0  0  0  0
   15.0154   -5.8800   -0.0441 H   0  0  0  0  0  0  0  0  0  0  0  0
  1  2  1  0
  2  3  2  3
  2  4  1  0
  4  5  1  0
  5  6  1  0
  6  7  1  0
  7  8  1  0
  8  9  1  0
  9 10  1  0
 10 11  2  0
 10 12  1  0
 12 13  1  0
 13 14  1  0
 14 15  1  0
 15 16  1  0
 16 17  2  0
 16 18  1  0
 18 19  1  0
 18 20  1  0
 20 21  1  0
 21 22  1  0
 22 23  2  0
 23 24  1  0
 24 25  1  0
 25 26  2  0
 26 27  1  0
 27 28  2  0
 28 29  1  0
 29 30  2  0
 20 31  1  0
 31 32  2  0
 31 33  1  0
 33 34  1  0
 34 35  1  0
 35 36  1  0
 36 37  2  0
 36 38  1  0
 34 39  1  0
 39 40  2  0
 39 41  1  0
 41 42  1  0
 42 43  1  0
 42 44  1  0
 44 45  2  0
 44 46  1  0
 46 47  1  0
 47 48  1  0
 48 49  1  0
 49 50  2  0
 50 51  1  0
 51 52  2  0
 52 53  1  0
 53 54  2  0
 47 55  1  0
 55 56  2  0
 55 57  1  0
 57 58  1  0
 58 59  1  0
 59 60  1  0
 60 61  1  0
 61 62  1  0
 62 63  1  0
 63 64  1  0
 64 65  2  0
 64 66  1  0
 66 67  1  0
 67 68  1  0
 68 69  2  0
 68 70  1  0
 70 71  1  0
 71 72  1  0
 72 73  2  0
 72 74  1  0
 71 75  1  0
 75 76  1  0
 76 77  2  0
 77 78  1  0
 78 79  2  0
 79 80  1  0
 80 81  2  0
 67 82  1  0
 82 83  1  0
 83 84  2  0
 84 85  1  0
 85 86  2  0
 86 87  1  0
 63 88  1  0
 88 89  1  0
 89 90  2  0
 89 91  1  0
 91 92  1  0
 92 93  1  0
 93 94  2  0
 94 95  1  0
 95 96  2  0
 96 97  1  0
 97 98  2  0
 96 99  1  0
 91100  1  0
 58101  1  0
101102  2  0
101103  1  0
103104  1  0
104105  1  0
105106  2  0
105107  1  0
104108  1  0
108109  1  0
109110  2  0
110111  1  0
111112  2  0
112113  1  0
113114  2  0
112115  1  0
 19  8  1  0
 26 22  1  0
 54 49  1  0
 81 76  1  0
 87 83  1  0
 98 93  1  0
114109  1  0
 74 12  1  0
 30 25  1  0
  1116  1  0
  1117  1  0
  3118  1  0
  4119  1  0
  5120  1  0
  5121  1  0
  6122  1  0
  6123  1  0
  7124  1  0
  7125  1  0
  8126  1  1
  9127  1  0
 12128  1  1
 13129  1  0
 13130  1  0
 15131  1  0
 15132  1  0
 19133  1  0
 19134  1  0
 20135  1  1
 21136  1  0
 21137  1  0
 23138  1  0
 24139  1  0
 27140  1  0
 28141  1  0
 29142  1  0
 30143  1  0
 33144  1  0
 34145  1  1
 35146  1  0
 35147  1  0
 38148  1  0
 38149  1  0
 41150  1  0
 42151  1  6
 43152  1  0
 43153  1  0
 43154  1  0
 46155  1  0
 47156  1  1
 48157  1  0
 48158  1  0
 50159  1  0
 51160  1  0
 52161  1  0
 53162  1  0
 54163  1  0
 57164  1  0
 58165  1  6
 59166  1  0
 59167  1  0
 62168  1  0
 62169  1  0
 63170  1  6
 66171  1  0
 67172  1  1
 70173  1  0
 71174  1  6
 74175  1  0
 75176  1  0
 75177  1  0
 77178  1  0
 78179  1  0
 79180  1  0
 80181  1  0
 81182  1  0
 82183  1  0
 82184  1  0
 84185  1  0
 86186  1  0
 87187  1  0
 88188  1  0
 91189  1  1
 92190  1  0
 92191  1  0
 94192  1  0
 95193  1  0
 97194  1  0
 98195  1  0
 99196  1  0
100197  1  0
100198  1  0
103199  1  0
104200  1  1
107201  1  0
107202  1  0
108203  1  0
108204  1  0
110205  1  0
111206  1  0
113207  1  0
114208  1  0
115209  1  0
M  END
>  <Ligand ID>  (1) 
LIG0001148

>  <Ligand>  (1) 
CID 53318437

>  <SMILES>  (1) 
NC(=N)NCCC[C@@H]1NC(=O)[C@@H]2CSCC(=O)N(C1)[C@@H](Cc1c[nH]c3c1cccc3)C(=O)N[C@@H](CC(=O)N)C(=O)N[C@@H](C)C(=O)N[C@@H](Cc1ccccc1)C(=O)N[C@@H](CSSC[C@@H](C(=O)N[C@H](C(=O)N[C@@H](C(=O)N2)Cc1ccccc1)Cc1cnc[nH]1)NC(=O)[C@H](Cc1ccc(cc1)O)N)C(=O)N[C@H](C(=O)N)Cc1ccc(cc1)O

>  <CID>  (1) 
53318437.0

>  <ChEMBL ID>  (1) 
nan

>  <InChiKey>  (1) 
SAUMKWJPJZDAEN-CNEXOMJLSA-N

>  <InChi>  (1) 
InChI=1S/C77H94N20O15S3/c1-42-67(103)90-56(29-43-11-4-2-5-12-43)70(106)96-62(74(110)89-55(66(80)102)28-46-20-24-51(99)25-21-46)39-115-114-38-61(94-68(104)53(78)27-45-18-22-50(98)23-19-45)75(111)92-58(32-49-35-83-41-86-49)72(108)91-57(30-44-13-6-3-7-14-44)71(107)95-60-37-113-40-65(101)97(36-48(88-73(60)109)15-10-26-84-77(81)82)63(31-47-34-85-54-17-9-8-16-52(47)54)76(112)93-59(33-64(79)100)69(105)87-42/h2-9,11-14,16-25,34-35,41-42,48,53,55-63,85,98-99H,10,15,26-33,36-40,78H2,1H3,(H2,79,100)(H2,80,102)(H,83,86)(H,87,105)(H,88,109)(H,89,110)(H,90,103)(H,91,108)(H,92,111)(H,93,112)(H,94,104)(H,95,107)(H,96,106)(H4,81,82,84)/t42-,48-,53-,55-,56-,57+,58-,59-,60-,61-,62-,63-/m0/s1

>  <IUPAC Name>  (1) 
(2S,5S,8S,11S,14R,19R,22S,25R,28R,34S)-N-[(2S)-1-amino-3-(4-hydroxyphenyl)-1-oxopropan-2-yl]-19-[[(2S)-2-amino-3-(4-hydroxyphenyl)propanoyl]amino]-5-(2-amino-2-oxoethyl)-11,25-dibenzyl-34-(3-carbamimidamidopropyl)-22-(1H-imidazol-5-ylmethyl)-2-(1H-indol-3-ylmethyl)-8-methyl-3,6,9,12,20,23,26,32,36-nonaoxo-16,17,30-trithia-1,4,7,10,13,21,24,27,35-nonazabicyclo[26.4.4]hexatriacontane-14-carboxamide

$$$$
