
     RDKit          3D

  7  6  0  0  0  0  0  0  0  0999 V2000
    1.4914   -1.1979    0.1322 O   0  0  0  0  0  0  0  0  0  0  0  0
    0.8332    0.0126   -0.1095 C   0  0  0  0  0  0  0  0  0  0  0  0
    1.4508    1.0524   -0.4741 O   0  0  0  0  0  0  0  0  0  0  0  0
   -0.6489   -0.0060    0.0920 C   0  0  0  0  0  0  0  0  0  0  0  0
   -1.0440    0.9931   -0.2387 H   0  0  0  0  0  0  0  0  0  0  0  0
   -0.9189   -0.1097    1.1510 H   0  0  0  0  0  0  0  0  0  0  0  0
   -1.1637   -0.7445   -0.5529 H   0  0  0  0  0  0  0  0  0  0  0  0
  1  2  1  0
  2  3  2  0
  2  4  1  0
  4  5  1  0
  4  6  1  0
  4  7  1  0
M  CHG  1   1  -1
M  END
>  <Ligand ID>  (1) 
LIG0004974

>  <Ligand>  (1) 
acetate

>  <SMILES>  (1) 
[O-]C(=O)C

>  <CID>  (1) 
175.0

>  <ChEMBL ID>  (1) 
nan

>  <InChiKey>  (1) 
QTBSBXVTEAMEQO-UHFFFAOYSA-M

>  <InChi>  (1) 
InChI=1S/C2H4O2/c1-2(3)4/h1H3,(H,3,4)/p-1

>  <IUPAC Name>  (1) 
acetate

$$$$
