
     RDKit          3D

 27 28  0  0  0  0  0  0  0  0999 V2000
    1.2040   -0.7871   -1.8836 C   0  0  0  0  0  0  0  0  0  0  0  0
    0.3067   -1.2535   -0.7739 C   0  0  2  0  0  0  0  0  0  0  0  0
   -1.1090   -1.4202   -1.1318 C   0  0  0  0  0  0  0  0  0  0  0  0
   -1.9624   -0.3028   -1.1642 N   0  0  0  0  0  0  0  0  0  0  0  0
   -1.4209    0.9754   -1.4217 C   0  0  0  0  0  0  0  0  0  0  0  0
   -0.8335    1.7050   -0.2695 C   0  0  0  0  0  0  0  0  0  0  0  0
   -0.0522    0.8596    0.6505 C   0  0  0  0  0  0  0  0  0  0  0  0
    0.4398   -0.4074    0.4439 C   0  0  0  0  0  0  0  0  0  0  0  0
    1.1458   -0.9916    1.4684 C   0  0  0  0  0  0  0  0  0  0  0  0
    1.6361   -2.2378    1.2799 F   0  0  0  0  0  0  0  0  0  0  0  0
    1.3739   -0.3529    2.6855 C   0  0  0  0  0  0  0  0  0  0  0  0
    0.8530    0.9081    2.8180 C   0  0  0  0  0  0  0  0  0  0  0  0
    0.1396    1.5552    1.8435 C   0  0  0  0  0  0  0  0  0  0  0  0
    2.2623   -1.0795    3.9851 Cl  0  0  0  0  0  0  0  0  0  0  0  0
    0.8154   -0.8964   -2.8930 H   0  0  0  0  0  0  0  0  0  0  0  0
    1.4745    0.2775   -1.6174 H   0  0  0  0  0  0  0  0  0  0  0  0
    2.1867   -1.3099   -1.8766 H   0  0  0  0  0  0  0  0  0  0  0  0
    0.7014   -2.2624   -0.4791 H   0  0  0  0  0  0  0  0  0  0  0  0
   -1.1202   -1.8555   -2.1749 H   0  0  0  0  0  0  0  0  0  0  0  0
   -1.5494   -2.2271   -0.5102 H   0  0  0  0  0  0  0  0  0  0  0  0
   -2.4922   -0.2879   -0.2653 H   0  0  0  0  0  0  0  0  0  0  0  0
   -2.2919    1.6131   -1.7674 H   0  0  0  0  0  0  0  0  0  0  0  0
   -0.7106    1.0181   -2.2720 H   0  0  0  0  0  0  0  0  0  0  0  0
   -1.5989    2.3114    0.2988 H   0  0  0  0  0  0  0  0  0  0  0  0
   -0.1428    2.4757   -0.6710 H   0  0  0  0  0  0  0  0  0  0  0  0
    1.0156    1.4209    3.7469 H   0  0  0  0  0  0  0  0  0  0  0  0
   -0.2710    2.5520    1.9511 H   0  0  0  0  0  0  0  0  0  0  0  0
  1  2  1  0
  2  3  1  0
  3  4  1  0
  4  5  1  0
  5  6  1  0
  6  7  1  0
  7  8  2  0
  8  9  1  0
  9 10  1  0
  9 11  2  0
 11 12  1  0
 12 13  2  0
 11 14  1  0
  8  2  1  0
 13  7  1  0
  1 15  1  0
  1 16  1  0
  1 17  1  0
  2 18  1  1
  3 19  1  0
  3 20  1  0
  4 21  1  0
  5 22  1  0
  5 23  1  0
  6 24  1  0
  6 25  1  0
 12 26  1  0
 13 27  1  0
M  END
>  <Ligand ID>  (1) 
LIG0002180

>  <Ligand>  (1) 
824430-74-2

>  <SMILES>  (1) 
C[C@@H]1CNCCc2c1c(F)c(cc2)Cl

>  <CID>  (1) 
24773897.0

>  <ChEMBL ID>  (1) 
nan

>  <InChiKey>  (1) 
LSYBMYCVSJZAMI-SSDOTTSWSA-N

>  <InChi>  (1) 
InChI=1S/C11H13ClFN/c1-7-6-14-5-4-8-2-3-9(12)11(13)10(7)8/h2-3,7,14H,4-6H2,1H3/t7-/m1/s1

>  <IUPAC Name>  (1) 
(5S)-7-chloro-6-fluoro-5-methyl-2,3,4,5-tetrahydro-1H-3-benzazepine

$$$$
