
     RDKit          3D

 29 28  0  0  0  0  0  0  0  0999 V2000
    4.1266   -0.2008    0.1077 C   0  0  0  0  0  0  0  0  0  0  0  0
    3.1827   -1.3212    0.4487 C   0  0  0  0  0  0  0  0  0  0  0  0
    1.8411   -1.1283   -0.1758 C   0  0  0  0  0  0  0  0  0  0  0  0
    1.2237    0.1625    0.3113 C   0  0  0  0  0  0  0  0  0  0  0  0
   -0.1495    0.3763   -0.3143 C   0  0  0  0  0  0  0  0  0  0  0  0
   -0.7175    1.6722    0.2055 C   0  0  0  0  0  0  0  0  0  0  0  0
   -2.1004    1.9159   -0.4071 C   0  0  0  0  0  0  0  0  0  0  0  0
   -2.9828    0.7807   -0.0221 C   0  0  0  0  0  0  0  0  0  0  0  0
   -3.4674    0.7747    1.1612 O   0  0  0  0  0  0  0  0  0  0  0  0
   -3.2962   -0.2592   -0.8851 O   0  0  0  0  0  0  0  0  0  0  0  0
   -4.1452   -1.2890   -0.4140 C   0  0  0  0  0  0  0  0  0  0  0  0
    3.8050    0.7587    0.5636 H   0  0  0  0  0  0  0  0  0  0  0  0
    5.1525   -0.4576    0.4591 H   0  0  0  0  0  0  0  0  0  0  0  0
    4.1558   -0.1431   -1.0151 H   0  0  0  0  0  0  0  0  0  0  0  0
    3.1185   -1.3680    1.5513 H   0  0  0  0  0  0  0  0  0  0  0  0
    3.6378   -2.2672    0.0394 H   0  0  0  0  0  0  0  0  0  0  0  0
    1.1856   -1.9769    0.1093 H   0  0  0  0  0  0  0  0  0  0  0  0
    1.9517   -1.1005   -1.2790 H   0  0  0  0  0  0  0  0  0  0  0  0
    1.1054    0.0907    1.4042 H   0  0  0  0  0  0  0  0  0  0  0  0
    1.8660    1.0178   -0.0055 H   0  0  0  0  0  0  0  0  0  0  0  0
   -0.1453    0.3078   -1.3997 H   0  0  0  0  0  0  0  0  0  0  0  0
   -0.7719   -0.4607    0.0664 H   0  0  0  0  0  0  0  0  0  0  0  0
   -0.8280    1.6272    1.3037 H   0  0  0  0  0  0  0  0  0  0  0  0
   -0.0968    2.5469   -0.0396 H   0  0  0  0  0  0  0  0  0  0  0  0
   -2.0418    1.9340   -1.5129 H   0  0  0  0  0  0  0  0  0  0  0  0
   -2.5471    2.8396   -0.0440 H   0  0  0  0  0  0  0  0  0  0  0  0
   -5.0789   -1.3891   -0.9943 H   0  0  0  0  0  0  0  0  0  0  0  0
   -3.5845   -2.2541   -0.5164 H   0  0  0  0  0  0  0  0  0  0  0  0
   -4.3991   -1.1895    0.6504 H   0  0  0  0  0  0  0  0  0  0  0  0
  1  2  1  0
  2  3  1  0
  3  4  1  0
  4  5  1  0
  5  6  1  0
  6  7  1  0
  7  8  1  0
  8  9  2  0
  8 10  1  0
 10 11  1  0
  1 12  1  0
  1 13  1  0
  1 14  1  0
  2 15  1  0
  2 16  1  0
  3 17  1  0
  3 18  1  0
  4 19  1  0
  4 20  1  0
  5 21  1  0
  5 22  1  0
  6 23  1  0
  6 24  1  0
  7 25  1  0
  7 26  1  0
 11 27  1  0
 11 28  1  0
 11 29  1  0
M  END
>  <Ligand ID>  (1) 
LIG0000466

>  <Ligand>  (1) 
methyl octanoate

>  <SMILES>  (1) 
CCCCCCCC(=O)OC

>  <CID>  (1) 
8091.0

>  <ChEMBL ID>  (1) 
nan

>  <InChiKey>  (1) 
JGHZJRVDZXSNKQ-UHFFFAOYSA-N

>  <InChi>  (1) 
InChI=1S/C9H18O2/c1-3-4-5-6-7-8-9(10)11-2/h3-8H2,1-2H3

>  <IUPAC Name>  (1) 
methyl octanoate

$$$$
