
     RDKit          3D

 49 53  0  0  0  0  0  0  0  0999 V2000
    8.0969   -1.1252    1.6004 O   0  0  0  0  0  0  0  0  0  0  0  0
    8.0048   -1.5414    0.2734 C   0  0  0  0  0  0  0  0  0  0  0  0
    8.8905   -2.2497   -0.2314 O   0  0  0  0  0  0  0  0  0  0  0  0
    6.8522   -1.1357   -0.5231 C   0  0  0  0  0  0  0  0  0  0  0  0
    5.8585   -0.3468    0.0191 C   0  0  0  0  0  0  0  0  0  0  0  0
    4.7618    0.0328   -0.7559 C   0  0  0  0  0  0  0  0  0  0  0  0
    4.6472   -0.3684   -2.0702 C   0  0  0  0  0  0  0  0  0  0  0  0
    5.6476   -1.1638   -2.6196 C   0  0  0  0  0  0  0  0  0  0  0  0
    6.7461   -1.5426   -1.8392 C   0  0  0  0  0  0  0  0  0  0  0  0
    8.0320   -2.5425   -2.4856 Cl  0  0  0  0  0  0  0  0  0  0  0  0
    3.7711    0.8660   -0.0846 C   0  0  0  0  0  0  0  0  0  0  0  0
    4.1899    1.7451    0.8962 C   0  0  0  0  0  0  0  0  0  0  0  0
    3.2917    2.5661    1.5739 C   0  0  0  0  0  0  0  0  0  0  0  0
    1.9584    2.4808    1.2403 C   0  0  0  0  0  0  0  0  0  0  0  0
    1.5559    1.5956    0.2562 C   0  0  0  0  0  0  0  0  0  0  0  0
    2.4435    0.7769   -0.4213 C   0  0  0  0  0  0  0  0  0  0  0  0
    0.0825    1.5579   -0.0524 C   0  0  0  0  0  0  0  0  0  0  0  0
   -0.4692    0.5880    0.7998 O   0  0  0  0  0  0  0  0  0  0  0  0
   -1.7969    0.2339    0.8467 C   0  0  0  0  0  0  0  0  0  0  0  0
   -2.2697   -0.7289    1.7102 C   0  0  0  0  0  0  0  0  0  0  0  0
   -3.5819   -1.1170    1.7953 C   0  0  0  0  0  0  0  0  0  0  0  0
   -4.5612   -0.5227    0.9643 C   0  0  0  0  0  0  0  0  0  0  0  0
   -4.0890    0.4239    0.1171 C   0  0  0  0  0  0  0  0  0  0  0  0
   -2.7653    0.8227    0.0240 C   0  0  0  0  0  0  0  0  0  0  0  0
   -5.4671    1.0038   -0.7926 S   0  0  0  0  0  0  0  0  0  0  0  0
   -6.6331   -0.1148    0.0660 N   0  0  0  0  0  0  0  0  0  0  0  0
   -5.8771   -0.8051    0.9417 C   0  0  0  0  0  0  0  0  0  0  0  0
   -6.4652   -1.6801    1.6893 O   0  0  0  0  0  0  0  0  0  0  0  0
   -8.0513   -0.1568   -0.2232 C   0  0  0  0  0  0  0  0  0  0  0  0
   -8.5238   -0.1802   -1.6294 C   0  0  0  0  0  0  0  0  0  0  0  0
   -8.5976   -1.4068   -0.8058 C   0  0  0  0  0  0  0  0  0  0  0  0
    8.5388   -1.7307    2.2801 H   0  0  0  0  0  0  0  0  0  0  0  0
    5.9660   -0.0419    1.0537 H   0  0  0  0  0  0  0  0  0  0  0  0
    3.7847   -0.0601   -2.6526 H   0  0  0  0  0  0  0  0  0  0  0  0
    5.5985   -1.4981   -3.6368 H   0  0  0  0  0  0  0  0  0  0  0  0
    5.2265    1.8521    1.1977 H   0  0  0  0  0  0  0  0  0  0  0  0
    3.6253    3.2623    2.3509 H   0  0  0  0  0  0  0  0  0  0  0  0
    1.2406    3.1247    1.7692 H   0  0  0  0  0  0  0  0  0  0  0  0
    2.0729    0.0992   -1.1862 H   0  0  0  0  0  0  0  0  0  0  0  0
   -0.1157    1.3188   -1.1070 H   0  0  0  0  0  0  0  0  0  0  0  0
   -0.3859    2.5389    0.1407 H   0  0  0  0  0  0  0  0  0  0  0  0
   -1.5416   -1.1982    2.3554 H   0  0  0  0  0  0  0  0  0  0  0  0
   -3.8285   -1.8806    2.5100 H   0  0  0  0  0  0  0  0  0  0  0  0
   -2.4870    1.5779   -0.6750 H   0  0  0  0  0  0  0  0  0  0  0  0
   -8.7485    0.3394    0.4958 H   0  0  0  0  0  0  0  0  0  0  0  0
   -7.7049   -0.0690   -2.3984 H   0  0  0  0  0  0  0  0  0  0  0  0
   -9.4063    0.4065   -1.8973 H   0  0  0  0  0  0  0  0  0  0  0  0
   -7.9211   -2.2258   -1.1351 H   0  0  0  0  0  0  0  0  0  0  0  0
   -9.5962   -1.7805   -0.4865 H   0  0  0  0  0  0  0  0  0  0  0  0
  1  2  1  0
  2  3  2  0
  2  4  1  0
  4  5  2  0
  5  6  1  0
  6  7  2  0
  7  8  1  0
  8  9  2  0
  9 10  1  0
  6 11  1  0
 11 12  2  0
 12 13  1  0
 13 14  2  0
 14 15  1  0
 15 16  2  0
 15 17  1  0
 17 18  1  0
 18 19  1  0
 19 20  2  0
 20 21  1  0
 21 22  2  0
 22 23  1  0
 23 24  2  0
 23 25  1  0
 25 26  1  0
 26 27  1  0
 27 28  2  0
 26 29  1  0
 29 30  1  0
 30 31  1  0
  9  4  1  0
 16 11  1  0
 24 19  1  0
 31 29  1  0
 27 22  1  0
  1 32  1  0
  5 33  1  0
  7 34  1  0
  8 35  1  0
 12 36  1  0
 13 37  1  0
 14 38  1  0
 16 39  1  0
 17 40  1  0
 17 41  1  0
 20 42  1  0
 21 43  1  0
 24 44  1  0
 29 45  1  0
 30 46  1  0
 30 47  1  0
 31 48  1  0
 31 49  1  0
M  END
>  <Ligand ID>  (1) 
LIG0000432

>  <Ligand>  (1) 
CHEMBL2179629

>  <SMILES>  (1) 
OC(=O)c1cc(ccc1Cl)c1cccc(c1)COc1ccc2c(c1)sn(c2=O)C1CC1

>  <CID>  (1) 
53390677.0

>  <ChEMBL ID>  (1) 
nan

>  <InChiKey>  (1) 
RBQZSTHTHNKFHW-UHFFFAOYSA-N

>  <InChi>  (1) 
InChI=1S/C24H18ClNO4S/c25-21-9-4-16(11-20(21)24(28)29)15-3-1-2-14(10-15)13-30-18-7-8-19-22(12-18)31-26(23(19)27)17-5-6-17/h1-4,7-12,17H,5-6,13H2,(H,28,29)

>  <IUPAC Name>  (1) 
2-chloro-5-[3-[(2-cyclopropyl-3-oxo-1,2-benzothiazol-6-yl)oxymethyl]phenyl]benzoic acid

$$$$
