
     RDKit          3D

 95102  0  0  0  0  0  0  0  0999 V2000
    0.4431   -3.3341    0.3730 C   0  0  0  0  0  0  0  0  0  0  0  0
   -0.8380   -2.9402    0.5457 O   0  0  0  0  0  0  0  0  0  0  0  0
   -1.1491   -1.6242    0.6080 C   0  0  0  0  0  0  0  0  0  0  0  0
   -0.3987   -1.0021    1.7918 C   0  0  0  0  0  0  0  0  0  0  0  0
   -0.9930    0.3797    1.9693 C   0  0  0  0  0  0  0  0  0  0  0  0
   -1.6908    0.8585    0.7299 C   0  0  0  0  0  0  0  0  0  0  0  0
   -2.9471    0.1047    0.4602 C   0  0  0  0  0  0  0  0  0  0  0  0
   -2.6021   -1.3469    0.8470 C   0  0  0  0  0  0  0  0  0  0  0  0
   -3.6434   -2.3261    0.5049 C   0  0  0  0  0  0  0  0  0  0  0  0
   -3.9182   -2.8646   -0.8032 C   0  0  0  0  0  0  0  0  0  0  0  0
   -4.2996   -1.9249   -1.9054 C   0  0  0  0  0  0  0  0  0  0  0  0
   -5.2159   -3.6997   -0.6646 C   0  0  0  0  0  0  0  0  0  0  0  0
   -2.9283   -3.8337   -1.4024 C   0  0  0  0  0  0  0  0  0  0  0  0
   -4.8281   -1.6033    0.8883 O   0  0  0  0  0  0  0  0  0  0  0  0
   -3.6626   -3.4783    1.5014 C   0  0  0  0  0  0  0  0  0  0  0  0
   -0.8088    0.5982   -0.4679 C   0  0  2  0  0  0  0  0  0  0  0  0
   -0.5664   -0.8875   -0.5588 C   0  0  0  0  0  0  0  0  0  0  0  0
    0.8488   -0.9320   -0.6141 O   0  0  0  0  0  0  0  0  0  0  0  0
    1.4533    0.2293   -0.1748 C   0  0  0  0  0  0  0  0  0  0  0  0
    0.4866    1.1501   -0.0252 C   0  0  0  0  0  0  0  0  0  0  0  0
    0.5668    2.4315    0.3972 C   0  0  0  0  0  0  0  0  0  0  0  0
   -0.6863    3.1979    0.5450 C   0  0  0  0  0  0  0  0  0  0  0  0
   -1.9300    2.3466    0.7384 C   0  0  1  0  0  0  0  0  0  0  0  0
   -2.7446    2.5576   -0.4214 N   0  0  0  0  0  0  0  0  0  0  0  0
   -2.1386    2.3643   -1.6741 C   0  0  0  0  0  0  0  0  0  0  0  0
   -1.2156    1.1996   -1.7441 C   0  0  0  0  0  0  0  0  0  0  0  0
   -3.9576    3.2248   -0.3002 C   0  0  0  0  0  0  0  0  0  0  0  0
   -3.9672    4.6696    0.0324 C   0  0  0  0  0  0  0  0  0  0  0  0
   -3.3063    5.6853   -0.8565 C   0  0  0  0  0  0  0  0  0  0  0  0
   -4.7939    5.5482   -0.8988 C   0  0  0  0  0  0  0  0  0  0  0  0
    1.8352    2.8803    0.7214 C   0  0  0  0  0  0  0  0  0  0  0  0
    2.9153    1.9923    0.5923 C   0  0  0  0  0  0  0  0  0  0  0  0
    2.7441    0.6748    0.1500 C   0  0  0  0  0  0  0  0  0  0  0  0
    3.7722   -0.2207    0.0114 O   0  0  0  0  0  0  0  0  0  0  0  0
    5.1027    0.0514    0.2871 C   0  0  0  0  0  0  0  0  0  0  0  0
    5.5668   -0.9062    1.1908 O   0  0  0  0  0  0  0  0  0  0  0  0
    6.9101   -0.8407    1.4546 C   0  0  0  0  0  0  0  0  0  0  0  0
    7.5814   -2.1638    1.3687 C   0  0  0  0  0  0  0  0  0  0  0  0
    8.8236   -2.2589    1.5821 O   0  0  0  0  0  0  0  0  0  0  0  0
    6.9165   -3.3403    1.0601 O   0  0  0  0  0  0  0  0  0  0  0  0
    7.6603    0.2083    0.6655 C   0  0  2  0  0  0  0  0  0  0  0  0
    7.2826    0.2228   -0.7912 C   0  0  0  0  0  0  0  0  0  0  0  0
    5.8725   -0.2373   -1.0153 C   0  0  1  0  0  0  0  0  0  0  0  0
    5.7731   -1.6061   -1.2323 O   0  0  0  0  0  0  0  0  0  0  0  0
    8.1565   -0.4765   -1.6060 O   0  0  0  0  0  0  0  0  0  0  0  0
    9.0202   -0.0941    0.7501 O   0  0  0  0  0  0  0  0  0  0  0  0
    1.1556   -2.9903    1.1611 H   0  0  0  0  0  0  0  0  0  0  0  0
    0.8995   -3.2296   -0.6091 H   0  0  0  0  0  0  0  0  0  0  0  0
    0.4352   -4.4622    0.5433 H   0  0  0  0  0  0  0  0  0  0  0  0
    0.6801   -1.0417    1.7051 H   0  0  0  0  0  0  0  0  0  0  0  0
   -0.7230   -1.5571    2.7347 H   0  0  0  0  0  0  0  0  0  0  0  0
   -0.2254    1.0764    2.2920 H   0  0  0  0  0  0  0  0  0  0  0  0
   -1.7794    0.4110    2.7794 H   0  0  0  0  0  0  0  0  0  0  0  0
   -3.3101    0.1899   -0.5754 H   0  0  0  0  0  0  0  0  0  0  0  0
   -3.8086    0.4872    1.0785 H   0  0  0  0  0  0  0  0  0  0  0  0
   -2.7205   -1.2737    1.9560 H   0  0  0  0  0  0  0  0  0  0  0  0
   -3.3905   -1.4450   -2.3241 H   0  0  0  0  0  0  0  0  0  0  0  0
   -4.9978   -1.1385   -1.6245 H   0  0  0  0  0  0  0  0  0  0  0  0
   -4.7583   -2.4421   -2.7757 H   0  0  0  0  0  0  0  0  0  0  0  0
   -5.9637   -2.9909   -0.2491 H   0  0  0  0  0  0  0  0  0  0  0  0
   -5.5777   -3.9796   -1.6811 H   0  0  0  0  0  0  0  0  0  0  0  0
   -5.1012   -4.5506   -0.0019 H   0  0  0  0  0  0  0  0  0  0  0  0
   -2.5724   -4.6205   -0.7448 H   0  0  0  0  0  0  0  0  0  0  0  0
   -3.3775   -4.3843   -2.2817 H   0  0  0  0  0  0  0  0  0  0  0  0
   -2.0471   -3.3204   -1.8873 H   0  0  0  0  0  0  0  0  0  0  0  0
   -4.7271   -1.3903    1.8423 H   0  0  0  0  0  0  0  0  0  0  0  0
   -4.7128   -3.7285    1.8220 H   0  0  0  0  0  0  0  0  0  0  0  0
   -3.1910   -3.1500    2.4770 H   0  0  0  0  0  0  0  0  0  0  0  0
   -3.2470   -4.4100    1.1347 H   0  0  0  0  0  0  0  0  0  0  0  0
   -0.8626   -1.2847   -1.5457 H   0  0  0  0  0  0  0  0  0  0  0  0
   -0.6477    3.8540    1.4700 H   0  0  0  0  0  0  0  0  0  0  0  0
   -0.7946    3.9046   -0.2851 H   0  0  0  0  0  0  0  0  0  0  0  0
   -2.5037    2.5912    1.6389 H   0  0  0  0  0  0  0  0  0  0  0  0
   -1.5847    3.2835   -2.0362 H   0  0  0  0  0  0  0  0  0  0  0  0
   -2.9568    2.2396   -2.4321 H   0  0  0  0  0  0  0  0  0  0  0  0
   -0.2624    1.5548   -2.2527 H   0  0  0  0  0  0  0  0  0  0  0  0
   -1.5812    0.4312   -2.4968 H   0  0  0  0  0  0  0  0  0  0  0  0
   -4.5429    3.0704   -1.2535 H   0  0  0  0  0  0  0  0  0  0  0  0
   -4.5894    2.6669    0.4587 H   0  0  0  0  0  0  0  0  0  0  0  0
   -4.0399    5.0113    1.0876 H   0  0  0  0  0  0  0  0  0  0  0  0
   -2.7319    5.3489   -1.7260 H   0  0  0  0  0  0  0  0  0  0  0  0
   -2.9256    6.6361   -0.4220 H   0  0  0  0  0  0  0  0  0  0  0  0
   -5.1955    5.0862   -1.8247 H   0  0  0  0  0  0  0  0  0  0  0  0
   -5.4471    6.3202   -0.4924 H   0  0  0  0  0  0  0  0  0  0  0  0
    1.9495    3.8888    1.0588 H   0  0  0  0  0  0  0  0  0  0  0  0
    3.8898    2.3811    0.8541 H   0  0  0  0  0  0  0  0  0  0  0  0
    5.3484    1.0352    0.6770 H   0  0  0  0  0  0  0  0  0  0  0  0
    7.0290   -0.5213    2.5336 H   0  0  0  0  0  0  0  0  0  0  0  0
    7.3191   -4.0240    0.4219 H   0  0  0  0  0  0  0  0  0  0  0  0
    7.5161    1.2243    1.1142 H   0  0  0  0  0  0  0  0  0  0  0  0
    7.3250    1.2979   -1.1305 H   0  0  0  0  0  0  0  0  0  0  0  0
    5.3860    0.2784   -1.8694 H   0  0  0  0  0  0  0  0  0  0  0  0
    5.0208   -1.7705   -1.8528 H   0  0  0  0  0  0  0  0  0  0  0  0
    8.8690    0.1140   -2.0098 H   0  0  0  0  0  0  0  0  0  0  0  0
    9.5725    0.6890    0.9330 H   0  0  0  0  0  0  0  0  0  0  0  0
  1  2  1  0
  2  3  1  0
  3  4  1  0
  4  5  1  0
  5  6  1  0
  6  7  1  0
  7  8  1  0
  8  9  1  0
  9 10  1  0
 10 11  1  0
 10 12  1  0
 10 13  1  0
  9 14  1  0
  9 15  1  0
  6 16  1  0
 16 17  1  0
 17 18  1  0
 18 19  1  0
 19 20  2  0
 20 21  1  0
 21 22  1  0
 22 23  1  0
 23 24  1  0
 24 25  1  0
 25 26  1  0
 24 27  1  0
 27 28  1  0
 28 29  1  0
 29 30  1  0
 21 31  2  0
 31 32  1  0
 32 33  2  0
 33 34  1  0
 34 35  1  0
 35 36  1  0
 36 37  1  0
 37 38  1  0
 38 39  2  0
 38 40  1  0
 37 41  1  0
 41 42  1  0
 42 43  1  0
 43 44  1  0
 42 45  1  0
 41 46  1  0
  8  3  1  0
 16 26  1  6
 30 28  1  0
 43 35  1  0
 17  3  1  0
 33 19  1  0
 23  6  1  0
 20 16  1  0
  1 47  1  0
  1 48  1  0
  1 49  1  0
  4 50  1  0
  4 51  1  0
  5 52  1  0
  5 53  1  0
  7 54  1  0
  7 55  1  0
  8 56  1  0
 11 57  1  0
 11 58  1  0
 11 59  1  0
 12 60  1  0
 12 61  1  0
 12 62  1  0
 13 63  1  0
 13 64  1  0
 13 65  1  0
 14 66  1  0
 15 67  1  0
 15 68  1  0
 15 69  1  0
 17 70  1  0
 22 71  1  0
 22 72  1  0
 23 73  1  1
 25 74  1  0
 25 75  1  0
 26 76  1  0
 26 77  1  0
 27 78  1  0
 27 79  1  0
 28 80  1  0
 29 81  1  0
 29 82  1  0
 30 83  1  0
 30 84  1  0
 31 85  1  0
 32 86  1  0
 35 87  1  0
 37 88  1  0
 40 89  1  0
 41 90  1  1
 42 91  1  0
 43 92  1  6
 44 93  1  0
 45 94  1  0
 46 95  1  0
M  END
>  <Ligand ID>  (1) 
LIG0003380

>  <Ligand>  (1) 
MLS002320705

>  <SMILES>  (1) 
COC12CCC3(CC1C(C(C)(C)C)(O)C)[C@@]14C2Oc2c4c(C[C@H]3N(CC1)CC1CC1)ccc2OC1OC(C(=O)O)[C@H](C([C@H]1O)O)O

>  <CID>  (1) 
44246524.0

>  <ChEMBL ID>  (1) 
nan

>  <InChiKey>  (1) 
CZULHKGIAJASAA-WJVLGYIRSA-N

>  <InChi>  (1) 
InChI=1S/C35H49NO10/c1-31(2,3)32(4,42)20-15-33-10-11-35(20,43-5)30-34(33)12-13-36(16-17-6-7-17)21(33)14-18-8-9-19(26(46-30)22(18)34)44-29-25(39)23(37)24(38)27(45-29)28(40)41/h8-9,17,20-21,23-25,27,29-30,37-39,42H,6-7,10-16H2,1-5H3,(H,40,41)/t20?,21-,23?,24+,25-,27?,29?,30?,32?,33?,34+,35?/m1/s1

>  <IUPAC Name>  (1) 
(3S,5R)-6-[[(2S,6R)-5-(cyclopropylmethyl)-16-(2-hydroxy-3,3-dimethylbutan-2-yl)-15-methoxy-13-oxa-5-azahexacyclo[13.2.2.12,8.01,6.02,14.012,20]icosa-8(20),9,11-trien-11-yl]oxy]-3,4,5-trihydroxyoxane-2-carboxylic acid

$$$$
