
     RDKit          3D

139140  0  0  0  0  0  0  0  0999 V2000
    4.7257   -3.3822   -3.9240 C   0  0  0  0  0  0  0  0  0  0  0  0
    5.2878   -4.2581   -2.8559 C   0  0  0  0  0  0  0  0  0  0  0  0
    4.6650   -4.0515   -1.4893 C   0  0  0  0  0  0  0  0  0  0  0  0
    4.8624   -2.6314   -1.0037 C   0  0  0  0  0  0  0  0  0  0  0  0
    4.2946   -2.4079    0.2953 N   0  0  0  0  0  0  0  0  0  0  0  0
    2.9850   -1.9744    0.5794 C   0  0  0  0  0  0  0  0  0  0  0  0
    2.5990   -1.8272    1.7999 O   0  0  0  0  0  0  0  0  0  0  0  0
    1.9247   -1.6555   -0.4252 C   0  0  2  0  0  0  0  0  0  0  0  0
    2.1098   -0.2421   -0.9010 C   0  0  0  0  0  0  0  0  0  0  0  0
    0.9852    0.2511   -1.7523 C   0  0  0  0  0  0  0  0  0  0  0  0
    1.1800    2.0060   -2.2465 S   0  0  0  0  0  0  0  0  0  0  0  0
    1.3649    2.9882   -0.6890 C   0  0  0  0  0  0  0  0  0  0  0  0
    0.2132    2.6827    0.2138 C   0  0  0  0  0  0  0  0  0  0  0  0
   -1.0531    3.2049   -0.3522 C   0  0  0  0  0  0  0  0  0  0  0  0
   -1.2012    4.2730   -0.9442 O   0  0  0  0  0  0  0  0  0  0  0  0
   -2.1922    2.3906   -0.2141 N   0  0  0  0  0  0  0  0  0  0  0  0
   -3.5897    2.7007   -0.4494 C   0  0  1  0  0  0  0  0  0  0  0  0
   -3.8230    3.4977   -1.7214 C   0  0  0  0  0  0  0  0  0  0  0  0
   -5.2201    3.8382   -1.9864 C   0  0  0  0  0  0  0  0  0  0  0  0
   -5.7642    4.8916   -1.2345 C   0  0  0  0  0  0  0  0  0  0  0  0
   -7.0612    5.3189   -1.4327 C   0  0  0  0  0  0  0  0  0  0  0  0
   -7.8830    4.7357   -2.3736 C   0  0  0  0  0  0  0  0  0  0  0  0
   -7.3599    3.7071   -3.1127 C   0  0  0  0  0  0  0  0  0  0  0  0
   -6.0478    3.2731   -2.9150 C   0  0  0  0  0  0  0  0  0  0  0  0
   -4.3719    1.4757   -0.3152 C   0  0  0  0  0  0  0  0  0  0  0  0
   -3.7575    0.3935   -0.5720 O   0  0  0  0  0  0  0  0  0  0  0  0
   -5.7149    1.3019    0.0612 N   0  0  0  0  0  0  0  0  0  0  0  0
   -6.2801   -0.0670    0.3018 C   0  0  2  0  0  0  0  0  0  0  0  0
   -5.5894   -0.8138    1.3283 C   0  0  0  0  0  0  0  0  0  0  0  0
   -6.0679   -1.9104    1.7033 O   0  0  0  0  0  0  0  0  0  0  0  0
   -4.3864   -0.4881    2.0286 N   0  0  0  0  0  0  0  0  0  0  0  0
   -3.7375   -1.3262    3.0082 C   0  0  2  0  0  0  0  0  0  0  0  0
   -2.7334   -2.2616    2.5273 C   0  0  0  0  0  0  0  0  0  0  0  0
   -2.2317   -3.0917    3.3030 O   0  0  0  0  0  0  0  0  0  0  0  0
   -2.2117   -2.3480    1.1825 N   0  0  0  0  0  0  0  0  0  0  0  0
   -1.3331   -3.3936    0.7521 C   0  0  2  0  0  0  0  0  0  0  0  0
   -0.0512   -2.9498    0.2526 C   0  0  0  0  0  0  0  0  0  0  0  0
    0.6608   -3.8721   -0.3112 O   0  0  0  0  0  0  0  0  0  0  0  0
    0.6027   -1.7013    0.2565 N   0  0  0  0  0  0  0  0  0  0  0  0
   -2.0392   -4.2929   -0.2809 C   0  0  0  0  0  0  0  0  0  0  0  0
   -2.4495   -3.5241   -1.4773 C   0  0  0  0  0  0  0  0  0  0  0  0
   -2.2666   -2.2933   -1.6286 O   0  0  0  0  0  0  0  0  0  0  0  0
   -3.0940   -4.2195   -2.5318 N   0  0  0  0  0  0  0  0  0  0  0  0
   -4.6856   -2.0176    3.9808 C   0  0  0  0  0  0  0  0  0  0  0  0
   -5.5067   -1.0487    4.7472 C   0  0  0  0  0  0  0  0  0  0  0  0
   -4.7815   -0.1132    5.6126 C   0  0  0  0  0  0  0  0  0  0  0  0
   -3.5631   -0.1361    5.8840 O   0  0  0  0  0  0  0  0  0  0  0  0
   -5.5456    0.9441    6.2196 N   0  0  0  0  0  0  0  0  0  0  0  0
   -6.8958   -0.6126   -0.8765 C   0  0  2  0  0  0  0  0  0  0  0  0
   -7.4893   -1.9787   -0.8480 C   0  0  0  0  0  0  0  0  0  0  0  0
   -6.5895   -3.1393   -0.6500 C   0  0  0  0  0  0  0  0  0  0  0  0
   -6.0197   -0.5188   -2.1462 C   0  0  0  0  0  0  0  0  0  0  0  0
    5.1559   -2.6525    1.4454 C   0  0  0  0  0  0  0  0  0  0  0  0
    5.9948   -1.5023    1.7477 C   0  0  0  0  0  0  0  0  0  0  0  0
    6.7341   -1.5838    2.7897 O   0  0  0  0  0  0  0  0  0  0  0  0
    6.0959   -0.2987    1.0159 N   0  0  0  0  0  0  0  0  0  0  0  0
    7.0362    0.7239    1.5307 C   0  0  2  0  0  0  0  0  0  0  0  0
    6.6426    2.0212    1.0718 C   0  0  0  0  0  0  0  0  0  0  0  0
    7.0799    3.0570    1.6859 O   0  0  0  0  0  0  0  0  0  0  0  0
    5.7914    2.3269   -0.0340 N   0  0  0  0  0  0  0  0  0  0  0  0
    5.5767    3.7648   -0.2651 C   0  0  0  0  0  0  0  0  0  0  0  0
    4.7338    3.9831   -1.4542 C   0  0  0  0  0  0  0  0  0  0  0  0
    4.3047    3.0247   -2.1425 O   0  0  0  0  0  0  0  0  0  0  0  0
    4.4002    5.3025   -1.8280 N   0  0  0  0  0  0  0  0  0  0  0  0
    8.3908    0.2173    1.0460 C   0  0  0  0  0  0  0  0  0  0  0  0
    9.5918    0.9947    1.3679 C   0  0  0  0  0  0  0  0  0  0  0  0
    9.7196    2.3788    0.8429 C   0  0  0  0  0  0  0  0  0  0  0  0
    9.8250    0.9685    2.8955 C   0  0  0  0  0  0  0  0  0  0  0  0
    5.0265   -3.8477   -4.9093 H   0  0  0  0  0  0  0  0  0  0  0  0
    3.6425   -3.2898   -3.9458 H   0  0  0  0  0  0  0  0  0  0  0  0
    5.2496   -2.3903   -3.9451 H   0  0  0  0  0  0  0  0  0  0  0  0
    6.3782   -4.0142   -2.7422 H   0  0  0  0  0  0  0  0  0  0  0  0
    5.2208   -5.3140   -3.1803 H   0  0  0  0  0  0  0  0  0  0  0  0
    5.0286   -4.8041   -0.7697 H   0  0  0  0  0  0  0  0  0  0  0  0
    3.5789   -4.2221   -1.6263 H   0  0  0  0  0  0  0  0  0  0  0  0
    4.4718   -1.9409   -1.7632 H   0  0  0  0  0  0  0  0  0  0  0  0
    5.9604   -2.3857   -0.9375 H   0  0  0  0  0  0  0  0  0  0  0  0
    2.0186   -2.3987   -1.2077 H   0  0  0  0  0  0  0  0  0  0  0  0
    2.1636    0.4659   -0.0143 H   0  0  0  0  0  0  0  0  0  0  0  0
    3.0831   -0.0993   -1.3988 H   0  0  0  0  0  0  0  0  0  0  0  0
   -0.0031    0.1583   -1.2977 H   0  0  0  0  0  0  0  0  0  0  0  0
    0.9915   -0.3112   -2.6975 H   0  0  0  0  0  0  0  0  0  0  0  0
    2.3464    2.8387   -0.2466 H   0  0  0  0  0  0  0  0  0  0  0  0
    1.2808    4.0489   -1.0073 H   0  0  0  0  0  0  0  0  0  0  0  0
    0.4300    3.1954    1.1922 H   0  0  0  0  0  0  0  0  0  0  0  0
    0.1095    1.5826    0.3962 H   0  0  0  0  0  0  0  0  0  0  0  0
   -1.9943    1.4187    0.1053 H   0  0  0  0  0  0  0  0  0  0  0  0
   -3.8426    3.4557    0.3503 H   0  0  0  0  0  0  0  0  0  0  0  0
   -3.2867    4.4889   -1.6501 H   0  0  0  0  0  0  0  0  0  0  0  0
   -3.3049    2.9520   -2.5390 H   0  0  0  0  0  0  0  0  0  0  0  0
   -5.1663    5.3871   -0.4805 H   0  0  0  0  0  0  0  0  0  0  0  0
   -7.4889    6.1385   -0.8502 H   0  0  0  0  0  0  0  0  0  0  0  0
   -8.8904    5.1053   -2.4914 H   0  0  0  0  0  0  0  0  0  0  0  0
   -7.9568    3.2112   -3.8679 H   0  0  0  0  0  0  0  0  0  0  0  0
   -5.6553    2.4780   -3.5248 H   0  0  0  0  0  0  0  0  0  0  0  0
   -6.2690    2.1508    0.1493 H   0  0  0  0  0  0  0  0  0  0  0  0
   -7.2100    0.2927    0.9448 H   0  0  0  0  0  0  0  0  0  0  0  0
   -3.9951    0.4317    1.8467 H   0  0  0  0  0  0  0  0  0  0  0  0
   -3.2117   -0.5858    3.6999 H   0  0  0  0  0  0  0  0  0  0  0  0
   -2.5155   -1.6019    0.5723 H   0  0  0  0  0  0  0  0  0  0  0  0
   -1.1118   -4.1080    1.6050 H   0  0  0  0  0  0  0  0  0  0  0  0
    0.1597   -0.9253    0.7051 H   0  0  0  0  0  0  0  0  0  0  0  0
   -2.8668   -4.8630    0.1788 H   0  0  0  0  0  0  0  0  0  0  0  0
   -1.2876   -5.0482   -0.6229 H   0  0  0  0  0  0  0  0  0  0  0  0
   -3.2379   -5.2659   -2.5346 H   0  0  0  0  0  0  0  0  0  0  0  0
   -3.4732   -3.7373   -3.3894 H   0  0  0  0  0  0  0  0  0  0  0  0
   -3.9694   -2.4908    4.7243 H   0  0  0  0  0  0  0  0  0  0  0  0
   -5.2102   -2.8099    3.4685 H   0  0  0  0  0  0  0  0  0  0  0  0
   -6.1976   -1.6597    5.3959 H   0  0  0  0  0  0  0  0  0  0  0  0
   -6.1507   -0.4726    4.0147 H   0  0  0  0  0  0  0  0  0  0  0  0
   -5.3177    1.9515    6.0714 H   0  0  0  0  0  0  0  0  0  0  0  0
   -6.3419    0.6246    6.8160 H   0  0  0  0  0  0  0  0  0  0  0  0
   -7.7587    0.0776   -1.1586 H   0  0  0  0  0  0  0  0  0  0  0  0
   -8.1003   -2.1909   -1.7676 H   0  0  0  0  0  0  0  0  0  0  0  0
   -8.2806   -2.0383   -0.0275 H   0  0  0  0  0  0  0  0  0  0  0  0
   -6.6963   -3.8709   -1.5595 H   0  0  0  0  0  0  0  0  0  0  0  0
   -6.9460   -3.7843    0.1667 H   0  0  0  0  0  0  0  0  0  0  0  0
   -5.5178   -2.8964   -0.6003 H   0  0  0  0  0  0  0  0  0  0  0  0
   -6.7329   -0.7980   -2.9797 H   0  0  0  0  0  0  0  0  0  0  0  0
   -5.2262   -1.2521   -2.1751 H   0  0  0  0  0  0  0  0  0  0  0  0
   -5.7764    0.5248   -2.3322 H   0  0  0  0  0  0  0  0  0  0  0  0
    5.7856   -3.5566    1.2775 H   0  0  0  0  0  0  0  0  0  0  0  0
    4.5402   -2.8988    2.3377 H   0  0  0  0  0  0  0  0  0  0  0  0
    5.5260   -0.1871    0.1730 H   0  0  0  0  0  0  0  0  0  0  0  0
    7.0715    0.5496    2.6385 H   0  0  0  0  0  0  0  0  0  0  0  0
    5.3735    1.6023   -0.6133 H   0  0  0  0  0  0  0  0  0  0  0  0
    5.1194    4.2681    0.6011 H   0  0  0  0  0  0  0  0  0  0  0  0
    6.5803    4.2395   -0.4309 H   0  0  0  0  0  0  0  0  0  0  0  0
    5.0313    5.8859   -2.4308 H   0  0  0  0  0  0  0  0  0  0  0  0
    3.5086    5.7903   -1.5316 H   0  0  0  0  0  0  0  0  0  0  0  0
    8.3162   -0.0602   -0.0527 H   0  0  0  0  0  0  0  0  0  0  0  0
    8.5156   -0.7967    1.5318 H   0  0  0  0  0  0  0  0  0  0  0  0
   10.4775    0.3946    0.9814 H   0  0  0  0  0  0  0  0  0  0  0  0
    9.0634    2.6113   -0.0249 H   0  0  0  0  0  0  0  0  0  0  0  0
    9.7229    3.1874    1.5996 H   0  0  0  0  0  0  0  0  0  0  0  0
   10.7664    2.4713    0.3826 H   0  0  0  0  0  0  0  0  0  0  0  0
   10.9023    1.0523    3.0830 H   0  0  0  0  0  0  0  0  0  0  0  0
    9.2211    1.8140    3.2879 H   0  0  0  0  0  0  0  0  0  0  0  0
    9.3822    0.0193    3.2460 H   0  0  0  0  0  0  0  0  0  0  0  0
  1  2  1  0
  2  3  1  0
  3  4  1  0
  4  5  1  0
  5  6  1  0
  6  7  2  0
  6  8  1  0
  8  9  1  0
  9 10  1  0
 10 11  1  0
 11 12  1  0
 12 13  1  0
 13 14  1  0
 14 15  2  0
 14 16  1  0
 16 17  1  0
 17 18  1  0
 18 19  1  0
 19 20  2  0
 20 21  1  0
 21 22  2  0
 22 23  1  0
 23 24  2  0
 17 25  1  0
 25 26  2  0
 25 27  1  0
 27 28  1  0
 28 29  1  0
 29 30  2  0
 29 31  1  0
 31 32  1  0
 32 33  1  0
 33 34  2  0
 33 35  1  0
 35 36  1  0
 36 37  1  0
 37 38  2  0
 37 39  1  0
 36 40  1  0
 40 41  1  0
 41 42  2  0
 41 43  1  0
 32 44  1  0
 44 45  1  0
 45 46  1  0
 46 47  2  0
 46 48  1  0
 28 49  1  0
 49 50  1  0
 50 51  1  0
 49 52  1  0
  5 53  1  0
 53 54  1  0
 54 55  2  0
 54 56  1  0
 56 57  1  0
 57 58  1  0
 58 59  2  0
 58 60  1  0
 60 61  1  0
 61 62  1  0
 62 63  2  0
 62 64  1  0
 57 65  1  0
 65 66  1  0
 66 67  1  0
 66 68  1  0
 39  8  1  0
 24 19  1  0
  1 69  1  0
  1 70  1  0
  1 71  1  0
  2 72  1  0
  2 73  1  0
  3 74  1  0
  3 75  1  0
  4 76  1  0
  4 77  1  0
  8 78  1  6
  9 79  1  0
  9 80  1  0
 10 81  1  0
 10 82  1  0
 12 83  1  0
 12 84  1  0
 13 85  1  0
 13 86  1  0
 16 87  1  0
 17 88  1  1
 18 89  1  0
 18 90  1  0
 20 91  1  0
 21 92  1  0
 22 93  1  0
 23 94  1  0
 24 95  1  0
 27 96  1  0
 28 97  1  1
 31 98  1  0
 32 99  1  1
 35100  1  0
 36101  1  1
 39102  1  0
 40103  1  0
 40104  1  0
 43105  1  0
 43106  1  0
 44107  1  0
 44108  1  0
 45109  1  0
 45110  1  0
 48111  1  0
 48112  1  0
 49113  1  6
 50114  1  0
 50115  1  0
 51116  1  0
 51117  1  0
 51118  1  0
 52119  1  0
 52120  1  0
 52121  1  0
 53122  1  0
 53123  1  0
 56124  1  0
 57125  1  1
 60126  1  0
 61127  1  0
 61128  1  0
 64129  1  0
 64130  1  0
 65131  1  0
 65132  1  0
 66133  1  0
 67134  1  0
 67135  1  0
 67136  1  0
 68137  1  0
 68138  1  0
 68139  1  0
M  END
>  <Ligand ID>  (1) 
LIG0001900

>  <Ligand>  (1) 
CHEMBL3354584

>  <SMILES>  (1) 
CCCCN(C(=O)[C@@H]1CCSCCC(=O)N[C@@H](Cc2ccccc2)C(=O)N[C@H](C(=O)N[C@H](C(=O)N[C@H](C(=O)N1)CC(=O)N)CCC(=O)N)[C@H](CC)C)CC(=O)N[C@H](C(=O)NCC(=O)N)CC(C)C

>  <CID>  (1) 
118720274.0

>  <ChEMBL ID>  (1) 
nan

>  <InChiKey>  (1) 
DSODNURHHWNVSF-UNGLXHEOSA-N

>  <InChi>  (1) 
InChI=1S/C45H71N11O11S/c1-6-8-18-56(25-38(61)51-31(21-26(3)4)40(62)49-24-36(48)59)45(67)30-16-19-68-20-17-37(60)50-32(22-28-12-10-9-11-13-28)43(65)55-39(27(5)7-2)44(66)52-29(14-15-34(46)57)41(63)54-33(23-35(47)58)42(64)53-30/h9-13,26-27,29-33,39H,6-8,14-25H2,1-5H3,(H2,46,57)(H2,47,58)(H2,48,59)(H,49,62)(H,50,60)(H,51,61)(H,52,66)(H,53,64)(H,54,63)(H,55,65)/t27-,29-,30-,31-,32-,33-,39-/m0/s1

>  <IUPAC Name>  (1) 
(4S,7S,10S,13S,16S)-7-(2-amino-2-oxoethyl)-N-[2-[[(2S)-1-[(2-amino-2-oxoethyl)amino]-4-methyl-1-oxopentan-2-yl]amino]-2-oxoethyl]-10-(3-amino-3-oxopropyl)-16-benzyl-13-[(2S)-butan-2-yl]-N-butyl-6,9,12,15,18-pentaoxo-1-thia-5,8,11,14,17-pentazacycloicosane-4-carboxamide

$$$$
