
     RDKit          3D

 60 64  0  0  0  0  0  0  0  0999 V2000
    9.3598   -1.2472   -2.2125 C   0  0  0  0  0  0  0  0  0  0  0  0
    8.4300   -0.7971   -1.1196 C   0  0  0  0  0  0  0  0  0  0  0  0
    8.6619   -1.2294    0.1858 C   0  0  0  0  0  0  0  0  0  0  0  0
    7.7738   -0.7819    1.1423 C   0  0  0  0  0  0  0  0  0  0  0  0
    8.0241   -1.2307    2.5568 C   0  0  0  0  0  0  0  0  0  0  0  0
    6.7440    0.0251    0.8319 N   0  0  0  0  0  0  0  0  0  0  0  0
    6.5333    0.4365   -0.4394 C   0  0  0  0  0  0  0  0  0  0  0  0
    7.4006   -0.0052   -1.3603 N   0  0  0  0  0  0  0  0  0  0  0  0
    5.4404    1.3173   -0.7767 N   0  0  0  0  0  0  0  0  0  0  0  0
    4.3666    1.8633    0.4432 S   0  0  0  0  0  0  0  0  0  0  0  0
    4.3958    3.3928    0.4566 O   0  0  0  0  0  0  0  0  0  0  0  0
    4.9313    1.4612    1.7802 O   0  0  0  0  0  0  0  0  0  0  0  0
    2.7329    1.3354    0.2565 C   0  0  0  0  0  0  0  0  0  0  0  0
    2.1956    0.1795    0.7436 C   0  0  0  0  0  0  0  0  0  0  0  0
    0.8410   -0.1191    0.5503 C   0  0  0  0  0  0  0  0  0  0  0  0
   -0.0211    0.6886   -0.1160 C   0  0  0  0  0  0  0  0  0  0  0  0
    0.5369    1.8813   -0.6195 C   0  0  0  0  0  0  0  0  0  0  0  0
    1.8667    2.1848   -0.4343 C   0  0  0  0  0  0  0  0  0  0  0  0
   -1.3878    0.5006   -0.3429 N   0  0  0  0  0  0  0  0  0  0  0  0
   -2.1757   -0.5937    0.1308 C   0  0  0  0  0  0  0  0  0  0  0  0
   -1.6698   -1.4992    0.8071 O   0  0  0  0  0  0  0  0  0  0  0  0
   -3.6026   -0.5388   -0.2456 C   0  0  0  0  0  0  0  0  0  0  0  0
   -4.5051   -0.2550    0.7922 C   0  0  0  0  0  0  0  0  0  0  0  0
   -5.8529   -0.1490    0.4721 C   0  0  0  0  0  0  0  0  0  0  0  0
   -6.2964   -0.3132   -0.8064 N   0  0  0  0  0  0  0  0  0  0  0  0
   -5.4120   -0.5893   -1.8070 C   0  0  0  0  0  0  0  0  0  0  0  0
   -4.0439   -0.7060   -1.5330 C   0  0  0  0  0  0  0  0  0  0  0  0
   -3.1285   -0.9934   -2.5281 C   0  0  0  0  0  0  0  0  0  0  0  0
   -3.6088   -1.1671   -3.8420 C   0  0  0  0  0  0  0  0  0  0  0  0
   -4.9767   -1.0481   -4.1086 C   0  0  0  0  0  0  0  0  0  0  0  0
   -5.8740   -0.7617   -3.1070 C   0  0  0  0  0  0  0  0  0  0  0  0
   -6.8423    0.1651    1.5107 C   0  0  0  0  0  0  0  0  0  0  0  0
   -6.5239    0.3446    2.8310 C   0  0  0  0  0  0  0  0  0  0  0  0
   -7.4763    0.6477    3.7992 C   0  0  0  0  0  0  0  0  0  0  0  0
   -8.7880    0.7687    3.4043 C   0  0  0  0  0  0  0  0  0  0  0  0
   -9.1567    0.5907    2.0588 C   0  0  0  0  0  0  0  0  0  0  0  0
   -8.1890    0.2917    1.1268 C   0  0  0  0  0  0  0  0  0  0  0  0
    9.1914   -0.6030   -3.0924 H   0  0  0  0  0  0  0  0  0  0  0  0
   10.4180   -1.2560   -1.8670 H   0  0  0  0  0  0  0  0  0  0  0  0
    9.1496   -2.3117   -2.5110 H   0  0  0  0  0  0  0  0  0  0  0  0
    9.4832   -1.8783    0.4445 H   0  0  0  0  0  0  0  0  0  0  0  0
    7.1767   -0.8948    3.1715 H   0  0  0  0  0  0  0  0  0  0  0  0
    8.1573   -2.3277    2.5178 H   0  0  0  0  0  0  0  0  0  0  0  0
    8.9816   -0.7178    2.8720 H   0  0  0  0  0  0  0  0  0  0  0  0
    5.3457    1.5938   -1.7758 H   0  0  0  0  0  0  0  0  0  0  0  0
    2.8470   -0.4905    1.2768 H   0  0  0  0  0  0  0  0  0  0  0  0
    0.5015   -1.0394    0.9621 H   0  0  0  0  0  0  0  0  0  0  0  0
   -0.0617    2.5958   -1.1648 H   0  0  0  0  0  0  0  0  0  0  0  0
    2.2384    3.1159   -0.8443 H   0  0  0  0  0  0  0  0  0  0  0  0
   -1.9125    1.2207   -0.9199 H   0  0  0  0  0  0  0  0  0  0  0  0
   -4.1258   -0.1248    1.7936 H   0  0  0  0  0  0  0  0  0  0  0  0
   -2.0735   -1.0819   -2.3006 H   0  0  0  0  0  0  0  0  0  0  0  0
   -2.8967   -1.3853   -4.5995 H   0  0  0  0  0  0  0  0  0  0  0  0
   -5.2846   -1.1939   -5.1405 H   0  0  0  0  0  0  0  0  0  0  0  0
   -6.9548   -0.6737   -3.3389 H   0  0  0  0  0  0  0  0  0  0  0  0
   -5.5132    0.2548    3.1704 H   0  0  0  0  0  0  0  0  0  0  0  0
   -7.1656    0.7776    4.8206 H   0  0  0  0  0  0  0  0  0  0  0  0
   -9.5265    1.0031    4.1622 H   0  0  0  0  0  0  0  0  0  0  0  0
  -10.2057    0.6902    1.8049 H   0  0  0  0  0  0  0  0  0  0  0  0
   -8.4730    0.1594    0.0766 H   0  0  0  0  0  0  0  0  0  0  0  0
  1  2  1  0
  2  3  2  0
  3  4  1  0
  4  5  1  0
  4  6  2  0
  6  7  1  0
  7  8  2  0
  7  9  1  0
  9 10  1  0
 10 11  2  0
 10 12  2  0
 10 13  1  0
 13 14  2  0
 14 15  1  0
 15 16  2  0
 16 17  1  0
 17 18  2  0
 16 19  1  0
 19 20  1  0
 20 21  2  0
 20 22  1  0
 22 23  2  0
 23 24  1  0
 24 25  2  0
 25 26  1  0
 26 27  2  0
 27 28  1  0
 28 29  2  0
 29 30  1  0
 30 31  2  0
 24 32  1  0
 32 33  2  0
 33 34  1  0
 34 35  2  0
 35 36  1  0
 36 37  2  0
  8  2  1  0
 18 13  1  0
 27 22  1  0
 37 32  1  0
 31 26  1  0
  1 38  1  0
  1 39  1  0
  1 40  1  0
  3 41  1  0
  5 42  1  0
  5 43  1  0
  5 44  1  0
  9 45  1  0
 14 46  1  0
 15 47  1  0
 17 48  1  0
 18 49  1  0
 19 50  1  0
 23 51  1  0
 28 52  1  0
 29 53  1  0
 30 54  1  0
 31 55  1  0
 33 56  1  0
 34 57  1  0
 35 58  1  0
 36 59  1  0
 37 60  1  0
M  END
>  <Ligand ID>  (1) 
LIG0003783

>  <Ligand>  (1) 
MLS-0226099.0001

>  <SMILES>  (1) 
Cc1cc(C)nc(n1)NS(=O)(=O)c1ccc(cc1)NC(=O)c1cc(nc2c1cccc2)c1ccccc1

>  <CID>  (1) 
2308203.0

>  <ChEMBL ID>  (1) 
nan

>  <InChiKey>  (1) 
ZKZJBGVZECGCQS-UHFFFAOYSA-N

>  <InChi>  (1) 
InChI=1S/C28H23N5O3S/c1-18-16-19(2)30-28(29-18)33-37(35,36)22-14-12-21(13-15-22)31-27(34)24-17-26(20-8-4-3-5-9-20)32-25-11-7-6-10-23(24)25/h3-17H,1-2H3,(H,31,34)(H,29,30,33)

>  <IUPAC Name>  (1) 
N-[4-[(4,6-dimethylpyrimidin-2-yl)sulfamoyl]phenyl]-2-phenylquinoline-4-carboxamide

$$$$
