
     RDKit          3D

 93 96  0  0  0  0  0  0  0  0999 V2000
    2.1897    0.5853   -0.7545 O   0  0  0  0  0  0  0  0  0  0  0  0
    2.1520   -0.6398   -0.9479 C   0  0  0  0  0  0  0  0  0  0  0  0
    1.1588   -1.4228   -1.6555 C   0  0  0  0  0  0  0  0  0  0  0  0
    0.0522   -0.6026   -2.2277 N   0  0  0  0  0  0  0  0  0  0  0  0
   -0.9990   -0.3943   -1.3134 C   0  0  0  0  0  0  0  0  0  0  0  0
   -0.7077   -0.7879   -0.1141 O   0  0  0  0  0  0  0  0  0  0  0  0
   -2.3304    0.1561   -1.4721 C   0  0  1  0  0  0  0  0  0  0  0  0
   -3.0775    0.1965   -0.1852 N   0  0  0  0  0  0  0  0  0  0  0  0
   -4.0790   -0.7481    0.1145 C   0  0  0  0  0  0  0  0  0  0  0  0
   -4.2697   -1.6445   -0.7934 O   0  0  0  0  0  0  0  0  0  0  0  0
   -4.9094   -0.8333    1.2958 C   0  0  2  0  0  0  0  0  0  0  0  0
   -4.3003   -0.7484    2.6366 C   0  0  0  0  0  0  0  0  0  0  0  0
   -3.2965   -1.7692    2.9865 C   0  0  0  0  0  0  0  0  0  0  0  0
   -3.5450   -2.9870    3.5501 N   0  0  0  0  0  0  0  0  0  0  0  0
   -2.3744   -3.6336    3.7479 C   0  0  0  0  0  0  0  0  0  0  0  0
   -1.3609   -2.8562    3.3212 N   0  0  0  0  0  0  0  0  0  0  0  0
   -1.9239   -1.7305    2.8627 C   0  0  0  0  0  0  0  0  0  0  0  0
   -5.7372   -2.0493    1.1367 N   0  0  0  0  0  0  0  0  0  0  0  0
   -7.1364   -1.9950    1.0141 C   0  0  0  0  0  0  0  0  0  0  0  0
   -7.7438   -0.8762    1.0378 O   0  0  0  0  0  0  0  0  0  0  0  0
   -7.9225   -3.2570    0.8537 C   0  0  0  0  0  0  0  0  0  0  0  0
   -2.3862    1.5081   -2.0172 C   0  0  0  0  0  0  0  0  0  0  0  0
   -3.7662    2.0604   -2.1668 C   0  0  0  0  0  0  0  0  0  0  0  0
   -4.4301    1.8346   -3.3516 C   0  0  0  0  0  0  0  0  0  0  0  0
   -5.7053    2.2987   -3.5869 C   0  0  0  0  0  0  0  0  0  0  0  0
   -6.3685    3.0295   -2.5965 C   0  0  0  0  0  0  0  0  0  0  0  0
   -5.6985    3.2530   -1.4107 C   0  0  0  0  0  0  0  0  0  0  0  0
   -4.4060    2.7777   -1.1842 C   0  0  0  0  0  0  0  0  0  0  0  0
    0.2391   -0.1770   -3.5552 C   0  0  0  0  0  0  0  0  0  0  0  0
    1.0114    0.9957   -3.9400 C   0  0  0  0  0  0  0  0  0  0  0  0
    0.6942    2.3747   -3.5802 C   0  0  0  0  0  0  0  0  0  0  0  0
    0.6505    2.6944   -2.1979 N   0  0  0  0  0  0  0  0  0  0  0  0
    0.6800    3.8876   -1.7144 C   0  0  0  0  0  0  0  0  0  0  0  0
    0.6291    4.0966   -0.2923 N   0  0  0  0  0  0  0  0  0  0  0  0
    0.7630    4.9846   -2.6245 N   0  0  0  0  0  0  0  0  0  0  0  0
    3.2603   -1.3888   -0.3825 N   0  0  0  0  0  0  0  0  0  0  0  0
    4.3211   -0.6907    0.3659 C   0  0  2  0  0  0  0  0  0  0  0  0
    5.6209   -0.7872   -0.2691 C   0  0  0  0  0  0  0  0  0  0  0  0
    6.6668   -0.1802    0.0439 O   0  0  0  0  0  0  0  0  0  0  0  0
    5.7451   -1.6840   -1.3982 N   0  0  0  0  0  0  0  0  0  0  0  0
    4.3193   -1.1555    1.7858 C   0  0  0  0  0  0  0  0  0  0  0  0
    5.3650   -0.5391    2.5893 C   0  0  0  0  0  0  0  0  0  0  0  0
    5.1853    0.6479    3.3078 C   0  0  0  0  0  0  0  0  0  0  0  0
    6.3437    0.9607    3.9086 N   0  0  0  0  0  0  0  0  0  0  0  0
    7.2837    0.0435    3.6277 C   0  0  0  0  0  0  0  0  0  0  0  0
    6.6902   -0.9053    2.8023 C   0  0  0  0  0  0  0  0  0  0  0  0
    7.4610   -1.9839    2.3866 C   0  0  0  0  0  0  0  0  0  0  0  0
    8.7710   -2.1086    2.7784 C   0  0  0  0  0  0  0  0  0  0  0  0
    9.3445   -1.1584    3.5953 C   0  0  0  0  0  0  0  0  0  0  0  0
    8.6105   -0.0848    4.0217 C   0  0  0  0  0  0  0  0  0  0  0  0
    0.6999   -2.1619   -0.9552 H   0  0  0  0  0  0  0  0  0  0  0  0
    1.6589   -1.9418   -2.5063 H   0  0  0  0  0  0  0  0  0  0  0  0
   -2.8634   -0.6129   -2.1185 H   0  0  0  0  0  0  0  0  0  0  0  0
   -2.8772    0.9275    0.5271 H   0  0  0  0  0  0  0  0  0  0  0  0
   -5.7242   -0.0197    1.2910 H   0  0  0  0  0  0  0  0  0  0  0  0
   -3.8637    0.2967    2.7232 H   0  0  0  0  0  0  0  0  0  0  0  0
   -5.0894   -0.7291    3.4530 H   0  0  0  0  0  0  0  0  0  0  0  0
   -4.4585   -3.4018    3.8076 H   0  0  0  0  0  0  0  0  0  0  0  0
   -2.2292   -4.6336    4.1823 H   0  0  0  0  0  0  0  0  0  0  0  0
   -1.4089   -0.8747    2.4550 H   0  0  0  0  0  0  0  0  0  0  0  0
   -5.2470   -2.9711    1.1164 H   0  0  0  0  0  0  0  0  0  0  0  0
   -7.6530   -4.0063    1.6091 H   0  0  0  0  0  0  0  0  0  0  0  0
   -8.9994   -3.0064    0.8000 H   0  0  0  0  0  0  0  0  0  0  0  0
   -7.6986   -3.7432   -0.1355 H   0  0  0  0  0  0  0  0  0  0  0  0
   -1.9249    1.5887   -3.0188 H   0  0  0  0  0  0  0  0  0  0  0  0
   -1.8732    2.2160   -1.3465 H   0  0  0  0  0  0  0  0  0  0  0  0
   -3.9426    1.2796   -4.1170 H   0  0  0  0  0  0  0  0  0  0  0  0
   -6.1713    2.0899   -4.5352 H   0  0  0  0  0  0  0  0  0  0  0  0
   -7.3735    3.3905   -2.7926 H   0  0  0  0  0  0  0  0  0  0  0  0
   -6.1968    3.8089   -0.6480 H   0  0  0  0  0  0  0  0  0  0  0  0
   -3.8991    2.9654   -0.2462 H   0  0  0  0  0  0  0  0  0  0  0  0
    0.7328   -1.0650   -4.0997 H   0  0  0  0  0  0  0  0  0  0  0  0
   -0.7780   -0.1969   -4.1266 H   0  0  0  0  0  0  0  0  0  0  0  0
    2.0877    0.8071   -3.6060 H   0  0  0  0  0  0  0  0  0  0  0  0
    1.0582    0.9601   -5.0976 H   0  0  0  0  0  0  0  0  0  0  0  0
    1.4954    3.0881   -4.0106 H   0  0  0  0  0  0  0  0  0  0  0  0
   -0.2285    2.7639   -4.0920 H   0  0  0  0  0  0  0  0  0  0  0  0
   -0.0712    4.8122    0.0364 H   0  0  0  0  0  0  0  0  0  0  0  0
    1.2516    3.5656    0.3527 H   0  0  0  0  0  0  0  0  0  0  0  0
    1.6065    5.5705   -2.7244 H   0  0  0  0  0  0  0  0  0  0  0  0
   -0.0544    5.2389   -3.2398 H   0  0  0  0  0  0  0  0  0  0  0  0
    3.3321   -2.4200   -0.4905 H   0  0  0  0  0  0  0  0  0  0  0  0
    4.0365    0.4019    0.3984 H   0  0  0  0  0  0  0  0  0  0  0  0
    6.6444   -2.1903   -1.5764 H   0  0  0  0  0  0  0  0  0  0  0  0
    4.9439   -1.8415   -2.0529 H   0  0  0  0  0  0  0  0  0  0  0  0
    3.3254   -0.9423    2.2806 H   0  0  0  0  0  0  0  0  0  0  0  0
    4.4458   -2.2735    1.8527 H   0  0  0  0  0  0  0  0  0  0  0  0
    4.2723    1.2105    3.3669 H   0  0  0  0  0  0  0  0  0  0  0  0
    6.5304    1.7859    4.5141 H   0  0  0  0  0  0  0  0  0  0  0  0
    6.9516   -2.6956    1.7465 H   0  0  0  0  0  0  0  0  0  0  0  0
    9.3391   -2.9488    2.4409 H   0  0  0  0  0  0  0  0  0  0  0  0
   10.3785   -1.2967    3.8799 H   0  0  0  0  0  0  0  0  0  0  0  0
    9.1012    0.6389    4.6635 H   0  0  0  0  0  0  0  0  0  0  0  0
  1  2  2  0
  2  3  1  0
  3  4  1  0
  4  5  1  0
  5  6  2  0
  5  7  1  0
  7  8  1  0
  8  9  1  0
  9 10  2  0
  9 11  1  0
 11 12  1  0
 12 13  1  0
 13 14  1  0
 14 15  1  0
 15 16  2  0
 16 17  1  0
 11 18  1  0
 18 19  1  0
 19 20  2  0
 19 21  1  0
  7 22  1  0
 22 23  1  0
 23 24  2  0
 24 25  1  0
 25 26  2  0
 26 27  1  0
 27 28  2  0
  4 29  1  0
 29 30  1  0
 30 31  1  0
 31 32  1  0
 32 33  2  3
 33 34  1  0
 33 35  1  0
  2 36  1  0
 36 37  1  0
 37 38  1  0
 38 39  2  0
 38 40  1  0
 37 41  1  0
 41 42  1  0
 42 43  2  0
 43 44  1  0
 44 45  1  0
 45 46  2  0
 46 47  1  0
 47 48  2  0
 48 49  1  0
 49 50  2  0
 17 13  2  0
 28 23  1  0
 46 42  1  0
 50 45  1  0
  3 51  1  0
  3 52  1  0
  7 53  1  6
  8 54  1  0
 11 55  1  6
 12 56  1  0
 12 57  1  0
 14 58  1  0
 15 59  1  0
 17 60  1  0
 18 61  1  0
 21 62  1  0
 21 63  1  0
 21 64  1  0
 22 65  1  0
 22 66  1  0
 24 67  1  0
 25 68  1  0
 26 69  1  0
 27 70  1  0
 28 71  1  0
 29 72  1  0
 29 73  1  0
 30 74  1  0
 30 75  1  0
 31 76  1  0
 31 77  1  0
 34 78  1  0
 34 79  1  0
 35 80  1  0
 35 81  1  0
 36 82  1  0
 37 83  1  1
 40 84  1  0
 40 85  1  0
 41 86  1  0
 41 87  1  0
 43 88  1  0
 44 89  1  0
 47 90  1  0
 48 91  1  0
 49 92  1  0
 50 93  1  0
M  END
>  <Ligand ID>  (1) 
LIG0001403

>  <Ligand>  (1) 
CHEMBL343094

>  <SMILES>  (1) 
O=C(CN(C(=O)[C@@H](NC(=O)[C@H](Cc1[nH]cnc1)NC(=O)C)Cc1ccccc1)CCCN=C(N)N)N[C@H](C(=O)N)Cc1c[nH]c2c1cccc2

>  <CID>  (1) 
44359590.0

>  <ChEMBL ID>  (1) 
nan

>  <InChiKey>  (1) 
OJCGTUCBGQEMMX-AWCRTANDSA-N

>  <InChi>  (1) 
InChI=1S/C34H43N11O5/c1-21(46)42-28(16-24-18-38-20-41-24)32(49)44-29(14-22-8-3-2-4-9-22)33(50)45(13-7-12-39-34(36)37)19-30(47)43-27(31(35)48)15-23-17-40-26-11-6-5-10-25(23)26/h2-6,8-11,17-18,20,27-29,40H,7,12-16,19H2,1H3,(H2,35,48)(H,38,41)(H,42,46)(H,43,47)(H,44,49)(H4,36,37,39)/t27-,28-,29-/m0/s1

>  <IUPAC Name>  (1) 
(2S)-2-[[(2S)-2-acetamido-3-(1H-imidazol-5-yl)propanoyl]amino]-N-[2-[[(2S)-1-amino-3-(1H-indol-3-yl)-1-oxopropan-2-yl]amino]-2-oxoethyl]-N-[3-(diaminomethylideneamino)propyl]-3-phenylpropanamide

$$$$
