
     RDKit          3D

 50 53  0  0  0  0  0  0  0  0999 V2000
   -7.2938    2.5681    0.1897 C   0  0  0  0  0  0  0  0  0  0  0  0
   -6.6082    1.2962    0.0467 N   0  0  0  0  0  0  0  0  0  0  0  0
   -5.2878    1.1909   -0.4911 C   0  0  0  0  0  0  0  0  0  0  0  0
   -4.6426    2.2058   -0.8732 O   0  0  0  0  0  0  0  0  0  0  0  0
   -4.7209   -0.1929   -0.5721 C   0  0  1  0  0  0  0  0  0  0  0  0
   -3.4497   -0.1283   -1.1085 O   0  0  0  0  0  0  0  0  0  0  0  0
   -2.5912   -0.8042   -0.2658 C   0  0  2  0  0  0  0  0  0  0  0  0
   -3.1541   -0.5112    1.1220 C   0  0  1  0  0  0  0  0  0  0  0  0
   -4.6319   -0.6918    0.8362 C   0  0  2  0  0  0  0  0  0  0  0  0
   -4.9641   -2.0445    0.8577 O   0  0  0  0  0  0  0  0  0  0  0  0
   -2.6697   -1.3510    2.0894 O   0  0  0  0  0  0  0  0  0  0  0  0
   -1.2221   -0.3379   -0.3753 N   0  0  0  0  0  0  0  0  0  0  0  0
   -0.7719    0.8526   -0.8154 C   0  0  0  0  0  0  0  0  0  0  0  0
    0.5635    0.8562   -0.7465 N   0  0  0  0  0  0  0  0  0  0  0  0
    0.9474   -0.3513   -0.2558 C   0  0  0  0  0  0  0  0  0  0  0  0
   -0.1732   -1.1175   -0.0163 C   0  0  0  0  0  0  0  0  0  0  0  0
   -0.0550   -2.3673    0.4769 N   0  0  0  0  0  0  0  0  0  0  0  0
    1.1912   -2.8509    0.7310 C   0  0  0  0  0  0  0  0  0  0  0  0
    1.3016   -4.1764    1.2533 N   0  0  0  0  0  0  0  0  0  0  0  0
    2.2900   -2.0894    0.4922 N   0  0  0  0  0  0  0  0  0  0  0  0
    2.2107   -0.8330   -0.0015 C   0  0  0  0  0  0  0  0  0  0  0  0
    3.3953   -0.0708   -0.2360 N   0  0  0  0  0  0  0  0  0  0  0  0
    4.7017   -0.6374    0.0536 C   0  0  0  0  0  0  0  0  0  0  0  0
    5.7124    0.4049   -0.2992 C   0  0  0  0  0  0  0  0  0  0  0  0
    6.0564    1.2789    0.7289 C   0  0  0  0  0  0  0  0  0  0  0  0
    6.9713    2.2610    0.4950 C   0  0  0  0  0  0  0  0  0  0  0  0
    7.5451    2.3778   -0.7553 C   0  0  0  0  0  0  0  0  0  0  0  0
    7.2059    1.5062   -1.7905 C   0  0  0  0  0  0  0  0  0  0  0  0
    6.2721    0.5023   -1.5552 C   0  0  0  0  0  0  0  0  0  0  0  0
    8.1056    1.7215   -3.6797 I   0  0  0  0  0  0  0  0  0  0  0  0
   -6.5776    3.3939    0.3204 H   0  0  0  0  0  0  0  0  0  0  0  0
   -7.9586    2.5727    1.0734 H   0  0  0  0  0  0  0  0  0  0  0  0
   -7.9441    2.7163   -0.7027 H   0  0  0  0  0  0  0  0  0  0  0  0
   -7.1394    0.4490    0.3626 H   0  0  0  0  0  0  0  0  0  0  0  0
   -5.4036   -0.8633   -1.1433 H   0  0  0  0  0  0  0  0  0  0  0  0
   -2.7014   -1.8888   -0.4555 H   0  0  0  0  0  0  0  0  0  0  0  0
   -2.9610    0.5625    1.3209 H   0  0  0  0  0  0  0  0  0  0  0  0
   -5.2609   -0.1144    1.5435 H   0  0  0  0  0  0  0  0  0  0  0  0
   -5.2554   -2.3845   -0.0222 H   0  0  0  0  0  0  0  0  0  0  0  0
   -2.2260   -0.7595    2.7759 H   0  0  0  0  0  0  0  0  0  0  0  0
   -1.4084    1.6711   -1.1679 H   0  0  0  0  0  0  0  0  0  0  0  0
    1.7704   -4.3321    2.1730 H   0  0  0  0  0  0  0  0  0  0  0  0
    0.9168   -5.0139    0.7272 H   0  0  0  0  0  0  0  0  0  0  0  0
    3.2611    0.8955   -0.6196 H   0  0  0  0  0  0  0  0  0  0  0  0
    4.7880   -0.9402    1.1078 H   0  0  0  0  0  0  0  0  0  0  0  0
    4.7965   -1.5321   -0.6160 H   0  0  0  0  0  0  0  0  0  0  0  0
    5.6044    1.1890    1.7182 H   0  0  0  0  0  0  0  0  0  0  0  0
    7.2181    2.9295    1.3241 H   0  0  0  0  0  0  0  0  0  0  0  0
    8.2643    3.1754   -0.8825 H   0  0  0  0  0  0  0  0  0  0  0  0
    5.9829   -0.1924   -2.3308 H   0  0  0  0  0  0  0  0  0  0  0  0
  1  2  1  0
  2  3  1  0
  3  4  2  0
  3  5  1  0
  5  6  1  0
  6  7  1  0
  7  8  1  0
  8  9  1  0
  9 10  1  0
  8 11  1  0
  7 12  1  0
 12 13  1  0
 13 14  2  0
 14 15  1  0
 15 16  2  0
 16 17  1  0
 17 18  2  0
 18 19  1  0
 18 20  1  0
 20 21  2  0
 21 22  1  0
 22 23  1  0
 23 24  1  0
 24 25  2  0
 25 26  1  0
 26 27  2  0
 27 28  1  0
 28 29  2  0
 28 30  1  0
  9  5  1  0
 16 12  1  0
 29 24  1  0
 21 15  1  0
  1 31  1  0
  1 32  1  0
  1 33  1  0
  2 34  1  0
  5 35  1  6
  7 36  1  6
  8 37  1  1
  9 38  1  1
 10 39  1  0
 11 40  1  0
 13 41  1  0
 19 42  1  0
 19 43  1  0
 22 44  1  0
 23 45  1  0
 23 46  1  0
 25 47  1  0
 26 48  1  0
 27 49  1  0
 29 50  1  0
M  END
>  <Ligand ID>  (1) 
LIG0001982

>  <Ligand>  (1) 
CHEMBL3133078

>  <SMILES>  (1) 
CNC(=O)[C@H]1O[C@H]([C@@H]([C@@H]1O)O)n1cnc2c1nc(N)nc2NCc1cccc(c1)I

>  <CID>  (1) 
76311194.0

>  <ChEMBL ID>  (1) 
nan

>  <InChiKey>  (1) 
JXDZUMSPMQUVIA-PFHKOEEOSA-N

>  <InChi>  (1) 
InChI=1S/C18H20IN7O4/c1-21-16(29)13-11(27)12(28)17(30-13)26-7-23-10-14(24-18(20)25-15(10)26)22-6-8-3-2-4-9(19)5-8/h2-5,7,11-13,17,27-28H,6H2,1H3,(H,21,29)(H3,20,22,24,25)/t11-,12+,13-,17+/m0/s1

>  <IUPAC Name>  (1) 
(2S,3S,4R,5R)-5-[2-amino-6-[(3-iodophenyl)methylamino]purin-9-yl]-3,4-dihydroxy-N-methyloxolane-2-carboxamide

$$$$
