
     RDKit          3D

 44 46  0  0  0  0  0  0  0  0999 V2000
    8.6334   -1.6253    1.4839 O   0  0  0  0  0  0  0  0  0  0  0  0
    7.8471   -0.6790    0.8454 C   0  0  0  0  0  0  0  0  0  0  0  0
    8.4051    0.3253    0.2996 O   0  0  0  0  0  0  0  0  0  0  0  0
    6.3645   -0.7951    0.7743 C   0  0  0  0  0  0  0  0  0  0  0  0
    5.8278    0.3990    0.0110 C   0  0  0  0  0  0  0  0  0  0  0  0
    4.3512    0.3619   -0.1063 C   0  0  0  0  0  0  0  0  0  0  0  0
    3.6843   -0.2450   -1.1513 C   0  0  0  0  0  0  0  0  0  0  0  0
    2.2886   -0.2261   -1.1720 C   0  0  0  0  0  0  0  0  0  0  0  0
    1.5700    0.3900   -0.1637 C   0  0  0  0  0  0  0  0  0  0  0  0
    2.2474    0.9999    0.8867 C   0  0  0  0  0  0  0  0  0  0  0  0
    3.6321    0.9808    0.9068 C   0  0  0  0  0  0  0  0  0  0  0  0
    0.1933    0.4439   -0.1250 O   0  0  0  0  0  0  0  0  0  0  0  0
   -0.6023   -0.1306   -1.1195 C   0  0  0  0  0  0  0  0  0  0  0  0
   -2.0557    0.0827   -0.8170 C   0  0  0  0  0  0  0  0  0  0  0  0
   -2.9467   -0.8086   -0.3346 N   0  0  0  0  0  0  0  0  0  0  0  0
   -4.1479   -0.2404   -0.1981 C   0  0  0  0  0  0  0  0  0  0  0  0
   -3.9885    1.0084   -0.6007 O   0  0  0  0  0  0  0  0  0  0  0  0
   -2.7709    1.2505   -0.9766 C   0  0  0  0  0  0  0  0  0  0  0  0
   -2.2220    2.5401   -1.4889 C   0  0  0  0  0  0  0  0  0  0  0  0
   -5.4093   -0.7935    0.2791 C   0  0  0  0  0  0  0  0  0  0  0  0
   -6.5172    0.0062    0.3250 C   0  0  0  0  0  0  0  0  0  0  0  0
   -7.7512   -0.4683    0.7724 C   0  0  0  0  0  0  0  0  0  0  0  0
   -7.8399   -1.7925    1.1790 C   0  0  0  0  0  0  0  0  0  0  0  0
   -6.7135   -2.5786    1.1245 C   0  0  0  0  0  0  0  0  0  0  0  0
   -5.4882   -2.1102    0.6811 C   0  0  0  0  0  0  0  0  0  0  0  0
    9.6409   -1.5389    1.4909 H   0  0  0  0  0  0  0  0  0  0  0  0
    5.9700   -0.8587    1.7900 H   0  0  0  0  0  0  0  0  0  0  0  0
    6.1232   -1.6825    0.1427 H   0  0  0  0  0  0  0  0  0  0  0  0
    6.1483    1.3264    0.5377 H   0  0  0  0  0  0  0  0  0  0  0  0
    6.2643    0.4401   -1.0053 H   0  0  0  0  0  0  0  0  0  0  0  0
    4.2569   -0.7269   -1.9399 H   0  0  0  0  0  0  0  0  0  0  0  0
    1.7429   -0.7015   -1.9921 H   0  0  0  0  0  0  0  0  0  0  0  0
    1.6952    1.4900    1.6894 H   0  0  0  0  0  0  0  0  0  0  0  0
    4.1606    1.4632    1.7372 H   0  0  0  0  0  0  0  0  0  0  0  0
   -0.3760   -1.2229   -1.1191 H   0  0  0  0  0  0  0  0  0  0  0  0
   -0.4388    0.2669   -2.1373 H   0  0  0  0  0  0  0  0  0  0  0  0
   -1.4686    2.3498   -2.2938 H   0  0  0  0  0  0  0  0  0  0  0  0
   -1.8580    3.1805   -0.6841 H   0  0  0  0  0  0  0  0  0  0  0  0
   -3.0837    3.0562   -1.9939 H   0  0  0  0  0  0  0  0  0  0  0  0
   -6.5043    1.0411    0.0211 H   0  0  0  0  0  0  0  0  0  0  0  0
   -8.6317    0.1593    0.8116 H   0  0  0  0  0  0  0  0  0  0  0  0
   -8.7920   -2.1696    1.5273 H   0  0  0  0  0  0  0  0  0  0  0  0
   -6.8317   -3.6130    1.4546 H   0  0  0  0  0  0  0  0  0  0  0  0
   -4.6093   -2.7574    0.6483 H   0  0  0  0  0  0  0  0  0  0  0  0
  1  2  1  0
  2  3  2  0
  2  4  1  0
  4  5  1  0
  5  6  1  0
  6  7  2  0
  7  8  1  0
  8  9  2  0
  9 10  1  0
 10 11  2  0
  9 12  1  0
 12 13  1  0
 13 14  1  0
 14 15  1  0
 15 16  2  0
 16 17  1  0
 17 18  1  0
 18 19  1  0
 16 20  1  0
 20 21  2  0
 21 22  1  0
 22 23  2  0
 23 24  1  0
 24 25  2  0
 11  6  1  0
 18 14  2  0
 25 20  1  0
  1 26  1  0
  4 27  1  0
  4 28  1  0
  5 29  1  0
  5 30  1  0
  7 31  1  0
  8 32  1  0
 10 33  1  0
 11 34  1  0
 13 35  1  0
 13 36  1  0
 19 37  1  0
 19 38  1  0
 19 39  1  0
 21 40  1  0
 22 41  1  0
 23 42  1  0
 24 43  1  0
 25 44  1  0
M  END
>  <Ligand ID>  (1) 
LIG0001708

>  <Ligand>  (1) 
CHEMBL3600993

>  <SMILES>  (1) 
OC(=O)CCc1ccc(cc1)OCc1nc(oc1C)c1ccccc1

>  <CID>  (1) 
86803224.0

>  <ChEMBL ID>  (1) 
nan

>  <InChiKey>  (1) 
BVILYIQBHXIHEN-UHFFFAOYSA-N

>  <InChi>  (1) 
InChI=1S/C20H19NO4/c1-14-18(21-20(25-14)16-5-3-2-4-6-16)13-24-17-10-7-15(8-11-17)9-12-19(22)23/h2-8,10-11H,9,12-13H2,1H3,(H,22,23)

>  <IUPAC Name>  (1) 
3-[4-[(5-methyl-2-phenyl-1,3-oxazol-4-yl)methoxy]phenyl]propanoic acid

$$$$
