
     RDKit          3D

 31 30  0  0  0  0  0  0  0  0999 V2000
    5.5210    0.6914   -0.2589 O   0  0  0  0  0  0  0  0  0  0  0  0
    4.1694    0.8735    0.1021 C   0  0  0  0  0  0  0  0  0  0  0  0
    3.3897   -0.2622   -0.5593 C   0  0  0  0  0  0  0  0  0  0  0  0
    1.9141   -0.1342   -0.2148 C   0  0  0  0  0  0  0  0  0  0  0  0
    1.1656   -1.2501   -0.8677 C   0  0  0  0  0  0  0  0  0  0  0  0
   -0.3173   -1.2105   -0.5828 C   0  0  0  0  0  0  0  0  0  0  0  0
   -0.9370    0.0562   -1.0685 C   0  0  0  0  0  0  0  0  0  0  0  0
   -2.4212    0.1234   -0.7978 C   0  0  0  0  0  0  0  0  0  0  0  0
   -2.7935    0.0415    0.6438 C   0  0  0  0  0  0  0  0  0  0  0  0
   -4.2956    0.1250    0.7030 C   0  0  0  0  0  0  0  0  0  0  0  0
   -4.9060    1.1005    1.3663 C   0  0  0  0  0  0  0  0  0  0  0  0
    6.1282    0.9750    0.4435 H   0  0  0  0  0  0  0  0  0  0  0  0
    3.8031    1.8554   -0.2515 H   0  0  0  0  0  0  0  0  0  0  0  0
    4.0900    0.7839    1.1972 H   0  0  0  0  0  0  0  0  0  0  0  0
    3.5193   -0.0938   -1.6650 H   0  0  0  0  0  0  0  0  0  0  0  0
    3.8335   -1.2200   -0.2754 H   0  0  0  0  0  0  0  0  0  0  0  0
    1.6224    0.8758   -0.5543 H   0  0  0  0  0  0  0  0  0  0  0  0
    1.8752   -0.2280    0.8922 H   0  0  0  0  0  0  0  0  0  0  0  0
    1.5359   -2.1947   -0.4008 H   0  0  0  0  0  0  0  0  0  0  0  0
    1.3819   -1.3062   -1.9471 H   0  0  0  0  0  0  0  0  0  0  0  0
   -0.8243   -2.0758   -1.0503 H   0  0  0  0  0  0  0  0  0  0  0  0
   -0.4922   -1.2827    0.5106 H   0  0  0  0  0  0  0  0  0  0  0  0
   -0.4111    0.9111   -0.6447 H   0  0  0  0  0  0  0  0  0  0  0  0
   -0.8293    0.0849   -2.1775 H   0  0  0  0  0  0  0  0  0  0  0  0
   -2.9916   -0.6015   -1.3870 H   0  0  0  0  0  0  0  0  0  0  0  0
   -2.7498    1.1397   -1.1554 H   0  0  0  0  0  0  0  0  0  0  0  0
   -2.4958   -0.9314    1.0925 H   0  0  0  0  0  0  0  0  0  0  0  0
   -2.3930    0.8760    1.2432 H   0  0  0  0  0  0  0  0  0  0  0  0
   -4.8325   -0.6556    0.1741 H   0  0  0  0  0  0  0  0  0  0  0  0
   -4.2787    1.8331    1.8625 H   0  0  0  0  0  0  0  0  0  0  0  0
   -5.9808    1.1000    1.3678 H   0  0  0  0  0  0  0  0  0  0  0  0
  1  2  1  0
  2  3  1  0
  3  4  1  0
  4  5  1  0
  5  6  1  0
  6  7  1  0
  7  8  1  0
  8  9  1  0
  9 10  1  0
 10 11  2  0
  1 12  1  0
  2 13  1  0
  2 14  1  0
  3 15  1  0
  3 16  1  0
  4 17  1  0
  4 18  1  0
  5 19  1  0
  5 20  1  0
  6 21  1  0
  6 22  1  0
  7 23  1  0
  7 24  1  0
  8 25  1  0
  8 26  1  0
  9 27  1  0
  9 28  1  0
 10 29  1  0
 11 30  1  0
 11 31  1  0
M  END
>  <Ligand ID>  (1) 
LIG0005060

>  <Ligand>  (1) 
9-Decen-1-ol

>  <SMILES>  (1) 
OCCCCCCCCC=C

>  <CID>  (1) 
25612.0

>  <ChEMBL ID>  (1) 
nan

>  <InChiKey>  (1) 
QGFSQVPRCWJZQK-UHFFFAOYSA-N

>  <InChi>  (1) 
InChI=1S/C10H20O/c1-2-3-4-5-6-7-8-9-10-11/h2,11H,1,3-10H2

>  <IUPAC Name>  (1) 
dec-9-en-1-ol

$$$$
