
     RDKit          3D

 56 55  0  0  0  0  0  0  0  0999 V2000
   -8.2535    0.2968    1.4735 C   0  0  0  0  0  0  0  0  0  0  0  0
   -7.8566    0.3990    0.0280 C   0  0  0  0  0  0  0  0  0  0  0  0
   -6.2966    0.5943    0.0398 C   0  0  0  0  0  0  0  0  0  0  0  0
   -5.6909   -0.5751    0.6985 C   0  0  0  0  0  0  0  0  0  0  0  0
   -4.2753   -0.7063    0.9825 C   0  0  0  0  0  0  0  0  0  0  0  0
   -3.2083   -0.6866   -0.0604 C   0  0  0  0  0  0  0  0  0  0  0  0
   -3.0793    0.6038   -0.7638 C   0  0  0  0  0  0  0  0  0  0  0  0
   -2.0395    0.7897   -1.7941 C   0  0  0  0  0  0  0  0  0  0  0  0
   -0.6004    0.7954   -1.5007 C   0  0  0  0  0  0  0  0  0  0  0  0
   -0.0417   -0.4112   -0.8744 C   0  0  0  0  0  0  0  0  0  0  0  0
    1.5139   -0.2826   -0.7486 C   0  0  0  0  0  0  0  0  0  0  0  0
    1.9519   -1.5827   -0.0935 C   0  0  0  0  0  0  0  0  0  0  0  0
    3.3696   -1.6680    0.1152 N   0  0  0  0  0  0  0  0  0  0  0  0
    4.0809   -0.7418    0.9147 C   0  0  0  0  0  0  0  0  0  0  0  0
    3.4728    0.2232    1.4910 O   0  0  0  0  0  0  0  0  0  0  0  0
    5.5456   -0.8049    1.1483 C   0  0  2  0  0  0  0  0  0  0  0  0
    6.2200    0.4771    0.6683 C   0  0  0  0  0  0  0  0  0  0  0  0
    7.5782    0.4475    0.8764 O   0  0  0  0  0  0  0  0  0  0  0  0
    8.3976    1.8166    0.3786 P   0  0  0  0  0  0  0  0  0  0  0  0
    7.5710    2.6905   -0.5371 O   0  0  0  0  0  0  0  0  0  0  0  0
    9.8543    1.3454   -0.3388 O   0  0  0  0  0  0  0  0  0  0  0  0
    8.8015    2.7551    1.7314 O   0  0  0  0  0  0  0  0  0  0  0  0
    6.0876   -1.9510    0.4298 N   0  0  0  0  0  0  0  0  0  0  0  0
   -7.5525    0.8407    2.1366 H   0  0  0  0  0  0  0  0  0  0  0  0
   -8.3043   -0.7638    1.8024 H   0  0  0  0  0  0  0  0  0  0  0  0
   -9.2486    0.7749    1.6582 H   0  0  0  0  0  0  0  0  0  0  0  0
   -8.2991    1.2945   -0.4206 H   0  0  0  0  0  0  0  0  0  0  0  0
   -8.0941   -0.4963   -0.5504 H   0  0  0  0  0  0  0  0  0  0  0  0
   -6.1194    0.5554   -1.0835 H   0  0  0  0  0  0  0  0  0  0  0  0
   -6.1195    1.5565    0.4919 H   0  0  0  0  0  0  0  0  0  0  0  0
   -6.0487   -1.5161    0.1412 H   0  0  0  0  0  0  0  0  0  0  0  0
   -6.2687   -0.6822    1.6951 H   0  0  0  0  0  0  0  0  0  0  0  0
   -4.0139    0.0608    1.7858 H   0  0  0  0  0  0  0  0  0  0  0  0
   -4.1566   -1.6781    1.5932 H   0  0  0  0  0  0  0  0  0  0  0  0
   -2.2774   -1.1197    0.3655 H   0  0  0  0  0  0  0  0  0  0  0  0
   -3.4712   -1.5169   -0.8407 H   0  0  0  0  0  0  0  0  0  0  0  0
   -4.0541    0.7965   -1.3036 H   0  0  0  0  0  0  0  0  0  0  0  0
   -3.0457    1.4731   -0.0349 H   0  0  0  0  0  0  0  0  0  0  0  0
   -2.2834    1.7928   -2.3178 H   0  0  0  0  0  0  0  0  0  0  0  0
   -2.2791    0.0619   -2.6482 H   0  0  0  0  0  0  0  0  0  0  0  0
   -0.4008    1.7047   -0.8346 H   0  0  0  0  0  0  0  0  0  0  0  0
   -0.0027    1.0476   -2.4478 H   0  0  0  0  0  0  0  0  0  0  0  0
   -0.3006   -0.4229    0.2379 H   0  0  0  0  0  0  0  0  0  0  0  0
   -0.2680   -1.3194   -1.3970 H   0  0  0  0  0  0  0  0  0  0  0  0
    1.9773   -0.1323   -1.7198 H   0  0  0  0  0  0  0  0  0  0  0  0
    1.7276    0.5287   -0.0335 H   0  0  0  0  0  0  0  0  0  0  0  0
    1.6518   -2.4473   -0.7552 H   0  0  0  0  0  0  0  0  0  0  0  0
    1.4460   -1.7496    0.8602 H   0  0  0  0  0  0  0  0  0  0  0  0
    3.9578   -2.4373   -0.3245 H   0  0  0  0  0  0  0  0  0  0  0  0
    5.7655   -0.9251    2.2279 H   0  0  0  0  0  0  0  0  0  0  0  0
    5.9204    0.7336   -0.3576 H   0  0  0  0  0  0  0  0  0  0  0  0
    5.8043    1.2862    1.3242 H   0  0  0  0  0  0  0  0  0  0  0  0
   10.0518    0.3957   -0.2680 H   0  0  0  0  0  0  0  0  0  0  0  0
    9.6773    3.1838    1.6200 H   0  0  0  0  0  0  0  0  0  0  0  0
    5.9104   -1.9039   -0.5770 H   0  0  0  0  0  0  0  0  0  0  0  0
    5.6155   -2.8006    0.8075 H   0  0  0  0  0  0  0  0  0  0  0  0
  1  2  1  0
  2  3  1  0
  3  4  1  0
  4  5  1  0
  5  6  1  0
  6  7  1  0
  7  8  1  0
  8  9  1  0
  9 10  1  0
 10 11  1  0
 11 12  1  0
 12 13  1  0
 13 14  1  0
 14 15  2  0
 14 16  1  0
 16 17  1  0
 17 18  1  0
 18 19  1  0
 19 20  2  0
 19 21  1  0
 19 22  1  0
 16 23  1  0
  1 24  1  0
  1 25  1  0
  1 26  1  0
  2 27  1  0
  2 28  1  0
  3 29  1  0
  3 30  1  0
  4 31  1  0
  4 32  1  0
  5 33  1  0
  5 34  1  0
  6 35  1  0
  6 36  1  0
  7 37  1  0
  7 38  1  0
  8 39  1  0
  8 40  1  0
  9 41  1  0
  9 42  1  0
 10 43  1  0
 10 44  1  0
 11 45  1  0
 11 46  1  0
 12 47  1  0
 12 48  1  0
 13 49  1  0
 16 50  1  1
 17 51  1  0
 17 52  1  0
 21 53  1  0
 22 54  1  0
 23 55  1  0
 23 56  1  0
M  END
>  <Ligand ID>  (1) 
LIG0004278

>  <Ligand>  (1) 
CHEMBL324358

>  <SMILES>  (1) 
CCCCCCCCCCCCNC(=O)[C@H](COP(=O)(O)O)N

>  <CID>  (1) 
44342221.0

>  <ChEMBL ID>  (1) 
nan

>  <InChiKey>  (1) 
BDKXPSCUPFJXEP-AWEZNQCLSA-N

>  <InChi>  (1) 
InChI=1S/C15H33N2O5P/c1-2-3-4-5-6-7-8-9-10-11-12-17-15(18)14(16)13-22-23(19,20)21/h14H,2-13,16H2,1H3,(H,17,18)(H2,19,20,21)/t14-/m0/s1

>  <IUPAC Name>  (1) 
[(2S)-2-amino-3-(dodecylamino)-3-oxopropyl] dihydrogen phosphate

$$$$
