
     RDKit          3D

 43 45  0  0  0  0  0  0  0  0999 V2000
    0.8030    0.8156    1.2553 O   0  0  0  0  0  0  0  0  0  0  0  0
    1.0801   -0.0484    0.3874 C   0  0  0  0  0  0  0  0  0  0  0  0
    0.1460   -0.9880   -0.1993 C   0  0  0  0  0  0  0  0  0  0  0  0
    0.5630   -1.8666   -1.1741 C   0  0  0  0  0  0  0  0  0  0  0  0
   -0.2801   -2.7857   -1.7864 C   0  0  0  0  0  0  0  0  0  0  0  0
   -1.6045   -2.8525   -1.4288 C   0  0  0  0  0  0  0  0  0  0  0  0
   -2.0271   -1.9729   -0.4510 C   0  0  0  0  0  0  0  0  0  0  0  0
   -1.1935   -1.0578    0.1608 C   0  0  0  0  0  0  0  0  0  0  0  0
   -1.7630   -0.2512    1.1808 N   0  0  0  0  0  0  0  0  0  0  0  0
   -3.1650   -0.2947    1.5503 C   0  0  0  0  0  0  0  0  0  0  0  0
   -4.0531    0.4719    0.6499 C   0  0  0  0  0  0  0  0  0  0  0  0
   -4.8939    1.3645    1.1358 N   0  0  0  0  0  0  0  0  0  0  0  0
   -5.6495    1.9791    0.0811 C   0  0  0  0  0  0  0  0  0  0  0  0
   -5.5258    0.9872   -1.0684 C   0  0  0  0  0  0  0  0  0  0  0  0
   -4.1954    0.4328   -0.7598 N   0  0  0  0  0  0  0  0  0  0  0  0
    2.4415   -0.0670   -0.0227 N   0  0  0  0  0  0  0  0  0  0  0  0
    3.3643    0.9003    0.5925 C   0  0  0  0  0  0  0  0  0  0  0  0
    3.9625    1.7141   -0.5250 C   0  0  0  0  0  0  0  0  0  0  0  0
    5.0609    0.7971   -1.0217 C   0  0  0  0  0  0  0  0  0  0  0  0
    5.7438    0.4470    0.3064 C   0  0  0  0  0  0  0  0  0  0  0  0
    4.5510    0.1447    1.1941 C   0  0  0  0  0  0  0  0  0  0  0  0
    1.5958   -1.9082   -1.5437 H   0  0  0  0  0  0  0  0  0  0  0  0
    0.0696   -3.4644   -2.5482 H   0  0  0  0  0  0  0  0  0  0  0  0
   -2.2520   -3.5630   -1.9037 H   0  0  0  0  0  0  0  0  0  0  0  0
   -3.0945   -2.0602   -0.1959 H   0  0  0  0  0  0  0  0  0  0  0  0
   -1.2016    0.4420    1.7498 H   0  0  0  0  0  0  0  0  0  0  0  0
   -3.2970    0.0960    2.5903 H   0  0  0  0  0  0  0  0  0  0  0  0
   -3.5054   -1.3524    1.6190 H   0  0  0  0  0  0  0  0  0  0  0  0
   -6.7115    2.0658    0.4103 H   0  0  0  0  0  0  0  0  0  0  0  0
   -5.2853    2.9748   -0.1891 H   0  0  0  0  0  0  0  0  0  0  0  0
   -5.5405    1.4968   -2.0421 H   0  0  0  0  0  0  0  0  0  0  0  0
   -6.2392    0.1579   -0.9569 H   0  0  0  0  0  0  0  0  0  0  0  0
   -3.5503    0.1082   -1.4843 H   0  0  0  0  0  0  0  0  0  0  0  0
    2.8606   -0.6987   -0.7185 H   0  0  0  0  0  0  0  0  0  0  0  0
    2.8839    1.5504    1.3233 H   0  0  0  0  0  0  0  0  0  0  0  0
    3.2366    1.9642   -1.3229 H   0  0  0  0  0  0  0  0  0  0  0  0
    4.4648    2.5842   -0.0702 H   0  0  0  0  0  0  0  0  0  0  0  0
    5.7828    1.3230   -1.6874 H   0  0  0  0  0  0  0  0  0  0  0  0
    4.6629   -0.1324   -1.4885 H   0  0  0  0  0  0  0  0  0  0  0  0
    6.4328   -0.3979    0.2144 H   0  0  0  0  0  0  0  0  0  0  0  0
    6.2164    1.3962    0.6637 H   0  0  0  0  0  0  0  0  0  0  0  0
    4.3828   -0.9563    1.1322 H   0  0  0  0  0  0  0  0  0  0  0  0
    4.7230    0.5045    2.2130 H   0  0  0  0  0  0  0  0  0  0  0  0
  1  2  2  0
  2  3  1  0
  3  4  2  0
  4  5  1  0
  5  6  2  0
  6  7  1  0
  7  8  2  0
  8  9  1  0
  9 10  1  0
 10 11  1  0
 11 12  2  0
 12 13  1  0
 13 14  1  0
 14 15  1  0
  2 16  1  0
 16 17  1  0
 17 18  1  0
 18 19  1  0
 19 20  1  0
 20 21  1  0
  8  3  1  0
 15 11  1  0
 21 17  1  0
  4 22  1  0
  5 23  1  0
  6 24  1  0
  7 25  1  0
  9 26  1  0
 10 27  1  0
 10 28  1  0
 13 29  1  0
 13 30  1  0
 14 31  1  0
 14 32  1  0
 15 33  1  0
 16 34  1  0
 17 35  1  0
 18 36  1  0
 18 37  1  0
 19 38  1  0
 19 39  1  0
 20 40  1  0
 20 41  1  0
 21 42  1  0
 21 43  1  0
M  END
>  <Ligand ID>  (1) 
LIG0003034

>  <Ligand>  (1) 
CHEMBL320910

>  <SMILES>  (1) 
O=C(c1ccccc1NCC1=NCCN1)NC1CCCC1

>  <CID>  (1) 
44329318.0

>  <ChEMBL ID>  (1) 
nan

>  <InChiKey>  (1) 
MASRFDLCKBXBBM-UHFFFAOYSA-N

>  <InChi>  (1) 
InChI=1S/C16H22N4O/c21-16(20-12-5-1-2-6-12)13-7-3-4-8-14(13)19-11-15-17-9-10-18-15/h3-4,7-8,12,19H,1-2,5-6,9-11H2,(H,17,18)(H,20,21)

>  <IUPAC Name>  (1) 
N-cyclopentyl-2-(4,5-dihydro-1H-imidazol-2-ylmethylamino)benzamide

$$$$
