
     RDKit          3D

 36 38  0  0  0  0  0  0  0  0999 V2000
   -1.9591    1.6125    2.3574 O   0  0  0  0  0  0  0  0  0  0  0  0
   -2.1256    1.1642    0.9104 S   0  0  0  0  0  0  0  0  0  0  0  0
   -1.5457    2.2026   -0.0115 O   0  0  0  0  0  0  0  0  0  0  0  0
   -3.8456    0.8998    0.5730 C   0  0  0  0  0  0  0  0  0  0  0  0
   -4.0021   -0.1544   -0.4578 C   0  0  0  0  0  0  0  0  0  0  0  0
   -3.4745   -1.4993   -0.0625 C   0  0  0  0  0  0  0  0  0  0  0  0
   -2.0222   -1.5044    0.2088 C   0  0  0  0  0  0  0  0  0  0  0  0
   -1.3487   -0.3780    0.6326 C   0  0  0  0  0  0  0  0  0  0  0  0
    0.0279   -0.4214    0.8725 C   0  0  0  0  0  0  0  0  0  0  0  0
    0.6315   -1.6409    0.6587 C   0  0  0  0  0  0  0  0  0  0  0  0
   -0.0161   -2.7692    0.2391 C   0  0  0  0  0  0  0  0  0  0  0  0
   -1.3654   -2.7246    0.0037 C   0  0  0  0  0  0  0  0  0  0  0  0
    0.7495    0.6978    1.3291 N   0  0  0  0  0  0  0  0  0  0  0  0
    2.1536    0.7719    1.5768 C   0  0  0  0  0  0  0  0  0  0  0  0
    2.9858    0.9433    0.3465 C   0  0  0  0  0  0  0  0  0  0  0  0
    3.7376    2.0099    0.2128 N   0  0  0  0  0  0  0  0  0  0  0  0
    4.4415    1.9548   -1.0430 C   0  0  0  0  0  0  0  0  0  0  0  0
    3.5780    0.9968   -1.8543 C   0  0  0  0  0  0  0  0  0  0  0  0
    3.1195    0.1084   -0.7836 N   0  0  0  0  0  0  0  0  0  0  0  0
   -4.3151    0.5727    1.5438 H   0  0  0  0  0  0  0  0  0  0  0  0
   -4.3574    1.8162    0.1934 H   0  0  0  0  0  0  0  0  0  0  0  0
   -3.5121    0.2080   -1.3842 H   0  0  0  0  0  0  0  0  0  0  0  0
   -5.0758   -0.2758   -0.6954 H   0  0  0  0  0  0  0  0  0  0  0  0
   -4.0295   -1.8980    0.8065 H   0  0  0  0  0  0  0  0  0  0  0  0
   -3.6602   -2.1847   -0.9133 H   0  0  0  0  0  0  0  0  0  0  0  0
    1.6806   -1.7094    0.8530 H   0  0  0  0  0  0  0  0  0  0  0  0
    0.5242   -3.6995    0.0901 H   0  0  0  0  0  0  0  0  0  0  0  0
   -1.9118   -3.5964   -0.3291 H   0  0  0  0  0  0  0  0  0  0  0  0
    0.1912    1.5750    1.5034 H   0  0  0  0  0  0  0  0  0  0  0  0
    2.3622    1.5430    2.3301 H   0  0  0  0  0  0  0  0  0  0  0  0
    2.5001   -0.1864    2.0552 H   0  0  0  0  0  0  0  0  0  0  0  0
    5.4473    1.5064   -0.8428 H   0  0  0  0  0  0  0  0  0  0  0  0
    4.5308    2.9348   -1.5377 H   0  0  0  0  0  0  0  0  0  0  0  0
    2.7463    1.5605   -2.3142 H   0  0  0  0  0  0  0  0  0  0  0  0
    4.2088    0.4654   -2.5721 H   0  0  0  0  0  0  0  0  0  0  0  0
    2.9506   -0.9016   -0.8886 H   0  0  0  0  0  0  0  0  0  0  0  0
  1  2  2  0
  2  3  2  0
  2  4  1  0
  4  5  1  0
  5  6  1  0
  6  7  1  0
  7  8  2  0
  8  9  1  0
  9 10  2  0
 10 11  1  0
 11 12  2  0
  9 13  1  0
 13 14  1  0
 14 15  1  0
 15 16  2  0
 16 17  1  0
 17 18  1  0
 18 19  1  0
  8  2  1  0
 19 15  1  0
 12  7  1  0
  4 20  1  0
  4 21  1  0
  5 22  1  0
  5 23  1  0
  6 24  1  0
  6 25  1  0
 10 26  1  0
 11 27  1  0
 12 28  1  0
 13 29  1  0
 14 30  1  0
 14 31  1  0
 17 32  1  0
 17 33  1  0
 18 34  1  0
 18 35  1  0
 19 36  1  0
M  END
>  <Ligand ID>  (1) 
LIG0000849

>  <Ligand>  (1) 
CHEMBL70740

>  <SMILES>  (1) 
O=S1(=O)CCCc2c1c(ccc2)NCC1=NCCN1

>  <CID>  (1) 
10923927.0

>  <ChEMBL ID>  (1) 
nan

>  <InChiKey>  (1) 
WAXAHQBOIDNYSY-UHFFFAOYSA-N

>  <InChi>  (1) 
InChI=1S/C13H17N3O2S/c17-19(18)8-2-4-10-3-1-5-11(13(10)19)16-9-12-14-6-7-15-12/h1,3,5,16H,2,4,6-9H2,(H,14,15)

>  <IUPAC Name>  (1) 
N-(4,5-dihydro-1H-imidazol-2-ylmethyl)-1,1-dioxo-3,4-dihydro-2H-thiochromen-8-amine

$$$$
