
     RDKit          3D

 35 37  0  0  0  0  0  0  0  0999 V2000
    3.7236   -1.2558   -0.2104 C   0  0  0  0  0  0  0  0  0  0  0  0
    3.1443   -0.5569    0.9659 C   0  0  0  0  0  0  0  0  0  0  0  0
    2.2719    0.5823    0.6964 C   0  0  0  0  0  0  0  0  0  0  0  0
    2.7760    1.8915    0.7660 C   0  0  0  0  0  0  0  0  0  0  0  0
    2.0399    2.9964    0.5023 C   0  0  0  0  0  0  0  0  0  0  0  0
    0.7384    2.8886    0.1468 C   0  0  0  0  0  0  0  0  0  0  0  0
    0.1658    1.6130    0.0571 C   0  0  0  0  0  0  0  0  0  0  0  0
    0.9390    0.4935    0.3323 C   0  0  0  0  0  0  0  0  0  0  0  0
    0.3007   -0.7893    0.2341 C   0  0  0  0  0  0  0  0  0  0  0  0
    0.9578   -1.8231    0.4772 O   0  0  0  0  0  0  0  0  0  0  0  0
   -1.0753   -0.9121   -0.1349 N   0  0  0  0  0  0  0  0  0  0  0  0
   -1.7815    0.2108   -0.6632 C   0  0  2  0  0  0  0  0  0  0  0  0
   -1.2488    1.5544   -0.3257 C   0  0  0  0  0  0  0  0  0  0  0  0
   -3.2328    0.1753   -0.1909 C   0  0  0  0  0  0  0  0  0  0  0  0
   -3.7722   -1.1530   -0.3633 N   0  0  0  0  0  0  0  0  0  0  0  0
   -3.1092   -2.0941    0.5001 C   0  0  0  0  0  0  0  0  0  0  0  0
   -1.6741   -2.2206    0.0519 C   0  0  0  0  0  0  0  0  0  0  0  0
    3.1046   -1.4574   -1.0713 H   0  0  0  0  0  0  0  0  0  0  0  0
    4.5637   -0.6028   -0.6132 H   0  0  0  0  0  0  0  0  0  0  0  0
    4.2745   -2.1534    0.2010 H   0  0  0  0  0  0  0  0  0  0  0  0
    4.0562   -0.1352    1.4967 H   0  0  0  0  0  0  0  0  0  0  0  0
    2.7841   -1.2337    1.7691 H   0  0  0  0  0  0  0  0  0  0  0  0
    3.8311    2.0177    1.0554 H   0  0  0  0  0  0  0  0  0  0  0  0
    2.4945    3.9684    0.5793 H   0  0  0  0  0  0  0  0  0  0  0  0
    0.1763    3.7851   -0.0590 H   0  0  0  0  0  0  0  0  0  0  0  0
   -1.8029    0.1026   -1.7698 H   0  0  0  0  0  0  0  0  0  0  0  0
   -1.8392    2.0026    0.5209 H   0  0  0  0  0  0  0  0  0  0  0  0
   -1.3649    2.2291   -1.2264 H   0  0  0  0  0  0  0  0  0  0  0  0
   -3.8363    0.8693   -0.8071 H   0  0  0  0  0  0  0  0  0  0  0  0
   -3.2733    0.5394    0.8409 H   0  0  0  0  0  0  0  0  0  0  0  0
   -4.7941   -1.1177   -0.2786 H   0  0  0  0  0  0  0  0  0  0  0  0
   -3.5844   -3.0889    0.3136 H   0  0  0  0  0  0  0  0  0  0  0  0
   -3.1717   -1.8080    1.5677 H   0  0  0  0  0  0  0  0  0  0  0  0
   -1.1274   -2.7974    0.8267 H   0  0  0  0  0  0  0  0  0  0  0  0
   -1.6541   -2.7206   -0.9394 H   0  0  0  0  0  0  0  0  0  0  0  0
  1  2  1  0
  2  3  1  0
  3  4  2  0
  4  5  1  0
  5  6  2  0
  6  7  1  0
  7  8  2  0
  8  9  1  0
  9 10  2  0
  9 11  1  0
 11 12  1  0
 12 13  1  0
 12 14  1  0
 14 15  1  0
 15 16  1  0
 16 17  1  0
  8  3  1  0
 17 11  1  0
 13  7  1  0
  1 18  1  0
  1 19  1  0
  1 20  1  0
  2 21  1  0
  2 22  1  0
  4 23  1  0
  5 24  1  0
  6 25  1  0
 12 26  1  6
 13 27  1  0
 13 28  1  0
 14 29  1  0
 14 30  1  0
 15 31  1  0
 16 32  1  0
 16 33  1  0
 17 34  1  0
 17 35  1  0
M  END
>  <Ligand ID>  (1) 
LIG0004117

>  <Ligand>  (1) 
SCHEMBL3628836

>  <SMILES>  (1) 
CCc1cccc2c1C(=O)N1[C@H](C2)CNCC1

>  <CID>  (1) 
24826867.0

>  <ChEMBL ID>  (1) 
nan

>  <InChiKey>  (1) 
CDLMZKDZYUQZKZ-GFCCVEGCSA-N

>  <InChi>  (1) 
InChI=1S/C14H18N2O/c1-2-10-4-3-5-11-8-12-9-15-6-7-16(12)14(17)13(10)11/h3-5,12,15H,2,6-9H2,1H3/t12-/m1/s1

>  <IUPAC Name>  (1) 
(11aR)-7-ethyl-1,2,3,4,11,11a-hexahydropyrazino[1,2-b]isoquinolin-6-one

$$$$
