
     RDKit          3D

 53 56  0  0  0  0  0  0  0  0999 V2000
    7.7490    1.9545   -1.0922 C   0  0  0  0  0  0  0  0  0  0  0  0
    6.8870    1.1669   -0.2467 N   0  0  0  0  0  0  0  0  0  0  0  0
    5.4926    1.4350   -0.2502 C   0  0  0  0  0  0  0  0  0  0  0  0
    4.9484    2.3213   -0.9465 O   0  0  0  0  0  0  0  0  0  0  0  0
    4.6376    0.6062    0.6306 C   0  0  1  0  0  0  0  0  0  0  0  0
    3.2929    0.9670    0.5363 O   0  0  0  0  0  0  0  0  0  0  0  0
    2.7429    0.0056    1.4006 C   0  0  2  0  0  0  0  0  0  0  0  0
    3.2889   -1.3030    0.8945 C   0  0  1  0  0  0  0  0  0  0  0  0
    4.5629   -0.8435    0.1919 C   0  0  2  0  0  0  0  0  0  0  0  0
    5.6664   -1.5769    0.5856 O   0  0  0  0  0  0  0  0  0  0  0  0
    3.6670   -2.1547    1.9268 O   0  0  0  0  0  0  0  0  0  0  0  0
    1.3274    0.0492    1.5034 N   0  0  0  0  0  0  0  0  0  0  0  0
    0.6518    0.5263    2.5888 C   0  0  0  0  0  0  0  0  0  0  0  0
   -0.6575    0.4357    2.3865 N   0  0  0  0  0  0  0  0  0  0  0  0
   -0.8271   -0.1014    1.1672 C   0  0  0  0  0  0  0  0  0  0  0  0
    0.4141   -0.3405    0.6208 C   0  0  0  0  0  0  0  0  0  0  0  0
    0.4801   -0.8737   -0.5901 N   0  0  0  0  0  0  0  0  0  0  0  0
   -0.6667   -1.1657   -1.2501 C   0  0  0  0  0  0  0  0  0  0  0  0
   -0.5029   -1.7390   -2.5524 N   0  0  0  0  0  0  0  0  0  0  0  0
   -1.8850   -0.9344   -0.7215 N   0  0  0  0  0  0  0  0  0  0  0  0
   -2.0076   -0.4022    0.4874 C   0  0  0  0  0  0  0  0  0  0  0  0
   -3.2833   -0.1515    1.0603 N   0  0  0  0  0  0  0  0  0  0  0  0
   -4.4831   -0.4802    0.3168 C   0  0  0  0  0  0  0  0  0  0  0  0
   -5.6666   -0.1014    1.1807 C   0  0  0  0  0  0  0  0  0  0  0  0
   -6.9274   -0.4760    0.4229 C   0  0  0  0  0  0  0  0  0  0  0  0
   -7.0478    0.5264   -0.7030 C   0  0  0  0  0  0  0  0  0  0  0  0
   -5.7760    1.2907   -0.9241 C   0  0  0  0  0  0  0  0  0  0  0  0
   -4.5348    0.4436   -0.8849 C   0  0  0  0  0  0  0  0  0  0  0  0
    8.8144    1.6968   -0.9466 H   0  0  0  0  0  0  0  0  0  0  0  0
    7.6717    3.0310   -0.7610 H   0  0  0  0  0  0  0  0  0  0  0  0
    7.4634    1.8642   -2.1514 H   0  0  0  0  0  0  0  0  0  0  0  0
    7.3113    0.4189    0.3467 H   0  0  0  0  0  0  0  0  0  0  0  0
    4.9373    0.7151    1.6829 H   0  0  0  0  0  0  0  0  0  0  0  0
    3.2346    0.1981    2.3889 H   0  0  0  0  0  0  0  0  0  0  0  0
    2.6196   -1.8303    0.1944 H   0  0  0  0  0  0  0  0  0  0  0  0
    4.3810   -0.8621   -0.8929 H   0  0  0  0  0  0  0  0  0  0  0  0
    6.2400   -1.7091   -0.2026 H   0  0  0  0  0  0  0  0  0  0  0  0
    4.3348   -2.8162    1.5917 H   0  0  0  0  0  0  0  0  0  0  0  0
    1.0928    0.9272    3.4981 H   0  0  0  0  0  0  0  0  0  0  0  0
   -0.2087   -2.7458   -2.5654 H   0  0  0  0  0  0  0  0  0  0  0  0
   -0.6669   -1.1862   -3.4272 H   0  0  0  0  0  0  0  0  0  0  0  0
   -3.3066    0.2728    2.0238 H   0  0  0  0  0  0  0  0  0  0  0  0
   -4.5583   -1.5315    0.0330 H   0  0  0  0  0  0  0  0  0  0  0  0
   -5.6397    0.9571    1.4757 H   0  0  0  0  0  0  0  0  0  0  0  0
   -5.6755   -0.7234    2.1007 H   0  0  0  0  0  0  0  0  0  0  0  0
   -6.7653   -1.4654   -0.0378 H   0  0  0  0  0  0  0  0  0  0  0  0
   -7.8178   -0.4459    1.0644 H   0  0  0  0  0  0  0  0  0  0  0  0
   -7.3621    0.0580   -1.6603 H   0  0  0  0  0  0  0  0  0  0  0  0
   -7.8421    1.2908   -0.4776 H   0  0  0  0  0  0  0  0  0  0  0  0
   -5.7609    2.1476   -0.2311 H   0  0  0  0  0  0  0  0  0  0  0  0
   -5.8335    1.6962   -1.9712 H   0  0  0  0  0  0  0  0  0  0  0  0
   -3.6697    1.1309   -0.9191 H   0  0  0  0  0  0  0  0  0  0  0  0
   -4.5371   -0.1729   -1.8085 H   0  0  0  0  0  0  0  0  0  0  0  0
  1  2  1  0
  2  3  1  0
  3  4  2  0
  3  5  1  0
  5  6  1  0
  6  7  1  0
  7  8  1  0
  8  9  1  0
  9 10  1  0
  8 11  1  0
  7 12  1  0
 12 13  1  0
 13 14  2  0
 14 15  1  0
 15 16  2  0
 16 17  1  0
 17 18  2  0
 18 19  1  0
 18 20  1  0
 20 21  2  0
 21 22  1  0
 22 23  1  0
 23 24  1  0
 24 25  1  0
 25 26  1  0
 26 27  1  0
 27 28  1  0
  9  5  1  0
 16 12  1  0
 28 23  1  0
 21 15  1  0
  1 29  1  0
  1 30  1  0
  1 31  1  0
  2 32  1  0
  5 33  1  1
  7 34  1  1
  8 35  1  6
  9 36  1  6
 10 37  1  0
 11 38  1  0
 13 39  1  0
 19 40  1  0
 19 41  1  0
 22 42  1  0
 23 43  1  0
 24 44  1  0
 24 45  1  0
 25 46  1  0
 25 47  1  0
 26 48  1  0
 26 49  1  0
 27 50  1  0
 27 51  1  0
 28 52  1  0
 28 53  1  0
M  END
>  <Ligand ID>  (1) 
LIG0001979

>  <Ligand>  (1) 
CHEMBL3133159

>  <SMILES>  (1) 
CNC(=O)[C@H]1O[C@H]([C@@H]([C@@H]1O)O)n1cnc2c1nc(N)nc2NC1CCCCC1

>  <CID>  (1) 
76325694.0

>  <ChEMBL ID>  (1) 
nan

>  <InChiKey>  (1) 
INGLINQFJUMLPQ-MEQWQQMJSA-N

>  <InChi>  (1) 
InChI=1S/C17H25N7O4/c1-19-15(27)12-10(25)11(26)16(28-12)24-7-20-9-13(22-17(18)23-14(9)24)21-8-5-3-2-4-6-8/h7-8,10-12,16,25-26H,2-6H2,1H3,(H,19,27)(H3,18,21,22,23)/t10-,11+,12-,16+/m0/s1

>  <IUPAC Name>  (1) 
(2S,3S,4R,5R)-5-[2-amino-6-(cyclohexylamino)purin-9-yl]-3,4-dihydroxy-N-methyloxolane-2-carboxamide

$$$$
