
     RDKit          3D

 95101  0  0  0  0  0  0  0  0999 V2000
   -1.1439   -0.1624    0.0352 C   0  0  0  0  0  0  0  0  0  0  0  0
    0.5134    0.4313   -0.0750 S   0  0  0  0  0  0  0  0  0  0  0  0
    0.5991    1.4812   -1.1234 O   0  0  0  0  0  0  0  0  0  0  0  0
    0.9153    1.0561    1.2427 O   0  0  0  0  0  0  0  0  0  0  0  0
    1.4849   -0.8680   -0.4685 O   0  0  0  0  0  0  0  0  0  0  0  0
    2.7960    2.2043   -3.2301 C   0  0  0  0  0  0  0  0  0  0  0  0
    2.2464    1.8238   -1.9675 N   0  0  0  0  0  0  0  0  0  0  0  0
    1.4014    0.6733   -1.9928 C   0  0  0  0  0  0  0  0  0  0  0  0
    2.0806   -0.6288   -1.7142 C   0  0  1  0  0  0  0  0  0  0  0  0
    3.1408   -0.5461   -0.6404 C   0  0  0  0  0  0  0  0  0  0  0  0
    4.0245    0.6441   -0.9007 C   0  0  1  0  0  0  0  0  0  0  0  0
    3.1549    1.8705   -0.8595 C   0  0  1  0  0  0  0  0  0  0  0  0
    3.9088    3.1552   -0.8540 C   0  0  0  0  0  0  0  0  0  0  0  0
    5.0089    3.1785    0.1325 C   0  0  0  0  0  0  0  0  0  0  0  0
    5.7207    4.1328    0.8269 C   0  0  0  0  0  0  0  0  0  0  0  0
    6.6407    3.4993    1.6129 N   0  0  0  0  0  0  0  0  0  0  0  0
    6.5427    2.1684    1.4456 C   0  0  0  0  0  0  0  0  0  0  0  0
    5.5358    1.9699    0.5321 C   0  0  0  0  0  0  0  0  0  0  0  0
    5.1155    0.7500    0.0827 C   0  0  0  0  0  0  0  0  0  0  0  0
    5.7562   -0.3878    0.5883 C   0  0  0  0  0  0  0  0  0  0  0  0
    6.7799   -0.2173    1.5152 C   0  0  0  0  0  0  0  0  0  0  0  0
    7.1723    1.0487    1.9423 C   0  0  0  0  0  0  0  0  0  0  0  0
    1.0352   -1.5939   -1.2249 C   0  0  0  0  0  0  0  0  0  0  0  0
    0.8817   -2.6242   -1.9152 O   0  0  0  0  0  0  0  0  0  0  0  0
    0.3307   -1.2731   -0.0621 N   0  0  0  0  0  0  0  0  0  0  0  0
   -0.6854   -2.0139    0.6098 C   0  0  2  0  0  0  0  0  0  0  0  0
   -1.7426   -2.3344   -0.2612 O   0  0  0  0  0  0  0  0  0  0  0  0
   -2.8116   -1.5406    0.0014 C   0  0  2  0  0  0  0  0  0  0  0  0
   -2.6791   -1.0016    1.3225 N   0  0  0  0  0  0  0  0  0  0  0  0
   -1.3037   -1.1613    1.6653 C   0  0  0  0  0  0  0  0  0  0  0  0
   -0.6631   -0.7057    2.6459 O   0  0  0  0  0  0  0  0  0  0  0  0
   -3.7493   -0.4282    2.1007 C   0  0  1  0  0  0  0  0  0  0  0  0
   -3.4602    1.0033    2.4776 C   0  0  0  0  0  0  0  0  0  0  0  0
   -3.2725    1.9139    1.3476 C   0  0  0  0  0  0  0  0  0  0  0  0
   -2.0540    2.1760    0.7438 C   0  0  0  0  0  0  0  0  0  0  0  0
   -1.9756    3.0633   -0.3322 C   0  0  0  0  0  0  0  0  0  0  0  0
   -3.1127    3.6944   -0.8121 C   0  0  0  0  0  0  0  0  0  0  0  0
   -4.3463    3.4366   -0.2098 C   0  0  0  0  0  0  0  0  0  0  0  0
   -4.4096    2.5583    0.8519 C   0  0  0  0  0  0  0  0  0  0  0  0
   -5.0567   -0.6242    1.4360 C   0  0  0  0  0  0  0  0  0  0  0  0
   -6.0833   -0.1592    2.0209 O   0  0  0  0  0  0  0  0  0  0  0  0
   -5.1606   -1.3063    0.1916 N   0  0  0  0  0  0  0  0  0  0  0  0
   -4.1421   -2.2994   -0.0951 C   0  0  1  0  0  0  0  0  0  0  0  0
   -4.4088   -2.8072   -1.4770 C   0  0  0  0  0  0  0  0  0  0  0  0
   -5.8109   -2.3262   -1.8314 C   0  0  0  0  0  0  0  0  0  0  0  0
   -6.1120   -1.2019   -0.8789 C   0  0  0  0  0  0  0  0  0  0  0  0
   -2.9298   -0.4836   -0.9217 O   0  0  0  0  0  0  0  0  0  0  0  0
   -0.2749   -3.2913    1.2601 C   0  0  0  0  0  0  0  0  0  0  0  0
    0.2836   -4.3334    0.3388 C   0  0  0  0  0  0  0  0  0  0  0  0
   -1.5027   -3.9513    1.9257 C   0  0  0  0  0  0  0  0  0  0  0  0
   -1.4251   -0.5764   -0.9648 H   0  0  0  0  0  0  0  0  0  0  0  0
   -1.2428   -0.9492    0.8084 H   0  0  0  0  0  0  0  0  0  0  0  0
   -1.7829    0.7229    0.2778 H   0  0  0  0  0  0  0  0  0  0  0  0
    2.0820   -1.1355    0.2677 H   0  0  0  0  0  0  0  0  0  0  0  0
    3.8889    2.0550   -3.3163 H   0  0  0  0  0  0  0  0  0  0  0  0
    2.6292    3.3143   -3.3502 H   0  0  0  0  0  0  0  0  0  0  0  0
    2.3313    1.6734   -4.0879 H   0  0  0  0  0  0  0  0  0  0  0  0
    0.9907    0.5961   -3.0403 H   0  0  0  0  0  0  0  0  0  0  0  0
    0.5360    0.8769   -1.3460 H   0  0  0  0  0  0  0  0  0  0  0  0
    2.5601   -1.0105   -2.6097 H   0  0  0  0  0  0  0  0  0  0  0  0
    3.6820   -1.5209   -0.6700 H   0  0  0  0  0  0  0  0  0  0  0  0
    2.6306   -0.4010    0.3292 H   0  0  0  0  0  0  0  0  0  0  0  0
    4.4591    0.5646   -1.9227 H   0  0  0  0  0  0  0  0  0  0  0  0
    2.5254    1.7710    0.0680 H   0  0  0  0  0  0  0  0  0  0  0  0
    4.2116    3.4525   -1.8660 H   0  0  0  0  0  0  0  0  0  0  0  0
    3.1819    3.9563   -0.5289 H   0  0  0  0  0  0  0  0  0  0  0  0
    5.5445    5.1843    0.7319 H   0  0  0  0  0  0  0  0  0  0  0  0
    7.3104    3.9741    2.2413 H   0  0  0  0  0  0  0  0  0  0  0  0
    5.4794   -1.3627    0.2819 H   0  0  0  0  0  0  0  0  0  0  0  0
    7.3166   -1.0546    1.9452 H   0  0  0  0  0  0  0  0  0  0  0  0
    7.9681    1.1833    2.6630 H   0  0  0  0  0  0  0  0  0  0  0  0
    0.5940   -0.3376    0.3880 H   0  0  0  0  0  0  0  0  0  0  0  0
   -3.8543   -0.9646    3.0901 H   0  0  0  0  0  0  0  0  0  0  0  0
   -2.5350    0.9509    3.1186 H   0  0  0  0  0  0  0  0  0  0  0  0
   -4.2402    1.4023    3.1561 H   0  0  0  0  0  0  0  0  0  0  0  0
   -1.1732    1.6840    1.1192 H   0  0  0  0  0  0  0  0  0  0  0  0
   -1.0007    3.2639   -0.8040 H   0  0  0  0  0  0  0  0  0  0  0  0
   -3.0839    4.3803   -1.6361 H   0  0  0  0  0  0  0  0  0  0  0  0
   -5.2290    3.9439   -0.6028 H   0  0  0  0  0  0  0  0  0  0  0  0
   -5.3934    2.3971    1.2794 H   0  0  0  0  0  0  0  0  0  0  0  0
   -4.1058   -3.1132    0.6614 H   0  0  0  0  0  0  0  0  0  0  0  0
   -3.6503   -2.4035   -2.2062 H   0  0  0  0  0  0  0  0  0  0  0  0
   -4.3181   -3.9100   -1.5124 H   0  0  0  0  0  0  0  0  0  0  0  0
   -6.5435   -3.1575   -1.7816 H   0  0  0  0  0  0  0  0  0  0  0  0
   -5.7457   -1.8751   -2.8510 H   0  0  0  0  0  0  0  0  0  0  0  0
   -6.0720   -0.1961   -1.3829 H   0  0  0  0  0  0  0  0  0  0  0  0
   -7.1544   -1.2505   -0.4604 H   0  0  0  0  0  0  0  0  0  0  0  0
   -2.0313   -0.1795   -1.2426 H   0  0  0  0  0  0  0  0  0  0  0  0
    0.4844   -3.1213    2.0690 H   0  0  0  0  0  0  0  0  0  0  0  0
    0.2346   -5.3565    0.8766 H   0  0  0  0  0  0  0  0  0  0  0  0
    1.3678   -4.2253    0.1309 H   0  0  0  0  0  0  0  0  0  0  0  0
   -0.3317   -4.5294   -0.5556 H   0  0  0  0  0  0  0  0  0  0  0  0
   -1.1090   -4.6022    2.7288 H   0  0  0  0  0  0  0  0  0  0  0  0
   -1.9887   -4.6087    1.1736 H   0  0  0  0  0  0  0  0  0  0  0  0
   -2.1760   -3.1670    2.2842 H   0  0  0  0  0  0  0  0  0  0  0  0
  1  2  1  0
  2  3  2  0
  2  4  2  0
  2  5  1  0
  6  7  1  0
  7  8  1  0
  8  9  1  0
  9 10  1  0
 10 11  1  0
 11 12  1  0
 12 13  1  0
 13 14  1  0
 14 15  2  0
 15 16  1  0
 16 17  1  0
 17 18  2  0
 18 19  1  0
 19 20  2  0
 20 21  1  0
 21 22  2  0
  9 23  1  0
 23 24  2  0
 23 25  1  0
 26 25  1  6
 26 27  1  0
 27 28  1  0
 28 29  1  0
 29 30  1  0
 30 31  2  0
 29 32  1  0
 32 33  1  0
 33 34  1  0
 34 35  2  0
 35 36  1  0
 36 37  2  0
 37 38  1  0
 38 39  2  0
 32 40  1  0
 40 41  2  0
 40 42  1  0
 42 43  1  0
 43 44  1  0
 44 45  1  0
 45 46  1  0
 28 47  1  6
 26 48  1  0
 48 49  1  0
 48 50  1  0
 12  7  1  0
 18 14  1  0
 30 26  1  0
 39 34  1  0
 46 42  1  0
 19 11  1  0
 43 28  1  0
 22 17  1  0
  1 51  1  0
  1 52  1  0
  1 53  1  0
  5 54  1  0
  6 55  1  0
  6 56  1  0
  6 57  1  0
  8 58  1  0
  8 59  1  0
  9 60  1  6
 10 61  1  0
 10 62  1  0
 11 63  1  6
 12 64  1  1
 13 65  1  0
 13 66  1  0
 15 67  1  0
 16 68  1  0
 20 69  1  0
 21 70  1  0
 22 71  1  0
 25 72  1  0
 32 73  1  1
 33 74  1  0
 33 75  1  0
 35 76  1  0
 36 77  1  0
 37 78  1  0
 38 79  1  0
 39 80  1  0
 43 81  1  1
 44 82  1  0
 44 83  1  0
 45 84  1  0
 45 85  1  0
 46 86  1  0
 46 87  1  0
 47 88  1  0
 48 89  1  0
 49 90  1  0
 49 91  1  0
 49 92  1  0
 50 93  1  0
 50 94  1  0
 50 95  1  0
M  END
>  <Ligand ID>  (1) 
LIG0003409

>  <Ligand>  (1) 
DIHYDROERGOCRISTINE MESYLATE

>  <SMILES>  (1) 
CS(=O)(=O)O.CN1C[C@@H](C[C@H]2[C@H]1Cc1c[nH]c3c1c2ccc3)C(=O)N[C@@]1(O[C@@]2(N(C1=O)[C@@H](Cc1ccccc1)C(=O)N1[C@H]2CCC1)O)C(C)C

>  <CID>  (1) 
444034.0

>  <ChEMBL ID>  (1) 
nan

>  <InChiKey>  (1) 
SPXACGZWWVIDGR-SPZWACKZSA-N

>  <InChi>  (1) 
InChI=1S/C35H41N5O5.CH4O3S/c1-20(2)34(37-31(41)23-16-25-24-11-7-12-26-30(24)22(18-36-26)17-27(25)38(3)19-23)33(43)40-28(15-21-9-5-4-6-10-21)32(42)39-14-8-13-29(39)35(40,44)45-34;1-5(2,3)4/h4-7,9-12,18,20,23,25,27-29,36,44H,8,13-17,19H2,1-3H3,(H,37,41);1H3,(H,2,3,4)/t23-,25-,27-,28+,29+,34-,35+;/m1./s1

>  <IUPAC Name>  (1) 
(6aR,9R,10aR)-N-[(1S,2S,4R,7S)-7-benzyl-2-hydroxy-5,8-dioxo-4-propan-2-yl-3-oxa-6,9-diazatricyclo[7.3.0.02,6]dodecan-4-yl]-7-methyl-6,6a,8,9,10,10a-hexahydro-4H-indolo[4,3-fg]quinoline-9-carboxamide;methanesulfonic acid

$$$$
