
     RDKit          3D

 56 57  0  0  0  0  0  0  0  0999 V2000
   -8.5040   -0.5250    0.9724 O   0  0  0  0  0  0  0  0  0  0  0  0
   -8.0977   -1.4760    0.0521 C   0  0  0  0  0  0  0  0  0  0  0  0
   -9.0181   -2.0749   -0.5925 O   0  0  0  0  0  0  0  0  0  0  0  0
   -6.6923   -1.8303   -0.2201 C   0  0  0  0  0  0  0  0  0  0  0  0
   -5.8136   -0.9917    0.6915 C   0  0  0  0  0  0  0  0  0  0  0  0
   -6.0996    0.3853    0.3686 N   0  0  0  0  0  0  0  0  0  0  0  0
   -5.3318    1.3411    1.0947 C   0  0  0  0  0  0  0  0  0  0  0  0
   -3.9041    1.2283    0.6236 C   0  0  0  0  0  0  0  0  0  0  0  0
   -2.9252    0.9071    1.4853 C   0  0  0  0  0  0  0  0  0  0  0  0
   -1.5351    0.7930    1.0598 C   0  0  0  0  0  0  0  0  0  0  0  0
   -0.9357    1.7026    0.2197 C   0  0  0  0  0  0  0  0  0  0  0  0
    0.3689    1.6079   -0.2092 C   0  0  0  0  0  0  0  0  0  0  0  0
    1.1618    0.5573    0.2013 C   0  0  0  0  0  0  0  0  0  0  0  0
    0.5956   -0.3747    1.0452 C   0  0  0  0  0  0  0  0  0  0  0  0
   -0.7278   -0.2726    1.4756 C   0  0  0  0  0  0  0  0  0  0  0  0
    2.4816    0.4645   -0.2345 O   0  0  0  0  0  0  0  0  0  0  0  0
    2.9351    1.4703   -1.0876 C   0  0  0  0  0  0  0  0  0  0  0  0
    4.3424    1.3894   -1.5561 C   0  0  0  0  0  0  0  0  0  0  0  0
    4.6378    0.1427   -2.2945 C   0  0  0  0  0  0  0  0  0  0  0  0
    4.5641   -1.1404   -1.5166 C   0  0  0  0  0  0  0  0  0  0  0  0
    5.5719   -1.1904   -0.4342 C   0  0  0  0  0  0  0  0  0  0  0  0
    5.4253   -0.7918    0.8472 C   0  0  0  0  0  0  0  0  0  0  0  0
    6.4632   -0.8828    1.7832 C   0  0  0  0  0  0  0  0  0  0  0  0
    7.6968   -1.3970    1.4064 C   0  0  0  0  0  0  0  0  0  0  0  0
    7.8586   -1.8051    0.1086 C   0  0  0  0  0  0  0  0  0  0  0  0
    6.8256   -1.7076   -0.7965 C   0  0  0  0  0  0  0  0  0  0  0  0
   -3.6610    1.4740   -0.8048 C   0  0  0  0  0  0  0  0  0  0  0  0
   -9.4495   -0.1637    1.0149 H   0  0  0  0  0  0  0  0  0  0  0  0
   -6.4622   -1.4839   -1.2704 H   0  0  0  0  0  0  0  0  0  0  0  0
   -6.4909   -2.9136   -0.0911 H   0  0  0  0  0  0  0  0  0  0  0  0
   -6.0708   -1.2143    1.7581 H   0  0  0  0  0  0  0  0  0  0  0  0
   -4.7653   -1.2847    0.5173 H   0  0  0  0  0  0  0  0  0  0  0  0
   -6.3162    0.5688   -0.6014 H   0  0  0  0  0  0  0  0  0  0  0  0
   -5.3402    1.1042    2.1896 H   0  0  0  0  0  0  0  0  0  0  0  0
   -5.6577    2.3880    0.9172 H   0  0  0  0  0  0  0  0  0  0  0  0
   -3.1478    0.7231    2.5366 H   0  0  0  0  0  0  0  0  0  0  0  0
   -1.4863    2.5797   -0.1454 H   0  0  0  0  0  0  0  0  0  0  0  0
    0.7465    2.3877   -0.8812 H   0  0  0  0  0  0  0  0  0  0  0  0
    1.2152   -1.1997    1.3692 H   0  0  0  0  0  0  0  0  0  0  0  0
   -1.1325   -1.0421    2.1477 H   0  0  0  0  0  0  0  0  0  0  0  0
    2.7335    2.4593   -0.5585 H   0  0  0  0  0  0  0  0  0  0  0  0
    2.2145    1.4998   -1.9635 H   0  0  0  0  0  0  0  0  0  0  0  0
    4.5061    2.2856   -2.2231 H   0  0  0  0  0  0  0  0  0  0  0  0
    5.0620    1.5254   -0.7041 H   0  0  0  0  0  0  0  0  0  0  0  0
    5.7092    0.2315   -2.6549 H   0  0  0  0  0  0  0  0  0  0  0  0
    3.9719    0.0593   -3.1883 H   0  0  0  0  0  0  0  0  0  0  0  0
    4.7721   -2.0159   -2.2074 H   0  0  0  0  0  0  0  0  0  0  0  0
    3.5344   -1.3524   -1.1414 H   0  0  0  0  0  0  0  0  0  0  0  0
    4.5131   -0.3945    1.2037 H   0  0  0  0  0  0  0  0  0  0  0  0
    6.3300   -0.5592    2.8005 H   0  0  0  0  0  0  0  0  0  0  0  0
    8.5088   -1.4687    2.1359 H   0  0  0  0  0  0  0  0  0  0  0  0
    8.8121   -2.2194   -0.2491 H   0  0  0  0  0  0  0  0  0  0  0  0
    7.0061   -2.0501   -1.8282 H   0  0  0  0  0  0  0  0  0  0  0  0
   -3.6866    2.5532   -0.9877 H   0  0  0  0  0  0  0  0  0  0  0  0
   -4.5321    1.0541   -1.3837 H   0  0  0  0  0  0  0  0  0  0  0  0
   -2.7800    0.9395   -1.2244 H   0  0  0  0  0  0  0  0  0  0  0  0
  1  2  1  0
  2  3  2  0
  2  4  1  0
  4  5  1  0
  5  6  1  0
  6  7  1  0
  7  8  1  0
  8  9  2  0
  9 10  1  0
 10 11  2  0
 11 12  1  0
 12 13  2  0
 13 14  1  0
 14 15  2  0
 13 16  1  0
 16 17  1  0
 17 18  1  0
 18 19  1  0
 19 20  1  0
 20 21  1  0
 21 22  2  0
 22 23  1  0
 23 24  2  0
 24 25  1  0
 25 26  2  0
  8 27  1  0
 15 10  1  0
 26 21  1  0
  1 28  1  0
  4 29  1  0
  4 30  1  0
  5 31  1  0
  5 32  1  0
  6 33  1  0
  7 34  1  0
  7 35  1  0
  9 36  1  0
 11 37  1  0
 12 38  1  0
 14 39  1  0
 15 40  1  0
 17 41  1  0
 17 42  1  0
 18 43  1  0
 18 44  1  0
 19 45  1  0
 19 46  1  0
 20 47  1  0
 20 48  1  0
 22 49  1  0
 23 50  1  0
 24 51  1  0
 25 52  1  0
 26 53  1  0
 27 54  1  0
 27 55  1  0
 27 56  1  0
M  END
>  <Ligand ID>  (1) 
LIG0005564

>  <Ligand>  (1) 
CHEMBL1797506

>  <SMILES>  (1) 
OC(=O)CCNC/C(=C/c1ccc(cc1)OCCCCc1ccccc1)/C

>  <CID>  (1) 
23121172.0

>  <ChEMBL ID>  (1) 
nan

>  <InChiKey>  (1) 
FPOGVZINQXODPA-HTXNQAPBSA-N

>  <InChi>  (1) 
InChI=1S/C23H29NO3/c1-19(18-24-15-14-23(25)26)17-21-10-12-22(13-11-21)27-16-6-5-9-20-7-3-2-4-8-20/h2-4,7-8,10-13,17,24H,5-6,9,14-16,18H2,1H3,(H,25,26)/b19-17+

>  <IUPAC Name>  (1) 
3-[[(E)-2-methyl-3-[4-(4-phenylbutoxy)phenyl]prop-2-enyl]amino]propanoic acid

$$$$
