
     RDKit          3D

 58 62  0  0  0  0  0  0  0  0999 V2000
   -5.7103   -3.4192   -0.7646 C   0  0  0  0  0  0  0  0  0  0  0  0
   -4.3338   -3.7247   -0.9166 O   0  0  0  0  0  0  0  0  0  0  0  0
   -3.4404   -2.6881   -0.6649 C   0  0  0  0  0  0  0  0  0  0  0  0
   -3.9301   -1.4385   -0.2872 C   0  0  0  0  0  0  0  0  0  0  0  0
   -3.0404   -0.4113   -0.0381 C   0  0  0  0  0  0  0  0  0  0  0  0
   -3.5355    0.7872    0.3305 N   0  0  0  0  0  0  0  0  0  0  0  0
   -2.6677    1.7890    0.5785 C   0  0  0  0  0  0  0  0  0  0  0  0
   -1.3487    1.5616    0.4505 N   0  0  0  0  0  0  0  0  0  0  0  0
   -0.8202    0.3802    0.0849 C   0  0  0  0  0  0  0  0  0  0  0  0
   -1.6835   -0.6483   -0.1700 C   0  0  0  0  0  0  0  0  0  0  0  0
   -1.2013   -1.8642   -0.5374 C   0  0  0  0  0  0  0  0  0  0  0  0
   -2.0730   -2.8928   -0.7878 C   0  0  0  0  0  0  0  0  0  0  0  0
   -1.6729   -4.1636   -1.1671 O   0  0  0  0  0  0  0  0  0  0  0  0
   -0.3609   -4.5959   -1.3522 C   0  0  0  0  0  0  0  0  0  0  0  0
    0.5896    0.3078   -0.0240 N   0  0  0  0  0  0  0  0  0  0  0  0
    1.3118    0.1234   -1.2557 C   0  0  0  0  0  0  0  0  0  0  0  0
    2.5372   -0.7396   -1.0732 C   0  0  0  0  0  0  0  0  0  0  0  0
    3.4021   -0.0808   -0.1105 N   0  0  0  0  0  0  0  0  0  0  0  0
    2.8218    0.6930    0.9455 C   0  0  0  0  0  0  0  0  0  0  0  0
    1.3602    0.4258    1.1930 C   0  0  0  0  0  0  0  0  0  0  0  0
    4.8237   -0.1804   -0.1764 C   0  0  0  0  0  0  0  0  0  0  0  0
    5.6490    0.5373    0.6862 C   0  0  0  0  0  0  0  0  0  0  0  0
    7.0265    0.4462    0.6341 C   0  0  0  0  0  0  0  0  0  0  0  0
    7.6384   -0.3746   -0.2925 C   0  0  0  0  0  0  0  0  0  0  0  0
    6.8523   -1.0908   -1.1518 C   0  0  0  0  0  0  0  0  0  0  0  0
    5.4754   -0.9903   -1.0886 C   0  0  0  0  0  0  0  0  0  0  0  0
   -3.1535    3.0914    0.9776 C   0  0  0  0  0  0  0  0  0  0  0  0
   -2.2635    4.1166    1.2302 C   0  0  0  0  0  0  0  0  0  0  0  0
   -2.7036    5.3725    1.6139 C   0  0  0  0  0  0  0  0  0  0  0  0
   -4.0694    5.6211    1.7518 C   0  0  0  0  0  0  0  0  0  0  0  0
   -4.9614    4.5756    1.4934 C   0  0  0  0  0  0  0  0  0  0  0  0
   -4.5055    3.3266    1.1110 C   0  0  0  0  0  0  0  0  0  0  0  0
   -6.2895   -4.3407   -1.0398 H   0  0  0  0  0  0  0  0  0  0  0  0
   -5.9268   -2.6365   -1.5481 H   0  0  0  0  0  0  0  0  0  0  0  0
   -5.9561   -3.0314    0.2271 H   0  0  0  0  0  0  0  0  0  0  0  0
   -4.9937   -1.2549   -0.1844 H   0  0  0  0  0  0  0  0  0  0  0  0
   -0.1424   -2.0308   -0.6279 H   0  0  0  0  0  0  0  0  0  0  0  0
   -0.3874   -5.7235   -1.2955 H   0  0  0  0  0  0  0  0  0  0  0  0
    0.2609   -4.2237   -0.5269 H   0  0  0  0  0  0  0  0  0  0  0  0
    0.0650   -4.3875   -2.3603 H   0  0  0  0  0  0  0  0  0  0  0  0
    0.6812   -0.3286   -2.0298 H   0  0  0  0  0  0  0  0  0  0  0  0
    1.6046    1.1412   -1.6630 H   0  0  0  0  0  0  0  0  0  0  0  0
    2.2196   -1.7099   -0.6649 H   0  0  0  0  0  0  0  0  0  0  0  0
    3.0620   -0.8251   -2.0410 H   0  0  0  0  0  0  0  0  0  0  0  0
    3.0191    1.7605    0.7251 H   0  0  0  0  0  0  0  0  0  0  0  0
    3.4209    0.4377    1.8697 H   0  0  0  0  0  0  0  0  0  0  0  0
    1.3176   -0.5065    1.8056 H   0  0  0  0  0  0  0  0  0  0  0  0
    0.9684    1.2383    1.8388 H   0  0  0  0  0  0  0  0  0  0  0  0
    5.2427    1.2002    1.4357 H   0  0  0  0  0  0  0  0  0  0  0  0
    7.6612    1.0164    1.3189 H   0  0  0  0  0  0  0  0  0  0  0  0
    8.7200   -0.4396   -0.3259 H   0  0  0  0  0  0  0  0  0  0  0  0
    7.3625   -1.7291   -1.8712 H   0  0  0  0  0  0  0  0  0  0  0  0
    4.9199   -1.5847   -1.7964 H   0  0  0  0  0  0  0  0  0  0  0  0
   -1.1880    3.9816    1.1389 H   0  0  0  0  0  0  0  0  0  0  0  0
   -1.9768    6.1704    1.8091 H   0  0  0  0  0  0  0  0  0  0  0  0
   -4.4223    6.6014    2.0518 H   0  0  0  0  0  0  0  0  0  0  0  0
   -6.0093    4.7763    1.6019 H   0  0  0  0  0  0  0  0  0  0  0  0
   -5.2457    2.5764    0.9302 H   0  0  0  0  0  0  0  0  0  0  0  0
  1  2  1  0
  2  3  1  0
  3  4  2  0
  4  5  1  0
  5  6  2  0
  6  7  1  0
  7  8  2  0
  8  9  1  0
  9 10  2  0
 10 11  1  0
 11 12  2  0
 12 13  1  0
 13 14  1  0
  9 15  1  0
 15 16  1  0
 16 17  1  0
 17 18  1  0
 18 19  1  0
 19 20  1  0
 18 21  1  0
 21 22  2  0
 22 23  1  0
 23 24  2  0
 24 25  1  0
 25 26  2  0
  7 27  1  0
 27 28  2  0
 28 29  1  0
 29 30  2  0
 30 31  1  0
 31 32  2  0
 12  3  1  0
 20 15  1  0
 26 21  1  0
 32 27  1  0
 10  5  1  0
  1 33  1  0
  1 34  1  0
  1 35  1  0
  4 36  1  0
 11 37  1  0
 14 38  1  0
 14 39  1  0
 14 40  1  0
 16 41  1  0
 16 42  1  0
 17 43  1  0
 17 44  1  0
 19 45  1  0
 19 46  1  0
 20 47  1  0
 20 48  1  0
 22 49  1  0
 23 50  1  0
 24 51  1  0
 25 52  1  0
 26 53  1  0
 28 54  1  0
 29 55  1  0
 30 56  1  0
 31 57  1  0
 32 58  1  0
M  END
>  <Ligand ID>  (1) 
LIG0004745

>  <Ligand>  (1) 
CHEMBL2431134

>  <SMILES>  (1) 
COc1cc2nc(nc(c2cc1OC)N1CCN(CC1)c1ccccc1)c1ccccc1

>  <CID>  (1) 
1951822.0

>  <ChEMBL ID>  (1) 
nan

>  <InChiKey>  (1) 
OPQWCRILQBQTND-UHFFFAOYSA-N

>  <InChi>  (1) 
InChI=1S/C26H26N4O2/c1-31-23-17-21-22(18-24(23)32-2)27-25(19-9-5-3-6-10-19)28-26(21)30-15-13-29(14-16-30)20-11-7-4-8-12-20/h3-12,17-18H,13-16H2,1-2H3

>  <IUPAC Name>  (1) 
6,7-dimethoxy-2-phenyl-4-(4-phenylpiperazin-1-yl)quinazoline

$$$$
