
     RDKit          3D

 57 59  0  0  0  0  0  0  0  0999 V2000
    6.7937    0.3298   -0.1451 C   0  0  0  0  0  0  0  0  0  0  0  0
    5.4353    0.6536    0.0993 N   0  0  0  0  0  0  0  0  0  0  0  0
    4.5163    0.2006   -0.8999 C   0  0  0  0  0  0  0  0  0  0  0  0
    3.1282    0.7184   -0.7318 C   0  0  0  0  0  0  0  0  0  0  0  0
    2.7416    0.3472    0.6394 N   0  0  0  0  0  0  0  0  0  0  0  0
    3.5905    0.8654    1.7097 C   0  0  0  0  0  0  0  0  0  0  0  0
    5.0049    0.4895    1.4528 C   0  0  0  0  0  0  0  0  0  0  0  0
    1.6050   -0.4700    0.8963 C   0  0  0  0  0  0  0  0  0  0  0  0
    1.7054   -1.6535    1.5276 N   0  0  0  0  0  0  0  0  0  0  0  0
    0.6160   -2.4328    1.7717 C   0  0  0  0  0  0  0  0  0  0  0  0
    0.8024   -3.7241    2.4720 C   0  0  0  0  0  0  0  0  0  0  0  0
   -0.6052   -1.9933    1.3616 N   0  0  0  0  0  0  0  0  0  0  0  0
   -0.7362   -0.8147    0.7283 C   0  0  0  0  0  0  0  0  0  0  0  0
    0.3675   -0.0420    0.4897 C   0  0  0  0  0  0  0  0  0  0  0  0
   -0.0658    1.0451   -0.1411 N   0  0  0  0  0  0  0  0  0  0  0  0
   -1.4144    1.0142   -0.3257 C   0  0  0  0  0  0  0  0  0  0  0  0
   -1.8151   -0.1314    0.2128 N   0  0  0  0  0  0  0  0  0  0  0  0
   -3.1333   -0.6788    0.3331 C   0  0  0  0  0  0  0  0  0  0  0  0
   -3.5547   -1.5382   -0.8316 C   0  0  0  0  0  0  0  0  0  0  0  0
   -5.2243   -2.1007   -0.4775 S   0  0  0  0  0  0  0  0  0  0  0  0
   -5.6923   -2.9986   -1.5843 O   0  0  0  0  0  0  0  0  0  0  0  0
   -6.0978   -0.9088   -0.3548 O   0  0  0  0  0  0  0  0  0  0  0  0
   -5.1717   -3.0292    1.0398 C   0  0  0  0  0  0  0  0  0  0  0  0
   -2.1188    2.1043   -0.9680 C   0  0  0  0  0  0  0  0  0  0  0  0
   -3.3965    2.1041   -1.4144 C   0  0  0  0  0  0  0  0  0  0  0  0
   -4.0164    3.2275   -1.9886 C   0  0  0  0  0  0  0  0  0  0  0  0
   -3.3261    4.4081   -2.1242 C   0  0  0  0  0  0  0  0  0  0  0  0
   -2.0261    4.4264   -1.6767 C   0  0  0  0  0  0  0  0  0  0  0  0
   -1.4284    3.3242   -1.1167 C   0  0  0  0  0  0  0  0  0  0  0  0
    0.2347    3.4963   -0.5904 Cl  0  0  0  0  0  0  0  0  0  0  0  0
    0.6923    0.0000    0.0000 Cl  0  0  0  0  0  0  0  0  0  0  0  0
    7.3466    0.2149    0.8156 H   0  0  0  0  0  0  0  0  0  0  0  0
    7.3172    0.9617   -0.8646 H   0  0  0  0  0  0  0  0  0  0  0  0
    6.8020   -0.7098   -0.5842 H   0  0  0  0  0  0  0  0  0  0  0  0
    4.8894    0.5368   -1.8828 H   0  0  0  0  0  0  0  0  0  0  0  0
    4.5052   -0.9068   -0.8938 H   0  0  0  0  0  0  0  0  0  0  0  0
    2.4744    0.2733   -1.4815 H   0  0  0  0  0  0  0  0  0  0  0  0
    3.1562    1.8155   -0.7383 H   0  0  0  0  0  0  0  0  0  0  0  0
    3.2623    0.4064    2.6577 H   0  0  0  0  0  0  0  0  0  0  0  0
    3.4179    1.9567    1.7831 H   0  0  0  0  0  0  0  0  0  0  0  0
    5.2420   -0.5172    1.8311 H   0  0  0  0  0  0  0  0  0  0  0  0
    5.6344    1.2040    2.0604 H   0  0  0  0  0  0  0  0  0  0  0  0
    0.0047   -4.4518    2.2412 H   0  0  0  0  0  0  0  0  0  0  0  0
    1.8066   -4.1163    2.1591 H   0  0  0  0  0  0  0  0  0  0  0  0
    0.8606   -3.5961    3.5856 H   0  0  0  0  0  0  0  0  0  0  0  0
   -3.8620    0.1167    0.4995 H   0  0  0  0  0  0  0  0  0  0  0  0
   -3.2069   -1.3302    1.2641 H   0  0  0  0  0  0  0  0  0  0  0  0
   -2.8743   -2.4178   -0.9347 H   0  0  0  0  0  0  0  0  0  0  0  0
   -3.5982   -1.0219   -1.7988 H   0  0  0  0  0  0  0  0  0  0  0  0
   -4.1848   -3.5374    1.1259 H   0  0  0  0  0  0  0  0  0  0  0  0
   -5.3545   -2.3326    1.8671 H   0  0  0  0  0  0  0  0  0  0  0  0
   -5.9991   -3.7790    1.0028 H   0  0  0  0  0  0  0  0  0  0  0  0
   -4.0086    1.2369   -1.3733 H   0  0  0  0  0  0  0  0  0  0  0  0
   -5.0386    3.1690   -2.3265 H   0  0  0  0  0  0  0  0  0  0  0  0
   -3.8336    5.2476   -2.5685 H   0  0  0  0  0  0  0  0  0  0  0  0
   -1.4770    5.3386   -1.7752 H   0  0  0  0  0  0  0  0  0  0  0  0
   -0.6923    0.0000    0.0000 H   0  0  0  0  0  0  0  0  0  0  0  0
  1  2  1  0
  2  3  1  0
  3  4  1  0
  4  5  1  0
  5  6  1  0
  6  7  1  0
  5  8  1  0
  8  9  2  0
  9 10  1  0
 10 11  1  0
 10 12  2  0
 12 13  1  0
 13 14  2  0
 14 15  1  0
 15 16  2  0
 16 17  1  0
 17 18  1  0
 18 19  1  0
 19 20  1  0
 20 21  2  0
 20 22  2  0
 20 23  1  0
 16 24  1  0
 24 25  2  0
 25 26  1  0
 26 27  2  0
 27 28  1  0
 28 29  2  0
 29 30  1  0
  7  2  1  0
 14  8  1  0
 29 24  1  0
 17 13  1  0
  1 32  1  0
  1 33  1  0
  1 34  1  0
  3 35  1  0
  3 36  1  0
  4 37  1  0
  4 38  1  0
  6 39  1  0
  6 40  1  0
  7 41  1  0
  7 42  1  0
 11 43  1  0
 11 44  1  0
 11 45  1  0
 18 46  1  0
 18 47  1  0
 19 48  1  0
 19 49  1  0
 23 50  1  0
 23 51  1  0
 23 52  1  0
 25 53  1  0
 26 54  1  0
 27 55  1  0
 28 56  1  0
 31 57  1  0
M  END
>  <Ligand ID>  (1) 
LIG0003929

>  <Ligand>  (1) 
SCHEMBL2552922

>  <SMILES>  (1) 
CN1CCN(CC1)c1nc(C)nc2c1nc(n2CCS(=O)(=O)C)c1ccccc1Cl.Cl

>  <CID>  (1) 
67450266.0

>  <ChEMBL ID>  (1) 
nan

>  <InChiKey>  (1) 
OXWWPTWKQHSVRE-UHFFFAOYSA-N

>  <InChi>  (1) 
InChI=1S/C20H25ClN6O2S.ClH/c1-14-22-19(26-10-8-25(2)9-11-26)17-20(23-14)27(12-13-30(3,28)29)18(24-17)15-6-4-5-7-16(15)21;/h4-7H,8-13H2,1-3H3;1H

>  <IUPAC Name>  (1) 
8-(2-chlorophenyl)-2-methyl-6-(4-methylpiperazin-1-yl)-9-(2-methylsulfonylethyl)purine;hydrochloride

$$$$
