
     RDKit          3D

 29 29  0  0  0  0  0  0  0  0999 V2000
   -2.1004    0.7330   -0.9556 C   0  0  0  0  0  0  0  0  0  0  0  0
   -1.3186   -0.2025   -0.0532 C   0  0  0  0  0  0  0  0  0  0  0  0
    0.1454   -0.0210   -0.3516 C   0  0  0  0  0  0  0  0  0  0  0  0
    0.6321    1.3650   -0.1178 C   0  0  0  0  0  0  0  0  0  0  0  0
    2.0566    1.4519    0.3921 C   0  0  0  0  0  0  0  0  0  0  0  0
    2.8189    0.4296   -0.3816 C   0  0  0  0  0  0  0  0  0  0  0  0
    3.7267    0.7101   -1.1473 O   0  0  0  0  0  0  0  0  0  0  0  0
    2.4071   -1.0043   -0.1702 C   0  0  0  0  0  0  0  0  0  0  0  0
    0.9883   -1.0797    0.3513 C   0  0  0  0  0  0  0  0  0  0  0  0
   -1.6658    0.1445    1.3752 C   0  0  0  0  0  0  0  0  0  0  0  0
   -1.8129   -1.5838   -0.3195 C   0  0  0  0  0  0  0  0  0  0  0  0
   -1.8758    1.7721   -0.6265 H   0  0  0  0  0  0  0  0  0  0  0  0
   -3.1946    0.5615   -0.7660 H   0  0  0  0  0  0  0  0  0  0  0  0
   -1.8643    0.6237   -2.0212 H   0  0  0  0  0  0  0  0  0  0  0  0
    0.2549   -0.2452   -1.4482 H   0  0  0  0  0  0  0  0  0  0  0  0
    0.6493    1.9803   -1.0658 H   0  0  0  0  0  0  0  0  0  0  0  0
    0.0105    1.9509    0.5881 H   0  0  0  0  0  0  0  0  0  0  0  0
    2.4392    2.4721    0.2139 H   0  0  0  0  0  0  0  0  0  0  0  0
    2.0713    1.1586    1.4563 H   0  0  0  0  0  0  0  0  0  0  0  0
    2.4825   -1.5800   -1.1159 H   0  0  0  0  0  0  0  0  0  0  0  0
    3.1066   -1.4506    0.5765 H   0  0  0  0  0  0  0  0  0  0  0  0
    0.9484   -0.9530    1.4539 H   0  0  0  0  0  0  0  0  0  0  0  0
    0.6057   -2.0710    0.0329 H   0  0  0  0  0  0  0  0  0  0  0  0
   -1.7961    1.2469    1.5322 H   0  0  0  0  0  0  0  0  0  0  0  0
   -0.9526   -0.2916    2.0985 H   0  0  0  0  0  0  0  0  0  0  0  0
   -2.6541   -0.3174    1.5863 H   0  0  0  0  0  0  0  0  0  0  0  0
   -1.8114   -1.8519   -1.4058 H   0  0  0  0  0  0  0  0  0  0  0  0
   -1.3895   -2.3736    0.3308 H   0  0  0  0  0  0  0  0  0  0  0  0
   -2.9077   -1.5744   -0.0419 H   0  0  0  0  0  0  0  0  0  0  0  0
  1  2  1  0
  2  3  1  0
  3  4  1  0
  4  5  1  0
  5  6  1  0
  6  7  2  0
  6  8  1  0
  8  9  1  0
  2 10  1  0
  2 11  1  0
  9  3  1  0
  1 12  1  0
  1 13  1  0
  1 14  1  0
  3 15  1  0
  4 16  1  0
  4 17  1  0
  5 18  1  0
  5 19  1  0
  8 20  1  0
  8 21  1  0
  9 22  1  0
  9 23  1  0
 10 24  1  0
 10 25  1  0
 10 26  1  0
 11 27  1  0
 11 28  1  0
 11 29  1  0
M  END
>  <Ligand ID>  (1) 
LIG0000330

>  <Ligand>  (1) 
4-tert-Butylcyclohexanone

>  <SMILES>  (1) 
CC(C1CCC(=O)CC1)(C)C

>  <CID>  (1) 
7392.0

>  <ChEMBL ID>  (1) 
nan

>  <InChiKey>  (1) 
YKFKEYKJGVSEIX-UHFFFAOYSA-N

>  <InChi>  (1) 
InChI=1S/C10H18O/c1-10(2,3)8-4-6-9(11)7-5-8/h8H,4-7H2,1-3H3

>  <IUPAC Name>  (1) 
4-tert-butylcyclohexan-1-one

$$$$
