
     RDKit          3D

 34 35  0  0  0  0  0  0  0  0999 V2000
   -2.9416    2.6076   -0.2352 C   0  0  0  0  0  0  0  0  0  0  0  0
   -2.1003    1.3835   -0.1419 C   0  0  0  0  0  0  0  0  0  0  0  0
   -2.7232    0.2053    0.2397 C   0  0  0  0  0  0  0  0  0  0  0  0
   -2.0053   -0.9698    0.3480 C   0  0  0  0  0  0  0  0  0  0  0  0
   -2.6550   -2.2557    0.7584 C   0  0  0  0  0  0  0  0  0  0  0  0
   -0.6562   -0.9430    0.0679 C   0  0  0  0  0  0  0  0  0  0  0  0
   -0.0055    0.2383   -0.3211 C   0  0  0  0  0  0  0  0  0  0  0  0
   -0.7359    1.4222   -0.4282 C   0  0  0  0  0  0  0  0  0  0  0  0
    1.4104    0.2786   -0.6472 C   0  0  1  0  0  0  0  0  0  0  0  0
    2.1912    1.4782   -0.2678 C   0  0  0  0  0  0  0  0  0  0  0  0
    3.5683    0.9771   -0.4238 N   0  0  0  0  0  0  0  0  0  0  0  0
    3.5112   -0.4650   -0.1197 C   0  0  0  0  0  0  0  0  0  0  0  0
    2.1106   -0.7427    0.2706 C   0  0  2  0  0  0  0  0  0  0  0  0
    1.5506   -2.0037   -0.0920 N   0  0  0  0  0  0  0  0  0  0  0  0
    0.1423   -2.1836    0.2038 C   0  0  0  0  0  0  0  0  0  0  0  0
   -0.3437   -3.2723    0.5371 O   0  0  0  0  0  0  0  0  0  0  0  0
    0.6892    0.0000    0.0000 Cl  0  0  0  0  0  0  0  0  0  0  0  0
   -3.3498    2.7889    0.7591 H   0  0  0  0  0  0  0  0  0  0  0  0
   -2.3922    3.4508   -0.6707 H   0  0  0  0  0  0  0  0  0  0  0  0
   -3.7891    2.3412   -0.9038 H   0  0  0  0  0  0  0  0  0  0  0  0
   -3.7632    0.1727    0.4583 H   0  0  0  0  0  0  0  0  0  0  0  0
   -2.6285   -2.9994   -0.0636 H   0  0  0  0  0  0  0  0  0  0  0  0
   -2.2675   -2.6228    1.7157 H   0  0  0  0  0  0  0  0  0  0  0  0
   -3.7337   -2.0379    0.9253 H   0  0  0  0  0  0  0  0  0  0  0  0
   -0.2562    2.3544   -0.7275 H   0  0  0  0  0  0  0  0  0  0  0  0
    1.6366    0.0492   -1.7099 H   0  0  0  0  0  0  0  0  0  0  0  0
    2.0672    2.3567   -0.9281 H   0  0  0  0  0  0  0  0  0  0  0  0
    2.0333    1.8044    0.7797 H   0  0  0  0  0  0  0  0  0  0  0  0
    4.2097    1.4915    0.1869 H   0  0  0  0  0  0  0  0  0  0  0  0
    4.1534   -0.5954    0.7991 H   0  0  0  0  0  0  0  0  0  0  0  0
    3.8483   -1.0844   -0.9588 H   0  0  0  0  0  0  0  0  0  0  0  0
    1.8590   -0.4263    1.3059 H   0  0  0  0  0  0  0  0  0  0  0  0
    2.0545   -2.7986   -0.5419 H   0  0  0  0  0  0  0  0  0  0  0  0
   -0.6892    0.0000    0.0000 H   0  0  0  0  0  0  0  0  0  0  0  0
  1  2  1  0
  2  3  2  0
  3  4  1  0
  4  5  1  0
  4  6  2  0
  6  7  1  0
  7  8  2  0
  7  9  1  0
  9 10  1  0
 10 11  1  0
 11 12  1  0
 12 13  1  0
 13 14  1  0
 14 15  1  0
 15 16  2  0
  8  2  1  0
 13  9  1  0
 15  6  1  0
  1 18  1  0
  1 19  1  0
  1 20  1  0
  3 21  1  0
  5 22  1  0
  5 23  1  0
  5 24  1  0
  8 25  1  0
  9 26  1  6
 10 27  1  0
 10 28  1  0
 11 29  1  0
 12 30  1  0
 12 31  1  0
 13 32  1  1
 14 33  1  0
 17 34  1  0
M  END
>  <Ligand ID>  (1) 
LIG0003736

>  <Ligand>  (1) 
CHEMBL2337503

>  <SMILES>  (1) 
Cc1cc(C)c2c(c1)[C@H]1CNC[C@@H]1NC2=O.Cl

>  <CID>  (1) 
11499799.0

>  <ChEMBL ID>  (1) 
nan

>  <InChiKey>  (1) 
PORJTZAEJQLNJS-DHXVBOOMSA-N

>  <InChi>  (1) 
InChI=1S/C13H16N2O.ClH/c1-7-3-8(2)12-9(4-7)10-5-14-6-11(10)15-13(12)16;/h3-4,10-11,14H,5-6H2,1-2H3,(H,15,16);1H/t10-,11+;/m1./s1

>  <IUPAC Name>  (1) 
(3aR,9bS)-6,8-dimethyl-1,2,3,3a,4,9b-hexahydropyrrolo[3,4-c]isoquinolin-5-one;hydrochloride

$$$$
