
     RDKit          3D

 81 81  0  0  0  0  0  0  0  0999 V2000
  -11.6334    0.1734    2.1369 C   0  0  0  0  0  0  0  0  0  0  0  0
  -10.5414    0.9565    1.4028 C   0  0  0  0  0  0  0  0  0  0  0  0
   -9.2403    0.3057    1.7727 C   0  0  0  0  0  0  0  0  0  0  0  0
   -8.1003    1.0215    1.1121 C   0  0  0  0  0  0  0  0  0  0  0  0
   -8.2539    0.9679   -0.3759 C   0  0  0  0  0  0  0  0  0  0  0  0
   -7.1115    1.6677   -1.0911 C   0  0  0  0  0  0  0  0  0  0  0  0
   -5.7684    1.0617   -0.7875 C   0  0  0  0  0  0  0  0  0  0  0  0
   -5.7002   -0.3872   -1.1888 C   0  0  0  0  0  0  0  0  0  0  0  0
   -4.3911   -1.0500   -0.9193 C   0  0  0  0  0  0  0  0  0  0  0  0
   -3.9860   -1.0535    0.5357 C   0  0  0  0  0  0  0  0  0  0  0  0
   -2.6718   -1.7390    0.6687 C   0  0  0  0  0  0  0  0  0  0  0  0
   -1.6005   -1.2179   -0.0132 O   0  0  0  0  0  0  0  0  0  0  0  0
   -0.9565   -0.0354    0.0254 C   0  0  0  0  0  0  0  0  0  0  0  0
   -1.2382    1.0368    0.8419 C   0  0  0  0  0  0  0  0  0  0  0  0
   -0.5367    2.2201    0.8297 C   0  0  0  0  0  0  0  0  0  0  0  0
    0.5122    2.3471   -0.0496 C   0  0  0  0  0  0  0  0  0  0  0  0
    0.8436    1.3096   -0.8921 C   0  0  0  0  0  0  0  0  0  0  0  0
    0.1261    0.1359   -0.8603 C   0  0  0  0  0  0  0  0  0  0  0  0
    0.4758   -0.9672   -1.7599 C   0  0  0  0  0  0  0  0  0  0  0  0
    1.6887   -0.7822   -2.5946 C   0  0  0  0  0  0  0  0  0  0  0  0
    2.9494   -0.5913   -1.8004 C   0  0  0  0  0  0  0  0  0  0  0  0
    3.9888   -0.3847   -2.5050 O   0  0  0  0  0  0  0  0  0  0  0  0
    2.9693   -0.6378   -0.4194 O   0  0  0  0  0  0  0  0  0  0  0  0
    4.1603   -0.4582    0.3019 C   0  0  0  0  0  0  0  0  0  0  0  0
    5.1936   -1.5010   -0.0156 C   0  0  0  0  0  0  0  0  0  0  0  0
    6.4683   -1.2563    0.7976 C   0  0  0  0  0  0  0  0  0  0  0  0
    7.4175   -2.2261    0.4978 O   0  0  0  0  0  0  0  0  0  0  0  0
    8.8562   -1.9499    1.3826 P   0  0  0  0  0  0  0  0  0  0  0  0
    8.4357   -1.9583    2.8350 O   0  0  0  0  0  0  0  0  0  0  0  0
    9.4640   -0.4182    1.0561 O   0  0  0  0  0  0  0  0  0  0  0  0
    9.8841   -0.2726   -0.2583 C   0  0  0  0  0  0  0  0  0  0  0  0
   10.3806    1.1263   -0.4573 C   0  0  1  0  0  0  0  0  0  0  0  0
   11.4388    1.5099    0.4793 C   0  0  0  0  0  0  0  0  0  0  0  0
   11.2783    1.4637    1.7410 O   0  0  0  0  0  0  0  0  0  0  0  0
   12.6795    1.9463    0.0030 O   0  0  0  0  0  0  0  0  0  0  0  0
   10.8217    1.2701   -1.8476 N   0  0  0  0  0  0  0  0  0  0  0  0
    9.9488   -3.1883    1.1417 O   0  0  0  0  0  0  0  0  0  0  0  0
  -11.8150   -0.7599    1.5606 H   0  0  0  0  0  0  0  0  0  0  0  0
  -11.2578   -0.0559    3.1470 H   0  0  0  0  0  0  0  0  0  0  0  0
  -12.5285    0.8201    2.1692 H   0  0  0  0  0  0  0  0  0  0  0  0
  -10.6110    2.0005    1.7356 H   0  0  0  0  0  0  0  0  0  0  0  0
  -10.7451    0.9268    0.3151 H   0  0  0  0  0  0  0  0  0  0  0  0
   -9.0824    0.2877    2.8728 H   0  0  0  0  0  0  0  0  0  0  0  0
   -9.2216   -0.7514    1.4082 H   0  0  0  0  0  0  0  0  0  0  0  0
   -7.1184    0.6296    1.4529 H   0  0  0  0  0  0  0  0  0  0  0  0
   -8.0801    2.1048    1.3986 H   0  0  0  0  0  0  0  0  0  0  0  0
   -9.1573    1.5856   -0.6503 H   0  0  0  0  0  0  0  0  0  0  0  0
   -8.3979   -0.0504   -0.7708 H   0  0  0  0  0  0  0  0  0  0  0  0
   -7.2910    1.5822   -2.1757 H   0  0  0  0  0  0  0  0  0  0  0  0
   -7.1153    2.7221   -0.7841 H   0  0  0  0  0  0  0  0  0  0  0  0
   -5.5601    1.1617    0.2854 H   0  0  0  0  0  0  0  0  0  0  0  0
   -5.0353    1.6635   -1.4059 H   0  0  0  0  0  0  0  0  0  0  0  0
   -6.5102   -0.9471   -0.6962 H   0  0  0  0  0  0  0  0  0  0  0  0
   -5.9183   -0.4342   -2.2749 H   0  0  0  0  0  0  0  0  0  0  0  0
   -3.6421   -0.6009   -1.5767 H   0  0  0  0  0  0  0  0  0  0  0  0
   -4.4882   -2.1076   -1.2271 H   0  0  0  0  0  0  0  0  0  0  0  0
   -4.0695   -0.1070    1.0504 H   0  0  0  0  0  0  0  0  0  0  0  0
   -4.7389   -1.7372    1.0402 H   0  0  0  0  0  0  0  0  0  0  0  0
   -2.8114   -2.8346    0.4902 H   0  0  0  0  0  0  0  0  0  0  0  0
   -2.4089   -1.6951    1.7707 H   0  0  0  0  0  0  0  0  0  0  0  0
   -2.0459    0.9563    1.5393 H   0  0  0  0  0  0  0  0  0  0  0  0
   -0.7596    3.0551    1.4678 H   0  0  0  0  0  0  0  0  0  0  0  0
    1.0699    3.2690   -0.0687 H   0  0  0  0  0  0  0  0  0  0  0  0
    1.6813    1.4888   -1.5598 H   0  0  0  0  0  0  0  0  0  0  0  0
   -0.3609   -1.2756   -2.4170 H   0  0  0  0  0  0  0  0  0  0  0  0
    0.6850   -1.8509   -1.0862 H   0  0  0  0  0  0  0  0  0  0  0  0
    1.6088    0.0152   -3.3504 H   0  0  0  0  0  0  0  0  0  0  0  0
    1.8360   -1.7184   -3.1729 H   0  0  0  0  0  0  0  0  0  0  0  0
    4.5958    0.5581    0.1483 H   0  0  0  0  0  0  0  0  0  0  0  0
    3.8843   -0.4773    1.3860 H   0  0  0  0  0  0  0  0  0  0  0  0
    5.4173   -1.5091   -1.0954 H   0  0  0  0  0  0  0  0  0  0  0  0
    4.7415   -2.4823    0.2337 H   0  0  0  0  0  0  0  0  0  0  0  0
    6.8245   -0.2407    0.5324 H   0  0  0  0  0  0  0  0  0  0  0  0
    6.1952   -1.3642    1.8665 H   0  0  0  0  0  0  0  0  0  0  0  0
   10.7812   -0.9457   -0.3612 H   0  0  0  0  0  0  0  0  0  0  0  0
    9.1769   -0.5867   -1.0209 H   0  0  0  0  0  0  0  0  0  0  0  0
    9.5298    1.8326   -0.3220 H   0  0  0  0  0  0  0  0  0  0  0  0
   13.4174    2.0803    0.6604 H   0  0  0  0  0  0  0  0  0  0  0  0
   11.1330    2.2738   -2.0105 H   0  0  0  0  0  0  0  0  0  0  0  0
   10.0256    1.1118   -2.5013 H   0  0  0  0  0  0  0  0  0  0  0  0
    9.9162   -3.6132    0.2708 H   0  0  0  0  0  0  0  0  0  0  0  0
  1  2  1  0
  2  3  1  0
  3  4  1  0
  4  5  1  0
  5  6  1  0
  6  7  1  0
  7  8  1  0
  8  9  1  0
  9 10  1  0
 10 11  1  0
 11 12  1  0
 12 13  1  0
 13 14  2  0
 14 15  1  0
 15 16  2  0
 16 17  1  0
 17 18  2  0
 18 19  1  0
 19 20  1  0
 20 21  1  0
 21 22  2  0
 21 23  1  0
 23 24  1  0
 24 25  1  0
 25 26  1  0
 26 27  1  0
 27 28  1  0
 28 29  2  0
 28 30  1  0
 30 31  1  0
 31 32  1  0
 32 33  1  0
 33 34  2  0
 33 35  1  0
 32 36  1  0
 28 37  1  0
 18 13  1  0
  1 38  1  0
  1 39  1  0
  1 40  1  0
  2 41  1  0
  2 42  1  0
  3 43  1  0
  3 44  1  0
  4 45  1  0
  4 46  1  0
  5 47  1  0
  5 48  1  0
  6 49  1  0
  6 50  1  0
  7 51  1  0
  7 52  1  0
  8 53  1  0
  8 54  1  0
  9 55  1  0
  9 56  1  0
 10 57  1  0
 10 58  1  0
 11 59  1  0
 11 60  1  0
 14 61  1  0
 15 62  1  0
 16 63  1  0
 17 64  1  0
 19 65  1  0
 19 66  1  0
 20 67  1  0
 20 68  1  0
 24 69  1  0
 24 70  1  0
 25 71  1  0
 25 72  1  0
 26 73  1  0
 26 74  1  0
 31 75  1  0
 31 76  1  0
 32 77  1  6
 35 78  1  0
 36 79  1  0
 36 80  1  0
 37 81  1  0
M  END
>  <Ligand ID>  (1) 
LIG0004285

>  <Ligand>  (1) 
CHEMBL3577179

>  <SMILES>  (1) 
CCCCCCCCCCCOc1ccccc1CCC(=O)OCCCOP(=O)(OC[C@@H](C(=O)O)N)O

>  <CID>  (1) 
122177525.0

>  <ChEMBL ID>  (1) 
nan

>  <InChiKey>  (1) 
YBPJQSQZGMFTDC-QHCPKHFHSA-N

>  <InChi>  (1) 
InChI=1S/C26H44NO9P/c1-2-3-4-5-6-7-8-9-12-18-33-24-15-11-10-14-22(24)16-17-25(28)34-19-13-20-35-37(31,32)36-21-23(27)26(29)30/h10-11,14-15,23H,2-9,12-13,16-21,27H2,1H3,(H,29,30)(H,31,32)/t23-/m0/s1

>  <IUPAC Name>  (1) 
(2S)-2-amino-3-[hydroxy-[3-[3-(2-undecoxyphenyl)propanoyloxy]propoxy]phosphoryl]oxypropanoic acid

$$$$
