
     RDKit          3D

102106  0  0  0  0  0  0  0  0999 V2000
    5.0319    6.4447   -1.6866 N   0  0  0  0  0  0  0  0  0  0  0  0
    4.1605    5.3074   -1.7884 C   0  0  0  0  0  0  0  0  0  0  0  0
    3.9644    4.8129   -2.9376 N   0  0  0  0  0  0  0  0  0  0  0  0
    3.1515    3.6968   -3.3023 C   0  0  0  0  0  0  0  0  0  0  0  0
    2.8147    2.7465   -2.2029 C   0  0  0  0  0  0  0  0  0  0  0  0
    1.9672    1.6215   -2.7873 C   0  0  0  0  0  0  0  0  0  0  0  0
    1.5880    0.6212   -1.7177 C   0  0  1  0  0  0  0  0  0  0  0  0
    2.8422    0.0733   -1.1464 C   0  0  0  0  0  0  0  0  0  0  0  0
    2.9811    0.2333    0.1160 O   0  0  0  0  0  0  0  0  0  0  0  0
    3.8527   -0.5827   -1.8686 N   0  0  0  0  0  0  0  0  0  0  0  0
    5.0148   -1.0377   -1.1086 C   0  0  2  0  0  0  0  0  0  0  0  0
    6.2367   -0.3116   -1.6029 C   0  0  0  0  0  0  0  0  0  0  0  0
    7.3734   -0.5431   -1.0827 O   0  0  0  0  0  0  0  0  0  0  0  0
    6.1312    0.6470   -2.6640 N   0  0  0  0  0  0  0  0  0  0  0  0
    5.2236   -2.4981   -1.4359 C   0  0  0  0  0  0  0  0  0  0  0  0
    6.4048   -3.0388   -0.6725 C   0  0  0  0  0  0  0  0  0  0  0  0
    7.6777   -3.2945   -1.1240 C   0  0  0  0  0  0  0  0  0  0  0  0
    8.3609   -3.7639   -0.0473 N   0  0  0  0  0  0  0  0  0  0  0  0
    7.5701   -3.8058    1.0318 C   0  0  0  0  0  0  0  0  0  0  0  0
    6.3087   -3.3488    0.6715 C   0  0  0  0  0  0  0  0  0  0  0  0
    5.2663   -3.2812    1.6000 C   0  0  0  0  0  0  0  0  0  0  0  0
    5.5315   -3.6907    2.9122 C   0  0  0  0  0  0  0  0  0  0  0  0
    6.7825   -4.1411    3.2563 C   0  0  0  0  0  0  0  0  0  0  0  0
    7.7941   -4.2043    2.3482 C   0  0  0  0  0  0  0  0  0  0  0  0
    0.7899    1.2414   -0.6447 N   0  0  0  0  0  0  0  0  0  0  0  0
   -0.5734    0.9355   -0.4421 C   0  0  0  0  0  0  0  0  0  0  0  0
   -1.2424    0.1365   -1.1416 O   0  0  0  0  0  0  0  0  0  0  0  0
   -1.2278    1.6548    0.7333 C   0  0  2  0  0  0  0  0  0  0  0  0
   -2.5872    1.1482    0.7147 N   0  0  0  0  0  0  0  0  0  0  0  0
   -2.7872   -0.1098    1.3714 C   0  0  0  0  0  0  0  0  0  0  0  0
   -1.8131   -0.6868    1.9089 O   0  0  0  0  0  0  0  0  0  0  0  0
   -4.1382   -0.7649    1.4340 C   0  0  2  0  0  0  0  0  0  0  0  0
   -3.9901   -2.1003    0.7302 C   0  0  0  0  0  0  0  0  0  0  0  0
   -5.1969   -2.9237    0.7059 C   0  0  0  0  0  0  0  0  0  0  0  0
   -5.4169   -3.7608    1.7951 C   0  0  0  0  0  0  0  0  0  0  0  0
   -6.5042   -4.5993    1.8653 C   0  0  0  0  0  0  0  0  0  0  0  0
   -7.4202   -4.6358    0.8486 C   0  0  0  0  0  0  0  0  0  0  0  0
   -7.2143   -3.8118   -0.2350 C   0  0  0  0  0  0  0  0  0  0  0  0
   -6.1230   -2.9742   -0.3002 C   0  0  0  0  0  0  0  0  0  0  0  0
   -8.1175   -3.8228   -1.2881 C   0  0  0  0  0  0  0  0  0  0  0  0
   -9.2081   -4.6589   -1.2339 C   0  0  0  0  0  0  0  0  0  0  0  0
   -9.3856   -5.4785   -0.1235 C   0  0  0  0  0  0  0  0  0  0  0  0
   -8.5076   -5.4918    0.9389 C   0  0  0  0  0  0  0  0  0  0  0  0
   -5.1457    0.0877    0.8553 N   0  0  0  0  0  0  0  0  0  0  0  0
   -5.3026    0.3536   -0.5294 C   0  0  0  0  0  0  0  0  0  0  0  0
   -4.5529   -0.1414   -1.4113 O   0  0  0  0  0  0  0  0  0  0  0  0
   -6.4243    1.2705   -0.9062 C   0  0  0  0  0  0  0  0  0  0  0  0
   -1.0555    3.1053    0.6258 C   0  0  0  0  0  0  0  0  0  0  0  0
   -1.6554    3.8813    1.7397 C   0  0  0  0  0  0  0  0  0  0  0  0
   -0.9268    4.2075    2.8762 C   0  0  0  0  0  0  0  0  0  0  0  0
   -1.4809    4.9322    3.9235 C   0  0  0  0  0  0  0  0  0  0  0  0
   -2.8123    5.3441    3.8271 C   0  0  0  0  0  0  0  0  0  0  0  0
   -3.5577    5.0245    2.6928 C   0  0  0  0  0  0  0  0  0  0  0  0
   -2.9651    4.3042    1.6803 C   0  0  0  0  0  0  0  0  0  0  0  0
    3.5983    4.8398   -0.5718 N   0  0  0  0  0  0  0  0  0  0  0  0
    4.5623    7.3713   -1.6559 H   0  0  0  0  0  0  0  0  0  0  0  0
    6.0585    6.2862   -1.6493 H   0  0  0  0  0  0  0  0  0  0  0  0
    2.2469    4.1099   -3.7990 H   0  0  0  0  0  0  0  0  0  0  0  0
    3.6898    3.1324   -4.1155 H   0  0  0  0  0  0  0  0  0  0  0  0
    2.1309    3.2582   -1.4807 H   0  0  0  0  0  0  0  0  0  0  0  0
    3.6751    2.3699   -1.6533 H   0  0  0  0  0  0  0  0  0  0  0  0
    2.5460    1.0609   -3.5466 H   0  0  0  0  0  0  0  0  0  0  0  0
    1.0785    2.0730   -3.2779 H   0  0  0  0  0  0  0  0  0  0  0  0
    0.9572   -0.1311   -2.2324 H   0  0  0  0  0  0  0  0  0  0  0  0
    3.7424   -0.7200   -2.8883 H   0  0  0  0  0  0  0  0  0  0  0  0
    4.8787   -0.8392   -0.0382 H   0  0  0  0  0  0  0  0  0  0  0  0
    6.1243    0.3045   -3.6593 H   0  0  0  0  0  0  0  0  0  0  0  0
    6.0639    1.6689   -2.4139 H   0  0  0  0  0  0  0  0  0  0  0  0
    5.3375   -2.6406   -2.5096 H   0  0  0  0  0  0  0  0  0  0  0  0
    4.3065   -3.0804   -1.1183 H   0  0  0  0  0  0  0  0  0  0  0  0
    8.0596   -3.1547   -2.1225 H   0  0  0  0  0  0  0  0  0  0  0  0
    9.3706   -4.0665   -0.0076 H   0  0  0  0  0  0  0  0  0  0  0  0
    4.2841   -2.9210    1.3014 H   0  0  0  0  0  0  0  0  0  0  0  0
    4.6944   -3.6214    3.5894 H   0  0  0  0  0  0  0  0  0  0  0  0
    6.9663   -4.4602    4.2850 H   0  0  0  0  0  0  0  0  0  0  0  0
    8.7771   -4.5630    2.6364 H   0  0  0  0  0  0  0  0  0  0  0  0
    1.3229    1.9218   -0.0547 H   0  0  0  0  0  0  0  0  0  0  0  0
   -0.6518    1.2198    1.5914 H   0  0  0  0  0  0  0  0  0  0  0  0
   -3.3820    1.6561    0.2673 H   0  0  0  0  0  0  0  0  0  0  0  0
   -4.3933   -1.0029    2.4743 H   0  0  0  0  0  0  0  0  0  0  0  0
   -3.1733   -2.6479    1.2663 H   0  0  0  0  0  0  0  0  0  0  0  0
   -3.6243   -1.9648   -0.3161 H   0  0  0  0  0  0  0  0  0  0  0  0
   -4.7156   -3.7686    2.6320 H   0  0  0  0  0  0  0  0  0  0  0  0
   -6.6228   -5.2337    2.7469 H   0  0  0  0  0  0  0  0  0  0  0  0
   -6.0258   -2.3626   -1.1786 H   0  0  0  0  0  0  0  0  0  0  0  0
   -7.9740   -3.1921   -2.1339 H   0  0  0  0  0  0  0  0  0  0  0  0
   -9.9179   -4.6635   -2.0715 H   0  0  0  0  0  0  0  0  0  0  0  0
  -10.2586   -6.1171   -0.1333 H   0  0  0  0  0  0  0  0  0  0  0  0
   -8.6617   -6.1463    1.8062 H   0  0  0  0  0  0  0  0  0  0  0  0
   -5.8177    0.5511    1.5397 H   0  0  0  0  0  0  0  0  0  0  0  0
   -6.2109    2.2720   -0.4579 H   0  0  0  0  0  0  0  0  0  0  0  0
   -7.4094    0.9080   -0.5754 H   0  0  0  0  0  0  0  0  0  0  0  0
   -6.3825    1.4259   -2.0091 H   0  0  0  0  0  0  0  0  0  0  0  0
    0.0343    3.3340    0.6563 H   0  0  0  0  0  0  0  0  0  0  0  0
   -1.3670    3.5337   -0.3730 H   0  0  0  0  0  0  0  0  0  0  0  0
    0.1059    3.8888    2.9504 H   0  0  0  0  0  0  0  0  0  0  0  0
   -0.9123    5.1922    4.8151 H   0  0  0  0  0  0  0  0  0  0  0  0
   -3.2909    5.9175    4.6253 H   0  0  0  0  0  0  0  0  0  0  0  0
   -4.5895    5.3150    2.5658 H   0  0  0  0  0  0  0  0  0  0  0  0
   -3.5058    4.0292    0.7703 H   0  0  0  0  0  0  0  0  0  0  0  0
    2.6850    5.2337   -0.1966 H   0  0  0  0  0  0  0  0  0  0  0  0
    4.1028    4.0950   -0.0499 H   0  0  0  0  0  0  0  0  0  0  0  0
  1  2  1  0
  2  3  2  3
  3  4  1  0
  4  5  1  0
  5  6  1  0
  6  7  1  0
  7  8  1  0
  8  9  2  0
  8 10  1  0
 10 11  1  0
 11 12  1  0
 12 13  2  0
 12 14  1  0
 11 15  1  0
 15 16  1  0
 16 17  2  0
 17 18  1  0
 18 19  1  0
 19 20  2  0
 20 21  1  0
 21 22  2  0
 22 23  1  0
 23 24  2  0
  7 25  1  0
 25 26  1  0
 26 27  2  0
 26 28  1  0
 28 29  1  0
 29 30  1  0
 30 31  2  0
 30 32  1  0
 32 33  1  0
 33 34  1  0
 34 35  2  0
 35 36  1  0
 36 37  2  0
 37 38  1  0
 38 39  2  0
 38 40  1  0
 40 41  2  0
 41 42  1  0
 42 43  2  0
 32 44  1  0
 44 45  1  0
 45 46  2  0
 45 47  1  0
 28 48  1  0
 48 49  1  0
 49 50  2  0
 50 51  1  0
 51 52  2  0
 52 53  1  0
 53 54  2  0
  2 55  1  0
 20 16  1  0
 39 34  1  0
 54 49  1  0
 24 19  1  0
 43 37  1  0
  1 56  1  0
  1 57  1  0
  4 58  1  0
  4 59  1  0
  5 60  1  0
  5 61  1  0
  6 62  1  0
  6 63  1  0
  7 64  1  6
 10 65  1  0
 11 66  1  1
 14 67  1  0
 14 68  1  0
 15 69  1  0
 15 70  1  0
 17 71  1  0
 18 72  1  0
 21 73  1  0
 22 74  1  0
 23 75  1  0
 24 76  1  0
 25 77  1  0
 28 78  1  1
 29 79  1  0
 32 80  1  1
 33 81  1  0
 33 82  1  0
 35 83  1  0
 36 84  1  0
 39 85  1  0
 40 86  1  0
 41 87  1  0
 42 88  1  0
 43 89  1  0
 44 90  1  0
 47 91  1  0
 47 92  1  0
 47 93  1  0
 48 94  1  0
 48 95  1  0
 50 96  1  0
 51 97  1  0
 52 98  1  0
 53 99  1  0
 54100  1  0
 55101  1  0
 55102  1  0
M  END
>  <Ligand ID>  (1) 
LIG0001399

>  <Ligand>  (1) 
CHEMBL94369

>  <SMILES>  (1) 
NC(=NCCC[C@@H](C(=O)N[C@H](C(=O)N)Cc1c[nH]c2c1cccc2)NC(=O)[C@H](NC(=O)[C@H](Cc1ccc2c(c1)cccc2)NC(=O)C)Cc1ccccc1)N

>  <CID>  (1) 
10952751.0

>  <ChEMBL ID>  (1) 
nan

>  <InChiKey>  (1) 
KUGJWPLOGLBSEC-SKXFTCKDSA-N

>  <InChi>  (1) 
InChI=1S/C41H47N9O5/c1-25(51)47-35(22-27-17-18-28-12-5-6-13-29(28)20-27)39(54)50-36(21-26-10-3-2-4-11-26)40(55)48-33(16-9-19-45-41(43)44)38(53)49-34(37(42)52)23-30-24-46-32-15-8-7-14-31(30)32/h2-8,10-15,17-18,20,24,33-36,46H,9,16,19,21-23H2,1H3,(H2,42,52)(H,47,51)(H,48,55)(H,49,53)(H,50,54)(H4,43,44,45)/t33-,34-,35-,36+/m0/s1

>  <IUPAC Name>  (1) 
(2S)-2-[[(2R)-2-[[(2S)-2-acetamido-3-naphthalen-2-ylpropanoyl]amino]-3-phenylpropanoyl]amino]-N-[(2S)-1-amino-3-(1H-indol-3-yl)-1-oxopropan-2-yl]-5-(diaminomethylideneamino)pentanamide

$$$$
