
     RDKit          3D

 42 45  0  0  0  0  0  0  0  0999 V2000
   -0.1112    2.4697    0.3249 O   0  0  0  0  0  0  0  0  0  0  0  0
    0.1763    1.3152   -0.1024 C   0  0  0  0  0  0  0  0  0  0  0  0
    1.5104    0.8612   -0.0338 C   0  0  0  0  0  0  0  0  0  0  0  0
    2.5518    0.3796   -1.4372 S   0  0  0  0  0  0  0  0  0  0  0  0
    3.9980   -0.0194   -0.3874 C   0  0  0  0  0  0  0  0  0  0  0  0
    3.5706    0.2413    0.8903 C   0  0  0  0  0  0  0  0  0  0  0  0
    2.3190    0.6842    1.0688 C   0  0  0  0  0  0  0  0  0  0  0  0
    1.6207    1.0698    2.6882 Cl  0  0  0  0  0  0  0  0  0  0  0  0
    4.5553   -0.0054    1.8752 C   0  0  0  0  0  0  0  0  0  0  0  0
    5.7963   -0.4603    1.5225 C   0  0  0  0  0  0  0  0  0  0  0  0
    6.1901   -0.7119    0.2215 C   0  0  0  0  0  0  0  0  0  0  0  0
    5.2478   -0.4789   -0.7565 C   0  0  0  0  0  0  0  0  0  0  0  0
   -0.9497    0.5750   -0.6295 N   0  0  0  0  0  0  0  0  0  0  0  0
   -2.2093    1.2369   -0.5907 C   0  0  0  0  0  0  0  0  0  0  0  0
   -2.7684    1.4734   -1.9578 C   0  0  0  0  0  0  0  0  0  0  0  0
   -4.1032    2.1604   -1.7812 C   0  0  0  0  0  0  0  0  0  0  0  0
   -4.5923    1.7833   -0.0902 S   0  0  0  0  0  0  0  0  0  0  0  0
   -5.9345    1.1596   -0.0260 O   0  0  0  0  0  0  0  0  0  0  0  0
   -4.4017    2.9542    0.8159 O   0  0  0  0  0  0  0  0  0  0  0  0
   -3.2788    0.5788    0.2296 C   0  0  0  0  0  0  0  0  0  0  0  0
   -0.6785   -0.7347   -1.1459 C   0  0  0  0  0  0  0  0  0  0  0  0
   -0.8011   -1.7559   -0.0785 C   0  0  0  0  0  0  0  0  0  0  0  0
   -1.8478   -2.5391    0.2988 C   0  0  0  0  0  0  0  0  0  0  0  0
   -1.4457   -3.3276    1.3552 C   0  0  0  0  0  0  0  0  0  0  0  0
   -0.1237   -2.9753    1.5814 C   0  0  0  0  0  0  0  0  0  0  0  0
    0.2077   -2.0560    0.7215 O   0  0  0  0  0  0  0  0  0  0  0  0
    4.3659    0.1551    2.9211 H   0  0  0  0  0  0  0  0  0  0  0  0
    6.5241   -0.6375    2.3041 H   0  0  0  0  0  0  0  0  0  0  0  0
    7.1573   -1.0649   -0.0389 H   0  0  0  0  0  0  0  0  0  0  0  0
    5.4273   -0.6353   -1.8127 H   0  0  0  0  0  0  0  0  0  0  0  0
   -2.1014    2.2736   -0.1374 H   0  0  0  0  0  0  0  0  0  0  0  0
   -2.7923    0.5705   -2.5675 H   0  0  0  0  0  0  0  0  0  0  0  0
   -2.1059    2.2246   -2.4666 H   0  0  0  0  0  0  0  0  0  0  0  0
   -4.8305    1.6282   -2.4288 H   0  0  0  0  0  0  0  0  0  0  0  0
   -4.0696    3.2479   -1.9712 H   0  0  0  0  0  0  0  0  0  0  0  0
   -3.6650   -0.3468   -0.2081 H   0  0  0  0  0  0  0  0  0  0  0  0
   -2.9894    0.5575    1.2761 H   0  0  0  0  0  0  0  0  0  0  0  0
   -1.3610   -1.0236   -1.9773 H   0  0  0  0  0  0  0  0  0  0  0  0
    0.3312   -0.7883   -1.5671 H   0  0  0  0  0  0  0  0  0  0  0  0
   -2.8277   -2.5585   -0.1423 H   0  0  0  0  0  0  0  0  0  0  0  0
   -2.0541   -4.0631    1.8837 H   0  0  0  0  0  0  0  0  0  0  0  0
    0.4927   -3.4172    2.3558 H   0  0  0  0  0  0  0  0  0  0  0  0
  1  2  2  0
  2  3  1  0
  3  4  1  0
  4  5  1  0
  5  6  2  0
  6  7  1  0
  7  8  1  0
  6  9  1  0
  9 10  2  0
 10 11  1  0
 11 12  2  0
  2 13  1  0
 13 14  1  0
 14 15  1  0
 15 16  1  0
 16 17  1  0
 17 18  2  0
 17 19  2  0
 17 20  1  0
 13 21  1  0
 21 22  1  0
 22 23  2  0
 23 24  1  0
 24 25  2  0
 25 26  1  0
  7  3  2  0
 20 14  1  0
 26 22  1  0
 12  5  1  0
  9 27  1  0
 10 28  1  0
 11 29  1  0
 12 30  1  0
 14 31  1  0
 15 32  1  0
 15 33  1  0
 16 34  1  0
 16 35  1  0
 20 36  1  0
 20 37  1  0
 21 38  1  0
 21 39  1  0
 23 40  1  0
 24 41  1  0
 25 42  1  0
M  END
>  <Ligand ID>  (1) 
LIG0003253

>  <Ligand>  (1) 
MLS000041094

>  <SMILES>  (1) 
O=C(c1sc2c(c1Cl)cccc2)N(C1CCS(=O)(=O)C1)Cc1ccco1

>  <CID>  (1) 
663898.0

>  <ChEMBL ID>  (1) 
nan

>  <InChiKey>  (1) 
RMFYTABJIVXKKF-UHFFFAOYSA-N

>  <InChi>  (1) 
InChI=1S/C18H16ClNO4S2/c19-16-14-5-1-2-6-15(14)25-17(16)18(21)20(10-13-4-3-8-24-13)12-7-9-26(22,23)11-12/h1-6,8,12H,7,9-11H2

>  <IUPAC Name>  (1) 
3-chloro-N-(1,1-dioxothiolan-3-yl)-N-(furan-2-ylmethyl)-1-benzothiophene-2-carboxamide

$$$$
