
     RDKit          3D

 37 40  0  0  0  0  0  0  0  0999 V2000
   -2.7749   -2.1953    0.6150 C   0  0  0  0  0  0  0  0  0  0  0  0
   -2.3758   -0.8246    0.5505 N   0  0  0  0  0  0  0  0  0  0  0  0
   -3.4453    0.0369    0.0881 C   0  0  0  0  0  0  0  0  0  0  0  0
   -3.0977    1.4800    0.2181 C   0  0  0  0  0  0  0  0  0  0  0  0
   -1.6692    1.7132    0.1154 C   0  0  0  0  0  0  0  0  0  0  0  0
   -0.6752    0.7453   -0.0672 C   0  0  0  0  0  0  0  0  0  0  0  0
   -1.1894   -0.6312   -0.2622 C   0  0  1  0  0  0  0  0  0  0  0  0
   -0.2016   -1.6791   -0.0346 C   0  0  0  0  0  0  0  0  0  0  0  0
    1.2329   -1.2862   -0.2246 C   0  0  0  0  0  0  0  0  0  0  0  0
    2.1206   -2.3574   -0.3572 C   0  0  0  0  0  0  0  0  0  0  0  0
    3.4598   -2.0723   -0.4825 C   0  0  0  0  0  0  0  0  0  0  0  0
    3.9146   -0.7756   -0.4780 C   0  0  0  0  0  0  0  0  0  0  0  0
    2.9929    0.2727   -0.3438 C   0  0  0  0  0  0  0  0  0  0  0  0
    1.6492    0.0121   -0.2177 C   0  0  0  0  0  0  0  0  0  0  0  0
    0.6629    1.0764   -0.1298 C   0  0  0  0  0  0  0  0  0  0  0  0
    1.0619    2.3854   -0.0183 C   0  0  0  0  0  0  0  0  0  0  0  0
    0.0986    3.3873    0.1631 C   0  0  0  0  0  0  0  0  0  0  0  0
   -1.2165    3.0197    0.2235 C   0  0  0  0  0  0  0  0  0  0  0  0
    3.5474    1.5370   -0.3517 O   0  0  0  0  0  0  0  0  0  0  0  0
    5.2820   -0.5207   -0.6065 O   0  0  0  0  0  0  0  0  0  0  0  0
   -2.4005   -2.8159   -0.2152 H   0  0  0  0  0  0  0  0  0  0  0  0
   -3.8718   -2.3637    0.6722 H   0  0  0  0  0  0  0  0  0  0  0  0
   -2.3872   -2.6366    1.5793 H   0  0  0  0  0  0  0  0  0  0  0  0
   -3.7390   -0.2305   -0.9550 H   0  0  0  0  0  0  0  0  0  0  0  0
   -4.3177   -0.2111    0.7476 H   0  0  0  0  0  0  0  0  0  0  0  0
   -3.4833    1.8009    1.2412 H   0  0  0  0  0  0  0  0  0  0  0  0
   -3.6663    2.1208   -0.5066 H   0  0  0  0  0  0  0  0  0  0  0  0
   -1.5132   -0.6767   -1.3542 H   0  0  0  0  0  0  0  0  0  0  0  0
   -0.2862   -2.0009    1.0506 H   0  0  0  0  0  0  0  0  0  0  0  0
   -0.3631   -2.5976   -0.6583 H   0  0  0  0  0  0  0  0  0  0  0  0
    1.7692   -3.3902   -0.3621 H   0  0  0  0  0  0  0  0  0  0  0  0
    4.2044   -2.8486   -0.5888 H   0  0  0  0  0  0  0  0  0  0  0  0
    2.0661    2.7420   -0.0523 H   0  0  0  0  0  0  0  0  0  0  0  0
    0.3883    4.4331    0.2540 H   0  0  0  0  0  0  0  0  0  0  0  0
   -1.9394    3.8279    0.3670 H   0  0  0  0  0  0  0  0  0  0  0  0
    4.4341    1.7203    0.1346 H   0  0  0  0  0  0  0  0  0  0  0  0
    5.7284   -0.1966    0.2464 H   0  0  0  0  0  0  0  0  0  0  0  0
  1  2  1  0
  2  3  1  0
  3  4  1  0
  4  5  1  0
  5  6  2  0
  6  7  1  0
  7  8  1  0
  8  9  1  0
  9 10  2  0
 10 11  1  0
 11 12  2  0
 12 13  1  0
 13 14  2  0
 14 15  1  0
 15 16  2  0
 16 17  1  0
 17 18  2  0
 13 19  1  0
 12 20  1  0
  7  2  1  0
 14  9  1  0
 18  5  1  0
 15  6  1  0
  1 21  1  0
  1 22  1  0
  1 23  1  0
  3 24  1  0
  3 25  1  0
  4 26  1  0
  4 27  1  0
  7 28  1  6
  8 29  1  0
  8 30  1  0
 10 31  1  0
 11 32  1  0
 16 33  1  0
 17 34  1  0
 18 35  1  0
 19 36  1  0
 20 37  1  0
M  END
>  <Ligand ID>  (1) 
LIG0000708

>  <Ligand>  (1) 
apomorphine

>  <SMILES>  (1) 
CN1CCc2c3[C@H]1Cc1ccc(c(c1c3ccc2)O)O

>  <CID>  (1) 
6005.0

>  <ChEMBL ID>  (1) 
nan

>  <InChiKey>  (1) 
VMWNQDUVQKEIOC-CYBMUJFWSA-N

>  <InChi>  (1) 
InChI=1S/C17H17NO2/c1-18-8-7-10-3-2-4-12-15(10)13(18)9-11-5-6-14(19)17(20)16(11)12/h2-6,13,19-20H,7-9H2,1H3/t13-/m1/s1

>  <IUPAC Name>  (1) 
(6aR)-6-methyl-5,6,6a,7-tetrahydro-4H-dibenzo[de,g]quinoline-10,11-diol

$$$$
