
     RDKit          3D

132133  0  0  0  0  0  0  0  0999 V2000
   10.3104   -0.8027    5.7629 N   0  0  0  0  0  0  0  0  0  0  0  0
   10.7536    0.0286    4.6332 C   0  0  0  0  0  0  0  0  0  0  0  0
    9.5570    0.1733    3.7398 C   0  0  0  0  0  0  0  0  0  0  0  0
    9.7942    1.0017    2.5052 C   0  0  0  0  0  0  0  0  0  0  0  0
   10.8796    0.3976    1.6763 C   0  0  0  0  0  0  0  0  0  0  0  0
   11.1412    1.1665    0.3831 C   0  0  1  0  0  0  0  0  0  0  0  0
    9.9574    1.1962   -0.5130 C   0  0  0  0  0  0  0  0  0  0  0  0
    9.5865    0.0454   -0.9488 O   0  0  0  0  0  0  0  0  0  0  0  0
    9.2673    2.3776   -0.8841 N   0  0  0  0  0  0  0  0  0  0  0  0
    8.0973    2.3400   -1.7997 C   0  0  2  0  0  0  0  0  0  0  0  0
    7.0109    1.5683   -1.2380 C   0  0  0  0  0  0  0  0  0  0  0  0
    7.2526    0.9041   -0.1643 O   0  0  0  0  0  0  0  0  0  0  0  0
    5.6849    1.4483   -1.7185 N   0  0  0  0  0  0  0  0  0  0  0  0
    4.7852    0.6176   -0.9645 C   0  0  2  0  0  0  0  0  0  0  0  0
    3.9312   -0.2869   -1.7719 C   0  0  0  0  0  0  0  0  0  0  0  0
    3.9494   -0.2684   -3.0449 O   0  0  0  0  0  0  0  0  0  0  0  0
    3.0943   -1.1759   -1.0464 N   0  0  0  0  0  0  0  0  0  0  0  0
    2.1914   -2.1374   -1.5988 C   0  0  2  0  0  0  0  0  0  0  0  0
    0.8438   -1.9888   -1.0454 C   0  0  0  0  0  0  0  0  0  0  0  0
   -0.1213   -2.7694   -1.2548 O   0  0  0  0  0  0  0  0  0  0  0  0
    0.5856   -0.8795   -0.2029 N   0  0  0  0  0  0  0  0  0  0  0  0
   -0.7368   -0.6540    0.4285 C   0  0  2  0  0  0  0  0  0  0  0  0
   -1.5656    0.1774   -0.4857 C   0  0  0  0  0  0  0  0  0  0  0  0
   -1.0315    0.6208   -1.5574 O   0  0  0  0  0  0  0  0  0  0  0  0
   -2.9078    0.5135   -0.2671 N   0  0  0  0  0  0  0  0  0  0  0  0
   -3.7084    1.3033   -1.1766 C   0  0  0  0  0  0  0  0  0  0  0  0
   -4.0450    2.6848   -0.6733 C   0  0  0  0  0  0  0  0  0  0  0  0
   -5.2944    2.9690   -1.5438 C   0  0  0  0  0  0  0  0  0  0  0  0
   -6.0474    1.7197   -1.3477 N   0  0  0  0  0  0  0  0  0  0  0  0
   -5.0599    0.7108   -1.3505 C   0  0  0  0  0  0  0  0  0  0  0  0
   -5.2919   -0.5281   -1.4832 O   0  0  0  0  0  0  0  0  0  0  0  0
   -7.5044    1.5906   -1.1546 C   0  0  2  0  0  0  0  0  0  0  0  0
   -7.6106    1.3377    0.3182 C   0  0  0  0  0  0  0  0  0  0  0  0
   -7.0722    2.2338    1.0457 O   0  0  0  0  0  0  0  0  0  0  0  0
   -8.2112    0.2630    0.9519 N   0  0  0  0  0  0  0  0  0  0  0  0
   -8.2047    0.2421    2.4192 C   0  0  2  0  0  0  0  0  0  0  0  0
   -7.6846   -1.0158    2.9561 C   0  0  0  0  0  0  0  0  0  0  0  0
   -7.5840   -1.2373    4.1984 O   0  0  0  0  0  0  0  0  0  0  0  0
   -7.2548   -2.0816    2.1071 N   0  0  0  0  0  0  0  0  0  0  0  0
   -9.6325    0.5160    2.8686 C   0  0  0  0  0  0  0  0  0  0  0  0
  -10.5190   -0.5563    2.3236 C   0  0  0  0  0  0  0  0  0  0  0  0
  -12.2335   -0.2446    2.8483 S   0  0  0  0  0  0  0  0  0  0  0  0
  -12.4303   -0.3934    4.6354 C   0  0  0  0  0  0  0  0  0  0  0  0
   -8.1513    0.6030   -2.0296 C   0  0  0  0  0  0  0  0  0  0  0  0
   -9.6379    0.4750   -1.9438 C   0  0  0  0  0  0  0  0  0  0  0  0
  -10.0844   -0.6243   -2.9287 C   0  0  0  0  0  0  0  0  0  0  0  0
  -10.2737    1.7669   -2.5283 C   0  0  0  0  0  0  0  0  0  0  0  0
   -0.4592   -0.0332    1.7490 C   0  0  0  0  0  0  0  0  0  0  0  0
   -1.6974    0.2565    2.5384 C   0  0  0  0  0  0  0  0  0  0  0  0
    0.3972    1.2216    1.6369 C   0  0  0  0  0  0  0  0  0  0  0  0
    2.8234   -3.4946   -1.4107 C   0  0  0  0  0  0  0  0  0  0  0  0
    1.9293   -4.5289   -1.9673 C   0  0  0  0  0  0  0  0  0  0  0  0
    0.9991   -5.2230   -1.1867 C   0  0  0  0  0  0  0  0  0  0  0  0
    0.1973   -6.1680   -1.8130 C   0  0  0  0  0  0  0  0  0  0  0  0
    0.2935   -6.4360   -3.1695 C   0  0  0  0  0  0  0  0  0  0  0  0
    1.2122   -5.7493   -3.9359 C   0  0  0  0  0  0  0  0  0  0  0  0
    2.0283   -4.7959   -3.3290 C   0  0  0  0  0  0  0  0  0  0  0  0
    3.8301    1.6247   -0.2858 C   0  0  0  0  0  0  0  0  0  0  0  0
    3.1969    2.3133   -1.3129 O   0  0  0  0  0  0  0  0  0  0  0  0
    8.5699    1.8041   -3.1309 C   0  0  0  0  0  0  0  0  0  0  0  0
    7.4530    1.7257   -4.0875 C   0  0  0  0  0  0  0  0  0  0  0  0
    6.9044    0.6144   -4.2994 O   0  0  0  0  0  0  0  0  0  0  0  0
    7.0323    2.9049   -4.7363 O   0  0  0  0  0  0  0  0  0  0  0  0
   11.4764    2.5289    0.8311 N   0  0  0  0  0  0  0  0  0  0  0  0
   10.3118   -1.7784    5.3735 H   0  0  0  0  0  0  0  0  0  0  0  0
   10.9174   -0.6878    6.5856 H   0  0  0  0  0  0  0  0  0  0  0  0
   11.1003    1.0225    4.9451 H   0  0  0  0  0  0  0  0  0  0  0  0
   11.5329   -0.5488    4.0665 H   0  0  0  0  0  0  0  0  0  0  0  0
    9.1312   -0.8080    3.4288 H   0  0  0  0  0  0  0  0  0  0  0  0
    8.7786    0.7465    4.3285 H   0  0  0  0  0  0  0  0  0  0  0  0
    8.8282    1.0644    1.9827 H   0  0  0  0  0  0  0  0  0  0  0  0
   10.1055    2.0159    2.8954 H   0  0  0  0  0  0  0  0  0  0  0  0
   11.8096    0.3614    2.2871 H   0  0  0  0  0  0  0  0  0  0  0  0
   10.5902   -0.6343    1.3946 H   0  0  0  0  0  0  0  0  0  0  0  0
   12.0500    0.7939   -0.0963 H   0  0  0  0  0  0  0  0  0  0  0  0
    9.6137    3.2774   -0.4896 H   0  0  0  0  0  0  0  0  0  0  0  0
    7.8549    3.4269   -2.0092 H   0  0  0  0  0  0  0  0  0  0  0  0
    5.4220    1.9687   -2.5697 H   0  0  0  0  0  0  0  0  0  0  0  0
    5.2661    0.0672   -0.1330 H   0  0  0  0  0  0  0  0  0  0  0  0
    3.1367   -1.1327    0.0104 H   0  0  0  0  0  0  0  0  0  0  0  0
    2.1766   -1.9700   -2.7019 H   0  0  0  0  0  0  0  0  0  0  0  0
    1.3410   -0.1935   -0.0150 H   0  0  0  0  0  0  0  0  0  0  0  0
   -1.1885   -1.6562    0.5565 H   0  0  0  0  0  0  0  0  0  0  0  0
   -3.4139    0.1757    0.5931 H   0  0  0  0  0  0  0  0  0  0  0  0
   -3.2374    1.4218   -2.1482 H   0  0  0  0  0  0  0  0  0  0  0  0
   -4.3900    2.6776    0.3785 H   0  0  0  0  0  0  0  0  0  0  0  0
   -3.3018    3.4459   -0.9201 H   0  0  0  0  0  0  0  0  0  0  0  0
   -5.0262    3.1021   -2.6052 H   0  0  0  0  0  0  0  0  0  0  0  0
   -5.8291    3.8523   -1.1983 H   0  0  0  0  0  0  0  0  0  0  0  0
   -7.9940    2.6023   -1.2850 H   0  0  0  0  0  0  0  0  0  0  0  0
   -8.6262   -0.5187    0.4569 H   0  0  0  0  0  0  0  0  0  0  0  0
   -7.6089    1.0983    2.8388 H   0  0  0  0  0  0  0  0  0  0  0  0
   -6.2779   -2.3962    2.0047 H   0  0  0  0  0  0  0  0  0  0  0  0
   -8.0122   -2.5555    1.5630 H   0  0  0  0  0  0  0  0  0  0  0  0
   -9.9150    1.4991    2.4566 H   0  0  0  0  0  0  0  0  0  0  0  0
   -9.6598    0.5642    3.9797 H   0  0  0  0  0  0  0  0  0  0  0  0
  -10.4823   -0.6122    1.2200 H   0  0  0  0  0  0  0  0  0  0  0  0
  -10.2593   -1.5639    2.7143 H   0  0  0  0  0  0  0  0  0  0  0  0
  -13.2590    0.2733    4.9494 H   0  0  0  0  0  0  0  0  0  0  0  0
  -11.5029   -0.0301    5.1607 H   0  0  0  0  0  0  0  0  0  0  0  0
  -12.6888   -1.4162    4.9671 H   0  0  0  0  0  0  0  0  0  0  0  0
   -7.6903   -0.4244   -1.8762 H   0  0  0  0  0  0  0  0  0  0  0  0
   -7.9267    0.8567   -3.1021 H   0  0  0  0  0  0  0  0  0  0  0  0
  -10.0939    0.2720   -0.9928 H   0  0  0  0  0  0  0  0  0  0  0  0
  -11.1546   -0.8450   -2.8048 H   0  0  0  0  0  0  0  0  0  0  0  0
   -9.4888   -1.5509   -2.7487 H   0  0  0  0  0  0  0  0  0  0  0  0
   -9.8984   -0.3222   -3.9593 H   0  0  0  0  0  0  0  0  0  0  0  0
   -9.8928    1.8340   -3.5704 H   0  0  0  0  0  0  0  0  0  0  0  0
  -11.3648    1.5931   -2.5816 H   0  0  0  0  0  0  0  0  0  0  0  0
   -9.9934    2.6249   -1.9035 H   0  0  0  0  0  0  0  0  0  0  0  0
    0.1090   -0.7986    2.3796 H   0  0  0  0  0  0  0  0  0  0  0  0
   -2.3937   -0.6030    2.5083 H   0  0  0  0  0  0  0  0  0  0  0  0
   -2.1957    1.1964    2.2779 H   0  0  0  0  0  0  0  0  0  0  0  0
   -1.4591    0.3725    3.6395 H   0  0  0  0  0  0  0  0  0  0  0  0
    1.4053    0.9970    2.0819 H   0  0  0  0  0  0  0  0  0  0  0  0
   -0.0379    1.9806    2.2888 H   0  0  0  0  0  0  0  0  0  0  0  0
    0.5195    1.5483    0.5963 H   0  0  0  0  0  0  0  0  0  0  0  0
    3.8012   -3.4762   -1.9443 H   0  0  0  0  0  0  0  0  0  0  0  0
    2.9373   -3.6794   -0.3192 H   0  0  0  0  0  0  0  0  0  0  0  0
    0.9188   -5.0245   -0.1262 H   0  0  0  0  0  0  0  0  0  0  0  0
   -0.5261   -6.6966   -1.1788 H   0  0  0  0  0  0  0  0  0  0  0  0
   -0.3537   -7.1797   -3.6102 H   0  0  0  0  0  0  0  0  0  0  0  0
    1.3284   -5.9205   -5.0086 H   0  0  0  0  0  0  0  0  0  0  0  0
    2.7354   -4.2800   -3.9663 H   0  0  0  0  0  0  0  0  0  0  0  0
    3.1901    1.1722    0.4583 H   0  0  0  0  0  0  0  0  0  0  0  0
    4.5294    2.3940    0.1744 H   0  0  0  0  0  0  0  0  0  0  0  0
    2.2531    2.4925   -1.1699 H   0  0  0  0  0  0  0  0  0  0  0  0
    9.2607    2.6043   -3.5360 H   0  0  0  0  0  0  0  0  0  0  0  0
    9.1277    0.8454   -3.0526 H   0  0  0  0  0  0  0  0  0  0  0  0
    6.1324    2.9445   -5.2062 H   0  0  0  0  0  0  0  0  0  0  0  0
   12.1962    2.9768    0.2271 H   0  0  0  0  0  0  0  0  0  0  0  0
   11.7704    2.5500    1.8344 H   0  0  0  0  0  0  0  0  0  0  0  0
  1  2  1  0
  2  3  1  0
  3  4  1  0
  4  5  1  0
  5  6  1  0
  6  7  1  0
  7  8  2  0
  7  9  1  0
  9 10  1  0
 10 11  1  0
 11 12  2  0
 11 13  1  0
 13 14  1  0
 14 15  1  0
 15 16  2  0
 15 17  1  0
 17 18  1  0
 18 19  1  0
 19 20  2  0
 19 21  1  0
 21 22  1  0
 22 23  1  0
 23 24  2  0
 23 25  1  0
 25 26  1  0
 26 27  1  0
 27 28  1  0
 28 29  1  0
 29 30  1  0
 30 31  2  0
 29 32  1  0
 32 33  1  0
 33 34  2  0
 33 35  1  0
 35 36  1  0
 36 37  1  0
 37 38  2  0
 37 39  1  0
 36 40  1  0
 40 41  1  0
 41 42  1  0
 42 43  1  0
 32 44  1  0
 44 45  1  0
 45 46  1  0
 45 47  1  0
 22 48  1  0
 48 49  1  0
 48 50  1  0
 18 51  1  0
 51 52  1  0
 52 53  2  0
 53 54  1  0
 54 55  2  0
 55 56  1  0
 56 57  2  0
 14 58  1  0
 58 59  1  0
 10 60  1  0
 60 61  1  0
 61 62  2  0
 61 63  1  0
  6 64  1  0
 30 26  1  0
 57 52  1  0
  1 65  1  0
  1 66  1  0
  2 67  1  0
  2 68  1  0
  3 69  1  0
  3 70  1  0
  4 71  1  0
  4 72  1  0
  5 73  1  0
  5 74  1  0
  6 75  1  6
  9 76  1  0
 10 77  1  6
 13 78  1  0
 14 79  1  1
 17 80  1  0
 18 81  1  6
 21 82  1  0
 22 83  1  1
 25 84  1  0
 26 85  1  0
 27 86  1  0
 27 87  1  0
 28 88  1  0
 28 89  1  0
 32 90  1  1
 35 91  1  0
 36 92  1  1
 39 93  1  0
 39 94  1  0
 40 95  1  0
 40 96  1  0
 41 97  1  0
 41 98  1  0
 43 99  1  0
 43100  1  0
 43101  1  0
 44102  1  0
 44103  1  0
 45104  1  0
 46105  1  0
 46106  1  0
 46107  1  0
 47108  1  0
 47109  1  0
 47110  1  0
 48111  1  0
 49112  1  0
 49113  1  0
 49114  1  0
 50115  1  0
 50116  1  0
 50117  1  0
 51118  1  0
 51119  1  0
 53120  1  0
 54121  1  0
 55122  1  0
 56123  1  0
 57124  1  0
 58125  1  0
 58126  1  0
 59127  1  0
 60128  1  0
 60129  1  0
 63130  1  0
 64131  1  0
 64132  1  0
M  END
>  <Ligand ID>  (1) 
LIG0003426

>  <Ligand>  (1) 
CHEMBL131872

>  <SMILES>  (1) 
NCCCC[C@@H](C(=O)N[C@H](C(=O)N[C@H](C(=O)N[C@H](C(=O)N[C@H](C(=O)NC1CCN(C1=O)[C@H](C(=O)N[C@H](C(=O)N)CCSC)CC(C)C)C(C)C)Cc1ccccc1)CO)CC(=O)O)N

>  <CID>  (1) 
5311135.0

>  <ChEMBL ID>  (1) 
nan

>  <InChiKey>  (1) 
HVUNRXRFMQDMBO-BPZYSUIOSA-N

>  <InChi>  (1) 
InChI=1S/C42H68N10O11S/c1-23(2)19-32(40(61)46-27(35(45)56)15-18-64-5)52-17-14-28(42(52)63)47-41(62)34(24(3)4)51-38(59)29(20-25-11-7-6-8-12-25)49-39(60)31(22-53)50-37(58)30(21-33(54)55)48-36(57)26(44)13-9-10-16-43/h6-8,11-12,23-24,26-32,34,53H,9-10,13-22,43-44H2,1-5H3,(H2,45,56)(H,46,61)(H,47,62)(H,48,57)(H,49,60)(H,50,58)(H,51,59)(H,54,55)/t26-,27-,28?,29-,30-,31-,32-,34-/m0/s1

>  <IUPAC Name>  (1) 
(3S)-4-[[(2S)-1-[[(2S)-1-[[(2S)-1-[[1-[(2S)-1-[[(2S)-1-amino-4-methylsulfanyl-1-oxobutan-2-yl]amino]-4-methyl-1-oxopentan-2-yl]-2-oxopyrrolidin-3-yl]amino]-3-methyl-1-oxobutan-2-yl]amino]-1-oxo-3-phenylpropan-2-yl]amino]-3-hydroxy-1-oxopropan-2-yl]amino]-3-[[(2S)-2,6-diaminohexanoyl]amino]-4-oxobutanoic acid

$$$$
