
     RDKit          3D

 52 54  0  0  0  0  0  0  0  0999 V2000
   -1.8925    4.3639   -1.2144 C   0  0  0  0  0  0  0  0  0  0  0  0
   -2.4081    3.2060   -1.6280 C   0  0  0  0  0  0  0  0  0  0  0  0
   -3.1297    2.3141   -0.7092 C   0  0  0  0  0  0  0  0  0  0  0  0
   -2.4567    1.0650   -0.6656 O   0  0  0  0  0  0  0  0  0  0  0  0
   -3.0295   -0.0614   -0.1822 N   0  0  0  0  0  0  0  0  0  0  0  0
   -2.4607   -0.9496    0.5446 C   0  0  0  0  0  0  0  0  0  0  0  0
   -3.3297   -2.0917    0.9376 C   0  0  0  0  0  0  0  0  0  0  0  0
   -2.8527   -3.1222    1.7190 C   0  0  0  0  0  0  0  0  0  0  0  0
   -3.6148   -4.2002    2.1098 C   0  0  0  0  0  0  0  0  0  0  0  0
   -4.9346   -4.2488    1.6927 C   0  0  0  0  0  0  0  0  0  0  0  0
   -5.4407   -3.2323    0.9098 C   0  0  0  0  0  0  0  0  0  0  0  0
   -4.6446   -2.1675    0.5384 C   0  0  0  0  0  0  0  0  0  0  0  0
   -1.0982   -0.9637    1.0194 C   0  0  0  0  0  0  0  0  0  0  0  0
   -0.1604    0.1162    0.6601 C   0  0  0  0  0  0  0  0  0  0  0  0
    0.1183    0.3216   -0.7214 N   0  0  0  0  0  0  0  0  0  0  0  0
    0.8177   -0.7450   -1.3666 C   0  0  0  0  0  0  0  0  0  0  0  0
    2.2232   -0.8069   -0.8643 C   0  0  0  0  0  0  0  0  0  0  0  0
    2.7392    0.4302   -0.3801 N   0  0  0  0  0  0  0  0  0  0  0  0
    2.0389    1.6738   -0.3340 C   0  0  0  0  0  0  0  0  0  0  0  0
    0.6835    1.6190   -1.0018 C   0  0  0  0  0  0  0  0  0  0  0  0
    4.0964    0.4270    0.1103 C   0  0  0  0  0  0  0  0  0  0  0  0
    4.6885    1.5633    0.6231 C   0  0  0  0  0  0  0  0  0  0  0  0
    5.9946    1.5753    1.0987 C   0  0  0  0  0  0  0  0  0  0  0  0
    6.7269    0.4126    1.0578 C   0  0  0  0  0  0  0  0  0  0  0  0
    6.1151   -0.7042    0.5430 C   0  0  0  0  0  0  0  0  0  0  0  0
    4.8541   -0.6872    0.0914 N   0  0  0  0  0  0  0  0  0  0  0  0
   -2.0271    4.6221   -0.1698 H   0  0  0  0  0  0  0  0  0  0  0  0
   -1.3682    4.9879   -1.9342 H   0  0  0  0  0  0  0  0  0  0  0  0
   -2.3055    2.8914   -2.6650 H   0  0  0  0  0  0  0  0  0  0  0  0
   -4.2075    2.2267   -0.8708 H   0  0  0  0  0  0  0  0  0  0  0  0
   -3.0309    2.7260    0.3377 H   0  0  0  0  0  0  0  0  0  0  0  0
   -1.8336   -3.0742    2.0347 H   0  0  0  0  0  0  0  0  0  0  0  0
   -3.1642   -4.9630    2.7213 H   0  0  0  0  0  0  0  0  0  0  0  0
   -5.5459   -5.0986    1.9970 H   0  0  0  0  0  0  0  0  0  0  0  0
   -6.4667   -3.2426    0.5690 H   0  0  0  0  0  0  0  0  0  0  0  0
   -5.0621   -1.3625   -0.0873 H   0  0  0  0  0  0  0  0  0  0  0  0
   -0.5866   -1.9181    0.6490 H   0  0  0  0  0  0  0  0  0  0  0  0
   -1.0877   -1.1628    2.1470 H   0  0  0  0  0  0  0  0  0  0  0  0
   -0.4228    1.1182    1.0705 H   0  0  0  0  0  0  0  0  0  0  0  0
    0.8156   -0.1223    1.1478 H   0  0  0  0  0  0  0  0  0  0  0  0
    0.2688   -1.6861   -1.1803 H   0  0  0  0  0  0  0  0  0  0  0  0
    0.8359   -0.5859   -2.4545 H   0  0  0  0  0  0  0  0  0  0  0  0
    2.9341   -1.1728   -1.6421 H   0  0  0  0  0  0  0  0  0  0  0  0
    2.3214   -1.5542   -0.0273 H   0  0  0  0  0  0  0  0  0  0  0  0
    1.8776    1.8987    0.7626 H   0  0  0  0  0  0  0  0  0  0  0  0
    2.6405    2.5377   -0.6866 H   0  0  0  0  0  0  0  0  0  0  0  0
    0.0428    2.3463   -0.4515 H   0  0  0  0  0  0  0  0  0  0  0  0
    0.7250    1.8570   -2.0662 H   0  0  0  0  0  0  0  0  0  0  0  0
    4.1555    2.4863    0.6733 H   0  0  0  0  0  0  0  0  0  0  0  0
    6.4668    2.4485    1.4991 H   0  0  0  0  0  0  0  0  0  0  0  0
    7.7430    0.3518    1.4093 H   0  0  0  0  0  0  0  0  0  0  0  0
    6.6388   -1.6629    0.4804 H   0  0  0  0  0  0  0  0  0  0  0  0
  1  2  2  0
  2  3  1  0
  3  4  1  0
  4  5  1  0
  5  6  2  0
  6  7  1  0
  7  8  2  0
  8  9  1  0
  9 10  2  0
 10 11  1  0
 11 12  2  0
  6 13  1  0
 13 14  1  0
 14 15  1  0
 15 16  1  0
 16 17  1  0
 17 18  1  0
 18 19  1  0
 19 20  1  0
 18 21  1  0
 21 22  2  0
 22 23  1  0
 23 24  2  0
 24 25  1  0
 25 26  2  0
 12  7  1  0
 20 15  1  0
 26 21  1  0
  1 27  1  0
  1 28  1  0
  2 29  1  0
  3 30  1  0
  3 31  1  0
  8 32  1  0
  9 33  1  0
 10 34  1  0
 11 35  1  0
 12 36  1  0
 13 37  1  0
 13 38  1  0
 14 39  1  0
 14 40  1  0
 16 41  1  0
 16 42  1  0
 17 43  1  0
 17 44  1  0
 19 45  1  0
 19 46  1  0
 20 47  1  0
 20 48  1  0
 22 49  1  0
 23 50  1  0
 24 51  1  0
 25 52  1  0
M  END
>  <Ligand ID>  (1) 
LIG0005646

>  <Ligand>  (1) 
CHEMBL213700

>  <SMILES>  (1) 
C=CCO/N=C(/c1ccccc1)\CCN1CCN(CC1)c1ccccn1

>  <CID>  (1) 
11849684.0

>  <ChEMBL ID>  (1) 
nan

>  <InChiKey>  (1) 
DAYZTFAZYTUMGD-BSYVCWPDSA-N

>  <InChi>  (1) 
InChI=1S/C21H26N4O/c1-2-18-26-23-20(19-8-4-3-5-9-19)11-13-24-14-16-25(17-15-24)21-10-6-7-12-22-21/h2-10,12H,1,11,13-18H2/b23-20+

>  <IUPAC Name>  (1) 
(E)-1-phenyl-N-prop-2-enoxy-3-(4-pyridin-2-ylpiperazin-1-yl)propan-1-imine

$$$$
