
     RDKit          3D

 19 19  0  0  0  0  0  0  0  0999 V2000
    2.7403    0.4346    0.2160 C   0  0  0  0  0  0  0  0  0  0  0  0
    1.6083   -0.4297   -0.2243 C   0  0  0  0  0  0  0  0  0  0  0  0
    1.8148   -1.5351   -0.7921 O   0  0  0  0  0  0  0  0  0  0  0  0
    0.2302   -0.0045   -0.0021 C   0  0  0  0  0  0  0  0  0  0  0  0
   -0.0515    1.1962    0.6149 C   0  0  0  0  0  0  0  0  0  0  0  0
   -1.3553    1.6021    0.8270 C   0  0  0  0  0  0  0  0  0  0  0  0
   -2.3840    0.7770    0.4064 C   0  0  0  0  0  0  0  0  0  0  0  0
   -2.0726   -0.4197   -0.2087 C   0  0  0  0  0  0  0  0  0  0  0  0
   -0.7748   -0.8371   -0.4266 C   0  0  0  0  0  0  0  0  0  0  0  0
   -0.5795   -2.0762   -1.0631 N   0  0  0  0  0  0  0  0  0  0  0  0
    2.8887    0.2534    1.2970 H   0  0  0  0  0  0  0  0  0  0  0  0
    2.5220    1.5071    0.0615 H   0  0  0  0  0  0  0  0  0  0  0  0
    3.6786    0.1612   -0.3186 H   0  0  0  0  0  0  0  0  0  0  0  0
    0.7221    1.8610    0.9540 H   0  0  0  0  0  0  0  0  0  0  0  0
   -1.6245    2.5282    1.3031 H   0  0  0  0  0  0  0  0  0  0  0  0
   -3.4055    1.0899    0.5699 H   0  0  0  0  0  0  0  0  0  0  0  0
   -2.9013   -1.0452   -0.5274 H   0  0  0  0  0  0  0  0  0  0  0  0
   -0.0801   -2.8955   -0.6413 H   0  0  0  0  0  0  0  0  0  0  0  0
   -0.9761   -2.1678   -2.0455 H   0  0  0  0  0  0  0  0  0  0  0  0
  1  2  1  0
  2  3  2  0
  2  4  1  0
  4  5  2  0
  5  6  1  0
  6  7  2  0
  7  8  1  0
  8  9  2  0
  9 10  1  0
  9  4  1  0
  1 11  1  0
  1 12  1  0
  1 13  1  0
  5 14  1  0
  6 15  1  0
  7 16  1  0
  8 17  1  0
 10 18  1  0
 10 19  1  0
M  END
>  <Ligand ID>  (1) 
LIG0002050

>  <Ligand>  (1) 
o-Aminoacetophenone

>  <SMILES>  (1) 
CC(=O)c1ccccc1N

>  <CID>  (1) 
11086.0

>  <ChEMBL ID>  (1) 
nan

>  <InChiKey>  (1) 
GTDQGKWDWVUKTI-UHFFFAOYSA-N

>  <InChi>  (1) 
InChI=1S/C8H9NO/c1-6(10)7-4-2-3-5-8(7)9/h2-5H,9H2,1H3

>  <IUPAC Name>  (1) 
1-(2-aminophenyl)ethanone

$$$$
