
     RDKit          3D

 30 31  0  0  0  0  0  0  0  0999 V2000
    3.1341   -1.0740    1.0513 O   0  0  0  0  0  0  0  0  0  0  0  0
    3.3306   -0.4796   -0.1790 C   0  0  0  0  0  0  0  0  0  0  0  0
    4.4279    0.1269   -0.4217 O   0  0  0  0  0  0  0  0  0  0  0  0
    2.3237   -0.5081   -1.2473 C   0  0  1  0  0  0  0  0  0  0  0  0
    0.9860    0.0825   -0.8147 C   0  0  1  0  0  0  0  0  0  0  0  0
    0.2749   -0.5254    0.3031 C   0  0  1  0  0  0  0  0  0  0  0  0
    0.9180    0.8319    0.4904 C   0  0  2  0  0  0  0  0  0  0  0  0
    0.1083    2.0530    0.6254 C   0  0  0  0  0  0  0  0  0  0  0  0
    0.5860    2.9596    1.3954 O   0  0  0  0  0  0  0  0  0  0  0  0
   -1.0834    2.3260    0.0280 O   0  0  0  0  0  0  0  0  0  0  0  0
   -1.1845   -0.5587    0.4098 C   0  0  0  0  0  0  0  0  0  0  0  0
   -2.0684   -0.1653   -0.5613 C   0  0  0  0  0  0  0  0  0  0  0  0
   -3.4300   -0.2006   -0.4173 C   0  0  0  0  0  0  0  0  0  0  0  0
   -3.9598   -0.6591    0.7750 C   0  0  0  0  0  0  0  0  0  0  0  0
   -3.1098   -1.0690    1.7883 C   0  0  0  0  0  0  0  0  0  0  0  0
   -1.7406   -1.0188    1.6064 C   0  0  0  0  0  0  0  0  0  0  0  0
    2.8010    0.1868   -2.4378 N   0  0  0  0  0  0  0  0  0  0  0  0
    3.7384   -0.8997    1.8538 H   0  0  0  0  0  0  0  0  0  0  0  0
    2.1158   -1.5614   -1.5502 H   0  0  0  0  0  0  0  0  0  0  0  0
    0.4434    0.5828   -1.6543 H   0  0  0  0  0  0  0  0  0  0  0  0
    0.8191   -1.3133    0.9094 H   0  0  0  0  0  0  0  0  0  0  0  0
    1.8705    0.8890    1.1035 H   0  0  0  0  0  0  0  0  0  0  0  0
   -1.2940    3.2502   -0.3025 H   0  0  0  0  0  0  0  0  0  0  0  0
   -1.6826    0.1886   -1.5091 H   0  0  0  0  0  0  0  0  0  0  0  0
   -4.0687    0.1249   -1.2235 H   0  0  0  0  0  0  0  0  0  0  0  0
   -5.0389   -0.6760    0.8608 H   0  0  0  0  0  0  0  0  0  0  0  0
   -3.5678   -1.4225    2.7087 H   0  0  0  0  0  0  0  0  0  0  0  0
   -1.0864   -1.3427    2.4077 H   0  0  0  0  0  0  0  0  0  0  0  0
    1.9694    0.3174   -3.0577 H   0  0  0  0  0  0  0  0  0  0  0  0
    3.4678   -0.4455   -2.9405 H   0  0  0  0  0  0  0  0  0  0  0  0
  1  2  1  0
  2  3  2  0
  2  4  1  0
  4  5  1  0
  5  6  1  0
  6  7  1  0
  7  8  1  0
  8  9  2  0
  8 10  1  0
  6 11  1  0
 11 12  2  0
 12 13  1  0
 13 14  2  0
 14 15  1  0
 15 16  2  0
  4 17  1  0
  7  5  1  0
 16 11  1  0
  1 18  1  0
  4 19  1  6
  5 20  1  6
  6 21  1  1
  7 22  1  1
 10 23  1  0
 12 24  1  0
 13 25  1  0
 14 26  1  0
 15 27  1  0
 16 28  1  0
 17 29  1  0
 17 30  1  0
M  END
>  <Ligand ID>  (1) 
LIG0002590

>  <Ligand>  (1) 
CHEMBL2115153

>  <SMILES>  (1) 
OC(=O)[C@@H]([C@H]1[C@@H]([C@@H]1C(=O)O)c1ccccc1)N

>  <CID>  (1) 
10513895.0

>  <ChEMBL ID>  (1) 
nan

>  <InChiKey>  (1) 
IFLWVSHRWAIVQF-AATLWQCWSA-N

>  <InChi>  (1) 
InChI=1S/C12H13NO4/c13-10(12(16)17)8-7(9(8)11(14)15)6-4-2-1-3-5-6/h1-5,7-10H,13H2,(H,14,15)(H,16,17)/t7-,8-,9-,10+/m0/s1

>  <IUPAC Name>  (1) 
(1S,2S,3S)-2-[(R)-amino(carboxy)methyl]-3-phenylcyclopropane-1-carboxylic acid

$$$$
