
     RDKit          3D

 48 51  0  0  0  0  0  0  0  0999 V2000
    8.4339    0.4014    0.5389 O   0  0  0  0  0  0  0  0  0  0  0  0
    7.2915    0.5850    1.3301 C   0  0  0  0  0  0  0  0  0  0  0  0
    6.9486    1.7570    1.6515 O   0  0  0  0  0  0  0  0  0  0  0  0
    6.4633   -0.5509    1.8084 C   0  0  0  0  0  0  0  0  0  0  0  0
    5.2668   -0.7336    0.9192 C   0  0  0  0  0  0  0  0  0  0  0  0
    4.3686    0.4840    0.8652 C   0  0  0  0  0  0  0  0  0  0  0  0
    3.2365    0.2413   -0.0046 N   0  0  0  0  0  0  0  0  0  0  0  0
    2.3550    1.3893   -0.0755 C   0  0  0  0  0  0  0  0  0  0  0  0
    1.2193    1.1449   -0.9429 C   0  0  0  0  0  0  0  0  0  0  0  0
    1.2803    1.5581   -2.7883 S   0  0  0  0  0  0  0  0  0  0  0  0
   -0.3900    0.9885   -3.0596 C   0  0  0  0  0  0  0  0  0  0  0  0
   -0.8496    0.5583   -1.8423 C   0  0  0  0  0  0  0  0  0  0  0  0
   -0.0252    0.6450   -0.7884 C   0  0  0  0  0  0  0  0  0  0  0  0
   -2.1764    0.0713   -1.8700 C   0  0  0  0  0  0  0  0  0  0  0  0
   -2.8957    0.0548   -3.0439 C   0  0  0  0  0  0  0  0  0  0  0  0
   -2.4060    0.4945   -4.2524 C   0  0  0  0  0  0  0  0  0  0  0  0
   -1.1038    0.9744   -4.2364 C   0  0  0  0  0  0  0  0  0  0  0  0
   -2.8354   -0.4474   -0.6837 C   0  0  0  0  0  0  0  0  0  0  0  0
   -2.2861   -1.3918    0.1538 C   0  0  0  0  0  0  0  0  0  0  0  0
   -2.9688   -1.8339    1.2808 C   0  0  0  0  0  0  0  0  0  0  0  0
   -4.2255   -1.2847    1.5259 C   0  0  0  0  0  0  0  0  0  0  0  0
   -4.7934   -0.3442    0.7080 C   0  0  0  0  0  0  0  0  0  0  0  0
   -4.1007    0.0807   -0.4034 C   0  0  0  0  0  0  0  0  0  0  0  0
   -6.0348    0.2104    0.9365 C   0  0  0  0  0  0  0  0  0  0  0  0
   -6.7210   -0.2232    2.0569 C   0  0  0  0  0  0  0  0  0  0  0  0
   -6.1528   -1.1792    2.8954 C   0  0  0  0  0  0  0  0  0  0  0  0
   -4.9067   -1.7157    2.6389 C   0  0  0  0  0  0  0  0  0  0  0  0
    8.5941    1.1810   -0.1222 H   0  0  0  0  0  0  0  0  0  0  0  0
    6.1012   -0.3495    2.8544 H   0  0  0  0  0  0  0  0  0  0  0  0
    7.0381   -1.4978    1.7582 H   0  0  0  0  0  0  0  0  0  0  0  0
    5.5867   -1.0463   -0.0884 H   0  0  0  0  0  0  0  0  0  0  0  0
    4.6474   -1.5554    1.3879 H   0  0  0  0  0  0  0  0  0  0  0  0
    5.0039    1.3109    0.4378 H   0  0  0  0  0  0  0  0  0  0  0  0
    4.0505    0.7880    1.8797 H   0  0  0  0  0  0  0  0  0  0  0  0
    3.6022   -0.0333   -0.9400 H   0  0  0  0  0  0  0  0  0  0  0  0
    2.9489    2.2452   -0.4843 H   0  0  0  0  0  0  0  0  0  0  0  0
    1.9881    1.6069    0.9446 H   0  0  0  0  0  0  0  0  0  0  0  0
   -0.3361    0.3154    0.2435 H   0  0  0  0  0  0  0  0  0  0  0  0
   -3.9066   -0.3205   -3.0397 H   0  0  0  0  0  0  0  0  0  0  0  0
   -2.9348    0.4940   -5.1737 H   0  0  0  0  0  0  0  0  0  0  0  0
   -0.6275    1.3406   -5.1246 H   0  0  0  0  0  0  0  0  0  0  0  0
   -1.3310   -1.8049   -0.0506 H   0  0  0  0  0  0  0  0  0  0  0  0
   -2.5544   -2.5777    1.9562 H   0  0  0  0  0  0  0  0  0  0  0  0
   -4.5460    0.8285   -1.0593 H   0  0  0  0  0  0  0  0  0  0  0  0
   -6.4781    0.9587    0.2795 H   0  0  0  0  0  0  0  0  0  0  0  0
   -7.6990    0.1667    2.3024 H   0  0  0  0  0  0  0  0  0  0  0  0
   -6.6844   -1.5326    3.7858 H   0  0  0  0  0  0  0  0  0  0  0  0
   -4.4551   -2.4521    3.2749 H   0  0  0  0  0  0  0  0  0  0  0  0
  1  2  1  0
  2  3  2  0
  2  4  1  0
  4  5  1  0
  5  6  1  0
  6  7  1  0
  7  8  1  0
  8  9  1  0
  9 10  1  0
 10 11  1  0
 11 12  2  0
 12 13  1  0
 12 14  1  0
 14 15  2  0
 15 16  1  0
 16 17  2  0
 14 18  1  0
 18 19  2  0
 19 20  1  0
 20 21  2  0
 21 22  1  0
 22 23  2  0
 22 24  1  0
 24 25  2  0
 25 26  1  0
 26 27  2  0
 13  9  2  0
 23 18  1  0
 17 11  1  0
 27 21  1  0
  1 28  1  0
  4 29  1  0
  4 30  1  0
  5 31  1  0
  5 32  1  0
  6 33  1  0
  6 34  1  0
  7 35  1  0
  8 36  1  0
  8 37  1  0
 13 38  1  0
 15 39  1  0
 16 40  1  0
 17 41  1  0
 19 42  1  0
 20 43  1  0
 23 44  1  0
 24 45  1  0
 25 46  1  0
 26 47  1  0
 27 48  1  0
M  END
>  <Ligand ID>  (1) 
LIG0001276

>  <Ligand>  (1) 
CHEMBL3885331

>  <SMILES>  (1) 
OC(=O)CCCNCc1sc2c(c1)c(ccc2)c1ccc2c(c1)cccc2

>  <CID>  (1) 
134131381.0

>  <ChEMBL ID>  (1) 
nan

>  <InChiKey>  (1) 
ULLRYVBTGBAGLM-UHFFFAOYSA-N

>  <InChi>  (1) 
InChI=1S/C23H21NO2S/c25-23(26)9-4-12-24-15-19-14-21-20(7-3-8-22(21)27-19)18-11-10-16-5-1-2-6-17(16)13-18/h1-3,5-8,10-11,13-14,24H,4,9,12,15H2,(H,25,26)

>  <IUPAC Name>  (1) 
4-[(4-naphthalen-2-yl-1-benzothiophen-2-yl)methylamino]butanoic acid

$$$$
