
     RDKit          3D

 33 36  0  0  0  0  0  0  0  0999 V2000
   -1.6393    4.2294    0.3141 F   0  0  0  0  0  0  0  0  0  0  0  0
   -1.1719    2.9636    0.1801 C   0  0  0  0  0  0  0  0  0  0  0  0
    0.1872    2.7917    0.1305 C   0  0  0  0  0  0  0  0  0  0  0  0
    0.6528    1.4999   -0.0037 C   0  0  0  0  0  0  0  0  0  0  0  0
   -0.2221    0.4062   -0.0864 C   0  0  0  0  0  0  0  0  0  0  0  0
   -1.5750    0.5731   -0.0417 C   0  0  0  0  0  0  0  0  0  0  0  0
   -2.0186    1.9010    0.0977 C   0  0  0  0  0  0  0  0  0  0  0  0
   -2.5820   -0.4352   -0.2464 C   0  0  0  0  0  0  0  0  0  0  0  0
   -3.8881   -0.2713    0.2581 C   0  0  0  0  0  0  0  0  0  0  0  0
   -4.6337   -1.3925   -0.0139 C   0  0  0  0  0  0  0  0  0  0  0  0
   -3.8043   -2.2191   -0.6682 N   0  0  0  0  0  0  0  0  0  0  0  0
   -2.6011   -1.6438   -0.7994 N   0  0  0  0  0  0  0  0  0  0  0  0
    0.4307   -0.9236   -0.0975 C   0  0  0  0  0  0  0  0  0  0  0  0
    1.4202   -0.9904    1.0857 C   0  0  0  0  0  0  0  0  0  0  0  0
    2.6988   -0.7096    0.4775 N   0  0  0  0  0  0  0  0  0  0  0  0
    2.6348   -0.7366   -0.8570 C   0  0  0  0  0  0  0  0  0  0  0  0
    1.2649   -1.0443   -1.3289 C   0  0  0  0  0  0  0  0  0  0  0  0
    3.8536   -0.4691   -1.3593 N   0  0  0  0  0  0  0  0  0  0  0  0
    4.6988   -0.2704   -0.3445 C   0  0  0  0  0  0  0  0  0  0  0  0
    3.9603   -0.4244    0.8102 C   0  0  0  0  0  0  0  0  0  0  0  0
    0.8751    3.6143    0.1919 H   0  0  0  0  0  0  0  0  0  0  0  0
    1.7235    1.3806   -0.0412 H   0  0  0  0  0  0  0  0  0  0  0  0
   -3.0904    2.1245    0.1451 H   0  0  0  0  0  0  0  0  0  0  0  0
   -4.2869    0.5830    0.7829 H   0  0  0  0  0  0  0  0  0  0  0  0
   -5.6655   -1.6241    0.2188 H   0  0  0  0  0  0  0  0  0  0  0  0
   -1.8520   -2.1367   -1.3114 H   0  0  0  0  0  0  0  0  0  0  0  0
   -0.3078   -1.7426    0.0576 H   0  0  0  0  0  0  0  0  0  0  0  0
    1.4897   -2.0276    1.4625 H   0  0  0  0  0  0  0  0  0  0  0  0
    1.1371   -0.2719    1.8836 H   0  0  0  0  0  0  0  0  0  0  0  0
    0.9478   -0.3056   -2.1232 H   0  0  0  0  0  0  0  0  0  0  0  0
    1.1892   -2.0810   -1.7348 H   0  0  0  0  0  0  0  0  0  0  0  0
    5.7569   -0.0349   -0.4541 H   0  0  0  0  0  0  0  0  0  0  0  0
    4.4172   -0.3127    1.7942 H   0  0  0  0  0  0  0  0  0  0  0  0
  1  2  1  0
  2  3  2  0
  3  4  1  0
  4  5  2  0
  5  6  1  0
  6  7  2  0
  6  8  1  0
  8  9  2  0
  9 10  1  0
 10 11  2  0
 11 12  1  0
  5 13  1  0
 13 14  1  0
 14 15  1  0
 15 16  1  0
 16 17  1  0
 16 18  2  0
 18 19  1  0
 19 20  2  0
  7  2  1  0
 12  8  1  0
 17 13  1  0
 20 15  1  0
  3 21  1  0
  4 22  1  0
  7 23  1  0
  9 24  1  0
 10 25  1  0
 12 26  1  0
 13 27  1  0
 14 28  1  0
 14 29  1  0
 17 30  1  0
 17 31  1  0
 19 32  1  0
 20 33  1  0
M  END
>  <Ligand ID>  (1) 
LIG0002863

>  <Ligand>  (1) 
CHEMBL511211

>  <SMILES>  (1) 
Fc1ccc(c(c1)c1ccn[nH]1)C1Cn2c(C1)ncc2

>  <CID>  (1) 
44574135.0

>  <ChEMBL ID>  (1) 
nan

>  <InChiKey>  (1) 
BXJSKCZBNVAQEJ-UHFFFAOYSA-N

>  <InChi>  (1) 
InChI=1S/C15H13FN4/c16-11-1-2-12(13(8-11)14-3-4-18-19-14)10-7-15-17-5-6-20(15)9-10/h1-6,8,10H,7,9H2,(H,18,19)

>  <IUPAC Name>  (1) 
6-[4-fluoro-2-(1H-pyrazol-5-yl)phenyl]-6,7-dihydro-5H-pyrrolo[1,2-a]imidazole

$$$$
