
     RDKit          3D

 68 73  0  0  0  0  0  0  0  0999 V2000
    1.9950    2.0743    2.1948 O   0  0  0  0  0  0  0  0  0  0  0  0
    0.7975    2.0199    2.2509 C   0  0  0  0  0  0  0  0  0  0  0  0
    0.0360    1.1916    3.2370 C   0  0  0  0  0  0  0  0  0  0  0  0
   -1.0044    0.4166    2.4768 C   0  0  0  0  0  0  0  0  0  0  0  0
   -0.6789    0.4661    1.0037 C   0  0  2  0  0  0  0  0  0  0  0  0
   -0.8863    1.8520    0.4409 C   0  0  0  0  0  0  0  0  0  0  0  0
   -0.0735    2.8109    1.2971 C   0  0  0  0  0  0  0  0  0  0  0  0
   -0.2969    1.7796   -0.9667 C   0  0  0  0  0  0  0  0  0  0  0  0
   -1.0888    0.8390   -1.7903 C   0  0  0  0  0  0  0  0  0  0  0  0
   -1.5933   -0.3207   -1.1766 N   0  0  0  0  0  0  0  0  0  0  0  0
   -1.6152   -0.4519    0.2191 C   0  0  2  0  0  0  0  0  0  0  0  0
   -3.0129   -0.1518    0.7211 C   0  0  0  0  0  0  0  0  0  0  0  0
   -3.2611    1.2941    0.5423 C   0  0  0  0  0  0  0  0  0  0  0  0
   -2.3040    2.2518    0.4079 C   0  0  0  0  0  0  0  0  0  0  0  0
   -2.6644    3.5559    0.2474 C   0  0  0  0  0  0  0  0  0  0  0  0
   -1.6965    4.5385    0.1096 O   0  0  0  0  0  0  0  0  0  0  0  0
   -3.9997    3.9568    0.2147 C   0  0  0  0  0  0  0  0  0  0  0  0
   -4.9762    3.0024    0.3491 C   0  0  0  0  0  0  0  0  0  0  0  0
   -4.5963    1.7007    0.5090 C   0  0  0  0  0  0  0  0  0  0  0  0
   -1.0970   -1.4726   -1.9034 C   0  0  0  0  0  0  0  0  0  0  0  0
   -1.5756   -2.7919   -1.4160 C   0  0  0  0  0  0  0  0  0  0  0  0
   -3.0166   -3.1422   -1.3938 C   0  0  0  0  0  0  0  0  0  0  0  0
   -2.1757   -3.6993   -2.4796 C   0  0  0  0  0  0  0  0  0  0  0  0
    0.6419    0.1239    0.8034 O   0  0  0  0  0  0  0  0  0  0  0  0
    1.0015   -1.1471    1.1866 C   0  0  0  0  0  0  0  0  0  0  0  0
    2.4907   -1.3574    0.9518 C   0  0  0  0  0  0  0  0  0  0  0  0
    2.7698   -1.1736   -0.5221 C   0  0  0  0  0  0  0  0  0  0  0  0
    4.2479   -1.3919   -0.7180 C   0  0  0  0  0  0  0  0  0  0  0  0
    4.7639   -2.6287   -0.9886 C   0  0  0  0  0  0  0  0  0  0  0  0
    6.1358   -2.7796   -1.1620 C   0  0  0  0  0  0  0  0  0  0  0  0
    7.0090   -1.7271   -1.0723 C   0  0  0  0  0  0  0  0  0  0  0  0
    6.4855   -0.4844   -0.7999 C   0  0  0  0  0  0  0  0  0  0  0  0
    5.1265   -0.3300   -0.6273 C   0  0  0  0  0  0  0  0  0  0  0  0
    0.7631    0.4955    3.7022 H   0  0  0  0  0  0  0  0  0  0  0  0
   -0.4216    1.8412    4.0252 H   0  0  0  0  0  0  0  0  0  0  0  0
   -1.0703   -0.5981    2.8576 H   0  0  0  0  0  0  0  0  0  0  0  0
   -1.9568    0.9994    2.6129 H   0  0  0  0  0  0  0  0  0  0  0  0
    0.5483    3.4921    0.7059 H   0  0  0  0  0  0  0  0  0  0  0  0
   -0.8001    3.3408    1.9473 H   0  0  0  0  0  0  0  0  0  0  0  0
   -0.1905    2.7905   -1.4069 H   0  0  0  0  0  0  0  0  0  0  0  0
    0.7375    1.4012   -0.8563 H   0  0  0  0  0  0  0  0  0  0  0  0
   -0.5597    0.6065   -2.7641 H   0  0  0  0  0  0  0  0  0  0  0  0
   -1.9892    1.4254   -2.1529 H   0  0  0  0  0  0  0  0  0  0  0  0
   -1.4290   -1.5035    0.5771 H   0  0  0  0  0  0  0  0  0  0  0  0
   -3.7754   -0.7700    0.1915 H   0  0  0  0  0  0  0  0  0  0  0  0
   -3.1415   -0.3923    1.7967 H   0  0  0  0  0  0  0  0  0  0  0  0
   -1.7614    5.4469    0.5463 H   0  0  0  0  0  0  0  0  0  0  0  0
   -4.2901    4.9905    0.0876 H   0  0  0  0  0  0  0  0  0  0  0  0
   -6.0416    3.2559    0.3318 H   0  0  0  0  0  0  0  0  0  0  0  0
   -5.3972    0.9612    0.6137 H   0  0  0  0  0  0  0  0  0  0  0  0
    0.0198   -1.4750   -1.8976 H   0  0  0  0  0  0  0  0  0  0  0  0
   -1.3420   -1.3343   -2.9980 H   0  0  0  0  0  0  0  0  0  0  0  0
   -0.8464   -3.3651   -0.7839 H   0  0  0  0  0  0  0  0  0  0  0  0
   -3.7114   -2.2907   -1.6411 H   0  0  0  0  0  0  0  0  0  0  0  0
   -3.4026   -3.7544   -0.5541 H   0  0  0  0  0  0  0  0  0  0  0  0
   -2.3721   -3.3169   -3.4868 H   0  0  0  0  0  0  0  0  0  0  0  0
   -2.0163   -4.7857   -2.4501 H   0  0  0  0  0  0  0  0  0  0  0  0
    0.7927   -1.3327    2.2482 H   0  0  0  0  0  0  0  0  0  0  0  0
    0.5276   -1.9345    0.5325 H   0  0  0  0  0  0  0  0  0  0  0  0
    2.9974   -0.5571    1.5102 H   0  0  0  0  0  0  0  0  0  0  0  0
    2.7910   -2.3683    1.2957 H   0  0  0  0  0  0  0  0  0  0  0  0
    2.5618   -0.1210   -0.8010 H   0  0  0  0  0  0  0  0  0  0  0  0
    2.2532   -1.9143   -1.1482 H   0  0  0  0  0  0  0  0  0  0  0  0
    4.0987   -3.4850   -1.0664 H   0  0  0  0  0  0  0  0  0  0  0  0
    6.5616   -3.7582   -1.3782 H   0  0  0  0  0  0  0  0  0  0  0  0
    8.0766   -1.8523   -1.2083 H   0  0  0  0  0  0  0  0  0  0  0  0
    7.1508    0.3820   -0.7203 H   0  0  0  0  0  0  0  0  0  0  0  0
    4.7473    0.6562   -0.4148 H   0  0  0  0  0  0  0  0  0  0  0  0
  1  2  2  0
  2  3  1  0
  3  4  1  0
  4  5  1  0
  5  6  1  0
  6  7  1  0
  6  8  1  0
  8  9  1  0
  9 10  1  0
 10 11  1  0
 11 12  1  0
 12 13  1  0
 13 14  2  0
 14 15  1  0
 15 16  1  0
 15 17  2  0
 17 18  1  0
 18 19  2  0
 10 20  1  0
 20 21  1  0
 21 22  1  0
 22 23  1  0
  5 24  1  1
 24 25  1  0
 25 26  1  0
 26 27  1  0
 27 28  1  0
 28 29  2  0
 29 30  1  0
 30 31  2  0
 31 32  1  0
 32 33  2  0
  7  2  1  0
 19 13  1  0
 23 21  1  0
 33 28  1  0
 11  5  1  0
 14  6  1  0
  3 34  1  0
  3 35  1  0
  4 36  1  0
  4 37  1  0
  7 38  1  0
  7 39  1  0
  8 40  1  0
  8 41  1  0
  9 42  1  0
  9 43  1  0
 11 44  1  6
 12 45  1  0
 12 46  1  0
 16 47  1  0
 17 48  1  0
 18 49  1  0
 19 50  1  0
 20 51  1  0
 20 52  1  0
 21 53  1  0
 22 54  1  0
 22 55  1  0
 23 56  1  0
 23 57  1  0
 25 58  1  0
 25 59  1  0
 26 60  1  0
 26 61  1  0
 27 62  1  0
 27 63  1  0
 29 64  1  0
 30 65  1  0
 31 66  1  0
 32 67  1  0
 33 68  1  0
M  END
>  <Ligand ID>  (1) 
LIG0002966

>  <Ligand>  (1) 
CHEMBL325347

>  <SMILES>  (1) 
O=C1CC[C@@]2(C3(C1)CCN([C@@H]2Cc1c3c(O)ccc1)CC1CC1)OCCCc1ccccc1

>  <CID>  (1) 
44339475.0

>  <ChEMBL ID>  (1) 
nan

>  <InChiKey>  (1) 
IWZLUXJMEHSPFL-OIKXHLBWSA-N

>  <InChi>  (1) 
InChI=1S/C29H35NO3/c31-24-13-14-29(33-17-5-8-21-6-2-1-3-7-21)26-18-23-9-4-10-25(32)27(23)28(29,19-24)15-16-30(26)20-22-11-12-22/h1-4,6-7,9-10,22,26,32H,5,8,11-20H2/t26-,28?,29-/m1/s1

>  <IUPAC Name>  (1) 
(9R,10S)-17-(cyclopropylmethyl)-3-hydroxy-10-(3-phenylpropoxy)-17-azatetracyclo[7.5.3.01,10.02,7]heptadeca-2(7),3,5-trien-13-one

$$$$
