
     RDKit          3D

 61 63  0  0  0  0  0  0  0  0999 V2000
    5.1325    3.9842    0.9969 O   0  0  0  0  0  0  0  0  0  0  0  0
    6.1467    3.9963    0.2675 C   0  0  0  0  0  0  0  0  0  0  0  0
    6.8244    2.8425   -0.1943 N   0  0  0  0  0  0  0  0  0  0  0  0
    6.4715    1.5116    0.0895 C   0  0  0  0  0  0  0  0  0  0  0  0
    5.4190    1.0992    0.8653 C   0  0  0  0  0  0  0  0  0  0  0  0
    5.1027   -0.2305    1.1150 C   0  0  0  0  0  0  0  0  0  0  0  0
    5.9052   -1.1854    0.5416 C   0  0  0  0  0  0  0  0  0  0  0  0
    6.9722   -0.8022   -0.2444 C   0  0  0  0  0  0  0  0  0  0  0  0
    7.2557    0.5192   -0.4703 C   0  0  0  0  0  0  0  0  0  0  0  0
    8.3487    0.8332   -1.2740 O   0  0  0  0  0  0  0  0  0  0  0  0
    3.9488   -0.4949    1.9795 C   0  0  2  0  0  0  0  0  0  0  0  0
    3.5690   -1.9364    1.9519 C   0  0  0  0  0  0  0  0  0  0  0  0
    2.9825   -2.3214    0.7159 N   0  0  0  0  0  0  0  0  0  0  0  0
    1.6853   -1.8240    0.4763 C   0  0  0  0  0  0  0  0  0  0  0  0
    1.2089   -2.3277   -0.9070 C   0  0  0  0  0  0  0  0  0  0  0  0
   -0.1720   -1.7505   -1.0444 C   0  0  0  0  0  0  0  0  0  0  0  0
   -1.2563   -2.5411   -0.6458 C   0  0  0  0  0  0  0  0  0  0  0  0
   -2.5429   -2.0067   -0.7583 C   0  0  0  0  0  0  0  0  0  0  0  0
   -2.7380   -0.7234   -1.2529 C   0  0  0  0  0  0  0  0  0  0  0  0
   -1.6429    0.0240   -1.6351 C   0  0  0  0  0  0  0  0  0  0  0  0
   -0.3559   -0.4756   -1.5368 C   0  0  0  0  0  0  0  0  0  0  0  0
   -4.0761   -0.1894   -1.3719 N   0  0  0  0  0  0  0  0  0  0  0  0
   -5.1981   -1.0173   -0.9983 C   0  0  0  0  0  0  0  0  0  0  0  0
   -6.5003   -0.3224   -1.1282 C   0  0  1  0  0  0  0  0  0  0  0  0
   -6.7688    0.7917   -0.2336 C   0  0  0  0  0  0  0  0  0  0  0  0
   -7.5011    0.5230    0.9280 C   0  0  0  0  0  0  0  0  0  0  0  0
   -7.8203    1.4916    1.8423 C   0  0  0  0  0  0  0  0  0  0  0  0
   -7.4180    2.7918    1.6382 C   0  0  0  0  0  0  0  0  0  0  0  0
   -6.6801    3.1145    0.4879 C   0  0  0  0  0  0  0  0  0  0  0  0
   -6.3843    2.0983   -0.4049 C   0  0  0  0  0  0  0  0  0  0  0  0
   -6.6620    0.0917   -2.4475 O   0  0  0  0  0  0  0  0  0  0  0  0
    2.8911    0.3875    1.7795 O   0  0  0  0  0  0  0  0  0  0  0  0
    6.5092    4.9931   -0.0158 H   0  0  0  0  0  0  0  0  0  0  0  0
    7.6678    3.0362   -0.8050 H   0  0  0  0  0  0  0  0  0  0  0  0
    4.7999    1.8313    1.3134 H   0  0  0  0  0  0  0  0  0  0  0  0
    5.7694   -2.2472    0.6692 H   0  0  0  0  0  0  0  0  0  0  0  0
    7.6054   -1.5379   -0.6966 H   0  0  0  0  0  0  0  0  0  0  0  0
    8.9287    0.1367   -1.6960 H   0  0  0  0  0  0  0  0  0  0  0  0
    4.3076   -0.2446    3.0372 H   0  0  0  0  0  0  0  0  0  0  0  0
    2.8486   -2.1761    2.8038 H   0  0  0  0  0  0  0  0  0  0  0  0
    4.5069   -2.5408    2.1337 H   0  0  0  0  0  0  0  0  0  0  0  0
    3.5969   -2.4047   -0.0965 H   0  0  0  0  0  0  0  0  0  0  0  0
    0.9676   -2.2051    1.2594 H   0  0  0  0  0  0  0  0  0  0  0  0
    1.5222   -0.7511    0.4344 H   0  0  0  0  0  0  0  0  0  0  0  0
    1.8483   -1.9199   -1.6913 H   0  0  0  0  0  0  0  0  0  0  0  0
    1.1356   -3.4158   -0.9033 H   0  0  0  0  0  0  0  0  0  0  0  0
   -1.1240   -3.5409   -0.2583 H   0  0  0  0  0  0  0  0  0  0  0  0
   -3.3869   -2.6093   -0.4544 H   0  0  0  0  0  0  0  0  0  0  0  0
   -1.7947    1.0238   -2.0199 H   0  0  0  0  0  0  0  0  0  0  0  0
    0.5208    0.1207   -1.8412 H   0  0  0  0  0  0  0  0  0  0  0  0
   -4.1473    0.7837   -1.7318 H   0  0  0  0  0  0  0  0  0  0  0  0
   -5.2184   -1.8579   -1.7543 H   0  0  0  0  0  0  0  0  0  0  0  0
   -5.0564   -1.5466   -0.0340 H   0  0  0  0  0  0  0  0  0  0  0  0
   -7.3033   -1.1253   -1.0060 H   0  0  0  0  0  0  0  0  0  0  0  0
   -7.8334   -0.4952    1.1190 H   0  0  0  0  0  0  0  0  0  0  0  0
   -8.3985    1.2602    2.7507 H   0  0  0  0  0  0  0  0  0  0  0  0
   -7.6412    3.6040    2.3323 H   0  0  0  0  0  0  0  0  0  0  0  0
   -6.3722    4.1244    0.3351 H   0  0  0  0  0  0  0  0  0  0  0  0
   -5.8248    2.3683   -1.2812 H   0  0  0  0  0  0  0  0  0  0  0  0
   -7.5754    0.3796   -2.6697 H   0  0  0  0  0  0  0  0  0  0  0  0
    2.9943    1.0050    1.0378 H   0  0  0  0  0  0  0  0  0  0  0  0
  1  2  2  0
  2  3  1  0
  3  4  1  0
  4  5  2  0
  5  6  1  0
  6  7  2  0
  7  8  1  0
  8  9  2  0
  9 10  1  0
  6 11  1  0
 11 12  1  0
 12 13  1  0
 13 14  1  0
 14 15  1  0
 15 16  1  0
 16 17  2  0
 17 18  1  0
 18 19  2  0
 19 20  1  0
 20 21  2  0
 19 22  1  0
 22 23  1  0
 23 24  1  0
 24 25  1  0
 25 26  2  0
 26 27  1  0
 27 28  2  0
 28 29  1  0
 29 30  2  0
 24 31  1  0
 11 32  1  0
  9  4  1  0
 21 16  1  0
 30 25  1  0
  2 33  1  0
  3 34  1  0
  5 35  1  0
  7 36  1  0
  8 37  1  0
 10 38  1  0
 11 39  1  1
 12 40  1  0
 12 41  1  0
 13 42  1  0
 14 43  1  0
 14 44  1  0
 15 45  1  0
 15 46  1  0
 17 47  1  0
 18 48  1  0
 20 49  1  0
 21 50  1  0
 22 51  1  0
 23 52  1  0
 23 53  1  0
 24 54  1  1
 26 55  1  0
 27 56  1  0
 28 57  1  0
 29 58  1  0
 30 59  1  0
 31 60  1  0
 32 61  1  0
M  END
>  <Ligand ID>  (1) 
LIG0001243

>  <Ligand>  (1) 
Milveterol

>  <SMILES>  (1) 
O=CNc1cc(ccc1O)[C@H](CNCCc1ccc(cc1)NC[C@@H](c1ccccc1)O)O

>  <CID>  (1) 
9892481.0

>  <ChEMBL ID>  (1) 
nan

>  <InChiKey>  (1) 
BMKINZUHKYLSKI-DQEYMECFSA-N

>  <InChi>  (1) 
InChI=1S/C25H29N3O4/c29-17-28-22-14-20(8-11-23(22)30)24(31)15-26-13-12-18-6-9-21(10-7-18)27-16-25(32)19-4-2-1-3-5-19/h1-11,14,17,24-27,30-32H,12-13,15-16H2,(H,28,29)/t24-,25-/m0/s1

>  <IUPAC Name>  (1) 
N-[2-hydroxy-5-[(1R)-1-hydroxy-2-[2-[4-[[(2R)-2-hydroxy-2-phenylethyl]amino]phenyl]ethylamino]ethyl]phenyl]formamide

$$$$
