
     RDKit          3D

 24 23  0  0  0  0  0  0  0  0999 V2000
    4.0849    1.3767   -0.8808 C   0  0  0  0  0  0  0  0  0  0  0  0
    3.4564    0.4829   -0.3640 C   0  0  0  0  0  0  0  0  0  0  0  0
    2.6832   -0.5904    0.2708 C   0  0  0  0  0  0  0  0  0  0  0  0
    1.3175   -0.2524    0.1554 O   0  0  0  0  0  0  0  0  0  0  0  0
    0.3642   -1.1183    0.6849 C   0  0  0  0  0  0  0  0  0  0  0  0
    0.6935   -2.2032    1.2682 O   0  0  0  0  0  0  0  0  0  0  0  0
   -1.0595   -0.7114    0.5344 C   0  0  0  0  0  0  0  0  0  0  0  0
   -1.3150   -0.6001   -0.9479 C   0  0  0  0  0  0  0  0  0  0  0  0
   -2.5004    0.1718   -1.2374 N   0  0  0  0  0  0  0  0  0  0  0  0
   -2.7324    1.3710   -0.4731 C   0  0  0  0  0  0  0  0  0  0  0  0
   -2.1449    1.5119    0.6513 N   0  0  0  0  0  0  0  0  0  0  0  0
   -1.2521    0.5874    1.2631 C   0  0  0  0  0  0  0  0  0  0  0  0
    0.6909    0.0000    0.0000 Cl  0  0  0  0  0  0  0  0  0  0  0  0
    4.6572    2.1609   -1.3471 H   0  0  0  0  0  0  0  0  0  0  0  0
    2.9099   -1.5605   -0.2574 H   0  0  0  0  0  0  0  0  0  0  0  0
    3.0305   -0.7285    1.3104 H   0  0  0  0  0  0  0  0  0  0  0  0
   -1.6920   -1.4990    0.9497 H   0  0  0  0  0  0  0  0  0  0  0  0
   -0.4483   -0.1869   -1.4816 H   0  0  0  0  0  0  0  0  0  0  0  0
   -1.5196   -1.6399   -1.3216 H   0  0  0  0  0  0  0  0  0  0  0  0
   -3.1933   -0.1168   -1.9862 H   0  0  0  0  0  0  0  0  0  0  0  0
   -3.4084    2.0918   -0.9162 H   0  0  0  0  0  0  0  0  0  0  0  0
   -0.2775    1.0940    1.4030 H   0  0  0  0  0  0  0  0  0  0  0  0
   -1.6540    0.3588    2.2843 H   0  0  0  0  0  0  0  0  0  0  0  0
   -0.6909    0.0000    0.0000 H   0  0  0  0  0  0  0  0  0  0  0  0
  1  2  3  0
  2  3  1  0
  3  4  1  0
  4  5  1  0
  5  6  2  0
  5  7  1  0
  7  8  1  0
  8  9  1  0
  9 10  1  0
 10 11  2  0
 11 12  1  0
 12  7  1  0
  1 14  1  0
  3 15  1  0
  3 16  1  0
  7 17  1  0
  8 18  1  0
  8 19  1  0
  9 20  1  0
 10 21  1  0
 12 22  1  0
 12 23  1  0
 13 24  1  0
M  END
>  <Ligand ID>  (1) 
LIG0005607

>  <Ligand>  (1) 
5-propargyloxycarbonyl-1,4,5,6-tetrahydropyrimidine hydrochloride

>  <SMILES>  (1) 
C#CCOC(=O)C1CNC=NC1.Cl

>  <CID>  (1) 
10176595.0

>  <ChEMBL ID>  (1) 
nan

>  <InChiKey>  (1) 
JWROAMHWGYSSMW-UHFFFAOYSA-N

>  <InChi>  (1) 
InChI=1S/C8H10N2O2.ClH/c1-2-3-12-8(11)7-4-9-6-10-5-7;/h1,6-7H,3-5H2,(H,9,10);1H

>  <IUPAC Name>  (1) 
prop-2-ynyl 1,4,5,6-tetrahydropyrimidine-5-carboxylate;hydrochloride

$$$$
