
     RDKit          3D

 73 78  0  0  0  0  0  0  0  0999 V2000
    5.3872   -1.4764   -1.4526 C   0  0  0  0  0  0  0  0  0  0  0  0
    4.5678   -0.9753   -0.3171 C   0  0  1  0  0  0  0  0  0  0  0  0
    5.3615   -0.0879    0.6259 C   0  0  0  0  0  0  0  0  0  0  0  0
    4.5290    0.3335    1.7936 C   0  0  0  0  0  0  0  0  0  0  0  0
    3.0869    0.2062    1.6101 C   0  0  0  0  0  0  0  0  0  0  0  0
    2.5016   -0.0316    0.3848 C   0  0  0  0  0  0  0  0  0  0  0  0
    3.3951   -0.1636   -0.7971 C   0  0  2  0  0  0  0  0  0  0  0  0
    2.6600   -0.9424   -1.8936 C   0  0  0  0  0  0  0  0  0  0  0  0
    3.7815    1.1458   -1.3936 C   0  0  0  0  0  0  0  0  0  0  0  0
    4.8798    1.8779   -0.7115 C   0  0  0  0  0  0  0  0  0  0  0  0
    5.8119    1.0378   -0.0620 N   0  0  0  0  0  0  0  0  0  0  0  0
    7.1739    1.2270   -0.3435 C   0  0  0  0  0  0  0  0  0  0  0  0
    8.1605    0.3657    0.3673 C   0  0  0  0  0  0  0  0  0  0  0  0
    9.6079    0.6104    0.0242 C   0  0  0  0  0  0  0  0  0  0  0  0
    8.9486   -0.6585   -0.4016 C   0  0  0  0  0  0  0  0  0  0  0  0
    1.1261   -0.1435    0.2671 C   0  0  0  0  0  0  0  0  0  0  0  0
    0.2839   -0.0248    1.3525 C   0  0  0  0  0  0  0  0  0  0  0  0
    0.8667    0.2130    2.5793 C   0  0  0  0  0  0  0  0  0  0  0  0
    2.2568    0.3267    2.7016 C   0  0  0  0  0  0  0  0  0  0  0  0
   -1.1668   -0.1359    1.2612 C   0  0  0  0  0  0  0  0  0  0  0  0
   -1.8804   -0.0266    2.3018 O   0  0  0  0  0  0  0  0  0  0  0  0
   -1.8604   -0.3660    0.0431 N   0  0  0  0  0  0  0  0  0  0  0  0
   -3.2886   -0.4674   -0.0033 C   0  0  0  0  0  0  0  0  0  0  0  0
   -4.0274    0.7491    0.4695 C   0  0  0  0  0  0  0  0  0  0  0  0
   -5.4876    0.4395    0.3381 C   0  0  0  0  0  0  0  0  0  0  0  0
   -6.2322   -0.1323    1.3211 C   0  0  0  0  0  0  0  0  0  0  0  0
   -7.5786   -0.3731    1.0889 C   0  0  0  0  0  0  0  0  0  0  0  0
   -8.1974   -0.0567   -0.0997 C   0  0  0  0  0  0  0  0  0  0  0  0
   -7.4136    0.5223   -1.0764 C   0  0  0  0  0  0  0  0  0  0  0  0
   -6.0724    0.7762   -0.8807 C   0  0  0  0  0  0  0  0  0  0  0  0
   -9.6075   -0.2994   -0.3695 C   0  0  0  0  0  0  0  0  0  0  0  0
  -10.4492   -0.8758    0.5564 C   0  0  0  0  0  0  0  0  0  0  0  0
  -11.7994   -1.0954    0.2631 C   0  0  0  0  0  0  0  0  0  0  0  0
  -12.3087   -0.7352   -0.9653 C   0  0  0  0  0  0  0  0  0  0  0  0
  -11.4340   -0.1607   -1.8656 C   0  0  0  0  0  0  0  0  0  0  0  0
  -10.1390    0.0423   -1.5652 N   0  0  0  0  0  0  0  0  0  0  0  0
    5.3933   -0.8236   -2.3329 H   0  0  0  0  0  0  0  0  0  0  0  0
    6.3757   -1.7840   -1.0922 H   0  0  0  0  0  0  0  0  0  0  0  0
    4.9001   -2.4361   -1.7970 H   0  0  0  0  0  0  0  0  0  0  0  0
    4.1883   -1.8291    0.2612 H   0  0  0  0  0  0  0  0  0  0  0  0
    6.2156   -0.6556    1.0269 H   0  0  0  0  0  0  0  0  0  0  0  0
    4.7281    1.4202    2.0293 H   0  0  0  0  0  0  0  0  0  0  0  0
    4.8140   -0.1841    2.7562 H   0  0  0  0  0  0  0  0  0  0  0  0
    2.0025   -0.2559   -2.4917 H   0  0  0  0  0  0  0  0  0  0  0  0
    3.4115   -1.3187   -2.6162 H   0  0  0  0  0  0  0  0  0  0  0  0
    2.1076   -1.8014   -1.4945 H   0  0  0  0  0  0  0  0  0  0  0  0
    4.0022    1.0734   -2.4768 H   0  0  0  0  0  0  0  0  0  0  0  0
    2.8570    1.7934   -1.3451 H   0  0  0  0  0  0  0  0  0  0  0  0
    5.4265    2.5068   -1.4506 H   0  0  0  0  0  0  0  0  0  0  0  0
    4.4427    2.5849    0.0528 H   0  0  0  0  0  0  0  0  0  0  0  0
    7.3169    1.0535   -1.4452 H   0  0  0  0  0  0  0  0  0  0  0  0
    7.4254    2.2985   -0.1728 H   0  0  0  0  0  0  0  0  0  0  0  0
    8.0241    0.1223    1.4427 H   0  0  0  0  0  0  0  0  0  0  0  0
   10.3770    0.5211    0.8108 H   0  0  0  0  0  0  0  0  0  0  0  0
    9.8246    1.3948   -0.7150 H   0  0  0  0  0  0  0  0  0  0  0  0
    9.2506   -1.6109    0.1056 H   0  0  0  0  0  0  0  0  0  0  0  0
    8.8331   -0.7839   -1.4778 H   0  0  0  0  0  0  0  0  0  0  0  0
    0.7211   -0.3304   -0.7175 H   0  0  0  0  0  0  0  0  0  0  0  0
    0.2766    0.3220    3.5000 H   0  0  0  0  0  0  0  0  0  0  0  0
    2.7100    0.5164    3.6839 H   0  0  0  0  0  0  0  0  0  0  0  0
   -1.2974   -0.4633   -0.8468 H   0  0  0  0  0  0  0  0  0  0  0  0
   -3.6104   -0.7066   -1.0150 H   0  0  0  0  0  0  0  0  0  0  0  0
   -3.6732   -1.3179    0.6336 H   0  0  0  0  0  0  0  0  0  0  0  0
   -3.7805    1.6549   -0.1357 H   0  0  0  0  0  0  0  0  0  0  0  0
   -3.7995    1.0358    1.5146 H   0  0  0  0  0  0  0  0  0  0  0  0
   -5.7642   -0.3883    2.2620 H   0  0  0  0  0  0  0  0  0  0  0  0
   -8.1426   -0.8286    1.8900 H   0  0  0  0  0  0  0  0  0  0  0  0
   -7.8337    0.7918   -2.0221 H   0  0  0  0  0  0  0  0  0  0  0  0
   -5.4969    1.2276   -1.6650 H   0  0  0  0  0  0  0  0  0  0  0  0
  -10.1038   -1.1757    1.5297 H   0  0  0  0  0  0  0  0  0  0  0  0
  -12.4765   -1.5468    0.9767 H   0  0  0  0  0  0  0  0  0  0  0  0
  -13.3375   -0.8739   -1.2612 H   0  0  0  0  0  0  0  0  0  0  0  0
  -11.7517    0.1526   -2.8544 H   0  0  0  0  0  0  0  0  0  0  0  0
  1  2  1  0
  2  3  1  0
  3  4  1  0
  4  5  1  0
  5  6  2  0
  6  7  1  0
  7  8  1  6
  7  9  1  0
  9 10  1  0
 10 11  1  0
 11 12  1  0
 12 13  1  0
 13 14  1  0
 14 15  1  0
  6 16  1  0
 16 17  2  0
 17 18  1  0
 18 19  2  0
 17 20  1  0
 20 21  2  0
 20 22  1  0
 22 23  1  0
 23 24  1  0
 24 25  1  0
 25 26  2  0
 26 27  1  0
 27 28  2  0
 28 29  1  0
 29 30  2  0
 28 31  1  0
 31 32  2  0
 32 33  1  0
 33 34  2  0
 34 35  1  0
 35 36  2  0
  7  2  1  0
 15 13  1  0
 30 25  1  0
 36 31  1  0
 11  3  1  0
 19  5  1  0
  1 37  1  0
  1 38  1  0
  1 39  1  0
  2 40  1  1
  3 41  1  0
  4 42  1  0
  4 43  1  0
  8 44  1  0
  8 45  1  0
  8 46  1  0
  9 47  1  0
  9 48  1  0
 10 49  1  0
 10 50  1  0
 12 51  1  0
 12 52  1  0
 13 53  1  0
 14 54  1  0
 14 55  1  0
 15 56  1  0
 15 57  1  0
 16 58  1  0
 18 59  1  0
 19 60  1  0
 22 61  1  0
 23 62  1  0
 23 63  1  0
 24 64  1  0
 24 65  1  0
 26 66  1  0
 27 67  1  0
 29 68  1  0
 30 69  1  0
 32 70  1  0
 33 71  1  0
 34 72  1  0
 35 73  1  0
M  END
>  <Ligand ID>  (1) 
LIG0005523

>  <Ligand>  (1) 
CHEMBL2347237

>  <SMILES>  (1) 
C[C@H]1C2Cc3c([C@@]1(C)CCN2CC1CC1)cc(cc3)C(=O)NCCc1ccc(cc1)c1ccccn1

>  <CID>  (1) 
44240972.0

>  <ChEMBL ID>  (1) 
nan

>  <InChiKey>  (1) 
WHUMNYJAAHSBSQ-WTBOZYSNSA-N

>  <InChi>  (1) 
InChI=1S/C32H37N3O/c1-22-30-20-26-12-13-27(19-28(26)32(22,2)15-18-35(30)21-24-6-7-24)31(36)34-17-14-23-8-10-25(11-9-23)29-5-3-4-16-33-29/h3-5,8-13,16,19,22,24,30H,6-7,14-15,17-18,20-21H2,1-2H3,(H,34,36)/t22-,30?,32-/m0/s1

>  <IUPAC Name>  (1) 
(1S,13R)-10-(cyclopropylmethyl)-1,13-dimethyl-N-[2-(4-pyridin-2-ylphenyl)ethyl]-10-azatricyclo[7.3.1.02,7]trideca-2(7),3,5-triene-4-carboxamide

$$$$
