
     RDKit          3D

243248  0  0  0  0  0  0  0  0999 V2000
    0.9883   10.3125    0.9032 N   0  0  0  0  0  0  0  0  0  0  0  0
    0.1474    9.7914   -0.1483 C   0  0  0  0  0  0  0  0  0  0  0  0
    0.1430   10.3858   -1.2467 O   0  0  0  0  0  0  0  0  0  0  0  0
   -0.6730    8.5770    0.1029 C   0  0  0  0  0  0  0  0  0  0  0  0
   -1.4035    8.0555   -1.0591 C   0  0  2  0  0  0  0  0  0  0  0  0
   -2.2302    6.8492   -0.7877 N   0  0  0  0  0  0  0  0  0  0  0  0
   -3.2256    6.5479   -1.7957 C   0  0  0  0  0  0  0  0  0  0  0  0
   -3.1727    7.3078   -2.7686 O   0  0  0  0  0  0  0  0  0  0  0  0
   -4.1836    5.4561   -1.6883 C   0  0  2  0  0  0  0  0  0  0  0  0
   -5.3871    5.6437   -2.5604 C   0  0  0  0  0  0  0  0  0  0  0  0
   -6.1720    6.8626   -2.3734 C   0  0  0  0  0  0  0  0  0  0  0  0
   -7.1102    7.0643   -1.3863 C   0  0  0  0  0  0  0  0  0  0  0  0
   -7.8460    8.2572   -1.3011 C   0  0  0  0  0  0  0  0  0  0  0  0
   -7.6699    9.2907   -2.2066 C   0  0  0  0  0  0  0  0  0  0  0  0
   -6.7161    9.0891   -3.2028 C   0  0  0  0  0  0  0  0  0  0  0  0
   -5.9885    7.8987   -3.2796 C   0  0  0  0  0  0  0  0  0  0  0  0
   -4.3440    4.7640   -0.4627 N   0  0  0  0  0  0  0  0  0  0  0  0
   -4.6251    5.4498    0.8127 C   0  0  0  0  0  0  0  0  0  0  0  0
   -4.7253    6.6670    0.6702 O   0  0  0  0  0  0  0  0  0  0  0  0
   -4.7690    4.7362    2.0672 C   0  0  2  0  0  0  0  0  0  0  0  0
   -4.3179    5.5171    3.2938 C   0  0  0  0  0  0  0  0  0  0  0  0
   -5.1740    6.7597    3.3725 C   0  0  0  0  0  0  0  0  0  0  0  0
   -6.4431    6.6055    3.8742 C   0  0  0  0  0  0  0  0  0  0  0  0
   -7.3589    7.5958    4.0395 C   0  0  0  0  0  0  0  0  0  0  0  0
   -6.9310    8.8801    3.6566 C   0  0  0  0  0  0  0  0  0  0  0  0
   -5.6636    9.0419    3.1519 C   0  0  0  0  0  0  0  0  0  0  0  0
   -4.7608    8.0017    2.9952 C   0  0  0  0  0  0  0  0  0  0  0  0
   -4.6225    3.3281    2.0817 N   0  0  0  0  0  0  0  0  0  0  0  0
   -4.1651    2.5112    3.1813 C   0  0  0  0  0  0  0  0  0  0  0  0
   -3.6207    3.1307    4.0918 O   0  0  0  0  0  0  0  0  0  0  0  0
   -4.3559    1.0538    3.1848 C   0  0  2  0  0  0  0  0  0  0  0  0
   -4.3738    0.3539    4.4903 C   0  0  0  0  0  0  0  0  0  0  0  0
   -5.3383    0.6266    5.5189 C   0  0  0  0  0  0  0  0  0  0  0  0
   -5.3441    2.0100    6.1159 C   0  0  0  0  0  0  0  0  0  0  0  0
   -6.3112    1.9586    7.2519 N   0  0  0  0  0  0  0  0  0  0  0  0
   -7.6925    1.7911    7.0857 C   0  0  0  0  0  0  0  0  0  0  0  0
   -8.2663    2.3562    6.0569 N   0  0  0  0  0  0  0  0  0  0  0  0
   -8.4493    1.0407    8.0182 N   0  0  0  0  0  0  0  0  0  0  0  0
   -3.8468    0.2120    2.1712 N   0  0  0  0  0  0  0  0  0  0  0  0
   -3.0497    0.3718    1.0261 C   0  0  0  0  0  0  0  0  0  0  0  0
   -2.6318    1.5232    0.8485 O   0  0  0  0  0  0  0  0  0  0  0  0
   -2.7633   -0.7847    0.1437 C   0  0  2  0  0  0  0  0  0  0  0  0
   -3.1276   -0.3882   -1.2896 C   0  0  0  0  0  0  0  0  0  0  0  0
   -1.7016    0.1684   -2.2242 S   0  0  0  0  0  0  0  0  0  0  0  0
   -0.4564   -1.2158   -3.0138 S   0  0  0  0  0  0  0  0  0  0  0  0
    0.8827   -1.9572   -2.2049 C   0  0  0  0  0  0  0  0  0  0  0  0
    1.9544   -1.1230   -1.5934 C   0  0  2  0  0  0  0  0  0  0  0  0
    2.3599   -0.0252   -2.4353 N   0  0  0  0  0  0  0  0  0  0  0  0
    1.9434    1.3295   -2.3792 C   0  0  0  0  0  0  0  0  0  0  0  0
    1.0732    1.5867   -1.5618 O   0  0  0  0  0  0  0  0  0  0  0  0
    2.6225    2.2599   -3.3305 C   0  0  1  0  0  0  0  0  0  0  0  0
    1.9183    3.4404   -3.6904 N   0  0  0  0  0  0  0  0  0  0  0  0
    1.1573    4.3022   -2.8756 C   0  0  0  0  0  0  0  0  0  0  0  0
    1.0745    4.0147   -1.6828 O   0  0  0  0  0  0  0  0  0  0  0  0
    0.4808    5.5071   -3.3995 C   0  0  1  0  0  0  0  0  0  0  0  0
   -0.2679    6.1826   -2.3876 N   0  0  0  0  0  0  0  0  0  0  0  0
   -0.4050    7.5549   -2.1278 C   0  0  0  0  0  0  0  0  0  0  0  0
    0.2969    8.3278   -2.7676 O   0  0  0  0  0  0  0  0  0  0  0  0
    1.5496    6.4377   -4.0362 C   0  0  0  0  0  0  0  0  0  0  0  0
    3.9096    2.6241   -2.5661 C   0  0  0  0  0  0  0  0  0  0  0  0
    4.7414    3.5316   -3.3667 C   0  0  0  0  0  0  0  0  0  0  0  0
    5.6720    3.0237   -4.2377 C   0  0  0  0  0  0  0  0  0  0  0  0
    6.4751    3.8493   -5.0181 C   0  0  0  0  0  0  0  0  0  0  0  0
    6.3408    5.2383   -4.9208 C   0  0  0  0  0  0  0  0  0  0  0  0
    5.4035    5.7184   -4.0414 C   0  0  0  0  0  0  0  0  0  0  0  0
    4.6235    4.9128   -3.2846 C   0  0  0  0  0  0  0  0  0  0  0  0
    3.2546   -1.9578   -1.6364 C   0  0  0  0  0  0  0  0  0  0  0  0
    3.2976   -3.1669   -1.8626 O   0  0  0  0  0  0  0  0  0  0  0  0
    4.4190   -1.2338   -1.4184 N   0  0  0  0  0  0  0  0  0  0  0  0
    5.8112   -1.6180   -1.5237 C   0  0  2  0  0  0  0  0  0  0  0  0
    6.4467   -2.4349   -0.5049 C   0  0  0  0  0  0  0  0  0  0  0  0
    5.9909   -2.6400    0.6722 O   0  0  0  0  0  0  0  0  0  0  0  0
    7.6606   -3.0583   -0.8467 N   0  0  0  0  0  0  0  0  0  0  0  0
    8.5508   -3.8974   -0.1260 C   0  0  2  0  0  0  0  0  0  0  0  0
    9.8305   -3.2064    0.1408 C   0  0  0  0  0  0  0  0  0  0  0  0
    9.7053   -1.9136    0.1006 O   0  0  0  0  0  0  0  0  0  0  0  0
   11.1115   -3.6728    0.4132 N   0  0  0  0  0  0  0  0  0  0  0  0
   12.1433   -2.6621    0.6464 C   0  0  2  0  0  0  0  0  0  0  0  0
   12.7342   -2.4379   -0.7803 C   0  0  0  0  0  0  0  0  0  0  0  0
   12.2395   -3.0422   -1.7443 O   0  0  0  0  0  0  0  0  0  0  0  0
   13.8377   -1.5194   -0.8585 N   0  0  0  0  0  0  0  0  0  0  0  0
   13.3092   -3.0813    1.4392 C   0  0  0  0  0  0  0  0  0  0  0  0
   13.0224   -3.6768    2.7677 C   0  0  0  0  0  0  0  0  0  0  0  0
   12.1705   -2.9699    3.7246 C   0  0  0  0  0  0  0  0  0  0  0  0
   12.5519   -1.6431    4.0898 N   0  0  0  0  0  0  0  0  0  0  0  0
   11.8998   -1.0706    5.2464 C   0  0  0  0  0  0  0  0  0  0  0  0
   12.0063   -1.8468    6.3786 N   0  0  0  0  0  0  0  0  0  0  0  0
   11.2477    0.1560    5.3073 N   0  0  0  0  0  0  0  0  0  0  0  0
    8.7445   -5.1829   -0.8519 C   0  0  2  0  0  0  0  0  0  0  0  0
    9.5758   -6.0196   -0.0831 O   0  0  0  0  0  0  0  0  0  0  0  0
    9.4072   -5.0691   -2.1987 C   0  0  0  0  0  0  0  0  0  0  0  0
    6.4909   -0.3737   -1.9808 C   0  0  0  0  0  0  0  0  0  0  0  0
    7.8707   -0.1302   -2.1790 C   0  0  0  0  0  0  0  0  0  0  0  0
    8.5580    0.5919   -1.1842 C   0  0  0  0  0  0  0  0  0  0  0  0
    9.9051    0.9183   -1.2999 C   0  0  0  0  0  0  0  0  0  0  0  0
   10.5407    0.5014   -2.4383 C   0  0  0  0  0  0  0  0  0  0  0  0
    9.9368   -0.2067   -3.4463 C   0  0  0  0  0  0  0  0  0  0  0  0
    8.5764   -0.5175   -3.2994 C   0  0  0  0  0  0  0  0  0  0  0  0
   11.9054    0.8094   -2.6118 O   0  0  0  0  0  0  0  0  0  0  0  0
   -3.2591   -2.0298    0.5087 N   0  0  0  0  0  0  0  0  0  0  0  0
   -2.9063   -3.3167   -0.0482 C   0  0  0  0  0  0  0  0  0  0  0  0
   -2.0913   -3.3184   -0.9935 O   0  0  0  0  0  0  0  0  0  0  0  0
   -3.5685   -4.4460    0.5772 C   0  0  1  0  0  0  0  0  0  0  0  0
   -3.5987   -5.7171   -0.0405 N   0  0  0  0  0  0  0  0  0  0  0  0
   -4.8969   -6.0772   -0.5612 C   0  0  0  0  0  0  0  0  0  0  0  0
   -5.8223   -5.1950   -0.4737 O   0  0  0  0  0  0  0  0  0  0  0  0
   -5.2158   -7.3816   -1.1681 C   0  0  2  0  0  0  0  0  0  0  0  0
   -4.2507   -8.1016   -1.9719 C   0  0  2  0  0  0  0  0  0  0  0  0
   -4.1367   -7.6560   -3.2763 O   0  0  0  0  0  0  0  0  0  0  0  0
   -4.6558   -9.5884   -1.9588 C   0  0  0  0  0  0  0  0  0  0  0  0
   -6.5534   -7.3998   -1.6813 N   0  0  0  0  0  0  0  0  0  0  0  0
   -7.5831   -7.0898   -0.7393 C   0  0  0  0  0  0  0  0  0  0  0  0
   -7.4228   -6.8050    0.4576 O   0  0  0  0  0  0  0  0  0  0  0  0
   -9.0224   -7.0926   -1.2274 C   0  0  2  0  0  0  0  0  0  0  0  0
   -9.8012   -7.7830   -0.1623 C   0  0  2  0  0  0  0  0  0  0  0  0
   -9.7760   -6.9791    1.0119 O   0  0  0  0  0  0  0  0  0  0  0  0
   -8.9979   -9.0243    0.2426 C   0  0  0  0  0  0  0  0  0  0  0  0
   -9.0618   -7.8161   -2.4854 N   0  0  0  0  0  0  0  0  0  0  0  0
   -9.3993   -7.2714   -3.7428 C   0  0  0  0  0  0  0  0  0  0  0  0
   -9.7028   -6.0589   -3.9020 O   0  0  0  0  0  0  0  0  0  0  0  0
   -9.3982   -8.1627   -4.9568 C   0  0  0  0  0  0  0  0  0  0  0  0
   -3.0852   -4.6782    2.0253 C   0  0  0  0  0  0  0  0  0  0  0  0
   -3.8719   -5.9018    2.4361 C   0  0  0  0  0  0  0  0  0  0  0  0
   -3.2663   -7.1385    2.2752 C   0  0  0  0  0  0  0  0  0  0  0  0
   -4.0053   -8.2284    2.6121 C   0  0  0  0  0  0  0  0  0  0  0  0
   -5.3084   -8.1639    3.1034 C   0  0  0  0  0  0  0  0  0  0  0  0
   -5.9181   -6.9206    3.2676 C   0  0  0  0  0  0  0  0  0  0  0  0
   -5.1517   -5.8101    2.9166 C   0  0  0  0  0  0  0  0  0  0  0  0
   -5.9432   -9.3410    3.4097 O   0  0  0  0  0  0  0  0  0  0  0  0
    1.8555   10.8421    0.6155 H   0  0  0  0  0  0  0  0  0  0  0  0
    0.7259   10.1567    1.8849 H   0  0  0  0  0  0  0  0  0  0  0  0
   -1.3022    8.7561    0.9962 H   0  0  0  0  0  0  0  0  0  0  0  0
    0.0670    7.7980    0.4488 H   0  0  0  0  0  0  0  0  0  0  0  0
   -1.9970    8.8193   -1.5679 H   0  0  0  0  0  0  0  0  0  0  0  0
   -2.1678    6.2161   -0.0209 H   0  0  0  0  0  0  0  0  0  0  0  0
   -3.6024    4.5919   -2.3141 H   0  0  0  0  0  0  0  0  0  0  0  0
   -5.1352    5.4645   -3.6571 H   0  0  0  0  0  0  0  0  0  0  0  0
   -6.0481    4.7342   -2.3014 H   0  0  0  0  0  0  0  0  0  0  0  0
   -7.2478    6.2618   -0.6746 H   0  0  0  0  0  0  0  0  0  0  0  0
   -8.5751    8.4368   -0.5209 H   0  0  0  0  0  0  0  0  0  0  0  0
   -8.2579   10.2012   -2.1498 H   0  0  0  0  0  0  0  0  0  0  0  0
   -6.5085    9.8713   -3.9319 H   0  0  0  0  0  0  0  0  0  0  0  0
   -5.2984    7.8270   -4.1066 H   0  0  0  0  0  0  0  0  0  0  0  0
   -4.2880    3.7518   -0.3422 H   0  0  0  0  0  0  0  0  0  0  0  0
   -5.9788    4.7781    2.2270 H   0  0  0  0  0  0  0  0  0  0  0  0
   -4.5750    4.9979    4.2515 H   0  0  0  0  0  0  0  0  0  0  0  0
   -3.2578    5.8069    3.2413 H   0  0  0  0  0  0  0  0  0  0  0  0
   -6.7524    5.5924    4.1827 H   0  0  0  0  0  0  0  0  0  0  0  0
   -8.3621    7.4730    4.4476 H   0  0  0  0  0  0  0  0  0  0  0  0
   -7.6289    9.7207    3.7851 H   0  0  0  0  0  0  0  0  0  0  0  0
   -5.3105   10.0558    2.8552 H   0  0  0  0  0  0  0  0  0  0  0  0
   -3.7814    8.1970    2.5955 H   0  0  0  0  0  0  0  0  0  0  0  0
   -4.8717    2.7879    1.2478 H   0  0  0  0  0  0  0  0  0  0  0  0
   -5.5343    1.0183    2.8893 H   0  0  0  0  0  0  0  0  0  0  0  0
   -3.3218    0.3090    4.9385 H   0  0  0  0  0  0  0  0  0  0  0  0
   -4.4636   -0.7651    4.1837 H   0  0  0  0  0  0  0  0  0  0  0  0
   -5.2005   -0.1252    6.3719 H   0  0  0  0  0  0  0  0  0  0  0  0
   -6.3951    0.4012    5.1405 H   0  0  0  0  0  0  0  0  0  0  0  0
   -5.7084    2.7604    5.4261 H   0  0  0  0  0  0  0  0  0  0  0  0
   -4.3561    2.2777    6.5081 H   0  0  0  0  0  0  0  0  0  0  0  0
   -5.9544    2.0420    8.2462 H   0  0  0  0  0  0  0  0  0  0  0  0
   -7.7054    2.9226    5.3749 H   0  0  0  0  0  0  0  0  0  0  0  0
   -9.2334    1.4699    8.5666 H   0  0  0  0  0  0  0  0  0  0  0  0
   -8.2343    0.0313    8.1901 H   0  0  0  0  0  0  0  0  0  0  0  0
   -4.1652   -0.8064    2.3065 H   0  0  0  0  0  0  0  0  0  0  0  0
   -1.6220   -0.8569    0.0550 H   0  0  0  0  0  0  0  0  0  0  0  0
   -3.7034   -1.1656   -1.8099 H   0  0  0  0  0  0  0  0  0  0  0  0
   -3.8080    0.4794   -1.2060 H   0  0  0  0  0  0  0  0  0  0  0  0
    0.5489   -2.6973   -1.3971 H   0  0  0  0  0  0  0  0  0  0  0  0
    1.3819   -2.6814   -2.9355 H   0  0  0  0  0  0  0  0  0  0  0  0
    1.7294   -0.8860   -0.5768 H   0  0  0  0  0  0  0  0  0  0  0  0
    3.0513   -0.2040   -3.1816 H   0  0  0  0  0  0  0  0  0  0  0  0
    2.9029    1.6826   -4.2199 H   0  0  0  0  0  0  0  0  0  0  0  0
    1.9535    3.7264   -4.6903 H   0  0  0  0  0  0  0  0  0  0  0  0
   -0.1515    5.2863   -4.2790 H   0  0  0  0  0  0  0  0  0  0  0  0
   -0.8102    5.5771   -1.7307 H   0  0  0  0  0  0  0  0  0  0  0  0
    2.0977    5.8758   -4.8260 H   0  0  0  0  0  0  0  0  0  0  0  0
    2.1655    6.8387   -3.2271 H   0  0  0  0  0  0  0  0  0  0  0  0
    0.9692    7.1917   -4.5920 H   0  0  0  0  0  0  0  0  0  0  0  0
    4.4869    1.7118   -2.4250 H   0  0  0  0  0  0  0  0  0  0  0  0
    3.6643    3.0412   -1.5685 H   0  0  0  0  0  0  0  0  0  0  0  0
    5.8075    1.9386   -4.3416 H   0  0  0  0  0  0  0  0  0  0  0  0
    7.1910    3.3731   -5.7054 H   0  0  0  0  0  0  0  0  0  0  0  0
    6.9736    5.8393   -5.5396 H   0  0  0  0  0  0  0  0  0  0  0  0
    5.2961    6.7810   -3.9621 H   0  0  0  0  0  0  0  0  0  0  0  0
    3.9361    5.3565   -2.6080 H   0  0  0  0  0  0  0  0  0  0  0  0
    4.2735   -0.2189   -1.0739 H   0  0  0  0  0  0  0  0  0  0  0  0
    5.8206   -2.3322   -2.4545 H   0  0  0  0  0  0  0  0  0  0  0  0
    7.9584   -2.9062   -1.8663 H   0  0  0  0  0  0  0  0  0  0  0  0
    8.0995   -4.1509    0.8822 H   0  0  0  0  0  0  0  0  0  0  0  0
   11.2755   -4.6771    0.4406 H   0  0  0  0  0  0  0  0  0  0  0  0
   11.7250   -1.6660    0.8474 H   0  0  0  0  0  0  0  0  0  0  0  0
   13.9178   -0.8986   -1.6983 H   0  0  0  0  0  0  0  0  0  0  0  0
   14.5701   -1.4231   -0.1471 H   0  0  0  0  0  0  0  0  0  0  0  0
   13.9540   -2.1634    1.5996 H   0  0  0  0  0  0  0  0  0  0  0  0
   13.8814   -3.8240    0.8159 H   0  0  0  0  0  0  0  0  0  0  0  0
   13.9804   -3.9840    3.2496 H   0  0  0  0  0  0  0  0  0  0  0  0
   12.5283   -4.7140    2.5867 H   0  0  0  0  0  0  0  0  0  0  0  0
   11.1049   -2.8773    3.2382 H   0  0  0  0  0  0  0  0  0  0  0  0
   11.9723   -3.6282    4.6214 H   0  0  0  0  0  0  0  0  0  0  0  0
   13.2625   -1.0608    3.5555 H   0  0  0  0  0  0  0  0  0  0  0  0
   12.5333   -2.7089    6.2463 H   0  0  0  0  0  0  0  0  0  0  0  0
   10.6391    0.5533    4.5170 H   0  0  0  0  0  0  0  0  0  0  0  0
   11.2873    0.8100    6.1461 H   0  0  0  0  0  0  0  0  0  0  0  0
    7.8116   -5.7788   -0.9868 H   0  0  0  0  0  0  0  0  0  0  0  0
    9.3080   -5.9945    0.8676 H   0  0  0  0  0  0  0  0  0  0  0  0
    9.0344   -5.8858   -2.8735 H   0  0  0  0  0  0  0  0  0  0  0  0
   10.5269   -5.2663   -2.1224 H   0  0  0  0  0  0  0  0  0  0  0  0
    9.3134   -4.1174   -2.7043 H   0  0  0  0  0  0  0  0  0  0  0  0
    5.9755   -0.0271   -2.9631 H   0  0  0  0  0  0  0  0  0  0  0  0
    6.0727    0.4760   -1.2899 H   0  0  0  0  0  0  0  0  0  0  0  0
    8.0214    0.9211   -0.2862 H   0  0  0  0  0  0  0  0  0  0  0  0
   10.3481    1.4792   -0.4996 H   0  0  0  0  0  0  0  0  0  0  0  0
   10.4603   -0.5466   -4.3475 H   0  0  0  0  0  0  0  0  0  0  0  0
    8.0528   -1.0623   -4.0884 H   0  0  0  0  0  0  0  0  0  0  0  0
   12.4209    1.0675   -1.7884 H   0  0  0  0  0  0  0  0  0  0  0  0
   -3.9799   -2.1278    1.2964 H   0  0  0  0  0  0  0  0  0  0  0  0
   -4.6561   -4.0778    0.7996 H   0  0  0  0  0  0  0  0  0  0  0  0
   -2.7825   -6.3756   -0.1593 H   0  0  0  0  0  0  0  0  0  0  0  0
   -5.2525   -8.0206   -0.1496 H   0  0  0  0  0  0  0  0  0  0  0  0
   -3.2151   -8.1373   -1.5022 H   0  0  0  0  0  0  0  0  0  0  0  0
   -3.1709   -7.5411   -3.4759 H   0  0  0  0  0  0  0  0  0  0  0  0
   -3.7785  -10.2406   -2.0852 H   0  0  0  0  0  0  0  0  0  0  0  0
   -5.0988   -9.8629   -0.9792 H   0  0  0  0  0  0  0  0  0  0  0  0
   -5.3608   -9.8418   -2.7608 H   0  0  0  0  0  0  0  0  0  0  0  0
   -6.7928   -7.6206   -2.6894 H   0  0  0  0  0  0  0  0  0  0  0  0
   -9.3379   -6.0636   -1.4349 H   0  0  0  0  0  0  0  0  0  0  0  0
  -10.8147   -8.1006   -0.4094 H   0  0  0  0  0  0  0  0  0  0  0  0
   -9.8314   -7.5469    1.8086 H   0  0  0  0  0  0  0  0  0  0  0  0
   -9.4652   -9.9454   -0.1087 H   0  0  0  0  0  0  0  0  0  0  0  0
   -8.8813   -9.1110    1.3366 H   0  0  0  0  0  0  0  0  0  0  0  0
   -7.9616   -8.9690   -0.1576 H   0  0  0  0  0  0  0  0  0  0  0  0
   -8.8158   -8.8420   -2.4109 H   0  0  0  0  0  0  0  0  0  0  0  0
   -9.7539   -7.6137   -5.8304 H   0  0  0  0  0  0  0  0  0  0  0  0
  -10.0788   -9.0262   -4.7673 H   0  0  0  0  0  0  0  0  0  0  0  0
   -8.3478   -8.5353   -5.0875 H   0  0  0  0  0  0  0  0  0  0  0  0
   -2.0138   -4.8998    2.0783 H   0  0  0  0  0  0  0  0  0  0  0  0
   -3.3753   -3.8556    2.6906 H   0  0  0  0  0  0  0  0  0  0  0  0
   -2.2775   -7.2842    1.9128 H   0  0  0  0  0  0  0  0  0  0  0  0
   -3.5378   -9.2167    2.5050 H   0  0  0  0  0  0  0  0  0  0  0  0
   -6.9212   -6.8051    3.6455 H   0  0  0  0  0  0  0  0  0  0  0  0
   -5.5638   -4.8172    3.0253 H   0  0  0  0  0  0  0  0  0  0  0  0
   -5.7131  -10.2255    2.9093 H   0  0  0  0  0  0  0  0  0  0  0  0
  1  2  1  0
  2  3  2  0
  2  4  1  0
  4  5  1  0
  5  6  1  0
  6  7  1  0
  7  8  2  0
  7  9  1  0
  9 10  1  0
 10 11  1  0
 11 12  2  0
 12 13  1  0
 13 14  2  0
 14 15  1  0
 15 16  2  0
  9 17  1  0
 17 18  1  0
 18 19  2  0
 18 20  1  0
 20 21  1  0
 21 22  1  0
 22 23  2  0
 23 24  1  0
 24 25  2  0
 25 26  1  0
 26 27  2  0
 20 28  1  0
 28 29  1  0
 29 30  2  0
 29 31  1  0
 31 32  1  0
 32 33  1  0
 33 34  1  0
 34 35  1  0
 35 36  1  0
 36 37  2  3
 36 38  1  0
 31 39  1  0
 39 40  1  0
 40 41  2  0
 40 42  1  0
 42 43  1  0
 43 44  1  0
 44 45  1  0
 45 46  1  0
 46 47  1  0
 47 48  1  0
 48 49  1  0
 49 50  2  0
 49 51  1  0
 51 52  1  0
 52 53  1  0
 53 54  2  0
 53 55  1  0
 55 56  1  0
 56 57  1  0
 57 58  2  0
 55 59  1  0
 51 60  1  0
 60 61  1  0
 61 62  2  0
 62 63  1  0
 63 64  2  0
 64 65  1  0
 65 66  2  0
 47 67  1  0
 67 68  2  0
 67 69  1  0
 69 70  1  0
 70 71  1  0
 71 72  2  0
 71 73  1  0
 73 74  1  0
 74 75  1  0
 75 76  2  0
 75 77  1  0
 77 78  1  0
 78 79  1  0
 79 80  2  0
 79 81  1  0
 78 82  1  0
 82 83  1  0
 83 84  1  0
 84 85  1  0
 85 86  1  0
 86 87  2  3
 86 88  1  0
 74 89  1  0
 89 90  1  0
 89 91  1  0
 70 92  1  0
 92 93  1  0
 93 94  2  0
 94 95  1  0
 95 96  2  0
 96 97  1  0
 97 98  2  0
 96 99  1  0
 42100  1  0
100101  1  0
101102  2  0
101103  1  0
103104  1  0
104105  1  0
105106  2  0
105107  1  0
107108  1  0
108109  1  0
108110  1  0
107111  1  0
111112  1  0
112113  2  0
112114  1  0
114115  1  0
115116  1  0
115117  1  0
114118  1  0
118119  1  0
119120  2  0
119121  1  0
103122  1  0
122123  1  0
123124  2  0
124125  1  0
125126  2  0
126127  1  0
127128  2  0
126129  1  0
 57  5  1  0
 66 61  1  0
 98 93  1  0
128123  1  0
 16 11  1  0
 27 22  1  0
  1130  1  0
  1131  1  0
  4132  1  0
  4133  1  0
  5134  1  6
  6135  1  0
  9136  1  6
 10137  1  0
 10138  1  0
 12139  1  0
 13140  1  0
 14141  1  0
 15142  1  0
 16143  1  0
 17144  1  0
 20145  1  1
 21146  1  0
 21147  1  0
 23148  1  0
 24149  1  0
 25150  1  0
 26151  1  0
 27152  1  0
 28153  1  0
 31154  1  6
 32155  1  0
 32156  1  0
 33157  1  0
 33158  1  0
 34159  1  0
 34160  1  0
 35161  1  0
 37162  1  0
 38163  1  0
 38164  1  0
 39165  1  0
 42166  1  6
 43167  1  0
 43168  1  0
 46169  1  0
 46170  1  0
 47171  1  1
 48172  1  0
 51173  1  6
 52174  1  0
 55175  1  6
 56176  1  0
 59177  1  0
 59178  1  0
 59179  1  0
 60180  1  0
 60181  1  0
 62182  1  0
 63183  1  0
 64184  1  0
 65185  1  0
 66186  1  0
 69187  1  0
 70188  1  6
 73189  1  0
 74190  1  1
 77191  1  0
 78192  1  1
 81193  1  0
 81194  1  0
 82195  1  0
 82196  1  0
 83197  1  0
 83198  1  0
 84199  1  0
 84200  1  0
 85201  1  0
 87202  1  0
 88203  1  0
 88204  1  0
 89205  1  6
 90206  1  0
 91207  1  0
 91208  1  0
 91209  1  0
 92210  1  0
 92211  1  0
 94212  1  0
 95213  1  0
 97214  1  0
 98215  1  0
 99216  1  0
100217  1  0
103218  1  1
104219  1  0
107220  1  1
108221  1  1
109222  1  0
110223  1  0
110224  1  0
110225  1  0
111226  1  0
114227  1  6
115228  1  6
116229  1  0
117230  1  0
117231  1  0
117232  1  0
118233  1  0
121234  1  0
121235  1  0
121236  1  0
122237  1  0
122238  1  0
124239  1  0
125240  1  0
127241  1  0
128242  1  0
129243  1  0
M  END
>  <Ligand ID>  (1) 
LIG0005492

>  <Ligand>  (1) 
CHEMBL3577977

>  <SMILES>  (1) 
NC(=O)C[C@@H]1NC(=O)[C@H](Cc2ccccc2)NC(=O)[C@H](Cc2ccccc2)NC(=O)[C@H](CCCNC(=N)N)NC(=O)[C@H](CSSC[C@H](NC(=O)[C@@H](NC(=O)[C@@H](NC1=O)C)Cc1ccccc1)C(=O)N[C@H](C(=O)N[C@H](C(=O)N[C@H](C(=O)N)CCCNC(=N)N)[C@H](O)C)Cc1ccc(cc1)O)NC(=O)[C@@H](NC(=O)[C@H]([C@H](O)C)NC(=O)[C@H]([C@H](O)C)NC(=O)C)Cc1ccc(cc1)O

>  <CID>  (1) 
122178147.0

>  <ChEMBL ID>  (1) 
nan

>  <InChiKey>  (1) 
CZAFJQFHVPEMKH-LXMWGWPASA-N

>  <InChi>  (1) 
InChI=1S/C84H114N22O21S2/c1-43-70(115)97-57(35-48-17-9-6-10-18-48)75(120)104-64(79(124)100-61(39-52-27-31-54(112)32-28-52)77(122)105-67(45(3)108)80(125)95-55(69(86)114)23-15-33-91-83(87)88)42-129-128-41-63(103-76(121)60(38-51-25-29-53(111)30-26-51)102-81(126)68(46(4)109)106-82(127)66(44(2)107)94-47(5)110)78(123)96-56(24-16-34-92-84(89)90)71(116)98-58(36-49-19-11-7-12-20-49)73(118)99-59(37-50-21-13-8-14-22-50)74(119)101-62(40-65(85)113)72(117)93-43/h6-14,17-22,25-32,43-46,55-64,66-68,107-109,111-112H,15-16,23-24,33-42H2,1-5H3,(H2,85,113)(H2,86,114)(H,93,117)(H,94,110)(H,95,125)(H,96,123)(H,97,115)(H,98,116)(H,99,118)(H,100,124)(H,101,119)(H,102,126)(H,103,121)(H,104,120)(H,105,122)(H,106,127)(H4,87,88,91)(H4,89,90,92)/t43-,44+,45+,46+,55-,56-,57-,58-,59-,60-,61-,62-,63-,64-,66-,67-,68-/m0/s1

>  <IUPAC Name>  (1) 
(4R,7S,10S,13S,16S,19S,22S,25R)-25-[[(2S)-2-[[(2S,3R)-2-[[(2S,3R)-2-acetamido-3-hydroxybutanoyl]amino]-3-hydroxybutanoyl]amino]-3-(4-hydroxyphenyl)propanoyl]amino]-N-[(2S)-1-[[(2S,3R)-1-[[(2S)-1-amino-5-carbamimidamido-1-oxopentan-2-yl]amino]-3-hydroxy-1-oxobutan-2-yl]amino]-3-(4-hydroxyphenyl)-1-oxopropan-2-yl]-13-(2-amino-2-oxoethyl)-7,16,19-tribenzyl-22-(3-carbamimidamidopropyl)-10-methyl-6,9,12,15,18,21,24-heptaoxo-1,2-dithia-5,8,11,14,17,20,23-heptazacyclohexacosane-4-carboxamide

$$$$
