
     RDKit          3D

 23 22  0  0  0  0  0  0  0  0999 V2000
   -3.1448   -0.6815    0.7807 C   0  0  0  0  0  0  0  0  0  0  0  0
   -2.9441    0.3566   -0.2833 C   0  0  0  0  0  0  0  0  0  0  0  0
   -1.6117    0.1554   -0.9947 C   0  0  0  0  0  0  0  0  0  0  0  0
   -0.4353    0.2520   -0.0344 C   0  0  0  0  0  0  0  0  0  0  0  0
    0.8180    0.0384   -0.8445 C   0  0  0  0  0  0  0  0  0  0  0  0
    2.0425    0.1113   -0.0051 C   0  0  0  0  0  0  0  0  0  0  0  0
    1.9649    0.3281    1.2241 O   0  0  0  0  0  0  0  0  0  0  0  0
    3.2584   -0.0717   -0.6513 O   0  0  0  0  0  0  0  0  0  0  0  0
    4.4977   -0.0326   -0.0024 C   0  0  0  0  0  0  0  0  0  0  0  0
   -3.1953   -1.6807    0.3097 H   0  0  0  0  0  0  0  0  0  0  0  0
   -2.4279   -0.6033    1.6134 H   0  0  0  0  0  0  0  0  0  0  0  0
   -4.1442   -0.4472    1.2503 H   0  0  0  0  0  0  0  0  0  0  0  0
   -3.7176    0.1915   -1.0578 H   0  0  0  0  0  0  0  0  0  0  0  0
   -3.0568    1.3814    0.0853 H   0  0  0  0  0  0  0  0  0  0  0  0
   -1.6623   -0.8284   -1.4762 H   0  0  0  0  0  0  0  0  0  0  0  0
   -1.5237    0.9152   -1.7970 H   0  0  0  0  0  0  0  0  0  0  0  0
   -0.5899   -0.5165    0.7327 H   0  0  0  0  0  0  0  0  0  0  0  0
   -0.4428    1.2590    0.4256 H   0  0  0  0  0  0  0  0  0  0  0  0
    0.7816   -0.9739   -1.2764 H   0  0  0  0  0  0  0  0  0  0  0  0
    0.8936    0.8591   -1.5814 H   0  0  0  0  0  0  0  0  0  0  0  0
    4.8435   -1.0440    0.3502 H   0  0  0  0  0  0  0  0  0  0  0  0
    5.2487    0.3230   -0.7580 H   0  0  0  0  0  0  0  0  0  0  0  0
    4.5477    0.7089    0.8273 H   0  0  0  0  0  0  0  0  0  0  0  0
  1  2  1  0
  2  3  1  0
  3  4  1  0
  4  5  1  0
  5  6  1  0
  6  7  2  0
  6  8  1  0
  8  9  1  0
  1 10  1  0
  1 11  1  0
  1 12  1  0
  2 13  1  0
  2 14  1  0
  3 15  1  0
  3 16  1  0
  4 17  1  0
  4 18  1  0
  5 19  1  0
  5 20  1  0
  9 21  1  0
  9 22  1  0
  9 23  1  0
M  END
>  <Ligand ID>  (1) 
LIG0005022

>  <Ligand>  (1) 
methyl hexanoate

>  <SMILES>  (1) 
CCCCCC(=O)OC

>  <CID>  (1) 
7824.0

>  <ChEMBL ID>  (1) 
nan

>  <InChiKey>  (1) 
NUKZAGXMHTUAFE-UHFFFAOYSA-N

>  <InChi>  (1) 
InChI=1S/C7H14O2/c1-3-4-5-6-7(8)9-2/h3-6H2,1-2H3

>  <IUPAC Name>  (1) 
methyl hexanoate

$$$$
