
     RDKit          3D

 71 77  0  0  0  0  0  0  0  0999 V2000
   -4.2447    6.5629    0.3196 C   0  0  0  0  0  0  0  0  0  0  0  0
   -3.2338    5.6410    0.0067 O   0  0  0  0  0  0  0  0  0  0  0  0
   -3.2498    4.2939    0.3079 C   0  0  0  0  0  0  0  0  0  0  0  0
   -4.2839    3.6639    0.9700 C   0  0  0  0  0  0  0  0  0  0  0  0
   -4.2618    2.2953    1.2569 C   0  0  0  0  0  0  0  0  0  0  0  0
   -3.1687    1.5579    0.8625 C   0  0  0  0  0  0  0  0  0  0  0  0
   -2.1666    2.2165    0.2097 C   0  0  0  0  0  0  0  0  0  0  0  0
   -2.1510    3.5505   -0.0881 C   0  0  0  0  0  0  0  0  0  0  0  0
   -0.9549    3.8187   -0.7517 O   0  0  0  0  0  0  0  0  0  0  0  0
   -0.0483    2.7182   -0.4882 C   0  0  2  0  0  0  0  0  0  0  0  0
   -0.9347    1.5379   -0.2763 C   0  0  2  0  0  0  0  0  0  0  0  0
   -1.2760    0.8782   -1.5836 C   0  0  0  0  0  0  0  0  0  0  0  0
   -1.7980   -0.4986   -1.5035 C   0  0  0  0  0  0  0  0  0  0  0  0
   -1.5373   -1.2304   -0.3051 N   0  0  0  0  0  0  0  0  0  0  0  0
   -1.6522   -0.4311    0.8972 C   0  0  2  0  0  0  0  0  0  0  0  0
   -3.0156    0.1160    1.1140 C   0  0  0  0  0  0  0  0  0  0  0  0
   -0.5480    0.5947    0.8171 C   0  0  2  0  0  0  0  0  0  0  0  0
   -0.4146    1.4052    2.0895 C   0  0  0  0  0  0  0  0  0  0  0  0
    0.8866    2.1968    1.9078 C   0  0  0  0  0  0  0  0  0  0  0  0
    0.8140    2.9784    0.6615 C   0  0  0  0  0  0  0  0  0  0  0  0
    1.5678    3.9592    0.5889 O   0  0  0  0  0  0  0  0  0  0  0  0
    0.7070   -0.0576    0.5749 N   0  0  0  0  0  0  0  0  0  0  0  0
    1.3354   -0.9939    1.4024 C   0  0  0  0  0  0  0  0  0  0  0  0
    0.7405   -1.3045    2.4881 O   0  0  0  0  0  0  0  0  0  0  0  0
    2.6130   -1.6407    1.1219 C   0  0  0  0  0  0  0  0  0  0  0  0
    3.3349   -1.4200    0.0464 C   0  0  0  0  0  0  0  0  0  0  0  0
    4.6099   -2.0606   -0.2402 C   0  0  0  0  0  0  0  0  0  0  0  0
    5.2069   -2.9783    0.5916 C   0  0  0  0  0  0  0  0  0  0  0  0
    6.4324   -3.5782    0.2936 C   0  0  0  0  0  0  0  0  0  0  0  0
    7.1013   -3.2683   -0.8650 C   0  0  0  0  0  0  0  0  0  0  0  0
    6.5149   -2.3512   -1.7066 C   0  0  0  0  0  0  0  0  0  0  0  0
    5.2939   -1.7513   -1.4131 C   0  0  0  0  0  0  0  0  0  0  0  0
    4.7232   -0.7681   -2.3734 C   0  0  0  0  0  0  0  0  0  0  0  0
   -2.3001   -2.4387   -0.2468 C   0  0  0  0  0  0  0  0  0  0  0  0
   -1.8645   -3.4320   -1.2689 C   0  0  0  0  0  0  0  0  0  0  0  0
   -2.6905   -4.7349   -1.1998 C   0  0  0  0  0  0  0  0  0  0  0  0
   -1.1981   -4.7037   -0.9653 C   0  0  0  0  0  0  0  0  0  0  0  0
   -4.3376    7.2240   -0.5909 H   0  0  0  0  0  0  0  0  0  0  0  0
   -4.0435    7.1696    1.2122 H   0  0  0  0  0  0  0  0  0  0  0  0
   -5.2498    6.1144    0.4408 H   0  0  0  0  0  0  0  0  0  0  0  0
   -5.1432    4.2572    1.2765 H   0  0  0  0  0  0  0  0  0  0  0  0
   -5.0734    1.8040    1.7759 H   0  0  0  0  0  0  0  0  0  0  0  0
    0.4981    2.5950   -1.4392 H   0  0  0  0  0  0  0  0  0  0  0  0
   -0.3930    0.9838   -2.2818 H   0  0  0  0  0  0  0  0  0  0  0  0
   -2.0594    1.5092   -2.0729 H   0  0  0  0  0  0  0  0  0  0  0  0
   -1.2910   -1.0772   -2.3309 H   0  0  0  0  0  0  0  0  0  0  0  0
   -2.8864   -0.5877   -1.7582 H   0  0  0  0  0  0  0  0  0  0  0  0
   -1.4190   -1.1155    1.7334 H   0  0  0  0  0  0  0  0  0  0  0  0
   -3.7923   -0.3947    0.5162 H   0  0  0  0  0  0  0  0  0  0  0  0
   -3.3265   -0.0378    2.1873 H   0  0  0  0  0  0  0  0  0  0  0  0
   -0.4076    0.8114    3.0001 H   0  0  0  0  0  0  0  0  0  0  0  0
   -1.1979    2.1847    2.1712 H   0  0  0  0  0  0  0  0  0  0  0  0
    1.7787    1.5385    1.9522 H   0  0  0  0  0  0  0  0  0  0  0  0
    0.9593    2.9433    2.7524 H   0  0  0  0  0  0  0  0  0  0  0  0
    1.2000    0.2067   -0.3294 H   0  0  0  0  0  0  0  0  0  0  0  0
    3.0074   -2.3524    1.8363 H   0  0  0  0  0  0  0  0  0  0  0  0
    2.9490   -0.7133   -0.6708 H   0  0  0  0  0  0  0  0  0  0  0  0
    4.7549   -3.2765    1.5130 H   0  0  0  0  0  0  0  0  0  0  0  0
    6.8674   -4.2958    0.9760 H   0  0  0  0  0  0  0  0  0  0  0  0
    8.0354   -3.7532   -1.0492 H   0  0  0  0  0  0  0  0  0  0  0  0
    7.0587   -2.1127   -2.6272 H   0  0  0  0  0  0  0  0  0  0  0  0
    5.5486   -0.4167   -3.0361 H   0  0  0  0  0  0  0  0  0  0  0  0
    4.3488    0.1505   -1.8696 H   0  0  0  0  0  0  0  0  0  0  0  0
    3.9573   -1.2345   -3.0378 H   0  0  0  0  0  0  0  0  0  0  0  0
   -3.3967   -2.2865   -0.4016 H   0  0  0  0  0  0  0  0  0  0  0  0
   -2.2153   -2.9354    0.7440 H   0  0  0  0  0  0  0  0  0  0  0  0
   -1.8281   -3.0390   -2.3269 H   0  0  0  0  0  0  0  0  0  0  0  0
   -3.1152   -5.1522   -2.1107 H   0  0  0  0  0  0  0  0  0  0  0  0
   -3.2641   -4.9462   -0.2858 H   0  0  0  0  0  0  0  0  0  0  0  0
   -0.6333   -5.1799   -1.8047 H   0  0  0  0  0  0  0  0  0  0  0  0
   -0.7788   -4.9283    0.0168 H   0  0  0  0  0  0  0  0  0  0  0  0
  1  2  1  0
  2  3  1  0
  3  4  2  0
  4  5  1  0
  5  6  2  0
  6  7  1  0
  7  8  2  0
  8  9  1  0
  9 10  1  0
 10 11  1  0
 11 12  1  6
 12 13  1  0
 13 14  1  0
 14 15  1  0
 15 16  1  0
 15 17  1  0
 17 18  1  0
 18 19  1  0
 19 20  1  0
 20 21  2  0
 17 22  1  6
 22 23  1  0
 23 24  2  0
 23 25  1  0
 25 26  2  0
 26 27  1  0
 27 28  2  0
 28 29  1  0
 29 30  2  0
 30 31  1  0
 31 32  2  0
 32 33  1  0
 14 34  1  0
 34 35  1  0
 35 36  1  0
 36 37  1  0
  8  3  1  0
 20 10  1  0
 32 27  1  0
 37 35  1  0
 16  6  1  0
 11  7  1  0
 17 11  1  0
  1 38  1  0
  1 39  1  0
  1 40  1  0
  4 41  1  0
  5 42  1  0
 10 43  1  6
 12 44  1  0
 12 45  1  0
 13 46  1  0
 13 47  1  0
 15 48  1  1
 16 49  1  0
 16 50  1  0
 18 51  1  0
 18 52  1  0
 19 53  1  0
 19 54  1  0
 22 55  1  0
 25 56  1  0
 26 57  1  0
 28 58  1  0
 29 59  1  0
 30 60  1  0
 31 61  1  0
 33 62  1  0
 33 63  1  0
 33 64  1  0
 34 65  1  0
 34 66  1  0
 35 67  1  0
 36 68  1  0
 36 69  1  0
 37 70  1  0
 37 71  1  0
M  END
>  <Ligand ID>  (1) 
LIG0003858

>  <Ligand>  (1) 
CHEMBL611400

>  <SMILES>  (1) 
COc1ccc2c3c1O[C@@H]1[C@@]43CCN([C@H](C2)[C@@]4(CCC1=O)NC(=O)/C=C/c1ccccc1C)CC1CC1

>  <CID>  (1) 
11849247.0

>  <ChEMBL ID>  (1) 
nan

>  <InChiKey>  (1) 
HKFWFMQRXDJWRR-APKKWQIUSA-N

>  <InChi>  (1) 
InChI=1S/C31H34N2O4/c1-19-5-3-4-6-21(19)10-12-26(35)32-31-14-13-23(34)29-30(31)15-16-33(18-20-7-8-20)25(31)17-22-9-11-24(36-2)28(37-29)27(22)30/h3-6,9-12,20,25,29H,7-8,13-18H2,1-2H3,(H,32,35)/b12-10+/t25-,29+,30+,31-/m1/s1

>  <IUPAC Name>  (1) 
(E)-N-[(4R,4aS,7aR,12bR)-3-(cyclopropylmethyl)-9-methoxy-7-oxo-2,4,5,6,7a,13-hexahydro-1H-4,12-methanobenzofuro[3,2-e]isoquinolin-4a-yl]-3-(2-methylphenyl)prop-2-enamide

$$$$
