
     RDKit          3D

 36 37  0  0  0  0  0  0  0  0999 V2000
   -4.6511   -0.2710    0.2173 N   0  0  0  0  0  0  0  0  0  0  0  0
   -3.5334   -0.8921    0.9191 C   0  0  0  0  0  0  0  0  0  0  0  0
   -2.3628    0.0666    0.9235 C   0  0  1  0  0  0  0  0  0  0  0  0
   -1.1491   -0.4200    1.6002 C   0  0  0  0  0  0  0  0  0  0  0  0
   -1.1495   -0.3201    0.0716 C   0  0  2  0  0  0  0  0  0  0  0  0
   -0.3584    0.8239   -0.4770 C   0  0  0  0  0  0  0  0  0  0  0  0
   -1.0054    2.0040   -0.8105 C   0  0  0  0  0  0  0  0  0  0  0  0
   -0.3130    3.1038   -1.3156 C   0  0  0  0  0  0  0  0  0  0  0  0
    1.0515    3.0420   -1.4978 C   0  0  0  0  0  0  0  0  0  0  0  0
    1.6929    1.8708   -1.1671 C   0  0  0  0  0  0  0  0  0  0  0  0
    1.0038    0.7608   -0.6590 C   0  0  0  0  0  0  0  0  0  0  0  0
    1.8161   -0.4050   -0.3721 C   0  0  0  0  0  0  0  0  0  0  0  0
    1.6205   -1.6614   -0.8224 C   0  0  0  0  0  0  0  0  0  0  0  0
    2.4706   -2.6838   -0.4515 C   0  0  0  0  0  0  0  0  0  0  0  0
    3.5533   -2.4901    0.3862 C   0  0  0  0  0  0  0  0  0  0  0  0
    3.7566   -1.1948    0.8509 C   0  0  0  0  0  0  0  0  0  0  0  0
    2.9106   -0.1930    0.4782 C   0  0  0  0  0  0  0  0  0  0  0  0
    4.3748   -3.5050    0.7381 F   0  0  0  0  0  0  0  0  0  0  0  0
    0.6882    0.0000    0.0000 Cl  0  0  0  0  0  0  0  0  0  0  0  0
   -4.4115   -0.3154   -0.8009 H   0  0  0  0  0  0  0  0  0  0  0  0
   -4.7875    0.7118    0.5478 H   0  0  0  0  0  0  0  0  0  0  0  0
   -3.8905   -1.1563    1.9354 H   0  0  0  0  0  0  0  0  0  0  0  0
   -3.3053   -1.8251    0.3660 H   0  0  0  0  0  0  0  0  0  0  0  0
   -2.6214    1.1327    0.9605 H   0  0  0  0  0  0  0  0  0  0  0  0
   -0.5929    0.3336    2.1911 H   0  0  0  0  0  0  0  0  0  0  0  0
   -1.1389   -1.4308    2.0677 H   0  0  0  0  0  0  0  0  0  0  0  0
   -1.1853   -1.2695   -0.4597 H   0  0  0  0  0  0  0  0  0  0  0  0
   -2.0729    2.1460   -0.7041 H   0  0  0  0  0  0  0  0  0  0  0  0
   -0.8546    4.0262   -1.5708 H   0  0  0  0  0  0  0  0  0  0  0  0
    1.5639    3.9101   -1.8911 H   0  0  0  0  0  0  0  0  0  0  0  0
    2.7829    1.8283   -1.3151 H   0  0  0  0  0  0  0  0  0  0  0  0
    0.8078   -1.8788   -1.4844 H   0  0  0  0  0  0  0  0  0  0  0  0
    2.2645   -3.6778   -0.8446 H   0  0  0  0  0  0  0  0  0  0  0  0
    4.5965   -0.9742    1.5176 H   0  0  0  0  0  0  0  0  0  0  0  0
    3.1173    0.8035    0.8724 H   0  0  0  0  0  0  0  0  0  0  0  0
   -0.6882    0.0000    0.0000 H   0  0  0  0  0  0  0  0  0  0  0  0
  1  2  1  0
  2  3  1  0
  3  4  1  0
  4  5  1  0
  5  6  1  0
  6  7  2  0
  7  8  1  0
  8  9  2  0
  9 10  1  0
 10 11  2  0
 11 12  1  0
 12 13  2  0
 13 14  1  0
 14 15  2  0
 15 16  1  0
 16 17  2  0
 15 18  1  0
  5  3  1  0
 11  6  1  0
 17 12  1  0
  1 20  1  0
  1 21  1  0
  2 22  1  0
  2 23  1  0
  3 24  1  1
  4 25  1  0
  4 26  1  0
  5 27  1  6
  7 28  1  0
  8 29  1  0
  9 30  1  0
 10 31  1  0
 13 32  1  0
 14 33  1  0
 16 34  1  0
 17 35  1  0
 19 36  1  0
M  END
>  <Ligand ID>  (1) 
LIG0005679

>  <Ligand>  (1) 
CHEMBL474860

>  <SMILES>  (1) 
NC[C@H]1C[C@@H]1c1ccccc1c1ccc(cc1)F.Cl

>  <CID>  (1) 
44572251.0

>  <ChEMBL ID>  (1) 
nan

>  <InChiKey>  (1) 
IAPGKDRVOFONSH-KKJWGQAZSA-N

>  <InChi>  (1) 
InChI=1S/C16H16FN.ClH/c17-13-7-5-11(6-8-13)14-3-1-2-4-15(14)16-9-12(16)10-18;/h1-8,12,16H,9-10,18H2;1H/t12-,16+;/m1./s1

>  <IUPAC Name>  (1) 
[(1S,2S)-2-[2-(4-fluorophenyl)phenyl]cyclopropyl]methanamine;hydrochloride

$$$$
