
     RDKit          3D

 95 98  0  0  0  0  0  0  0  0999 V2000
    5.1331   -6.2133    2.6935 N   0  0  0  0  0  0  0  0  0  0  0  0
    3.7646   -6.5601    2.3956 C   0  0  0  0  0  0  0  0  0  0  0  0
    3.0408   -5.5682    1.9565 N   0  0  0  0  0  0  0  0  0  0  0  0
    1.6601   -5.7608    1.6162 C   0  0  0  0  0  0  0  0  0  0  0  0
    0.8454   -4.4838    1.7955 C   0  0  0  0  0  0  0  0  0  0  0  0
    1.4155   -3.3575    0.9490 C   0  0  0  0  0  0  0  0  0  0  0  0
    0.5957   -2.1249    1.0898 C   0  0  1  0  0  0  0  0  0  0  0  0
    1.1322   -0.9488    0.3033 C   0  0  0  0  0  0  0  0  0  0  0  0
    0.4525   -0.3460   -0.5515 O   0  0  0  0  0  0  0  0  0  0  0  0
    2.4842   -0.5875    0.6365 N   0  0  0  0  0  0  0  0  0  0  0  0
    3.1688    0.5312    0.0369 C   0  0  1  0  0  0  0  0  0  0  0  0
    3.6585    1.4803    1.0795 C   0  0  0  0  0  0  0  0  0  0  0  0
    4.2281    2.5516    0.8442 O   0  0  0  0  0  0  0  0  0  0  0  0
    3.4604    1.1373    2.4558 N   0  0  0  0  0  0  0  0  0  0  0  0
    4.3309    0.0273   -0.7715 C   0  0  0  0  0  0  0  0  0  0  0  0
    5.0947    1.1138   -1.3944 C   0  0  0  0  0  0  0  0  0  0  0  0
    6.2051    1.5938   -0.7305 C   0  0  0  0  0  0  0  0  0  0  0  0
    6.9780    2.6460   -1.2215 C   0  0  0  0  0  0  0  0  0  0  0  0
    6.6458    3.2625   -2.4243 C   0  0  0  0  0  0  0  0  0  0  0  0
    5.5298    2.7822   -3.0953 C   0  0  0  0  0  0  0  0  0  0  0  0
    4.7746    1.7280   -2.5850 C   0  0  0  0  0  0  0  0  0  0  0  0
    5.2194    3.4123   -4.2806 C   0  0  0  0  0  0  0  0  0  0  0  0
    5.9836    4.4480   -4.7416 C   0  0  0  0  0  0  0  0  0  0  0  0
    7.1030    4.9432   -4.0852 C   0  0  0  0  0  0  0  0  0  0  0  0
    7.4130    4.3017   -2.8861 C   0  0  0  0  0  0  0  0  0  0  0  0
   -0.7697   -2.3120    0.6028 N   0  0  0  0  0  0  0  0  0  0  0  0
   -1.7719   -1.3867    0.9468 C   0  0  0  0  0  0  0  0  0  0  0  0
   -1.3789   -0.3994    1.6776 O   0  0  0  0  0  0  0  0  0  0  0  0
   -3.1777   -1.3999    0.5859 C   0  0  1  0  0  0  0  0  0  0  0  0
   -3.8047   -0.1308    0.9228 N   0  0  0  0  0  0  0  0  0  0  0  0
   -4.5484    0.1317    2.0910 C   0  0  0  0  0  0  0  0  0  0  0  0
   -4.7568   -0.7222    3.0053 O   0  0  0  0  0  0  0  0  0  0  0  0
   -5.1101    1.5316    2.2128 C   0  0  2  0  0  0  0  0  0  0  0  0
   -6.5090    1.4077    2.6621 C   0  0  0  0  0  0  0  0  0  0  0  0
   -7.2197    2.7113    2.8321 C   0  0  0  0  0  0  0  0  0  0  0  0
   -7.9072    3.3006    1.8402 N   0  0  0  0  0  0  0  0  0  0  0  0
   -8.4356    4.4549    2.2965 C   0  0  0  0  0  0  0  0  0  0  0  0
   -8.0778    4.6052    3.6115 N   0  0  0  0  0  0  0  0  0  0  0  0
   -7.3213    3.5176    3.9383 C   0  0  0  0  0  0  0  0  0  0  0  0
   -4.8717    2.3026    1.0448 N   0  0  0  0  0  0  0  0  0  0  0  0
   -4.1196    3.4983    0.9569 C   0  0  0  0  0  0  0  0  0  0  0  0
   -3.5903    3.9639    1.9919 O   0  0  0  0  0  0  0  0  0  0  0  0
   -3.9557    4.2023   -0.3489 C   0  0  0  0  0  0  0  0  0  0  0  0
   -3.5795   -1.9304   -0.7333 C   0  0  0  0  0  0  0  0  0  0  0  0
   -3.0529   -1.2819   -1.9283 C   0  0  0  0  0  0  0  0  0  0  0  0
   -3.7124   -0.1843   -2.4571 C   0  0  0  0  0  0  0  0  0  0  0  0
   -3.2907    0.4867   -3.5834 C   0  0  0  0  0  0  0  0  0  0  0  0
   -2.1381    0.0576   -4.2483 C   0  0  0  0  0  0  0  0  0  0  0  0
   -1.4631   -1.0264   -3.7488 C   0  0  0  0  0  0  0  0  0  0  0  0
   -1.9114   -1.6863   -2.6093 C   0  0  0  0  0  0  0  0  0  0  0  0
    3.2630   -7.8716    2.5733 N   0  0  0  0  0  0  0  0  0  0  0  0
    5.6642   -6.7748    3.4064 H   0  0  0  0  0  0  0  0  0  0  0  0
    5.6086   -5.4115    2.2071 H   0  0  0  0  0  0  0  0  0  0  0  0
    1.2527   -6.4639    2.4026 H   0  0  0  0  0  0  0  0  0  0  0  0
    1.4854   -6.2556    0.6566 H   0  0  0  0  0  0  0  0  0  0  0  0
    0.9178   -4.2297    2.8738 H   0  0  0  0  0  0  0  0  0  0  0  0
   -0.1926   -4.6949    1.5157 H   0  0  0  0  0  0  0  0  0  0  0  0
    2.4501   -3.1670    1.3098 H   0  0  0  0  0  0  0  0  0  0  0  0
    1.4271   -3.7271   -0.1068 H   0  0  0  0  0  0  0  0  0  0  0  0
    0.5210   -1.8213    2.1518 H   0  0  0  0  0  0  0  0  0  0  0  0
    3.0371   -1.1459    1.3421 H   0  0  0  0  0  0  0  0  0  0  0  0
    2.4138    1.0398   -0.6100 H   0  0  0  0  0  0  0  0  0  0  0  0
    3.4186    0.1589    2.8057 H   0  0  0  0  0  0  0  0  0  0  0  0
    3.3474    1.8795    3.1963 H   0  0  0  0  0  0  0  0  0  0  0  0
    3.9180   -0.6937   -1.5094 H   0  0  0  0  0  0  0  0  0  0  0  0
    4.9901   -0.5210   -0.0642 H   0  0  0  0  0  0  0  0  0  0  0  0
    6.4924    1.1447    0.1987 H   0  0  0  0  0  0  0  0  0  0  0  0
    7.8319    2.9523   -0.6269 H   0  0  0  0  0  0  0  0  0  0  0  0
    3.9244    1.4026   -3.1495 H   0  0  0  0  0  0  0  0  0  0  0  0
    4.3404    3.0294   -4.8043 H   0  0  0  0  0  0  0  0  0  0  0  0
    5.7283    4.9441   -5.6841 H   0  0  0  0  0  0  0  0  0  0  0  0
    7.6857    5.7558   -4.4628 H   0  0  0  0  0  0  0  0  0  0  0  0
    8.2803    4.6280   -2.3056 H   0  0  0  0  0  0  0  0  0  0  0  0
   -1.0527   -3.1159    0.0021 H   0  0  0  0  0  0  0  0  0  0  0  0
   -3.6717   -2.1142    1.3435 H   0  0  0  0  0  0  0  0  0  0  0  0
   -3.6740    0.6327    0.2147 H   0  0  0  0  0  0  0  0  0  0  0  0
   -4.5395    2.0060    3.0429 H   0  0  0  0  0  0  0  0  0  0  0  0
   -7.1321    0.6602    2.1254 H   0  0  0  0  0  0  0  0  0  0  0  0
   -6.4589    1.0052    3.7220 H   0  0  0  0  0  0  0  0  0  0  0  0
   -8.0522    2.9730    0.8409 H   0  0  0  0  0  0  0  0  0  0  0  0
   -9.0457    5.1886    1.7875 H   0  0  0  0  0  0  0  0  0  0  0  0
   -6.8596    3.2877    4.8958 H   0  0  0  0  0  0  0  0  0  0  0  0
   -5.3078    1.9412    0.1358 H   0  0  0  0  0  0  0  0  0  0  0  0
   -4.4530    5.2032   -0.3234 H   0  0  0  0  0  0  0  0  0  0  0  0
   -4.4970    3.6031   -1.1226 H   0  0  0  0  0  0  0  0  0  0  0  0
   -2.8958    4.2710   -0.6730 H   0  0  0  0  0  0  0  0  0  0  0  0
   -3.3497   -3.0302   -0.7520 H   0  0  0  0  0  0  0  0  0  0  0  0
   -4.7164   -1.9110   -0.7453 H   0  0  0  0  0  0  0  0  0  0  0  0
   -4.6138    0.2063   -1.9862 H   0  0  0  0  0  0  0  0  0  0  0  0
   -3.8222    1.3429   -3.9821 H   0  0  0  0  0  0  0  0  0  0  0  0
   -1.8360    0.6094   -5.1370 H   0  0  0  0  0  0  0  0  0  0  0  0
   -0.5644   -1.3480   -4.2823 H   0  0  0  0  0  0  0  0  0  0  0  0
   -1.3395   -2.5349   -2.2744 H   0  0  0  0  0  0  0  0  0  0  0  0
    3.7799   -8.6316    2.0367 H   0  0  0  0  0  0  0  0  0  0  0  0
    2.4527   -8.1221    3.1783 H   0  0  0  0  0  0  0  0  0  0  0  0
  1  2  1  0
  2  3  2  3
  3  4  1  0
  4  5  1  0
  5  6  1  0
  6  7  1  0
  7  8  1  0
  8  9  2  0
  8 10  1  0
 10 11  1  0
 11 12  1  0
 12 13  2  0
 12 14  1  0
 11 15  1  0
 15 16  1  0
 16 17  2  0
 17 18  1  0
 18 19  2  0
 19 20  1  0
 20 21  2  0
 20 22  1  0
 22 23  2  0
 23 24  1  0
 24 25  2  0
  7 26  1  0
 26 27  1  0
 27 28  2  0
 27 29  1  0
 29 30  1  0
 30 31  1  0
 31 32  2  0
 31 33  1  0
 33 34  1  0
 34 35  1  0
 35 36  1  0
 36 37  1  0
 37 38  2  0
 38 39  1  0
 33 40  1  0
 40 41  1  0
 41 42  2  0
 41 43  1  0
 29 44  1  0
 44 45  1  0
 45 46  2  0
 46 47  1  0
 47 48  2  0
 48 49  1  0
 49 50  2  0
  2 51  1  0
 21 16  1  0
 39 35  2  0
 50 45  1  0
 25 19  1  0
  1 52  1  0
  1 53  1  0
  4 54  1  0
  4 55  1  0
  5 56  1  0
  5 57  1  0
  6 58  1  0
  6 59  1  0
  7 60  1  1
 10 61  1  0
 11 62  1  6
 14 63  1  0
 14 64  1  0
 15 65  1  0
 15 66  1  0
 17 67  1  0
 18 68  1  0
 21 69  1  0
 22 70  1  0
 23 71  1  0
 24 72  1  0
 25 73  1  0
 26 74  1  0
 29 75  1  1
 30 76  1  0
 33 77  1  1
 34 78  1  0
 34 79  1  0
 36 80  1  0
 37 81  1  0
 39 82  1  0
 40 83  1  0
 43 84  1  0
 43 85  1  0
 43 86  1  0
 44 87  1  0
 44 88  1  0
 46 89  1  0
 47 90  1  0
 48 91  1  0
 49 92  1  0
 50 93  1  0
 51 94  1  0
 51 95  1  0
M  END
>  <Ligand ID>  (1) 
LIG0001414

>  <Ligand>  (1) 
CHEMBL357558

>  <SMILES>  (1) 
NC(=NCCC[C@@H](C(=O)N[C@@H](C(=O)N)Cc1ccc2c(c1)cccc2)NC(=O)[C@@H](NC(=O)[C@H](Cc1[nH]cnc1)NC(=O)C)Cc1ccccc1)N

>  <CID>  (1) 
44369098.0

>  <ChEMBL ID>  (1) 
nan

>  <InChiKey>  (1) 
GWBNFTMMLYSBAT-JVVMDBNWSA-N

>  <InChi>  (1) 
InChI=1S/C36H44N10O5/c1-22(47)43-31(19-27-20-40-21-42-27)35(51)46-30(17-23-8-3-2-4-9-23)34(50)44-28(12-7-15-41-36(38)39)33(49)45-29(32(37)48)18-24-13-14-25-10-5-6-11-26(25)16-24/h2-6,8-11,13-14,16,20-21,28-31H,7,12,15,17-19H2,1H3,(H2,37,48)(H,40,42)(H,43,47)(H,44,50)(H,45,49)(H,46,51)(H4,38,39,41)/t28-,29+,30-,31-/m0/s1

>  <IUPAC Name>  (1) 
(2S)-2-[[(2S)-2-[[(2S)-2-acetamido-3-(1H-imidazol-5-yl)propanoyl]amino]-3-phenylpropanoyl]amino]-N-[(2R)-1-amino-3-naphthalen-2-yl-1-oxopropan-2-yl]-5-(diaminomethylideneamino)pentanamide

$$$$
