
     RDKit          3D

 36 37  0  0  0  0  0  0  0  0999 V2000
    3.9162    1.2316   -0.4341 O   0  0  0  0  0  0  0  0  0  0  0  0
    2.7082    1.0225   -0.3642 C   0  0  0  0  0  0  0  0  0  0  0  0
    1.8794    1.9716    0.4508 C   0  0  0  0  0  0  0  0  0  0  0  0
    0.4243    1.8384    0.1874 C   0  0  0  0  0  0  0  0  0  0  0  0
   -0.0549    0.5296   -0.3274 C   0  0  1  0  0  0  0  0  0  0  0  0
    0.9214   -0.5855   -0.2816 C   0  0  1  0  0  0  0  0  0  0  0  0
    2.1341   -0.1347   -1.0738 C   0  0  0  0  0  0  0  0  0  0  0  0
    1.3748   -1.0887    1.0235 C   0  0  0  0  0  0  0  0  0  0  0  0
    0.3388   -1.7544   -1.0524 C   0  0  0  0  0  0  0  0  0  0  0  0
   -0.9788   -2.2152   -0.4859 C   0  0  0  0  0  0  0  0  0  0  0  0
   -1.9277   -1.0651   -0.5604 C   0  0  0  0  0  0  0  0  0  0  0  0
   -1.4463    0.1627    0.1632 C   0  0  0  0  0  0  0  0  0  0  0  0
   -1.5568    0.0465    1.6436 C   0  0  0  0  0  0  0  0  0  0  0  0
   -2.3757    1.2960   -0.2767 C   0  0  0  0  0  0  0  0  0  0  0  0
    2.1369    1.9200    1.5377 H   0  0  0  0  0  0  0  0  0  0  0  0
    2.2849    2.9862    0.1634 H   0  0  0  0  0  0  0  0  0  0  0  0
    0.1374    2.7053   -0.4811 H   0  0  0  0  0  0  0  0  0  0  0  0
   -0.1726    2.0524    1.1215 H   0  0  0  0  0  0  0  0  0  0  0  0
   -0.2336    0.6883   -1.4323 H   0  0  0  0  0  0  0  0  0  0  0  0
    1.8515    0.0967   -2.1198 H   0  0  0  0  0  0  0  0  0  0  0  0
    2.8893   -0.9646   -1.0359 H   0  0  0  0  0  0  0  0  0  0  0  0
    1.5070   -0.3801    1.8345 H   0  0  0  0  0  0  0  0  0  0  0  0
    0.7749   -1.9326    1.4442 H   0  0  0  0  0  0  0  0  0  0  0  0
    2.3959   -1.5533    0.8767 H   0  0  0  0  0  0  0  0  0  0  0  0
    1.0727   -2.5919   -1.0707 H   0  0  0  0  0  0  0  0  0  0  0  0
    0.1490   -1.4174   -2.0868 H   0  0  0  0  0  0  0  0  0  0  0  0
   -1.3466   -3.0292   -1.1122 H   0  0  0  0  0  0  0  0  0  0  0  0
   -0.9449   -2.5690    0.5444 H   0  0  0  0  0  0  0  0  0  0  0  0
   -2.0615   -0.7608   -1.6336 H   0  0  0  0  0  0  0  0  0  0  0  0
   -2.9526   -1.3080   -0.1784 H   0  0  0  0  0  0  0  0  0  0  0  0
   -1.7449   -1.0271    1.8854 H   0  0  0  0  0  0  0  0  0  0  0  0
   -2.4625    0.5847    2.0350 H   0  0  0  0  0  0  0  0  0  0  0  0
   -0.7216    0.4256    2.2276 H   0  0  0  0  0  0  0  0  0  0  0  0
   -3.0035    1.0248   -1.1405 H   0  0  0  0  0  0  0  0  0  0  0  0
   -1.8418    2.2057   -0.5457 H   0  0  0  0  0  0  0  0  0  0  0  0
   -3.0704    1.5891    0.5546 H   0  0  0  0  0  0  0  0  0  0  0  0
  1  2  2  0
  2  3  1  0
  3  4  1  0
  4  5  1  0
  5  6  1  0
  6  7  1  0
  6  8  1  1
  6  9  1  0
  9 10  1  0
 10 11  1  0
 11 12  1  0
 12 13  1  0
 12 14  1  0
  7  2  1  0
 12  5  1  0
  3 15  1  0
  3 16  1  0
  4 17  1  0
  4 18  1  0
  5 19  1  6
  7 20  1  0
  7 21  1  0
  8 22  1  0
  8 23  1  0
  8 24  1  0
  9 25  1  0
  9 26  1  0
 10 27  1  0
 10 28  1  0
 11 29  1  0
 11 30  1  0
 13 31  1  0
 13 32  1  0
 13 33  1  0
 14 34  1  0
 14 35  1  0
 14 36  1  0
M  END
>  <Ligand ID>  (1) 
LIG0000338

>  <Ligand>  (1) 
(4aR,8aS)-5,5,8a-trimethyl-3,4,4a,6,7,8-hexahydro-1H-naphthalen-2-one  

>  <SMILES>  (1) 
O=C1CC[C@H]2[C@@](C1)(C)CCCC2(C)C

>  <CID>  (1) 
13966365.0

>  <ChEMBL ID>  (1) 
nan

>  <InChiKey>  (1) 
YZILXDJWJHJLAM-YPMHNXCESA-N

>  <InChi>  (1) 
InChI=1S/C13H22O/c1-12(2)7-4-8-13(3)9-10(14)5-6-11(12)13/h11H,4-9H2,1-3H3/t11-,13+/m1/s1

>  <IUPAC Name>  (1) 
(4aR,8aS)-5,5,8a-trimethyl-3,4,4a,6,7,8-hexahydro-1H-naphthalen-2-one

$$$$
