
     RDKit          3D

 33 35  0  0  0  0  0  0  0  0999 V2000
    5.0623   -0.5534    1.8171 F   0  0  0  0  0  0  0  0  0  0  0  0
    4.0324    0.3530    1.5559 C   0  0  0  0  0  0  0  0  0  0  0  0
    3.1637   -0.1904    0.4643 C   0  0  0  0  0  0  0  0  0  0  0  0
    3.7298   -1.0077   -0.4934 C   0  0  0  0  0  0  0  0  0  0  0  0
    2.9203   -1.5048   -1.4974 C   0  0  0  0  0  0  0  0  0  0  0  0
    1.5608   -1.1849   -1.5381 C   0  0  0  0  0  0  0  0  0  0  0  0
    1.0298   -0.3675   -0.5673 C   0  0  0  0  0  0  0  0  0  0  0  0
    1.8162    0.1361    0.4374 C   0  0  0  0  0  0  0  0  0  0  0  0
   -0.3593   -0.0684   -0.6484 N   0  0  0  0  0  0  0  0  0  0  0  0
   -1.2534   -0.5627   -1.6792 C   0  0  0  0  0  0  0  0  0  0  0  0
   -2.6409   -0.2005   -1.2010 C   0  0  0  0  0  0  0  0  0  0  0  0
   -2.3836    1.1369   -0.5271 C   0  0  2  0  0  0  0  0  0  0  0  0
   -1.1301    0.7779    0.2759 C   0  0  1  0  0  0  0  0  0  0  0  0
   -1.7411   -0.0037    1.4021 C   0  0  0  0  0  0  0  0  0  0  0  0
   -3.1114    0.4332    1.5553 N   0  0  0  0  0  0  0  0  0  0  0  0
   -3.3859    1.4282    0.5556 C   0  0  0  0  0  0  0  0  0  0  0  0
    4.5467    1.5539    1.1222 F   0  0  0  0  0  0  0  0  0  0  0  0
    3.2650    0.5521    2.6859 F   0  0  0  0  0  0  0  0  0  0  0  0
    4.7812   -1.2811   -0.4990 H   0  0  0  0  0  0  0  0  0  0  0  0
    3.3625   -2.1519   -2.2580 H   0  0  0  0  0  0  0  0  0  0  0  0
    0.9672   -1.6024   -2.3498 H   0  0  0  0  0  0  0  0  0  0  0  0
    1.3644    0.7737    1.1810 H   0  0  0  0  0  0  0  0  0  0  0  0
   -1.1295   -1.6512   -1.8501 H   0  0  0  0  0  0  0  0  0  0  0  0
   -1.0336    0.0255   -2.6047 H   0  0  0  0  0  0  0  0  0  0  0  0
   -2.9883   -0.9157   -0.4283 H   0  0  0  0  0  0  0  0  0  0  0  0
   -3.3637   -0.0936   -2.0373 H   0  0  0  0  0  0  0  0  0  0  0  0
   -2.2255    1.9351   -1.2457 H   0  0  0  0  0  0  0  0  0  0  0  0
   -0.5798    1.6549    0.6148 H   0  0  0  0  0  0  0  0  0  0  0  0
   -1.1901    0.1993    2.3203 H   0  0  0  0  0  0  0  0  0  0  0  0
   -1.7019   -1.0914    1.1774 H   0  0  0  0  0  0  0  0  0  0  0  0
   -3.7949   -0.3264    1.4457 H   0  0  0  0  0  0  0  0  0  0  0  0
   -3.1806    2.4577    0.9124 H   0  0  0  0  0  0  0  0  0  0  0  0
   -4.4087    1.3404    0.1032 H   0  0  0  0  0  0  0  0  0  0  0  0
  1  2  1  0
  2  3  1  0
  3  4  2  0
  4  5  1  0
  5  6  2  0
  6  7  1  0
  7  8  2  0
  7  9  1  0
  9 10  1  0
 10 11  1  0
 11 12  1  0
 12 13  1  0
 13 14  1  0
 14 15  1  0
 15 16  1  0
  2 17  1  0
  2 18  1  0
  8  3  1  0
 13  9  1  0
 16 12  1  0
  4 19  1  0
  5 20  1  0
  6 21  1  0
  8 22  1  0
 10 23  1  0
 10 24  1  0
 11 25  1  0
 11 26  1  0
 12 27  1  6
 13 28  1  1
 14 29  1  0
 14 30  1  0
 15 31  1  0
 16 32  1  0
 16 33  1  0
M  END
>  <Ligand ID>  (1) 
LIG0003123

>  <Ligand>  (1) 
CHEMBL209714

>  <SMILES>  (1) 
FC(c1cccc(c1)N1CC[C@@H]2[C@H]1CNC2)(F)F

>  <CID>  (1) 
11983273.0

>  <ChEMBL ID>  (1) 
nan

>  <InChiKey>  (1) 
ZEFKXSVTCBAESN-JOYOIKCWSA-N

>  <InChi>  (1) 
InChI=1S/C13H15F3N2/c14-13(15,16)10-2-1-3-11(6-10)18-5-4-9-7-17-8-12(9)18/h1-3,6,9,12,17H,4-5,7-8H2/t9-,12+/m0/s1

>  <IUPAC Name>  (1) 
(3aS,6aS)-1-[3-(trifluoromethyl)phenyl]-3,3a,4,5,6,6a-hexahydro-2H-pyrrolo[2,3-c]pyrrole

$$$$
