
     RDKit          3D

 58 61  0  0  0  0  0  0  0  0999 V2000
    2.4504    6.2840    0.7478 Cl  0  0  0  0  0  0  0  0  0  0  0  0
    1.3461    4.9301    0.5053 C   0  0  0  0  0  0  0  0  0  0  0  0
    0.9708    4.1065    1.5703 C   0  0  0  0  0  0  0  0  0  0  0  0
    0.0935    3.0565    1.3329 C   0  0  0  0  0  0  0  0  0  0  0  0
   -0.3906    2.8495    0.0369 C   0  0  0  0  0  0  0  0  0  0  0  0
    0.0142    3.6993   -0.9972 C   0  0  0  0  0  0  0  0  0  0  0  0
    0.8849    4.7471   -0.7746 C   0  0  0  0  0  0  0  0  0  0  0  0
   -1.3451    1.7722   -0.2424 C   0  0  0  0  0  0  0  0  0  0  0  0
   -2.5001    2.2158   -0.5938 O   0  0  0  0  0  0  0  0  0  0  0  0
   -1.0568    0.4002   -0.1390 N   0  0  0  0  0  0  0  0  0  0  0  0
   -1.9653   -0.6636   -0.3504 C   0  0  0  0  0  0  0  0  0  0  0  0
   -1.5625   -1.9415   -0.1760 C   0  0  0  0  0  0  0  0  0  0  0  0
   -2.5572   -2.9845    0.2546 C   0  0  0  0  0  0  0  0  0  0  0  0
   -3.5713   -2.1787    0.9532 N   0  0  0  0  0  0  0  0  0  0  0  0
   -4.2812   -1.5950   -0.1338 C   0  0  0  0  0  0  0  0  0  0  0  0
   -3.3776   -0.5222   -0.7685 C   0  0  0  0  0  0  0  0  0  0  0  0
   -4.4767   -2.7343   -1.1088 C   0  0  0  0  0  0  0  0  0  0  0  0
   -3.2321   -3.5724   -0.9498 C   0  0  0  0  0  0  0  0  0  0  0  0
   -4.3327   -2.9453    1.8792 C   0  0  0  0  0  0  0  0  0  0  0  0
    0.3336    0.0396    0.1678 C   0  0  0  0  0  0  0  0  0  0  0  0
    1.1624   -0.1835   -1.0647 C   0  0  0  0  0  0  0  0  0  0  0  0
    2.5239   -0.5539   -0.6348 C   0  0  0  0  0  0  0  0  0  0  0  0
    2.9418   -1.8805   -0.5637 C   0  0  0  0  0  0  0  0  0  0  0  0
    4.2004   -1.9603   -0.1223 N   0  0  0  0  0  0  0  0  0  0  0  0
    4.6053   -0.6820    0.0943 C   0  0  0  0  0  0  0  0  0  0  0  0
    3.5885    0.1985   -0.2149 C   0  0  0  0  0  0  0  0  0  0  0  0
    3.7189    1.5457   -0.0988 C   0  0  0  0  0  0  0  0  0  0  0  0
    4.9216    2.0540    0.3492 C   0  0  0  0  0  0  0  0  0  0  0  0
    5.9883    1.2226    0.6802 C   0  0  0  0  0  0  0  0  0  0  0  0
    5.8052   -0.1443    0.5437 C   0  0  0  0  0  0  0  0  0  0  0  0
    0.6889    0.0000    0.0000 Cl  0  0  0  0  0  0  0  0  0  0  0  0
    1.3777    4.3013    2.5781 H   0  0  0  0  0  0  0  0  0  0  0  0
   -0.2091    2.4213    2.1676 H   0  0  0  0  0  0  0  0  0  0  0  0
   -0.3665    3.5307   -2.0068 H   0  0  0  0  0  0  0  0  0  0  0  0
    1.1523    5.3646   -1.6206 H   0  0  0  0  0  0  0  0  0  0  0  0
   -0.5693   -2.2712   -0.3291 H   0  0  0  0  0  0  0  0  0  0  0  0
   -2.0952   -3.7194    0.9248 H   0  0  0  0  0  0  0  0  0  0  0  0
   -5.2469   -1.1442    0.1772 H   0  0  0  0  0  0  0  0  0  0  0  0
   -3.3792   -0.7248   -1.8865 H   0  0  0  0  0  0  0  0  0  0  0  0
   -3.8299    0.4498   -0.6357 H   0  0  0  0  0  0  0  0  0  0  0  0
   -5.3924   -3.2605   -0.8035 H   0  0  0  0  0  0  0  0  0  0  0  0
   -4.5952   -2.3766   -2.1523 H   0  0  0  0  0  0  0  0  0  0  0  0
   -3.4636   -4.6220   -0.7114 H   0  0  0  0  0  0  0  0  0  0  0  0
   -2.6040   -3.5440   -1.8601 H   0  0  0  0  0  0  0  0  0  0  0  0
   -5.0891   -3.6013    1.4402 H   0  0  0  0  0  0  0  0  0  0  0  0
   -4.7387   -2.2270    2.6411 H   0  0  0  0  0  0  0  0  0  0  0  0
   -3.6040   -3.5819    2.4547 H   0  0  0  0  0  0  0  0  0  0  0  0
    0.8269    0.8244    0.7990 H   0  0  0  0  0  0  0  0  0  0  0  0
    0.3404   -0.8925    0.7707 H   0  0  0  0  0  0  0  0  0  0  0  0
    0.7012   -0.9276   -1.6980 H   0  0  0  0  0  0  0  0  0  0  0  0
    1.2118    0.8031   -1.5843 H   0  0  0  0  0  0  0  0  0  0  0  0
    2.3241   -2.7543   -0.8309 H   0  0  0  0  0  0  0  0  0  0  0  0
    4.7611   -2.8183    0.0325 H   0  0  0  0  0  0  0  0  0  0  0  0
    2.9254    2.2117   -0.3469 H   0  0  0  0  0  0  0  0  0  0  0  0
    5.0804    3.1116    0.4580 H   0  0  0  0  0  0  0  0  0  0  0  0
    6.9288    1.6517    1.0320 H   0  0  0  0  0  0  0  0  0  0  0  0
    6.6524   -0.7843    0.8084 H   0  0  0  0  0  0  0  0  0  0  0  0
   -0.6889    0.0000    0.0000 H   0  0  0  0  0  0  0  0  0  0  0  0
  1  2  1  0
  2  3  2  0
  3  4  1  0
  4  5  2  0
  5  6  1  0
  6  7  2  0
  5  8  1  0
  8  9  2  0
  8 10  1  0
 10 11  1  0
 11 12  2  0
 12 13  1  0
 13 14  1  0
 14 15  1  0
 15 16  1  0
 15 17  1  0
 17 18  1  0
 14 19  1  0
 10 20  1  0
 20 21  1  0
 21 22  1  0
 22 23  2  0
 23 24  1  0
 24 25  1  0
 25 26  2  0
 26 27  1  0
 27 28  2  0
 28 29  1  0
 29 30  2  0
  7  2  1  0
 16 11  1  0
 26 22  1  0
 18 13  1  0
 30 25  1  0
  3 32  1  0
  4 33  1  0
  6 34  1  0
  7 35  1  0
 12 36  1  0
 13 37  1  0
 15 38  1  0
 16 39  1  0
 16 40  1  0
 17 41  1  0
 17 42  1  0
 18 43  1  0
 18 44  1  0
 19 45  1  0
 19 46  1  0
 19 47  1  0
 20 48  1  0
 20 49  1  0
 21 50  1  0
 21 51  1  0
 23 52  1  0
 24 53  1  0
 27 54  1  0
 28 55  1  0
 29 56  1  0
 30 57  1  0
 31 58  1  0
M  END
>  <Ligand ID>  (1) 
LIG0004585

>  <Ligand>  (1) 
SMR000176430

>  <SMILES>  (1) 
Clc1ccc(cc1)C(=O)N(C1=CC2N(C(C1)CC2)C)CCc1c[nH]c2c1cccc2.Cl

>  <CID>  (1) 
2870044.0

>  <ChEMBL ID>  (1) 
nan

>  <InChiKey>  (1) 
CDVUKEJIJJNWBB-UHFFFAOYSA-N

>  <InChi>  (1) 
InChI=1S/C25H26ClN3O.ClH/c1-28-20-10-11-21(28)15-22(14-20)29(25(30)17-6-8-19(26)9-7-17)13-12-18-16-27-24-5-3-2-4-23(18)24;/h2-9,14,16,20-21,27H,10-13,15H2,1H3;1H

>  <IUPAC Name>  (1) 
4-chloro-N-[2-(1H-indol-3-yl)ethyl]-N-(8-methyl-8-azabicyclo[3.2.1]oct-2-en-3-yl)benzamide;hydrochloride

$$$$
