
     RDKit          3D

 57 62  0  0  0  0  0  0  0  0999 V2000
   -6.3108    1.0262    1.4057 C   0  0  0  0  0  0  0  0  0  0  0  0
   -5.1669    0.6023    0.7065 O   0  0  0  0  0  0  0  0  0  0  0  0
   -5.1176   -0.4943   -0.1348 C   0  0  0  0  0  0  0  0  0  0  0  0
   -6.2499   -1.2800   -0.3494 C   0  0  0  0  0  0  0  0  0  0  0  0
   -6.1816   -2.3813   -1.2005 C   0  0  0  0  0  0  0  0  0  0  0  0
   -5.0207   -2.7103   -1.8338 C   0  0  0  0  0  0  0  0  0  0  0  0
   -3.9102   -1.9249   -1.6122 C   0  0  0  0  0  0  0  0  0  0  0  0
   -3.9421   -0.8277   -0.7762 C   0  0  0  0  0  0  0  0  0  0  0  0
   -2.7350   -0.0693   -0.6074 N   0  0  0  0  0  0  0  0  0  0  0  0
   -2.2124    0.0263    0.7385 C   0  0  0  0  0  0  0  0  0  0  0  0
   -1.0153    0.9859    0.6515 C   0  0  0  0  0  0  0  0  0  0  0  0
   -0.0877    0.5275   -0.3719 N   0  0  0  0  0  0  0  0  0  0  0  0
   -0.6186    0.3761   -1.7145 C   0  0  0  0  0  0  0  0  0  0  0  0
   -2.1004    0.5556   -1.7557 C   0  0  0  0  0  0  0  0  0  0  0  0
    1.2762    0.2317   -0.1084 C   0  0  0  0  0  0  0  0  0  0  0  0
    1.7503   -1.0228   -0.3233 N   0  0  0  0  0  0  0  0  0  0  0  0
    3.0399   -1.3486   -0.0846 C   0  0  0  0  0  0  0  0  0  0  0  0
    3.9317   -0.4381    0.3834 N   0  0  0  0  0  0  0  0  0  0  0  0
    3.5148    0.8246    0.6150 C   0  0  0  0  0  0  0  0  0  0  0  0
    2.1811    1.1556    0.3665 C   0  0  0  0  0  0  0  0  0  0  0  0
    1.7715    2.4501    0.6073 C   0  0  0  0  0  0  0  0  0  0  0  0
    2.6571    3.3982    1.0828 C   0  0  0  0  0  0  0  0  0  0  0  0
    2.4598    4.7363    1.3887 O   0  0  0  0  0  0  0  0  0  0  0  0
    3.5845    5.1997    2.1107 C   0  0  0  0  0  0  0  0  0  0  0  0
    4.5654    4.2327    1.7861 O   0  0  0  0  0  0  0  0  0  0  0  0
    3.9726    3.0590    1.3245 C   0  0  0  0  0  0  0  0  0  0  0  0
    4.4082    1.7694    1.0916 C   0  0  0  0  0  0  0  0  0  0  0  0
    3.5751   -2.7211   -0.3154 C   0  0  0  0  0  0  0  0  0  0  0  0
    4.3626   -3.2403    0.8712 C   0  0  0  0  0  0  0  0  0  0  0  0
    5.6234   -2.9605    0.0969 C   0  0  0  0  0  0  0  0  0  0  0  0
    4.8269   -2.6479   -1.1612 C   0  0  0  0  0  0  0  0  0  0  0  0
   -6.0188    1.6110    2.3105 H   0  0  0  0  0  0  0  0  0  0  0  0
   -7.0101    0.2257    1.6779 H   0  0  0  0  0  0  0  0  0  0  0  0
   -6.8767    1.7429    0.7516 H   0  0  0  0  0  0  0  0  0  0  0  0
   -7.1858   -1.0735    0.1169 H   0  0  0  0  0  0  0  0  0  0  0  0
   -7.0765   -2.9768   -1.3510 H   0  0  0  0  0  0  0  0  0  0  0  0
   -4.9594   -3.5612   -2.4941 H   0  0  0  0  0  0  0  0  0  0  0  0
   -2.9831   -2.1801   -2.1122 H   0  0  0  0  0  0  0  0  0  0  0  0
   -1.7995   -0.9264    1.1154 H   0  0  0  0  0  0  0  0  0  0  0  0
   -2.9061    0.4784    1.4438 H   0  0  0  0  0  0  0  0  0  0  0  0
   -0.5321    1.1145    1.6358 H   0  0  0  0  0  0  0  0  0  0  0  0
   -1.4968    1.9685    0.3699 H   0  0  0  0  0  0  0  0  0  0  0  0
   -0.1479    1.1301   -2.3720 H   0  0  0  0  0  0  0  0  0  0  0  0
   -0.3311   -0.6367   -2.0823 H   0  0  0  0  0  0  0  0  0  0  0  0
   -2.3109    1.6448   -1.7302 H   0  0  0  0  0  0  0  0  0  0  0  0
   -2.4892    0.0613   -2.6582 H   0  0  0  0  0  0  0  0  0  0  0  0
    0.7664    2.7340    0.4289 H   0  0  0  0  0  0  0  0  0  0  0  0
    3.3998    5.1435    3.2070 H   0  0  0  0  0  0  0  0  0  0  0  0
    3.8931    6.2160    1.7927 H   0  0  0  0  0  0  0  0  0  0  0  0
    5.4467    1.5408    1.2930 H   0  0  0  0  0  0  0  0  0  0  0  0
    2.8208   -3.4368   -0.6953 H   0  0  0  0  0  0  0  0  0  0  0  0
    4.2839   -4.3330    1.0515 H   0  0  0  0  0  0  0  0  0  0  0  0
    4.2476   -2.6486    1.7957 H   0  0  0  0  0  0  0  0  0  0  0  0
    6.1329   -2.0600    0.5193 H   0  0  0  0  0  0  0  0  0  0  0  0
    6.3099   -3.8096   -0.0489 H   0  0  0  0  0  0  0  0  0  0  0  0
    4.9300   -3.4033   -1.9554 H   0  0  0  0  0  0  0  0  0  0  0  0
    5.0611   -1.6559   -1.5853 H   0  0  0  0  0  0  0  0  0  0  0  0
  1  2  1  0
  2  3  1  0
  3  4  2  0
  4  5  1  0
  5  6  2  0
  6  7  1  0
  7  8  2  0
  8  9  1  0
  9 10  1  0
 10 11  1  0
 11 12  1  0
 12 13  1  0
 13 14  1  0
 12 15  1  0
 15 16  2  0
 16 17  1  0
 17 18  2  0
 18 19  1  0
 19 20  2  0
 20 21  1  0
 21 22  2  0
 22 23  1  0
 23 24  1  0
 24 25  1  0
 25 26  1  0
 26 27  2  0
 17 28  1  0
 28 29  1  0
 29 30  1  0
 30 31  1  0
  8  3  1  0
 14  9  1  0
 20 15  1  0
 26 22  1  0
 31 28  1  0
 27 19  1  0
  1 32  1  0
  1 33  1  0
  1 34  1  0
  4 35  1  0
  5 36  1  0
  6 37  1  0
  7 38  1  0
 10 39  1  0
 10 40  1  0
 11 41  1  0
 11 42  1  0
 13 43  1  0
 13 44  1  0
 14 45  1  0
 14 46  1  0
 21 47  1  0
 24 48  1  0
 24 49  1  0
 27 50  1  0
 28 51  1  0
 29 52  1  0
 29 53  1  0
 30 54  1  0
 30 55  1  0
 31 56  1  0
 31 57  1  0
M  END
>  <Ligand ID>  (1) 
LIG0004870

>  <Ligand>  (1) 
CHEMBL2431128

>  <SMILES>  (1) 
COc1ccccc1N1CCN(CC1)c1nc(nc2c1cc1OCOc1c2)C1CCC1

>  <CID>  (1) 
53245574.0

>  <ChEMBL ID>  (1) 
nan

>  <InChiKey>  (1) 
PWJIZHGNECXEFM-UHFFFAOYSA-N

>  <InChi>  (1) 
InChI=1S/C24H26N4O3/c1-29-20-8-3-2-7-19(20)27-9-11-28(12-10-27)24-17-13-21-22(31-15-30-21)14-18(17)25-23(26-24)16-5-4-6-16/h2-3,7-8,13-14,16H,4-6,9-12,15H2,1H3

>  <IUPAC Name>  (1) 
6-cyclobutyl-8-[4-(2-methoxyphenyl)piperazin-1-yl]-[1,3]dioxolo[4,5-g]quinazoline

$$$$
