
     RDKit          3D

 32 35  0  0  0  0  0  0  0  0999 V2000
    4.7617   -1.4458    0.2888 C   0  0  0  0  0  0  0  0  0  0  0  0
    5.2167   -0.3997   -0.5026 C   0  0  0  0  0  0  0  0  0  0  0  0
    4.1978    0.3885   -0.7401 O   0  0  0  0  0  0  0  0  0  0  0  0
    3.1053   -0.0763   -0.1539 C   0  0  0  0  0  0  0  0  0  0  0  0
    3.4449   -1.2078    0.4830 N   0  0  0  0  0  0  0  0  0  0  0  0
    1.8023    0.5756   -0.2290 C   0  0  0  0  0  0  0  0  0  0  0  0
    1.7087    1.7479   -0.9568 C   0  0  0  0  0  0  0  0  0  0  0  0
    0.4814    2.4037   -1.0543 C   0  0  0  0  0  0  0  0  0  0  0  0
   -0.6340    1.8704   -0.4181 C   0  0  0  0  0  0  0  0  0  0  0  0
   -0.4848    0.6983    0.2949 C   0  0  0  0  0  0  0  0  0  0  0  0
    0.7119    0.0263    0.4110 C   0  0  0  0  0  0  0  0  0  0  0  0
    0.5045   -1.1850    1.2431 C   0  0  0  0  0  0  0  0  0  0  0  0
   -0.9842   -1.4438    1.0234 C   0  0  0  0  0  0  0  0  0  0  0  0
   -1.5454   -0.0463    1.0524 C   0  0  0  0  0  0  0  0  0  0  0  0
   -2.8489    0.0301    0.3264 C   0  0  0  0  0  0  0  0  0  0  0  0
   -3.3142   -0.8347   -0.6137 N   0  0  0  0  0  0  0  0  0  0  0  0
   -4.5270   -0.4034   -1.0143 C   0  0  0  0  0  0  0  0  0  0  0  0
   -4.7977    0.7591   -0.2898 C   0  0  0  0  0  0  0  0  0  0  0  0
   -3.7610    1.0076    0.5238 N   0  0  0  0  0  0  0  0  0  0  0  0
    5.3637   -2.2762    0.6632 H   0  0  0  0  0  0  0  0  0  0  0  0
    6.2381   -0.2837   -0.8462 H   0  0  0  0  0  0  0  0  0  0  0  0
    2.5392    2.1920   -1.4608 H   0  0  0  0  0  0  0  0  0  0  0  0
    0.3711    3.3258   -1.6172 H   0  0  0  0  0  0  0  0  0  0  0  0
   -1.5814    2.3731   -0.4912 H   0  0  0  0  0  0  0  0  0  0  0  0
    1.1195   -2.0394    0.9004 H   0  0  0  0  0  0  0  0  0  0  0  0
    0.7372   -0.8985    2.2765 H   0  0  0  0  0  0  0  0  0  0  0  0
   -1.4099   -2.1101    1.8061 H   0  0  0  0  0  0  0  0  0  0  0  0
   -1.0603   -1.8781    0.0012 H   0  0  0  0  0  0  0  0  0  0  0  0
   -1.6360    0.3108    2.0828 H   0  0  0  0  0  0  0  0  0  0  0  0
   -2.8391   -1.6876   -0.9790 H   0  0  0  0  0  0  0  0  0  0  0  0
   -5.1778   -0.8748   -1.7658 H   0  0  0  0  0  0  0  0  0  0  0  0
   -5.7024    1.3818   -0.3588 H   0  0  0  0  0  0  0  0  0  0  0  0
  1  2  2  0
  2  3  1  0
  3  4  1  0
  4  5  2  0
  4  6  1  0
  6  7  2  0
  7  8  1  0
  8  9  2  0
  9 10  1  0
 10 11  2  0
 11 12  1  0
 12 13  1  0
 13 14  1  0
 14 15  1  0
 15 16  1  0
 16 17  1  0
 17 18  2  0
 18 19  1  0
  5  1  1  0
 11  6  1  0
 19 15  2  0
 14 10  1  0
  1 20  1  0
  2 21  1  0
  7 22  1  0
  8 23  1  0
  9 24  1  0
 12 25  1  0
 12 26  1  0
 13 27  1  0
 13 28  1  0
 14 29  1  0
 16 30  1  0
 17 31  1  0
 18 32  1  0
M  END
>  <Ligand ID>  (1) 
LIG0001342

>  <Ligand>  (1) 
CHEMBL407308

>  <SMILES>  (1) 
c1coc(n1)c1cccc2c1CCC2c1[nH]ccn1

>  <CID>  (1) 
44449692.0

>  <ChEMBL ID>  (1) 
nan

>  <InChiKey>  (1) 
MWTDIAXAEKTMKO-UHFFFAOYSA-N

>  <InChi>  (1) 
InChI=1S/C15H13N3O/c1-2-10-11(13(3-1)15-18-8-9-19-15)4-5-12(10)14-16-6-7-17-14/h1-3,6-9,12H,4-5H2,(H,16,17)

>  <IUPAC Name>  (1) 
2-[1-(1H-imidazol-2-yl)-2,3-dihydro-1H-inden-4-yl]-1,3-oxazole

$$$$
