
     RDKit          3D

 60 61  0  0  0  0  0  0  0  0999 V2000
   -7.9422    3.0203   -0.8185 O   0  0  0  0  0  0  0  0  0  0  0  0
   -7.3674    2.0580    0.0132 C   0  0  0  0  0  0  0  0  0  0  0  0
   -7.4724    2.2387    1.2411 O   0  0  0  0  0  0  0  0  0  0  0  0
   -6.6923    0.9216   -0.6419 C   0  0  0  0  0  0  0  0  0  0  0  0
   -6.0695   -0.0417    0.3082 C   0  0  0  0  0  0  0  0  0  0  0  0
   -5.0026    0.5816    1.1688 C   0  0  0  0  0  0  0  0  0  0  0  0
   -3.9259    1.1221    0.3203 C   0  0  0  0  0  0  0  0  0  0  0  0
   -2.6580    0.7673    0.3376 C   0  0  0  0  0  0  0  0  0  0  0  0
   -2.0254   -0.2358    1.1928 C   0  0  0  0  0  0  0  0  0  0  0  0
   -1.3796   -1.3626    0.4212 C   0  0  1  0  0  0  0  0  0  0  0  0
   -2.3675   -2.1216   -0.4386 C   0  0  1  0  0  0  0  0  0  0  0  0
   -3.0035   -1.2918   -1.3437 O   0  0  0  0  0  0  0  0  0  0  0  0
   -1.4249   -3.0196   -1.2293 C   0  0  0  0  0  0  0  0  0  0  0  0
   -0.3152   -2.0738   -1.5867 C   0  0  2  0  0  0  0  0  0  0  0  0
   -0.3499   -0.9336   -0.5637 C   0  0  2  0  0  0  0  0  0  0  0  0
    1.0295   -0.8843    0.0478 C   0  0  0  0  0  0  0  0  0  0  0  0
    1.7390    0.2344    0.0927 C   0  0  0  0  0  0  0  0  0  0  0  0
    3.0923    0.1429    0.7271 C   0  0  2  0  0  0  0  0  0  0  0  0
    3.9710   -0.7591   -0.0859 C   0  0  0  0  0  0  0  0  0  0  0  0
    5.3579   -0.9311    0.4504 C   0  0  0  0  0  0  0  0  0  0  0  0
    6.1446    0.2976    0.5609 C   0  0  0  0  0  0  0  0  0  0  0  0
    6.1094    1.0437    1.7248 C   0  0  0  0  0  0  0  0  0  0  0  0
    6.8342    2.2148    1.8834 C   0  0  0  0  0  0  0  0  0  0  0  0
    7.6085    2.6258    0.8267 C   0  0  0  0  0  0  0  0  0  0  0  0
    7.6875    1.9375   -0.3467 C   0  0  0  0  0  0  0  0  0  0  0  0
    6.9475    0.7710   -0.4659 C   0  0  0  0  0  0  0  0  0  0  0  0
    3.0043   -0.2522    2.0572 O   0  0  0  0  0  0  0  0  0  0  0  0
   -0.5099   -1.5489   -2.8688 O   0  0  0  0  0  0  0  0  0  0  0  0
   -8.6945    3.6021   -0.4611 H   0  0  0  0  0  0  0  0  0  0  0  0
   -5.9286    1.3260   -1.3412 H   0  0  0  0  0  0  0  0  0  0  0  0
   -7.4060    0.3695   -1.3235 H   0  0  0  0  0  0  0  0  0  0  0  0
   -5.6553   -0.8960   -0.2626 H   0  0  0  0  0  0  0  0  0  0  0  0
   -6.8606   -0.4863    0.9638 H   0  0  0  0  0  0  0  0  0  0  0  0
   -4.6230   -0.1426    1.9282 H   0  0  0  0  0  0  0  0  0  0  0  0
   -5.3954    1.4390    1.7792 H   0  0  0  0  0  0  0  0  0  0  0  0
   -4.2328    1.9082   -0.3982 H   0  0  0  0  0  0  0  0  0  0  0  0
   -2.0034    1.2918   -0.3781 H   0  0  0  0  0  0  0  0  0  0  0  0
   -1.2071    0.2467    1.7710 H   0  0  0  0  0  0  0  0  0  0  0  0
   -2.7197   -0.7012    1.8973 H   0  0  0  0  0  0  0  0  0  0  0  0
   -0.9583   -2.0684    1.1680 H   0  0  0  0  0  0  0  0  0  0  0  0
   -3.0836   -2.7089    0.1613 H   0  0  0  0  0  0  0  0  0  0  0  0
   -2.3560   -0.6586   -1.7317 H   0  0  0  0  0  0  0  0  0  0  0  0
   -1.0811   -3.8777   -0.5999 H   0  0  0  0  0  0  0  0  0  0  0  0
   -1.9152   -3.4240   -2.1376 H   0  0  0  0  0  0  0  0  0  0  0  0
    0.6400   -2.6240   -1.5728 H   0  0  0  0  0  0  0  0  0  0  0  0
   -0.5599    0.0229   -1.0471 H   0  0  0  0  0  0  0  0  0  0  0  0
    1.4157   -1.7971    0.4476 H   0  0  0  0  0  0  0  0  0  0  0  0
    1.3392    1.1567   -0.3156 H   0  0  0  0  0  0  0  0  0  0  0  0
    3.5241    1.1620    0.7173 H   0  0  0  0  0  0  0  0  0  0  0  0
    3.4978   -1.7730   -0.0391 H   0  0  0  0  0  0  0  0  0  0  0  0
    3.9392   -0.4661   -1.1330 H   0  0  0  0  0  0  0  0  0  0  0  0
    5.8868   -1.6052   -0.2552 H   0  0  0  0  0  0  0  0  0  0  0  0
    5.2909   -1.5069    1.4001 H   0  0  0  0  0  0  0  0  0  0  0  0
    5.5070    0.7541    2.5910 H   0  0  0  0  0  0  0  0  0  0  0  0
    6.7850    2.7799    2.8135 H   0  0  0  0  0  0  0  0  0  0  0  0
    8.1776    3.5573    0.9684 H   0  0  0  0  0  0  0  0  0  0  0  0
    8.3149    2.2915   -1.1721 H   0  0  0  0  0  0  0  0  0  0  0  0
    6.9949    0.2049   -1.3934 H   0  0  0  0  0  0  0  0  0  0  0  0
    2.0888   -0.1657    2.4194 H   0  0  0  0  0  0  0  0  0  0  0  0
    0.2588   -1.7320   -3.4407 H   0  0  0  0  0  0  0  0  0  0  0  0
  1  2  1  0
  2  3  2  0
  2  4  1  0
  4  5  1  0
  5  6  1  0
  6  7  1  0
  7  8  2  0
  8  9  1  0
  9 10  1  0
 10 11  1  0
 11 12  1  0
 11 13  1  0
 13 14  1  0
 14 15  1  0
 15 16  1  0
 16 17  2  0
 17 18  1  0
 18 19  1  0
 19 20  1  0
 20 21  1  0
 21 22  2  0
 22 23  1  0
 23 24  2  0
 24 25  1  0
 25 26  2  0
 18 27  1  0
 14 28  1  0
 15 10  1  0
 26 21  1  0
  1 29  1  0
  4 30  1  0
  4 31  1  0
  5 32  1  0
  5 33  1  0
  6 34  1  0
  6 35  1  0
  7 36  1  0
  8 37  1  0
  9 38  1  0
  9 39  1  0
 10 40  1  1
 11 41  1  1
 12 42  1  0
 13 43  1  0
 13 44  1  0
 14 45  1  6
 15 46  1  6
 16 47  1  0
 17 48  1  0
 18 49  1  1
 19 50  1  0
 19 51  1  0
 20 52  1  0
 20 53  1  0
 22 54  1  0
 23 55  1  0
 24 56  1  0
 25 57  1  0
 26 58  1  0
 27 59  1  0
 28 60  1  0
M  END
>  <Ligand ID>  (1) 
LIG0002343

>  <Ligand>  (1) 
bimatoprost (free acid form)

>  <SMILES>  (1) 
OC(=O)CCC/C=C\C[C@H]1[C@@H](O)C[C@H]([C@@H]1/C=C/[C@H](CCc1ccccc1)O)O

>  <CID>  (1) 
5283081.0

>  <ChEMBL ID>  (1) 
nan

>  <InChiKey>  (1) 
YFHHIZGZVLHBQZ-KDACTHKWSA-N

>  <InChi>  (1) 
InChI=1S/C23H32O5/c24-18(13-12-17-8-4-3-5-9-17)14-15-20-19(21(25)16-22(20)26)10-6-1-2-7-11-23(27)28/h1,3-6,8-9,14-15,18-22,24-26H,2,7,10-13,16H2,(H,27,28)/b6-1-,15-14+/t18-,19+,20+,21-,22+/m0/s1

>  <IUPAC Name>  (1) 
(Z)-7-[(1R,2R,3R,5S)-3,5-dihydroxy-2-[(E,3S)-3-hydroxy-5-phenylpent-1-enyl]cyclopentyl]hept-5-enoic acid

$$$$
