
     RDKit          3D

 51 53  0  0  0  0  0  0  0  0999 V2000
   -1.3521   -1.5914   -1.5718 C   0  0  0  0  0  0  0  0  0  0  0  0
   -0.8370   -0.2088   -1.4241 C   0  0  2  0  0  0  0  0  0  0  0  0
    0.5375   -0.2404   -0.6966 C   0  0  0  0  0  0  0  0  0  0  0  0
    0.4363   -0.8255    0.6034 N   0  0  0  0  0  0  0  0  0  0  0  0
    1.6282   -0.9382    1.4016 C   0  0  0  0  0  0  0  0  0  0  0  0
    1.6070   -1.4927    2.6648 C   0  0  0  0  0  0  0  0  0  0  0  0
    2.7416   -1.6104    3.4377 C   0  0  0  0  0  0  0  0  0  0  0  0
    3.9465   -1.1440    2.9026 C   0  0  0  0  0  0  0  0  0  0  0  0
    4.0185   -0.5822    1.6466 C   0  0  0  0  0  0  0  0  0  0  0  0
    2.8462   -0.4983    0.9327 C   0  0  0  0  0  0  0  0  0  0  0  0
    5.3123   -0.1021    1.1153 C   0  0  0  0  0  0  0  0  0  0  0  0
    6.4775   -0.1932    1.8290 C   0  0  0  0  0  0  0  0  0  0  0  0
    7.7328    0.5245    0.7315 S   0  0  0  0  0  0  0  0  0  0  0  0
    6.4031    0.8502   -0.5892 C   0  0  0  0  0  0  0  0  0  0  0  0
    5.4547    0.4462   -0.0766 N   0  0  0  0  0  0  0  0  0  0  0  0
    6.8709    1.5001   -1.8683 C   0  0  0  0  0  0  0  0  0  0  0  0
    5.9584    1.7028   -2.7257 O   0  0  0  0  0  0  0  0  0  0  0  0
    8.1832    1.8333   -2.0624 O   0  0  0  0  0  0  0  0  0  0  0  0
   -1.6429    0.8253   -0.9782 N   0  0  0  0  0  0  0  0  0  0  0  0
   -2.2265    0.9388    0.2683 C   0  0  0  0  0  0  0  0  0  0  0  0
   -3.3704    0.0637    0.6622 C   0  0  1  0  0  0  0  0  0  0  0  0
   -4.6567    0.4043    0.0190 C   0  0  0  0  0  0  0  0  0  0  0  0
   -5.1362   -0.1548   -1.1359 C   0  0  0  0  0  0  0  0  0  0  0  0
   -6.3553    0.2014   -1.7058 C   0  0  0  0  0  0  0  0  0  0  0  0
   -7.1506    1.1645   -1.1053 C   0  0  0  0  0  0  0  0  0  0  0  0
   -6.6820    1.7467    0.0707 C   0  0  0  0  0  0  0  0  0  0  0  0
   -5.4786    1.3761    0.6085 C   0  0  0  0  0  0  0  0  0  0  0  0
   -7.6289    2.9808    0.8963 Cl  0  0  0  0  0  0  0  0  0  0  0  0
   -3.1731   -1.2827    0.6414 O   0  0  0  0  0  0  0  0  0  0  0  0
   -0.7536   -2.0763   -2.4212 H   0  0  0  0  0  0  0  0  0  0  0  0
   -2.3703   -1.6091   -1.9299 H   0  0  0  0  0  0  0  0  0  0  0  0
   -1.1112   -2.2690   -0.7195 H   0  0  0  0  0  0  0  0  0  0  0  0
   -0.4982    0.0859   -2.4847 H   0  0  0  0  0  0  0  0  0  0  0  0
    0.9005    0.7955   -0.7188 H   0  0  0  0  0  0  0  0  0  0  0  0
    1.2337   -0.8580   -1.3051 H   0  0  0  0  0  0  0  0  0  0  0  0
   -0.4465   -1.1873    1.0321 H   0  0  0  0  0  0  0  0  0  0  0  0
    0.6537   -1.8478    3.0535 H   0  0  0  0  0  0  0  0  0  0  0  0
    2.7339   -2.0435    4.4289 H   0  0  0  0  0  0  0  0  0  0  0  0
    4.8581   -1.2218    3.4887 H   0  0  0  0  0  0  0  0  0  0  0  0
    2.8721   -0.0636   -0.0589 H   0  0  0  0  0  0  0  0  0  0  0  0
    6.6995   -0.5903    2.8295 H   0  0  0  0  0  0  0  0  0  0  0  0
    8.4845    1.8886   -3.0470 H   0  0  0  0  0  0  0  0  0  0  0  0
   -1.6188    1.6569   -1.5752 H   0  0  0  0  0  0  0  0  0  0  0  0
   -2.6495    2.0073    0.3428 H   0  0  0  0  0  0  0  0  0  0  0  0
   -1.4947    0.9552    1.1310 H   0  0  0  0  0  0  0  0  0  0  0  0
   -3.5325    0.2989    1.7876 H   0  0  0  0  0  0  0  0  0  0  0  0
   -4.5768   -0.9102   -1.6539 H   0  0  0  0  0  0  0  0  0  0  0  0
   -6.6979   -0.2700   -2.6262 H   0  0  0  0  0  0  0  0  0  0  0  0
   -8.0946    1.4633   -1.5191 H   0  0  0  0  0  0  0  0  0  0  0  0
   -5.1178    1.8371    1.5263 H   0  0  0  0  0  0  0  0  0  0  0  0
   -3.9383   -1.7360    0.2081 H   0  0  0  0  0  0  0  0  0  0  0  0
  1  2  1  0
  2  3  1  0
  3  4  1  0
  4  5  1  0
  5  6  2  0
  6  7  1  0
  7  8  2  0
  8  9  1  0
  9 10  2  0
  9 11  1  0
 11 12  2  0
 12 13  1  0
 13 14  1  0
 14 15  2  0
 14 16  1  0
 16 17  2  0
 16 18  1  0
  2 19  1  0
 19 20  1  0
 20 21  1  0
 21 22  1  0
 22 23  2  0
 23 24  1  0
 24 25  2  0
 25 26  1  0
 26 27  2  0
 26 28  1  0
 21 29  1  0
 10  5  1  0
 15 11  1  0
 27 22  1  0
  1 30  1  0
  1 31  1  0
  1 32  1  0
  2 33  1  6
  3 34  1  0
  3 35  1  0
  4 36  1  0
  6 37  1  0
  7 38  1  0
  8 39  1  0
 10 40  1  0
 12 41  1  0
 18 42  1  0
 19 43  1  0
 20 44  1  0
 20 45  1  0
 21 46  1  1
 23 47  1  0
 24 48  1  0
 25 49  1  0
 27 50  1  0
 29 51  1  0
M  END
>  <Ligand ID>  (1) 
LIG0002258

>  <Ligand>  (1) 
CHEMBL393470

>  <SMILES>  (1) 
C[C@H](CNc1cccc(c1)c1csc(n1)C(=O)O)NC[C@@H](c1cccc(c1)Cl)O

>  <CID>  (1) 
44441231.0

>  <ChEMBL ID>  (1) 
nan

>  <InChiKey>  (1) 
DQMWSMOQNQEGLL-YJYMSZOUSA-N

>  <InChi>  (1) 
InChI=1S/C21H22ClN3O3S/c1-13(23-11-19(26)15-5-2-6-16(22)8-15)10-24-17-7-3-4-14(9-17)18-12-29-20(25-18)21(27)28/h2-9,12-13,19,23-24,26H,10-11H2,1H3,(H,27,28)/t13-,19+/m1/s1

>  <IUPAC Name>  (1) 
4-[3-[[(2R)-2-[[(2R)-2-(3-chlorophenyl)-2-hydroxyethyl]amino]propyl]amino]phenyl]-1,3-thiazole-2-carboxylic acid

$$$$
