
     RDKit          3D

 93 96  0  0  0  0  0  0  0  0999 V2000
    2.1234    6.8968   -2.4153 N   0  0  0  0  0  0  0  0  0  0  0  0
    2.2919    5.8352   -1.4571 C   0  0  0  0  0  0  0  0  0  0  0  0
    3.1333    4.8987   -1.6494 N   0  0  0  0  0  0  0  0  0  0  0  0
    3.4094    3.7863   -0.7960 C   0  0  0  0  0  0  0  0  0  0  0  0
    2.1978    2.8424   -0.7172 C   0  0  0  0  0  0  0  0  0  0  0  0
    2.5561    1.7063    0.1736 C   0  0  0  0  0  0  0  0  0  0  0  0
    1.5240    0.6468    0.3574 C   0  0  1  0  0  0  0  0  0  0  0  0
    2.1819   -0.3577    1.3096 C   0  0  0  0  0  0  0  0  0  0  0  0
    1.5645   -0.5330    2.3913 O   0  0  0  0  0  0  0  0  0  0  0  0
    3.3897   -1.0161    0.9662 N   0  0  0  0  0  0  0  0  0  0  0  0
    3.9377   -1.9433    1.9142 C   0  0  2  0  0  0  0  0  0  0  0  0
    5.2167   -1.3636    2.4692 C   0  0  0  0  0  0  0  0  0  0  0  0
    5.8754   -2.0678    3.3019 O   0  0  0  0  0  0  0  0  0  0  0  0
    5.6854   -0.0799    2.0885 N   0  0  0  0  0  0  0  0  0  0  0  0
    4.1742   -3.3330    1.4604 C   0  0  0  0  0  0  0  0  0  0  0  0
    5.1192   -3.4665    0.3392 C   0  0  0  0  0  0  0  0  0  0  0  0
    6.4538   -3.8290    0.4940 C   0  0  0  0  0  0  0  0  0  0  0  0
    7.0783   -3.8626   -0.6919 N   0  0  0  0  0  0  0  0  0  0  0  0
    6.1865   -3.5302   -1.6321 C   0  0  0  0  0  0  0  0  0  0  0  0
    4.9631   -3.2798   -1.0137 C   0  0  0  0  0  0  0  0  0  0  0  0
    3.9007   -2.9285   -1.7897 C   0  0  0  0  0  0  0  0  0  0  0  0
    4.0125   -2.8175   -3.1585 C   0  0  0  0  0  0  0  0  0  0  0  0
    5.2485   -3.0753   -3.7360 C   0  0  0  0  0  0  0  0  0  0  0  0
    6.3565   -3.4345   -2.9955 C   0  0  0  0  0  0  0  0  0  0  0  0
    0.3650    1.2037    1.0538 N   0  0  0  0  0  0  0  0  0  0  0  0
   -0.9427    0.7180    0.7644 C   0  0  0  0  0  0  0  0  0  0  0  0
   -1.0137   -0.1814   -0.1182 O   0  0  0  0  0  0  0  0  0  0  0  0
   -2.1582    1.2118    1.4509 C   0  0  2  0  0  0  0  0  0  0  0  0
   -3.3138    0.3634    1.0959 N   0  0  0  0  0  0  0  0  0  0  0  0
   -3.8689   -0.5350    2.0637 C   0  0  0  0  0  0  0  0  0  0  0  0
   -3.3527   -0.5917    3.1969 O   0  0  0  0  0  0  0  0  0  0  0  0
   -5.0331   -1.4060    1.7875 C   0  0  2  0  0  0  0  0  0  0  0  0
   -4.6859   -2.8677    2.0217 C   0  0  0  0  0  0  0  0  0  0  0  0
   -5.8337   -3.7497    1.8014 C   0  0  0  0  0  0  0  0  0  0  0  0
   -6.3068   -4.4131    0.7499 N   0  0  0  0  0  0  0  0  0  0  0  0
   -7.4415   -5.0983    1.0645 C   0  0  0  0  0  0  0  0  0  0  0  0
   -7.6883   -4.8570    2.3568 N   0  0  0  0  0  0  0  0  0  0  0  0
   -6.7409   -4.0480    2.8357 C   0  0  0  0  0  0  0  0  0  0  0  0
   -5.5417   -1.1640    0.4388 N   0  0  0  0  0  0  0  0  0  0  0  0
   -5.0269   -1.7757   -0.7249 C   0  0  0  0  0  0  0  0  0  0  0  0
   -4.0898   -2.5798   -0.7772 O   0  0  0  0  0  0  0  0  0  0  0  0
   -5.6956   -1.4025   -2.0231 C   0  0  0  0  0  0  0  0  0  0  0  0
   -2.5000    2.6470    1.2631 C   0  0  0  0  0  0  0  0  0  0  0  0
   -2.7864    3.1056   -0.0809 C   0  0  0  0  0  0  0  0  0  0  0  0
   -4.1159    2.9703   -0.5325 C   0  0  0  0  0  0  0  0  0  0  0  0
   -4.4963    3.3786   -1.7795 C   0  0  0  0  0  0  0  0  0  0  0  0
   -3.6034    3.9467   -2.6692 C   0  0  0  0  0  0  0  0  0  0  0  0
   -2.2973    4.0878   -2.2460 C   0  0  0  0  0  0  0  0  0  0  0  0
   -1.9245    3.6712   -0.9826 C   0  0  0  0  0  0  0  0  0  0  0  0
    1.4826    5.8918   -0.3073 N   0  0  0  0  0  0  0  0  0  0  0  0
    2.9255    7.2087   -2.9868 H   0  0  0  0  0  0  0  0  0  0  0  0
    1.2102    7.3760   -2.5652 H   0  0  0  0  0  0  0  0  0  0  0  0
    4.2772    3.2193   -1.1820 H   0  0  0  0  0  0  0  0  0  0  0  0
    3.5977    4.1600    0.2292 H   0  0  0  0  0  0  0  0  0  0  0  0
    1.9596    2.4904   -1.7303 H   0  0  0  0  0  0  0  0  0  0  0  0
    1.3188    3.4153   -0.3537 H   0  0  0  0  0  0  0  0  0  0  0  0
    3.5598    1.2978   -0.0826 H   0  0  0  0  0  0  0  0  0  0  0  0
    2.7056    2.1611    1.2057 H   0  0  0  0  0  0  0  0  0  0  0  0
    1.2306    0.0973   -0.5600 H   0  0  0  0  0  0  0  0  0  0  0  0
    3.8070   -0.7728    0.0434 H   0  0  0  0  0  0  0  0  0  0  0  0
    3.1988   -1.9497    2.7780 H   0  0  0  0  0  0  0  0  0  0  0  0
    5.4859    0.2325    1.1235 H   0  0  0  0  0  0  0  0  0  0  0  0
    6.2153    0.5518    2.7351 H   0  0  0  0  0  0  0  0  0  0  0  0
    4.5957   -3.9101    2.3388 H   0  0  0  0  0  0  0  0  0  0  0  0
    3.2334   -3.8732    1.1859 H   0  0  0  0  0  0  0  0  0  0  0  0
    6.9325   -4.0571    1.4437 H   0  0  0  0  0  0  0  0  0  0  0  0
    8.0912   -4.1149   -0.8084 H   0  0  0  0  0  0  0  0  0  0  0  0
    2.9470   -2.7391   -1.2690 H   0  0  0  0  0  0  0  0  0  0  0  0
    3.1440   -2.5373   -3.7306 H   0  0  0  0  0  0  0  0  0  0  0  0
    5.3585   -2.9912   -4.8275 H   0  0  0  0  0  0  0  0  0  0  0  0
    7.3300   -3.6384   -3.4278 H   0  0  0  0  0  0  0  0  0  0  0  0
    0.4949    1.9471    1.7502 H   0  0  0  0  0  0  0  0  0  0  0  0
   -2.0059    1.0479    2.5371 H   0  0  0  0  0  0  0  0  0  0  0  0
   -3.7447    0.4016    0.1430 H   0  0  0  0  0  0  0  0  0  0  0  0
   -5.8389   -1.1664    2.5122 H   0  0  0  0  0  0  0  0  0  0  0  0
   -3.7927   -3.1723    1.4374 H   0  0  0  0  0  0  0  0  0  0  0  0
   -4.3501   -2.9411    3.0943 H   0  0  0  0  0  0  0  0  0  0  0  0
   -5.9121   -4.4526   -0.2034 H   0  0  0  0  0  0  0  0  0  0  0  0
   -8.0387   -5.7282    0.3844 H   0  0  0  0  0  0  0  0  0  0  0  0
   -6.6946   -3.6858    3.8660 H   0  0  0  0  0  0  0  0  0  0  0  0
   -6.3521   -0.4774    0.3548 H   0  0  0  0  0  0  0  0  0  0  0  0
   -5.0441   -0.6350   -2.5061 H   0  0  0  0  0  0  0  0  0  0  0  0
   -6.6924   -0.9686   -1.8684 H   0  0  0  0  0  0  0  0  0  0  0  0
   -5.7097   -2.2963   -2.6778 H   0  0  0  0  0  0  0  0  0  0  0  0
   -1.6691    3.2350    1.7308 H   0  0  0  0  0  0  0  0  0  0  0  0
   -3.3716    2.8447    1.9554 H   0  0  0  0  0  0  0  0  0  0  0  0
   -4.8695    2.5334    0.1027 H   0  0  0  0  0  0  0  0  0  0  0  0
   -5.5348    3.2716   -2.1288 H   0  0  0  0  0  0  0  0  0  0  0  0
   -3.9069    4.2660   -3.6494 H   0  0  0  0  0  0  0  0  0  0  0  0
   -1.5859    4.5356   -2.9418 H   0  0  0  0  0  0  0  0  0  0  0  0
   -0.9060    3.8022   -0.6815 H   0  0  0  0  0  0  0  0  0  0  0  0
    0.4786    6.1944   -0.2892 H   0  0  0  0  0  0  0  0  0  0  0  0
    1.9518    5.5977    0.6020 H   0  0  0  0  0  0  0  0  0  0  0  0
  1  2  1  0
  2  3  2  3
  3  4  1  0
  4  5  1  0
  5  6  1  0
  6  7  1  0
  7  8  1  0
  8  9  2  0
  8 10  1  0
 10 11  1  0
 11 12  1  0
 12 13  2  0
 12 14  1  0
 11 15  1  0
 15 16  1  0
 16 17  2  0
 17 18  1  0
 18 19  1  0
 19 20  2  0
 20 21  1  0
 21 22  2  0
 22 23  1  0
 23 24  2  0
  7 25  1  0
 25 26  1  0
 26 27  2  0
 26 28  1  0
 28 29  1  0
 29 30  1  0
 30 31  2  0
 30 32  1  0
 32 33  1  0
 33 34  1  0
 34 35  1  0
 35 36  1  0
 36 37  2  0
 37 38  1  0
 32 39  1  0
 39 40  1  0
 40 41  2  0
 40 42  1  0
 28 43  1  0
 43 44  1  0
 44 45  2  0
 45 46  1  0
 46 47  2  0
 47 48  1  0
 48 49  2  0
  2 50  1  0
 20 16  1  0
 38 34  2  0
 49 44  1  0
 24 19  1  0
  1 51  1  0
  1 52  1  0
  4 53  1  0
  4 54  1  0
  5 55  1  0
  5 56  1  0
  6 57  1  0
  6 58  1  0
  7 59  1  6
 10 60  1  0
 11 61  1  1
 14 62  1  0
 14 63  1  0
 15 64  1  0
 15 65  1  0
 17 66  1  0
 18 67  1  0
 21 68  1  0
 22 69  1  0
 23 70  1  0
 24 71  1  0
 25 72  1  0
 28 73  1  1
 29 74  1  0
 32 75  1  1
 33 76  1  0
 33 77  1  0
 35 78  1  0
 36 79  1  0
 38 80  1  0
 39 81  1  0
 42 82  1  0
 42 83  1  0
 42 84  1  0
 43 85  1  0
 43 86  1  0
 45 87  1  0
 46 88  1  0
 47 89  1  0
 48 90  1  0
 49 91  1  0
 50 92  1  0
 50 93  1  0
M  END
>  <Ligand ID>  (1) 
LIG0000682

>  <Ligand>  (1) 
CHEMBL264190

>  <SMILES>  (1) 
NC(=NCCC[C@@H](C(=O)N[C@H](C(=O)N)Cc1c[nH]c2c1cccc2)NC(=O)[C@H](NC(=O)[C@H](Cc1[nH]cnc1)NC(=O)C)Cc1ccccc1)N

>  <CID>  (1) 
11093672.0

>  <ChEMBL ID>  (1) 
nan

>  <InChiKey>  (1) 
DFCJPPDAOZROBS-FKWFRFQNSA-N

>  <InChi>  (1) 
InChI=1S/C34H43N11O5/c1-20(46)42-29(16-23-18-38-19-41-23)33(50)45-28(14-21-8-3-2-4-9-21)32(49)43-26(12-7-13-39-34(36)37)31(48)44-27(30(35)47)15-22-17-40-25-11-6-5-10-24(22)25/h2-6,8-11,17-19,26-29,40H,7,12-16H2,1H3,(H2,35,47)(H,38,41)(H,42,46)(H,43,49)(H,44,48)(H,45,50)(H4,36,37,39)/t26-,27-,28+,29-/m0/s1

>  <IUPAC Name>  (1) 
(2S)-2-[[(2R)-2-[[(2S)-2-acetamido-3-(1H-imidazol-5-yl)propanoyl]amino]-3-phenylpropanoyl]amino]-N-[(2S)-1-amino-3-(1H-indol-3-yl)-1-oxopropan-2-yl]-5-(diaminomethylideneamino)pentanamide

$$$$
