
     RDKit          3D

 39 41  0  0  0  0  0  0  0  0999 V2000
   -1.6197    3.5347   -0.2525 C   0  0  0  0  0  0  0  0  0  0  0  0
   -2.1447    2.2138   -0.1677 O   0  0  0  0  0  0  0  0  0  0  0  0
   -1.2910    1.1447   -0.4106 C   0  0  0  0  0  0  0  0  0  0  0  0
    0.0042    1.3407   -0.7198 N   0  0  0  0  0  0  0  0  0  0  0  0
    0.8512    0.3230   -0.9595 C   0  0  0  0  0  0  0  0  0  0  0  0
    2.2785    0.5494   -1.2999 C   0  0  0  0  0  0  0  0  0  0  0  0
    3.1289    0.5886   -0.0838 C   0  0  0  0  0  0  0  0  0  0  0  0
    3.6719   -0.6095    0.3630 C   0  0  0  0  0  0  0  0  0  0  0  0
    4.4708   -0.6484    1.4850 C   0  0  0  0  0  0  0  0  0  0  0  0
    4.7390    0.5216    2.1807 C   0  0  0  0  0  0  0  0  0  0  0  0
    4.2049    1.7300    1.7493 C   0  0  0  0  0  0  0  0  0  0  0  0
    3.4049    1.7279    0.6147 C   0  0  0  0  0  0  0  0  0  0  0  0
    0.3730   -0.9512   -0.8845 N   0  0  0  0  0  0  0  0  0  0  0  0
   -0.9234   -1.1835   -0.5762 C   0  0  0  0  0  0  0  0  0  0  0  0
   -1.8077   -0.1555   -0.3271 C   0  0  0  0  0  0  0  0  0  0  0  0
   -3.2138   -0.1091    0.0171 C   0  0  0  0  0  0  0  0  0  0  0  0
   -4.0946   -1.2184   -0.3651 C   0  0  0  0  0  0  0  0  0  0  0  0
   -3.5049   -2.4458   -0.7644 N   0  0  0  0  0  0  0  0  0  0  0  0
   -2.4899   -2.9075    0.1423 C   0  0  0  0  0  0  0  0  0  0  0  0
   -1.1802   -2.6329   -0.5609 C   0  0  0  0  0  0  0  0  0  0  0  0
   -2.4218    4.2950   -0.4208 H   0  0  0  0  0  0  0  0  0  0  0  0
   -1.1942    3.7830    0.7568 H   0  0  0  0  0  0  0  0  0  0  0  0
   -0.8458    3.5207   -1.0383 H   0  0  0  0  0  0  0  0  0  0  0  0
    2.6301   -0.2428   -1.9930 H   0  0  0  0  0  0  0  0  0  0  0  0
    2.4241    1.5243   -1.8305 H   0  0  0  0  0  0  0  0  0  0  0  0
    3.4787   -1.5494   -0.1642 H   0  0  0  0  0  0  0  0  0  0  0  0
    4.8931   -1.5815    1.8321 H   0  0  0  0  0  0  0  0  0  0  0  0
    5.3624    0.5329    3.0674 H   0  0  0  0  0  0  0  0  0  0  0  0
    4.3859    2.6673    2.2586 H   0  0  0  0  0  0  0  0  0  0  0  0
    2.9890    2.6788    0.2815 H   0  0  0  0  0  0  0  0  0  0  0  0
   -3.2799    0.1138    1.1229 H   0  0  0  0  0  0  0  0  0  0  0  0
   -3.6441    0.8288   -0.4461 H   0  0  0  0  0  0  0  0  0  0  0  0
   -4.7711   -1.4616    0.5069 H   0  0  0  0  0  0  0  0  0  0  0  0
   -4.8312   -0.9442   -1.1746 H   0  0  0  0  0  0  0  0  0  0  0  0
   -3.3078   -2.5726   -1.7646 H   0  0  0  0  0  0  0  0  0  0  0  0
   -2.5821   -3.9527    0.4600 H   0  0  0  0  0  0  0  0  0  0  0  0
   -2.5229   -2.2270    1.0407 H   0  0  0  0  0  0  0  0  0  0  0  0
   -1.2660   -3.0305   -1.6044 H   0  0  0  0  0  0  0  0  0  0  0  0
   -0.3537   -3.1949   -0.0705 H   0  0  0  0  0  0  0  0  0  0  0  0
  1  2  1  0
  2  3  1  0
  3  4  2  0
  4  5  1  0
  5  6  1  0
  6  7  1  0
  7  8  2  0
  8  9  1  0
  9 10  2  0
 10 11  1  0
 11 12  2  0
  5 13  2  0
 13 14  1  0
 14 15  2  0
 15 16  1  0
 16 17  1  0
 17 18  1  0
 18 19  1  0
 19 20  1  0
 15  3  1  0
 12  7  1  0
 20 14  1  0
  1 21  1  0
  1 22  1  0
  1 23  1  0
  6 24  1  0
  6 25  1  0
  8 26  1  0
  9 27  1  0
 10 28  1  0
 11 29  1  0
 12 30  1  0
 16 31  1  0
 16 32  1  0
 17 33  1  0
 17 34  1  0
 18 35  1  0
 19 36  1  0
 19 37  1  0
 20 38  1  0
 20 39  1  0
M  END
>  <Ligand ID>  (1) 
LIG0004891

>  <Ligand>  (1) 
CHEMBL3286560

>  <SMILES>  (1) 
COc1nc(Cc2ccccc2)nc2c1CCNCC2

>  <CID>  (1) 
59312310.0

>  <ChEMBL ID>  (1) 
nan

>  <InChiKey>  (1) 
ATZHNYMZPOTUJY-UHFFFAOYSA-N

>  <InChi>  (1) 
InChI=1S/C16H19N3O/c1-20-16-13-7-9-17-10-8-14(13)18-15(19-16)11-12-5-3-2-4-6-12/h2-6,17H,7-11H2,1H3

>  <IUPAC Name>  (1) 
2-benzyl-4-methoxy-6,7,8,9-tetrahydro-5H-pyrimido[4,5-d]azepine

$$$$
