
     RDKit          3D

 35 38  0  0  0  0  0  0  0  0999 V2000
    3.1655   -1.5654    0.4250 N   0  0  0  0  0  0  0  0  0  0  0  0
    2.1474   -1.8384   -0.5571 C   0  0  0  0  0  0  0  0  0  0  0  0
    0.7548   -1.4852   -0.0394 C   0  0  0  0  0  0  0  0  0  0  0  0
    0.5409   -0.0448   -0.1428 C   0  0  0  0  0  0  0  0  0  0  0  0
    1.5488    0.9153   -0.3046 C   0  0  0  0  0  0  0  0  0  0  0  0
    3.0178    0.7558   -0.4058 C   0  0  0  0  0  0  0  0  0  0  0  0
    3.4555   -0.2068    0.6597 C   0  0  0  0  0  0  0  0  0  0  0  0
    1.2130    2.2084   -0.3911 N   0  0  0  0  0  0  0  0  0  0  0  0
   -0.0933    2.5438   -0.3189 C   0  0  0  0  0  0  0  0  0  0  0  0
   -1.0607    1.6271   -0.1638 N   0  0  0  0  0  0  0  0  0  0  0  0
   -0.7873    0.2869   -0.0682 C   0  0  0  0  0  0  0  0  0  0  0  0
   -1.8399   -0.6443    0.1028 N   0  0  0  0  0  0  0  0  0  0  0  0
   -2.1301   -2.0396    0.2967 C   0  0  0  0  0  0  0  0  0  0  0  0
   -3.5196   -1.7323    0.8284 C   0  0  0  0  0  0  0  0  0  0  0  0
   -3.2925   -0.4188    0.1244 C   0  0  0  0  0  0  0  0  0  0  0  0
   -2.2003    2.2975   -0.1336 N   0  0  0  0  0  0  0  0  0  0  0  0
   -2.0021    3.6172   -0.2640 C   0  0  0  0  0  0  0  0  0  0  0  0
   -0.6435    3.8035   -0.3859 C   0  0  0  0  0  0  0  0  0  0  0  0
    4.0235   -2.0481    0.0825 H   0  0  0  0  0  0  0  0  0  0  0  0
    2.3553   -1.3895   -1.5376 H   0  0  0  0  0  0  0  0  0  0  0  0
    2.1347   -2.9397   -0.7075 H   0  0  0  0  0  0  0  0  0  0  0  0
    0.0502   -2.0009   -0.7170 H   0  0  0  0  0  0  0  0  0  0  0  0
    0.6983   -1.8887    0.9750 H   0  0  0  0  0  0  0  0  0  0  0  0
    3.3785    0.4418   -1.3945 H   0  0  0  0  0  0  0  0  0  0  0  0
    3.5022    1.7262   -0.1757 H   0  0  0  0  0  0  0  0  0  0  0  0
    4.5367    0.0080    0.8678 H   0  0  0  0  0  0  0  0  0  0  0  0
    2.9373    0.1028    1.6058 H   0  0  0  0  0  0  0  0  0  0  0  0
   -1.5097   -2.6189    0.9806 H   0  0  0  0  0  0  0  0  0  0  0  0
   -2.2737   -2.5744   -0.6898 H   0  0  0  0  0  0  0  0  0  0  0  0
   -3.5058   -1.6601    1.9364 H   0  0  0  0  0  0  0  0  0  0  0  0
   -4.3150   -2.3611    0.4287 H   0  0  0  0  0  0  0  0  0  0  0  0
   -3.6186    0.4199    0.7650 H   0  0  0  0  0  0  0  0  0  0  0  0
   -3.7184   -0.3971   -0.9091 H   0  0  0  0  0  0  0  0  0  0  0  0
   -2.8031    4.3500   -0.2655 H   0  0  0  0  0  0  0  0  0  0  0  0
   -0.1465    4.7500   -0.5070 H   0  0  0  0  0  0  0  0  0  0  0  0
  1  2  1  0
  2  3  1  0
  3  4  1  0
  4  5  1  0
  5  6  1  0
  6  7  1  0
  5  8  2  0
  8  9  1  0
  9 10  1  0
 10 11  1  0
 11 12  1  0
 12 13  1  0
 13 14  1  0
 14 15  1  0
 10 16  1  0
 16 17  2  0
 17 18  1  0
  7  1  1  0
 18  9  2  0
 11  4  2  0
 15 12  1  0
  1 19  1  0
  2 20  1  0
  2 21  1  0
  3 22  1  0
  3 23  1  0
  6 24  1  0
  6 25  1  0
  7 26  1  0
  7 27  1  0
 13 28  1  0
 13 29  1  0
 14 30  1  0
 14 31  1  0
 15 32  1  0
 15 33  1  0
 17 34  1  0
 18 35  1  0
M  END
>  <Ligand ID>  (1) 
LIG0003126

>  <Ligand>  (1) 
CHEMBL1643670

>  <SMILES>  (1) 
N1CCc2c(CC1)nc1n(c2N2CCC2)ncc1

>  <CID>  (1) 
53325935.0

>  <ChEMBL ID>  (1) 
nan

>  <InChiKey>  (1) 
OXSBNXICTJBRGD-UHFFFAOYSA-N

>  <InChi>  (1) 
InChI=1S/C13H17N5/c1-8-17(9-1)13-10-2-5-14-6-3-11(10)16-12-4-7-15-18(12)13/h4,7,14H,1-3,5-6,8-9H2

>  <IUPAC Name>  (1) 
8-(azetidin-1-yl)-2,6,7,12-tetrazatricyclo[7.5.0.03,7]tetradeca-1,3,5,8-tetraene

$$$$
