
     RDKit          3D

 35 36  0  0  0  0  0  0  0  0999 V2000
   -4.3131    1.6757    0.0926 C   0  0  0  0  0  0  0  0  0  0  0  0
   -3.4054    1.5256   -1.0791 C   0  0  0  0  0  0  0  0  0  0  0  0
   -1.7668    1.0101   -0.6474 S   0  0  0  0  0  0  0  0  0  0  0  0
   -1.0865    2.0655    0.1569 O   0  0  0  0  0  0  0  0  0  0  0  0
   -0.9991    0.8907   -1.9467 O   0  0  0  0  0  0  0  0  0  0  0  0
   -1.7138   -0.5245    0.1635 C   0  0  0  0  0  0  0  0  0  0  0  0
   -2.8552   -1.2541    0.4343 C   0  0  0  0  0  0  0  0  0  0  0  0
   -2.8154   -2.4686    1.0758 C   0  0  0  0  0  0  0  0  0  0  0  0
   -1.6094   -2.9954    1.4710 C   0  0  0  0  0  0  0  0  0  0  0  0
   -0.4585   -2.2777    1.2073 C   0  0  0  0  0  0  0  0  0  0  0  0
   -0.4850   -1.0472    0.5587 C   0  0  0  0  0  0  0  0  0  0  0  0
    0.7411   -0.3415    0.3087 N   0  0  0  0  0  0  0  0  0  0  0  0
    2.0048   -0.9430    0.7488 C   0  0  0  0  0  0  0  0  0  0  0  0
    3.0938   -0.0077    0.3649 C   0  0  0  0  0  0  0  0  0  0  0  0
    3.8981    0.5311    1.2150 N   0  0  0  0  0  0  0  0  0  0  0  0
    4.8431    1.3890    0.5408 C   0  0  0  0  0  0  0  0  0  0  0  0
    4.7750    0.8977   -0.8864 C   0  0  0  0  0  0  0  0  0  0  0  0
    3.3900    0.4088   -0.9572 N   0  0  0  0  0  0  0  0  0  0  0  0
   -5.3096    1.2502   -0.1471 H   0  0  0  0  0  0  0  0  0  0  0  0
   -3.9018    1.3345    1.0579 H   0  0  0  0  0  0  0  0  0  0  0  0
   -4.5082    2.7755    0.2496 H   0  0  0  0  0  0  0  0  0  0  0  0
   -3.2782    2.4911   -1.6187 H   0  0  0  0  0  0  0  0  0  0  0  0
   -3.8555    0.8439   -1.8217 H   0  0  0  0  0  0  0  0  0  0  0  0
   -3.8295   -0.8838    0.1441 H   0  0  0  0  0  0  0  0  0  0  0  0
   -3.7184   -3.0251    1.2793 H   0  0  0  0  0  0  0  0  0  0  0  0
   -1.6138   -3.9506    1.9720 H   0  0  0  0  0  0  0  0  0  0  0  0
    0.4801   -2.7319    1.5380 H   0  0  0  0  0  0  0  0  0  0  0  0
    0.6859    0.5693   -0.1748 H   0  0  0  0  0  0  0  0  0  0  0  0
    2.1502   -1.8961    0.2019 H   0  0  0  0  0  0  0  0  0  0  0  0
    1.9731   -1.1106    1.8414 H   0  0  0  0  0  0  0  0  0  0  0  0
    4.4451    2.4413    0.6055 H   0  0  0  0  0  0  0  0  0  0  0  0
    5.8612    1.3368    0.9760 H   0  0  0  0  0  0  0  0  0  0  0  0
    5.0045    1.6527   -1.6420 H   0  0  0  0  0  0  0  0  0  0  0  0
    5.4170   -0.0045   -0.9495 H   0  0  0  0  0  0  0  0  0  0  0  0
    2.7602    0.3729   -1.7889 H   0  0  0  0  0  0  0  0  0  0  0  0
  1  2  1  0
  2  3  1  0
  3  4  2  0
  3  5  2  0
  3  6  1  0
  6  7  2  0
  7  8  1  0
  8  9  2  0
  9 10  1  0
 10 11  2  0
 11 12  1  0
 12 13  1  0
 13 14  1  0
 14 15  2  0
 15 16  1  0
 16 17  1  0
 17 18  1  0
 11  6  1  0
 18 14  1  0
  1 19  1  0
  1 20  1  0
  1 21  1  0
  2 22  1  0
  2 23  1  0
  7 24  1  0
  8 25  1  0
  9 26  1  0
 10 27  1  0
 12 28  1  0
 13 29  1  0
 13 30  1  0
 16 31  1  0
 16 32  1  0
 17 33  1  0
 17 34  1  0
 18 35  1  0
M  END
>  <Ligand ID>  (1) 
LIG0000988

>  <Ligand>  (1) 
CHEMBL70973

>  <SMILES>  (1) 
CCS(=O)(=O)c1ccccc1NCC1=NCCN1

>  <CID>  (1) 
10221004.0

>  <ChEMBL ID>  (1) 
nan

>  <InChiKey>  (1) 
ZZCOHDYKTIEHEF-UHFFFAOYSA-N

>  <InChi>  (1) 
InChI=1S/C12H17N3O2S/c1-2-18(16,17)11-6-4-3-5-10(11)15-9-12-13-7-8-14-12/h3-6,15H,2,7-9H2,1H3,(H,13,14)

>  <IUPAC Name>  (1) 
N-(4,5-dihydro-1H-imidazol-2-ylmethyl)-2-ethylsulfonylaniline

$$$$
