
     RDKit          3D

 25 25  0  0  0  0  0  0  0  0999 V2000
    5.2514   -0.7427    0.2055 C   0  0  0  0  0  0  0  0  0  0  0  0
    4.3547   -0.2544   -0.4390 C   0  0  0  0  0  0  0  0  0  0  0  0
    3.2438    0.3521   -1.2080 C   0  0  0  0  0  0  0  0  0  0  0  0
    2.0305   -0.1672   -0.7221 O   0  0  0  0  0  0  0  0  0  0  0  0
    0.7784    0.1568   -1.1857 C   0  0  0  0  0  0  0  0  0  0  0  0
    0.6591    0.9820   -2.1213 O   0  0  0  0  0  0  0  0  0  0  0  0
   -0.3911   -0.4984   -0.5437 C   0  0  0  0  0  0  0  0  0  0  0  0
   -0.4315   -0.1700    0.9206 C   0  0  0  0  0  0  0  0  0  0  0  0
   -1.5550    0.7476    1.3191 C   0  0  0  0  0  0  0  0  0  0  0  0
   -2.8389    0.1950    0.7756 C   0  0  0  0  0  0  0  0  0  0  0  0
   -2.8222   -0.1812   -0.4532 N   0  0  0  0  0  0  0  0  0  0  0  0
   -1.6388   -0.0812   -1.2718 C   0  0  0  0  0  0  0  0  0  0  0  0
   -3.9864    0.1113    1.6123 N   0  0  0  0  0  0  0  0  0  0  0  0
    6.0555   -1.1663    0.7673 H   0  0  0  0  0  0  0  0  0  0  0  0
    3.3146    1.4563   -1.0137 H   0  0  0  0  0  0  0  0  0  0  0  0
    3.3756    0.1322   -2.2883 H   0  0  0  0  0  0  0  0  0  0  0  0
   -0.2667   -1.5924   -0.6586 H   0  0  0  0  0  0  0  0  0  0  0  0
    0.5338    0.2855    1.2189 H   0  0  0  0  0  0  0  0  0  0  0  0
   -0.5378   -1.1023    1.5369 H   0  0  0  0  0  0  0  0  0  0  0  0
   -1.3921    1.8038    1.0169 H   0  0  0  0  0  0  0  0  0  0  0  0
   -1.6133    0.6928    2.4420 H   0  0  0  0  0  0  0  0  0  0  0  0
   -1.8016   -0.8081   -2.1119 H   0  0  0  0  0  0  0  0  0  0  0  0
   -1.5622    0.9290   -1.7267 H   0  0  0  0  0  0  0  0  0  0  0  0
   -3.8287   -0.2976    2.5694 H   0  0  0  0  0  0  0  0  0  0  0  0
   -4.9311    0.4117    1.3596 H   0  0  0  0  0  0  0  0  0  0  0  0
  1  2  3  0
  2  3  1  0
  3  4  1  0
  4  5  1  0
  5  6  2  0
  5  7  1  0
  7  8  1  0
  8  9  1  0
  9 10  1  0
 10 11  2  0
 11 12  1  0
 10 13  1  0
 12  7  1  0
  1 14  1  0
  3 15  1  0
  3 16  1  0
  7 17  1  0
  8 18  1  0
  8 19  1  0
  9 20  1  0
  9 21  1  0
 12 22  1  0
 12 23  1  0
 13 24  1  0
 13 25  1  0
M  END
>  <Ligand ID>  (1) 
LIG0005605

>  <Ligand>  (1) 
CHEMBL557795

>  <SMILES>  (1) 
C#CCOC(=O)C1CCC(=NC1)N

>  <CID>  (1) 
10375030.0

>  <ChEMBL ID>  (1) 
nan

>  <InChiKey>  (1) 
XKNPVGARICROIB-UHFFFAOYSA-N

>  <InChi>  (1) 
InChI=1S/C9H12N2O2/c1-2-5-13-9(12)7-3-4-8(10)11-6-7/h1,7H,3-6H2,(H2,10,11)

>  <IUPAC Name>  (1) 
prop-2-ynyl 6-amino-2,3,4,5-tetrahydropyridine-3-carboxylate

$$$$
