
     RDKit          3D

 61 63  0  0  0  0  0  0  0  0999 V2000
    0.2884   -0.9834    0.8694 C   0  0  0  0  0  0  0  0  0  0  0  0
   -0.6616    0.0811    0.4508 C   0  0  0  0  0  0  0  0  0  0  0  0
   -0.1903    1.0856   -0.3681 C   0  0  0  0  0  0  0  0  0  0  0  0
    1.1459    1.1198   -0.8065 O   0  0  0  0  0  0  0  0  0  0  0  0
    1.5340    2.1832   -1.6455 C   0  0  0  0  0  0  0  0  0  0  0  0
    2.9818    2.1317   -2.0649 C   0  0  0  0  0  0  0  0  0  0  0  0
    3.2124    0.8132   -2.7770 C   0  0  0  0  0  0  0  0  0  0  0  0
    4.6152    0.6744   -3.2658 C   0  0  0  0  0  0  0  0  0  0  0  0
    5.6277    0.7498   -2.3654 O   0  0  0  0  0  0  0  0  0  0  0  0
    5.9749    0.0151   -1.2889 C   0  0  0  0  0  0  0  0  0  0  0  0
    5.3478   -1.0994   -0.7887 C   0  0  0  0  0  0  0  0  0  0  0  0
    5.8171   -1.7747    0.3455 C   0  0  0  0  0  0  0  0  0  0  0  0
    6.9405   -1.3267    0.9960 C   0  0  0  0  0  0  0  0  0  0  0  0
    7.5855   -0.2211    0.5219 C   0  0  0  0  0  0  0  0  0  0  0  0
    7.1207    0.4349   -0.5878 C   0  0  0  0  0  0  0  0  0  0  0  0
    7.8114    1.5255   -1.0006 F   0  0  0  0  0  0  0  0  0  0  0  0
    7.4691   -1.9937    2.1806 C   0  0  0  0  0  0  0  0  0  0  0  0
    6.8787   -3.0303    2.6395 O   0  0  0  0  0  0  0  0  0  0  0  0
    8.6097   -1.5047    2.8083 O   0  0  0  0  0  0  0  0  0  0  0  0
   -1.0849    2.0636   -0.7445 C   0  0  0  0  0  0  0  0  0  0  0  0
   -2.3946    2.0464   -0.3255 C   0  0  0  0  0  0  0  0  0  0  0  0
   -2.8953    1.0344    0.5073 C   0  0  0  0  0  0  0  0  0  0  0  0
   -1.9865    0.0716    0.8690 C   0  0  0  0  0  0  0  0  0  0  0  0
   -2.3611   -0.9790    1.6871 O   0  0  0  0  0  0  0  0  0  0  0  0
   -4.2824    1.0713    0.9100 C   0  0  0  0  0  0  0  0  0  0  0  0
   -4.9668    2.0659    0.4692 O   0  0  0  0  0  0  0  0  0  0  0  0
   -5.0020    0.1242    1.7505 C   0  0  0  0  0  0  0  0  0  0  0  0
   -5.8168   -0.8683    0.9418 C   0  0  0  0  0  0  0  0  0  0  0  0
   -6.8528   -0.1602    0.0935 C   0  0  0  0  0  0  0  0  0  0  0  0
   -7.8747   -1.2539   -0.1208 C   0  0  0  0  0  0  0  0  0  0  0  0
   -7.9896   -1.9133    1.2233 C   0  0  0  0  0  0  0  0  0  0  0  0
   -6.5927   -1.8271    1.8052 C   0  0  0  0  0  0  0  0  0  0  0  0
   -0.3043   -1.8421    1.2160 H   0  0  0  0  0  0  0  0  0  0  0  0
    1.0488   -0.6340    1.5983 H   0  0  0  0  0  0  0  0  0  0  0  0
    0.8161   -1.2895   -0.0640 H   0  0  0  0  0  0  0  0  0  0  0  0
    1.4081    3.1320   -1.0576 H   0  0  0  0  0  0  0  0  0  0  0  0
    0.8946    2.1943   -2.5505 H   0  0  0  0  0  0  0  0  0  0  0  0
    3.1538    2.9962   -2.7258 H   0  0  0  0  0  0  0  0  0  0  0  0
    3.6683    2.2527   -1.2020 H   0  0  0  0  0  0  0  0  0  0  0  0
    2.4841    0.8226   -3.6408 H   0  0  0  0  0  0  0  0  0  0  0  0
    2.8691    0.0160   -2.1032 H   0  0  0  0  0  0  0  0  0  0  0  0
    4.7452    1.4123   -4.1081 H   0  0  0  0  0  0  0  0  0  0  0  0
    4.6733   -0.3278   -3.8080 H   0  0  0  0  0  0  0  0  0  0  0  0
    4.4710   -1.4729   -1.2868 H   0  0  0  0  0  0  0  0  0  0  0  0
    5.2988   -2.6625    0.7264 H   0  0  0  0  0  0  0  0  0  0  0  0
    8.4880    0.1471    1.0364 H   0  0  0  0  0  0  0  0  0  0  0  0
    9.1644   -2.1049    3.4008 H   0  0  0  0  0  0  0  0  0  0  0  0
   -0.7181    2.8511   -1.3880 H   0  0  0  0  0  0  0  0  0  0  0  0
   -3.0255    2.8569   -0.6740 H   0  0  0  0  0  0  0  0  0  0  0  0
   -1.8818   -1.1981    2.5515 H   0  0  0  0  0  0  0  0  0  0  0  0
   -4.3660   -0.4113    2.4589 H   0  0  0  0  0  0  0  0  0  0  0  0
   -5.7805    0.6480    2.3969 H   0  0  0  0  0  0  0  0  0  0  0  0
   -5.1693   -1.4288    0.2381 H   0  0  0  0  0  0  0  0  0  0  0  0
   -7.3564    0.6468    0.6523 H   0  0  0  0  0  0  0  0  0  0  0  0
   -6.4902    0.1530   -0.8854 H   0  0  0  0  0  0  0  0  0  0  0  0
   -7.4937   -1.9715   -0.8789 H   0  0  0  0  0  0  0  0  0  0  0  0
   -8.8716   -0.8396   -0.3832 H   0  0  0  0  0  0  0  0  0  0  0  0
   -8.7440   -1.3505    1.8268 H   0  0  0  0  0  0  0  0  0  0  0  0
   -8.2936   -2.9782    1.0975 H   0  0  0  0  0  0  0  0  0  0  0  0
   -6.1046   -2.8442    1.7844 H   0  0  0  0  0  0  0  0  0  0  0  0
   -6.5927   -1.5028    2.8533 H   0  0  0  0  0  0  0  0  0  0  0  0
  1  2  1  0
  2  3  2  0
  3  4  1  0
  4  5  1  0
  5  6  1  0
  6  7  1  0
  7  8  1  0
  8  9  1  0
  9 10  1  0
 10 11  2  0
 11 12  1  0
 12 13  2  0
 13 14  1  0
 14 15  2  0
 15 16  1  0
 13 17  1  0
 17 18  2  0
 17 19  1  0
  3 20  1  0
 20 21  2  0
 21 22  1  0
 22 23  2  0
 23 24  1  0
 22 25  1  0
 25 26  2  0
 25 27  1  0
 27 28  1  0
 28 29  1  0
 29 30  1  0
 30 31  1  0
 31 32  1  0
 23  2  1  0
 32 28  1  0
 15 10  1  0
  1 33  1  0
  1 34  1  0
  1 35  1  0
  5 36  1  0
  5 37  1  0
  6 38  1  0
  6 39  1  0
  7 40  1  0
  7 41  1  0
  8 42  1  0
  8 43  1  0
 11 44  1  0
 12 45  1  0
 14 46  1  0
 19 47  1  0
 20 48  1  0
 21 49  1  0
 24 50  1  0
 27 51  1  0
 27 52  1  0
 28 53  1  0
 29 54  1  0
 29 55  1  0
 30 56  1  0
 30 57  1  0
 31 58  1  0
 31 59  1  0
 32 60  1  0
 32 61  1  0
M  END
>  <Ligand ID>  (1) 
LIG0003648

>  <Ligand>  (1) 
CHEMBL3287694

>  <SMILES>  (1) 
Cc1c(OCCCCOc2ccc(cc2F)C(=O)O)ccc(c1O)C(=O)CC1CCCC1

>  <CID>  (1) 
90643872.0

>  <ChEMBL ID>  (1) 
nan

>  <InChiKey>  (1) 
AHUPDZVGRGKGHK-UHFFFAOYSA-N

>  <InChi>  (1) 
InChI=1S/C25H29FO6/c1-16-22(11-9-19(24(16)28)21(27)14-17-6-2-3-7-17)31-12-4-5-13-32-23-10-8-18(25(29)30)15-20(23)26/h8-11,15,17,28H,2-7,12-14H2,1H3,(H,29,30)

>  <IUPAC Name>  (1) 
4-[4-[4-(2-cyclopentylacetyl)-3-hydroxy-2-methylphenoxy]butoxy]-3-fluorobenzoic acid

$$$$
