
     RDKit          3D

 86 94  0  0  0  0  0  0  0  0999 V2000
   -2.3626   -4.3543    1.0583 C   0  0  0  0  0  0  0  0  0  0  0  0
   -3.3381   -3.4665    0.3893 C   0  0  0  0  0  0  0  0  0  0  0  0
   -2.7923   -2.4384   -0.5649 C   0  0  2  0  0  0  0  0  0  0  0  0
   -4.0486   -1.6889   -1.0560 C   0  0  0  0  0  0  0  0  0  0  0  0
   -2.3434   -3.0845   -1.7090 O   0  0  0  0  0  0  0  0  0  0  0  0
   -1.0843   -3.5958   -1.6682 C   0  0  0  0  0  0  0  0  0  0  0  0
   -0.2382   -3.0398   -0.7510 O   0  0  0  0  0  0  0  0  0  0  0  0
   -0.4764   -1.6874   -0.5805 C   0  0  2  0  0  0  0  0  0  0  0  0
   -1.8686   -1.4414    0.0097 C   0  0  1  0  0  0  0  0  0  0  0  0
   -2.2340    0.0125   -0.1892 C   0  0  0  0  0  0  0  0  0  0  0  0
   -0.9802    0.7819   -0.4591 C   0  0  1  0  0  0  0  0  0  0  0  0
   -0.6086    0.4447   -1.8887 C   0  0  0  0  0  0  0  0  0  0  0  0
   -0.3109   -1.0358   -1.9124 C   0  0  0  0  0  0  0  0  0  0  0  0
   -1.1407    2.2575   -0.2568 C   0  0  2  0  0  0  0  0  0  0  0  0
    0.1439    3.0450   -0.2588 C   0  0  0  0  0  0  0  0  0  0  0  0
    1.3629    2.2529   -0.5100 C   0  0  0  0  0  0  0  0  0  0  0  0
    1.3486    0.9352   -0.1949 C   0  0  0  0  0  0  0  0  0  0  0  0
    0.1446    0.3863    0.4702 C   0  0  2  0  0  0  0  0  0  0  0  0
    0.4690   -1.0926    0.4187 C   0  0  2  0  0  0  0  0  0  0  0  0
    1.8421   -1.1830    0.0989 O   0  0  0  0  0  0  0  0  0  0  0  0
    2.3256    0.0248   -0.3587 C   0  0  0  0  0  0  0  0  0  0  0  0
    3.5228    0.4982   -0.9257 C   0  0  0  0  0  0  0  0  0  0  0  0
    4.5212   -0.3054   -1.1135 O   0  0  0  0  0  0  0  0  0  0  0  0
    5.5284   -1.0993   -1.3065 C   0  0  0  0  0  0  0  0  0  0  0  0
    6.7086   -0.6312   -0.4749 C   0  0  0  0  0  0  0  0  0  0  0  0
    6.7879   -1.1380    0.8160 C   0  0  0  0  0  0  0  0  0  0  0  0
    7.8237   -0.7752    1.6552 C   0  0  0  0  0  0  0  0  0  0  0  0
    8.7701    0.0994    1.1725 C   0  0  0  0  0  0  0  0  0  0  0  0
    8.7071    0.6210   -0.1265 C   0  0  0  0  0  0  0  0  0  0  0  0
    7.6474    0.2389   -0.9568 C   0  0  0  0  0  0  0  0  0  0  0  0
    3.5990    1.8552   -1.2721 C   0  0  0  0  0  0  0  0  0  0  0  0
    2.5311    2.7341   -1.0697 C   0  0  0  0  0  0  0  0  0  0  0  0
    0.0396    0.9389    1.8498 C   0  0  0  0  0  0  0  0  0  0  0  0
   -0.8565    2.0661    2.1059 C   0  0  0  0  0  0  0  0  0  0  0  0
   -1.7584    2.4345    1.0491 N   0  0  0  0  0  0  0  0  0  0  0  0
   -2.1730    3.8197    1.1247 C   0  0  0  0  0  0  0  0  0  0  0  0
   -3.2798    4.1651    0.1843 C   0  0  0  0  0  0  0  0  0  0  0  0
   -3.8109    5.6119    0.1157 C   0  0  0  0  0  0  0  0  0  0  0  0
   -4.5389    4.6372    0.9400 C   0  0  0  0  0  0  0  0  0  0  0  0
   -4.2113   -2.8228    1.4348 C   0  0  0  0  0  0  0  0  0  0  0  0
   -4.2512   -4.3799   -0.4498 C   0  0  0  0  0  0  0  0  0  0  0  0
   -2.9138   -4.7886    1.9513 H   0  0  0  0  0  0  0  0  0  0  0  0
   -1.4820   -3.8895    1.5100 H   0  0  0  0  0  0  0  0  0  0  0  0
   -2.0766   -5.2780    0.4948 H   0  0  0  0  0  0  0  0  0  0  0  0
   -4.8707   -2.4411   -1.1761 H   0  0  0  0  0  0  0  0  0  0  0  0
   -4.3872   -0.9732   -0.2791 H   0  0  0  0  0  0  0  0  0  0  0  0
   -3.8969   -1.2421   -2.0557 H   0  0  0  0  0  0  0  0  0  0  0  0
   -0.6201   -3.4437   -2.6884 H   0  0  0  0  0  0  0  0  0  0  0  0
   -1.1045   -4.7257   -1.5985 H   0  0  0  0  0  0  0  0  0  0  0  0
   -1.8017   -1.5407    1.1304 H   0  0  0  0  0  0  0  0  0  0  0  0
   -2.9160    0.2046   -1.0314 H   0  0  0  0  0  0  0  0  0  0  0  0
   -2.7393    0.4448    0.7037 H   0  0  0  0  0  0  0  0  0  0  0  0
    0.1761    1.0531   -2.3192 H   0  0  0  0  0  0  0  0  0  0  0  0
   -1.5375    0.6934   -2.4823 H   0  0  0  0  0  0  0  0  0  0  0  0
    0.7341   -1.1795   -2.2405 H   0  0  0  0  0  0  0  0  0  0  0  0
   -0.9426   -1.4625   -2.7095 H   0  0  0  0  0  0  0  0  0  0  0  0
   -1.8172    2.6315   -1.0249 H   0  0  0  0  0  0  0  0  0  0  0  0
    0.1043    3.8449   -1.0583 H   0  0  0  0  0  0  0  0  0  0  0  0
    0.3456    3.6120    0.6664 H   0  0  0  0  0  0  0  0  0  0  0  0
    0.2298   -1.5950    1.3983 H   0  0  0  0  0  0  0  0  0  0  0  0
    5.3823   -2.1880   -1.0468 H   0  0  0  0  0  0  0  0  0  0  0  0
    5.9124   -1.1490   -2.3815 H   0  0  0  0  0  0  0  0  0  0  0  0
    6.0123   -1.8321    1.1580 H   0  0  0  0  0  0  0  0  0  0  0  0
    7.8415   -1.1975    2.6537 H   0  0  0  0  0  0  0  0  0  0  0  0
    9.5694    0.3661    1.8528 H   0  0  0  0  0  0  0  0  0  0  0  0
    9.4736    1.3072   -0.4608 H   0  0  0  0  0  0  0  0  0  0  0  0
    7.5701    0.6258   -1.9709 H   0  0  0  0  0  0  0  0  0  0  0  0
    4.4969    2.2792   -1.7144 H   0  0  0  0  0  0  0  0  0  0  0  0
    2.5760    3.7746   -1.3279 H   0  0  0  0  0  0  0  0  0  0  0  0
   -0.2526    0.0571    2.4973 H   0  0  0  0  0  0  0  0  0  0  0  0
    1.0900    1.1385    2.2091 H   0  0  0  0  0  0  0  0  0  0  0  0
   -0.3063    2.9624    2.4270 H   0  0  0  0  0  0  0  0  0  0  0  0
   -1.5344    1.8405    2.9865 H   0  0  0  0  0  0  0  0  0  0  0  0
   -2.4995    4.0309    2.1655 H   0  0  0  0  0  0  0  0  0  0  0  0
   -1.3596    4.5544    0.9317 H   0  0  0  0  0  0  0  0  0  0  0  0
   -3.5266    3.5253   -0.6969 H   0  0  0  0  0  0  0  0  0  0  0  0
   -4.2256    5.9305   -0.8712 H   0  0  0  0  0  0  0  0  0  0  0  0
   -3.1735    6.3981    0.5761 H   0  0  0  0  0  0  0  0  0  0  0  0
   -5.5174    4.2859    0.6031 H   0  0  0  0  0  0  0  0  0  0  0  0
   -4.4605    4.8106    2.0408 H   0  0  0  0  0  0  0  0  0  0  0  0
   -3.8958   -1.7767    1.6639 H   0  0  0  0  0  0  0  0  0  0  0  0
   -5.2857   -2.9252    1.1805 H   0  0  0  0  0  0  0  0  0  0  0  0
   -4.1029   -3.3825    2.4109 H   0  0  0  0  0  0  0  0  0  0  0  0
   -4.0548   -4.2605   -1.5366 H   0  0  0  0  0  0  0  0  0  0  0  0
   -5.3094   -4.2418   -0.1691 H   0  0  0  0  0  0  0  0  0  0  0  0
   -4.0205   -5.4592   -0.2424 H   0  0  0  0  0  0  0  0  0  0  0  0
  1  2  1  0
  3  2  1  1
  3  4  1  0
  3  5  1  0
  5  6  1  0
  6  7  1  0
  8  7  1  6
  8  9  1  0
  9 10  1  0
 11 10  1  1
 11 12  1  0
 12 13  1  0
 11 14  1  0
 14 15  1  0
 15 16  1  0
 16 17  2  0
 17 18  1  0
 18 19  1  0
 19 20  1  0
 20 21  1  0
 21 22  2  0
 22 23  1  0
 23 24  1  0
 24 25  1  0
 25 26  2  0
 26 27  1  0
 27 28  2  0
 28 29  1  0
 29 30  2  0
 22 31  1  0
 31 32  2  0
 18 33  1  1
 33 34  1  0
 34 35  1  0
 35 36  1  0
 36 37  1  0
 37 38  1  0
 38 39  1  0
  2 40  1  0
  2 41  1  0
  9  3  1  0
 18 11  1  0
 30 25  1  0
 39 37  1  0
 13  8  1  0
 35 14  1  0
 19  8  1  0
 32 16  1  0
 21 17  1  0
  1 42  1  0
  1 43  1  0
  1 44  1  0
  4 45  1  0
  4 46  1  0
  4 47  1  0
  6 48  1  0
  6 49  1  0
  9 50  1  1
 10 51  1  0
 10 52  1  0
 12 53  1  0
 12 54  1  0
 13 55  1  0
 13 56  1  0
 14 57  1  6
 15 58  1  0
 15 59  1  0
 19 60  1  1
 24 61  1  0
 24 62  1  0
 26 63  1  0
 27 64  1  0
 28 65  1  0
 29 66  1  0
 30 67  1  0
 31 68  1  0
 32 69  1  0
 33 70  1  0
 33 71  1  0
 34 72  1  0
 34 73  1  0
 36 74  1  0
 36 75  1  0
 37 76  1  0
 38 77  1  0
 38 78  1  0
 39 79  1  0
 39 80  1  0
 40 81  1  0
 40 82  1  0
 40 83  1  0
 41 84  1  0
 41 85  1  0
 41 86  1  0
M  END
>  <Ligand ID>  (1) 
LIG0005135

>  <Ligand>  (1) 
CHEMBL3965389

>  <SMILES>  (1) 
CC([C@]1(C)OCO[C@]23[C@H]1C[C@@]1(CC2)[C@@H]2Cc4c5[C@@]1([C@@H]3Oc5c(OCc1ccccc1)cc4)CCN2CC1CC1)(C)C

>  <CID>  (1) 
134151287.0

>  <ChEMBL ID>  (1) 
nan

>  <InChiKey>  (1) 
GMWKLQVLCZTICI-BCXNSHKNSA-N

>  <InChi>  (1) 
InChI=1S/C36H45NO4/c1-32(2,3)33(4)27-19-34-14-15-36(27,40-22-39-33)31-35(34)16-17-37(20-23-10-11-23)28(34)18-25-12-13-26(30(41-31)29(25)35)38-21-24-8-6-5-7-9-24/h5-9,12-13,23,27-28,31H,10-11,14-22H2,1-4H3/t27-,28-,31-,33+,34-,35+,36-/m0/s1

>  <IUPAC Name>  (1) 
(1R,2R,6S,14S,15S,19R,20S)-19-tert-butyl-5-(cyclopropylmethyl)-19-methyl-11-phenylmethoxy-13,16,18-trioxa-5-azaheptacyclo[13.6.2.12,8.01,6.02,14.015,20.012,24]tetracosa-8(24),9,11-triene

$$$$
