
     RDKit          3D

 65 64  0  0  0  0  0  0  0  0999 V2000
  -10.8405    2.6620    1.1093 C   0  0  0  0  0  0  0  0  0  0  0  0
   -9.8815    1.5085    0.9420 C   0  0  0  0  0  0  0  0  0  0  0  0
   -9.4623    1.2476   -0.2947 C   0  0  0  0  0  0  0  0  0  0  0  0
   -8.5143    0.1282   -0.5598 C   0  0  0  0  0  0  0  0  0  0  0  0
   -7.2374    0.5913   -1.1784 C   0  0  0  0  0  0  0  0  0  0  0  0
   -6.0720    0.3844   -0.5736 C   0  0  0  0  0  0  0  0  0  0  0  0
   -4.7688    0.8412   -1.1754 C   0  0  0  0  0  0  0  0  0  0  0  0
   -3.9591   -0.3916   -1.3579 C   0  0  0  0  0  0  0  0  0  0  0  0
   -2.7793   -0.5621   -0.7667 C   0  0  0  0  0  0  0  0  0  0  0  0
   -1.9640   -1.8082   -0.9530 C   0  0  0  0  0  0  0  0  0  0  0  0
   -0.6287   -1.4924   -1.5515 C   0  0  0  0  0  0  0  0  0  0  0  0
    0.2011   -0.5577   -0.7513 C   0  0  0  0  0  0  0  0  0  0  0  0
    0.4872   -1.1365    0.6095 C   0  0  0  0  0  0  0  0  0  0  0  0
    1.1983   -2.4274    0.5312 C   0  0  0  0  0  0  0  0  0  0  0  0
    2.4849   -2.5599   -0.1586 C   0  0  0  0  0  0  0  0  0  0  0  0
    3.6702   -1.7956    0.2902 C   0  0  0  0  0  0  0  0  0  0  0  0
    3.6219   -0.3222    0.2034 C   0  0  0  0  0  0  0  0  0  0  0  0
    4.9577    0.2729    0.6839 C   0  0  0  0  0  0  0  0  0  0  0  0
    5.2051   -0.0885    1.9979 O   0  0  0  0  0  0  0  0  0  0  0  0
    6.5737   -0.2824    2.0748 C   0  0  0  0  0  0  0  0  0  0  0  0
    7.1086   -0.1466    0.6858 C   0  0  0  0  0  0  0  0  0  0  0  0
    5.9787   -0.2476   -0.1033 O   0  0  0  0  0  0  0  0  0  0  0  0
    7.8289    1.1815    0.4591 C   0  0  0  0  0  0  0  0  0  0  0  0
    8.1994    1.2568   -0.8712 O   0  0  0  0  0  0  0  0  0  0  0  0
    9.0110    2.7091   -1.2136 P   0  0  0  0  0  0  0  0  0  0  0  0
    8.9869    3.0311   -2.6740 O   0  0  0  0  0  0  0  0  0  0  0  0
   10.6287    2.4876   -0.7251 O   0  0  0  0  0  0  0  0  0  0  0  0
    8.3218    3.9854   -0.3623 O   0  0  0  0  0  0  0  0  0  0  0  0
    0.0000    0.0000    0.0000 K   0  0  0  0  0 15  0  0  0  0  0  0
  -10.9987    2.9196    2.1557 H   0  0  0  0  0  0  0  0  0  0  0  0
  -10.3400    3.5259    0.6151 H   0  0  0  0  0  0  0  0  0  0  0  0
  -11.7769    2.4803    0.5384 H   0  0  0  0  0  0  0  0  0  0  0  0
   -9.5481    0.9191    1.7839 H   0  0  0  0  0  0  0  0  0  0  0  0
   -9.7962    1.8372   -1.1350 H   0  0  0  0  0  0  0  0  0  0  0  0
   -8.2774   -0.3687    0.4023 H   0  0  0  0  0  0  0  0  0  0  0  0
   -8.9994   -0.6579   -1.1770 H   0  0  0  0  0  0  0  0  0  0  0  0
   -7.2455    1.1030   -2.1303 H   0  0  0  0  0  0  0  0  0  0  0  0
   -6.0098   -0.1257    0.3857 H   0  0  0  0  0  0  0  0  0  0  0  0
   -4.9569    1.3014   -2.1760 H   0  0  0  0  0  0  0  0  0  0  0  0
   -4.3128    1.5604   -0.4952 H   0  0  0  0  0  0  0  0  0  0  0  0
   -4.3651   -1.1659   -2.0005 H   0  0  0  0  0  0  0  0  0  0  0  0
   -2.3760    0.2278   -0.1174 H   0  0  0  0  0  0  0  0  0  0  0  0
   -1.9491   -2.3971   -0.0269 H   0  0  0  0  0  0  0  0  0  0  0  0
   -2.5235   -2.4484   -1.7025 H   0  0  0  0  0  0  0  0  0  0  0  0
   -0.0673   -2.4082   -1.8450 H   0  0  0  0  0  0  0  0  0  0  0  0
   -0.8407   -0.9695   -2.5329 H   0  0  0  0  0  0  0  0  0  0  0  0
   -0.3531    0.4007   -0.6631 H   0  0  0  0  0  0  0  0  0  0  0  0
    1.1547   -0.3440   -1.3031 H   0  0  0  0  0  0  0  0  0  0  0  0
    0.8745   -0.4302    1.3466 H   0  0  0  0  0  0  0  0  0  0  0  0
   -0.5780   -1.4244    0.9828 H   0  0  0  0  0  0  0  0  0  0  0  0
    1.3632   -2.8681    1.5806 H   0  0  0  0  0  0  0  0  0  0  0  0
    0.4715   -3.1780    0.1004 H   0  0  0  0  0  0  0  0  0  0  0  0
    2.3604   -2.4663   -1.3005 H   0  0  0  0  0  0  0  0  0  0  0  0
    2.7473   -3.6820   -0.1007 H   0  0  0  0  0  0  0  0  0  0  0  0
    4.5302   -2.1227   -0.3770 H   0  0  0  0  0  0  0  0  0  0  0  0
    3.9632   -2.0691    1.3464 H   0  0  0  0  0  0  0  0  0  0  0  0
    2.8657    0.2096    0.7801 H   0  0  0  0  0  0  0  0  0  0  0  0
    3.4958   -0.0487   -0.8843 H   0  0  0  0  0  0  0  0  0  0  0  0
    4.9063    1.3731    0.6380 H   0  0  0  0  0  0  0  0  0  0  0  0
    7.0851    0.3129    2.8415 H   0  0  0  0  0  0  0  0  0  0  0  0
    6.7088   -1.3574    2.3815 H   0  0  0  0  0  0  0  0  0  0  0  0
    7.7972   -0.9782    0.4229 H   0  0  0  0  0  0  0  0  0  0  0  0
    8.6474    1.3177    1.1680 H   0  0  0  0  0  0  0  0  0  0  0  0
    7.0793    1.9783    0.6503 H   0  0  0  0  0  0  0  0  0  0  0  0
   10.9077    1.5747   -1.0040 H   0  0  0  0  0  0  0  0  0  0  0  0
  1  2  1  0
  2  3  2  0
  3  4  1  0
  4  5  1  0
  5  6  2  0
  6  7  1  0
  7  8  1  0
  8  9  2  0
  9 10  1  0
 10 11  1  0
 11 12  1  0
 12 13  1  0
 13 14  1  0
 14 15  1  0
 15 16  1  0
 16 17  1  0
 17 18  1  0
 18 19  1  0
 19 20  1  0
 20 21  1  0
 21 22  1  0
 21 23  1  0
 23 24  1  0
 24 25  1  0
 25 26  2  0
 25 27  1  0
 25 28  1  0
 22 18  1  0
  1 30  1  0
  1 31  1  0
  1 32  1  0
  2 33  1  0
  3 34  1  0
  4 35  1  0
  4 36  1  0
  5 37  1  0
  6 38  1  0
  7 39  1  0
  7 40  1  0
  8 41  1  0
  9 42  1  0
 10 43  1  0
 10 44  1  0
 11 45  1  0
 11 46  1  0
 12 47  1  0
 12 48  1  0
 13 49  1  0
 13 50  1  0
 14 51  1  0
 14 52  1  0
 15 53  1  0
 15 54  1  0
 16 55  1  0
 16 56  1  0
 17 57  1  0
 17 58  1  0
 18 59  1  0
 20 60  1  0
 20 61  1  0
 21 62  1  0
 23 63  1  0
 23 64  1  0
 27 65  1  0
M  CHG  2  28  -1  29   1
M  END
>  <Ligand ID>  (1) 
LIG0005584

>  <Ligand>  (1) 
CHEMBL383362

>  <SMILES>  (1) 
C/C=C/C/C=C/C/C=C/CCCCCCCCC1OCC(O1)COP(=O)(O)[O-].[K+]

>  <CID>  (1) 
44406649.0

>  <ChEMBL ID>  (1) 
nan

>  <InChiKey>  (1) 
ZJHWIQKBTLTBHF-BJCCUALNSA-M

>  <InChi>  (1) 
InChI=1S/C21H37O6P.K/c1-2-3-4-5-6-7-8-9-10-11-12-13-14-15-16-17-21-25-18-20(27-21)19-26-28(22,23)24;/h2-3,5-6,8-9,20-21H,4,7,10-19H2,1H3,(H2,22,23,24);/q;+1/p-1/b3-2+,6-5+,9-8+;

>  <IUPAC Name>  (1) 
potassium;[2-[(9E,12E,15E)-heptadeca-9,12,15-trienyl]-1,3-dioxolan-4-yl]methyl hydrogen phosphate

$$$$
