
     RDKit          3D

 25 24  0  0  0  0  0  0  0  0999 V2000
   -3.4165    0.5227    0.1810 C   0  0  0  0  0  0  0  0  0  0  0  0
   -2.7294   -0.3895   -0.7777 C   0  0  0  0  0  0  0  0  0  0  0  0
   -1.2625   -0.0093   -0.9846 C   0  0  0  0  0  0  0  0  0  0  0  0
   -0.5090   -0.0733    0.3281 C   0  0  0  0  0  0  0  0  0  0  0  0
    0.9406    0.2933    0.1730 C   0  0  0  0  0  0  0  0  0  0  0  0
    1.6776   -0.6163   -0.7789 C   0  0  0  0  0  0  0  0  0  0  0  0
    3.0905   -0.1537   -0.8461 C   0  0  0  0  0  0  0  0  0  0  0  0
    3.5352    0.9415   -0.2510 C   0  0  0  0  0  0  0  0  0  0  0  0
    1.6714   -1.9385   -0.3816 O   0  0  0  0  0  0  0  0  0  0  0  0
   -4.4769    0.7415   -0.1074 H   0  0  0  0  0  0  0  0  0  0  0  0
   -2.8391    1.4793    0.2220 H   0  0  0  0  0  0  0  0  0  0  0  0
   -3.3435    0.1004    1.2042 H   0  0  0  0  0  0  0  0  0  0  0  0
   -2.7529   -1.4251   -0.3474 H   0  0  0  0  0  0  0  0  0  0  0  0
   -3.2485   -0.4685   -1.7458 H   0  0  0  0  0  0  0  0  0  0  0  0
   -0.8095   -0.7945   -1.6355 H   0  0  0  0  0  0  0  0  0  0  0  0
   -1.1844    0.9793   -1.4522 H   0  0  0  0  0  0  0  0  0  0  0  0
   -0.9451    0.6799    1.0188 H   0  0  0  0  0  0  0  0  0  0  0  0
   -0.6499   -1.0815    0.7672 H   0  0  0  0  0  0  0  0  0  0  0  0
    1.4066    0.3239    1.1564 H   0  0  0  0  0  0  0  0  0  0  0  0
    0.9661    1.3126   -0.2582 H   0  0  0  0  0  0  0  0  0  0  0  0
    1.2574   -0.5266   -1.7985 H   0  0  0  0  0  0  0  0  0  0  0  0
    3.8105   -0.7331   -1.4095 H   0  0  0  0  0  0  0  0  0  0  0  0
    4.5837    1.2711   -0.3097 H   0  0  0  0  0  0  0  0  0  0  0  0
    2.8969    1.6007    0.3428 H   0  0  0  0  0  0  0  0  0  0  0  0
    2.3305   -2.0362    0.3597 H   0  0  0  0  0  0  0  0  0  0  0  0
  1  2  1  0
  2  3  1  0
  3  4  1  0
  4  5  1  0
  5  6  1  0
  6  7  1  0
  7  8  2  0
  6  9  1  0
  1 10  1  0
  1 11  1  0
  1 12  1  0
  2 13  1  0
  2 14  1  0
  3 15  1  0
  3 16  1  0
  4 17  1  0
  4 18  1  0
  5 19  1  0
  5 20  1  0
  6 21  1  0
  7 22  1  0
  8 23  1  0
  8 24  1  0
  9 25  1  0
M  END
>  <Ligand ID>  (1) 
LIG0000620

>  <Ligand>  (1) 
1-Octen-3-Ol

>  <SMILES>  (1) 
CCCCCC(C=C)O

>  <CID>  (1) 
18827.0

>  <ChEMBL ID>  (1) 
nan

>  <InChiKey>  (1) 
VSMOENVRRABVKN-UHFFFAOYSA-N

>  <InChi>  (1) 
InChI=1S/C8H16O/c1-3-5-6-7-8(9)4-2/h4,8-9H,2-3,5-7H2,1H3

>  <IUPAC Name>  (1) 
oct-1-en-3-ol

$$$$
