
     RDKit          3D

 37 39  0  0  0  0  0  0  0  0999 V2000
   -5.2583    1.4029   -0.8730 C   0  0  0  0  0  0  0  0  0  0  0  0
   -3.9062    0.8106   -1.0444 C   0  0  0  0  0  0  0  0  0  0  0  0
   -3.4660    0.5054   -2.3177 C   0  0  0  0  0  0  0  0  0  0  0  0
   -2.2098   -0.0403   -2.4282 C   0  0  0  0  0  0  0  0  0  0  0  0
   -1.4678   -0.2572   -1.3506 N   0  0  0  0  0  0  0  0  0  0  0  0
   -1.8729    0.0328   -0.0790 C   0  0  0  0  0  0  0  0  0  0  0  0
   -3.1088    0.5728    0.0617 C   0  0  0  0  0  0  0  0  0  0  0  0
   -0.9834   -0.2419    1.0535 C   0  0  0  0  0  0  0  0  0  0  0  0
   -1.3361    0.0291    2.3597 C   0  0  0  0  0  0  0  0  0  0  0  0
   -0.4940   -0.2308    3.4327 C   0  0  0  0  0  0  0  0  0  0  0  0
    0.7437   -0.7815    3.1847 C   0  0  0  0  0  0  0  0  0  0  0  0
    1.0946   -1.0516    1.8808 C   0  0  0  0  0  0  0  0  0  0  0  0
    0.2757   -0.8021    0.7997 C   0  0  0  0  0  0  0  0  0  0  0  0
    0.5939   -1.0577   -0.4954 O   0  0  0  0  0  0  0  0  0  0  0  0
    1.7438   -1.5968   -1.0461 C   0  0  0  0  0  0  0  0  0  0  0  0
    2.9890   -0.8193   -0.7861 C   0  0  0  0  0  0  0  0  0  0  0  0
    4.0519   -1.2393   -0.2111 N   0  0  0  0  0  0  0  0  0  0  0  0
    5.0263   -0.1780   -0.1553 C   0  0  0  0  0  0  0  0  0  0  0  0
    4.2265    1.0747   -0.3831 C   0  0  0  0  0  0  0  0  0  0  0  0
    3.1165    0.5469   -1.1854 N   0  0  0  0  0  0  0  0  0  0  0  0
   -5.9088    1.0028   -1.7007 H   0  0  0  0  0  0  0  0  0  0  0  0
   -5.2144    2.5130   -0.8989 H   0  0  0  0  0  0  0  0  0  0  0  0
   -5.6847    1.1221    0.1025 H   0  0  0  0  0  0  0  0  0  0  0  0
   -4.0857    0.6919   -3.1603 H   0  0  0  0  0  0  0  0  0  0  0  0
   -1.7946   -0.3061   -3.3899 H   0  0  0  0  0  0  0  0  0  0  0  0
   -3.5026    0.8284    1.0122 H   0  0  0  0  0  0  0  0  0  0  0  0
   -2.2852    0.4550    2.5893 H   0  0  0  0  0  0  0  0  0  0  0  0
   -0.7852   -0.0127    4.4500 H   0  0  0  0  0  0  0  0  0  0  0  0
    1.3942   -0.9816    4.0214 H   0  0  0  0  0  0  0  0  0  0  0  0
    2.0694   -1.4839    1.7215 H   0  0  0  0  0  0  0  0  0  0  0  0
    1.8669   -2.6209   -0.5844 H   0  0  0  0  0  0  0  0  0  0  0  0
    1.6846   -1.7916   -2.1263 H   0  0  0  0  0  0  0  0  0  0  0  0
    5.7211   -0.3359   -1.0195 H   0  0  0  0  0  0  0  0  0  0  0  0
    5.5954   -0.1498    0.8037 H   0  0  0  0  0  0  0  0  0  0  0  0
    3.8389    1.4744    0.5781 H   0  0  0  0  0  0  0  0  0  0  0  0
    4.7922    1.8656   -0.9209 H   0  0  0  0  0  0  0  0  0  0  0  0
    2.5400    1.0507   -1.8948 H   0  0  0  0  0  0  0  0  0  0  0  0
  1  2  1  0
  2  3  2  0
  3  4  1  0
  4  5  2  0
  5  6  1  0
  6  7  2  0
  6  8  1  0
  8  9  2  0
  9 10  1  0
 10 11  2  0
 11 12  1  0
 12 13  2  0
 13 14  1  0
 14 15  1  0
 15 16  1  0
 16 17  2  0
 17 18  1  0
 18 19  1  0
 19 20  1  0
  7  2  1  0
 13  8  1  0
 20 16  1  0
  1 21  1  0
  1 22  1  0
  1 23  1  0
  3 24  1  0
  4 25  1  0
  7 26  1  0
  9 27  1  0
 10 28  1  0
 11 29  1  0
 12 30  1  0
 15 31  1  0
 15 32  1  0
 18 33  1  0
 18 34  1  0
 19 35  1  0
 19 36  1  0
 20 37  1  0
M  END
>  <Ligand ID>  (1) 
LIG0003784

>  <Ligand>  (1) 
CHEMBL344294

>  <SMILES>  (1) 
Cc1ccnc(c1)c1ccccc1OCC1=NCCN1

>  <CID>  (1) 
44362511.0

>  <ChEMBL ID>  (1) 
nan

>  <InChiKey>  (1) 
IJAUTLCFHWJTKE-UHFFFAOYSA-N

>  <InChi>  (1) 
InChI=1S/C16H17N3O/c1-12-6-7-17-14(10-12)13-4-2-3-5-15(13)20-11-16-18-8-9-19-16/h2-7,10H,8-9,11H2,1H3,(H,18,19)

>  <IUPAC Name>  (1) 
2-[2-(4,5-dihydro-1H-imidazol-2-ylmethoxy)phenyl]-4-methylpyridine

$$$$
