
     RDKit          3D

 26 26  0  0  0  0  0  0  0  0999 V2000
    3.6832    0.1554    0.0101 C   0  0  0  0  0  0  0  0  0  0  0  0
    2.2128   -0.1229   -0.0741 C   0  0  0  0  0  0  0  0  0  0  0  0
    1.4936    0.3789   -1.0455 C   0  0  0  0  0  0  0  0  0  0  0  0
    0.0391    0.1723   -1.2289 C   0  0  0  0  0  0  0  0  0  0  0  0
   -0.5973   -0.6729   -0.2093 C   0  0  0  0  0  0  0  0  0  0  0  0
    0.2897   -1.1985    0.8529 C   0  0  0  0  0  0  0  0  0  0  0  0
    1.5825   -0.9599    0.9362 C   0  0  0  0  0  0  0  0  0  0  0  0
   -1.8280   -0.1148    0.4378 C   0  0  0  0  0  0  0  0  0  0  0  0
   -1.6860    1.1646    1.1645 C   0  0  0  0  0  0  0  0  0  0  0  0
   -2.9400   -0.0721   -0.6157 C   0  0  0  0  0  0  0  0  0  0  0  0
    4.1099   -0.2531    0.9296 H   0  0  0  0  0  0  0  0  0  0  0  0
    4.1400   -0.3323   -0.8922 H   0  0  0  0  0  0  0  0  0  0  0  0
    3.8589    1.2423   -0.1216 H   0  0  0  0  0  0  0  0  0  0  0  0
    1.9983    0.9983   -1.7806 H   0  0  0  0  0  0  0  0  0  0  0  0
   -0.0379   -0.2530   -2.2763 H   0  0  0  0  0  0  0  0  0  0  0  0
   -0.4131    1.1852   -1.3499 H   0  0  0  0  0  0  0  0  0  0  0  0
   -0.9599   -1.6064   -0.7389 H   0  0  0  0  0  0  0  0  0  0  0  0
   -0.1689   -1.8212    1.6080 H   0  0  0  0  0  0  0  0  0  0  0  0
    2.1447   -1.3996    1.7648 H   0  0  0  0  0  0  0  0  0  0  0  0
   -2.1565   -0.8780    1.1775 H   0  0  0  0  0  0  0  0  0  0  0  0
   -2.5976    1.7816    0.9555 H   0  0  0  0  0  0  0  0  0  0  0  0
   -0.8131    1.7854    0.9125 H   0  0  0  0  0  0  0  0  0  0  0  0
   -1.6771    1.0654    2.2793 H   0  0  0  0  0  0  0  0  0  0  0  0
   -2.6697   -0.7181   -1.4726 H   0  0  0  0  0  0  0  0  0  0  0  0
   -3.1049    0.9462   -1.0136 H   0  0  0  0  0  0  0  0  0  0  0  0
   -3.9027   -0.4729   -0.2096 H   0  0  0  0  0  0  0  0  0  0  0  0
  1  2  1  0
  2  3  2  0
  3  4  1  0
  4  5  1  0
  5  6  1  0
  6  7  2  0
  5  8  1  0
  8  9  1  0
  8 10  1  0
  7  2  1  0
  1 11  1  0
  1 12  1  0
  1 13  1  0
  3 14  1  0
  4 15  1  0
  4 16  1  0
  5 17  1  0
  6 18  1  0
  7 19  1  0
  8 20  1  0
  9 21  1  0
  9 22  1  0
  9 23  1  0
 10 24  1  0
 10 25  1  0
 10 26  1  0
M  END
>  <Ligand ID>  (1) 
LIG0001032

>  <Ligand>  (1) 
alpha-PHELLANDRENE

>  <SMILES>  (1) 
CC1=CCC(C=C1)C(C)C

>  <CID>  (1) 
7460.0

>  <ChEMBL ID>  (1) 
nan

>  <InChiKey>  (1) 
OGLDWXZKYODSOB-UHFFFAOYSA-N

>  <InChi>  (1) 
InChI=1S/C10H16/c1-8(2)10-6-4-9(3)5-7-10/h4-6,8,10H,7H2,1-3H3

>  <IUPAC Name>  (1) 
2-methyl-5-propan-2-ylcyclohexa-1,3-diene

$$$$
