
     RDKit          3D

 26 26  0  0  0  0  0  0  0  0999 V2000
   -2.4755   -0.8650    0.9591 C   0  0  0  0  0  0  0  0  0  0  0  0
   -2.1357    0.5615    0.5730 C   0  0  1  0  0  0  0  0  0  0  0  0
   -1.2769    0.6399   -0.6594 C   0  0  0  0  0  0  0  0  0  0  0  0
    0.0197   -0.0347   -0.5658 C   0  0  0  0  0  0  0  0  0  0  0  0
    0.2262   -1.3578   -0.9098 C   0  0  0  0  0  0  0  0  0  0  0  0
    1.4738   -1.9530   -0.8037 C   0  0  0  0  0  0  0  0  0  0  0  0
    2.5621   -1.2252   -0.3431 C   0  0  0  0  0  0  0  0  0  0  0  0
    2.3775    0.0893    0.0032 C   0  0  0  0  0  0  0  0  0  0  0  0
    1.1272    0.6732   -0.1068 C   0  0  0  0  0  0  0  0  0  0  0  0
    3.5175    0.9032    0.5010 C   0  0  0  0  0  0  0  0  0  0  0  0
    3.9150    0.4150    1.7351 F   0  0  0  0  0  0  0  0  0  0  0  0
    4.5950    0.8663   -0.3640 F   0  0  0  0  0  0  0  0  0  0  0  0
    3.1390    2.2147    0.6551 F   0  0  0  0  0  0  0  0  0  0  0  0
   -3.3893    1.2247    0.2534 N   0  0  0  0  0  0  0  0  0  0  0  0
   -1.6894   -1.1693    1.7065 H   0  0  0  0  0  0  0  0  0  0  0  0
   -3.4363   -0.9302    1.5090 H   0  0  0  0  0  0  0  0  0  0  0  0
   -2.5286   -1.5368    0.1029 H   0  0  0  0  0  0  0  0  0  0  0  0
   -1.6810    1.1157    1.4133 H   0  0  0  0  0  0  0  0  0  0  0  0
   -1.8673    0.2958   -1.5330 H   0  0  0  0  0  0  0  0  0  0  0  0
   -1.0860    1.7231   -0.8259 H   0  0  0  0  0  0  0  0  0  0  0  0
   -0.6072   -1.9520   -1.2734 H   0  0  0  0  0  0  0  0  0  0  0  0
    1.6330   -3.0067   -1.0788 H   0  0  0  0  0  0  0  0  0  0  0  0
    3.5521   -1.6716   -0.2513 H   0  0  0  0  0  0  0  0  0  0  0  0
    0.9760    1.7150    0.1666 H   0  0  0  0  0  0  0  0  0  0  0  0
   -3.5933    1.0104   -0.7501 H   0  0  0  0  0  0  0  0  0  0  0  0
   -3.3475    2.2545    0.3334 H   0  0  0  0  0  0  0  0  0  0  0  0
  1  2  1  0
  2  3  1  0
  3  4  1  0
  4  5  2  0
  5  6  1  0
  6  7  2  0
  7  8  1  0
  8  9  2  0
  8 10  1  0
 10 11  1  0
 10 12  1  0
 10 13  1  0
  2 14  1  0
  9  4  1  0
  1 15  1  0
  1 16  1  0
  1 17  1  0
  2 18  1  1
  3 19  1  0
  3 20  1  0
  5 21  1  0
  6 22  1  0
  7 23  1  0
  9 24  1  0
 14 25  1  0
 14 26  1  0
M  END
>  <Ligand ID>  (1) 
LIG0002138

>  <Ligand>  (1) 
(+)-norfenfluramine

>  <SMILES>  (1) 
C[C@@H](Cc1cccc(c1)C(F)(F)F)N

>  <CID>  (1) 
9815618.0

>  <ChEMBL ID>  (1) 
nan

>  <InChiKey>  (1) 
MLBHFBKZUPLWBD-ZETCQYMHSA-N

>  <InChi>  (1) 
InChI=1S/C10H12F3N/c1-7(14)5-8-3-2-4-9(6-8)10(11,12)13/h2-4,6-7H,5,14H2,1H3/t7-/m0/s1

>  <IUPAC Name>  (1) 
(2S)-1-[3-(trifluoromethyl)phenyl]propan-2-amine

$$$$
