
     RDKit          3D

 68 74  0  0  0  0  0  0  0  0999 V2000
   -5.5623    4.5989   -1.3833 C   0  0  0  0  0  0  0  0  0  0  0  0
   -4.2753    4.0235   -1.5992 O   0  0  0  0  0  0  0  0  0  0  0  0
   -3.8452    3.0173   -0.7610 C   0  0  0  0  0  0  0  0  0  0  0  0
   -4.6426    2.5516    0.2946 C   0  0  0  0  0  0  0  0  0  0  0  0
   -4.1455    1.5415    1.0922 C   0  0  0  0  0  0  0  0  0  0  0  0
   -2.8797    0.9803    0.8717 C   0  0  0  0  0  0  0  0  0  0  0  0
   -2.1462    1.4472   -0.1427 C   0  0  0  0  0  0  0  0  0  0  0  0
   -2.5914    2.4528   -0.9690 C   0  0  0  0  0  0  0  0  0  0  0  0
   -1.5558    2.6474   -1.8786 O   0  0  0  0  0  0  0  0  0  0  0  0
   -0.3911    2.2924   -1.0893 C   0  0  2  0  0  0  0  0  0  0  0  0
   -0.7870    0.9861   -0.5509 C   0  0  2  0  0  0  0  0  0  0  0  0
   -1.0711   -0.0505   -1.6251 C   0  0  0  0  0  0  0  0  0  0  0  0
   -1.4235   -1.3905   -1.1148 C   0  0  0  0  0  0  0  0  0  0  0  0
   -1.2460   -1.6350    0.2573 N   0  0  0  0  0  0  0  0  0  0  0  0
   -1.1349   -0.6085    1.1876 C   0  0  0  0  0  0  0  0  0  0  0  0
   -2.3998   -0.1020    1.7671 C   0  0  0  0  0  0  0  0  0  0  0  0
   -0.1596    0.4522    0.6750 C   0  0  2  0  0  0  0  0  0  0  0  0
    0.0166    1.4885    1.7201 C   0  0  0  0  0  0  0  0  0  0  0  0
   -0.3990    2.8760    1.4215 C   0  0  0  0  0  0  0  0  0  0  0  0
   -0.3744    3.2740    0.0050 C   0  0  0  0  0  0  0  0  0  0  0  0
   -0.3389    4.4580   -0.2839 O   0  0  0  0  0  0  0  0  0  0  0  0
    1.0733   -0.2933    0.5812 N   0  0  0  0  0  0  0  0  0  0  0  0
    2.3059    0.3177    0.1750 C   0  0  0  0  0  0  0  0  0  0  0  0
    2.3458    1.5022   -0.1072 O   0  0  0  0  0  0  0  0  0  0  0  0
    3.5437   -0.4683    0.0911 C   0  0  0  0  0  0  0  0  0  0  0  0
    4.6849    0.0677   -0.2733 C   0  0  0  0  0  0  0  0  0  0  0  0
    5.9677   -0.5330   -0.4083 C   0  0  0  0  0  0  0  0  0  0  0  0
    7.0289    0.2963   -0.7982 C   0  0  0  0  0  0  0  0  0  0  0  0
    8.3108   -0.1630   -0.9619 C   0  0  0  0  0  0  0  0  0  0  0  0
    8.6305   -1.4887   -0.7483 C   0  0  0  0  0  0  0  0  0  0  0  0
    7.6199   -2.3175   -0.3689 C   0  0  0  0  0  0  0  0  0  0  0  0
    6.3045   -1.8484   -0.2007 C   0  0  0  0  0  0  0  0  0  0  0  0
    5.1399   -3.0352    0.2784 Cl  0  0  0  0  0  0  0  0  0  0  0  0
   -1.1938   -2.9871    0.6732 C   0  0  0  0  0  0  0  0  0  0  0  0
   -2.5287   -3.6993    0.5147 C   0  0  0  0  0  0  0  0  0  0  0  0
   -2.6784   -5.1159    0.8901 C   0  0  0  0  0  0  0  0  0  0  0  0
   -2.6858   -4.7219   -0.5475 C   0  0  0  0  0  0  0  0  0  0  0  0
   -5.6338    5.5301   -2.0022 H   0  0  0  0  0  0  0  0  0  0  0  0
   -6.3571    3.8852   -1.6804 H   0  0  0  0  0  0  0  0  0  0  0  0
   -5.6699    4.8836   -0.2982 H   0  0  0  0  0  0  0  0  0  0  0  0
   -5.6295    2.9861    0.4689 H   0  0  0  0  0  0  0  0  0  0  0  0
   -4.7311    1.1452    1.9275 H   0  0  0  0  0  0  0  0  0  0  0  0
    0.4204    2.4340   -1.7768 H   0  0  0  0  0  0  0  0  0  0  0  0
   -0.2513   -0.0656   -2.4020 H   0  0  0  0  0  0  0  0  0  0  0  0
   -1.9366    0.3049   -2.2390 H   0  0  0  0  0  0  0  0  0  0  0  0
   -0.7527   -2.1262   -1.6538 H   0  0  0  0  0  0  0  0  0  0  0  0
   -2.4419   -1.7383   -1.3928 H   0  0  0  0  0  0  0  0  0  0  0  0
   -0.5864   -1.0456    2.0844 H   0  0  0  0  0  0  0  0  0  0  0  0
   -2.3010    0.2312    2.8172 H   0  0  0  0  0  0  0  0  0  0  0  0
   -3.1592   -0.9127    1.6609 H   0  0  0  0  0  0  0  0  0  0  0  0
    1.0971    1.5138    2.0631 H   0  0  0  0  0  0  0  0  0  0  0  0
   -0.5170    1.1855    2.6678 H   0  0  0  0  0  0  0  0  0  0  0  0
    0.3370    3.5811    1.9190 H   0  0  0  0  0  0  0  0  0  0  0  0
   -1.3638    3.1940    1.9250 H   0  0  0  0  0  0  0  0  0  0  0  0
    1.1582   -1.3256    0.8010 H   0  0  0  0  0  0  0  0  0  0  0  0
    3.4989   -1.4815    0.3330 H   0  0  0  0  0  0  0  0  0  0  0  0
    4.6056    1.1496   -0.5034 H   0  0  0  0  0  0  0  0  0  0  0  0
    6.8754    1.3607   -0.9898 H   0  0  0  0  0  0  0  0  0  0  0  0
    9.0885    0.5069   -1.2595 H   0  0  0  0  0  0  0  0  0  0  0  0
    9.6347   -1.8369   -0.8790 H   0  0  0  0  0  0  0  0  0  0  0  0
    7.8682   -3.3625   -0.1998 H   0  0  0  0  0  0  0  0  0  0  0  0
   -0.4403   -3.6211    0.1391 H   0  0  0  0  0  0  0  0  0  0  0  0
   -0.9234   -3.0311    1.7380 H   0  0  0  0  0  0  0  0  0  0  0  0
   -3.4495   -3.0797    0.6963 H   0  0  0  0  0  0  0  0  0  0  0  0
   -1.8148   -5.7567    1.1786 H   0  0  0  0  0  0  0  0  0  0  0  0
   -3.6312   -5.5000    1.3219 H   0  0  0  0  0  0  0  0  0  0  0  0
   -3.6726   -4.8189   -1.0698 H   0  0  0  0  0  0  0  0  0  0  0  0
   -1.8369   -5.0029   -1.2001 H   0  0  0  0  0  0  0  0  0  0  0  0
  1  2  1  0
  2  3  1  0
  3  4  2  0
  4  5  1  0
  5  6  2  0
  6  7  1  0
  7  8  2  0
  8  9  1  0
  9 10  1  0
 10 11  1  0
 11 12  1  6
 12 13  1  0
 13 14  1  0
 14 15  1  0
 15 16  1  0
 15 17  1  0
 17 18  1  0
 18 19  1  0
 19 20  1  0
 20 21  2  0
 17 22  1  6
 22 23  1  0
 23 24  2  0
 23 25  1  0
 25 26  2  0
 26 27  1  0
 27 28  2  0
 28 29  1  0
 29 30  2  0
 30 31  1  0
 31 32  2  0
 32 33  1  0
 14 34  1  0
 34 35  1  0
 35 36  1  0
 36 37  1  0
  8  3  1  0
 20 10  1  0
 32 27  1  0
 37 35  1  0
 16  6  1  0
 11  7  1  0
 17 11  1  0
  1 38  1  0
  1 39  1  0
  1 40  1  0
  4 41  1  0
  5 42  1  0
 10 43  1  6
 12 44  1  0
 12 45  1  0
 13 46  1  0
 13 47  1  0
 15 48  1  0
 16 49  1  0
 16 50  1  0
 18 51  1  0
 18 52  1  0
 19 53  1  0
 19 54  1  0
 22 55  1  0
 25 56  1  0
 26 57  1  0
 28 58  1  0
 29 59  1  0
 30 60  1  0
 31 61  1  0
 34 62  1  0
 34 63  1  0
 35 64  1  0
 36 65  1  0
 36 66  1  0
 37 67  1  0
 37 68  1  0
M  END
>  <Ligand ID>  (1) 
LIG0004781

>  <Ligand>  (1) 
BDBM50193543

>  <SMILES>  (1) 
COc1ccc2c3c1O[C@@H]1[C@@]43CCN(C(C2)[C@@]4(CCC1=O)NC(=O)/C=C/c1ccccc1Cl)CC1CC1

>  <CID>  (1) 
44415311.0

>  <ChEMBL ID>  (1) 
nan

>  <InChiKey>  (1) 
DAGJGFYYIBDDIY-WMZOMSSISA-N

>  <InChi>  (1) 
InChI=1S/C30H31ClN2O4/c1-36-23-10-8-20-16-24-30(32-25(35)11-9-19-4-2-3-5-21(19)31)13-12-22(34)28-29(30,26(20)27(23)37-28)14-15-33(24)17-18-6-7-18/h2-5,8-11,18,24,28H,6-7,12-17H2,1H3,(H,32,35)/b11-9+/t24?,28-,29-,30+/m0/s1

>  <IUPAC Name>  (1) 
(E)-N-[(4aS,7aR,12bR)-3-(cyclopropylmethyl)-9-methoxy-7-oxo-2,4,5,6,7a,13-hexahydro-1H-4,12-methanobenzofuro[3,2-e]isoquinolin-4a-yl]-3-(2-chlorophenyl)prop-2-enamide

$$$$
