
     RDKit          3D

 25 25  0  0  0  0  0  0  0  0999 V2000
    0.2817    1.9712    1.0616 O   0  0  0  0  0  0  0  0  0  0  0  0
    1.0156    0.9264    0.5525 C   0  0  0  0  0  0  0  0  0  0  0  0
    2.4003    0.9513    0.6223 C   0  0  0  0  0  0  0  0  0  0  0  0
    3.1528   -0.0891    0.1162 C   0  0  0  0  0  0  0  0  0  0  0  0
    2.5107   -1.1718   -0.4690 C   0  0  0  0  0  0  0  0  0  0  0  0
    1.1246   -1.1868   -0.5336 C   0  0  0  0  0  0  0  0  0  0  0  0
    0.3577   -0.1555   -0.0329 C   0  0  0  0  0  0  0  0  0  0  0  0
   -1.1231   -0.1380   -0.0847 C   0  0  0  0  0  0  0  0  0  0  0  0
   -1.6213   -1.4204   -0.7670 C   0  0  0  0  0  0  0  0  0  0  0  0
   -1.6332    1.0345   -0.9072 C   0  0  0  0  0  0  0  0  0  0  0  0
   -1.6410   -0.0735    1.3214 C   0  0  0  0  0  0  0  0  0  0  0  0
    0.2766    2.9153    0.7083 H   0  0  0  0  0  0  0  0  0  0  0  0
    2.8736    1.8176    1.0889 H   0  0  0  0  0  0  0  0  0  0  0  0
    4.2464   -0.0829    0.1643 H   0  0  0  0  0  0  0  0  0  0  0  0
    3.0894   -2.0008   -0.8730 H   0  0  0  0  0  0  0  0  0  0  0  0
    0.6413   -2.0364   -0.9920 H   0  0  0  0  0  0  0  0  0  0  0  0
   -1.2239   -2.3025   -0.2091 H   0  0  0  0  0  0  0  0  0  0  0  0
   -1.1992   -1.4833   -1.7886 H   0  0  0  0  0  0  0  0  0  0  0  0
   -2.7222   -1.3495   -0.7321 H   0  0  0  0  0  0  0  0  0  0  0  0
   -0.9186    1.4033   -1.6491 H   0  0  0  0  0  0  0  0  0  0  0  0
   -2.5609    0.7395   -1.4543 H   0  0  0  0  0  0  0  0  0  0  0  0
   -1.9557    1.8773   -0.2369 H   0  0  0  0  0  0  0  0  0  0  0  0
   -2.5195   -0.7528    1.4079 H   0  0  0  0  0  0  0  0  0  0  0  0
   -1.9786    0.9612    1.5916 H   0  0  0  0  0  0  0  0  0  0  0  0
   -0.8734   -0.3542    2.0944 H   0  0  0  0  0  0  0  0  0  0  0  0
  1  2  1  0
  2  3  2  0
  3  4  1  0
  4  5  2  0
  5  6  1  0
  6  7  2  0
  7  8  1  0
  8  9  1  0
  8 10  1  0
  8 11  1  0
  7  2  1  0
  1 12  1  0
  3 13  1  0
  4 14  1  0
  5 15  1  0
  6 16  1  0
  9 17  1  0
  9 18  1  0
  9 19  1  0
 10 20  1  0
 10 21  1  0
 10 22  1  0
 11 23  1  0
 11 24  1  0
 11 25  1  0
M  END
>  <Ligand ID>  (1) 
LIG0000390

>  <Ligand>  (1) 
2-tert-butylphenol

>  <SMILES>  (1) 
Oc1ccccc1C(C)(C)C

>  <CID>  (1) 
6923.0

>  <ChEMBL ID>  (1) 
nan

>  <InChiKey>  (1) 
WJQOZHYUIDYNHM-UHFFFAOYSA-N

>  <InChi>  (1) 
InChI=1S/C10H14O/c1-10(2,3)8-6-4-5-7-9(8)11/h4-7,11H,1-3H3

>  <IUPAC Name>  (1) 
2-tert-butylphenol

$$$$
