
     RDKit          3D

 45 45  0  0  0  0  0  0  0  0999 V2000
   -4.2615    0.8690   -0.4400 C   0  0  0  0  0  0  0  0  0  0  0  0
   -2.9492    0.2332   -0.2193 C   0  0  0  0  0  0  0  0  0  0  0  0
   -3.0839   -1.1368    0.4562 C   0  0  0  0  0  0  0  0  0  0  0  0
   -1.6912   -1.7439    0.4057 C   0  0  0  0  0  0  0  0  0  0  0  0
   -1.3522   -2.8995   -0.1064 C   0  0  0  0  0  0  0  0  0  0  0  0
    0.1147   -3.2936   -0.0689 C   0  0  0  0  0  0  0  0  0  0  0  0
    0.8996   -2.1029    0.4475 C   0  0  0  0  0  0  0  0  0  0  0  0
    2.3792   -2.3023    0.3298 C   0  0  0  0  0  0  0  0  0  0  0  0
    3.0651   -0.9423    0.7010 C   0  0  0  0  0  0  0  0  0  0  0  0
    2.6433    0.0811   -0.3016 C   0  0  0  0  0  0  0  0  0  0  0  0
    3.0733    1.4896   -0.0005 C   0  0  0  0  0  0  0  0  0  0  0  0
    2.4001    2.5100   -0.8816 C   0  0  0  0  0  0  0  0  0  0  0  0
    1.0022    2.8847   -0.5334 C   0  0  0  0  0  0  0  0  0  0  0  0
    0.0457    1.7950   -0.3253 C   0  0  0  0  0  0  0  0  0  0  0  0
   -1.3752    2.2137    0.0158 C   0  0  0  0  0  0  0  0  0  0  0  0
   -1.8156    3.3056   -0.2330 O   0  0  0  0  0  0  0  0  0  0  0  0
   -2.1379    1.1171    0.6953 C   0  0  0  0  0  0  0  0  0  0  0  0
   -4.8178    0.4789   -1.3314 H   0  0  0  0  0  0  0  0  0  0  0  0
   -4.8872    0.6590    0.4772 H   0  0  0  0  0  0  0  0  0  0  0  0
   -4.2127    1.9880   -0.4656 H   0  0  0  0  0  0  0  0  0  0  0  0
   -2.4027    0.0656   -1.1939 H   0  0  0  0  0  0  0  0  0  0  0  0
   -3.7300   -1.8063   -0.1228 H   0  0  0  0  0  0  0  0  0  0  0  0
   -3.3486   -0.9716    1.4938 H   0  0  0  0  0  0  0  0  0  0  0  0
   -0.9417   -1.1617    0.8637 H   0  0  0  0  0  0  0  0  0  0  0  0
   -2.1169   -3.4978   -0.5184 H   0  0  0  0  0  0  0  0  0  0  0  0
    0.4142   -3.5833   -1.0857 H   0  0  0  0  0  0  0  0  0  0  0  0
    0.2194   -4.1562    0.5916 H   0  0  0  0  0  0  0  0  0  0  0  0
    0.6873   -1.9431    1.5374 H   0  0  0  0  0  0  0  0  0  0  0  0
    0.5478   -1.2601   -0.1534 H   0  0  0  0  0  0  0  0  0  0  0  0
    2.7112   -3.0817    1.0149 H   0  0  0  0  0  0  0  0  0  0  0  0
    2.6206   -2.4816   -0.7375 H   0  0  0  0  0  0  0  0  0  0  0  0
    2.7860   -0.7224    1.7263 H   0  0  0  0  0  0  0  0  0  0  0  0
    4.1492   -1.1660    0.6529 H   0  0  0  0  0  0  0  0  0  0  0  0
    3.3134   -0.1638   -1.2676 H   0  0  0  0  0  0  0  0  0  0  0  0
    1.6850   -0.0933   -0.7053 H   0  0  0  0  0  0  0  0  0  0  0  0
    2.9146    1.7477    1.0687 H   0  0  0  0  0  0  0  0  0  0  0  0
    4.1703    1.5506   -0.1437 H   0  0  0  0  0  0  0  0  0  0  0  0
    3.0215    3.4488   -0.7770 H   0  0  0  0  0  0  0  0  0  0  0  0
    2.4728    2.2580   -1.9551 H   0  0  0  0  0  0  0  0  0  0  0  0
    1.0913    3.5614    0.3780 H   0  0  0  0  0  0  0  0  0  0  0  0
    0.6788    3.6061   -1.3564 H   0  0  0  0  0  0  0  0  0  0  0  0
    0.4103    1.1999    0.5588 H   0  0  0  0  0  0  0  0  0  0  0  0
   -0.0750    1.2159   -1.2543 H   0  0  0  0  0  0  0  0  0  0  0  0
   -2.8369    1.6785    1.3988 H   0  0  0  0  0  0  0  0  0  0  0  0
   -1.4808    0.5530    1.3476 H   0  0  0  0  0  0  0  0  0  0  0  0
  1  2  1  0
  2  3  1  0
  3  4  1  0
  4  5  2  3
  5  6  1  0
  6  7  1  0
  7  8  1  0
  8  9  1  0
  9 10  1  0
 10 11  1  0
 11 12  1  0
 12 13  1  0
 13 14  1  0
 14 15  1  0
 15 16  2  0
 15 17  1  0
 17  2  1  0
  1 18  1  0
  1 19  1  0
  1 20  1  0
  2 21  1  0
  3 22  1  0
  3 23  1  0
  4 24  1  0
  5 25  1  0
  6 26  1  0
  6 27  1  0
  7 28  1  0
  7 29  1  0
  8 30  1  0
  8 31  1  0
  9 32  1  0
  9 33  1  0
 10 34  1  0
 10 35  1  0
 11 36  1  0
 11 37  1  0
 12 38  1  0
 12 39  1  0
 13 40  1  0
 13 41  1  0
 14 42  1  0
 14 43  1  0
 17 44  1  0
 17 45  1  0
M  END
>  <Ligand ID>  (1) 
LIG0000737

>  <Ligand>  (1) 
3-methylcyclopentadec-5-en-1-one

>  <SMILES>  (1) 
CC1CC=CCCCCCCCCCC(=O)C1

>  <CID>  (1) 
54116156.0

>  <ChEMBL ID>  (1) 
nan

>  <InChiKey>  (1) 
NKMKFQCVDZVEJR-UHFFFAOYSA-N

>  <InChi>  (1) 
InChI=1S/C16H28O/c1-15-12-10-8-6-4-2-3-5-7-9-11-13-16(17)14-15/h8,10,15H,2-7,9,11-14H2,1H3

>  <IUPAC Name>  (1) 
3-methylcyclopentadec-5-en-1-one

$$$$
