
     RDKit          3D

 60 62  0  0  0  0  0  0  0  0999 V2000
    8.1517    1.3766   -0.9003 C   0  0  0  0  0  0  0  0  0  0  0  0
    7.0041    0.8196   -0.5310 C   0  0  0  0  0  0  0  0  0  0  0  0
    6.8459    0.4604    0.9157 C   0  0  0  0  0  0  0  0  0  0  0  0
    6.6173   -0.9630    0.9924 N   0  0  0  0  0  0  0  0  0  0  0  0
    5.4400   -1.6132    0.5595 C   0  0  0  0  0  0  0  0  0  0  0  0
    5.3353   -2.9947    0.6315 C   0  0  0  0  0  0  0  0  0  0  0  0
    4.1869   -3.6397    0.2265 C   0  0  0  0  0  0  0  0  0  0  0  0
    3.0850   -2.9680   -0.2682 C   0  0  0  0  0  0  0  0  0  0  0  0
    3.1825   -1.5931   -0.3419 C   0  0  0  0  0  0  0  0  0  0  0  0
    4.3305   -0.9516    0.0634 C   0  0  0  0  0  0  0  0  0  0  0  0
    2.0425   -0.7557   -0.8739 C   0  0  2  0  0  0  0  0  0  0  0  0
    0.9416   -0.8530    0.1541 C   0  0  0  0  0  0  0  0  0  0  0  0
   -0.2628   -0.1275   -0.2334 N   0  0  0  0  0  0  0  0  0  0  0  0
   -0.0186    1.2715   -0.1703 C   0  0  1  0  0  0  0  0  0  0  0  0
   -1.1426    2.0406   -0.8071 C   0  0  0  0  0  0  0  0  0  0  0  0
   -2.4122    1.7612   -0.1549 C   0  0  0  0  0  0  0  0  0  0  0  0
   -2.9877    2.5536    0.8369 C   0  0  0  0  0  0  0  0  0  0  0  0
   -4.1577    1.9679    1.2118 N   0  0  0  0  0  0  0  0  0  0  0  0
   -4.3405    0.8400    0.4950 C   0  0  0  0  0  0  0  0  0  0  0  0
   -3.2875    0.6864   -0.3505 C   0  0  0  0  0  0  0  0  0  0  0  0
   -3.2783   -0.4033   -1.1917 C   0  0  0  0  0  0  0  0  0  0  0  0
   -4.2671   -1.3496   -1.2312 C   0  0  0  0  0  0  0  0  0  0  0  0
   -5.3371   -1.1993   -0.3749 C   0  0  0  0  0  0  0  0  0  0  0  0
   -5.3460   -0.1062    0.4674 C   0  0  0  0  0  0  0  0  0  0  0  0
   -6.4123    0.1057    1.3664 O   0  0  0  0  0  0  0  0  0  0  0  0
   -7.7149    1.0427    0.7459 S   0  0  0  0  0  0  0  0  0  0  0  0
   -7.2866    1.8129   -0.4919 O   0  0  0  0  0  0  0  0  0  0  0  0
   -8.1332    2.0873    1.7427 O   0  0  0  0  0  0  0  0  0  0  0  0
   -9.0848    0.0137    0.2638 C   0  0  0  0  0  0  0  0  0  0  0  0
    0.0948    1.6639    1.3159 C   0  0  0  0  0  0  0  0  0  0  0  0
    1.5904   -1.2883   -2.0857 O   0  0  0  0  0  0  0  0  0  0  0  0
    8.9327    1.5522   -0.1448 H   0  0  0  0  0  0  0  0  0  0  0  0
    8.3392    1.6621   -1.9349 H   0  0  0  0  0  0  0  0  0  0  0  0
    6.2514    0.6503   -1.2806 H   0  0  0  0  0  0  0  0  0  0  0  0
    7.7270    0.7659    1.4981 H   0  0  0  0  0  0  0  0  0  0  0  0
    5.9104    0.9698    1.2802 H   0  0  0  0  0  0  0  0  0  0  0  0
    7.3839   -1.5426    1.3961 H   0  0  0  0  0  0  0  0  0  0  0  0
    6.1348   -3.6056    0.9992 H   0  0  0  0  0  0  0  0  0  0  0  0
    4.1421   -4.7384    0.2980 H   0  0  0  0  0  0  0  0  0  0  0  0
    2.1775   -3.4434   -0.5908 H   0  0  0  0  0  0  0  0  0  0  0  0
    4.3432    0.1201   -0.0107 H   0  0  0  0  0  0  0  0  0  0  0  0
    2.3547    0.2915   -0.9611 H   0  0  0  0  0  0  0  0  0  0  0  0
    0.6884   -1.9073    0.3782 H   0  0  0  0  0  0  0  0  0  0  0  0
    1.3823   -0.4335    1.1041 H   0  0  0  0  0  0  0  0  0  0  0  0
   -1.0156   -0.3314    0.5068 H   0  0  0  0  0  0  0  0  0  0  0  0
    0.9193    1.6133   -0.6680 H   0  0  0  0  0  0  0  0  0  0  0  0
   -0.9141    3.1359   -0.8651 H   0  0  0  0  0  0  0  0  0  0  0  0
   -1.2688    1.7468   -1.8899 H   0  0  0  0  0  0  0  0  0  0  0  0
   -2.5928    3.4776    1.2535 H   0  0  0  0  0  0  0  0  0  0  0  0
   -4.8311    2.3309    1.9499 H   0  0  0  0  0  0  0  0  0  0  0  0
   -2.4376   -0.5364   -1.8809 H   0  0  0  0  0  0  0  0  0  0  0  0
   -4.2529   -2.2155   -1.9031 H   0  0  0  0  0  0  0  0  0  0  0  0
   -6.1694   -1.9247   -0.3549 H   0  0  0  0  0  0  0  0  0  0  0  0
   -9.9153    0.2610    0.9470 H   0  0  0  0  0  0  0  0  0  0  0  0
   -8.7321   -1.0322    0.3275 H   0  0  0  0  0  0  0  0  0  0  0  0
   -9.4238    0.2353   -0.7895 H   0  0  0  0  0  0  0  0  0  0  0  0
    1.1380    1.6930    1.6225 H   0  0  0  0  0  0  0  0  0  0  0  0
   -0.3341    2.7014    1.4057 H   0  0  0  0  0  0  0  0  0  0  0  0
   -0.4147    0.9271    1.9501 H   0  0  0  0  0  0  0  0  0  0  0  0
    1.0989   -2.1212   -1.8972 H   0  0  0  0  0  0  0  0  0  0  0  0
  1  2  2  0
  2  3  1  0
  3  4  1  0
  4  5  1  0
  5  6  2  0
  6  7  1  0
  7  8  2  0
  8  9  1  0
  9 10  2  0
  9 11  1  0
 11 12  1  0
 12 13  1  0
 13 14  1  0
 14 15  1  0
 15 16  1  0
 16 17  2  0
 17 18  1  0
 18 19  1  0
 19 20  2  0
 20 21  1  0
 21 22  2  0
 22 23  1  0
 23 24  2  0
 24 25  1  0
 25 26  1  0
 26 27  2  0
 26 28  2  0
 26 29  1  0
 14 30  1  0
 11 31  1  0
 10  5  1  0
 20 16  1  0
 24 19  1  0
  1 32  1  0
  1 33  1  0
  2 34  1  0
  3 35  1  0
  3 36  1  0
  4 37  1  0
  6 38  1  0
  7 39  1  0
  8 40  1  0
 10 41  1  0
 11 42  1  6
 12 43  1  0
 12 44  1  0
 13 45  1  0
 14 46  1  6
 15 47  1  0
 15 48  1  0
 17 49  1  0
 18 50  1  0
 21 51  1  0
 22 52  1  0
 23 53  1  0
 29 54  1  0
 29 55  1  0
 29 56  1  0
 30 57  1  0
 30 58  1  0
 30 59  1  0
 31 60  1  0
M  END
>  <Ligand ID>  (1) 
LIG0005471

>  <Ligand>  (1) 
CHEMBL182689

>  <SMILES>  (1) 
C=CCNc1cccc(c1)[C@H](CN[C@@H](Cc1c[nH]c2c1cccc2OS(=O)(=O)C)C)O

>  <CID>  (1) 
44392534.0

>  <ChEMBL ID>  (1) 
nan

>  <InChiKey>  (1) 
KIBSDAKEXRNNSH-IERDGZPVSA-N

>  <InChi>  (1) 
InChI=1S/C23H29N3O4S/c1-4-11-24-19-8-5-7-17(13-19)21(27)15-25-16(2)12-18-14-26-23-20(18)9-6-10-22(23)30-31(3,28)29/h4-10,13-14,16,21,24-27H,1,11-12,15H2,2-3H3/t16-,21+/m1/s1

>  <IUPAC Name>  (1) 
[3-[(2R)-2-[[(2R)-2-hydroxy-2-[3-(prop-2-enylamino)phenyl]ethyl]amino]propyl]-1H-indol-7-yl] methanesulfonate

$$$$
