
     RDKit          3D

 50 52  0  0  0  0  0  0  0  0999 V2000
    0.8470    4.6383    0.0430 C   0  0  0  0  0  0  0  0  0  0  0  0
    0.9300    3.2378    0.2093 O   0  0  0  0  0  0  0  0  0  0  0  0
   -0.1771    2.4547    0.5736 C   0  0  0  0  0  0  0  0  0  0  0  0
   -1.3705    3.1141    0.7667 C   0  0  0  0  0  0  0  0  0  0  0  0
   -2.5222    2.4465    1.1261 C   0  0  0  0  0  0  0  0  0  0  0  0
   -2.4224    1.0803    1.2839 C   0  0  0  0  0  0  0  0  0  0  0  0
   -1.2054    0.4131    1.0863 C   0  0  0  0  0  0  0  0  0  0  0  0
   -0.0573    1.0711    0.7290 C   0  0  0  0  0  0  0  0  0  0  0  0
    1.2021    0.4896    0.5100 N   0  0  0  0  0  0  0  0  0  0  0  0
    1.5374   -0.8772    0.6133 C   0  0  0  0  0  0  0  0  0  0  0  0
    0.6711   -1.7279    0.9309 O   0  0  0  0  0  0  0  0  0  0  0  0
    2.8833   -1.3908    0.3646 C   0  0  0  0  0  0  0  0  0  0  0  0
    3.1031   -2.7523    0.4949 C   0  0  0  0  0  0  0  0  0  0  0  0
    4.3545   -3.3198    0.2756 C   0  0  0  0  0  0  0  0  0  0  0  0
    5.4451   -2.5222   -0.0884 C   0  0  0  0  0  0  0  0  0  0  0  0
    5.2041   -1.1847   -0.2105 C   0  0  0  0  0  0  0  0  0  0  0  0
    3.9499   -0.6163    0.0094 C   0  0  0  0  0  0  0  0  0  0  0  0
    6.6367   -3.1579   -0.2845 O   0  0  0  0  0  0  0  0  0  0  0  0
    7.8552   -2.6021   -0.6467 C   0  0  0  0  0  0  0  0  0  0  0  0
    8.2599   -3.2201   -1.8238 F   0  0  0  0  0  0  0  0  0  0  0  0
    8.8082   -2.9120    0.3078 F   0  0  0  0  0  0  0  0  0  0  0  0
   -3.8487    0.1688    1.7392 S   0  0  0  0  0  0  0  0  0  0  0  0
   -4.7454    1.1042    2.5202 O   0  0  0  0  0  0  0  0  0  0  0  0
   -3.4873   -0.9570    2.6614 O   0  0  0  0  0  0  0  0  0  0  0  0
   -4.7503   -0.3946    0.4048 N   0  0  0  0  0  0  0  0  0  0  0  0
   -3.9358   -1.2775   -0.3693 C   0  0  0  0  0  0  0  0  0  0  0  0
   -4.6101   -1.7336   -1.6474 C   0  0  0  0  0  0  0  0  0  0  0  0
   -5.1067   -0.6935   -2.3881 O   0  0  0  0  0  0  0  0  0  0  0  0
   -4.8594    0.5539   -1.8239 C   0  0  0  0  0  0  0  0  0  0  0  0
   -5.3078    0.6628   -0.3839 C   0  0  0  0  0  0  0  0  0  0  0  0
    0.7573    5.1989    0.9870 H   0  0  0  0  0  0  0  0  0  0  0  0
    0.0060    4.8905   -0.6517 H   0  0  0  0  0  0  0  0  0  0  0  0
    1.7820    4.9641   -0.4604 H   0  0  0  0  0  0  0  0  0  0  0  0
   -1.4115    4.1848    0.6343 H   0  0  0  0  0  0  0  0  0  0  0  0
   -3.4140    3.0120    1.2611 H   0  0  0  0  0  0  0  0  0  0  0  0
   -1.2230   -0.6334    1.2293 H   0  0  0  0  0  0  0  0  0  0  0  0
    1.9972    1.1334    0.2369 H   0  0  0  0  0  0  0  0  0  0  0  0
    2.3131   -3.4507    0.7747 H   0  0  0  0  0  0  0  0  0  0  0  0
    4.4873   -4.3883    0.3871 H   0  0  0  0  0  0  0  0  0  0  0  0
    6.0112   -0.5307   -0.4884 H   0  0  0  0  0  0  0  0  0  0  0  0
    3.8505    0.4346   -0.1077 H   0  0  0  0  0  0  0  0  0  0  0  0
    7.7485   -1.5154   -0.7660 H   0  0  0  0  0  0  0  0  0  0  0  0
   -3.7024   -2.1784    0.2292 H   0  0  0  0  0  0  0  0  0  0  0  0
   -2.9631   -0.7743   -0.6256 H   0  0  0  0  0  0  0  0  0  0  0  0
   -3.7821   -2.2005   -2.2583 H   0  0  0  0  0  0  0  0  0  0  0  0
   -5.3227   -2.5626   -1.4584 H   0  0  0  0  0  0  0  0  0  0  0  0
   -5.3338    1.3631   -2.4123 H   0  0  0  0  0  0  0  0  0  0  0  0
   -3.7615    0.6979   -1.8805 H   0  0  0  0  0  0  0  0  0  0  0  0
   -6.4154    0.6349   -0.3399 H   0  0  0  0  0  0  0  0  0  0  0  0
   -4.9047    1.6241   -0.0039 H   0  0  0  0  0  0  0  0  0  0  0  0
  1  2  1  0
  2  3  1  0
  3  4  2  0
  4  5  1  0
  5  6  2  0
  6  7  1  0
  7  8  2  0
  8  9  1  0
  9 10  1  0
 10 11  2  0
 10 12  1  0
 12 13  2  0
 13 14  1  0
 14 15  2  0
 15 16  1  0
 16 17  2  0
 15 18  1  0
 18 19  1  0
 19 20  1  0
 19 21  1  0
  6 22  1  0
 22 23  2  0
 22 24  2  0
 22 25  1  0
 25 26  1  0
 26 27  1  0
 27 28  1  0
 28 29  1  0
 29 30  1  0
  8  3  1  0
 17 12  1  0
 30 25  1  0
  1 31  1  0
  1 32  1  0
  1 33  1  0
  4 34  1  0
  5 35  1  0
  7 36  1  0
  9 37  1  0
 13 38  1  0
 14 39  1  0
 16 40  1  0
 17 41  1  0
 19 42  1  0
 26 43  1  0
 26 44  1  0
 27 45  1  0
 27 46  1  0
 29 47  1  0
 29 48  1  0
 30 49  1  0
 30 50  1  0
M  END
>  <Ligand ID>  (1) 
LIG0001997

>  <Ligand>  (1) 
MLS-0405205.0001

>  <SMILES>  (1) 
COc1ccc(cc1NC(=O)c1ccc(cc1)OC(F)F)S(=O)(=O)N1CCOCC1

>  <CID>  (1) 
4676506.0

>  <ChEMBL ID>  (1) 
nan

>  <InChiKey>  (1) 
WPWVKRXNRXHFQK-UHFFFAOYSA-N

>  <InChi>  (1) 
InChI=1S/C19H20F2N2O6S/c1-27-17-7-6-15(30(25,26)23-8-10-28-11-9-23)12-16(17)22-18(24)13-2-4-14(5-3-13)29-19(20)21/h2-7,12,19H,8-11H2,1H3,(H,22,24)

>  <IUPAC Name>  (1) 
4-(difluoromethoxy)-N-(2-methoxy-5-morpholin-4-ylsulfonylphenyl)benzamide

$$$$
