
     RDKit          3D

 58 62  0  0  0  0  0  0  0  0999 V2000
   -8.5217   -1.4302    0.9170 C   0  0  0  0  0  0  0  0  0  0  0  0
   -7.9785   -0.1070    1.4126 C   0  0  0  0  0  0  0  0  0  0  0  0
   -6.7397    0.1121    0.7784 O   0  0  0  0  0  0  0  0  0  0  0  0
   -5.5803    0.3300    1.5111 C   0  0  0  0  0  0  0  0  0  0  0  0
   -5.6452    0.3307    2.7556 O   0  0  0  0  0  0  0  0  0  0  0  0
   -4.3801    0.5401    0.7777 N   0  0  0  0  0  0  0  0  0  0  0  0
   -4.3155    0.5370   -0.6687 C   0  0  0  0  0  0  0  0  0  0  0  0
   -3.2342   -0.3338   -1.2065 C   0  0  0  0  0  0  0  0  0  0  0  0
   -1.9783    0.0530   -0.5447 N   0  0  0  0  0  0  0  0  0  0  0  0
   -1.9614    0.9173    0.6179 C   0  0  0  0  0  0  0  0  0  0  0  0
   -3.1655    0.7662    1.5031 C   0  0  0  0  0  0  0  0  0  0  0  0
   -0.7947   -0.4865   -1.1293 C   0  0  0  0  0  0  0  0  0  0  0  0
   -0.9179   -1.3599   -2.2006 C   0  0  0  0  0  0  0  0  0  0  0  0
    0.2239   -1.9071   -2.7986 C   0  0  0  0  0  0  0  0  0  0  0  0
    1.4649   -1.5719   -2.3161 C   0  0  0  0  0  0  0  0  0  0  0  0
    1.6217   -0.7075   -1.2539 C   0  0  0  0  0  0  0  0  0  0  0  0
    0.4760   -0.1906   -0.6931 C   0  0  0  0  0  0  0  0  0  0  0  0
    2.9220   -0.3302   -0.7133 C   0  0  0  0  0  0  0  0  0  0  0  0
    3.0011    0.5200    0.3246 N   0  0  0  0  0  0  0  0  0  0  0  0
    4.1687    0.9063    0.8693 C   0  0  0  0  0  0  0  0  0  0  0  0
    4.2052    1.8107    1.9720 N   0  0  0  0  0  0  0  0  0  0  0  0
    5.3366    0.4239    0.3585 N   0  0  0  0  0  0  0  0  0  0  0  0
    5.3209   -0.4336   -0.6842 C   0  0  0  0  0  0  0  0  0  0  0  0
    4.1054   -0.8103   -1.2203 C   0  0  0  0  0  0  0  0  0  0  0  0
    6.6117   -0.7473   -0.9823 N   0  0  0  0  0  0  0  0  0  0  0  0
    7.4279   -0.0817   -0.1211 C   0  0  0  0  0  0  0  0  0  0  0  0
    6.6139    0.6416    0.7052 N   0  0  0  0  0  0  0  0  0  0  0  0
    8.8891   -0.1407   -0.0981 C   0  0  0  0  0  0  0  0  0  0  0  0
    9.7279    0.9555   -0.0488 C   0  0  0  0  0  0  0  0  0  0  0  0
   11.0351    0.4528   -0.0428 C   0  0  0  0  0  0  0  0  0  0  0  0
   10.9038   -0.9244   -0.0892 C   0  0  0  0  0  0  0  0  0  0  0  0
    9.6163   -1.2206   -0.1204 O   0  0  0  0  0  0  0  0  0  0  0  0
   -8.9177    1.0062    0.9478 C   0  0  0  0  0  0  0  0  0  0  0  0
   -9.5410   -1.6264    1.2850 H   0  0  0  0  0  0  0  0  0  0  0  0
   -7.7874   -2.2029    1.2379 H   0  0  0  0  0  0  0  0  0  0  0  0
   -8.4814   -1.4242   -0.1947 H   0  0  0  0  0  0  0  0  0  0  0  0
   -7.9092   -0.0855    2.5181 H   0  0  0  0  0  0  0  0  0  0  0  0
   -4.1280    1.5910   -1.0096 H   0  0  0  0  0  0  0  0  0  0  0  0
   -5.2876    0.2568   -1.0996 H   0  0  0  0  0  0  0  0  0  0  0  0
   -3.0893   -0.0762   -2.2740 H   0  0  0  0  0  0  0  0  0  0  0  0
   -3.4747   -1.3868   -1.0169 H   0  0  0  0  0  0  0  0  0  0  0  0
   -1.0589    0.7827    1.2315 H   0  0  0  0  0  0  0  0  0  0  0  0
   -1.9048    1.9734    0.2436 H   0  0  0  0  0  0  0  0  0  0  0  0
   -3.0042    0.0090    2.2918 H   0  0  0  0  0  0  0  0  0  0  0  0
   -3.3172    1.7355    2.0580 H   0  0  0  0  0  0  0  0  0  0  0  0
   -1.8582   -1.6596   -2.6222 H   0  0  0  0  0  0  0  0  0  0  0  0
    0.1425   -2.5837   -3.6267 H   0  0  0  0  0  0  0  0  0  0  0  0
    2.3243   -2.0116   -2.8001 H   0  0  0  0  0  0  0  0  0  0  0  0
    0.6094    0.4873    0.1391 H   0  0  0  0  0  0  0  0  0  0  0  0
    3.7176    1.5878    2.8716 H   0  0  0  0  0  0  0  0  0  0  0  0
    4.7340    2.7112    1.8653 H   0  0  0  0  0  0  0  0  0  0  0  0
    4.1299   -1.4945   -2.0500 H   0  0  0  0  0  0  0  0  0  0  0  0
    9.4306    2.0071   -0.0198 H   0  0  0  0  0  0  0  0  0  0  0  0
   11.9475    1.0168   -0.0093 H   0  0  0  0  0  0  0  0  0  0  0  0
   11.6906   -1.6771   -0.1000 H   0  0  0  0  0  0  0  0  0  0  0  0
   -9.9319    0.8728    1.3796 H   0  0  0  0  0  0  0  0  0  0  0  0
   -8.5541    1.9807    1.3324 H   0  0  0  0  0  0  0  0  0  0  0  0
   -8.9395    1.0443   -0.1494 H   0  0  0  0  0  0  0  0  0  0  0  0
  1  2  1  0
  2  3  1  0
  3  4  1  0
  4  5  2  0
  4  6  1  0
  6  7  1  0
  7  8  1  0
  8  9  1  0
  9 10  1  0
 10 11  1  0
  9 12  1  0
 12 13  2  0
 13 14  1  0
 14 15  2  0
 15 16  1  0
 16 17  2  0
 16 18  1  0
 18 19  1  0
 19 20  2  0
 20 21  1  0
 20 22  1  0
 22 23  1  0
 23 24  1  0
 23 25  2  0
 25 26  1  0
 26 27  2  0
 26 28  1  0
 28 29  2  0
 29 30  1  0
 30 31  2  0
 31 32  1  0
  2 33  1  0
 11  6  1  0
 17 12  1  0
 24 18  2  0
 32 28  1  0
 27 22  1  0
  1 34  1  0
  1 35  1  0
  1 36  1  0
  2 37  1  0
  7 38  1  0
  7 39  1  0
  8 40  1  0
  8 41  1  0
 10 42  1  0
 10 43  1  0
 11 44  1  0
 11 45  1  0
 13 46  1  0
 14 47  1  0
 15 48  1  0
 17 49  1  0
 21 50  1  0
 21 51  1  0
 24 52  1  0
 29 53  1  0
 30 54  1  0
 31 55  1  0
 33 56  1  0
 33 57  1  0
 33 58  1  0
M  END
>  <Ligand ID>  (1) 
LIG0000912

>  <Ligand>  (1) 
CHEMBL426409

>  <SMILES>  (1) 
CC(OC(=O)N1CCN(CC1)c1cccc(c1)c1nc(N)n2c(c1)nc(n2)c1ccco1)C

>  <CID>  (1) 
23570367.0

>  <ChEMBL ID>  (1) 
nan

>  <InChiKey>  (1) 
XMXWLFOGYFIRKF-UHFFFAOYSA-N

>  <InChi>  (1) 
InChI=1S/C23H25N7O3/c1-15(2)33-23(31)29-10-8-28(9-11-29)17-6-3-5-16(13-17)18-14-20-26-21(19-7-4-12-32-19)27-30(20)22(24)25-18/h3-7,12-15H,8-11H2,1-2H3,(H2,24,25)

>  <IUPAC Name>  (1) 
propan-2-yl 4-[3-[5-amino-2-(furan-2-yl)-[1,2,4]triazolo[1,5-c]pyrimidin-7-yl]phenyl]piperazine-1-carboxylate

$$$$
