
     RDKit          3D

 50 52  0  0  0  0  0  0  0  0999 V2000
   -4.3905    1.6274    2.4663 N   0  0  0  0  0  0  0  0  0  0  0  0
   -4.1567    0.9690    1.5699 C   0  0  0  0  0  0  0  0  0  0  0  0
   -3.8418    0.1519    0.4601 C   0  0  0  0  0  0  0  0  0  0  0  0
   -2.4821   -0.0864    0.2264 C   0  0  0  0  0  0  0  0  0  0  0  0
   -2.0879   -0.8677   -0.8283 C   0  0  0  0  0  0  0  0  0  0  0  0
   -3.0541   -1.4029   -1.6383 C   0  0  0  0  0  0  0  0  0  0  0  0
   -4.3807   -1.1667   -1.4051 C   0  0  0  0  0  0  0  0  0  0  0  0
   -4.8301   -0.3676   -0.3298 C   0  0  0  0  0  0  0  0  0  0  0  0
   -6.1502   -0.2162   -0.2137 O   0  0  0  0  0  0  0  0  0  0  0  0
   -7.0713    0.3911    0.5624 C   0  0  0  0  0  0  0  0  0  0  0  0
   -8.0591   -0.7025    1.0438 C   0  0  0  0  0  0  0  0  0  0  0  0
   -7.9883    1.3269   -0.2669 C   0  0  0  0  0  0  0  0  0  0  0  0
   -0.6729   -1.1136   -1.0690 C   0  0  0  0  0  0  0  0  0  0  0  0
   -0.1603   -1.8322   -2.0275 O   0  0  0  0  0  0  0  0  0  0  0  0
    1.1512   -1.8304   -1.9327 N   0  0  0  0  0  0  0  0  0  0  0  0
    1.5009   -1.0817   -0.8717 C   0  0  0  0  0  0  0  0  0  0  0  0
    0.3497   -0.6367   -0.3367 N   0  0  0  0  0  0  0  0  0  0  0  0
    2.8767   -0.8480   -0.4512 C   0  0  0  0  0  0  0  0  0  0  0  0
    3.8854   -1.4320   -1.1881 C   0  0  0  0  0  0  0  0  0  0  0  0
    5.1974   -1.2307   -0.8177 C   0  0  0  0  0  0  0  0  0  0  0  0
    5.5556   -0.4548    0.2805 C   0  0  0  0  0  0  0  0  0  0  0  0
    4.5199    0.1084    0.9878 C   0  0  0  0  0  0  0  0  0  0  0  0
    3.1849   -0.0714    0.6449 C   0  0  0  0  0  0  0  0  0  0  0  0
    2.0765    0.5411    1.4145 C   0  0  0  0  0  0  0  0  0  0  0  0
    6.9836   -0.3117    0.6196 C   0  0  0  0  0  0  0  0  0  0  0  0
    7.7030    0.7426   -0.1353 C   0  0  0  0  0  0  0  0  0  0  0  0
    7.2234    2.1214    0.0072 C   0  0  0  0  0  0  0  0  0  0  0  0
    6.2759    2.5240    0.7056 O   0  0  0  0  0  0  0  0  0  0  0  0
    7.9101    3.1065   -0.7281 O   0  0  0  0  0  0  0  0  0  0  0  0
   -1.7083    0.3282    0.8556 H   0  0  0  0  0  0  0  0  0  0  0  0
   -2.7297   -2.0172   -2.4665 H   0  0  0  0  0  0  0  0  0  0  0  0
   -5.0925   -1.6219   -2.0863 H   0  0  0  0  0  0  0  0  0  0  0  0
   -6.7691    0.9947    1.4209 H   0  0  0  0  0  0  0  0  0  0  0  0
   -7.4460   -1.5996    1.2711 H   0  0  0  0  0  0  0  0  0  0  0  0
   -8.6330   -0.3500    1.9139 H   0  0  0  0  0  0  0  0  0  0  0  0
   -8.6671   -0.9586    0.1595 H   0  0  0  0  0  0  0  0  0  0  0  0
   -7.3755    1.9983   -0.9091 H   0  0  0  0  0  0  0  0  0  0  0  0
   -8.6258    1.8834    0.4285 H   0  0  0  0  0  0  0  0  0  0  0  0
   -8.6007    0.6556   -0.8862 H   0  0  0  0  0  0  0  0  0  0  0  0
    3.6917   -2.0527   -2.0600 H   0  0  0  0  0  0  0  0  0  0  0  0
    5.9888   -1.6879   -1.3943 H   0  0  0  0  0  0  0  0  0  0  0  0
    4.6994    0.7133    1.8630 H   0  0  0  0  0  0  0  0  0  0  0  0
    2.4390    1.0977    2.2953 H   0  0  0  0  0  0  0  0  0  0  0  0
    1.3842   -0.2580    1.7726 H   0  0  0  0  0  0  0  0  0  0  0  0
    1.4898    1.1759    0.7166 H   0  0  0  0  0  0  0  0  0  0  0  0
    7.1254   -0.2200    1.7211 H   0  0  0  0  0  0  0  0  0  0  0  0
    7.4672   -1.2917    0.3250 H   0  0  0  0  0  0  0  0  0  0  0  0
    7.5734    0.4958   -1.2385 H   0  0  0  0  0  0  0  0  0  0  0  0
    8.8111    0.6787   -0.0021 H   0  0  0  0  0  0  0  0  0  0  0  0
    7.9094    4.0789   -0.4490 H   0  0  0  0  0  0  0  0  0  0  0  0
  1  2  3  0
  2  3  1  0
  3  4  2  0
  4  5  1  0
  5  6  2  0
  6  7  1  0
  7  8  2  0
  8  9  1  0
  9 10  1  0
 10 11  1  0
 10 12  1  0
  5 13  1  0
 13 14  1  0
 14 15  1  0
 15 16  2  0
 16 17  1  0
 16 18  1  0
 18 19  2  0
 19 20  1  0
 20 21  2  0
 21 22  1  0
 22 23  2  0
 23 24  1  0
 21 25  1  0
 25 26  1  0
 26 27  1  0
 27 28  2  0
 27 29  1  0
  8  3  1  0
 17 13  2  0
 23 18  1  0
  4 30  1  0
  6 31  1  0
  7 32  1  0
 10 33  1  0
 11 34  1  0
 11 35  1  0
 11 36  1  0
 12 37  1  0
 12 38  1  0
 12 39  1  0
 19 40  1  0
 20 41  1  0
 22 42  1  0
 24 43  1  0
 24 44  1  0
 24 45  1  0
 25 46  1  0
 25 47  1  0
 26 48  1  0
 26 49  1  0
 29 50  1  0
M  END
>  <Ligand ID>  (1) 
LIG0001682

>  <Ligand>  (1) 
CHEMBL211505

>  <SMILES>  (1) 
N#Cc1cc(ccc1OC(C)C)c1onc(n1)c1ccc(cc1C)CCC(=O)O

>  <CID>  (1) 
11689680.0

>  <ChEMBL ID>  (1) 
nan

>  <InChiKey>  (1) 
MYXSLNKSJWBHRW-UHFFFAOYSA-N

>  <InChi>  (1) 
InChI=1S/C22H21N3O4/c1-13(2)28-19-8-6-16(11-17(19)12-23)22-24-21(25-29-22)18-7-4-15(10-14(18)3)5-9-20(26)27/h4,6-8,10-11,13H,5,9H2,1-3H3,(H,26,27)

>  <IUPAC Name>  (1) 
3-[4-[5-(3-cyano-4-propan-2-yloxyphenyl)-1,2,4-oxadiazol-3-yl]-3-methylphenyl]propanoic acid

$$$$
