
     RDKit          3D

 72 73  0  0  0  0  0  0  0  0999 V2000
   10.2121    1.0534    1.8473 O   0  0  0  0  0  0  0  0  0  0  0  0
    9.4881    1.0236    0.6570 C   0  0  0  0  0  0  0  0  0  0  0  0
    8.2126    0.2672    0.8213 C   0  0  0  0  0  0  0  0  0  0  0  0
    6.9920    0.9227    0.9275 C   0  0  0  0  0  0  0  0  0  0  0  0
    5.8285    0.1975    1.0777 C   0  0  0  0  0  0  0  0  0  0  0  0
    5.9355   -1.1870    1.1163 C   0  0  0  0  0  0  0  0  0  0  0  0
    7.1302   -1.8519    1.0133 C   0  0  0  0  0  0  0  0  0  0  0  0
    8.2836   -1.0936    0.8631 C   0  0  0  0  0  0  0  0  0  0  0  0
    9.4801   -1.8090    0.7620 O   0  0  0  0  0  0  0  0  0  0  0  0
    4.4857    0.8455    1.1984 C   0  0  2  0  0  0  0  0  0  0  0  0
    4.1227    1.3995   -0.1867 C   0  0  0  0  0  0  0  0  0  0  0  0
    2.9180    2.0816   -0.2219 N   0  0  0  0  0  0  0  0  0  0  0  0
    1.6562    1.5794   -0.0375 C   0  0  0  0  0  0  0  0  0  0  0  0
    1.0111    0.6599   -1.0695 C   0  0  0  0  0  0  0  0  0  0  0  0
    1.6512   -0.6265   -1.3188 C   0  0  0  0  0  0  0  0  0  0  0  0
    1.0495   -1.4640   -2.3777 C   0  0  0  0  0  0  0  0  0  0  0  0
   -0.3032   -1.9959   -2.3665 C   0  0  0  0  0  0  0  0  0  0  0  0
   -1.4758   -1.0845   -2.4020 C   0  0  0  0  0  0  0  0  0  0  0  0
   -2.7309   -2.0156   -2.4736 C   0  0  0  0  0  0  0  0  0  0  0  0
   -3.8911   -1.2919   -2.5248 O   0  0  0  0  0  0  0  0  0  0  0  0
   -4.1263   -0.4592   -1.4518 C   0  0  0  0  0  0  0  0  0  0  0  0
   -4.1964   -1.2016   -0.1353 C   0  0  0  0  0  0  0  0  0  0  0  0
   -4.4503   -0.2330    0.9876 C   0  0  0  0  0  0  0  0  0  0  0  0
   -5.7349    0.4610    0.7262 C   0  0  0  0  0  0  0  0  0  0  0  0
   -5.7620    1.6634    0.0191 C   0  0  0  0  0  0  0  0  0  0  0  0
   -6.9426    2.3286   -0.2449 C   0  0  0  0  0  0  0  0  0  0  0  0
   -8.1407    1.8217    0.1849 C   0  0  0  0  0  0  0  0  0  0  0  0
   -8.1495    0.6255    0.8925 C   0  0  0  0  0  0  0  0  0  0  0  0
   -6.9478   -0.0282    1.1477 C   0  0  0  0  0  0  0  0  0  0  0  0
   -9.6335   -0.0932    1.4733 S   0  0  0  0  0  0  0  0  0  0  0  0
  -10.7639    0.2637    0.5381 O   0  0  0  0  0  0  0  0  0  0  0  0
   -9.4331   -1.5887    1.5212 O   0  0  0  0  0  0  0  0  0  0  0  0
   -9.9622    0.5090    3.0490 N   0  0  0  0  0  0  0  0  0  0  0  0
    4.5864    1.8802    2.1193 O   0  0  0  0  0  0  0  0  0  0  0  0
   10.3628    0.0959    2.1216 H   0  0  0  0  0  0  0  0  0  0  0  0
    9.2747    2.0636    0.3297 H   0  0  0  0  0  0  0  0  0  0  0  0
   10.1436    0.5735   -0.1222 H   0  0  0  0  0  0  0  0  0  0  0  0
    6.9732    1.9982    0.8884 H   0  0  0  0  0  0  0  0  0  0  0  0
    5.0093   -1.7581    1.2350 H   0  0  0  0  0  0  0  0  0  0  0  0
    7.1890   -2.9332    1.0457 H   0  0  0  0  0  0  0  0  0  0  0  0
    9.5375   -2.6581    0.1880 H   0  0  0  0  0  0  0  0  0  0  0  0
    3.7758    0.1014    1.5525 H   0  0  0  0  0  0  0  0  0  0  0  0
    4.9410    2.2279   -0.2944 H   0  0  0  0  0  0  0  0  0  0  0  0
    4.4211    0.7086   -0.9622 H   0  0  0  0  0  0  0  0  0  0  0  0
    3.0035    3.0252   -0.6688 H   0  0  0  0  0  0  0  0  0  0  0  0
    0.9336    2.4705   -0.0151 H   0  0  0  0  0  0  0  0  0  0  0  0
    1.4617    1.1364    0.9940 H   0  0  0  0  0  0  0  0  0  0  0  0
    0.8747    1.2408   -2.0088 H   0  0  0  0  0  0  0  0  0  0  0  0
   -0.0353    0.4344   -0.6709 H   0  0  0  0  0  0  0  0  0  0  0  0
    2.7456   -0.5550   -1.5812 H   0  0  0  0  0  0  0  0  0  0  0  0
    1.6465   -1.2517   -0.3679 H   0  0  0  0  0  0  0  0  0  0  0  0
    1.2581   -0.9215   -3.3973 H   0  0  0  0  0  0  0  0  0  0  0  0
    1.7538   -2.3723   -2.5449 H   0  0  0  0  0  0  0  0  0  0  0  0
   -0.4421   -2.7673   -3.2130 H   0  0  0  0  0  0  0  0  0  0  0  0
   -0.4124   -2.6558   -1.4311 H   0  0  0  0  0  0  0  0  0  0  0  0
   -1.6530   -0.4915   -1.5096 H   0  0  0  0  0  0  0  0  0  0  0  0
   -1.4580   -0.4743   -3.3176 H   0  0  0  0  0  0  0  0  0  0  0  0
   -2.6689   -2.6960   -1.6119 H   0  0  0  0  0  0  0  0  0  0  0  0
   -2.6508   -2.6040   -3.4202 H   0  0  0  0  0  0  0  0  0  0  0  0
   -3.4302    0.3958   -1.3621 H   0  0  0  0  0  0  0  0  0  0  0  0
   -5.1769   -0.0525   -1.6256 H   0  0  0  0  0  0  0  0  0  0  0  0
   -3.2228   -1.6923    0.0599 H   0  0  0  0  0  0  0  0  0  0  0  0
   -4.9975   -1.9575   -0.1249 H   0  0  0  0  0  0  0  0  0  0  0  0
   -4.5008   -0.7751    1.9545 H   0  0  0  0  0  0  0  0  0  0  0  0
   -3.6532    0.5320    1.0504 H   0  0  0  0  0  0  0  0  0  0  0  0
   -4.8340    2.0792   -0.3283 H   0  0  0  0  0  0  0  0  0  0  0  0
   -6.8905    3.2656   -0.8018 H   0  0  0  0  0  0  0  0  0  0  0  0
   -9.0875    2.3149   -0.0034 H   0  0  0  0  0  0  0  0  0  0  0  0
   -6.9403   -0.9552    1.6956 H   0  0  0  0  0  0  0  0  0  0  0  0
   -9.3305    1.3122    3.2536 H   0  0  0  0  0  0  0  0  0  0  0  0
   -9.7864   -0.2430    3.7356 H   0  0  0  0  0  0  0  0  0  0  0  0
    5.4666    2.2787    2.2139 H   0  0  0  0  0  0  0  0  0  0  0  0
  1  2  1  0
  2  3  1  0
  3  4  2  0
  4  5  1  0
  5  6  2  0
  6  7  1  0
  7  8  2  0
  8  9  1  0
  5 10  1  0
 10 11  1  0
 11 12  1  0
 12 13  1  0
 13 14  1  0
 14 15  1  0
 15 16  1  0
 16 17  1  0
 17 18  1  0
 18 19  1  0
 19 20  1  0
 20 21  1  0
 21 22  1  0
 22 23  1  0
 23 24  1  0
 24 25  2  0
 25 26  1  0
 26 27  2  0
 27 28  1  0
 28 29  2  0
 28 30  1  0
 30 31  2  0
 30 32  2  0
 30 33  1  0
 10 34  1  0
  8  3  1  0
 29 24  1  0
  1 35  1  0
  2 36  1  0
  2 37  1  0
  4 38  1  0
  6 39  1  0
  7 40  1  0
  9 41  1  0
 10 42  1  1
 11 43  1  0
 11 44  1  0
 12 45  1  0
 13 46  1  0
 13 47  1  0
 14 48  1  0
 14 49  1  0
 15 50  1  0
 15 51  1  0
 16 52  1  0
 16 53  1  0
 17 54  1  0
 17 55  1  0
 18 56  1  0
 18 57  1  0
 19 58  1  0
 19 59  1  0
 21 60  1  0
 21 61  1  0
 22 62  1  0
 22 63  1  0
 23 64  1  0
 23 65  1  0
 25 66  1  0
 26 67  1  0
 27 68  1  0
 29 69  1  0
 33 70  1  0
 33 71  1  0
 34 72  1  0
M  END
>  <Ligand ID>  (1) 
LIG0002529

>  <Ligand>  (1) 
CHEMBL474616

>  <SMILES>  (1) 
OCc1cc(ccc1O)[C@H](CNCCCCCCCOCCCc1cccc(c1)S(=O)(=O)N)O

>  <CID>  (1) 
10289065.0

>  <ChEMBL ID>  (1) 
nan

>  <InChiKey>  (1) 
IYAPTCLOOXJPNX-VWLOTQADSA-N

>  <InChi>  (1) 
InChI=1S/C25H38N2O6S/c26-34(31,32)23-10-6-8-20(16-23)9-7-15-33-14-5-3-1-2-4-13-27-18-25(30)21-11-12-24(29)22(17-21)19-28/h6,8,10-12,16-17,25,27-30H,1-5,7,9,13-15,18-19H2,(H2,26,31,32)/t25-/m0/s1

>  <IUPAC Name>  (1) 
3-[3-[7-[[(2R)-2-hydroxy-2-[4-hydroxy-3-(hydroxymethyl)phenyl]ethyl]amino]heptoxy]propyl]benzenesulfonamide

$$$$
