
     RDKit          3D

127129  0  0  0  0  0  0  0  0999 V2000
    9.8698    4.9529   -1.0022 N   0  0  0  0  0  0  0  0  0  0  0  0
    9.2992    3.7158   -0.4750 C   0  0  0  0  0  0  0  0  0  0  0  0
    8.7564    2.8557   -1.5819 C   0  0  0  0  0  0  0  0  0  0  0  0
    8.1550    1.5700   -1.0639 C   0  0  1  0  0  0  0  0  0  0  0  0
    9.1516    0.7503   -0.3195 C   0  0  0  0  0  0  0  0  0  0  0  0
   10.1892    0.3875   -0.9432 O   0  0  0  0  0  0  0  0  0  0  0  0
    8.9835    0.3651    1.0394 N   0  0  0  0  0  0  0  0  0  0  0  0
   10.0586   -0.4415    1.6073 C   0  0  0  0  0  0  0  0  0  0  0  0
    9.7183   -0.7624    3.0113 C   0  0  0  0  0  0  0  0  0  0  0  0
    8.6565   -0.3719    3.5778 O   0  0  0  0  0  0  0  0  0  0  0  0
   10.6683   -1.5630    3.7330 N   0  0  0  0  0  0  0  0  0  0  0  0
    7.0642    1.8901   -0.1854 N   0  0  0  0  0  0  0  0  0  0  0  0
    5.8554    1.1156   -0.3245 C   0  0  0  0  0  0  0  0  0  0  0  0
    5.8692    0.2121   -1.1866 O   0  0  0  0  0  0  0  0  0  0  0  0
    4.7086    1.4479    0.5475 C   0  0  2  0  0  0  0  0  0  0  0  0
    5.0206    1.4912    2.0028 C   0  0  0  0  0  0  0  0  0  0  0  0
    3.7090    1.0567    2.6532 C   0  0  0  0  0  0  0  0  0  0  0  0
    3.3345   -0.0892    1.6867 C   0  0  0  0  0  0  0  0  0  0  0  0
    3.6113    0.4409    0.3931 N   0  0  0  0  0  0  0  0  0  0  0  0
    3.1279    0.1606   -0.9056 C   0  0  0  0  0  0  0  0  0  0  0  0
    3.5512    1.0031   -1.8359 O   0  0  0  0  0  0  0  0  0  0  0  0
    2.2708   -0.8571   -1.4379 C   0  0  2  0  0  0  0  0  0  0  0  0
    0.8995   -0.2082   -1.8074 C   0  0  0  0  0  0  0  0  0  0  0  0
    1.2181    1.4207   -2.5163 S   0  0  0  0  0  0  0  0  0  0  0  0
    1.5709    2.8310   -0.9287 S   0  0  0  0  0  0  0  0  0  0  0  0
   -0.0443    3.6098   -0.4657 C   0  0  0  0  0  0  0  0  0  0  0  0
   -0.9830    2.5034   -0.1594 C   0  0  2  0  0  0  0  0  0  0  0  0
   -1.3103    1.8105   -1.4018 N   0  0  0  0  0  0  0  0  0  0  0  0
   -2.1587    2.7922    0.6739 C   0  0  0  0  0  0  0  0  0  0  0  0
   -2.1004    3.3006    1.7942 O   0  0  0  0  0  0  0  0  0  0  0  0
   -3.5184    2.4982    0.2300 N   0  0  0  0  0  0  0  0  0  0  0  0
   -4.6455    2.7466    1.1608 C   0  0  1  0  0  0  0  0  0  0  0  0
   -5.5086    3.8438    0.5438 C   0  0  0  0  0  0  0  0  0  0  0  0
   -6.6188    4.2976    1.2975 C   0  0  0  0  0  0  0  0  0  0  0  0
   -7.2284    4.1729    2.4836 C   0  0  0  0  0  0  0  0  0  0  0  0
   -8.3215    4.8872    2.7740 C   0  0  0  0  0  0  0  0  0  0  0  0
   -8.8028    5.7544    1.8250 C   0  0  0  0  0  0  0  0  0  0  0  0
   -7.6493    5.5654    0.4148 S   0  0  0  0  0  0  0  0  0  0  0  0
   -5.4438    1.4755    1.2545 C   0  0  0  0  0  0  0  0  0  0  0  0
   -6.2901    1.2433    2.1284 O   0  0  0  0  0  0  0  0  0  0  0  0
   -5.2992    0.3877    0.3099 N   0  0  0  0  0  0  0  0  0  0  0  0
   -6.1313   -0.8259    0.4476 C   0  0  2  0  0  0  0  0  0  0  0  0
   -5.3804   -2.0757    0.2132 C   0  0  0  0  0  0  0  0  0  0  0  0
   -5.8426   -3.2168    0.4312 O   0  0  0  0  0  0  0  0  0  0  0  0
   -4.0345   -2.1162   -0.2985 N   0  0  0  0  0  0  0  0  0  0  0  0
   -3.3159   -3.3523   -0.5569 C   0  0  2  0  0  0  0  0  0  0  0  0
   -1.9522   -3.2227   -0.0107 C   0  0  0  0  0  0  0  0  0  0  0  0
   -1.6778   -2.2315    0.6732 O   0  0  0  0  0  0  0  0  0  0  0  0
   -0.8956   -4.1636   -0.2120 N   0  0  0  0  0  0  0  0  0  0  0  0
    0.3960   -3.7583    0.3901 C   0  0  2  0  0  0  0  0  0  0  0  0
    0.9199   -2.7829   -0.6738 C   0  0  0  0  0  0  0  0  0  0  0  0
    0.4447   -2.8168   -1.7909 O   0  0  0  0  0  0  0  0  0  0  0  0
    1.9371   -1.8394   -0.3840 N   0  0  0  0  0  0  0  0  0  0  0  0
    1.3560   -4.8785    0.5122 C   0  0  0  0  0  0  0  0  0  0  0  0
    1.6203   -5.3888   -0.8719 C   0  0  0  0  0  0  0  0  0  0  0  0
    0.8433   -6.1748   -1.4518 O   0  0  0  0  0  0  0  0  0  0  0  0
    2.8086   -4.9630   -1.5670 N   0  0  0  0  0  0  0  0  0  0  0  0
   -3.1872   -3.6420   -2.0319 C   0  0  0  0  0  0  0  0  0  0  0  0
   -4.4893   -3.7944   -2.7560 C   0  0  0  0  0  0  0  0  0  0  0  0
   -5.3400   -4.9094   -2.2840 C   0  0  0  0  0  0  0  0  0  0  0  0
   -4.8639   -5.7163   -1.4326 O   0  0  0  0  0  0  0  0  0  0  0  0
   -6.6508   -5.0183   -2.8147 N   0  0  0  0  0  0  0  0  0  0  0  0
   -7.1517   -0.8077   -0.7231 C   0  0  2  0  0  0  0  0  0  0  0  0
   -8.0395    0.3858   -0.7158 C   0  0  0  0  0  0  0  0  0  0  0  0
   -8.9018    0.5395    0.4855 C   0  0  0  0  0  0  0  0  0  0  0  0
   -7.9504   -2.1020   -0.5857 C   0  0  0  0  0  0  0  0  0  0  0  0
    9.9691    5.6877   -0.2609 H   0  0  0  0  0  0  0  0  0  0  0  0
   10.7704    4.7988   -1.4885 H   0  0  0  0  0  0  0  0  0  0  0  0
   10.1147    3.2049    0.0882 H   0  0  0  0  0  0  0  0  0  0  0  0
    8.5105    4.0185    0.2392 H   0  0  0  0  0  0  0  0  0  0  0  0
    8.0109    3.4338   -2.1577 H   0  0  0  0  0  0  0  0  0  0  0  0
    9.5866    2.6160   -2.2795 H   0  0  0  0  0  0  0  0  0  0  0  0
    7.7531    0.9685   -1.9295 H   0  0  0  0  0  0  0  0  0  0  0  0
    8.1380    0.6546    1.5715 H   0  0  0  0  0  0  0  0  0  0  0  0
   10.9913    0.1863    1.5294 H   0  0  0  0  0  0  0  0  0  0  0  0
   10.1731   -1.3698    1.0008 H   0  0  0  0  0  0  0  0  0  0  0  0
   10.7468   -1.5413    4.7767 H   0  0  0  0  0  0  0  0  0  0  0  0
   11.3294   -2.2086    3.2339 H   0  0  0  0  0  0  0  0  0  0  0  0
    7.0725    2.6330    0.5444 H   0  0  0  0  0  0  0  0  0  0  0  0
    4.3288    2.4332    0.1863 H   0  0  0  0  0  0  0  0  0  0  0  0
    5.7746    0.7187    2.2982 H   0  0  0  0  0  0  0  0  0  0  0  0
    5.2953    2.4995    2.3689 H   0  0  0  0  0  0  0  0  0  0  0  0
    3.8677    0.6282    3.6775 H   0  0  0  0  0  0  0  0  0  0  0  0
    2.9236    1.8062    2.6026 H   0  0  0  0  0  0  0  0  0  0  0  0
    3.9491   -0.9582    1.9356 H   0  0  0  0  0  0  0  0  0  0  0  0
    2.2469   -0.2266    1.9179 H   0  0  0  0  0  0  0  0  0  0  0  0
    2.5376   -1.3360   -2.3888 H   0  0  0  0  0  0  0  0  0  0  0  0
    0.4207   -0.0847   -0.8318 H   0  0  0  0  0  0  0  0  0  0  0  0
    0.3654   -0.7747   -2.5664 H   0  0  0  0  0  0  0  0  0  0  0  0
    0.1915    4.1125    0.5105 H   0  0  0  0  0  0  0  0  0  0  0  0
   -0.3771    4.3117   -1.2359 H   0  0  0  0  0  0  0  0  0  0  0  0
   -0.3790    1.7472    0.4539 H   0  0  0  0  0  0  0  0  0  0  0  0
   -2.0073    2.3960   -1.9312 H   0  0  0  0  0  0  0  0  0  0  0  0
   -1.7249    0.8878   -1.1354 H   0  0  0  0  0  0  0  0  0  0  0  0
   -3.5865    2.1544   -0.7043 H   0  0  0  0  0  0  0  0  0  0  0  0
   -4.2402    3.1055    2.0826 H   0  0  0  0  0  0  0  0  0  0  0  0
   -4.7878    4.7077    0.4023 H   0  0  0  0  0  0  0  0  0  0  0  0
   -5.7712    3.5688   -0.5100 H   0  0  0  0  0  0  0  0  0  0  0  0
   -6.7994    3.4760    3.2617 H   0  0  0  0  0  0  0  0  0  0  0  0
   -8.8586    4.8127    3.7481 H   0  0  0  0  0  0  0  0  0  0  0  0
   -9.6573    6.4332    1.8136 H   0  0  0  0  0  0  0  0  0  0  0  0
   -4.6147    0.5379   -0.4116 H   0  0  0  0  0  0  0  0  0  0  0  0
   -6.6855   -0.8330    1.3720 H   0  0  0  0  0  0  0  0  0  0  0  0
   -3.6243   -1.1983   -0.4609 H   0  0  0  0  0  0  0  0  0  0  0  0
   -3.8360   -4.1657   -0.0785 H   0  0  0  0  0  0  0  0  0  0  0  0
   -1.0975   -4.9894   -0.7187 H   0  0  0  0  0  0  0  0  0  0  0  0
    0.2631   -3.0902    1.2517 H   0  0  0  0  0  0  0  0  0  0  0  0
    2.3766   -1.9322    0.5098 H   0  0  0  0  0  0  0  0  0  0  0  0
    2.3142   -4.5812    0.9272 H   0  0  0  0  0  0  0  0  0  0  0  0
    0.8810   -5.6702    1.1373 H   0  0  0  0  0  0  0  0  0  0  0  0
    2.7932   -4.7051   -2.5812 H   0  0  0  0  0  0  0  0  0  0  0  0
    3.7074   -4.9151   -1.0377 H   0  0  0  0  0  0  0  0  0  0  0  0
   -2.6575   -4.6362   -2.1013 H   0  0  0  0  0  0  0  0  0  0  0  0
   -2.4789   -2.9680   -2.5623 H   0  0  0  0  0  0  0  0  0  0  0  0
   -4.3306   -3.9954   -3.8570 H   0  0  0  0  0  0  0  0  0  0  0  0
   -5.0633   -2.8238   -2.7878 H   0  0  0  0  0  0  0  0  0  0  0  0
   -6.8655   -4.6855   -3.7683 H   0  0  0  0  0  0  0  0  0  0  0  0
   -7.3678   -5.4580   -2.1777 H   0  0  0  0  0  0  0  0  0  0  0  0
   -6.5761   -0.8606   -1.6492 H   0  0  0  0  0  0  0  0  0  0  0  0
   -8.6961    0.2897   -1.6302 H   0  0  0  0  0  0  0  0  0  0  0  0
   -7.4086    1.2922   -0.9165 H   0  0  0  0  0  0  0  0  0  0  0  0
   -9.9689    0.5175    0.1874 H   0  0  0  0  0  0  0  0  0  0  0  0
   -8.6991   -0.2675    1.2195 H   0  0  0  0  0  0  0  0  0  0  0  0
   -8.7199    1.5474    0.9150 H   0  0  0  0  0  0  0  0  0  0  0  0
   -8.9685   -1.9828   -1.0221 H   0  0  0  0  0  0  0  0  0  0  0  0
   -7.4771   -2.9199   -1.1612 H   0  0  0  0  0  0  0  0  0  0  0  0
   -7.9931   -2.3987    0.4784 H   0  0  0  0  0  0  0  0  0  0  0  0
  1  2  1  0
  2  3  1  0
  3  4  1  0
  4  5  1  0
  5  6  2  0
  5  7  1  0
  7  8  1  0
  8  9  1  0
  9 10  2  0
  9 11  1  0
  4 12  1  0
 12 13  1  0
 13 14  2  0
 13 15  1  0
 15 16  1  0
 16 17  1  0
 17 18  1  0
 18 19  1  0
 19 20  1  0
 20 21  2  0
 20 22  1  0
 22 23  1  0
 23 24  1  0
 24 25  1  0
 25 26  1  0
 26 27  1  0
 27 28  1  0
 27 29  1  0
 29 30  2  0
 29 31  1  0
 31 32  1  0
 32 33  1  0
 33 34  1  0
 34 35  2  0
 35 36  1  0
 36 37  2  0
 37 38  1  0
 32 39  1  0
 39 40  2  0
 39 41  1  0
 41 42  1  0
 42 43  1  0
 43 44  2  0
 43 45  1  0
 45 46  1  0
 46 47  1  0
 47 48  2  0
 47 49  1  0
 49 50  1  0
 50 51  1  0
 51 52  2  0
 51 53  1  0
 50 54  1  0
 54 55  1  0
 55 56  2  0
 55 57  1  0
 46 58  1  0
 58 59  1  0
 59 60  1  0
 60 61  2  0
 60 62  1  0
 42 63  1  0
 63 64  1  0
 64 65  1  0
 63 66  1  0
 19 15  1  0
 53 22  1  0
 38 34  1  0
  1 67  1  0
  1 68  1  0
  2 69  1  0
  2 70  1  0
  3 71  1  0
  3 72  1  0
  4 73  1  6
  7 74  1  0
  8 75  1  0
  8 76  1  0
 11 77  1  0
 11 78  1  0
 12 79  1  0
 15 80  1  6
 16 81  1  0
 16 82  1  0
 17 83  1  0
 17 84  1  0
 18 85  1  0
 18 86  1  0
 22 87  1  6
 23 88  1  0
 23 89  1  0
 26 90  1  0
 26 91  1  0
 27 92  1  1
 28 93  1  0
 28 94  1  0
 31 95  1  0
 32 96  1  1
 33 97  1  0
 33 98  1  0
 35 99  1  0
 36100  1  0
 37101  1  0
 41102  1  0
 42103  1  1
 45104  1  0
 46105  1  1
 49106  1  0
 50107  1  1
 53108  1  0
 54109  1  0
 54110  1  0
 57111  1  0
 57112  1  0
 58113  1  0
 58114  1  0
 59115  1  0
 59116  1  0
 62117  1  0
 62118  1  0
 63119  1  6
 64120  1  0
 64121  1  0
 65122  1  0
 65123  1  0
 65124  1  0
 66125  1  0
 66126  1  0
 66127  1  0
M  END
>  <Ligand ID>  (1) 
LIG0001613

>  <Ligand>  (1) 
CHEMBL1819548

>  <SMILES>  (1) 
NCC[C@@H](C(=O)NCC(=O)N)NC(=O)[C@@H]1CCCN1C(=O)[C@@H]1CSSC[C@H](N)C(=O)N[C@@H](Cc2cccs2)C(=O)N[C@H](C(=O)N[C@H](C(=O)N[C@H](C(=O)N1)CC(=O)N)CCC(=O)N)[C@H](CC)C

>  <CID>  (1) 
53362850.0

>  <ChEMBL ID>  (1) 
nan

>  <InChiKey>  (1) 
DNRZECHZUANLGN-DSMBUKBGSA-N

>  <InChi>  (1) 
InChI=1S/C39H61N13O11S3/c1-3-19(2)31-38(62)47-22(8-9-28(42)53)34(58)49-25(15-29(43)54)35(59)50-26(18-66-65-17-21(41)32(56)48-24(36(60)51-31)14-20-6-5-13-64-20)39(63)52-12-4-7-27(52)37(61)46-23(10-11-40)33(57)45-16-30(44)55/h5-6,13,19,21-27,31H,3-4,7-12,14-18,40-41H2,1-2H3,(H2,42,53)(H2,43,54)(H2,44,55)(H,45,57)(H,46,61)(H,47,62)(H,48,56)(H,49,58)(H,50,59)(H,51,60)/t19-,21-,22-,23-,24-,25-,26-,27-,31-/m0/s1

>  <IUPAC Name>  (1) 
(2S)-N-[(2S)-4-amino-1-[(2-amino-2-oxoethyl)amino]-1-oxobutan-2-yl]-1-[(4R,7S,10S,13S,16S,19R)-19-amino-7-(2-amino-2-oxoethyl)-10-(3-amino-3-oxopropyl)-13-[(2S)-butan-2-yl]-6,9,12,15,18-pentaoxo-16-(thiophen-2-ylmethyl)-1,2-dithia-5,8,11,14,17-pentazacycloicosane-4-carbonyl]pyrrolidine-2-carboxamide

$$$$
