
     RDKit          3D

 54 56  0  0  0  0  0  0  0  0999 V2000
   10.6504    0.0507   -0.0260 C   0  0  0  0  0  0  0  0  0  0  0  0
    9.2413    0.5190   -0.1070 C   0  0  0  0  0  0  0  0  0  0  0  0
    9.0197    1.6522   -0.5713 O   0  0  0  0  0  0  0  0  0  0  0  0
    8.2187   -0.3387    0.3449 N   0  0  0  0  0  0  0  0  0  0  0  0
    6.8344   -0.0147    0.3242 C   0  0  0  0  0  0  0  0  0  0  0  0
    6.0033   -0.2937   -0.7393 C   0  0  0  0  0  0  0  0  0  0  0  0
    4.6451    0.0427   -0.7212 C   0  0  0  0  0  0  0  0  0  0  0  0
    4.1824    0.6670    0.4145 C   0  0  0  0  0  0  0  0  0  0  0  0
    5.0099    0.9557    1.4974 C   0  0  0  0  0  0  0  0  0  0  0  0
    6.3454    0.6201    1.4687 C   0  0  0  0  0  0  0  0  0  0  0  0
    2.4622    1.1654    0.6036 S   0  0  0  0  0  0  0  0  0  0  0  0
    1.5775   -0.2385    1.3776 C   0  0  0  0  0  0  0  0  0  0  0  0
    0.1653    0.1869    1.5415 C   0  0  0  0  0  0  0  0  0  0  0  0
   -0.1229    0.7934    2.6065 O   0  0  0  0  0  0  0  0  0  0  0  0
   -0.8715   -0.0613    0.5492 C   0  0  0  0  0  0  0  0  0  0  0  0
   -0.7498   -0.7067   -0.6591 C   0  0  0  0  0  0  0  0  0  0  0  0
   -2.0306   -0.6821   -1.2234 C   0  0  0  0  0  0  0  0  0  0  0  0
   -2.8731   -0.0495   -0.3854 N   0  0  0  0  0  0  0  0  0  0  0  0
   -2.1780    0.3448    0.7208 C   0  0  0  0  0  0  0  0  0  0  0  0
   -2.7587    1.0868    1.8962 C   0  0  0  0  0  0  0  0  0  0  0  0
   -4.2664    0.2145   -0.5311 C   0  0  0  0  0  0  0  0  0  0  0  0
   -5.1171   -0.8625   -0.6618 C   0  0  0  0  0  0  0  0  0  0  0  0
   -6.4692   -0.6682   -0.8022 C   0  0  0  0  0  0  0  0  0  0  0  0
   -7.0255    0.6150   -0.8174 C   0  0  0  0  0  0  0  0  0  0  0  0
   -6.1577    1.6781   -0.6853 C   0  0  0  0  0  0  0  0  0  0  0  0
   -4.7800    1.4896   -0.5421 C   0  0  0  0  0  0  0  0  0  0  0  0
   -8.7506    0.8019   -0.9959 S   0  0  0  0  0  0  0  0  0  0  0  0
   -9.2591   -0.3988   -1.7467 O   0  0  0  0  0  0  0  0  0  0  0  0
   -9.1407    2.0329   -1.7365 O   0  0  0  0  0  0  0  0  0  0  0  0
   -9.4376    0.8007    0.6067 N   0  0  0  0  0  0  0  0  0  0  0  0
   -2.4390   -1.2535   -2.5379 C   0  0  0  0  0  0  0  0  0  0  0  0
   11.0832    0.1584   -1.0432 H   0  0  0  0  0  0  0  0  0  0  0  0
   11.2438    0.7155    0.6513 H   0  0  0  0  0  0  0  0  0  0  0  0
   10.7060   -0.9954    0.2747 H   0  0  0  0  0  0  0  0  0  0  0  0
    8.4618   -1.2926    0.7300 H   0  0  0  0  0  0  0  0  0  0  0  0
    6.4176   -0.7799   -1.5944 H   0  0  0  0  0  0  0  0  0  0  0  0
    3.9840   -0.1602   -1.5278 H   0  0  0  0  0  0  0  0  0  0  0  0
    4.6188    1.4553    2.3945 H   0  0  0  0  0  0  0  0  0  0  0  0
    6.9903    0.8422    2.3049 H   0  0  0  0  0  0  0  0  0  0  0  0
    1.6661   -1.1492    0.7160 H   0  0  0  0  0  0  0  0  0  0  0  0
    1.9990   -0.4808    2.3807 H   0  0  0  0  0  0  0  0  0  0  0  0
    0.1460   -1.1439   -1.0892 H   0  0  0  0  0  0  0  0  0  0  0  0
   -2.4873    0.5664    2.8277 H   0  0  0  0  0  0  0  0  0  0  0  0
   -2.2685    2.0817    1.9221 H   0  0  0  0  0  0  0  0  0  0  0  0
   -3.8453    1.1190    1.7999 H   0  0  0  0  0  0  0  0  0  0  0  0
   -4.7049   -1.8821   -0.6531 H   0  0  0  0  0  0  0  0  0  0  0  0
   -7.1023   -1.5506   -0.9022 H   0  0  0  0  0  0  0  0  0  0  0  0
   -6.5639    2.6788   -0.6940 H   0  0  0  0  0  0  0  0  0  0  0  0
   -4.1271    2.3279   -0.4420 H   0  0  0  0  0  0  0  0  0  0  0  0
   -8.7187    1.0816    1.3075 H   0  0  0  0  0  0  0  0  0  0  0  0
   -9.6863   -0.1955    0.8420 H   0  0  0  0  0  0  0  0  0  0  0  0
   -3.1107   -0.5538   -3.0960 H   0  0  0  0  0  0  0  0  0  0  0  0
   -3.0504   -2.1882   -2.4023 H   0  0  0  0  0  0  0  0  0  0  0  0
   -1.5794   -1.5116   -3.1690 H   0  0  0  0  0  0  0  0  0  0  0  0
  1  2  1  0
  2  3  2  0
  2  4  1  0
  4  5  1  0
  5  6  2  0
  6  7  1  0
  7  8  2  0
  8  9  1  0
  9 10  2  0
  8 11  1  0
 11 12  1  0
 12 13  1  0
 13 14  2  0
 13 15  1  0
 15 16  1  0
 16 17  2  0
 17 18  1  0
 18 19  1  0
 19 20  1  0
 18 21  1  0
 21 22  2  0
 22 23  1  0
 23 24  2  0
 24 25  1  0
 25 26  2  0
 24 27  1  0
 27 28  2  0
 27 29  2  0
 27 30  1  0
 17 31  1  0
 10  5  1  0
 19 15  2  0
 26 21  1  0
  1 32  1  0
  1 33  1  0
  1 34  1  0
  4 35  1  0
  6 36  1  0
  7 37  1  0
  9 38  1  0
 10 39  1  0
 12 40  1  0
 12 41  1  0
 16 42  1  0
 20 43  1  0
 20 44  1  0
 20 45  1  0
 22 46  1  0
 23 47  1  0
 25 48  1  0
 26 49  1  0
 30 50  1  0
 30 51  1  0
 31 52  1  0
 31 53  1  0
 31 54  1  0
M  END
>  <Ligand ID>  (1) 
LIG0003728

>  <Ligand>  (1) 
CHEMBL3561235

>  <SMILES>  (1) 
CC(=O)Nc1ccc(cc1)SCC(=O)c1cc(n(c1C)c1ccc(cc1)S(=O)(=O)N)C

>  <CID>  (1) 
32169712.0

>  <ChEMBL ID>  (1) 
nan

>  <InChiKey>  (1) 
WXLGXQNITHVMNC-UHFFFAOYSA-N

>  <InChi>  (1) 
InChI=1S/C22H23N3O4S2/c1-14-12-21(15(2)25(14)18-6-10-20(11-7-18)31(23,28)29)22(27)13-30-19-8-4-17(5-9-19)24-16(3)26/h4-12H,13H2,1-3H3,(H,24,26)(H2,23,28,29)

>  <IUPAC Name>  (1) 
N-[4-[2-[2,5-dimethyl-1-(4-sulfamoylphenyl)pyrrol-3-yl]-2-oxoethyl]sulfanylphenyl]acetamide

$$$$
