
     RDKit          3D

 51 55  0  0  0  0  0  0  0  0999 V2000
   -2.0919    1.7196    0.9090 O   0  0  0  0  0  0  0  0  0  0  0  0
   -2.2221    0.8188    0.0308 C   0  0  0  0  0  0  0  0  0  0  0  0
   -3.3317   -0.1268    0.0185 C   0  0  0  0  0  0  0  0  0  0  0  0
   -3.6019   -1.1391   -0.8488 C   0  0  0  0  0  0  0  0  0  0  0  0
   -4.7684   -1.7453   -0.4319 C   0  0  0  0  0  0  0  0  0  0  0  0
   -5.1844   -1.0745    0.6973 C   0  0  0  0  0  0  0  0  0  0  0  0
   -4.3066   -0.1022    0.9539 N   0  0  0  0  0  0  0  0  0  0  0  0
   -6.3339   -1.4392    1.3668 C   0  0  0  0  0  0  0  0  0  0  0  0
   -7.1340   -2.4880    0.9529 C   0  0  0  0  0  0  0  0  0  0  0  0
   -6.7070   -3.1634   -0.1923 C   0  0  0  0  0  0  0  0  0  0  0  0
   -5.5540   -2.7950   -0.8598 C   0  0  0  0  0  0  0  0  0  0  0  0
   -1.1870    0.7900   -0.9691 N   0  0  0  0  0  0  0  0  0  0  0  0
   -0.1689    1.7805   -0.8205 C   0  0  0  0  0  0  0  0  0  0  0  0
   -0.2109    3.0243   -1.3708 N   0  0  0  0  0  0  0  0  0  0  0  0
    0.8958    3.7129   -1.0416 C   0  0  0  0  0  0  0  0  0  0  0  0
    1.6533    2.8556   -0.2533 C   0  0  0  0  0  0  0  0  0  0  0  0
    0.9882    1.6873   -0.1318 N   0  0  0  0  0  0  0  0  0  0  0  0
    1.4509    0.5366    0.6167 C   0  0  0  0  0  0  0  0  0  0  0  0
    2.2817   -0.3930   -0.2462 C   0  0  0  0  0  0  0  0  0  0  0  0
    2.6892   -1.4985    0.5840 N   0  0  0  0  0  0  0  0  0  0  0  0
    3.6148   -1.1749    1.6151 C   0  0  0  0  0  0  0  0  0  0  0  0
    4.8071   -2.0662    1.5334 C   0  0  0  0  0  0  0  0  0  0  0  0
    4.5914   -2.9204    0.3306 C   0  0  0  0  0  0  0  0  0  0  0  0
    3.2277   -2.5992   -0.1816 C   0  0  0  0  0  0  0  0  0  0  0  0
    2.8852    3.2511    0.2717 C   0  0  0  0  0  0  0  0  0  0  0  0
    3.3638    4.5358   -0.0029 C   0  0  0  0  0  0  0  0  0  0  0  0
    2.5924    5.3865   -0.7968 C   0  0  0  0  0  0  0  0  0  0  0  0
    1.3775    4.9859   -1.3096 C   0  0  0  0  0  0  0  0  0  0  0  0
   -3.0248   -1.4282   -1.7052 H   0  0  0  0  0  0  0  0  0  0  0  0
   -4.3841    0.5686    1.7684 H   0  0  0  0  0  0  0  0  0  0  0  0
   -6.6750   -0.9152    2.2642 H   0  0  0  0  0  0  0  0  0  0  0  0
   -8.0241   -2.7582    1.4834 H   0  0  0  0  0  0  0  0  0  0  0  0
   -7.3069   -3.9955   -0.5543 H   0  0  0  0  0  0  0  0  0  0  0  0
   -5.2108   -3.3159   -1.7561 H   0  0  0  0  0  0  0  0  0  0  0  0
   -1.2047    0.0884   -1.7328 H   0  0  0  0  0  0  0  0  0  0  0  0
    0.5969   -0.0885    0.9984 H   0  0  0  0  0  0  0  0  0  0  0  0
    2.0614    0.8128    1.4878 H   0  0  0  0  0  0  0  0  0  0  0  0
    1.6384   -0.8253   -1.0542 H   0  0  0  0  0  0  0  0  0  0  0  0
    3.1314    0.1361   -0.7192 H   0  0  0  0  0  0  0  0  0  0  0  0
    3.0939   -1.4081    2.5894 H   0  0  0  0  0  0  0  0  0  0  0  0
    3.8701   -0.1001    1.6991 H   0  0  0  0  0  0  0  0  0  0  0  0
    5.7288   -1.4698    1.3717 H   0  0  0  0  0  0  0  0  0  0  0  0
    4.9201   -2.7162    2.4239 H   0  0  0  0  0  0  0  0  0  0  0  0
    4.6041   -4.0100    0.5998 H   0  0  0  0  0  0  0  0  0  0  0  0
    5.3281   -2.7021   -0.4689 H   0  0  0  0  0  0  0  0  0  0  0  0
    2.5024   -3.4352   -0.1309 H   0  0  0  0  0  0  0  0  0  0  0  0
    3.2487   -2.3115   -1.2708 H   0  0  0  0  0  0  0  0  0  0  0  0
    3.4722    2.5779    0.8862 H   0  0  0  0  0  0  0  0  0  0  0  0
    4.3036    4.8894    0.3762 H   0  0  0  0  0  0  0  0  0  0  0  0
    2.9267    6.3813   -1.0327 H   0  0  0  0  0  0  0  0  0  0  0  0
    0.7875    5.6660   -1.9284 H   0  0  0  0  0  0  0  0  0  0  0  0
  1  2  2  0
  2  3  1  0
  3  4  2  0
  4  5  1  0
  5  6  2  0
  6  7  1  0
  6  8  1  0
  8  9  2  0
  9 10  1  0
 10 11  2  0
  2 12  1  0
 12 13  1  0
 13 14  2  0
 14 15  1  0
 15 16  2  0
 16 17  1  0
 17 18  1  0
 18 19  1  0
 19 20  1  0
 20 21  1  0
 21 22  1  0
 22 23  1  0
 23 24  1  0
 16 25  1  0
 25 26  2  0
 26 27  1  0
 27 28  2  0
  7  3  1  0
 17 13  1  0
 24 20  1  0
 11  5  1  0
 28 15  1  0
  4 29  1  0
  7 30  1  0
  8 31  1  0
  9 32  1  0
 10 33  1  0
 11 34  1  0
 12 35  1  0
 18 36  1  0
 18 37  1  0
 19 38  1  0
 19 39  1  0
 21 40  1  0
 21 41  1  0
 22 42  1  0
 22 43  1  0
 23 44  1  0
 23 45  1  0
 24 46  1  0
 24 47  1  0
 25 48  1  0
 26 49  1  0
 27 50  1  0
 28 51  1  0
M  END
>  <Ligand ID>  (1) 
LIG0003088

>  <Ligand>  (1) 
CHEMBL3394005

>  <SMILES>  (1) 
O=C(c1cc2c([nH]1)cccc2)Nc1nc2c(n1CCN1CCCC1)cccc2

>  <CID>  (1) 
118725855.0

>  <ChEMBL ID>  (1) 
nan

>  <InChiKey>  (1) 
LDIAEHPRJRMEHP-UHFFFAOYSA-N

>  <InChi>  (1) 
InChI=1S/C22H23N5O/c28-21(19-15-16-7-1-2-8-17(16)23-19)25-22-24-18-9-3-4-10-20(18)27(22)14-13-26-11-5-6-12-26/h1-4,7-10,15,23H,5-6,11-14H2,(H,24,25,28)

>  <IUPAC Name>  (1) 
N-[1-(2-pyrrolidin-1-ylethyl)benzimidazol-2-yl]-1H-indole-2-carboxamide

$$$$
