
     RDKit          3D

 73 76  0  0  0  0  0  0  0  0999 V2000
   -4.3548    2.3060    1.0898 C   0  0  0  0  0  0  0  0  0  0  0  0
   -4.0171    3.7174    0.6541 C   0  0  0  0  0  0  0  0  0  0  0  0
   -4.1931    3.7838   -0.7661 N   0  0  0  0  0  0  0  0  0  0  0  0
   -2.7805    3.3950   -1.6479 S   0  0  0  0  0  0  0  0  0  0  0  0
   -3.1169    3.4590   -3.1093 O   0  0  0  0  0  0  0  0  0  0  0  0
   -1.6312    4.2928   -1.3564 O   0  0  0  0  0  0  0  0  0  0  0  0
   -2.3025    1.7534   -1.2947 C   0  0  0  0  0  0  0  0  0  0  0  0
   -2.7510    0.6743   -2.0283 C   0  0  0  0  0  0  0  0  0  0  0  0
   -2.3735   -0.6223   -1.7500 C   0  0  0  0  0  0  0  0  0  0  0  0
   -1.5073   -0.8113   -0.6827 C   0  0  0  0  0  0  0  0  0  0  0  0
   -1.0508    0.2547    0.0590 C   0  0  0  0  0  0  0  0  0  0  0  0
   -1.4322    1.5600   -0.2230 C   0  0  0  0  0  0  0  0  0  0  0  0
   -0.1317    0.0480    1.1888 C   0  0  0  0  0  0  0  0  0  0  0  0
   -0.6320   -0.1422    2.3385 O   0  0  0  0  0  0  0  0  0  0  0  0
    1.2890    0.0635    0.9818 N   0  0  0  0  0  0  0  0  0  0  0  0
    1.7893    0.2869   -0.3628 C   0  0  0  0  0  0  0  0  0  0  0  0
    2.9421   -0.6593   -0.6144 C   0  0  0  0  0  0  0  0  0  0  0  0
    3.8752   -0.5772    0.5176 N   0  0  0  0  0  0  0  0  0  0  0  0
    3.3206   -1.0366    1.7859 C   0  0  0  0  0  0  0  0  0  0  0  0
    2.1411   -0.1438    2.1283 C   0  0  0  0  0  0  0  0  0  0  0  0
    5.1951   -0.0780    0.3802 C   0  0  0  0  0  0  0  0  0  0  0  0
    6.1903   -0.2835    1.3181 C   0  0  0  0  0  0  0  0  0  0  0  0
    7.4728    0.2236    1.1749 C   0  0  0  0  0  0  0  0  0  0  0  0
    7.8147    0.9639    0.0765 C   0  0  0  0  0  0  0  0  0  0  0  0
    6.8493    1.1856   -0.8730 C   0  0  0  0  0  0  0  0  0  0  0  0
    5.5661    0.6782   -0.7293 C   0  0  0  0  0  0  0  0  0  0  0  0
   -1.1235   -2.1455   -0.4016 N   0  0  0  0  0  0  0  0  0  0  0  0
   -1.3864   -2.8163    0.8527 C   0  0  0  0  0  0  0  0  0  0  0  0
   -1.9833   -4.1632    0.5417 C   0  0  0  0  0  0  0  0  0  0  0  0
   -1.0732   -5.0241   -0.2754 C   0  0  0  0  0  0  0  0  0  0  0  0
    0.0798   -4.2096   -0.8253 C   0  0  0  0  0  0  0  0  0  0  0  0
   -0.4148   -2.9181   -1.4246 C   0  0  0  0  0  0  0  0  0  0  0  0
   -0.5652   -6.1972    0.5306 C   0  0  0  0  0  0  0  0  0  0  0  0
   -4.8543    4.9744   -1.2361 C   0  0  0  0  0  0  0  0  0  0  0  0
   -4.3866    6.2255   -0.5796 C   0  0  0  0  0  0  0  0  0  0  0  0
   -4.3305    1.6152    0.2229 H   0  0  0  0  0  0  0  0  0  0  0  0
   -5.3746    2.2242    1.5354 H   0  0  0  0  0  0  0  0  0  0  0  0
   -3.6484    1.9359    1.8621 H   0  0  0  0  0  0  0  0  0  0  0  0
   -4.6710    4.4127    1.2075 H   0  0  0  0  0  0  0  0  0  0  0  0
   -2.9564    3.9345    0.8862 H   0  0  0  0  0  0  0  0  0  0  0  0
   -3.4243    0.8245   -2.8571 H   0  0  0  0  0  0  0  0  0  0  0  0
   -2.7359   -1.4563   -2.3368 H   0  0  0  0  0  0  0  0  0  0  0  0
   -1.0881    2.4067    0.3425 H   0  0  0  0  0  0  0  0  0  0  0  0
    1.0094    0.0957   -1.1219 H   0  0  0  0  0  0  0  0  0  0  0  0
    2.1635    1.3190   -0.5008 H   0  0  0  0  0  0  0  0  0  0  0  0
    3.4478   -0.4544   -1.5572 H   0  0  0  0  0  0  0  0  0  0  0  0
    2.5472   -1.6998   -0.5851 H   0  0  0  0  0  0  0  0  0  0  0  0
    3.0175   -2.0989    1.7040 H   0  0  0  0  0  0  0  0  0  0  0  0
    4.0702   -0.8934    2.5765 H   0  0  0  0  0  0  0  0  0  0  0  0
    1.5886   -0.6475    2.9576 H   0  0  0  0  0  0  0  0  0  0  0  0
    2.5380    0.8312    2.4699 H   0  0  0  0  0  0  0  0  0  0  0  0
    6.0122   -0.8593    2.2131 H   0  0  0  0  0  0  0  0  0  0  0  0
    8.2222    0.0424    1.9278 H   0  0  0  0  0  0  0  0  0  0  0  0
    8.8186    1.3408   -0.0007 H   0  0  0  0  0  0  0  0  0  0  0  0
    7.1155    1.7751   -1.7519 H   0  0  0  0  0  0  0  0  0  0  0  0
    4.8823    0.9151   -1.5321 H   0  0  0  0  0  0  0  0  0  0  0  0
   -2.1539   -2.2357    1.4190 H   0  0  0  0  0  0  0  0  0  0  0  0
   -0.4552   -2.9804    1.4167 H   0  0  0  0  0  0  0  0  0  0  0  0
   -2.9223   -3.9884   -0.0289 H   0  0  0  0  0  0  0  0  0  0  0  0
   -2.2302   -4.7101    1.4764 H   0  0  0  0  0  0  0  0  0  0  0  0
   -1.6259   -5.4619   -1.1438 H   0  0  0  0  0  0  0  0  0  0  0  0
    0.5663   -4.8088   -1.6083 H   0  0  0  0  0  0  0  0  0  0  0  0
    0.7966   -4.0287    0.0071 H   0  0  0  0  0  0  0  0  0  0  0  0
   -1.1395   -3.1840   -2.2087 H   0  0  0  0  0  0  0  0  0  0  0  0
    0.4676   -2.3751   -1.8109 H   0  0  0  0  0  0  0  0  0  0  0  0
   -1.4233   -6.9172    0.6335 H   0  0  0  0  0  0  0  0  0  0  0  0
    0.2542   -6.7229    0.0255 H   0  0  0  0  0  0  0  0  0  0  0  0
   -0.3081   -5.8441    1.5585 H   0  0  0  0  0  0  0  0  0  0  0  0
   -5.9575    4.8968   -1.1871 H   0  0  0  0  0  0  0  0  0  0  0  0
   -4.6276    5.0476   -2.3333 H   0  0  0  0  0  0  0  0  0  0  0  0
   -3.9954    6.9552   -1.3221 H   0  0  0  0  0  0  0  0  0  0  0  0
   -3.6563    6.0442    0.2424 H   0  0  0  0  0  0  0  0  0  0  0  0
   -5.2570    6.7322   -0.1155 H   0  0  0  0  0  0  0  0  0  0  0  0
  1  2  1  0
  2  3  1  0
  3  4  1  0
  4  5  2  0
  4  6  2  0
  4  7  1  0
  7  8  2  0
  8  9  1  0
  9 10  2  0
 10 11  1  0
 11 12  2  0
 11 13  1  0
 13 14  2  0
 13 15  1  0
 15 16  1  0
 16 17  1  0
 17 18  1  0
 18 19  1  0
 19 20  1  0
 18 21  1  0
 21 22  2  0
 22 23  1  0
 23 24  2  0
 24 25  1  0
 25 26  2  0
 10 27  1  0
 27 28  1  0
 28 29  1  0
 29 30  1  0
 30 31  1  0
 31 32  1  0
 30 33  1  0
  3 34  1  0
 34 35  1  0
 12  7  1  0
 20 15  1  0
 26 21  1  0
 32 27  1  0
  1 36  1  0
  1 37  1  0
  1 38  1  0
  2 39  1  0
  2 40  1  0
  8 41  1  0
  9 42  1  0
 12 43  1  0
 16 44  1  0
 16 45  1  0
 17 46  1  0
 17 47  1  0
 19 48  1  0
 19 49  1  0
 20 50  1  0
 20 51  1  0
 22 52  1  0
 23 53  1  0
 24 54  1  0
 25 55  1  0
 26 56  1  0
 28 57  1  0
 28 58  1  0
 29 59  1  0
 29 60  1  0
 30 61  1  0
 31 62  1  0
 31 63  1  0
 32 64  1  0
 32 65  1  0
 33 66  1  0
 33 67  1  0
 33 68  1  0
 34 69  1  0
 34 70  1  0
 35 71  1  0
 35 72  1  0
 35 73  1  0
M  END
>  <Ligand ID>  (1) 
LIG0001913

>  <Ligand>  (1) 
MLS-0435530.0001

>  <SMILES>  (1) 
CCN(S(=O)(=O)c1ccc(c(c1)C(=O)N1CCN(CC1)c1ccccc1)N1CCC(CC1)C)CC

>  <CID>  (1) 
16233035.0

>  <ChEMBL ID>  (1) 
nan

>  <InChiKey>  (1) 
DXTSJXPAIJCYKQ-UHFFFAOYSA-N

>  <InChi>  (1) 
InChI=1S/C27H38N4O3S/c1-4-31(5-2)35(33,34)24-11-12-26(29-15-13-22(3)14-16-29)25(21-24)27(32)30-19-17-28(18-20-30)23-9-7-6-8-10-23/h6-12,21-22H,4-5,13-20H2,1-3H3

>  <IUPAC Name>  (1) 
N,N-diethyl-4-(4-methylpiperidin-1-yl)-3-(4-phenylpiperazine-1-carbonyl)benzenesulfonamide

$$$$
