
     RDKit          3D

 90 89  0  0  0  0  0  0  0  0999 V2000
    7.8389   -0.6585    1.8010 C   0  0  0  0  0  0  0  0  0  0  0  0
    7.4800   -1.2967    0.4874 C   0  0  0  0  0  0  0  0  0  0  0  0
    7.0584   -0.3177   -0.5731 C   0  0  0  0  0  0  0  0  0  0  0  0
    8.1796    0.6285   -0.8485 C   0  0  0  0  0  0  0  0  0  0  0  0
    7.7600    1.6275   -1.9761 C   0  0  0  0  0  0  0  0  0  0  0  0
    7.4504    0.7752   -3.1350 C   0  0  0  0  0  0  0  0  0  0  0  0
    6.3717    0.6620   -3.8242 C   0  0  0  0  0  0  0  0  0  0  0  0
    5.0667    1.3141   -3.7486 C   0  0  0  0  0  0  0  0  0  0  0  0
    4.8543    2.3698   -2.7692 C   0  0  0  0  0  0  0  0  0  0  0  0
    3.9896    2.3618   -1.7763 C   0  0  0  0  0  0  0  0  0  0  0  0
    3.1023    1.2401   -1.5246 C   0  0  0  0  0  0  0  0  0  0  0  0
    2.2664    1.3126   -0.5254 C   0  0  0  0  0  0  0  0  0  0  0  0
    1.3442    0.2372   -0.1988 C   0  0  0  0  0  0  0  0  0  0  0  0
    0.5362    0.4122    0.8319 C   0  0  0  0  0  0  0  0  0  0  0  0
   -0.4645   -0.6398    1.2619 C   0  0  2  0  0  0  0  0  0  0  0  0
    0.1117   -1.3654    2.4662 C   0  0  2  0  0  0  0  0  0  0  0  0
    0.4141   -0.5272    3.6292 C   0  0  0  0  0  0  0  0  0  0  0  0
   -0.5262    0.2739    4.3743 C   0  0  0  0  0  0  0  0  0  0  0  0
   -1.6543   -0.2645    5.1411 C   0  0  0  0  0  0  0  0  0  0  0  0
   -2.7045   -0.9605    4.4581 C   0  0  0  0  0  0  0  0  0  0  0  0
   -2.7805   -1.4202    3.3057 O   0  0  0  0  0  0  0  0  0  0  0  0
   -3.9146   -1.1847    5.2053 O   0  0  0  0  0  0  0  0  0  0  0  0
    1.3823   -1.8490    1.9840 O   0  0  0  0  0  0  0  0  0  0  0  0
   -0.6929   -1.8588   -0.0314 S   0  0  0  0  0  0  0  0  0  0  0  0
   -1.5221   -1.3153   -1.5086 C   0  0  0  0  0  0  0  0  0  0  0  0
   -2.9841   -1.0579   -1.4106 C   0  0  1  0  0  0  0  0  0  0  0  0
   -3.7016   -2.2959   -0.9639 C   0  0  0  0  0  0  0  0  0  0  0  0
   -3.2906   -3.3588   -1.4625 O   0  0  0  0  0  0  0  0  0  0  0  0
   -4.7636   -2.3124   -0.0518 N   0  0  0  0  0  0  0  0  0  0  0  0
   -5.3698   -3.5954    0.3063 C   0  0  0  0  0  0  0  0  0  0  0  0
   -4.3078   -4.4260    0.9348 C   0  0  0  0  0  0  0  0  0  0  0  0
   -4.7247   -5.5831    1.3288 O   0  0  0  0  0  0  0  0  0  0  0  0
   -3.0018   -4.0367    1.1003 O   0  0  0  0  0  0  0  0  0  0  0  0
   -3.4301    0.1471   -0.7902 N   0  0  0  0  0  0  0  0  0  0  0  0
   -4.4457    0.9854   -1.4160 C   0  0  0  0  0  0  0  0  0  0  0  0
   -4.9039    0.5736   -2.5207 O   0  0  0  0  0  0  0  0  0  0  0  0
   -4.8722    2.2261   -0.7642 C   0  0  0  0  0  0  0  0  0  0  0  0
   -6.1325    2.7839   -1.3057 C   0  0  0  0  0  0  0  0  0  0  0  0
   -7.3642    1.9539   -1.1000 C   0  0  1  0  0  0  0  0  0  0  0  0
   -8.5018    2.7114   -1.6979 C   0  0  0  0  0  0  0  0  0  0  0  0
   -9.2050    2.3406   -2.6443 O   0  0  0  0  0  0  0  0  0  0  0  0
   -8.8126    3.9629   -1.1388 O   0  0  0  0  0  0  0  0  0  0  0  0
   -7.3259    0.6677   -1.7352 N   0  0  0  0  0  0  0  0  0  0  0  0
    7.7829   -1.4591    2.6015 H   0  0  0  0  0  0  0  0  0  0  0  0
    7.1386    0.1201    2.1195 H   0  0  0  0  0  0  0  0  0  0  0  0
    8.9134   -0.3576    1.8167 H   0  0  0  0  0  0  0  0  0  0  0  0
    6.7007   -2.0815    0.6726 H   0  0  0  0  0  0  0  0  0  0  0  0
    8.4466   -1.7616    0.1209 H   0  0  0  0  0  0  0  0  0  0  0  0
    6.1519    0.2286   -0.1608 H   0  0  0  0  0  0  0  0  0  0  0  0
    6.7615   -0.9303   -1.4619 H   0  0  0  0  0  0  0  0  0  0  0  0
    9.0721    0.0729   -1.1266 H   0  0  0  0  0  0  0  0  0  0  0  0
    8.3925    1.1851    0.0912 H   0  0  0  0  0  0  0  0  0  0  0  0
    8.6928    2.1833   -2.1914 H   0  0  0  0  0  0  0  0  0  0  0  0
    6.9819    2.2649   -1.5909 H   0  0  0  0  0  0  0  0  0  0  0  0
    8.3128    0.1238   -3.4513 H   0  0  0  0  0  0  0  0  0  0  0  0
    6.4306   -0.0953   -4.6701 H   0  0  0  0  0  0  0  0  0  0  0  0
    4.2744    0.5076   -3.6526 H   0  0  0  0  0  0  0  0  0  0  0  0
    4.8049    1.7401   -4.7778 H   0  0  0  0  0  0  0  0  0  0  0  0
    5.4524    3.2904   -2.8761 H   0  0  0  0  0  0  0  0  0  0  0  0
    3.9558    3.2298   -1.1328 H   0  0  0  0  0  0  0  0  0  0  0  0
    3.0791    0.3309   -2.1081 H   0  0  0  0  0  0  0  0  0  0  0  0
    2.2681    2.2147    0.0748 H   0  0  0  0  0  0  0  0  0  0  0  0
    1.2750   -0.6913   -0.7395 H   0  0  0  0  0  0  0  0  0  0  0  0
    0.5368    1.3234    1.4345 H   0  0  0  0  0  0  0  0  0  0  0  0
   -1.4295   -0.1616    1.4878 H   0  0  0  0  0  0  0  0  0  0  0  0
   -0.4718   -2.2847    2.6252 H   0  0  0  0  0  0  0  0  0  0  0  0
    0.9510   -1.2178    4.3744 H   0  0  0  0  0  0  0  0  0  0  0  0
    1.3271    0.1158    3.3176 H   0  0  0  0  0  0  0  0  0  0  0  0
    0.1246    0.9250    5.1020 H   0  0  0  0  0  0  0  0  0  0  0  0
   -0.9553    1.1436    3.7496 H   0  0  0  0  0  0  0  0  0  0  0  0
   -2.0572    0.5660    5.8215 H   0  0  0  0  0  0  0  0  0  0  0  0
   -1.2565   -0.9987    5.9471 H   0  0  0  0  0  0  0  0  0  0  0  0
   -4.7946   -1.1959    4.6598 H   0  0  0  0  0  0  0  0  0  0  0  0
    1.9806   -1.0600    2.0187 H   0  0  0  0  0  0  0  0  0  0  0  0
   -1.0184   -0.4314   -1.9911 H   0  0  0  0  0  0  0  0  0  0  0  0
   -1.4065   -2.1389   -2.2808 H   0  0  0  0  0  0  0  0  0  0  0  0
   -3.3554   -0.9643   -2.5057 H   0  0  0  0  0  0  0  0  0  0  0  0
   -5.1226   -1.4323    0.3656 H   0  0  0  0  0  0  0  0  0  0  0  0
   -6.2272   -3.4066    0.9786 H   0  0  0  0  0  0  0  0  0  0  0  0
   -5.7145   -4.1149   -0.6158 H   0  0  0  0  0  0  0  0  0  0  0  0
   -2.3111   -4.7750    1.2775 H   0  0  0  0  0  0  0  0  0  0  0  0
   -3.1004    0.5225    0.1211 H   0  0  0  0  0  0  0  0  0  0  0  0
   -4.9763    2.0294    0.3463 H   0  0  0  0  0  0  0  0  0  0  0  0
   -4.0412    2.9926   -0.7891 H   0  0  0  0  0  0  0  0  0  0  0  0
   -6.0277    2.9045   -2.4296 H   0  0  0  0  0  0  0  0  0  0  0  0
   -6.3421    3.8009   -0.8905 H   0  0  0  0  0  0  0  0  0  0  0  0
   -7.5799    1.8169   -0.0017 H   0  0  0  0  0  0  0  0  0  0  0  0
   -9.7912    4.2315   -1.0976 H   0  0  0  0  0  0  0  0  0  0  0  0
   -7.5665   -0.1127   -1.0506 H   0  0  0  0  0  0  0  0  0  0  0  0
   -8.0711    0.5640   -2.4827 H   0  0  0  0  0  0  0  0  0  0  0  0
  1  2  1  0
  2  3  1  0
  3  4  1  0
  4  5  1  0
  5  6  1  0
  6  7  2  0
  7  8  1  0
  8  9  1  0
  9 10  2  0
 10 11  1  0
 11 12  2  0
 12 13  1  0
 13 14  2  0
 14 15  1  0
 15 16  1  0
 16 17  1  0
 17 18  1  0
 18 19  1  0
 19 20  1  0
 20 21  2  0
 20 22  1  0
 16 23  1  0
 15 24  1  0
 24 25  1  0
 25 26  1  0
 26 27  1  0
 27 28  2  0
 27 29  1  0
 29 30  1  0
 30 31  1  0
 31 32  2  0
 31 33  1  0
 26 34  1  0
 34 35  1  0
 35 36  2  0
 35 37  1  0
 37 38  1  0
 38 39  1  0
 39 40  1  0
 40 41  2  0
 40 42  1  0
 39 43  1  0
  1 44  1  0
  1 45  1  0
  1 46  1  0
  2 47  1  0
  2 48  1  0
  3 49  1  0
  3 50  1  0
  4 51  1  0
  4 52  1  0
  5 53  1  0
  5 54  1  0
  6 55  1  0
  7 56  1  0
  8 57  1  0
  8 58  1  0
  9 59  1  0
 10 60  1  0
 11 61  1  0
 12 62  1  0
 13 63  1  0
 14 64  1  0
 15 65  1  1
 16 66  1  1
 17 67  1  0
 17 68  1  0
 18 69  1  0
 18 70  1  0
 19 71  1  0
 19 72  1  0
 22 73  1  0
 23 74  1  0
 25 75  1  0
 25 76  1  0
 26 77  1  6
 29 78  1  0
 30 79  1  0
 30 80  1  0
 33 81  1  0
 34 82  1  0
 37 83  1  0
 37 84  1  0
 38 85  1  0
 38 86  1  0
 39 87  1  1
 42 88  1  0
 43 89  1  0
 43 90  1  0
M  END
>  <Ligand ID>  (1) 
LIG0004193

>  <Ligand>  (1) 
LTC4

>  <SMILES>  (1) 
CCCCC/C=C\C/C=C\C=C\C=C\[C@H]([C@H](CCCC(=O)O)O)SC[C@@H](C(=O)NCC(=O)O)NC(=O)CC[C@@H](C(=O)O)N

>  <CID>  (1) 
5280493.0

>  <ChEMBL ID>  (1) 
nan

>  <InChiKey>  (1) 
GWNVDXQDILPJIG-NXOLIXFESA-N

>  <InChi>  (1) 
InChI=1S/C30H47N3O9S/c1-2-3-4-5-6-7-8-9-10-11-12-13-16-25(24(34)15-14-17-27(36)37)43-21-23(29(40)32-20-28(38)39)33-26(35)19-18-22(31)30(41)42/h6-7,9-13,16,22-25,34H,2-5,8,14-15,17-21,31H2,1H3,(H,32,40)(H,33,35)(H,36,37)(H,38,39)(H,41,42)/b7-6-,10-9-,12-11+,16-13+/t22-,23-,24-,25+/m0/s1

>  <IUPAC Name>  (1) 
(5S,6R,7E,9E,11Z,14Z)-6-[(2R)-2-[[(4S)-4-amino-4-carboxybutanoyl]amino]-3-(carboxymethylamino)-3-oxopropyl]sulfanyl-5-hydroxyicosa-7,9,11,14-tetraenoic acid

$$$$
