
     RDKit          3D

 59 62  0  0  0  0  0  0  0  0999 V2000
    3.5876   -1.9286   -0.6532 C   0  0  0  0  0  0  0  0  0  0  0  0
    3.6490   -0.4645   -0.3965 C   0  0  2  0  0  0  0  0  0  0  0  0
    4.5066   -0.1770    0.8470 C   0  0  0  0  0  0  0  0  0  0  0  0
    4.7334    1.2573    0.8740 N   0  0  0  0  0  0  0  0  0  0  0  0
    3.6598    2.0979    0.4091 C   0  0  0  0  0  0  0  0  0  0  0  0
    2.3488    1.3335    0.6837 C   0  0  0  0  0  0  0  0  0  0  0  0
    2.3532    0.1194   -0.0662 N   0  0  0  0  0  0  0  0  0  0  0  0
    1.2107   -0.5975   -0.4962 C   0  0  0  0  0  0  0  0  0  0  0  0
    1.2828   -1.1110   -1.7636 N   0  0  0  0  0  0  0  0  0  0  0  0
    0.2716   -1.8389   -2.2526 C   0  0  0  0  0  0  0  0  0  0  0  0
   -0.8866   -2.1075   -1.5102 C   0  0  0  0  0  0  0  0  0  0  0  0
   -0.9050   -1.5687   -0.2466 C   0  0  0  0  0  0  0  0  0  0  0  0
    0.1252   -0.8328    0.2369 N   0  0  0  0  0  0  0  0  0  0  0  0
   -1.8392   -2.8477   -2.1000 O   0  0  0  0  0  0  0  0  0  0  0  0
   -3.0625   -3.3249   -1.7400 C   0  0  0  0  0  0  0  0  0  0  0  0
   -4.0739   -2.3232   -1.3321 C   0  0  0  0  0  0  0  0  0  0  0  0
   -4.4749   -2.2303   -0.0209 C   0  0  0  0  0  0  0  0  0  0  0  0
   -5.4420   -1.3354    0.3932 C   0  0  0  0  0  0  0  0  0  0  0  0
   -6.0579   -0.4845   -0.4956 C   0  0  0  0  0  0  0  0  0  0  0  0
   -5.6579   -0.5720   -1.8208 C   0  0  0  0  0  0  0  0  0  0  0  0
   -4.6797   -1.4788   -2.2356 C   0  0  0  0  0  0  0  0  0  0  0  0
   -4.3561   -1.4978   -3.5384 F   0  0  0  0  0  0  0  0  0  0  0  0
   -7.1142    0.4603   -0.0883 C   0  0  0  0  0  0  0  0  0  0  0  0
   -6.5677    2.0342    0.4516 S   0  0  0  0  0  0  0  0  0  0  0  0
   -5.9339    2.7931   -0.6599 O   0  0  0  0  0  0  0  0  0  0  0  0
   -7.8668    2.8322    0.8627 N   0  0  0  0  0  0  0  0  0  0  0  0
   -5.5158    1.9144    1.8640 C   0  0  0  0  0  0  0  0  0  0  0  0
    5.9774    1.7134    1.3642 C   0  0  0  0  0  0  0  0  0  0  0  0
    6.2982    2.3537    2.4561 O   0  0  0  0  0  0  0  0  0  0  0  0
    7.6010    2.5643    2.4844 N   0  0  0  0  0  0  0  0  0  0  0  0
    8.1616    2.0399    1.3624 C   0  0  0  0  0  0  0  0  0  0  0  0
    7.1362    1.5119    0.6720 N   0  0  0  0  0  0  0  0  0  0  0  0
    9.6050    2.0332    0.9707 C   0  0  0  0  0  0  0  0  0  0  0  0
    9.8853    0.7280    0.5596 F   0  0  0  0  0  0  0  0  0  0  0  0
    9.7903    2.8843   -0.0931 F   0  0  0  0  0  0  0  0  0  0  0  0
   10.3852    2.3857    2.0429 F   0  0  0  0  0  0  0  0  0  0  0  0
    2.6316   -2.3729   -0.3126 H   0  0  0  0  0  0  0  0  0  0  0  0
    4.4640   -2.4093   -0.1624 H   0  0  0  0  0  0  0  0  0  0  0  0
    3.6878   -2.1393   -1.7440 H   0  0  0  0  0  0  0  0  0  0  0  0
    4.1287    0.0880   -1.2199 H   0  0  0  0  0  0  0  0  0  0  0  0
    3.8627   -0.3918    1.7270 H   0  0  0  0  0  0  0  0  0  0  0  0
    5.4125   -0.7862    0.8409 H   0  0  0  0  0  0  0  0  0  0  0  0
    3.6608    3.0879    0.9063 H   0  0  0  0  0  0  0  0  0  0  0  0
    3.7306    2.1811   -0.6875 H   0  0  0  0  0  0  0  0  0  0  0  0
    2.3511    1.1424    1.7791 H   0  0  0  0  0  0  0  0  0  0  0  0
    1.5264    2.0339    0.4247 H   0  0  0  0  0  0  0  0  0  0  0  0
    0.3843   -2.2226   -3.2717 H   0  0  0  0  0  0  0  0  0  0  0  0
   -1.7324   -1.7126    0.4026 H   0  0  0  0  0  0  0  0  0  0  0  0
   -3.5184   -3.8597   -2.6351 H   0  0  0  0  0  0  0  0  0  0  0  0
   -3.0314   -4.1107   -0.9421 H   0  0  0  0  0  0  0  0  0  0  0  0
   -3.9803   -2.9111    0.6869 H   0  0  0  0  0  0  0  0  0  0  0  0
   -5.6883   -1.3448    1.4377 H   0  0  0  0  0  0  0  0  0  0  0  0
   -6.1497    0.1052   -2.5093 H   0  0  0  0  0  0  0  0  0  0  0  0
   -7.8109    0.6334   -0.9630 H   0  0  0  0  0  0  0  0  0  0  0  0
   -7.7110   -0.0571    0.6934 H   0  0  0  0  0  0  0  0  0  0  0  0
   -8.5076    3.0254    0.0841 H   0  0  0  0  0  0  0  0  0  0  0  0
   -4.5232    2.3849    1.6860 H   0  0  0  0  0  0  0  0  0  0  0  0
   -5.9981    2.4320    2.7368 H   0  0  0  0  0  0  0  0  0  0  0  0
   -5.3243    0.8682    2.1718 H   0  0  0  0  0  0  0  0  0  0  0  0
  1  2  1  0
  2  3  1  0
  3  4  1  0
  4  5  1  0
  5  6  1  0
  6  7  1  0
  7  8  1  0
  8  9  2  0
  9 10  1  0
 10 11  2  0
 11 12  1  0
 12 13  2  0
 11 14  1  0
 14 15  1  0
 15 16  1  0
 16 17  2  0
 17 18  1  0
 18 19  2  0
 19 20  1  0
 20 21  2  0
 21 22  1  0
 19 23  1  0
 23 24  1  0
 24 25  2  0
 24 26  2  0
 24 27  1  0
  4 28  1  0
 28 29  1  0
 29 30  1  0
 30 31  2  0
 31 32  1  0
 31 33  1  0
 33 34  1  0
 33 35  1  0
 33 36  1  0
  7  2  1  0
 13  8  1  0
 21 16  1  0
 32 28  2  0
  1 37  1  0
  1 38  1  0
  1 39  1  0
  2 40  1  6
  3 41  1  0
  3 42  1  0
  5 43  1  0
  5 44  1  0
  6 45  1  0
  6 46  1  0
 10 47  1  0
 12 48  1  0
 15 49  1  0
 15 50  1  0
 17 51  1  0
 18 52  1  0
 20 53  1  0
 23 54  1  0
 23 55  1  0
 26 56  1  0
 27 57  1  0
 27 58  1  0
 27 59  1  0
M  END
>  <Ligand ID>  (1) 
LIG0005269

>  <Ligand>  (1) 
CHEMBL3358008

>  <SMILES>  (1) 
C[C@@H]1CN(CCN1c1ncc(cn1)OCc1ccc(cc1F)CS(=O)(=N)C)c1onc(n1)C(F)(F)F

>  <CID>  (1) 
118722583.0

>  <ChEMBL ID>  (1) 
nan

>  <InChiKey>  (1) 
ZNZDMMQGUVVHRV-OYDRJWEHSA-N

>  <InChi>  (1) 
InChI=1S/C21H23F4N7O3S/c1-13-10-31(20-29-18(30-35-20)21(23,24)25)5-6-32(13)19-27-8-16(9-28-19)34-11-15-4-3-14(7-17(15)22)12-36(2,26)33/h3-4,7-9,13,26H,5-6,10-12H2,1-2H3/t13-,36?/m1/s1

>  <IUPAC Name>  (1) 
[3-fluoro-4-[[2-[(2R)-2-methyl-4-[3-(trifluoromethyl)-1,2,4-oxadiazol-5-yl]piperazin-1-yl]pyrimidin-5-yl]oxymethyl]phenyl]methyl-imino-methyl-oxo-lambda6-sulfane

$$$$
