
     RDKit          3D

114118  0  0  0  0  0  0  0  0999 V2000
    2.5170    6.5094    4.1207 N   0  0  0  0  0  0  0  0  0  0  0  0
    1.2978    6.6077    3.3722 C   0  0  0  0  0  0  0  0  0  0  0  0
    1.3282    6.1196    2.1839 N   0  0  0  0  0  0  0  0  0  0  0  0
    0.1475    6.1801    1.3715 C   0  0  0  0  0  0  0  0  0  0  0  0
    0.0508    4.9667    0.4332 C   0  0  0  0  0  0  0  0  0  0  0  0
    0.0166    3.7668    1.3161 C   0  0  0  0  0  0  0  0  0  0  0  0
   -0.0909    2.4502    0.6383 C   0  0  1  0  0  0  0  0  0  0  0  0
   -1.3047    2.3031   -0.1803 N   0  0  0  0  0  0  0  0  0  0  0  0
   -2.2835    1.2970    0.0791 C   0  0  0  0  0  0  0  0  0  0  0  0
   -2.0523    0.5739    1.0564 O   0  0  0  0  0  0  0  0  0  0  0  0
   -3.5080    1.0902   -0.7317 C   0  0  2  0  0  0  0  0  0  0  0  0
   -4.2780    2.3714   -0.8783 C   0  0  0  0  0  0  0  0  0  0  0  0
   -5.5063    2.1232   -1.7082 C   0  0  0  0  0  0  0  0  0  0  0  0
   -6.6858    1.7321   -1.1257 C   0  0  0  0  0  0  0  0  0  0  0  0
   -7.8360    1.4991   -1.8538 C   0  0  0  0  0  0  0  0  0  0  0  0
   -7.8037    1.6643   -3.2160 C   0  0  0  0  0  0  0  0  0  0  0  0
   -6.6232    2.0603   -3.8412 C   0  0  0  0  0  0  0  0  0  0  0  0
   -5.4801    2.2896   -3.0937 C   0  0  0  0  0  0  0  0  0  0  0  0
   -4.1951    0.0320   -0.0883 N   0  0  0  0  0  0  0  0  0  0  0  0
   -4.5720   -1.2301   -0.7172 C   0  0  0  0  0  0  0  0  0  0  0  0
   -4.2428   -1.3110   -1.8874 O   0  0  0  0  0  0  0  0  0  0  0  0
   -5.2603   -2.1943    0.0723 C   0  0  1  0  0  0  0  0  0  0  0  0
   -6.7097   -2.3594   -0.4031 C   0  0  0  0  0  0  0  0  0  0  0  0
   -7.1704   -3.4938    0.5002 C   0  0  0  0  0  0  0  0  0  0  0  0
   -5.9155   -4.2342    0.8617 C   0  0  0  0  0  0  0  0  0  0  0  0
   -4.8429   -3.5380    0.2237 N   0  0  0  0  0  0  0  0  0  0  0  0
   -3.5948   -4.1045   -0.2340 C   0  0  0  0  0  0  0  0  0  0  0  0
   -2.9352   -3.3167   -0.9238 O   0  0  0  0  0  0  0  0  0  0  0  0
   -3.2312   -5.4847    0.1296 C   0  0  0  0  0  0  0  0  0  0  0  0
   -1.9611   -6.0030   -0.4135 C   0  0  0  0  0  0  0  0  0  0  0  0
   -0.7649   -5.2124   -0.1819 C   0  0  0  0  0  0  0  0  0  0  0  0
   -0.7895   -3.9961    0.1260 O   0  0  0  0  0  0  0  0  0  0  0  0
    0.5979   -5.6983   -0.2709 N   0  0  0  0  0  0  0  0  0  0  0  0
    1.5814   -4.6038   -0.0197 C   0  0  0  0  0  0  0  0  0  0  0  0
    2.9844   -5.0040   -0.0043 C   0  0  0  0  0  0  0  0  0  0  0  0
    3.9668   -3.8885   -0.0393 C   0  0  0  0  0  0  0  0  0  0  0  0
    4.0623   -2.8486    0.9877 C   0  0  0  0  0  0  0  0  0  0  0  0
    2.8955   -1.9486    1.0989 C   0  0  2  0  0  0  0  0  0  0  0  0
    3.1418   -0.5089    0.8972 N   0  0  0  0  0  0  0  0  0  0  0  0
    3.4921    0.0541   -0.3769 C   0  0  0  0  0  0  0  0  0  0  0  0
    3.8391   -0.7652   -1.2319 O   0  0  0  0  0  0  0  0  0  0  0  0
    3.4526    1.5256   -0.6338 C   0  0  1  0  0  0  0  0  0  0  0  0
    2.4356    1.9844    0.3475 N   0  0  0  0  0  0  0  0  0  0  0  0
    1.0973    2.0474   -0.1292 C   0  0  0  0  0  0  0  0  0  0  0  0
    0.9368    1.7209   -1.3194 O   0  0  0  0  0  0  0  0  0  0  0  0
    4.7290    2.2291   -0.4717 C   0  0  0  0  0  0  0  0  0  0  0  0
    5.8324    1.7910   -1.3411 C   0  0  0  0  0  0  0  0  0  0  0  0
    6.1549    2.4587   -2.5302 C   0  0  0  0  0  0  0  0  0  0  0  0
    7.1879    1.8364   -3.1338 N   0  0  0  0  0  0  0  0  0  0  0  0
    7.5314    0.7856   -2.3544 C   0  0  0  0  0  0  0  0  0  0  0  0
    6.7141    0.7431   -1.2558 C   0  0  0  0  0  0  0  0  0  0  0  0
    6.8821   -0.2364   -0.3071 C   0  0  0  0  0  0  0  0  0  0  0  0
    7.8921   -1.1528   -0.5178 C   0  0  0  0  0  0  0  0  0  0  0  0
    8.7118   -1.1141   -1.6184 C   0  0  0  0  0  0  0  0  0  0  0  0
    8.5538   -0.1335   -2.5795 C   0  0  0  0  0  0  0  0  0  0  0  0
    2.3721   -2.0376    2.4775 C   0  0  0  0  0  0  0  0  0  0  0  0
    2.1193   -3.0995    3.0931 O   0  0  0  0  0  0  0  0  0  0  0  0
    2.1003   -0.8349    3.2562 N   0  0  0  0  0  0  0  0  0  0  0  0
    0.1238    7.2161    3.9287 N   0  0  0  0  0  0  0  0  0  0  0  0
    2.7403    5.5586    4.4909 H   0  0  0  0  0  0  0  0  0  0  0  0
    3.1284    7.3538    4.2722 H   0  0  0  0  0  0  0  0  0  0  0  0
   -0.7397    6.1830    2.0681 H   0  0  0  0  0  0  0  0  0  0  0  0
    0.1150    7.1314    0.8421 H   0  0  0  0  0  0  0  0  0  0  0  0
    0.8819    4.9751   -0.2782 H   0  0  0  0  0  0  0  0  0  0  0  0
   -0.9097    5.1099   -0.1017 H   0  0  0  0  0  0  0  0  0  0  0  0
   -0.8489    3.8591    2.0222 H   0  0  0  0  0  0  0  0  0  0  0  0
    0.9323    3.7309    1.9446 H   0  0  0  0  0  0  0  0  0  0  0  0
   -0.2177    1.7046    1.4495 H   0  0  0  0  0  0  0  0  0  0  0  0
   -1.5186    2.9068   -0.9788 H   0  0  0  0  0  0  0  0  0  0  0  0
   -3.1670    0.8338   -1.7734 H   0  0  0  0  0  0  0  0  0  0  0  0
   -3.6426    3.0450   -1.4921 H   0  0  0  0  0  0  0  0  0  0  0  0
   -4.4800    2.9180    0.0438 H   0  0  0  0  0  0  0  0  0  0  0  0
   -6.7733    1.5829   -0.0481 H   0  0  0  0  0  0  0  0  0  0  0  0
   -8.7661    1.1905   -1.3892 H   0  0  0  0  0  0  0  0  0  0  0  0
   -8.6801    1.4918   -3.8242 H   0  0  0  0  0  0  0  0  0  0  0  0
   -6.5542    2.2040   -4.9156 H   0  0  0  0  0  0  0  0  0  0  0  0
   -4.5464    2.5987   -3.5318 H   0  0  0  0  0  0  0  0  0  0  0  0
   -4.4748    0.1058    0.8877 H   0  0  0  0  0  0  0  0  0  0  0  0
   -5.4030   -1.8164    1.1374 H   0  0  0  0  0  0  0  0  0  0  0  0
   -7.2927   -1.4318   -0.2835 H   0  0  0  0  0  0  0  0  0  0  0  0
   -6.7598   -2.7529   -1.4354 H   0  0  0  0  0  0  0  0  0  0  0  0
   -7.5682   -2.9738    1.4096 H   0  0  0  0  0  0  0  0  0  0  0  0
   -7.9429   -4.1277    0.0155 H   0  0  0  0  0  0  0  0  0  0  0  0
   -5.9676   -5.2961    0.4997 H   0  0  0  0  0  0  0  0  0  0  0  0
   -5.8146   -4.2167    1.9769 H   0  0  0  0  0  0  0  0  0  0  0  0
   -3.2630   -5.6163    1.2435 H   0  0  0  0  0  0  0  0  0  0  0  0
   -4.0521   -6.1305   -0.2690 H   0  0  0  0  0  0  0  0  0  0  0  0
   -2.0474   -6.1381   -1.5231 H   0  0  0  0  0  0  0  0  0  0  0  0
   -1.7887   -7.0176    0.0158 H   0  0  0  0  0  0  0  0  0  0  0  0
    0.7522   -6.6414   -0.4670 H   0  0  0  0  0  0  0  0  0  0  0  0
    1.3940   -3.9509   -0.9254 H   0  0  0  0  0  0  0  0  0  0  0  0
    1.2322   -4.0619    0.8631 H   0  0  0  0  0  0  0  0  0  0  0  0
    3.1753   -5.6855   -0.9059 H   0  0  0  0  0  0  0  0  0  0  0  0
    3.2260   -5.7225    0.8500 H   0  0  0  0  0  0  0  0  0  0  0  0
    5.0221   -4.3832   -0.0433 H   0  0  0  0  0  0  0  0  0  0  0  0
    3.9966   -3.4184   -1.0771 H   0  0  0  0  0  0  0  0  0  0  0  0
    4.9818   -2.2181    0.7552 H   0  0  0  0  0  0  0  0  0  0  0  0
    4.3377   -3.3153    1.9755 H   0  0  0  0  0  0  0  0  0  0  0  0
    2.1933   -2.2347    0.2779 H   0  0  0  0  0  0  0  0  0  0  0  0
    3.0881    0.1837    1.6524 H   0  0  0  0  0  0  0  0  0  0  0  0
    3.0725    1.6432   -1.6763 H   0  0  0  0  0  0  0  0  0  0  0  0
    2.6100    2.2459    1.2949 H   0  0  0  0  0  0  0  0  0  0  0  0
    4.6138    3.3614   -0.5100 H   0  0  0  0  0  0  0  0  0  0  0  0
    5.1019    2.1004    0.6000 H   0  0  0  0  0  0  0  0  0  0  0  0
    5.6446    3.3543   -2.9088 H   0  0  0  0  0  0  0  0  0  0  0  0
    7.6122    2.1537   -4.0410 H   0  0  0  0  0  0  0  0  0  0  0  0
    6.2279   -0.2270    0.5348 H   0  0  0  0  0  0  0  0  0  0  0  0
    8.0196   -1.9299    0.2413 H   0  0  0  0  0  0  0  0  0  0  0  0
    9.5127   -1.8528   -1.7680 H   0  0  0  0  0  0  0  0  0  0  0  0
    9.1955   -0.0895   -3.4566 H   0  0  0  0  0  0  0  0  0  0  0  0
    1.0950   -0.5594    3.2967 H   0  0  0  0  0  0  0  0  0  0  0  0
    2.8766   -0.3166    3.7252 H   0  0  0  0  0  0  0  0  0  0  0  0
   -0.2261    8.1583    3.5964 H   0  0  0  0  0  0  0  0  0  0  0  0
   -0.4427    6.7640    4.6822 H   0  0  0  0  0  0  0  0  0  0  0  0
  1  2  1  0
  2  3  2  3
  3  4  1  0
  4  5  1  0
  5  6  1  0
  6  7  1  0
  7  8  1  0
  8  9  1  0
  9 10  2  0
  9 11  1  0
 11 12  1  0
 12 13  1  0
 13 14  2  0
 14 15  1  0
 15 16  2  0
 16 17  1  0
 17 18  2  0
 11 19  1  0
 19 20  1  0
 20 21  2  0
 20 22  1  0
 22 23  1  0
 23 24  1  0
 24 25  1  0
 25 26  1  0
 26 27  1  0
 27 28  2  0
 27 29  1  0
 29 30  1  0
 30 31  1  0
 31 32  2  0
 31 33  1  0
 33 34  1  0
 34 35  1  0
 35 36  1  0
 36 37  1  0
 37 38  1  0
 38 39  1  0
 39 40  1  0
 40 41  2  0
 40 42  1  0
 42 43  1  0
 43 44  1  0
 44 45  2  0
 42 46  1  0
 46 47  1  0
 47 48  2  0
 48 49  1  0
 49 50  1  0
 50 51  2  0
 51 52  1  0
 52 53  2  0
 53 54  1  0
 54 55  2  0
 38 56  1  0
 56 57  2  0
 56 58  1  0
  2 59  1  0
 44  7  1  0
 51 47  1  0
 18 13  1  0
 26 22  1  0
 55 50  1  0
  1 60  1  0
  1 61  1  0
  4 62  1  0
  4 63  1  0
  5 64  1  0
  5 65  1  0
  6 66  1  0
  6 67  1  0
  7 68  1  1
  8 69  1  0
 11 70  1  6
 12 71  1  0
 12 72  1  0
 14 73  1  0
 15 74  1  0
 16 75  1  0
 17 76  1  0
 18 77  1  0
 19 78  1  0
 22 79  1  1
 23 80  1  0
 23 81  1  0
 24 82  1  0
 24 83  1  0
 25 84  1  0
 25 85  1  0
 29 86  1  0
 29 87  1  0
 30 88  1  0
 30 89  1  0
 33 90  1  0
 34 91  1  0
 34 92  1  0
 35 93  1  0
 35 94  1  0
 36 95  1  0
 36 96  1  0
 37 97  1  0
 37 98  1  0
 38 99  1  6
 39100  1  0
 42101  1  6
 43102  1  0
 46103  1  0
 46104  1  0
 48105  1  0
 49106  1  0
 52107  1  0
 53108  1  0
 54109  1  0
 55110  1  0
 58111  1  0
 58112  1  0
 59113  1  0
 59114  1  0
M  END
>  <Ligand ID>  (1) 
LIG0003111

>  <Ligand>  (1) 
MK-10

>  <SMILES>  (1) 
NC(=NCCC[C@H]1NC(=O)[C@H](Cc2ccccc2)NC(=O)[C@H]2CCCN2C(=O)CCC(=O)NCCCC[C@H](NC(=O)[C@@H](NC1=O)Cc1c[nH]c2c1cccc2)C(=O)N)N

>  <CID>  (1) 
46877881.0

>  <ChEMBL ID>  (1) 
nan

>  <InChiKey>  (1) 
RSZGGZUMSYSTES-HJCKZFGESA-N

>  <InChi>  (1) 
InChI=1S/C41H55N11O7/c42-36(55)29-14-6-7-19-45-34(53)17-18-35(54)52-21-9-16-33(52)40(59)51-31(22-25-10-2-1-3-11-25)38(57)49-30(15-8-20-46-41(43)44)37(56)50-32(39(58)48-29)23-26-24-47-28-13-5-4-12-27(26)28/h1-5,10-13,24,29-33,47H,6-9,14-23H2,(H2,42,55)(H,45,53)(H,48,58)(H,49,57)(H,50,56)(H,51,59)(H4,43,44,46)/t29-,30+,31-,32-,33+/m0/s1

>  <IUPAC Name>  (1) 
(11S,14S,17R,20S,23R)-20-benzyl-17-[3-(diaminomethylideneamino)propyl]-14-(1H-indol-3-ylmethyl)-2,5,13,16,19,22-hexaoxo-1,6,12,15,18,21-hexazabicyclo[21.3.0]hexacosane-11-carboxamide

$$$$
