
     RDKit          3D

 75 78  0  0  0  0  0  0  0  0999 V2000
   -4.6571   -2.6736   -5.2370 C   0  0  0  0  0  0  0  0  0  0  0  0
   -3.4456   -2.9049   -4.4119 C   0  0  0  0  0  0  0  0  0  0  0  0
   -2.4311   -3.5287   -4.8388 O   0  0  0  0  0  0  0  0  0  0  0  0
   -3.4523   -2.3928   -3.0890 N   0  0  0  0  0  0  0  0  0  0  0  0
   -2.3137   -2.5552   -2.1743 C   0  0  1  0  0  0  0  0  0  0  0  0
   -1.8149   -1.2162   -1.7833 C   0  0  0  0  0  0  0  0  0  0  0  0
   -2.4860   -0.2353   -2.2841 O   0  0  0  0  0  0  0  0  0  0  0  0
   -0.7157   -0.9484   -0.9494 N   0  0  0  0  0  0  0  0  0  0  0  0
    0.1933   -1.8321   -0.2520 C   0  0  0  0  0  0  0  0  0  0  0  0
    1.3476   -0.9815    0.2653 C   0  0  1  0  0  0  0  0  0  0  0  0
    1.2256    0.2380   -0.6424 C   0  0  0  0  0  0  0  0  0  0  0  0
   -0.2734    0.4053   -0.6420 C   0  0  2  0  0  0  0  0  0  0  0  0
   -0.8666    1.0036    0.5690 C   0  0  0  0  0  0  0  0  0  0  0  0
   -0.3357    2.3966    0.7651 C   0  0  0  0  0  0  0  0  0  0  0  0
   -0.9310    3.0612    1.9933 C   0  0  0  0  0  0  0  0  0  0  0  0
   -0.3256    4.3893    2.0461 N   0  0  0  0  0  0  0  0  0  0  0  0
   -0.6832    5.3556    1.2761 C   0  0  0  0  0  0  0  0  0  0  0  0
   -0.0308    6.6160    1.4049 N   0  0  0  0  0  0  0  0  0  0  0  0
   -1.6981    5.2426    0.2988 N   0  0  0  0  0  0  0  0  0  0  0  0
    1.2252   -0.6815    1.5819 O   0  0  0  0  0  0  0  0  0  0  0  0
    2.3165   -1.0412    2.3134 C   0  0  0  0  0  0  0  0  0  0  0  0
    3.6006   -0.4078    1.9560 C   0  0  0  0  0  0  0  0  0  0  0  0
    3.8511    0.8499    2.4953 C   0  0  0  0  0  0  0  0  0  0  0  0
    5.0317    1.5314    2.2535 C   0  0  0  0  0  0  0  0  0  0  0  0
    6.0052    0.9494    1.4474 C   0  0  0  0  0  0  0  0  0  0  0  0
    5.7505   -0.2950    0.9174 C   0  0  0  0  0  0  0  0  0  0  0  0
    4.5641   -0.9755    1.1626 C   0  0  0  0  0  0  0  0  0  0  0  0
    6.7351   -0.8732    0.1096 C   0  0  0  0  0  0  0  0  0  0  0  0
    7.8924   -0.1662   -0.1045 C   0  0  0  0  0  0  0  0  0  0  0  0
    8.1304    1.0841    0.4370 C   0  0  0  0  0  0  0  0  0  0  0  0
    7.1597    1.6610    1.2372 C   0  0  0  0  0  0  0  0  0  0  0  0
   -2.8084   -3.3506   -0.9831 C   0  0  0  0  0  0  0  0  0  0  0  0
   -3.9160   -2.6707   -0.2614 C   0  0  0  0  0  0  0  0  0  0  0  0
   -3.5675   -1.8089    0.7801 C   0  0  0  0  0  0  0  0  0  0  0  0
   -4.5294   -1.1355    1.5022 C   0  0  0  0  0  0  0  0  0  0  0  0
   -5.8472   -1.3114    1.1968 C   0  0  0  0  0  0  0  0  0  0  0  0
   -6.1718   -2.1630    0.1687 C   0  0  0  0  0  0  0  0  0  0  0  0
   -5.2451   -2.8484   -0.5700 C   0  0  0  0  0  0  0  0  0  0  0  0
   -4.3454   -2.3941   -6.2757 H   0  0  0  0  0  0  0  0  0  0  0  0
   -5.2404   -1.8305   -4.8310 H   0  0  0  0  0  0  0  0  0  0  0  0
   -5.3239   -3.5630   -5.2613 H   0  0  0  0  0  0  0  0  0  0  0  0
   -4.2798   -1.8702   -2.7001 H   0  0  0  0  0  0  0  0  0  0  0  0
   -1.5160   -3.1167   -2.6613 H   0  0  0  0  0  0  0  0  0  0  0  0
    0.6183   -2.5524   -0.9625 H   0  0  0  0  0  0  0  0  0  0  0  0
   -0.2901   -2.3229    0.6407 H   0  0  0  0  0  0  0  0  0  0  0  0
    2.2998   -1.4452    0.0198 H   0  0  0  0  0  0  0  0  0  0  0  0
    1.7858    1.0462   -0.1696 H   0  0  0  0  0  0  0  0  0  0  0  0
    1.6133    0.0127   -1.6607 H   0  0  0  0  0  0  0  0  0  0  0  0
   -0.5256    1.0643   -1.5045 H   0  0  0  0  0  0  0  0  0  0  0  0
   -0.8266    0.3917    1.4940 H   0  0  0  0  0  0  0  0  0  0  0  0
   -1.9700    1.1362    0.3540 H   0  0  0  0  0  0  0  0  0  0  0  0
   -0.5074    2.9708   -0.1509 H   0  0  0  0  0  0  0  0  0  0  0  0
    0.7500    2.3306    0.9482 H   0  0  0  0  0  0  0  0  0  0  0  0
   -2.0199    3.1940    1.9277 H   0  0  0  0  0  0  0  0  0  0  0  0
   -0.5775    2.5022    2.8618 H   0  0  0  0  0  0  0  0  0  0  0  0
    0.3389    7.1114    0.5537 H   0  0  0  0  0  0  0  0  0  0  0  0
    0.0724    7.0329    2.3562 H   0  0  0  0  0  0  0  0  0  0  0  0
   -1.5486    5.1045   -0.7088 H   0  0  0  0  0  0  0  0  0  0  0  0
   -2.7084    5.3060    0.6247 H   0  0  0  0  0  0  0  0  0  0  0  0
    2.1704   -0.8881    3.4153 H   0  0  0  0  0  0  0  0  0  0  0  0
    2.5272   -2.1578    2.2477 H   0  0  0  0  0  0  0  0  0  0  0  0
    3.1223    1.3465    3.1313 H   0  0  0  0  0  0  0  0  0  0  0  0
    5.2022    2.5185    2.6895 H   0  0  0  0  0  0  0  0  0  0  0  0
    4.4504   -1.9467    0.7187 H   0  0  0  0  0  0  0  0  0  0  0  0
    6.5605   -1.8670   -0.3283 H   0  0  0  0  0  0  0  0  0  0  0  0
    8.6766   -0.5757   -0.7212 H   0  0  0  0  0  0  0  0  0  0  0  0
    9.0320    1.6520    0.2789 H   0  0  0  0  0  0  0  0  0  0  0  0
    7.3381    2.6419    1.6674 H   0  0  0  0  0  0  0  0  0  0  0  0
   -1.9895   -3.5986   -0.3181 H   0  0  0  0  0  0  0  0  0  0  0  0
   -3.2539   -4.3275   -1.3310 H   0  0  0  0  0  0  0  0  0  0  0  0
   -2.5480   -1.6521    1.0428 H   0  0  0  0  0  0  0  0  0  0  0  0
   -4.2590   -0.4756    2.2997 H   0  0  0  0  0  0  0  0  0  0  0  0
   -6.5793   -0.7639    1.7872 H   0  0  0  0  0  0  0  0  0  0  0  0
   -7.2352   -2.2857   -0.0557 H   0  0  0  0  0  0  0  0  0  0  0  0
   -5.4966   -3.5147   -1.3730 H   0  0  0  0  0  0  0  0  0  0  0  0
  1  2  1  0
  2  3  2  0
  2  4  1  0
  4  5  1  0
  5  6  1  0
  6  7  2  0
  6  8  1  0
  8  9  1  0
  9 10  1  0
 10 11  1  0
 11 12  1  0
 12 13  1  0
 13 14  1  0
 14 15  1  0
 15 16  1  0
 16 17  2  3
 17 18  1  0
 17 19  1  0
 10 20  1  0
 20 21  1  0
 21 22  1  0
 22 23  2  0
 23 24  1  0
 24 25  2  0
 25 26  1  0
 26 27  2  0
 26 28  1  0
 28 29  2  0
 29 30  1  0
 30 31  2  0
  5 32  1  0
 32 33  1  0
 33 34  2  0
 34 35  1  0
 35 36  2  0
 36 37  1  0
 37 38  2  0
 12  8  1  0
 27 22  1  0
 38 33  1  0
 31 25  1  0
  1 39  1  0
  1 40  1  0
  1 41  1  0
  4 42  1  0
  5 43  1  6
  9 44  1  0
  9 45  1  0
 10 46  1  1
 11 47  1  0
 11 48  1  0
 12 49  1  6
 13 50  1  0
 13 51  1  0
 14 52  1  0
 14 53  1  0
 15 54  1  0
 15 55  1  0
 18 56  1  0
 18 57  1  0
 19 58  1  0
 19 59  1  0
 21 60  1  0
 21 61  1  0
 23 62  1  0
 24 63  1  0
 27 64  1  0
 28 65  1  0
 29 66  1  0
 30 67  1  0
 31 68  1  0
 32 69  1  0
 32 70  1  0
 34 71  1  0
 35 72  1  0
 36 73  1  0
 37 74  1  0
 38 75  1  0
M  END
>  <Ligand ID>  (1) 
LIG0003318

>  <Ligand>  (1) 
CHEMBL212766

>  <SMILES>  (1) 
CC(=O)N[C@@H](C(=O)N1C[C@@H](C[C@@H]1CCCN=C(N)N)OCc1ccc2c(c1)cccc2)Cc1ccccc1

>  <CID>  (1) 
11846673.0

>  <ChEMBL ID>  (1) 
nan

>  <InChiKey>  (1) 
WIUGVXOSBXINHH-UPRLRBBYSA-N

>  <InChi>  (1) 
InChI=1S/C30H37N5O3/c1-21(36)34-28(17-22-8-3-2-4-9-22)29(37)35-19-27(18-26(35)12-7-15-33-30(31)32)38-20-23-13-14-24-10-5-6-11-25(24)16-23/h2-6,8-11,13-14,16,26-28H,7,12,15,17-20H2,1H3,(H,34,36)(H4,31,32,33)/t26-,27+,28+/m0/s1

>  <IUPAC Name>  (1) 
N-[(2R)-1-[(2S,4R)-2-[3-(diaminomethylideneamino)propyl]-4-(naphthalen-2-ylmethoxy)pyrrolidin-1-yl]-1-oxo-3-phenylpropan-2-yl]acetamide

$$$$
