
     RDKit          3D

120124  0  0  0  0  0  0  0  0999 V2000
   -0.7397    6.6546    3.0219 N   0  0  0  0  0  0  0  0  0  0  0  0
   -1.9976    6.1849    2.5597 C   0  0  0  0  0  0  0  0  0  0  0  0
   -2.2481    5.7422    1.4067 N   0  0  0  0  0  0  0  0  0  0  0  0
   -1.3708    5.5970    0.2913 C   0  0  0  0  0  0  0  0  0  0  0  0
   -2.1322    5.0175   -0.9093 C   0  0  0  0  0  0  0  0  0  0  0  0
   -2.6720    3.6858   -0.4826 C   0  0  0  0  0  0  0  0  0  0  0  0
   -1.6497    2.6712   -0.0579 C   0  0  2  0  0  0  0  0  0  0  0  0
   -0.7003    2.3029   -1.0878 N   0  0  0  0  0  0  0  0  0  0  0  0
    0.6803    2.2392   -0.7371 C   0  0  0  0  0  0  0  0  0  0  0  0
    0.9442    2.5843    0.4323 O   0  0  0  0  0  0  0  0  0  0  0  0
    1.7992    1.8159   -1.5896 C   0  0  2  0  0  0  0  0  0  0  0  0
    3.0391    1.7905   -0.7593 N   0  0  0  0  0  0  0  0  0  0  0  0
    3.6773    0.5561   -0.4636 C   0  0  0  0  0  0  0  0  0  0  0  0
    3.1527   -0.4456   -0.9801 O   0  0  0  0  0  0  0  0  0  0  0  0
    4.8782    0.3833    0.3847 C   0  0  0  0  0  0  0  0  0  0  0  0
    5.1272   -1.0809    0.3881 N   0  0  0  0  0  0  0  0  0  0  0  0
    5.9894   -1.7273   -0.5289 C   0  0  0  0  0  0  0  0  0  0  0  0
    7.3954   -1.8441   -0.1409 C   0  0  0  0  0  0  0  0  0  0  0  0
    8.2568   -0.7991   -0.4633 C   0  0  0  0  0  0  0  0  0  0  0  0
    9.5968   -0.8363   -0.1426 C   0  0  0  0  0  0  0  0  0  0  0  0
   10.1521   -1.9130    0.5154 C   0  0  0  0  0  0  0  0  0  0  0  0
    9.3020   -2.9617    0.8421 C   0  0  0  0  0  0  0  0  0  0  0  0
    7.9590   -2.9140    0.5155 C   0  0  0  0  0  0  0  0  0  0  0  0
    4.4579   -1.8840    1.3404 C   0  0  0  0  0  0  0  0  0  0  0  0
    3.7073   -1.2405    2.0799 O   0  0  0  0  0  0  0  0  0  0  0  0
    4.5657   -3.3471    1.5223 C   0  0  0  0  0  0  0  0  0  0  0  0
    3.1618   -3.7669    1.9889 C   0  0  0  0  0  0  0  0  0  0  0  0
    3.0540   -5.2369    2.2363 C   0  0  0  0  0  0  0  0  0  0  0  0
    1.5450   -5.5483    2.5292 C   0  0  0  0  0  0  0  0  0  0  0  0
    0.8464   -5.2245    1.2668 C   0  0  0  0  0  0  0  0  0  0  0  0
    1.4115   -5.0357    0.1678 O   0  0  0  0  0  0  0  0  0  0  0  0
   -0.6030   -5.0796    1.1507 N   0  0  0  0  0  0  0  0  0  0  0  0
   -1.0389   -4.7604   -0.1749 C   0  0  0  0  0  0  0  0  0  0  0  0
   -2.4950   -4.5478   -0.3298 C   0  0  0  0  0  0  0  0  0  0  0  0
   -3.0221   -3.4271    0.4393 N   0  0  0  0  0  0  0  0  0  0  0  0
   -2.8949   -2.1170   -0.0991 C   0  0  0  0  0  0  0  0  0  0  0  0
   -2.2874   -2.1539   -1.1985 O   0  0  0  0  0  0  0  0  0  0  0  0
   -3.3139   -0.8283    0.3891 C   0  0  1  0  0  0  0  0  0  0  0  0
   -2.5339    0.2521   -0.2347 N   0  0  0  0  0  0  0  0  0  0  0  0
   -2.4556    1.5031    0.4326 C   0  0  0  0  0  0  0  0  0  0  0  0
   -3.1096    1.6076    1.4742 O   0  0  0  0  0  0  0  0  0  0  0  0
   -4.7912   -0.5320    0.2575 C   0  0  0  0  0  0  0  0  0  0  0  0
   -5.3566   -0.5728   -1.0804 C   0  0  0  0  0  0  0  0  0  0  0  0
   -4.8546   -0.3295   -2.3284 C   0  0  0  0  0  0  0  0  0  0  0  0
   -5.8027   -0.5204   -3.2814 N   0  0  0  0  0  0  0  0  0  0  0  0
   -6.9284   -0.8884   -2.6595 C   0  0  0  0  0  0  0  0  0  0  0  0
   -6.7010   -0.9334   -1.3171 C   0  0  0  0  0  0  0  0  0  0  0  0
   -7.7321   -1.2841   -0.4437 C   0  0  0  0  0  0  0  0  0  0  0  0
   -8.9887   -1.5883   -0.9337 C   0  0  0  0  0  0  0  0  0  0  0  0
   -9.2136   -1.5406   -2.3062 C   0  0  0  0  0  0  0  0  0  0  0  0
   -8.1915   -1.1928   -3.1699 C   0  0  0  0  0  0  0  0  0  0  0  0
   -3.7012   -3.5820    1.6566 C   0  0  0  0  0  0  0  0  0  0  0  0
   -5.1560   -3.8883    1.4774 C   0  0  0  0  0  0  0  0  0  0  0  0
   -5.6603   -3.9991    0.3082 O   0  0  0  0  0  0  0  0  0  0  0  0
   -5.9142   -4.0407    2.6569 N   0  0  0  0  0  0  0  0  0  0  0  0
    2.1221    2.6339   -2.7906 C   0  0  0  0  0  0  0  0  0  0  0  0
    2.4843    4.0348   -2.4920 C   0  0  0  0  0  0  0  0  0  0  0  0
    1.4944    4.9899   -2.5281 C   0  0  0  0  0  0  0  0  0  0  0  0
    1.6962    6.3255   -2.2654 C   0  0  0  0  0  0  0  0  0  0  0  0
    2.9674    6.7461   -1.9453 C   0  0  0  0  0  0  0  0  0  0  0  0
    3.9771    5.8052   -1.9037 C   0  0  0  0  0  0  0  0  0  0  0  0
    3.7560    4.4595   -2.1714 C   0  0  0  0  0  0  0  0  0  0  0  0
   -3.0865    6.2225    3.5031 N   0  0  0  0  0  0  0  0  0  0  0  0
   -0.1377    7.3003    2.4425 H   0  0  0  0  0  0  0  0  0  0  0  0
   -0.3537    6.3780    3.9653 H   0  0  0  0  0  0  0  0  0  0  0  0
   -0.4977    4.9839    0.5497 H   0  0  0  0  0  0  0  0  0  0  0  0
   -0.9619    6.6092    0.0394 H   0  0  0  0  0  0  0  0  0  0  0  0
   -1.5242    4.9026   -1.7982 H   0  0  0  0  0  0  0  0  0  0  0  0
   -3.0274    5.6734   -1.0799 H   0  0  0  0  0  0  0  0  0  0  0  0
   -3.2778    3.2383   -1.3127 H   0  0  0  0  0  0  0  0  0  0  0  0
   -3.4125    3.8945    0.3265 H   0  0  0  0  0  0  0  0  0  0  0  0
   -1.1052    3.0696    0.8526 H   0  0  0  0  0  0  0  0  0  0  0  0
   -0.9118    2.0808   -2.0579 H   0  0  0  0  0  0  0  0  0  0  0  0
    1.5660    0.7691   -1.9058 H   0  0  0  0  0  0  0  0  0  0  0  0
    3.4688    2.6205   -0.3748 H   0  0  0  0  0  0  0  0  0  0  0  0
    4.7498    0.7630    1.4089 H   0  0  0  0  0  0  0  0  0  0  0  0
    5.7721    0.8251   -0.0792 H   0  0  0  0  0  0  0  0  0  0  0  0
    5.6529   -2.7711   -0.7881 H   0  0  0  0  0  0  0  0  0  0  0  0
    5.9192   -1.2084   -1.5391 H   0  0  0  0  0  0  0  0  0  0  0  0
    7.8679    0.0732   -0.9828 H   0  0  0  0  0  0  0  0  0  0  0  0
   10.2494   -0.0129   -0.4027 H   0  0  0  0  0  0  0  0  0  0  0  0
   11.2037   -1.9597    0.7769 H   0  0  0  0  0  0  0  0  0  0  0  0
    9.7112   -3.8200    1.3574 H   0  0  0  0  0  0  0  0  0  0  0  0
    7.3288   -3.7454    0.7809 H   0  0  0  0  0  0  0  0  0  0  0  0
    4.7209   -3.9117    0.5826 H   0  0  0  0  0  0  0  0  0  0  0  0
    5.2998   -3.6198    2.3101 H   0  0  0  0  0  0  0  0  0  0  0  0
    2.9747   -3.2149    2.9659 H   0  0  0  0  0  0  0  0  0  0  0  0
    2.4187   -3.3405    1.2967 H   0  0  0  0  0  0  0  0  0  0  0  0
    3.2906   -5.8099    1.3421 H   0  0  0  0  0  0  0  0  0  0  0  0
    3.6106   -5.4952    3.1480 H   0  0  0  0  0  0  0  0  0  0  0  0
    1.4691   -6.5903    2.8480 H   0  0  0  0  0  0  0  0  0  0  0  0
    1.1855   -4.8585    3.3060 H   0  0  0  0  0  0  0  0  0  0  0  0
   -1.0959   -5.2246    2.0071 H   0  0  0  0  0  0  0  0  0  0  0  0
   -0.6494   -5.5524   -0.8810 H   0  0  0  0  0  0  0  0  0  0  0  0
   -0.5068   -3.8082   -0.5252 H   0  0  0  0  0  0  0  0  0  0  0  0
   -3.1000   -5.4653   -0.1394 H   0  0  0  0  0  0  0  0  0  0  0  0
   -2.6987   -4.2969   -1.4150 H   0  0  0  0  0  0  0  0  0  0  0  0
   -3.1435   -0.7124    1.4747 H   0  0  0  0  0  0  0  0  0  0  0  0
   -2.0315    0.1820   -1.1110 H   0  0  0  0  0  0  0  0  0  0  0  0
   -4.9872    0.4494    0.7762 H   0  0  0  0  0  0  0  0  0  0  0  0
   -5.3045   -1.2475    0.9034 H   0  0  0  0  0  0  0  0  0  0  0  0
   -3.8682   -0.0318   -2.5571 H   0  0  0  0  0  0  0  0  0  0  0  0
   -5.7177   -0.4141   -4.3202 H   0  0  0  0  0  0  0  0  0  0  0  0
   -7.5497   -1.3191    0.6291 H   0  0  0  0  0  0  0  0  0  0  0  0
   -9.7865   -1.8596   -0.2363 H   0  0  0  0  0  0  0  0  0  0  0  0
  -10.2200   -1.7868   -2.6514 H   0  0  0  0  0  0  0  0  0  0  0  0
   -8.3527   -1.1529   -4.2221 H   0  0  0  0  0  0  0  0  0  0  0  0
   -3.6445   -2.7145    2.3482 H   0  0  0  0  0  0  0  0  0  0  0  0
   -3.2420   -4.4207    2.1996 H   0  0  0  0  0  0  0  0  0  0  0  0
   -5.7816   -4.8806    3.2392 H   0  0  0  0  0  0  0  0  0  0  0  0
   -6.6256   -3.3471    2.9997 H   0  0  0  0  0  0  0  0  0  0  0  0
    2.9608    2.1078   -3.3136 H   0  0  0  0  0  0  0  0  0  0  0  0
    1.2724    2.5834   -3.5155 H   0  0  0  0  0  0  0  0  0  0  0  0
    0.5153    4.6747   -2.7883 H   0  0  0  0  0  0  0  0  0  0  0  0
    0.8389    7.0029   -2.3227 H   0  0  0  0  0  0  0  0  0  0  0  0
    3.1004    7.7919   -1.7439 H   0  0  0  0  0  0  0  0  0  0  0  0
    4.9656    6.1898   -1.6455 H   0  0  0  0  0  0  0  0  0  0  0  0
    4.5645    3.7624   -2.1345 H   0  0  0  0  0  0  0  0  0  0  0  0
   -4.0841    6.1170    3.2024 H   0  0  0  0  0  0  0  0  0  0  0  0
   -2.9313    6.3567    4.5269 H   0  0  0  0  0  0  0  0  0  0  0  0
  1  2  1  0
  2  3  2  3
  3  4  1  0
  4  5  1  0
  5  6  1  0
  6  7  1  0
  7  8  1  0
  8  9  1  0
  9 10  2  0
  9 11  1  0
 11 12  1  0
 12 13  1  0
 13 14  2  0
 13 15  1  0
 15 16  1  0
 16 17  1  0
 17 18  1  0
 18 19  2  0
 19 20  1  0
 20 21  2  0
 21 22  1  0
 22 23  2  0
 16 24  1  0
 24 25  2  0
 24 26  1  0
 26 27  1  0
 27 28  1  0
 28 29  1  0
 29 30  1  0
 30 31  2  0
 30 32  1  0
 32 33  1  0
 33 34  1  0
 34 35  1  0
 35 36  1  0
 36 37  2  0
 36 38  1  0
 38 39  1  0
 39 40  1  0
 40 41  2  0
 38 42  1  0
 42 43  1  0
 43 44  2  0
 44 45  1  0
 45 46  1  0
 46 47  2  0
 47 48  1  0
 48 49  2  0
 49 50  1  0
 50 51  2  0
 35 52  1  0
 52 53  1  0
 53 54  2  0
 53 55  1  0
 11 56  1  0
 56 57  1  0
 57 58  2  0
 58 59  1  0
 59 60  2  0
 60 61  1  0
 61 62  2  0
  2 63  1  0
 40  7  1  0
 47 43  1  0
 62 57  1  0
 23 18  1  0
 51 46  1  0
  1 64  1  0
  1 65  1  0
  4 66  1  0
  4 67  1  0
  5 68  1  0
  5 69  1  0
  6 70  1  0
  6 71  1  0
  7 72  1  1
  8 73  1  0
 11 74  1  6
 12 75  1  0
 15 76  1  0
 15 77  1  0
 17 78  1  0
 17 79  1  0
 19 80  1  0
 20 81  1  0
 21 82  1  0
 22 83  1  0
 23 84  1  0
 26 85  1  0
 26 86  1  0
 27 87  1  0
 27 88  1  0
 28 89  1  0
 28 90  1  0
 29 91  1  0
 29 92  1  0
 32 93  1  0
 33 94  1  0
 33 95  1  0
 34 96  1  0
 34 97  1  0
 38 98  1  1
 39 99  1  0
 42100  1  0
 42101  1  0
 44102  1  0
 45103  1  0
 48104  1  0
 49105  1  0
 50106  1  0
 51107  1  0
 52108  1  0
 52109  1  0
 55110  1  0
 55111  1  0
 56112  1  0
 56113  1  0
 58114  1  0
 59115  1  0
 60116  1  0
 61117  1  0
 62118  1  0
 63119  1  0
 63120  1  0
M  END
>  <Ligand ID>  (1) 
LIG0001349

>  <Ligand>  (1) 
CHEMBL602853

>  <SMILES>  (1) 
NC(=NCCC[C@@H]1NC(=O)[C@H](NC(=O)CN(Cc2ccccc2)C(=O)CCCCC(=O)NCCN(C(=O)[C@@H](NC1=O)Cc1c[nH]c2c1cccc2)CC(=O)N)Cc1ccccc1)N

>  <CID>  (1) 
46232226.0

>  <ChEMBL ID>  (1) 
nan

>  <InChiKey>  (1) 
KJIJKOIUSIULPV-QOEXFKEZSA-N

>  <InChi>  (1) 
InChI=1S/C45H57N11O7/c46-38(57)28-55-23-22-49-39(58)19-9-10-20-41(60)56(27-31-14-5-2-6-15-31)29-40(59)52-36(24-30-12-3-1-4-13-30)43(62)53-35(18-11-21-50-45(47)48)42(61)54-37(44(55)63)25-32-26-51-34-17-8-7-16-33(32)34/h1-8,12-17,26,35-37,51H,9-11,18-25,27-29H2,(H2,46,57)(H,49,58)(H,52,59)(H,53,62)(H,54,61)(H4,47,48,50)/t35-,36+,37-/m0/s1

>  <IUPAC Name>  (1) 
2-[(6S,9S,12R)-12,16-dibenzyl-9-[3-(diaminomethylideneamino)propyl]-6-(1H-indol-3-ylmethyl)-5,8,11,14,17,22-hexaoxo-1,4,7,10,13,16-hexazacyclodocos-4-yl]acetamide

$$$$
