
     RDKit          3D

 32 34  0  0  0  0  0  0  0  0999 V2000
    3.9245    1.2977    0.9098 C   0  0  0  0  0  0  0  0  0  0  0  0
    4.4842   -0.0283    1.3762 C   0  0  0  0  0  0  0  0  0  0  0  0
    3.4429   -0.9544    1.0049 N   0  0  0  0  0  0  0  0  0  0  0  0
    2.6317   -0.4472    0.1337 C   0  0  0  0  0  0  0  0  0  0  0  0
    3.0507    0.8797   -0.1688 N   0  0  0  0  0  0  0  0  0  0  0  0
    1.4520   -1.1259   -0.4623 C   0  0  0  0  0  0  0  0  0  0  0  0
    0.2335   -0.4557   -0.2060 O   0  0  0  0  0  0  0  0  0  0  0  0
   -0.9327   -1.0109   -0.7216 C   0  0  0  0  0  0  0  0  0  0  0  0
   -0.9154   -2.1927   -1.4707 C   0  0  0  0  0  0  0  0  0  0  0  0
   -2.1178   -2.6753   -1.9451 C   0  0  0  0  0  0  0  0  0  0  0  0
   -3.3001   -2.0128   -1.6886 C   0  0  0  0  0  0  0  0  0  0  0  0
   -3.3256   -0.8497   -0.9525 C   0  0  0  0  0  0  0  0  0  0  0  0
   -2.1146   -0.3473   -0.4642 C   0  0  0  0  0  0  0  0  0  0  0  0
   -2.1677    0.8946    0.3181 C   0  0  0  0  0  0  0  0  0  0  0  0
   -1.1315    1.5382    0.8716 N   0  0  0  0  0  0  0  0  0  0  0  0
   -1.5423    2.6520    1.5226 C   0  0  0  0  0  0  0  0  0  0  0  0
   -2.8976    2.6904    1.3582 C   0  0  0  0  0  0  0  0  0  0  0  0
   -3.2723    1.6281    0.6306 N   0  0  0  0  0  0  0  0  0  0  0  0
    4.7234    1.9875    0.5766 H   0  0  0  0  0  0  0  0  0  0  0  0
    3.2835    1.7158    1.7025 H   0  0  0  0  0  0  0  0  0  0  0  0
    4.7124   -0.0487    2.4617 H   0  0  0  0  0  0  0  0  0  0  0  0
    5.3758   -0.3003    0.7611 H   0  0  0  0  0  0  0  0  0  0  0  0
    2.7763    1.4380   -1.0094 H   0  0  0  0  0  0  0  0  0  0  0  0
    1.5785   -1.2500   -1.5744 H   0  0  0  0  0  0  0  0  0  0  0  0
    1.4111   -2.1827   -0.0902 H   0  0  0  0  0  0  0  0  0  0  0  0
    0.0373   -2.6746   -1.6444 H   0  0  0  0  0  0  0  0  0  0  0  0
   -2.0935   -3.5945   -2.5263 H   0  0  0  0  0  0  0  0  0  0  0  0
   -4.1996   -2.4336   -2.0815 H   0  0  0  0  0  0  0  0  0  0  0  0
   -4.2658   -0.3412   -0.7601 H   0  0  0  0  0  0  0  0  0  0  0  0
   -0.9613    3.3826    2.0680 H   0  0  0  0  0  0  0  0  0  0  0  0
   -3.6141    3.4228    1.7241 H   0  0  0  0  0  0  0  0  0  0  0  0
   -4.2658    1.3984    0.3462 H   0  0  0  0  0  0  0  0  0  0  0  0
  1  2  1  0
  2  3  1  0
  3  4  2  0
  4  5  1  0
  4  6  1  0
  6  7  1  0
  7  8  1  0
  8  9  2  0
  9 10  1  0
 10 11  2  0
 11 12  1  0
 12 13  2  0
 13 14  1  0
 14 15  2  0
 15 16  1  0
 16 17  2  0
 17 18  1  0
  5  1  1  0
 13  8  1  0
 18 14  1  0
  1 19  1  0
  1 20  1  0
  2 21  1  0
  2 22  1  0
  5 23  1  0
  6 24  1  0
  6 25  1  0
  9 26  1  0
 10 27  1  0
 11 28  1  0
 12 29  1  0
 16 30  1  0
 17 31  1  0
 18 32  1  0
M  END
>  <Ligand ID>  (1) 
LIG0003202

>  <Ligand>  (1) 
CHEMBL142864

>  <SMILES>  (1) 
C1CN=C(N1)COc1ccccc1c1ncc[nH]1

>  <CID>  (1) 
44362145.0

>  <ChEMBL ID>  (1) 
nan

>  <InChiKey>  (1) 
SCBRBOJPMMAMHQ-UHFFFAOYSA-N

>  <InChi>  (1) 
InChI=1S/C13H14N4O/c1-2-4-11(18-9-12-14-5-6-15-12)10(3-1)13-16-7-8-17-13/h1-4,7-8H,5-6,9H2,(H,14,15)(H,16,17)

>  <IUPAC Name>  (1) 
2-[2-(4,5-dihydro-1H-imidazol-2-ylmethoxy)phenyl]-1H-imidazole

$$$$
