
     RDKit          3D

 11 11  0  0  0  0  0  0  0  0999 V2000
   -1.2736    0.1675    0.0275 C   0  0  0  0  0  0  0  0  0  0  0  0
   -0.2847    1.1518    0.0357 C   0  0  0  0  0  0  0  0  0  0  0  0
    1.0241    0.7139    0.0005 C   0  0  0  0  0  0  0  0  0  0  0  0
    1.3738   -0.6194   -0.0413 C   0  0  0  0  0  0  0  0  0  0  0  0
    0.3880   -1.5617   -0.0485 N   0  0  0  0  0  0  0  0  0  0  0  0
   -0.8988   -1.1619   -0.0146 C   0  0  0  0  0  0  0  0  0  0  0  0
   -2.3316    0.4531    0.0541 H   0  0  0  0  0  0  0  0  0  0  0  0
   -0.5323    2.2047    0.0682 H   0  0  0  0  0  0  0  0  0  0  0  0
    1.8123    1.4776    0.0065 H   0  0  0  0  0  0  0  0  0  0  0  0
    2.4143   -0.9257   -0.0682 H   0  0  0  0  0  0  0  0  0  0  0  0
   -1.6916   -1.8998   -0.0199 H   0  0  0  0  0  0  0  0  0  0  0  0
  1  2  2  0
  2  3  1  0
  3  4  2  0
  4  5  1  0
  5  6  2  0
  6  1  1  0
  1  7  1  0
  2  8  1  0
  3  9  1  0
  4 10  1  0
  6 11  1  0
M  END
>  <Ligand ID>  (1) 
LIG0000327

>  <Ligand>  (1) 
pyridine

>  <SMILES>  (1) 
c1cccnc1

>  <CID>  (1) 
1049.0

>  <ChEMBL ID>  (1) 
nan

>  <InChiKey>  (1) 
JUJWROOIHBZHMG-UHFFFAOYSA-N

>  <InChi>  (1) 
InChI=1S/C5H5N/c1-2-4-6-5-3-1/h1-5H

>  <IUPAC Name>  (1) 
pyridine

$$$$
