
     RDKit          3D

 60 62  0  0  0  0  0  0  0  0999 V2000
    8.1487    1.9433   -1.8296 O   0  0  0  0  0  0  0  0  0  0  0  0
    6.7497    1.8653   -1.6735 C   0  0  0  0  0  0  0  0  0  0  0  0
    6.5186    1.2167   -0.3311 C   0  0  1  0  0  0  0  0  0  0  0  0
    5.1948    1.0538    0.0014 O   0  0  0  0  0  0  0  0  0  0  0  0
    4.8493   -0.2040    0.4332 C   0  0  2  0  0  0  0  0  0  0  0  0
    3.5827   -0.1181    1.0444 O   0  0  0  0  0  0  0  0  0  0  0  0
    2.4445   -1.1010    0.2592 P   0  0  0  0  0  0  0  0  0  0  0  0
    3.0572   -2.4253   -0.1315 O   0  0  0  0  0  0  0  0  0  0  0  0
    1.1603   -1.3089    1.3395 O   0  0  0  0  0  0  0  0  0  0  0  0
    0.0932   -0.0168    1.1349 P   0  0  0  0  0  0  0  0  0  0  0  0
    0.0237    0.7876    2.4221 O   0  0  0  0  0  0  0  0  0  0  0  0
   -1.4286   -0.6667    0.7666 O   0  0  0  0  0  0  0  0  0  0  0  0
   -2.4539    0.2492    1.0877 C   0  0  0  0  0  0  0  0  0  0  0  0
   -3.7405   -0.4189    0.7263 C   0  0  1  0  0  0  0  0  0  0  0  0
   -4.8700    0.3529    0.9803 O   0  0  0  0  0  0  0  0  0  0  0  0
   -5.8558   -0.3587    0.3072 C   0  0  2  0  0  0  0  0  0  0  0  0
   -5.2368   -0.4745   -1.0692 C   0  0  1  0  0  0  0  0  0  0  0  0
   -3.7930   -0.8111   -0.7185 C   0  0  2  0  0  0  0  0  0  0  0  0
   -3.6372   -2.2108   -0.7582 O   0  0  0  0  0  0  0  0  0  0  0  0
   -5.7594   -1.5546   -1.7784 O   0  0  0  0  0  0  0  0  0  0  0  0
   -7.1351    0.3026    0.3099 N   0  0  0  0  0  0  0  0  0  0  0  0
   -8.2072   -0.4237   -0.0663 C   0  0  0  0  0  0  0  0  0  0  0  0
   -9.4891    0.1015   -0.1041 C   0  0  0  0  0  0  0  0  0  0  0  0
   -9.6198    1.4242    0.2672 C   0  0  0  0  0  0  0  0  0  0  0  0
  -10.7696    1.9823    0.2589 O   0  0  0  0  0  0  0  0  0  0  0  0
   -8.5414    2.1394    0.6410 N   0  0  0  0  0  0  0  0  0  0  0  0
   -7.3052    1.5975    0.6671 C   0  0  0  0  0  0  0  0  0  0  0  0
   -6.2886    2.2737    1.0200 O   0  0  0  0  0  0  0  0  0  0  0  0
    0.5393    1.0148   -0.1030 O   0  0  0  0  0  0  0  0  0  0  0  0
    1.8929   -0.3329   -1.1327 O   0  0  0  0  0  0  0  0  0  0  0  0
    5.7690   -0.7614    1.5041 C   0  0  1  0  0  0  0  0  0  0  0  0
    7.2232   -0.5704    1.1509 C   0  0  2  0  0  0  0  0  0  0  0  0
    7.3027   -0.0758   -0.2687 C   0  0  2  0  0  0  0  0  0  0  0  0
    8.6234    0.1701   -0.5841 O   0  0  0  0  0  0  0  0  0  0  0  0
    7.9597   -1.7336    1.3435 O   0  0  0  0  0  0  0  0  0  0  0  0
    5.4911   -0.2512    2.7550 O   0  0  0  0  0  0  0  0  0  0  0  0
    8.5573    2.4733   -1.1059 H   0  0  0  0  0  0  0  0  0  0  0  0
    6.2780    2.8781   -1.6999 H   0  0  0  0  0  0  0  0  0  0  0  0
    6.3648    1.2302   -2.4959 H   0  0  0  0  0  0  0  0  0  0  0  0
    6.9684    1.8960    0.4417 H   0  0  0  0  0  0  0  0  0  0  0  0
    4.7700   -0.9076   -0.4210 H   0  0  0  0  0  0  0  0  0  0  0  0
   -2.3852    0.4332    2.1618 H   0  0  0  0  0  0  0  0  0  0  0  0
   -2.2646    1.1527    0.4642 H   0  0  0  0  0  0  0  0  0  0  0  0
   -3.8406   -1.3062    1.4173 H   0  0  0  0  0  0  0  0  0  0  0  0
   -5.9265   -1.3750    0.7312 H   0  0  0  0  0  0  0  0  0  0  0  0
   -5.3083    0.4910   -1.6247 H   0  0  0  0  0  0  0  0  0  0  0  0
   -3.0787   -0.2864   -1.3730 H   0  0  0  0  0  0  0  0  0  0  0  0
   -3.0157   -2.5167   -0.0410 H   0  0  0  0  0  0  0  0  0  0  0  0
   -5.3440   -1.5377   -2.6762 H   0  0  0  0  0  0  0  0  0  0  0  0
   -8.1170   -1.4645   -0.3603 H   0  0  0  0  0  0  0  0  0  0  0  0
  -10.3383   -0.4926   -0.4076 H   0  0  0  0  0  0  0  0  0  0  0  0
   -8.6481    3.1355    0.9194 H   0  0  0  0  0  0  0  0  0  0  0  0
   -0.1206    1.0069   -0.8575 H   0  0  0  0  0  0  0  0  0  0  0  0
    1.5587   -0.9987   -1.8112 H   0  0  0  0  0  0  0  0  0  0  0  0
    5.5761   -1.8652    1.5071 H   0  0  0  0  0  0  0  0  0  0  0  0
    7.6345    0.2540    1.7955 H   0  0  0  0  0  0  0  0  0  0  0  0
    6.8274   -0.8043   -0.9682 H   0  0  0  0  0  0  0  0  0  0  0  0
    9.0452   -0.6865   -0.8546 H   0  0  0  0  0  0  0  0  0  0  0  0
    7.2903   -2.4825    1.3325 H   0  0  0  0  0  0  0  0  0  0  0  0
    5.0242   -0.8833    3.3561 H   0  0  0  0  0  0  0  0  0  0  0  0
  1  2  1  0
  2  3  1  0
  3  4  1  0
  4  5  1  0
  5  6  1  0
  6  7  1  0
  7  8  2  0
  7  9  1  0
  9 10  1  0
 10 11  2  0
 10 12  1  0
 12 13  1  0
 13 14  1  0
 14 15  1  0
 15 16  1  0
 16 17  1  0
 17 18  1  0
 18 19  1  0
 17 20  1  0
 16 21  1  0
 21 22  1  0
 22 23  2  0
 23 24  1  0
 24 25  2  0
 24 26  1  0
 26 27  1  0
 27 28  2  0
 10 29  1  0
  7 30  1  0
  5 31  1  0
 31 32  1  0
 32 33  1  0
 33 34  1  0
 32 35  1  0
 31 36  1  0
 33  3  1  0
 18 14  1  0
 27 21  1  0
  1 37  1  0
  2 38  1  0
  2 39  1  0
  3 40  1  1
  5 41  1  6
 13 42  1  0
 13 43  1  0
 14 44  1  1
 16 45  1  1
 17 46  1  6
 18 47  1  6
 19 48  1  0
 20 49  1  0
 22 50  1  0
 23 51  1  0
 26 52  1  0
 29 53  1  0
 30 54  1  0
 31 55  1  1
 32 56  1  1
 33 57  1  6
 34 58  1  0
 35 59  1  0
 36 60  1  0
M  END
>  <Ligand ID>  (1) 
LIG0000830

>  <Ligand>  (1) 
UDP-glucose

>  <SMILES>  (1) 
OC[C@H]1O[C@H](OP(=O)(OP(=O)(OC[C@H]2O[C@H]([C@@H]([C@@H]2O)O)n2ccc(=O)[nH]c2=O)O)O)[C@@H]([C@H]([C@@H]1O)O)O

>  <CID>  (1) 
8629.0

>  <ChEMBL ID>  (1) 
nan

>  <InChiKey>  (1) 
HSCJRCZFDFQWRP-JZMIEXBBSA-N

>  <InChi>  (1) 
InChI=1S/C15H24N2O17P2/c18-3-5-8(20)10(22)12(24)14(32-5)33-36(28,29)34-35(26,27)30-4-6-9(21)11(23)13(31-6)17-2-1-7(19)16-15(17)25/h1-2,5-6,8-14,18,20-24H,3-4H2,(H,26,27)(H,28,29)(H,16,19,25)/t5-,6-,8-,9-,10+,11-,12-,13-,14-/m1/s1

>  <IUPAC Name>  (1) 
[[(2R,3S,4R,5R)-5-(2,4-dioxopyrimidin-1-yl)-3,4-dihydroxyoxolan-2-yl]methoxy-hydroxyphosphoryl] [(2R,3R,4S,5S,6R)-3,4,5-trihydroxy-6-(hydroxymethyl)oxan-2-yl] hydrogen phosphate

$$$$
