
     RDKit          3D

 61 65  0  0  0  0  0  0  0  0999 V2000
   -2.7838    3.9457   -1.8669 C   0  0  0  0  0  0  0  0  0  0  0  0
   -3.7633    3.6909   -0.8766 O   0  0  0  0  0  0  0  0  0  0  0  0
   -3.6434    2.5309   -0.1237 C   0  0  0  0  0  0  0  0  0  0  0  0
   -2.6283    1.6366   -0.2999 C   0  0  0  0  0  0  0  0  0  0  0  0
   -2.5705    0.5122    0.4779 C   0  0  0  0  0  0  0  0  0  0  0  0
   -3.5365    0.2817    1.4391 C   0  0  0  0  0  0  0  0  0  0  0  0
   -4.5791    1.1674    1.6442 C   0  0  0  0  0  0  0  0  0  0  0  0
   -4.6006    2.2880    0.8396 C   0  0  0  0  0  0  0  0  0  0  0  0
   -5.6362    3.2039    1.0168 O   0  0  0  0  0  0  0  0  0  0  0  0
   -6.6478    3.0436    1.9642 C   0  0  0  0  0  0  0  0  0  0  0  0
   -3.4769   -0.8265    2.2000 N   0  0  0  0  0  0  0  0  0  0  0  0
   -2.4699   -1.7131    2.0214 C   0  0  0  0  0  0  0  0  0  0  0  0
   -1.5261   -1.4956    1.0882 N   0  0  0  0  0  0  0  0  0  0  0  0
   -1.5473   -0.3848    0.2941 C   0  0  0  0  0  0  0  0  0  0  0  0
   -0.5055   -0.2612   -0.6400 N   0  0  0  0  0  0  0  0  0  0  0  0
    0.4810    0.8103   -0.6436 C   0  0  0  0  0  0  0  0  0  0  0  0
    1.8861    0.2136   -0.7356 C   0  0  0  0  0  0  0  0  0  0  0  0
    2.0258   -0.6581   -1.8384 N   0  0  0  0  0  0  0  0  0  0  0  0
    0.8596   -1.0907   -2.5131 C   0  0  0  0  0  0  0  0  0  0  0  0
   -0.3654   -1.2614   -1.6851 C   0  0  0  0  0  0  0  0  0  0  0  0
    2.9578   -1.6995   -1.6094 C   0  0  0  0  0  0  0  0  0  0  0  0
    4.3167   -1.1726   -1.3837 C   0  0  0  0  0  0  0  0  0  0  0  0
    4.8630   -0.8792   -0.1679 C   0  0  0  0  0  0  0  0  0  0  0  0
    6.1434   -0.3796   -0.0108 C   0  0  0  0  0  0  0  0  0  0  0  0
    6.9253   -0.1599   -1.1321 C   0  0  0  0  0  0  0  0  0  0  0  0
    6.3900   -0.4497   -2.3518 C   0  0  0  0  0  0  0  0  0  0  0  0
    5.1028   -0.9513   -2.5023 C   0  0  0  0  0  0  0  0  0  0  0  0
    8.2869    0.3748   -0.9100 C   0  0  0  0  0  0  0  0  0  0  0  0
   -2.3770   -2.9375    2.8399 C   0  0  0  0  0  0  0  0  0  0  0  0
   -3.6328   -3.6142    3.3337 C   0  0  0  0  0  0  0  0  0  0  0  0
   -2.8706   -2.7689    4.2648 C   0  0  0  0  0  0  0  0  0  0  0  0
   -1.7681    4.0969   -1.4574 H   0  0  0  0  0  0  0  0  0  0  0  0
   -3.0165    4.9181   -2.3891 H   0  0  0  0  0  0  0  0  0  0  0  0
   -2.7800    3.1042   -2.5977 H   0  0  0  0  0  0  0  0  0  0  0  0
   -1.8821    1.8045   -1.0392 H   0  0  0  0  0  0  0  0  0  0  0  0
   -5.3273    0.9737    2.3999 H   0  0  0  0  0  0  0  0  0  0  0  0
   -6.3275    3.2132    3.0090 H   0  0  0  0  0  0  0  0  0  0  0  0
   -7.0614    2.0173    1.9360 H   0  0  0  0  0  0  0  0  0  0  0  0
   -7.4312    3.8107    1.7566 H   0  0  0  0  0  0  0  0  0  0  0  0
    0.3932    1.4495   -1.5430 H   0  0  0  0  0  0  0  0  0  0  0  0
    0.4417    1.3725    0.3050 H   0  0  0  0  0  0  0  0  0  0  0  0
    2.5779    1.0715   -0.8449 H   0  0  0  0  0  0  0  0  0  0  0  0
    2.1242   -0.2494    0.2635 H   0  0  0  0  0  0  0  0  0  0  0  0
    0.6498   -0.4935   -3.4519 H   0  0  0  0  0  0  0  0  0  0  0  0
    1.0918   -2.1170   -2.9316 H   0  0  0  0  0  0  0  0  0  0  0  0
   -0.3186   -2.2505   -1.1814 H   0  0  0  0  0  0  0  0  0  0  0  0
   -1.2494   -1.2773   -2.3555 H   0  0  0  0  0  0  0  0  0  0  0  0
    2.9311   -2.4469   -2.4357 H   0  0  0  0  0  0  0  0  0  0  0  0
    2.6787   -2.3005   -0.6988 H   0  0  0  0  0  0  0  0  0  0  0  0
    4.2971   -1.0381    0.7312 H   0  0  0  0  0  0  0  0  0  0  0  0
    6.5186   -0.1655    0.9985 H   0  0  0  0  0  0  0  0  0  0  0  0
    7.0097   -0.2746   -3.2231 H   0  0  0  0  0  0  0  0  0  0  0  0
    4.7501   -1.1562   -3.5076 H   0  0  0  0  0  0  0  0  0  0  0  0
    8.6338    0.9474   -1.7867 H   0  0  0  0  0  0  0  0  0  0  0  0
    9.0174   -0.4413   -0.6710 H   0  0  0  0  0  0  0  0  0  0  0  0
    8.3132    1.1006   -0.0544 H   0  0  0  0  0  0  0  0  0  0  0  0
   -1.5364   -3.6328    2.6555 H   0  0  0  0  0  0  0  0  0  0  0  0
   -4.5559   -3.2689    2.8228 H   0  0  0  0  0  0  0  0  0  0  0  0
   -3.6152   -4.7043    3.5085 H   0  0  0  0  0  0  0  0  0  0  0  0
   -3.3271   -1.8106    4.5645 H   0  0  0  0  0  0  0  0  0  0  0  0
   -2.3090   -3.2488    5.0851 H   0  0  0  0  0  0  0  0  0  0  0  0
  1  2  1  0
  2  3  1  0
  3  4  2  0
  4  5  1  0
  5  6  2  0
  6  7  1  0
  7  8  2  0
  8  9  1  0
  9 10  1  0
  6 11  1  0
 11 12  2  0
 12 13  1  0
 13 14  2  0
 14 15  1  0
 15 16  1  0
 16 17  1  0
 17 18  1  0
 18 19  1  0
 19 20  1  0
 18 21  1  0
 21 22  1  0
 22 23  2  0
 23 24  1  0
 24 25  2  0
 25 26  1  0
 26 27  2  0
 25 28  1  0
 12 29  1  0
 29 30  1  0
 30 31  1  0
  8  3  1  0
 20 15  1  0
 27 22  1  0
 31 29  1  0
 14  5  1  0
  1 32  1  0
  1 33  1  0
  1 34  1  0
  4 35  1  0
  7 36  1  0
 10 37  1  0
 10 38  1  0
 10 39  1  0
 16 40  1  0
 16 41  1  0
 17 42  1  0
 17 43  1  0
 19 44  1  0
 19 45  1  0
 20 46  1  0
 20 47  1  0
 21 48  1  0
 21 49  1  0
 23 50  1  0
 24 51  1  0
 26 52  1  0
 27 53  1  0
 28 54  1  0
 28 55  1  0
 28 56  1  0
 29 57  1  0
 30 58  1  0
 30 59  1  0
 31 60  1  0
 31 61  1  0
M  END
>  <Ligand ID>  (1) 
LIG0003818

>  <Ligand>  (1) 
CHEMBL2431106

>  <SMILES>  (1) 
COc1cc2c(cc1OC)nc(nc2N1CCN(CC1)Cc1ccc(cc1)C)C1CC1

>  <CID>  (1) 
56593291.0

>  <ChEMBL ID>  (1) 
nan

>  <InChiKey>  (1) 
NTOIAIPOJUIVOK-UHFFFAOYSA-N

>  <InChi>  (1) 
InChI=1S/C25H30N4O2/c1-17-4-6-18(7-5-17)16-28-10-12-29(13-11-28)25-20-14-22(30-2)23(31-3)15-21(20)26-24(27-25)19-8-9-19/h4-7,14-15,19H,8-13,16H2,1-3H3

>  <IUPAC Name>  (1) 
2-cyclopropyl-6,7-dimethoxy-4-[4-[(4-methylphenyl)methyl]piperazin-1-yl]quinazoline

$$$$
