
     RDKit          3D

 81 84  0  0  0  0  0  0  0  0999 V2000
    9.0898    2.7979   -2.9911 O   0  0  0  0  0  0  0  0  0  0  0  0
    8.0046    2.1858   -2.3407 C   0  0  0  0  0  0  0  0  0  0  0  0
    7.4427    1.2635   -2.9795 O   0  0  0  0  0  0  0  0  0  0  0  0
    7.5720    2.6178   -0.9917 C   0  0  1  0  0  0  0  0  0  0  0  0
    6.4296    1.7681   -0.6562 N   0  0  0  0  0  0  0  0  0  0  0  0
    5.2845    2.4048   -0.1201 C   0  0  0  0  0  0  0  0  0  0  0  0
    5.2911    3.6491    0.0542 O   0  0  0  0  0  0  0  0  0  0  0  0
    4.1232    1.6120    0.2198 C   0  0  0  0  0  0  0  0  0  0  0  0
    3.1046    2.2358    0.9267 C   0  0  0  0  0  0  0  0  0  0  0  0
    1.9576    1.5236    1.2679 C   0  0  0  0  0  0  0  0  0  0  0  0
    1.7737    0.2003    0.9338 C   0  0  0  0  0  0  0  0  0  0  0  0
    2.7968   -0.4088    0.2293 C   0  0  0  0  0  0  0  0  0  0  0  0
    3.9566    0.2921   -0.1217 C   0  0  0  0  0  0  0  0  0  0  0  0
    0.6119   -0.5426    1.2981 N   0  0  0  0  0  0  0  0  0  0  0  0
   -0.3319   -0.0792    2.2863 C   0  0  0  0  0  0  0  0  0  0  0  0
   -1.7150   -0.1457    1.5903 C   0  0  0  0  0  0  0  0  0  0  0  0
   -2.0617   -1.5969    1.5407 C   0  0  0  0  0  0  0  0  0  0  0  0
   -0.8833   -2.4906    1.2383 C   0  0  0  0  0  0  0  0  0  0  0  0
    0.3220   -1.8185    0.6832 C   0  0  0  0  0  0  0  0  0  0  0  0
   -3.1724   -1.9575    0.6069 C   0  0  0  0  0  0  0  0  0  0  0  0
   -4.3932   -1.3603    0.8488 N   0  0  0  0  0  0  0  0  0  0  0  0
   -4.6138   -0.0380    0.5032 C   0  0  0  0  0  0  0  0  0  0  0  0
   -4.6826    0.0238   -1.0508 C   0  0  1  0  0  0  0  0  0  0  0  0
   -5.9315   -0.7608   -1.3647 C   0  0  0  0  0  0  0  0  0  0  0  0
   -5.8931   -1.9695   -2.0194 C   0  0  0  0  0  0  0  0  0  0  0  0
   -7.1174   -2.6037   -2.2360 C   0  0  0  0  0  0  0  0  0  0  0  0
   -8.3039   -2.0361   -1.8096 C   0  0  0  0  0  0  0  0  0  0  0  0
   -8.3405   -0.8217   -1.1524 C   0  0  0  0  0  0  0  0  0  0  0  0
   -7.1373   -0.1911   -0.9359 C   0  0  0  0  0  0  0  0  0  0  0  0
   -9.5420   -0.2165   -0.6984 N   0  0  0  0  0  0  0  0  0  0  0  0
   -9.5426    1.3428    0.0556 S   0  0  0  0  0  0  0  0  0  0  0  0
   -8.8979    2.3143   -0.9217 O   0  0  0  0  0  0  0  0  0  0  0  0
  -10.9452    1.8262    0.2930 O   0  0  0  0  0  0  0  0  0  0  0  0
   -8.5970    1.3707    1.5525 C   0  0  0  0  0  0  0  0  0  0  0  0
   -9.4659   -2.7288   -2.0638 O   0  0  0  0  0  0  0  0  0  0  0  0
   -4.9144    1.3488   -1.3703 O   0  0  0  0  0  0  0  0  0  0  0  0
    8.6501    2.3074    0.0573 C   0  0  0  0  0  0  0  0  0  0  0  0
    8.8637    0.8448    0.0611 C   0  0  0  0  0  0  0  0  0  0  0  0
    9.7950    0.2333   -0.7650 C   0  0  0  0  0  0  0  0  0  0  0  0
    9.9460   -1.1450   -0.7010 C   0  0  0  0  0  0  0  0  0  0  0  0
    9.1762   -1.8572    0.1697 C   0  0  0  0  0  0  0  0  0  0  0  0
    8.2329   -1.2920    1.0149 C   0  0  0  0  0  0  0  0  0  0  0  0
    8.0923    0.0991    0.9388 C   0  0  0  0  0  0  0  0  0  0  0  0
    9.1719    2.7042   -3.9934 H   0  0  0  0  0  0  0  0  0  0  0  0
    7.2916    3.6802   -0.9381 H   0  0  0  0  0  0  0  0  0  0  0  0
    6.5338    0.7615   -0.8329 H   0  0  0  0  0  0  0  0  0  0  0  0
    3.2042    3.2928    1.2186 H   0  0  0  0  0  0  0  0  0  0  0  0
    1.2133    2.0828    1.8152 H   0  0  0  0  0  0  0  0  0  0  0  0
    2.6763   -1.4337   -0.0418 H   0  0  0  0  0  0  0  0  0  0  0  0
    4.7454   -0.1974   -0.6700 H   0  0  0  0  0  0  0  0  0  0  0  0
   -0.2207    0.9441    2.6198 H   0  0  0  0  0  0  0  0  0  0  0  0
   -0.3906   -0.8225    3.1099 H   0  0  0  0  0  0  0  0  0  0  0  0
   -1.6583    0.2903    0.5950 H   0  0  0  0  0  0  0  0  0  0  0  0
   -2.4035    0.3749    2.3082 H   0  0  0  0  0  0  0  0  0  0  0  0
   -2.3663   -1.8520    2.6192 H   0  0  0  0  0  0  0  0  0  0  0  0
   -0.6247   -3.0478    2.1592 H   0  0  0  0  0  0  0  0  0  0  0  0
   -1.2346   -3.2742    0.5214 H   0  0  0  0  0  0  0  0  0  0  0  0
    1.2013   -2.4788    0.8724 H   0  0  0  0  0  0  0  0  0  0  0  0
    0.2458   -1.7016   -0.4122 H   0  0  0  0  0  0  0  0  0  0  0  0
   -2.7838   -1.7541   -0.4501 H   0  0  0  0  0  0  0  0  0  0  0  0
   -3.2572   -3.1075    0.5607 H   0  0  0  0  0  0  0  0  0  0  0  0
   -5.0126   -1.7351    1.5727 H   0  0  0  0  0  0  0  0  0  0  0  0
   -3.9643    0.7660    0.8356 H   0  0  0  0  0  0  0  0  0  0  0  0
   -5.6466    0.2856    0.8491 H   0  0  0  0  0  0  0  0  0  0  0  0
   -3.7859   -0.3889   -1.4992 H   0  0  0  0  0  0  0  0  0  0  0  0
   -4.9526   -2.3912   -2.3419 H   0  0  0  0  0  0  0  0  0  0  0  0
   -7.1466   -3.5758   -2.7541 H   0  0  0  0  0  0  0  0  0  0  0  0
   -7.1556    0.7624   -0.4228 H   0  0  0  0  0  0  0  0  0  0  0  0
  -10.4736   -0.6973   -0.8027 H   0  0  0  0  0  0  0  0  0  0  0  0
   -7.7472    2.0778    1.4686 H   0  0  0  0  0  0  0  0  0  0  0  0
   -9.2690    1.6673    2.4033 H   0  0  0  0  0  0  0  0  0  0  0  0
   -8.1315    0.3657    1.7430 H   0  0  0  0  0  0  0  0  0  0  0  0
  -10.3350   -2.2350   -2.1074 H   0  0  0  0  0  0  0  0  0  0  0  0
   -4.9157    1.9188   -0.5682 H   0  0  0  0  0  0  0  0  0  0  0  0
    8.2017    2.6066    1.0174 H   0  0  0  0  0  0  0  0  0  0  0  0
    9.5810    2.8668   -0.1754 H   0  0  0  0  0  0  0  0  0  0  0  0
   10.3948    0.8293   -1.4480 H   0  0  0  0  0  0  0  0  0  0  0  0
   10.6860   -1.5673   -1.3669 H   0  0  0  0  0  0  0  0  0  0  0  0
    9.3021   -2.9425    0.2139 H   0  0  0  0  0  0  0  0  0  0  0  0
    7.6315   -1.8871    1.7011 H   0  0  0  0  0  0  0  0  0  0  0  0
    7.3608    0.6115    1.5829 H   0  0  0  0  0  0  0  0  0  0  0  0
  1  2  1  0
  2  3  2  0
  2  4  1  0
  4  5  1  0
  5  6  1  0
  6  7  2  0
  6  8  1  0
  8  9  2  0
  9 10  1  0
 10 11  2  0
 11 12  1  0
 12 13  2  0
 11 14  1  0
 14 15  1  0
 15 16  1  0
 16 17  1  0
 17 18  1  0
 18 19  1  0
 17 20  1  0
 20 21  1  0
 21 22  1  0
 22 23  1  0
 23 24  1  0
 24 25  2  0
 25 26  1  0
 26 27  2  0
 27 28  1  0
 28 29  2  0
 28 30  1  0
 30 31  1  0
 31 32  2  0
 31 33  2  0
 31 34  1  0
 27 35  1  0
 23 36  1  0
  4 37  1  0
 37 38  1  0
 38 39  2  0
 39 40  1  0
 40 41  2  0
 41 42  1  0
 42 43  2  0
 13  8  1  0
 19 14  1  0
 29 24  1  0
 43 38  1  0
  1 44  1  0
  4 45  1  6
  5 46  1  0
  9 47  1  0
 10 48  1  0
 12 49  1  0
 13 50  1  0
 15 51  1  0
 15 52  1  0
 16 53  1  0
 16 54  1  0
 17 55  1  0
 18 56  1  0
 18 57  1  0
 19 58  1  0
 19 59  1  0
 20 60  1  0
 20 61  1  0
 21 62  1  0
 22 63  1  0
 22 64  1  0
 23 65  1  6
 25 66  1  0
 26 67  1  0
 29 68  1  0
 30 69  1  0
 34 70  1  0
 34 71  1  0
 34 72  1  0
 35 73  1  0
 36 74  1  0
 37 75  1  0
 37 76  1  0
 39 77  1  0
 40 78  1  0
 41 79  1  0
 42 80  1  0
 43 81  1  0
M  END
>  <Ligand ID>  (1) 
LIG0004943

>  <Ligand>  (1) 
CHEMBL98088

>  <SMILES>  (1) 
OC(=O)[C@@H](NC(=O)c1ccc(cc1)N1CCC(CC1)CNC[C@@H](c1ccc(c(c1)NS(=O)(=O)C)O)O)Cc1ccccc1

>  <CID>  (1) 
44331351.0

>  <ChEMBL ID>  (1) 
nan

>  <InChiKey>  (1) 
BNCCDXYOEGWOOI-YTMVLYRLSA-N

>  <InChi>  (1) 
InChI=1S/C31H38N4O7S/c1-43(41,42)34-26-18-24(9-12-28(26)36)29(37)20-32-19-22-13-15-35(16-14-22)25-10-7-23(8-11-25)30(38)33-27(31(39)40)17-21-5-3-2-4-6-21/h2-12,18,22,27,29,32,34,36-37H,13-17,19-20H2,1H3,(H,33,38)(H,39,40)/t27-,29-/m0/s1

>  <IUPAC Name>  (1) 
(2S)-2-[[4-[4-[[[(2R)-2-hydroxy-2-[4-hydroxy-3-(methanesulfonamido)phenyl]ethyl]amino]methyl]piperidin-1-yl]benzoyl]amino]-3-phenylpropanoic acid

$$$$
