
     RDKit          3D

118121  0  0  0  0  0  0  0  0999 V2000
   -1.0630   -2.8881   -3.5033 C   0  0  0  0  0  0  0  0  0  0  0  0
   -1.3725   -1.7178   -4.4067 C   0  0  0  0  0  0  0  0  0  0  0  0
   -2.0329   -0.6461   -3.5183 C   0  0  0  0  0  0  0  0  0  0  0  0
   -1.0570   -0.2708   -2.4668 C   0  0  0  0  0  0  0  0  0  0  0  0
   -1.4520    0.7522   -1.4718 C   0  0  1  0  0  0  0  0  0  0  0  0
   -2.6272    0.4092   -0.6356 C   0  0  0  0  0  0  0  0  0  0  0  0
   -2.6137    0.1280    0.5648 O   0  0  0  0  0  0  0  0  0  0  0  0
   -3.9041    0.4258   -1.3218 N   0  0  0  0  0  0  0  0  0  0  0  0
   -5.1400    0.1330   -0.6382 C   0  0  2  0  0  0  0  0  0  0  0  0
   -5.9703   -0.8984   -1.2912 C   0  0  0  0  0  0  0  0  0  0  0  0
   -5.5413   -1.5085   -2.3316 O   0  0  0  0  0  0  0  0  0  0  0  0
   -7.2395   -1.1732   -0.7259 N   0  0  0  0  0  0  0  0  0  0  0  0
   -8.1849   -2.1349   -1.2308 C   0  0  2  0  0  0  0  0  0  0  0  0
   -9.4093   -1.4262   -1.7263 C   0  0  0  0  0  0  0  0  0  0  0  0
  -10.3930   -2.0556   -2.2040 O   0  0  0  0  0  0  0  0  0  0  0  0
   -9.5133    0.0032   -1.6778 N   0  0  0  0  0  0  0  0  0  0  0  0
   -8.5526   -3.1427   -0.1583 C   0  0  0  0  0  0  0  0  0  0  0  0
   -9.1544   -2.4940    1.0343 C   0  0  0  0  0  0  0  0  0  0  0  0
  -10.5002   -2.2409    1.1766 C   0  0  0  0  0  0  0  0  0  0  0  0
  -10.9527   -1.6266    2.3505 C   0  0  0  0  0  0  0  0  0  0  0  0
  -10.0760   -1.2745    3.3590 C   0  0  0  0  0  0  0  0  0  0  0  0
   -8.7162   -1.5269    3.2222 C   0  0  0  0  0  0  0  0  0  0  0  0
   -8.3121   -2.1287    2.0597 C   0  0  0  0  0  0  0  0  0  0  0  0
   -5.9282    1.4393   -0.4995 C   0  0  0  0  0  0  0  0  0  0  0  0
   -6.2177    1.9555   -1.8434 C   0  0  0  0  0  0  0  0  0  0  0  0
   -6.6956    3.1374   -1.9125 O   0  0  0  0  0  0  0  0  0  0  0  0
   -6.0242    1.2882   -3.0315 O   0  0  0  0  0  0  0  0  0  0  0  0
   -0.2767    1.1343   -0.7118 N   0  0  0  0  0  0  0  0  0  0  0  0
   -0.4354    2.2409    0.1704 C   0  0  0  0  0  0  0  0  0  0  0  0
   -1.6281    2.6928    0.2502 O   0  0  0  0  0  0  0  0  0  0  0  0
    0.5834    2.9063    0.9573 C   0  0  1  0  0  0  0  0  0  0  0  0
    0.5689    2.8436    2.4409 C   0  0  0  0  0  0  0  0  0  0  0  0
    0.6842    1.5399    3.0934 C   0  0  0  0  0  0  0  0  0  0  0  0
    1.9464    0.9979    3.4066 C   0  0  0  0  0  0  0  0  0  0  0  0
    1.8174   -0.2112    3.9458 N   0  0  0  0  0  0  0  0  0  0  0  0
    0.5143   -0.5111    4.0119 C   0  0  0  0  0  0  0  0  0  0  0  0
   -0.2048    0.5825    3.4789 C   0  0  0  0  0  0  0  0  0  0  0  0
   -1.5690    0.5567    3.4447 C   0  0  0  0  0  0  0  0  0  0  0  0
   -2.2300   -0.5569    3.9395 C   0  0  0  0  0  0  0  0  0  0  0  0
   -1.5073   -1.6373    4.4643 C   0  0  0  0  0  0  0  0  0  0  0  0
   -0.1352   -1.6183    4.5019 C   0  0  0  0  0  0  0  0  0  0  0  0
    1.9536    2.6442    0.4762 N   0  0  0  0  0  0  0  0  0  0  0  0
    2.3195    3.2921   -0.7128 C   0  0  0  0  0  0  0  0  0  0  0  0
    1.3702    4.0076   -1.2500 O   0  0  0  0  0  0  0  0  0  0  0  0
    3.5734    3.3004   -1.4443 C   0  0  0  0  0  0  0  0  0  0  0  0
    4.6420    2.6061   -0.7835 N   0  0  0  0  0  0  0  0  0  0  0  0
    5.0282    3.1417    0.5127 C   0  0  0  0  0  0  0  0  0  0  0  0
    4.3899    4.1449    0.9927 O   0  0  0  0  0  0  0  0  0  0  0  0
    6.1445    2.5657    1.2885 C   0  0  2  0  0  0  0  0  0  0  0  0
    6.7553    1.5191    0.4801 N   0  0  0  0  0  0  0  0  0  0  0  0
    8.0973    1.7492    0.0799 C   0  0  0  0  0  0  0  0  0  0  0  0
    8.7289    2.8163    0.4135 O   0  0  0  0  0  0  0  0  0  0  0  0
    8.8875    0.7960   -0.7510 C   0  0  2  0  0  0  0  0  0  0  0  0
    9.1150   -0.4490    0.1098 C   0  0  0  0  0  0  0  0  0  0  0  0
    9.9046   -1.4576   -0.6515 C   0  0  0  0  0  0  0  0  0  0  0  0
    9.3031   -2.4405   -1.4308 C   0  0  0  0  0  0  0  0  0  0  0  0
   10.0982   -3.3346   -2.1262 C   0  0  0  0  0  0  0  0  0  0  0  0
   11.4976   -3.2541   -2.0496 C   0  0  0  0  0  0  0  0  0  0  0  0
   12.0983   -2.2642   -1.2656 C   0  0  0  0  0  0  0  0  0  0  0  0
   11.2953   -1.3543   -0.5563 C   0  0  0  0  0  0  0  0  0  0  0  0
   12.2684   -4.1635   -2.7581 O   0  0  0  0  0  0  0  0  0  0  0  0
   10.1888    1.3684   -1.0802 N   0  0  0  0  0  0  0  0  0  0  0  0
    5.6920    1.9403    2.5824 C   0  0  0  0  0  0  0  0  0  0  0  0
   -0.1104   -2.7788   -2.9764 H   0  0  0  0  0  0  0  0  0  0  0  0
   -1.1124   -3.8563   -4.0474 H   0  0  0  0  0  0  0  0  0  0  0  0
   -1.8701   -2.9592   -2.7224 H   0  0  0  0  0  0  0  0  0  0  0  0
   -2.1391   -2.1165   -5.1357 H   0  0  0  0  0  0  0  0  0  0  0  0
   -0.4781   -1.3605   -4.9139 H   0  0  0  0  0  0  0  0  0  0  0  0
   -2.4491    0.1594   -4.1211 H   0  0  0  0  0  0  0  0  0  0  0  0
   -2.9139   -1.2257   -3.0932 H   0  0  0  0  0  0  0  0  0  0  0  0
   -0.0828   -0.0032   -2.9264 H   0  0  0  0  0  0  0  0  0  0  0  0
   -0.8232   -1.2258   -1.8929 H   0  0  0  0  0  0  0  0  0  0  0  0
   -1.7532    1.7054   -2.0312 H   0  0  0  0  0  0  0  0  0  0  0  0
   -3.9550    0.6687   -2.3274 H   0  0  0  0  0  0  0  0  0  0  0  0
   -4.9348   -0.1875    0.4203 H   0  0  0  0  0  0  0  0  0  0  0  0
   -7.5383   -0.6403    0.1462 H   0  0  0  0  0  0  0  0  0  0  0  0
   -7.7278   -2.6824   -2.0739 H   0  0  0  0  0  0  0  0  0  0  0  0
   -9.9580    0.4536   -2.5333 H   0  0  0  0  0  0  0  0  0  0  0  0
   -9.1867    0.5707   -0.8712 H   0  0  0  0  0  0  0  0  0  0  0  0
   -7.5885   -3.6302    0.1522 H   0  0  0  0  0  0  0  0  0  0  0  0
   -9.1649   -3.9328   -0.6027 H   0  0  0  0  0  0  0  0  0  0  0  0
  -11.1851   -2.5197    0.3788 H   0  0  0  0  0  0  0  0  0  0  0  0
  -11.9984   -1.4147    2.4884 H   0  0  0  0  0  0  0  0  0  0  0  0
  -10.3792   -0.8002    4.2786 H   0  0  0  0  0  0  0  0  0  0  0  0
   -8.0153   -1.2603    3.9940 H   0  0  0  0  0  0  0  0  0  0  0  0
   -7.2530   -2.3233    1.9521 H   0  0  0  0  0  0  0  0  0  0  0  0
   -6.8151    1.3166    0.1306 H   0  0  0  0  0  0  0  0  0  0  0  0
   -5.2528    2.1643    0.0367 H   0  0  0  0  0  0  0  0  0  0  0  0
   -6.4676    1.4772   -3.9067 H   0  0  0  0  0  0  0  0  0  0  0  0
    0.6487    0.6718   -0.7651 H   0  0  0  0  0  0  0  0  0  0  0  0
    0.4701    4.0364    0.7130 H   0  0  0  0  0  0  0  0  0  0  0  0
   -0.4056    3.2884    2.8077 H   0  0  0  0  0  0  0  0  0  0  0  0
    1.3503    3.5345    2.8783 H   0  0  0  0  0  0  0  0  0  0  0  0
    2.9105    1.4677    3.2465 H   0  0  0  0  0  0  0  0  0  0  0  0
    2.5820   -0.8239    4.2626 H   0  0  0  0  0  0  0  0  0  0  0  0
   -2.0924    1.4205    3.0321 H   0  0  0  0  0  0  0  0  0  0  0  0
   -3.3143   -0.6174    3.9332 H   0  0  0  0  0  0  0  0  0  0  0  0
   -2.0023   -2.5207    4.8553 H   0  0  0  0  0  0  0  0  0  0  0  0
    0.4656   -2.4473    4.9032 H   0  0  0  0  0  0  0  0  0  0  0  0
    2.6316    2.0343    0.9478 H   0  0  0  0  0  0  0  0  0  0  0  0
    3.3625    2.7923   -2.4480 H   0  0  0  0  0  0  0  0  0  0  0  0
    3.8921    4.3573   -1.7127 H   0  0  0  0  0  0  0  0  0  0  0  0
    5.1339    1.7732   -1.1761 H   0  0  0  0  0  0  0  0  0  0  0  0
    6.9203    3.3501    1.5022 H   0  0  0  0  0  0  0  0  0  0  0  0
    6.2839    0.6551    0.1958 H   0  0  0  0  0  0  0  0  0  0  0  0
    8.3147    0.5797   -1.6590 H   0  0  0  0  0  0  0  0  0  0  0  0
    8.1049   -0.8439    0.3718 H   0  0  0  0  0  0  0  0  0  0  0  0
    9.5913   -0.1127    1.0400 H   0  0  0  0  0  0  0  0  0  0  0  0
    8.2253   -2.4827   -1.4756 H   0  0  0  0  0  0  0  0  0  0  0  0
    9.6048   -4.0859   -2.7240 H   0  0  0  0  0  0  0  0  0  0  0  0
   13.1852   -2.1834   -1.1879 H   0  0  0  0  0  0  0  0  0  0  0  0
   11.7491   -0.5718    0.0598 H   0  0  0  0  0  0  0  0  0  0  0  0
   13.2794   -4.0959   -2.6827 H   0  0  0  0  0  0  0  0  0  0  0  0
   10.0557    2.3945   -1.2611 H   0  0  0  0  0  0  0  0  0  0  0  0
   10.5150    0.9298   -1.9604 H   0  0  0  0  0  0  0  0  0  0  0  0
    6.5831    1.7924    3.2750 H   0  0  0  0  0  0  0  0  0  0  0  0
    4.9741    2.5681    3.1498 H   0  0  0  0  0  0  0  0  0  0  0  0
    5.2975    0.8891    2.4379 H   0  0  0  0  0  0  0  0  0  0  0  0
  1  2  1  0
  2  3  1  0
  3  4  1  0
  4  5  1  0
  5  6  1  0
  6  7  2  0
  6  8  1  0
  8  9  1  0
  9 10  1  0
 10 11  2  0
 10 12  1  0
 12 13  1  0
 13 14  1  0
 14 15  2  0
 14 16  1  0
 13 17  1  0
 17 18  1  0
 18 19  2  0
 19 20  1  0
 20 21  2  0
 21 22  1  0
 22 23  2  0
  9 24  1  0
 24 25  1  0
 25 26  2  0
 25 27  1  0
  5 28  1  0
 28 29  1  0
 29 30  2  0
 29 31  1  0
 31 32  1  0
 32 33  1  0
 33 34  2  0
 34 35  1  0
 35 36  1  0
 36 37  2  0
 37 38  1  0
 38 39  2  0
 39 40  1  0
 40 41  2  0
 31 42  1  0
 42 43  1  0
 43 44  2  0
 43 45  1  0
 45 46  1  0
 46 47  1  0
 47 48  2  0
 47 49  1  0
 49 50  1  0
 50 51  1  0
 51 52  2  0
 51 53  1  0
 53 54  1  0
 54 55  1  0
 55 56  2  0
 56 57  1  0
 57 58  2  0
 58 59  1  0
 59 60  2  0
 58 61  1  0
 53 62  1  0
 49 63  1  0
 23 18  1  0
 37 33  1  0
 60 55  1  0
 41 36  1  0
  1 64  1  0
  1 65  1  0
  1 66  1  0
  2 67  1  0
  2 68  1  0
  3 69  1  0
  3 70  1  0
  4 71  1  0
  4 72  1  0
  5 73  1  6
  8 74  1  0
  9 75  1  1
 12 76  1  0
 13 77  1  6
 16 78  1  0
 16 79  1  0
 17 80  1  0
 17 81  1  0
 19 82  1  0
 20 83  1  0
 21 84  1  0
 22 85  1  0
 23 86  1  0
 24 87  1  0
 24 88  1  0
 27 89  1  0
 28 90  1  0
 31 91  1  1
 32 92  1  0
 32 93  1  0
 34 94  1  0
 35 95  1  0
 38 96  1  0
 39 97  1  0
 40 98  1  0
 41 99  1  0
 42100  1  0
 45101  1  0
 45102  1  0
 46103  1  0
 49104  1  1
 50105  1  0
 53106  1  6
 54107  1  0
 54108  1  0
 56109  1  0
 57110  1  0
 59111  1  0
 60112  1  0
 61113  1  0
 62114  1  0
 62115  1  0
 63116  1  0
 63117  1  0
 63118  1  0
M  END
>  <Ligand ID>  (1) 
LIG0004151

>  <Ligand>  (1) 
Tyr-D-Ala-Gly-D-Trp-Nle-Asp-Phe-NH2

>  <SMILES>  (1) 
CCCC[C@@H](C(=O)N[C@H](C(=O)N[C@H](C(=O)N)Cc1ccccc1)CC(=O)O)NC(=O)[C@@H](Cc1c[nH]c2c1cccc2)NC(=O)CNC(=O)[C@H](NC(=O)[C@H](Cc1ccc(cc1)O)N)C

>  <CID>  (1) 
11520765.0

>  <ChEMBL ID>  (1) 
nan

>  <InChiKey>  (1) 
LTNSZIYAGMZDDY-GUNATADUSA-N

>  <InChi>  (1) 
InChI=1S/C44H55N9O10/c1-3-4-13-33(42(61)53-36(22-38(56)57)44(63)52-34(39(46)58)20-26-10-6-5-7-11-26)51-43(62)35(21-28-23-47-32-14-9-8-12-30(28)32)50-37(55)24-48-40(59)25(2)49-41(60)31(45)19-27-15-17-29(54)18-16-27/h5-12,14-18,23,25,31,33-36,47,54H,3-4,13,19-22,24,45H2,1-2H3,(H2,46,58)(H,48,59)(H,49,60)(H,50,55)(H,51,62)(H,52,63)(H,53,61)(H,56,57)/t25-,31+,33+,34+,35-,36+/m1/s1

>  <IUPAC Name>  (1) 
(3S)-3-[[(2S)-2-[[(2R)-2-[[2-[[(2R)-2-[[(2S)-2-amino-3-(4-hydroxyphenyl)propanoyl]amino]propanoyl]amino]acetyl]amino]-3-(1H-indol-3-yl)propanoyl]amino]hexanoyl]amino]-4-[[(2S)-1-amino-1-oxo-3-phenylpropan-2-yl]amino]-4-oxobutanoic acid

$$$$
