
     RDKit          3D

 49 52  0  0  0  0  0  0  0  0999 V2000
   -4.9783   -2.1084    2.7350 N   0  0  0  0  0  0  0  0  0  0  0  0
   -5.7795   -1.7030    1.9909 C   0  0  0  0  0  0  0  0  0  0  0  0
   -6.7808   -1.1759    1.0756 C   0  0  0  0  0  0  0  0  0  0  0  0
   -8.0259   -1.7235    1.0289 C   0  0  0  0  0  0  0  0  0  0  0  0
   -8.9193   -1.1852    0.1525 N   0  0  0  0  0  0  0  0  0  0  0  0
   -8.5542   -0.1446   -0.6301 C   0  0  0  0  0  0  0  0  0  0  0  0
   -7.2964    0.4152   -0.5887 C   0  0  0  0  0  0  0  0  0  0  0  0
   -6.3701   -0.1091    0.2891 C   0  0  0  0  0  0  0  0  0  0  0  0
   -4.9856    0.4524    0.3805 C   0  0  0  0  0  0  0  0  0  0  0  0
   -4.0781   -0.3814   -0.2695 O   0  0  0  0  0  0  0  0  0  0  0  0
   -2.7210   -0.0674   -0.3186 C   0  0  0  0  0  0  0  0  0  0  0  0
   -1.8699   -0.9428   -0.9854 C   0  0  0  0  0  0  0  0  0  0  0  0
   -0.5499   -0.6444   -1.0368 N   0  0  0  0  0  0  0  0  0  0  0  0
   -0.0790    0.4720   -0.4561 C   0  0  0  0  0  0  0  0  0  0  0  0
   -0.8937    1.3236    0.1903 N   0  0  0  0  0  0  0  0  0  0  0  0
   -2.2356    1.0846    0.2809 C   0  0  0  0  0  0  0  0  0  0  0  0
    1.3209    0.7524   -0.5339 N   0  0  0  0  0  0  0  0  0  0  0  0
    1.8775    1.9510    0.1102 C   0  0  0  0  0  0  0  0  0  0  0  0
    3.0406    1.4143    0.9552 C   0  0  0  0  0  0  0  0  0  0  0  0
    4.0004    0.8693    0.0087 N   0  0  0  0  0  0  0  0  0  0  0  0
    3.5852    0.4760   -1.3245 C   0  0  0  0  0  0  0  0  0  0  0  0
    2.2092   -0.1360   -1.2487 C   0  0  1  0  0  0  0  0  0  0  0  0
    2.3313   -1.5003   -0.6372 C   0  0  0  0  0  0  0  0  0  0  0  0
    5.3571    0.7238    0.4025 C   0  0  0  0  0  0  0  0  0  0  0  0
    5.9125    1.0307    1.5863 N   0  0  0  0  0  0  0  0  0  0  0  0
    7.1963    0.7508    1.5617 O   0  0  0  0  0  0  0  0  0  0  0  0
    7.4822    0.2665    0.3790 C   0  0  0  0  0  0  0  0  0  0  0  0
    6.3560    0.2318   -0.3816 N   0  0  0  0  0  0  0  0  0  0  0  0
    8.8615   -0.1682   -0.0201 C   0  0  0  0  0  0  0  0  0  0  0  0
    9.7006    0.9136    0.1222 F   0  0  0  0  0  0  0  0  0  0  0  0
    8.7955   -0.5839   -1.3362 F   0  0  0  0  0  0  0  0  0  0  0  0
    9.2303   -1.1895    0.8265 F   0  0  0  0  0  0  0  0  0  0  0  0
   -8.2909   -2.5606    1.6710 H   0  0  0  0  0  0  0  0  0  0  0  0
   -9.2482    0.3110   -1.3459 H   0  0  0  0  0  0  0  0  0  0  0  0
   -7.0401    1.2450   -1.2292 H   0  0  0  0  0  0  0  0  0  0  0  0
   -5.0433    1.4695   -0.0202 H   0  0  0  0  0  0  0  0  0  0  0  0
   -4.6787    0.5417    1.4463 H   0  0  0  0  0  0  0  0  0  0  0  0
   -2.2435   -1.8566   -1.4623 H   0  0  0  0  0  0  0  0  0  0  0  0
   -2.8961    1.7753    0.8053 H   0  0  0  0  0  0  0  0  0  0  0  0
    2.2309    2.6755   -0.6307 H   0  0  0  0  0  0  0  0  0  0  0  0
    1.1755    2.4129    0.8124 H   0  0  0  0  0  0  0  0  0  0  0  0
    3.4152    2.2591    1.5356 H   0  0  0  0  0  0  0  0  0  0  0  0
    2.6243    0.6255    1.6090 H   0  0  0  0  0  0  0  0  0  0  0  0
    4.3286   -0.2290   -1.7121 H   0  0  0  0  0  0  0  0  0  0  0  0
    3.5305    1.3265   -2.0356 H   0  0  0  0  0  0  0  0  0  0  0  0
    1.8617   -0.2634   -2.2991 H   0  0  0  0  0  0  0  0  0  0  0  0
    2.1501   -2.3213   -1.3839 H   0  0  0  0  0  0  0  0  0  0  0  0
    3.3697   -1.6906   -0.2505 H   0  0  0  0  0  0  0  0  0  0  0  0
    1.6146   -1.7032    0.1812 H   0  0  0  0  0  0  0  0  0  0  0  0
  1  2  3  0
  2  3  1  0
  3  4  2  0
  4  5  1  0
  5  6  2  0
  6  7  1  0
  7  8  2  0
  8  9  1  0
  9 10  1  0
 10 11  1  0
 11 12  2  0
 12 13  1  0
 13 14  2  0
 14 15  1  0
 15 16  2  0
 14 17  1  0
 17 18  1  0
 18 19  1  0
 19 20  1  0
 20 21  1  0
 21 22  1  0
 22 23  1  0
 20 24  1  0
 24 25  2  0
 25 26  1  0
 26 27  1  0
 27 28  2  0
 27 29  1  0
 29 30  1  0
 29 31  1  0
 29 32  1  0
  8  3  1  0
 16 11  1  0
 22 17  1  0
 28 24  1  0
  4 33  1  0
  6 34  1  0
  7 35  1  0
  9 36  1  0
  9 37  1  0
 12 38  1  0
 16 39  1  0
 18 40  1  0
 18 41  1  0
 19 42  1  0
 19 43  1  0
 21 44  1  0
 21 45  1  0
 22 46  1  6
 23 47  1  0
 23 48  1  0
 23 49  1  0
M  END
>  <Ligand ID>  (1) 
LIG0005314

>  <Ligand>  (1) 
CHEMBL2086693

>  <SMILES>  (1) 
N#Cc1cnccc1COc1cnc(nc1)N1CCN(C[C@H]1C)c1noc(n1)C(F)(F)F

>  <CID>  (1) 
51030901.0

>  <ChEMBL ID>  (1) 
nan

>  <InChiKey>  (1) 
IPMIRPYUNFWKRA-GFCCVEGCSA-N

>  <InChi>  (1) 
InChI=1S/C19H17F3N8O2/c1-12-10-29(18-27-16(32-28-18)19(20,21)22)4-5-30(12)17-25-8-15(9-26-17)31-11-13-2-3-24-7-14(13)6-23/h2-3,7-9,12H,4-5,10-11H2,1H3/t12-/m1/s1

>  <IUPAC Name>  (1) 
4-[[2-[(2R)-2-methyl-4-[5-(trifluoromethyl)-1,2,4-oxadiazol-3-yl]piperazin-1-yl]pyrimidin-5-yl]oxymethyl]pyridine-3-carbonitrile

$$$$
