
     RDKit          3D

 59 63  0  0  0  0  0  0  0  0999 V2000
   -3.0318   -4.9346   -0.1371 C   0  0  0  0  0  0  0  0  0  0  0  0
   -3.6468   -3.5854   -0.1410 C   0  0  0  0  0  0  0  0  0  0  0  0
   -5.0363   -3.5080   -0.0310 C   0  0  0  0  0  0  0  0  0  0  0  0
   -5.6928   -2.3063   -0.0254 C   0  0  0  0  0  0  0  0  0  0  0  0
   -4.9430   -1.1417   -0.1330 C   0  0  0  0  0  0  0  0  0  0  0  0
   -3.5741   -1.2059   -0.2423 C   0  0  0  0  0  0  0  0  0  0  0  0
   -2.9372   -2.4155   -0.2459 C   0  0  0  0  0  0  0  0  0  0  0  0
   -2.8296   -0.0578   -0.3492 C   0  0  0  0  0  0  0  0  0  0  0  0
   -3.5373    1.1447   -0.3394 C   0  0  0  0  0  0  0  0  0  0  0  0
   -4.9114    1.1707   -0.2283 C   0  0  0  0  0  0  0  0  0  0  0  0
   -5.6057    0.0224   -0.1258 N   0  0  0  0  0  0  0  0  0  0  0  0
   -5.5849    2.4591   -0.2271 C   0  0  0  0  0  0  0  0  0  0  0  0
   -6.9703    2.4712   -0.1171 C   0  0  0  0  0  0  0  0  0  0  0  0
   -7.5672    3.7122   -0.1223 C   0  0  0  0  0  0  0  0  0  0  0  0
   -6.8550    4.8959   -0.2299 C   0  0  0  0  0  0  0  0  0  0  0  0
   -5.4724    4.8154   -0.3368 C   0  0  0  0  0  0  0  0  0  0  0  0
   -4.9137    3.6116   -0.3301 N   0  0  0  0  0  0  0  0  0  0  0  0
   -1.3938   -0.0048   -0.4830 C   0  0  0  0  0  0  0  0  0  0  0  0
   -0.9224    0.5135   -1.5531 O   0  0  0  0  0  0  0  0  0  0  0  0
   -0.4481   -0.4685    0.4507 N   0  0  0  0  0  0  0  0  0  0  0  0
    0.9268   -0.3157    0.1086 C   0  0  0  0  0  0  0  0  0  0  0  0
    1.5113   -1.3596   -0.5766 C   0  0  0  0  0  0  0  0  0  0  0  0
    2.8269   -1.3383   -0.9843 C   0  0  0  0  0  0  0  0  0  0  0  0
    3.5522   -0.1926   -0.6663 C   0  0  0  0  0  0  0  0  0  0  0  0
    2.9659    0.8443    0.0169 C   0  0  0  0  0  0  0  0  0  0  0  0
    1.6351    0.8241    0.4302 C   0  0  0  0  0  0  0  0  0  0  0  0
    5.2192   -0.1543   -1.1906 S   0  0  0  0  0  0  0  0  0  0  0  0
    5.4105   -0.9332   -2.4618 O   0  0  0  0  0  0  0  0  0  0  0  0
    5.6131    1.2718   -1.5112 O   0  0  0  0  0  0  0  0  0  0  0  0
    6.3182   -0.7488   -0.0263 N   0  0  0  0  0  0  0  0  0  0  0  0
    6.2858    0.0478    1.1851 C   0  0  0  0  0  0  0  0  0  0  0  0
    6.7485    1.4676    0.9264 C   0  0  0  0  0  0  0  0  0  0  0  0
    7.7572    1.5541   -0.0063 O   0  0  0  0  0  0  0  0  0  0  0  0
    8.4810    0.3823   -0.1453 C   0  0  0  0  0  0  0  0  0  0  0  0
    7.6296   -0.7545   -0.6082 C   0  0  0  0  0  0  0  0  0  0  0  0
   -3.6688   -5.5971   -0.7876 H   0  0  0  0  0  0  0  0  0  0  0  0
   -2.9836   -5.3463    0.8996 H   0  0  0  0  0  0  0  0  0  0  0  0
   -2.0001   -4.8377   -0.5021 H   0  0  0  0  0  0  0  0  0  0  0  0
   -5.5955   -4.4290    0.0517 H   0  0  0  0  0  0  0  0  0  0  0  0
   -6.7713   -2.2657    0.0598 H   0  0  0  0  0  0  0  0  0  0  0  0
   -1.8569   -2.4610   -0.3318 H   0  0  0  0  0  0  0  0  0  0  0  0
   -2.9737    2.0758   -0.4222 H   0  0  0  0  0  0  0  0  0  0  0  0
   -7.5399    1.5591   -0.0323 H   0  0  0  0  0  0  0  0  0  0  0  0
   -8.6405    3.8149   -0.0411 H   0  0  0  0  0  0  0  0  0  0  0  0
   -7.3652    5.8457   -0.2302 H   0  0  0  0  0  0  0  0  0  0  0  0
   -4.9442    5.7472   -0.4186 H   0  0  0  0  0  0  0  0  0  0  0  0
   -0.7884   -0.8953    1.3353 H   0  0  0  0  0  0  0  0  0  0  0  0
    0.9287   -2.2472   -0.8161 H   0  0  0  0  0  0  0  0  0  0  0  0
    3.2852   -2.1380   -1.5118 H   0  0  0  0  0  0  0  0  0  0  0  0
    3.5346    1.7222    0.2572 H   0  0  0  0  0  0  0  0  0  0  0  0
    1.1758    1.6381    0.9672 H   0  0  0  0  0  0  0  0  0  0  0  0
    5.2414    0.1293    1.5485 H   0  0  0  0  0  0  0  0  0  0  0  0
    6.8827   -0.4242    1.9675 H   0  0  0  0  0  0  0  0  0  0  0  0
    5.8882    2.1068    0.6538 H   0  0  0  0  0  0  0  0  0  0  0  0
    7.0860    1.8693    1.9244 H   0  0  0  0  0  0  0  0  0  0  0  0
    9.0667    0.1655    0.7765 H   0  0  0  0  0  0  0  0  0  0  0  0
    9.2591    0.5890   -0.9273 H   0  0  0  0  0  0  0  0  0  0  0  0
    7.5852   -0.6937   -1.7213 H   0  0  0  0  0  0  0  0  0  0  0  0
    8.1868   -1.7103   -0.4052 H   0  0  0  0  0  0  0  0  0  0  0  0
  1  2  1  0
  2  3  2  0
  3  4  1  0
  4  5  2  0
  5  6  1  0
  6  7  2  0
  6  8  1  0
  8  9  2  0
  9 10  1  0
 10 11  2  0
 10 12  1  0
 12 13  2  0
 13 14  1  0
 14 15  2  0
 15 16  1  0
 16 17  2  0
  8 18  1  0
 18 19  2  0
 18 20  1  0
 20 21  1  0
 21 22  2  0
 22 23  1  0
 23 24  2  0
 24 25  1  0
 25 26  2  0
 24 27  1  0
 27 28  2  0
 27 29  2  0
 27 30  1  0
 30 31  1  0
 31 32  1  0
 32 33  1  0
 33 34  1  0
 34 35  1  0
  7  2  1  0
 17 12  1  0
 26 21  1  0
 35 30  1  0
 11  5  1  0
  1 36  1  0
  1 37  1  0
  1 38  1  0
  3 39  1  0
  4 40  1  0
  7 41  1  0
  9 42  1  0
 13 43  1  0
 14 44  1  0
 15 45  1  0
 16 46  1  0
 20 47  1  0
 22 48  1  0
 23 49  1  0
 25 50  1  0
 26 51  1  0
 31 52  1  0
 31 53  1  0
 32 54  1  0
 32 55  1  0
 34 56  1  0
 34 57  1  0
 35 58  1  0
 35 59  1  0
M  END
>  <Ligand ID>  (1) 
LIG0003896

>  <Ligand>  (1) 
MLS-0269956.0001

>  <SMILES>  (1) 
Cc1ccc2c(c1)c(cc(n2)c1ccccn1)C(=O)Nc1ccc(cc1)S(=O)(=O)N1CCOCC1

>  <CID>  (1) 
1261894.0

>  <ChEMBL ID>  (1) 
nan

>  <InChiKey>  (1) 
KXAHTHUGPBSXNS-UHFFFAOYSA-N

>  <InChi>  (1) 
InChI=1S/C26H24N4O4S/c1-18-5-10-23-21(16-18)22(17-25(29-23)24-4-2-3-11-27-24)26(31)28-19-6-8-20(9-7-19)35(32,33)30-12-14-34-15-13-30/h2-11,16-17H,12-15H2,1H3,(H,28,31)

>  <IUPAC Name>  (1) 
6-methyl-N-(4-morpholin-4-ylsulfonylphenyl)-2-pyridin-2-ylquinoline-4-carboxamide

$$$$
