
     RDKit          3D

 72 75  0  0  0  0  0  0  0  0999 V2000
   -9.7680    3.3454   -0.9388 O   0  0  0  0  0  0  0  0  0  0  0  0
   -8.6369    2.6044   -0.5950 C   0  0  0  0  0  0  0  0  0  0  0  0
   -8.4978    2.2758    0.7390 C   0  0  0  0  0  0  0  0  0  0  0  0
   -7.3944    1.5435    1.1331 C   0  0  0  0  0  0  0  0  0  0  0  0
   -6.4680    1.1632    0.1892 C   0  0  0  0  0  0  0  0  0  0  0  0
   -6.5856    1.4795   -1.1483 C   0  0  0  0  0  0  0  0  0  0  0  0
   -7.6931    2.2110   -1.5254 C   0  0  0  0  0  0  0  0  0  0  0  0
   -5.5552    1.0453   -2.1434 C   0  0  0  0  0  0  0  0  0  0  0  0
   -3.9383    1.5475   -1.4510 S   0  0  0  0  0  0  0  0  0  0  0  0
   -4.0909    1.3788    0.3729 C   0  0  1  0  0  0  0  0  0  0  0  0
   -5.2347    0.3719    0.5597 C   0  0  0  0  0  0  0  0  0  0  0  0
   -2.8090    0.8562    0.8660 C   0  0  0  0  0  0  0  0  0  0  0  0
   -2.2494    1.5063    1.8084 O   0  0  0  0  0  0  0  0  0  0  0  0
   -2.2313   -0.3191    0.3091 N   0  0  0  0  0  0  0  0  0  0  0  0
   -0.9312   -0.7512    0.8816 C   0  0  1  0  0  0  0  0  0  0  0  0
   -1.1330   -2.1156    1.4664 C   0  0  0  0  0  0  0  0  0  0  0  0
   -1.5714   -3.1534    0.4758 C   0  0  0  0  0  0  0  0  0  0  0  0
   -0.0014   -2.6027    2.3244 C   0  0  0  0  0  0  0  0  0  0  0  0
    0.1216   -0.6584   -0.1853 C   0  0  0  0  0  0  0  0  0  0  0  0
    1.4144   -1.0102    0.2785 N   0  0  0  0  0  0  0  0  0  0  0  0
    1.9850   -0.0503    1.1789 C   0  0  0  0  0  0  0  0  0  0  0  0
    3.4742   -0.0083    1.1914 C   0  0  0  0  0  0  0  0  0  0  0  0
    4.0438    0.0725   -0.2159 C   0  0  1  0  0  0  0  0  0  0  0  0
    3.4513   -0.9105   -1.1278 C   0  0  2  0  0  0  0  0  0  0  0  0
    2.2869   -1.6969   -0.5799 C   0  0  0  0  0  0  0  0  0  0  0  0
    4.4506   -1.9304   -1.6112 C   0  0  0  0  0  0  0  0  0  0  0  0
    3.6033    1.4645   -0.7570 C   0  0  0  0  0  0  0  0  0  0  0  0
    5.5126    0.1587   -0.1255 C   0  0  0  0  0  0  0  0  0  0  0  0
    6.2937   -0.9121    0.3003 C   0  0  0  0  0  0  0  0  0  0  0  0
    7.6712   -0.8398    0.3806 C   0  0  0  0  0  0  0  0  0  0  0  0
    8.3549    0.2999    0.0424 C   0  0  0  0  0  0  0  0  0  0  0  0
    7.6047    1.3757   -0.3832 C   0  0  0  0  0  0  0  0  0  0  0  0
    6.2311    1.3070   -0.4639 C   0  0  0  0  0  0  0  0  0  0  0  0
    8.2829    2.5440   -0.7318 O   0  0  0  0  0  0  0  0  0  0  0  0
   -9.5981    4.3604   -0.9685 H   0  0  0  0  0  0  0  0  0  0  0  0
   -9.2133    2.5645    1.5039 H   0  0  0  0  0  0  0  0  0  0  0  0
   -7.2390    1.2610    2.1669 H   0  0  0  0  0  0  0  0  0  0  0  0
   -7.8418    2.4926   -2.5729 H   0  0  0  0  0  0  0  0  0  0  0  0
   -5.7175    1.5202   -3.1199 H   0  0  0  0  0  0  0  0  0  0  0  0
   -5.5164   -0.0791   -2.1921 H   0  0  0  0  0  0  0  0  0  0  0  0
   -4.4018    2.3128    0.8458 H   0  0  0  0  0  0  0  0  0  0  0  0
   -5.3456    0.0427    1.5918 H   0  0  0  0  0  0  0  0  0  0  0  0
   -5.0419   -0.4443   -0.1613 H   0  0  0  0  0  0  0  0  0  0  0  0
   -2.6673   -0.8590   -0.4500 H   0  0  0  0  0  0  0  0  0  0  0  0
   -0.6943   -0.0481    1.6822 H   0  0  0  0  0  0  0  0  0  0  0  0
   -2.0057   -2.0033    2.1771 H   0  0  0  0  0  0  0  0  0  0  0  0
   -0.8780   -3.2805   -0.3718 H   0  0  0  0  0  0  0  0  0  0  0  0
   -2.5947   -2.9919    0.0940 H   0  0  0  0  0  0  0  0  0  0  0  0
   -1.6115   -4.1260    1.0111 H   0  0  0  0  0  0  0  0  0  0  0  0
    0.8772   -2.8143    1.6988 H   0  0  0  0  0  0  0  0  0  0  0  0
   -0.3088   -3.5710    2.8175 H   0  0  0  0  0  0  0  0  0  0  0  0
    0.1678   -1.8968    3.1460 H   0  0  0  0  0  0  0  0  0  0  0  0
    0.1531    0.4323   -0.4616 H   0  0  0  0  0  0  0  0  0  0  0  0
   -0.1589   -1.1588   -1.1323 H   0  0  0  0  0  0  0  0  0  0  0  0
    1.6590   -0.2900    2.2069 H   0  0  0  0  0  0  0  0  0  0  0  0
    1.5342    0.9735    0.9950 H   0  0  0  0  0  0  0  0  0  0  0  0
    3.8325   -0.9152    1.7001 H   0  0  0  0  0  0  0  0  0  0  0  0
    3.7875    0.9158    1.7087 H   0  0  0  0  0  0  0  0  0  0  0  0
    3.0819   -0.4114   -2.0891 H   0  0  0  0  0  0  0  0  0  0  0  0
    1.7012   -2.0586   -1.4538 H   0  0  0  0  0  0  0  0  0  0  0  0
    2.6603   -2.6366   -0.0773 H   0  0  0  0  0  0  0  0  0  0  0  0
    4.0539   -2.3378   -2.6015 H   0  0  0  0  0  0  0  0  0  0  0  0
    5.4367   -1.5493   -1.8542 H   0  0  0  0  0  0  0  0  0  0  0  0
    4.4326   -2.8527   -0.9708 H   0  0  0  0  0  0  0  0  0  0  0  0
    4.0368    1.6279   -1.7600 H   0  0  0  0  0  0  0  0  0  0  0  0
    3.8645    2.2643   -0.0566 H   0  0  0  0  0  0  0  0  0  0  0  0
    2.5007    1.4699   -0.8909 H   0  0  0  0  0  0  0  0  0  0  0  0
    5.8497   -1.8490    0.5958 H   0  0  0  0  0  0  0  0  0  0  0  0
    8.2782   -1.6844    0.7158 H   0  0  0  0  0  0  0  0  0  0  0  0
    9.4143    0.3957    0.0928 H   0  0  0  0  0  0  0  0  0  0  0  0
    5.7252    2.1926   -0.8074 H   0  0  0  0  0  0  0  0  0  0  0  0
    7.7946    3.4398   -0.8074 H   0  0  0  0  0  0  0  0  0  0  0  0
  1  2  1  0
  2  3  2  0
  3  4  1  0
  4  5  2  0
  5  6  1  0
  6  7  2  0
  6  8  1  0
  8  9  1  0
  9 10  1  0
 10 11  1  0
 10 12  1  0
 12 13  2  0
 12 14  1  0
 14 15  1  0
 15 16  1  0
 16 17  1  0
 16 18  1  0
 15 19  1  0
 19 20  1  0
 20 21  1  0
 21 22  1  0
 22 23  1  0
 23 24  1  0
 24 25  1  0
 24 26  1  0
 23 27  1  6
 23 28  1  0
 28 29  2  0
 29 30  1  0
 30 31  2  0
 31 32  1  0
 32 33  2  0
 32 34  1  0
  7  2  1  0
 25 20  1  0
 33 28  1  0
 11  5  1  0
  1 35  1  0
  3 36  1  0
  4 37  1  0
  7 38  1  0
  8 39  1  0
  8 40  1  0
 10 41  1  1
 11 42  1  0
 11 43  1  0
 14 44  1  0
 15 45  1  1
 16 46  1  0
 17 47  1  0
 17 48  1  0
 17 49  1  0
 18 50  1  0
 18 51  1  0
 18 52  1  0
 19 53  1  0
 19 54  1  0
 21 55  1  0
 21 56  1  0
 22 57  1  0
 22 58  1  0
 24 59  1  6
 25 60  1  0
 25 61  1  0
 26 62  1  0
 26 63  1  0
 26 64  1  0
 27 65  1  0
 27 66  1  0
 27 67  1  0
 29 68  1  0
 30 69  1  0
 31 70  1  0
 33 71  1  0
 34 72  1  0
M  END
>  <Ligand ID>  (1) 
LIG0002299

>  <Ligand>  (1) 
CHEMBL1204085

>  <SMILES>  (1) 
Oc1ccc2c(c1)CS[C@@H](C2)C(=O)N[C@@H](C(C)C)CN1CC[C@@]([C@H](C1)C)(C)c1cccc(c1)O

>  <CID>  (1) 
11540292.0

>  <ChEMBL ID>  (1) 
nan

>  <InChiKey>  (1) 
GZAFXIZAXLELIO-XIFUISQJSA-N

>  <InChi>  (1) 
InChI=1S/C28H38N2O3S/c1-18(2)25(29-27(33)26-13-20-8-9-24(32)12-21(20)17-34-26)16-30-11-10-28(4,19(3)15-30)22-6-5-7-23(31)14-22/h5-9,12,14,18-19,25-26,31-32H,10-11,13,15-17H2,1-4H3,(H,29,33)/t19-,25+,26-,28+/m0/s1

>  <IUPAC Name>  (1) 
(3S)-7-hydroxy-N-[(2S)-1-[(3R,4R)-4-(3-hydroxyphenyl)-3,4-dimethylpiperidin-1-yl]-3-methylbutan-2-yl]-3,4-dihydro-1H-isothiochromene-3-carboxamide

$$$$
