
     RDKit          3D

 43 43  0  0  0  0  0  0  0  0999 V2000
   -4.7749    0.9184   -2.2162 O   0  0  0  0  0  0  0  0  0  0  0  0
   -4.3471    1.3913   -0.9560 C   0  0  0  0  0  0  0  0  0  0  0  0
   -3.3721    2.1976   -1.0125 O   0  0  0  0  0  0  0  0  0  0  0  0
   -5.0234    0.9396    0.2356 C   0  0  2  0  0  0  0  0  0  0  0  0
   -4.5348   -0.2188    1.0100 C   0  0  0  0  0  0  0  0  0  0  0  0
   -3.1817   -0.1692    1.5766 C   0  0  0  0  0  0  0  0  0  0  0  0
   -1.8242   -0.1780    0.4063 P   0  0  0  0  0  0  0  0  0  0  0  0
   -1.0355    1.1212    0.4260 O   0  0  0  0  0  0  0  0  0  0  0  0
   -0.6299   -1.5347    0.8725 C   0  0  0  0  0  0  0  0  0  0  0  0
    0.7254   -1.0740    0.4848 C   0  0  0  0  0  0  0  0  0  0  0  0
    1.2923   -0.0610    1.2468 C   0  0  0  0  0  0  0  0  0  0  0  0
    2.5502    0.4281    0.9563 C   0  0  0  0  0  0  0  0  0  0  0  0
    3.2406   -0.1138   -0.1159 C   0  0  0  0  0  0  0  0  0  0  0  0
    2.6859   -1.1234   -0.8822 C   0  0  0  0  0  0  0  0  0  0  0  0
    1.4140   -1.6166   -0.5870 C   0  0  0  0  0  0  0  0  0  0  0  0
    4.5018    0.4141   -0.3649 O   0  0  0  0  0  0  0  0  0  0  0  0
    5.3492    0.0055   -1.3920 C   0  0  0  0  0  0  0  0  0  0  0  0
    6.8534    1.0180   -1.2576 P   0  0  0  0  0  0  0  0  0  0  0  0
    8.0409    0.3631   -1.8943 O   0  0  0  0  0  0  0  0  0  0  0  0
    7.1078    1.3248    0.3909 O   0  0  0  0  0  0  0  0  0  0  0  0
    6.4809    2.5197   -1.9814 O   0  0  0  0  0  0  0  0  0  0  0  0
   -0.7838   -1.7281    2.2342 O   0  0  0  0  0  0  0  0  0  0  0  0
   -2.2957   -0.5730   -1.1643 O   0  0  0  0  0  0  0  0  0  0  0  0
   -6.4270    0.6176   -0.1863 N   0  0  0  0  0  0  0  0  0  0  0  0
   -4.1333    0.9310   -2.9781 H   0  0  0  0  0  0  0  0  0  0  0  0
   -5.0826    1.8109    0.9527 H   0  0  0  0  0  0  0  0  0  0  0  0
   -5.2791   -0.3440    1.8739 H   0  0  0  0  0  0  0  0  0  0  0  0
   -4.6981   -1.1961    0.4233 H   0  0  0  0  0  0  0  0  0  0  0  0
   -3.0282   -1.0454    2.2956 H   0  0  0  0  0  0  0  0  0  0  0  0
   -3.1123    0.7636    2.2372 H   0  0  0  0  0  0  0  0  0  0  0  0
   -0.9119   -2.4714    0.3625 H   0  0  0  0  0  0  0  0  0  0  0  0
    0.7690    0.3673    2.0794 H   0  0  0  0  0  0  0  0  0  0  0  0
    2.9659    1.2245    1.5754 H   0  0  0  0  0  0  0  0  0  0  0  0
    3.2767   -1.4971   -1.6983 H   0  0  0  0  0  0  0  0  0  0  0  0
    0.9822   -2.3946   -1.1746 H   0  0  0  0  0  0  0  0  0  0  0  0
    5.6528   -1.0646   -1.2342 H   0  0  0  0  0  0  0  0  0  0  0  0
    4.9085    0.0442   -2.3985 H   0  0  0  0  0  0  0  0  0  0  0  0
    6.2993    1.1115    0.9387 H   0  0  0  0  0  0  0  0  0  0  0  0
    5.8990    2.9848   -1.3247 H   0  0  0  0  0  0  0  0  0  0  0  0
   -0.6680   -2.6782    2.4971 H   0  0  0  0  0  0  0  0  0  0  0  0
   -2.6290   -1.5010   -1.1634 H   0  0  0  0  0  0  0  0  0  0  0  0
   -6.3936    0.0862   -1.0755 H   0  0  0  0  0  0  0  0  0  0  0  0
   -6.8298    0.0002    0.5463 H   0  0  0  0  0  0  0  0  0  0  0  0
  1  2  1  0
  2  3  2  0
  2  4  1  0
  4  5  1  0
  5  6  1  0
  6  7  1  0
  7  8  2  0
  7  9  1  0
  9 10  1  0
 10 11  2  0
 11 12  1  0
 12 13  2  0
 13 14  1  0
 14 15  2  0
 13 16  1  0
 16 17  1  0
 17 18  1  0
 18 19  2  0
 18 20  1  0
 18 21  1  0
  9 22  1  0
  7 23  1  0
  4 24  1  0
 15 10  1  0
  1 25  1  0
  4 26  1  1
  5 27  1  0
  5 28  1  0
  6 29  1  0
  6 30  1  0
  9 31  1  0
 11 32  1  0
 12 33  1  0
 14 34  1  0
 15 35  1  0
 17 36  1  0
 17 37  1  0
 20 38  1  0
 21 39  1  0
 22 40  1  0
 23 41  1  0
 24 42  1  0
 24 43  1  0
M  END
>  <Ligand ID>  (1) 
LIG0002536

>  <Ligand>  (1) 
CHEMBL3894544

>  <SMILES>  (1) 
OC(=O)[C@H](CCP(=O)(C(c1ccc(cc1)OCP(=O)(O)O)O)O)N

>  <CID>  (1) 
134136583.0

>  <ChEMBL ID>  (1) 
nan

>  <InChiKey>  (1) 
NOROSKGWRWLDSW-NUHJPDEHSA-N

>  <InChi>  (1) 
InChI=1S/C12H19NO9P2/c13-10(11(14)15)5-6-23(17,18)12(16)8-1-3-9(4-2-8)22-7-24(19,20)21/h1-4,10,12,16H,5-7,13H2,(H,14,15)(H,17,18)(H2,19,20,21)/t10-,12?/m0/s1

>  <IUPAC Name>  (1) 
(2S)-2-amino-4-[hydroxy-[hydroxy-[4-(phosphonomethoxy)phenyl]methyl]phosphoryl]butanoic acid

$$$$
