
     RDKit          3D

 60 63  0  0  0  0  0  0  0  0999 V2000
  -10.4385   -1.1014    0.8247 O   0  0  0  0  0  0  0  0  0  0  0  0
   -9.2921   -1.7491    0.3271 C   0  0  0  0  0  0  0  0  0  0  0  0
   -9.3941   -2.8126   -0.3547 O   0  0  0  0  0  0  0  0  0  0  0  0
   -7.9493   -1.1436    0.6278 C   0  0  0  0  0  0  0  0  0  0  0  0
   -7.4211   -0.4014   -0.5995 C   0  0  1  0  0  0  0  0  0  0  0  0
   -6.0952    0.1878   -0.2799 C   0  0  0  0  0  0  0  0  0  0  0  0
   -5.9382    1.4207    0.2309 N   0  0  0  0  0  0  0  0  0  0  0  0
   -4.6218    1.6627    0.4080 C   0  0  0  0  0  0  0  0  0  0  0  0
   -3.9261    0.5518   -0.0024 C   0  0  0  0  0  0  0  0  0  0  0  0
   -4.8649   -0.3416   -0.4219 N   0  0  0  0  0  0  0  0  0  0  0  0
   -2.4836    0.4128    0.0270 C   0  0  0  0  0  0  0  0  0  0  0  0
   -1.6729    1.4539    0.4947 C   0  0  0  0  0  0  0  0  0  0  0  0
   -0.3035    1.2926    0.5097 C   0  0  0  0  0  0  0  0  0  0  0  0
    0.3327    0.1462    0.0841 C   0  0  0  0  0  0  0  0  0  0  0  0
   -0.4761   -0.8922   -0.3823 C   0  0  0  0  0  0  0  0  0  0  0  0
   -1.8428   -0.7327   -0.3979 C   0  0  0  0  0  0  0  0  0  0  0  0
    0.2201   -2.1141   -0.8339 C   0  0  0  0  0  0  0  0  0  0  0  0
    0.9673   -2.6979    0.1585 F   0  0  0  0  0  0  0  0  0  0  0  0
   -0.7121   -3.0359   -1.2456 F   0  0  0  0  0  0  0  0  0  0  0  0
    1.0305   -1.7789   -1.8995 F   0  0  0  0  0  0  0  0  0  0  0  0
    1.7157    0.0170    0.1129 O   0  0  0  0  0  0  0  0  0  0  0  0
    2.4728    1.0954    0.5921 C   0  0  0  0  0  0  0  0  0  0  0  0
    3.9405    0.8514    0.5789 C   0  0  0  0  0  0  0  0  0  0  0  0
    4.6069    0.2950    1.6560 C   0  0  0  0  0  0  0  0  0  0  0  0
    5.9762    0.1030    1.5556 C   0  0  0  0  0  0  0  0  0  0  0  0
    6.6939    0.4456    0.4253 C   0  0  0  0  0  0  0  0  0  0  0  0
    6.0163    0.9998   -0.6421 C   0  0  0  0  0  0  0  0  0  0  0  0
    4.6384    1.2044   -0.5687 C   0  0  0  0  0  0  0  0  0  0  0  0
    8.1424    0.2421    0.3211 C   0  0  0  0  0  0  0  0  0  0  0  0
    8.7898   -0.8000    0.9519 C   0  0  0  0  0  0  0  0  0  0  0  0
   10.1572   -0.9317    0.8105 C   0  0  0  0  0  0  0  0  0  0  0  0
   10.8884   -0.0305    0.0430 C   0  0  0  0  0  0  0  0  0  0  0  0
   10.2338    1.0077   -0.5838 C   0  0  0  0  0  0  0  0  0  0  0  0
    8.8751    1.1458   -0.4485 C   0  0  0  0  0  0  0  0  0  0  0  0
   -7.1831   -1.3668   -1.6707 N   0  0  0  0  0  0  0  0  0  0  0  0
   -8.3483    0.7029   -1.0054 C   0  0  0  0  0  0  0  0  0  0  0  0
  -11.3273   -1.2402    0.3583 H   0  0  0  0  0  0  0  0  0  0  0  0
   -7.2472   -1.9572    0.8718 H   0  0  0  0  0  0  0  0  0  0  0  0
   -8.0335   -0.4738    1.4889 H   0  0  0  0  0  0  0  0  0  0  0  0
   -4.2207    2.5843    0.8069 H   0  0  0  0  0  0  0  0  0  0  0  0
   -4.6577   -1.2976   -0.7983 H   0  0  0  0  0  0  0  0  0  0  0  0
   -2.1049    2.3880    0.8459 H   0  0  0  0  0  0  0  0  0  0  0  0
    0.3189    2.0907    0.8684 H   0  0  0  0  0  0  0  0  0  0  0  0
   -2.4253   -1.5855   -0.7762 H   0  0  0  0  0  0  0  0  0  0  0  0
    2.3055    2.0498    0.0190 H   0  0  0  0  0  0  0  0  0  0  0  0
    2.1386    1.3591    1.6317 H   0  0  0  0  0  0  0  0  0  0  0  0
    4.0370    0.0294    2.5379 H   0  0  0  0  0  0  0  0  0  0  0  0
    6.5119   -0.3309    2.3891 H   0  0  0  0  0  0  0  0  0  0  0  0
    6.5806    1.2645   -1.5205 H   0  0  0  0  0  0  0  0  0  0  0  0
    4.1092    1.6452   -1.4199 H   0  0  0  0  0  0  0  0  0  0  0  0
    8.2069   -1.4894    1.5430 H   0  0  0  0  0  0  0  0  0  0  0  0
   10.6927   -1.7556    1.3050 H   0  0  0  0  0  0  0  0  0  0  0  0
   11.9593   -0.1098   -0.0847 H   0  0  0  0  0  0  0  0  0  0  0  0
   10.8143    1.6993   -1.1760 H   0  0  0  0  0  0  0  0  0  0  0  0
    8.4121    1.9782   -0.9623 H   0  0  0  0  0  0  0  0  0  0  0  0
   -6.4237   -0.9768   -2.2773 H   0  0  0  0  0  0  0  0  0  0  0  0
   -6.7718   -2.2162   -1.1869 H   0  0  0  0  0  0  0  0  0  0  0  0
   -8.0942    1.0048   -2.0543 H   0  0  0  0  0  0  0  0  0  0  0  0
   -8.1000    1.5883   -0.3666 H   0  0  0  0  0  0  0  0  0  0  0  0
   -9.4153    0.4433   -0.8739 H   0  0  0  0  0  0  0  0  0  0  0  0
  1  2  1  0
  2  3  2  0
  2  4  1  0
  4  5  1  0
  5  6  1  0
  6  7  2  0
  7  8  1  0
  8  9  2  0
  9 10  1  0
  9 11  1  0
 11 12  2  0
 12 13  1  0
 13 14  2  0
 14 15  1  0
 15 16  2  0
 15 17  1  0
 17 18  1  0
 17 19  1  0
 17 20  1  0
 14 21  1  0
 21 22  1  0
 22 23  1  0
 23 24  2  0
 24 25  1  0
 25 26  2  0
 26 27  1  0
 27 28  2  0
 26 29  1  0
 29 30  2  0
 30 31  1  0
 31 32  2  0
 32 33  1  0
 33 34  2  0
  5 35  1  6
  5 36  1  0
 10  6  1  0
 16 11  1  0
 28 23  1  0
 34 29  1  0
  1 37  1  0
  4 38  1  0
  4 39  1  0
  8 40  1  0
 10 41  1  0
 12 42  1  0
 13 43  1  0
 16 44  1  0
 22 45  1  0
 22 46  1  0
 24 47  1  0
 25 48  1  0
 27 49  1  0
 28 50  1  0
 30 51  1  0
 31 52  1  0
 32 53  1  0
 33 54  1  0
 34 55  1  0
 35 56  1  0
 35 57  1  0
 36 58  1  0
 36 59  1  0
 36 60  1  0
M  END
>  <Ligand ID>  (1) 
LIG0005088

>  <Ligand>  (1) 
CHEMBL2315820

>  <SMILES>  (1) 
OC(=O)C[C@@](c1ncc([nH]1)c1ccc(c(c1)C(F)(F)F)OCc1ccc(cc1)c1ccccc1)(N)C

>  <CID>  (1) 
25008421.0

>  <ChEMBL ID>  (1) 
nan

>  <InChiKey>  (1) 
FDNAXNKZGRCNLU-SANMLTNESA-N

>  <InChi>  (1) 
InChI=1S/C27H24F3N3O3/c1-26(31,14-24(34)35)25-32-15-22(33-25)20-11-12-23(21(13-20)27(28,29)30)36-16-17-7-9-19(10-8-17)18-5-3-2-4-6-18/h2-13,15H,14,16,31H2,1H3,(H,32,33)(H,34,35)/t26-/m0/s1

>  <IUPAC Name>  (1) 
(3S)-3-amino-3-[5-[4-[(4-phenylphenyl)methoxy]-3-(trifluoromethyl)phenyl]-1H-imidazol-2-yl]butanoic acid

$$$$
