
     RDKit          3D

 54 59  0  0  0  0  0  0  0  0999 V2000
   10.7685    0.2350    0.6028 C   0  0  0  0  0  0  0  0  0  0  0  0
    9.9119   -0.4450   -0.3051 O   0  0  0  0  0  0  0  0  0  0  0  0
    8.5536   -0.2561   -0.1393 C   0  0  0  0  0  0  0  0  0  0  0  0
    8.0377    0.5539    0.8639 C   0  0  0  0  0  0  0  0  0  0  0  0
    6.6794    0.7277    1.0038 C   0  0  0  0  0  0  0  0  0  0  0  0
    5.7624    0.1262    0.1806 C   0  0  0  0  0  0  0  0  0  0  0  0
    6.2736   -0.6867   -0.8236 C   0  0  0  0  0  0  0  0  0  0  0  0
    7.6310   -0.8825   -0.9914 C   0  0  0  0  0  0  0  0  0  0  0  0
    4.3336    0.3641    0.3493 C   0  0  0  0  0  0  0  0  0  0  0  0
    3.8339    1.2318    1.3469 C   0  0  0  0  0  0  0  0  0  0  0  0
    2.0333    1.2351    1.1379 S   0  0  0  0  0  0  0  0  0  0  0  0
    2.2301    0.0061   -0.3344 C   0  0  0  0  0  0  0  0  0  0  0  0
    3.3930   -0.1665   -0.4050 N   0  0  0  0  0  0  0  0  0  0  0  0
    0.9906   -0.3654   -0.9996 N   0  0  0  0  0  0  0  0  0  0  0  0
    0.1786   -1.4460   -0.5778 C   0  0  0  0  0  0  0  0  0  0  0  0
    0.4071   -2.2003    0.3820 O   0  0  0  0  0  0  0  0  0  0  0  0
   -1.0719   -1.6211   -1.4471 C   0  0  0  0  0  0  0  0  0  0  0  0
   -1.7994    0.0318   -1.6716 S   0  0  0  0  0  0  0  0  0  0  0  0
   -2.5739    0.6129   -0.1761 C   0  0  0  0  0  0  0  0  0  0  0  0
   -1.8891    1.2355    0.8050 N   0  0  0  0  0  0  0  0  0  0  0  0
   -2.7297    1.5683    1.7740 N   0  0  0  0  0  0  0  0  0  0  0  0
   -3.9787    1.1484    1.3991 C   0  0  0  0  0  0  0  0  0  0  0  0
   -3.8605    0.5627    0.1931 N   0  0  0  0  0  0  0  0  0  0  0  0
   -4.9510    0.0817   -0.4153 C   0  0  0  0  0  0  0  0  0  0  0  0
   -4.9238   -0.5211   -1.6529 C   0  0  0  0  0  0  0  0  0  0  0  0
   -6.0537   -1.0148   -2.2930 C   0  0  0  0  0  0  0  0  0  0  0  0
   -6.3271   -1.6478   -3.4913 O   0  0  0  0  0  0  0  0  0  0  0  0
   -7.7142   -1.5803   -3.7950 C   0  0  0  0  0  0  0  0  0  0  0  0
   -8.2541   -1.4515   -2.4722 O   0  0  0  0  0  0  0  0  0  0  0  0
   -7.2799   -0.8960   -1.6557 C   0  0  0  0  0  0  0  0  0  0  0  0
   -7.3467   -0.2988   -0.4188 C   0  0  0  0  0  0  0  0  0  0  0  0
   -6.2060    0.1776    0.1839 C   0  0  0  0  0  0  0  0  0  0  0  0
   -6.3578    0.7788    1.4344 C   0  0  0  0  0  0  0  0  0  0  0  0
   -5.2021    1.2774    2.0561 C   0  0  0  0  0  0  0  0  0  0  0  0
   -5.2464    1.9200    3.3887 C   0  0  0  0  0  0  0  0  0  0  0  0
   11.8234    0.1588    0.2627 H   0  0  0  0  0  0  0  0  0  0  0  0
   10.4371    1.3110    0.5847 H   0  0  0  0  0  0  0  0  0  0  0  0
   10.6322   -0.1431    1.6266 H   0  0  0  0  0  0  0  0  0  0  0  0
    8.7031    1.0535    1.5444 H   0  0  0  0  0  0  0  0  0  0  0  0
    6.3463    1.3674    1.8000 H   0  0  0  0  0  0  0  0  0  0  0  0
    5.5643   -1.1522   -1.4654 H   0  0  0  0  0  0  0  0  0  0  0  0
    7.9570   -1.5273   -1.7904 H   0  0  0  0  0  0  0  0  0  0  0  0
    4.3782    1.8020    2.0962 H   0  0  0  0  0  0  0  0  0  0  0  0
    0.7734    0.2508   -1.8189 H   0  0  0  0  0  0  0  0  0  0  0  0
   -0.6844   -1.9504   -2.4263 H   0  0  0  0  0  0  0  0  0  0  0  0
   -1.7188   -2.3382   -0.9608 H   0  0  0  0  0  0  0  0  0  0  0  0
   -4.0002   -0.6420   -2.1918 H   0  0  0  0  0  0  0  0  0  0  0  0
   -8.0482   -2.5829   -4.1569 H   0  0  0  0  0  0  0  0  0  0  0  0
   -7.9959   -0.7432   -4.4402 H   0  0  0  0  0  0  0  0  0  0  0  0
   -8.3009   -0.2066    0.0798 H   0  0  0  0  0  0  0  0  0  0  0  0
   -7.3063    0.8629    1.9054 H   0  0  0  0  0  0  0  0  0  0  0  0
   -5.9260    1.2943    4.0103 H   0  0  0  0  0  0  0  0  0  0  0  0
   -5.6496    2.9426    3.3192 H   0  0  0  0  0  0  0  0  0  0  0  0
   -4.2373    1.8476    3.8305 H   0  0  0  0  0  0  0  0  0  0  0  0
  1  2  1  0
  2  3  1  0
  3  4  2  0
  4  5  1  0
  5  6  2  0
  6  7  1  0
  7  8  2  0
  6  9  1  0
  9 10  2  0
 10 11  1  0
 11 12  1  0
 12 13  2  0
 12 14  1  0
 14 15  1  0
 15 16  2  0
 15 17  1  0
 17 18  1  0
 18 19  1  0
 19 20  2  0
 20 21  1  0
 21 22  2  0
 22 23  1  0
 23 24  1  0
 24 25  2  0
 25 26  1  0
 26 27  1  0
 27 28  1  0
 28 29  1  0
 29 30  1  0
 30 31  1  0
 31 32  2  0
 32 33  1  0
 33 34  2  0
 34 35  1  0
  8  3  1  0
 13  9  1  0
 23 19  1  0
 32 24  1  0
 34 22  1  0
 30 26  2  0
  1 36  1  0
  1 37  1  0
  1 38  1  0
  4 39  1  0
  5 40  1  0
  7 41  1  0
  8 42  1  0
 10 43  1  0
 14 44  1  0
 17 45  1  0
 17 46  1  0
 25 47  1  0
 28 48  1  0
 28 49  1  0
 31 50  1  0
 33 51  1  0
 35 52  1  0
 35 53  1  0
 35 54  1  0
M  END
>  <Ligand ID>  (1) 
LIG0001735

>  <Ligand>  (1) 
MLS-0435557.0001

>  <SMILES>  (1) 
COc1ccc(cc1)c1csc(n1)NC(=O)CSc1nnc2n1c1cc3OCOc3cc1cc2C

>  <CID>  (1) 
3190055.0

>  <ChEMBL ID>  (1) 
nan

>  <InChiKey>  (1) 
GERMPJNUXLBCOW-UHFFFAOYSA-N

>  <InChi>  (1) 
InChI=1S/C24H19N5O4S2/c1-13-7-15-8-19-20(33-12-32-19)9-18(15)29-22(13)27-28-24(29)35-11-21(30)26-23-25-17(10-34-23)14-3-5-16(31-2)6-4-14/h3-10H,11-12H2,1-2H3,(H,25,26,30)

>  <IUPAC Name>  (1) 
N-[4-(4-methoxyphenyl)-1,3-thiazol-2-yl]-2-[(7-methyl-12,14-dioxa-2,4,5-triazatetracyclo[7.7.0.02,6.011,15]hexadeca-1(16),3,5,7,9,11(15)-hexaen-3-yl)sulfanyl]acetamide

$$$$
