
     RDKit          3D

133135  0  0  0  0  0  0  0  0999 V2000
   10.7146    1.2096    1.3661 N   0  0  0  0  0  0  0  0  0  0  0  0
    9.4833    1.5850    1.9832 C   0  0  0  0  0  0  0  0  0  0  0  0
    8.4609    2.1669    1.0712 C   0  0  0  0  0  0  0  0  0  0  0  0
    7.9816    1.2825   -0.0176 C   0  0  1  0  0  0  0  0  0  0  0  0
    9.0255    0.8584   -0.9455 C   0  0  0  0  0  0  0  0  0  0  0  0
    9.8928    1.6360   -1.4598 O   0  0  0  0  0  0  0  0  0  0  0  0
    9.0951   -0.4985   -1.3267 N   0  0  0  0  0  0  0  0  0  0  0  0
    9.9985   -1.1119   -2.2456 C   0  0  0  0  0  0  0  0  0  0  0  0
   11.3951   -0.9804   -1.8472 C   0  0  0  0  0  0  0  0  0  0  0  0
   11.8635   -0.4240   -0.8411 O   0  0  0  0  0  0  0  0  0  0  0  0
   12.3772   -1.5726   -2.7344 N   0  0  0  0  0  0  0  0  0  0  0  0
    7.2223    0.1687    0.5227 N   0  0  0  0  0  0  0  0  0  0  0  0
    5.7984    0.0210    0.2999 C   0  0  0  0  0  0  0  0  0  0  0  0
    5.2683    0.9076   -0.3838 O   0  0  0  0  0  0  0  0  0  0  0  0
    5.1833   -1.1489    0.9120 C   0  0  2  0  0  0  0  0  0  0  0  0
    5.5360   -2.4127    0.0856 C   0  0  0  0  0  0  0  0  0  0  0  0
    4.4196   -3.3749    0.4586 C   0  0  0  0  0  0  0  0  0  0  0  0
    3.4852   -2.6146    1.3362 C   0  0  0  0  0  0  0  0  0  0  0  0
    3.7572   -1.2131    0.9206 N   0  0  0  0  0  0  0  0  0  0  0  0
    2.7112   -0.3174    0.6564 C   0  0  0  0  0  0  0  0  0  0  0  0
    2.9158    0.9303    0.3850 O   0  0  0  0  0  0  0  0  0  0  0  0
    1.2549   -0.6605    0.6557 C   0  0  2  0  0  0  0  0  0  0  0  0
    0.7716   -1.1903   -0.6699 C   0  0  0  0  0  0  0  0  0  0  0  0
    1.2010   -2.7694   -1.2545 S   0  0  0  0  0  0  0  0  0  0  0  0
    0.3778   -4.3508   -0.1282 S   0  0  0  0  0  0  0  0  0  0  0  0
   -1.3027   -4.7050   -0.8408 C   0  0  0  0  0  0  0  0  0  0  0  0
   -2.2098   -3.5975   -0.4028 C   0  0  2  0  0  0  0  0  0  0  0  0
   -2.4446   -3.7630    1.0401 N   0  0  0  0  0  0  0  0  0  0  0  0
   -3.4674   -3.4495   -1.0895 C   0  0  0  0  0  0  0  0  0  0  0  0
   -4.5416   -3.4753   -0.4795 O   0  0  0  0  0  0  0  0  0  0  0  0
   -3.6047   -3.2604   -2.5278 N   0  0  0  0  0  0  0  0  0  0  0  0
   -4.8909   -2.9158   -3.0584 C   0  0  1  0  0  0  0  0  0  0  0  0
   -5.8596   -3.9585   -3.3561 C   0  0  0  0  0  0  0  0  0  0  0  0
   -6.3187   -4.8437   -2.2818 C   0  0  0  0  0  0  0  0  0  0  0  0
   -7.4003   -4.5923   -1.4602 C   0  0  0  0  0  0  0  0  0  0  0  0
   -7.7201   -5.5213   -0.4999 C   0  0  0  0  0  0  0  0  0  0  0  0
   -7.0127   -6.6934   -0.3165 C   0  0  0  0  0  0  0  0  0  0  0  0
   -5.9309   -6.9523   -1.1333 C   0  0  0  0  0  0  0  0  0  0  0  0
   -5.5994   -6.0323   -2.0978 C   0  0  0  0  0  0  0  0  0  0  0  0
   -5.4001   -1.6311   -2.4757 C   0  0  0  0  0  0  0  0  0  0  0  0
   -6.5347   -1.1775   -2.6531 O   0  0  0  0  0  0  0  0  0  0  0  0
   -4.5315   -0.8754   -1.6711 N   0  0  0  0  0  0  0  0  0  0  0  0
   -4.8963    0.3985   -0.9896 C   0  0  2  0  0  0  0  0  0  0  0  0
   -3.7741    1.2837   -1.2187 C   0  0  0  0  0  0  0  0  0  0  0  0
   -2.7681    0.7986   -1.8478 O   0  0  0  0  0  0  0  0  0  0  0  0
   -3.5794    2.6337   -0.8651 N   0  0  0  0  0  0  0  0  0  0  0  0
   -2.3644    3.3920   -1.1537 C   0  0  2  0  0  0  0  0  0  0  0  0
   -1.3901    3.3266    0.0113 C   0  0  0  0  0  0  0  0  0  0  0  0
   -0.3685    4.0179    0.0734 O   0  0  0  0  0  0  0  0  0  0  0  0
   -1.6088    2.4456    1.1016 N   0  0  0  0  0  0  0  0  0  0  0  0
   -0.7979    2.2898    2.2773 C   0  0  2  0  0  0  0  0  0  0  0  0
    0.1318    1.0989    2.1174 C   0  0  0  0  0  0  0  0  0  0  0  0
    0.6595    0.5221    3.0715 O   0  0  0  0  0  0  0  0  0  0  0  0
    0.4571    0.5889    0.8304 N   0  0  0  0  0  0  0  0  0  0  0  0
   -1.5792    2.1690    3.5527 C   0  0  0  0  0  0  0  0  0  0  0  0
   -2.4180    3.3675    3.8026 C   0  0  0  0  0  0  0  0  0  0  0  0
   -3.5369    3.5367    3.2218 O   0  0  0  0  0  0  0  0  0  0  0  0
   -1.9896    4.3926    4.7219 N   0  0  0  0  0  0  0  0  0  0  0  0
   -2.5887    4.7899   -1.5794 C   0  0  0  0  0  0  0  0  0  0  0  0
   -3.2918    5.6191   -0.5818 C   0  0  0  0  0  0  0  0  0  0  0  0
   -3.6647    5.1977    0.5437 O   0  0  0  0  0  0  0  0  0  0  0  0
   -3.5519    6.9811   -0.9425 N   0  0  0  0  0  0  0  0  0  0  0  0
   -4.2279    7.8644   -0.0335 C   0  0  0  0  0  0  0  0  0  0  0  0
   -3.4478    8.0177    1.2612 C   0  0  0  0  0  0  0  0  0  0  0  0
   -5.2067    0.0218    0.4359 C   0  0  2  0  0  0  0  0  0  0  0  0
   -5.6036    1.1816    1.2585 C   0  0  0  0  0  0  0  0  0  0  0  0
   -6.8361    1.8908    0.6958 C   0  0  0  0  0  0  0  0  0  0  0  0
   -4.0545   -0.6941    1.1065 C   0  0  0  0  0  0  0  0  0  0  0  0
   11.1635    0.3570    1.8003 H   0  0  0  0  0  0  0  0  0  0  0  0
   11.4537    1.9456    1.4310 H   0  0  0  0  0  0  0  0  0  0  0  0
    9.0878    0.6692    2.4927 H   0  0  0  0  0  0  0  0  0  0  0  0
    9.7427    2.2701    2.8277 H   0  0  0  0  0  0  0  0  0  0  0  0
    8.8044    3.1425    0.6242 H   0  0  0  0  0  0  0  0  0  0  0  0
    7.5785    2.4257    1.7170 H   0  0  0  0  0  0  0  0  0  0  0  0
    7.1952    1.8591   -0.6293 H   0  0  0  0  0  0  0  0  0  0  0  0
    8.3809   -1.1458   -0.8676 H   0  0  0  0  0  0  0  0  0  0  0  0
    9.8904   -0.6398   -3.2759 H   0  0  0  0  0  0  0  0  0  0  0  0
    9.7172   -2.1823   -2.4550 H   0  0  0  0  0  0  0  0  0  0  0  0
   12.3845   -1.2448   -3.7461 H   0  0  0  0  0  0  0  0  0  0  0  0
   13.0543   -2.2975   -2.3868 H   0  0  0  0  0  0  0  0  0  0  0  0
    7.7555   -0.5295    1.0852 H   0  0  0  0  0  0  0  0  0  0  0  0
    5.6105   -1.2697    1.9405 H   0  0  0  0  0  0  0  0  0  0  0  0
    6.5349   -2.7893    0.3297 H   0  0  0  0  0  0  0  0  0  0  0  0
    5.3741   -2.1383   -0.9727 H   0  0  0  0  0  0  0  0  0  0  0  0
    4.8221   -4.2333    1.0440 H   0  0  0  0  0  0  0  0  0  0  0  0
    3.8763   -3.7385   -0.4330 H   0  0  0  0  0  0  0  0  0  0  0  0
    3.8215   -2.6299    2.4149 H   0  0  0  0  0  0  0  0  0  0  0  0
    2.4501   -2.8777    1.3482 H   0  0  0  0  0  0  0  0  0  0  0  0
    0.9878   -1.3116    1.4720 H   0  0  0  0  0  0  0  0  0  0  0  0
   -0.3278   -0.9599   -0.8061 H   0  0  0  0  0  0  0  0  0  0  0  0
    1.1639   -0.3743   -1.4599 H   0  0  0  0  0  0  0  0  0  0  0  0
   -1.6126   -5.6533   -0.3465 H   0  0  0  0  0  0  0  0  0  0  0  0
   -1.1771   -4.8165   -1.9143 H   0  0  0  0  0  0  0  0  0  0  0  0
   -1.5985   -2.6256   -0.5043 H   0  0  0  0  0  0  0  0  0  0  0  0
   -1.5405   -3.6675    1.5689 H   0  0  0  0  0  0  0  0  0  0  0  0
   -2.7814   -4.7170    1.2040 H   0  0  0  0  0  0  0  0  0  0  0  0
   -2.7303   -3.4065   -3.0297 H   0  0  0  0  0  0  0  0  0  0  0  0
   -4.5711   -2.5162   -4.1016 H   0  0  0  0  0  0  0  0  0  0  0  0
   -6.7534   -3.4794   -3.8770 H   0  0  0  0  0  0  0  0  0  0  0  0
   -5.4309   -4.5740   -4.2138 H   0  0  0  0  0  0  0  0  0  0  0  0
   -7.9562   -3.6759   -1.5999 H   0  0  0  0  0  0  0  0  0  0  0  0
   -8.5564   -5.3551    0.1562 H   0  0  0  0  0  0  0  0  0  0  0  0
   -7.2551   -7.4314    0.4356 H   0  0  0  0  0  0  0  0  0  0  0  0
   -5.3311   -7.8652   -1.0355 H   0  0  0  0  0  0  0  0  0  0  0  0
   -4.7385   -6.2724   -2.7231 H   0  0  0  0  0  0  0  0  0  0  0  0
   -3.5805   -1.1766   -1.5452 H   0  0  0  0  0  0  0  0  0  0  0  0
   -5.8349    0.7448   -1.4322 H   0  0  0  0  0  0  0  0  0  0  0  0
   -4.3340    3.1219   -0.4054 H   0  0  0  0  0  0  0  0  0  0  0  0
   -1.7683    2.8614   -1.9602 H   0  0  0  0  0  0  0  0  0  0  0  0
   -2.4500    1.8579    1.0178 H   0  0  0  0  0  0  0  0  0  0  0  0
   -0.0758    3.1485    2.3914 H   0  0  0  0  0  0  0  0  0  0  0  0
    0.1150    1.1333    0.0400 H   0  0  0  0  0  0  0  0  0  0  0  0
   -0.8804    2.0938    4.4167 H   0  0  0  0  0  0  0  0  0  0  0  0
   -2.1865    1.2393    3.5915 H   0  0  0  0  0  0  0  0  0  0  0  0
   -1.4423    4.1333    5.5768 H   0  0  0  0  0  0  0  0  0  0  0  0
   -2.2518    5.3879    4.4891 H   0  0  0  0  0  0  0  0  0  0  0  0
   -3.0886    4.8092   -2.5791 H   0  0  0  0  0  0  0  0  0  0  0  0
   -1.5678    5.2386   -1.7637 H   0  0  0  0  0  0  0  0  0  0  0  0
   -3.2505    7.3453   -1.8739 H   0  0  0  0  0  0  0  0  0  0  0  0
   -5.2246    7.3921    0.1773 H   0  0  0  0  0  0  0  0  0  0  0  0
   -4.4263    8.8411   -0.4937 H   0  0  0  0  0  0  0  0  0  0  0  0
   -3.8470    8.8774    1.8356 H   0  0  0  0  0  0  0  0  0  0  0  0
   -3.5415    7.1059    1.8787 H   0  0  0  0  0  0  0  0  0  0  0  0
   -2.3736    8.2123    0.9938 H   0  0  0  0  0  0  0  0  0  0  0  0
   -6.1083   -0.6587    0.3761 H   0  0  0  0  0  0  0  0  0  0  0  0
   -5.8487    0.8649    2.3267 H   0  0  0  0  0  0  0  0  0  0  0  0
   -4.8063    1.9129    1.3954 H   0  0  0  0  0  0  0  0  0  0  0  0
   -7.6349    1.1248    0.5258 H   0  0  0  0  0  0  0  0  0  0  0  0
   -6.6022    2.3786   -0.2648 H   0  0  0  0  0  0  0  0  0  0  0  0
   -7.2040    2.6426    1.4002 H   0  0  0  0  0  0  0  0  0  0  0  0
   -4.4603   -1.6315    1.5523 H   0  0  0  0  0  0  0  0  0  0  0  0
   -3.2312   -0.9589    0.4458 H   0  0  0  0  0  0  0  0  0  0  0  0
   -3.7079   -0.1071    2.0073 H   0  0  0  0  0  0  0  0  0  0  0  0
  1  2  1  0
  2  3  1  0
  3  4  1  0
  4  5  1  0
  5  6  2  0
  5  7  1  0
  7  8  1  0
  8  9  1  0
  9 10  2  0
  9 11  1  0
  4 12  1  0
 12 13  1  0
 13 14  2  0
 13 15  1  0
 15 16  1  0
 16 17  1  0
 17 18  1  0
 18 19  1  0
 19 20  1  0
 20 21  2  0
 20 22  1  0
 22 23  1  0
 23 24  1  0
 24 25  1  0
 25 26  1  0
 26 27  1  0
 27 28  1  0
 27 29  1  0
 29 30  2  0
 29 31  1  0
 31 32  1  0
 32 33  1  0
 33 34  1  0
 34 35  2  0
 35 36  1  0
 36 37  2  0
 37 38  1  0
 38 39  2  0
 32 40  1  0
 40 41  2  0
 40 42  1  0
 42 43  1  0
 43 44  1  0
 44 45  2  0
 44 46  1  0
 46 47  1  0
 47 48  1  0
 48 49  2  0
 48 50  1  0
 50 51  1  0
 51 52  1  0
 52 53  2  0
 52 54  1  0
 51 55  1  0
 55 56  1  0
 56 57  2  0
 56 58  1  0
 47 59  1  0
 59 60  1  0
 60 61  2  0
 60 62  1  0
 62 63  1  0
 63 64  1  0
 43 65  1  0
 65 66  1  0
 66 67  1  0
 65 68  1  0
 19 15  1  0
 54 22  1  0
 39 34  1  0
  1 69  1  0
  1 70  1  0
  2 71  1  0
  2 72  1  0
  3 73  1  0
  3 74  1  0
  4 75  1  6
  7 76  1  0
  8 77  1  0
  8 78  1  0
 11 79  1  0
 11 80  1  0
 12 81  1  0
 15 82  1  1
 16 83  1  0
 16 84  1  0
 17 85  1  0
 17 86  1  0
 18 87  1  0
 18 88  1  0
 22 89  1  1
 23 90  1  0
 23 91  1  0
 26 92  1  0
 26 93  1  0
 27 94  1  1
 28 95  1  0
 28 96  1  0
 31 97  1  0
 32 98  1  6
 33 99  1  0
 33100  1  0
 35101  1  0
 36102  1  0
 37103  1  0
 38104  1  0
 39105  1  0
 42106  1  0
 43107  1  6
 46108  1  0
 47109  1  6
 50110  1  0
 51111  1  1
 54112  1  0
 55113  1  0
 55114  1  0
 58115  1  0
 58116  1  0
 59117  1  0
 59118  1  0
 62119  1  0
 63120  1  0
 63121  1  0
 64122  1  0
 64123  1  0
 64124  1  0
 65125  1  6
 66126  1  0
 66127  1  0
 67128  1  0
 67129  1  0
 67130  1  0
 68131  1  0
 68132  1  0
 68133  1  0
M  END
>  <Ligand ID>  (1) 
LIG0000927

>  <Ligand>  (1) 
CHEMBL1817751

>  <SMILES>  (1) 
NCC[C@@H](C(=O)NCC(=O)N)NC(=O)[C@@H]1CCCN1C(=O)[C@@H]1CSSC[C@H](N)C(=O)N[C@@H](Cc2ccccc2)C(=O)N[C@H](C(=O)N[C@H](C(=O)N[C@H](C(=O)N1)CC(=O)N)CC(=O)NCC)[C@H](CC)C

>  <CID>  (1) 
53362548.0

>  <ChEMBL ID>  (1) 
nan

>  <InChiKey>  (1) 
LOKYLSSNHVNXMT-OVCMMVBBSA-N

>  <InChi>  (1) 
InChI=1S/C42H65N13O11S2/c1-4-22(3)34-41(65)52-28(18-33(58)47-5-2)38(62)51-27(17-31(45)56)37(61)53-29(21-68-67-20-24(44)35(59)50-26(39(63)54-34)16-23-10-7-6-8-11-23)42(66)55-15-9-12-30(55)40(64)49-25(13-14-43)36(60)48-19-32(46)57/h6-8,10-11,22,24-30,34H,4-5,9,12-21,43-44H2,1-3H3,(H2,45,56)(H2,46,57)(H,47,58)(H,48,60)(H,49,64)(H,50,59)(H,51,62)(H,52,65)(H,53,61)(H,54,63)/t22-,24-,25-,26-,27-,28-,29-,30-,34-/m0/s1

>  <IUPAC Name>  (1) 
(2S)-N-[(2S)-4-amino-1-[(2-amino-2-oxoethyl)amino]-1-oxobutan-2-yl]-1-[(4R,7S,10S,13S,16S,19R)-19-amino-7-(2-amino-2-oxoethyl)-16-benzyl-13-[(2S)-butan-2-yl]-10-[2-(ethylamino)-2-oxoethyl]-6,9,12,15,18-pentaoxo-1,2-dithia-5,8,11,14,17-pentazacycloicosane-4-carbonyl]pyrrolidine-2-carboxamide

$$$$
