
     RDKit          3D

 57 59  0  0  0  0  0  0  0  0999 V2000
  -10.6459    0.4968    1.1146 C   0  0  0  0  0  0  0  0  0  0  0  0
   -9.3376    1.1122    0.8746 N   0  0  0  0  0  0  0  0  0  0  0  0
   -8.1274    0.3665    0.9556 C   0  0  0  0  0  0  0  0  0  0  0  0
   -8.1688   -0.8595    1.2411 O   0  0  0  0  0  0  0  0  0  0  0  0
   -6.8821    1.0831    0.6970 C   0  0  0  0  0  0  0  0  0  0  0  0
   -6.8375    2.3936    0.3918 N   0  0  0  0  0  0  0  0  0  0  0  0
   -5.6536    3.0270    0.1571 C   0  0  0  0  0  0  0  0  0  0  0  0
   -4.4575    2.3501    0.2233 C   0  0  0  0  0  0  0  0  0  0  0  0
   -4.4826    0.9913    0.5381 C   0  0  0  0  0  0  0  0  0  0  0  0
   -5.7008    0.3746    0.7716 C   0  0  0  0  0  0  0  0  0  0  0  0
   -3.2344    0.1894    0.6292 C   0  0  0  0  0  0  0  0  0  0  0  0
   -2.8164   -0.5377   -0.9799 S   0  0  0  0  0  0  0  0  0  0  0  0
   -1.2949   -1.4810   -0.7460 C   0  0  0  0  0  0  0  0  0  0  0  0
   -1.3707   -2.7776   -0.3867 N   0  0  0  0  0  0  0  0  0  0  0  0
   -0.2519   -3.4994   -0.2070 C   0  0  0  0  0  0  0  0  0  0  0  0
   -0.3625   -4.8730    0.1741 N   0  0  0  0  0  0  0  0  0  0  0  0
    0.9950   -2.9194   -0.3888 C   0  0  0  0  0  0  0  0  0  0  0  0
    1.0517   -1.5874   -0.7574 C   0  0  0  0  0  0  0  0  0  0  0  0
   -0.0933   -0.8318   -0.9461 C   0  0  0  0  0  0  0  0  0  0  0  0
   -0.0587    0.5513   -1.3284 C   0  0  0  0  0  0  0  0  0  0  0  0
   -0.0119    1.6832   -1.6465 N   0  0  0  0  0  0  0  0  0  0  0  0
    2.3351   -0.9185   -0.9644 C   0  0  0  0  0  0  0  0  0  0  0  0
    2.9753   -0.8828   -2.1857 C   0  0  0  0  0  0  0  0  0  0  0  0
    4.1947   -0.2212   -2.2845 C   0  0  0  0  0  0  0  0  0  0  0  0
    4.7461    0.3869   -1.1702 C   0  0  0  0  0  0  0  0  0  0  0  0
    4.0921    0.3424    0.0474 C   0  0  0  0  0  0  0  0  0  0  0  0
    2.8808   -0.3081    0.1710 C   0  0  0  0  0  0  0  0  0  0  0  0
    5.9579    1.0629   -1.1989 O   0  0  0  0  0  0  0  0  0  0  0  0
    7.4467    0.2704   -0.8887 S   0  0  0  0  0  0  0  0  0  0  0  0
    7.2269   -1.0874   -0.2947 O   0  0  0  0  0  0  0  0  0  0  0  0
    8.2727    0.1181   -2.1292 O   0  0  0  0  0  0  0  0  0  0  0  0
    8.3604    1.2699    0.2019 N   0  0  0  0  0  0  0  0  0  0  0  0
    8.0271    0.8782    1.5542 C   0  0  0  0  0  0  0  0  0  0  0  0
    7.9895    2.6499   -0.0737 C   0  0  0  0  0  0  0  0  0  0  0  0
    2.2063   -3.6572   -0.2062 C   0  0  0  0  0  0  0  0  0  0  0  0
    3.1888   -4.2795   -0.0562 N   0  0  0  0  0  0  0  0  0  0  0  0
  -10.4613   -0.5919    1.2343 H   0  0  0  0  0  0  0  0  0  0  0  0
  -11.3280    0.6380    0.2714 H   0  0  0  0  0  0  0  0  0  0  0  0
  -11.0392    0.8953    2.0815 H   0  0  0  0  0  0  0  0  0  0  0  0
   -9.3061    2.1232    0.6394 H   0  0  0  0  0  0  0  0  0  0  0  0
   -5.6435    4.0852   -0.0874 H   0  0  0  0  0  0  0  0  0  0  0  0
   -3.5004    2.8248    0.0421 H   0  0  0  0  0  0  0  0  0  0  0  0
   -5.7401   -0.6840    1.0183 H   0  0  0  0  0  0  0  0  0  0  0  0
   -3.4294   -0.6474    1.3483 H   0  0  0  0  0  0  0  0  0  0  0  0
   -2.4180    0.8266    1.0122 H   0  0  0  0  0  0  0  0  0  0  0  0
   -0.5416   -5.0751    1.1845 H   0  0  0  0  0  0  0  0  0  0  0  0
   -0.2640   -5.6321   -0.5512 H   0  0  0  0  0  0  0  0  0  0  0  0
    2.5281   -1.3628   -3.0399 H   0  0  0  0  0  0  0  0  0  0  0  0
    4.7350   -0.1645   -3.2155 H   0  0  0  0  0  0  0  0  0  0  0  0
    4.4799    0.8016    0.9493 H   0  0  0  0  0  0  0  0  0  0  0  0
    2.3658   -0.3435    1.1283 H   0  0  0  0  0  0  0  0  0  0  0  0
    8.9091    0.5778    2.1457 H   0  0  0  0  0  0  0  0  0  0  0  0
    7.5102    1.7502    2.0194 H   0  0  0  0  0  0  0  0  0  0  0  0
    7.2949    0.0422    1.5635 H   0  0  0  0  0  0  0  0  0  0  0  0
    8.1853    3.2728    0.8461 H   0  0  0  0  0  0  0  0  0  0  0  0
    8.5785    3.0402   -0.9286 H   0  0  0  0  0  0  0  0  0  0  0  0
    6.9262    2.7470   -0.3596 H   0  0  0  0  0  0  0  0  0  0  0  0
  1  2  1  0
  2  3  1  0
  3  4  2  0
  3  5  1  0
  5  6  2  0
  6  7  1  0
  7  8  2  0
  8  9  1  0
  9 10  2  0
  9 11  1  0
 11 12  1  0
 12 13  1  0
 13 14  2  0
 14 15  1  0
 15 16  1  0
 15 17  2  0
 17 18  1  0
 18 19  2  0
 19 20  1  0
 20 21  3  0
 18 22  1  0
 22 23  2  0
 23 24  1  0
 24 25  2  0
 25 26  1  0
 26 27  2  0
 25 28  1  0
 28 29  1  0
 29 30  2  0
 29 31  2  0
 29 32  1  0
 32 33  1  0
 32 34  1  0
 17 35  1  0
 35 36  3  0
 10  5  1  0
 19 13  1  0
 27 22  1  0
  1 37  1  0
  1 38  1  0
  1 39  1  0
  2 40  1  0
  7 41  1  0
  8 42  1  0
 10 43  1  0
 11 44  1  0
 11 45  1  0
 16 46  1  0
 16 47  1  0
 23 48  1  0
 24 49  1  0
 26 50  1  0
 27 51  1  0
 33 52  1  0
 33 53  1  0
 33 54  1  0
 34 55  1  0
 34 56  1  0
 34 57  1  0
M  END
>  <Ligand ID>  (1) 
LIG0004666

>  <Ligand>  (1) 
SCHEMBL3377598

>  <SMILES>  (1) 
CNC(=O)c1nccc(c1)CSc1nc(N)c(c(c1C#N)c1ccc(cc1)OS(=O)(=O)N(C)C)C#N

>  <CID>  (1) 
68619417.0

>  <ChEMBL ID>  (1) 
nan

>  <InChiKey>  (1) 
XEHPYILEDAZGRI-UHFFFAOYSA-N

>  <InChi>  (1) 
InChI=1S/C23H21N7O4S2/c1-27-22(31)19-10-14(8-9-28-19)13-35-23-18(12-25)20(17(11-24)21(26)29-23)15-4-6-16(7-5-15)34-36(32,33)30(2)3/h4-10H,13H2,1-3H3,(H2,26,29)(H,27,31)

>  <IUPAC Name>  (1) 
[4-[2-amino-3,5-dicyano-6-[[2-(methylcarbamoyl)pyridin-4-yl]methylsulfanyl]pyridin-4-yl]phenyl] N,N-dimethylsulfamate

$$$$
