
     RDKit          3D

101106  0  0  0  0  0  0  0  0999 V2000
   -3.7228   -2.2981    3.4519 C   0  0  0  0  0  0  0  0  0  0  0  0
   -3.9008   -1.3520    2.3435 N   0  0  0  0  0  0  0  0  0  0  0  0
   -2.7737   -1.1702    1.4810 C   0  0  0  0  0  0  0  0  0  0  0  0
   -1.7523   -1.8288    1.7640 O   0  0  0  0  0  0  0  0  0  0  0  0
   -2.9216   -0.2356    0.3625 C   0  0  1  0  0  0  0  0  0  0  0  0
   -1.5991    0.1865   -0.0995 N   0  0  0  0  0  0  0  0  0  0  0  0
   -0.6158   -0.6928   -0.6550 C   0  0  0  0  0  0  0  0  0  0  0  0
    0.7691   -0.0750   -0.4450 C   0  0  0  0  0  0  0  0  0  0  0  0
    0.9178    1.2304   -0.9974 N   0  0  0  0  0  0  0  0  0  0  0  0
   -0.2929    2.0723   -1.0216 C   0  0  2  0  0  0  0  0  0  0  0  0
   -1.2576    1.5787   -0.0139 C   0  0  0  0  0  0  0  0  0  0  0  0
   -1.7686    2.3153    0.8813 O   0  0  0  0  0  0  0  0  0  0  0  0
   -0.8555    2.2406   -2.3915 C   0  0  0  0  0  0  0  0  0  0  0  0
   -2.1016    3.1042   -2.3913 C   0  0  0  0  0  0  0  0  0  0  0  0
   -1.8538    4.4974   -1.8626 C   0  0  0  0  0  0  0  0  0  0  0  0
   -3.0786    5.2969   -1.8747 N   0  0  0  0  0  0  0  0  0  0  0  0
   -3.5385    5.8363   -0.7925 C   0  0  0  0  0  0  0  0  0  0  0  0
   -2.9360    5.7190    0.4716 N   0  0  0  0  0  0  0  0  0  0  0  0
   -4.7444    6.5981   -0.9242 N   0  0  0  0  0  0  0  0  0  0  0  0
    2.0948    1.8141   -1.5041 C   0  0  0  0  0  0  0  0  0  0  0  0
    1.9845    3.0137   -1.9947 O   0  0  0  0  0  0  0  0  0  0  0  0
    3.4420    1.2648   -1.5610 C   0  0  2  0  0  0  0  0  0  0  0  0
    3.6723   -0.0318   -0.9993 N   0  0  0  0  0  0  0  0  0  0  0  0
    4.1294   -1.1190   -1.8194 C   0  0  0  0  0  0  0  0  0  0  0  0
    4.3269   -0.9470   -3.0491 O   0  0  0  0  0  0  0  0  0  0  0  0
    4.3908   -2.4742   -1.2804 C   0  0  0  0  0  0  0  0  0  0  0  0
    4.1637   -2.5252    0.1367 N   0  0  0  0  0  0  0  0  0  0  0  0
    4.6394   -3.7525    0.7344 C   0  0  0  0  0  0  0  0  0  0  0  0
    6.1100   -3.9044    0.5599 C   0  0  0  0  0  0  0  0  0  0  0  0
    6.6111   -3.4427   -0.6603 C   0  0  0  0  0  0  0  0  0  0  0  0
    5.7818   -2.8584   -1.7154 C   0  0  0  0  0  0  0  0  0  0  0  0
    7.9636   -3.5527   -0.8699 C   0  0  0  0  0  0  0  0  0  0  0  0
    8.8387   -4.0905    0.0543 C   0  0  0  0  0  0  0  0  0  0  0  0
    8.3085   -4.5451    1.2672 C   0  0  0  0  0  0  0  0  0  0  0  0
    6.9341   -4.4492    1.5169 C   0  0  0  0  0  0  0  0  0  0  0  0
    4.5069    2.2584   -1.1315 C   0  0  0  0  0  0  0  0  0  0  0  0
    4.3905    2.7579    0.2268 C   0  0  0  0  0  0  0  0  0  0  0  0
    5.0197    2.0210    1.2416 C   0  0  0  0  0  0  0  0  0  0  0  0
    4.9679    2.4274    2.5641 C   0  0  0  0  0  0  0  0  0  0  0  0
    4.2900    3.5775    2.9188 C   0  0  0  0  0  0  0  0  0  0  0  0
    3.6752    4.3022    1.9470 C   0  0  0  0  0  0  0  0  0  0  0  0
    3.7331    3.8883    0.6320 C   0  0  0  0  0  0  0  0  0  0  0  0
    4.2229    4.0007    4.2050 F   0  0  0  0  0  0  0  0  0  0  0  0
   -3.6702   -0.8903   -0.7625 C   0  0  0  0  0  0  0  0  0  0  0  0
   -5.0034   -1.3153   -0.3191 C   0  0  0  0  0  0  0  0  0  0  0  0
   -6.0262   -0.3600   -0.3578 C   0  0  0  0  0  0  0  0  0  0  0  0
   -7.3100   -0.6792    0.0084 C   0  0  0  0  0  0  0  0  0  0  0  0
   -7.5638   -1.9712    0.4164 C   0  0  0  0  0  0  0  0  0  0  0  0
   -6.5495   -2.9167    0.4542 C   0  0  0  0  0  0  0  0  0  0  0  0
   -5.2432   -2.6147    0.0880 C   0  0  0  0  0  0  0  0  0  0  0  0
   -6.8620   -4.1879    0.8673 C   0  0  0  0  0  0  0  0  0  0  0  0
   -8.1662   -4.5218    1.2401 C   0  0  0  0  0  0  0  0  0  0  0  0
   -9.1501   -3.5590    1.1911 C   0  0  0  0  0  0  0  0  0  0  0  0
   -8.8603   -2.2810    0.7811 C   0  0  0  0  0  0  0  0  0  0  0  0
   -4.2034   -3.2516    3.1798 H   0  0  0  0  0  0  0  0  0  0  0  0
   -4.2435   -1.8050    4.3241 H   0  0  0  0  0  0  0  0  0  0  0  0
   -2.6420   -2.4349    3.6846 H   0  0  0  0  0  0  0  0  0  0  0  0
   -4.8003   -0.8628    2.2445 H   0  0  0  0  0  0  0  0  0  0  0  0
   -3.4962    0.6337    0.7225 H   0  0  0  0  0  0  0  0  0  0  0  0
   -0.8469   -0.7934   -1.7455 H   0  0  0  0  0  0  0  0  0  0  0  0
   -0.5510   -1.6841   -0.1690 H   0  0  0  0  0  0  0  0  0  0  0  0
    0.9319   -0.0388    0.6475 H   0  0  0  0  0  0  0  0  0  0  0  0
    1.4491   -0.8109   -0.9468 H   0  0  0  0  0  0  0  0  0  0  0  0
    0.0639    3.0634   -0.6324 H   0  0  0  0  0  0  0  0  0  0  0  0
   -0.1025    2.8029   -2.9900 H   0  0  0  0  0  0  0  0  0  0  0  0
   -1.1353    1.2896   -2.8406 H   0  0  0  0  0  0  0  0  0  0  0  0
   -2.3967    3.2152   -3.4690 H   0  0  0  0  0  0  0  0  0  0  0  0
   -2.9508    2.6724   -1.8620 H   0  0  0  0  0  0  0  0  0  0  0  0
   -1.5057    4.4511   -0.8149 H   0  0  0  0  0  0  0  0  0  0  0  0
   -1.0732    5.0223   -2.4539 H   0  0  0  0  0  0  0  0  0  0  0  0
   -3.5484    5.3880    1.2664 H   0  0  0  0  0  0  0  0  0  0  0  0
   -1.9342    5.9332    0.6847 H   0  0  0  0  0  0  0  0  0  0  0  0
   -5.1130    6.9093   -1.8580 H   0  0  0  0  0  0  0  0  0  0  0  0
   -5.2913    6.8630   -0.0792 H   0  0  0  0  0  0  0  0  0  0  0  0
    3.6652    1.1288   -2.6703 H   0  0  0  0  0  0  0  0  0  0  0  0
    3.5037   -0.1603    0.0218 H   0  0  0  0  0  0  0  0  0  0  0  0
    3.6352   -3.1968   -1.7233 H   0  0  0  0  0  0  0  0  0  0  0  0
    4.6899   -1.7052    0.5589 H   0  0  0  0  0  0  0  0  0  0  0  0
    4.4364   -3.7177    1.8187 H   0  0  0  0  0  0  0  0  0  0  0  0
    4.1533   -4.6486    0.3185 H   0  0  0  0  0  0  0  0  0  0  0  0
    6.3055   -1.9357   -2.0753 H   0  0  0  0  0  0  0  0  0  0  0  0
    5.6755   -3.5320   -2.6013 H   0  0  0  0  0  0  0  0  0  0  0  0
    8.4109   -3.2100   -1.7997 H   0  0  0  0  0  0  0  0  0  0  0  0
    9.9067   -4.1652   -0.1392 H   0  0  0  0  0  0  0  0  0  0  0  0
    8.9477   -4.9746    2.0258 H   0  0  0  0  0  0  0  0  0  0  0  0
    6.5063   -4.7971    2.4540 H   0  0  0  0  0  0  0  0  0  0  0  0
    4.5134    3.0642   -1.9063 H   0  0  0  0  0  0  0  0  0  0  0  0
    5.4829    1.7444   -1.2480 H   0  0  0  0  0  0  0  0  0  0  0  0
    5.5595    1.1108    0.9770 H   0  0  0  0  0  0  0  0  0  0  0  0
    5.4700    1.8220    3.3005 H   0  0  0  0  0  0  0  0  0  0  0  0
    3.1447    5.2011    2.2230 H   0  0  0  0  0  0  0  0  0  0  0  0
    3.2395    4.4922   -0.0940 H   0  0  0  0  0  0  0  0  0  0  0  0
   -3.8192   -0.1522   -1.6050 H   0  0  0  0  0  0  0  0  0  0  0  0
   -3.1322   -1.7725   -1.1715 H   0  0  0  0  0  0  0  0  0  0  0  0
   -5.8135    0.6431   -0.6768 H   0  0  0  0  0  0  0  0  0  0  0  0
   -8.0586    0.0981   -0.0414 H   0  0  0  0  0  0  0  0  0  0  0  0
   -4.4680   -3.3707    0.1262 H   0  0  0  0  0  0  0  0  0  0  0  0
   -6.1480   -4.9960    0.9335 H   0  0  0  0  0  0  0  0  0  0  0  0
   -8.4016   -5.5392    1.5667 H   0  0  0  0  0  0  0  0  0  0  0  0
  -10.1589   -3.8425    1.4855 H   0  0  0  0  0  0  0  0  0  0  0  0
   -9.6230   -1.5107    0.7360 H   0  0  0  0  0  0  0  0  0  0  0  0
  1  2  1  0
  2  3  1  0
  3  4  2  0
  3  5  1  0
  5  6  1  0
  6  7  1  0
  7  8  1  0
  8  9  1  0
  9 10  1  0
 10 11  1  0
 11 12  2  0
 10 13  1  0
 13 14  1  0
 14 15  1  0
 15 16  1  0
 16 17  2  3
 17 18  1  0
 17 19  1  0
  9 20  1  0
 20 21  2  0
 20 22  1  0
 22 23  1  0
 23 24  1  0
 24 25  2  0
 24 26  1  0
 26 27  1  0
 27 28  1  0
 28 29  1  0
 29 30  2  0
 30 31  1  0
 30 32  1  0
 32 33  2  0
 33 34  1  0
 34 35  2  0
 22 36  1  0
 36 37  1  0
 37 38  2  0
 38 39  1  0
 39 40  2  0
 40 41  1  0
 41 42  2  0
 40 43  1  0
  5 44  1  0
 44 45  1  0
 45 46  2  0
 46 47  1  0
 47 48  2  0
 48 49  1  0
 49 50  2  0
 49 51  1  0
 51 52  2  0
 52 53  1  0
 53 54  2  0
 11  6  1  0
 31 26  1  0
 42 37  1  0
 50 45  1  0
 35 29  1  0
 54 48  1  0
  1 55  1  0
  1 56  1  0
  1 57  1  0
  2 58  1  0
  5 59  1  1
  7 60  1  0
  7 61  1  0
  8 62  1  0
  8 63  1  0
 10 64  1  1
 13 65  1  0
 13 66  1  0
 14 67  1  0
 14 68  1  0
 15 69  1  0
 15 70  1  0
 18 71  1  0
 18 72  1  0
 19 73  1  0
 19 74  1  0
 22 75  1  6
 23 76  1  0
 26 77  1  0
 27 78  1  0
 28 79  1  0
 28 80  1  0
 31 81  1  0
 31 82  1  0
 32 83  1  0
 33 84  1  0
 34 85  1  0
 35 86  1  0
 36 87  1  0
 36 88  1  0
 38 89  1  0
 39 90  1  0
 41 91  1  0
 42 92  1  0
 44 93  1  0
 44 94  1  0
 46 95  1  0
 47 96  1  0
 50 97  1  0
 51 98  1  0
 52 99  1  0
 53100  1  0
 54101  1  0
M  END
>  <Ligand ID>  (1) 
LIG0004644

>  <Ligand>  (1) 
CHEMBL215895

>  <SMILES>  (1) 
CNC(=O)[C@@H](N1CCN([C@H](C1=O)CCCN=C(N)N)C(=O)[C@H](NC(=O)C1NCc2c(C1)cccc2)Cc1ccc(cc1)F)Cc1ccc2c(c1)cccc2

>  <CID>  (1) 
44416060.0

>  <ChEMBL ID>  (1) 
nan

>  <InChiKey>  (1) 
AIVKUJJDLDHLNN-HMVKWVIFSA-N

>  <InChi>  (1) 
InChI=1S/C41H47FN8O4/c1-45-38(52)36(23-27-12-15-28-7-2-3-8-29(28)21-27)50-20-19-49(35(40(50)54)11-6-18-46-41(43)44)39(53)34(22-26-13-16-32(42)17-14-26)48-37(51)33-24-30-9-4-5-10-31(30)25-47-33/h2-5,7-10,12-17,21,33-36,47H,6,11,18-20,22-25H2,1H3,(H,45,52)(H,48,51)(H4,43,44,46)/t33?,34-,35+,36+/m1/s1

>  <IUPAC Name>  (1) 
N-[(2R)-1-[(2S)-2-[3-(diaminomethylideneamino)propyl]-4-[(2S)-1-(methylamino)-3-naphthalen-2-yl-1-oxopropan-2-yl]-3-oxopiperazin-1-yl]-3-(4-fluorophenyl)-1-oxopropan-2-yl]-1,2,3,4-tetrahydroisoquinoline-3-carboxamide

$$$$
