
     RDKit          3D

 68 70  0  0  0  0  0  0  0  0999 V2000
   -1.4788    2.4157   -1.1054 O   0  0  0  0  0  0  0  0  0  0  0  0
   -1.7872    1.0575   -0.9378 C   0  0  0  0  0  0  0  0  0  0  0  0
   -0.5074    0.4014   -0.4531 C   0  0  0  0  0  0  0  0  0  0  0  0
    0.4592    0.6153   -1.4657 O   0  0  0  0  0  0  0  0  0  0  0  0
    1.7350    0.1109   -1.2608 C   0  0  0  0  0  0  0  0  0  0  0  0
    2.1105   -0.5812   -0.1295 C   0  0  0  0  0  0  0  0  0  0  0  0
    3.4078   -1.0431   -0.0199 C   0  0  0  0  0  0  0  0  0  0  0  0
    4.3752   -0.8642   -0.9685 C   0  0  0  0  0  0  0  0  0  0  0  0
    3.9653   -0.1533   -2.1169 C   0  0  0  0  0  0  0  0  0  0  0  0
    2.6771    0.3151   -2.2449 C   0  0  0  0  0  0  0  0  0  0  0  0
    5.6563   -1.2768   -0.9411 O   0  0  0  0  0  0  0  0  0  0  0  0
    6.4379   -1.9562   -0.0502 C   0  0  0  0  0  0  0  0  0  0  0  0
    6.6709   -1.3339    1.2897 C   0  0  0  0  0  0  0  0  0  0  0  0
    7.2812   -0.1078    1.2349 O   0  0  0  0  0  0  0  0  0  0  0  0
    8.5261   -0.0696    0.6656 C   0  0  0  0  0  0  0  0  0  0  0  0
    9.5467    0.6743    1.5308 C   0  0  0  0  0  0  0  0  0  0  0  0
   10.6055    1.1337    0.5589 C   0  0  0  0  0  0  0  0  0  0  0  0
   10.0273    0.9497   -0.8282 C   0  0  0  0  0  0  0  0  0  0  0  0
    8.5369    0.8535   -0.5640 C   0  0  0  0  0  0  0  0  0  0  0  0
   -2.8424    0.8362    0.1166 C   0  0  0  0  0  0  0  0  0  0  0  0
   -3.1437   -0.5542    0.2693 N   0  0  0  0  0  0  0  0  0  0  0  0
   -3.8069   -1.1423   -0.8507 C   0  0  0  0  0  0  0  0  0  0  0  0
   -5.2122   -0.6350   -1.0570 C   0  0  0  0  0  0  0  0  0  0  0  0
   -6.0771   -0.8931    0.0773 N   0  0  0  0  0  0  0  0  0  0  0  0
   -7.4281   -0.4438   -0.0321 C   0  0  0  0  0  0  0  0  0  0  0  0
   -7.7526    0.1408   -1.1080 O   0  0  0  0  0  0  0  0  0  0  0  0
   -8.3735   -0.6388    1.0126 N   0  0  0  0  0  0  0  0  0  0  0  0
   -9.6886   -0.1456    0.7870 C   0  0  0  0  0  0  0  0  0  0  0  0
   -9.9490    1.1464    1.1811 C   0  0  0  0  0  0  0  0  0  0  0  0
  -11.1887    1.7501    1.0174 C   0  0  0  0  0  0  0  0  0  0  0  0
  -12.1884    0.9896    0.4268 C   0  0  0  0  0  0  0  0  0  0  0  0
  -11.9192   -0.3153    0.0308 C   0  0  0  0  0  0  0  0  0  0  0  0
  -10.6878   -0.8957    0.2003 C   0  0  0  0  0  0  0  0  0  0  0  0
   -2.1470    2.8018   -1.7200 H   0  0  0  0  0  0  0  0  0  0  0  0
   -2.0278    0.6184   -1.9026 H   0  0  0  0  0  0  0  0  0  0  0  0
   -0.6660   -0.6876   -0.2604 H   0  0  0  0  0  0  0  0  0  0  0  0
   -0.2010    0.8241    0.5301 H   0  0  0  0  0  0  0  0  0  0  0  0
    1.3623   -0.7291    0.6233 H   0  0  0  0  0  0  0  0  0  0  0  0
    3.6440   -1.5859    0.8806 H   0  0  0  0  0  0  0  0  0  0  0  0
    4.6853    0.0305   -2.9238 H   0  0  0  0  0  0  0  0  0  0  0  0
    2.4435    0.8554   -3.1663 H   0  0  0  0  0  0  0  0  0  0  0  0
    6.0631   -3.0152    0.0445 H   0  0  0  0  0  0  0  0  0  0  0  0
    7.4537   -2.0990   -0.5292 H   0  0  0  0  0  0  0  0  0  0  0  0
    5.7273   -1.2117    1.8389 H   0  0  0  0  0  0  0  0  0  0  0  0
    7.2764   -2.0372    1.9402 H   0  0  0  0  0  0  0  0  0  0  0  0
    8.9392   -1.0144    0.3133 H   0  0  0  0  0  0  0  0  0  0  0  0
    9.9375    0.0675    2.3502 H   0  0  0  0  0  0  0  0  0  0  0  0
    9.0198    1.5970    1.8839 H   0  0  0  0  0  0  0  0  0  0  0  0
   11.5004    0.4850    0.7106 H   0  0  0  0  0  0  0  0  0  0  0  0
   10.8729    2.2053    0.7181 H   0  0  0  0  0  0  0  0  0  0  0  0
   10.2886    1.7884   -1.5032 H   0  0  0  0  0  0  0  0  0  0  0  0
   10.3832   -0.0269   -1.1998 H   0  0  0  0  0  0  0  0  0  0  0  0
    8.1376    1.8453   -0.2909 H   0  0  0  0  0  0  0  0  0  0  0  0
    7.9718    0.4164   -1.3939 H   0  0  0  0  0  0  0  0  0  0  0  0
   -2.5111    1.2377    1.0942 H   0  0  0  0  0  0  0  0  0  0  0  0
   -3.7328    1.4160   -0.2133 H   0  0  0  0  0  0  0  0  0  0  0  0
   -3.6658   -0.7736    1.1247 H   0  0  0  0  0  0  0  0  0  0  0  0
   -3.8504   -2.2433   -0.7139 H   0  0  0  0  0  0  0  0  0  0  0  0
   -3.2609   -0.9874   -1.7979 H   0  0  0  0  0  0  0  0  0  0  0  0
   -5.6427   -1.1787   -1.9230 H   0  0  0  0  0  0  0  0  0  0  0  0
   -5.2256    0.4428   -1.3322 H   0  0  0  0  0  0  0  0  0  0  0  0
   -5.7434   -1.3794    0.9333 H   0  0  0  0  0  0  0  0  0  0  0  0
   -8.0845   -1.1275    1.8972 H   0  0  0  0  0  0  0  0  0  0  0  0
   -9.1875    1.7666    1.6460 H   0  0  0  0  0  0  0  0  0  0  0  0
  -11.3844    2.7516    1.3247 H   0  0  0  0  0  0  0  0  0  0  0  0
  -13.1837    1.4304    0.2789 H   0  0  0  0  0  0  0  0  0  0  0  0
  -12.7015   -0.9139   -0.4328 H   0  0  0  0  0  0  0  0  0  0  0  0
  -10.4777   -1.9098   -0.1079 H   0  0  0  0  0  0  0  0  0  0  0  0
  1  2  1  0
  2  3  1  0
  3  4  1  0
  4  5  1  0
  5  6  2  0
  6  7  1  0
  7  8  2  0
  8  9  1  0
  9 10  2  0
  8 11  1  0
 11 12  1  0
 12 13  1  0
 13 14  1  0
 14 15  1  0
 15 16  1  0
 16 17  1  0
 17 18  1  0
 18 19  1  0
  2 20  1  0
 20 21  1  0
 21 22  1  0
 22 23  1  0
 23 24  1  0
 24 25  1  0
 25 26  2  0
 25 27  1  0
 27 28  1  0
 28 29  2  0
 29 30  1  0
 30 31  2  0
 31 32  1  0
 32 33  2  0
 10  5  1  0
 19 15  1  0
 33 28  1  0
  1 34  1  0
  2 35  1  0
  3 36  1  0
  3 37  1  0
  6 38  1  0
  7 39  1  0
  9 40  1  0
 10 41  1  0
 12 42  1  0
 12 43  1  0
 13 44  1  0
 13 45  1  0
 15 46  1  0
 16 47  1  0
 16 48  1  0
 17 49  1  0
 17 50  1  0
 18 51  1  0
 18 52  1  0
 19 53  1  0
 19 54  1  0
 20 55  1  0
 20 56  1  0
 21 57  1  0
 22 58  1  0
 22 59  1  0
 23 60  1  0
 23 61  1  0
 24 62  1  0
 27 63  1  0
 29 64  1  0
 30 65  1  0
 31 66  1  0
 32 67  1  0
 33 68  1  0
M  END
>  <Ligand ID>  (1) 
LIG0003042

>  <Ligand>  (1) 
CHEMBL2348211

>  <SMILES>  (1) 
OC(COc1ccc(cc1)OCCOC1CCCC1)CNCCNC(=O)Nc1ccccc1

>  <CID>  (1) 
56598967.0

>  <ChEMBL ID>  (1) 
nan

>  <InChiKey>  (1) 
SGAMSSKRAFOAJK-UHFFFAOYSA-N

>  <InChi>  (1) 
InChI=1S/C25H35N3O5/c29-21(18-26-14-15-27-25(30)28-20-6-2-1-3-7-20)19-33-24-12-10-23(11-13-24)32-17-16-31-22-8-4-5-9-22/h1-3,6-7,10-13,21-22,26,29H,4-5,8-9,14-19H2,(H2,27,28,30)

>  <IUPAC Name>  (1) 
1-[2-[[3-[4-(2-cyclopentyloxyethoxy)phenoxy]-2-hydroxypropyl]amino]ethyl]-3-phenylurea

$$$$
