
     RDKit          3D

 30 30  0  0  0  0  0  0  0  0999 V2000
    4.0772    0.4819   -0.4706 N   0  0  0  0  0  0  0  0  0  0  0  0
    3.1410    0.1617    0.5813 C   0  0  0  0  0  0  0  0  0  0  0  0
    1.7299    0.2798   -0.0140 C   0  0  1  0  0  0  0  0  0  0  0  0
    1.5150   -0.6549   -1.1654 C   0  0  0  0  0  0  0  0  0  0  0  0
    0.8305   -0.8521    0.1527 C   0  0  2  0  0  0  0  0  0  0  0  0
   -0.6259   -0.8295    0.1158 C   0  0  0  0  0  0  0  0  0  0  0  0
   -1.2820   -2.0443   -0.1264 C   0  0  0  0  0  0  0  0  0  0  0  0
   -2.6362   -2.1590   -0.1875 C   0  0  0  0  0  0  0  0  0  0  0  0
   -3.4296   -1.0498   -0.0074 C   0  0  0  0  0  0  0  0  0  0  0  0
   -2.8153    0.1455    0.2300 C   0  0  0  0  0  0  0  0  0  0  0  0
   -1.4225    0.2789    0.2956 C   0  0  0  0  0  0  0  0  0  0  0  0
   -0.8175    1.4939    0.5367 O   0  0  0  0  0  0  0  0  0  0  0  0
   -1.6481    2.6258    0.7198 C   0  0  0  0  0  0  0  0  0  0  0  0
    0.6921    0.0000    0.0000 Cl  0  0  0  0  0  0  0  0  0  0  0  0
    4.7551    1.2207   -0.1949 H   0  0  0  0  0  0  0  0  0  0  0  0
    3.6100    0.6916   -1.3778 H   0  0  0  0  0  0  0  0  0  0  0  0
    3.2700    0.7412    1.4941 H   0  0  0  0  0  0  0  0  0  0  0  0
    3.3191   -0.9227    0.8334 H   0  0  0  0  0  0  0  0  0  0  0  0
    1.4141    1.3199   -0.0628 H   0  0  0  0  0  0  0  0  0  0  0  0
    2.2907   -1.4015   -1.4312 H   0  0  0  0  0  0  0  0  0  0  0  0
    0.9193   -0.3250   -2.0393 H   0  0  0  0  0  0  0  0  0  0  0  0
    1.2274   -1.6954    0.7975 H   0  0  0  0  0  0  0  0  0  0  0  0
   -0.6948   -2.9488   -0.2750 H   0  0  0  0  0  0  0  0  0  0  0  0
   -3.0934   -3.1252   -0.3782 H   0  0  0  0  0  0  0  0  0  0  0  0
   -4.5010   -1.1548   -0.0583 H   0  0  0  0  0  0  0  0  0  0  0  0
   -3.4146    1.0374    0.3759 H   0  0  0  0  0  0  0  0  0  0  0  0
   -2.3406    2.7278   -0.1554 H   0  0  0  0  0  0  0  0  0  0  0  0
   -2.2960    2.4039    1.6125 H   0  0  0  0  0  0  0  0  0  0  0  0
   -1.0819    3.5529    0.9013 H   0  0  0  0  0  0  0  0  0  0  0  0
   -0.6921    0.0000    0.0000 H   0  0  0  0  0  0  0  0  0  0  0  0
  1  2  1  0
  2  3  1  0
  3  4  1  0
  4  5  1  0
  5  6  1  0
  6  7  2  0
  7  8  1  0
  8  9  2  0
  9 10  1  0
 10 11  2  0
 11 12  1  0
 12 13  1  0
  5  3  1  0
 11  6  1  0
  1 15  1  0
  1 16  1  0
  2 17  1  0
  2 18  1  0
  3 19  1  6
  4 20  1  0
  4 21  1  0
  5 22  1  1
  7 23  1  0
  8 24  1  0
  9 25  1  0
 10 26  1  0
 13 27  1  0
 13 28  1  0
 13 29  1  0
 14 30  1  0
M  END
>  <Ligand ID>  (1) 
LIG0004857

>  <Ligand>  (1) 
CHEMBL451368

>  <SMILES>  (1) 
NC[C@H]1C[C@@H]1c1ccccc1OC.Cl

>  <CID>  (1) 
44572758.0

>  <ChEMBL ID>  (1) 
nan

>  <InChiKey>  (1) 
XGOIYCUUVHIMKE-SCYNACPDSA-N

>  <InChi>  (1) 
InChI=1S/C11H15NO.ClH/c1-13-11-5-3-2-4-9(11)10-6-8(10)7-12;/h2-5,8,10H,6-7,12H2,1H3;1H/t8-,10+;/m1./s1

>  <IUPAC Name>  (1) 
[(1S,2S)-2-(2-methoxyphenyl)cyclopropyl]methanamine;hydrochloride

$$$$
