
     RDKit          3D

 44 47  0  0  0  0  0  0  0  0999 V2000
    5.4509   -0.0942    1.6024 O   0  0  0  0  0  0  0  0  0  0  0  0
    4.0994   -0.4169    1.4049 C   0  0  0  0  0  0  0  0  0  0  0  0
    3.5041   -1.3797    2.1676 C   0  0  0  0  0  0  0  0  0  0  0  0
    2.1812   -1.7199    1.9999 C   0  0  0  0  0  0  0  0  0  0  0  0
    1.4357   -1.0633    1.0280 C   0  0  0  0  0  0  0  0  0  0  0  0
    2.0034   -0.0715    0.2242 C   0  0  0  0  0  0  0  0  0  0  0  0
    3.3319    0.2206    0.4433 C   0  0  0  0  0  0  0  0  0  0  0  0
    1.1750    0.5964   -0.7944 C   0  0  2  0  0  0  0  0  0  0  0  0
    2.0413    1.0085   -1.9400 C   0  0  0  0  0  0  0  0  0  0  0  0
    0.6123    1.8599   -0.1664 C   0  0  0  0  0  0  0  0  0  0  0  0
   -0.8805    1.7963    0.0290 C   0  0  0  0  0  0  0  0  0  0  0  0
   -1.1947    0.5507    0.6724 N   0  0  0  0  0  0  0  0  0  0  0  0
   -0.7993   -0.6248   -0.0236 C   0  0  2  0  0  0  0  0  0  0  0  0
    0.0423   -1.4634    0.8994 C   0  0  0  0  0  0  0  0  0  0  0  0
   -0.4282   -2.4497    1.5215 O   0  0  0  0  0  0  0  0  0  0  0  0
   -0.0010   -0.2458   -1.2211 C   0  0  2  0  0  0  0  0  0  0  0  0
    0.3930   -1.4860   -1.9692 C   0  0  0  0  0  0  0  0  0  0  0  0
   -2.5139    0.5152    1.2458 C   0  0  0  0  0  0  0  0  0  0  0  0
   -3.5951    0.5313    0.1984 C   0  0  0  0  0  0  0  0  0  0  0  0
   -5.0091    0.5012    0.5629 C   0  0  0  0  0  0  0  0  0  0  0  0
   -4.3679   -0.7876    0.0815 C   0  0  0  0  0  0  0  0  0  0  0  0
    5.9075    0.3162    0.7898 H   0  0  0  0  0  0  0  0  0  0  0  0
    4.1158   -1.8801    2.9270 H   0  0  0  0  0  0  0  0  0  0  0  0
    1.7446   -2.4964    2.6301 H   0  0  0  0  0  0  0  0  0  0  0  0
    3.8272    0.9750   -0.1392 H   0  0  0  0  0  0  0  0  0  0  0  0
    2.2473    2.1172   -1.9357 H   0  0  0  0  0  0  0  0  0  0  0  0
    3.0415    0.5204   -1.9457 H   0  0  0  0  0  0  0  0  0  0  0  0
    1.5967    0.7729   -2.9324 H   0  0  0  0  0  0  0  0  0  0  0  0
    1.0302    2.0277    0.8695 H   0  0  0  0  0  0  0  0  0  0  0  0
    0.8814    2.7789   -0.7378 H   0  0  0  0  0  0  0  0  0  0  0  0
   -1.4705    1.9879   -0.8825 H   0  0  0  0  0  0  0  0  0  0  0  0
   -1.1504    2.6065    0.7515 H   0  0  0  0  0  0  0  0  0  0  0  0
   -1.6577   -1.2668   -0.3023 H   0  0  0  0  0  0  0  0  0  0  0  0
   -0.6308    0.3635   -1.8867 H   0  0  0  0  0  0  0  0  0  0  0  0
   -0.5675   -1.9214   -2.3555 H   0  0  0  0  0  0  0  0  0  0  0  0
    1.0008   -1.2734   -2.8796 H   0  0  0  0  0  0  0  0  0  0  0  0
    0.8455   -2.2634   -1.3317 H   0  0  0  0  0  0  0  0  0  0  0  0
   -2.5587   -0.3862    1.9034 H   0  0  0  0  0  0  0  0  0  0  0  0
   -2.5930    1.3879    1.9374 H   0  0  0  0  0  0  0  0  0  0  0  0
   -3.3041    1.0573   -0.7246 H   0  0  0  0  0  0  0  0  0  0  0  0
   -5.7656    0.9111   -0.1562 H   0  0  0  0  0  0  0  0  0  0  0  0
   -5.3194    0.5521    1.6442 H   0  0  0  0  0  0  0  0  0  0  0  0
   -4.5316   -1.0992   -0.9688 H   0  0  0  0  0  0  0  0  0  0  0  0
   -4.1699   -1.5653    0.8617 H   0  0  0  0  0  0  0  0  0  0  0  0
  1  2  1  0
  2  3  2  0
  3  4  1  0
  4  5  2  0
  5  6  1  0
  6  7  2  0
  6  8  1  0
  8  9  1  6
  8 10  1  0
 10 11  1  0
 11 12  1  0
 12 13  1  0
 13 14  1  0
 14 15  2  0
 13 16  1  0
 16 17  1  0
 12 18  1  0
 18 19  1  0
 19 20  1  0
 20 21  1  0
  7  2  1  0
 16  8  1  0
 21 19  1  0
 14  5  1  0
  1 22  1  0
  3 23  1  0
  4 24  1  0
  7 25  1  0
  9 26  1  0
  9 27  1  0
  9 28  1  0
 10 29  1  0
 10 30  1  0
 11 31  1  0
 11 32  1  0
 13 33  1  6
 16 34  1  6
 17 35  1  0
 17 36  1  0
 17 37  1  0
 18 38  1  0
 18 39  1  0
 19 40  1  0
 20 41  1  0
 20 42  1  0
 21 43  1  0
 21 44  1  0
M  END
>  <Ligand ID>  (1) 
LIG0005483

>  <Ligand>  (1) 
Ketazocine

>  <SMILES>  (1) 
Oc1ccc2c(c1)[C@]1(C)CCN([C@H](C2=O)[C@@H]1C)CC1CC1

>  <CID>  (1) 
3054741.0

>  <ChEMBL ID>  (1) 
nan

>  <InChiKey>  (1) 
HQBZLVPZOGIAIQ-SDDDUWNISA-N

>  <InChi>  (1) 
InChI=1S/C18H23NO2/c1-11-16-17(21)14-6-5-13(20)9-15(14)18(11,2)7-8-19(16)10-12-3-4-12/h5-6,9,11-12,16,20H,3-4,7-8,10H2,1-2H3/t11-,16-,18+/m0/s1

>  <IUPAC Name>  (1) 
(1R,9S,13R)-10-(cyclopropylmethyl)-4-hydroxy-1,13-dimethyl-10-azatricyclo[7.3.1.02,7]trideca-2(7),3,5-trien-8-one

$$$$
