
     RDKit          3D

158163  0  0  0  0  0  0  0  0999 V2000
    8.4922   -2.5750    2.2481 C   0  0  0  0  0  0  0  0  0  0  0  0
    9.6518   -2.1882    1.3612 C   0  0  0  0  0  0  0  0  0  0  0  0
    9.2929   -0.8490    0.6966 C   0  0  0  0  0  0  0  0  0  0  0  0
    8.0372   -1.0756   -0.0914 C   0  0  0  0  0  0  0  0  0  0  0  0
    7.6021    0.1994   -0.7964 C   0  0  2  0  0  0  0  0  0  0  0  0
    6.3434   -0.1374   -1.5574 C   0  0  0  0  0  0  0  0  0  0  0  0
    6.2419    0.0259   -2.7920 O   0  0  0  0  0  0  0  0  0  0  0  0
    5.2811   -0.6578   -0.7955 N   0  0  0  0  0  0  0  0  0  0  0  0
    3.9867   -1.0653   -1.3478 C   0  0  1  0  0  0  0  0  0  0  0  0
    3.6876   -2.5053   -1.2577 C   0  0  0  0  0  0  0  0  0  0  0  0
    3.3547   -3.0824    0.0414 C   0  0  0  0  0  0  0  0  0  0  0  0
    2.9680   -2.4786    1.0565 O   0  0  0  0  0  0  0  0  0  0  0  0
    3.4584   -4.5157    0.2582 N   0  0  0  0  0  0  0  0  0  0  0  0
    3.0495   -5.0667    1.5608 C   0  0  0  0  0  0  0  0  0  0  0  0
    1.5005   -4.8954    1.5974 C   0  0  0  0  0  0  0  0  0  0  0  0
    0.9809   -5.8994    0.5471 C   0  0  0  0  0  0  0  0  0  0  0  0
   -0.4856   -5.7725    0.3752 C   0  0  0  0  0  0  0  0  0  0  0  0
   -0.9541   -4.5307   -0.2897 C   0  0  1  0  0  0  0  0  0  0  0  0
   -0.4565   -4.4065   -1.7084 C   0  0  0  0  0  0  0  0  0  0  0  0
    0.7567   -4.4722   -2.0076 O   0  0  0  0  0  0  0  0  0  0  0  0
   -1.3720   -4.2048   -2.7830 N   0  0  0  0  0  0  0  0  0  0  0  0
   -2.4263   -4.4607   -0.3185 N   0  0  0  0  0  0  0  0  0  0  0  0
   -3.1936   -5.4970   -0.9020 C   0  0  0  0  0  0  0  0  0  0  0  0
   -3.0953   -3.3530    0.2294 C   0  0  0  0  0  0  0  0  0  0  0  0
   -2.2957   -2.5052    0.6840 O   0  0  0  0  0  0  0  0  0  0  0  0
   -4.5254   -3.0398    0.3492 C   0  0  1  0  0  0  0  0  0  0  0  0
   -4.5038   -1.7257    1.0090 N   0  0  0  0  0  0  0  0  0  0  0  0
   -4.0633   -0.5935    0.2955 C   0  0  0  0  0  0  0  0  0  0  0  0
   -3.7483   -0.8506   -0.8713 O   0  0  0  0  0  0  0  0  0  0  0  0
   -3.9371    0.7955    0.7723 C   0  0  1  0  0  0  0  0  0  0  0  0
   -3.2903    1.5571   -0.3254 N   0  0  0  0  0  0  0  0  0  0  0  0
   -1.8547    1.6008   -0.3726 C   0  0  0  0  0  0  0  0  0  0  0  0
   -1.3112    0.9226    0.5231 O   0  0  0  0  0  0  0  0  0  0  0  0
   -1.0757    2.3525   -1.3617 C   0  0  2  0  0  0  0  0  0  0  0  0
    0.3711    2.0906   -1.1749 N   0  0  0  0  0  0  0  0  0  0  0  0
    0.9996    2.2888    0.0915 C   0  0  0  0  0  0  0  0  0  0  0  0
    0.2420    2.9067    0.8530 O   0  0  0  0  0  0  0  0  0  0  0  0
    2.3129    1.8949    0.5564 C   0  0  1  0  0  0  0  0  0  0  0  0
    3.1640    1.1107   -0.2792 N   0  0  0  0  0  0  0  0  0  0  0  0
    2.9292   -0.2768   -0.6361 C   0  0  0  0  0  0  0  0  0  0  0  0
    1.8186   -0.6941   -0.3184 O   0  0  0  0  0  0  0  0  0  0  0  0
    3.0932    2.8824    1.3265 C   0  0  0  0  0  0  0  0  0  0  0  0
    2.5633    3.3239    2.6158 C   0  0  0  0  0  0  0  0  0  0  0  0
    3.2125    4.3012    3.3417 N   0  0  0  0  0  0  0  0  0  0  0  0
    2.5745    4.4936    4.4965 C   0  0  0  0  0  0  0  0  0  0  0  0
    1.5269    3.6801    4.5629 N   0  0  0  0  0  0  0  0  0  0  0  0
    1.5106    2.9494    3.4017 C   0  0  0  0  0  0  0  0  0  0  0  0
    1.1766    1.7354   -2.2740 C   0  0  0  0  0  0  0  0  0  0  0  0
   -1.4470    3.7997   -1.2288 C   0  0  0  0  0  0  0  0  0  0  0  0
   -0.7757    4.7025   -2.1813 C   0  0  0  0  0  0  0  0  0  0  0  0
   -1.4354    4.8942   -3.4013 C   0  0  0  0  0  0  0  0  0  0  0  0
   -0.9593    5.7113   -4.3913 C   0  0  0  0  0  0  0  0  0  0  0  0
    0.2336    6.3717   -4.1542 C   0  0  0  0  0  0  0  0  0  0  0  0
    0.9150    6.1999   -2.9432 C   0  0  0  0  0  0  0  0  0  0  0  0
    0.4047    5.3601   -1.9527 C   0  0  0  0  0  0  0  0  0  0  0  0
    2.0905    6.8837   -2.7708 C   0  0  0  0  0  0  0  0  0  0  0  0
    2.5733    7.7181   -3.7883 C   0  0  0  0  0  0  0  0  0  0  0  0
    1.9003    7.8807   -4.9712 C   0  0  0  0  0  0  0  0  0  0  0  0
    0.7171    7.1962   -5.1500 C   0  0  0  0  0  0  0  0  0  0  0  0
   -5.2361    1.4181    1.1559 C   0  0  0  0  0  0  0  0  0  0  0  0
   -4.9749    2.8513    1.6445 C   0  0  0  0  0  0  0  0  0  0  0  0
   -6.2796    3.4995    2.0760 C   0  0  0  0  0  0  0  0  0  0  0  0
   -6.8890    2.7461    3.1654 N   0  0  0  0  0  0  0  0  0  0  0  0
   -6.8139    3.0960    4.3929 C   0  0  0  0  0  0  0  0  0  0  0  0
   -6.1098    4.2734    4.7528 N   0  0  0  0  0  0  0  0  0  0  0  0
   -7.4470    2.2720    5.3517 N   0  0  0  0  0  0  0  0  0  0  0  0
   -4.8841   -1.5569    2.3608 C   0  0  0  0  0  0  0  0  0  0  0  0
   -5.2787   -3.0867   -0.8969 C   0  0  0  0  0  0  0  0  0  0  0  0
   -6.7348   -2.7100   -0.6347 C   0  0  0  0  0  0  0  0  0  0  0  0
   -7.3159   -1.4988   -0.9197 C   0  0  0  0  0  0  0  0  0  0  0  0
   -8.6130   -1.5897   -0.5211 N   0  0  0  0  0  0  0  0  0  0  0  0
   -8.8630   -2.7950   -0.0053 C   0  0  0  0  0  0  0  0  0  0  0  0
   -7.6928   -3.5195   -0.0665 C   0  0  0  0  0  0  0  0  0  0  0  0
   -7.6077   -4.8244    0.3907 C   0  0  0  0  0  0  0  0  0  0  0  0
   -8.7522   -5.4229    0.9323 C   0  0  0  0  0  0  0  0  0  0  0  0
   -9.9298   -4.6854    0.9904 C   0  0  0  0  0  0  0  0  0  0  0  0
   -9.9983   -3.3837    0.5293 C   0  0  0  0  0  0  0  0  0  0  0  0
    8.6056    0.6457   -1.7119 N   0  0  0  0  0  0  0  0  0  0  0  0
    9.2358    1.9201   -1.6904 C   0  0  0  0  0  0  0  0  0  0  0  0
    8.9582    2.8103   -0.8289 O   0  0  0  0  0  0  0  0  0  0  0  0
   10.2655    2.2085   -2.7340 C   0  0  0  0  0  0  0  0  0  0  0  0
    7.7087   -3.1276    1.6887 H   0  0  0  0  0  0  0  0  0  0  0  0
    8.0010   -1.6338    2.6205 H   0  0  0  0  0  0  0  0  0  0  0  0
    8.8008   -3.1747    3.1284 H   0  0  0  0  0  0  0  0  0  0  0  0
   10.5370   -2.0550    2.0409 H   0  0  0  0  0  0  0  0  0  0  0  0
    9.8651   -2.9375    0.5863 H   0  0  0  0  0  0  0  0  0  0  0  0
   10.1382   -0.5223    0.0905 H   0  0  0  0  0  0  0  0  0  0  0  0
    9.0933   -0.1567    1.5509 H   0  0  0  0  0  0  0  0  0  0  0  0
    8.1525   -1.8844   -0.8182 H   0  0  0  0  0  0  0  0  0  0  0  0
    7.2481   -1.3383    0.6574 H   0  0  0  0  0  0  0  0  0  0  0  0
    7.3840    1.0159   -0.0875 H   0  0  0  0  0  0  0  0  0  0  0  0
    5.3615   -0.7882    0.2499 H   0  0  0  0  0  0  0  0  0  0  0  0
    4.0173   -0.7047   -2.4048 H   0  0  0  0  0  0  0  0  0  0  0  0
    2.8161   -2.6983   -1.9485 H   0  0  0  0  0  0  0  0  0  0  0  0
    4.5813   -3.0773   -1.6531 H   0  0  0  0  0  0  0  0  0  0  0  0
    3.8153   -5.0433   -0.5171 H   0  0  0  0  0  0  0  0  0  0  0  0
    3.4738   -4.5165    2.4022 H   0  0  0  0  0  0  0  0  0  0  0  0
    3.2383   -6.1485    1.5963 H   0  0  0  0  0  0  0  0  0  0  0  0
    1.2237   -3.8662    1.3577 H   0  0  0  0  0  0  0  0  0  0  0  0
    1.1107   -5.1456    2.5993 H   0  0  0  0  0  0  0  0  0  0  0  0
    1.2304   -6.9153    0.9888 H   0  0  0  0  0  0  0  0  0  0  0  0
    1.5805   -5.8467   -0.3608 H   0  0  0  0  0  0  0  0  0  0  0  0
   -0.8552   -6.6964   -0.1655 H   0  0  0  0  0  0  0  0  0  0  0  0
   -0.9927   -5.8637    1.3822 H   0  0  0  0  0  0  0  0  0  0  0  0
   -0.5066   -3.6506    0.2212 H   0  0  0  0  0  0  0  0  0  0  0  0
   -1.3670   -4.8298   -3.6033 H   0  0  0  0  0  0  0  0  0  0  0  0
   -2.0776   -3.4125   -2.7701 H   0  0  0  0  0  0  0  0  0  0  0  0
   -3.5553   -5.2635   -1.9285 H   0  0  0  0  0  0  0  0  0  0  0  0
   -2.5823   -6.4252   -1.0442 H   0  0  0  0  0  0  0  0  0  0  0  0
   -3.9982   -5.8031   -0.2162 H   0  0  0  0  0  0  0  0  0  0  0  0
   -4.9309   -3.8081    1.0667 H   0  0  0  0  0  0  0  0  0  0  0  0
   -3.2421    0.8259    1.6594 H   0  0  0  0  0  0  0  0  0  0  0  0
   -3.7739    2.0511   -1.0514 H   0  0  0  0  0  0  0  0  0  0  0  0
   -1.3573    2.0590   -2.3883 H   0  0  0  0  0  0  0  0  0  0  0  0
    2.0030    1.0955    1.3827 H   0  0  0  0  0  0  0  0  0  0  0  0
    4.0180    1.4952   -0.6964 H   0  0  0  0  0  0  0  0  0  0  0  0
    4.0795    2.3659    1.5771 H   0  0  0  0  0  0  0  0  0  0  0  0
    3.4547    3.7463    0.7081 H   0  0  0  0  0  0  0  0  0  0  0  0
    4.0739    4.8258    3.0506 H   0  0  0  0  0  0  0  0  0  0  0  0
    2.8650    5.1978    5.2549 H   0  0  0  0  0  0  0  0  0  0  0  0
    0.7625    2.2049    3.2479 H   0  0  0  0  0  0  0  0  0  0  0  0
    0.7093    2.2203   -3.2054 H   0  0  0  0  0  0  0  0  0  0  0  0
    1.1541    0.6645   -2.5402 H   0  0  0  0  0  0  0  0  0  0  0  0
    2.2376    2.0368   -2.2100 H   0  0  0  0  0  0  0  0  0  0  0  0
   -1.3501    4.1113   -0.1797 H   0  0  0  0  0  0  0  0  0  0  0  0
   -2.5745    3.8173   -1.4042 H   0  0  0  0  0  0  0  0  0  0  0  0
   -2.3770    4.3804   -3.6056 H   0  0  0  0  0  0  0  0  0  0  0  0
   -1.4731    5.8606   -5.3399 H   0  0  0  0  0  0  0  0  0  0  0  0
    0.9193    5.2290   -1.0257 H   0  0  0  0  0  0  0  0  0  0  0  0
    2.6473    6.7896   -1.8650 H   0  0  0  0  0  0  0  0  0  0  0  0
    3.5085    8.2676   -3.6685 H   0  0  0  0  0  0  0  0  0  0  0  0
    2.2392    8.5136   -5.7844 H   0  0  0  0  0  0  0  0  0  0  0  0
    0.1735    7.3282   -6.0995 H   0  0  0  0  0  0  0  0  0  0  0  0
   -5.9564    1.4588    0.3067 H   0  0  0  0  0  0  0  0  0  0  0  0
   -5.6978    0.9097    1.9833 H   0  0  0  0  0  0  0  0  0  0  0  0
   -4.3427    2.7235    2.5605 H   0  0  0  0  0  0  0  0  0  0  0  0
   -4.5243    3.4651    0.8597 H   0  0  0  0  0  0  0  0  0  0  0  0
   -6.9814    3.4903    1.2328 H   0  0  0  0  0  0  0  0  0  0  0  0
   -6.1215    4.5336    2.4314 H   0  0  0  0  0  0  0  0  0  0  0  0
   -5.2422    4.2928    5.3247 H   0  0  0  0  0  0  0  0  0  0  0  0
   -6.5396    5.1789    4.3845 H   0  0  0  0  0  0  0  0  0  0  0  0
   -8.2853    1.6787    5.1574 H   0  0  0  0  0  0  0  0  0  0  0  0
   -7.0733    2.2235    6.3398 H   0  0  0  0  0  0  0  0  0  0  0  0
   -5.9676   -1.3677    2.4704 H   0  0  0  0  0  0  0  0  0  0  0  0
   -4.7089   -2.5056    2.9465 H   0  0  0  0  0  0  0  0  0  0  0  0
   -4.3068   -0.7373    2.8521 H   0  0  0  0  0  0  0  0  0  0  0  0
   -5.3959   -4.1814   -1.1733 H   0  0  0  0  0  0  0  0  0  0  0  0
   -4.8833   -2.6407   -1.7963 H   0  0  0  0  0  0  0  0  0  0  0  0
   -6.8715   -0.6282   -1.3678 H   0  0  0  0  0  0  0  0  0  0  0  0
   -9.2809   -0.7771   -0.6339 H   0  0  0  0  0  0  0  0  0  0  0  0
   -6.6673   -5.3750    0.3292 H   0  0  0  0  0  0  0  0  0  0  0  0
   -8.6833   -6.4464    1.2885 H   0  0  0  0  0  0  0  0  0  0  0  0
  -10.7813   -5.1550    1.4053 H   0  0  0  0  0  0  0  0  0  0  0  0
  -10.8885   -2.7813    0.5526 H   0  0  0  0  0  0  0  0  0  0  0  0
    8.9020   -0.0289   -2.4617 H   0  0  0  0  0  0  0  0  0  0  0  0
   11.2403    1.8238   -2.3397 H   0  0  0  0  0  0  0  0  0  0  0  0
   10.3457    3.2862   -2.8729 H   0  0  0  0  0  0  0  0  0  0  0  0
   10.0494    1.6681   -3.6962 H   0  0  0  0  0  0  0  0  0  0  0  0
  1  2  1  0
  2  3  1  0
  3  4  1  0
  4  5  1  0
  5  6  1  0
  6  7  2  0
  6  8  1  0
  8  9  1  0
  9 10  1  0
 10 11  1  0
 11 12  2  0
 11 13  1  0
 13 14  1  0
 14 15  1  0
 15 16  1  0
 16 17  1  0
 17 18  1  0
 18 19  1  0
 19 20  2  0
 19 21  1  0
 18 22  1  0
 22 23  1  0
 22 24  1  0
 24 25  2  0
 24 26  1  0
 26 27  1  0
 27 28  1  0
 28 29  2  0
 28 30  1  0
 30 31  1  0
 31 32  1  0
 32 33  2  0
 32 34  1  0
 34 35  1  0
 35 36  1  0
 36 37  2  0
 36 38  1  0
 38 39  1  0
 39 40  1  0
 40 41  2  0
 38 42  1  0
 42 43  1  0
 43 44  1  0
 44 45  1  0
 45 46  2  0
 46 47  1  0
 35 48  1  0
 34 49  1  0
 49 50  1  0
 50 51  2  0
 51 52  1  0
 52 53  2  0
 53 54  1  0
 54 55  2  0
 54 56  1  0
 56 57  2  0
 57 58  1  0
 58 59  2  0
 30 60  1  0
 60 61  1  0
 61 62  1  0
 62 63  1  0
 63 64  2  3
 64 65  1  0
 64 66  1  0
 27 67  1  0
 26 68  1  0
 68 69  1  0
 69 70  2  0
 70 71  1  0
 71 72  1  0
 72 73  2  0
 73 74  1  0
 74 75  2  0
 75 76  1  0
 76 77  2  0
  5 78  1  0
 78 79  1  0
 79 80  2  0
 79 81  1  0
 40  9  1  0
 47 43  2  0
 55 50  1  0
 73 69  1  0
 59 53  1  0
 77 72  1  0
  1 82  1  0
  1 83  1  0
  1 84  1  0
  2 85  1  0
  2 86  1  0
  3 87  1  0
  3 88  1  0
  4 89  1  0
  4 90  1  0
  5 91  1  1
  8 92  1  0
  9 93  1  6
 10 94  1  0
 10 95  1  0
 13 96  1  0
 14 97  1  0
 14 98  1  0
 15 99  1  0
 15100  1  0
 16101  1  0
 16102  1  0
 17103  1  0
 17104  1  0
 18105  1  1
 21106  1  0
 21107  1  0
 23108  1  0
 23109  1  0
 23110  1  0
 26111  1  1
 30112  1  1
 31113  1  0
 34114  1  6
 38115  1  1
 39116  1  0
 42117  1  0
 42118  1  0
 44119  1  0
 45120  1  0
 47121  1  0
 48122  1  0
 48123  1  0
 48124  1  0
 49125  1  0
 49126  1  0
 51127  1  0
 52128  1  0
 55129  1  0
 56130  1  0
 57131  1  0
 58132  1  0
 59133  1  0
 60134  1  0
 60135  1  0
 61136  1  0
 61137  1  0
 62138  1  0
 62139  1  0
 65140  1  0
 65141  1  0
 66142  1  0
 66143  1  0
 67144  1  0
 67145  1  0
 67146  1  0
 68147  1  0
 68148  1  0
 70149  1  0
 71150  1  0
 74151  1  0
 75152  1  0
 76153  1  0
 77154  1  0
 78155  1  0
 81156  1  0
 81157  1  0
 81158  1  0
M  END
>  <Ligand ID>  (1) 
LIG0001805

>  <Ligand>  (1) 
CHEMBL3600915

>  <SMILES>  (1) 
CCCC[C@H](C(=O)N[C@H]1CC(=O)NCCCC[C@@H](C(=O)N)N(C)C(=O)[C@@H](N(C(=O)[C@@H](NC(=O)[C@H](N(C(=O)[C@@H](NC1=O)Cc1[nH]cnc1)C)Cc1ccc2c(c1)cccc2)CCCN=C(N)N)C)Cc1c[nH]c2c1cccc2)NC(=O)C

>  <CID>  (1) 
122184634.0

>  <ChEMBL ID>  (1) 
nan

>  <InChiKey>  (1) 
ONWSRSOVEDSAJV-PFOQGTFTSA-N

>  <InChi>  (1) 
InChI=1S/C57H77N15O9/c1-6-7-18-42(66-34(2)73)51(76)68-44-30-49(74)62-24-13-12-21-46(50(58)75)70(3)56(81)48(28-38-31-64-41-19-11-10-17-40(38)41)72(5)54(79)43(20-14-25-63-57(59)60)67-53(78)47(27-35-22-23-36-15-8-9-16-37(36)26-35)71(4)55(80)45(69-52(44)77)29-39-32-61-33-65-39/h8-11,15-17,19,22-23,26,31-33,42-48,64H,6-7,12-14,18,20-21,24-25,27-30H2,1-5H3,(H2,58,75)(H,61,65)(H,62,74)(H,66,73)(H,67,78)(H,68,76)(H,69,77)(H4,59,60,63)/t42-,43+,44+,45+,46+,47-,48+/m1/s1

>  <IUPAC Name>  (1) 
(3S,6S,9R,12S,15S,23S)-15-[[(2R)-2-acetamidohexanoyl]amino]-6-[3-(diaminomethylideneamino)propyl]-12-(1H-imidazol-5-ylmethyl)-3-(1H-indol-3-ylmethyl)-1,4,10-trimethyl-9-(naphthalen-2-ylmethyl)-2,5,8,11,14,17-hexaoxo-1,4,7,10,13,18-hexazacyclotricosane-23-carboxamide

$$$$
