
     RDKit          3D

 84 87  0  0  0  0  0  0  0  0999 V2000
    4.6553    1.3514    3.0693 O   0  0  0  0  0  0  0  0  0  0  0  0
    4.0611    0.2146    2.6306 C   0  0  2  0  0  0  0  0  0  0  0  0
    4.7727   -1.0848    2.8691 C   0  0  0  0  0  0  0  0  0  0  0  0
    6.0097   -1.2572    2.3420 O   0  0  0  0  0  0  0  0  0  0  0  0
    7.2444   -0.7494    2.4664 C   0  0  0  0  0  0  0  0  0  0  0  0
    7.6728    0.2333    3.3274 C   0  0  0  0  0  0  0  0  0  0  0  0
    8.9779    0.6920    3.3784 C   0  0  0  0  0  0  0  0  0  0  0  0
    9.8891    0.1300    2.5189 C   0  0  0  0  0  0  0  0  0  0  0  0
    9.5336   -0.8660    1.6213 C   0  0  0  0  0  0  0  0  0  0  0  0
    8.2349   -1.2749    1.6190 C   0  0  0  0  0  0  0  0  0  0  0  0
   10.5478   -1.4180    0.7850 N   0  0  0  0  0  0  0  0  0  0  0  0
   10.6898   -1.1892   -0.8882 S   0  0  0  0  0  0  0  0  0  0  0  0
   10.9943    0.2491   -1.2495 O   0  0  0  0  0  0  0  0  0  0  0  0
   11.9271   -1.9603   -1.3506 O   0  0  0  0  0  0  0  0  0  0  0  0
    9.3483   -1.7618   -1.8590 C   0  0  0  0  0  0  0  0  0  0  0  0
   11.2320    0.5454    2.5138 O   0  0  0  0  0  0  0  0  0  0  0  0
    3.6919    0.2263    1.1492 C   0  0  0  0  0  0  0  0  0  0  0  0
    2.7797    1.2661    0.8141 N   0  0  0  0  0  0  0  0  0  0  0  0
    2.4499    1.2299   -0.5753 C   0  0  0  0  0  0  0  0  0  0  0  0
    1.6390    0.0336   -0.9707 C   0  0  0  0  0  0  0  0  0  0  0  0
    1.3116    0.0515   -2.4378 C   0  0  0  0  0  0  0  0  0  0  0  0
   -0.1518    0.4340   -2.6588 C   0  0  0  0  0  0  0  0  0  0  0  0
   -0.3878    1.5622   -1.7888 N   0  0  0  0  0  0  0  0  0  0  0  0
   -0.5326    1.1035   -0.4380 C   0  0  0  0  0  0  0  0  0  0  0  0
    0.3555   -0.0836   -0.1964 C   0  0  0  0  0  0  0  0  0  0  0  0
   -1.7782    2.4637   -2.3039 S   0  0  0  0  0  0  0  0  0  0  0  0
   -1.5425    2.8073   -3.7682 O   0  0  0  0  0  0  0  0  0  0  0  0
   -1.9209    3.7348   -1.5544 O   0  0  0  0  0  0  0  0  0  0  0  0
   -3.2385    1.5284   -2.2557 C   0  0  0  0  0  0  0  0  0  0  0  0
   -3.7341    0.7768   -3.2887 C   0  0  0  0  0  0  0  0  0  0  0  0
   -4.9084    0.0614   -3.1631 C   0  0  0  0  0  0  0  0  0  0  0  0
   -5.6591    0.0564   -1.9893 C   0  0  0  0  0  0  0  0  0  0  0  0
   -5.1521    0.8130   -0.9610 C   0  0  0  0  0  0  0  0  0  0  0  0
   -3.9664    1.5417   -1.0736 C   0  0  0  0  0  0  0  0  0  0  0  0
   -6.8492   -0.6959   -1.9417 N   0  0  0  0  0  0  0  0  0  0  0  0
   -7.7293   -0.8486   -0.8613 C   0  0  0  0  0  0  0  0  0  0  0  0
   -7.4716   -0.2743    0.2049 O   0  0  0  0  0  0  0  0  0  0  0  0
   -8.8845   -1.6289   -0.9577 N   0  0  0  0  0  0  0  0  0  0  0  0
   -9.8939   -1.9110   -0.0095 C   0  0  0  0  0  0  0  0  0  0  0  0
  -10.7015   -0.8301    0.5330 C   0  0  0  0  0  0  0  0  0  0  0  0
  -11.9005   -0.5476   -0.1515 C   0  0  0  0  0  0  0  0  0  0  0  0
  -12.7318    0.4781    0.2375 C   0  0  0  0  0  0  0  0  0  0  0  0
  -13.8873    0.7374   -0.4342 F   0  0  0  0  0  0  0  0  0  0  0  0
  -12.4358    1.2810    1.3142 C   0  0  0  0  0  0  0  0  0  0  0  0
  -11.2679    1.0238    2.0011 C   0  0  0  0  0  0  0  0  0  0  0  0
  -10.4236   -0.0244    1.6006 C   0  0  0  0  0  0  0  0  0  0  0  0
   -9.3415   -0.2200    2.3611 F   0  0  0  0  0  0  0  0  0  0  0  0
    4.1267    1.8888    3.6914 H   0  0  0  0  0  0  0  0  0  0  0  0
    3.0521    0.1531    3.1570 H   0  0  0  0  0  0  0  0  0  0  0  0
    4.7207   -1.2654    3.9851 H   0  0  0  0  0  0  0  0  0  0  0  0
    4.0568   -1.8883    2.4817 H   0  0  0  0  0  0  0  0  0  0  0  0
    6.9899    0.6758    4.0196 H   0  0  0  0  0  0  0  0  0  0  0  0
    9.2897    1.4780    4.0750 H   0  0  0  0  0  0  0  0  0  0  0  0
    7.9451   -2.0472    0.9382 H   0  0  0  0  0  0  0  0  0  0  0  0
   11.2546   -2.0214    1.3190 H   0  0  0  0  0  0  0  0  0  0  0  0
    8.5174   -2.2238   -1.3251 H   0  0  0  0  0  0  0  0  0  0  0  0
    8.8971   -0.8666   -2.3917 H   0  0  0  0  0  0  0  0  0  0  0  0
    9.6866   -2.4051   -2.7294 H   0  0  0  0  0  0  0  0  0  0  0  0
   11.5282    1.1321    3.2796 H   0  0  0  0  0  0  0  0  0  0  0  0
    3.3154   -0.7770    0.8878 H   0  0  0  0  0  0  0  0  0  0  0  0
    4.6379    0.3674    0.5684 H   0  0  0  0  0  0  0  0  0  0  0  0
    1.9887    1.3822    1.4579 H   0  0  0  0  0  0  0  0  0  0  0  0
    3.4056    1.1859   -1.1511 H   0  0  0  0  0  0  0  0  0  0  0  0
    1.9787    2.1898   -0.8821 H   0  0  0  0  0  0  0  0  0  0  0  0
    2.2460   -0.8725   -0.7910 H   0  0  0  0  0  0  0  0  0  0  0  0
    1.9702    0.7960   -2.9040 H   0  0  0  0  0  0  0  0  0  0  0  0
    1.5129   -0.9476   -2.8649 H   0  0  0  0  0  0  0  0  0  0  0  0
   -0.7708   -0.4190   -2.3630 H   0  0  0  0  0  0  0  0  0  0  0  0
   -0.3351    0.7655   -3.6977 H   0  0  0  0  0  0  0  0  0  0  0  0
   -0.3794    1.9067    0.3161 H   0  0  0  0  0  0  0  0  0  0  0  0
   -1.5896    0.7087   -0.3496 H   0  0  0  0  0  0  0  0  0  0  0  0
   -0.1621   -1.0131   -0.5362 H   0  0  0  0  0  0  0  0  0  0  0  0
    0.5478   -0.2445    0.8935 H   0  0  0  0  0  0  0  0  0  0  0  0
   -3.1619    0.7668   -4.2193 H   0  0  0  0  0  0  0  0  0  0  0  0
   -5.2176   -0.5022   -4.0341 H   0  0  0  0  0  0  0  0  0  0  0  0
   -5.6434    0.8874   -0.0099 H   0  0  0  0  0  0  0  0  0  0  0  0
   -3.6020    2.1321   -0.2243 H   0  0  0  0  0  0  0  0  0  0  0  0
   -7.1067   -1.2086   -2.8368 H   0  0  0  0  0  0  0  0  0  0  0  0
   -9.0295   -2.0942   -1.9293 H   0  0  0  0  0  0  0  0  0  0  0  0
   -9.3645   -2.4131    0.8683 H   0  0  0  0  0  0  0  0  0  0  0  0
  -10.5594   -2.7357   -0.4004 H   0  0  0  0  0  0  0  0  0  0  0  0
  -12.1860   -1.1594   -1.0204 H   0  0  0  0  0  0  0  0  0  0  0  0
  -13.0711    2.0927    1.6400 H   0  0  0  0  0  0  0  0  0  0  0  0
  -11.0167    1.6400    2.8517 H   0  0  0  0  0  0  0  0  0  0  0  0
  1  2  1  0
  2  3  1  0
  3  4  1  0
  4  5  1  0
  5  6  2  0
  6  7  1  0
  7  8  2  0
  8  9  1  0
  9 10  2  0
  9 11  1  0
 11 12  1  0
 12 13  2  0
 12 14  2  0
 12 15  1  0
  8 16  1  0
  2 17  1  0
 17 18  1  0
 18 19  1  0
 19 20  1  0
 20 21  1  0
 21 22  1  0
 22 23  1  0
 23 24  1  0
 24 25  1  0
 23 26  1  0
 26 27  2  0
 26 28  2  0
 26 29  1  0
 29 30  2  0
 30 31  1  0
 31 32  2  0
 32 33  1  0
 33 34  2  0
 32 35  1  0
 35 36  1  0
 36 37  2  0
 36 38  1  0
 38 39  1  0
 39 40  1  0
 40 41  2  0
 41 42  1  0
 42 43  1  0
 42 44  2  0
 44 45  1  0
 45 46  2  0
 46 47  1  0
 10  5  1  0
 25 20  1  0
 34 29  1  0
 46 40  1  0
  1 48  1  0
  2 49  1  1
  3 50  1  0
  3 51  1  0
  6 52  1  0
  7 53  1  0
 10 54  1  0
 11 55  1  0
 15 56  1  0
 15 57  1  0
 15 58  1  0
 16 59  1  0
 17 60  1  0
 17 61  1  0
 18 62  1  0
 19 63  1  0
 19 64  1  0
 20 65  1  0
 21 66  1  0
 21 67  1  0
 22 68  1  0
 22 69  1  0
 24 70  1  0
 24 71  1  0
 25 72  1  0
 25 73  1  0
 30 74  1  0
 31 75  1  0
 33 76  1  0
 34 77  1  0
 35 78  1  0
 38 79  1  0
 39 80  1  0
 39 81  1  0
 41 82  1  0
 44 83  1  0
 45 84  1  0
M  END
>  <Ligand ID>  (1) 
LIG0004950

>  <Ligand>  (1) 
CHEMBL431048

>  <SMILES>  (1) 
O[C@H](COc1ccc(c(c1)NS(=O)(=O)C)O)CNCC1CCN(CC1)S(=O)(=O)c1ccc(cc1)NC(=O)NCc1cc(F)ccc1F

>  <CID>  (1) 
10283539.0

>  <ChEMBL ID>  (1) 
nan

>  <InChiKey>  (1) 
BHZXRWNFNZHPOG-DEOSSOPVSA-N

>  <InChi>  (1) 
InChI=1S/C30H37F2N5O8S2/c1-46(41,42)36-28-15-25(5-9-29(28)39)45-19-24(38)18-33-16-20-10-12-37(13-11-20)47(43,44)26-6-3-23(4-7-26)35-30(40)34-17-21-14-22(31)2-8-27(21)32/h2-9,14-15,20,24,33,36,38-39H,10-13,16-19H2,1H3,(H2,34,35,40)/t24-/m0/s1

>  <IUPAC Name>  (1) 
1-[(2,5-difluorophenyl)methyl]-3-[4-[4-[[[(2S)-2-hydroxy-3-[4-hydroxy-3-(methanesulfonamido)phenoxy]propyl]amino]methyl]piperidin-1-yl]sulfonylphenyl]urea

$$$$
