
     RDKit          3D

 63 65  0  0  0  0  0  0  0  0999 V2000
   -7.1716   -2.1411   -1.7507 C   0  0  0  0  0  0  0  0  0  0  0  0
   -7.0393   -0.8331   -1.0017 C   0  0  0  0  0  0  0  0  0  0  0  0
   -8.0621   -0.0006   -0.9931 C   0  0  0  0  0  0  0  0  0  0  0  0
   -5.7497   -0.5952   -0.3323 C   0  0  0  0  0  0  0  0  0  0  0  0
   -5.6326    0.6415    0.3668 N   0  0  0  0  0  0  0  0  0  0  0  0
   -4.3930    0.9127    1.0415 C   0  0  0  0  0  0  0  0  0  0  0  0
   -4.1833    2.0868    1.7426 C   0  0  0  0  0  0  0  0  0  0  0  0
   -3.0060    2.3721    2.4003 C   0  0  0  0  0  0  0  0  0  0  0  0
   -1.9637    1.4440    2.3689 C   0  0  0  0  0  0  0  0  0  0  0  0
   -2.1399    0.2653    1.6799 C   0  0  0  0  0  0  0  0  0  0  0  0
   -3.3424    0.0006    1.0220 C   0  0  0  0  0  0  0  0  0  0  0  0
   -1.0917   -0.7902    1.5881 C   0  0  2  0  0  0  0  0  0  0  0  0
   -0.5504   -0.7897    0.1668 C   0  0  0  0  0  0  0  0  0  0  0  0
    0.1070    0.4737   -0.0272 N   0  0  0  0  0  0  0  0  0  0  0  0
    0.6682    0.6049   -1.3375 C   0  0  1  0  0  0  0  0  0  0  0  0
    1.6970   -0.4544   -1.6546 C   0  0  0  0  0  0  0  0  0  0  0  0
    2.8044   -0.3572   -0.6734 C   0  0  0  0  0  0  0  0  0  0  0  0
    2.9595   -1.2460    0.3770 C   0  0  0  0  0  0  0  0  0  0  0  0
    4.0648   -0.8868    1.0910 N   0  0  0  0  0  0  0  0  0  0  0  0
    4.5863    0.1974    0.5026 C   0  0  0  0  0  0  0  0  0  0  0  0
    3.8286    0.5613   -0.6041 C   0  0  0  0  0  0  0  0  0  0  0  0
    4.1519    1.6485   -1.3887 C   0  0  0  0  0  0  0  0  0  0  0  0
    5.2714    2.3692   -1.0265 C   0  0  0  0  0  0  0  0  0  0  0  0
    6.0498    2.0258    0.0797 C   0  0  0  0  0  0  0  0  0  0  0  0
    5.6996    0.9211    0.8558 C   0  0  0  0  0  0  0  0  0  0  0  0
    6.4608    0.5743    1.9488 O   0  0  0  0  0  0  0  0  0  0  0  0
    7.7533   -0.5079    1.7194 S   0  0  0  0  0  0  0  0  0  0  0  0
    7.9742   -1.3671    2.9322 O   0  0  0  0  0  0  0  0  0  0  0  0
    9.0188    0.2583    1.4269 O   0  0  0  0  0  0  0  0  0  0  0  0
    7.3411   -1.5676    0.3464 C   0  0  0  0  0  0  0  0  0  0  0  0
   -0.4291    0.6558   -2.3630 C   0  0  0  0  0  0  0  0  0  0  0  0
   -1.7426   -2.0160    1.8171 O   0  0  0  0  0  0  0  0  0  0  0  0
   -8.2338   -2.3622   -1.9779 H   0  0  0  0  0  0  0  0  0  0  0  0
   -6.6959   -2.9042   -1.1018 H   0  0  0  0  0  0  0  0  0  0  0  0
   -6.5307   -2.0437   -2.6564 H   0  0  0  0  0  0  0  0  0  0  0  0
   -8.0960    0.9537   -0.5019 H   0  0  0  0  0  0  0  0  0  0  0  0
   -8.9864   -0.2781   -1.5312 H   0  0  0  0  0  0  0  0  0  0  0  0
   -5.6260   -1.4084    0.4408 H   0  0  0  0  0  0  0  0  0  0  0  0
   -4.8884   -0.6629   -1.0442 H   0  0  0  0  0  0  0  0  0  0  0  0
   -6.3621    1.3820    0.4419 H   0  0  0  0  0  0  0  0  0  0  0  0
   -5.0078    2.8119    1.7629 H   0  0  0  0  0  0  0  0  0  0  0  0
   -2.8960    3.3209    2.9408 H   0  0  0  0  0  0  0  0  0  0  0  0
   -1.0281    1.6309    2.8708 H   0  0  0  0  0  0  0  0  0  0  0  0
   -3.5034   -0.9224    0.4727 H   0  0  0  0  0  0  0  0  0  0  0  0
   -0.2965   -0.7004    2.3283 H   0  0  0  0  0  0  0  0  0  0  0  0
   -1.3752   -0.8576   -0.5697 H   0  0  0  0  0  0  0  0  0  0  0  0
    0.0826   -1.6763    0.0024 H   0  0  0  0  0  0  0  0  0  0  0  0
    0.7588    0.7199    0.7513 H   0  0  0  0  0  0  0  0  0  0  0  0
    1.2173    1.5892   -1.3455 H   0  0  0  0  0  0  0  0  0  0  0  0
    2.0885   -0.2391   -2.6701 H   0  0  0  0  0  0  0  0  0  0  0  0
    1.2652   -1.4660   -1.6746 H   0  0  0  0  0  0  0  0  0  0  0  0
    2.3548   -2.1009    0.6521 H   0  0  0  0  0  0  0  0  0  0  0  0
    4.4184   -1.3823    1.9373 H   0  0  0  0  0  0  0  0  0  0  0  0
    3.5336    1.8925   -2.2386 H   0  0  0  0  0  0  0  0  0  0  0  0
    5.5511    3.2403   -1.6351 H   0  0  0  0  0  0  0  0  0  0  0  0
    6.9315    2.6254    0.3330 H   0  0  0  0  0  0  0  0  0  0  0  0
    8.2307   -1.9780   -0.1598 H   0  0  0  0  0  0  0  0  0  0  0  0
    6.7197   -2.3898    0.7516 H   0  0  0  0  0  0  0  0  0  0  0  0
    6.6961   -0.9800   -0.3342 H   0  0  0  0  0  0  0  0  0  0  0  0
   -0.3469   -0.1532   -3.1160 H   0  0  0  0  0  0  0  0  0  0  0  0
   -0.3625    1.6161   -2.9538 H   0  0  0  0  0  0  0  0  0  0  0  0
   -1.4384    0.6733   -1.9162 H   0  0  0  0  0  0  0  0  0  0  0  0
   -2.1137   -2.4113    1.0021 H   0  0  0  0  0  0  0  0  0  0  0  0
  1  2  1  0
  2  3  2  0
  2  4  1  0
  4  5  1  0
  5  6  1  0
  6  7  2  0
  7  8  1  0
  8  9  2  0
  9 10  1  0
 10 11  2  0
 10 12  1  0
 12 13  1  0
 13 14  1  0
 14 15  1  0
 15 16  1  0
 16 17  1  0
 17 18  2  0
 18 19  1  0
 19 20  1  0
 20 21  2  0
 21 22  1  0
 22 23  2  0
 23 24  1  0
 24 25  2  0
 25 26  1  0
 26 27  1  0
 27 28  2  0
 27 29  2  0
 27 30  1  0
 15 31  1  0
 12 32  1  0
 11  6  1  0
 21 17  1  0
 25 20  1  0
  1 33  1  0
  1 34  1  0
  1 35  1  0
  3 36  1  0
  3 37  1  0
  4 38  1  0
  4 39  1  0
  5 40  1  0
  7 41  1  0
  8 42  1  0
  9 43  1  0
 11 44  1  0
 12 45  1  1
 13 46  1  0
 13 47  1  0
 14 48  1  0
 15 49  1  1
 16 50  1  0
 16 51  1  0
 18 52  1  0
 19 53  1  0
 22 54  1  0
 23 55  1  0
 24 56  1  0
 30 57  1  0
 30 58  1  0
 30 59  1  0
 31 60  1  0
 31 61  1  0
 31 62  1  0
 32 63  1  0
M  END
>  <Ligand ID>  (1) 
LIG0005470

>  <Ligand>  (1) 
CHEMBL181964

>  <SMILES>  (1) 
CC(=C)CNc1cccc(c1)[C@H](CN[C@@H](Cc1c[nH]c2c1cccc2OS(=O)(=O)C)C)O

>  <CID>  (1) 
44392566.0

>  <ChEMBL ID>  (1) 
nan

>  <InChiKey>  (1) 
INFZTYRVSAODLT-VGSWGCGISA-N

>  <InChi>  (1) 
InChI=1S/C24H31N3O4S/c1-16(2)13-26-20-8-5-7-18(12-20)22(28)15-25-17(3)11-19-14-27-24-21(19)9-6-10-23(24)31-32(4,29)30/h5-10,12,14,17,22,25-28H,1,11,13,15H2,2-4H3/t17-,22+/m1/s1

>  <IUPAC Name>  (1) 
[3-[(2R)-2-[[(2R)-2-hydroxy-2-[3-(2-methylprop-2-enylamino)phenyl]ethyl]amino]propyl]-1H-indol-7-yl] methanesulfonate

$$$$
