
     RDKit          3D

 23 22  0  0  0  0  0  0  0  0999 V2000
   -2.2648   -0.7296    1.2003 C   0  0  0  0  0  0  0  0  0  0  0  0
   -1.7094   -0.4573   -0.1799 C   0  0  0  0  0  0  0  0  0  0  0  0
   -0.3293    0.1722   -0.1462 C   0  0  0  0  0  0  0  0  0  0  0  0
    0.6404   -0.7249    0.5490 C   0  0  0  0  0  0  0  0  0  0  0  0
    1.9191   -0.1204    0.5739 O   0  0  0  0  0  0  0  0  0  0  0  0
    2.6016    0.2004   -0.5781 C   0  0  0  0  0  0  0  0  0  0  0  0
    2.1789   -0.0028   -1.7424 O   0  0  0  0  0  0  0  0  0  0  0  0
    3.9502    0.8401   -0.4415 C   0  0  0  0  0  0  0  0  0  0  0  0
   -2.6902    0.4707   -0.8341 C   0  0  0  0  0  0  0  0  0  0  0  0
   -1.6793   -1.4053    1.8146 H   0  0  0  0  0  0  0  0  0  0  0  0
   -3.3167   -1.0443    1.0492 H   0  0  0  0  0  0  0  0  0  0  0  0
   -2.3355    0.2627    1.7173 H   0  0  0  0  0  0  0  0  0  0  0  0
   -1.6246   -1.3848   -0.7826 H   0  0  0  0  0  0  0  0  0  0  0  0
   -0.3652    1.1685    0.3034 H   0  0  0  0  0  0  0  0  0  0  0  0
   -0.0485    0.3161   -1.2043 H   0  0  0  0  0  0  0  0  0  0  0  0
    0.8006   -1.6635   -0.0643 H   0  0  0  0  0  0  0  0  0  0  0  0
    0.3138   -1.0816    1.5234 H   0  0  0  0  0  0  0  0  0  0  0  0
    3.8804    1.6412    0.3203 H   0  0  0  0  0  0  0  0  0  0  0  0
    4.6364    0.0488   -0.0880 H   0  0  0  0  0  0  0  0  0  0  0  0
    4.2983    1.2734   -1.4014 H   0  0  0  0  0  0  0  0  0  0  0  0
   -3.7004    0.0488   -0.6813 H   0  0  0  0  0  0  0  0  0  0  0  0
   -2.7015    1.4504   -0.2727 H   0  0  0  0  0  0  0  0  0  0  0  0
   -2.4541    0.7211   -1.8800 H   0  0  0  0  0  0  0  0  0  0  0  0
  1  2  1  0
  2  3  1  0
  3  4  1  0
  4  5  1  0
  5  6  1  0
  6  7  2  0
  6  8  1  0
  2  9  1  0
  1 10  1  0
  1 11  1  0
  1 12  1  0
  2 13  1  0
  3 14  1  0
  3 15  1  0
  4 16  1  0
  4 17  1  0
  8 18  1  0
  8 19  1  0
  8 20  1  0
  9 21  1  0
  9 22  1  0
  9 23  1  0
M  END
>  <Ligand ID>  (1) 
LIG0000227

>  <Ligand>  (1) 
Isoamyl acetate

>  <SMILES>  (1) 
CC(CCOC(=O)C)C

>  <CID>  (1) 
31276.0

>  <ChEMBL ID>  (1) 
nan

>  <InChiKey>  (1) 
MLFHJEHSLIIPHL-UHFFFAOYSA-N

>  <InChi>  (1) 
InChI=1S/C7H14O2/c1-6(2)4-5-9-7(3)8/h6H,4-5H2,1-3H3

>  <IUPAC Name>  (1) 
3-methylbutyl acetate

$$$$
