
     RDKit          3D

 47 49  0  0  0  0  0  0  0  0999 V2000
   -7.8046    0.4537   -1.2328 C   0  0  0  0  0  0  0  0  0  0  0  0
   -6.5458    0.4009   -1.9227 O   0  0  0  0  0  0  0  0  0  0  0  0
   -5.3598    0.4182   -1.2004 C   0  0  0  0  0  0  0  0  0  0  0  0
   -4.1625    0.3651   -1.9068 C   0  0  0  0  0  0  0  0  0  0  0  0
   -2.9330    0.3770   -1.2797 C   0  0  0  0  0  0  0  0  0  0  0  0
   -2.8849    0.4449    0.1153 C   0  0  0  0  0  0  0  0  0  0  0  0
   -4.0829    0.4977    0.8125 C   0  0  0  0  0  0  0  0  0  0  0  0
   -5.3094    0.4853    0.1769 C   0  0  0  0  0  0  0  0  0  0  0  0
   -1.5896    0.4542    0.8003 C   0  0  0  0  0  0  0  0  0  0  0  0
   -0.9014    1.6170    1.0836 C   0  0  0  0  0  0  0  0  0  0  0  0
   -1.4755    2.8734    0.6898 C   0  0  0  0  0  0  0  0  0  0  0  0
   -1.9344    3.8948    0.3609 N   0  0  0  0  0  0  0  0  0  0  0  0
    0.3253    1.5423    1.7408 C   0  0  0  0  0  0  0  0  0  0  0  0
    0.8442    0.3415    2.1018 N   0  0  0  0  0  0  0  0  0  0  0  0
    0.1997   -0.8105    1.8411 C   0  0  0  0  0  0  0  0  0  0  0  0
   -1.0212   -0.7425    1.1874 C   0  0  0  0  0  0  0  0  0  0  0  0
   -1.7365   -1.9599    0.8930 C   0  0  0  0  0  0  0  0  0  0  0  0
   -2.3186   -2.9285    0.6409 N   0  0  0  0  0  0  0  0  0  0  0  0
    0.8400   -2.4099    2.3008 S   0  0  0  0  0  0  0  0  0  0  0  0
    1.8815   -3.1154    1.0031 C   0  0  0  0  0  0  0  0  0  0  0  0
    3.0938   -2.2693    0.8803 C   0  0  0  0  0  0  0  0  0  0  0  0
    4.1702   -2.6068    1.6774 C   0  0  0  0  0  0  0  0  0  0  0  0
    5.3442   -1.8953    1.6471 C   0  0  0  0  0  0  0  0  0  0  0  0
    5.4428   -0.8434    0.8179 N   0  0  0  0  0  0  0  0  0  0  0  0
    4.4082   -0.4869    0.0248 C   0  0  0  0  0  0  0  0  0  0  0  0
    3.2141   -1.1998    0.0465 C   0  0  0  0  0  0  0  0  0  0  0  0
    4.5074    0.6522   -0.8788 C   0  0  0  0  0  0  0  0  0  0  0  0
    3.5452    1.0001   -1.6309 O   0  0  0  0  0  0  0  0  0  0  0  0
    5.7327    1.3982   -0.9136 N   0  0  0  0  0  0  0  0  0  0  0  0
    5.9312    2.5298   -1.7623 C   0  0  0  0  0  0  0  0  0  0  0  0
   -7.8009   -0.3588   -0.4827 H   0  0  0  0  0  0  0  0  0  0  0  0
   -7.8678    1.4084   -0.6709 H   0  0  0  0  0  0  0  0  0  0  0  0
   -8.6354    0.4216   -1.9364 H   0  0  0  0  0  0  0  0  0  0  0  0
   -4.2061    0.3129   -2.9852 H   0  0  0  0  0  0  0  0  0  0  0  0
   -2.0203    0.3338   -1.8566 H   0  0  0  0  0  0  0  0  0  0  0  0
   -4.0775    0.5508    1.8946 H   0  0  0  0  0  0  0  0  0  0  0  0
   -6.2536    0.5252    0.6945 H   0  0  0  0  0  0  0  0  0  0  0  0
    0.8441    2.4617    1.9504 H   0  0  0  0  0  0  0  0  0  0  0  0
    2.1514   -4.1537    1.1937 H   0  0  0  0  0  0  0  0  0  0  0  0
    1.3559   -3.0223    0.0095 H   0  0  0  0  0  0  0  0  0  0  0  0
    4.1305   -3.4500    2.3619 H   0  0  0  0  0  0  0  0  0  0  0  0
    6.1937   -2.1500    2.2670 H   0  0  0  0  0  0  0  0  0  0  0  0
    2.3661   -0.9443   -0.5735 H   0  0  0  0  0  0  0  0  0  0  0  0
    6.5133    1.0778   -0.2721 H   0  0  0  0  0  0  0  0  0  0  0  0
    6.7548    3.1459   -1.3636 H   0  0  0  0  0  0  0  0  0  0  0  0
    5.0147    3.1621   -1.8043 H   0  0  0  0  0  0  0  0  0  0  0  0
    6.1169    2.2007   -2.8202 H   0  0  0  0  0  0  0  0  0  0  0  0
  1  2  1  0
  2  3  1  0
  3  4  2  0
  4  5  1  0
  5  6  2  0
  6  7  1  0
  7  8  2  0
  6  9  1  0
  9 10  2  0
 10 11  1  0
 11 12  3  0
 10 13  1  0
 13 14  2  0
 14 15  1  0
 15 16  2  0
 16 17  1  0
 17 18  3  0
 15 19  1  0
 19 20  1  0
 20 21  1  0
 21 22  2  0
 22 23  1  0
 23 24  2  0
 24 25  1  0
 25 26  2  0
 25 27  1  0
 27 28  2  0
 27 29  1  0
 29 30  1  0
  8  3  1  0
 16  9  1  0
 26 21  1  0
  1 31  1  0
  1 32  1  0
  1 33  1  0
  4 34  1  0
  5 35  1  0
  7 36  1  0
  8 37  1  0
 13 38  1  0
 20 39  1  0
 20 40  1  0
 22 41  1  0
 23 42  1  0
 26 43  1  0
 29 44  1  0
 30 45  1  0
 30 46  1  0
 30 47  1  0
M  END
>  <Ligand ID>  (1) 
LIG0004677

>  <Ligand>  (1) 
SCHEMBL3368342

>  <SMILES>  (1) 
COc1ccc(cc1)c1c(C#N)cnc(c1C#N)SCc1ccnc(c1)C(=O)NC

>  <CID>  (1) 
68615584.0

>  <ChEMBL ID>  (1) 
nan

>  <InChiKey>  (1) 
LYEJXPMWXNERKG-UHFFFAOYSA-N

>  <InChi>  (1) 
InChI=1S/C22H17N5O2S/c1-25-21(28)19-9-14(7-8-26-19)13-30-22-18(11-24)20(16(10-23)12-27-22)15-3-5-17(29-2)6-4-15/h3-9,12H,13H2,1-2H3,(H,25,28)

>  <IUPAC Name>  (1) 
4-[[3,5-dicyano-4-(4-methoxyphenyl)pyridin-2-yl]sulfanylmethyl]-N-methylpyridine-2-carboxamide

$$$$
