
     RDKit          3D

 62 63  0  0  0  0  0  0  0  0999 V2000
    0.7272   -1.4343    1.6428 O   0  0  0  0  0  0  0  0  0  0  0  0
    0.9633   -0.5939    0.7400 C   0  0  0  0  0  0  0  0  0  0  0  0
    2.4121   -0.2441    0.5423 C   0  0  1  0  0  0  0  0  0  0  0  0
    3.2607   -1.4664    0.3461 C   0  0  0  0  0  0  0  0  0  0  0  0
    4.6828   -1.0864    0.1541 C   0  0  0  0  0  0  0  0  0  0  0  0
    5.4844   -0.9891    1.2836 C   0  0  0  0  0  0  0  0  0  0  0  0
    6.8102   -0.6410    1.1696 C   0  0  0  0  0  0  0  0  0  0  0  0
    7.3609   -0.3836   -0.0715 C   0  0  0  0  0  0  0  0  0  0  0  0
    6.5760   -0.4758   -1.2095 C   0  0  0  0  0  0  0  0  0  0  0  0
    5.2376   -0.8288   -1.0779 C   0  0  0  0  0  0  0  0  0  0  0  0
    8.6874   -0.0381   -0.1550 F   0  0  0  0  0  0  0  0  0  0  0  0
    2.6196    0.7162   -0.4975 N   0  0  0  0  0  0  0  0  0  0  0  0
   -0.0354    0.0131   -0.0661 N   0  0  0  0  0  0  0  0  0  0  0  0
   -1.4522   -0.2661    0.0529 C   0  0  1  0  0  0  0  0  0  0  0  0
   -2.2203    0.7919    0.7625 C   0  0  0  0  0  0  0  0  0  0  0  0
   -2.2813    2.1576    0.2753 C   0  0  0  0  0  0  0  0  0  0  0  0
   -1.0368    2.9492    0.1280 C   0  0  0  0  0  0  0  0  0  0  0  0
   -1.4370    4.4193    0.2111 C   0  0  0  0  0  0  0  0  0  0  0  0
   -2.8917    4.6381    0.0042 C   0  0  0  0  0  0  0  0  0  0  0  0
   -3.5541    3.7941   -1.0293 C   0  0  0  0  0  0  0  0  0  0  0  0
   -3.0655    2.3617   -1.0097 C   0  0  0  0  0  0  0  0  0  0  0  0
   -2.0690   -0.7567   -1.2088 C   0  0  0  0  0  0  0  0  0  0  0  0
   -1.4036   -2.0383   -1.6396 C   0  0  0  0  0  0  0  0  0  0  0  0
   -1.5155   -3.1673   -0.6739 C   0  0  0  0  0  0  0  0  0  0  0  0
   -2.8963   -3.5278   -0.4158 N   0  0  0  0  0  0  0  0  0  0  0  0
   -3.2383   -3.8182    0.8045 C   0  0  0  0  0  0  0  0  0  0  0  0
   -4.6136   -4.1656    0.9943 N   0  0  0  0  0  0  0  0  0  0  0  0
   -2.3034   -3.7913    1.8780 N   0  0  0  0  0  0  0  0  0  0  0  0
    2.7210    0.2121    1.5105 H   0  0  0  0  0  0  0  0  0  0  0  0
    2.9203   -1.9546   -0.5893 H   0  0  0  0  0  0  0  0  0  0  0  0
    3.2046   -2.1368    1.2214 H   0  0  0  0  0  0  0  0  0  0  0  0
    5.1098   -1.1782    2.2766 H   0  0  0  0  0  0  0  0  0  0  0  0
    7.4343   -0.5662    2.0595 H   0  0  0  0  0  0  0  0  0  0  0  0
    7.0376   -0.2689   -2.1560 H   0  0  0  0  0  0  0  0  0  0  0  0
    4.6103   -0.9064   -1.9456 H   0  0  0  0  0  0  0  0  0  0  0  0
    2.2468    0.4051   -1.4141 H   0  0  0  0  0  0  0  0  0  0  0  0
    2.3254    1.6567   -0.2006 H   0  0  0  0  0  0  0  0  0  0  0  0
    0.3274    0.7033   -0.7871 H   0  0  0  0  0  0  0  0  0  0  0  0
   -1.5107   -1.1401    0.7733 H   0  0  0  0  0  0  0  0  0  0  0  0
   -3.2545    0.4177    0.8964 H   0  0  0  0  0  0  0  0  0  0  0  0
   -1.8115    0.8225    1.8162 H   0  0  0  0  0  0  0  0  0  0  0  0
   -2.8965    2.7128    1.0540 H   0  0  0  0  0  0  0  0  0  0  0  0
   -0.2489    2.7502    0.8547 H   0  0  0  0  0  0  0  0  0  0  0  0
   -0.6967    2.8382   -0.9454 H   0  0  0  0  0  0  0  0  0  0  0  0
   -0.8615    5.0397   -0.4894 H   0  0  0  0  0  0  0  0  0  0  0  0
   -1.1937    4.7963    1.2409 H   0  0  0  0  0  0  0  0  0  0  0  0
   -3.4720    4.6611    0.9739 H   0  0  0  0  0  0  0  0  0  0  0  0
   -3.0053    5.7033   -0.3619 H   0  0  0  0  0  0  0  0  0  0  0  0
   -4.6654    3.7948   -0.8545 H   0  0  0  0  0  0  0  0  0  0  0  0
   -3.4367    4.2495   -2.0411 H   0  0  0  0  0  0  0  0  0  0  0  0
   -3.8996    1.6359   -1.0799 H   0  0  0  0  0  0  0  0  0  0  0  0
   -2.3637    2.2881   -1.8667 H   0  0  0  0  0  0  0  0  0  0  0  0
   -3.1292   -0.9922   -0.9905 H   0  0  0  0  0  0  0  0  0  0  0  0
   -1.9599   -0.0685   -2.0691 H   0  0  0  0  0  0  0  0  0  0  0  0
   -0.3325   -1.8683   -1.8742 H   0  0  0  0  0  0  0  0  0  0  0  0
   -1.8318   -2.4199   -2.6104 H   0  0  0  0  0  0  0  0  0  0  0  0
   -0.9235   -3.0810    0.2475 H   0  0  0  0  0  0  0  0  0  0  0  0
   -1.0857   -4.0714   -1.1982 H   0  0  0  0  0  0  0  0  0  0  0  0
   -4.9748   -4.9734    0.4317 H   0  0  0  0  0  0  0  0  0  0  0  0
   -5.2477   -3.6706    1.6418 H   0  0  0  0  0  0  0  0  0  0  0  0
   -2.2395   -2.9036    2.4294 H   0  0  0  0  0  0  0  0  0  0  0  0
   -1.7045   -4.6154    2.1116 H   0  0  0  0  0  0  0  0  0  0  0  0
  1  2  2  0
  2  3  1  0
  3  4  1  0
  4  5  1  0
  5  6  2  0
  6  7  1  0
  7  8  2  0
  8  9  1  0
  9 10  2  0
  8 11  1  0
  3 12  1  0
  2 13  1  0
 13 14  1  0
 14 15  1  0
 15 16  1  0
 16 17  1  0
 17 18  1  0
 18 19  1  0
 19 20  1  0
 20 21  1  0
 14 22  1  0
 22 23  1  0
 23 24  1  0
 24 25  1  0
 25 26  2  3
 26 27  1  0
 26 28  1  0
 10  5  1  0
 21 16  1  0
  3 29  1  1
  4 30  1  0
  4 31  1  0
  6 32  1  0
  7 33  1  0
  9 34  1  0
 10 35  1  0
 12 36  1  0
 12 37  1  0
 13 38  1  0
 14 39  1  1
 15 40  1  0
 15 41  1  0
 16 42  1  0
 17 43  1  0
 17 44  1  0
 18 45  1  0
 18 46  1  0
 19 47  1  0
 19 48  1  0
 20 49  1  0
 20 50  1  0
 21 51  1  0
 21 52  1  0
 22 53  1  0
 22 54  1  0
 23 55  1  0
 23 56  1  0
 24 57  1  0
 24 58  1  0
 27 59  1  0
 27 60  1  0
 28 61  1  0
 28 62  1  0
M  END
>  <Ligand ID>  (1) 
LIG0003050

>  <Ligand>  (1) 
CHEMBL257040

>  <SMILES>  (1) 
O=C([C@@H](Cc1ccc(cc1)F)N)N[C@@H](CC1CCCCC1)CCCN=C(N)N

>  <CID>  (1) 
44453902.0

>  <ChEMBL ID>  (1) 
nan

>  <InChiKey>  (1) 
TYNNJUAZOXULKB-RTBURBONSA-N

>  <InChi>  (1) 
InChI=1S/C21H34FN5O/c22-17-10-8-16(9-11-17)14-19(23)20(28)27-18(7-4-12-26-21(24)25)13-15-5-2-1-3-6-15/h8-11,15,18-19H,1-7,12-14,23H2,(H,27,28)(H4,24,25,26)/t18-,19-/m1/s1

>  <IUPAC Name>  (1) 
(2R)-2-amino-N-[(2R)-1-cyclohexyl-5-(diaminomethylideneamino)pentan-2-yl]-3-(4-fluorophenyl)propanamide

$$$$
