
     RDKit          3D

 27 29  0  0  0  0  0  0  0  0999 V2000
   -2.6643   -3.1723   -0.5883 N   0  0  0  0  0  0  0  0  0  0  0  0
   -2.5063   -2.0581   -0.2559 C   0  0  0  0  0  0  0  0  0  0  0  0
   -2.2916   -0.6827    0.1573 C   0  0  0  0  0  0  0  0  0  0  0  0
   -3.3751    0.1977    0.2622 C   0  0  0  0  0  0  0  0  0  0  0  0
   -3.1437    1.5043    0.6584 C   0  0  0  0  0  0  0  0  0  0  0  0
   -1.8594    1.9540    0.9522 C   0  0  0  0  0  0  0  0  0  0  0  0
   -0.7832    1.0846    0.8495 C   0  0  0  0  0  0  0  0  0  0  0  0
   -1.0144   -0.2255    0.4524 C   0  0  0  0  0  0  0  0  0  0  0  0
    0.1582   -1.1251    0.3539 C   0  0  0  0  0  0  0  0  0  0  0  0
    0.8156   -1.1305   -0.9981 C   0  0  0  0  0  0  0  0  0  0  0  0
    1.9322   -0.2149   -0.8849 N   0  0  0  0  0  0  0  0  0  0  0  0
    2.2179    0.0265    0.4142 C   0  0  0  0  0  0  0  0  0  0  0  0
    1.2809   -0.7363    1.2815 C   0  0  0  0  0  0  0  0  0  0  0  0
    3.2560    0.8778    0.5166 N   0  0  0  0  0  0  0  0  0  0  0  0
    3.6499    1.1934   -0.7270 C   0  0  0  0  0  0  0  0  0  0  0  0
    2.8191    0.5077   -1.5945 C   0  0  0  0  0  0  0  0  0  0  0  0
   -4.3797   -0.1314    0.0387 H   0  0  0  0  0  0  0  0  0  0  0  0
   -3.9412    2.2391    0.7598 H   0  0  0  0  0  0  0  0  0  0  0  0
   -1.6697    2.9850    1.2658 H   0  0  0  0  0  0  0  0  0  0  0  0
    0.1991    1.4557    1.0819 H   0  0  0  0  0  0  0  0  0  0  0  0
   -0.1636   -2.1864    0.5612 H   0  0  0  0  0  0  0  0  0  0  0  0
    1.2337   -2.1343   -1.2075 H   0  0  0  0  0  0  0  0  0  0  0  0
    0.1114   -0.8024   -1.8121 H   0  0  0  0  0  0  0  0  0  0  0  0
    1.8244   -1.6685    1.5496 H   0  0  0  0  0  0  0  0  0  0  0  0
    0.9533   -0.1649    2.1715 H   0  0  0  0  0  0  0  0  0  0  0  0
    4.4786    1.8711   -0.9796 H   0  0  0  0  0  0  0  0  0  0  0  0
    2.8618    0.5364   -2.6950 H   0  0  0  0  0  0  0  0  0  0  0  0
  1  2  3  0
  2  3  1  0
  3  4  2  0
  4  5  1  0
  5  6  2  0
  6  7  1  0
  7  8  2  0
  8  9  1  0
  9 10  1  0
 10 11  1  0
 11 12  1  0
 12 13  1  0
 12 14  2  0
 14 15  1  0
 15 16  2  0
  8  3  1  0
 13  9  1  0
 16 11  1  0
  4 17  1  0
  5 18  1  0
  6 19  1  0
  7 20  1  0
  9 21  1  0
 10 22  1  0
 10 23  1  0
 13 24  1  0
 13 25  1  0
 15 26  1  0
 16 27  1  0
M  END
>  <Ligand ID>  (1) 
LIG0002872

>  <Ligand>  (1) 
CHEMBL467916

>  <SMILES>  (1) 
N#Cc1ccccc1C1Cn2c(C1)ncc2

>  <CID>  (1) 
44219719.0

>  <ChEMBL ID>  (1) 
nan

>  <InChiKey>  (1) 
KMOFNRDXTFJLAO-UHFFFAOYSA-N

>  <InChi>  (1) 
InChI=1S/C13H11N3/c14-8-10-3-1-2-4-12(10)11-7-13-15-5-6-16(13)9-11/h1-6,11H,7,9H2

>  <IUPAC Name>  (1) 
2-(6,7-dihydro-5H-pyrrolo[1,2-a]imidazol-6-yl)benzonitrile

$$$$
