
     RDKit          3D

 73 73  0  0  0  0  0  0  0  0999 V2000
   -9.4290   -2.1682    0.8716 C   0  0  0  0  0  0  0  0  0  0  0  0
   -9.4645   -1.0958   -0.1673 C   0  0  0  0  0  0  0  0  0  0  0  0
   -8.7913    0.2039    0.2886 C   0  0  0  0  0  0  0  0  0  0  0  0
   -7.3681   -0.0146    0.6231 C   0  0  0  0  0  0  0  0  0  0  0  0
   -6.5121   -0.5285   -0.4863 C   0  0  0  0  0  0  0  0  0  0  0  0
   -6.4123    0.3050   -1.6937 C   0  0  0  0  0  0  0  0  0  0  0  0
   -5.8989    1.6851   -1.5851 C   0  0  0  0  0  0  0  0  0  0  0  0
   -4.5004    1.8972   -1.1041 C   0  0  0  0  0  0  0  0  0  0  0  0
   -4.1570    1.4358    0.2353 C   0  0  0  0  0  0  0  0  0  0  0  0
   -3.2062    0.5587    0.5473 C   0  0  0  0  0  0  0  0  0  0  0  0
   -2.3173   -0.1174   -0.3886 C   0  0  0  0  0  0  0  0  0  0  0  0
   -0.8248    0.1684   -0.1563 C   0  0  0  0  0  0  0  0  0  0  0  0
   -0.4402   -0.2731    1.2060 C   0  0  0  0  0  0  0  0  0  0  0  0
    0.9395   -0.1931    1.6706 C   0  0  0  0  0  0  0  0  0  0  0  0
    1.6934    1.0540    1.7891 C   0  0  0  0  0  0  0  0  0  0  0  0
    1.9440    1.8144    0.5442 C   0  0  0  0  0  0  0  0  0  0  0  0
    2.6611    1.0626   -0.5414 C   0  0  0  0  0  0  0  0  0  0  0  0
    3.9938    0.5986   -0.1329 C   0  0  0  0  0  0  0  0  0  0  0  0
    4.5381    0.8141    0.9709 O   0  0  0  0  0  0  0  0  0  0  0  0
    4.7392   -0.1710   -1.0821 N   0  0  0  0  0  0  0  0  0  0  0  0
    6.0600   -0.6925   -0.8136 C   0  0  0  0  0  0  0  0  0  0  0  0
    7.0424    0.4091   -0.5273 C   0  0  0  0  0  0  0  0  0  0  0  0
    8.3939   -0.1972   -0.2507 C   0  0  0  0  0  0  0  0  0  0  0  0
    8.6503   -0.4916    1.0748 C   0  0  0  0  0  0  0  0  0  0  0  0
    9.8456   -1.0506    1.4403 C   0  0  0  0  0  0  0  0  0  0  0  0
   10.7766   -1.3072    0.4499 C   0  0  0  0  0  0  0  0  0  0  0  0
   10.5064   -1.0052   -0.8857 C   0  0  0  0  0  0  0  0  0  0  0  0
    9.3007   -0.4409   -1.2588 C   0  0  0  0  0  0  0  0  0  0  0  0
   11.4877   -1.2929   -1.8067 O   0  0  0  0  0  0  0  0  0  0  0  0
   11.9753   -1.8706    0.8362 O   0  0  0  0  0  0  0  0  0  0  0  0
   -8.9983   -1.8555    1.8273 H   0  0  0  0  0  0  0  0  0  0  0  0
   -8.9739   -3.1164    0.4656 H   0  0  0  0  0  0  0  0  0  0  0  0
  -10.4985   -2.4683    1.0761 H   0  0  0  0  0  0  0  0  0  0  0  0
  -10.5072   -0.8767   -0.5233 H   0  0  0  0  0  0  0  0  0  0  0  0
   -8.9403   -1.4650   -1.0715 H   0  0  0  0  0  0  0  0  0  0  0  0
   -9.3724    0.5206    1.1782 H   0  0  0  0  0  0  0  0  0  0  0  0
   -8.9954    0.9435   -0.4922 H   0  0  0  0  0  0  0  0  0  0  0  0
   -6.9586    0.9252    1.0436 H   0  0  0  0  0  0  0  0  0  0  0  0
   -7.3164   -0.7710    1.4397 H   0  0  0  0  0  0  0  0  0  0  0  0
   -6.9185   -1.5407   -0.8432 H   0  0  0  0  0  0  0  0  0  0  0  0
   -5.5206   -0.7864   -0.1015 H   0  0  0  0  0  0  0  0  0  0  0  0
   -7.3413    0.2454   -2.3460 H   0  0  0  0  0  0  0  0  0  0  0  0
   -5.6661   -0.2393   -2.3679 H   0  0  0  0  0  0  0  0  0  0  0  0
   -6.5952    2.3427   -0.9576 H   0  0  0  0  0  0  0  0  0  0  0  0
   -5.9590    2.2291   -2.5886 H   0  0  0  0  0  0  0  0  0  0  0  0
   -3.7480    1.5404   -1.8815 H   0  0  0  0  0  0  0  0  0  0  0  0
   -4.2625    3.0161   -1.0977 H   0  0  0  0  0  0  0  0  0  0  0  0
   -4.7498    1.8607    1.0720 H   0  0  0  0  0  0  0  0  0  0  0  0
   -3.0965    0.3286    1.6154 H   0  0  0  0  0  0  0  0  0  0  0  0
   -2.5766   -0.0375   -1.4598 H   0  0  0  0  0  0  0  0  0  0  0  0
   -2.4252   -1.2253   -0.1786 H   0  0  0  0  0  0  0  0  0  0  0  0
   -0.2414   -0.3446   -0.9316 H   0  0  0  0  0  0  0  0  0  0  0  0
   -0.7698    1.2743   -0.3359 H   0  0  0  0  0  0  0  0  0  0  0  0
   -0.7626   -1.3536    1.2872 H   0  0  0  0  0  0  0  0  0  0  0  0
   -1.1245    0.2767    1.9416 H   0  0  0  0  0  0  0  0  0  0  0  0
    0.9483   -0.6717    2.7122 H   0  0  0  0  0  0  0  0  0  0  0  0
    1.5585   -0.9391    1.0610 H   0  0  0  0  0  0  0  0  0  0  0  0
    1.1645    1.7867    2.4867 H   0  0  0  0  0  0  0  0  0  0  0  0
    2.6800    0.9166    2.3162 H   0  0  0  0  0  0  0  0  0  0  0  0
    2.7094    2.6357    0.8637 H   0  0  0  0  0  0  0  0  0  0  0  0
    1.0654    2.3326    0.1502 H   0  0  0  0  0  0  0  0  0  0  0  0
    2.0948    0.1735   -0.8900 H   0  0  0  0  0  0  0  0  0  0  0  0
    2.7897    1.6991   -1.4402 H   0  0  0  0  0  0  0  0  0  0  0  0
    4.3117   -0.3712   -2.0256 H   0  0  0  0  0  0  0  0  0  0  0  0
    6.3989   -1.3476   -1.6379 H   0  0  0  0  0  0  0  0  0  0  0  0
    5.9951   -1.3389    0.0881 H   0  0  0  0  0  0  0  0  0  0  0  0
    6.7490    1.0311    0.3222 H   0  0  0  0  0  0  0  0  0  0  0  0
    7.1440    1.0405   -1.4463 H   0  0  0  0  0  0  0  0  0  0  0  0
    7.9035   -0.2830    1.8522 H   0  0  0  0  0  0  0  0  0  0  0  0
   10.0132   -1.2683    2.4876 H   0  0  0  0  0  0  0  0  0  0  0  0
    9.0714   -0.2007   -2.2801 H   0  0  0  0  0  0  0  0  0  0  0  0
   11.8963   -2.2210   -1.9042 H   0  0  0  0  0  0  0  0  0  0  0  0
   12.5990   -1.4935    1.5326 H   0  0  0  0  0  0  0  0  0  0  0  0
  1  2  1  0
  2  3  1  0
  3  4  1  0
  4  5  1  0
  5  6  1  0
  6  7  1  0
  7  8  1  0
  8  9  1  0
  9 10  2  0
 10 11  1  0
 11 12  1  0
 12 13  1  0
 13 14  1  0
 14 15  1  0
 15 16  1  0
 16 17  1  0
 17 18  1  0
 18 19  2  0
 18 20  1  0
 20 21  1  0
 21 22  1  0
 22 23  1  0
 23 24  2  0
 24 25  1  0
 25 26  2  0
 26 27  1  0
 27 28  2  0
 27 29  1  0
 26 30  1  0
 28 23  1  0
  1 31  1  0
  1 32  1  0
  1 33  1  0
  2 34  1  0
  2 35  1  0
  3 36  1  0
  3 37  1  0
  4 38  1  0
  4 39  1  0
  5 40  1  0
  5 41  1  0
  6 42  1  0
  6 43  1  0
  7 44  1  0
  7 45  1  0
  8 46  1  0
  8 47  1  0
  9 48  1  0
 10 49  1  0
 11 50  1  0
 11 51  1  0
 12 52  1  0
 12 53  1  0
 13 54  1  0
 13 55  1  0
 14 56  1  0
 14 57  1  0
 15 58  1  0
 15 59  1  0
 16 60  1  0
 16 61  1  0
 17 62  1  0
 17 63  1  0
 20 64  1  0
 21 65  1  0
 21 66  1  0
 22 67  1  0
 22 68  1  0
 24 69  1  0
 25 70  1  0
 28 71  1  0
 29 72  1  0
 30 73  1  0
M  END
>  <Ligand ID>  (1) 
LIG0004221

>  <Ligand>  (1) 
N-oleoyldopamine

>  <SMILES>  (1) 
CCCCCCCC/C=C\CCCCCCCC(=O)NCCc1ccc(c(c1)O)O

>  <CID>  (1) 
5282106.0

>  <ChEMBL ID>  (1) 
nan

>  <InChiKey>  (1) 
QQBPLXNESPTPNU-KTKRTIGZSA-N

>  <InChi>  (1) 
InChI=1S/C26H43NO3/c1-2-3-4-5-6-7-8-9-10-11-12-13-14-15-16-17-26(30)27-21-20-23-18-19-24(28)25(29)22-23/h9-10,18-19,22,28-29H,2-8,11-17,20-21H2,1H3,(H,27,30)/b10-9-

>  <IUPAC Name>  (1) 
(Z)-N-[2-(3,4-dihydroxyphenyl)ethyl]octadec-9-enamide

$$$$
