
     RDKit          3D

 32 34  0  0  0  0  0  0  0  0999 V2000
   -5.0365    2.7491    0.1391 F   0  0  0  0  0  0  0  0  0  0  0  0
   -4.0360    1.8423    0.2763 C   0  0  0  0  0  0  0  0  0  0  0  0
   -3.0195    2.0553    1.1855 C   0  0  0  0  0  0  0  0  0  0  0  0
   -2.0359    1.0883    1.2691 C   0  0  0  0  0  0  0  0  0  0  0  0
   -2.0419   -0.0490    0.4928 C   0  0  0  0  0  0  0  0  0  0  0  0
   -3.0866   -0.2258   -0.4131 C   0  0  0  0  0  0  0  0  0  0  0  0
   -4.0953    0.7169   -0.5321 C   0  0  0  0  0  0  0  0  0  0  0  0
   -2.8597   -1.4980   -1.1058 C   0  0  0  0  0  0  0  0  0  0  0  0
   -3.5785   -2.0113   -1.9949 O   0  0  0  0  0  0  0  0  0  0  0  0
   -1.6467   -2.0501   -0.5680 C   0  0  0  0  0  0  0  0  0  0  0  0
   -1.1372   -3.1496   -0.9309 O   0  0  0  0  0  0  0  0  0  0  0  0
   -1.1544   -1.1336    0.4243 N   0  0  0  0  0  0  0  0  0  0  0  0
    0.0711   -1.3977    1.1670 C   0  0  0  0  0  0  0  0  0  0  0  0
    1.2580   -0.8229    0.4481 C   0  0  0  0  0  0  0  0  0  0  0  0
    1.6303    0.4706    0.7411 C   0  0  0  0  0  0  0  0  0  0  0  0
    2.7014    1.0551    0.1230 C   0  0  0  0  0  0  0  0  0  0  0  0
    3.3912    0.2969   -0.8037 C   0  0  0  0  0  0  0  0  0  0  0  0
    3.0354   -0.9996   -1.1117 C   0  0  0  0  0  0  0  0  0  0  0  0
    1.9429   -1.6009   -0.4837 C   0  0  0  0  0  0  0  0  0  0  0  0
    4.5544    0.9292   -1.4760 C   0  0  0  0  0  0  0  0  0  0  0  0
    4.1200    2.1094   -2.0911 F   0  0  0  0  0  0  0  0  0  0  0  0
    5.1684    0.0935   -2.3623 F   0  0  0  0  0  0  0  0  0  0  0  0
    5.5041    1.2768   -0.5275 F   0  0  0  0  0  0  0  0  0  0  0  0
   -3.0367    2.9512    1.7806 H   0  0  0  0  0  0  0  0  0  0  0  0
   -1.2483    1.2572    1.9762 H   0  0  0  0  0  0  0  0  0  0  0  0
   -4.9217    0.6034   -1.2308 H   0  0  0  0  0  0  0  0  0  0  0  0
    0.2279   -2.4937    1.2660 H   0  0  0  0  0  0  0  0  0  0  0  0
    0.0198   -0.9980    2.2025 H   0  0  0  0  0  0  0  0  0  0  0  0
    1.0887    1.0604    1.4660 H   0  0  0  0  0  0  0  0  0  0  0  0
    2.9714    2.0724    0.3724 H   0  0  0  0  0  0  0  0  0  0  0  0
    3.6025   -1.5821   -1.8545 H   0  0  0  0  0  0  0  0  0  0  0  0
    1.6472   -2.6158   -0.7106 H   0  0  0  0  0  0  0  0  0  0  0  0
  1  2  1  0
  2  3  2  0
  3  4  1  0
  4  5  2  0
  5  6  1  0
  6  7  2  0
  6  8  1  0
  8  9  2  0
  8 10  1  0
 10 11  2  0
 10 12  1  0
 12 13  1  0
 13 14  1  0
 14 15  2  0
 15 16  1  0
 16 17  2  0
 17 18  1  0
 18 19  2  0
 17 20  1  0
 20 21  1  0
 20 22  1  0
 20 23  1  0
  7  2  1  0
 19 14  1  0
 12  5  1  0
  3 24  1  0
  4 25  1  0
  7 26  1  0
 13 27  1  0
 13 28  1  0
 15 29  1  0
 16 30  1  0
 18 31  1  0
 19 32  1  0
M  END
>  <Ligand ID>  (1) 
LIG0005941

>  <Ligand>  (1) 
CHEMBL512977

>  <SMILES>  (1) 
Fc1ccc2c(c1)C(=O)C(=O)N2Cc1ccc(cc1)C(F)(F)F

>  <CID>  (1) 
11056389.0

>  <ChEMBL ID>  (1) 
nan

>  <InChiKey>  (1) 
QLYLKQJDCWBWGI-UHFFFAOYSA-N

>  <InChi>  (1) 
InChI=1S/C16H9F4NO2/c17-11-5-6-13-12(7-11)14(22)15(23)21(13)8-9-1-3-10(4-2-9)16(18,19)20/h1-7H,8H2

>  <IUPAC Name>  (1) 
5-fluoro-1-[[4-(trifluoromethyl)phenyl]methyl]indole-2,3-dione

$$$$
