
     RDKit          3D

 20 20  0  0  0  0  0  0  0  0999 V2000
    2.7808    0.0934   -0.3892 C   0  0  0  0  0  0  0  0  0  0  0  0
    1.3561    0.5553   -0.5925 C   0  0  0  0  0  0  0  0  0  0  0  0
    0.4775   -0.1212    0.4561 C   0  0  0  0  0  0  0  0  0  0  0  0
    0.5536   -1.5089    0.3101 O   0  0  0  0  0  0  0  0  0  0  0  0
   -0.7100   -2.0470    0.0331 C   0  0  0  0  0  0  0  0  0  0  0  0
   -0.9675   -3.2752   -0.1515 O   0  0  0  0  0  0  0  0  0  0  0  0
   -1.6312   -0.9310    0.0040 C   0  0  0  0  0  0  0  0  0  0  0  0
   -0.9436    0.1736    0.2477 C   0  0  0  0  0  0  0  0  0  0  0  0
   -1.5535    1.5299    0.2992 C   0  0  0  0  0  0  0  0  0  0  0  0
   -3.0127   -0.9938   -0.2386 O   0  0  0  0  0  0  0  0  0  0  0  0
    3.2255   -0.3369   -1.3101 H   0  0  0  0  0  0  0  0  0  0  0  0
    2.8270   -0.7230    0.3847 H   0  0  0  0  0  0  0  0  0  0  0  0
    3.4057    0.9337    0.0321 H   0  0  0  0  0  0  0  0  0  0  0  0
    1.0034    0.2241   -1.5889 H   0  0  0  0  0  0  0  0  0  0  0  0
    1.2756    1.6447   -0.4924 H   0  0  0  0  0  0  0  0  0  0  0  0
    0.7701    0.2311    1.4650 H   0  0  0  0  0  0  0  0  0  0  0  0
   -1.8626    1.8334   -0.7074 H   0  0  0  0  0  0  0  0  0  0  0  0
   -2.4324    1.5047    0.9965 H   0  0  0  0  0  0  0  0  0  0  0  0
   -0.8587    2.2783    0.7255 H   0  0  0  0  0  0  0  0  0  0  0  0
   -3.7028   -1.0650    0.5166 H   0  0  0  0  0  0  0  0  0  0  0  0
  1  2  1  0
  2  3  1  0
  3  4  1  0
  4  5  1  0
  5  6  2  0
  5  7  1  0
  7  8  2  0
  8  9  1  0
  7 10  1  0
  8  3  1  0
  1 11  1  0
  1 12  1  0
  1 13  1  0
  2 14  1  0
  2 15  1  0
  3 16  1  0
  9 17  1  0
  9 18  1  0
  9 19  1  0
 10 20  1  0
M  END
>  <Ligand ID>  (1) 
LIG0002065

>  <Ligand>  (1) 
2-ethyl-4-hydroxy-3-methyl-2H-furan-5-one

>  <SMILES>  (1) 
CCC1OC(=O)C(=C1C)O

>  <CID>  (1) 
61199.0

>  <ChEMBL ID>  (1) 
nan

>  <InChiKey>  (1) 
IUFQZPBIRYFPFD-UHFFFAOYSA-N

>  <InChi>  (1) 
InChI=1S/C7H10O3/c1-3-5-4(2)6(8)7(9)10-5/h5,8H,3H2,1-2H3

>  <IUPAC Name>  (1) 
2-ethyl-4-hydroxy-3-methyl-2H-furan-5-one

$$$$
