
     RDKit          3D

141143  0  0  0  0  0  0  0  0999 V2000
    8.1329    2.6958   -2.7196 C   0  0  0  0  0  0  0  0  0  0  0  0
    6.9296    2.2292   -1.9412 C   0  0  0  0  0  0  0  0  0  0  0  0
    6.8778    0.6904   -1.9127 C   0  0  1  0  0  0  0  0  0  0  0  0
    5.6347    0.3505   -1.1167 C   0  0  2  0  0  0  0  0  0  0  0  0
    5.7451    0.9475    0.2264 N   0  0  0  0  0  0  0  0  0  0  0  0
    4.6969    1.6494    0.8522 C   0  0  0  0  0  0  0  0  0  0  0  0
    3.5852    1.4807    0.2292 O   0  0  0  0  0  0  0  0  0  0  0  0
    4.6737    2.4837    2.0336 C   0  0  1  0  0  0  0  0  0  0  0  0
    3.2914    2.8802    2.3777 N   0  0  0  0  0  0  0  0  0  0  0  0
    2.4307    3.6263    1.5430 C   0  0  0  0  0  0  0  0  0  0  0  0
    2.8062    3.8427    0.3896 O   0  0  0  0  0  0  0  0  0  0  0  0
    1.1080    4.1380    1.9844 C   0  0  0  0  0  0  0  0  0  0  0  0
    0.0013    3.8308    1.0178 C   0  0  0  0  0  0  0  0  0  0  0  0
    0.3422    4.1586   -0.7119 S   0  0  0  0  0  0  0  0  0  0  0  0
   -1.3190    3.4824   -1.8865 S   0  0  0  0  0  0  0  0  0  0  0  0
   -1.1099    1.7186   -2.3520 C   0  0  0  0  0  0  0  0  0  0  0  0
   -1.0821    0.8938   -1.0523 C   0  0  2  0  0  0  0  0  0  0  0  0
   -0.8947   -0.5064   -1.3122 N   0  0  0  0  0  0  0  0  0  0  0  0
    0.3396   -1.1250   -1.0847 C   0  0  0  0  0  0  0  0  0  0  0  0
    1.2081   -0.2702   -0.5922 O   0  0  0  0  0  0  0  0  0  0  0  0
    0.9038   -2.4393   -1.2429 C   0  0  1  0  0  0  0  0  0  0  0  0
    2.2713   -2.5042   -0.6811 N   0  0  0  0  0  0  0  0  0  0  0  0
    3.2486   -3.4293   -1.1422 C   0  0  0  0  0  0  0  0  0  0  0  0
    2.8447   -4.2788   -1.9406 O   0  0  0  0  0  0  0  0  0  0  0  0
    4.6892   -3.3612   -0.6553 C   0  0  1  0  0  0  0  0  0  0  0  0
    4.9196   -1.9730   -0.1762 N   0  0  0  0  0  0  0  0  0  0  0  0
    5.3030   -1.0578   -1.1862 C   0  0  0  0  0  0  0  0  0  0  0  0
    5.3483   -1.5978   -2.3475 O   0  0  0  0  0  0  0  0  0  0  0  0
    4.8808   -4.3574    0.4087 C   0  0  0  0  0  0  0  0  0  0  0  0
    4.5979   -5.7470   -0.0951 C   0  0  0  0  0  0  0  0  0  0  0  0
    5.4660   -6.1818   -1.2075 C   0  0  0  0  0  0  0  0  0  0  0  0
    6.4403   -5.5507   -1.6620 O   0  0  0  0  0  0  0  0  0  0  0  0
    5.1415   -7.4510   -1.8098 N   0  0  0  0  0  0  0  0  0  0  0  0
    0.1807   -3.6773   -0.9072 C   0  0  0  0  0  0  0  0  0  0  0  0
   -1.0101   -3.9836   -1.7127 C   0  0  0  0  0  0  0  0  0  0  0  0
   -1.4549   -3.3603   -2.6883 O   0  0  0  0  0  0  0  0  0  0  0  0
   -1.7595   -5.1558   -1.3279 N   0  0  0  0  0  0  0  0  0  0  0  0
   -2.2452    1.2086   -0.2501 C   0  0  0  0  0  0  0  0  0  0  0  0
   -2.6382    2.4616   -0.3627 O   0  0  0  0  0  0  0  0  0  0  0  0
   -3.0545    0.4951    0.6249 N   0  0  0  0  0  0  0  0  0  0  0  0
   -4.2223    1.3151    1.1353 C   0  0  0  0  0  0  0  0  0  0  0  0
   -5.3283    1.1856    0.1592 C   0  0  0  0  0  0  0  0  0  0  0  0
   -5.0953    0.5322   -0.8867 O   0  0  0  0  0  0  0  0  0  0  0  0
   -6.6170    1.7371    0.3244 N   0  0  0  0  0  0  0  0  0  0  0  0
   -7.5531    1.4679   -0.8033 C   0  0  2  0  0  0  0  0  0  0  0  0
   -8.5109    2.5468   -0.8722 C   0  0  0  0  0  0  0  0  0  0  0  0
   -9.2182    2.6692   -1.9211 O   0  0  0  0  0  0  0  0  0  0  0  0
   -8.7668    3.5242    0.1375 N   0  0  0  0  0  0  0  0  0  0  0  0
   -9.7836    4.5165   -0.1546 C   0  0  0  0  0  0  0  0  0  0  0  0
   -9.4371    5.3478   -1.3353 C   0  0  0  0  0  0  0  0  0  0  0  0
   -8.3928    5.2260   -2.0074 O   0  0  0  0  0  0  0  0  0  0  0  0
  -10.3505    6.3633   -1.7471 N   0  0  0  0  0  0  0  0  0  0  0  0
   -8.1855    0.1491   -0.4155 C   0  0  0  0  0  0  0  0  0  0  0  0
   -9.1796   -0.4907   -1.2834 C   0  0  0  0  0  0  0  0  0  0  0  0
   -9.5066   -1.8491   -0.5726 C   0  0  0  0  0  0  0  0  0  0  0  0
  -10.5440    0.1904   -1.2964 C   0  0  0  0  0  0  0  0  0  0  0  0
   -2.9971   -0.7901    1.1936 C   0  0  0  0  0  0  0  0  0  0  0  0
   -3.6786   -1.9438    0.5459 C   0  0  0  0  0  0  0  0  0  0  0  0
   -3.5495   -3.1516    1.4533 C   0  0  0  0  0  0  0  0  0  0  0  0
   -4.5792   -3.3339    2.3680 C   0  0  0  0  0  0  0  0  0  0  0  0
   -4.6055   -4.3826    3.2514 C   0  0  0  0  0  0  0  0  0  0  0  0
   -3.5401   -5.2697    3.1906 C   0  0  0  0  0  0  0  0  0  0  0  0
   -2.5246   -5.0746    2.2753 C   0  0  0  0  0  0  0  0  0  0  0  0
   -2.5621   -4.0172    1.4322 N   0  0  0  0  0  0  0  0  0  0  0  0
    5.4837    2.2686    3.2247 C   0  0  0  0  0  0  0  0  0  0  0  0
    6.9353    2.3357    3.0824 C   0  0  0  0  0  0  0  0  0  0  0  0
    7.8267    1.3130    2.9998 C   0  0  0  0  0  0  0  0  0  0  0  0
    9.2027    1.4912    2.8612 C   0  0  0  0  0  0  0  0  0  0  0  0
    9.7241    2.7808    2.8009 C   0  0  0  0  0  0  0  0  0  0  0  0
    8.8471    3.8241    2.8822 C   0  0  0  0  0  0  0  0  0  0  0  0
    7.4880    3.6348    3.0191 C   0  0  0  0  0  0  0  0  0  0  0  0
   11.0965    2.9557    2.6629 O   0  0  0  0  0  0  0  0  0  0  0  0
    6.6734    0.2327   -3.3426 C   0  0  0  0  0  0  0  0  0  0  0  0
    8.5281    3.6006   -2.1973 H   0  0  0  0  0  0  0  0  0  0  0  0
    8.9396    1.9218   -2.7055 H   0  0  0  0  0  0  0  0  0  0  0  0
    7.8252    2.9586   -3.7366 H   0  0  0  0  0  0  0  0  0  0  0  0
    6.9767    2.6155   -0.9114 H   0  0  0  0  0  0  0  0  0  0  0  0
    6.0062    2.5415   -2.4574 H   0  0  0  0  0  0  0  0  0  0  0  0
    7.7440    0.2515   -1.4118 H   0  0  0  0  0  0  0  0  0  0  0  0
    4.7690    0.8712   -1.6543 H   0  0  0  0  0  0  0  0  0  0  0  0
    6.6139    0.8312    0.6995 H   0  0  0  0  0  0  0  0  0  0  0  0
    5.0929    3.5044    1.5464 H   0  0  0  0  0  0  0  0  0  0  0  0
    2.8981    2.6013    3.2826 H   0  0  0  0  0  0  0  0  0  0  0  0
    1.1350    5.2652    2.0565 H   0  0  0  0  0  0  0  0  0  0  0  0
    0.8583    3.8124    3.0106 H   0  0  0  0  0  0  0  0  0  0  0  0
   -0.2447    2.7519    1.1429 H   0  0  0  0  0  0  0  0  0  0  0  0
   -0.9168    4.4414    1.2649 H   0  0  0  0  0  0  0  0  0  0  0  0
   -0.2205    1.5503   -2.9618 H   0  0  0  0  0  0  0  0  0  0  0  0
   -2.0016    1.4005   -2.9172 H   0  0  0  0  0  0  0  0  0  0  0  0
   -0.1260    1.2931   -0.5452 H   0  0  0  0  0  0  0  0  0  0  0  0
   -1.6652   -1.0474   -1.6660 H   0  0  0  0  0  0  0  0  0  0  0  0
    1.0510   -2.5648   -2.3952 H   0  0  0  0  0  0  0  0  0  0  0  0
    2.5741   -1.8834    0.0706 H   0  0  0  0  0  0  0  0  0  0  0  0
    5.2579   -3.5958   -1.5552 H   0  0  0  0  0  0  0  0  0  0  0  0
    4.8302   -1.6493    0.7609 H   0  0  0  0  0  0  0  0  0  0  0  0
    4.2058   -4.2151    1.2880 H   0  0  0  0  0  0  0  0  0  0  0  0
    5.9158   -4.2969    0.8314 H   0  0  0  0  0  0  0  0  0  0  0  0
    3.5064   -5.8232   -0.3808 H   0  0  0  0  0  0  0  0  0  0  0  0
    4.6625   -6.4888    0.7632 H   0  0  0  0  0  0  0  0  0  0  0  0
    4.1531   -7.6402   -2.1407 H   0  0  0  0  0  0  0  0  0  0  0  0
    5.8954   -8.1910   -1.9224 H   0  0  0  0  0  0  0  0  0  0  0  0
   -0.1495   -3.6215    0.1847 H   0  0  0  0  0  0  0  0  0  0  0  0
    0.8401   -4.5846   -0.8958 H   0  0  0  0  0  0  0  0  0  0  0  0
   -2.8003   -5.1803   -1.4877 H   0  0  0  0  0  0  0  0  0  0  0  0
   -1.3347   -5.9881   -0.9019 H   0  0  0  0  0  0  0  0  0  0  0  0
   -3.8388    2.3449    1.1874 H   0  0  0  0  0  0  0  0  0  0  0  0
   -4.4721    0.9325    2.1265 H   0  0  0  0  0  0  0  0  0  0  0  0
   -6.8402    2.2554    1.1584 H   0  0  0  0  0  0  0  0  0  0  0  0
   -6.9400    1.2895   -1.7306 H   0  0  0  0  0  0  0  0  0  0  0  0
   -8.2751    3.5574    1.0472 H   0  0  0  0  0  0  0  0  0  0  0  0
  -10.7750    4.0083   -0.2919 H   0  0  0  0  0  0  0  0  0  0  0  0
   -9.9225    5.1864    0.7233 H   0  0  0  0  0  0  0  0  0  0  0  0
  -11.1451    6.6829   -1.1164 H   0  0  0  0  0  0  0  0  0  0  0  0
  -10.2616    6.8313   -2.6954 H   0  0  0  0  0  0  0  0  0  0  0  0
   -7.3557   -0.6072   -0.2498 H   0  0  0  0  0  0  0  0  0  0  0  0
   -8.6400    0.2213    0.6162 H   0  0  0  0  0  0  0  0  0  0  0  0
   -8.8479   -0.7244   -2.3010 H   0  0  0  0  0  0  0  0  0  0  0  0
   -8.6294   -2.5193   -0.6916 H   0  0  0  0  0  0  0  0  0  0  0  0
  -10.4371   -2.2601   -0.9877 H   0  0  0  0  0  0  0  0  0  0  0  0
   -9.6732   -1.6605    0.5056 H   0  0  0  0  0  0  0  0  0  0  0  0
  -11.3597   -0.5713   -1.0197 H   0  0  0  0  0  0  0  0  0  0  0  0
  -10.7706    0.5857   -2.2896 H   0  0  0  0  0  0  0  0  0  0  0  0
  -10.5658    0.9186   -0.4724 H   0  0  0  0  0  0  0  0  0  0  0  0
   -1.9040   -1.1208    1.3356 H   0  0  0  0  0  0  0  0  0  0  0  0
   -3.3828   -0.7595    2.2722 H   0  0  0  0  0  0  0  0  0  0  0  0
   -4.7686   -1.8058    0.3626 H   0  0  0  0  0  0  0  0  0  0  0  0
   -3.2206   -2.2661   -0.4002 H   0  0  0  0  0  0  0  0  0  0  0  0
   -5.4273   -2.6347    2.4205 H   0  0  0  0  0  0  0  0  0  0  0  0
   -5.4098   -4.5420    3.9783 H   0  0  0  0  0  0  0  0  0  0  0  0
   -3.5646   -6.0998    3.8894 H   0  0  0  0  0  0  0  0  0  0  0  0
   -1.6857   -5.7648    2.2246 H   0  0  0  0  0  0  0  0  0  0  0  0
    5.2161    2.9630    4.0741 H   0  0  0  0  0  0  0  0  0  0  0  0
    5.2833    1.2009    3.6041 H   0  0  0  0  0  0  0  0  0  0  0  0
    7.4290    0.3015    3.0446 H   0  0  0  0  0  0  0  0  0  0  0  0
    9.8720    0.6258    2.7983 H   0  0  0  0  0  0  0  0  0  0  0  0
    9.2264    4.8365    2.8381 H   0  0  0  0  0  0  0  0  0  0  0  0
    6.8757    4.5122    3.0758 H   0  0  0  0  0  0  0  0  0  0  0  0
   11.4765    3.6407    2.0443 H   0  0  0  0  0  0  0  0  0  0  0  0
    5.5973    0.2734   -3.5706 H   0  0  0  0  0  0  0  0  0  0  0  0
    7.1848    0.9419   -4.0541 H   0  0  0  0  0  0  0  0  0  0  0  0
    7.1120   -0.7764   -3.4856 H   0  0  0  0  0  0  0  0  0  0  0  0
  1  2  1  0
  2  3  1  0
  3  4  1  0
  4  5  1  0
  5  6  1  0
  6  7  2  0
  6  8  1  0
  8  9  1  0
  9 10  1  0
 10 11  2  0
 10 12  1  0
 12 13  1  0
 13 14  1  0
 14 15  1  0
 15 16  1  0
 16 17  1  0
 17 18  1  0
 18 19  1  0
 19 20  2  0
 19 21  1  0
 21 22  1  0
 22 23  1  0
 23 24  2  0
 23 25  1  0
 25 26  1  0
 26 27  1  0
 27 28  2  0
 25 29  1  0
 29 30  1  0
 30 31  1  0
 31 32  2  0
 31 33  1  0
 21 34  1  0
 34 35  1  0
 35 36  2  0
 35 37  1  0
 17 38  1  0
 38 39  2  0
 38 40  1  0
 40 41  1  0
 41 42  1  0
 42 43  2  0
 42 44  1  0
 44 45  1  0
 45 46  1  0
 46 47  2  0
 46 48  1  0
 48 49  1  0
 49 50  1  0
 50 51  2  0
 50 52  1  0
 45 53  1  0
 53 54  1  0
 54 55  1  0
 54 56  1  0
 40 57  1  0
 57 58  1  0
 58 59  1  0
 59 60  2  0
 60 61  1  0
 61 62  2  0
 62 63  1  0
 63 64  2  0
  8 65  1  0
 65 66  1  0
 66 67  2  0
 67 68  1  0
 68 69  2  0
 69 70  1  0
 70 71  2  0
 69 72  1  0
  3 73  1  0
 27  4  1  0
 64 59  1  0
 71 66  1  0
  1 74  1  0
  1 75  1  0
  1 76  1  0
  2 77  1  0
  2 78  1  0
  3 79  1  1
  4 80  1  6
  5 81  1  0
  8 82  1  6
  9 83  1  0
 12 84  1  0
 12 85  1  0
 13 86  1  0
 13 87  1  0
 16 88  1  0
 16 89  1  0
 17 90  1  1
 18 91  1  0
 21 92  1  6
 22 93  1  0
 25 94  1  6
 26 95  1  0
 29 96  1  0
 29 97  1  0
 30 98  1  0
 30 99  1  0
 33100  1  0
 33101  1  0
 34102  1  0
 34103  1  0
 37104  1  0
 37105  1  0
 41106  1  0
 41107  1  0
 44108  1  0
 45109  1  6
 48110  1  0
 49111  1  0
 49112  1  0
 52113  1  0
 52114  1  0
 53115  1  0
 53116  1  0
 54117  1  0
 55118  1  0
 55119  1  0
 55120  1  0
 56121  1  0
 56122  1  0
 56123  1  0
 57124  1  0
 57125  1  0
 58126  1  0
 58127  1  0
 60128  1  0
 61129  1  0
 62130  1  0
 63131  1  0
 65132  1  0
 65133  1  0
 67134  1  0
 68135  1  0
 70136  1  0
 71137  1  0
 72138  1  0
 73139  1  0
 73140  1  0
 73141  1  0
M  END
>  <Ligand ID>  (1) 
LIG0001645

>  <Ligand>  (1) 
CHEMBL3353954

>  <SMILES>  (1) 
CC[C@@H]([C@@H]1NC(=O)[C@@H](NC(=O)CCSSC[C@H](NC(=O)[C@@H](NC(=O)[C@@H](NC1=O)CCC(=O)N)CC(=O)N)C(=O)N(CC(=O)N[C@H](C(=O)NCC(=O)N)CC(C)C)CCc1ccccn1)Cc1ccc(cc1)O)C

>  <CID>  (1) 
118719843.0

>  <ChEMBL ID>  (1) 
nan

>  <InChiKey>  (1) 
JOBPTSBRHGMVFL-SJMOYVGOSA-N

>  <InChi>  (1) 
InChI=1S/C47H68N12O12S2/c1-5-27(4)41-46(70)55-31(13-14-36(48)61)43(67)56-34(22-37(49)62)44(68)57-35(25-73-72-19-16-39(64)53-33(45(69)58-41)21-28-9-11-30(60)12-10-28)47(71)59(18-15-29-8-6-7-17-51-29)24-40(65)54-32(20-26(2)3)42(66)52-23-38(50)63/h6-12,17,26-27,31-35,41,60H,5,13-16,18-25H2,1-4H3,(H2,48,61)(H2,49,62)(H2,50,63)(H,52,66)(H,53,64)(H,54,65)(H,55,70)(H,56,67)(H,57,68)(H,58,69)/t27-,31-,32-,33-,34-,35-,41-/m0/s1

>  <IUPAC Name>  (1) 
(4R,7S,10S,13S,16S)-7-(2-amino-2-oxoethyl)-N-[2-[[(2S)-1-[(2-amino-2-oxoethyl)amino]-4-methyl-1-oxopentan-2-yl]amino]-2-oxoethyl]-10-(3-amino-3-oxopropyl)-13-[(2S)-butan-2-yl]-16-[(4-hydroxyphenyl)methyl]-6,9,12,15,18-pentaoxo-N-(2-pyridin-2-ylethyl)-1,2-dithia-5,8,11,14,17-pentazacycloicosane-4-carboxamide

$$$$
