
     RDKit          3D

 42 45  0  0  0  0  0  0  0  0999 V2000
   -8.4983   -1.4903    1.4238 F   0  0  0  0  0  0  0  0  0  0  0  0
   -7.2125   -1.0909    1.2372 C   0  0  0  0  0  0  0  0  0  0  0  0
   -6.9472   -0.1416    0.2574 C   0  0  0  0  0  0  0  0  0  0  0  0
   -5.6539    0.2907    0.0365 C   0  0  0  0  0  0  0  0  0  0  0  0
   -4.5758   -0.2021    0.7786 C   0  0  0  0  0  0  0  0  0  0  0  0
   -4.8812   -1.1389    1.7371 C   0  0  0  0  0  0  0  0  0  0  0  0
   -6.1645   -1.5910    1.9814 C   0  0  0  0  0  0  0  0  0  0  0  0
   -3.5975   -1.8275    2.7312 Cl  0  0  0  0  0  0  0  0  0  0  0  0
   -3.2128    0.2562    0.5428 C   0  0  0  0  0  0  0  0  0  0  0  0
   -2.0672   -0.1013    1.1511 N   0  0  0  0  0  0  0  0  0  0  0  0
   -1.0943    0.5746    0.6041 O   0  0  0  0  0  0  0  0  0  0  0  0
   -1.5530    1.3586   -0.3353 C   0  0  0  0  0  0  0  0  0  0  0  0
   -2.8787    1.1698   -0.3850 N   0  0  0  0  0  0  0  0  0  0  0  0
   -0.8360    2.3071   -1.2274 C   0  0  0  0  0  0  0  0  0  0  0  0
   -0.4173    1.5649   -2.4846 C   0  0  0  0  0  0  0  0  0  0  0  0
    0.4987    0.4241   -2.0337 C   0  0  0  0  0  0  0  0  0  0  0  0
    1.6074    1.0055   -1.3722 O   0  0  0  0  0  0  0  0  0  0  0  0
    2.6104    0.1979   -0.8524 C   0  0  0  0  0  0  0  0  0  0  0  0
    2.5951   -1.1792   -0.9423 C   0  0  0  0  0  0  0  0  0  0  0  0
    3.5756   -1.9579   -0.4335 N   0  0  0  0  0  0  0  0  0  0  0  0
    4.6080   -1.3544    0.1861 C   0  0  0  0  0  0  0  0  0  0  0  0
    4.6862    0.0297    0.3119 C   0  0  0  0  0  0  0  0  0  0  0  0
    3.6796    0.8178   -0.2110 C   0  0  0  0  0  0  0  0  0  0  0  0
    5.7275    0.6642    0.9384 C   0  0  0  0  0  0  0  0  0  0  0  0
    6.7361   -0.1267    1.4623 C   0  0  0  0  0  0  0  0  0  0  0  0
    6.7216   -1.5058    1.3728 C   0  0  0  0  0  0  0  0  0  0  0  0
    5.6586   -2.0874    0.7372 C   0  0  0  0  0  0  0  0  0  0  0  0
    8.0839    0.6317    2.2694 Cl  0  0  0  0  0  0  0  0  0  0  0  0
   -7.7213    0.2906   -0.3605 H   0  0  0  0  0  0  0  0  0  0  0  0
   -5.4623    1.0428   -0.7432 H   0  0  0  0  0  0  0  0  0  0  0  0
   -6.4065   -2.3273    2.7343 H   0  0  0  0  0  0  0  0  0  0  0  0
    0.0503    2.6993   -0.7086 H   0  0  0  0  0  0  0  0  0  0  0  0
   -1.5039    3.1547   -1.4771 H   0  0  0  0  0  0  0  0  0  0  0  0
   -1.2905    1.0909   -2.9610 H   0  0  0  0  0  0  0  0  0  0  0  0
    0.1016    2.2760   -3.1346 H   0  0  0  0  0  0  0  0  0  0  0  0
   -0.1208   -0.2144   -1.3698 H   0  0  0  0  0  0  0  0  0  0  0  0
    0.7980   -0.2280   -2.8795 H   0  0  0  0  0  0  0  0  0  0  0  0
    1.7558   -1.6682   -1.4459 H   0  0  0  0  0  0  0  0  0  0  0  0
    3.7063    1.8872   -0.1329 H   0  0  0  0  0  0  0  0  0  0  0  0
    5.7509    1.7530    1.0158 H   0  0  0  0  0  0  0  0  0  0  0  0
    7.5389   -2.0839    1.8010 H   0  0  0  0  0  0  0  0  0  0  0  0
    5.6052   -3.1705    0.6431 H   0  0  0  0  0  0  0  0  0  0  0  0
  1  2  1  0
  2  3  2  0
  3  4  1  0
  4  5  2  0
  5  6  1  0
  6  7  2  0
  6  8  1  0
  5  9  1  0
  9 10  2  0
 10 11  1  0
 11 12  1  0
 12 13  2  0
 12 14  1  0
 14 15  1  0
 15 16  1  0
 16 17  1  0
 17 18  1  0
 18 19  2  0
 19 20  1  0
 20 21  2  0
 21 22  1  0
 22 23  2  0
 22 24  1  0
 24 25  2  0
 25 26  1  0
 26 27  2  0
 25 28  1  0
  7  2  1  0
 13  9  1  0
 23 18  1  0
 27 21  1  0
  3 29  1  0
  4 30  1  0
  7 31  1  0
 14 32  1  0
 14 33  1  0
 15 34  1  0
 15 35  1  0
 16 36  1  0
 16 37  1  0
 19 38  1  0
 23 39  1  0
 24 40  1  0
 26 41  1  0
 27 42  1  0
M  END
>  <Ligand ID>  (1) 
LIG0001223

>  <Ligand>  (1) 
CHEMBL498469

>  <SMILES>  (1) 
Fc1ccc(c(c1)Cl)c1noc(n1)CCCOc1cnc2c(c1)cc(cc2)Cl

>  <CID>  (1) 
25034071.0

>  <ChEMBL ID>  (1) 
nan

>  <InChiKey>  (1) 
VKLHWQFWOJTEBS-UHFFFAOYSA-N

>  <InChi>  (1) 
InChI=1S/C20H14Cl2FN3O2/c21-13-3-6-18-12(8-13)9-15(11-24-18)27-7-1-2-19-25-20(26-28-19)16-5-4-14(23)10-17(16)22/h3-6,8-11H,1-2,7H2

>  <IUPAC Name>  (1) 
3-(2-chloro-4-fluorophenyl)-5-[3-(6-chloroquinolin-3-yl)oxypropyl]-1,2,4-oxadiazole

$$$$
