
     RDKit          3D

 62 66  0  0  0  0  0  0  0  0999 V2000
    9.6799    2.1200   -0.1890 Cl  0  0  0  0  0  0  0  0  0  0  0  0
    8.1342    1.3068   -0.2102 C   0  0  0  0  0  0  0  0  0  0  0  0
    6.9422    1.9667   -0.4559 C   0  0  0  0  0  0  0  0  0  0  0  0
    5.7365    1.3014   -0.4672 C   0  0  0  0  0  0  0  0  0  0  0  0
    5.6676   -0.0628   -0.2318 C   0  0  0  0  0  0  0  0  0  0  0  0
    6.8659   -0.7018    0.0107 C   0  0  0  0  0  0  0  0  0  0  0  0
    8.0831   -0.0632    0.0280 C   0  0  0  0  0  0  0  0  0  0  0  0
    6.5717   -1.9900    0.2078 N   0  0  0  0  0  0  0  0  0  0  0  0
    5.2307   -2.1344    0.0889 C   0  0  0  0  0  0  0  0  0  0  0  0
    4.6703   -3.2450    0.2256 O   0  0  0  0  0  0  0  0  0  0  0  0
    4.6464   -0.9629   -0.1818 N   0  0  0  0  0  0  0  0  0  0  0  0
    3.2475   -0.6688   -0.3849 C   0  0  0  0  0  0  0  0  0  0  0  0
    2.4392   -1.8900   -0.0142 C   0  0  0  0  0  0  0  0  0  0  0  0
    0.9431   -1.6146   -0.0953 C   0  0  0  0  0  0  0  0  0  0  0  0
    0.7060   -0.3454    0.4471 N   0  0  0  0  0  0  0  0  0  0  0  0
    1.6558    0.2343    1.3088 C   0  0  0  0  0  0  0  0  0  0  0  0
    2.8934    0.5313    0.4472 C   0  0  0  0  0  0  0  0  0  0  0  0
   -0.5585    0.2405    0.3020 C   0  0  0  0  0  0  0  0  0  0  0  0
   -1.7094   -0.5309    0.8990 C   0  0  0  0  0  0  0  0  0  0  0  0
   -2.8697    0.4376    0.9942 C   0  0  0  0  0  0  0  0  0  0  0  0
   -3.2306    1.0059   -0.2643 N   0  0  0  0  0  0  0  0  0  0  0  0
   -2.1148    1.5727   -0.9831 C   0  0  0  0  0  0  0  0  0  0  0  0
   -0.9576    0.6170   -1.1057 C   0  0  0  0  0  0  0  0  0  0  0  0
   -4.0617    0.1724   -1.0952 C   0  0  0  0  0  0  0  0  0  0  0  0
   -5.3316   -0.1387   -0.4106 C   0  0  0  0  0  0  0  0  0  0  0  0
   -5.5003   -1.4022    0.1439 C   0  0  0  0  0  0  0  0  0  0  0  0
   -6.6681   -1.7364    0.7919 C   0  0  0  0  0  0  0  0  0  0  0  0
   -7.6900   -0.8053    0.8949 C   0  0  0  0  0  0  0  0  0  0  0  0
   -7.5233    0.4514    0.3436 C   0  0  0  0  0  0  0  0  0  0  0  0
   -6.3462    0.7925   -0.3113 C   0  0  0  0  0  0  0  0  0  0  0  0
   -6.1678    2.1515   -0.9073 C   0  0  0  0  0  0  0  0  0  0  0  0
    6.9897    3.0171   -0.6375 H   0  0  0  0  0  0  0  0  0  0  0  0
    4.8479    1.8540   -0.6611 H   0  0  0  0  0  0  0  0  0  0  0  0
    8.9927   -0.6275    0.2263 H   0  0  0  0  0  0  0  0  0  0  0  0
    7.2635   -2.7542    0.4183 H   0  0  0  0  0  0  0  0  0  0  0  0
    3.1223   -0.4677   -1.4754 H   0  0  0  0  0  0  0  0  0  0  0  0
    2.6430   -2.6687   -0.7777 H   0  0  0  0  0  0  0  0  0  0  0  0
    2.7353   -2.2069    1.0058 H   0  0  0  0  0  0  0  0  0  0  0  0
    0.4699   -2.4239    0.5030 H   0  0  0  0  0  0  0  0  0  0  0  0
    0.5689   -1.7149   -1.1218 H   0  0  0  0  0  0  0  0  0  0  0  0
    1.2754    1.2324    1.6235 H   0  0  0  0  0  0  0  0  0  0  0  0
    1.9364   -0.3378    2.2073 H   0  0  0  0  0  0  0  0  0  0  0  0
    2.5472    1.3351   -0.2347 H   0  0  0  0  0  0  0  0  0  0  0  0
    3.6660    0.8330    1.1611 H   0  0  0  0  0  0  0  0  0  0  0  0
   -0.5418    1.2220    0.8600 H   0  0  0  0  0  0  0  0  0  0  0  0
   -1.4866   -0.9344    1.8934 H   0  0  0  0  0  0  0  0  0  0  0  0
   -1.9905   -1.3687    0.1972 H   0  0  0  0  0  0  0  0  0  0  0  0
   -3.7691    0.0179    1.4642 H   0  0  0  0  0  0  0  0  0  0  0  0
   -2.4853    1.2848    1.6315 H   0  0  0  0  0  0  0  0  0  0  0  0
   -2.4686    1.8085   -2.0104 H   0  0  0  0  0  0  0  0  0  0  0  0
   -1.7524    2.4908   -0.5142 H   0  0  0  0  0  0  0  0  0  0  0  0
   -0.1116    1.1474   -1.5635 H   0  0  0  0  0  0  0  0  0  0  0  0
   -1.1939   -0.2655   -1.7289 H   0  0  0  0  0  0  0  0  0  0  0  0
   -3.4997   -0.7151   -1.3898 H   0  0  0  0  0  0  0  0  0  0  0  0
   -4.2395    0.7841   -2.0269 H   0  0  0  0  0  0  0  0  0  0  0  0
   -4.7341   -2.1650    0.0906 H   0  0  0  0  0  0  0  0  0  0  0  0
   -6.8205   -2.6971    1.2239 H   0  0  0  0  0  0  0  0  0  0  0  0
   -8.6078   -1.0165    1.3848 H   0  0  0  0  0  0  0  0  0  0  0  0
   -8.3167    1.1810    0.4203 H   0  0  0  0  0  0  0  0  0  0  0  0
   -5.4147    2.6997   -0.2703 H   0  0  0  0  0  0  0  0  0  0  0  0
   -5.8962    2.1257   -1.9671 H   0  0  0  0  0  0  0  0  0  0  0  0
   -7.1131    2.7208   -0.7930 H   0  0  0  0  0  0  0  0  0  0  0  0
  1  2  1  0
  2  3  2  0
  3  4  1  0
  4  5  2  0
  5  6  1  0
  6  7  2  0
  6  8  1  0
  8  9  1  0
  9 10  2  0
  9 11  1  0
 11 12  1  0
 12 13  1  0
 13 14  1  0
 14 15  1  0
 15 16  1  0
 16 17  1  0
 15 18  1  0
 18 19  1  0
 19 20  1  0
 20 21  1  0
 21 22  1  0
 22 23  1  0
 21 24  1  0
 24 25  1  0
 25 26  2  0
 26 27  1  0
 27 28  2  0
 28 29  1  0
 29 30  2  0
 30 31  1  0
  7  2  1  0
 17 12  1  0
 23 18  1  0
 30 25  1  0
 11  5  1  0
  3 32  1  0
  4 33  1  0
  7 34  1  0
  8 35  1  0
 12 36  1  0
 13 37  1  0
 13 38  1  0
 14 39  1  0
 14 40  1  0
 16 41  1  0
 16 42  1  0
 17 43  1  0
 17 44  1  0
 18 45  1  0
 19 46  1  0
 19 47  1  0
 20 48  1  0
 20 49  1  0
 22 50  1  0
 22 51  1  0
 23 52  1  0
 23 53  1  0
 24 54  1  0
 24 55  1  0
 26 56  1  0
 27 57  1  0
 28 58  1  0
 29 59  1  0
 31 60  1  0
 31 61  1  0
 31 62  1  0
M  END
>  <Ligand ID>  (1) 
LIG0000958

>  <Ligand>  (1) 
CHEMBL523657

>  <SMILES>  (1) 
Clc1ccc2c(c1)[nH]c(=O)n2C1CCN(CC1)C1CCN(CC1)Cc1ccccc1C

>  <CID>  (1) 
44579375.0

>  <ChEMBL ID>  (1) 
nan

>  <InChiKey>  (1) 
FLALJSHQEQFXKG-UHFFFAOYSA-N

>  <InChi>  (1) 
InChI=1S/C25H31ClN4O/c1-18-4-2-3-5-19(18)17-28-12-8-21(9-13-28)29-14-10-22(11-15-29)30-24-7-6-20(26)16-23(24)27-25(30)31/h2-7,16,21-22H,8-15,17H2,1H3,(H,27,31)

>  <IUPAC Name>  (1) 
6-chloro-3-[1-[1-[(2-methylphenyl)methyl]piperidin-4-yl]piperidin-4-yl]-1H-benzimidazol-2-one

$$$$
