
     RDKit          3D

 15 14  0  0  0  0  0  0  0  0999 V2000
   -2.3881   -0.5350    0.1820 C   0  0  0  0  0  0  0  0  0  0  0  0
   -1.0444   -0.6005   -0.5318 C   0  0  0  0  0  0  0  0  0  0  0  0
   -0.0009    0.1302    0.2250 C   0  0  0  0  0  0  0  0  0  0  0  0
   -0.2102    0.7137    1.2980 O   0  0  0  0  0  0  0  0  0  0  0  0
    1.3410    0.1541   -0.3382 C   0  0  0  0  0  0  0  0  0  0  0  0
    1.6490   -0.4085   -1.4205 O   0  0  0  0  0  0  0  0  0  0  0  0
    2.4682    0.8711    0.3579 C   0  0  0  0  0  0  0  0  0  0  0  0
   -2.8303    0.4630    0.0464 H   0  0  0  0  0  0  0  0  0  0  0  0
   -2.2573   -0.8311    1.2438 H   0  0  0  0  0  0  0  0  0  0  0  0
   -3.0322   -1.2746   -0.3715 H   0  0  0  0  0  0  0  0  0  0  0  0
   -0.6988   -1.6388   -0.6604 H   0  0  0  0  0  0  0  0  0  0  0  0
   -1.1674   -0.1584   -1.5416 H   0  0  0  0  0  0  0  0  0  0  0  0
    2.1258    1.0583    1.3863 H   0  0  0  0  0  0  0  0  0  0  0  0
    2.6856    1.8261   -0.1694 H   0  0  0  0  0  0  0  0  0  0  0  0
    3.3601    0.2303    0.2940 H   0  0  0  0  0  0  0  0  0  0  0  0
  1  2  1  0
  2  3  1  0
  3  4  2  0
  3  5  1  0
  5  6  2  0
  5  7  1  0
  1  8  1  0
  1  9  1  0
  1 10  1  0
  2 11  1  0
  2 12  1  0
  7 13  1  0
  7 14  1  0
  7 15  1  0
M  END
>  <Ligand ID>  (1) 
LIG0000458

>  <Ligand>  (1) 
Pentan-2,3-dione

>  <SMILES>  (1) 
CCC(=O)C(=O)C

>  <CID>  (1) 
11747.0

>  <ChEMBL ID>  (1) 
nan

>  <InChiKey>  (1) 
TZMFJUDUGYTVRY-UHFFFAOYSA-N

>  <InChi>  (1) 
InChI=1S/C5H8O2/c1-3-5(7)4(2)6/h3H2,1-2H3

>  <IUPAC Name>  (1) 
pentane-2,3-dione

$$$$
