
     RDKit          3D

 27 28  0  0  0  0  0  0  0  0999 V2000
    4.7678   -0.4117    0.5591 Cl  0  0  0  0  0  0  0  0  0  0  0  0
    3.0411   -0.4673    0.1917 C   0  0  0  0  0  0  0  0  0  0  0  0
    2.4529   -1.6556   -0.1856 C   0  0  0  0  0  0  0  0  0  0  0  0
    1.1019   -1.6359   -0.4593 C   0  0  0  0  0  0  0  0  0  0  0  0
    0.3350   -0.4841   -0.3688 C   0  0  0  0  0  0  0  0  0  0  0  0
    0.9235    0.7084    0.0095 C   0  0  0  0  0  0  0  0  0  0  0  0
    2.2816    0.6802    0.2829 C   0  0  0  0  0  0  0  0  0  0  0  0
    0.4075    2.0669    0.1963 C   0  0  0  0  0  0  0  0  0  0  0  0
   -1.0163    2.1537    0.6424 C   0  0  0  0  0  0  0  0  0  0  0  0
   -1.9520    1.4165   -0.1468 N   0  0  0  0  0  0  0  0  0  0  0  0
   -1.9118    0.0418    0.3362 C   0  0  0  0  0  0  0  0  0  0  0  0
   -1.0744   -0.7037   -0.7062 C   0  0  0  0  0  0  0  0  0  0  0  0
   -1.4950   -2.1341   -0.6815 C   0  0  0  0  0  0  0  0  0  0  0  0
    3.0602   -2.5550   -0.2546 H   0  0  0  0  0  0  0  0  0  0  0  0
    0.6575   -2.5764   -0.7536 H   0  0  0  0  0  0  0  0  0  0  0  0
    2.8042    1.5960    0.5879 H   0  0  0  0  0  0  0  0  0  0  0  0
    0.5633    2.7241   -0.6833 H   0  0  0  0  0  0  0  0  0  0  0  0
    1.0152    2.5499    1.0092 H   0  0  0  0  0  0  0  0  0  0  0  0
   -1.0820    1.8320    1.7237 H   0  0  0  0  0  0  0  0  0  0  0  0
   -1.3054    3.2237    0.5918 H   0  0  0  0  0  0  0  0  0  0  0  0
   -2.9089    1.7814    0.0434 H   0  0  0  0  0  0  0  0  0  0  0  0
   -2.9223   -0.3958    0.4580 H   0  0  0  0  0  0  0  0  0  0  0  0
   -1.4046   -0.0485    1.3212 H   0  0  0  0  0  0  0  0  0  0  0  0
   -1.2922   -0.2766   -1.7038 H   0  0  0  0  0  0  0  0  0  0  0  0
   -1.2056   -2.7177   -1.5751 H   0  0  0  0  0  0  0  0  0  0  0  0
   -2.6237   -2.1243   -0.7175 H   0  0  0  0  0  0  0  0  0  0  0  0
   -1.2175   -2.5879    0.2828 H   0  0  0  0  0  0  0  0  0  0  0  0
  1  2  1  0
  2  3  2  0
  3  4  1  0
  4  5  2  0
  5  6  1  0
  6  7  2  0
  6  8  1  0
  8  9  1  0
  9 10  1  0
 10 11  1  0
 11 12  1  0
 12 13  1  0
  7  2  1  0
 12  5  1  0
  3 14  1  0
  4 15  1  0
  7 16  1  0
  8 17  1  0
  8 18  1  0
  9 19  1  0
  9 20  1  0
 10 21  1  0
 11 22  1  0
 11 23  1  0
 12 24  1  0
 13 25  1  0
 13 26  1  0
 13 27  1  0
M  END
>  <Ligand ID>  (1) 
LIG0004022

>  <Ligand>  (1) 
CHEMBL181672

>  <SMILES>  (1) 
Clc1ccc2c(c1)CCNCC2C

>  <CID>  (1) 
22292784.0

>  <ChEMBL ID>  (1) 
nan

>  <InChiKey>  (1) 
PDZGZUADJGRISH-UHFFFAOYSA-N

>  <InChi>  (1) 
InChI=1S/C11H14ClN/c1-8-7-13-5-4-9-6-10(12)2-3-11(8)9/h2-3,6,8,13H,4-5,7H2,1H3

>  <IUPAC Name>  (1) 
8-chloro-5-methyl-2,3,4,5-tetrahydro-1H-3-benzazepine

$$$$
