
     RDKit          3D

 16 15  0  0  0  0  0  0  0  0999 V2000
    2.6688   -0.6514    0.1571 C   0  0  0  0  0  0  0  0  0  0  0  0
    1.6097   -0.3209    1.6091 S   0  0  0  0  0  0  0  0  0  0  0  0
    0.2286    0.7184    1.0606 C   0  0  0  0  0  0  0  0  0  0  0  0
   -0.6314   -0.1096    0.1369 C   0  0  0  0  0  0  0  0  0  0  0  0
   -1.8147    0.7040   -0.3653 C   0  0  0  0  0  0  0  0  0  0  0  0
   -2.7699   -0.3944   -1.4559 S   0  0  0  0  0  0  0  0  0  0  0  0
    2.0045   -0.6050   -0.7337 H   0  0  0  0  0  0  0  0  0  0  0  0
    3.4290    0.1604    0.1345 H   0  0  0  0  0  0  0  0  0  0  0  0
    3.0772   -1.6693    0.1739 H   0  0  0  0  0  0  0  0  0  0  0  0
    0.5882    1.5701    0.4397 H   0  0  0  0  0  0  0  0  0  0  0  0
   -0.3280    1.0849    1.9382 H   0  0  0  0  0  0  0  0  0  0  0  0
   -0.1117   -0.5085   -0.7317 H   0  0  0  0  0  0  0  0  0  0  0  0
   -1.0773   -0.9975    0.6671 H   0  0  0  0  0  0  0  0  0  0  0  0
   -1.4361    1.5684   -0.9792 H   0  0  0  0  0  0  0  0  0  0  0  0
   -2.4151    1.0742    0.4921 H   0  0  0  0  0  0  0  0  0  0  0  0
   -3.0219   -1.6238   -0.8146 H   0  0  0  0  0  0  0  0  0  0  0  0
  1  2  1  0
  2  3  1  0
  3  4  1  0
  4  5  1  0
  5  6  1  0
  1  7  1  0
  1  8  1  0
  1  9  1  0
  3 10  1  0
  3 11  1  0
  4 12  1  0
  4 13  1  0
  5 14  1  0
  5 15  1  0
  6 16  1  0
M  END
>  <Ligand ID>  (1) 
LIG0002089

>  <Ligand>  (1) 
3-methylsulfanylpropane-1-thiol

>  <SMILES>  (1) 
CSCCCS

>  <CID>  (1) 
525488.0

>  <ChEMBL ID>  (1) 
nan

>  <InChiKey>  (1) 
GLSINCGJNDJREL-UHFFFAOYSA-N

>  <InChi>  (1) 
InChI=1S/C4H10S2/c1-6-4-2-3-5/h5H,2-4H2,1H3

>  <IUPAC Name>  (1) 
3-methylsulfanylpropane-1-thiol

$$$$
