
     RDKit          3D

 70 71  0  0  0  0  0  0  0  0999 V2000
    1.9402    2.2392    1.8496 O   0  0  0  0  0  0  0  0  0  0  0  0
    1.4132    2.7432    0.8609 C   0  0  0  0  0  0  0  0  0  0  0  0
    2.2218    3.6855    0.1123 N   0  0  0  0  0  0  0  0  0  0  0  0
    3.5504    3.9969    0.4959 C   0  0  0  0  0  0  0  0  0  0  0  0
    4.1447    3.4406    1.4924 N   0  0  0  0  0  0  0  0  0  0  0  0
    5.4878    3.7377    1.9066 C   0  0  0  0  0  0  0  0  0  0  0  0
    6.4142    2.5489    1.5931 C   0  0  0  0  0  0  0  0  0  0  0  0
    6.3797    2.2824    0.0858 C   0  0  0  0  0  0  0  0  0  0  0  0
    7.2444    1.1479   -0.2539 C   0  0  0  0  0  0  0  0  0  0  0  0
    8.0186    0.3466    0.4764 N   0  0  0  0  0  0  0  0  0  0  0  0
    8.6368   -0.5771   -0.2569 C   0  0  0  0  0  0  0  0  0  0  0  0
    8.2428   -0.3672   -1.5423 N   0  0  0  0  0  0  0  0  0  0  0  0
    7.3897    0.6836   -1.5676 C   0  0  0  0  0  0  0  0  0  0  0  0
    4.2772    4.9850   -0.2628 N   0  0  0  0  0  0  0  0  0  0  0  0
    0.0608    2.5179    0.3325 C   0  0  0  0  0  0  0  0  0  0  0  0
   -0.7502    1.6784    1.2628 C   0  0  0  0  0  0  0  0  0  0  0  0
   -0.1914    0.3209    1.5009 C   0  0  0  0  0  0  0  0  0  0  0  0
   -1.1505   -0.4092    2.4403 C   0  0  0  0  0  0  0  0  0  0  0  0
   -0.6875   -1.7873    2.7463 C   0  0  0  0  0  0  0  0  0  0  0  0
   -0.5356   -2.6278    1.5309 C   0  0  0  0  0  0  0  0  0  0  0  0
   -1.7553   -2.8099    0.7190 C   0  0  0  0  0  0  0  0  0  0  0  0
   -2.8595   -2.2647    0.9567 O   0  0  0  0  0  0  0  0  0  0  0  0
   -1.6844   -3.6610   -0.4125 N   0  0  0  0  0  0  0  0  0  0  0  0
   -2.8505   -3.8647   -1.2433 C   0  0  0  0  0  0  0  0  0  0  0  0
   -3.9155   -3.3750   -1.1159 N   0  0  0  0  0  0  0  0  0  0  0  0
   -5.0795   -2.7410   -0.8469 C   0  0  0  0  0  0  0  0  0  0  0  0
   -5.0139   -1.3059   -1.4049 C   0  0  0  0  0  0  0  0  0  0  0  0
   -6.2751   -0.5427   -1.1632 C   0  0  0  0  0  0  0  0  0  0  0  0
   -7.4084   -1.2617   -1.8414 C   0  0  0  0  0  0  0  0  0  0  0  0
   -8.2039   -2.2228   -1.3275 N   0  0  0  0  0  0  0  0  0  0  0  0
   -9.1108   -2.6253   -2.2322 C   0  0  0  0  0  0  0  0  0  0  0  0
   -8.8832   -1.8972   -3.3516 N   0  0  0  0  0  0  0  0  0  0  0  0
   -7.8522   -1.0568   -3.1475 C   0  0  0  0  0  0  0  0  0  0  0  0
   -2.5958   -4.7957   -2.3420 N   0  0  0  0  0  0  0  0  0  0  0  0
    1.8431    4.1617   -0.7366 H   0  0  0  0  0  0  0  0  0  0  0  0
    5.5133    3.8189    3.0158 H   0  0  0  0  0  0  0  0  0  0  0  0
    5.8914    4.6431    1.4112 H   0  0  0  0  0  0  0  0  0  0  0  0
    6.0983    1.6432    2.1291 H   0  0  0  0  0  0  0  0  0  0  0  0
    7.4556    2.7939    1.8649 H   0  0  0  0  0  0  0  0  0  0  0  0
    6.7823    3.2041   -0.4101 H   0  0  0  0  0  0  0  0  0  0  0  0
    5.3482    2.1169   -0.2431 H   0  0  0  0  0  0  0  0  0  0  0  0
    8.1197    0.4468    1.5168 H   0  0  0  0  0  0  0  0  0  0  0  0
    9.3226   -1.3651    0.0188 H   0  0  0  0  0  0  0  0  0  0  0  0
    6.9012    1.0972   -2.4447 H   0  0  0  0  0  0  0  0  0  0  0  0
    4.2730    5.9926   -0.0006 H   0  0  0  0  0  0  0  0  0  0  0  0
    4.8148    4.6725   -1.0936 H   0  0  0  0  0  0  0  0  0  0  0  0
   -0.3841    3.5587    0.2309 H   0  0  0  0  0  0  0  0  0  0  0  0
    0.1180    2.0698   -0.6915 H   0  0  0  0  0  0  0  0  0  0  0  0
   -0.8187    2.1776    2.2715 H   0  0  0  0  0  0  0  0  0  0  0  0
   -1.8101    1.5677    0.9127 H   0  0  0  0  0  0  0  0  0  0  0  0
    0.8270    0.2903    1.8733 H   0  0  0  0  0  0  0  0  0  0  0  0
   -0.2446   -0.2401    0.5387 H   0  0  0  0  0  0  0  0  0  0  0  0
   -1.2131    0.1455    3.4183 H   0  0  0  0  0  0  0  0  0  0  0  0
   -2.1508   -0.3445    2.0118 H   0  0  0  0  0  0  0  0  0  0  0  0
    0.3261   -1.7504    3.2298 H   0  0  0  0  0  0  0  0  0  0  0  0
   -1.3229   -2.2912    3.5284 H   0  0  0  0  0  0  0  0  0  0  0  0
    0.2230   -2.1529    0.8759 H   0  0  0  0  0  0  0  0  0  0  0  0
   -0.1902   -3.6694    1.7722 H   0  0  0  0  0  0  0  0  0  0  0  0
   -0.7742   -4.1325   -0.6260 H   0  0  0  0  0  0  0  0  0  0  0  0
   -6.0086   -3.2044   -1.3415 H   0  0  0  0  0  0  0  0  0  0  0  0
   -5.4197   -2.6695    0.2225 H   0  0  0  0  0  0  0  0  0  0  0  0
   -4.8746   -1.4545   -2.5113 H   0  0  0  0  0  0  0  0  0  0  0  0
   -4.1003   -0.7914   -1.0546 H   0  0  0  0  0  0  0  0  0  0  0  0
   -6.1741    0.4565   -1.6412 H   0  0  0  0  0  0  0  0  0  0  0  0
   -6.4939   -0.3927   -0.1030 H   0  0  0  0  0  0  0  0  0  0  0  0
   -8.1509   -2.6193   -0.3673 H   0  0  0  0  0  0  0  0  0  0  0  0
   -9.8792   -3.3730   -2.1236 H   0  0  0  0  0  0  0  0  0  0  0  0
   -7.4495   -0.3488   -3.8809 H   0  0  0  0  0  0  0  0  0  0  0  0
   -3.0294   -5.7561   -2.3303 H   0  0  0  0  0  0  0  0  0  0  0  0
   -1.9878   -4.4628   -3.0999 H   0  0  0  0  0  0  0  0  0  0  0  0
  1  2  2  0
  2  3  1  0
  3  4  1  0
  4  5  2  3
  5  6  1  0
  6  7  1  0
  7  8  1  0
  8  9  1  0
  9 10  1  0
 10 11  1  0
 11 12  2  0
 12 13  1  0
  4 14  1  0
  2 15  1  0
 15 16  1  0
 16 17  1  0
 17 18  1  0
 18 19  1  0
 19 20  1  0
 20 21  1  0
 21 22  2  0
 21 23  1  0
 23 24  1  0
 24 25  2  3
 25 26  1  0
 26 27  1  0
 27 28  1  0
 28 29  1  0
 29 30  1  0
 30 31  1  0
 31 32  2  0
 32 33  1  0
 24 34  1  0
 13  9  2  0
 33 29  2  0
  3 35  1  0
  6 36  1  0
  6 37  1  0
  7 38  1  0
  7 39  1  0
  8 40  1  0
  8 41  1  0
 10 42  1  0
 11 43  1  0
 13 44  1  0
 14 45  1  0
 14 46  1  0
 15 47  1  0
 15 48  1  0
 16 49  1  0
 16 50  1  0
 17 51  1  0
 17 52  1  0
 18 53  1  0
 18 54  1  0
 19 55  1  0
 19 56  1  0
 20 57  1  0
 20 58  1  0
 23 59  1  0
 26 60  1  0
 26 61  1  0
 27 62  1  0
 27 63  1  0
 28 64  1  0
 28 65  1  0
 30 66  1  0
 31 67  1  0
 33 68  1  0
 34 69  1  0
 34 70  1  0
M  END
>  <Ligand ID>  (1) 
LIG0001214

>  <Ligand>  (1) 
CHEMBL2165641

>  <SMILES>  (1) 
O=C(NC(=NCCCc1[nH]cnc1)N)CCCCCCC(=O)NC(=NCCCc1[nH]cnc1)N

>  <CID>  (1) 
56954320.0

>  <ChEMBL ID>  (1) 
nan

>  <InChiKey>  (1) 
UJVLJZYSFWQURQ-UHFFFAOYSA-N

>  <InChi>  (1) 
InChI=1S/C22H36N10O2/c23-21(27-11-5-7-17-13-25-15-29-17)31-19(33)9-3-1-2-4-10-20(34)32-22(24)28-12-6-8-18-14-26-16-30-18/h13-16H,1-12H2,(H,25,29)(H,26,30)(H3,23,27,31,33)(H3,24,28,32,34)

>  <IUPAC Name>  (1) 
N,N'-bis[N'-[3-(1H-imidazol-5-yl)propyl]carbamimidoyl]octanediamide

$$$$
