
     RDKit          3D

 35 37  0  0  0  0  0  0  0  0999 V2000
    2.3389    3.0837   -3.5194 O   0  0  0  0  0  0  0  0  0  0  0  0
    2.0853    2.2268   -2.6105 C   0  0  0  0  0  0  0  0  0  0  0  0
    0.8083    1.7526   -2.4204 C   0  0  0  0  0  0  0  0  0  0  0  0
    0.5084    0.8074   -1.4217 C   0  0  0  0  0  0  0  0  0  0  0  0
   -0.8789    0.3552   -1.2059 C   0  0  0  0  0  0  0  0  0  0  0  0
   -1.6382    1.0613   -0.1425 C   0  0  0  0  0  0  0  0  0  0  0  0
   -3.0620    0.5936    0.0602 C   0  0  0  0  0  0  0  0  0  0  0  0
   -3.0694   -0.8633    0.4510 C   0  0  0  0  0  0  0  0  0  0  0  0
   -4.3943   -1.5328    0.7071 C   0  0  0  0  0  0  0  0  0  0  0  0
   -3.5034   -1.2254    1.8645 C   0  0  0  0  0  0  0  0  0  0  0  0
    1.5886    0.4050   -0.6670 C   0  0  0  0  0  0  0  0  0  0  0  0
    2.8547    0.9369   -0.9259 C   0  0  0  0  0  0  0  0  0  0  0  0
    3.0573    1.8035   -1.8595 O   0  0  0  0  0  0  0  0  0  0  0  0
    3.8780    0.5058   -0.1568 N   0  0  0  0  0  0  0  0  0  0  0  0
    3.7427   -0.3988    0.8320 C   0  0  0  0  0  0  0  0  0  0  0  0
    2.4971   -0.8969    1.0547 N   0  0  0  0  0  0  0  0  0  0  0  0
    1.4400   -0.5081    0.3253 C   0  0  0  0  0  0  0  0  0  0  0  0
    0.3373   -0.9976    0.5732 O   0  0  0  0  0  0  0  0  0  0  0  0
    4.8974   -0.8536    1.6634 C   0  0  0  0  0  0  0  0  0  0  0  0
    5.0764   -2.2153    1.4050 F   0  0  0  0  0  0  0  0  0  0  0  0
    4.7019   -0.5816    2.9854 F   0  0  0  0  0  0  0  0  0  0  0  0
    0.0428    2.1410   -3.0748 H   0  0  0  0  0  0  0  0  0  0  0  0
   -1.4270    0.6633   -2.1517 H   0  0  0  0  0  0  0  0  0  0  0  0
   -1.0166   -0.7386   -1.2793 H   0  0  0  0  0  0  0  0  0  0  0  0
   -1.2174    1.1167    0.8569 H   0  0  0  0  0  0  0  0  0  0  0  0
   -1.7637    2.1492   -0.4910 H   0  0  0  0  0  0  0  0  0  0  0  0
   -3.4874    1.1595    0.9211 H   0  0  0  0  0  0  0  0  0  0  0  0
   -3.6772    0.7419   -0.8620 H   0  0  0  0  0  0  0  0  0  0  0  0
   -2.2680   -1.5379    0.0689 H   0  0  0  0  0  0  0  0  0  0  0  0
   -5.2873   -0.9073    0.6186 H   0  0  0  0  0  0  0  0  0  0  0  0
   -4.5379   -2.6073    0.4380 H   0  0  0  0  0  0  0  0  0  0  0  0
   -3.7230   -0.3330    2.5058 H   0  0  0  0  0  0  0  0  0  0  0  0
   -3.0692   -2.0834    2.3785 H   0  0  0  0  0  0  0  0  0  0  0  0
    2.3839   -1.5873    1.8054 H   0  0  0  0  0  0  0  0  0  0  0  0
    5.7819   -0.2927    1.2734 H   0  0  0  0  0  0  0  0  0  0  0  0
  1  2  2  0
  2  3  1  0
  3  4  2  0
  4  5  1  0
  5  6  1  0
  6  7  1  0
  7  8  1  0
  8  9  1  0
  9 10  1  0
  4 11  1  0
 11 12  2  0
 12 13  1  0
 12 14  1  0
 14 15  2  0
 15 16  1  0
 16 17  1  0
 17 18  2  0
 15 19  1  0
 19 20  1  0
 19 21  1  0
 13  2  1  0
 10  8  1  0
 17 11  1  0
  3 22  1  0
  5 23  1  0
  5 24  1  0
  6 25  1  0
  6 26  1  0
  7 27  1  0
  7 28  1  0
  8 29  1  0
  9 30  1  0
  9 31  1  0
 10 32  1  0
 10 33  1  0
 16 34  1  0
 19 35  1  0
M  END
>  <Ligand ID>  (1) 
LIG0001334

>  <Ligand>  (1) 
CHEMBL1671877

>  <SMILES>  (1) 
O=c1cc(CCCC2CC2)c2c(o1)nc([nH]c2=O)C(F)F

>  <CID>  (1) 
51346919.0

>  <ChEMBL ID>  (1) 
nan

>  <InChiKey>  (1) 
DFLJUOUAVYDDBB-UHFFFAOYSA-N

>  <InChi>  (1) 
InChI=1S/C14H14F2N2O3/c15-11(16)12-17-13(20)10-8(3-1-2-7-4-5-7)6-9(19)21-14(10)18-12/h6-7,11H,1-5H2,(H,17,18,20)

>  <IUPAC Name>  (1) 
5-(3-cyclopropylpropyl)-2-(difluoromethyl)-3H-pyrano[2,3-d]pyrimidine-4,7-dione

$$$$
