
     RDKit          3D

 54 57  0  0  0  0  0  0  0  0999 V2000
    2.1827    2.1551    0.7956 O   0  0  0  0  0  0  0  0  0  0  0  0
    3.1640    1.4373    0.4537 C   0  0  0  0  0  0  0  0  0  0  0  0
    4.5422    1.9857    0.3507 C   0  0  0  0  0  0  0  0  0  0  0  0
    5.3191    0.8087   -0.0676 C   0  0  0  0  0  0  0  0  0  0  0  0
    4.5162   -0.2794   -0.1939 C   0  0  0  0  0  0  0  0  0  0  0  0
    3.1485    0.0538    0.1210 N   0  0  0  0  0  0  0  0  0  0  0  0
    2.0051   -0.8384    0.1004 C   0  0  0  0  0  0  0  0  0  0  0  0
    1.0162   -0.4255   -0.9654 C   0  0  0  0  0  0  0  0  0  0  0  0
   -0.3552   -1.0211   -0.7188 C   0  0  0  0  0  0  0  0  0  0  0  0
   -0.8857   -0.6400    0.5145 N   0  0  0  0  0  0  0  0  0  0  0  0
    0.0080   -0.4310    1.5966 C   0  0  0  0  0  0  0  0  0  0  0  0
    1.3564   -1.0253    1.4414 C   0  0  0  0  0  0  0  0  0  0  0  0
   -2.1651   -0.0862    0.6201 C   0  0  0  0  0  0  0  0  0  0  0  0
   -2.1665    1.2420   -0.1811 C   0  0  0  0  0  0  0  0  0  0  0  0
   -3.5266    1.3338   -0.5590 C   0  0  0  0  0  0  0  0  0  0  0  0
   -4.5641    1.9807   -1.2625 C   0  0  0  0  0  0  0  0  0  0  0  0
   -5.7589    1.0210   -0.9678 C   0  0  0  0  0  0  0  0  0  0  0  0
   -5.4045   -0.3998   -0.8031 C   0  0  0  0  0  0  0  0  0  0  0  0
   -4.6390   -0.9575    0.3443 C   0  0  0  0  0  0  0  0  0  0  0  0
   -3.1696   -1.0926    0.1797 C   0  0  0  0  0  0  0  0  0  0  0  0
    5.0272   -1.5163   -0.5811 C   0  0  0  0  0  0  0  0  0  0  0  0
    6.3789   -1.6836   -0.8530 C   0  0  0  0  0  0  0  0  0  0  0  0
    7.1997   -0.5789   -0.7258 C   0  0  0  0  0  0  0  0  0  0  0  0
    6.6753    0.6371   -0.3413 C   0  0  0  0  0  0  0  0  0  0  0  0
    4.8862    2.4596    1.2904 H   0  0  0  0  0  0  0  0  0  0  0  0
    4.4872    2.7384   -0.4876 H   0  0  0  0  0  0  0  0  0  0  0  0
    2.3741   -1.8523   -0.2087 H   0  0  0  0  0  0  0  0  0  0  0  0
    0.9176    0.6762   -0.9015 H   0  0  0  0  0  0  0  0  0  0  0  0
    1.3459   -0.7145   -1.9739 H   0  0  0  0  0  0  0  0  0  0  0  0
   -0.2468   -2.1372   -0.7843 H   0  0  0  0  0  0  0  0  0  0  0  0
   -0.9924   -0.6618   -1.5524 H   0  0  0  0  0  0  0  0  0  0  0  0
   -0.4484   -0.8551    2.5103 H   0  0  0  0  0  0  0  0  0  0  0  0
    0.1032    0.6570    1.7905 H   0  0  0  0  0  0  0  0  0  0  0  0
    2.0068   -0.5389    2.2265 H   0  0  0  0  0  0  0  0  0  0  0  0
    1.3127   -2.0921    1.7653 H   0  0  0  0  0  0  0  0  0  0  0  0
   -2.4360    0.1937    1.6517 H   0  0  0  0  0  0  0  0  0  0  0  0
   -1.4076    1.2254   -0.9780 H   0  0  0  0  0  0  0  0  0  0  0  0
   -1.8046    2.0394    0.5335 H   0  0  0  0  0  0  0  0  0  0  0  0
   -3.5058    0.4453   -1.2110 H   0  0  0  0  0  0  0  0  0  0  0  0
   -3.9648    1.3603    0.4504 H   0  0  0  0  0  0  0  0  0  0  0  0
   -4.5200    2.0775   -2.3662 H   0  0  0  0  0  0  0  0  0  0  0  0
   -4.8666    2.9792   -0.8934 H   0  0  0  0  0  0  0  0  0  0  0  0
   -6.4599    1.1099   -1.7848 H   0  0  0  0  0  0  0  0  0  0  0  0
   -6.1715    1.3813   -0.0092 H   0  0  0  0  0  0  0  0  0  0  0  0
   -6.4432   -0.8696   -0.7681 H   0  0  0  0  0  0  0  0  0  0  0  0
   -5.0218   -0.8926   -1.7366 H   0  0  0  0  0  0  0  0  0  0  0  0
   -5.0012   -2.0400    0.4121 H   0  0  0  0  0  0  0  0  0  0  0  0
   -4.9906   -0.6120    1.3340 H   0  0  0  0  0  0  0  0  0  0  0  0
   -2.9951   -1.5286   -0.8256 H   0  0  0  0  0  0  0  0  0  0  0  0
   -2.8347   -1.9651    0.8330 H   0  0  0  0  0  0  0  0  0  0  0  0
    4.3729   -2.3645   -0.6748 H   0  0  0  0  0  0  0  0  0  0  0  0
    6.7554   -2.6532   -1.1525 H   0  0  0  0  0  0  0  0  0  0  0  0
    8.2651   -0.7130   -0.9406 H   0  0  0  0  0  0  0  0  0  0  0  0
    7.3795    1.4678   -0.2604 H   0  0  0  0  0  0  0  0  0  0  0  0
  1  2  2  0
  2  3  1  0
  3  4  1  0
  4  5  2  0
  5  6  1  0
  6  7  1  0
  7  8  1  0
  8  9  1  0
  9 10  1  0
 10 11  1  0
 11 12  1  0
 10 13  1  0
 13 14  1  0
 14 15  1  0
 15 16  1  0
 16 17  1  0
 17 18  1  0
 18 19  1  0
 19 20  1  0
  5 21  1  0
 21 22  2  0
 22 23  1  0
 23 24  2  0
  6  2  1  0
 12  7  1  0
 20 13  1  0
 24  4  1  0
  3 25  1  0
  3 26  1  0
  7 27  1  0
  8 28  1  0
  8 29  1  0
  9 30  1  0
  9 31  1  0
 11 32  1  0
 11 33  1  0
 12 34  1  0
 12 35  1  0
 13 36  1  0
 14 37  1  0
 14 38  1  0
 15 39  1  0
 15 40  1  0
 16 41  1  0
 16 42  1  0
 17 43  1  0
 17 44  1  0
 18 45  1  0
 18 46  1  0
 19 47  1  0
 19 48  1  0
 20 49  1  0
 20 50  1  0
 21 51  1  0
 22 52  1  0
 23 53  1  0
 24 54  1  0
M  END
>  <Ligand ID>  (1) 
LIG0003079

>  <Ligand>  (1) 
CHEMBL101454

>  <SMILES>  (1) 
O=C1Cc2c(N1C1CCN(CC1)C1CCCCCCC1)cccc2

>  <CID>  (1) 
9905428.0

>  <ChEMBL ID>  (1) 
nan

>  <InChiKey>  (1) 
KQVCYNWOQKXISA-UHFFFAOYSA-N

>  <InChi>  (1) 
InChI=1S/C21H30N2O/c24-21-16-17-8-6-7-11-20(17)23(21)19-12-14-22(15-13-19)18-9-4-2-1-3-5-10-18/h6-8,11,18-19H,1-5,9-10,12-16H2

>  <IUPAC Name>  (1) 
1-(1-cyclooctylpiperidin-4-yl)-3H-indol-2-one

$$$$
