
     RDKit          3D

 65 67  0  0  0  0  0  0  0  0999 V2000
    7.7658   -2.6088    2.2310 O   0  0  0  0  0  0  0  0  0  0  0  0
    6.8670   -3.4229    1.5492 C   0  0  0  0  0  0  0  0  0  0  0  0
    6.9338   -4.6728    1.7263 O   0  0  0  0  0  0  0  0  0  0  0  0
    5.8333   -2.8746    0.6217 C   0  0  0  0  0  0  0  0  0  0  0  0
    5.9940   -1.3802    0.6136 C   0  0  0  0  0  0  0  0  0  0  0  0
    4.9894   -0.6925   -0.3024 C   0  0  0  0  0  0  0  0  0  0  0  0
    5.2770    0.7916   -0.2021 C   0  0  0  0  0  0  0  0  0  0  0  0
    4.3031    1.5140   -1.0946 C   0  0  0  0  0  0  0  0  0  0  0  0
    2.8915    1.2637   -0.6931 C   0  0  0  0  0  0  0  0  0  0  0  0
    2.0724    0.6938   -1.5793 C   0  0  0  0  0  0  0  0  0  0  0  0
    0.6474    0.3091   -1.5223 C   0  0  0  0  0  0  0  0  0  0  0  0
   -0.1379    0.9949   -0.4287 C   0  0  1  0  0  0  0  0  0  0  0  0
    0.3603    2.3501   -0.0780 C   0  0  1  0  0  0  0  0  0  0  0  0
    1.4855    2.5493    0.5813 O   0  0  0  0  0  0  0  0  0  0  0  0
    2.4873    1.6703    0.6841 C   0  0  0  0  0  0  0  0  0  0  0  0
    0.1838    3.0923   -1.3957 C   0  0  0  0  0  0  0  0  0  0  0  0
   -1.2373    2.6891   -1.7467 C   0  0  2  0  0  0  0  0  0  0  0  0
   -1.4677    1.3369   -1.0517 C   0  0  2  0  0  0  0  0  0  0  0  0
   -2.6132    1.3811   -0.1477 C   0  0  0  0  0  0  0  0  0  0  0  0
   -2.5901    1.1527    1.1564 C   0  0  0  0  0  0  0  0  0  0  0  0
   -3.8107    1.2232    1.9818 C   0  0  2  0  0  0  0  0  0  0  0  0
   -4.9401    0.4259    1.3494 C   0  0  0  0  0  0  0  0  0  0  0  0
   -4.5679   -0.9385    1.2700 O   0  0  0  0  0  0  0  0  0  0  0  0
   -5.4715   -1.8480    0.7155 C   0  0  0  0  0  0  0  0  0  0  0  0
   -5.1767   -3.2013    0.6043 C   0  0  0  0  0  0  0  0  0  0  0  0
   -6.1101   -4.0654    0.0448 C   0  0  0  0  0  0  0  0  0  0  0  0
   -7.3393   -3.6295   -0.4134 C   0  0  0  0  0  0  0  0  0  0  0  0
   -7.6275   -2.2889   -0.3016 C   0  0  0  0  0  0  0  0  0  0  0  0
   -6.7137   -1.4185    0.2505 C   0  0  0  0  0  0  0  0  0  0  0  0
   -4.2271    2.5521    2.0328 O   0  0  0  0  0  0  0  0  0  0  0  0
   -1.4236    2.6128   -3.1187 O   0  0  0  0  0  0  0  0  0  0  0  0
    8.6220   -2.9520    2.6547 H   0  0  0  0  0  0  0  0  0  0  0  0
    4.8294   -3.1432    1.0032 H   0  0  0  0  0  0  0  0  0  0  0  0
    6.0070   -3.2664   -0.4026 H   0  0  0  0  0  0  0  0  0  0  0  0
    5.8167   -1.0085    1.6579 H   0  0  0  0  0  0  0  0  0  0  0  0
    7.0172   -1.0945    0.3570 H   0  0  0  0  0  0  0  0  0  0  0  0
    5.1704   -1.0738   -1.3218 H   0  0  0  0  0  0  0  0  0  0  0  0
    3.9610   -0.8846    0.0213 H   0  0  0  0  0  0  0  0  0  0  0  0
    5.2034    1.1631    0.8182 H   0  0  0  0  0  0  0  0  0  0  0  0
    6.2982    1.0321   -0.5676 H   0  0  0  0  0  0  0  0  0  0  0  0
    4.5335    2.6019   -1.1704 H   0  0  0  0  0  0  0  0  0  0  0  0
    4.4481    1.1115   -2.1094 H   0  0  0  0  0  0  0  0  0  0  0  0
    2.5553    0.4781   -2.5114 H   0  0  0  0  0  0  0  0  0  0  0  0
    0.2241    0.4508   -2.5372 H   0  0  0  0  0  0  0  0  0  0  0  0
    0.6441   -0.8088   -1.3833 H   0  0  0  0  0  0  0  0  0  0  0  0
   -0.1787    0.2976    0.4072 H   0  0  0  0  0  0  0  0  0  0  0  0
   -0.4597    2.8008    0.5581 H   0  0  0  0  0  0  0  0  0  0  0  0
    2.2969    0.7257    1.2299 H   0  0  0  0  0  0  0  0  0  0  0  0
    3.3651    2.2098    1.1415 H   0  0  0  0  0  0  0  0  0  0  0  0
    0.9110    2.7964   -2.1546 H   0  0  0  0  0  0  0  0  0  0  0  0
    0.2111    4.1636   -1.1428 H   0  0  0  0  0  0  0  0  0  0  0  0
   -1.9390    3.3972   -1.2734 H   0  0  0  0  0  0  0  0  0  0  0  0
   -1.7348    0.6309   -1.8711 H   0  0  0  0  0  0  0  0  0  0  0  0
   -3.5889    1.6251   -0.5734 H   0  0  0  0  0  0  0  0  0  0  0  0
   -1.6650    0.9122    1.6246 H   0  0  0  0  0  0  0  0  0  0  0  0
   -3.6630    0.8164    3.0021 H   0  0  0  0  0  0  0  0  0  0  0  0
   -5.8620    0.4752    1.9474 H   0  0  0  0  0  0  0  0  0  0  0  0
   -5.1913    0.7642    0.3363 H   0  0  0  0  0  0  0  0  0  0  0  0
   -4.2136   -3.5714    0.9582 H   0  0  0  0  0  0  0  0  0  0  0  0
   -5.9125   -5.1265   -0.0570 H   0  0  0  0  0  0  0  0  0  0  0  0
   -8.0790   -4.2948   -0.8534 H   0  0  0  0  0  0  0  0  0  0  0  0
   -8.5889   -1.9087   -0.6530 H   0  0  0  0  0  0  0  0  0  0  0  0
   -7.0068   -0.3788    0.3070 H   0  0  0  0  0  0  0  0  0  0  0  0
   -4.2620    2.9021    1.1143 H   0  0  0  0  0  0  0  0  0  0  0  0
   -2.4068    2.5965   -3.2658 H   0  0  0  0  0  0  0  0  0  0  0  0
  1  2  1  0
  2  3  2  0
  2  4  1  0
  4  5  1  0
  5  6  1  0
  6  7  1  0
  7  8  1  0
  8  9  1  0
  9 10  2  0
 10 11  1  0
 11 12  1  0
 12 13  1  0
 13 14  1  0
 14 15  1  0
 13 16  1  0
 16 17  1  0
 17 18  1  0
 18 19  1  0
 19 20  2  0
 20 21  1  0
 21 22  1  0
 22 23  1  0
 23 24  1  0
 24 25  2  0
 25 26  1  0
 26 27  2  0
 27 28  1  0
 28 29  2  0
 21 30  1  0
 17 31  1  0
 15  9  1  0
 29 24  1  0
 18 12  1  0
  1 32  1  0
  4 33  1  0
  4 34  1  0
  5 35  1  0
  5 36  1  0
  6 37  1  0
  6 38  1  0
  7 39  1  0
  7 40  1  0
  8 41  1  0
  8 42  1  0
 10 43  1  0
 11 44  1  0
 11 45  1  0
 12 46  1  1
 13 47  1  1
 15 48  1  0
 15 49  1  0
 16 50  1  0
 16 51  1  0
 17 52  1  1
 18 53  1  6
 19 54  1  0
 20 55  1  0
 21 56  1  1
 22 57  1  0
 22 58  1  0
 25 59  1  0
 26 60  1  0
 27 61  1  0
 28 62  1  0
 29 63  1  0
 30 64  1  0
 31 65  1  0
M  END
>  <Ligand ID>  (1) 
LIG0002912

>  <Ligand>  (1) 
CHEMBL3955821

>  <SMILES>  (1) 
OC(=O)CCCCCC1=CC[C@H]2[C@@H](OC1)C[C@H]([C@@H]2/C=C/[C@H](COc1ccccc1)O)O

>  <CID>  (1) 
134144861.0

>  <ChEMBL ID>  (1) 
nan

>  <InChiKey>  (1) 
MNMBYWCWGTYZOH-KKFXVKMKSA-N

>  <InChi>  (1) 
InChI=1S/C25H34O6/c26-19(17-30-20-8-4-2-5-9-20)12-14-21-22-13-11-18(7-3-1-6-10-25(28)29)16-31-24(22)15-23(21)27/h2,4-5,8-9,11-12,14,19,21-24,26-27H,1,3,6-7,10,13,15-17H2,(H,28,29)/b14-12+/t19-,21-,22-,23-,24+/m1/s1

>  <IUPAC Name>  (1) 
6-[(5aR,6R,7R,8aS)-7-hydroxy-6-[(E,3R)-3-hydroxy-4-phenoxybut-1-enyl]-5,5a,6,7,8,8a-hexahydro-2H-cyclopenta[b]oxepin-3-yl]hexanoic acid

$$$$
