
     RDKit          3D

 34 33  0  0  0  0  0  0  0  0999 V2000
    3.1621    0.1215    2.0262 O   0  0  0  0  0  0  0  0  0  0  0  0
    3.3751    0.0349    0.7721 C   0  0  0  0  0  0  0  0  0  0  0  0
    4.5722    0.5182    0.0190 C   0  0  0  0  0  0  0  0  0  0  0  0
    4.0355    0.7218   -1.3574 C   0  0  0  0  0  0  0  0  0  0  0  0
    2.6312    0.1708   -1.4161 C   0  0  0  0  0  0  0  0  0  0  0  0
    2.4550   -0.5692   -0.1582 N   0  0  0  0  0  0  0  0  0  0  0  0
    1.5578   -1.6653    0.1008 C   0  0  0  0  0  0  0  0  0  0  0  0
    0.2780   -1.1364    0.5760 C   0  0  0  0  0  0  0  0  0  0  0  0
   -0.7824   -0.7106    0.9869 C   0  0  0  0  0  0  0  0  0  0  0  0
   -2.0553   -0.2068    1.5052 C   0  0  0  0  0  0  0  0  0  0  0  0
   -2.8474    0.2263    0.3890 N   0  0  0  0  0  0  0  0  0  0  0  0
   -4.2430   -0.0634    0.7334 C   0  0  0  0  0  0  0  0  0  0  0  0
   -2.7020    1.6490    0.1573 C   0  0  0  0  0  0  0  0  0  0  0  0
   -2.5356   -0.4837   -0.8368 C   0  0  0  0  0  0  0  0  0  0  0  0
    0.0000    0.0000    0.0000 I   0  0  0  0  0  0  0  0  0  0  0  0
    5.0434    1.4086    0.4776 H   0  0  0  0  0  0  0  0  0  0  0  0
    5.2967   -0.3444    0.0326 H   0  0  0  0  0  0  0  0  0  0  0  0
    4.6870    0.1809   -2.0735 H   0  0  0  0  0  0  0  0  0  0  0  0
    4.0824    1.7967   -1.6546 H   0  0  0  0  0  0  0  0  0  0  0  0
    2.4827   -0.4847   -2.3056 H   0  0  0  0  0  0  0  0  0  0  0  0
    1.9172    1.0045   -1.4705 H   0  0  0  0  0  0  0  0  0  0  0  0
    1.3583   -2.2446   -0.8456 H   0  0  0  0  0  0  0  0  0  0  0  0
    1.9557   -2.4108    0.8038 H   0  0  0  0  0  0  0  0  0  0  0  0
   -2.5980   -0.9770    2.1116 H   0  0  0  0  0  0  0  0  0  0  0  0
   -1.8992    0.6376    2.2040 H   0  0  0  0  0  0  0  0  0  0  0  0
   -4.4596    0.3473    1.7334 H   0  0  0  0  0  0  0  0  0  0  0  0
   -4.3689   -1.1635    0.8299 H   0  0  0  0  0  0  0  0  0  0  0  0
   -4.9550    0.3452   -0.0071 H   0  0  0  0  0  0  0  0  0  0  0  0
   -2.2443    2.1754    1.0026 H   0  0  0  0  0  0  0  0  0  0  0  0
   -3.7160    2.0795   -0.0204 H   0  0  0  0  0  0  0  0  0  0  0  0
   -2.0458    1.8186   -0.7217 H   0  0  0  0  0  0  0  0  0  0  0  0
   -1.8415   -1.3309   -0.6695 H   0  0  0  0  0  0  0  0  0  0  0  0
   -2.1183    0.2177   -1.6127 H   0  0  0  0  0  0  0  0  0  0  0  0
   -3.4783   -0.8743   -1.3118 H   0  0  0  0  0  0  0  0  0  0  0  0
  1  2  2  0
  2  3  1  0
  3  4  1  0
  4  5  1  0
  5  6  1  0
  6  7  1  0
  7  8  1  0
  8  9  3  0
  9 10  1  0
 10 11  1  0
 11 12  1  0
 11 13  1  0
 11 14  1  0
  6  2  1  0
  3 16  1  0
  3 17  1  0
  4 18  1  0
  4 19  1  0
  5 20  1  0
  5 21  1  0
  7 22  1  0
  7 23  1  0
 10 24  1  0
 10 25  1  0
 12 26  1  0
 12 27  1  0
 12 28  1  0
 13 29  1  0
 13 30  1  0
 13 31  1  0
 14 32  1  0
 14 33  1  0
 14 34  1  0
M  CHG  2  11   1  15  -1
M  END
>  <Ligand ID>  (1) 
LIG0001176

>  <Ligand>  (1) 
Oxotremorine M

>  <SMILES>  (1) 
O=C1CCCN1CC#CC[N+](C)(C)C.[I-]

>  <CID>  (1) 
3027782.0

>  <ChEMBL ID>  (1) 
nan

>  <InChiKey>  (1) 
VVLMSCJCXMBGDI-UHFFFAOYSA-M

>  <InChi>  (1) 
InChI=1S/C11H19N2O.HI/c1-13(2,3)10-5-4-8-12-9-6-7-11(12)14;/h6-10H2,1-3H3;1H/q+1;/p-1

>  <IUPAC Name>  (1) 
trimethyl-[4-(2-oxopyrrolidin-1-yl)but-2-ynyl]azanium;iodide

$$$$
