
     RDKit          3D

126133  0  0  0  0  0  0  0  0999 V2000
    0.5066   -1.0345   -0.3900 O   0  0  0  0  0  0  0  0  0  0  0  0
    0.6666   -1.9971   -1.2157 C   0  0  0  0  0  0  0  0  0  0  0  0
   -0.3628   -2.1884   -2.1609 N   0  0  0  0  0  0  0  0  0  0  0  0
   -1.4610   -1.2678   -2.1043 C   0  0  0  0  0  0  0  0  0  0  0  0
   -1.3199   -0.1490   -2.9331 C   0  0  0  0  0  0  0  0  0  0  0  0
   -2.2729    0.8422   -2.9761 C   0  0  0  0  0  0  0  0  0  0  0  0
   -3.3777    0.6667   -2.1511 C   0  0  0  0  0  0  0  0  0  0  0  0
   -3.5371   -0.4227   -1.3298 C   0  0  0  0  0  0  0  0  0  0  0  0
   -2.5503   -1.4135   -1.3100 C   0  0  0  0  0  0  0  0  0  0  0  0
   -4.7094   -0.5679   -0.4393 C   0  0  0  0  0  0  0  0  0  0  0  0
   -4.8991   -1.6395    0.2119 O   0  0  0  0  0  0  0  0  0  0  0  0
   -5.6538    0.4633   -0.2732 N   0  0  0  0  0  0  0  0  0  0  0  0
   -6.7956    0.3915    0.5676 C   0  0  0  0  0  0  0  0  0  0  0  0
   -8.0438   -0.0069    0.1509 C   0  0  0  0  0  0  0  0  0  0  0  0
   -9.0811   -0.0306    1.0738 C   0  0  0  0  0  0  0  0  0  0  0  0
   -8.8395    0.3403    2.3726 C   0  0  0  0  0  0  0  0  0  0  0  0
   -7.5950    0.7483    2.8338 C   0  0  0  0  0  0  0  0  0  0  0  0
   -6.5792    0.7656    1.9017 C   0  0  0  0  0  0  0  0  0  0  0  0
   -5.2284    1.2023    2.3669 C   0  0  0  0  0  0  0  0  0  0  0  0
  -10.3842   -0.4385    0.5720 C   0  0  0  0  0  0  0  0  0  0  0  0
  -10.5135   -0.7370   -0.6367 O   0  0  0  0  0  0  0  0  0  0  0  0
  -11.5463   -0.5029    1.4684 N   0  0  0  0  0  0  0  0  0  0  0  0
  -12.7333   -0.9168    0.8121 C   0  0  0  0  0  0  0  0  0  0  0  0
  -12.7491   -2.2824    0.4841 C   0  0  0  0  0  0  0  0  0  0  0  0
  -13.7890   -2.8789   -0.1755 C   0  0  0  0  0  0  0  0  0  0  0  0
  -14.8568   -2.1060   -0.5276 C   0  0  0  0  0  0  0  0  0  0  0  0
  -14.8439   -0.7631   -0.2042 C   0  0  0  0  0  0  0  0  0  0  0  0
  -13.7941   -0.1504    0.4656 C   0  0  0  0  0  0  0  0  0  0  0  0
  -13.8150    1.1995    0.7977 C   0  0  0  0  0  0  0  0  0  0  0  0
  -14.9794    1.8657    0.3885 C   0  0  0  0  0  0  0  0  0  0  0  0
  -16.0131    1.2737   -0.2721 C   0  0  0  0  0  0  0  0  0  0  0  0
  -15.9814   -0.0565   -0.5894 C   0  0  0  0  0  0  0  0  0  0  0  0
  -17.4310    2.2129   -0.7457 S   0  0  0  0  0  0  0  0  0  0  0  0
  -18.0146    1.6887   -2.0104 O   0  0  0  0  0  0  0  0  0  0  0  0
  -16.9656    3.6324   -1.0290 O   0  0  0  0  0  0  0  0  0  0  0  0
  -18.5679    2.2080    0.4822 O   0  0  0  0  0  0  0  0  0  0  0  0
  -12.5951    2.0122    1.6901 S   0  0  0  0  0  0  0  0  0  0  0  0
  -11.2984    2.2745    1.0674 O   0  0  0  0  0  0  0  0  0  0  0  0
  -12.5953    1.7401    3.1758 O   0  0  0  0  0  0  0  0  0  0  0  0
  -13.1784    3.6579    1.7745 O   0  0  0  0  0  0  0  0  0  0  0  0
  -16.2169   -2.8221   -1.3796 S   0  0  0  0  0  0  0  0  0  0  0  0
  -16.4431   -2.1921   -2.7153 O   0  0  0  0  0  0  0  0  0  0  0  0
  -17.4927   -2.7381   -0.5633 O   0  0  0  0  0  0  0  0  0  0  0  0
  -15.8979   -4.4527   -1.6095 O   0  0  0  0  0  0  0  0  0  0  0  0
    1.8420   -2.7873   -1.1270 N   0  0  0  0  0  0  0  0  0  0  0  0
    2.7599   -2.4397   -0.0876 C   0  0  0  0  0  0  0  0  0  0  0  0
    2.6417   -3.1341    1.1009 C   0  0  0  0  0  0  0  0  0  0  0  0
    3.4562   -2.8625    2.1834 C   0  0  0  0  0  0  0  0  0  0  0  0
    4.3920   -1.8623    2.0141 C   0  0  0  0  0  0  0  0  0  0  0  0
    4.5175   -1.1576    0.8199 C   0  0  0  0  0  0  0  0  0  0  0  0
    3.7030   -1.4446   -0.2336 C   0  0  0  0  0  0  0  0  0  0  0  0
    5.5368   -0.1167    0.7967 C   0  0  0  0  0  0  0  0  0  0  0  0
    6.2476    0.1068    1.8055 O   0  0  0  0  0  0  0  0  0  0  0  0
    5.7746    0.6924   -0.3598 N   0  0  0  0  0  0  0  0  0  0  0  0
    6.8093    1.6777   -0.2143 C   0  0  0  0  0  0  0  0  0  0  0  0
    8.1182    1.3719   -0.5114 C   0  0  0  0  0  0  0  0  0  0  0  0
    9.1187    2.3092   -0.3724 C   0  0  0  0  0  0  0  0  0  0  0  0
    8.7852    3.5714    0.0730 C   0  0  0  0  0  0  0  0  0  0  0  0
    7.4645    3.8896    0.3755 C   0  0  0  0  0  0  0  0  0  0  0  0
    6.4452    2.9529    0.2400 C   0  0  0  0  0  0  0  0  0  0  0  0
    5.0301    3.2718    0.5598 C   0  0  0  0  0  0  0  0  0  0  0  0
   10.5194    2.0314   -0.6630 C   0  0  0  0  0  0  0  0  0  0  0  0
   11.4098    2.9321   -0.5490 O   0  0  0  0  0  0  0  0  0  0  0  0
   10.9661    0.7445   -1.0866 N   0  0  0  0  0  0  0  0  0  0  0  0
   12.3208    0.4394   -1.3753 C   0  0  0  0  0  0  0  0  0  0  0  0
   12.6678    0.6573   -2.7196 C   0  0  0  0  0  0  0  0  0  0  0  0
   13.9242    0.4178   -3.2097 C   0  0  0  0  0  0  0  0  0  0  0  0
   14.8688   -0.0516   -2.3474 C   0  0  0  0  0  0  0  0  0  0  0  0
   14.5311   -0.2666   -1.0279 C   0  0  0  0  0  0  0  0  0  0  0  0
   13.2591   -0.0280   -0.5149 C   0  0  0  0  0  0  0  0  0  0  0  0
   12.9400   -0.2484    0.8116 C   0  0  0  0  0  0  0  0  0  0  0  0
   14.0132   -0.7321    1.5806 C   0  0  0  0  0  0  0  0  0  0  0  0
   15.2645   -0.9703    1.0881 C   0  0  0  0  0  0  0  0  0  0  0  0
   15.5642   -0.7464   -0.2272 C   0  0  0  0  0  0  0  0  0  0  0  0
   16.5393   -1.5774    2.1451 S   0  0  0  0  0  0  0  0  0  0  0  0
   15.9796   -2.4280    3.2409 O   0  0  0  0  0  0  0  0  0  0  0  0
   17.5106   -2.3600    1.2945 O   0  0  0  0  0  0  0  0  0  0  0  0
   17.3947   -0.3240    2.8644 O   0  0  0  0  0  0  0  0  0  0  0  0
   11.4282    0.0411    1.5542 S   0  0  0  0  0  0  0  0  0  0  0  0
   11.2154    1.4070    2.1404 O   0  0  0  0  0  0  0  0  0  0  0  0
   11.5546   -0.7436    2.9130 O   0  0  0  0  0  0  0  0  0  0  0  0
   10.0871   -0.7217    0.9704 O   0  0  0  0  0  0  0  0  0  0  0  0
   16.4872   -0.3612   -2.9450 S   0  0  0  0  0  0  0  0  0  0  0  0
   17.4509    0.4835   -2.1617 O   0  0  0  0  0  0  0  0  0  0  0  0
   16.5840    0.0485   -4.3857 O   0  0  0  0  0  0  0  0  0  0  0  0
   16.8844   -1.9624   -2.7173 O   0  0  0  0  0  0  0  0  0  0  0  0
   -0.2903   -2.9651   -2.8425 H   0  0  0  0  0  0  0  0  0  0  0  0
   -0.4490   -0.0244   -3.5748 H   0  0  0  0  0  0  0  0  0  0  0  0
   -2.1737    1.7116   -3.6140 H   0  0  0  0  0  0  0  0  0  0  0  0
   -4.1190    1.4557   -2.1990 H   0  0  0  0  0  0  0  0  0  0  0  0
   -2.6221   -2.2878   -0.6882 H   0  0  0  0  0  0  0  0  0  0  0  0
   -5.5451    1.3841   -0.7948 H   0  0  0  0  0  0  0  0  0  0  0  0
   -8.1749   -0.2896   -0.8863 H   0  0  0  0  0  0  0  0  0  0  0  0
   -9.6292    0.3285    3.1030 H   0  0  0  0  0  0  0  0  0  0  0  0
   -7.3992    1.0389    3.8465 H   0  0  0  0  0  0  0  0  0  0  0  0
   -4.4251    0.6509    1.8317 H   0  0  0  0  0  0  0  0  0  0  0  0
   -5.1308    1.0185    3.4461 H   0  0  0  0  0  0  0  0  0  0  0  0
   -5.1842    2.2883    2.1871 H   0  0  0  0  0  0  0  0  0  0  0  0
  -11.4192   -0.2948    2.4597 H   0  0  0  0  0  0  0  0  0  0  0  0
  -11.9107   -2.9334    0.7494 H   0  0  0  0  0  0  0  0  0  0  0  0
  -13.7939   -3.9265   -0.4235 H   0  0  0  0  0  0  0  0  0  0  0  0
  -15.1040    2.9422    0.5969 H   0  0  0  0  0  0  0  0  0  0  0  0
  -16.8067   -0.5006   -1.1076 H   0  0  0  0  0  0  0  0  0  0  0  0
  -18.5659    3.0661    0.9927 H   0  0  0  0  0  0  0  0  0  0  0  0
  -13.2862    3.9102    0.8013 H   0  0  0  0  0  0  0  0  0  0  0  0
  -16.2161   -4.9823   -0.8139 H   0  0  0  0  0  0  0  0  0  0  0  0
    1.9816   -3.5608   -1.7995 H   0  0  0  0  0  0  0  0  0  0  0  0
    1.8983   -3.9097    1.1975 H   0  0  0  0  0  0  0  0  0  0  0  0
    3.3400   -3.4217    3.0973 H   0  0  0  0  0  0  0  0  0  0  0  0
    5.0352   -1.6506    2.8726 H   0  0  0  0  0  0  0  0  0  0  0  0
    3.7949   -0.9072   -1.1580 H   0  0  0  0  0  0  0  0  0  0  0  0
    5.2280    0.5612   -1.2303 H   0  0  0  0  0  0  0  0  0  0  0  0
    8.3409    0.3859   -0.8536 H   0  0  0  0  0  0  0  0  0  0  0  0
    9.5609    4.3202    0.1876 H   0  0  0  0  0  0  0  0  0  0  0  0
    7.1747    4.8746    0.7277 H   0  0  0  0  0  0  0  0  0  0  0  0
    4.5580    3.5375   -0.4098 H   0  0  0  0  0  0  0  0  0  0  0  0
    5.0022    4.1904    1.1745 H   0  0  0  0  0  0  0  0  0  0  0  0
    4.5252    2.4436    1.0852 H   0  0  0  0  0  0  0  0  0  0  0  0
   10.2830   -0.0479   -1.2847 H   0  0  0  0  0  0  0  0  0  0  0  0
   11.9351    1.0320   -3.4368 H   0  0  0  0  0  0  0  0  0  0  0  0
   14.1528    0.6004   -4.2605 H   0  0  0  0  0  0  0  0  0  0  0  0
   13.8787   -0.9421    2.6508 H   0  0  0  0  0  0  0  0  0  0  0  0
   16.5471   -0.9456   -0.5679 H   0  0  0  0  0  0  0  0  0  0  0  0
   16.8018    0.4157    3.1511 H   0  0  0  0  0  0  0  0  0  0  0  0
   10.1467   -1.6888    1.0129 H   0  0  0  0  0  0  0  0  0  0  0  0
   17.8822   -2.0277   -2.6675 H   0  0  0  0  0  0  0  0  0  0  0  0
  1  2  2  0
  2  3  1  0
  3  4  1  0
  4  5  2  0
  5  6  1  0
  6  7  2  0
  7  8  1  0
  8  9  2  0
  8 10  1  0
 10 11  2  0
 10 12  1  0
 12 13  1  0
 13 14  2  0
 14 15  1  0
 15 16  2  0
 16 17  1  0
 17 18  2  0
 18 19  1  0
 15 20  1  0
 20 21  2  0
 20 22  1  0
 22 23  1  0
 23 24  2  0
 24 25  1  0
 25 26  2  0
 26 27  1  0
 27 28  2  0
 28 29  1  0
 29 30  2  0
 30 31  1  0
 31 32  2  0
 31 33  1  0
 33 34  2  0
 33 35  2  0
 33 36  1  0
 29 37  1  0
 37 38  2  0
 37 39  2  0
 37 40  1  0
 26 41  1  0
 41 42  2  0
 41 43  2  0
 41 44  1  0
  2 45  1  0
 45 46  1  0
 46 47  2  0
 47 48  1  0
 48 49  2  0
 49 50  1  0
 50 51  2  0
 50 52  1  0
 52 53  2  0
 52 54  1  0
 54 55  1  0
 55 56  2  0
 56 57  1  0
 57 58  2  0
 58 59  1  0
 59 60  2  0
 60 61  1  0
 57 62  1  0
 62 63  2  0
 62 64  1  0
 64 65  1  0
 65 66  2  0
 66 67  1  0
 67 68  2  0
 68 69  1  0
 69 70  2  0
 70 71  1  0
 71 72  2  0
 72 73  1  0
 73 74  2  0
 73 75  1  0
 75 76  2  0
 75 77  2  0
 75 78  1  0
 71 79  1  0
 79 80  2  0
 79 81  2  0
 79 82  1  0
 68 83  1  0
 83 84  2  0
 83 85  2  0
 83 86  1  0
  9  4  1  0
 18 13  1  0
 28 23  1  0
 51 46  1  0
 60 55  1  0
 70 65  1  0
 32 27  1  0
 74 69  1  0
  3 87  1  0
  5 88  1  0
  6 89  1  0
  7 90  1  0
  9 91  1  0
 12 92  1  0
 14 93  1  0
 16 94  1  0
 17 95  1  0
 19 96  1  0
 19 97  1  0
 19 98  1  0
 22 99  1  0
 24100  1  0
 25101  1  0
 30102  1  0
 32103  1  0
 36104  1  0
 40105  1  0
 44106  1  0
 45107  1  0
 47108  1  0
 48109  1  0
 49110  1  0
 51111  1  0
 54112  1  0
 56113  1  0
 58114  1  0
 59115  1  0
 61116  1  0
 61117  1  0
 61118  1  0
 64119  1  0
 66120  1  0
 67121  1  0
 72122  1  0
 74123  1  0
 78124  1  0
 82125  1  0
 86126  1  0
M  END
>  <Ligand ID>  (1) 
LIG0003608

>  <Ligand>  (1) 
suramin

>  <SMILES>  (1) 
O=C(Nc1cccc(c1)C(=O)Nc1cc(ccc1C)C(=O)Nc1ccc(c2c1c(cc(c2)S(=O)(=O)O)S(=O)(=O)O)S(=O)(=O)O)Nc1cccc(c1)C(=O)Nc1cc(ccc1C)C(=O)Nc1ccc(c2c1c(cc(c2)S(=O)(=O)O)S(=O)(=O)O)S(=O)(=O)O

>  <CID>  (1) 
5361.0

>  <ChEMBL ID>  (1) 
nan

>  <InChiKey>  (1) 
FIAFUQMPZJWCLV-UHFFFAOYSA-N

>  <InChi>  (1) 
InChI=1S/C51H40N6O23S6/c1-25-9-11-29(49(60)54-37-13-15-41(83(69,70)71)35-21-33(81(63,64)65)23-43(45(35)37)85(75,76)77)19-39(25)56-47(58)27-5-3-7-31(17-27)52-51(62)53-32-8-4-6-28(18-32)48(59)57-40-20-30(12-10-26(40)2)50(61)55-38-14-16-42(84(72,73)74)36-22-34(82(66,67)68)24-44(46(36)38)86(78,79)80/h3-24H,1-2H3,(H,54,60)(H,55,61)(H,56,58)(H,57,59)(H2,52,53,62)(H,63,64,65)(H,66,67,68)(H,69,70,71)(H,72,73,74)(H,75,76,77)(H,78,79,80)

>  <IUPAC Name>  (1) 
8-[[4-methyl-3-[[3-[[3-[[2-methyl-5-[(4,6,8-trisulfonaphthalen-1-yl)carbamoyl]phenyl]carbamoyl]phenyl]carbamoylamino]benzoyl]amino]benzoyl]amino]naphthalene-1,3,5-trisulfonic acid

$$$$
