
     RDKit          3D

 32 33  0  0  0  0  0  0  0  0999 V2000
   -2.3068   -1.4932   -2.0806 O   0  0  0  0  0  0  0  0  0  0  0  0
   -2.9244   -1.1458   -0.8940 C   0  0  0  0  0  0  0  0  0  0  0  0
   -4.1436   -0.7710   -0.9014 O   0  0  0  0  0  0  0  0  0  0  0  0
   -2.2598   -1.1755    0.4302 C   0  0  0  0  0  0  0  0  0  0  0  0
   -1.0449   -0.2866    0.4170 C   0  0  1  0  0  0  0  0  0  0  0  0
    0.0558   -0.5625   -0.5306 C   0  0  1  0  0  0  0  0  0  0  0  0
   -0.7795    0.6347   -0.7140 C   0  0  2  0  0  0  0  0  0  0  0  0
   -0.2639    2.3008   -0.2901 P   0  0  0  0  0  0  0  0  0  0  0  0
    1.2269    2.5112   -0.4217 O   0  0  0  0  0  0  0  0  0  0  0  0
   -1.1017    3.4825   -1.2116 O   0  0  0  0  0  0  0  0  0  0  0  0
   -0.7334    2.5925    1.3103 O   0  0  0  0  0  0  0  0  0  0  0  0
    1.4556   -0.5396   -0.0793 C   0  0  0  0  0  0  0  0  0  0  0  0
    2.4059   -1.2615   -0.8052 C   0  0  0  0  0  0  0  0  0  0  0  0
    3.7328   -1.2633   -0.3953 C   0  0  0  0  0  0  0  0  0  0  0  0
    4.1785   -0.5884    0.6982 C   0  0  0  0  0  0  0  0  0  0  0  0
    3.2355    0.1336    1.4269 C   0  0  0  0  0  0  0  0  0  0  0  0
    1.9154    0.1400    1.0257 C   0  0  0  0  0  0  0  0  0  0  0  0
   -3.1618   -0.7763    1.4915 N   0  0  0  0  0  0  0  0  0  0  0  0
   -2.8523   -1.8182   -2.8885 H   0  0  0  0  0  0  0  0  0  0  0  0
   -1.8825   -2.2092    0.6401 H   0  0  0  0  0  0  0  0  0  0  0  0
   -0.7992    0.0848    1.4524 H   0  0  0  0  0  0  0  0  0  0  0  0
   -0.1259   -1.3658   -1.3059 H   0  0  0  0  0  0  0  0  0  0  0  0
   -1.4892    0.6418   -1.5965 H   0  0  0  0  0  0  0  0  0  0  0  0
   -0.4613    3.9694   -1.8134 H   0  0  0  0  0  0  0  0  0  0  0  0
   -1.1264    3.4663    1.4570 H   0  0  0  0  0  0  0  0  0  0  0  0
    2.1299   -1.8303   -1.6957 H   0  0  0  0  0  0  0  0  0  0  0  0
    4.4518   -1.8410   -0.9890 H   0  0  0  0  0  0  0  0  0  0  0  0
    5.2205   -0.6239    0.9718 H   0  0  0  0  0  0  0  0  0  0  0  0
    3.5592    0.6891    2.3134 H   0  0  0  0  0  0  0  0  0  0  0  0
    1.2235    0.7069    1.6236 H   0  0  0  0  0  0  0  0  0  0  0  0
   -3.3375   -1.5310    2.1792 H   0  0  0  0  0  0  0  0  0  0  0  0
   -3.9972   -0.2705    1.1753 H   0  0  0  0  0  0  0  0  0  0  0  0
  1  2  1  0
  2  3  2  0
  2  4  1  0
  4  5  1  0
  5  6  1  0
  6  7  1  0
  7  8  1  0
  8  9  2  0
  8 10  1  0
  8 11  1  0
  6 12  1  0
 12 13  2  0
 13 14  1  0
 14 15  2  0
 15 16  1  0
 16 17  2  0
  4 18  1  0
  7  5  1  0
 17 12  1  0
  1 19  1  0
  4 20  1  0
  5 21  1  1
  6 22  1  6
  7 23  1  6
 10 24  1  0
 11 25  1  0
 13 26  1  0
 14 27  1  0
 15 28  1  0
 16 29  1  0
 17 30  1  0
 18 31  1  0
 18 32  1  0
M  END
>  <Ligand ID>  (1) 
LIG0000658

>  <Ligand>  (1) 
CHEMBL392420

>  <SMILES>  (1) 
OC(=O)C([C@H]1[C@@H]([C@@H]1P(=O)(O)O)c1ccccc1)N

>  <CID>  (1) 
16739372.0

>  <ChEMBL ID>  (1) 
nan

>  <InChiKey>  (1) 
DLDXPEVIBANPLO-WPXGONGXSA-N

>  <InChi>  (1) 
InChI=1S/C11H14NO5P/c12-9(11(13)14)8-7(10(8)18(15,16)17)6-4-2-1-3-5-6/h1-5,7-10H,12H2,(H,13,14)(H2,15,16,17)/t7-,8+,9?,10-/m0/s1

>  <IUPAC Name>  (1) 
2-amino-2-[(1R,2R,3S)-2-phenyl-3-phosphonocyclopropyl]acetic acid

$$$$
