
     RDKit          3D

 56 59  0  0  0  0  0  0  0  0999 V2000
   -2.8910   -1.2459   -2.4298 C   0  0  0  0  0  0  0  0  0  0  0  0
   -2.2569   -0.7152   -1.2246 C   0  0  0  0  0  0  0  0  0  0  0  0
   -0.8585   -0.7334   -1.1774 C   0  0  0  0  0  0  0  0  0  0  0  0
   -0.1505   -0.2579   -0.0977 C   0  0  0  0  0  0  0  0  0  0  0  0
    1.2324   -0.3120   -0.1316 O   0  0  0  0  0  0  0  0  0  0  0  0
    1.9924    0.1608    0.9428 C   0  0  0  0  0  0  0  0  0  0  0  0
    3.4822    0.0104    0.6910 C   0  0  0  0  0  0  0  0  0  0  0  0
    3.9271    0.7620   -0.5238 C   0  0  0  0  0  0  0  0  0  0  0  0
    5.3360    0.6033   -0.7360 N   0  0  0  0  0  0  0  0  0  0  0  0
    6.1393    1.2427    0.2574 C   0  0  0  0  0  0  0  0  0  0  0  0
    7.6281    1.1016    0.0348 C   0  0  0  0  0  0  0  0  0  0  0  0
    7.9992   -0.3337    0.0384 C   0  0  0  0  0  0  0  0  0  0  0  0
    8.3767   -1.1093    1.1238 C   0  0  0  0  0  0  0  0  0  0  0  0
    8.6258   -2.3603    0.6666 N   0  0  0  0  0  0  0  0  0  0  0  0
    8.4133   -2.3885   -0.6823 C   0  0  0  0  0  0  0  0  0  0  0  0
    8.0345   -1.1499   -1.0405 N   0  0  0  0  0  0  0  0  0  0  0  0
   -0.8799    0.2439    0.9510 C   0  0  0  0  0  0  0  0  0  0  0  0
   -2.2493    0.2631    0.9076 C   0  0  0  0  0  0  0  0  0  0  0  0
   -2.9875   -0.2149   -0.1797 C   0  0  0  0  0  0  0  0  0  0  0  0
   -4.4309   -0.1466   -0.1214 C   0  0  0  0  0  0  0  0  0  0  0  0
   -5.0758    0.3957    0.9516 N   0  0  0  0  0  0  0  0  0  0  0  0
   -6.3989    0.3677    0.8020 C   0  0  0  0  0  0  0  0  0  0  0  0
   -6.6325   -0.2165   -0.4189 C   0  0  0  0  0  0  0  0  0  0  0  0
   -5.4056   -0.5116   -0.9414 N   0  0  0  0  0  0  0  0  0  0  0  0
   -7.9195   -0.4073   -0.9033 C   0  0  0  0  0  0  0  0  0  0  0  0
   -9.0067   -0.0032   -0.1465 C   0  0  0  0  0  0  0  0  0  0  0  0
   -8.7742    0.5830    1.0785 C   0  0  0  0  0  0  0  0  0  0  0  0
   -7.4898    0.7638    1.5420 C   0  0  0  0  0  0  0  0  0  0  0  0
   -7.2205    1.3923    2.8602 C   0  0  0  0  0  0  0  0  0  0  0  0
   -9.8459    0.9686    1.7965 F   0  0  0  0  0  0  0  0  0  0  0  0
   -2.0698   -1.5621   -3.1469 H   0  0  0  0  0  0  0  0  0  0  0  0
   -3.4726   -2.1767   -2.2853 H   0  0  0  0  0  0  0  0  0  0  0  0
   -3.4605   -0.5041   -3.0306 H   0  0  0  0  0  0  0  0  0  0  0  0
   -0.2835   -1.1290   -2.0024 H   0  0  0  0  0  0  0  0  0  0  0  0
    1.7268    1.2174    1.1414 H   0  0  0  0  0  0  0  0  0  0  0  0
    1.7329   -0.4687    1.8416 H   0  0  0  0  0  0  0  0  0  0  0  0
    4.0027    0.3740    1.5931 H   0  0  0  0  0  0  0  0  0  0  0  0
    3.6959   -1.0714    0.5211 H   0  0  0  0  0  0  0  0  0  0  0  0
    3.6355    1.8472   -0.4277 H   0  0  0  0  0  0  0  0  0  0  0  0
    3.3931    0.4092   -1.4307 H   0  0  0  0  0  0  0  0  0  0  0  0
    5.6160    0.8901   -1.6776 H   0  0  0  0  0  0  0  0  0  0  0  0
    5.8412    2.3140    0.2892 H   0  0  0  0  0  0  0  0  0  0  0  0
    5.9646    0.8119    1.2874 H   0  0  0  0  0  0  0  0  0  0  0  0
    8.1791    1.6682    0.8039 H   0  0  0  0  0  0  0  0  0  0  0  0
    7.9218    1.5420   -0.9426 H   0  0  0  0  0  0  0  0  0  0  0  0
    8.4550   -0.7665    2.1510 H   0  0  0  0  0  0  0  0  0  0  0  0
    8.5257   -3.2435   -1.3488 H   0  0  0  0  0  0  0  0  0  0  0  0
    7.8096   -0.9145   -2.0469 H   0  0  0  0  0  0  0  0  0  0  0  0
   -0.3632    0.6261    1.8179 H   0  0  0  0  0  0  0  0  0  0  0  0
   -2.7469    0.6825    1.7916 H   0  0  0  0  0  0  0  0  0  0  0  0
   -5.3189   -0.9598   -1.8528 H   0  0  0  0  0  0  0  0  0  0  0  0
   -8.0789   -0.8775   -1.8841 H   0  0  0  0  0  0  0  0  0  0  0  0
  -10.0104   -0.1642   -0.5496 H   0  0  0  0  0  0  0  0  0  0  0  0
   -6.1991    1.1633    3.2269 H   0  0  0  0  0  0  0  0  0  0  0  0
   -7.2801    2.5144    2.7989 H   0  0  0  0  0  0  0  0  0  0  0  0
   -7.9291    1.0249    3.6486 H   0  0  0  0  0  0  0  0  0  0  0  0
  1  2  1  0
  2  3  2  0
  3  4  1  0
  4  5  1  0
  5  6  1  0
  6  7  1  0
  7  8  1  0
  8  9  1  0
  9 10  1  0
 10 11  1  0
 11 12  1  0
 12 13  2  0
 13 14  1  0
 14 15  2  0
 15 16  1  0
  4 17  2  0
 17 18  1  0
 18 19  2  0
 19 20  1  0
 20 21  2  0
 21 22  1  0
 22 23  2  0
 23 24  1  0
 23 25  1  0
 25 26  2  0
 26 27  1  0
 27 28  2  0
 28 29  1  0
 27 30  1  0
 19  2  1  0
 24 20  1  0
 16 12  1  0
 28 22  1  0
  1 31  1  0
  1 32  1  0
  1 33  1  0
  3 34  1  0
  6 35  1  0
  6 36  1  0
  7 37  1  0
  7 38  1  0
  8 39  1  0
  8 40  1  0
  9 41  1  0
 10 42  1  0
 10 43  1  0
 11 44  1  0
 11 45  1  0
 13 46  1  0
 15 47  1  0
 16 48  1  0
 17 49  1  0
 18 50  1  0
 24 51  1  0
 25 52  1  0
 26 53  1  0
 29 54  1  0
 29 55  1  0
 29 56  1  0
M  END
>  <Ligand ID>  (1) 
LIG0001700

>  <Ligand>  (1) 
CHEMBL1083162

>  <SMILES>  (1) 
Cc1cc(OCCCNCCc2cnc[nH]2)ccc1c1nc2c([nH]1)ccc(c2C)F

>  <CID>  (1) 
46235428.0

>  <ChEMBL ID>  (1) 
nan

>  <InChiKey>  (1) 
DTGZGHPOXFQXNP-UHFFFAOYSA-N

>  <InChi>  (1) 
InChI=1S/C23H26FN5O/c1-15-12-18(30-11-3-9-25-10-8-17-13-26-14-27-17)4-5-19(15)23-28-21-7-6-20(24)16(2)22(21)29-23/h4-7,12-14,25H,3,8-11H2,1-2H3,(H,26,27)(H,28,29)

>  <IUPAC Name>  (1) 
3-[4-(5-fluoro-4-methyl-1H-benzimidazol-2-yl)-3-methylphenoxy]-N-[2-(1H-imidazol-5-yl)ethyl]propan-1-amine

$$$$
