
     RDKit          3D

 69 73  0  0  0  0  0  0  0  0999 V2000
   -4.3453    4.0992    2.0986 O   0  0  0  0  0  0  0  0  0  0  0  0
   -4.0852    4.7539    0.9145 C   0  0  0  0  0  0  0  0  0  0  0  0
   -3.4644    3.8076   -0.0965 C   0  0  1  0  0  0  0  0  0  0  0  0
   -2.1263    3.3642    0.3053 C   0  0  0  0  0  0  0  0  0  0  0  0
   -1.2847    4.3014    0.5610 O   0  0  0  0  0  0  0  0  0  0  0  0
   -1.7219    1.9835    0.4239 N   0  0  0  0  0  0  0  0  0  0  0  0
   -2.6618    0.9207    0.1286 C   0  0  0  0  0  0  0  0  0  0  0  0
   -1.9582   -0.3897    0.2385 C   0  0  0  0  0  0  0  0  0  0  0  0
   -2.5377   -1.5021    0.6519 C   0  0  0  0  0  0  0  0  0  0  0  0
   -3.9287   -1.6108    1.0544 C   0  0  0  0  0  0  0  0  0  0  0  0
   -4.9792   -1.0069    0.4078 C   0  0  0  0  0  0  0  0  0  0  0  0
   -6.2736   -1.1445    0.8498 C   0  0  0  0  0  0  0  0  0  0  0  0
   -6.5698   -1.8895    1.9530 C   0  0  0  0  0  0  0  0  0  0  0  0
   -5.5379   -2.5142    2.6320 C   0  0  0  0  0  0  0  0  0  0  0  0
   -4.2456   -2.3687    2.1794 C   0  0  0  0  0  0  0  0  0  0  0  0
   -8.2282   -2.0696    2.5257 Cl  0  0  0  0  0  0  0  0  0  0  0  0
   -0.5493   -0.4549   -0.1404 C   0  0  0  0  0  0  0  0  0  0  0  0
    0.2621    0.6449    0.1609 C   0  0  0  0  0  0  0  0  0  0  0  0
   -0.3594    1.7644    0.8558 C   0  0  0  0  0  0  0  0  0  0  0  0
    1.5080    0.2982   -0.3190 C   0  0  0  0  0  0  0  0  0  0  0  0
    1.4051   -0.9315   -0.8611 N   0  0  0  0  0  0  0  0  0  0  0  0
    0.1726   -1.4012   -0.7623 N   0  0  0  0  0  0  0  0  0  0  0  0
   -0.3307   -2.6760   -1.2152 C   0  0  0  0  0  0  0  0  0  0  0  0
    0.1444   -3.8625   -0.6917 C   0  0  0  0  0  0  0  0  0  0  0  0
   -0.3682   -5.0615   -1.1559 C   0  0  0  0  0  0  0  0  0  0  0  0
   -1.3494   -5.0350   -2.1387 C   0  0  0  0  0  0  0  0  0  0  0  0
   -1.8169   -3.8426   -2.6548 C   0  0  0  0  0  0  0  0  0  0  0  0
   -1.3121   -2.6378   -2.1986 C   0  0  0  0  0  0  0  0  0  0  0  0
   -1.8984   -1.1025   -2.8463 Cl  0  0  0  0  0  0  0  0  0  0  0  0
   -1.9807   -6.5500   -2.7085 Cl  0  0  0  0  0  0  0  0  0  0  0  0
    2.6845    1.1544   -0.2231 C   0  0  0  0  0  0  0  0  0  0  0  0
    2.5471    2.2734    0.3423 O   0  0  0  0  0  0  0  0  0  0  0  0
    3.9136    0.7183   -0.7523 N   0  0  0  0  0  0  0  0  0  0  0  0
    5.1433    1.4647   -0.7209 C   0  0  1  0  0  0  0  0  0  0  0  0
    6.2813    0.7533   -0.1230 C   0  0  0  0  0  0  0  0  0  0  0  0
    7.1627    1.2719    0.7745 C   0  0  0  0  0  0  0  0  0  0  0  0
    8.2228    0.5647    1.3137 C   0  0  0  0  0  0  0  0  0  0  0  0
    8.4155   -0.7614    0.9257 C   0  0  0  0  0  0  0  0  0  0  0  0
    7.5321   -1.3100    0.0145 C   0  0  0  0  0  0  0  0  0  0  0  0
    6.4806   -0.5777   -0.5078 C   0  0  0  0  0  0  0  0  0  0  0  0
    5.5151    1.7633   -2.1804 C   0  0  0  0  0  0  0  0  0  0  0  0
   -4.3354    2.7690   -0.3416 O   0  0  0  0  0  0  0  0  0  0  0  0
   -5.1369    4.4328    2.5726 H   0  0  0  0  0  0  0  0  0  0  0  0
   -3.4427    5.6280    1.1091 H   0  0  0  0  0  0  0  0  0  0  0  0
   -5.0462    5.1631    0.5463 H   0  0  0  0  0  0  0  0  0  0  0  0
   -3.3211    4.4237   -1.0245 H   0  0  0  0  0  0  0  0  0  0  0  0
   -3.4691    1.0133    0.8722 H   0  0  0  0  0  0  0  0  0  0  0  0
   -2.9900    1.0284   -0.9303 H   0  0  0  0  0  0  0  0  0  0  0  0
   -1.9653   -2.4484    0.7115 H   0  0  0  0  0  0  0  0  0  0  0  0
   -4.8141   -0.4148   -0.4677 H   0  0  0  0  0  0  0  0  0  0  0  0
   -7.1074   -0.6588    0.3278 H   0  0  0  0  0  0  0  0  0  0  0  0
   -5.7214   -3.1257    3.5260 H   0  0  0  0  0  0  0  0  0  0  0  0
   -3.4566   -2.8662    2.7267 H   0  0  0  0  0  0  0  0  0  0  0  0
   -0.3615    1.5977    1.9574 H   0  0  0  0  0  0  0  0  0  0  0  0
    0.2439    2.6736    0.6527 H   0  0  0  0  0  0  0  0  0  0  0  0
    0.8950   -3.8600    0.0589 H   0  0  0  0  0  0  0  0  0  0  0  0
    0.0093   -6.0024   -0.7399 H   0  0  0  0  0  0  0  0  0  0  0  0
   -2.5700   -3.7994   -3.4101 H   0  0  0  0  0  0  0  0  0  0  0  0
    3.9402   -0.2229   -1.2058 H   0  0  0  0  0  0  0  0  0  0  0  0
    5.0191    2.4516   -0.2006 H   0  0  0  0  0  0  0  0  0  0  0  0
    7.0086    2.3109    1.0760 H   0  0  0  0  0  0  0  0  0  0  0  0
    8.9203    0.9724    2.0226 H   0  0  0  0  0  0  0  0  0  0  0  0
    9.2157   -1.3713    1.3019 H   0  0  0  0  0  0  0  0  0  0  0  0
    7.6263   -2.3468   -0.3330 H   0  0  0  0  0  0  0  0  0  0  0  0
    5.8060   -1.0557   -1.2271 H   0  0  0  0  0  0  0  0  0  0  0  0
    6.5526    1.4440   -2.4162 H   0  0  0  0  0  0  0  0  0  0  0  0
    5.3834    2.8418   -2.4214 H   0  0  0  0  0  0  0  0  0  0  0  0
    4.8555    1.2229   -2.8886 H   0  0  0  0  0  0  0  0  0  0  0  0
   -5.2157    2.9979    0.0241 H   0  0  0  0  0  0  0  0  0  0  0  0
  1  2  1  0
  2  3  1  0
  3  4  1  0
  4  5  2  0
  4  6  1  0
  6  7  1  0
  7  8  1  0
  8  9  2  0
  9 10  1  0
 10 11  2  0
 11 12  1  0
 12 13  2  0
 13 14  1  0
 14 15  2  0
 13 16  1  0
  8 17  1  0
 17 18  2  0
 18 19  1  0
 18 20  1  0
 20 21  2  0
 21 22  1  0
 22 23  1  0
 23 24  2  0
 24 25  1  0
 25 26  2  0
 26 27  1  0
 27 28  2  0
 28 29  1  0
 26 30  1  0
 20 31  1  0
 31 32  2  0
 31 33  1  0
 33 34  1  0
 34 35  1  0
 35 36  2  0
 36 37  1  0
 37 38  2  0
 38 39  1  0
 39 40  2  0
 34 41  1  0
  3 42  1  0
 19  6  1  0
 28 23  1  0
 40 35  1  0
 15 10  1  0
 22 17  1  0
  1 43  1  0
  2 44  1  0
  2 45  1  0
  3 46  1  6
  7 47  1  0
  7 48  1  0
  9 49  1  0
 11 50  1  0
 12 51  1  0
 14 52  1  0
 15 53  1  0
 19 54  1  0
 19 55  1  0
 24 56  1  0
 25 57  1  0
 27 58  1  0
 33 59  1  0
 34 60  1  1
 36 61  1  0
 37 62  1  0
 38 63  1  0
 39 64  1  0
 40 65  1  0
 41 66  1  0
 41 67  1  0
 41 68  1  0
 42 69  1  0
M  END
>  <Ligand ID>  (1) 
LIG0005405

>  <Ligand>  (1) 
CHEMBL3921605

>  <SMILES>  (1) 
OC[C@@H](C(=O)N1C/C(=C\c2ccc(cc2)Cl)/c2c(C1)c(nn2c1ccc(cc1Cl)Cl)C(=O)N[C@@H](c1ccccc1)C)O

>  <CID>  (1) 
134139273.0

>  <ChEMBL ID>  (1) 
nan

>  <InChiKey>  (1) 
WJOMEJOSPBPKGI-YNXXKONLSA-N

>  <InChi>  (1) 
InChI=1S/C31H27Cl3N4O4/c1-18(20-5-3-2-4-6-20)35-30(41)28-24-16-37(31(42)27(40)17-39)15-21(13-19-7-9-22(32)10-8-19)29(24)38(36-28)26-12-11-23(33)14-25(26)34/h2-14,18,27,39-40H,15-17H2,1H3,(H,35,41)/b21-13+/t18-,27+/m1/s1

>  <IUPAC Name>  (1) 
(7E)-7-[(4-chlorophenyl)methylidene]-1-(2,4-dichlorophenyl)-5-[(2S)-2,3-dihydroxypropanoyl]-N-[(1R)-1-phenylethyl]-4,6-dihydropyrazolo[4,3-c]pyridine-3-carboxamide

$$$$
