
     RDKit          3D

 49 52  0  0  0  0  0  0  0  0999 V2000
   -5.0840    3.1141    1.1366 N   0  0  0  0  0  0  0  0  0  0  0  0
   -5.8200    2.2550    0.8095 C   0  0  0  0  0  0  0  0  0  0  0  0
   -6.7330    1.2235    0.4056 C   0  0  0  0  0  0  0  0  0  0  0  0
   -8.0408    1.5348    0.1310 C   0  0  0  0  0  0  0  0  0  0  0  0
   -8.8948    0.5719   -0.2308 N   0  0  0  0  0  0  0  0  0  0  0  0
   -8.4926   -0.7171   -0.3337 C   0  0  0  0  0  0  0  0  0  0  0  0
   -7.1747   -1.0681   -0.0640 C   0  0  0  0  0  0  0  0  0  0  0  0
   -6.3028   -0.1001    0.3035 C   0  0  0  0  0  0  0  0  0  0  0  0
   -4.8570   -0.3282    0.6017 C   0  0  0  0  0  0  0  0  0  0  0  0
   -4.0478   -0.0377   -0.5002 O   0  0  0  0  0  0  0  0  0  0  0  0
   -2.6732   -0.1541   -0.3815 C   0  0  0  0  0  0  0  0  0  0  0  0
   -2.0872   -0.5247    0.8175 C   0  0  0  0  0  0  0  0  0  0  0  0
   -0.7637   -0.6277    0.8937 N   0  0  0  0  0  0  0  0  0  0  0  0
   -0.0188   -0.3702   -0.1974 C   0  0  0  0  0  0  0  0  0  0  0  0
   -0.5569   -0.0111   -1.3708 N   0  0  0  0  0  0  0  0  0  0  0  0
   -1.8954    0.1033   -1.4809 C   0  0  0  0  0  0  0  0  0  0  0  0
    1.3827   -0.4516   -0.0605 N   0  0  0  0  0  0  0  0  0  0  0  0
    1.9563    0.2144    1.1266 C   0  0  0  0  0  0  0  0  0  0  0  0
    3.2494    0.9164    0.6991 C   0  0  0  0  0  0  0  0  0  0  0  0
    4.1549   -0.1274    0.1953 N   0  0  0  0  0  0  0  0  0  0  0  0
    3.6003   -1.3910   -0.2319 C   0  0  0  0  0  0  0  0  0  0  0  0
    2.2809   -1.1294   -0.9610 C   0  0  1  0  0  0  0  0  0  0  0  0
    1.6721   -2.4458   -1.4085 C   0  0  0  0  0  0  0  0  0  0  0  0
    5.5596    0.1615    0.1431 C   0  0  0  0  0  0  0  0  0  0  0  0
    6.5224   -0.6289    0.5698 O   0  0  0  0  0  0  0  0  0  0  0  0
    7.6943   -0.0874    0.3850 N   0  0  0  0  0  0  0  0  0  0  0  0
    7.5125    1.1333   -0.1982 C   0  0  0  0  0  0  0  0  0  0  0  0
    6.1614    1.2815   -0.3455 N   0  0  0  0  0  0  0  0  0  0  0  0
    8.5921    2.0689   -0.5839 C   0  0  0  0  0  0  0  0  0  0  0  0
    9.0787    2.7905    0.5063 F   0  0  0  0  0  0  0  0  0  0  0  0
    8.1498    3.0099   -1.4908 F   0  0  0  0  0  0  0  0  0  0  0  0
    9.6386    1.4099   -1.2090 F   0  0  0  0  0  0  0  0  0  0  0  0
   -8.3285    2.5683    0.2280 H   0  0  0  0  0  0  0  0  0  0  0  0
   -9.2209   -1.4410   -0.6250 H   0  0  0  0  0  0  0  0  0  0  0  0
   -6.8184   -2.0841   -0.1389 H   0  0  0  0  0  0  0  0  0  0  0  0
   -4.7339   -1.4263    0.7982 H   0  0  0  0  0  0  0  0  0  0  0  0
   -4.6153    0.2023    1.5266 H   0  0  0  0  0  0  0  0  0  0  0  0
   -2.7397   -0.7226    1.6625 H   0  0  0  0  0  0  0  0  0  0  0  0
   -2.2849    0.3932   -2.4432 H   0  0  0  0  0  0  0  0  0  0  0  0
    1.2728    1.0174    1.4745 H   0  0  0  0  0  0  0  0  0  0  0  0
    2.2179   -0.5235    1.9069 H   0  0  0  0  0  0  0  0  0  0  0  0
    3.6825    1.3742    1.5995 H   0  0  0  0  0  0  0  0  0  0  0  0
    3.0697    1.6175   -0.1215 H   0  0  0  0  0  0  0  0  0  0  0  0
    4.3213   -1.9320   -0.8854 H   0  0  0  0  0  0  0  0  0  0  0  0
    3.3721   -1.9558    0.6837 H   0  0  0  0  0  0  0  0  0  0  0  0
    2.5283   -0.4841   -1.8422 H   0  0  0  0  0  0  0  0  0  0  0  0
    1.5987   -3.1005   -0.5139 H   0  0  0  0  0  0  0  0  0  0  0  0
    2.2638   -2.8678   -2.2125 H   0  0  0  0  0  0  0  0  0  0  0  0
    0.6511   -2.2238   -1.7846 H   0  0  0  0  0  0  0  0  0  0  0  0
  1  2  3  0
  2  3  1  0
  3  4  2  0
  4  5  1  0
  5  6  2  0
  6  7  1  0
  7  8  2  0
  8  9  1  0
  9 10  1  0
 10 11  1  0
 11 12  2  0
 12 13  1  0
 13 14  2  0
 14 15  1  0
 15 16  2  0
 14 17  1  0
 17 18  1  0
 18 19  1  0
 19 20  1  0
 20 21  1  0
 21 22  1  0
 22 23  1  0
 20 24  1  0
 24 25  1  0
 25 26  1  0
 26 27  2  0
 27 28  1  0
 27 29  1  0
 29 30  1  0
 29 31  1  0
 29 32  1  0
  8  3  1  0
 16 11  1  0
 22 17  1  0
 28 24  2  0
  4 33  1  0
  6 34  1  0
  7 35  1  0
  9 36  1  0
  9 37  1  0
 12 38  1  0
 16 39  1  0
 18 40  1  0
 18 41  1  0
 19 42  1  0
 19 43  1  0
 21 44  1  0
 21 45  1  0
 22 46  1  6
 23 47  1  0
 23 48  1  0
 23 49  1  0
M  END
>  <Ligand ID>  (1) 
LIG0005304

>  <Ligand>  (1) 
CHEMBL2087086

>  <SMILES>  (1) 
N#Cc1cnccc1COc1cnc(nc1)N1CCN(C[C@H]1C)c1onc(n1)C(F)(F)F

>  <CID>  (1) 
51030897.0

>  <ChEMBL ID>  (1) 
nan

>  <InChiKey>  (1) 
JVGLCNLAIQFPNA-GFCCVEGCSA-N

>  <InChi>  (1) 
InChI=1S/C19H17F3N8O2/c1-12-10-29(18-27-16(28-32-18)19(20,21)22)4-5-30(12)17-25-8-15(9-26-17)31-11-13-2-3-24-7-14(13)6-23/h2-3,7-9,12H,4-5,10-11H2,1H3/t12-/m1/s1

>  <IUPAC Name>  (1) 
4-[[2-[(2R)-2-methyl-4-[3-(trifluoromethyl)-1,2,4-oxadiazol-5-yl]piperazin-1-yl]pyrimidin-5-yl]oxymethyl]pyridine-3-carbonitrile

$$$$
