
     RDKit          3D

149154  0  0  0  0  0  0  0  0999 V2000
   10.3681    1.5814   -0.0205 C   0  0  0  0  0  0  0  0  0  0  0  0
    9.0164    1.1625   -0.5601 C   0  0  0  0  0  0  0  0  0  0  0  0
    9.1131   -0.2350   -1.0783 C   0  0  0  0  0  0  0  0  0  0  0  0
    9.4909   -1.2798   -0.1057 C   0  0  0  0  0  0  0  0  0  0  0  0
    8.5881   -1.5358    1.0534 C   0  0  1  0  0  0  0  0  0  0  0  0
    7.2153   -1.9752    0.5883 C   0  0  0  0  0  0  0  0  0  0  0  0
    7.0894   -3.2236    0.4829 O   0  0  0  0  0  0  0  0  0  0  0  0
    6.1799   -1.0845    0.3111 N   0  0  0  0  0  0  0  0  0  0  0  0
    4.8054   -1.5412   -0.1389 C   0  0  1  0  0  0  0  0  0  0  0  0
    4.2807   -2.4263    0.9252 C   0  0  0  0  0  0  0  0  0  0  0  0
    2.9052   -2.9285    0.9247 C   0  0  0  0  0  0  0  0  0  0  0  0
    1.8925   -2.4109    0.4778 O   0  0  0  0  0  0  0  0  0  0  0  0
    2.7079   -4.2231    1.5434 N   0  0  0  0  0  0  0  0  0  0  0  0
    1.4796   -4.9150    1.7333 C   0  0  0  0  0  0  0  0  0  0  0  0
    0.5329   -4.3000    2.7270 C   0  0  0  0  0  0  0  0  0  0  0  0
   -0.6790   -5.2172    2.8165 C   0  0  0  0  0  0  0  0  0  0  0  0
   -1.5921   -5.1261    1.6242 C   0  0  0  0  0  0  0  0  0  0  0  0
   -2.1919   -3.7771    1.5415 C   0  0  1  0  0  0  0  0  0  0  0  0
   -3.0770   -3.6074    0.3586 N   0  0  0  0  0  0  0  0  0  0  0  0
   -3.2178   -2.3147   -0.1832 C   0  0  0  0  0  0  0  0  0  0  0  0
   -2.5766   -1.4296    0.5054 O   0  0  0  0  0  0  0  0  0  0  0  0
   -3.9296   -1.8030   -1.3359 C   0  0  2  0  0  0  0  0  0  0  0  0
   -3.7266   -0.2986   -1.3000 N   0  0  0  0  0  0  0  0  0  0  0  0
   -4.2495    0.4321   -0.1851 C   0  0  0  0  0  0  0  0  0  0  0  0
   -4.8721   -0.2555    0.6359 O   0  0  0  0  0  0  0  0  0  0  0  0
   -4.0543    1.9141   -0.0443 C   0  0  1  0  0  0  0  0  0  0  0  0
   -3.2094    2.2729   -1.1943 N   0  0  0  0  0  0  0  0  0  0  0  0
   -1.7825    2.4182   -1.0395 C   0  0  0  0  0  0  0  0  0  0  0  0
   -1.3763    2.2250    0.1122 O   0  0  0  0  0  0  0  0  0  0  0  0
   -0.9034    2.7677   -2.1997 C   0  0  2  0  0  0  0  0  0  0  0  0
    0.4633    2.6801   -1.7450 N   0  0  0  0  0  0  0  0  0  0  0  0
    1.1840    1.3994   -1.8010 C   0  0  0  0  0  0  0  0  0  0  0  0
    0.4678    0.4656   -2.1726 O   0  0  0  0  0  0  0  0  0  0  0  0
    2.5953    1.3375   -1.4236 C   0  0  1  0  0  0  0  0  0  0  0  0
    2.9840   -0.0767   -1.2763 N   0  0  0  0  0  0  0  0  0  0  0  0
    4.1427   -0.3189   -0.5014 C   0  0  0  0  0  0  0  0  0  0  0  0
    4.6830    0.7708   -0.0696 O   0  0  0  0  0  0  0  0  0  0  0  0
    3.4777    1.7739   -2.6229 C   0  0  0  0  0  0  0  0  0  0  0  0
    3.2283    3.1189   -3.0930 C   0  0  0  0  0  0  0  0  0  0  0  0
    3.8852    4.2211   -2.6037 N   0  0  0  0  0  0  0  0  0  0  0  0
    3.4514    5.3019   -3.2624 C   0  0  0  0  0  0  0  0  0  0  0  0
    2.5255    4.9609   -4.1747 N   0  0  0  0  0  0  0  0  0  0  0  0
    2.3689    3.6067   -4.0901 C   0  0  0  0  0  0  0  0  0  0  0  0
   -1.2692    4.0408   -2.8795 C   0  0  0  0  0  0  0  0  0  0  0  0
   -1.2598    5.2427   -2.0408 C   0  0  0  0  0  0  0  0  0  0  0  0
   -2.4743    5.6019   -1.4523 C   0  0  0  0  0  0  0  0  0  0  0  0
   -2.5545    6.7286   -0.6566 C   0  0  0  0  0  0  0  0  0  0  0  0
   -1.4590    7.5384   -0.4106 C   0  0  0  0  0  0  0  0  0  0  0  0
   -0.2324    7.1885   -0.9956 C   0  0  0  0  0  0  0  0  0  0  0  0
   -0.1882    6.0533   -1.7851 C   0  0  0  0  0  0  0  0  0  0  0  0
    0.9023    7.9463   -0.8014 C   0  0  0  0  0  0  0  0  0  0  0  0
    0.7564    9.0739    0.0071 C   0  0  0  0  0  0  0  0  0  0  0  0
   -0.4224    9.4474    0.5962 C   0  0  0  0  0  0  0  0  0  0  0  0
   -1.5277    8.6508    0.3671 C   0  0  0  0  0  0  0  0  0  0  0  0
   -5.3128    2.6798   -0.0158 C   0  0  0  0  0  0  0  0  0  0  0  0
   -6.1717    2.2375    1.1418 C   0  0  0  0  0  0  0  0  0  0  0  0
   -7.4841    3.0216    1.2168 C   0  0  0  0  0  0  0  0  0  0  0  0
   -8.2561    2.5175    2.3382 N   0  0  0  0  0  0  0  0  0  0  0  0
   -8.7870    1.3798    2.4445 C   0  0  0  0  0  0  0  0  0  0  0  0
   -8.7192    0.3463    1.4342 N   0  0  0  0  0  0  0  0  0  0  0  0
   -9.5014    1.0492    3.6140 N   0  0  0  0  0  0  0  0  0  0  0  0
   -5.3264   -2.0719   -1.6578 C   0  0  0  0  0  0  0  0  0  0  0  0
   -5.7066   -3.4630   -1.8746 C   0  0  0  0  0  0  0  0  0  0  0  0
   -5.6415   -4.0778   -3.1288 C   0  0  0  0  0  0  0  0  0  0  0  0
   -6.0115   -5.3631   -2.9925 N   0  0  0  0  0  0  0  0  0  0  0  0
   -6.3222   -5.6413   -1.7111 C   0  0  0  0  0  0  0  0  0  0  0  0
   -6.1317   -4.4646   -1.0327 C   0  0  0  0  0  0  0  0  0  0  0  0
   -6.3759   -4.3753    0.3279 C   0  0  0  0  0  0  0  0  0  0  0  0
   -6.8150   -5.5247    0.9641 C   0  0  0  0  0  0  0  0  0  0  0  0
   -7.0007   -6.6959    0.2762 C   0  0  0  0  0  0  0  0  0  0  0  0
   -6.7577   -6.7770   -1.0743 C   0  0  0  0  0  0  0  0  0  0  0  0
   -2.9741   -3.4756    2.7768 C   0  0  0  0  0  0  0  0  0  0  0  0
   -2.4710   -3.4515    3.9362 O   0  0  0  0  0  0  0  0  0  0  0  0
   -4.3763   -3.1838    2.7432 N   0  0  0  0  0  0  0  0  0  0  0  0
    9.1339   -2.6952    1.7848 N   0  0  0  0  0  0  0  0  0  0  0  0
    9.2569   -2.5510    3.1779 C   0  0  0  0  0  0  0  0  0  0  0  0
    8.9159   -1.4760    3.7750 O   0  0  0  0  0  0  0  0  0  0  0  0
    9.7884   -3.6165    4.0776 C   0  0  0  0  0  0  0  0  0  0  0  0
   10.8562    2.3468   -0.6729 H   0  0  0  0  0  0  0  0  0  0  0  0
   11.0789    0.7525    0.0236 H   0  0  0  0  0  0  0  0  0  0  0  0
   10.2198    1.9901    0.9894 H   0  0  0  0  0  0  0  0  0  0  0  0
    8.7969    1.8117   -1.4656 H   0  0  0  0  0  0  0  0  0  0  0  0
    8.2104    1.3797    0.1329 H   0  0  0  0  0  0  0  0  0  0  0  0
    9.8990   -0.2094   -1.9024 H   0  0  0  0  0  0  0  0  0  0  0  0
    8.1748   -0.4486   -1.6373 H   0  0  0  0  0  0  0  0  0  0  0  0
    9.5382   -2.2685   -0.6768 H   0  0  0  0  0  0  0  0  0  0  0  0
   10.5440   -1.1469    0.2211 H   0  0  0  0  0  0  0  0  0  0  0  0
    8.4855   -0.7144    1.7537 H   0  0  0  0  0  0  0  0  0  0  0  0
    6.3597   -0.0608    0.4044 H   0  0  0  0  0  0  0  0  0  0  0  0
    5.0321   -2.2218   -1.0143 H   0  0  0  0  0  0  0  0  0  0  0  0
    4.9333   -3.3702    0.8696 H   0  0  0  0  0  0  0  0  0  0  0  0
    4.5688   -2.0223    1.9446 H   0  0  0  0  0  0  0  0  0  0  0  0
    3.5805   -4.6617    1.8739 H   0  0  0  0  0  0  0  0  0  0  0  0
    0.9492   -4.9944    0.7570 H   0  0  0  0  0  0  0  0  0  0  0  0
    1.7155   -5.9485    2.1164 H   0  0  0  0  0  0  0  0  0  0  0  0
    1.0106   -4.2879    3.7461 H   0  0  0  0  0  0  0  0  0  0  0  0
    0.2683   -3.2704    2.4936 H   0  0  0  0  0  0  0  0  0  0  0  0
   -1.2011   -5.1667    3.7703 H   0  0  0  0  0  0  0  0  0  0  0  0
   -0.2789   -6.3041    2.7453 H   0  0  0  0  0  0  0  0  0  0  0  0
   -2.3651   -5.9438    1.7041 H   0  0  0  0  0  0  0  0  0  0  0  0
   -1.0184   -5.4082    0.7028 H   0  0  0  0  0  0  0  0  0  0  0  0
   -1.4037   -2.9987    1.4393 H   0  0  0  0  0  0  0  0  0  0  0  0
   -3.5508   -4.3764   -0.0653 H   0  0  0  0  0  0  0  0  0  0  0  0
   -3.2953   -2.0872   -2.2470 H   0  0  0  0  0  0  0  0  0  0  0  0
   -3.2610    0.2174   -2.0100 H   0  0  0  0  0  0  0  0  0  0  0  0
   -3.4979    2.0700    0.9095 H   0  0  0  0  0  0  0  0  0  0  0  0
   -3.5573    2.4374   -2.1309 H   0  0  0  0  0  0  0  0  0  0  0  0
   -1.0965    1.9225   -2.9410 H   0  0  0  0  0  0  0  0  0  0  0  0
    1.0330    3.4316   -1.3642 H   0  0  0  0  0  0  0  0  0  0  0  0
    2.8824    1.8926   -0.5378 H   0  0  0  0  0  0  0  0  0  0  0  0
    2.5064   -0.8682   -1.6644 H   0  0  0  0  0  0  0  0  0  0  0  0
    4.5054    1.6117   -2.2609 H   0  0  0  0  0  0  0  0  0  0  0  0
    3.2900    0.9842   -3.4016 H   0  0  0  0  0  0  0  0  0  0  0  0
    4.6186    4.2116   -1.8267 H   0  0  0  0  0  0  0  0  0  0  0  0
    3.8400    6.3148   -3.0503 H   0  0  0  0  0  0  0  0  0  0  0  0
    1.7076    3.0037   -4.6776 H   0  0  0  0  0  0  0  0  0  0  0  0
   -2.2424    3.8778   -3.3835 H   0  0  0  0  0  0  0  0  0  0  0  0
   -0.5273    4.1469   -3.7355 H   0  0  0  0  0  0  0  0  0  0  0  0
   -3.3759    5.0373   -1.5814 H   0  0  0  0  0  0  0  0  0  0  0  0
   -3.5026    7.0150   -0.1978 H   0  0  0  0  0  0  0  0  0  0  0  0
    0.7645    5.8061   -2.2078 H   0  0  0  0  0  0  0  0  0  0  0  0
    1.8334    7.6659   -1.2553 H   0  0  0  0  0  0  0  0  0  0  0  0
    1.6393    9.6695    0.1597 H   0  0  0  0  0  0  0  0  0  0  0  0
   -0.5285   10.3177    1.2194 H   0  0  0  0  0  0  0  0  0  0  0  0
   -2.4913    8.8912    0.8048 H   0  0  0  0  0  0  0  0  0  0  0  0
   -5.8670    2.4491   -0.9804 H   0  0  0  0  0  0  0  0  0  0  0  0
   -5.1597    3.7814   -0.0142 H   0  0  0  0  0  0  0  0  0  0  0  0
   -5.6469    2.2463    2.1088 H   0  0  0  0  0  0  0  0  0  0  0  0
   -6.5208    1.1772    0.9648 H   0  0  0  0  0  0  0  0  0  0  0  0
   -8.0719    2.8336    0.2998 H   0  0  0  0  0  0  0  0  0  0  0  0
   -7.2548    4.0800    1.3637 H   0  0  0  0  0  0  0  0  0  0  0  0
   -9.2632    0.4661    0.5618 H   0  0  0  0  0  0  0  0  0  0  0  0
   -8.1083   -0.4737    1.6597 H   0  0  0  0  0  0  0  0  0  0  0  0
  -10.2192    0.2601    3.6523 H   0  0  0  0  0  0  0  0  0  0  0  0
   -9.3802    1.5413    4.5284 H   0  0  0  0  0  0  0  0  0  0  0  0
   -6.0291   -1.6328   -0.8627 H   0  0  0  0  0  0  0  0  0  0  0  0
   -5.5755   -1.5251   -2.6136 H   0  0  0  0  0  0  0  0  0  0  0  0
   -5.3387   -3.5947   -4.0529 H   0  0  0  0  0  0  0  0  0  0  0  0
   -6.0302   -6.0174   -3.8264 H   0  0  0  0  0  0  0  0  0  0  0  0
   -6.2378   -3.4317    0.8377 H   0  0  0  0  0  0  0  0  0  0  0  0
   -7.0068   -5.4407    2.0364 H   0  0  0  0  0  0  0  0  0  0  0  0
   -7.3383   -7.5836    0.7717 H   0  0  0  0  0  0  0  0  0  0  0  0
   -6.8955   -7.6873   -1.6611 H   0  0  0  0  0  0  0  0  0  0  0  0
   -4.6510   -2.1860    2.5530 H   0  0  0  0  0  0  0  0  0  0  0  0
   -5.1179   -3.8955    2.8989 H   0  0  0  0  0  0  0  0  0  0  0  0
    9.4130   -3.5783    1.3164 H   0  0  0  0  0  0  0  0  0  0  0  0
    9.2003   -4.5561    3.9549 H   0  0  0  0  0  0  0  0  0  0  0  0
    9.6913   -3.3634    5.1520 H   0  0  0  0  0  0  0  0  0  0  0  0
   10.8524   -3.8429    3.8484 H   0  0  0  0  0  0  0  0  0  0  0  0
  1  2  1  0
  2  3  1  0
  3  4  1  0
  4  5  1  0
  5  6  1  0
  6  7  2  0
  6  8  1  0
  8  9  1  0
  9 10  1  0
 10 11  1  0
 11 12  2  0
 11 13  1  0
 13 14  1  0
 14 15  1  0
 15 16  1  0
 16 17  1  0
 17 18  1  0
 18 19  1  0
 19 20  1  0
 20 21  2  0
 20 22  1  0
 22 23  1  0
 23 24  1  0
 24 25  2  0
 24 26  1  0
 26 27  1  0
 27 28  1  0
 28 29  2  0
 28 30  1  0
 30 31  1  0
 31 32  1  0
 32 33  2  0
 32 34  1  0
 34 35  1  0
 35 36  1  0
 36 37  2  0
 34 38  1  0
 38 39  1  0
 39 40  1  0
 40 41  1  0
 41 42  2  0
 42 43  1  0
 30 44  1  0
 44 45  1  0
 45 46  2  0
 46 47  1  0
 47 48  2  0
 48 49  1  0
 49 50  2  0
 49 51  1  0
 51 52  2  0
 52 53  1  0
 53 54  2  0
 26 55  1  0
 55 56  1  0
 56 57  1  0
 57 58  1  0
 58 59  2  3
 59 60  1  0
 59 61  1  0
 22 62  1  0
 62 63  1  0
 63 64  2  0
 64 65  1  0
 65 66  1  0
 66 67  2  0
 67 68  1  0
 68 69  2  0
 69 70  1  0
 70 71  2  0
 18 72  1  0
 72 73  2  0
 72 74  1  0
  5 75  1  0
 75 76  1  0
 76 77  2  0
 76 78  1  0
 36  9  1  0
 43 39  2  0
 50 45  1  0
 67 63  1  0
 54 48  1  0
 71 66  1  0
  1 79  1  0
  1 80  1  0
  1 81  1  0
  2 82  1  0
  2 83  1  0
  3 84  1  0
  3 85  1  0
  4 86  1  0
  4 87  1  0
  5 88  1  1
  8 89  1  0
  9 90  1  6
 10 91  1  0
 10 92  1  0
 13 93  1  0
 14 94  1  0
 14 95  1  0
 15 96  1  0
 15 97  1  0
 16 98  1  0
 16 99  1  0
 17100  1  0
 17101  1  0
 18102  1  6
 19103  1  0
 22104  1  6
 23105  1  0
 26106  1  1
 27107  1  0
 30108  1  6
 31109  1  0
 34110  1  1
 35111  1  0
 38112  1  0
 38113  1  0
 40114  1  0
 41115  1  0
 43116  1  0
 44117  1  0
 44118  1  0
 46119  1  0
 47120  1  0
 50121  1  0
 51122  1  0
 52123  1  0
 53124  1  0
 54125  1  0
 55126  1  0
 55127  1  0
 56128  1  0
 56129  1  0
 57130  1  0
 57131  1  0
 60132  1  0
 60133  1  0
 61134  1  0
 61135  1  0
 62136  1  0
 62137  1  0
 64138  1  0
 65139  1  0
 68140  1  0
 69141  1  0
 70142  1  0
 71143  1  0
 74144  1  0
 74145  1  0
 75146  1  0
 78147  1  0
 78148  1  0
 78149  1  0
M  END
>  <Ligand ID>  (1) 
LIG0000972

>  <Ligand>  (1) 
CHEMBL266417

>  <SMILES>  (1) 
CCCC[C@@H](C(=O)N[C@H]1CC(=O)NCCCC[C@@H](NC(=O)[C@H](NC(=O)[C@@H](NC(=O)[C@H](NC(=O)[C@@H](NC1=O)Cc1[nH]cnc1)Cc1ccc2c(c1)cccc2)CCCN=C(N)N)Cc1c[nH]c2c1cccc2)C(=O)N)NC(=O)C

>  <CID>  (1) 
44343341.0

>  <ChEMBL ID>  (1) 
nan

>  <InChiKey>  (1) 
GGYWLZFXFKFWKL-MYJAXEPASA-N

>  <InChi>  (1) 
InChI=1S/C54H71N15O9/c1-3-4-15-40(63-31(2)70)48(73)69-45-27-46(71)59-21-10-9-17-39(47(55)72)64-51(76)43(25-35-28-61-38-16-8-7-14-37(35)38)67-49(74)41(18-11-22-60-54(56)57)65-50(75)42(24-32-19-20-33-12-5-6-13-34(33)23-32)66-52(77)44(68-53(45)78)26-36-29-58-30-62-36/h5-8,12-14,16,19-20,23,28-30,39-45,61H,3-4,9-11,15,17-18,21-22,24-27H2,1-2H3,(H2,55,72)(H,58,62)(H,59,71)(H,63,70)(H,64,76)(H,65,75)(H,66,77)(H,67,74)(H,68,78)(H,69,73)(H4,56,57,60)/t39-,40+,41+,42-,43-,44+,45+/m1/s1

>  <IUPAC Name>  (1) 
(3R,6S,9R,12S,15S,23R)-15-[[(2S)-2-acetamidohexanoyl]amino]-6-[3-(diaminomethylideneamino)propyl]-12-(1H-imidazol-5-ylmethyl)-3-(1H-indol-3-ylmethyl)-9-(naphthalen-2-ylmethyl)-2,5,8,11,14,17-hexaoxo-1,4,7,10,13,18-hexazacyclotricosane-23-carboxamide

$$$$
