
     RDKit          3D

 49 50  0  0  0  0  0  0  0  0999 V2000
   -7.2897    1.7631   -0.1022 O   0  0  0  0  0  0  0  0  0  0  0  0
   -6.8287    1.9704   -1.2675 C   0  0  0  0  0  0  0  0  0  0  0  0
   -5.7923    1.1733   -1.8289 N   0  0  0  0  0  0  0  0  0  0  0  0
   -5.2303    0.0958   -1.0816 C   0  0  0  0  0  0  0  0  0  0  0  0
   -4.1264    0.2846   -0.2441 C   0  0  0  0  0  0  0  0  0  0  0  0
   -3.6448   -0.8110    0.4433 C   0  0  0  0  0  0  0  0  0  0  0  0
   -4.2419   -2.0527    0.3020 C   0  0  0  0  0  0  0  0  0  0  0  0
   -5.3333   -2.2545   -0.5218 C   0  0  0  0  0  0  0  0  0  0  0  0
   -5.8076   -1.1517   -1.2054 C   0  0  0  0  0  0  0  0  0  0  0  0
   -6.9120   -1.3111   -2.0513 O   0  0  0  0  0  0  0  0  0  0  0  0
   -2.4861   -0.6825    1.3415 C   0  0  0  0  0  0  0  0  0  0  0  0
   -1.2339   -0.5541    0.4691 C   0  0  0  0  0  0  0  0  0  0  0  0
   -0.0720   -0.4804    1.3080 N   0  0  0  0  0  0  0  0  0  0  0  0
    1.1678   -0.3579    0.6139 C   0  0  0  0  0  0  0  0  0  0  0  0
    2.2966   -0.2918    1.6287 C   0  0  0  0  0  0  0  0  0  0  0  0
    3.6064   -0.1645    0.9738 C   0  0  0  0  0  0  0  0  0  0  0  0
    4.1766    1.0560    0.6725 C   0  0  0  0  0  0  0  0  0  0  0  0
    5.4028    1.1879    0.0591 C   0  0  0  0  0  0  0  0  0  0  0  0
    6.1136    0.0534   -0.2795 C   0  0  0  0  0  0  0  0  0  0  0  0
    5.5673   -1.1933    0.0103 C   0  0  0  0  0  0  0  0  0  0  0  0
    4.3297   -1.3087    0.6290 C   0  0  0  0  0  0  0  0  0  0  0  0
    7.3542    0.1137   -0.8990 O   0  0  0  0  0  0  0  0  0  0  0  0
    7.8987    1.3951   -1.1884 C   0  0  0  0  0  0  0  0  0  0  0  0
    1.2428    0.8736   -0.2612 C   0  0  0  0  0  0  0  0  0  0  0  0
   -2.5612    0.4216    2.1534 O   0  0  0  0  0  0  0  0  0  0  0  0
   -7.2748    2.7971   -1.8140 H   0  0  0  0  0  0  0  0  0  0  0  0
   -5.4257    1.3581   -2.7880 H   0  0  0  0  0  0  0  0  0  0  0  0
   -3.6749    1.2620   -0.1478 H   0  0  0  0  0  0  0  0  0  0  0  0
   -3.8323   -2.8897    0.8608 H   0  0  0  0  0  0  0  0  0  0  0  0
   -5.7977   -3.2267   -0.6300 H   0  0  0  0  0  0  0  0  0  0  0  0
   -7.3148   -2.2075   -2.2232 H   0  0  0  0  0  0  0  0  0  0  0  0
   -2.3706   -1.5857    1.9729 H   0  0  0  0  0  0  0  0  0  0  0  0
   -1.1925   -1.4207   -0.1992 H   0  0  0  0  0  0  0  0  0  0  0  0
   -1.4053    0.3562   -0.1420 H   0  0  0  0  0  0  0  0  0  0  0  0
   -0.1885    0.0684    2.1623 H   0  0  0  0  0  0  0  0  0  0  0  0
    1.2866   -1.2344   -0.0557 H   0  0  0  0  0  0  0  0  0  0  0  0
    2.0743    0.5256    2.3411 H   0  0  0  0  0  0  0  0  0  0  0  0
    2.2318   -1.2440    2.2306 H   0  0  0  0  0  0  0  0  0  0  0  0
    3.6144    1.9401    0.9405 H   0  0  0  0  0  0  0  0  0  0  0  0
    5.7962    2.1702   -0.1507 H   0  0  0  0  0  0  0  0  0  0  0  0
    6.0942   -2.0985   -0.2399 H   0  0  0  0  0  0  0  0  0  0  0  0
    3.9209   -2.3081    0.8468 H   0  0  0  0  0  0  0  0  0  0  0  0
    7.3241    1.8986   -1.9988 H   0  0  0  0  0  0  0  0  0  0  0  0
    7.8286    2.0725   -0.2991 H   0  0  0  0  0  0  0  0  0  0  0  0
    8.9731    1.2793   -1.4212 H   0  0  0  0  0  0  0  0  0  0  0  0
    2.2199    0.8174   -0.8076 H   0  0  0  0  0  0  0  0  0  0  0  0
    0.4793    0.8366   -1.0655 H   0  0  0  0  0  0  0  0  0  0  0  0
    1.1745    1.8157    0.3101 H   0  0  0  0  0  0  0  0  0  0  0  0
   -2.1370    1.2432    1.7992 H   0  0  0  0  0  0  0  0  0  0  0  0
  1  2  2  0
  2  3  1  0
  3  4  1  0
  4  5  2  0
  5  6  1  0
  6  7  2  0
  7  8  1  0
  8  9  2  0
  9 10  1  0
  6 11  1  0
 11 12  1  0
 12 13  1  0
 13 14  1  0
 14 15  1  0
 15 16  1  0
 16 17  2  0
 17 18  1  0
 18 19  2  0
 19 20  1  0
 20 21  2  0
 19 22  1  0
 22 23  1  0
 14 24  1  0
 11 25  1  0
  9  4  1  0
 21 16  1  0
  2 26  1  0
  3 27  1  0
  5 28  1  0
  7 29  1  0
  8 30  1  0
 10 31  1  0
 11 32  1  0
 12 33  1  0
 12 34  1  0
 13 35  1  0
 14 36  1  0
 15 37  1  0
 15 38  1  0
 17 39  1  0
 18 40  1  0
 20 41  1  0
 21 42  1  0
 23 43  1  0
 23 44  1  0
 23 45  1  0
 24 46  1  0
 24 47  1  0
 24 48  1  0
 25 49  1  0
M  END
>  <Ligand ID>  (1) 
LIG0001548

>  <Ligand>  (1) 
formoterol

>  <SMILES>  (1) 
O=CNc1cc(ccc1O)C(CNC(Cc1ccc(cc1)OC)C)O

>  <CID>  (1) 
3410.0

>  <ChEMBL ID>  (1) 
nan

>  <InChiKey>  (1) 
BPZSYCZIITTYBL-UHFFFAOYSA-N

>  <InChi>  (1) 
InChI=1S/C19H24N2O4/c1-13(9-14-3-6-16(25-2)7-4-14)20-11-19(24)15-5-8-18(23)17(10-15)21-12-22/h3-8,10,12-13,19-20,23-24H,9,11H2,1-2H3,(H,21,22)

>  <IUPAC Name>  (1) 
N-[2-hydroxy-5-[1-hydroxy-2-[1-(4-methoxyphenyl)propan-2-ylamino]ethyl]phenyl]formamide

$$$$
