
     RDKit          3D

 98101  0  0  0  0  0  0  0  0999 V2000
    6.7645    0.8486    0.1086 C   0  0  0  0  0  0  0  0  0  0  0  0
    5.6012    0.1039    0.5350 N   0  0  0  0  0  0  0  0  0  0  0  0
    4.3366    0.7506    0.3830 C   0  0  0  0  0  0  0  0  0  0  0  0
    4.4056    1.9284   -0.1068 O   0  0  0  0  0  0  0  0  0  0  0  0
    3.0428    0.2176    0.7150 C   0  0  1  0  0  0  0  0  0  0  0  0
    1.9975    1.2512    0.5524 N   0  0  0  0  0  0  0  0  0  0  0  0
    0.6945    1.1415    1.0858 C   0  0  0  0  0  0  0  0  0  0  0  0
    0.3210    0.1661    1.7330 O   0  0  0  0  0  0  0  0  0  0  0  0
   -0.2094    2.3229    0.7765 C   0  0  1  0  0  0  0  0  0  0  0  0
   -1.5761    1.8473    0.7897 N   0  0  0  0  0  0  0  0  0  0  0  0
   -1.8125    0.8682   -0.2725 C   0  0  0  0  0  0  0  0  0  0  0  0
   -0.7518    0.6083   -0.9258 O   0  0  0  0  0  0  0  0  0  0  0  0
   -3.1193    0.2729   -0.5287 C   0  0  2  0  0  0  0  0  0  0  0  0
   -2.9970   -1.0175   -1.1379 N   0  0  0  0  0  0  0  0  0  0  0  0
   -3.6980   -1.6330   -2.1676 C   0  0  0  0  0  0  0  0  0  0  0  0
   -4.6068   -1.0071   -2.7573 O   0  0  0  0  0  0  0  0  0  0  0  0
   -3.3141   -3.0464   -2.5186 C   0  0  2  0  0  0  0  0  0  0  0  0
   -4.5376   -3.8721   -2.7434 C   0  0  0  0  0  0  0  0  0  0  0  0
   -5.4533   -3.9480   -1.5823 C   0  0  0  0  0  0  0  0  0  0  0  0
   -5.4649   -4.8236   -0.5751 N   0  0  0  0  0  0  0  0  0  0  0  0
   -6.4853   -4.5521    0.2849 C   0  0  0  0  0  0  0  0  0  0  0  0
   -7.1429   -3.4594   -0.2010 N   0  0  0  0  0  0  0  0  0  0  0  0
   -6.5307   -3.0913   -1.3201 C   0  0  0  0  0  0  0  0  0  0  0  0
   -2.5392   -3.6261   -1.4413 N   0  0  0  0  0  0  0  0  0  0  0  0
   -1.2661   -4.1880   -1.5315 C   0  0  0  0  0  0  0  0  0  0  0  0
   -0.6727   -4.2291   -2.6430 O   0  0  0  0  0  0  0  0  0  0  0  0
   -0.6570   -4.7268   -0.2736 C   0  0  0  0  0  0  0  0  0  0  0  0
   -3.9174    1.2151   -1.4889 C   0  0  0  0  0  0  0  0  0  0  0  0
   -4.0277    2.5413   -0.8215 C   0  0  0  0  0  0  0  0  0  0  0  0
   -5.0794    2.9324   -0.0386 C   0  0  0  0  0  0  0  0  0  0  0  0
   -5.0489    4.2204    0.5258 C   0  0  0  0  0  0  0  0  0  0  0  0
   -3.9786    5.0452    0.2824 C   0  0  0  0  0  0  0  0  0  0  0  0
   -2.8980    4.6715   -0.5082 C   0  0  0  0  0  0  0  0  0  0  0  0
   -2.9486    3.4088   -1.0502 C   0  0  0  0  0  0  0  0  0  0  0  0
   -0.0074    3.4186    1.7345 C   0  0  0  0  0  0  0  0  0  0  0  0
    1.3455    4.0336    1.8102 C   0  0  0  0  0  0  0  0  0  0  0  0
    1.2595    5.1051    2.9067 C   0  0  0  0  0  0  0  0  0  0  0  0
    0.2456    6.0573    2.5586 N   0  0  0  0  0  0  0  0  0  0  0  0
    0.5770    7.1962    2.0796 C   0  0  0  0  0  0  0  0  0  0  0  0
    1.9853    7.4485    1.9182 N   0  0  0  0  0  0  0  0  0  0  0  0
   -0.4049    8.1670    1.7234 N   0  0  0  0  0  0  0  0  0  0  0  0
    2.5515   -0.8885   -0.2451 C   0  0  0  0  0  0  0  0  0  0  0  0
    3.4324   -2.0437   -0.3296 C   0  0  0  0  0  0  0  0  0  0  0  0
    4.3902   -2.0488   -1.3560 C   0  0  0  0  0  0  0  0  0  0  0  0
    5.2672   -3.0670   -1.5568 C   0  0  0  0  0  0  0  0  0  0  0  0
    5.1907   -4.1556   -0.6833 C   0  0  0  0  0  0  0  0  0  0  0  0
    4.2779   -4.1874    0.3195 C   0  0  0  0  0  0  0  0  0  0  0  0
    3.3686   -3.1423    0.5391 C   0  0  0  0  0  0  0  0  0  0  0  0
    4.1476   -5.2467    1.2210 C   0  0  0  0  0  0  0  0  0  0  0  0
    5.0508   -6.2942    0.9997 C   0  0  0  0  0  0  0  0  0  0  0  0
    5.9745   -6.2673   -0.0123 C   0  0  0  0  0  0  0  0  0  0  0  0
    6.0634   -5.1937   -0.8771 C   0  0  0  0  0  0  0  0  0  0  0  0
    6.5689    1.9328   -0.0471 H   0  0  0  0  0  0  0  0  0  0  0  0
    7.0476    0.4243   -0.8976 H   0  0  0  0  0  0  0  0  0  0  0  0
    7.6521    0.6994    0.7418 H   0  0  0  0  0  0  0  0  0  0  0  0
    5.6196   -0.8426    0.9404 H   0  0  0  0  0  0  0  0  0  0  0  0
    2.9587   -0.1662    1.7314 H   0  0  0  0  0  0  0  0  0  0  0  0
    2.2924    2.0934   -0.0013 H   0  0  0  0  0  0  0  0  0  0  0  0
    0.0228    2.6058   -0.2830 H   0  0  0  0  0  0  0  0  0  0  0  0
   -2.3310    2.1050    1.4245 H   0  0  0  0  0  0  0  0  0  0  0  0
   -3.7630    0.2415    0.3199 H   0  0  0  0  0  0  0  0  0  0  0  0
   -2.1917   -1.6092   -0.7044 H   0  0  0  0  0  0  0  0  0  0  0  0
   -2.7035   -3.0593   -3.4582 H   0  0  0  0  0  0  0  0  0  0  0  0
   -4.2716   -4.9490   -2.9728 H   0  0  0  0  0  0  0  0  0  0  0  0
   -5.1354   -3.4556   -3.6010 H   0  0  0  0  0  0  0  0  0  0  0  0
   -4.7588   -5.6046   -0.5033 H   0  0  0  0  0  0  0  0  0  0  0  0
   -6.7445   -5.0975    1.1891 H   0  0  0  0  0  0  0  0  0  0  0  0
   -6.8637   -2.2393   -1.9116 H   0  0  0  0  0  0  0  0  0  0  0  0
   -3.0423   -3.5920   -0.4901 H   0  0  0  0  0  0  0  0  0  0  0  0
   -0.8561   -5.8286   -0.2508 H   0  0  0  0  0  0  0  0  0  0  0  0
   -1.1378   -4.2918    0.6137 H   0  0  0  0  0  0  0  0  0  0  0  0
    0.4216   -4.5087   -0.1845 H   0  0  0  0  0  0  0  0  0  0  0  0
   -3.3884    1.3351   -2.4120 H   0  0  0  0  0  0  0  0  0  0  0  0
   -4.9347    0.8745   -1.6448 H   0  0  0  0  0  0  0  0  0  0  0  0
   -5.8823    2.2672    0.1236 H   0  0  0  0  0  0  0  0  0  0  0  0
   -5.8826    4.5668    1.1557 H   0  0  0  0  0  0  0  0  0  0  0  0
   -3.9723    6.0317    0.7288 H   0  0  0  0  0  0  0  0  0  0  0  0
   -2.0555    5.3089   -0.7053 H   0  0  0  0  0  0  0  0  0  0  0  0
   -2.1190    3.0960   -1.6692 H   0  0  0  0  0  0  0  0  0  0  0  0
   -0.7257    4.2643    1.5369 H   0  0  0  0  0  0  0  0  0  0  0  0
   -0.3062    3.0227    2.7503 H   0  0  0  0  0  0  0  0  0  0  0  0
    2.0578    3.2645    2.2255 H   0  0  0  0  0  0  0  0  0  0  0  0
    1.6608    4.4894    0.8747 H   0  0  0  0  0  0  0  0  0  0  0  0
    0.9884    4.6354    3.8750 H   0  0  0  0  0  0  0  0  0  0  0  0
    2.2600    5.5927    3.0450 H   0  0  0  0  0  0  0  0  0  0  0  0
    2.3494    7.3370    0.9443 H   0  0  0  0  0  0  0  0  0  0  0  0
    2.5977    7.7217    2.7211 H   0  0  0  0  0  0  0  0  0  0  0  0
   -1.3521    7.8907    1.3894 H   0  0  0  0  0  0  0  0  0  0  0  0
   -0.2038    9.1967    1.7897 H   0  0  0  0  0  0  0  0  0  0  0  0
    1.5417   -1.1380    0.1556 H   0  0  0  0  0  0  0  0  0  0  0  0
    2.4280   -0.4338   -1.2327 H   0  0  0  0  0  0  0  0  0  0  0  0
    4.4256   -1.1855   -2.0288 H   0  0  0  0  0  0  0  0  0  0  0  0
    6.0043   -3.0957   -2.3339 H   0  0  0  0  0  0  0  0  0  0  0  0
    2.6483   -3.1417    1.3145 H   0  0  0  0  0  0  0  0  0  0  0  0
    3.4369   -5.2777    2.0059 H   0  0  0  0  0  0  0  0  0  0  0  0
    5.0303   -7.1587    1.6363 H   0  0  0  0  0  0  0  0  0  0  0  0
    6.6525   -7.1226   -0.1317 H   0  0  0  0  0  0  0  0  0  0  0  0
    6.8108   -5.2319   -1.6574 H   0  0  0  0  0  0  0  0  0  0  0  0
  1  2  1  0
  2  3  1  0
  3  4  2  0
  3  5  1  0
  5  6  1  0
  6  7  1  0
  7  8  2  0
  7  9  1  0
  9 10  1  0
 10 11  1  0
 11 12  2  0
 11 13  1  0
 13 14  1  0
 14 15  1  0
 15 16  2  0
 15 17  1  0
 17 18  1  0
 18 19  1  0
 19 20  1  0
 20 21  1  0
 21 22  2  0
 22 23  1  0
 17 24  1  0
 24 25  1  0
 25 26  2  0
 25 27  1  0
 13 28  1  0
 28 29  1  0
 29 30  2  0
 30 31  1  0
 31 32  2  0
 32 33  1  0
 33 34  2  0
  9 35  1  0
 35 36  1  0
 36 37  1  0
 37 38  1  0
 38 39  2  3
 39 40  1  0
 39 41  1  0
  5 42  1  0
 42 43  1  0
 43 44  2  0
 44 45  1  0
 45 46  2  0
 46 47  1  0
 47 48  2  0
 47 49  1  0
 49 50  2  0
 50 51  1  0
 51 52  2  0
 23 19  2  0
 34 29  1  0
 48 43  1  0
 52 46  1  0
  1 53  1  0
  1 54  1  0
  1 55  1  0
  2 56  1  0
  5 57  1  1
  6 58  1  0
  9 59  1  6
 10 60  1  0
 13 61  1  1
 14 62  1  0
 17 63  1  6
 18 64  1  0
 18 65  1  0
 20 66  1  0
 21 67  1  0
 23 68  1  0
 24 69  1  0
 27 70  1  0
 27 71  1  0
 27 72  1  0
 28 73  1  0
 28 74  1  0
 30 75  1  0
 31 76  1  0
 32 77  1  0
 33 78  1  0
 34 79  1  0
 35 80  1  0
 35 81  1  0
 36 82  1  0
 36 83  1  0
 37 84  1  0
 37 85  1  0
 40 86  1  0
 40 87  1  0
 41 88  1  0
 41 89  1  0
 42 90  1  0
 42 91  1  0
 44 92  1  0
 45 93  1  0
 48 94  1  0
 49 95  1  0
 50 96  1  0
 51 97  1  0
 52 98  1  0
M  END
>  <Ligand ID>  (1) 
LIG0003304

>  <Ligand>  (1) 
CHEMBL211699

>  <SMILES>  (1) 
CNC(=O)[C@@H](NC(=O)[C@@H](NC(=O)[C@H](NC(=O)[C@H](Cc1[nH]cnc1)NC(=O)C)Cc1ccccc1)CCCN=C(N)N)Cc1ccc2c(c1)cccc2

>  <CID>  (1) 
44413876.0

>  <ChEMBL ID>  (1) 
nan

>  <InChiKey>  (1) 
KXPKJVIQPPHENQ-IHZBLBIESA-N

>  <InChi>  (1) 
InChI=1S/C37H46N10O5/c1-23(48)44-32(20-28-21-41-22-43-28)36(52)47-31(18-24-9-4-3-5-10-24)35(51)45-29(13-8-16-42-37(38)39)34(50)46-30(33(49)40-2)19-25-14-15-26-11-6-7-12-27(26)17-25/h3-7,9-12,14-15,17,21-22,29-32H,8,13,16,18-20H2,1-2H3,(H,40,49)(H,41,43)(H,44,48)(H,45,51)(H,46,50)(H,47,52)(H4,38,39,42)/t29-,30-,31+,32-/m0/s1

>  <IUPAC Name>  (1) 
(2S)-2-[[(2R)-2-[[(2S)-2-acetamido-3-(1H-imidazol-5-yl)propanoyl]amino]-3-phenylpropanoyl]amino]-5-(diaminomethylideneamino)-N-[(2S)-1-(methylamino)-3-naphthalen-2-yl-1-oxopropan-2-yl]pentanamide

$$$$
