
     RDKit          3D

 57 59  0  0  0  0  0  0  0  0999 V2000
   -6.4469    2.3008    1.8166 C   0  0  0  0  0  0  0  0  0  0  0  0
   -6.9546    1.4253    0.8375 O   0  0  0  0  0  0  0  0  0  0  0  0
   -6.0561    0.6586    0.1124 C   0  0  0  0  0  0  0  0  0  0  0  0
   -4.6835    0.7376    0.3315 C   0  0  0  0  0  0  0  0  0  0  0  0
   -3.7951   -0.0344   -0.4001 C   0  0  0  0  0  0  0  0  0  0  0  0
   -4.2843   -0.9050   -1.3719 C   0  0  0  0  0  0  0  0  0  0  0  0
   -5.6489   -1.0003   -1.6078 C   0  0  0  0  0  0  0  0  0  0  0  0
   -6.5078   -0.2183   -0.8627 C   0  0  0  0  0  0  0  0  0  0  0  0
   -7.9434   -0.3348   -1.1274 C   0  0  0  0  0  0  0  0  0  0  0  0
   -8.3919   -1.1297   -2.0138 O   0  0  0  0  0  0  0  0  0  0  0  0
   -8.8427    0.4379   -0.3972 O   0  0  0  0  0  0  0  0  0  0  0  0
   -2.3626    0.0919   -0.1273 C   0  0  0  0  0  0  0  0  0  0  0  0
   -1.8635    0.3825    1.1282 C   0  0  0  0  0  0  0  0  0  0  0  0
   -0.5033    0.4944    1.3200 C   0  0  0  0  0  0  0  0  0  0  0  0
    0.4159    0.3257    0.2906 C   0  0  0  0  0  0  0  0  0  0  0  0
   -0.1226    0.0365   -0.9479 C   0  0  0  0  0  0  0  0  0  0  0  0
   -1.4745   -0.0761   -1.1445 C   0  0  0  0  0  0  0  0  0  0  0  0
    1.8250    0.4753    0.5993 C   0  0  0  0  0  0  0  0  0  0  0  0
    2.5781   -0.7325    1.0526 C   0  0  2  0  0  0  0  0  0  0  0  0
    2.5812   -1.7620    0.0743 N   0  0  0  0  0  0  0  0  0  0  0  0
    3.2541   -1.5181   -1.1454 C   0  0  0  0  0  0  0  0  0  0  0  0
    4.7252   -1.4786   -1.1553 C   0  0  1  0  0  0  0  0  0  0  0  0
    5.4519   -0.3778   -0.5598 C   0  0  0  0  0  0  0  0  0  0  0  0
    6.2452   -0.4436    0.5824 C   0  0  0  0  0  0  0  0  0  0  0  0
    6.8929    0.6958    1.0584 C   0  0  0  0  0  0  0  0  0  0  0  0
    6.7704    1.8983    0.4259 C   0  0  0  0  0  0  0  0  0  0  0  0
    5.9956    1.9867   -0.6990 C   0  0  0  0  0  0  0  0  0  0  0  0
    5.3590    0.8783   -1.1711 C   0  0  0  0  0  0  0  0  0  0  0  0
    5.2760   -2.6925   -0.7090 O   0  0  0  0  0  0  0  0  0  0  0  0
    2.0943   -1.2305    2.4120 C   0  0  0  0  0  0  0  0  0  0  0  0
   -5.8661    3.0947    1.3018 H   0  0  0  0  0  0  0  0  0  0  0  0
   -7.2372    2.7848    2.4081 H   0  0  0  0  0  0  0  0  0  0  0  0
   -5.7498    1.7144    2.4701 H   0  0  0  0  0  0  0  0  0  0  0  0
   -4.2818    1.3984    1.0727 H   0  0  0  0  0  0  0  0  0  0  0  0
   -3.5966   -1.5166   -1.9530 H   0  0  0  0  0  0  0  0  0  0  0  0
   -5.9753   -1.6849   -2.3658 H   0  0  0  0  0  0  0  0  0  0  0  0
   -9.8491    0.2903   -0.4543 H   0  0  0  0  0  0  0  0  0  0  0  0
   -2.5809    0.5124    1.9252 H   0  0  0  0  0  0  0  0  0  0  0  0
   -0.1547    0.7224    2.3134 H   0  0  0  0  0  0  0  0  0  0  0  0
    0.5151   -0.1069   -1.8024 H   0  0  0  0  0  0  0  0  0  0  0  0
   -1.8599   -0.3085   -2.1487 H   0  0  0  0  0  0  0  0  0  0  0  0
    1.9250    1.2446    1.4204 H   0  0  0  0  0  0  0  0  0  0  0  0
    2.3487    0.9092   -0.2745 H   0  0  0  0  0  0  0  0  0  0  0  0
    3.6085   -0.3937    1.2356 H   0  0  0  0  0  0  0  0  0  0  0  0
    1.6363   -2.1439   -0.1550 H   0  0  0  0  0  0  0  0  0  0  0  0
    2.9408   -2.3431   -1.8778 H   0  0  0  0  0  0  0  0  0  0  0  0
    2.7983   -0.5838   -1.5809 H   0  0  0  0  0  0  0  0  0  0  0  0
    5.0486   -1.5223   -2.2879 H   0  0  0  0  0  0  0  0  0  0  0  0
    6.3297   -1.3971    1.0684 H   0  0  0  0  0  0  0  0  0  0  0  0
    7.5040    0.6413    1.9381 H   0  0  0  0  0  0  0  0  0  0  0  0
    7.2593    2.8021    0.7696 H   0  0  0  0  0  0  0  0  0  0  0  0
    5.8837    2.9271   -1.2148 H   0  0  0  0  0  0  0  0  0  0  0  0
    4.7557    0.9849   -2.0609 H   0  0  0  0  0  0  0  0  0  0  0  0
    5.0501   -2.8033    0.2309 H   0  0  0  0  0  0  0  0  0  0  0  0
    2.8770   -1.8191    2.9365 H   0  0  0  0  0  0  0  0  0  0  0  0
    1.8585   -0.3756    3.0787 H   0  0  0  0  0  0  0  0  0  0  0  0
    1.2290   -1.9191    2.2868 H   0  0  0  0  0  0  0  0  0  0  0  0
  1  2  1  0
  2  3  1  0
  3  4  2  0
  4  5  1  0
  5  6  2  0
  6  7  1  0
  7  8  2  0
  8  9  1  0
  9 10  2  0
  9 11  1  0
  5 12  1  0
 12 13  2  0
 13 14  1  0
 14 15  2  0
 15 16  1  0
 16 17  2  0
 15 18  1  0
 18 19  1  0
 19 20  1  0
 20 21  1  0
 21 22  1  0
 22 23  1  0
 23 24  2  0
 24 25  1  0
 25 26  2  0
 26 27  1  0
 27 28  2  0
 22 29  1  0
 19 30  1  0
  8  3  1  0
 17 12  1  0
 28 23  1  0
  1 31  1  0
  1 32  1  0
  1 33  1  0
  4 34  1  0
  6 35  1  0
  7 36  1  0
 11 37  1  0
 13 38  1  0
 14 39  1  0
 16 40  1  0
 17 41  1  0
 18 42  1  0
 18 43  1  0
 19 44  1  1
 20 45  1  0
 21 46  1  0
 21 47  1  0
 22 48  1  6
 24 49  1  0
 25 50  1  0
 26 51  1  0
 27 52  1  0
 28 53  1  0
 29 54  1  0
 30 55  1  0
 30 56  1  0
 30 57  1  0
M  END
>  <Ligand ID>  (1) 
LIG0005453

>  <Ligand>  (1) 
CHEMBL520903

>  <SMILES>  (1) 
COc1cc(ccc1C(=O)O)c1ccc(cc1)C[C@H](NC[C@@H](c1ccccc1)O)C

>  <CID>  (1) 
24895359.0

>  <ChEMBL ID>  (1) 
nan

>  <InChiKey>  (1) 
XCPDEXJRTMYUAA-HXOBKFHXSA-N

>  <InChi>  (1) 
InChI=1S/C25H27NO4/c1-17(26-16-23(27)20-6-4-3-5-7-20)14-18-8-10-19(11-9-18)21-12-13-22(25(28)29)24(15-21)30-2/h3-13,15,17,23,26-27H,14,16H2,1-2H3,(H,28,29)/t17-,23+/m1/s1

>  <IUPAC Name>  (1) 
4-[4-[(2R)-2-[[(2R)-2-hydroxy-2-phenylethyl]amino]propyl]phenyl]-2-methoxybenzoic acid

$$$$
