
     RDKit          3D

 58 61  0  0  0  0  0  0  0  0999 V2000
    7.6314   -1.5756    2.4621 N   0  0  0  0  0  0  0  0  0  0  0  0
    7.5357   -1.3901    1.3248 C   0  0  0  0  0  0  0  0  0  0  0  0
    7.3964   -1.1582   -0.0898 C   0  0  0  0  0  0  0  0  0  0  0  0
    7.6435   -2.2137   -0.9621 C   0  0  0  0  0  0  0  0  0  0  0  0
    7.5286   -2.0505   -2.2917 N   0  0  0  0  0  0  0  0  0  0  0  0
    7.1668   -0.8432   -2.8017 C   0  0  0  0  0  0  0  0  0  0  0  0
    6.9185    0.2173   -1.9246 C   0  0  0  0  0  0  0  0  0  0  0  0
    7.0229    0.0960   -0.5743 C   0  0  0  0  0  0  0  0  0  0  0  0
    6.8125    1.1493    0.4256 C   0  0  0  0  0  0  0  0  0  0  0  0
    5.6754    1.0107    1.1475 O   0  0  0  0  0  0  0  0  0  0  0  0
    4.3882    1.0177    0.7920 C   0  0  0  0  0  0  0  0  0  0  0  0
    3.4391    0.8239    1.8133 C   0  0  0  0  0  0  0  0  0  0  0  0
    2.1218    0.8140    1.5707 N   0  0  0  0  0  0  0  0  0  0  0  0
    1.6357    0.9894    0.3338 C   0  0  0  0  0  0  0  0  0  0  0  0
    2.4957    1.1757   -0.6583 N   0  0  0  0  0  0  0  0  0  0  0  0
    3.8469    1.1939   -0.4596 C   0  0  0  0  0  0  0  0  0  0  0  0
    0.2236    0.9619    0.1806 N   0  0  0  0  0  0  0  0  0  0  0  0
   -0.6166    0.7364    1.3408 C   0  0  0  0  0  0  0  0  0  0  0  0
   -1.8762   -0.0386    0.9315 C   0  0  0  0  0  0  0  0  0  0  0  0
   -2.5547    0.7423   -0.0825 N   0  0  0  0  0  0  0  0  0  0  0  0
   -1.8086    1.7621   -0.8342 C   0  0  0  0  0  0  0  0  0  0  0  0
   -0.4477    1.1496   -1.0900 C   0  0  1  0  0  0  0  0  0  0  0  0
    0.3535    1.9365   -2.0841 C   0  0  0  0  0  0  0  0  0  0  0  0
   -3.9332    0.5625   -0.3882 C   0  0  0  0  0  0  0  0  0  0  0  0
   -4.5060    1.2620   -1.2829 O   0  0  0  0  0  0  0  0  0  0  0  0
   -4.6317   -0.3873    0.3083 O   0  0  0  0  0  0  0  0  0  0  0  0
   -6.0059   -0.6978    0.1336 C   0  0  0  0  0  0  0  0  0  0  0  0
   -6.0568   -2.1769   -0.1665 C   0  0  0  0  0  0  0  0  0  0  0  0
   -7.4257   -2.7526   -0.1583 C   0  0  0  0  0  0  0  0  0  0  0  0
   -8.4087   -2.0559    0.4380 O   0  0  0  0  0  0  0  0  0  0  0  0
   -8.1844   -0.9423    1.1404 C   0  0  0  0  0  0  0  0  0  0  0  0
   -6.7906   -0.5213    1.4166 C   0  0  0  0  0  0  0  0  0  0  0  0
    7.9301   -3.1663   -0.5399 H   0  0  0  0  0  0  0  0  0  0  0  0
    7.0799   -0.7316   -3.8656 H   0  0  0  0  0  0  0  0  0  0  0  0
    6.6293    1.1881   -2.3191 H   0  0  0  0  0  0  0  0  0  0  0  0
    6.9139    2.1196   -0.1263 H   0  0  0  0  0  0  0  0  0  0  0  0
    7.6913    1.1810    1.1464 H   0  0  0  0  0  0  0  0  0  0  0  0
    3.7712    0.6765    2.8351 H   0  0  0  0  0  0  0  0  0  0  0  0
    4.4578    1.3628   -1.3213 H   0  0  0  0  0  0  0  0  0  0  0  0
   -0.0860    0.2692    2.1710 H   0  0  0  0  0  0  0  0  0  0  0  0
   -1.0027    1.7291    1.7052 H   0  0  0  0  0  0  0  0  0  0  0  0
   -1.5337   -0.9742    0.4397 H   0  0  0  0  0  0  0  0  0  0  0  0
   -2.4577   -0.1869    1.8488 H   0  0  0  0  0  0  0  0  0  0  0  0
   -1.6588    2.6023   -0.1192 H   0  0  0  0  0  0  0  0  0  0  0  0
   -2.3103    2.0352   -1.7615 H   0  0  0  0  0  0  0  0  0  0  0  0
   -0.6558    0.1300   -1.4935 H   0  0  0  0  0  0  0  0  0  0  0  0
   -0.3151    2.3430   -2.8684 H   0  0  0  0  0  0  0  0  0  0  0  0
    0.9786    2.7336   -1.6188 H   0  0  0  0  0  0  0  0  0  0  0  0
    1.0544    1.2411   -2.5900 H   0  0  0  0  0  0  0  0  0  0  0  0
   -6.4767   -0.0848   -0.6383 H   0  0  0  0  0  0  0  0  0  0  0  0
   -5.5407   -2.3153   -1.1462 H   0  0  0  0  0  0  0  0  0  0  0  0
   -5.3983   -2.6718    0.5841 H   0  0  0  0  0  0  0  0  0  0  0  0
   -7.7201   -2.9091   -1.2187 H   0  0  0  0  0  0  0  0  0  0  0  0
   -7.3873   -3.7786    0.2658 H   0  0  0  0  0  0  0  0  0  0  0  0
   -8.6963   -1.0441    2.1426 H   0  0  0  0  0  0  0  0  0  0  0  0
   -8.7335   -0.0930    0.6607 H   0  0  0  0  0  0  0  0  0  0  0  0
   -6.2949   -1.0242    2.2562 H   0  0  0  0  0  0  0  0  0  0  0  0
   -6.8279    0.5715    1.6830 H   0  0  0  0  0  0  0  0  0  0  0  0
  1  2  3  0
  2  3  1  0
  3  4  2  0
  4  5  1  0
  5  6  2  0
  6  7  1  0
  7  8  2  0
  8  9  1  0
  9 10  1  0
 10 11  1  0
 11 12  2  0
 12 13  1  0
 13 14  2  0
 14 15  1  0
 15 16  2  0
 14 17  1  0
 17 18  1  0
 18 19  1  0
 19 20  1  0
 20 21  1  0
 21 22  1  0
 22 23  1  0
 20 24  1  0
 24 25  2  0
 24 26  1  0
 26 27  1  0
 27 28  1  0
 28 29  1  0
 29 30  1  0
 30 31  1  0
 31 32  1  0
  8  3  1  0
 16 11  1  0
 22 17  1  0
 32 27  1  0
  4 33  1  0
  6 34  1  0
  7 35  1  0
  9 36  1  0
  9 37  1  0
 12 38  1  0
 16 39  1  0
 18 40  1  0
 18 41  1  0
 19 42  1  0
 19 43  1  0
 21 44  1  0
 21 45  1  0
 22 46  1  6
 23 47  1  0
 23 48  1  0
 23 49  1  0
 27 50  1  0
 28 51  1  0
 28 52  1  0
 29 53  1  0
 29 54  1  0
 31 55  1  0
 31 56  1  0
 32 57  1  0
 32 58  1  0
M  END
>  <Ligand ID>  (1) 
LIG0005299

>  <Ligand>  (1) 
SCHEMBL1447865

>  <SMILES>  (1) 
N#Cc1cnccc1COc1cnc(nc1)N1CCN(C[C@H]1C)C(=O)OC1CCOCC1

>  <CID>  (1) 
51030707.0

>  <ChEMBL ID>  (1) 
nan

>  <InChiKey>  (1) 
UYNRXHLOVGNPCH-MRXNPFEDSA-N

>  <InChi>  (1) 
InChI=1S/C22H26N6O4/c1-16-14-27(22(29)32-19-3-8-30-9-4-19)6-7-28(16)21-25-12-20(13-26-21)31-15-17-2-5-24-11-18(17)10-23/h2,5,11-13,16,19H,3-4,6-9,14-15H2,1H3/t16-/m1/s1

>  <IUPAC Name>  (1) 
oxan-4-yl (3R)-4-[5-[(3-cyanopyridin-4-yl)methoxy]pyrimidin-2-yl]-3-methylpiperazine-1-carboxylate

$$$$
