
     RDKit          3D

 72 77  0  0  0  0  0  0  0  0999 V2000
    9.2140   -1.8322    1.3026 C   0  0  0  0  0  0  0  0  0  0  0  0
    8.3929   -0.7619    0.9410 O   0  0  0  0  0  0  0  0  0  0  0  0
    7.0170   -0.8372    0.8350 C   0  0  0  0  0  0  0  0  0  0  0  0
    6.2825   -1.9814    1.0724 C   0  0  0  0  0  0  0  0  0  0  0  0
    4.9044   -1.9912    0.9479 C   0  0  0  0  0  0  0  0  0  0  0  0
    4.1773   -0.8658    0.5806 C   0  0  0  0  0  0  0  0  0  0  0  0
    4.9095    0.2741    0.3449 C   0  0  0  0  0  0  0  0  0  0  0  0
    6.3066    0.2859    0.4705 C   0  0  0  0  0  0  0  0  0  0  0  0
    2.7260   -0.8796    0.4994 C   0  0  0  0  0  0  0  0  0  0  0  0
    1.9677   -0.4600   -0.4510 C   0  0  0  0  0  0  0  0  0  0  0  0
    2.3987    0.1557   -1.7453 C   0  0  0  0  0  0  0  0  0  0  0  0
    1.6325    1.3875   -1.9408 N   0  0  0  0  0  0  0  0  0  0  0  0
    0.1999    1.2061   -2.1281 C   0  0  0  0  0  0  0  0  0  0  0  0
   -0.2987    0.3010   -1.0833 C   0  0  0  0  0  0  0  0  0  0  0  0
    0.4837   -0.5151   -0.2971 C   0  0  0  0  0  0  0  0  0  0  0  0
   -0.3054   -1.2072    0.5258 N   0  0  0  0  0  0  0  0  0  0  0  0
   -1.5786   -0.8460    0.2854 N   0  0  0  0  0  0  0  0  0  0  0  0
   -1.6023    0.0685   -0.6867 C   0  0  0  0  0  0  0  0  0  0  0  0
   -2.8241    0.6947   -1.2326 C   0  0  0  0  0  0  0  0  0  0  0  0
   -2.7326    1.3109   -2.2997 O   0  0  0  0  0  0  0  0  0  0  0  0
   -4.0518    0.5584   -0.4886 N   0  0  0  0  0  0  0  0  0  0  0  0
   -5.2908    1.1298   -0.9261 C   0  0  1  0  0  0  0  0  0  0  0  0
   -6.4182    0.3103   -0.4493 C   0  0  0  0  0  0  0  0  0  0  0  0
   -7.4753   -0.0900   -1.2537 C   0  0  0  0  0  0  0  0  0  0  0  0
   -8.4546   -0.8395   -0.6457 C   0  0  0  0  0  0  0  0  0  0  0  0
   -8.4517   -1.2045    0.6612 C   0  0  0  0  0  0  0  0  0  0  0  0
   -7.4061   -0.8122    1.4666 C   0  0  0  0  0  0  0  0  0  0  0  0
   -6.3964   -0.0558    0.9025 C   0  0  0  0  0  0  0  0  0  0  0  0
   -5.4458    2.5576   -0.3891 C   0  0  0  0  0  0  0  0  0  0  0  0
    0.0019   -2.1959    1.4893 C   0  0  0  0  0  0  0  0  0  0  0  0
    0.3843   -3.4444    0.9674 C   0  0  0  0  0  0  0  0  0  0  0  0
    0.6880   -4.5057    1.7840 C   0  0  0  0  0  0  0  0  0  0  0  0
    0.6145   -4.3399    3.1433 C   0  0  0  0  0  0  0  0  0  0  0  0
    0.2407   -3.1194    3.6359 C   0  0  0  0  0  0  0  0  0  0  0  0
   -0.0719   -2.0291    2.8492 C   0  0  0  0  0  0  0  0  0  0  0  0
   -0.5464   -0.4788    3.4926 Cl  0  0  0  0  0  0  0  0  0  0  0  0
    0.9925   -5.6671    4.1971 Cl  0  0  0  0  0  0  0  0  0  0  0  0
    2.1999    2.6753   -1.9481 C   0  0  0  0  0  0  0  0  0  0  0  0
    3.4114    2.9172   -1.7898 O   0  0  0  0  0  0  0  0  0  0  0  0
    1.3171    3.8217   -2.1526 C   0  0  0  0  0  0  0  0  0  0  0  0
    0.5596    4.1718   -3.1842 N   0  0  0  0  0  0  0  0  0  0  0  0
   -0.0956    5.2970   -2.9567 N   0  0  0  0  0  0  0  0  0  0  0  0
    0.2262    5.7335   -1.7220 C   0  0  0  0  0  0  0  0  0  0  0  0
    1.1288    4.8024   -1.1926 C   0  0  0  0  0  0  0  0  0  0  0  0
    8.9545   -2.1068    2.3562 H   0  0  0  0  0  0  0  0  0  0  0  0
   10.2762   -1.5016    1.3184 H   0  0  0  0  0  0  0  0  0  0  0  0
    9.0659   -2.7489    0.7078 H   0  0  0  0  0  0  0  0  0  0  0  0
    6.8303   -2.8797    1.3667 H   0  0  0  0  0  0  0  0  0  0  0  0
    4.3320   -2.8915    1.1379 H   0  0  0  0  0  0  0  0  0  0  0  0
    4.4792    1.2179    0.0714 H   0  0  0  0  0  0  0  0  0  0  0  0
    6.8739    1.1907    0.2836 H   0  0  0  0  0  0  0  0  0  0  0  0
    2.2334   -1.3013    1.3921 H   0  0  0  0  0  0  0  0  0  0  0  0
    2.0877   -0.4858   -2.6244 H   0  0  0  0  0  0  0  0  0  0  0  0
    3.4562    0.4068   -1.8020 H   0  0  0  0  0  0  0  0  0  0  0  0
    0.0123    0.7883   -3.1374 H   0  0  0  0  0  0  0  0  0  0  0  0
   -0.2878    2.2117   -2.0318 H   0  0  0  0  0  0  0  0  0  0  0  0
   -3.9851    0.0151    0.3919 H   0  0  0  0  0  0  0  0  0  0  0  0
   -5.2346    1.2763   -2.0222 H   0  0  0  0  0  0  0  0  0  0  0  0
   -7.4811    0.1967   -2.2934 H   0  0  0  0  0  0  0  0  0  0  0  0
   -9.3113   -1.1794   -1.2446 H   0  0  0  0  0  0  0  0  0  0  0  0
   -9.2275   -1.7981    1.1490 H   0  0  0  0  0  0  0  0  0  0  0  0
   -7.3712   -1.0844    2.5149 H   0  0  0  0  0  0  0  0  0  0  0  0
   -5.5967    0.2379    1.5676 H   0  0  0  0  0  0  0  0  0  0  0  0
   -4.7301    3.1973   -0.9463 H   0  0  0  0  0  0  0  0  0  0  0  0
   -5.3694    2.5794    0.6947 H   0  0  0  0  0  0  0  0  0  0  0  0
   -6.4630    2.8789   -0.6760 H   0  0  0  0  0  0  0  0  0  0  0  0
    0.4444   -3.5855   -0.0956 H   0  0  0  0  0  0  0  0  0  0  0  0
    0.9762   -5.4410    1.3072 H   0  0  0  0  0  0  0  0  0  0  0  0
    0.1915   -3.0169    4.7125 H   0  0  0  0  0  0  0  0  0  0  0  0
    0.4888    3.6158   -4.0804 H   0  0  0  0  0  0  0  0  0  0  0  0
   -0.1385    6.6203   -1.2407 H   0  0  0  0  0  0  0  0  0  0  0  0
    1.5621    4.8879   -0.2089 H   0  0  0  0  0  0  0  0  0  0  0  0
  1  2  1  0
  2  3  1  0
  3  4  2  0
  4  5  1  0
  5  6  2  0
  6  7  1  0
  7  8  2  0
  6  9  1  0
  9 10  2  0
 10 11  1  0
 11 12  1  0
 12 13  1  0
 13 14  1  0
 14 15  2  0
 15 16  1  0
 16 17  1  0
 17 18  2  0
 18 19  1  0
 19 20  2  0
 19 21  1  0
 21 22  1  0
 22 23  1  0
 23 24  2  0
 24 25  1  0
 25 26  2  0
 26 27  1  0
 27 28  2  0
 22 29  1  0
 16 30  1  0
 30 31  2  0
 31 32  1  0
 32 33  2  0
 33 34  1  0
 34 35  2  0
 35 36  1  0
 33 37  1  0
 12 38  1  0
 38 39  2  0
 38 40  1  0
 40 41  1  0
 41 42  1  0
 42 43  2  0
 43 44  1  0
  8  3  1  0
 15 10  1  0
 28 23  1  0
 35 30  1  0
 44 40  2  0
 18 14  1  0
  1 45  1  0
  1 46  1  0
  1 47  1  0
  4 48  1  0
  5 49  1  0
  7 50  1  0
  8 51  1  0
  9 52  1  0
 11 53  1  0
 11 54  1  0
 13 55  1  0
 13 56  1  0
 21 57  1  0
 22 58  1  6
 24 59  1  0
 25 60  1  0
 26 61  1  0
 27 62  1  0
 28 63  1  0
 29 64  1  0
 29 65  1  0
 29 66  1  0
 31 67  1  0
 32 68  1  0
 34 69  1  0
 41 70  1  0
 43 71  1  0
 44 72  1  0
M  END
>  <Ligand ID>  (1) 
LIG0005410

>  <Ligand>  (1) 
CHEMBL3911571

>  <SMILES>  (1) 
COc1ccc(cc1)/C=C/1\CN(Cc2c1n(nc2C(=O)N[C@@H](c1ccccc1)C)c1ccc(cc1Cl)Cl)C(=O)c1[nH]ncc1

>  <CID>  (1) 
134132091.0

>  <ChEMBL ID>  (1) 
nan

>  <InChiKey>  (1) 
LZHBEWVNDSYHAE-OGTCDWKQSA-N

>  <InChi>  (1) 
InChI=1S/C33H28Cl2N6O3/c1-20(22-6-4-3-5-7-22)37-32(42)30-26-19-40(33(43)28-14-15-36-38-28)18-23(16-21-8-11-25(44-2)12-9-21)31(26)41(39-30)29-13-10-24(34)17-27(29)35/h3-17,20H,18-19H2,1-2H3,(H,36,38)(H,37,42)/b23-16+/t20-/m1/s1

>  <IUPAC Name>  (1) 
(7E)-1-(2,4-dichlorophenyl)-7-[(4-methoxyphenyl)methylidene]-N-[(1R)-1-phenylethyl]-5-(1H-pyrazole-5-carbonyl)-4,6-dihydropyrazolo[4,3-c]pyridine-3-carboxamide

$$$$
