
     RDKit          3D

 61 65  0  0  0  0  0  0  0  0999 V2000
   -3.0211   -6.0762    0.5958 Cl  0  0  0  0  0  0  0  0  0  0  0  0
   -2.3389   -4.4707    0.4553 C   0  0  0  0  0  0  0  0  0  0  0  0
   -2.4527   -3.5223    1.4710 C   0  0  0  0  0  0  0  0  0  0  0  0
   -1.8914   -2.2810    1.2874 C   0  0  0  0  0  0  0  0  0  0  0  0
   -1.2242   -1.9683    0.1183 C   0  0  0  0  0  0  0  0  0  0  0  0
   -1.1124   -2.9277   -0.9025 C   0  0  0  0  0  0  0  0  0  0  0  0
   -1.6694   -4.1771   -0.7331 C   0  0  0  0  0  0  0  0  0  0  0  0
   -0.2573   -2.5248   -2.3970 Cl  0  0  0  0  0  0  0  0  0  0  0  0
   -0.5980   -0.7249   -0.1299 N   0  0  0  0  0  0  0  0  0  0  0  0
    0.7181   -0.6392   -0.3752 N   0  0  0  0  0  0  0  0  0  0  0  0
    1.1126    0.6397   -0.5326 C   0  0  0  0  0  0  0  0  0  0  0  0
   -0.0055    1.3993   -0.3799 C   0  0  0  0  0  0  0  0  0  0  0  0
   -1.0494    0.5270   -0.1349 C   0  0  0  0  0  0  0  0  0  0  0  0
   -2.4400    0.8980    0.0698 C   0  0  0  0  0  0  0  0  0  0  0  0
   -3.3101   -0.0303   -0.3102 C   0  0  0  0  0  0  0  0  0  0  0  0
   -4.7697    0.1782   -0.1647 C   0  0  0  0  0  0  0  0  0  0  0  0
   -5.5442   -0.8365    0.3654 C   0  0  0  0  0  0  0  0  0  0  0  0
   -6.9172   -0.6372    0.4771 C   0  0  0  0  0  0  0  0  0  0  0  0
   -7.4179    0.5813    0.0424 C   0  0  0  0  0  0  0  0  0  0  0  0
   -6.5951    1.5555   -0.4782 C   0  0  0  0  0  0  0  0  0  0  0  0
   -5.2503    1.3342   -0.5764 N   0  0  0  0  0  0  0  0  0  0  0  0
   -9.1405    0.9299    0.1451 Cl  0  0  0  0  0  0  0  0  0  0  0  0
   -2.9455    2.1712    0.5878 C   0  0  0  0  0  0  0  0  0  0  0  0
   -2.0600    3.0823    1.2946 C   0  0  0  0  0  0  0  0  0  0  0  0
   -0.6344    3.2129    1.0153 C   0  0  0  0  0  0  0  0  0  0  0  0
   -0.1532    2.8852   -0.3869 C   0  0  0  0  0  0  0  0  0  0  0  0
    2.4550    1.1292   -0.8137 C   0  0  0  0  0  0  0  0  0  0  0  0
    2.7648    2.3328   -0.9397 O   0  0  0  0  0  0  0  0  0  0  0  0
    3.4886    0.1725   -0.9561 N   0  0  0  0  0  0  0  0  0  0  0  0
    4.8628    0.5513   -1.2391 C   0  0  1  0  0  0  0  0  0  0  0  0
    5.8098   -0.0339   -0.2683 C   0  0  0  0  0  0  0  0  0  0  0  0
    6.8745    0.6507    0.2805 C   0  0  0  0  0  0  0  0  0  0  0  0
    7.6746    0.0057    1.1709 C   0  0  0  0  0  0  0  0  0  0  0  0
    7.4526   -1.3270    1.5473 C   0  0  0  0  0  0  0  0  0  0  0  0
    6.3806   -1.9789    0.9791 C   0  0  0  0  0  0  0  0  0  0  0  0
    5.6059   -1.3174    0.1015 N   0  0  0  0  0  0  0  0  0  0  0  0
    5.1795    0.0897   -2.6551 C   0  0  0  0  0  0  0  0  0  0  0  0
   -2.9832   -3.8322    2.3473 H   0  0  0  0  0  0  0  0  0  0  0  0
   -1.9690   -1.5402    2.0561 H   0  0  0  0  0  0  0  0  0  0  0  0
   -1.5852   -4.9233   -1.5233 H   0  0  0  0  0  0  0  0  0  0  0  0
   -3.0513   -0.9508   -0.7908 H   0  0  0  0  0  0  0  0  0  0  0  0
   -5.1207   -1.7886    0.7012 H   0  0  0  0  0  0  0  0  0  0  0  0
   -7.5743   -1.4159    0.8949 H   0  0  0  0  0  0  0  0  0  0  0  0
   -6.9237    2.5159   -0.8340 H   0  0  0  0  0  0  0  0  0  0  0  0
   -3.4531    2.7336   -0.2652 H   0  0  0  0  0  0  0  0  0  0  0  0
   -3.8235    1.9034    1.2505 H   0  0  0  0  0  0  0  0  0  0  0  0
   -2.1719    2.9330    2.4152 H   0  0  0  0  0  0  0  0  0  0  0  0
   -2.5011    4.1409    1.1842 H   0  0  0  0  0  0  0  0  0  0  0  0
   -0.0736    2.5286    1.7207 H   0  0  0  0  0  0  0  0  0  0  0  0
   -0.2768    4.2391    1.2549 H   0  0  0  0  0  0  0  0  0  0  0  0
   -0.8648    3.2475   -1.1560 H   0  0  0  0  0  0  0  0  0  0  0  0
    0.7990    3.4157   -0.5344 H   0  0  0  0  0  0  0  0  0  0  0  0
    3.3034   -0.8621   -0.8612 H   0  0  0  0  0  0  0  0  0  0  0  0
    4.9931    1.6504   -1.2505 H   0  0  0  0  0  0  0  0  0  0  0  0
    7.0494    1.6734   -0.0097 H   0  0  0  0  0  0  0  0  0  0  0  0
    8.5242    0.4767    1.6403 H   0  0  0  0  0  0  0  0  0  0  0  0
    8.1124   -1.8217    2.2685 H   0  0  0  0  0  0  0  0  0  0  0  0
    6.1546   -3.0010    1.2234 H   0  0  0  0  0  0  0  0  0  0  0  0
    4.6654   -0.8627   -2.8994 H   0  0  0  0  0  0  0  0  0  0  0  0
    6.2883   -0.1159   -2.7092 H   0  0  0  0  0  0  0  0  0  0  0  0
    4.9016    0.8031   -3.4325 H   0  0  0  0  0  0  0  0  0  0  0  0
  1  2  1  0
  2  3  2  0
  3  4  1  0
  4  5  2  0
  5  6  1  0
  6  7  2  0
  6  8  1  0
  5  9  1  0
  9 10  1  0
 10 11  2  0
 11 12  1  0
 12 13  2  0
 13 14  1  0
 14 15  2  0
 15 16  1  0
 16 17  2  0
 17 18  1  0
 18 19  2  0
 19 20  1  0
 20 21  2  0
 19 22  1  0
 14 23  1  0
 23 24  1  0
 24 25  1  0
 25 26  1  0
 11 27  1  0
 27 28  2  0
 27 29  1  0
 29 30  1  0
 30 31  1  0
 31 32  2  0
 32 33  1  0
 33 34  2  0
 34 35  1  0
 35 36  2  0
 30 37  1  0
  7  2  1  0
 13  9  1  0
 21 16  1  0
 36 31  1  0
 26 12  1  0
  3 38  1  0
  4 39  1  0
  7 40  1  0
 15 41  1  0
 17 42  1  0
 18 43  1  0
 20 44  1  0
 23 45  1  0
 23 46  1  0
 24 47  1  0
 24 48  1  0
 25 49  1  0
 25 50  1  0
 26 51  1  0
 26 52  1  0
 29 53  1  0
 30 54  1  6
 32 55  1  0
 33 56  1  0
 34 57  1  0
 35 58  1  0
 37 59  1  0
 37 60  1  0
 37 61  1  0
M  END
>  <Ligand ID>  (1) 
LIG0005430

>  <Ligand>  (1) 
CHEMBL3914883

>  <SMILES>  (1) 
Clc1ccc(c(c1)Cl)n1nc(c2c1/C(=C/c1ccc(cn1)Cl)/CCCC2)C(=O)N[C@@H](c1ccccn1)C

>  <CID>  (1) 
134142657.0

>  <ChEMBL ID>  (1) 
nan

>  <InChiKey>  (1) 
OZRNRTFVIUUYKW-SOGDLCAJSA-N

>  <InChi>  (1) 
InChI=1S/C28H24Cl3N5O/c1-17(24-8-4-5-13-32-24)34-28(37)26-22-7-3-2-6-18(14-21-11-9-20(30)16-33-21)27(22)36(35-26)25-12-10-19(29)15-23(25)31/h4-5,8-17H,2-3,6-7H2,1H3,(H,34,37)/b18-14+/t17-/m1/s1

>  <IUPAC Name>  (1) 
(8E)-8-[(5-chloropyridin-2-yl)methylidene]-1-(2,4-dichlorophenyl)-N-[(1R)-1-pyridin-2-ylethyl]-4,5,6,7-tetrahydrocyclohepta[c]pyrazole-3-carboxamide

$$$$
