
     RDKit          3D

 99103  0  0  0  0  0  0  0  0999 V2000
    4.1001    4.0509   -5.9252 N   0  0  0  0  0  0  0  0  0  0  0  0
    2.9375    3.7752   -5.1156 C   0  0  0  0  0  0  0  0  0  0  0  0
    2.9966    2.6675   -4.4440 N   0  0  0  0  0  0  0  0  0  0  0  0
    1.8877    2.3135   -3.6135 C   0  0  0  0  0  0  0  0  0  0  0  0
    1.8818    3.0842   -2.3012 C   0  0  0  0  0  0  0  0  0  0  0  0
    0.6963    2.6420   -1.5220 C   0  0  0  0  0  0  0  0  0  0  0  0
    0.6324    1.1974   -1.1563 C   0  0  1  0  0  0  0  0  0  0  0  0
    1.7714    0.8179   -0.3078 C   0  0  0  0  0  0  0  0  0  0  0  0
    1.5218    0.6474    0.9357 O   0  0  0  0  0  0  0  0  0  0  0  0
    3.0951    0.6178   -0.7095 N   0  0  0  0  0  0  0  0  0  0  0  0
    4.1357    0.2316    0.2595 C   0  0  2  0  0  0  0  0  0  0  0  0
    5.2164    1.2067    0.2607 C   0  0  0  0  0  0  0  0  0  0  0  0
    6.2009    1.0250    1.0591 O   0  0  0  0  0  0  0  0  0  0  0  0
    5.2981    2.3678   -0.5495 N   0  0  0  0  0  0  0  0  0  0  0  0
    4.6053   -1.1639   -0.1089 C   0  0  0  0  0  0  0  0  0  0  0  0
    5.6505   -1.6479    0.8036 C   0  0  0  0  0  0  0  0  0  0  0  0
    7.0178   -1.7589    0.5520 C   0  0  0  0  0  0  0  0  0  0  0  0
    7.6342   -2.2545    1.6376 N   0  0  0  0  0  0  0  0  0  0  0  0
    6.7026   -2.4751    2.6068 C   0  0  0  0  0  0  0  0  0  0  0  0
    5.4739   -2.0990    2.0897 C   0  0  0  0  0  0  0  0  0  0  0  0
    4.3447   -2.2229    2.8801 C   0  0  0  0  0  0  0  0  0  0  0  0
    4.4759   -2.7171    4.1589 C   0  0  0  0  0  0  0  0  0  0  0  0
    5.7030   -3.0815    4.6443 C   0  0  0  0  0  0  0  0  0  0  0  0
    6.8694   -2.9715    3.8763 C   0  0  0  0  0  0  0  0  0  0  0  0
   -0.5835    1.0602   -0.3456 N   0  0  0  0  0  0  0  0  0  0  0  0
   -1.4745    0.0249   -0.6269 C   0  0  0  0  0  0  0  0  0  0  0  0
   -1.1279   -0.7522   -1.6059 O   0  0  0  0  0  0  0  0  0  0  0  0
   -2.7359   -0.3050    0.0128 C   0  0  1  0  0  0  0  0  0  0  0  0
   -3.3094   -1.4240   -0.8066 N   0  0  0  0  0  0  0  0  0  0  0  0
   -4.3944   -1.1898   -1.6885 C   0  0  0  0  0  0  0  0  0  0  0  0
   -4.9292   -0.0420   -1.8324 O   0  0  0  0  0  0  0  0  0  0  0  0
   -4.8862   -2.3790   -2.4575 C   0  0  2  0  0  0  0  0  0  0  0  0
   -6.3697   -2.3872   -2.4417 C   0  0  0  0  0  0  0  0  0  0  0  0
   -7.0183   -2.4649   -1.1297 C   0  0  0  0  0  0  0  0  0  0  0  0
   -6.5350   -2.5460    0.1504 C   0  0  0  0  0  0  0  0  0  0  0  0
   -7.5433   -2.6025    1.0489 N   0  0  0  0  0  0  0  0  0  0  0  0
   -8.6573   -2.5546    0.2953 C   0  0  0  0  0  0  0  0  0  0  0  0
   -8.3827   -2.4730   -0.9976 N   0  0  0  0  0  0  0  0  0  0  0  0
   -4.2424   -3.5983   -2.0732 N   0  0  0  0  0  0  0  0  0  0  0  0
   -3.3786   -4.3548   -2.9299 C   0  0  0  0  0  0  0  0  0  0  0  0
   -3.1667   -3.9201   -4.1092 O   0  0  0  0  0  0  0  0  0  0  0  0
   -2.7213   -5.6061   -2.5270 C   0  0  0  0  0  0  0  0  0  0  0  0
   -2.7998   -0.6524    1.4338 C   0  0  0  0  0  0  0  0  0  0  0  0
   -2.3211    0.3941    2.3384 C   0  0  0  0  0  0  0  0  0  0  0  0
   -1.0472    0.4032    2.8575 C   0  0  0  0  0  0  0  0  0  0  0  0
   -0.5716    1.3746    3.7040 C   0  0  0  0  0  0  0  0  0  0  0  0
   -1.3870    2.4188    4.0797 C   0  0  0  0  0  0  0  0  0  0  0  0
   -2.6919    2.4518    3.5767 C   0  0  0  0  0  0  0  0  0  0  0  0
   -3.1404    1.4599    2.7274 C   0  0  0  0  0  0  0  0  0  0  0  0
   -3.4827    3.5162    3.9738 C   0  0  0  0  0  0  0  0  0  0  0  0
   -3.0378    4.5087    4.8202 C   0  0  0  0  0  0  0  0  0  0  0  0
   -1.7437    4.4468    5.2997 C   0  0  0  0  0  0  0  0  0  0  0  0
   -0.9456    3.3991    4.9165 C   0  0  0  0  0  0  0  0  0  0  0  0
    1.8271    4.6429   -5.0583 N   0  0  0  0  0  0  0  0  0  0  0  0
    4.8543    4.6453   -5.5354 H   0  0  0  0  0  0  0  0  0  0  0  0
    4.0897    3.6184   -6.8689 H   0  0  0  0  0  0  0  0  0  0  0  0
    1.9152    1.2323   -3.4125 H   0  0  0  0  0  0  0  0  0  0  0  0
    0.9402    2.5274   -4.1635 H   0  0  0  0  0  0  0  0  0  0  0  0
    2.8046    2.9396   -1.7288 H   0  0  0  0  0  0  0  0  0  0  0  0
    1.7252    4.1745   -2.5424 H   0  0  0  0  0  0  0  0  0  0  0  0
    0.6312    3.2066   -0.5455 H   0  0  0  0  0  0  0  0  0  0  0  0
   -0.2655    2.8614   -2.0700 H   0  0  0  0  0  0  0  0  0  0  0  0
    0.6135    0.4966   -2.0157 H   0  0  0  0  0  0  0  0  0  0  0  0
    3.3979    0.7126   -1.6776 H   0  0  0  0  0  0  0  0  0  0  0  0
    3.6555    0.1967    1.2583 H   0  0  0  0  0  0  0  0  0  0  0  0
    5.1274    2.3745   -1.5834 H   0  0  0  0  0  0  0  0  0  0  0  0
    5.5503    3.2612   -0.0423 H   0  0  0  0  0  0  0  0  0  0  0  0
    5.0054   -1.1377   -1.1566 H   0  0  0  0  0  0  0  0  0  0  0  0
    3.7699   -1.8773   -0.1272 H   0  0  0  0  0  0  0  0  0  0  0  0
    7.4443   -1.4700   -0.3976 H   0  0  0  0  0  0  0  0  0  0  0  0
    8.6523   -2.4489    1.7488 H   0  0  0  0  0  0  0  0  0  0  0  0
    3.3630   -1.9362    2.5073 H   0  0  0  0  0  0  0  0  0  0  0  0
    3.5772   -2.8103    4.7769 H   0  0  0  0  0  0  0  0  0  0  0  0
    5.8050   -3.4676    5.6442 H   0  0  0  0  0  0  0  0  0  0  0  0
    7.8304   -3.2626    4.2702 H   0  0  0  0  0  0  0  0  0  0  0  0
   -0.7978    1.7250    0.4165 H   0  0  0  0  0  0  0  0  0  0  0  0
   -3.4489    0.5472   -0.2006 H   0  0  0  0  0  0  0  0  0  0  0  0
   -2.8505   -2.3513   -0.6693 H   0  0  0  0  0  0  0  0  0  0  0  0
   -4.5430   -2.2092   -3.5380 H   0  0  0  0  0  0  0  0  0  0  0  0
   -6.8088   -1.4832   -2.9590 H   0  0  0  0  0  0  0  0  0  0  0  0
   -6.7303   -3.2313   -3.1069 H   0  0  0  0  0  0  0  0  0  0  0  0
   -5.5006   -2.5649    0.4211 H   0  0  0  0  0  0  0  0  0  0  0  0
   -9.6774   -2.5795    0.6940 H   0  0  0  0  0  0  0  0  0  0  0  0
   -9.0843   -2.4221   -1.7968 H   0  0  0  0  0  0  0  0  0  0  0  0
   -4.3717   -4.0237   -1.1064 H   0  0  0  0  0  0  0  0  0  0  0  0
   -1.6479   -5.5219   -2.8620 H   0  0  0  0  0  0  0  0  0  0  0  0
   -3.2045   -6.4453   -3.0634 H   0  0  0  0  0  0  0  0  0  0  0  0
   -2.7052   -5.7569   -1.4294 H   0  0  0  0  0  0  0  0  0  0  0  0
   -2.3733   -1.6591    1.6823 H   0  0  0  0  0  0  0  0  0  0  0  0
   -3.8962   -0.7989    1.7054 H   0  0  0  0  0  0  0  0  0  0  0  0
   -0.4032   -0.4348    2.5547 H   0  0  0  0  0  0  0  0  0  0  0  0
    0.4412    1.3308    4.0832 H   0  0  0  0  0  0  0  0  0  0  0  0
   -4.1523    1.4888    2.3389 H   0  0  0  0  0  0  0  0  0  0  0  0
   -4.5117    3.5581    3.5871 H   0  0  0  0  0  0  0  0  0  0  0  0
   -3.6676    5.3386    5.1245 H   0  0  0  0  0  0  0  0  0  0  0  0
   -1.4195    5.2313    5.9568 H   0  0  0  0  0  0  0  0  0  0  0  0
    0.0653    3.3578    5.2955 H   0  0  0  0  0  0  0  0  0  0  0  0
    0.8826    4.3779   -5.4650 H   0  0  0  0  0  0  0  0  0  0  0  0
    1.8681    5.5890   -4.6171 H   0  0  0  0  0  0  0  0  0  0  0  0
  1  2  1  0
  2  3  2  3
  3  4  1  0
  4  5  1  0
  5  6  1  0
  6  7  1  0
  7  8  1  0
  8  9  2  0
  8 10  1  0
 10 11  1  0
 11 12  1  0
 12 13  2  0
 12 14  1  0
 11 15  1  0
 15 16  1  0
 16 17  2  0
 17 18  1  0
 18 19  1  0
 19 20  2  0
 20 21  1  0
 21 22  2  0
 22 23  1  0
 23 24  2  0
  7 25  1  0
 25 26  1  0
 26 27  2  0
 26 28  1  0
 28 29  1  0
 29 30  1  0
 30 31  2  0
 30 32  1  0
 32 33  1  0
 33 34  1  0
 34 35  2  0
 35 36  1  0
 36 37  2  0
 37 38  1  0
 32 39  1  0
 39 40  1  0
 40 41  2  0
 40 42  1  0
 28 43  1  0
 43 44  1  0
 44 45  2  0
 45 46  1  0
 46 47  2  0
 47 48  1  0
 48 49  2  0
 48 50  1  0
 50 51  2  0
 51 52  1  0
 52 53  2  0
  2 54  1  0
 20 16  1  0
 38 34  1  0
 49 44  1  0
 24 19  1  0
 53 47  1  0
  1 55  1  0
  1 56  1  0
  4 57  1  0
  4 58  1  0
  5 59  1  0
  5 60  1  0
  6 61  1  0
  6 62  1  0
  7 63  1  6
 10 64  1  0
 11 65  1  1
 14 66  1  0
 14 67  1  0
 15 68  1  0
 15 69  1  0
 17 70  1  0
 18 71  1  0
 21 72  1  0
 22 73  1  0
 23 74  1  0
 24 75  1  0
 25 76  1  0
 28 77  1  1
 29 78  1  0
 32 79  1  6
 33 80  1  0
 33 81  1  0
 35 82  1  0
 37 83  1  0
 38 84  1  0
 39 85  1  0
 42 86  1  0
 42 87  1  0
 42 88  1  0
 43 89  1  0
 43 90  1  0
 45 91  1  0
 46 92  1  0
 49 93  1  0
 50 94  1  0
 51 95  1  0
 52 96  1  0
 53 97  1  0
 54 98  1  0
 54 99  1  0
M  END
>  <Ligand ID>  (1) 
LIG0001420

>  <Ligand>  (1) 
CHEMBL104397

>  <SMILES>  (1) 
NC(=NCCC[C@@H](C(=O)N[C@H](C(=O)N)Cc1c[nH]c2c1cccc2)NC(=O)[C@@H](NC(=O)[C@H](Cc1cnc[nH]1)NC(=O)C)Cc1ccc2c(c1)cccc2)N

>  <CID>  (1) 
10439966.0

>  <ChEMBL ID>  (1) 
nan

>  <InChiKey>  (1) 
OHBCPCNJWIQQPW-YRCZKMHPSA-N

>  <InChi>  (1) 
InChI=1S/C38H45N11O5/c1-22(50)46-33(18-27-20-42-21-45-27)37(54)49-32(16-23-12-13-24-7-2-3-8-25(24)15-23)36(53)47-30(11-6-14-43-38(40)41)35(52)48-31(34(39)51)17-26-19-44-29-10-5-4-9-28(26)29/h2-5,7-10,12-13,15,19-21,30-33,44H,6,11,14,16-18H2,1H3,(H2,39,51)(H,42,45)(H,46,50)(H,47,53)(H,48,52)(H,49,54)(H4,40,41,43)/t30-,31-,32-,33-/m0/s1

>  <IUPAC Name>  (1) 
(2S)-2-[[(2S)-2-[[(2S)-2-acetamido-3-(1H-imidazol-5-yl)propanoyl]amino]-3-naphthalen-2-ylpropanoyl]amino]-N-[(2S)-1-amino-3-(1H-indol-3-yl)-1-oxopropan-2-yl]-5-(diaminomethylideneamino)pentanamide

$$$$
