
     RDKit          3D

 58 61  0  0  0  0  0  0  0  0999 V2000
    1.6970   -1.6825    0.2550 O   0  0  0  0  0  0  0  0  0  0  0  0
    2.0335   -0.6965   -0.4353 C   0  0  0  0  0  0  0  0  0  0  0  0
    1.0877    0.3498   -0.5872 N   0  0  0  0  0  0  0  0  0  0  0  0
   -0.2058    0.2213    0.0093 C   0  0  1  0  0  0  0  0  0  0  0  0
   -0.2830    1.2113    1.1666 C   0  0  0  0  0  0  0  0  0  0  0  0
   -1.4669    0.7404    1.9779 C   0  0  0  0  0  0  0  0  0  0  0  0
   -2.7027    0.8383    1.1841 C   0  0  2  0  0  0  0  0  0  0  0  0
   -2.6559    0.6970   -0.2776 C   0  0  0  0  0  0  0  0  0  0  0  0
   -1.3501    0.3750   -0.9308 C   0  0  2  0  0  0  0  0  0  0  0  0
   -1.3621   -0.6974   -1.8369 N   0  0  0  0  0  0  0  0  0  0  0  0
   -1.5593   -2.0129   -1.4311 C   0  0  0  0  0  0  0  0  0  0  0  0
   -2.3750   -2.6719   -2.5329 C   0  0  0  0  0  0  0  0  0  0  0  0
   -2.6223   -1.6327   -3.5994 C   0  0  0  0  0  0  0  0  0  0  0  0
   -1.7745   -0.4850   -3.1705 C   0  0  0  0  0  0  0  0  0  0  0  0
   -3.4112    2.1307    1.6038 C   0  0  0  0  0  0  0  0  0  0  0  0
   -3.9382    1.8277    2.9909 C   0  0  0  0  0  0  0  0  0  0  0  0
   -3.8858    0.3230    3.0205 C   0  0  0  0  0  0  0  0  0  0  0  0
   -3.6027   -0.1091    1.7416 O   0  0  0  0  0  0  0  0  0  0  0  0
    1.4532    1.5093   -1.3407 C   0  0  0  0  0  0  0  0  0  0  0  0
    3.3846   -0.7022   -1.0337 C   0  0  0  0  0  0  0  0  0  0  0  0
    4.4536   -0.6481   -0.0048 C   0  0  0  0  0  0  0  0  0  0  0  0
    4.8900   -1.7322    0.7120 C   0  0  0  0  0  0  0  0  0  0  0  0
    5.9144   -1.5496    1.6317 C   0  0  0  0  0  0  0  0  0  0  0  0
    6.4846   -0.3059    1.8246 C   0  0  0  0  0  0  0  0  0  0  0  0
    6.0567    0.8033    1.1108 C   0  0  0  0  0  0  0  0  0  0  0  0
    5.0449    0.6013    0.2078 C   0  0  0  0  0  0  0  0  0  0  0  0
   -0.2729   -0.7702    0.4988 H   0  0  0  0  0  0  0  0  0  0  0  0
   -0.3048    2.2531    0.8652 H   0  0  0  0  0  0  0  0  0  0  0  0
    0.6184    0.9891    1.7840 H   0  0  0  0  0  0  0  0  0  0  0  0
   -1.2854   -0.3277    2.2345 H   0  0  0  0  0  0  0  0  0  0  0  0
   -1.5188    1.3790    2.8847 H   0  0  0  0  0  0  0  0  0  0  0  0
   -3.1357    1.6011   -0.7272 H   0  0  0  0  0  0  0  0  0  0  0  0
   -3.3538   -0.1407   -0.5830 H   0  0  0  0  0  0  0  0  0  0  0  0
   -1.0748    1.2850   -1.5507 H   0  0  0  0  0  0  0  0  0  0  0  0
   -0.5568   -2.5356   -1.4615 H   0  0  0  0  0  0  0  0  0  0  0  0
   -1.9322   -2.1934   -0.4246 H   0  0  0  0  0  0  0  0  0  0  0  0
   -1.8455   -3.5142   -3.0219 H   0  0  0  0  0  0  0  0  0  0  0  0
   -3.3287   -3.0898   -2.1742 H   0  0  0  0  0  0  0  0  0  0  0  0
   -3.6849   -1.2974   -3.6389 H   0  0  0  0  0  0  0  0  0  0  0  0
   -2.2979   -1.9891   -4.6162 H   0  0  0  0  0  0  0  0  0  0  0  0
   -0.8322   -0.4872   -3.7949 H   0  0  0  0  0  0  0  0  0  0  0  0
   -2.2260    0.5104   -3.3914 H   0  0  0  0  0  0  0  0  0  0  0  0
   -2.7097    2.9818    1.7014 H   0  0  0  0  0  0  0  0  0  0  0  0
   -4.1878    2.4363    0.8901 H   0  0  0  0  0  0  0  0  0  0  0  0
   -4.9709    2.2329    3.1599 H   0  0  0  0  0  0  0  0  0  0  0  0
   -3.3148    2.2421    3.8010 H   0  0  0  0  0  0  0  0  0  0  0  0
   -4.8982   -0.0371    3.3353 H   0  0  0  0  0  0  0  0  0  0  0  0
   -3.1947   -0.0890    3.7910 H   0  0  0  0  0  0  0  0  0  0  0  0
    1.6967    1.1796   -2.3785 H   0  0  0  0  0  0  0  0  0  0  0  0
    2.4125    1.9398   -0.9427 H   0  0  0  0  0  0  0  0  0  0  0  0
    0.7242    2.3431   -1.2930 H   0  0  0  0  0  0  0  0  0  0  0  0
    3.4530   -1.6877   -1.5914 H   0  0  0  0  0  0  0  0  0  0  0  0
    3.5553    0.1023   -1.7782 H   0  0  0  0  0  0  0  0  0  0  0  0
    4.4270   -2.7095    0.5456 H   0  0  0  0  0  0  0  0  0  0  0  0
    6.2542   -2.4086    2.1898 H   0  0  0  0  0  0  0  0  0  0  0  0
    7.2939   -0.1736    2.5550 H   0  0  0  0  0  0  0  0  0  0  0  0
    6.4780    1.7885    1.2350 H   0  0  0  0  0  0  0  0  0  0  0  0
    4.7085    1.4845   -0.3586 H   0  0  0  0  0  0  0  0  0  0  0  0
  1  2  2  0
  2  3  1  0
  3  4  1  0
  4  5  1  0
  5  6  1  0
  6  7  1  0
  7  8  1  0
  8  9  1  0
  9 10  1  0
 10 11  1  0
 11 12  1  0
 12 13  1  0
 13 14  1  0
  7 15  1  0
 15 16  1  0
 16 17  1  0
 17 18  1  0
  3 19  1  0
  2 20  1  0
 20 21  1  0
 21 22  2  0
 22 23  1  0
 23 24  2  0
 24 25  1  0
 25 26  2  0
  9  4  1  0
 14 10  1  0
 26 21  1  0
  7 18  1  1
  4 27  1  1
  5 28  1  0
  5 29  1  0
  6 30  1  0
  6 31  1  0
  8 32  1  0
  8 33  1  0
  9 34  1  6
 11 35  1  0
 11 36  1  0
 12 37  1  0
 12 38  1  0
 13 39  1  0
 13 40  1  0
 14 41  1  0
 14 42  1  0
 15 43  1  0
 15 44  1  0
 16 45  1  0
 16 46  1  0
 17 47  1  0
 17 48  1  0
 19 49  1  0
 19 50  1  0
 19 51  1  0
 20 52  1  0
 20 53  1  0
 22 54  1  0
 23 55  1  0
 24 56  1  0
 25 57  1  0
 26 58  1  0
M  END
>  <Ligand ID>  (1) 
LIG0001961

>  <Ligand>  (1) 
U69593

>  <SMILES>  (1) 
O=C(N([C@H]1CC[C@]2(C[C@@H]1N1CCCC1)CCCO2)C)Cc1ccccc1

>  <CID>  (1) 
105104.0

>  <ChEMBL ID>  (1) 
nan

>  <InChiKey>  (1) 
PGZRDDYTKFZSFR-ONTIZHBOSA-N

>  <InChi>  (1) 
InChI=1S/C22H32N2O2/c1-23(21(25)16-18-8-3-2-4-9-18)19-10-12-22(11-7-15-26-22)17-20(19)24-13-5-6-14-24/h2-4,8-9,19-20H,5-7,10-17H2,1H3/t19-,20-,22-/m0/s1

>  <IUPAC Name>  (1) 
N-methyl-2-phenyl-N-[(5R,7S,8S)-7-pyrrolidin-1-yl-1-oxaspiro[4.5]decan-8-yl]acetamide

$$$$
