
     RDKit          3D

 13 12  0  0  0  0  0  0  0  0999 V2000
    2.7592    0.4538    0.0776 C   0  0  0  0  0  0  0  0  0  0  0  0
    1.4889    0.2331    1.3327 S   0  0  0  0  0  0  0  0  0  0  0  0
    0.0175   -0.5986    0.7057 C   0  0  0  0  0  0  0  0  0  0  0  0
   -0.9562    0.4721   -0.3958 S   0  0  0  0  0  0  0  0  0  0  0  0
   -2.7115    0.1005   -0.1909 C   0  0  0  0  0  0  0  0  0  0  0  0
    2.3775    0.4028   -0.9518 H   0  0  0  0  0  0  0  0  0  0  0  0
    3.1744    1.4838    0.2097 H   0  0  0  0  0  0  0  0  0  0  0  0
    3.6237   -0.2283    0.1954 H   0  0  0  0  0  0  0  0  0  0  0  0
    0.2268   -1.5761    0.2380 H   0  0  0  0  0  0  0  0  0  0  0  0
   -0.6357   -0.8135    1.5886 H   0  0  0  0  0  0  0  0  0  0  0  0
   -2.8624   -0.7504    0.5148 H   0  0  0  0  0  0  0  0  0  0  0  0
   -3.2762    0.9494    0.2718 H   0  0  0  0  0  0  0  0  0  0  0  0
   -3.2259   -0.1287   -1.1345 H   0  0  0  0  0  0  0  0  0  0  0  0
  1  2  1  0
  2  3  1  0
  3  4  1  0
  4  5  1  0
  1  6  1  0
  1  7  1  0
  1  8  1  0
  3  9  1  0
  3 10  1  0
  5 11  1  0
  5 12  1  0
  5 13  1  0
M  END
>  <Ligand ID>  (1) 
LIG0000477

>  <Ligand>  (1) 
bis(METHYLTHIO)METHANE

>  <SMILES>  (1) 
CSCSC

>  <CID>  (1) 
15380.0

>  <ChEMBL ID>  (1) 
nan

>  <InChiKey>  (1) 
LOCDPORVFVOGCR-UHFFFAOYSA-N

>  <InChi>  (1) 
InChI=1S/C3H8S2/c1-4-3-5-2/h3H2,1-2H3

>  <IUPAC Name>  (1) 
bis(methylsulfanyl)methane

$$$$
