
     RDKit          3D

 49 50  0  0  0  0  0  0  0  0999 V2000
   -5.4461    1.8859    1.6390 O   0  0  0  0  0  0  0  0  0  0  0  0
   -5.6654    2.2049    0.4404 C   0  0  0  0  0  0  0  0  0  0  0  0
   -5.4323    1.2934   -0.6402 N   0  0  0  0  0  0  0  0  0  0  0  0
   -4.9481   -0.0213   -0.4505 C   0  0  0  0  0  0  0  0  0  0  0  0
   -3.5966   -0.3537   -0.4812 C   0  0  0  0  0  0  0  0  0  0  0  0
   -3.1692   -1.6228   -0.2955 C   0  0  0  0  0  0  0  0  0  0  0  0
   -4.1837   -2.5894   -0.0687 C   0  0  0  0  0  0  0  0  0  0  0  0
   -5.5074   -2.2808   -0.0368 C   0  0  0  0  0  0  0  0  0  0  0  0
   -5.9048   -0.9971   -0.2265 C   0  0  0  0  0  0  0  0  0  0  0  0
   -7.2676   -0.7241   -0.1856 O   0  0  0  0  0  0  0  0  0  0  0  0
   -1.8254   -2.1581   -0.2622 C   0  0  2  0  0  0  0  0  0  0  0  0
   -0.6253   -1.3594   -0.3808 C   0  0  0  0  0  0  0  0  0  0  0  0
   -0.3482   -0.3284    0.5871 N   0  0  0  0  0  0  0  0  0  0  0  0
    1.0209    0.1260    0.5052 C   0  0  1  0  0  0  0  0  0  0  0  0
    1.4656    0.7509   -0.7612 C   0  0  0  0  0  0  0  0  0  0  0  0
    2.9297    1.0490   -0.5639 C   0  0  0  0  0  0  0  0  0  0  0  0
    3.7785   -0.0089   -0.9152 C   0  0  0  0  0  0  0  0  0  0  0  0
    5.1374    0.0707   -0.7651 C   0  0  0  0  0  0  0  0  0  0  0  0
    5.6440    1.2471   -0.2505 C   0  0  0  0  0  0  0  0  0  0  0  0
    4.8143    2.2803    0.0900 C   0  0  0  0  0  0  0  0  0  0  0  0
    3.4195    2.2123   -0.0584 C   0  0  0  0  0  0  0  0  0  0  0  0
    7.0305    1.2992   -0.1043 O   0  0  0  0  0  0  0  0  0  0  0  0
    7.8831    0.2446   -0.4444 C   0  0  0  0  0  0  0  0  0  0  0  0
    1.0843    1.2486    1.5613 C   0  0  0  0  0  0  0  0  0  0  0  0
   -1.7985   -3.1145   -1.3403 O   0  0  0  0  0  0  0  0  0  0  0  0
   -6.0433    3.2102    0.2475 H   0  0  0  0  0  0  0  0  0  0  0  0
   -5.6366    1.6260   -1.5992 H   0  0  0  0  0  0  0  0  0  0  0  0
   -2.9028    0.4217   -0.6661 H   0  0  0  0  0  0  0  0  0  0  0  0
   -3.9164   -3.6300    0.0910 H   0  0  0  0  0  0  0  0  0  0  0  0
   -6.2444   -3.0836    0.1484 H   0  0  0  0  0  0  0  0  0  0  0  0
   -7.9161   -1.3734   -0.6167 H   0  0  0  0  0  0  0  0  0  0  0  0
   -1.6952   -2.8659    0.6312 H   0  0  0  0  0  0  0  0  0  0  0  0
    0.2563   -2.0788   -0.2821 H   0  0  0  0  0  0  0  0  0  0  0  0
   -0.4677   -0.8828   -1.3765 H   0  0  0  0  0  0  0  0  0  0  0  0
   -0.9269    0.5220    0.5319 H   0  0  0  0  0  0  0  0  0  0  0  0
    1.7685   -0.6164    0.8703 H   0  0  0  0  0  0  0  0  0  0  0  0
    1.3766    0.1803   -1.6775 H   0  0  0  0  0  0  0  0  0  0  0  0
    0.9126    1.7039   -0.9152 H   0  0  0  0  0  0  0  0  0  0  0  0
    3.3624   -0.9394   -1.3274 H   0  0  0  0  0  0  0  0  0  0  0  0
    5.7314   -0.7759   -1.0531 H   0  0  0  0  0  0  0  0  0  0  0  0
    5.2497    3.2001    0.4966 H   0  0  0  0  0  0  0  0  0  0  0  0
    2.7627    2.9998    0.1966 H   0  0  0  0  0  0  0  0  0  0  0  0
    8.8807    0.4333    0.0451 H   0  0  0  0  0  0  0  0  0  0  0  0
    8.0986    0.2645   -1.5307 H   0  0  0  0  0  0  0  0  0  0  0  0
    7.5135   -0.7575   -0.1380 H   0  0  0  0  0  0  0  0  0  0  0  0
    2.1187    1.3709    1.9195 H   0  0  0  0  0  0  0  0  0  0  0  0
    0.4033    1.0292    2.3892 H   0  0  0  0  0  0  0  0  0  0  0  0
    0.7066    2.1863    1.1018 H   0  0  0  0  0  0  0  0  0  0  0  0
   -1.8814   -2.4988   -2.1438 H   0  0  0  0  0  0  0  0  0  0  0  0
  1  2  2  0
  2  3  1  0
  3  4  1  0
  4  5  2  0
  5  6  1  0
  6  7  2  0
  7  8  1  0
  8  9  2  0
  9 10  1  0
  6 11  1  0
 11 12  1  0
 12 13  1  0
 13 14  1  0
 14 15  1  0
 15 16  1  0
 16 17  2  0
 17 18  1  0
 18 19  2  0
 19 20  1  0
 20 21  2  0
 19 22  1  0
 22 23  1  0
 14 24  1  0
 11 25  1  0
  9  4  1  0
 21 16  1  0
  2 26  1  0
  3 27  1  0
  5 28  1  0
  7 29  1  0
  8 30  1  0
 10 31  1  0
 11 32  1  1
 12 33  1  0
 12 34  1  0
 13 35  1  0
 14 36  1  1
 15 37  1  0
 15 38  1  0
 17 39  1  0
 18 40  1  0
 20 41  1  0
 21 42  1  0
 23 43  1  0
 23 44  1  0
 23 45  1  0
 24 46  1  0
 24 47  1  0
 24 48  1  0
 25 49  1  0
M  END
>  <Ligand ID>  (1) 
LIG0001107

>  <Ligand>  (1) 
Arformoterol

>  <SMILES>  (1) 
O=CNc1cc(ccc1O)[C@H](CN[C@@H](Cc1ccc(cc1)OC)C)O

>  <CID>  (1) 
3083544.0

>  <ChEMBL ID>  (1) 
nan

>  <InChiKey>  (1) 
BPZSYCZIITTYBL-YJYMSZOUSA-N

>  <InChi>  (1) 
InChI=1S/C19H24N2O4/c1-13(9-14-3-6-16(25-2)7-4-14)20-11-19(24)15-5-8-18(23)17(10-15)21-12-22/h3-8,10,12-13,19-20,23-24H,9,11H2,1-2H3,(H,21,22)/t13-,19+/m1/s1

>  <IUPAC Name>  (1) 
N-[2-hydroxy-5-[(1R)-1-hydroxy-2-[[(2R)-1-(4-methoxyphenyl)propan-2-yl]amino]ethyl]phenyl]formamide

$$$$
