
     RDKit          3D

 47 51  0  0  0  0  0  0  0  0999 V2000
    9.9083    1.0280   -0.4151 F   0  0  0  0  0  0  0  0  0  0  0  0
    8.6012    0.7478   -0.2206 C   0  0  0  0  0  0  0  0  0  0  0  0
    7.6656    1.2061   -1.1338 C   0  0  0  0  0  0  0  0  0  0  0  0
    6.3283    0.9078   -0.9162 C   0  0  0  0  0  0  0  0  0  0  0  0
    5.9440    0.1713    0.1862 C   0  0  0  0  0  0  0  0  0  0  0  0
    6.9096   -0.2662    1.0721 C   0  0  0  0  0  0  0  0  0  0  0  0
    8.2582    0.0128    0.8874 C   0  0  0  0  0  0  0  0  0  0  0  0
    6.4459   -1.2084    2.4876 Cl  0  0  0  0  0  0  0  0  0  0  0  0
    4.5526   -0.1738    0.4675 C   0  0  0  0  0  0  0  0  0  0  0  0
    4.0724   -0.8909    1.5199 N   0  0  0  0  0  0  0  0  0  0  0  0
    2.7800   -0.9724    1.3989 O   0  0  0  0  0  0  0  0  0  0  0  0
    2.3940   -0.3350    0.3055 C   0  0  0  0  0  0  0  0  0  0  0  0
    3.4800    0.1772   -0.3017 N   0  0  0  0  0  0  0  0  0  0  0  0
    0.9630   -0.2614   -0.0906 C   0  0  0  0  0  0  0  0  0  0  0  0
    0.3594   -1.6348   -0.2623 C   0  0  0  0  0  0  0  0  0  0  0  0
   -1.0019   -1.4148   -0.8862 C   0  0  0  0  0  0  0  0  0  0  0  0
   -1.7915   -0.4851   -0.1127 N   0  0  0  0  0  0  0  0  0  0  0  0
   -1.2608    0.3783    0.9197 C   0  0  0  0  0  0  0  0  0  0  0  0
    0.2189    0.4089    1.0322 C   0  0  0  0  0  0  0  0  0  0  0  0
   -3.1873   -0.4012   -0.3721 C   0  0  0  0  0  0  0  0  0  0  0  0
   -3.7843   -1.1888   -1.3551 C   0  0  0  0  0  0  0  0  0  0  0  0
   -5.1017   -1.1187   -1.6087 N   0  0  0  0  0  0  0  0  0  0  0  0
   -5.9274   -0.2890   -0.9354 C   0  0  0  0  0  0  0  0  0  0  0  0
   -5.3836    0.5002    0.0360 C   0  0  0  0  0  0  0  0  0  0  0  0
   -4.0305    0.4449    0.3143 C   0  0  0  0  0  0  0  0  0  0  0  0
   -6.2453    1.3521    0.7240 C   0  0  0  0  0  0  0  0  0  0  0  0
   -7.5967    1.3682    0.4047 C   0  0  0  0  0  0  0  0  0  0  0  0
   -8.1246    0.5634   -0.5792 C   0  0  0  0  0  0  0  0  0  0  0  0
   -7.2704   -0.2768   -1.2566 C   0  0  0  0  0  0  0  0  0  0  0  0
   -8.6657    2.4415    1.2757 Cl  0  0  0  0  0  0  0  0  0  0  0  0
    7.9693    1.7840   -1.9984 H   0  0  0  0  0  0  0  0  0  0  0  0
    5.5511    1.2396   -1.5968 H   0  0  0  0  0  0  0  0  0  0  0  0
    8.9624   -0.3589    1.6180 H   0  0  0  0  0  0  0  0  0  0  0  0
    0.8687    0.3107   -1.0146 H   0  0  0  0  0  0  0  0  0  0  0  0
    0.2545   -2.0821    0.7384 H   0  0  0  0  0  0  0  0  0  0  0  0
    0.9740   -2.2678   -0.8980 H   0  0  0  0  0  0  0  0  0  0  0  0
   -1.4738   -2.4061   -1.0208 H   0  0  0  0  0  0  0  0  0  0  0  0
   -0.8517   -0.9122   -1.8821 H   0  0  0  0  0  0  0  0  0  0  0  0
   -1.6659    1.4073    0.6860 H   0  0  0  0  0  0  0  0  0  0  0  0
   -1.6632    0.0976    1.9326 H   0  0  0  0  0  0  0  0  0  0  0  0
    0.5449    1.4830    1.0101 H   0  0  0  0  0  0  0  0  0  0  0  0
    0.5798    0.0193    2.0194 H   0  0  0  0  0  0  0  0  0  0  0  0
   -3.2102   -1.8849   -1.9498 H   0  0  0  0  0  0  0  0  0  0  0  0
   -3.6389    1.0868    1.0917 H   0  0  0  0  0  0  0  0  0  0  0  0
   -5.8405    1.9827    1.4928 H   0  0  0  0  0  0  0  0  0  0  0  0
   -9.1928    0.6163   -0.7888 H   0  0  0  0  0  0  0  0  0  0  0  0
   -7.6772   -0.9065   -2.0250 H   0  0  0  0  0  0  0  0  0  0  0  0
  1  2  1  0
  2  3  2  0
  3  4  1  0
  4  5  2  0
  5  6  1  0
  6  7  2  0
  6  8  1  0
  5  9  1  0
  9 10  2  0
 10 11  1  0
 11 12  1  0
 12 13  2  0
 12 14  1  0
 14 15  1  0
 15 16  1  0
 16 17  1  0
 17 18  1  0
 18 19  1  0
 17 20  1  0
 20 21  2  0
 21 22  1  0
 22 23  2  0
 23 24  1  0
 24 25  2  0
 24 26  1  0
 26 27  2  0
 27 28  1  0
 28 29  2  0
 27 30  1  0
  7  2  1  0
 13  9  1  0
 19 14  1  0
 25 20  1  0
 29 23  1  0
  3 31  1  0
  4 32  1  0
  7 33  1  0
 14 34  1  0
 15 35  1  0
 15 36  1  0
 16 37  1  0
 16 38  1  0
 18 39  1  0
 18 40  1  0
 19 41  1  0
 19 42  1  0
 21 43  1  0
 25 44  1  0
 26 45  1  0
 28 46  1  0
 29 47  1  0
M  END
>  <Ligand ID>  (1) 
LIG0000394

>  <Ligand>  (1) 
CHEMBL468176

>  <SMILES>  (1) 
Fc1ccc(c(c1)Cl)c1noc(n1)C1CCN(CC1)c1cnc2c(c1)cc(cc2)Cl

>  <CID>  (1) 
24894134.0

>  <ChEMBL ID>  (1) 
nan

>  <InChiKey>  (1) 
KZPYBMNBUZPMKP-UHFFFAOYSA-N

>  <InChi>  (1) 
InChI=1S/C22H17Cl2FN4O/c23-15-1-4-20-14(9-15)10-17(12-26-20)29-7-5-13(6-8-29)22-27-21(28-30-22)18-3-2-16(25)11-19(18)24/h1-4,9-13H,5-8H2

>  <IUPAC Name>  (1) 
3-(2-chloro-4-fluorophenyl)-5-[1-(6-chloroquinolin-3-yl)piperidin-4-yl]-1,2,4-oxadiazole

$$$$
