
     RDKit          3D

 67 72  0  0  0  0  0  0  0  0999 V2000
    4.1264    1.7283    2.3374 C   0  0  0  0  0  0  0  0  0  0  0  0
    3.4665    0.4440    2.2717 C   0  0  0  0  0  0  0  0  0  0  0  0
    3.4620   -0.5372    3.2453 C   0  0  0  0  0  0  0  0  0  0  0  0
    2.8046   -1.7408    3.1237 C   0  0  0  0  0  0  0  0  0  0  0  0
    2.0927   -2.0358    1.9826 C   0  0  0  0  0  0  0  0  0  0  0  0
    2.0765   -1.0674    0.9796 C   0  0  0  0  0  0  0  0  0  0  0  0
    2.7437    0.1404    1.1147 C   0  0  0  0  0  0  0  0  0  0  0  0
    2.8356    1.2286    0.1440 N   0  0  0  0  0  0  0  0  0  0  0  0
    4.0672    1.9076    0.0984 C   0  0  0  0  0  0  0  0  0  0  0  0
    5.1731    1.2529   -0.7031 C   0  0  0  0  0  0  0  0  0  0  0  0
    5.9904    0.3027   -0.0940 C   0  0  0  0  0  0  0  0  0  0  0  0
    7.0299   -0.3149   -0.8016 C   0  0  0  0  0  0  0  0  0  0  0  0
    7.2867   -0.0138   -2.1147 C   0  0  0  0  0  0  0  0  0  0  0  0
    6.4901    0.9203   -2.7280 C   0  0  0  0  0  0  0  0  0  0  0  0
    5.4619    1.5226   -2.0059 C   0  0  0  0  0  0  0  0  0  0  0  0
    1.7308    1.5315   -0.7204 C   0  0  0  0  0  0  0  0  0  0  0  0
    1.8701    2.6397   -1.2984 O   0  0  0  0  0  0  0  0  0  0  0  0
    0.4784    0.7758   -1.0410 C   0  0  0  0  0  0  0  0  0  0  0  0
    0.6737   -0.6468   -1.1143 N   0  0  0  0  0  0  0  0  0  0  0  0
    1.2695   -1.5435   -0.1532 C   0  0  0  0  0  0  0  0  0  0  0  0
    1.0981   -2.7616   -0.2820 O   0  0  0  0  0  0  0  0  0  0  0  0
   -0.6523    1.1808   -0.1381 C   0  0  0  0  0  0  0  0  0  0  0  0
   -1.8715    0.4094   -0.4894 C   0  0  0  0  0  0  0  0  0  0  0  0
   -2.4041   -0.6592    0.2065 C   0  0  0  0  0  0  0  0  0  0  0  0
   -3.5181   -1.0965   -0.4247 N   0  0  0  0  0  0  0  0  0  0  0  0
   -3.6796   -0.3141   -1.4979 C   0  0  0  0  0  0  0  0  0  0  0  0
   -2.6805    0.6303   -1.5728 C   0  0  0  0  0  0  0  0  0  0  0  0
   -2.6927    1.5265   -2.6254 C   0  0  0  0  0  0  0  0  0  0  0  0
   -3.6715    1.5059   -3.6020 C   0  0  0  0  0  0  0  0  0  0  0  0
   -4.6775    0.5598   -3.5323 C   0  0  0  0  0  0  0  0  0  0  0  0
   -4.6510   -0.3247   -2.4786 C   0  0  0  0  0  0  0  0  0  0  0  0
   -4.3159   -2.2104    0.0524 C   0  0  0  0  0  0  0  0  0  0  0  0
   -5.3854   -1.7288    0.9881 C   0  0  0  0  0  0  0  0  0  0  0  0
   -6.6426   -1.3622    0.5116 C   0  0  0  0  0  0  0  0  0  0  0  0
   -7.6392   -0.9172    1.3527 C   0  0  0  0  0  0  0  0  0  0  0  0
   -7.4002   -0.8275    2.7033 C   0  0  0  0  0  0  0  0  0  0  0  0
   -6.1629   -1.1821    3.2210 C   0  0  0  0  0  0  0  0  0  0  0  0
   -5.1676   -1.6309    2.3466 C   0  0  0  0  0  0  0  0  0  0  0  0
    4.2348    1.7649    3.4792 H   0  0  0  0  0  0  0  0  0  0  0  0
    5.1981    1.8524    2.2154 H   0  0  0  0  0  0  0  0  0  0  0  0
    3.4573    2.6314    2.4215 H   0  0  0  0  0  0  0  0  0  0  0  0
    4.0202   -0.3225    4.1575 H   0  0  0  0  0  0  0  0  0  0  0  0
    2.8349   -2.4821    3.9268 H   0  0  0  0  0  0  0  0  0  0  0  0
    1.5588   -2.9428    1.8140 H   0  0  0  0  0  0  0  0  0  0  0  0
    4.3106    2.9041    0.4756 H   0  0  0  0  0  0  0  0  0  0  0  0
    3.7432    2.5215   -0.8453 H   0  0  0  0  0  0  0  0  0  0  0  0
    5.8923   -0.0168    0.9230 H   0  0  0  0  0  0  0  0  0  0  0  0
    7.6673   -1.0608   -0.3147 H   0  0  0  0  0  0  0  0  0  0  0  0
    8.0709   -0.4574   -2.7054 H   0  0  0  0  0  0  0  0  0  0  0  0
    6.6556    1.1830   -3.7456 H   0  0  0  0  0  0  0  0  0  0  0  0
    4.8602    2.2554   -2.5115 H   0  0  0  0  0  0  0  0  0  0  0  0
    0.1744    1.1258   -2.0703 H   0  0  0  0  0  0  0  0  0  0  0  0
    0.3388   -1.1394   -1.9965 H   0  0  0  0  0  0  0  0  0  0  0  0
   -0.8831    2.2490   -0.3177 H   0  0  0  0  0  0  0  0  0  0  0  0
   -0.4224    1.0238    0.9207 H   0  0  0  0  0  0  0  0  0  0  0  0
   -1.9549   -1.0571    1.1273 H   0  0  0  0  0  0  0  0  0  0  0  0
   -1.8977    2.2691   -2.6745 H   0  0  0  0  0  0  0  0  0  0  0  0
   -3.6739    2.2066   -4.4178 H   0  0  0  0  0  0  0  0  0  0  0  0
   -5.4750    0.4962   -4.2734 H   0  0  0  0  0  0  0  0  0  0  0  0
   -5.4474   -1.0571   -2.4429 H   0  0  0  0  0  0  0  0  0  0  0  0
   -4.7605   -2.7455   -0.8214 H   0  0  0  0  0  0  0  0  0  0  0  0
   -3.6658   -2.9394    0.5730 H   0  0  0  0  0  0  0  0  0  0  0  0
   -6.8709   -1.4181   -0.5444 H   0  0  0  0  0  0  0  0  0  0  0  0
   -8.6191   -0.6341    0.9592 H   0  0  0  0  0  0  0  0  0  0  0  0
   -8.2022   -0.4754    3.3328 H   0  0  0  0  0  0  0  0  0  0  0  0
   -5.9798   -1.1097    4.2865 H   0  0  0  0  0  0  0  0  0  0  0  0
   -4.1802   -1.9165    2.7394 H   0  0  0  0  0  0  0  0  0  0  0  0
  1  2  1  0
  2  3  2  0
  3  4  1  0
  4  5  2  0
  5  6  1  0
  6  7  2  0
  7  8  1  0
  8  9  1  0
  9 10  1  0
 10 11  2  0
 11 12  1  0
 12 13  2  0
 13 14  1  0
 14 15  2  0
  8 16  1  0
 16 17  2  0
 16 18  1  0
 18 19  1  0
 19 20  1  0
 20 21  2  0
 18 22  1  0
 22 23  1  0
 23 24  2  0
 24 25  1  0
 25 26  1  0
 26 27  2  0
 27 28  1  0
 28 29  2  0
 29 30  1  0
 30 31  2  0
 25 32  1  0
 32 33  1  0
 33 34  2  0
 34 35  1  0
 35 36  2  0
 36 37  1  0
 37 38  2  0
  7  2  1  0
 15 10  1  0
 27 23  1  0
 38 33  1  0
 20  6  1  0
 31 26  1  0
  1 39  1  0
  1 40  1  0
  1 41  1  0
  3 42  1  0
  4 43  1  0
  5 44  1  0
  9 45  1  0
  9 46  1  0
 11 47  1  0
 12 48  1  0
 13 49  1  0
 14 50  1  0
 15 51  1  0
 18 52  1  0
 19 53  1  0
 22 54  1  0
 22 55  1  0
 24 56  1  0
 28 57  1  0
 29 58  1  0
 30 59  1  0
 31 60  1  0
 32 61  1  0
 32 62  1  0
 34 63  1  0
 35 64  1  0
 36 65  1  0
 37 66  1  0
 38 67  1  0
M  END
>  <Ligand ID>  (1) 
LIG0001730

>  <Ligand>  (1) 
CHEMBL410435

>  <SMILES>  (1) 
Cc1cccc2c1N(Cc1ccccc1)C(=O)C(NC2=O)Cc1cn(c2c1cccc2)Cc1ccccc1

>  <CID>  (1) 
44457022.0

>  <ChEMBL ID>  (1) 
nan

>  <InChiKey>  (1) 
AZKFUYPRWRRXSX-UHFFFAOYSA-N

>  <InChi>  (1) 
InChI=1S/C33H29N3O2/c1-23-11-10-17-28-31(23)36(21-25-14-6-3-7-15-25)33(38)29(34-32(28)37)19-26-22-35(20-24-12-4-2-5-13-24)30-18-9-8-16-27(26)30/h2-18,22,29H,19-21H2,1H3,(H,34,37)

>  <IUPAC Name>  (1) 
1-benzyl-3-[(1-benzylindol-3-yl)methyl]-9-methyl-3,4-dihydro-1,4-benzodiazepine-2,5-dione

$$$$
