
     RDKit          3D

 32 33  0  0  0  0  0  0  0  0999 V2000
    4.8387   -2.3059    0.7966 F   0  0  0  0  0  0  0  0  0  0  0  0
    3.5880   -1.8551    0.5840 C   0  0  0  0  0  0  0  0  0  0  0  0
    2.5542   -2.7773    0.4702 C   0  0  0  0  0  0  0  0  0  0  0  0
    1.2904   -2.2251    0.2508 C   0  0  0  0  0  0  0  0  0  0  0  0
    1.0741   -0.8803    0.1536 C   0  0  0  0  0  0  0  0  0  0  0  0
    2.1148    0.0122    0.2699 C   0  0  0  0  0  0  0  0  0  0  0  0
    3.3805   -0.4933    0.4873 C   0  0  0  0  0  0  0  0  0  0  0  0
    1.7661    1.7040    0.1358 S   0  0  0  0  0  0  0  0  0  0  0  0
    1.3548    1.9441   -1.3081 O   0  0  0  0  0  0  0  0  0  0  0  0
    0.8240    2.2595    1.1081 O   0  0  0  0  0  0  0  0  0  0  0  0
    3.3092    2.5758    0.3301 C   0  0  0  0  0  0  0  0  0  0  0  0
   -0.2475   -0.4030   -0.0710 N   0  0  0  0  0  0  0  0  0  0  0  0
   -1.3872   -1.3241   -0.2011 C   0  0  0  0  0  0  0  0  0  0  0  0
   -2.6345   -0.5321   -0.4291 C   0  0  0  0  0  0  0  0  0  0  0  0
   -3.3923   -0.6252   -1.4565 N   0  0  0  0  0  0  0  0  0  0  0  0
   -4.5185    0.2810   -1.3666 C   0  0  0  0  0  0  0  0  0  0  0  0
   -4.2228    1.1214   -0.1303 C   0  0  0  0  0  0  0  0  0  0  0  0
   -3.1275    0.4330    0.4902 N   0  0  0  0  0  0  0  0  0  0  0  0
    2.7130   -3.8403    0.5452 H   0  0  0  0  0  0  0  0  0  0  0  0
    0.4710   -2.9463    0.1601 H   0  0  0  0  0  0  0  0  0  0  0  0
    4.2128    0.2054    0.5811 H   0  0  0  0  0  0  0  0  0  0  0  0
    3.8927    2.6023   -0.6197 H   0  0  0  0  0  0  0  0  0  0  0  0
    3.1034    3.6384    0.6418 H   0  0  0  0  0  0  0  0  0  0  0  0
    3.9375    2.1597    1.1492 H   0  0  0  0  0  0  0  0  0  0  0  0
   -0.4246    0.6434   -0.1480 H   0  0  0  0  0  0  0  0  0  0  0  0
   -1.2399   -2.0511   -1.0391 H   0  0  0  0  0  0  0  0  0  0  0  0
   -1.5331   -1.9430    0.6911 H   0  0  0  0  0  0  0  0  0  0  0  0
   -5.4853   -0.2337   -1.3109 H   0  0  0  0  0  0  0  0  0  0  0  0
   -4.4663    0.9094   -2.2918 H   0  0  0  0  0  0  0  0  0  0  0  0
   -3.8506    2.1336   -0.4250 H   0  0  0  0  0  0  0  0  0  0  0  0
   -5.1176    1.1769    0.4905 H   0  0  0  0  0  0  0  0  0  0  0  0
   -2.7774    0.6358    1.4617 H   0  0  0  0  0  0  0  0  0  0  0  0
  1  2  1  0
  2  3  2  0
  3  4  1  0
  4  5  2  0
  5  6  1  0
  6  7  2  0
  6  8  1  0
  8  9  2  0
  8 10  2  0
  8 11  1  0
  5 12  1  0
 12 13  1  0
 13 14  1  0
 14 15  2  0
 15 16  1  0
 16 17  1  0
 17 18  1  0
  7  2  1  0
 18 14  1  0
  3 19  1  0
  4 20  1  0
  7 21  1  0
 11 22  1  0
 11 23  1  0
 11 24  1  0
 12 25  1  0
 13 26  1  0
 13 27  1  0
 16 28  1  0
 16 29  1  0
 17 30  1  0
 17 31  1  0
 18 32  1  0
M  END
>  <Ligand ID>  (1) 
LIG0001002

>  <Ligand>  (1) 
CHEMBL70326

>  <SMILES>  (1) 
Fc1ccc(c(c1)S(=O)(=O)C)NCC1=NCCN1

>  <CID>  (1) 
11079593.0

>  <ChEMBL ID>  (1) 
nan

>  <InChiKey>  (1) 
DLSVKFMVCHCZLY-UHFFFAOYSA-N

>  <InChi>  (1) 
InChI=1S/C11H14FN3O2S/c1-18(16,17)10-6-8(12)2-3-9(10)15-7-11-13-4-5-14-11/h2-3,6,15H,4-5,7H2,1H3,(H,13,14)

>  <IUPAC Name>  (1) 
N-(4,5-dihydro-1H-imidazol-2-ylmethyl)-4-fluoro-2-methylsulfonylaniline

$$$$
