
     RDKit          3D

 33 34  0  0  0  0  0  0  0  0999 V2000
    2.7978    3.4175    1.6923 C   0  0  0  0  0  0  0  0  0  0  0  0
    1.9036    1.9972    2.3515 S   0  0  0  0  0  0  0  0  0  0  0  0
    1.8748    0.6232    1.2435 C   0  0  0  0  0  0  0  0  0  0  0  0
    2.8754   -0.3068    1.3104 C   0  0  0  0  0  0  0  0  0  0  0  0
    2.8853   -1.3916    0.4617 C   0  0  0  0  0  0  0  0  0  0  0  0
    1.8630   -1.5059   -0.4474 C   0  0  0  0  0  0  0  0  0  0  0  0
    0.8596   -0.5656   -0.5085 C   0  0  0  0  0  0  0  0  0  0  0  0
    0.8193    0.5357    0.3292 C   0  0  0  0  0  0  0  0  0  0  0  0
   -0.2104    1.5154    0.2708 N   0  0  0  0  0  0  0  0  0  0  0  0
   -1.3180    1.4704   -0.6444 C   0  0  0  0  0  0  0  0  0  0  0  0
   -2.2029    0.2930   -0.4642 C   0  0  0  0  0  0  0  0  0  0  0  0
   -2.1515   -0.6647    0.3946 N   0  0  0  0  0  0  0  0  0  0  0  0
   -3.2276   -1.6179    0.2081 C   0  0  0  0  0  0  0  0  0  0  0  0
   -4.2519   -0.7994   -0.5506 C   0  0  0  0  0  0  0  0  0  0  0  0
   -3.3429    0.0643   -1.3146 N   0  0  0  0  0  0  0  0  0  0  0  0
    1.8369   -2.6764   -1.3925 C   0  0  0  0  0  0  0  0  0  0  0  0
    2.7036   -3.6605   -0.9685 F   0  0  0  0  0  0  0  0  0  0  0  0
    0.5551   -3.2305   -1.3126 F   0  0  0  0  0  0  0  0  0  0  0  0
    2.1177   -2.2679   -2.6935 F   0  0  0  0  0  0  0  0  0  0  0  0
    2.5560    3.5470    0.6266 H   0  0  0  0  0  0  0  0  0  0  0  0
    2.4163    4.3215    2.2296 H   0  0  0  0  0  0  0  0  0  0  0  0
    3.8903    3.3606    1.8378 H   0  0  0  0  0  0  0  0  0  0  0  0
    3.6804   -0.2040    2.0362 H   0  0  0  0  0  0  0  0  0  0  0  0
    3.6549   -2.1513    0.4781 H   0  0  0  0  0  0  0  0  0  0  0  0
    0.0929   -0.7188   -1.2481 H   0  0  0  0  0  0  0  0  0  0  0  0
   -0.1272    2.3080    0.9522 H   0  0  0  0  0  0  0  0  0  0  0  0
   -0.8832    1.3673   -1.6816 H   0  0  0  0  0  0  0  0  0  0  0  0
   -1.8717    2.4183   -0.5883 H   0  0  0  0  0  0  0  0  0  0  0  0
   -2.9353   -2.4606   -0.4424 H   0  0  0  0  0  0  0  0  0  0  0  0
   -3.6769   -1.9244    1.1685 H   0  0  0  0  0  0  0  0  0  0  0  0
   -4.9030   -1.4052   -1.1997 H   0  0  0  0  0  0  0  0  0  0  0  0
   -4.8033   -0.1346    0.1477 H   0  0  0  0  0  0  0  0  0  0  0  0
   -3.4773    0.4468   -2.2817 H   0  0  0  0  0  0  0  0  0  0  0  0
  1  2  1  0
  2  3  1  0
  3  4  2  0
  4  5  1  0
  5  6  2  0
  6  7  1  0
  7  8  2  0
  8  9  1  0
  9 10  1  0
 10 11  1  0
 11 12  2  0
 12 13  1  0
 13 14  1  0
 14 15  1  0
  6 16  1  0
 16 17  1  0
 16 18  1  0
 16 19  1  0
  8  3  1  0
 15 11  1  0
  1 20  1  0
  1 21  1  0
  1 22  1  0
  4 23  1  0
  5 24  1  0
  7 25  1  0
  9 26  1  0
 10 27  1  0
 10 28  1  0
 13 29  1  0
 13 30  1  0
 14 31  1  0
 14 32  1  0
 15 33  1  0
M  END
>  <Ligand ID>  (1) 
LIG0001008

>  <Ligand>  (1) 
CHEMBL72724

>  <SMILES>  (1) 
CSc1ccc(cc1NCC1=NCCN1)C(F)(F)F

>  <CID>  (1) 
11034737.0

>  <ChEMBL ID>  (1) 
nan

>  <InChiKey>  (1) 
GBSLCSDIFSTSOZ-UHFFFAOYSA-N

>  <InChi>  (1) 
InChI=1S/C12H14F3N3S/c1-19-10-3-2-8(12(13,14)15)6-9(10)18-7-11-16-4-5-17-11/h2-3,6,18H,4-5,7H2,1H3,(H,16,17)

>  <IUPAC Name>  (1) 
N-(4,5-dihydro-1H-imidazol-2-ylmethyl)-2-methylsulfanyl-5-(trifluoromethyl)aniline

$$$$
