
     RDKit          3D

 51 55  0  0  0  0  0  0  0  0999 V2000
    3.0192    0.9900   -1.3425 O   0  0  0  0  0  0  0  0  0  0  0  0
    2.5242   -0.0644   -0.8036 C   0  0  0  0  0  0  0  0  0  0  0  0
    1.1190   -0.1982   -0.4831 C   0  0  0  0  0  0  0  0  0  0  0  0
    0.6317   -1.4891   -0.3298 C   0  0  0  0  0  0  0  0  0  0  0  0
   -0.7150   -1.7288   -0.0849 C   0  0  0  0  0  0  0  0  0  0  0  0
   -1.5583   -0.6541    0.0018 C   0  0  0  0  0  0  0  0  0  0  0  0
   -1.0998    0.6255   -0.1440 N   0  0  0  0  0  0  0  0  0  0  0  0
    0.2301    0.8462   -0.3831 C   0  0  0  0  0  0  0  0  0  0  0  0
    0.5753    2.0684   -0.4807 N   0  0  0  0  0  0  0  0  0  0  0  0
   -2.0599    1.6758   -0.0697 C   0  0  0  0  0  0  0  0  0  0  0  0
   -1.8146    2.7757    0.8905 C   0  0  0  0  0  0  0  0  0  0  0  0
   -2.3554    4.0392    0.2218 C   0  0  0  0  0  0  0  0  0  0  0  0
   -2.9759    3.5870   -1.0685 C   0  0  0  0  0  0  0  0  0  0  0  0
   -2.2853    2.3042   -1.4396 C   0  0  0  0  0  0  0  0  0  0  0  0
   -2.8650   -0.9026    0.2169 N   0  0  0  0  0  0  0  0  0  0  0  0
   -3.3527   -2.1512    0.3449 C   0  0  0  0  0  0  0  0  0  0  0  0
   -2.5176   -3.1941    0.2562 N   0  0  0  0  0  0  0  0  0  0  0  0
   -1.2139   -3.0183    0.0460 C   0  0  0  0  0  0  0  0  0  0  0  0
   -0.4657   -4.0083   -0.0294 O   0  0  0  0  0  0  0  0  0  0  0  0
   -3.0003   -4.4362    0.3714 C   0  0  0  0  0  0  0  0  0  0  0  0
   -4.3655   -4.6534    0.5817 C   0  0  0  0  0  0  0  0  0  0  0  0
   -5.2209   -3.5496    0.6702 C   0  0  0  0  0  0  0  0  0  0  0  0
   -4.7110   -2.2744    0.5507 C   0  0  0  0  0  0  0  0  0  0  0  0
    3.4798   -1.0885   -0.5521 N   0  0  0  0  0  0  0  0  0  0  0  0
    4.8607   -0.9374   -0.8967 C   0  0  0  0  0  0  0  0  0  0  0  0
    5.5457    0.1557   -0.1749 C   0  0  0  0  0  0  0  0  0  0  0  0
    6.2420   -0.0702    1.0210 C   0  0  0  0  0  0  0  0  0  0  0  0
    6.7482    1.1558    1.4109 C   0  0  0  0  0  0  0  0  0  0  0  0
    6.3316    2.0489    0.4358 C   0  0  0  0  0  0  0  0  0  0  0  0
    5.6260    1.4386   -0.4870 O   0  0  0  0  0  0  0  0  0  0  0  0
    1.2511   -2.3717   -0.3908 H   0  0  0  0  0  0  0  0  0  0  0  0
    1.4976    2.4277   -0.6384 H   0  0  0  0  0  0  0  0  0  0  0  0
   -3.0731    1.2392    0.2029 H   0  0  0  0  0  0  0  0  0  0  0  0
   -2.4463    2.6640    1.8277 H   0  0  0  0  0  0  0  0  0  0  0  0
   -0.7968    2.8797    1.2655 H   0  0  0  0  0  0  0  0  0  0  0  0
   -1.5271    4.7196   -0.0254 H   0  0  0  0  0  0  0  0  0  0  0  0
   -3.1371    4.5385    0.8014 H   0  0  0  0  0  0  0  0  0  0  0  0
   -4.0756    3.4214   -0.9823 H   0  0  0  0  0  0  0  0  0  0  0  0
   -2.8212    4.3507   -1.8561 H   0  0  0  0  0  0  0  0  0  0  0  0
   -1.3383    2.4459   -2.0005 H   0  0  0  0  0  0  0  0  0  0  0  0
   -2.9796    1.6388   -2.0080 H   0  0  0  0  0  0  0  0  0  0  0  0
   -2.3173   -5.2827    0.2973 H   0  0  0  0  0  0  0  0  0  0  0  0
   -4.7844   -5.6458    0.6740 H   0  0  0  0  0  0  0  0  0  0  0  0
   -6.2720   -3.7412    0.8337 H   0  0  0  0  0  0  0  0  0  0  0  0
   -5.3686   -1.3967    0.6140 H   0  0  0  0  0  0  0  0  0  0  0  0
    3.1947   -1.9931   -0.1036 H   0  0  0  0  0  0  0  0  0  0  0  0
    5.4331   -1.8942   -0.7523 H   0  0  0  0  0  0  0  0  0  0  0  0
    4.9055   -0.7759   -2.0000 H   0  0  0  0  0  0  0  0  0  0  0  0
    6.3813   -0.9858    1.5593 H   0  0  0  0  0  0  0  0  0  0  0  0
    7.3515    1.3569    2.3044 H   0  0  0  0  0  0  0  0  0  0  0  0
    6.5661    3.1125    0.4468 H   0  0  0  0  0  0  0  0  0  0  0  0
  1  2  2  0
  2  3  1  0
  3  4  2  0
  4  5  1  0
  5  6  2  0
  6  7  1  0
  7  8  1  0
  8  9  2  3
  7 10  1  0
 10 11  1  0
 11 12  1  0
 12 13  1  0
 13 14  1  0
  6 15  1  0
 15 16  2  0
 16 17  1  0
 17 18  1  0
 18 19  2  0
 17 20  1  0
 20 21  2  0
 21 22  1  0
 22 23  2  0
  2 24  1  0
 24 25  1  0
 25 26  1  0
 26 27  2  0
 27 28  1  0
 28 29  2  0
 29 30  1  0
  8  3  1  0
 14 10  1  0
 23 16  1  0
 30 26  1  0
 18  5  1  0
  4 31  1  0
  9 32  1  0
 10 33  1  0
 11 34  1  0
 11 35  1  0
 12 36  1  0
 12 37  1  0
 13 38  1  0
 13 39  1  0
 14 40  1  0
 14 41  1  0
 20 42  1  0
 21 43  1  0
 22 44  1  0
 23 45  1  0
 24 46  1  0
 25 47  1  0
 25 48  1  0
 27 49  1  0
 28 50  1  0
 29 51  1  0
M  END
>  <Ligand ID>  (1) 
LIG0003030

>  <Ligand>  (1) 
MLS-0332635.0001

>  <SMILES>  (1) 
O=C(c1cc2c(n(c1=N)C1CCCC1)nc1n(c2=O)cccc1)NCc1ccco1

>  <CID>  (1) 
1077536.0

>  <ChEMBL ID>  (1) 
nan

>  <InChiKey>  (1) 
VOPPBYOHCAKAGC-UHFFFAOYSA-N

>  <InChi>  (1) 
InChI=1S/C22H21N5O3/c23-19-16(21(28)24-13-15-8-5-11-30-15)12-17-20(27(19)14-6-1-2-7-14)25-18-9-3-4-10-26(18)22(17)29/h3-5,8-12,14,23H,1-2,6-7,13H2,(H,24,28)

>  <IUPAC Name>  (1) 
7-cyclopentyl-N-(furan-2-ylmethyl)-6-imino-2-oxo-1,7,9-triazatricyclo[8.4.0.03,8]tetradeca-3(8),4,9,11,13-pentaene-5-carboxamide

$$$$
