
     RDKit          3D

 24 24  0  0  0  0  0  0  0  0999 V2000
    3.1938    0.6101    0.0741 C   0  0  0  0  0  0  0  0  0  0  0  0
    2.6711   -0.8060    0.1071 C   0  0  0  0  0  0  0  0  0  0  0  0
    1.2913   -0.8947   -0.5597 C   0  0  0  0  0  0  0  0  0  0  0  0
    0.3466    0.0039    0.1898 C   0  0  0  0  0  0  0  0  0  0  0  0
   -1.0449    0.0207   -0.3491 C   0  0  0  0  0  0  0  0  0  0  0  0
   -1.8487    0.9820    0.5360 C   0  0  0  0  0  0  0  0  0  0  0  0
   -3.2622    0.5114    0.4145 C   0  0  0  0  0  0  0  0  0  0  0  0
   -3.1026   -0.9159    0.0232 C   0  0  0  0  0  0  0  0  0  0  0  0
   -4.0503   -1.7536   -0.0782 O   0  0  0  0  0  0  0  0  0  0  0  0
   -1.7491   -1.1946   -0.2159 O   0  0  0  0  0  0  0  0  0  0  0  0
    4.2981    0.5449   -0.0264 H   0  0  0  0  0  0  0  0  0  0  0  0
    3.0221    1.1623    1.0351 H   0  0  0  0  0  0  0  0  0  0  0  0
    2.8207    1.1751   -0.8056 H   0  0  0  0  0  0  0  0  0  0  0  0
    3.3780   -1.4749   -0.4288 H   0  0  0  0  0  0  0  0  0  0  0  0
    2.5808   -1.0702    1.1788 H   0  0  0  0  0  0  0  0  0  0  0  0
    0.9588   -1.9443   -0.4019 H   0  0  0  0  0  0  0  0  0  0  0  0
    1.3578   -0.6859   -1.6260 H   0  0  0  0  0  0  0  0  0  0  0  0
    0.2842   -0.3544    1.2369 H   0  0  0  0  0  0  0  0  0  0  0  0
    0.6954    1.0505    0.2307 H   0  0  0  0  0  0  0  0  0  0  0  0
   -1.1029    0.4595   -1.3729 H   0  0  0  0  0  0  0  0  0  0  0  0
   -1.6604    2.0272    0.3015 H   0  0  0  0  0  0  0  0  0  0  0  0
   -1.5294    0.7789    1.5919 H   0  0  0  0  0  0  0  0  0  0  0  0
   -3.7964    0.6417    1.3804 H   0  0  0  0  0  0  0  0  0  0  0  0
   -3.7516    1.1264   -0.3680 H   0  0  0  0  0  0  0  0  0  0  0  0
  1  2  1  0
  2  3  1  0
  3  4  1  0
  4  5  1  0
  5  6  1  0
  6  7  1  0
  7  8  1  0
  8  9  2  0
  8 10  1  0
 10  5  1  0
  1 11  1  0
  1 12  1  0
  1 13  1  0
  2 14  1  0
  2 15  1  0
  3 16  1  0
  3 17  1  0
  4 18  1  0
  4 19  1  0
  5 20  1  0
  6 21  1  0
  6 22  1  0
  7 23  1  0
  7 24  1  0
M  END
>  <Ligand ID>  (1) 
LIG0000270

>  <Ligand>  (1) 
gamma-Octalactone

>  <SMILES>  (1) 
CCCCC1CCC(=O)O1

>  <CID>  (1) 
7704.0

>  <ChEMBL ID>  (1) 
nan

>  <InChiKey>  (1) 
IPBFYZQJXZJBFQ-UHFFFAOYSA-N

>  <InChi>  (1) 
InChI=1S/C8H14O2/c1-2-3-4-7-5-6-8(9)10-7/h7H,2-6H2,1H3

>  <IUPAC Name>  (1) 
5-butyloxolan-2-one

$$$$
