
     RDKit          3D

 24 25  0  0  0  0  0  0  0  0999 V2000
   -1.3557    1.0256    1.2596 N   0  0  0  0  0  0  0  0  0  0  0  0
   -2.3978    0.3859    0.5355 C   0  0  0  0  0  0  0  0  0  0  0  0
   -2.0264   -0.3536   -0.6953 C   0  0  1  0  0  0  0  0  0  0  0  0
   -1.3699    0.3164   -1.8740 C   0  0  0  0  0  0  0  0  0  0  0  0
   -0.6959   -0.8120   -1.0837 C   0  0  1  0  0  0  0  0  0  0  0  0
    0.5847   -0.4742   -0.4931 C   0  0  0  0  0  0  0  0  0  0  0  0
    1.0890    0.7929   -0.2979 C   0  0  0  0  0  0  0  0  0  0  0  0
    2.3311    1.0222    0.2961 C   0  0  0  0  0  0  0  0  0  0  0  0
    3.1091   -0.0320    0.7146 C   0  0  0  0  0  0  0  0  0  0  0  0
    2.6342   -1.2926    0.5329 C   0  0  0  0  0  0  0  0  0  0  0  0
    1.4109   -1.5202   -0.0518 C   0  0  0  0  0  0  0  0  0  0  0  0
   -1.6300    1.9285    1.7055 H   0  0  0  0  0  0  0  0  0  0  0  0
   -0.8384    0.4680    1.9404 H   0  0  0  0  0  0  0  0  0  0  0  0
   -3.2518    1.1000    0.3253 H   0  0  0  0  0  0  0  0  0  0  0  0
   -2.8916   -0.3054    1.2841 H   0  0  0  0  0  0  0  0  0  0  0  0
   -2.8855   -1.0062   -1.0519 H   0  0  0  0  0  0  0  0  0  0  0  0
   -1.6548    0.0493   -2.9163 H   0  0  0  0  0  0  0  0  0  0  0  0
   -1.0864    1.3546   -1.7102 H   0  0  0  0  0  0  0  0  0  0  0  0
   -0.6924   -1.8310   -1.5830 H   0  0  0  0  0  0  0  0  0  0  0  0
    0.5489    1.6512   -0.6047 H   0  0  0  0  0  0  0  0  0  0  0  0
    2.7086    2.0426    0.4398 H   0  0  0  0  0  0  0  0  0  0  0  0
    4.0575    0.1702    1.1671 H   0  0  0  0  0  0  0  0  0  0  0  0
    3.2382   -2.1359    0.8586 H   0  0  0  0  0  0  0  0  0  0  0  0
    1.0645   -2.5442   -0.1802 H   0  0  0  0  0  0  0  0  0  0  0  0
  1  2  1  0
  2  3  1  0
  3  4  1  0
  4  5  1  0
  5  6  1  0
  6  7  2  0
  7  8  1  0
  8  9  2  0
  9 10  1  0
 10 11  2  0
  5  3  1  0
 11  6  1  0
  1 12  1  0
  1 13  1  0
  2 14  1  0
  2 15  1  0
  3 16  1  6
  4 17  1  0
  4 18  1  0
  5 19  1  6
  7 20  1  0
  8 21  1  0
  9 22  1  0
 10 23  1  0
 11 24  1  0
M  END
>  <Ligand ID>  (1) 
LIG0005662

>  <Ligand>  (1) 
CHEMBL442657

>  <SMILES>  (1) 
NC[C@H]1C[C@H]1c1ccccc1

>  <CID>  (1) 
12370466.0

>  <ChEMBL ID>  (1) 
nan

>  <InChiKey>  (1) 
ATTLDOZXPZCOGK-ZJUUUORDSA-N

>  <InChi>  (1) 
InChI=1S/C10H13N/c11-7-9-6-10(9)8-4-2-1-3-5-8/h1-5,9-10H,6-7,11H2/t9-,10+/m1/s1

>  <IUPAC Name>  (1) 
[(1S,2R)-2-phenylcyclopropyl]methanamine

$$$$
