
     RDKit          3D

 42 43  0  0  0  0  0  0  0  0999 V2000
    1.1655    0.6684   -0.4603 C   0  0  0  0  0  0  0  0  0  0  0  0
    0.6474   -0.1189    0.6852 C   0  0  1  0  0  0  0  0  0  0  0  0
   -0.4506   -0.9544    0.5263 N   0  0  0  0  0  0  0  0  0  0  0  0
   -1.7733   -0.6096    0.5091 C   0  0  0  0  0  0  0  0  0  0  0  0
   -2.3764    0.1694   -0.5933 C   0  0  1  0  0  0  0  0  0  0  0  0
   -3.8759    0.1034   -0.3832 C   0  0  0  0  0  0  0  0  0  0  0  0
   -4.5138    0.9825    0.4559 C   0  0  0  0  0  0  0  0  0  0  0  0
   -5.8944    0.8906    0.6180 C   0  0  0  0  0  0  0  0  0  0  0  0
   -6.6205   -0.0835   -0.0645 C   0  0  0  0  0  0  0  0  0  0  0  0
   -5.9859   -0.9655   -0.9053 C   0  0  0  0  0  0  0  0  0  0  0  0
   -4.6300   -0.8515   -1.0451 C   0  0  0  0  0  0  0  0  0  0  0  0
   -6.8258   -2.2090   -1.7963 Cl  0  0  0  0  0  0  0  0  0  0  0  0
   -1.9532    1.4441   -0.7899 O   0  0  0  0  0  0  0  0  0  0  0  0
    1.7375   -1.0288    1.3079 C   0  0  0  0  0  0  0  0  0  0  0  0
    2.8585   -0.2953    1.7566 N   0  0  0  0  0  0  0  0  0  0  0  0
    4.0263    0.0031    0.9817 C   0  0  0  0  0  0  0  0  0  0  0  0
    5.0551    0.7924    1.4606 C   0  0  0  0  0  0  0  0  0  0  0  0
    6.1830    1.0544    0.7515 C   0  0  0  0  0  0  0  0  0  0  0  0
    6.3393    0.5219   -0.5085 C   0  0  0  0  0  0  0  0  0  0  0  0
    5.3477   -0.2735   -1.0400 C   0  0  0  0  0  0  0  0  0  0  0  0
    4.2167   -0.5190   -0.2948 C   0  0  0  0  0  0  0  0  0  0  0  0
    1.4940    0.0817   -1.3361 H   0  0  0  0  0  0  0  0  0  0  0  0
    0.5177    1.4847   -0.7601 H   0  0  0  0  0  0  0  0  0  0  0  0
    2.0869    1.2199   -0.0492 H   0  0  0  0  0  0  0  0  0  0  0  0
    0.4682    0.6394    1.5162 H   0  0  0  0  0  0  0  0  0  0  0  0
   -0.2138   -1.9661    0.3024 H   0  0  0  0  0  0  0  0  0  0  0  0
   -2.3859   -1.5634    0.6834 H   0  0  0  0  0  0  0  0  0  0  0  0
   -2.0484   -0.0142    1.4679 H   0  0  0  0  0  0  0  0  0  0  0  0
   -2.1907   -0.4194   -1.5452 H   0  0  0  0  0  0  0  0  0  0  0  0
   -3.9517    1.7419    0.9898 H   0  0  0  0  0  0  0  0  0  0  0  0
   -6.4145    1.5807    1.2820 H   0  0  0  0  0  0  0  0  0  0  0  0
   -7.6934   -0.1843    0.0352 H   0  0  0  0  0  0  0  0  0  0  0  0
   -4.1205   -1.5491   -1.7111 H   0  0  0  0  0  0  0  0  0  0  0  0
   -2.2525    1.8144   -1.6508 H   0  0  0  0  0  0  0  0  0  0  0  0
    1.2205   -1.5757    2.1327 H   0  0  0  0  0  0  0  0  0  0  0  0
    1.9518   -1.8009    0.5383 H   0  0  0  0  0  0  0  0  0  0  0  0
    2.8649    0.0724    2.7342 H   0  0  0  0  0  0  0  0  0  0  0  0
    4.9270    1.2069    2.4489 H   0  0  0  0  0  0  0  0  0  0  0  0
    6.9776    1.6745    1.1390 H   0  0  0  0  0  0  0  0  0  0  0  0
    7.2077    0.6866   -1.1302 H   0  0  0  0  0  0  0  0  0  0  0  0
    5.4264   -0.7099   -2.0159 H   0  0  0  0  0  0  0  0  0  0  0  0
    3.4516   -1.1413   -0.7139 H   0  0  0  0  0  0  0  0  0  0  0  0
  1  2  1  0
  2  3  1  0
  3  4  1  0
  4  5  1  0
  5  6  1  0
  6  7  2  0
  7  8  1  0
  8  9  2  0
  9 10  1  0
 10 11  2  0
 10 12  1  0
  5 13  1  0
  2 14  1  0
 14 15  1  0
 15 16  1  0
 16 17  2  0
 17 18  1  0
 18 19  2  0
 19 20  1  0
 20 21  2  0
 11  6  1  0
 21 16  1  0
  1 22  1  0
  1 23  1  0
  1 24  1  0
  2 25  1  1
  3 26  1  0
  4 27  1  0
  4 28  1  0
  5 29  1  6
  7 30  1  0
  8 31  1  0
  9 32  1  0
 11 33  1  0
 13 34  1  0
 14 35  1  0
 14 36  1  0
 15 37  1  0
 17 38  1  0
 18 39  1  0
 19 40  1  0
 20 41  1  0
 21 42  1  0
M  END
>  <Ligand ID>  (1) 
LIG0002264

>  <Ligand>  (1) 
CHEMBL155072

>  <SMILES>  (1) 
C[C@@H](NC[C@@H](c1cccc(c1)Cl)O)CNc1ccccc1

>  <CID>  (1) 
10902809.0

>  <ChEMBL ID>  (1) 
nan

>  <InChiKey>  (1) 
IUDHYTDAODRVLB-DYVFJYSZSA-N

>  <InChi>  (1) 
InChI=1S/C17H21ClN2O/c1-13(11-20-16-8-3-2-4-9-16)19-12-17(21)14-6-5-7-15(18)10-14/h2-10,13,17,19-21H,11-12H2,1H3/t13-,17+/m1/s1

>  <IUPAC Name>  (1) 
(1R)-2-[[(2R)-1-anilinopropan-2-yl]amino]-1-(3-chlorophenyl)ethanol

$$$$
