
     RDKit          3D

 45 45  0  0  0  0  0  0  0  0999 V2000
    0.7717    2.9480    1.8516 O   0  0  0  0  0  0  0  0  0  0  0  0
    0.0143    2.9136    0.8072 C   0  0  0  0  0  0  0  0  0  0  0  0
   -1.4097    3.1026    1.0487 C   0  0  0  0  0  0  0  0  0  0  0  0
   -2.3008    2.9212   -0.1768 C   0  0  0  0  0  0  0  0  0  0  0  0
   -2.1503    1.5369   -0.6811 C   0  0  0  0  0  0  0  0  0  0  0  0
   -2.6327    0.4511    0.2838 C   0  0  0  0  0  0  0  0  0  0  0  0
   -2.0788   -0.7987   -0.2988 C   0  0  0  0  0  0  0  0  0  0  0  0
   -2.3116   -2.0968    0.3954 C   0  0  0  0  0  0  0  0  0  0  0  0
   -1.2109   -3.0091   -0.2602 C   0  0  0  0  0  0  0  0  0  0  0  0
    0.1230   -2.5274    0.3089 C   0  0  0  0  0  0  0  0  0  0  0  0
    1.2197   -2.8649   -0.6345 C   0  0  0  0  0  0  0  0  0  0  0  0
    2.5738   -2.4701   -0.1505 C   0  0  0  0  0  0  0  0  0  0  0  0
    2.6771   -1.0845    0.3513 C   0  0  0  0  0  0  0  0  0  0  0  0
    2.2174    0.0216   -0.5371 C   0  0  0  0  0  0  0  0  0  0  0  0
    2.5503    1.3295    0.2002 C   0  0  0  0  0  0  0  0  0  0  0  0
    2.0737    2.5530   -0.4797 C   0  0  0  0  0  0  0  0  0  0  0  0
    0.6720    2.7069   -0.3805 O   0  0  0  0  0  0  0  0  0  0  0  0
   -1.8402    2.4696    1.8493 H   0  0  0  0  0  0  0  0  0  0  0  0
   -1.6185    4.1565    1.4297 H   0  0  0  0  0  0  0  0  0  0  0  0
   -1.8954    3.6022   -0.9518 H   0  0  0  0  0  0  0  0  0  0  0  0
   -3.3260    3.2243    0.0427 H   0  0  0  0  0  0  0  0  0  0  0  0
   -1.1024    1.3617   -0.9876 H   0  0  0  0  0  0  0  0  0  0  0  0
   -2.7302    1.4091   -1.6450 H   0  0  0  0  0  0  0  0  0  0  0  0
   -3.7438    0.4493    0.1743 H   0  0  0  0  0  0  0  0  0  0  0  0
   -2.3960    0.6323    1.3216 H   0  0  0  0  0  0  0  0  0  0  0  0
   -2.5446   -0.9064   -1.3400 H   0  0  0  0  0  0  0  0  0  0  0  0
   -1.0088   -0.6493   -0.4948 H   0  0  0  0  0  0  0  0  0  0  0  0
   -2.2132   -2.1028    1.4763 H   0  0  0  0  0  0  0  0  0  0  0  0
   -3.2897   -2.5030    0.0810 H   0  0  0  0  0  0  0  0  0  0  0  0
   -1.3826   -4.0510    0.0338 H   0  0  0  0  0  0  0  0  0  0  0  0
   -1.2509   -2.9355   -1.3525 H   0  0  0  0  0  0  0  0  0  0  0  0
    0.3228   -3.2111    1.2219 H   0  0  0  0  0  0  0  0  0  0  0  0
    0.1138   -1.5211    0.7159 H   0  0  0  0  0  0  0  0  0  0  0  0
    1.1729   -3.9335   -0.9087 H   0  0  0  0  0  0  0  0  0  0  0  0
    1.0385   -2.3094   -1.5907 H   0  0  0  0  0  0  0  0  0  0  0  0
    3.2532   -2.5372   -1.0530 H   0  0  0  0  0  0  0  0  0  0  0  0
    2.9978   -3.1902    0.5873 H   0  0  0  0  0  0  0  0  0  0  0  0
    3.7402   -0.8624    0.6135 H   0  0  0  0  0  0  0  0  0  0  0  0
    2.1325   -0.9583    1.3289 H   0  0  0  0  0  0  0  0  0  0  0  0
    2.8361    0.0673   -1.4856 H   0  0  0  0  0  0  0  0  0  0  0  0
    1.1716    0.0204   -0.8200 H   0  0  0  0  0  0  0  0  0  0  0  0
    3.6774    1.3484    0.3233 H   0  0  0  0  0  0  0  0  0  0  0  0
    2.1735    1.2224    1.2375 H   0  0  0  0  0  0  0  0  0  0  0  0
    2.4965    3.4400    0.0823 H   0  0  0  0  0  0  0  0  0  0  0  0
    2.4170    2.6347   -1.5375 H   0  0  0  0  0  0  0  0  0  0  0  0
  1  2  2  0
  2  3  1  0
  3  4  1  0
  4  5  1  0
  5  6  1  0
  6  7  1  0
  7  8  1  0
  8  9  1  0
  9 10  1  0
 10 11  1  0
 11 12  1  0
 12 13  1  0
 13 14  1  0
 14 15  1  0
 15 16  1  0
 16 17  1  0
 17  2  1  0
  3 18  1  0
  3 19  1  0
  4 20  1  0
  4 21  1  0
  5 22  1  0
  5 23  1  0
  6 24  1  0
  6 25  1  0
  7 26  1  0
  7 27  1  0
  8 28  1  0
  8 29  1  0
  9 30  1  0
  9 31  1  0
 10 32  1  0
 10 33  1  0
 11 34  1  0
 11 35  1  0
 12 36  1  0
 12 37  1  0
 13 38  1  0
 13 39  1  0
 14 40  1  0
 14 41  1  0
 15 42  1  0
 15 43  1  0
 16 44  1  0
 16 45  1  0
M  END
>  <Ligand ID>  (1) 
LIG0000027

>  <Ligand>  (1) 
pentadecalactone

>  <SMILES>  (1) 
O=C1CCCCCCCCCCCCCCO1

>  <CID>  (1) 
235414.0

>  <ChEMBL ID>  (1) 
nan

>  <InChiKey>  (1) 
FKUPPRZPSYCDRS-UHFFFAOYSA-N

>  <InChi>  (1) 
InChI=1S/C15H28O2/c16-15-13-11-9-7-5-3-1-2-4-6-8-10-12-14-17-15/h1-14H2

>  <IUPAC Name>  (1) 
oxacyclohexadecan-2-one

$$$$
