
     RDKit          3D

 47 47  0  0  0  0  0  0  0  0999 V2000
   -0.0330    0.0869   -1.7515 C   0  0  0  0  0  0  0  0  0  0  0  0
   -0.3260   -0.2849   -0.2923 C   0  0  2  0  0  0  0  0  0  0  0  0
    0.5410   -1.4579    0.0568 C   0  0  0  0  0  0  0  0  0  0  0  0
    1.9599   -1.0519   -0.1166 C   0  0  0  0  0  0  0  0  0  0  0  0
    2.6131   -0.4970    0.9850 C   0  0  0  0  0  0  0  0  0  0  0  0
    3.9319   -0.0977    0.8957 C   0  0  0  0  0  0  0  0  0  0  0  0
    4.6204   -0.2434   -0.2872 C   0  0  0  0  0  0  0  0  0  0  0  0
    3.9823   -0.7858   -1.3643 C   0  0  0  0  0  0  0  0  0  0  0  0
    2.6502   -1.1977   -1.3014 C   0  0  0  0  0  0  0  0  0  0  0  0
    5.9528    0.1465   -0.4210 O   0  0  0  0  0  0  0  0  0  0  0  0
    6.6794    0.7157    0.6502 C   0  0  0  0  0  0  0  0  0  0  0  0
    8.0700    1.0303    0.2148 C   0  0  0  0  0  0  0  0  0  0  0  0
    8.3696    0.7546   -0.9811 O   0  0  0  0  0  0  0  0  0  0  0  0
    8.9548    1.5958    1.1099 O   0  0  0  0  0  0  0  0  0  0  0  0
   -1.7209   -0.5411   -0.2003 N   0  0  0  0  0  0  0  0  0  0  0  0
   -2.2234   -0.9078    1.0833 C   0  0  0  0  0  0  0  0  0  0  0  0
   -3.7288   -1.1240    0.9111 C   0  0  1  0  0  0  0  0  0  0  0  0
   -4.4208    0.1075    0.4911 C   0  0  0  0  0  0  0  0  0  0  0  0
   -3.8995    1.3698    0.5769 C   0  0  0  0  0  0  0  0  0  0  0  0
   -4.5833    2.4998    0.1711 C   0  0  0  0  0  0  0  0  0  0  0  0
   -5.8642    2.3173   -0.3471 C   0  0  0  0  0  0  0  0  0  0  0  0
   -6.4366    1.0673   -0.4556 C   0  0  0  0  0  0  0  0  0  0  0  0
   -5.6934   -0.0201   -0.0294 C   0  0  0  0  0  0  0  0  0  0  0  0
   -8.0633    0.8734   -1.1177 Cl  0  0  0  0  0  0  0  0  0  0  0  0
   -3.8557   -2.1442   -0.0278 O   0  0  0  0  0  0  0  0  0  0  0  0
    0.0000    0.0000    0.0000 Na  0  0  0  0  0 15  0  0  0  0  0  0
    0.9705    0.5225   -1.8443 H   0  0  0  0  0  0  0  0  0  0  0  0
   -0.8068    0.7970   -2.1381 H   0  0  0  0  0  0  0  0  0  0  0  0
   -0.0834   -0.8029   -2.4013 H   0  0  0  0  0  0  0  0  0  0  0  0
   -0.0276    0.5556    0.3660 H   0  0  0  0  0  0  0  0  0  0  0  0
    0.3888   -2.3173   -0.6292 H   0  0  0  0  0  0  0  0  0  0  0  0
    0.4114   -1.7785    1.1038 H   0  0  0  0  0  0  0  0  0  0  0  0
    2.0766   -0.3813    1.9136 H   0  0  0  0  0  0  0  0  0  0  0  0
    4.4237    0.3345    1.7711 H   0  0  0  0  0  0  0  0  0  0  0  0
    4.4763   -0.9295   -2.3384 H   0  0  0  0  0  0  0  0  0  0  0  0
    2.1574   -1.6243   -2.1577 H   0  0  0  0  0  0  0  0  0  0  0  0
    6.6512    0.0143    1.5131 H   0  0  0  0  0  0  0  0  0  0  0  0
    6.2495    1.6659    1.0134 H   0  0  0  0  0  0  0  0  0  0  0  0
   -2.3455   -0.0105   -0.8111 H   0  0  0  0  0  0  0  0  0  0  0  0
   -1.8504   -1.9171    1.4197 H   0  0  0  0  0  0  0  0  0  0  0  0
   -2.0332   -0.1388    1.8391 H   0  0  0  0  0  0  0  0  0  0  0  0
   -4.1686   -1.4894    1.8536 H   0  0  0  0  0  0  0  0  0  0  0  0
   -2.9057    1.4946    0.9807 H   0  0  0  0  0  0  0  0  0  0  0  0
   -4.1312    3.4856    0.2569 H   0  0  0  0  0  0  0  0  0  0  0  0
   -6.4182    3.1867   -0.6711 H   0  0  0  0  0  0  0  0  0  0  0  0
   -6.1685   -1.0034   -0.1252 H   0  0  0  0  0  0  0  0  0  0  0  0
   -4.3429   -1.8750   -0.8439 H   0  0  0  0  0  0  0  0  0  0  0  0
  1  2  1  0
  2  3  1  0
  3  4  1  0
  4  5  2  0
  5  6  1  0
  6  7  2  0
  7  8  1  0
  8  9  2  0
  7 10  1  0
 10 11  1  0
 11 12  1  0
 12 13  2  0
 12 14  1  0
  2 15  1  0
 15 16  1  0
 16 17  1  0
 17 18  1  0
 18 19  2  0
 19 20  1  0
 20 21  2  0
 21 22  1  0
 22 23  2  0
 22 24  1  0
 17 25  1  0
  9  4  1  0
 23 18  1  0
  1 27  1  0
  1 28  1  0
  1 29  1  0
  2 30  1  1
  3 31  1  0
  3 32  1  0
  5 33  1  0
  6 34  1  0
  8 35  1  0
  9 36  1  0
 11 37  1  0
 11 38  1  0
 15 39  1  0
 16 40  1  0
 16 41  1  0
 17 42  1  1
 19 43  1  0
 20 44  1  0
 21 45  1  0
 23 46  1  0
 25 47  1  0
M  CHG  2  14  -1  26   1
M  END
>  <Ligand ID>  (1) 
LIG0002207

>  <Ligand>  (1) 
BRL-37344 sodium

>  <SMILES>  (1) 
C[C@H](Cc1ccc(cc1)OCC(=O)[O-])NC[C@@H](c1cccc(c1)Cl)O.[Na+]

>  <CID>  (1) 
16219010.0

>  <ChEMBL ID>  (1) 
nan

>  <InChiKey>  (1) 
SNJIJYKMYQRHRC-WJKBNZMCSA-M

>  <InChi>  (1) 
InChI=1S/C19H22ClNO4.Na/c1-13(21-11-18(22)15-3-2-4-16(20)10-15)9-14-5-7-17(8-6-14)25-12-19(23)24;/h2-8,10,13,18,21-22H,9,11-12H2,1H3,(H,23,24);/q;+1/p-1/t13-,18+;/m1./s1

>  <IUPAC Name>  (1) 
sodium;2-[4-[(2R)-2-[[(2R)-2-(3-chlorophenyl)-2-hydroxyethyl]amino]propyl]phenoxy]acetate

$$$$
