
     RDKit          3D

145150  0  0  0  0  0  0  0  0999 V2000
    7.7110   -0.9927    3.2100 C   0  0  0  0  0  0  0  0  0  0  0  0
    7.9910    0.2540    2.3339 C   0  0  0  0  0  0  0  0  0  0  0  0
    7.3373    0.0197    1.0129 C   0  0  0  0  0  0  0  0  0  0  0  0
    7.5246    1.0611   -0.0252 C   0  0  0  0  0  0  0  0  0  0  0  0
    7.0291    2.4375    0.2368 C   0  0  1  0  0  0  0  0  0  0  0  0
    5.5398    2.4607    0.4850 C   0  0  0  0  0  0  0  0  0  0  0  0
    5.1813    3.0036    1.5474 O   0  0  0  0  0  0  0  0  0  0  0  0
    4.7364    1.8872   -0.4900 N   0  0  0  0  0  0  0  0  0  0  0  0
    3.2999    1.7743   -0.5333 C   0  0  1  0  0  0  0  0  0  0  0  0
    2.8168    2.8341   -1.5305 C   0  0  0  0  0  0  0  0  0  0  0  0
    3.1070    4.1958   -0.9168 C   0  0  0  0  0  0  0  0  0  0  0  0
    2.3029    4.4293    0.2749 N   0  0  0  0  0  0  0  0  0  0  0  0
    2.2800    4.0483    1.5271 N   0  0  0  0  0  0  0  0  0  0  0  0
    1.2963    4.5697    2.2257 N   0  0  0  0  0  0  0  0  0  0  0  0
    0.6123    5.3500    1.3914 C   0  0  0  0  0  0  0  0  0  0  0  0
    1.2287    5.2758    0.1660 C   0  0  0  0  0  0  0  0  0  0  0  0
   -0.6140    6.2214    1.4877 C   0  0  0  0  0  0  0  0  0  0  0  0
   -1.5493    5.7308    0.3544 C   0  0  0  0  0  0  0  0  0  0  0  0
   -1.9118    4.3062    0.5731 C   0  0  0  0  0  0  0  0  0  0  0  0
   -2.6587    3.6690   -0.5176 C   0  0  2  0  0  0  0  0  0  0  0  0
   -3.0794    2.2916   -0.1711 N   0  0  0  0  0  0  0  0  0  0  0  0
   -4.2609    1.7289   -0.7841 C   0  0  0  0  0  0  0  0  0  0  0  0
   -4.8000    2.4834   -1.6011 O   0  0  0  0  0  0  0  0  0  0  0  0
   -4.7981    0.4107   -0.5079 C   0  0  1  0  0  0  0  0  0  0  0  0
   -3.9926   -0.2978    0.5225 N   0  0  0  0  0  0  0  0  0  0  0  0
   -2.8837   -1.1031    0.2275 C   0  0  0  0  0  0  0  0  0  0  0  0
   -2.5889   -1.0930   -1.0204 O   0  0  0  0  0  0  0  0  0  0  0  0
   -2.0506   -1.9073    1.0917 C   0  0  1  0  0  0  0  0  0  0  0  0
   -0.8522   -2.4736    0.4432 N   0  0  0  0  0  0  0  0  0  0  0  0
   -0.4750   -3.8421    0.7002 C   0  0  0  0  0  0  0  0  0  0  0  0
   -1.1983   -4.4359    1.4998 O   0  0  0  0  0  0  0  0  0  0  0  0
    0.6979   -4.5038    0.0612 C   0  0  2  0  0  0  0  0  0  0  0  0
    1.4244   -3.7115   -0.8526 N   0  0  0  0  0  0  0  0  0  0  0  0
    2.3757   -2.6840   -0.5107 C   0  0  0  0  0  0  0  0  0  0  0  0
    2.4764   -2.4524    0.6970 O   0  0  0  0  0  0  0  0  0  0  0  0
    3.1388   -1.9816   -1.5873 C   0  0  1  0  0  0  0  0  0  0  0  0
    3.7166   -0.7299   -1.0495 N   0  0  0  0  0  0  0  0  0  0  0  0
    2.9274    0.4234   -0.9494 C   0  0  0  0  0  0  0  0  0  0  0  0
    1.6967    0.2482   -1.2667 O   0  0  0  0  0  0  0  0  0  0  0  0
    4.2260   -2.8835   -2.0561 C   0  0  0  0  0  0  0  0  0  0  0  0
    3.8024   -4.1802   -2.6028 C   0  0  0  0  0  0  0  0  0  0  0  0
    3.4970   -4.4590   -3.9048 N   0  0  0  0  0  0  0  0  0  0  0  0
    3.1776   -5.7574   -4.0230 C   0  0  0  0  0  0  0  0  0  0  0  0
    3.2668   -6.3464   -2.8122 N   0  0  0  0  0  0  0  0  0  0  0  0
    3.6452   -5.4022   -1.9403 C   0  0  0  0  0  0  0  0  0  0  0  0
    0.3644   -5.8947   -0.3521 C   0  0  0  0  0  0  0  0  0  0  0  0
   -0.7517   -5.9810   -1.3194 C   0  0  0  0  0  0  0  0  0  0  0  0
   -0.5878   -5.8378   -2.6915 C   0  0  0  0  0  0  0  0  0  0  0  0
   -1.5732   -5.8993   -3.6086 C   0  0  0  0  0  0  0  0  0  0  0  0
   -2.8627   -6.1193   -3.1954 C   0  0  0  0  0  0  0  0  0  0  0  0
   -3.1078   -6.2723   -1.8531 C   0  0  0  0  0  0  0  0  0  0  0  0
   -2.0824   -6.2082   -0.9243 C   0  0  0  0  0  0  0  0  0  0  0  0
   -1.7915   -1.5664    2.5028 C   0  0  0  0  0  0  0  0  0  0  0  0
   -2.9179   -1.5272    3.4615 C   0  0  0  0  0  0  0  0  0  0  0  0
   -3.6808   -2.8295    3.5337 C   0  0  0  0  0  0  0  0  0  0  0  0
   -4.7735   -2.6355    4.5033 N   0  0  0  0  0  0  0  0  0  0  0  0
   -5.7110   -3.5400    4.5822 C   0  0  0  0  0  0  0  0  0  0  0  0
   -6.8045   -3.4692    5.4637 N   0  0  0  0  0  0  0  0  0  0  0  0
   -5.6405   -4.7001    3.7251 N   0  0  0  0  0  0  0  0  0  0  0  0
   -6.2155    0.3262   -0.0657 C   0  0  0  0  0  0  0  0  0  0  0  0
   -7.2399    0.8748   -0.9537 C   0  0  0  0  0  0  0  0  0  0  0  0
   -7.8994    0.1405   -1.9409 C   0  0  0  0  0  0  0  0  0  0  0  0
   -8.7409    0.9115   -2.6236 N   0  0  0  0  0  0  0  0  0  0  0  0
   -8.6572    2.1647   -2.1067 C   0  0  0  0  0  0  0  0  0  0  0  0
   -7.7354    2.1842   -1.0662 C   0  0  0  0  0  0  0  0  0  0  0  0
   -7.4836    3.3458   -0.3614 C   0  0  0  0  0  0  0  0  0  0  0  0
   -8.1276    4.5272   -0.6585 C   0  0  0  0  0  0  0  0  0  0  0  0
   -9.0401    4.5246   -1.6871 C   0  0  0  0  0  0  0  0  0  0  0  0
   -9.3026    3.3648   -2.4009 C   0  0  0  0  0  0  0  0  0  0  0  0
   -1.8010    3.5432   -1.7672 C   0  0  0  0  0  0  0  0  0  0  0  0
   -1.5553    2.3954   -2.2413 O   0  0  0  0  0  0  0  0  0  0  0  0
   -1.2593    4.6572   -2.4369 N   0  0  0  0  0  0  0  0  0  0  0  0
    7.7527    3.2336    1.1580 N   0  0  0  0  0  0  0  0  0  0  0  0
    8.5926    4.2816    0.6041 C   0  0  0  0  0  0  0  0  0  0  0  0
    8.6830    4.4799   -0.6233 O   0  0  0  0  0  0  0  0  0  0  0  0
    9.3874    5.1657    1.5302 C   0  0  0  0  0  0  0  0  0  0  0  0
    8.0920   -1.9107    2.7181 H   0  0  0  0  0  0  0  0  0  0  0  0
    6.6373   -1.0969    3.4050 H   0  0  0  0  0  0  0  0  0  0  0  0
    8.2291   -0.8245    4.1978 H   0  0  0  0  0  0  0  0  0  0  0  0
    9.0777    0.3869    2.1814 H   0  0  0  0  0  0  0  0  0  0  0  0
    7.5863    1.1119    2.9127 H   0  0  0  0  0  0  0  0  0  0  0  0
    7.7977   -0.9351    0.5927 H   0  0  0  0  0  0  0  0  0  0  0  0
    6.2567   -0.2783    1.1356 H   0  0  0  0  0  0  0  0  0  0  0  0
    7.1152    0.6537   -0.9966 H   0  0  0  0  0  0  0  0  0  0  0  0
    8.6434    1.1213   -0.2392 H   0  0  0  0  0  0  0  0  0  0  0  0
    7.1262    2.9749   -0.7820 H   0  0  0  0  0  0  0  0  0  0  0  0
    5.2302    1.4588   -1.3436 H   0  0  0  0  0  0  0  0  0  0  0  0
    2.8542    2.0117    0.4725 H   0  0  0  0  0  0  0  0  0  0  0  0
    3.3123    2.7145   -2.4906 H   0  0  0  0  0  0  0  0  0  0  0  0
    1.7037    2.7390   -1.6217 H   0  0  0  0  0  0  0  0  0  0  0  0
    2.8515    4.9820   -1.6491 H   0  0  0  0  0  0  0  0  0  0  0  0
    4.1888    4.3259   -0.6991 H   0  0  0  0  0  0  0  0  0  0  0  0
    0.9339    5.7945   -0.7552 H   0  0  0  0  0  0  0  0  0  0  0  0
   -1.0827    6.1646    2.4655 H   0  0  0  0  0  0  0  0  0  0  0  0
   -0.2764    7.2500    1.2976 H   0  0  0  0  0  0  0  0  0  0  0  0
   -2.4442    6.4185    0.4225 H   0  0  0  0  0  0  0  0  0  0  0  0
   -1.0678    5.9877   -0.5970 H   0  0  0  0  0  0  0  0  0  0  0  0
   -0.9711    3.7379    0.8490 H   0  0  0  0  0  0  0  0  0  0  0  0
   -2.5362    4.2614    1.4980 H   0  0  0  0  0  0  0  0  0  0  0  0
   -3.5652    4.2050   -0.8066 H   0  0  0  0  0  0  0  0  0  0  0  0
   -2.6045    1.6812    0.4744 H   0  0  0  0  0  0  0  0  0  0  0  0
   -4.6527   -0.2102   -1.4259 H   0  0  0  0  0  0  0  0  0  0  0  0
   -4.2850   -0.1767    1.4678 H   0  0  0  0  0  0  0  0  0  0  0  0
   -2.6844   -2.9205    1.2415 H   0  0  0  0  0  0  0  0  0  0  0  0
   -0.2378   -1.9780   -0.1877 H   0  0  0  0  0  0  0  0  0  0  0  0
    1.3981   -4.5409    0.9655 H   0  0  0  0  0  0  0  0  0  0  0  0
    1.2901   -3.8278   -1.8649 H   0  0  0  0  0  0  0  0  0  0  0  0
    2.4547   -1.7071   -2.3859 H   0  0  0  0  0  0  0  0  0  0  0  0
    4.6874   -0.6558   -0.7350 H   0  0  0  0  0  0  0  0  0  0  0  0
    4.9245   -3.1358   -1.2001 H   0  0  0  0  0  0  0  0  0  0  0  0
    4.9116   -2.3888   -2.7961 H   0  0  0  0  0  0  0  0  0  0  0  0
    3.5037   -3.7984   -4.6944 H   0  0  0  0  0  0  0  0  0  0  0  0
    2.8894   -6.2845   -4.9471 H   0  0  0  0  0  0  0  0  0  0  0  0
    3.8250   -5.4893   -0.8595 H   0  0  0  0  0  0  0  0  0  0  0  0
    1.2622   -6.4993   -0.6451 H   0  0  0  0  0  0  0  0  0  0  0  0
    0.0108   -6.4216    0.5708 H   0  0  0  0  0  0  0  0  0  0  0  0
    0.4367   -5.6608   -3.0710 H   0  0  0  0  0  0  0  0  0  0  0  0
   -1.3841   -5.7796   -4.6643 H   0  0  0  0  0  0  0  0  0  0  0  0
   -3.7189   -6.1805   -3.8517 H   0  0  0  0  0  0  0  0  0  0  0  0
   -4.1277   -6.4492   -1.4946 H   0  0  0  0  0  0  0  0  0  0  0  0
   -2.3593   -6.3549    0.1023 H   0  0  0  0  0  0  0  0  0  0  0  0
   -1.3214   -0.5284    2.5295 H   0  0  0  0  0  0  0  0  0  0  0  0
   -0.9649   -2.2079    2.9369 H   0  0  0  0  0  0  0  0  0  0  0  0
   -2.4263   -1.4806    4.5161 H   0  0  0  0  0  0  0  0  0  0  0  0
   -3.5843   -0.6937    3.4849 H   0  0  0  0  0  0  0  0  0  0  0  0
   -4.1956   -3.0935    2.5760 H   0  0  0  0  0  0  0  0  0  0  0  0
   -3.0779   -3.6542    3.9558 H   0  0  0  0  0  0  0  0  0  0  0  0
   -7.7488   -3.6942    5.1159 H   0  0  0  0  0  0  0  0  0  0  0  0
   -6.6606   -3.1975    6.4519 H   0  0  0  0  0  0  0  0  0  0  0  0
   -4.8199   -5.3342    3.8310 H   0  0  0  0  0  0  0  0  0  0  0  0
   -6.3868   -4.9115    3.0169 H   0  0  0  0  0  0  0  0  0  0  0  0
   -6.3145    0.7795    0.9772 H   0  0  0  0  0  0  0  0  0  0  0  0
   -6.5087   -0.7523    0.1232 H   0  0  0  0  0  0  0  0  0  0  0  0
   -7.7404   -0.9169   -2.1132 H   0  0  0  0  0  0  0  0  0  0  0  0
   -9.3832    0.7028   -3.4174 H   0  0  0  0  0  0  0  0  0  0  0  0
   -6.7620    3.2929    0.4343 H   0  0  0  0  0  0  0  0  0  0  0  0
   -7.9213    5.4265   -0.1052 H   0  0  0  0  0  0  0  0  0  0  0  0
   -9.5440    5.4620   -1.9085 H   0  0  0  0  0  0  0  0  0  0  0  0
  -10.0306    3.3532   -3.2177 H   0  0  0  0  0  0  0  0  0  0  0  0
   -1.8221    5.4511   -2.8138 H   0  0  0  0  0  0  0  0  0  0  0  0
   -0.2351    4.7227   -2.5795 H   0  0  0  0  0  0  0  0  0  0  0  0
    7.7667    3.1969    2.1880 H   0  0  0  0  0  0  0  0  0  0  0  0
    8.7409    5.2948    2.4370 H   0  0  0  0  0  0  0  0  0  0  0  0
   10.3510    4.6772    1.8097 H   0  0  0  0  0  0  0  0  0  0  0  0
    9.5698    6.1114    1.0013 H   0  0  0  0  0  0  0  0  0  0  0  0
  1  2  1  0
  2  3  1  0
  3  4  1  0
  4  5  1  0
  5  6  1  0
  6  7  2  0
  6  8  1  0
  8  9  1  0
  9 10  1  0
 10 11  1  0
 11 12  1  0
 12 13  1  0
 13 14  2  0
 14 15  1  0
 15 16  2  0
 15 17  1  0
 17 18  1  0
 18 19  1  0
 19 20  1  0
 20 21  1  0
 21 22  1  0
 22 23  2  0
 22 24  1  0
 24 25  1  0
 25 26  1  0
 26 27  2  0
 26 28  1  0
 28 29  1  0
 29 30  1  0
 30 31  2  0
 30 32  1  0
 32 33  1  0
 33 34  1  0
 34 35  2  0
 34 36  1  0
 36 37  1  0
 37 38  1  0
 38 39  2  0
 36 40  1  0
 40 41  1  0
 41 42  1  0
 42 43  1  0
 43 44  2  0
 44 45  1  0
 32 46  1  0
 46 47  1  0
 47 48  2  0
 48 49  1  0
 49 50  2  0
 50 51  1  0
 51 52  2  0
 28 53  1  0
 53 54  1  0
 54 55  1  0
 55 56  1  0
 56 57  2  3
 57 58  1  0
 57 59  1  0
 24 60  1  0
 60 61  1  0
 61 62  2  0
 62 63  1  0
 63 64  1  0
 64 65  2  0
 65 66  1  0
 66 67  2  0
 67 68  1  0
 68 69  2  0
 20 70  1  0
 70 71  2  0
 70 72  1  0
  5 73  1  0
 73 74  1  0
 74 75  2  0
 74 76  1  0
 38  9  1  0
 45 41  2  0
 52 47  1  0
 65 61  1  0
 16 12  1  0
 69 64  1  0
  1 77  1  0
  1 78  1  0
  1 79  1  0
  2 80  1  0
  2 81  1  0
  3 82  1  0
  3 83  1  0
  4 84  1  0
  4 85  1  0
  5 86  1  6
  8 87  1  0
  9 88  1  1
 10 89  1  0
 10 90  1  0
 11 91  1  0
 11 92  1  0
 16 93  1  0
 17 94  1  0
 17 95  1  0
 18 96  1  0
 18 97  1  0
 19 98  1  0
 19 99  1  0
 20100  1  6
 21101  1  0
 24102  1  6
 25103  1  0
 28104  1  1
 29105  1  0
 32106  1  1
 33107  1  0
 36108  1  6
 37109  1  0
 40110  1  0
 40111  1  0
 42112  1  0
 43113  1  0
 45114  1  0
 46115  1  0
 46116  1  0
 48117  1  0
 49118  1  0
 50119  1  0
 51120  1  0
 52121  1  0
 53122  1  0
 53123  1  0
 54124  1  0
 54125  1  0
 55126  1  0
 55127  1  0
 58128  1  0
 58129  1  0
 59130  1  0
 59131  1  0
 60132  1  0
 60133  1  0
 62134  1  0
 63135  1  0
 66136  1  0
 67137  1  0
 68138  1  0
 69139  1  0
 72140  1  0
 72141  1  0
 73142  1  0
 76143  1  0
 76144  1  0
 76145  1  0
M  END
>  <Ligand ID>  (1) 
LIG0001796

>  <Ligand>  (1) 
CHEMBL3358549

>  <SMILES>  (1) 
CCCC[C@@H](C(=O)N[C@H]1CCn2nnc(c2)CCC[C@H](NC(=O)[C@@H](NC(=O)[C@@H](NC(=O)[C@H](NC(=O)[C@@H](NC1=O)Cc1[nH]cnc1)Cc1ccccc1)CCCN=C(N)N)Cc1c[nH]c2c1cccc2)C(=O)N)NC(=O)C

>  <CID>  (1) 
118722941.0

>  <ChEMBL ID>  (1) 
nan

>  <InChiKey>  (1) 
OKIOWNSFKRZTEZ-PMHRFVFWSA-N

>  <InChi>  (1) 
InChI=1S/C51H69N17O8/c1-3-4-16-38(59-30(2)69)45(71)62-40-20-22-68-28-33(66-67-68)14-10-18-37(44(52)70)60-49(75)42(24-32-26-57-36-17-9-8-15-35(32)36)64-46(72)39(19-11-21-56-51(53)54)61-48(74)41(23-31-12-6-5-7-13-31)63-50(76)43(65-47(40)73)25-34-27-55-29-58-34/h5-9,12-13,15,17,26-29,37-43,57H,3-4,10-11,14,16,18-25H2,1-2H3,(H2,52,70)(H,55,58)(H,59,69)(H,60,75)(H,61,74)(H,62,71)(H,63,76)(H,64,72)(H,65,73)(H4,53,54,56)/t37-,38-,39-,40-,41+,42-,43-/m0/s1

>  <IUPAC Name>  (1) 
(4S,7S,10R,13S,16S,19S)-4-[[(2S)-2-acetamidohexanoyl]amino]-10-benzyl-13-[3-(diaminomethylideneamino)propyl]-7-(1H-imidazol-5-ylmethyl)-16-(1H-indol-3-ylmethyl)-5,8,11,14,17-pentaoxo-1,6,9,12,15,18,24,25-octazabicyclo[21.2.1]hexacosa-23(26),24-diene-19-carboxamide

$$$$
