
     RDKit          3D

 78 83  0  0  0  0  0  0  0  0999 V2000
    9.9801   -4.0008   -0.3756 C   0  0  0  0  0  0  0  0  0  0  0  0
    9.0665   -3.5712    0.6209 O   0  0  0  0  0  0  0  0  0  0  0  0
    8.2132   -2.5021    0.4005 C   0  0  0  0  0  0  0  0  0  0  0  0
    8.1861   -1.7854   -0.7835 C   0  0  0  0  0  0  0  0  0  0  0  0
    7.3013   -0.7358   -0.9103 C   0  0  0  0  0  0  0  0  0  0  0  0
    6.4286   -0.3428    0.0716 C   0  0  0  0  0  0  0  0  0  0  0  0
    6.4586   -1.0671    1.2628 C   0  0  0  0  0  0  0  0  0  0  0  0
    7.3427   -2.1126    1.3842 C   0  0  0  0  0  0  0  0  0  0  0  0
    5.5220    0.7786   -0.1360 C   0  0  0  0  0  0  0  0  0  0  0  0
    5.9598    1.7989   -0.9465 C   0  0  0  0  0  0  0  0  0  0  0  0
    5.1414    2.8800   -1.1754 C   0  0  0  0  0  0  0  0  0  0  0  0
    3.8700    2.9932   -0.6168 C   0  0  0  0  0  0  0  0  0  0  0  0
    3.4536    1.9622    0.1895 C   0  0  0  0  0  0  0  0  0  0  0  0
    4.2654    0.8513    0.4390 C   0  0  0  0  0  0  0  0  0  0  0  0
    3.0559    4.1943   -0.9174 C   0  0  0  0  0  0  0  0  0  0  0  0
    2.2327    3.9671   -2.1420 C   0  0  0  0  0  0  0  0  0  0  0  0
    1.3030    2.8616   -2.0450 N   0  0  0  0  0  0  0  0  0  0  0  0
    0.2964    2.8899   -1.0446 C   0  0  0  0  0  0  0  0  0  0  0  0
    0.2748    3.8956   -0.2897 O   0  0  0  0  0  0  0  0  0  0  0  0
   -0.6789    1.8186   -0.8774 C   0  0  0  0  0  0  0  0  0  0  0  0
   -0.7021    0.6831   -1.6542 C   0  0  0  0  0  0  0  0  0  0  0  0
   -1.6654   -0.2963   -1.4357 C   0  0  0  0  0  0  0  0  0  0  0  0
   -2.6268   -0.1608   -0.4352 C   0  0  0  0  0  0  0  0  0  0  0  0
   -2.6036    0.9721    0.3396 C   0  0  0  0  0  0  0  0  0  0  0  0
   -1.6387    1.9297    0.1046 C   0  0  0  0  0  0  0  0  0  0  0  0
   -3.6305    1.1446    1.4282 C   0  0  1  0  0  0  0  0  0  0  0  0
   -3.0006    2.0250    2.4603 C   0  0  0  0  0  0  0  0  0  0  0  0
   -4.8624    1.8220    0.9035 C   0  0  0  0  0  0  0  0  0  0  0  0
   -5.6266    0.9483   -0.0688 C   0  0  0  0  0  0  0  0  0  0  0  0
   -5.7902   -0.3906    0.4140 N   0  0  0  0  0  0  0  0  0  0  0  0
   -4.5886   -1.0253    0.7833 C   0  0  0  0  0  0  0  0  0  0  0  0
   -3.5952   -1.2652   -0.2980 C   0  0  0  0  0  0  0  0  0  0  0  0
   -3.9443   -0.2299    1.9104 C   0  0  2  0  0  0  0  0  0  0  0  0
   -4.8111   -0.2701    3.1377 C   0  0  0  0  0  0  0  0  0  0  0  0
   -6.7724   -1.0730   -0.3278 C   0  0  0  0  0  0  0  0  0  0  0  0
   -7.1048   -2.4729    0.0173 C   0  0  0  0  0  0  0  0  0  0  0  0
   -6.2075   -3.6223   -0.0192 C   0  0  0  0  0  0  0  0  0  0  0  0
   -7.2260   -3.4680   -1.1431 C   0  0  0  0  0  0  0  0  0  0  0  0
   10.7722   -4.5872    0.1340 H   0  0  0  0  0  0  0  0  0  0  0  0
   10.4602   -3.1093   -0.8321 H   0  0  0  0  0  0  0  0  0  0  0  0
    9.4783   -4.6484   -1.1380 H   0  0  0  0  0  0  0  0  0  0  0  0
    8.8649   -2.0672   -1.5884 H   0  0  0  0  0  0  0  0  0  0  0  0
    7.3183   -0.2036   -1.8602 H   0  0  0  0  0  0  0  0  0  0  0  0
    5.7702   -0.7613    2.0443 H   0  0  0  0  0  0  0  0  0  0  0  0
    7.3557   -2.6745    2.3284 H   0  0  0  0  0  0  0  0  0  0  0  0
    6.9367    1.7619   -1.4046 H   0  0  0  0  0  0  0  0  0  0  0  0
    5.5079    3.6845   -1.8248 H   0  0  0  0  0  0  0  0  0  0  0  0
    2.4760    2.0071    0.6443 H   0  0  0  0  0  0  0  0  0  0  0  0
    3.9541    0.0363    1.0676 H   0  0  0  0  0  0  0  0  0  0  0  0
    2.5011    4.5405   -0.0295 H   0  0  0  0  0  0  0  0  0  0  0  0
    3.7660    5.0197   -1.1604 H   0  0  0  0  0  0  0  0  0  0  0  0
    2.9532    3.7437   -2.9686 H   0  0  0  0  0  0  0  0  0  0  0  0
    1.7321    4.9077   -2.4519 H   0  0  0  0  0  0  0  0  0  0  0  0
    1.3687    2.0418   -2.7077 H   0  0  0  0  0  0  0  0  0  0  0  0
    0.0184    0.5469   -2.4283 H   0  0  0  0  0  0  0  0  0  0  0  0
   -1.6364   -1.1721   -2.0790 H   0  0  0  0  0  0  0  0  0  0  0  0
   -1.6242    2.8160    0.7140 H   0  0  0  0  0  0  0  0  0  0  0  0
   -3.0708    3.0808    2.1230 H   0  0  0  0  0  0  0  0  0  0  0  0
   -3.4203    1.9672    3.4645 H   0  0  0  0  0  0  0  0  0  0  0  0
   -1.9106    1.7637    2.5167 H   0  0  0  0  0  0  0  0  0  0  0  0
   -4.6156    2.7644    0.3594 H   0  0  0  0  0  0  0  0  0  0  0  0
   -5.5198    2.0612    1.7416 H   0  0  0  0  0  0  0  0  0  0  0  0
   -6.6386    1.3964   -0.1805 H   0  0  0  0  0  0  0  0  0  0  0  0
   -5.1244    0.9663   -1.0535 H   0  0  0  0  0  0  0  0  0  0  0  0
   -4.8522   -2.0081    1.2686 H   0  0  0  0  0  0  0  0  0  0  0  0
   -4.0809   -1.3669   -1.3142 H   0  0  0  0  0  0  0  0  0  0  0  0
   -3.0636   -2.2547   -0.1842 H   0  0  0  0  0  0  0  0  0  0  0  0
   -2.9827   -0.7366    2.1827 H   0  0  0  0  0  0  0  0  0  0  0  0
   -4.9097   -1.3456    3.4283 H   0  0  0  0  0  0  0  0  0  0  0  0
   -4.2828    0.2039    3.9893 H   0  0  0  0  0  0  0  0  0  0  0  0
   -5.8210    0.1106    2.9569 H   0  0  0  0  0  0  0  0  0  0  0  0
   -7.7308   -0.4639   -0.2210 H   0  0  0  0  0  0  0  0  0  0  0  0
   -6.5998   -1.0258   -1.4402 H   0  0  0  0  0  0  0  0  0  0  0  0
   -7.9889   -2.5594    0.7388 H   0  0  0  0  0  0  0  0  0  0  0  0
   -5.1803   -3.6200   -0.3882 H   0  0  0  0  0  0  0  0  0  0  0  0
   -6.4667   -4.4915    0.6404 H   0  0  0  0  0  0  0  0  0  0  0  0
   -8.1096   -4.1308   -1.1821 H   0  0  0  0  0  0  0  0  0  0  0  0
   -6.8810   -3.1599   -2.1304 H   0  0  0  0  0  0  0  0  0  0  0  0
  1  2  1  0
  2  3  1  0
  3  4  2  0
  4  5  1  0
  5  6  2  0
  6  7  1  0
  7  8  2  0
  6  9  1  0
  9 10  2  0
 10 11  1  0
 11 12  2  0
 12 13  1  0
 13 14  2  0
 12 15  1  0
 15 16  1  0
 16 17  1  0
 17 18  1  0
 18 19  2  0
 18 20  1  0
 20 21  2  0
 21 22  1  0
 22 23  2  0
 23 24  1  0
 24 25  2  0
 24 26  1  0
 26 27  1  1
 26 28  1  0
 28 29  1  0
 29 30  1  0
 30 31  1  0
 31 32  1  0
 31 33  1  0
 33 34  1  0
 30 35  1  0
 35 36  1  0
 36 37  1  0
 37 38  1  0
  8  3  1  0
 14  9  1  0
 25 20  1  0
 33 26  1  0
 38 36  1  0
 32 23  1  0
  1 39  1  0
  1 40  1  0
  1 41  1  0
  4 42  1  0
  5 43  1  0
  7 44  1  0
  8 45  1  0
 10 46  1  0
 11 47  1  0
 13 48  1  0
 14 49  1  0
 15 50  1  0
 15 51  1  0
 16 52  1  0
 16 53  1  0
 17 54  1  0
 21 55  1  0
 22 56  1  0
 25 57  1  0
 27 58  1  0
 27 59  1  0
 27 60  1  0
 28 61  1  0
 28 62  1  0
 29 63  1  0
 29 64  1  0
 31 65  1  0
 32 66  1  0
 32 67  1  0
 33 68  1  1
 34 69  1  0
 34 70  1  0
 34 71  1  0
 35 72  1  0
 35 73  1  0
 36 74  1  0
 37 75  1  0
 37 76  1  0
 38 77  1  0
 38 78  1  0
M  END
>  <Ligand ID>  (1) 
LIG0002295

>  <Ligand>  (1) 
CHEMBL249985

>  <SMILES>  (1) 
COc1ccc(cc1)c1ccc(cc1)CCNC(=O)c1ccc2c(c1)[C@@]1(C)CCN(C(C2)[C@@H]1C)CC1CC1

>  <CID>  (1) 
44444601.0

>  <ChEMBL ID>  (1) 
nan

>  <InChiKey>  (1) 
XREFQBQBSMEQOG-HUSBTFBPSA-N

>  <InChi>  (1) 
InChI=1S/C34H40N2O2/c1-23-32-21-28-10-11-29(20-31(28)34(23,2)17-19-36(32)22-25-4-5-25)33(37)35-18-16-24-6-8-26(9-7-24)27-12-14-30(38-3)15-13-27/h6-15,20,23,25,32H,4-5,16-19,21-22H2,1-3H3,(H,35,37)/t23-,32?,34-/m0/s1

>  <IUPAC Name>  (1) 
(1S,13R)-10-(cyclopropylmethyl)-N-[2-[4-(4-methoxyphenyl)phenyl]ethyl]-1,13-dimethyl-10-azatricyclo[7.3.1.02,7]trideca-2(7),3,5-triene-4-carboxamide

$$$$
