
     RDKit          3D

 30 29  0  0  0  0  0  0  0  0999 V2000
    2.3848   -1.1655   -1.5508 C   0  0  0  0  0  0  0  0  0  0  0  0
    1.4430   -0.7445   -0.4347 C   0  0  0  0  0  0  0  0  0  0  0  0
    2.2667   -0.3812    0.7556 C   0  0  0  0  0  0  0  0  0  0  0  0
    3.2275    0.7213    0.5435 C   0  0  0  0  0  0  0  0  0  0  0  0
    4.0915    0.7504   -0.3682 O   0  0  0  0  0  0  0  0  0  0  0  0
    3.2025    1.8300    1.3954 O   0  0  0  0  0  0  0  0  0  0  0  0
    0.5436    0.3293   -0.9392 C   0  0  0  0  0  0  0  0  0  0  0  0
   -0.4579    0.8493    0.0563 C   0  0  0  0  0  0  0  0  0  0  0  0
   -1.3836   -0.1765    0.5585 C   0  0  0  0  0  0  0  0  0  0  0  0
   -2.7112   -0.0741    0.3875 C   0  0  0  0  0  0  0  0  0  0  0  0
   -3.3344    1.0768   -0.3160 C   0  0  0  0  0  0  0  0  0  0  0  0
   -3.5579   -1.1849    0.9450 C   0  0  0  0  0  0  0  0  0  0  0  0
    1.7550   -1.6912   -2.2965 H   0  0  0  0  0  0  0  0  0  0  0  0
    2.8442   -0.2604   -2.0172 H   0  0  0  0  0  0  0  0  0  0  0  0
    3.1992   -1.8115   -1.1641 H   0  0  0  0  0  0  0  0  0  0  0  0
    0.8218   -1.6196   -0.1403 H   0  0  0  0  0  0  0  0  0  0  0  0
    1.6966   -0.2589    1.7021 H   0  0  0  0  0  0  0  0  0  0  0  0
    2.9071   -1.2972    0.9602 H   0  0  0  0  0  0  0  0  0  0  0  0
    4.0039    2.3991    1.6207 H   0  0  0  0  0  0  0  0  0  0  0  0
    1.0629    1.1771   -1.3909 H   0  0  0  0  0  0  0  0  0  0  0  0
   -0.0546   -0.1161   -1.7856 H   0  0  0  0  0  0  0  0  0  0  0  0
   -1.0590    1.6621   -0.4015 H   0  0  0  0  0  0  0  0  0  0  0  0
    0.0604    1.3043    0.9432 H   0  0  0  0  0  0  0  0  0  0  0  0
   -0.9383   -1.0320    1.0817 H   0  0  0  0  0  0  0  0  0  0  0  0
   -3.3965    1.9557    0.3652 H   0  0  0  0  0  0  0  0  0  0  0  0
   -4.4147    0.7925   -0.4960 H   0  0  0  0  0  0  0  0  0  0  0  0
   -2.8572    1.3175   -1.2919 H   0  0  0  0  0  0  0  0  0  0  0  0
   -4.4982   -0.7723    1.3880 H   0  0  0  0  0  0  0  0  0  0  0  0
   -3.7896   -1.8531    0.1131 H   0  0  0  0  0  0  0  0  0  0  0  0
   -3.0578   -1.7263    1.7767 H   0  0  0  0  0  0  0  0  0  0  0  0
  1  2  1  0
  2  3  1  0
  3  4  1  0
  4  5  2  0
  4  6  1  0
  2  7  1  0
  7  8  1  0
  8  9  1  0
  9 10  2  3
 10 11  1  0
 10 12  1  0
  1 13  1  0
  1 14  1  0
  1 15  1  0
  2 16  1  0
  3 17  1  0
  3 18  1  0
  6 19  1  0
  7 20  1  0
  7 21  1  0
  8 22  1  0
  8 23  1  0
  9 24  1  0
 11 25  1  0
 11 26  1  0
 11 27  1  0
 12 28  1  0
 12 29  1  0
 12 30  1  0
M  END
>  <Ligand ID>  (1) 
LIG0002055

>  <Ligand>  (1) 
Citronellic acid

>  <SMILES>  (1) 
CC(CC(=O)O)CCC=C(C)C

>  <CID>  (1) 
10402.0

>  <ChEMBL ID>  (1) 
nan

>  <InChiKey>  (1) 
GJWSUKYXUMVMGX-UHFFFAOYSA-N

>  <InChi>  (1) 
InChI=1S/C10H18O2/c1-8(2)5-4-6-9(3)7-10(11)12/h5,9H,4,6-7H2,1-3H3,(H,11,12)

>  <IUPAC Name>  (1) 
3,7-dimethyloct-6-enoic acid

$$$$
