
     RDKit          3D

 73 74  0  0  0  0  0  0  0  0999 V2000
   -8.4710    0.9013   -3.8164 O   0  0  0  0  0  0  0  0  0  0  0  0
   -7.9082   -0.2158   -3.2053 C   0  0  0  0  0  0  0  0  0  0  0  0
   -8.2195   -0.2876   -1.7564 C   0  0  0  0  0  0  0  0  0  0  0  0
   -7.3086    0.0051   -0.7650 C   0  0  0  0  0  0  0  0  0  0  0  0
   -7.6994   -0.1006    0.5458 C   0  0  0  0  0  0  0  0  0  0  0  0
   -9.0087   -0.4998    0.8737 C   0  0  0  0  0  0  0  0  0  0  0  0
   -9.9320   -0.7965   -0.1153 C   0  0  0  0  0  0  0  0  0  0  0  0
   -9.5008   -0.6795   -1.4231 C   0  0  0  0  0  0  0  0  0  0  0  0
  -10.4362   -0.9808   -2.4359 O   0  0  0  0  0  0  0  0  0  0  0  0
   -6.7417    0.1653    1.6948 C   0  0  2  0  0  0  0  0  0  0  0  0
   -5.3619    0.0058    1.1067 C   0  0  0  0  0  0  0  0  0  0  0  0
   -4.3266   -0.0783    2.1317 N   0  0  0  0  0  0  0  0  0  0  0  0
   -3.0697   -0.3196    1.4816 C   0  0  0  0  0  0  0  0  0  0  0  0
   -2.4972    0.8574    0.7518 C   0  0  0  0  0  0  0  0  0  0  0  0
   -1.2440    0.4604    0.0229 C   0  0  0  0  0  0  0  0  0  0  0  0
   -0.1749   -0.1164    0.8917 C   0  0  0  0  0  0  0  0  0  0  0  0
    1.0438   -0.5021    0.0505 C   0  0  0  0  0  0  0  0  0  0  0  0
    2.0596   -1.1308    0.9519 C   0  0  0  0  0  0  0  0  0  0  0  0
    2.5421   -0.3435    1.9684 O   0  0  0  0  0  0  0  0  0  0  0  0
    3.4363   -0.9897    2.7879 C   0  0  0  0  0  0  0  0  0  0  0  0
    4.6571   -1.5250    2.1164 C   0  0  0  0  0  0  0  0  0  0  0  0
    5.5300   -0.5208    1.4434 C   0  0  0  0  0  0  0  0  0  0  0  0
    6.7111   -1.2994    0.8265 C   0  0  0  0  0  0  0  0  0  0  0  0
    7.5990   -0.3066    0.1682 C   0  0  0  0  0  0  0  0  0  0  0  0
    8.6229    0.2299    0.9244 C   0  0  0  0  0  0  0  0  0  0  0  0
    9.5150    1.1743    0.4095 C   0  0  0  0  0  0  0  0  0  0  0  0
    9.3003    1.5340   -0.9151 C   0  0  0  0  0  0  0  0  0  0  0  0
    8.2760    0.9967   -1.6684 C   0  0  0  0  0  0  0  0  0  0  0  0
    7.4154    0.0718   -1.1358 C   0  0  0  0  0  0  0  0  0  0  0  0
    8.1085    1.4235   -3.0415 N   0  0  0  0  0  0  0  0  0  0  0  0
    7.2713    2.5587   -3.2134 C   0  0  0  0  0  0  0  0  0  0  0  0
    6.7834    3.0499   -2.1407 O   0  0  0  0  0  0  0  0  0  0  0  0
    6.9772    3.1333   -4.4859 N   0  0  0  0  0  0  0  0  0  0  0  0
   -7.0262   -0.8814    2.5893 O   0  0  0  0  0  0  0  0  0  0  0  0
   -8.4232    1.6444   -3.1662 H   0  0  0  0  0  0  0  0  0  0  0  0
   -8.1427   -1.1719   -3.7193 H   0  0  0  0  0  0  0  0  0  0  0  0
   -6.8065   -0.0823   -3.2843 H   0  0  0  0  0  0  0  0  0  0  0  0
   -6.3156    0.3085   -1.0427 H   0  0  0  0  0  0  0  0  0  0  0  0
   -9.2653   -0.5671    1.9402 H   0  0  0  0  0  0  0  0  0  0  0  0
  -10.9317   -1.0993    0.1610 H   0  0  0  0  0  0  0  0  0  0  0  0
  -10.5244   -1.9447   -2.7996 H   0  0  0  0  0  0  0  0  0  0  0  0
   -6.9548    1.1499    2.0660 H   0  0  0  0  0  0  0  0  0  0  0  0
   -5.3032   -0.8998    0.4820 H   0  0  0  0  0  0  0  0  0  0  0  0
   -5.1424    0.9067    0.4901 H   0  0  0  0  0  0  0  0  0  0  0  0
   -4.5675   -0.8958    2.7327 H   0  0  0  0  0  0  0  0  0  0  0  0
   -3.1660   -1.1469    0.7222 H   0  0  0  0  0  0  0  0  0  0  0  0
   -2.3060   -0.7278    2.2030 H   0  0  0  0  0  0  0  0  0  0  0  0
   -3.2287    1.2393    0.0247 H   0  0  0  0  0  0  0  0  0  0  0  0
   -2.2098    1.6812    1.4808 H   0  0  0  0  0  0  0  0  0  0  0  0
   -0.8229    1.3943   -0.4565 H   0  0  0  0  0  0  0  0  0  0  0  0
   -1.4554   -0.2299   -0.8267 H   0  0  0  0  0  0  0  0  0  0  0  0
    0.1568    0.5711    1.6754 H   0  0  0  0  0  0  0  0  0  0  0  0
   -0.5576   -1.0926    1.2869 H   0  0  0  0  0  0  0  0  0  0  0  0
    0.7251   -1.2489   -0.6953 H   0  0  0  0  0  0  0  0  0  0  0  0
    1.5066    0.4156   -0.4130 H   0  0  0  0  0  0  0  0  0  0  0  0
    1.6267   -2.0601    1.4031 H   0  0  0  0  0  0  0  0  0  0  0  0
    2.9031   -1.5338    0.3159 H   0  0  0  0  0  0  0  0  0  0  0  0
    2.9077   -1.8241    3.3215 H   0  0  0  0  0  0  0  0  0  0  0  0
    3.7824   -0.2242    3.5407 H   0  0  0  0  0  0  0  0  0  0  0  0
    5.3023   -2.0566    2.8807 H   0  0  0  0  0  0  0  0  0  0  0  0
    4.3811   -2.3329    1.3998 H   0  0  0  0  0  0  0  0  0  0  0  0
    5.9375    0.2024    2.1939 H   0  0  0  0  0  0  0  0  0  0  0  0
    4.9840    0.0476    0.6536 H   0  0  0  0  0  0  0  0  0  0  0  0
    7.2599   -1.8310    1.6140 H   0  0  0  0  0  0  0  0  0  0  0  0
    6.3117   -2.0270    0.0878 H   0  0  0  0  0  0  0  0  0  0  0  0
    8.7720   -0.0623    1.9495 H   0  0  0  0  0  0  0  0  0  0  0  0
   10.3157    1.5991    0.9843 H   0  0  0  0  0  0  0  0  0  0  0  0
    9.9812    2.2628   -1.3357 H   0  0  0  0  0  0  0  0  0  0  0  0
    6.6261   -0.3258   -1.7583 H   0  0  0  0  0  0  0  0  0  0  0  0
    8.5545    0.9485   -3.8360 H   0  0  0  0  0  0  0  0  0  0  0  0
    7.1025    2.5614   -5.3472 H   0  0  0  0  0  0  0  0  0  0  0  0
    6.6451    4.1099   -4.5313 H   0  0  0  0  0  0  0  0  0  0  0  0
   -6.5808   -0.6510    3.4695 H   0  0  0  0  0  0  0  0  0  0  0  0
  1  2  1  0
  2  3  1  0
  3  4  2  0
  4  5  1  0
  5  6  2  0
  6  7  1  0
  7  8  2  0
  8  9  1  0
  5 10  1  0
 10 11  1  0
 11 12  1  0
 12 13  1  0
 13 14  1  0
 14 15  1  0
 15 16  1  0
 16 17  1  0
 17 18  1  0
 18 19  1  0
 19 20  1  0
 20 21  1  0
 21 22  1  0
 22 23  1  0
 23 24  1  0
 24 25  2  0
 25 26  1  0
 26 27  2  0
 27 28  1  0
 28 29  2  0
 28 30  1  0
 30 31  1  0
 31 32  2  0
 31 33  1  0
 10 34  1  0
  8  3  1  0
 29 24  1  0
  1 35  1  0
  2 36  1  0
  2 37  1  0
  4 38  1  0
  6 39  1  0
  7 40  1  0
  9 41  1  0
 10 42  1  1
 11 43  1  0
 11 44  1  0
 12 45  1  0
 13 46  1  0
 13 47  1  0
 14 48  1  0
 14 49  1  0
 15 50  1  0
 15 51  1  0
 16 52  1  0
 16 53  1  0
 17 54  1  0
 17 55  1  0
 18 56  1  0
 18 57  1  0
 20 58  1  0
 20 59  1  0
 21 60  1  0
 21 61  1  0
 22 62  1  0
 22 63  1  0
 23 64  1  0
 23 65  1  0
 25 66  1  0
 26 67  1  0
 27 68  1  0
 29 69  1  0
 30 70  1  0
 33 71  1  0
 33 72  1  0
 34 73  1  0
M  END
>  <Ligand ID>  (1) 
LIG0001229

>  <Ligand>  (1) 
CHEMBL1835853

>  <SMILES>  (1) 
OCc1cc(ccc1O)[C@H](CNCCCCCCOCCCCc1cccc(c1)NC(=O)N)O

>  <CID>  (1) 
10238776.0

>  <ChEMBL ID>  (1) 
nan

>  <InChiKey>  (1) 
SMATUXQRFZGOCR-VWLOTQADSA-N

>  <InChi>  (1) 
InChI=1S/C26H39N3O5/c27-26(33)29-23-10-7-9-20(16-23)8-3-6-15-34-14-5-2-1-4-13-28-18-25(32)21-11-12-24(31)22(17-21)19-30/h7,9-12,16-17,25,28,30-32H,1-6,8,13-15,18-19H2,(H3,27,29,33)/t25-/m0/s1

>  <IUPAC Name>  (1) 
[3-[4-[6-[[(2R)-2-hydroxy-2-[4-hydroxy-3-(hydroxymethyl)phenyl]ethyl]amino]hexoxy]butyl]phenyl]urea

$$$$
