
     RDKit          3D

 32 31  0  0  0  0  0  0  0  0999 V2000
   -4.3708   -0.3033   -1.9527 O   0  0  0  0  0  0  0  0  0  0  0  0
   -4.0286   -0.3489   -0.5900 C   0  0  0  0  0  0  0  0  0  0  0  0
   -4.9033   -0.0417    0.3055 O   0  0  0  0  0  0  0  0  0  0  0  0
   -2.6635   -0.7517   -0.1954 C   0  0  0  0  0  0  0  0  0  0  0  0
   -2.0783    0.3006    0.7441 C   0  0  0  0  0  0  0  0  0  0  0  0
   -0.4285   -0.1729    1.2260 P   0  0  0  0  0  0  0  0  0  0  0  0
   -0.1367    0.3259    2.6251 O   0  0  0  0  0  0  0  0  0  0  0  0
    0.8513    0.4093    0.0700 C   0  0  0  0  0  0  0  0  0  0  0  0
    1.8567   -0.6955   -0.0891 C   0  0  0  0  0  0  0  0  0  0  0  0
    2.9896   -0.3575   -1.0198 C   0  0  0  0  0  0  0  0  0  0  0  0
    3.7317    0.8292   -0.5202 C   0  0  0  0  0  0  0  0  0  0  0  0
    3.2663    1.9975   -0.5485 O   0  0  0  0  0  0  0  0  0  0  0  0
    5.0264    0.7232    0.0254 O   0  0  0  0  0  0  0  0  0  0  0  0
    3.9206   -1.4959   -0.9523 N   0  0  0  0  0  0  0  0  0  0  0  0
   -0.3285   -1.8770    1.2423 O   0  0  0  0  0  0  0  0  0  0  0  0
   -2.1491    1.6120    0.0395 C   0  0  0  0  0  0  0  0  0  0  0  0
   -1.1299    2.2944   -0.2334 O   0  0  0  0  0  0  0  0  0  0  0  0
   -3.4374    2.0611   -0.3098 O   0  0  0  0  0  0  0  0  0  0  0  0
   -5.2139    0.1435   -2.2237 H   0  0  0  0  0  0  0  0  0  0  0  0
   -2.0182   -0.8399   -1.0824 H   0  0  0  0  0  0  0  0  0  0  0  0
   -2.6373   -1.7112    0.3928 H   0  0  0  0  0  0  0  0  0  0  0  0
   -2.7155    0.3234    1.6581 H   0  0  0  0  0  0  0  0  0  0  0  0
    1.2930    1.3331    0.4911 H   0  0  0  0  0  0  0  0  0  0  0  0
    0.3833    0.6466   -0.9122 H   0  0  0  0  0  0  0  0  0  0  0  0
    1.3044   -1.6060   -0.4083 H   0  0  0  0  0  0  0  0  0  0  0  0
    2.3278   -0.8367    0.9307 H   0  0  0  0  0  0  0  0  0  0  0  0
    2.6747   -0.2145   -2.0711 H   0  0  0  0  0  0  0  0  0  0  0  0
    5.6669    1.4943   -0.0596 H   0  0  0  0  0  0  0  0  0  0  0  0
    3.3375   -2.3464   -1.1675 H   0  0  0  0  0  0  0  0  0  0  0  0
    4.1452   -1.5830    0.0768 H   0  0  0  0  0  0  0  0  0  0  0  0
   -1.0382   -2.2479    1.8294 H   0  0  0  0  0  0  0  0  0  0  0  0
   -3.4978    2.9359   -0.8561 H   0  0  0  0  0  0  0  0  0  0  0  0
  1  2  1  0
  2  3  2  0
  2  4  1  0
  4  5  1  0
  5  6  1  0
  6  7  2  0
  6  8  1  0
  8  9  1  0
  9 10  1  0
 10 11  1  0
 11 12  2  0
 11 13  1  0
 10 14  1  0
  6 15  1  0
  5 16  1  0
 16 17  2  0
 16 18  1  0
  1 19  1  0
  4 20  1  0
  4 21  1  0
  5 22  1  0
  8 23  1  0
  8 24  1  0
  9 25  1  0
  9 26  1  0
 10 27  1  0
 13 28  1  0
 14 29  1  0
 14 30  1  0
 15 31  1  0
 18 32  1  0
M  END
>  <Ligand ID>  (1) 
LIG0005079

>  <Ligand>  (1) 
CHEMBL1092251

>  <SMILES>  (1) 
OC(=O)CC(P(=O)(CCC(C(=O)O)N)O)C(=O)O

>  <CID>  (1) 
24779942.0

>  <ChEMBL ID>  (1) 
nan

>  <InChiKey>  (1) 
WCHLSNCUKVAGGK-UHFFFAOYSA-N

>  <InChi>  (1) 
InChI=1S/C8H14NO8P/c9-4(7(12)13)1-2-18(16,17)5(8(14)15)3-6(10)11/h4-5H,1-3,9H2,(H,10,11)(H,12,13)(H,14,15)(H,16,17)

>  <IUPAC Name>  (1) 
2-[(3-amino-3-carboxypropyl)-hydroxyphosphoryl]butanedioic acid

$$$$
