
     RDKit          3D

 38 40  0  0  0  0  0  0  0  0999 V2000
   -2.6714    1.7840    0.0101 C   0  0  0  0  0  0  0  0  0  0  0  0
   -2.6981    0.4559    0.6922 C   0  0  0  0  0  0  0  0  0  0  0  0
   -1.7484   -0.5554    0.2016 C   0  0  1  0  0  0  0  0  0  0  0  0
   -1.9144   -0.9203   -1.2556 C   0  0  0  0  0  0  0  0  0  0  0  0
   -1.1830   -2.1515   -1.4683 N   0  0  0  0  0  0  0  0  0  0  0  0
    0.2444   -1.9629   -1.2735 C   0  0  0  0  0  0  0  0  0  0  0  0
    0.5535   -1.4058    0.0874 C   0  0  2  0  0  0  0  0  0  0  0  0
   -0.3450   -0.2699    0.3811 N   0  0  0  0  0  0  0  0  0  0  0  0
    0.4614    0.8338    0.7567 C   0  0  0  0  0  0  0  0  0  0  0  0
    0.0319    1.9468    1.1456 O   0  0  0  0  0  0  0  0  0  0  0  0
    1.8633    0.3970    0.5944 C   0  0  0  0  0  0  0  0  0  0  0  0
    1.9093   -0.8981    0.1519 C   0  0  0  0  0  0  0  0  0  0  0  0
    3.1214   -1.4664   -0.1001 C   0  0  0  0  0  0  0  0  0  0  0  0
    4.2841   -0.7417    0.0917 C   0  0  0  0  0  0  0  0  0  0  0  0
    4.2063    0.5540    0.5377 C   0  0  0  0  0  0  0  0  0  0  0  0
    2.9895    1.1765    0.8075 C   0  0  0  0  0  0  0  0  0  0  0  0
    2.9004    2.5756    1.2894 C   0  0  0  0  0  0  0  0  0  0  0  0
    2.2851    2.6877    2.5167 F   0  0  0  0  0  0  0  0  0  0  0  0
    2.2960    3.3694    0.3284 F   0  0  0  0  0  0  0  0  0  0  0  0
    4.1846    3.0556    1.4558 F   0  0  0  0  0  0  0  0  0  0  0  0
   -4.1048   -0.1287    0.5173 C   0  0  0  0  0  0  0  0  0  0  0  0
   -2.5962    2.6097    0.7436 H   0  0  0  0  0  0  0  0  0  0  0  0
   -3.6366    1.9960   -0.5377 H   0  0  0  0  0  0  0  0  0  0  0  0
   -1.8999    1.8734   -0.7959 H   0  0  0  0  0  0  0  0  0  0  0  0
   -2.5549    0.5501    1.7932 H   0  0  0  0  0  0  0  0  0  0  0  0
   -1.9518   -1.5151    0.7595 H   0  0  0  0  0  0  0  0  0  0  0  0
   -1.3839   -0.1278   -1.8465 H   0  0  0  0  0  0  0  0  0  0  0  0
   -2.9633   -1.0210   -1.5401 H   0  0  0  0  0  0  0  0  0  0  0  0
   -1.4873   -2.7978   -0.6813 H   0  0  0  0  0  0  0  0  0  0  0  0
    0.6408   -1.2902   -2.0470 H   0  0  0  0  0  0  0  0  0  0  0  0
    0.7128   -2.9667   -1.3411 H   0  0  0  0  0  0  0  0  0  0  0  0
    0.3957   -2.1556    0.8942 H   0  0  0  0  0  0  0  0  0  0  0  0
    3.1736   -2.4879   -0.4513 H   0  0  0  0  0  0  0  0  0  0  0  0
    5.2231   -1.2345   -0.1215 H   0  0  0  0  0  0  0  0  0  0  0  0
    5.1277    1.0929    0.6783 H   0  0  0  0  0  0  0  0  0  0  0  0
   -4.0866   -1.1776    0.1705 H   0  0  0  0  0  0  0  0  0  0  0  0
   -4.7009    0.4521   -0.2227 H   0  0  0  0  0  0  0  0  0  0  0  0
   -4.6784   -0.1354    1.4604 H   0  0  0  0  0  0  0  0  0  0  0  0
  1  2  1  0
  2  3  1  0
  3  4  1  0
  4  5  1  0
  5  6  1  0
  6  7  1  0
  7  8  1  0
  8  9  1  0
  9 10  2  0
  9 11  1  0
 11 12  2  0
 12 13  1  0
 13 14  2  0
 14 15  1  0
 15 16  2  0
 16 17  1  0
 17 18  1  0
 17 19  1  0
 17 20  1  0
  2 21  1  0
  8  3  1  0
 16 11  1  0
 12  7  1  0
  1 22  1  0
  1 23  1  0
  1 24  1  0
  2 25  1  0
  3 26  1  1
  4 27  1  0
  4 28  1  0
  5 29  1  0
  6 30  1  0
  6 31  1  0
  7 32  1  1
 13 33  1  0
 14 34  1  0
 15 35  1  0
 21 36  1  0
 21 37  1  0
 21 38  1  0
M  END
>  <Ligand ID>  (1) 
LIG0003418

>  <Ligand>  (1) 
CHEMBL2113264

>  <SMILES>  (1) 
CC([C@H]1CNC[C@@H]2N1C(=O)c1c2cccc1C(F)(F)F)C

>  <CID>  (1) 
16115271.0

>  <ChEMBL ID>  (1) 
nan

>  <InChiKey>  (1) 
KXGOSZXOKPHJFK-NEPJUHHUSA-N

>  <InChi>  (1) 
InChI=1S/C15H17F3N2O/c1-8(2)11-6-19-7-12-9-4-3-5-10(15(16,17)18)13(9)14(21)20(11)12/h3-5,8,11-12,19H,6-7H2,1-2H3/t11-,12+/m1/s1

>  <IUPAC Name>  (1) 
(4S,10bR)-4-propan-2-yl-7-(trifluoromethyl)-2,3,4,10b-tetrahydro-1H-pyrazino[1,2-b]isoindol-6-one

$$$$
