
     RDKit          3D

 23 22  0  0  0  0  0  0  0  0999 V2000
    3.7474    0.6677   -0.1785 C   0  0  0  0  0  0  0  0  0  0  0  0
    2.8224   -0.3607    0.4405 C   0  0  0  0  0  0  0  0  0  0  0  0
    1.4226    0.0048    0.0182 C   0  0  0  0  0  0  0  0  0  0  0  0
    0.3782   -0.9325    0.5589 C   0  0  0  0  0  0  0  0  0  0  0  0
   -0.9379   -0.4172    0.0403 C   0  0  0  0  0  0  0  0  0  0  0  0
   -1.0072    0.6035   -0.6899 O   0  0  0  0  0  0  0  0  0  0  0  0
   -2.1304   -1.0536    0.3510 O   0  0  0  0  0  0  0  0  0  0  0  0
   -3.3566   -0.5511   -0.1480 C   0  0  0  0  0  0  0  0  0  0  0  0
   -3.6441    0.8441    0.2896 C   0  0  0  0  0  0  0  0  0  0  0  0
    3.2535    1.2115   -1.0062 H   0  0  0  0  0  0  0  0  0  0  0  0
    4.6762    0.2195   -0.5827 H   0  0  0  0  0  0  0  0  0  0  0  0
    3.9887    1.4547    0.5785 H   0  0  0  0  0  0  0  0  0  0  0  0
    2.9358   -0.2942    1.5348 H   0  0  0  0  0  0  0  0  0  0  0  0
    3.1321   -1.3571    0.0870 H   0  0  0  0  0  0  0  0  0  0  0  0
    1.4123   -0.0436   -1.0977 H   0  0  0  0  0  0  0  0  0  0  0  0
    1.2041    1.0237    0.3295 H   0  0  0  0  0  0  0  0  0  0  0  0
    0.4017   -0.9038    1.6605 H   0  0  0  0  0  0  0  0  0  0  0  0
    0.5548   -1.9765    0.2590 H   0  0  0  0  0  0  0  0  0  0  0  0
   -4.1347   -1.2480    0.2256 H   0  0  0  0  0  0  0  0  0  0  0  0
   -3.3944   -0.5631   -1.2593 H   0  0  0  0  0  0  0  0  0  0  0  0
   -3.5750    1.5799   -0.5616 H   0  0  0  0  0  0  0  0  0  0  0  0
   -4.7062    0.8987    0.6073 H   0  0  0  0  0  0  0  0  0  0  0  0
   -3.0431    1.1937    1.1620 H   0  0  0  0  0  0  0  0  0  0  0  0
  1  2  1  0
  2  3  1  0
  3  4  1  0
  4  5  1  0
  5  6  2  0
  5  7  1  0
  7  8  1  0
  8  9  1  0
  1 10  1  0
  1 11  1  0
  1 12  1  0
  2 13  1  0
  2 14  1  0
  3 15  1  0
  3 16  1  0
  4 17  1  0
  4 18  1  0
  8 19  1  0
  8 20  1  0
  9 21  1  0
  9 22  1  0
  9 23  1  0
M  END
>  <Ligand ID>  (1) 
LIG0000543

>  <Ligand>  (1) 
Ethyl valerate

>  <SMILES>  (1) 
CCCCC(=O)OCC

>  <CID>  (1) 
10882.0

>  <ChEMBL ID>  (1) 
nan

>  <InChiKey>  (1) 
ICMAFTSLXCXHRK-UHFFFAOYSA-N

>  <InChi>  (1) 
InChI=1S/C7H14O2/c1-3-5-6-7(8)9-4-2/h3-6H2,1-2H3

>  <IUPAC Name>  (1) 
ethyl pentanoate

$$$$
