
     RDKit          3D

 74 79  0  0  0  0  0  0  0  0999 V2000
    5.4341    0.6361    2.7677 C   0  0  0  0  0  0  0  0  0  0  0  0
    4.7551    0.8493    1.4643 C   0  0  1  0  0  0  0  0  0  0  0  0
    5.6140    0.8327    0.2432 C   0  0  0  0  0  0  0  0  0  0  0  0
    4.8582    1.4700   -0.8953 C   0  0  0  0  0  0  0  0  0  0  0  0
    3.3838    1.3999   -0.7476 C   0  0  0  0  0  0  0  0  0  0  0  0
    2.7483    0.6796    0.2426 C   0  0  0  0  0  0  0  0  0  0  0  0
    3.5900   -0.0723    1.2198 C   0  0  2  0  0  0  0  0  0  0  0  0
    2.7873   -0.2899    2.5021 C   0  0  0  0  0  0  0  0  0  0  0  0
    3.9630   -1.3634    0.5806 C   0  0  0  0  0  0  0  0  0  0  0  0
    5.4409   -1.5801    0.3981 C   0  0  0  0  0  0  0  0  0  0  0  0
    6.1450   -0.4696   -0.1076 N   0  0  0  0  0  0  0  0  0  0  0  0
    7.5200   -0.4319   -0.1210 C   0  0  0  0  0  0  0  0  0  0  0  0
    8.3971   -1.2620   -0.9382 C   0  0  0  0  0  0  0  0  0  0  0  0
    8.1811   -1.0995   -2.4579 C   0  0  0  0  0  0  0  0  0  0  0  0
    8.1736   -2.4517   -1.6999 C   0  0  0  0  0  0  0  0  0  0  0  0
    1.3764    0.6423    0.3426 C   0  0  0  0  0  0  0  0  0  0  0  0
    0.5744    1.3172   -0.5347 C   0  0  0  0  0  0  0  0  0  0  0  0
    1.2056    2.0444   -1.5339 C   0  0  0  0  0  0  0  0  0  0  0  0
    2.5871    2.0844   -1.6379 C   0  0  0  0  0  0  0  0  0  0  0  0
   -0.8806    1.3204   -0.4898 C   0  0  0  0  0  0  0  0  0  0  0  0
   -1.5557    1.9787   -1.3500 O   0  0  0  0  0  0  0  0  0  0  0  0
   -1.6428    0.6171    0.4793 N   0  0  0  0  0  0  0  0  0  0  0  0
   -3.0731    0.6042    0.5433 C   0  0  0  0  0  0  0  0  0  0  0  0
   -3.7301    0.0418   -0.7135 C   0  0  0  0  0  0  0  0  0  0  0  0
   -5.2016    0.0428   -0.6014 C   0  0  0  0  0  0  0  0  0  0  0  0
   -6.0122    1.0797   -0.9869 C   0  0  0  0  0  0  0  0  0  0  0  0
   -7.4050    1.0313   -0.8606 C   0  0  0  0  0  0  0  0  0  0  0  0
   -8.0197   -0.0909   -0.3306 C   0  0  0  0  0  0  0  0  0  0  0  0
   -7.1940   -1.1227    0.0515 C   0  0  0  0  0  0  0  0  0  0  0  0
   -5.8299   -1.0872   -0.0671 C   0  0  0  0  0  0  0  0  0  0  0  0
   -9.4384   -0.2394   -0.1607 C   0  0  0  0  0  0  0  0  0  0  0  0
   -9.8973   -1.0165    0.9012 C   0  0  0  0  0  0  0  0  0  0  0  0
  -11.2635   -1.1584    1.0607 C   0  0  0  0  0  0  0  0  0  0  0  0
  -12.1608   -0.5609    0.2110 C   0  0  0  0  0  0  0  0  0  0  0  0
  -11.6948    0.2025   -0.8316 C   0  0  0  0  0  0  0  0  0  0  0  0
  -10.3214    0.3652   -1.0195 C   0  0  0  0  0  0  0  0  0  0  0  0
    5.5856   -0.4010    3.0878 H   0  0  0  0  0  0  0  0  0  0  0  0
    6.3258    1.2752    2.8068 H   0  0  0  0  0  0  0  0  0  0  0  0
    4.7538    1.0655    3.5630 H   0  0  0  0  0  0  0  0  0  0  0  0
    4.3781    1.9171    1.5179 H   0  0  0  0  0  0  0  0  0  0  0  0
    6.4725    1.5383    0.4673 H   0  0  0  0  0  0  0  0  0  0  0  0
    5.1196    2.5648   -1.0038 H   0  0  0  0  0  0  0  0  0  0  0  0
    5.1994    1.0419   -1.8790 H   0  0  0  0  0  0  0  0  0  0  0  0
    3.4538   -0.5981    3.3051 H   0  0  0  0  0  0  0  0  0  0  0  0
    2.1497    0.5705    2.7031 H   0  0  0  0  0  0  0  0  0  0  0  0
    2.1132   -1.1581    2.2784 H   0  0  0  0  0  0  0  0  0  0  0  0
    3.3762   -1.5559   -0.3672 H   0  0  0  0  0  0  0  0  0  0  0  0
    3.6046   -2.1915    1.2501 H   0  0  0  0  0  0  0  0  0  0  0  0
    5.4727   -2.3562   -0.4263 H   0  0  0  0  0  0  0  0  0  0  0  0
    5.8481   -2.0030    1.3273 H   0  0  0  0  0  0  0  0  0  0  0  0
    7.8600   -0.5194    0.9574 H   0  0  0  0  0  0  0  0  0  0  0  0
    7.8339    0.6311   -0.3451 H   0  0  0  0  0  0  0  0  0  0  0  0
    9.4836   -1.0344   -0.6925 H   0  0  0  0  0  0  0  0  0  0  0  0
    7.2124   -0.6793   -2.7843 H   0  0  0  0  0  0  0  0  0  0  0  0
    9.0245   -0.9863   -3.1316 H   0  0  0  0  0  0  0  0  0  0  0  0
    9.0414   -3.1403   -1.8940 H   0  0  0  0  0  0  0  0  0  0  0  0
    7.2509   -2.9933   -1.8892 H   0  0  0  0  0  0  0  0  0  0  0  0
    0.9476    0.0708    1.1255 H   0  0  0  0  0  0  0  0  0  0  0  0
    0.6181    2.6017   -2.2614 H   0  0  0  0  0  0  0  0  0  0  0  0
    3.0295    2.6611   -2.4284 H   0  0  0  0  0  0  0  0  0  0  0  0
   -1.0715    0.0726    1.1925 H   0  0  0  0  0  0  0  0  0  0  0  0
   -3.4830    1.6285    0.7672 H   0  0  0  0  0  0  0  0  0  0  0  0
   -3.3864   -0.0668    1.3671 H   0  0  0  0  0  0  0  0  0  0  0  0
   -3.3743    0.5503   -1.6339 H   0  0  0  0  0  0  0  0  0  0  0  0
   -3.3897   -1.0120   -0.7792 H   0  0  0  0  0  0  0  0  0  0  0  0
   -5.5505    1.9670   -1.4042 H   0  0  0  0  0  0  0  0  0  0  0  0
   -8.0330    1.8635   -1.1712 H   0  0  0  0  0  0  0  0  0  0  0  0
   -7.6233   -2.0298    0.4747 H   0  0  0  0  0  0  0  0  0  0  0  0
   -5.2248   -1.9217    0.2470 H   0  0  0  0  0  0  0  0  0  0  0  0
   -9.2439   -1.5070    1.5970 H   0  0  0  0  0  0  0  0  0  0  0  0
  -11.6146   -1.7634    1.8864 H   0  0  0  0  0  0  0  0  0  0  0  0
  -13.2251   -0.6757    0.3410 H   0  0  0  0  0  0  0  0  0  0  0  0
  -12.4129    0.6627   -1.4870 H   0  0  0  0  0  0  0  0  0  0  0  0
   -9.9365    0.9677   -1.8414 H   0  0  0  0  0  0  0  0  0  0  0  0
  1  2  1  0
  2  3  1  0
  3  4  1  0
  4  5  1  0
  5  6  2  0
  6  7  1  0
  7  8  1  1
  7  9  1  0
  9 10  1  0
 10 11  1  0
 11 12  1  0
 12 13  1  0
 13 14  1  0
 14 15  1  0
  6 16  1  0
 16 17  2  0
 17 18  1  0
 18 19  2  0
 17 20  1  0
 20 21  2  0
 20 22  1  0
 22 23  1  0
 23 24  1  0
 24 25  1  0
 25 26  2  0
 26 27  1  0
 27 28  2  0
 28 29  1  0
 29 30  2  0
 28 31  1  0
 31 32  2  0
 32 33  1  0
 33 34  2  0
 34 35  1  0
 35 36  2  0
  7  2  1  0
 15 13  1  0
 30 25  1  0
 36 31  1  0
 11  3  1  0
 19  5  1  0
  1 37  1  0
  1 38  1  0
  1 39  1  0
  2 40  1  1
  3 41  1  0
  4 42  1  0
  4 43  1  0
  8 44  1  0
  8 45  1  0
  8 46  1  0
  9 47  1  0
  9 48  1  0
 10 49  1  0
 10 50  1  0
 12 51  1  0
 12 52  1  0
 13 53  1  0
 14 54  1  0
 14 55  1  0
 15 56  1  0
 15 57  1  0
 16 58  1  0
 18 59  1  0
 19 60  1  0
 22 61  1  0
 23 62  1  0
 23 63  1  0
 24 64  1  0
 24 65  1  0
 26 66  1  0
 27 67  1  0
 29 68  1  0
 30 69  1  0
 32 70  1  0
 33 71  1  0
 34 72  1  0
 35 73  1  0
 36 74  1  0
M  END
>  <Ligand ID>  (1) 
LIG0005522

>  <Ligand>  (1) 
CHEMBL377789

>  <SMILES>  (1) 
C[C@H]1C2Cc3c([C@@]1(C)CCN2CC1CC1)cc(cc3)C(=O)NCCc1ccc(cc1)c1ccccc1

>  <CID>  (1) 
16006949.0

>  <ChEMBL ID>  (1) 
nan

>  <InChiKey>  (1) 
GZDNGLGWJBOMSN-CHCCDMOGSA-N

>  <InChi>  (1) 
InChI=1S/C33H38N2O/c1-23-31-21-28-14-15-29(20-30(28)33(23,2)17-19-35(31)22-25-8-9-25)32(36)34-18-16-24-10-12-27(13-11-24)26-6-4-3-5-7-26/h3-7,10-15,20,23,25,31H,8-9,16-19,21-22H2,1-2H3,(H,34,36)/t23-,31?,33-/m0/s1

>  <IUPAC Name>  (1) 
(1S,13R)-10-(cyclopropylmethyl)-1,13-dimethyl-N-[2-(4-phenylphenyl)ethyl]-10-azatricyclo[7.3.1.02,7]trideca-2(7),3,5-triene-4-carboxamide

$$$$
