
     RDKit          3D

 30 31  0  0  0  0  0  0  0  0999 V2000
   -3.7153   -2.0649   -0.3010 O   0  0  0  0  0  0  0  0  0  0  0  0
   -2.9321   -1.2347    0.4809 C   0  0  0  0  0  0  0  0  0  0  0  0
   -3.4662   -0.6039    1.4507 O   0  0  0  0  0  0  0  0  0  0  0  0
   -1.4646   -1.0385    0.2388 C   0  0  2  0  0  0  0  0  0  0  0  0
   -1.2228    0.3846   -0.1234 C   0  0  2  0  0  0  0  0  0  0  0  0
    0.1009    0.9609   -0.4336 C   0  0  1  0  0  0  0  0  0  0  0  0
   -0.6769    1.4058    0.7948 C   0  0  1  0  0  0  0  0  0  0  0  0
   -1.1553    2.8210    0.7564 C   0  0  0  0  0  0  0  0  0  0  0  0
   -1.0370    3.5043    1.8165 O   0  0  0  0  0  0  0  0  0  0  0  0
   -1.7111    3.3851   -0.3858 O   0  0  0  0  0  0  0  0  0  0  0  0
    1.3783    0.2812   -0.2699 C   0  0  0  0  0  0  0  0  0  0  0  0
    1.7755   -0.3762    0.8968 C   0  0  0  0  0  0  0  0  0  0  0  0
    2.9794   -1.0138    1.0199 C   0  0  0  0  0  0  0  0  0  0  0  0
    3.8709   -1.0410   -0.0088 C   0  0  0  0  0  0  0  0  0  0  0  0
    3.5241   -0.4053   -1.1821 C   0  0  0  0  0  0  0  0  0  0  0  0
    2.3143    0.2350   -1.3053 C   0  0  0  0  0  0  0  0  0  0  0  0
   -1.1404   -1.8812   -0.9273 N   0  0  0  0  0  0  0  0  0  0  0  0
   -4.6768   -2.2517   -0.0145 H   0  0  0  0  0  0  0  0  0  0  0  0
   -0.8615   -1.4620    1.0408 H   0  0  0  0  0  0  0  0  0  0  0  0
   -2.1076    0.7950   -0.7054 H   0  0  0  0  0  0  0  0  0  0  0  0
    0.0802    1.6379   -1.3381 H   0  0  0  0  0  0  0  0  0  0  0  0
   -0.2699    1.1495    1.7909 H   0  0  0  0  0  0  0  0  0  0  0  0
   -1.8117    4.4037   -0.4802 H   0  0  0  0  0  0  0  0  0  0  0  0
    1.1185   -0.3862    1.7505 H   0  0  0  0  0  0  0  0  0  0  0  0
    3.2405   -1.5095    1.9463 H   0  0  0  0  0  0  0  0  0  0  0  0
    4.8141   -1.5531    0.1191 H   0  0  0  0  0  0  0  0  0  0  0  0
    4.2270   -0.4172   -2.0168 H   0  0  0  0  0  0  0  0  0  0  0  0
    2.0881    0.7194   -2.2460 H   0  0  0  0  0  0  0  0  0  0  0  0
   -1.5094   -2.8364   -0.6367 H   0  0  0  0  0  0  0  0  0  0  0  0
   -1.7533   -1.6079   -1.7275 H   0  0  0  0  0  0  0  0  0  0  0  0
  1  2  1  0
  2  3  2  0
  2  4  1  0
  4  5  1  0
  5  6  1  0
  6  7  1  0
  7  8  1  0
  8  9  2  0
  8 10  1  0
  6 11  1  0
 11 12  2  0
 12 13  1  0
 13 14  2  0
 14 15  1  0
 15 16  2  0
  4 17  1  0
  7  5  1  0
 16 11  1  0
  1 18  1  0
  4 19  1  1
  5 20  1  6
  6 21  1  6
  7 22  1  1
 10 23  1  0
 12 24  1  0
 13 25  1  0
 14 26  1  0
 15 27  1  0
 16 28  1  0
 17 29  1  0
 17 30  1  0
M  END
>  <Ligand ID>  (1) 
LIG0002591

>  <Ligand>  (1) 
CHEMBL2114116

>  <SMILES>  (1) 
OC(=O)[C@H]([C@@H]1[C@@H]([C@H]1C(=O)O)c1ccccc1)N

>  <CID>  (1) 
10489913.0

>  <ChEMBL ID>  (1) 
nan

>  <InChiKey>  (1) 
IFLWVSHRWAIVQF-JLIMGVALSA-N

>  <InChi>  (1) 
InChI=1S/C12H13NO4/c13-10(12(16)17)8-7(9(8)11(14)15)6-4-2-1-3-5-6/h1-5,7-10H,13H2,(H,14,15)(H,16,17)/t7-,8+,9+,10-/m0/s1

>  <IUPAC Name>  (1) 
(1R,2R,3S)-2-[(S)-amino(carboxy)methyl]-3-phenylcyclopropane-1-carboxylic acid

$$$$
