
     RDKit          3D

 51 55  0  0  0  0  0  0  0  0999 V2000
   -4.6985    2.8283   -0.3308 C   0  0  0  0  0  0  0  0  0  0  0  0
   -3.3503    2.6691   -0.6610 O   0  0  0  0  0  0  0  0  0  0  0  0
   -2.7046    1.4774   -0.3560 C   0  0  0  0  0  0  0  0  0  0  0  0
   -3.3332    0.4171    0.2690 C   0  0  0  0  0  0  0  0  0  0  0  0
   -2.6549   -0.7717    0.5632 C   0  0  0  0  0  0  0  0  0  0  0  0
   -3.3603   -1.8950    1.2370 C   0  0  0  0  0  0  0  0  0  0  0  0
   -1.3306   -0.8674    0.2136 C   0  0  0  0  0  0  0  0  0  0  0  0
   -0.7417    0.1898   -0.3985 C   0  0  0  0  0  0  0  0  0  0  0  0
   -1.3735    1.3548   -0.6964 C   0  0  0  0  0  0  0  0  0  0  0  0
   -0.4193    2.1625   -1.3120 O   0  0  0  0  0  0  0  0  0  0  0  0
    0.8888    1.7005   -0.9216 C   0  0  2  0  0  0  0  0  0  0  0  0
    0.6772    0.2409   -0.8380 C   0  0  2  0  0  0  0  0  0  0  0  0
    0.8569   -0.4899   -2.1301 C   0  0  0  0  0  0  0  0  0  0  0  0
    1.6759   -1.7264   -2.0292 C   0  0  0  0  0  0  0  0  0  0  0  0
    1.3666   -2.5935   -0.9419 N   0  0  0  0  0  0  0  0  0  0  0  0
    0.9175   -1.9206    0.2597 C   0  0  2  0  0  0  0  0  0  0  0  0
   -0.5411   -2.0886    0.4900 C   0  0  0  0  0  0  0  0  0  0  0  0
    1.4282   -0.5099    0.2161 C   0  0  2  0  0  0  0  0  0  0  0  0
    1.5032    0.1764    1.5352 C   0  0  0  0  0  0  0  0  0  0  0  0
    2.0590    1.5617    1.2955 C   0  0  2  0  0  0  0  0  0  0  0  0
    1.1966    2.3751    0.3613 C   0  0  2  0  0  0  0  0  0  0  0  0
    0.0033    2.6475    1.0545 O   0  0  0  0  0  0  0  0  0  0  0  0
    3.5033    1.5321    0.8613 C   0  0  0  0  0  0  0  0  0  0  0  0
    2.5572   -3.3663   -0.6314 C   0  0  0  0  0  0  0  0  0  0  0  0
   -5.2841    1.9162   -0.6337 H   0  0  0  0  0  0  0  0  0  0  0  0
   -4.8616    3.1168    0.7133 H   0  0  0  0  0  0  0  0  0  0  0  0
   -5.1046    3.6437   -0.9841 H   0  0  0  0  0  0  0  0  0  0  0  0
   -4.3701    0.5062    0.5368 H   0  0  0  0  0  0  0  0  0  0  0  0
   -3.1438   -2.8791    0.7632 H   0  0  0  0  0  0  0  0  0  0  0  0
   -4.4551   -1.7420    1.0937 H   0  0  0  0  0  0  0  0  0  0  0  0
   -3.1447   -1.9255    2.3227 H   0  0  0  0  0  0  0  0  0  0  0  0
    1.6289    1.9255   -1.7203 H   0  0  0  0  0  0  0  0  0  0  0  0
   -0.1289   -0.6161   -2.6182 H   0  0  0  0  0  0  0  0  0  0  0  0
    1.4177    0.2096   -2.8151 H   0  0  0  0  0  0  0  0  0  0  0  0
    1.4954   -2.3078   -2.9800 H   0  0  0  0  0  0  0  0  0  0  0  0
    2.7611   -1.4524   -2.0954 H   0  0  0  0  0  0  0  0  0  0  0  0
    1.4190   -2.3887    1.1486 H   0  0  0  0  0  0  0  0  0  0  0  0
   -0.9193   -2.9012   -0.1656 H   0  0  0  0  0  0  0  0  0  0  0  0
   -0.8010   -2.4086    1.5416 H   0  0  0  0  0  0  0  0  0  0  0  0
    2.4857   -0.5886   -0.1606 H   0  0  0  0  0  0  0  0  0  0  0  0
    2.2824   -0.3539    2.1340 H   0  0  0  0  0  0  0  0  0  0  0  0
    0.5546    0.2716    2.0716 H   0  0  0  0  0  0  0  0  0  0  0  0
    2.0370    2.0849    2.2852 H   0  0  0  0  0  0  0  0  0  0  0  0
    1.7218    3.3303    0.1820 H   0  0  0  0  0  0  0  0  0  0  0  0
    0.0657    3.4422    1.6383 H   0  0  0  0  0  0  0  0  0  0  0  0
    3.5896    1.9519   -0.1620 H   0  0  0  0  0  0  0  0  0  0  0  0
    4.1758    2.1379    1.5247 H   0  0  0  0  0  0  0  0  0  0  0  0
    3.9368    0.5107    0.8570 H   0  0  0  0  0  0  0  0  0  0  0  0
    2.6961   -4.1941   -1.3579 H   0  0  0  0  0  0  0  0  0  0  0  0
    2.4136   -3.7420    0.4053 H   0  0  0  0  0  0  0  0  0  0  0  0
    3.4067   -2.6517   -0.6344 H   0  0  0  0  0  0  0  0  0  0  0  0
  1  2  1  0
  2  3  1  0
  3  4  2  0
  4  5  1  0
  5  6  1  0
  5  7  2  0
  7  8  1  0
  8  9  2  0
  9 10  1  0
 10 11  1  0
 11 12  1  0
 12 13  1  6
 13 14  1  0
 14 15  1  0
 15 16  1  0
 16 17  1  0
 16 18  1  0
 18 19  1  0
 19 20  1  0
 20 21  1  0
 21 22  1  0
 20 23  1  0
 15 24  1  0
  9  3  1  0
 21 11  1  0
 17  7  1  0
 12  8  1  0
 18 12  1  0
  1 25  1  0
  1 26  1  0
  1 27  1  0
  4 28  1  0
  6 29  1  0
  6 30  1  0
  6 31  1  0
 11 32  1  6
 13 33  1  0
 13 34  1  0
 14 35  1  0
 14 36  1  0
 16 37  1  1
 17 38  1  0
 17 39  1  0
 18 40  1  6
 19 41  1  0
 19 42  1  0
 20 43  1  1
 21 44  1  6
 22 45  1  0
 23 46  1  0
 23 47  1  0
 23 48  1  0
 24 49  1  0
 24 50  1  0
 24 51  1  0
M  END
>  <Ligand ID>  (1) 
LIG0001099

>  <Ligand>  (1) 
CHEMBL2418744

>  <SMILES>  (1) 
COc1cc(C)c2c3c1O[C@@H]1[C@@]43CCN([C@H](C2)[C@@H]4C[C@H]([C@@H]1O)C)C

>  <CID>  (1) 
71819526.0

>  <ChEMBL ID>  (1) 
nan

>  <InChiKey>  (1) 
NJMQCEQGPCHKGG-JWRNYFHVSA-N

>  <InChi>  (1) 
InChI=1S/C20H27NO3/c1-10-8-15(23-4)18-16-12(10)9-14-13-7-11(2)17(22)19(24-18)20(13,16)5-6-21(14)3/h8,11,13-14,17,19,22H,5-7,9H2,1-4H3/t11-,13+,14-,17+,19+,20+/m1/s1

>  <IUPAC Name>  (1) 
(4R,4aR,6R,7S,7aR,12bS)-9-methoxy-3,6,11-trimethyl-2,4,4a,5,6,7,7a,13-octahydro-1H-4,12-methanobenzofuro[3,2-e]isoquinolin-7-ol

$$$$
