
     RDKit          3D

 20 20  0  0  0  0  0  0  0  0999 V2000
   -0.7525    2.7381   -0.1239 C   0  0  0  0  0  0  0  0  0  0  0  0
    0.0149    1.6051    0.1634 O   0  0  0  0  0  0  0  0  0  0  0  0
   -0.5406    0.3075    0.1475 C   0  0  0  0  0  0  0  0  0  0  0  0
   -1.8707    0.1436   -0.1565 N   0  0  0  0  0  0  0  0  0  0  0  0
   -2.3885   -1.1148   -0.1674 C   0  0  0  0  0  0  0  0  0  0  0  0
   -1.5650   -2.1828    0.1261 C   0  0  0  0  0  0  0  0  0  0  0  0
   -0.2616   -2.0612    0.4283 N   0  0  0  0  0  0  0  0  0  0  0  0
    0.2301   -0.7983    0.4320 C   0  0  0  0  0  0  0  0  0  0  0  0
    1.6792   -0.6572    0.7469 C   0  0  0  0  0  0  0  0  0  0  0  0
    2.3724   -0.4495   -0.5882 C   0  0  0  0  0  0  0  0  0  0  0  0
   -1.4615    3.0322    0.6990 H   0  0  0  0  0  0  0  0  0  0  0  0
   -1.3946    2.5596   -1.0234 H   0  0  0  0  0  0  0  0  0  0  0  0
   -0.0657    3.5996   -0.2718 H   0  0  0  0  0  0  0  0  0  0  0  0
   -3.4411   -1.2252   -0.4127 H   0  0  0  0  0  0  0  0  0  0  0  0
   -1.9766   -3.1692    0.1144 H   0  0  0  0  0  0  0  0  0  0  0  0
    1.7851    0.2713    1.3806 H   0  0  0  0  0  0  0  0  0  0  0  0
    2.0623   -1.5026    1.3310 H   0  0  0  0  0  0  0  0  0  0  0  0
    1.7667   -0.8901   -1.4331 H   0  0  0  0  0  0  0  0  0  0  0  0
    2.4026    0.6387   -0.7837 H   0  0  0  0  0  0  0  0  0  0  0  0
    3.4050   -0.8448   -0.6083 H   0  0  0  0  0  0  0  0  0  0  0  0
  1  2  1  0
  2  3  1  0
  3  4  2  0
  4  5  1  0
  5  6  2  0
  6  7  1  0
  7  8  2  0
  8  9  1  0
  9 10  1  0
  8  3  1  0
  1 11  1  0
  1 12  1  0
  1 13  1  0
  5 14  1  0
  6 15  1  0
  9 16  1  0
  9 17  1  0
 10 18  1  0
 10 19  1  0
 10 20  1  0
M  END
>  <Ligand ID>  (1) 
LIG0000305

>  <Ligand>  (1) 
2-Ethyl-3-methoxypyrazine

>  <SMILES>  (1) 
COc1nccnc1CC

>  <CID>  (1) 
33135.0

>  <ChEMBL ID>  (1) 
nan

>  <InChiKey>  (1) 
DPCILIMHENXHQX-UHFFFAOYSA-N

>  <InChi>  (1) 
InChI=1S/C7H10N2O/c1-3-6-7(10-2)9-5-4-8-6/h4-5H,3H2,1-2H3

>  <IUPAC Name>  (1) 
2-ethyl-3-methoxypyrazine

$$$$
