
     RDKit          3D

 56 57  0  0  0  0  0  0  0  0999 V2000
   10.1701   -3.1390    0.4156 N   0  0  0  0  0  0  0  0  0  0  0  0
    9.9934   -2.0038    0.2657 C   0  0  0  0  0  0  0  0  0  0  0  0
    9.7834   -0.5724    0.0615 C   0  0  0  0  0  0  0  0  0  0  0  0
    8.3255   -0.3466   -0.3581 C   0  0  0  0  0  0  0  0  0  0  0  0
    8.0775    1.0020   -0.5642 O   0  0  0  0  0  0  0  0  0  0  0  0
    6.4934    1.3271   -1.0285 P   0  0  0  0  0  0  0  0  0  0  0  0
    6.5051    2.3642   -2.1227 O   0  0  0  0  0  0  0  0  0  0  0  0
    5.7060   -0.0448   -1.6180 O   0  0  0  0  0  0  0  0  0  0  0  0
    4.4697   -0.5314   -0.5741 P   0  0  0  0  0  0  0  0  0  0  0  0
    4.1693   -1.9915   -0.8293 O   0  0  0  0  0  0  0  0  0  0  0  0
    3.0306    0.3350   -0.8551 O   0  0  0  0  0  0  0  0  0  0  0  0
    2.1378    0.4604    0.5903 P   0  0  0  0  0  0  0  0  0  0  0  0
    3.0373    0.9433    1.7124 O   0  0  0  0  0  0  0  0  0  0  0  0
    0.9089    1.5793    0.3257 O   0  0  0  0  0  0  0  0  0  0  0  0
   -0.3894    1.3337    1.4048 P   0  0  0  0  0  0  0  0  0  0  0  0
   -0.6727    2.6866    2.0238 O   0  0  0  0  0  0  0  0  0  0  0  0
   -1.7607    0.8748    0.5785 O   0  0  0  0  0  0  0  0  0  0  0  0
   -1.5778   -0.1958   -0.2858 C   0  0  0  0  0  0  0  0  0  0  0  0
   -2.9204   -0.4587   -0.9347 C   0  0  1  0  0  0  0  0  0  0  0  0
   -3.9060   -0.7737   -0.0032 O   0  0  0  0  0  0  0  0  0  0  0  0
   -5.0675   -0.4149   -0.6876 C   0  0  2  0  0  0  0  0  0  0  0  0
   -4.7415    1.0253   -1.0217 C   0  0  1  0  0  0  0  0  0  0  0  0
   -3.3330    0.8436   -1.5899 C   0  0  2  0  0  0  0  0  0  0  0  0
   -3.4028    0.6606   -2.9539 O   0  0  0  0  0  0  0  0  0  0  0  0
   -5.6056    1.6047   -1.9179 O   0  0  0  0  0  0  0  0  0  0  0  0
   -6.2568   -0.5234    0.1271 N   0  0  0  0  0  0  0  0  0  0  0  0
   -6.9651    0.5346    0.5577 C   0  0  0  0  0  0  0  0  0  0  0  0
   -8.0915    0.3341    1.3341 C   0  0  0  0  0  0  0  0  0  0  0  0
   -8.5167   -0.9444    1.6858 C   0  0  0  0  0  0  0  0  0  0  0  0
   -9.5394   -1.1420    2.3914 O   0  0  0  0  0  0  0  0  0  0  0  0
   -7.7657   -1.9617    1.2242 N   0  0  0  0  0  0  0  0  0  0  0  0
   -6.6625   -1.7571    0.4633 C   0  0  0  0  0  0  0  0  0  0  0  0
   -6.0232   -2.7883    0.0785 O   0  0  0  0  0  0  0  0  0  0  0  0
    0.0484    0.2977    2.6537 O   0  0  0  0  0  0  0  0  0  0  0  0
    1.5268   -1.0345    1.0159 O   0  0  0  0  0  0  0  0  0  0  0  0
    4.9282   -0.3323    1.0450 O   0  0  0  0  0  0  0  0  0  0  0  0
    5.6495    1.9819    0.2900 O   0  0  0  0  0  0  0  0  0  0  0  0
   10.4666   -0.1593   -0.7069 H   0  0  0  0  0  0  0  0  0  0  0  0
   10.0061   -0.0240    0.9930 H   0  0  0  0  0  0  0  0  0  0  0  0
    7.6509   -0.6741    0.4373 H   0  0  0  0  0  0  0  0  0  0  0  0
    8.1398   -0.8836   -1.2985 H   0  0  0  0  0  0  0  0  0  0  0  0
   -0.8983    0.1460   -1.0948 H   0  0  0  0  0  0  0  0  0  0  0  0
   -1.1367   -1.0840    0.1700 H   0  0  0  0  0  0  0  0  0  0  0  0
   -2.8337   -1.2920   -1.6414 H   0  0  0  0  0  0  0  0  0  0  0  0
   -5.0927   -0.9786   -1.6205 H   0  0  0  0  0  0  0  0  0  0  0  0
   -4.6427    1.6133   -0.0713 H   0  0  0  0  0  0  0  0  0  0  0  0
   -2.6878    1.6996   -1.3140 H   0  0  0  0  0  0  0  0  0  0  0  0
   -4.3021    0.3594   -3.2573 H   0  0  0  0  0  0  0  0  0  0  0  0
   -5.5591    2.5953   -1.7304 H   0  0  0  0  0  0  0  0  0  0  0  0
   -6.6481    1.5257    0.2937 H   0  0  0  0  0  0  0  0  0  0  0  0
   -8.6960    1.1565    1.7055 H   0  0  0  0  0  0  0  0  0  0  0  0
   -8.0432   -2.9512    1.4612 H   0  0  0  0  0  0  0  0  0  0  0  0
   -0.6393   -0.3292    2.9372 H   0  0  0  0  0  0  0  0  0  0  0  0
    1.9394   -1.3813    1.8230 H   0  0  0  0  0  0  0  0  0  0  0  0
    4.9953   -1.2145    1.4907 H   0  0  0  0  0  0  0  0  0  0  0  0
    6.2189    2.6433    0.7430 H   0  0  0  0  0  0  0  0  0  0  0  0
  1  2  3  0
  2  3  1  0
  3  4  1  0
  4  5  1  0
  5  6  1  0
  6  7  2  0
  6  8  1  0
  8  9  1  0
  9 10  2  0
  9 11  1  0
 11 12  1  0
 12 13  2  0
 12 14  1  0
 14 15  1  0
 15 16  2  0
 15 17  1  0
 17 18  1  0
 18 19  1  0
 19 20  1  0
 20 21  1  0
 21 22  1  0
 22 23  1  0
 23 24  1  0
 22 25  1  0
 21 26  1  0
 26 27  1  0
 27 28  2  0
 28 29  1  0
 29 30  2  0
 29 31  1  0
 31 32  1  0
 32 33  2  0
 15 34  1  0
 12 35  1  0
  9 36  1  0
  6 37  1  0
 23 19  1  0
 32 26  1  0
  3 38  1  0
  3 39  1  0
  4 40  1  0
  4 41  1  0
 18 42  1  0
 18 43  1  0
 19 44  1  6
 21 45  1  6
 22 46  1  1
 23 47  1  6
 24 48  1  0
 25 49  1  0
 27 50  1  0
 28 51  1  0
 31 52  1  0
 34 53  1  0
 35 54  1  0
 36 55  1  0
 37 56  1  0
M  END
>  <Ligand ID>  (1) 
LIG0002831

>  <Ligand>  (1) 
CHEMBL484105

>  <SMILES>  (1) 
N#CCCOP(=O)(OP(=O)(OP(=O)(OP(=O)(OC[C@H]1O[C@H]([C@@H]([C@@H]1O)O)n1ccc(=O)[nH]c1=O)O)O)O)O

>  <CID>  (1) 
44586044.0

>  <ChEMBL ID>  (1) 
nan

>  <InChiKey>  (1) 
YXQHIYLIDUDMIY-QCNRFFRDSA-N

>  <InChi>  (1) 
InChI=1S/C12H19N3O18P4/c13-3-1-5-28-34(20,21)31-36(24,25)33-37(26,27)32-35(22,23)29-6-7-9(17)10(18)11(30-7)15-4-2-8(16)14-12(15)19/h2,4,7,9-11,17-18H,1,5-6H2,(H,20,21)(H,22,23)(H,24,25)(H,26,27)(H,14,16,19)/t7-,9-,10-,11-/m1/s1

>  <IUPAC Name>  (1) 
[2-cyanoethoxy(hydroxy)phosphoryl] [[[(2R,3S,4R,5R)-5-(2,4-dioxopyrimidin-1-yl)-3,4-dihydroxyoxolan-2-yl]methoxy-hydroxyphosphoryl]oxy-hydroxyphosphoryl] hydrogen phosphate

$$$$
