
     RDKit          3D

 27 28  0  0  0  0  0  0  0  0999 V2000
    2.4694   -0.7369   -1.3500 O   0  0  0  0  0  0  0  0  0  0  0  0
    1.4804   -0.1525   -0.9391 C   0  0  0  0  0  0  0  0  0  0  0  0
    0.7193    0.9203   -1.6780 C   0  0  0  0  0  0  0  0  0  0  0  0
   -0.5652    0.9904   -0.9129 C   0  0  1  0  0  0  0  0  0  0  0  0
   -0.6755   -0.3298   -0.1580 C   0  0  0  0  0  0  0  0  0  0  0  0
    0.7518   -0.3053    0.3516 C   0  0  1  0  0  0  0  0  0  0  0  0
    1.1688   -1.4100    1.2086 C   0  0  0  0  0  0  0  0  0  0  0  0
    0.7685    1.0670    1.0211 C   0  0  0  0  0  0  0  0  0  0  0  0
   -0.2897    1.8868    0.2871 C   0  0  0  0  0  0  0  0  0  0  0  0
   -0.9502   -1.4850   -1.0672 C   0  0  0  0  0  0  0  0  0  0  0  0
   -1.6869   -0.2868    0.9344 C   0  0  0  0  0  0  0  0  0  0  0  0
    1.3208    1.8467   -1.5295 H   0  0  0  0  0  0  0  0  0  0  0  0
    0.6056    0.6708   -2.7457 H   0  0  0  0  0  0  0  0  0  0  0  0
   -1.4404    1.2566   -1.4790 H   0  0  0  0  0  0  0  0  0  0  0  0
    1.7967   -2.1381    0.6311 H   0  0  0  0  0  0  0  0  0  0  0  0
    1.8763   -1.0290    2.0003 H   0  0  0  0  0  0  0  0  0  0  0  0
    0.3861   -1.9696    1.7371 H   0  0  0  0  0  0  0  0  0  0  0  0
    1.7809    1.5255    0.8448 H   0  0  0  0  0  0  0  0  0  0  0  0
    0.5802    0.9850    2.0978 H   0  0  0  0  0  0  0  0  0  0  0  0
   -1.1986    2.0003    0.9058 H   0  0  0  0  0  0  0  0  0  0  0  0
    0.1319    2.8578    0.0042 H   0  0  0  0  0  0  0  0  0  0  0  0
   -1.9578   -1.3161   -1.5055 H   0  0  0  0  0  0  0  0  0  0  0  0
   -0.2476   -1.5660   -1.9128 H   0  0  0  0  0  0  0  0  0  0  0  0
   -1.0101   -2.3889   -0.4559 H   0  0  0  0  0  0  0  0  0  0  0  0
   -1.2979    0.1765    1.8713 H   0  0  0  0  0  0  0  0  0  0  0  0
   -1.9142   -1.3432    1.2096 H   0  0  0  0  0  0  0  0  0  0  0  0
   -2.6029    0.2733    0.6288 H   0  0  0  0  0  0  0  0  0  0  0  0
  1  2  2  0
  2  3  1  0
  3  4  1  0
  4  5  1  0
  5  6  1  0
  6  7  1  1
  6  8  1  0
  8  9  1  0
  5 10  1  0
  5 11  1  0
  6  2  1  0
  9  4  1  0
  3 12  1  0
  3 13  1  0
  4 14  1  6
  7 15  1  0
  7 16  1  0
  7 17  1  0
  8 18  1  0
  8 19  1  0
  9 20  1  0
  9 21  1  0
 10 22  1  0
 10 23  1  0
 10 24  1  0
 11 25  1  0
 11 26  1  0
 11 27  1  0
M  END
>  <Ligand ID>  (1) 
LIG0000132

>  <Ligand>  (1) 
(-)-Camphor

>  <SMILES>  (1) 
O=C1C[C@H]2C([C@]1(C)CC2)(C)C

>  <CID>  (1) 
444294.0

>  <ChEMBL ID>  (1) 
nan

>  <InChiKey>  (1) 
DSSYKIVIOFKYAU-OIBJUYFYSA-N

>  <InChi>  (1) 
InChI=1S/C10H16O/c1-9(2)7-4-5-10(9,3)8(11)6-7/h7H,4-6H2,1-3H3/t7-,10+/m0/s1

>  <IUPAC Name>  (1) 
(1S,4S)-1,7,7-trimethylbicyclo[2.2.1]heptan-2-one

$$$$
