
     RDKit          3D

 26 25  0  0  0  0  0  0  0  0999 V2000
    4.0527    0.1766   -1.4193 Br  0  0  0  0  0  0  0  0  0  0  0  0
    3.5534    1.3154    0.0686 C   0  0  0  0  0  0  0  0  0  0  0  0
    2.1028    0.9741    0.4256 C   0  0  0  0  0  0  0  0  0  0  0  0
    1.9603   -0.4693    0.8200 C   0  0  0  0  0  0  0  0  0  0  0  0
    0.5499   -0.8311    1.1745 C   0  0  0  0  0  0  0  0  0  0  0  0
   -0.4272   -0.6170    0.0402 C   0  0  0  0  0  0  0  0  0  0  0  0
   -1.7709   -1.0372    0.5961 C   0  0  0  0  0  0  0  0  0  0  0  0
   -2.9000   -0.8982   -0.3936 C   0  0  0  0  0  0  0  0  0  0  0  0
   -3.0015    0.5227   -0.8017 C   0  0  0  0  0  0  0  0  0  0  0  0
   -2.2420    1.0583   -1.6553 O   0  0  0  0  0  0  0  0  0  0  0  0
   -3.9743    1.3800   -0.2486 O   0  0  0  0  0  0  0  0  0  0  0  0
    4.2479    1.1446    0.9009 H   0  0  0  0  0  0  0  0  0  0  0  0
    3.5412    2.3500   -0.3075 H   0  0  0  0  0  0  0  0  0  0  0  0
    1.5396    1.1040   -0.5376 H   0  0  0  0  0  0  0  0  0  0  0  0
    1.7166    1.6155    1.2242 H   0  0  0  0  0  0  0  0  0  0  0  0
    2.4114   -1.1507    0.0710 H   0  0  0  0  0  0  0  0  0  0  0  0
    2.5554   -0.6220    1.7465 H   0  0  0  0  0  0  0  0  0  0  0  0
    0.2453   -0.2032    2.0213 H   0  0  0  0  0  0  0  0  0  0  0  0
    0.4880   -1.8829    1.4715 H   0  0  0  0  0  0  0  0  0  0  0  0
   -0.4130    0.4016   -0.3654 H   0  0  0  0  0  0  0  0  0  0  0  0
   -0.2231   -1.3081   -0.8120 H   0  0  0  0  0  0  0  0  0  0  0  0
   -1.9569   -0.4884    1.5167 H   0  0  0  0  0  0  0  0  0  0  0  0
   -1.6574   -2.1243    0.8759 H   0  0  0  0  0  0  0  0  0  0  0  0
   -2.7893   -1.5929   -1.2348 H   0  0  0  0  0  0  0  0  0  0  0  0
   -3.8244   -1.1713    0.1496 H   0  0  0  0  0  0  0  0  0  0  0  0
   -3.7845    2.3538   -0.0520 H   0  0  0  0  0  0  0  0  0  0  0  0
  1  2  1  0
  2  3  1  0
  3  4  1  0
  4  5  1  0
  5  6  1  0
  6  7  1  0
  7  8  1  0
  8  9  1  0
  9 10  2  0
  9 11  1  0
  2 12  1  0
  2 13  1  0
  3 14  1  0
  3 15  1  0
  4 16  1  0
  4 17  1  0
  5 18  1  0
  5 19  1  0
  6 20  1  0
  6 21  1  0
  7 22  1  0
  7 23  1  0
  8 24  1  0
  8 25  1  0
 11 26  1  0
M  END
>  <Ligand ID>  (1) 
LIG0000275

>  <Ligand>  (1) 
8-bromooctanoic acid

>  <SMILES>  (1) 
BrCCCCCCCC(=O)O

>  <CID>  (1) 
548275.0

>  <ChEMBL ID>  (1) 
nan

>  <InChiKey>  (1) 
BKJFDZSBZWHRNH-UHFFFAOYSA-N

>  <InChi>  (1) 
InChI=1S/C8H15BrO2/c9-7-5-3-1-2-4-6-8(10)11/h1-7H2,(H,10,11)

>  <IUPAC Name>  (1) 
8-bromooctanoic acid

$$$$
