
     RDKit          3D

132134  0  0  0  0  0  0  0  0999 V2000
    9.2412   -1.9221    4.1501 C   0  0  0  0  0  0  0  0  0  0  0  0
    8.6090   -3.2134    3.0649 S   0  0  0  0  0  0  0  0  0  0  0  0
    8.1627   -2.5495    1.4315 C   0  0  0  0  0  0  0  0  0  0  0  0
    7.5746   -3.6333    0.5739 C   0  0  0  0  0  0  0  0  0  0  0  0
    7.1830   -3.1339   -0.7836 C   0  0  1  0  0  0  0  0  0  0  0  0
    6.5888   -4.3186   -1.5179 C   0  0  0  0  0  0  0  0  0  0  0  0
    5.3901   -4.2650   -1.9254 O   0  0  0  0  0  0  0  0  0  0  0  0
    7.4320   -5.4360   -1.7071 N   0  0  0  0  0  0  0  0  0  0  0  0
    6.2518   -2.0273   -0.7136 N   0  0  0  0  0  0  0  0  0  0  0  0
    6.4249   -0.8858   -1.5733 C   0  0  0  0  0  0  0  0  0  0  0  0
    7.4309   -0.9774   -2.3607 O   0  0  0  0  0  0  0  0  0  0  0  0
    5.6168    0.3030   -1.6343 C   0  0  1  0  0  0  0  0  0  0  0  0
    4.4965    0.3165   -0.7367 N   0  0  0  0  0  0  0  0  0  0  0  0
    3.4566    1.2656   -0.8421 C   0  0  0  0  0  0  0  0  0  0  0  0
    3.3933    2.1962   -1.6769 O   0  0  0  0  0  0  0  0  0  0  0  0
    2.2603    1.2212    0.1190 C   0  0  0  0  0  0  0  0  0  0  0  0
    1.4368    2.3351   -0.1784 N   0  0  0  0  0  0  0  0  0  0  0  0
    1.7245    3.5396    0.6800 C   0  0  0  0  0  0  0  0  0  0  0  0
    1.1314    3.2106    2.0591 C   0  0  0  0  0  0  0  0  0  0  0  0
    1.0257    4.4633    2.9328 C   0  0  0  0  0  0  0  0  0  0  0  0
   -0.3627    4.9369    2.6768 N   0  0  0  0  0  0  0  0  0  0  0  0
   -1.3504    4.0638    3.1703 C   0  0  0  0  0  0  0  0  0  0  0  0
   -0.8922    3.0549    3.7794 O   0  0  0  0  0  0  0  0  0  0  0  0
   -2.8251    4.1388    3.0838 C   0  0  0  0  0  0  0  0  0  0  0  0
   -3.3165    3.0094    3.9361 C   0  0  0  0  0  0  0  0  0  0  0  0
   -4.7495    2.6143    3.8412 C   0  0  0  0  0  0  0  0  0  0  0  0
   -4.9387    1.9818    2.5178 C   0  0  0  0  0  0  0  0  0  0  0  0
   -4.1286    2.1442    1.5842 O   0  0  0  0  0  0  0  0  0  0  0  0
   -6.0443    1.1175    2.1787 N   0  0  0  0  0  0  0  0  0  0  0  0
   -6.0251    0.6060    0.8106 C   0  0  1  0  0  0  0  0  0  0  0  0
   -4.7741   -0.1917    0.6179 C   0  0  0  0  0  0  0  0  0  0  0  0
   -4.0707   -0.4560    1.6160 O   0  0  0  0  0  0  0  0  0  0  0  0
   -4.2929   -0.6857   -0.6137 N   0  0  0  0  0  0  0  0  0  0  0  0
   -2.9233   -1.3299   -0.6554 C   0  0  2  0  0  0  0  0  0  0  0  0
   -2.2109   -0.0785   -1.1189 C   0  0  0  0  0  0  0  0  0  0  0  0
   -3.0068    0.8597   -1.3642 O   0  0  0  0  0  0  0  0  0  0  0  0
   -0.8455    0.1910   -1.3088 N   0  0  0  0  0  0  0  0  0  0  0  0
   -0.5112    1.5238   -1.7750 C   0  0  1  0  0  0  0  0  0  0  0  0
    0.3625    2.3797   -1.0706 C   0  0  0  0  0  0  0  0  0  0  0  0
    0.1796    3.6619   -1.3043 O   0  0  0  0  0  0  0  0  0  0  0  0
   -0.3218    1.5654   -3.2716 C   0  0  0  0  0  0  0  0  0  0  0  0
    0.6944    0.7673   -3.8933 C   0  0  0  0  0  0  0  0  0  0  0  0
    0.4570   -0.5906   -4.1772 C   0  0  0  0  0  0  0  0  0  0  0  0
    1.4579   -1.3412   -4.8022 C   0  0  0  0  0  0  0  0  0  0  0  0
    2.6776   -0.7756   -5.1485 C   0  0  0  0  0  0  0  0  0  0  0  0
    2.9081    0.5440   -4.8734 C   0  0  0  0  0  0  0  0  0  0  0  0
    1.9115    1.2663   -4.2579 C   0  0  0  0  0  0  0  0  0  0  0  0
   -2.8892   -2.4288   -1.6300 C   0  0  0  0  0  0  0  0  0  0  0  0
   -3.8863   -3.4948   -1.3498 C   0  0  0  0  0  0  0  0  0  0  0  0
   -5.1587   -3.4156   -1.9272 C   0  0  0  0  0  0  0  0  0  0  0  0
   -6.1318   -4.3538   -1.7150 C   0  0  0  0  0  0  0  0  0  0  0  0
   -5.8741   -5.4334   -0.9018 C   0  0  0  0  0  0  0  0  0  0  0  0
   -4.6301   -5.5278   -0.3269 C   0  0  0  0  0  0  0  0  0  0  0  0
   -3.6474   -4.5795   -0.5409 C   0  0  0  0  0  0  0  0  0  0  0  0
   -7.2633    0.0986    0.2616 C   0  0  0  0  0  0  0  0  0  0  0  0
   -7.9596   -1.0401    0.9216 C   0  0  0  0  0  0  0  0  0  0  0  0
   -9.2460   -1.3820    0.1664 C   0  0  0  0  0  0  0  0  0  0  0  0
  -10.1792   -0.2804    0.1359 N   0  0  0  0  0  0  0  0  0  0  0  0
  -10.9323    0.0637    1.1298 C   0  0  0  0  0  0  0  0  0  0  0  0
  -10.9262   -0.6137    2.3835 N   0  0  0  0  0  0  0  0  0  0  0  0
  -11.8112    1.1626    0.9570 N   0  0  0  0  0  0  0  0  0  0  0  0
    6.3912    1.6115   -1.6030 C   0  0  0  0  0  0  0  0  0  0  0  0
    7.2346    1.9096   -0.4460 C   0  0  0  0  0  0  0  0  0  0  0  0
    8.3688    0.9428   -0.1827 C   0  0  0  0  0  0  0  0  0  0  0  0
    6.5000    2.2550    0.8374 C   0  0  0  0  0  0  0  0  0  0  0  0
    9.9443   -1.2819    3.6225 H   0  0  0  0  0  0  0  0  0  0  0  0
    9.6937   -2.4068    5.0549 H   0  0  0  0  0  0  0  0  0  0  0  0
    8.3450   -1.3053    4.4678 H   0  0  0  0  0  0  0  0  0  0  0  0
    9.0225   -2.0561    0.9395 H   0  0  0  0  0  0  0  0  0  0  0  0
    7.3282   -1.7993    1.5848 H   0  0  0  0  0  0  0  0  0  0  0  0
    6.6502   -4.0205    1.0937 H   0  0  0  0  0  0  0  0  0  0  0  0
    8.2755   -4.4980    0.5254 H   0  0  0  0  0  0  0  0  0  0  0  0
    8.0673   -2.8201   -1.3662 H   0  0  0  0  0  0  0  0  0  0  0  0
    8.4182   -5.2186   -2.0219 H   0  0  0  0  0  0  0  0  0  0  0  0
    7.1033   -6.4201   -1.5491 H   0  0  0  0  0  0  0  0  0  0  0  0
    5.4453   -2.0114   -0.0484 H   0  0  0  0  0  0  0  0  0  0  0  0
    5.1124    0.4055   -2.6695 H   0  0  0  0  0  0  0  0  0  0  0  0
    4.3469   -0.3652    0.0641 H   0  0  0  0  0  0  0  0  0  0  0  0
    2.7047    1.2469    1.1185 H   0  0  0  0  0  0  0  0  0  0  0  0
    1.7403    0.2396    0.0331 H   0  0  0  0  0  0  0  0  0  0  0  0
    2.8016    3.6568    0.8252 H   0  0  0  0  0  0  0  0  0  0  0  0
    1.3004    4.4476    0.2942 H   0  0  0  0  0  0  0  0  0  0  0  0
    0.1970    2.6530    1.9366 H   0  0  0  0  0  0  0  0  0  0  0  0
    1.8413    2.5334    2.6189 H   0  0  0  0  0  0  0  0  0  0  0  0
    1.1576    4.2162    4.0032 H   0  0  0  0  0  0  0  0  0  0  0  0
    1.7654    5.1730    2.5808 H   0  0  0  0  0  0  0  0  0  0  0  0
   -0.6226    5.7747    2.2116 H   0  0  0  0  0  0  0  0  0  0  0  0
   -3.1463    4.0268    2.0483 H   0  0  0  0  0  0  0  0  0  0  0  0
   -3.2079    5.1155    3.4832 H   0  0  0  0  0  0  0  0  0  0  0  0
   -3.0961    3.1866    5.0239 H   0  0  0  0  0  0  0  0  0  0  0  0
   -2.7188    2.0655    3.7073 H   0  0  0  0  0  0  0  0  0  0  0  0
   -4.9289    1.8653    4.6407 H   0  0  0  0  0  0  0  0  0  0  0  0
   -5.4622    3.4459    4.0118 H   0  0  0  0  0  0  0  0  0  0  0  0
   -6.7153    0.9487    2.9001 H   0  0  0  0  0  0  0  0  0  0  0  0
   -5.7581    1.5685    0.2285 H   0  0  0  0  0  0  0  0  0  0  0  0
   -4.8752   -0.5945   -1.4213 H   0  0  0  0  0  0  0  0  0  0  0  0
   -2.5833   -1.6093    0.3300 H   0  0  0  0  0  0  0  0  0  0  0  0
   -0.1956   -0.5601   -1.1057 H   0  0  0  0  0  0  0  0  0  0  0  0
   -1.5275    2.0791   -1.7263 H   0  0  0  0  0  0  0  0  0  0  0  0
   -0.1274    2.6530   -3.5098 H   0  0  0  0  0  0  0  0  0  0  0  0
   -1.3220    1.3693   -3.7458 H   0  0  0  0  0  0  0  0  0  0  0  0
   -0.4761   -1.0687   -3.9269 H   0  0  0  0  0  0  0  0  0  0  0  0
    1.3077   -2.4032   -5.0304 H   0  0  0  0  0  0  0  0  0  0  0  0
    3.4695   -1.3342   -5.6368 H   0  0  0  0  0  0  0  0  0  0  0  0
    3.8783    0.9985   -5.1368 H   0  0  0  0  0  0  0  0  0  0  0  0
    2.1126    2.3100   -4.0521 H   0  0  0  0  0  0  0  0  0  0  0  0
   -1.8927   -2.9359   -1.5346 H   0  0  0  0  0  0  0  0  0  0  0  0
   -2.9410   -2.1125   -2.6954 H   0  0  0  0  0  0  0  0  0  0  0  0
   -5.4291   -2.5855   -2.5927 H   0  0  0  0  0  0  0  0  0  0  0  0
   -7.1192   -4.2480   -2.1930 H   0  0  0  0  0  0  0  0  0  0  0  0
   -6.6653   -6.1490   -0.7622 H   0  0  0  0  0  0  0  0  0  0  0  0
   -4.4681   -6.4006    0.3104 H   0  0  0  0  0  0  0  0  0  0  0  0
   -2.6675   -4.6697   -0.0788 H   0  0  0  0  0  0  0  0  0  0  0  0
   -7.0705   -0.1827   -0.8224 H   0  0  0  0  0  0  0  0  0  0  0  0
   -8.0221    0.9327    0.1451 H   0  0  0  0  0  0  0  0  0  0  0  0
   -7.3201   -1.9568    0.8668 H   0  0  0  0  0  0  0  0  0  0  0  0
   -8.2181   -0.9050    1.9692 H   0  0  0  0  0  0  0  0  0  0  0  0
   -9.7080   -2.3230    0.5078 H   0  0  0  0  0  0  0  0  0  0  0  0
   -8.9525   -1.5483   -0.9123 H   0  0  0  0  0  0  0  0  0  0  0  0
  -11.4127   -1.5324    2.5453 H   0  0  0  0  0  0  0  0  0  0  0  0
  -10.3919   -0.1342    3.1656 H   0  0  0  0  0  0  0  0  0  0  0  0
  -12.1513    1.4497    0.0159 H   0  0  0  0  0  0  0  0  0  0  0  0
  -12.1650    1.7407    1.7649 H   0  0  0  0  0  0  0  0  0  0  0  0
    5.6511    2.4432   -1.7323 H   0  0  0  0  0  0  0  0  0  0  0  0
    7.0315    1.6911   -2.5230 H   0  0  0  0  0  0  0  0  0  0  0  0
    7.7746    2.8881   -0.7020 H   0  0  0  0  0  0  0  0  0  0  0  0
    8.0375   -0.0387    0.1247 H   0  0  0  0  0  0  0  0  0  0  0  0
    9.0066    0.9679   -1.1044 H   0  0  0  0  0  0  0  0  0  0  0  0
    9.0376    1.3506    0.6314 H   0  0  0  0  0  0  0  0  0  0  0  0
    7.2097    2.7886    1.5248 H   0  0  0  0  0  0  0  0  0  0  0  0
    6.0685    1.3479    1.2789 H   0  0  0  0  0  0  0  0  0  0  0  0
    5.6638    2.9561    0.6915 H   0  0  0  0  0  0  0  0  0  0  0  0
  1  2  1  0
  2  3  1  0
  3  4  1  0
  4  5  1  0
  5  6  1  0
  6  7  2  0
  6  8  1  0
  5  9  1  0
  9 10  1  0
 10 11  2  0
 10 12  1  0
 12 13  1  0
 13 14  1  0
 14 15  2  0
 14 16  1  0
 16 17  1  0
 17 18  1  0
 18 19  1  0
 19 20  1  0
 20 21  1  0
 21 22  1  0
 22 23  2  0
 22 24  1  0
 24 25  1  0
 25 26  1  0
 26 27  1  0
 27 28  2  0
 27 29  1  0
 29 30  1  0
 30 31  1  0
 31 32  2  0
 31 33  1  0
 33 34  1  0
 34 35  1  0
 35 36  2  0
 35 37  1  0
 37 38  1  0
 38 39  1  0
 39 40  2  0
 38 41  1  0
 41 42  1  0
 42 43  2  0
 43 44  1  0
 44 45  2  0
 45 46  1  0
 46 47  2  0
 34 48  1  0
 48 49  1  0
 49 50  2  0
 50 51  1  0
 51 52  2  0
 52 53  1  0
 53 54  2  0
 30 55  1  0
 55 56  1  0
 56 57  1  0
 57 58  1  0
 58 59  2  3
 59 60  1  0
 59 61  1  0
 12 62  1  0
 62 63  1  0
 63 64  1  0
 63 65  1  0
 39 17  1  0
 47 42  1  0
 54 49  1  0
  1 66  1  0
  1 67  1  0
  1 68  1  0
  3 69  1  0
  3 70  1  0
  4 71  1  0
  4 72  1  0
  5 73  1  6
  8 74  1  0
  8 75  1  0
  9 76  1  0
 12 77  1  6
 13 78  1  0
 16 79  1  0
 16 80  1  0
 18 81  1  0
 18 82  1  0
 19 83  1  0
 19 84  1  0
 20 85  1  0
 20 86  1  0
 21 87  1  0
 24 88  1  0
 24 89  1  0
 25 90  1  0
 25 91  1  0
 26 92  1  0
 26 93  1  0
 29 94  1  0
 30 95  1  6
 33 96  1  0
 34 97  1  1
 37 98  1  0
 38 99  1  6
 41100  1  0
 41101  1  0
 43102  1  0
 44103  1  0
 45104  1  0
 46105  1  0
 47106  1  0
 48107  1  0
 48108  1  0
 50109  1  0
 51110  1  0
 52111  1  0
 53112  1  0
 54113  1  0
 55114  1  0
 55115  1  0
 56116  1  0
 56117  1  0
 57118  1  0
 57119  1  0
 60120  1  0
 60121  1  0
 61122  1  0
 61123  1  0
 62124  1  0
 62125  1  0
 63126  1  0
 64127  1  0
 64128  1  0
 64129  1  0
 65130  1  0
 65131  1  0
 65132  1  0
M  END
>  <Ligand ID>  (1) 
LIG0003436

>  <Ligand>  (1) 
CHEMBL303222

>  <SMILES>  (1) 
CSCC[C@@H](C(=O)N)NC(=O)[C@@H](NC(=O)CN1CCCNC(=O)CCCC(=O)N[C@@H](C(=O)N[C@H](C(=O)N[C@@H](C1=O)Cc1ccccc1)Cc1ccccc1)CCCN=C(N)N)CC(C)C

>  <CID>  (1) 
44308430.0

>  <ChEMBL ID>  (1) 
nan

>  <InChiKey>  (1) 
NCFCVGUQIMTNNB-WGZBAJHCSA-N

>  <InChi>  (1) 
InChI=1S/C45H67N11O8S/c1-29(2)25-34(42(62)53-32(40(46)60)20-24-65-3)52-39(59)28-56-23-12-22-49-37(57)18-10-19-38(58)51-33(17-11-21-50-45(47)48)41(61)54-35(26-30-13-6-4-7-14-30)43(63)55-36(44(56)64)27-31-15-8-5-9-16-31/h4-9,13-16,29,32-36H,10-12,17-28H2,1-3H3,(H2,46,60)(H,49,57)(H,51,58)(H,52,59)(H,53,62)(H,54,61)(H,55,63)(H4,47,48,50)/t32-,33+,34-,35-,36+/m0/s1

>  <IUPAC Name>  (1) 
(2S)-N-[(2S)-1-amino-4-methylsulfanyl-1-oxobutan-2-yl]-2-[[2-[(2R,5S,8R)-5,8-dibenzyl-2-[3-(diaminomethylideneamino)propyl]-3,6,9,15,19-pentaoxo-1,4,7,10,14-pentazacyclononadec-10-yl]acetyl]amino]-4-methylpentanamide

$$$$
