
     RDKit          3D

 20 19  0  0  0  0  0  0  0  0999 V2000
   -1.2125   -1.7666    0.1298 C   0  0  0  0  0  0  0  0  0  0  0  0
   -1.0923   -0.3741   -0.3260 C   0  0  0  0  0  0  0  0  0  0  0  0
   -1.7623    0.5509    0.6326 C   0  0  0  0  0  0  0  0  0  0  0  0
   -2.3401    0.1592    1.6759 O   0  0  0  0  0  0  0  0  0  0  0  0
   -1.7388    1.9249    0.3430 O   0  0  0  0  0  0  0  0  0  0  0  0
    0.2467    0.1314   -0.7127 C   0  0  0  0  0  0  0  0  0  0  0  0
    1.3102    0.1150    0.3144 C   0  0  0  0  0  0  0  0  0  0  0  0
    2.6077    0.6640   -0.2498 C   0  0  0  0  0  0  0  0  0  0  0  0
   -1.3388   -2.5005   -0.7029 H   0  0  0  0  0  0  0  0  0  0  0  0
   -0.4199   -2.1892    0.7626 H   0  0  0  0  0  0  0  0  0  0  0  0
   -2.1429   -1.8578    0.7508 H   0  0  0  0  0  0  0  0  0  0  0  0
   -1.7279   -0.3140   -1.2437 H   0  0  0  0  0  0  0  0  0  0  0  0
   -2.4756    2.5433    0.6932 H   0  0  0  0  0  0  0  0  0  0  0  0
    0.1076    1.1807   -1.0544 H   0  0  0  0  0  0  0  0  0  0  0  0
    0.6289   -0.4157   -1.6038 H   0  0  0  0  0  0  0  0  0  0  0  0
    1.5379   -0.9431    0.6208 H   0  0  0  0  0  0  0  0  0  0  0  0
    1.1267    0.6612    1.2285 H   0  0  0  0  0  0  0  0  0  0  0  0
    2.5403    0.5897   -1.3532 H   0  0  0  0  0  0  0  0  0  0  0  0
    3.4705    0.0960    0.1006 H   0  0  0  0  0  0  0  0  0  0  0  0
    2.6747    1.7446   -0.0057 H   0  0  0  0  0  0  0  0  0  0  0  0
  1  2  1  0
  2  3  1  0
  3  4  2  0
  3  5  1  0
  2  6  1  0
  6  7  1  0
  7  8  1  0
  1  9  1  0
  1 10  1  0
  1 11  1  0
  2 12  1  0
  5 13  1  0
  6 14  1  0
  6 15  1  0
  7 16  1  0
  7 17  1  0
  8 18  1  0
  8 19  1  0
  8 20  1  0
M  END
>  <Ligand ID>  (1) 
LIG0000606

>  <Ligand>  (1) 
2-methylpentanoic acid

>  <SMILES>  (1) 
CC(C(=O)O)CCC

>  <CID>  (1) 
7341.0

>  <ChEMBL ID>  (1) 
nan

>  <InChiKey>  (1) 
OVBFMEVBMNZIBR-UHFFFAOYSA-N

>  <InChi>  (1) 
InChI=1S/C6H12O2/c1-3-4-5(2)6(7)8/h5H,3-4H2,1-2H3,(H,7,8)

>  <IUPAC Name>  (1) 
2-methylpentanoic acid

$$$$
