
     RDKit          3D

 60 61  0  0  0  0  0  0  0  0999 V2000
    9.2198   -0.6955   -1.1243 C   0  0  0  0  0  0  0  0  0  0  0  0
    7.8605   -0.3136   -0.6294 C   0  0  0  0  0  0  0  0  0  0  0  0
    7.6807    0.9577   -0.1018 C   0  0  0  0  0  0  0  0  0  0  0  0
    6.4248    1.2896    0.3478 C   0  0  0  0  0  0  0  0  0  0  0  0
    5.3684    0.3763    0.2748 C   0  0  0  0  0  0  0  0  0  0  0  0
    5.5463   -0.8828   -0.2478 C   0  0  0  0  0  0  0  0  0  0  0  0
    6.8068   -1.2121   -0.6977 C   0  0  0  0  0  0  0  0  0  0  0  0
    4.0502    0.8570    0.7990 C   0  0  0  0  0  0  0  0  0  0  0  0
    3.3421    1.4930   -0.3628 C   0  0  0  0  0  0  0  0  0  0  0  0
    2.0071    2.0150    0.0587 C   0  0  0  0  0  0  0  0  0  0  0  0
    1.1266    0.9443    0.5777 C   0  0  0  0  0  0  0  0  0  0  0  0
    1.2802    0.5278    1.7661 O   0  0  0  0  0  0  0  0  0  0  0  0
    0.0776    0.3619   -0.2730 C   0  0  0  0  0  0  0  0  0  0  0  0
   -0.1596    0.7612   -1.5798 C   0  0  0  0  0  0  0  0  0  0  0  0
   -1.2070   -0.0126   -2.0185 C   0  0  0  0  0  0  0  0  0  0  0  0
   -1.6119   -0.8769   -0.9989 C   0  0  0  0  0  0  0  0  0  0  0  0
   -0.8008   -0.6095    0.0341 N   0  0  0  0  0  0  0  0  0  0  0  0
   -0.8127   -1.2750    1.3180 C   0  0  0  0  0  0  0  0  0  0  0  0
   -2.7366   -1.8146   -1.1492 C   0  0  0  0  0  0  0  0  0  0  0  0
   -4.0891   -1.2906   -0.8624 C   0  0  0  0  0  0  0  0  0  0  0  0
   -4.3743   -0.7463    0.4857 C   0  0  2  0  0  0  0  0  0  0  0  0
   -5.8374   -0.2916    0.5152 C   0  0  0  0  0  0  0  0  0  0  0  0
   -6.0977    0.6623   -0.4475 O   0  0  0  0  0  0  0  0  0  0  0  0
   -7.7013    1.1562   -0.5035 P   0  0  0  0  0  0  0  0  0  0  0  0
   -8.4196    0.9908    0.7926 O   0  0  0  0  0  0  0  0  0  0  0  0
   -7.7340    2.7497   -1.0649 O   0  0  0  0  0  0  0  0  0  0  0  0
   -8.5789    0.2432   -1.6549 O   0  0  0  0  0  0  0  0  0  0  0  0
   -3.5056    0.3943    0.7317 N   0  0  0  0  0  0  0  0  0  0  0  0
   -4.1832   -1.7282    1.6032 C   0  0  0  0  0  0  0  0  0  0  0  0
    9.1735   -0.5869   -2.2278 H   0  0  0  0  0  0  0  0  0  0  0  0
    9.4540   -1.7494   -0.8542 H   0  0  0  0  0  0  0  0  0  0  0  0
    9.9653   -0.0279   -0.6685 H   0  0  0  0  0  0  0  0  0  0  0  0
    8.4661    1.6776   -0.0314 H   0  0  0  0  0  0  0  0  0  0  0  0
    6.2583    2.2920    0.7706 H   0  0  0  0  0  0  0  0  0  0  0  0
    4.7106   -1.5769   -0.2949 H   0  0  0  0  0  0  0  0  0  0  0  0
    7.0059   -2.1880   -1.1191 H   0  0  0  0  0  0  0  0  0  0  0  0
    3.4781    0.0230    1.2211 H   0  0  0  0  0  0  0  0  0  0  0  0
    4.2334    1.5851    1.6143 H   0  0  0  0  0  0  0  0  0  0  0  0
    3.1685    0.6850   -1.1315 H   0  0  0  0  0  0  0  0  0  0  0  0
    3.9597    2.2531   -0.8633 H   0  0  0  0  0  0  0  0  0  0  0  0
    2.0992    2.7772    0.8610 H   0  0  0  0  0  0  0  0  0  0  0  0
    1.5470    2.5194   -0.8178 H   0  0  0  0  0  0  0  0  0  0  0  0
    0.3284    1.5010   -2.1710 H   0  0  0  0  0  0  0  0  0  0  0  0
   -1.6469    0.0460   -3.0094 H   0  0  0  0  0  0  0  0  0  0  0  0
    0.2496   -1.5455    1.5814 H   0  0  0  0  0  0  0  0  0  0  0  0
   -1.2212   -0.6346    2.1191 H   0  0  0  0  0  0  0  0  0  0  0  0
   -1.3643   -2.2376    1.3000 H   0  0  0  0  0  0  0  0  0  0  0  0
   -2.6910   -2.1941   -2.2132 H   0  0  0  0  0  0  0  0  0  0  0  0
   -2.4664   -2.7116   -0.5393 H   0  0  0  0  0  0  0  0  0  0  0  0
   -4.2902   -0.4924   -1.6454 H   0  0  0  0  0  0  0  0  0  0  0  0
   -4.8387   -2.0868   -1.1460 H   0  0  0  0  0  0  0  0  0  0  0  0
   -6.1447    0.0075    1.5343 H   0  0  0  0  0  0  0  0  0  0  0  0
   -6.4188   -1.2003    0.2569 H   0  0  0  0  0  0  0  0  0  0  0  0
   -6.8844    3.2295   -0.9005 H   0  0  0  0  0  0  0  0  0  0  0  0
   -9.4420    0.7384   -1.7680 H   0  0  0  0  0  0  0  0  0  0  0  0
   -3.3926    0.6389    1.7249 H   0  0  0  0  0  0  0  0  0  0  0  0
   -3.7138    1.2117    0.1179 H   0  0  0  0  0  0  0  0  0  0  0  0
   -3.4906   -1.3649    2.3950 H   0  0  0  0  0  0  0  0  0  0  0  0
   -5.1495   -1.8852    2.1192 H   0  0  0  0  0  0  0  0  0  0  0  0
   -3.8842   -2.7342    1.2259 H   0  0  0  0  0  0  0  0  0  0  0  0
  1  2  1  0
  2  3  2  0
  3  4  1  0
  4  5  2  0
  5  6  1  0
  6  7  2  0
  5  8  1  0
  8  9  1  0
  9 10  1  0
 10 11  1  0
 11 12  2  0
 11 13  1  0
 13 14  2  0
 14 15  1  0
 15 16  2  0
 16 17  1  0
 17 18  1  0
 16 19  1  0
 19 20  1  0
 20 21  1  0
 21 22  1  0
 22 23  1  0
 23 24  1  0
 24 25  2  0
 24 26  1  0
 24 27  1  0
 21 28  1  1
 21 29  1  0
  7  2  1  0
 17 13  1  0
  1 30  1  0
  1 31  1  0
  1 32  1  0
  3 33  1  0
  4 34  1  0
  6 35  1  0
  7 36  1  0
  8 37  1  0
  8 38  1  0
  9 39  1  0
  9 40  1  0
 10 41  1  0
 10 42  1  0
 14 43  1  0
 15 44  1  0
 18 45  1  0
 18 46  1  0
 18 47  1  0
 19 48  1  0
 19 49  1  0
 20 50  1  0
 20 51  1  0
 22 52  1  0
 22 53  1  0
 26 54  1  0
 27 55  1  0
 28 56  1  0
 28 57  1  0
 29 58  1  0
 29 59  1  0
 29 60  1  0
M  END
>  <Ligand ID>  (1) 
LIG0003813

>  <Ligand>  (1) 
UNII-30YQ86DS4E

>  <SMILES>  (1) 
Cc1ccc(cc1)CCCC(=O)c1ccc(n1C)CC[C@](COP(=O)(O)O)(N)C

>  <CID>  (1) 
11676168.0

>  <ChEMBL ID>  (1) 
nan

>  <InChiKey>  (1) 
SFFJDCSCTWIGSG-OAQYLSRUSA-N

>  <InChi>  (1) 
InChI=1S/C21H31N2O5P/c1-16-7-9-17(10-8-16)5-4-6-20(24)19-12-11-18(23(19)3)13-14-21(2,22)15-28-29(25,26)27/h7-12H,4-6,13-15,22H2,1-3H3,(H2,25,26,27)/t21-/m1/s1

>  <IUPAC Name>  (1) 
[(2R)-2-amino-2-methyl-4-[1-methyl-5-[4-(4-methylphenyl)butanoyl]pyrrol-2-yl]butyl] dihydrogen phosphate

$$$$
