
     RDKit          3D

 48 51  0  0  0  0  0  0  0  0999 V2000
   -2.9957   -1.5247    2.0494 C   0  0  0  0  0  0  0  0  0  0  0  0
   -2.7500   -1.2072    0.5935 C   0  0  0  0  0  0  0  0  0  0  0  0
   -3.7334   -0.3022    0.0110 C   0  0  0  0  0  0  0  0  0  0  0  0
   -3.5143    0.1870   -1.2593 C   0  0  0  0  0  0  0  0  0  0  0  0
   -4.4551    1.0551   -1.8199 C   0  0  0  0  0  0  0  0  0  0  0  0
   -5.5910    1.4327   -1.1379 C   0  0  0  0  0  0  0  0  0  0  0  0
   -5.8103    0.9399    0.1401 C   0  0  0  0  0  0  0  0  0  0  0  0
   -4.8814    0.0845    0.6900 C   0  0  0  0  0  0  0  0  0  0  0  0
   -1.4072   -0.7934    0.4247 N   0  0  0  0  0  0  0  0  0  0  0  0
   -0.4115   -1.7279    0.7863 C   0  0  0  0  0  0  0  0  0  0  0  0
    0.9023   -1.5721    0.0583 C   0  0  0  0  0  0  0  0  0  0  0  0
    1.0306   -0.1459   -0.4210 C   0  0  0  0  0  0  0  0  0  0  0  0
    0.3949    0.7630    0.5993 C   0  0  0  0  0  0  0  0  0  0  0  0
   -1.1163    0.5762    0.5651 C   0  0  0  0  0  0  0  0  0  0  0  0
    2.3543    0.2176   -0.8103 N   0  0  0  0  0  0  0  0  0  0  0  0
    2.7300    0.5698   -2.1383 C   0  0  0  0  0  0  0  0  0  0  0  0
    1.9812    0.6202   -3.1701 O   0  0  0  0  0  0  0  0  0  0  0  0
    4.1722    0.8941   -2.2112 C   0  0  0  0  0  0  0  0  0  0  0  0
    4.5961    0.6976   -0.8060 C   0  0  0  0  0  0  0  0  0  0  0  0
    3.5360    0.3088   -0.0167 C   0  0  0  0  0  0  0  0  0  0  0  0
    3.7738    0.0856    1.3241 C   0  0  0  0  0  0  0  0  0  0  0  0
    5.0297    0.2392    1.8906 C   0  0  0  0  0  0  0  0  0  0  0  0
    6.0735    0.6301    1.0734 C   0  0  0  0  0  0  0  0  0  0  0  0
    5.8798    0.8649   -0.2773 C   0  0  0  0  0  0  0  0  0  0  0  0
   -2.2513   -2.3384    2.2904 H   0  0  0  0  0  0  0  0  0  0  0  0
   -3.9936   -1.9635    2.1856 H   0  0  0  0  0  0  0  0  0  0  0  0
   -2.8012   -0.6757    2.7260 H   0  0  0  0  0  0  0  0  0  0  0  0
   -2.8527   -2.1955    0.0561 H   0  0  0  0  0  0  0  0  0  0  0  0
   -2.6606   -0.0510   -1.8659 H   0  0  0  0  0  0  0  0  0  0  0  0
   -4.3255    1.4664   -2.8182 H   0  0  0  0  0  0  0  0  0  0  0  0
   -6.3249    2.1140   -1.5834 H   0  0  0  0  0  0  0  0  0  0  0  0
   -6.7168    1.2496    0.6672 H   0  0  0  0  0  0  0  0  0  0  0  0
   -5.0677   -0.2923    1.6906 H   0  0  0  0  0  0  0  0  0  0  0  0
   -0.2879   -1.7647    1.8886 H   0  0  0  0  0  0  0  0  0  0  0  0
   -0.7986   -2.7383    0.4946 H   0  0  0  0  0  0  0  0  0  0  0  0
    1.6856   -1.8599    0.7686 H   0  0  0  0  0  0  0  0  0  0  0  0
    0.9723   -2.2454   -0.8207 H   0  0  0  0  0  0  0  0  0  0  0  0
    0.3808   -0.0973   -1.3404 H   0  0  0  0  0  0  0  0  0  0  0  0
    0.7112    0.5647    1.6379 H   0  0  0  0  0  0  0  0  0  0  0  0
    0.5964    1.8230    0.3397 H   0  0  0  0  0  0  0  0  0  0  0  0
   -1.5318    1.2577   -0.2042 H   0  0  0  0  0  0  0  0  0  0  0  0
   -1.5158    0.9224    1.5401 H   0  0  0  0  0  0  0  0  0  0  0  0
    4.3642    1.9538   -2.4601 H   0  0  0  0  0  0  0  0  0  0  0  0
    4.6667    0.2068   -2.9240 H   0  0  0  0  0  0  0  0  0  0  0  0
    2.9731   -0.2146    1.9524 H   0  0  0  0  0  0  0  0  0  0  0  0
    5.2017    0.0574    2.9596 H   0  0  0  0  0  0  0  0  0  0  0  0
    7.0717    0.7604    1.4832 H   0  0  0  0  0  0  0  0  0  0  0  0
    6.7162    1.1676   -0.8804 H   0  0  0  0  0  0  0  0  0  0  0  0
  1  2  1  0
  2  3  1  0
  3  4  2  0
  4  5  1  0
  5  6  2  0
  6  7  1  0
  7  8  2  0
  2  9  1  0
  9 10  1  0
 10 11  1  0
 11 12  1  0
 12 13  1  0
 13 14  1  0
 12 15  1  0
 15 16  1  0
 16 17  2  0
 16 18  1  0
 18 19  1  0
 19 20  2  0
 20 21  1  0
 21 22  2  0
 22 23  1  0
 23 24  2  0
  8  3  1  0
 14  9  1  0
 20 15  1  0
 24 19  1  0
  1 25  1  0
  1 26  1  0
  1 27  1  0
  2 28  1  0
  4 29  1  0
  5 30  1  0
  6 31  1  0
  7 32  1  0
  8 33  1  0
 10 34  1  0
 10 35  1  0
 11 36  1  0
 11 37  1  0
 12 38  1  0
 13 39  1  0
 13 40  1  0
 14 41  1  0
 14 42  1  0
 18 43  1  0
 18 44  1  0
 21 45  1  0
 22 46  1  0
 23 47  1  0
 24 48  1  0
M  END
>  <Ligand ID>  (1) 
LIG0003508

>  <Ligand>  (1) 
CHEMBL2387192

>  <SMILES>  (1) 
CC(c1ccccc1)N1CCC(CC1)N1C(=O)Cc2c1cccc2

>  <CID>  (1) 
71624269.0

>  <ChEMBL ID>  (1) 
nan

>  <InChiKey>  (1) 
IBPZYWOEGMAJNC-UHFFFAOYSA-N

>  <InChi>  (1) 
InChI=1S/C21H24N2O/c1-16(17-7-3-2-4-8-17)22-13-11-19(12-14-22)23-20-10-6-5-9-18(20)15-21(23)24/h2-10,16,19H,11-15H2,1H3

>  <IUPAC Name>  (1) 
1-[1-(1-phenylethyl)piperidin-4-yl]-3H-indol-2-one

$$$$
