
     RDKit          3D

 18 18  0  0  0  0  0  0  0  0999 V2000
    4.5608    0.9110   -0.1299 O   0  0  0  0  0  0  0  0  0  0  0  0
    3.6465    0.1005    0.2182 C   0  0  0  0  0  0  0  0  0  0  0  0
    2.2296    0.3925   -0.0846 C   0  0  0  0  0  0  0  0  0  0  0  0
    1.2684   -0.4423    0.2720 C   0  0  0  0  0  0  0  0  0  0  0  0
   -0.1399   -0.2021   -0.0017 C   0  0  0  0  0  0  0  0  0  0  0  0
   -0.6113    0.8991   -0.6486 C   0  0  0  0  0  0  0  0  0  0  0  0
   -1.9695    1.0744   -0.8819 C   0  0  0  0  0  0  0  0  0  0  0  0
   -2.9054    0.1446   -0.4712 C   0  0  0  0  0  0  0  0  0  0  0  0
   -2.4055   -0.9796    0.1911 C   0  0  0  0  0  0  0  0  0  0  0  0
   -1.0715   -1.1428    0.4154 C   0  0  0  0  0  0  0  0  0  0  0  0
    3.8872   -0.8205    0.7436 H   0  0  0  0  0  0  0  0  0  0  0  0
    2.0022    1.3060   -0.6046 H   0  0  0  0  0  0  0  0  0  0  0  0
    1.5811   -1.3380    0.7910 H   0  0  0  0  0  0  0  0  0  0  0  0
    0.0478    1.6625   -0.9969 H   0  0  0  0  0  0  0  0  0  0  0  0
   -2.3490    1.9607   -1.4026 H   0  0  0  0  0  0  0  0  0  0  0  0
   -3.9522    0.2526   -0.6362 H   0  0  0  0  0  0  0  0  0  0  0  0
   -3.0884   -1.7354    0.5329 H   0  0  0  0  0  0  0  0  0  0  0  0
   -0.7309   -2.0432    0.9397 H   0  0  0  0  0  0  0  0  0  0  0  0
  1  2  2  0
  2  3  1  0
  3  4  2  0
  4  5  1  0
  5  6  2  0
  6  7  1  0
  7  8  2  0
  8  9  1  0
  9 10  2  0
 10  5  1  0
  2 11  1  0
  3 12  1  0
  4 13  1  0
  6 14  1  0
  7 15  1  0
  8 16  1  0
  9 17  1  0
 10 18  1  0
M  END
>  <Ligand ID>  (1) 
LIG0000110

>  <Ligand>  (1) 
Cinnamaldehyde

>  <SMILES>  (1) 
O=C/C=C/c1ccccc1

>  <CID>  (1) 
637511.0

>  <ChEMBL ID>  (1) 
nan

>  <InChiKey>  (1) 
KJPRLNWUNMBNBZ-QPJJXVBHSA-N

>  <InChi>  (1) 
InChI=1S/C9H8O/c10-8-4-7-9-5-2-1-3-6-9/h1-8H/b7-4+

>  <IUPAC Name>  (1) 
(E)-3-phenylprop-2-enal

$$$$
