
     RDKit          3D

 63 67  0  0  0  0  0  0  0  0999 V2000
   -4.7739   -6.1302    0.4412 Cl  0  0  0  0  0  0  0  0  0  0  0  0
   -3.6163   -4.8245    0.4326 C   0  0  0  0  0  0  0  0  0  0  0  0
   -2.5728   -4.7744   -0.4656 C   0  0  0  0  0  0  0  0  0  0  0  0
   -1.6539   -3.7463   -0.4789 C   0  0  0  0  0  0  0  0  0  0  0  0
   -1.7492   -2.6857    0.4445 C   0  0  0  0  0  0  0  0  0  0  0  0
   -2.8005   -2.7581    1.3330 C   0  0  0  0  0  0  0  0  0  0  0  0
   -3.7185   -3.7941    1.3388 C   0  0  0  0  0  0  0  0  0  0  0  0
   -3.0139   -1.5137    2.5467 Cl  0  0  0  0  0  0  0  0  0  0  0  0
   -0.7935   -1.6344    0.4389 N   0  0  0  0  0  0  0  0  0  0  0  0
    0.4960   -1.8552    0.6004 N   0  0  0  0  0  0  0  0  0  0  0  0
    1.2216   -0.6982    0.5707 C   0  0  0  0  0  0  0  0  0  0  0  0
    0.3299    0.3014    0.3776 C   0  0  0  0  0  0  0  0  0  0  0  0
   -0.9306   -0.3116    0.2988 C   0  0  0  0  0  0  0  0  0  0  0  0
   -2.2583    0.3016    0.1053 C   0  0  0  0  0  0  0  0  0  0  0  0
   -3.0391   -0.3653   -0.7272 C   0  0  0  0  0  0  0  0  0  0  0  0
   -4.3888    0.0443   -1.0674 C   0  0  0  0  0  0  0  0  0  0  0  0
   -4.7442    0.0089   -2.4057 C   0  0  0  0  0  0  0  0  0  0  0  0
   -6.0054    0.3560   -2.8319 C   0  0  0  0  0  0  0  0  0  0  0  0
   -6.9751    0.7580   -1.9219 C   0  0  0  0  0  0  0  0  0  0  0  0
   -6.6313    0.7962   -0.5879 C   0  0  0  0  0  0  0  0  0  0  0  0
   -5.3507    0.4410   -0.1793 C   0  0  0  0  0  0  0  0  0  0  0  0
   -8.2088    1.0935   -2.3734 F   0  0  0  0  0  0  0  0  0  0  0  0
   -2.7398    1.5594    0.7140 C   0  0  0  0  0  0  0  0  0  0  0  0
   -1.5924    2.5219    0.9737 C   0  0  0  0  0  0  0  0  0  0  0  0
   -0.5618    2.4984   -0.0898 C   0  0  0  0  0  0  0  0  0  0  0  0
    0.7011    1.7248    0.2612 C   0  0  0  0  0  0  0  0  0  0  0  0
    2.6606   -0.7436    0.7328 C   0  0  0  0  0  0  0  0  0  0  0  0
    3.1976   -1.9052    0.7646 O   0  0  0  0  0  0  0  0  0  0  0  0
    3.5319    0.3429    0.8611 N   0  0  0  0  0  0  0  0  0  0  0  0
    4.9795    0.1715    1.0190 C   0  0  1  0  0  0  0  0  0  0  0  0
    5.7220    0.7636   -0.1491 C   0  0  0  0  0  0  0  0  0  0  0  0
    6.7430    0.0309   -0.7118 C   0  0  0  0  0  0  0  0  0  0  0  0
    7.4948    0.4641   -1.7823 C   0  0  0  0  0  0  0  0  0  0  0  0
    7.1725    1.7198   -2.2957 C   0  0  0  0  0  0  0  0  0  0  0  0
    6.1558    2.4658   -1.7466 C   0  0  0  0  0  0  0  0  0  0  0  0
    5.4051    2.0054   -0.6589 C   0  0  0  0  0  0  0  0  0  0  0  0
    5.4729    0.8417    2.2909 C   0  0  0  0  0  0  0  0  0  0  0  0
   -2.4438   -5.5729   -1.2125 H   0  0  0  0  0  0  0  0  0  0  0  0
   -0.8462   -3.7604   -1.2156 H   0  0  0  0  0  0  0  0  0  0  0  0
   -4.5474   -3.8436    2.0452 H   0  0  0  0  0  0  0  0  0  0  0  0
   -2.6857   -1.2697   -1.2219 H   0  0  0  0  0  0  0  0  0  0  0  0
   -4.0089   -0.3022   -3.1533 H   0  0  0  0  0  0  0  0  0  0  0  0
   -6.2147    0.3058   -3.8880 H   0  0  0  0  0  0  0  0  0  0  0  0
   -7.3871    1.1109    0.1327 H   0  0  0  0  0  0  0  0  0  0  0  0
   -5.1592    0.4835    0.8780 H   0  0  0  0  0  0  0  0  0  0  0  0
   -3.5298    2.0423    0.1151 H   0  0  0  0  0  0  0  0  0  0  0  0
   -3.1553    1.3325    1.7084 H   0  0  0  0  0  0  0  0  0  0  0  0
   -2.0347    3.5343    1.0261 H   0  0  0  0  0  0  0  0  0  0  0  0
   -1.1400    2.2820    1.9514 H   0  0  0  0  0  0  0  0  0  0  0  0
   -0.9832    2.0489   -1.0284 H   0  0  0  0  0  0  0  0  0  0  0  0
   -0.2554    3.5207   -0.3418 H   0  0  0  0  0  0  0  0  0  0  0  0
    1.0170    2.0976    1.2497 H   0  0  0  0  0  0  0  0  0  0  0  0
    1.4761    1.9044   -0.5109 H   0  0  0  0  0  0  0  0  0  0  0  0
    3.1880    1.3102    0.8600 H   0  0  0  0  0  0  0  0  0  0  0  0
    5.1574   -0.9214    1.0401 H   0  0  0  0  0  0  0  0  0  0  0  0
    6.9706   -0.9396   -0.2925 H   0  0  0  0  0  0  0  0  0  0  0  0
    8.2978   -0.1143   -2.2231 H   0  0  0  0  0  0  0  0  0  0  0  0
    7.7233    2.1384   -3.1480 H   0  0  0  0  0  0  0  0  0  0  0  0
    5.9015    3.4559   -2.1512 H   0  0  0  0  0  0  0  0  0  0  0  0
    4.6050    2.5889   -0.2243 H   0  0  0  0  0  0  0  0  0  0  0  0
    6.5611    1.0412    2.1834 H   0  0  0  0  0  0  0  0  0  0  0  0
    4.9875    1.8347    2.4253 H   0  0  0  0  0  0  0  0  0  0  0  0
    5.3399    0.2213    3.1905 H   0  0  0  0  0  0  0  0  0  0  0  0
  1  2  1  0
  2  3  2  0
  3  4  1  0
  4  5  2  0
  5  6  1  0
  6  7  2  0
  6  8  1  0
  5  9  1  0
  9 10  1  0
 10 11  2  0
 11 12  1  0
 12 13  2  0
 13 14  1  0
 14 15  2  0
 15 16  1  0
 16 17  2  0
 17 18  1  0
 18 19  2  0
 19 20  1  0
 20 21  2  0
 19 22  1  0
 14 23  1  0
 23 24  1  0
 24 25  1  0
 25 26  1  0
 11 27  1  0
 27 28  2  0
 27 29  1  0
 29 30  1  0
 30 31  1  0
 31 32  2  0
 32 33  1  0
 33 34  2  0
 34 35  1  0
 35 36  2  0
 30 37  1  0
  7  2  1  0
 13  9  1  0
 21 16  1  0
 36 31  1  0
 26 12  1  0
  3 38  1  0
  4 39  1  0
  7 40  1  0
 15 41  1  0
 17 42  1  0
 18 43  1  0
 20 44  1  0
 21 45  1  0
 23 46  1  0
 23 47  1  0
 24 48  1  0
 24 49  1  0
 25 50  1  0
 25 51  1  0
 26 52  1  0
 26 53  1  0
 29 54  1  0
 30 55  1  1
 32 56  1  0
 33 57  1  0
 34 58  1  0
 35 59  1  0
 36 60  1  0
 37 61  1  0
 37 62  1  0
 37 63  1  0
M  END
>  <Ligand ID>  (1) 
LIG0005404

>  <Ligand>  (1) 
CHEMBL3956678

>  <SMILES>  (1) 
Clc1ccc(c(c1)Cl)n1nc(c2c1/C(=C/c1ccc(cc1)F)/CCCC2)C(=O)N[C@@H](c1ccccc1)C

>  <CID>  (1) 
58882471.0

>  <ChEMBL ID>  (1) 
nan

>  <InChiKey>  (1) 
HSWSMMPLNSVOKF-ACXJOVJBSA-N

>  <InChi>  (1) 
InChI=1S/C30H26Cl2FN3O/c1-19(21-7-3-2-4-8-21)34-30(37)28-25-10-6-5-9-22(17-20-11-14-24(33)15-12-20)29(25)36(35-28)27-16-13-23(31)18-26(27)32/h2-4,7-8,11-19H,5-6,9-10H2,1H3,(H,34,37)/b22-17+/t19-/m1/s1

>  <IUPAC Name>  (1) 
(8E)-1-(2,4-dichlorophenyl)-8-[(4-fluorophenyl)methylidene]-N-[(1R)-1-phenylethyl]-4,5,6,7-tetrahydrocyclohepta[c]pyrazole-3-carboxamide

$$$$
