
     RDKit          2D

103107  0  0  0  0  0  0  0  0999 V2000
   13.5369    2.8294    0.0000 N   0  0  0  0  0  0  0  0  0  0  0  0
   12.1103    3.2929    0.0000 C   0  0  0  0  0  0  0  0  0  0  0  0
   10.9956    2.2892    0.0000 N   0  0  0  0  0  0  0  0  0  0  0  0
    9.5690    2.7528    0.0000 C   0  0  0  0  0  0  0  0  0  0  0  0
    8.1424    3.2163    0.0000 C   0  0  0  0  0  0  0  0  0  0  0  0
    6.7158    3.6798    0.0000 C   0  0  0  0  0  0  0  0  0  0  0  0
    5.2892    4.1433    0.0000 C   0  0  0  0  0  0  0  0  0  0  0  0
    3.8627    4.6069    0.0000 C   0  0  0  0  0  0  0  0  0  0  0  0
    3.7674    5.6962    0.0000 O   0  0  0  0  0  0  0  0  0  0  0  0
    2.7479    3.6032    0.0000 N   0  0  0  0  0  0  0  0  0  0  0  0
    1.3213    4.0667    0.0000 C   0  0  0  0  0  0  0  0  0  0  0  0
    1.7849    5.4933    0.0000 C   0  0  0  0  0  0  0  0  0  0  0  0
    2.8188    5.8493    0.0000 O   0  0  0  0  0  0  0  0  0  0  0  0
    0.7812    6.6080    0.0000 N   0  0  0  0  0  0  0  0  0  0  0  0
    0.8578    2.6401    0.0000 C   0  0  0  0  0  0  0  0  0  0  0  0
    0.3943    1.2135    0.0000 C   0  0  0  0  0  0  0  0  0  0  0  0
    1.2760    0.0000    0.0000 C   0  0  0  0  0  0  0  0  0  0  0  0
    0.3943   -1.2135    0.0000 N   0  0  0  0  0  0  0  0  0  0  0  0
   -1.0323   -0.7500    0.0000 C   0  0  0  0  0  0  0  0  0  0  0  0
   -1.0323    0.7500    0.0000 C   0  0  0  0  0  0  0  0  0  0  0  0
   -2.3313    1.5000    0.0000 C   0  0  0  0  0  0  0  0  0  0  0  0
   -3.6304    0.7500    0.0000 C   0  0  0  0  0  0  0  0  0  0  0  0
   -3.6304   -0.7500    0.0000 C   0  0  0  0  0  0  0  0  0  0  0  0
   -2.3313   -1.5000    0.0000 C   0  0  0  0  0  0  0  0  0  0  0  0
    5.7528    5.5699    0.0000 N   0  0  0  0  0  0  0  0  0  0  0  0
    7.2200    5.8818    0.0000 C   0  0  0  0  0  0  0  0  0  0  0  0
    7.8885    5.3007    0.0000 O   0  0  0  0  0  0  0  0  0  0  0  0
    7.6835    7.3084    0.0000 C   0  0  0  0  0  0  0  0  0  0  0  0
    9.1101    6.8449    0.0000 N   0  0  0  0  0  0  0  0  0  0  0  0
   10.2248    7.8485    0.0000 C   0  0  0  0  0  0  0  0  0  0  0  0
    9.9129    9.3158    0.0000 O   0  0  0  0  0  0  0  0  0  0  0  0
   11.6514    7.3850    0.0000 C   0  0  0  0  0  0  0  0  0  0  0  0
   13.0780    6.9215    0.0000 C   0  0  0  0  0  0  0  0  0  0  0  0
   14.5046    6.4580    0.0000 C   0  0  0  0  0  0  0  0  0  0  0  0
   15.7181    7.3396    0.0000 N   0  0  0  0  0  0  0  0  0  0  0  0
   16.9316    6.4580    0.0000 C   0  0  0  0  0  0  0  0  0  0  0  0
   16.4681    5.0314    0.0000 N   0  0  0  0  0  0  0  0  0  0  0  0
   14.9681    5.0314    0.0000 C   0  0  0  0  0  0  0  0  0  0  0  0
   12.1149    8.8116    0.0000 N   0  0  0  0  0  0  0  0  0  0  0  0
   13.5821    9.1235    0.0000 C   0  0  0  0  0  0  0  0  0  0  0  0
   14.1748    8.4652    0.0000 O   0  0  0  0  0  0  0  0  0  0  0  0
   14.0457   10.5501    0.0000 C   0  0  0  0  0  0  0  0  0  0  0  0
    8.1470    8.7350    0.0000 C   0  0  0  0  0  0  0  0  0  0  0  0
    8.6106   10.1615    0.0000 C   0  0  0  0  0  0  0  0  0  0  0  0
   10.0778   10.4734    0.0000 C   0  0  0  0  0  0  0  0  0  0  0  0
   10.5413   11.9000    0.0000 C   0  0  0  0  0  0  0  0  0  0  0  0
    9.5376   13.0147    0.0000 C   0  0  0  0  0  0  0  0  0  0  0  0
    8.0704   12.7028    0.0000 C   0  0  0  0  0  0  0  0  0  0  0  0
    7.6069   11.2763    0.0000 C   0  0  0  0  0  0  0  0  0  0  0  0
   10.0011   14.4413    0.0000 C   0  0  0  0  0  0  0  0  0  0  0  0
   11.4684   14.7532    0.0000 C   0  0  0  0  0  0  0  0  0  0  0  0
   11.9319   16.1798    0.0000 C   0  0  0  0  0  0  0  0  0  0  0  0
   10.9282   17.2945    0.0000 C   0  0  0  0  0  0  0  0  0  0  0  0
    9.4610   16.9826    0.0000 C   0  0  0  0  0  0  0  0  0  0  0  0
    8.9974   15.5560    0.0000 C   0  0  0  0  0  0  0  0  0  0  0  0
   11.7984    4.7602    0.0000 N   0  0  0  0  0  0  0  0  0  0  0  0
   14.3340    3.7464    0.0000 H   0  0  0  0  0  0  0  0  0  0  0  0
   13.8487    1.3622    0.0000 H   0  0  0  0  0  0  0  0  0  0  0  0
    9.1055    1.3262    0.0000 H   0  0  0  0  0  0  0  0  0  0  0  0
   10.0325    4.1793    0.0000 H   0  0  0  0  0  0  0  0  0  0  0  0
    8.6559    4.3174    0.0000 H   0  0  0  0  0  0  0  0  0  0  0  0
    7.6789    1.7897    0.0000 H   0  0  0  0  0  0  0  0  0  0  0  0
    7.2953    4.6071    0.0000 H   0  0  0  0  0  0  0  0  0  0  0  0
    6.2523    2.2532    0.0000 H   0  0  0  0  0  0  0  0  0  0  0  0
    4.8257    2.7168    0.0000 H   0  0  0  0  0  0  0  0  0  0  0  0
    3.2363    2.1849    0.0000 H   0  0  0  0  0  0  0  0  0  0  0  0
   -0.1052    4.5302    0.0000 H   0  0  0  0  0  0  0  0  0  0  0  0
    1.2447    8.0346    0.0000 H   0  0  0  0  0  0  0  0  0  0  0  0
   -0.6860    6.2961    0.0000 H   0  0  0  0  0  0  0  0  0  0  0  0
    2.2173    2.0061    0.0000 H   0  0  0  0  0  0  0  0  0  0  0  0
   -0.5688    3.1036    0.0000 H   0  0  0  0  0  0  0  0  0  0  0  0
    2.7760    0.0000    0.0000 H   0  0  0  0  0  0  0  0  0  0  0  0
    0.8578   -2.6401    0.0000 H   0  0  0  0  0  0  0  0  0  0  0  0
   -2.3313    3.0000    0.0000 H   0  0  0  0  0  0  0  0  0  0  0  0
   -4.9294    1.5000    0.0000 H   0  0  0  0  0  0  0  0  0  0  0  0
   -4.9294   -1.5000    0.0000 H   0  0  0  0  0  0  0  0  0  0  0  0
   -2.3313   -3.0000    0.0000 H   0  0  0  0  0  0  0  0  0  0  0  0
    4.7491    6.6846    0.0000 H   0  0  0  0  0  0  0  0  0  0  0  0
    6.2569    7.7719    0.0000 H   0  0  0  0  0  0  0  0  0  0  0  0
    9.4220    5.3776    0.0000 H   0  0  0  0  0  0  0  0  0  0  0  0
   11.1879    5.9584    0.0000 H   0  0  0  0  0  0  0  0  0  0  0  0
   12.7918    5.4490    0.0000 H   0  0  0  0  0  0  0  0  0  0  0  0
   13.5474    7.6726    0.0000 H   0  0  0  0  0  0  0  0  0  0  0  0
   15.7181    8.8396    0.0000 H   0  0  0  0  0  0  0  0  0  0  0  0
   18.3582    6.9215    0.0000 H   0  0  0  0  0  0  0  0  0  0  0  0
   14.1394    4.1428    0.0000 H   0  0  0  0  0  0  0  0  0  0  0  0
   10.9828    9.7957    0.0000 H   0  0  0  0  0  0  0  0  0  0  0  0
   14.5092   11.9766    0.0000 H   0  0  0  0  0  0  0  0  0  0  0  0
   15.4723   10.0865    0.0000 H   0  0  0  0  0  0  0  0  0  0  0  0
   12.6191   11.0136    0.0000 H   0  0  0  0  0  0  0  0  0  0  0  0
    9.6434    8.6304    0.0000 H   0  0  0  0  0  0  0  0  0  0  0  0
    6.7204    9.1985    0.0000 H   0  0  0  0  0  0  0  0  0  0  0  0
   10.9381    9.2447    0.0000 H   0  0  0  0  0  0  0  0  0  0  0  0
   12.0085   12.2119    0.0000 H   0  0  0  0  0  0  0  0  0  0  0  0
    7.0667   13.8176    0.0000 H   0  0  0  0  0  0  0  0  0  0  0  0
    6.1396   10.9644    0.0000 H   0  0  0  0  0  0  0  0  0  0  0  0
   12.4721   13.6385    0.0000 H   0  0  0  0  0  0  0  0  0  0  0  0
   13.3991   16.4916    0.0000 H   0  0  0  0  0  0  0  0  0  0  0  0
   11.3917   18.7211    0.0000 H   0  0  0  0  0  0  0  0  0  0  0  0
    8.4573   18.0973    0.0000 H   0  0  0  0  0  0  0  0  0  0  0  0
    7.5302   15.2442    0.0000 H   0  0  0  0  0  0  0  0  0  0  0  0
   13.0272    5.6205    0.0000 H   0  0  0  0  0  0  0  0  0  0  0  0
   10.3718    5.2237    0.0000 H   0  0  0  0  0  0  0  0  0  0  0  0
  1  2  1  0
  2  3  2  3
  3  4  1  0
  4  5  1  0
  5  6  1  0
  6  7  1  0
  7  8  1  0
  8  9  2  0
  8 10  1  0
 10 11  1  0
 11 12  1  0
 12 13  2  0
 12 14  1  0
 11 15  1  0
 15 16  1  0
 16 17  2  0
 17 18  1  0
 18 19  1  0
 19 20  2  0
 20 21  1  0
 21 22  2  0
 22 23  1  0
 23 24  2  0
  7 25  1  0
 25 26  1  0
 26 27  2  0
 26 28  1  0
 28 29  1  0
 29 30  1  0
 30 31  2  0
 30 32  1  0
 32 33  1  0
 33 34  1  0
 34 35  1  0
 35 36  1  0
 36 37  2  0
 37 38  1  0
 32 39  1  0
 39 40  1  0
 40 41  2  0
 40 42  1  0
 28 43  1  0
 43 44  1  0
 44 45  2  0
 45 46  1  0
 46 47  2  0
 47 48  1  0
 48 49  2  0
 47 50  1  0
 50 51  2  0
 51 52  1  0
 52 53  2  0
 53 54  1  0
 54 55  2  0
  2 56  1  0
 20 16  1  0
 38 34  2  0
 49 44  1  0
 55 50  1  0
 24 19  1  0
  1 57  1  0
  1 58  1  0
  4 59  1  0
  4 60  1  0
  5 61  1  0
  5 62  1  0
  6 63  1  0
  6 64  1  0
  7 65  1  6
 10 66  1  0
 11 67  1  6
 14 68  1  0
 14 69  1  0
 15 70  1  0
 15 71  1  0
 17 72  1  0
 18 73  1  0
 21 74  1  0
 22 75  1  0
 23 76  1  0
 24 77  1  0
 25 78  1  0
 28 79  1  1
 29 80  1  0
 32 81  1  6
 33 82  1  0
 33 83  1  0
 35 84  1  0
 36 85  1  0
 38 86  1  0
 39 87  1  0
 42 88  1  0
 42 89  1  0
 42 90  1  0
 43 91  1  0
 43 92  1  0
 45 93  1  0
 46 94  1  0
 48 95  1  0
 49 96  1  0
 51 97  1  0
 52 98  1  0
 53 99  1  0
 54100  1  0
 55101  1  0
 56102  1  0
 56103  1  0
M  END
>  <Ligand ID>  (1) 
LIG0003292

>  <Ligand>  (1) 
CHEMBL421028

>  <SMILES>  (1) 
NC(=NCCC[C@@H](C(=O)N[C@H](C(=O)N)Cc1c[nH]c2c1cccc2)NC(=O)[C@@H](NC(=O)[C@H](Cc1[nH]cnc1)NC(=O)C)Cc1ccc(cc1)c1ccccc1)N

>  <CID>  (1) 
11050972.0

>  <ChEMBL ID>  (1) 
nan

>  <InChiKey>  (1) 
UBLNHOLZZIWLTH-BBACVFHCSA-N

>  <InChi>  (1) 
InChI=1S/C40H47N11O5/c1-24(52)48-35(20-29-22-44-23-47-29)39(56)51-34(18-25-13-15-27(16-14-25)26-8-3-2-4-9-26)38(55)49-32(12-7-17-45-40(42)43)37(54)50-33(36(41)53)19-28-21-46-31-11-6-5-10-30(28)31/h2-6,8-11,13-16,21-23,32-35,46H,7,12,17-20H2,1H3,(H2,41,53)(H,44,47)(H,48,52)(H,49,55)(H,50,54)(H,51,56)(H4,42,43,45)/t32-,33-,34-,35-/m0/s1

>  <IUPAC Name>  (1) 
(2S)-2-[[(2S)-2-[[(2S)-2-acetamido-3-(1H-imidazol-5-yl)propanoyl]amino]-3-(4-phenylphenyl)propanoyl]amino]-N-[(2S)-1-amino-3-(1H-indol-3-yl)-1-oxopropan-2-yl]-5-(diaminomethylideneamino)pentanamide

$$$$
