
     RDKit          3D

 86 89  0  0  0  0  0  0  0  0999 V2000
   -0.5947   -3.7897    2.8118 C   0  0  0  0  0  0  0  0  0  0  0  0
   -0.2423   -3.0926    1.4776 C   0  0  0  0  0  0  0  0  0  0  0  0
   -0.5422   -1.6582    1.6703 C   0  0  0  0  0  0  0  0  0  0  0  0
   -0.2859   -0.7158    0.5477 C   0  0  2  0  0  0  0  0  0  0  0  0
   -0.9863   -1.0160   -0.6779 N   0  0  0  0  0  0  0  0  0  0  0  0
   -0.2991   -1.7900   -1.7110 C   0  0  0  0  0  0  0  0  0  0  0  0
    1.0787   -1.3577   -1.9997 C   0  0  0  0  0  0  0  0  0  0  0  0
    1.8211   -0.7331   -0.9271 N   0  0  0  0  0  0  0  0  0  0  0  0
    1.1137   -0.3898    0.2430 C   0  0  0  0  0  0  0  0  0  0  0  0
    1.7388    0.2798    1.1443 O   0  0  0  0  0  0  0  0  0  0  0  0
    3.2287   -0.4920   -1.1623 C   0  0  2  0  0  0  0  0  0  0  0  0
    4.0686   -1.2101   -0.2177 C   0  0  0  0  0  0  0  0  0  0  0  0
    5.3444   -1.1259   -0.4057 O   0  0  0  0  0  0  0  0  0  0  0  0
    3.6913   -1.9935    0.8850 N   0  0  0  0  0  0  0  0  0  0  0  0
    4.6917   -2.6361    1.7309 C   0  0  0  0  0  0  0  0  0  0  0  0
    3.5474    0.9913   -1.1263 C   0  0  0  0  0  0  0  0  0  0  0  0
    4.9849    1.2416   -1.3570 C   0  0  0  0  0  0  0  0  0  0  0  0
    5.4610    1.2979   -2.6438 C   0  0  0  0  0  0  0  0  0  0  0  0
    6.7952    1.5555   -2.8728 C   0  0  0  0  0  0  0  0  0  0  0  0
    7.7076    1.7659   -1.8804 C   0  0  0  0  0  0  0  0  0  0  0  0
    7.2373    1.7119   -0.5739 C   0  0  0  0  0  0  0  0  0  0  0  0
    5.9004    1.4545   -0.3245 C   0  0  0  0  0  0  0  0  0  0  0  0
    8.1503    1.9219    0.4463 C   0  0  0  0  0  0  0  0  0  0  0  0
    9.4856    2.1777    0.2105 C   0  0  0  0  0  0  0  0  0  0  0  0
    9.9560    2.2314   -1.0878 C   0  0  0  0  0  0  0  0  0  0  0  0
    9.0468    2.0222   -2.1173 C   0  0  0  0  0  0  0  0  0  0  0  0
   -2.3156   -0.6178   -0.9730 C   0  0  0  0  0  0  0  0  0  0  0  0
   -2.8422   -0.9940   -2.0818 O   0  0  0  0  0  0  0  0  0  0  0  0
   -3.1941    0.2056   -0.1184 C   0  0  2  0  0  0  0  0  0  0  0  0
   -4.5440    0.0346   -0.7517 N   0  0  0  0  0  0  0  0  0  0  0  0
   -5.5342   -0.6211    0.0320 C   0  0  0  0  0  0  0  0  0  0  0  0
   -5.2224   -1.0183    1.1953 O   0  0  0  0  0  0  0  0  0  0  0  0
   -6.9061   -0.8233   -0.5326 C   0  0  0  0  0  0  0  0  0  0  0  0
   -7.0405   -0.1842   -1.8033 N   0  0  0  0  0  0  0  0  0  0  0  0
   -7.9093   -0.2685    0.4482 C   0  0  0  0  0  0  0  0  0  0  0  0
   -7.1216   -2.3150   -0.7210 C   0  0  0  0  0  0  0  0  0  0  0  0
   -2.9548    1.6911   -0.2976 C   0  0  0  0  0  0  0  0  0  0  0  0
   -3.8494    2.4910    0.5794 C   0  0  0  0  0  0  0  0  0  0  0  0
   -3.3920    2.8365    1.8506 C   0  0  0  0  0  0  0  0  0  0  0  0
   -4.1896    3.5795    2.7266 C   0  0  0  0  0  0  0  0  0  0  0  0
   -5.4497    3.9659    2.2992 C   0  0  0  0  0  0  0  0  0  0  0  0
   -5.9061    3.6276    1.0462 C   0  0  0  0  0  0  0  0  0  0  0  0
   -5.1113    2.8955    0.1926 C   0  0  0  0  0  0  0  0  0  0  0  0
   -6.2412    4.6974    3.1517 F   0  0  0  0  0  0  0  0  0  0  0  0
   -1.5716   -3.3338    3.0972 H   0  0  0  0  0  0  0  0  0  0  0  0
    0.1294   -3.5592    3.5922 H   0  0  0  0  0  0  0  0  0  0  0  0
   -0.8021   -4.8599    2.6416 H   0  0  0  0  0  0  0  0  0  0  0  0
   -0.8355   -3.5742    0.6660 H   0  0  0  0  0  0  0  0  0  0  0  0
    0.7967   -3.3711    1.2899 H   0  0  0  0  0  0  0  0  0  0  0  0
    0.0460   -1.3396    2.5926 H   0  0  0  0  0  0  0  0  0  0  0  0
   -1.6073   -1.4958    2.0179 H   0  0  0  0  0  0  0  0  0  0  0  0
   -0.8135    0.2503    0.9045 H   0  0  0  0  0  0  0  0  0  0  0  0
   -0.8995   -1.7237   -2.6704 H   0  0  0  0  0  0  0  0  0  0  0  0
   -0.3445   -2.8931   -1.4880 H   0  0  0  0  0  0  0  0  0  0  0  0
    1.6773   -2.2367   -2.3774 H   0  0  0  0  0  0  0  0  0  0  0  0
    1.0844   -0.6029   -2.8466 H   0  0  0  0  0  0  0  0  0  0  0  0
    3.4703   -0.8737   -2.2300 H   0  0  0  0  0  0  0  0  0  0  0  0
    2.7122   -2.1391    1.1166 H   0  0  0  0  0  0  0  0  0  0  0  0
    4.5594   -3.7182    1.6713 H   0  0  0  0  0  0  0  0  0  0  0  0
    4.4892   -2.2547    2.7639 H   0  0  0  0  0  0  0  0  0  0  0  0
    5.7065   -2.3322    1.4039 H   0  0  0  0  0  0  0  0  0  0  0  0
    3.2957    1.4006   -0.1426 H   0  0  0  0  0  0  0  0  0  0  0  0
    2.9592    1.4820   -1.9479 H   0  0  0  0  0  0  0  0  0  0  0  0
    4.8267    1.1482   -3.5007 H   0  0  0  0  0  0  0  0  0  0  0  0
    7.1624    1.5962   -3.8989 H   0  0  0  0  0  0  0  0  0  0  0  0
    5.5135    1.4073    0.6801 H   0  0  0  0  0  0  0  0  0  0  0  0
    7.8123    1.8850    1.4762 H   0  0  0  0  0  0  0  0  0  0  0  0
   10.2116    2.3448    0.9891 H   0  0  0  0  0  0  0  0  0  0  0  0
   11.0199    2.4332   -1.2997 H   0  0  0  0  0  0  0  0  0  0  0  0
    9.3819    2.0571   -3.1567 H   0  0  0  0  0  0  0  0  0  0  0  0
   -3.1946   -0.1447    0.8994 H   0  0  0  0  0  0  0  0  0  0  0  0
   -4.7039    0.3926   -1.7160 H   0  0  0  0  0  0  0  0  0  0  0  0
   -7.0177   -0.8155   -2.6092 H   0  0  0  0  0  0  0  0  0  0  0  0
   -7.7716    0.5553   -1.8247 H   0  0  0  0  0  0  0  0  0  0  0  0
   -7.4437    0.0315    1.4133 H   0  0  0  0  0  0  0  0  0  0  0  0
   -8.6899   -1.0472    0.6227 H   0  0  0  0  0  0  0  0  0  0  0  0
   -8.3738    0.6198    0.0173 H   0  0  0  0  0  0  0  0  0  0  0  0
   -8.1916   -2.5255   -0.7141 H   0  0  0  0  0  0  0  0  0  0  0  0
   -6.5207   -2.8858    0.0198 H   0  0  0  0  0  0  0  0  0  0  0  0
   -6.7145   -2.5430   -1.7462 H   0  0  0  0  0  0  0  0  0  0  0  0
   -1.9237    1.9480   -0.0900 H   0  0  0  0  0  0  0  0  0  0  0  0
   -3.1456    1.8919   -1.3759 H   0  0  0  0  0  0  0  0  0  0  0  0
   -2.3853    2.5253    2.1807 H   0  0  0  0  0  0  0  0  0  0  0  0
   -3.8780    3.8646    3.7070 H   0  0  0  0  0  0  0  0  0  0  0  0
   -6.9115    3.9687    0.7869 H   0  0  0  0  0  0  0  0  0  0  0  0
   -5.4896    2.6339   -0.8008 H   0  0  0  0  0  0  0  0  0  0  0  0
  1  2  1  0
  2  3  1  0
  3  4  1  0
  4  5  1  0
  5  6  1  0
  6  7  1  0
  7  8  1  0
  8  9  1  0
  9 10  2  0
  8 11  1  0
 11 12  1  0
 12 13  2  0
 12 14  1  0
 14 15  1  0
 11 16  1  0
 16 17  1  0
 17 18  2  0
 18 19  1  0
 19 20  2  0
 20 21  1  0
 21 22  2  0
 21 23  1  0
 23 24  2  0
 24 25  1  0
 25 26  2  0
  5 27  1  0
 27 28  2  0
 27 29  1  0
 29 30  1  0
 30 31  1  0
 31 32  2  0
 31 33  1  0
 33 34  1  0
 33 35  1  0
 33 36  1  0
 29 37  1  0
 37 38  1  0
 38 39  2  0
 39 40  1  0
 40 41  2  0
 41 42  1  0
 42 43  2  0
 41 44  1  0
  9  4  1  0
 22 17  1  0
 43 38  1  0
 26 20  1  0
  1 45  1  0
  1 46  1  0
  1 47  1  0
  2 48  1  0
  2 49  1  0
  3 50  1  0
  3 51  1  0
  4 52  1  1
  6 53  1  0
  6 54  1  0
  7 55  1  0
  7 56  1  0
 11 57  1  6
 14 58  1  0
 15 59  1  0
 15 60  1  0
 15 61  1  0
 16 62  1  0
 16 63  1  0
 18 64  1  0
 19 65  1  0
 22 66  1  0
 23 67  1  0
 24 68  1  0
 25 69  1  0
 26 70  1  0
 29 71  1  1
 30 72  1  0
 34 73  1  0
 34 74  1  0
 35 75  1  0
 35 76  1  0
 35 77  1  0
 36 78  1  0
 36 79  1  0
 36 80  1  0
 37 81  1  0
 37 82  1  0
 39 83  1  0
 40 84  1  0
 42 85  1  0
 43 86  1  0
M  END
>  <Ligand ID>  (1) 
LIG0004074

>  <Ligand>  (1) 
CHEMBL453734

>  <SMILES>  (1) 
CCC[C@@H]1N(CCN(C1=O)[C@H](C(=O)NC)Cc1ccc2c(c1)cccc2)C(=O)[C@H](NC(=O)C(N)(C)C)Cc1ccc(cc1)F

>  <CID>  (1) 
25129107.0

>  <ChEMBL ID>  (1) 
nan

>  <InChiKey>  (1) 
RDQOUEKWQGRDRJ-ULNSLHSMSA-N

>  <InChi>  (1) 
InChI=1S/C34H42FN5O4/c1-5-8-28-32(43)40(29(30(41)37-4)21-23-11-14-24-9-6-7-10-25(24)19-23)18-17-39(28)31(42)27(38-33(44)34(2,3)36)20-22-12-15-26(35)16-13-22/h6-7,9-16,19,27-29H,5,8,17-18,20-21,36H2,1-4H3,(H,37,41)(H,38,44)/t27-,28+,29+/m1/s1

>  <IUPAC Name>  (1) 
2-amino-N-[(2R)-3-(4-fluorophenyl)-1-[(2S)-4-[(2S)-1-(methylamino)-3-naphthalen-2-yl-1-oxopropan-2-yl]-3-oxo-2-propylpiperazin-1-yl]-1-oxopropan-2-yl]-2-methylpropanamide

$$$$
