
     RDKit          3D

 55 58  0  0  0  0  0  0  0  0999 V2000
    3.6387   -5.2876   -0.6690 C   0  0  0  0  0  0  0  0  0  0  0  0
    3.4776   -4.1484   -1.4619 O   0  0  0  0  0  0  0  0  0  0  0  0
    3.3620   -2.8567   -1.0311 C   0  0  0  0  0  0  0  0  0  0  0  0
    3.2088   -1.8634   -1.9854 C   0  0  0  0  0  0  0  0  0  0  0  0
    3.0874   -0.5442   -1.6092 C   0  0  0  0  0  0  0  0  0  0  0  0
    3.1078   -0.1192   -0.2967 C   0  0  0  0  0  0  0  0  0  0  0  0
    3.2626   -1.1221    0.6654 C   0  0  0  0  0  0  0  0  0  0  0  0
    3.3853   -2.4597    0.2789 C   0  0  0  0  0  0  0  0  0  0  0  0
    2.9775    1.3034    0.0486 C   0  0  0  0  0  0  0  0  0  0  0  0
    1.5862    1.7841    0.1843 C   0  0  0  0  0  0  0  0  0  0  0  0
    1.0322    2.5492   -0.8487 C   0  0  0  0  0  0  0  0  0  0  0  0
   -0.2604    3.0171   -0.7678 C   0  0  0  0  0  0  0  0  0  0  0  0
   -0.9932    2.7298    0.3227 N   0  0  0  0  0  0  0  0  0  0  0  0
   -0.4967    2.0008    1.3303 N   0  0  0  0  0  0  0  0  0  0  0  0
    0.7799    1.5290    1.2695 C   0  0  0  0  0  0  0  0  0  0  0  0
    1.2279    0.8487    2.2229 O   0  0  0  0  0  0  0  0  0  0  0  0
   -1.3619    1.7395    2.4651 C   0  0  0  0  0  0  0  0  0  0  0  0
   -2.1006    0.4728    2.1880 C   0  0  0  0  0  0  0  0  0  0  0  0
   -3.2101    0.4911    1.5822 O   0  0  0  0  0  0  0  0  0  0  0  0
   -1.6138   -0.8003    2.5788 N   0  0  0  0  0  0  0  0  0  0  0  0
   -2.3141   -2.0188    2.3173 C   0  0  0  0  0  0  0  0  0  0  0  0
   -3.2210   -2.5054    3.2381 C   0  0  0  0  0  0  0  0  0  0  0  0
   -3.9158   -3.6740    3.0262 C   0  0  0  0  0  0  0  0  0  0  0  0
   -3.6995   -4.3788    1.8611 C   0  0  0  0  0  0  0  0  0  0  0  0
   -2.7825   -3.8820    0.9356 C   0  0  0  0  0  0  0  0  0  0  0  0
   -2.0898   -2.7186    1.1444 C   0  0  0  0  0  0  0  0  0  0  0  0
   -4.6658   -5.9818    1.5935 Br  0  0  0  0  0  0  0  0  0  0  0  0
   -0.8907    3.8200   -1.8111 C   0  0  0  0  0  0  0  0  0  0  0  0
   -2.1940    4.2307   -1.6097 C   0  0  0  0  0  0  0  0  0  0  0  0
   -2.8422    4.9986   -2.5721 C   0  0  0  0  0  0  0  0  0  0  0  0
   -2.1935    5.3654   -3.7494 C   0  0  0  0  0  0  0  0  0  0  0  0
   -0.9107    4.9396   -3.9071 C   0  0  0  0  0  0  0  0  0  0  0  0
   -0.2503    4.1836   -2.9761 C   0  0  0  0  0  0  0  0  0  0  0  0
   -2.8415    6.1144   -4.6755 F   0  0  0  0  0  0  0  0  0  0  0  0
    3.2125   -5.0729    0.3326 H   0  0  0  0  0  0  0  0  0  0  0  0
    4.6965   -5.6463   -0.6377 H   0  0  0  0  0  0  0  0  0  0  0  0
    3.0516   -6.1155   -1.1637 H   0  0  0  0  0  0  0  0  0  0  0  0
    3.1816   -2.1095   -3.0572 H   0  0  0  0  0  0  0  0  0  0  0  0
    2.9704    0.1916   -2.3979 H   0  0  0  0  0  0  0  0  0  0  0  0
    3.2913   -0.8713    1.7163 H   0  0  0  0  0  0  0  0  0  0  0  0
    3.5008   -3.1865    1.0508 H   0  0  0  0  0  0  0  0  0  0  0  0
    3.5052    1.9230   -0.7209 H   0  0  0  0  0  0  0  0  0  0  0  0
    3.5206    1.5558    1.0034 H   0  0  0  0  0  0  0  0  0  0  0  0
    1.6302    2.7618   -1.6981 H   0  0  0  0  0  0  0  0  0  0  0  0
   -0.7660    1.5673    3.3805 H   0  0  0  0  0  0  0  0  0  0  0  0
   -2.0391    2.6052    2.5699 H   0  0  0  0  0  0  0  0  0  0  0  0
   -0.7133   -0.8897    3.0790 H   0  0  0  0  0  0  0  0  0  0  0  0
   -3.4180   -1.9825    4.1623 H   0  0  0  0  0  0  0  0  0  0  0  0
   -4.6144   -4.0307    3.7558 H   0  0  0  0  0  0  0  0  0  0  0  0
   -2.6461   -4.4722    0.0332 H   0  0  0  0  0  0  0  0  0  0  0  0
   -1.3857   -2.3725    0.3920 H   0  0  0  0  0  0  0  0  0  0  0  0
   -2.7616    3.9855   -0.7225 H   0  0  0  0  0  0  0  0  0  0  0  0
   -3.8715    5.3093   -2.3871 H   0  0  0  0  0  0  0  0  0  0  0  0
   -0.3874    5.2138   -4.8161 H   0  0  0  0  0  0  0  0  0  0  0  0
    0.7571    3.8795   -3.1568 H   0  0  0  0  0  0  0  0  0  0  0  0
  1  2  1  0
  2  3  1  0
  3  4  2  0
  4  5  1  0
  5  6  2  0
  6  7  1  0
  7  8  2  0
  6  9  1  0
  9 10  1  0
 10 11  2  0
 11 12  1  0
 12 13  2  0
 13 14  1  0
 14 15  1  0
 15 16  2  0
 14 17  1  0
 17 18  1  0
 18 19  2  0
 18 20  1  0
 20 21  1  0
 21 22  2  0
 22 23  1  0
 23 24  2  0
 24 25  1  0
 25 26  2  0
 24 27  1  0
 12 28  1  0
 28 29  2  0
 29 30  1  0
 30 31  2  0
 31 32  1  0
 32 33  2  0
 31 34  1  0
  8  3  1  0
 15 10  1  0
 26 21  1  0
 33 28  1  0
  1 35  1  0
  1 36  1  0
  1 37  1  0
  4 38  1  0
  5 39  1  0
  7 40  1  0
  8 41  1  0
  9 42  1  0
  9 43  1  0
 11 44  1  0
 17 45  1  0
 17 46  1  0
 20 47  1  0
 22 48  1  0
 23 49  1  0
 25 50  1  0
 26 51  1  0
 29 52  1  0
 30 53  1  0
 32 54  1  0
 33 55  1  0
M  END
>  <Ligand ID>  (1) 
LIG0004809

>  <Ligand>  (1) 
CHEMBL2391273

>  <SMILES>  (1) 
COc1ccc(cc1)Cc1cc(nn(c1=O)CC(=O)Nc1ccc(cc1)Br)c1ccc(cc1)F

>  <CID>  (1) 
71698796.0

>  <ChEMBL ID>  (1) 
nan

>  <InChiKey>  (1) 
QNQOZSCNEPIKND-UHFFFAOYSA-N

>  <InChi>  (1) 
InChI=1S/C26H21BrFN3O3/c1-34-23-12-2-17(3-13-23)14-19-15-24(18-4-8-21(28)9-5-18)30-31(26(19)33)16-25(32)29-22-10-6-20(27)7-11-22/h2-13,15H,14,16H2,1H3,(H,29,32)

>  <IUPAC Name>  (1) 
N-(4-bromophenyl)-2-[3-(4-fluorophenyl)-5-[(4-methoxyphenyl)methyl]-6-oxopyridazin-1-yl]acetamide

$$$$
