
     RDKit          3D

 85 88  0  0  0  0  0  0  0  0999 V2000
   -9.0679   -2.3278    2.6690 O   0  0  0  0  0  0  0  0  0  0  0  0
   -8.7968   -1.8767    1.3757 C   0  0  2  0  0  0  0  0  0  0  0  0
   -8.2199   -0.4864    1.3748 C   0  0  1  0  0  0  0  0  0  0  0  0
   -7.1178   -0.4370    0.3393 C   0  0  0  0  0  0  0  0  0  0  0  0
   -6.5180    0.7941    0.2784 O   0  0  0  0  0  0  0  0  0  0  0  0
   -5.2178    0.9194   -0.7561 P   0  0  0  0  0  0  0  0  0  0  0  0
   -5.7191    1.4671   -2.0793 O   0  0  0  0  0  0  0  0  0  0  0  0
   -4.4469   -0.5428   -1.0808 O   0  0  0  0  0  0  0  0  0  0  0  0
   -3.5476   -1.1430    0.1771 P   0  0  0  0  0  0  0  0  0  0  0  0
   -4.0034   -2.5819    0.4367 O   0  0  0  0  0  0  0  0  0  0  0  0
   -1.9060   -1.1963   -0.0463 O   0  0  0  0  0  0  0  0  0  0  0  0
   -1.3489   -0.7637   -1.5526 P   0  0  0  0  0  0  0  0  0  0  0  0
   -1.5650   -1.9110   -2.5120 O   0  0  0  0  0  0  0  0  0  0  0  0
    0.2993   -0.3929   -1.4071 O   0  0  0  0  0  0  0  0  0  0  0  0
    0.5404    0.2252    0.1483 P   0  0  0  0  0  0  0  0  0  0  0  0
   -0.7460    0.3523    0.9319 O   0  0  0  0  0  0  0  0  0  0  0  0
    1.5521   -0.7830    1.0571 O   0  0  0  0  0  0  0  0  0  0  0  0
    3.1210   -0.6211    0.5085 P   0  0  0  0  0  0  0  0  0  0  0  0
    3.7528   -2.0136    0.5866 O   0  0  0  0  0  0  0  0  0  0  0  0
    3.9677    0.3704    1.5831 O   0  0  0  0  0  0  0  0  0  0  0  0
    4.9662    1.4720    0.8017 P   0  0  0  0  0  0  0  0  0  0  0  0
    4.7190    1.5315   -0.6924 O   0  0  0  0  0  0  0  0  0  0  0  0
    6.5814    1.1070    1.1375 O   0  0  0  0  0  0  0  0  0  0  0  0
    6.8758   -0.1912    0.7535 C   0  0  0  0  0  0  0  0  0  0  0  0
    8.3374   -0.4399    1.0611 C   0  0  2  0  0  0  0  0  0  0  0  0
    9.1544    0.4644    0.3557 O   0  0  0  0  0  0  0  0  0  0  0  0
   10.4123   -0.1158    0.5414 C   0  0  1  0  0  0  0  0  0  0  0  0
   10.1621   -1.5266    0.0412 C   0  0  2  0  0  0  0  0  0  0  0  0
    8.7985   -1.8089    0.6868 C   0  0  1  0  0  0  0  0  0  0  0  0
    9.0716   -2.5175    1.8432 O   0  0  0  0  0  0  0  0  0  0  0  0
   11.1166   -2.4173    0.5022 O   0  0  0  0  0  0  0  0  0  0  0  0
   11.4568    0.5599   -0.1652 N   0  0  0  0  0  0  0  0  0  0  0  0
   12.3831   -0.0601   -0.9270 C   0  0  0  0  0  0  0  0  0  0  0  0
   13.3651    0.6208   -1.5868 C   0  0  0  0  0  0  0  0  0  0  0  0
   13.4164    2.0038   -1.4724 C   0  0  0  0  0  0  0  0  0  0  0  0
   14.3149    2.6811   -2.0699 O   0  0  0  0  0  0  0  0  0  0  0  0
   12.4753    2.6229   -0.6998 N   0  0  0  0  0  0  0  0  0  0  0  0
   11.5209    1.9027   -0.0649 C   0  0  0  0  0  0  0  0  0  0  0  0
   10.6976    2.5632    0.6241 O   0  0  0  0  0  0  0  0  0  0  0  0
    4.6455    3.0011    1.4995 O   0  0  0  0  0  0  0  0  0  0  0  0
    3.2198   -0.0935   -1.0731 O   0  0  0  0  0  0  0  0  0  0  0  0
    1.2054    1.7951    0.0975 O   0  0  0  0  0  0  0  0  0  0  0  0
   -2.0789    0.6457   -2.1392 O   0  0  0  0  0  0  0  0  0  0  0  0
   -3.8287   -0.3190    1.6355 O   0  0  0  0  0  0  0  0  0  0  0  0
   -4.0531    2.0232   -0.1882 O   0  0  0  0  0  0  0  0  0  0  0  0
   -9.2287    0.3975    1.1494 O   0  0  0  0  0  0  0  0  0  0  0  0
  -10.4145   -0.2371    0.9081 C   0  0  2  0  0  0  0  0  0  0  0  0
  -10.0858   -1.6806    0.5884 C   0  0  2  0  0  0  0  0  0  0  0  0
  -11.0298   -2.5781    1.0518 O   0  0  0  0  0  0  0  0  0  0  0  0
  -11.1091    0.4408   -0.1618 N   0  0  0  0  0  0  0  0  0  0  0  0
  -12.0869   -0.2356   -0.7901 C   0  0  0  0  0  0  0  0  0  0  0  0
  -12.8289    0.2905   -1.8252 C   0  0  0  0  0  0  0  0  0  0  0  0
  -12.5300    1.5848   -2.2171 C   0  0  0  0  0  0  0  0  0  0  0  0
  -13.2021    2.0685   -3.1586 O   0  0  0  0  0  0  0  0  0  0  0  0
  -11.5497    2.2412   -1.5756 N   0  0  0  0  0  0  0  0  0  0  0  0
  -10.8387    1.6931   -0.5602 C   0  0  0  0  0  0  0  0  0  0  0  0
   -9.9145    2.3352    0.0322 O   0  0  0  0  0  0  0  0  0  0  0  0
   -8.3400   -2.1820    3.2912 H   0  0  0  0  0  0  0  0  0  0  0  0
   -8.1044   -2.5587    0.8692 H   0  0  0  0  0  0  0  0  0  0  0  0
   -7.7795   -0.2424    2.3914 H   0  0  0  0  0  0  0  0  0  0  0  0
   -6.3555   -1.1780    0.6356 H   0  0  0  0  0  0  0  0  0  0  0  0
   -7.5359   -0.6898   -0.6491 H   0  0  0  0  0  0  0  0  0  0  0  0
    6.3045   -0.8732    1.4362 H   0  0  0  0  0  0  0  0  0  0  0  0
    6.5803   -0.4597   -0.2602 H   0  0  0  0  0  0  0  0  0  0  0  0
    8.4915   -0.2118    2.1347 H   0  0  0  0  0  0  0  0  0  0  0  0
   10.5589   -0.1899    1.6384 H   0  0  0  0  0  0  0  0  0  0  0  0
    9.9837   -1.5700   -1.0393 H   0  0  0  0  0  0  0  0  0  0  0  0
    8.1337   -2.3548   -0.0137 H   0  0  0  0  0  0  0  0  0  0  0  0
    8.3311   -3.0538    2.1925 H   0  0  0  0  0  0  0  0  0  0  0  0
   11.3013   -3.1438   -0.1706 H   0  0  0  0  0  0  0  0  0  0  0  0
   12.3515   -1.1345   -1.0221 H   0  0  0  0  0  0  0  0  0  0  0  0
   14.1194    0.1561   -2.2024 H   0  0  0  0  0  0  0  0  0  0  0  0
   12.4962    3.6777   -0.5988 H   0  0  0  0  0  0  0  0  0  0  0  0
    5.2780    3.1787    2.2424 H   0  0  0  0  0  0  0  0  0  0  0  0
    2.5064    0.5054   -1.3493 H   0  0  0  0  0  0  0  0  0  0  0  0
    0.9073    2.3025   -0.6966 H   0  0  0  0  0  0  0  0  0  0  0  0
   -1.6932    1.4133   -1.6571 H   0  0  0  0  0  0  0  0  0  0  0  0
   -3.4263    0.5853    1.6323 H   0  0  0  0  0  0  0  0  0  0  0  0
   -4.5473    2.8431    0.0749 H   0  0  0  0  0  0  0  0  0  0  0  0
  -10.9916   -0.2566    1.8557 H   0  0  0  0  0  0  0  0  0  0  0  0
   -9.8798   -1.7401   -0.4874 H   0  0  0  0  0  0  0  0  0  0  0  0
  -10.5397   -3.3562    1.4255 H   0  0  0  0  0  0  0  0  0  0  0  0
  -12.3251   -1.2465   -0.4890 H   0  0  0  0  0  0  0  0  0  0  0  0
  -13.6032   -0.3073   -2.2892 H   0  0  0  0  0  0  0  0  0  0  0  0
  -11.3513    3.2105   -1.8952 H   0  0  0  0  0  0  0  0  0  0  0  0
  1  2  1  0
  2  3  1  0
  3  4  1  0
  4  5  1  0
  5  6  1  0
  6  7  2  0
  6  8  1  0
  8  9  1  0
  9 10  2  0
  9 11  1  0
 11 12  1  0
 12 13  2  0
 12 14  1  0
 14 15  1  0
 15 16  2  0
 15 17  1  0
 17 18  1  0
 18 19  2  0
 18 20  1  0
 20 21  1  0
 21 22  2  0
 21 23  1  0
 23 24  1  0
 24 25  1  0
 25 26  1  0
 26 27  1  0
 27 28  1  0
 28 29  1  0
 29 30  1  0
 28 31  1  0
 27 32  1  0
 32 33  1  0
 33 34  2  0
 34 35  1  0
 35 36  2  0
 35 37  1  0
 37 38  1  0
 38 39  2  0
 21 40  1  0
 18 41  1  0
 15 42  1  0
 12 43  1  0
  9 44  1  0
  6 45  1  0
  3 46  1  0
 46 47  1  0
 47 48  1  0
 48 49  1  0
 47 50  1  0
 50 51  1  0
 51 52  2  0
 52 53  1  0
 53 54  2  0
 53 55  1  0
 55 56  1  0
 56 57  2  0
 48  2  1  0
 56 50  1  0
 29 25  1  0
 38 32  1  0
  1 58  1  0
  2 59  1  6
  3 60  1  1
  4 61  1  0
  4 62  1  0
 24 63  1  0
 24 64  1  0
 25 65  1  1
 27 66  1  1
 28 67  1  6
 29 68  1  6
 30 69  1  0
 31 70  1  0
 33 71  1  0
 34 72  1  0
 37 73  1  0
 40 74  1  0
 41 75  1  0
 42 76  1  0
 43 77  1  0
 44 78  1  0
 45 79  1  0
 47 80  1  1
 48 81  1  6
 49 82  1  0
 51 83  1  0
 52 84  1  0
 55 85  1  0
M  END
>  <Ligand ID>  (1) 
LIG0002833

>  <Ligand>  (1) 
CHEMBL2113465

>  <SMILES>  (1) 
O[C@@H]1[C@@H](COP(=O)(OP(=O)(OP(=O)(OP(=O)(OP(=O)(OP(=O)(OC[C@@H]2O[C@@H]([C@H]([C@H]2O)O)n2ccc(=O)[nH]c2=O)O)O)O)O)O)O)O[C@H]([C@@H]1O)n1ccc(=O)[nH]c1=O

>  <CID>  (1) 
71459959.0

>  <ChEMBL ID>  (1) 
nan

>  <InChiKey>  (1) 
MHMPIASZRJDSQE-WWMDGMSNSA-N

>  <InChi>  (1) 
InChI=1S/C18H28N4O29P6/c23-9-1-3-21(17(29)19-9)15-13(27)11(25)7(45-15)5-43-52(31,32)47-54(35,36)49-56(39,40)51-57(41,42)50-55(37,38)48-53(33,34)44-6-8-12(26)14(28)16(46-8)22-4-2-10(24)20-18(22)30/h1-4,7-8,11-16,25-28H,5-6H2,(H,31,32)(H,33,34)(H,35,36)(H,37,38)(H,39,40)(H,41,42)(H,19,23,29)(H,20,24,30)/t7-,8+,11-,12+,13-,14+,15-,16+

>  <IUPAC Name>  (1) 
[[(2R,3S,4R,5R)-5-(2,4-dioxopyrimidin-1-yl)-3,4-dihydroxyoxolan-2-yl]methoxy-hydroxyphosphoryl] [[[[[(2S,3R,4S,5S)-5-(2,4-dioxopyrimidin-1-yl)-3,4-dihydroxyoxolan-2-yl]methoxy-hydroxyphosphoryl]oxy-hydroxyphosphoryl]oxy-hydroxyphosphoryl]oxy-hydroxyphosphoryl] hydrogen phosphate

$$$$
