
     RDKit          3D

142144  0  0  0  0  0  0  0  0999 V2000
   11.9667    3.7192    0.7675 C   0  0  0  0  0  0  0  0  0  0  0  0
   11.3229    2.8669    1.8297 C   0  0  0  0  0  0  0  0  0  0  0  0
   10.0118    3.2814    2.0331 O   0  0  0  0  0  0  0  0  0  0  0  0
    9.0367    3.2620    1.0701 C   0  0  0  0  0  0  0  0  0  0  0  0
    7.7760    3.7237    1.4449 C   0  0  0  0  0  0  0  0  0  0  0  0
    6.7634    3.7237    0.5116 C   0  0  0  0  0  0  0  0  0  0  0  0
    6.9321    3.2888   -0.7851 C   0  0  0  0  0  0  0  0  0  0  0  0
    8.1889    2.8378   -1.1270 C   0  0  0  0  0  0  0  0  0  0  0  0
    9.2608    2.8067   -0.2370 C   0  0  0  0  0  0  0  0  0  0  0  0
    5.9064    3.3163   -1.8303 C   0  0  0  0  0  0  0  0  0  0  0  0
    4.9479    2.1756   -1.8804 C   0  0  2  0  0  0  0  0  0  0  0  0
    4.1532    2.0572   -0.6777 N   0  0  0  0  0  0  0  0  0  0  0  0
    2.7513    2.2013   -0.8069 C   0  0  0  0  0  0  0  0  0  0  0  0
    2.2892    2.3679   -1.9338 O   0  0  0  0  0  0  0  0  0  0  0  0
    1.7620    2.1663    0.3289 C   0  0  0  0  0  0  0  0  0  0  0  0
    0.3726    2.2751   -0.2432 C   0  0  0  0  0  0  0  0  0  0  0  0
   -0.6951    2.3132    0.7909 C   0  0  0  0  0  0  0  0  0  0  0  0
   -2.3469    2.3405   -0.0555 S   0  0  0  0  0  0  0  0  0  0  0  0
   -2.5527    0.7421   -0.9030 C   0  0  0  0  0  0  0  0  0  0  0  0
   -2.7636   -0.3997    0.1121 C   0  0  2  0  0  0  0  0  0  0  0  0
   -2.4750   -1.6295   -0.6704 N   0  0  0  0  0  0  0  0  0  0  0  0
   -1.1517   -2.1015   -0.5727 C   0  0  0  0  0  0  0  0  0  0  0  0
   -0.3815   -1.3475    0.1123 O   0  0  0  0  0  0  0  0  0  0  0  0
   -0.5479   -3.3001   -1.1338 C   0  0  1  0  0  0  0  0  0  0  0  0
    0.9203   -3.2771   -1.0297 N   0  0  0  0  0  0  0  0  0  0  0  0
    1.7420   -4.1653   -1.7859 C   0  0  0  0  0  0  0  0  0  0  0  0
    1.0992   -5.0056   -2.4565 O   0  0  0  0  0  0  0  0  0  0  0  0
    3.1871   -4.1688   -1.8182 C   0  0  1  0  0  0  0  0  0  0  0  0
    3.8335   -2.8968   -1.4410 N   0  0  0  0  0  0  0  0  0  0  0  0
    5.1835   -2.7154   -1.8521 C   0  0  0  0  0  0  0  0  0  0  0  0
    5.6851   -3.7252   -2.4135 O   0  0  0  0  0  0  0  0  0  0  0  0
    6.0266   -1.5410   -1.6951 C   0  0  1  0  0  0  0  0  0  0  0  0
    5.4319   -0.3018   -1.3202 N   0  0  0  0  0  0  0  0  0  0  0  0
    5.5822    0.8761   -2.1793 C   0  0  0  0  0  0  0  0  0  0  0  0
    6.2790    0.7087   -3.1703 O   0  0  0  0  0  0  0  0  0  0  0  0
    7.3318   -1.8783   -1.0021 C   0  0  2  0  0  0  0  0  0  0  0  0
    7.2322   -2.4438    0.3620 C   0  0  0  0  0  0  0  0  0  0  0  0
    6.5818   -1.5632    1.3966 C   0  0  0  0  0  0  0  0  0  0  0  0
    8.1849   -0.6142   -0.9620 C   0  0  0  0  0  0  0  0  0  0  0  0
    3.5760   -5.0620   -0.5746 C   0  0  0  0  0  0  0  0  0  0  0  0
    2.9791   -6.4085   -0.7750 C   0  0  0  0  0  0  0  0  0  0  0  0
    3.3467   -7.2520    0.4076 C   0  0  0  0  0  0  0  0  0  0  0  0
    4.0747   -6.8081    1.3341 O   0  0  0  0  0  0  0  0  0  0  0  0
    2.8782   -8.6081    0.5261 N   0  0  0  0  0  0  0  0  0  0  0  0
   -1.0527   -4.5397   -0.3474 C   0  0  0  0  0  0  0  0  0  0  0  0
   -2.5058   -4.6362   -0.4613 C   0  0  0  0  0  0  0  0  0  0  0  0
   -3.0081   -4.9189   -1.5829 O   0  0  0  0  0  0  0  0  0  0  0  0
   -3.3382   -4.4181    0.6556 N   0  0  0  0  0  0  0  0  0  0  0  0
   -4.1645   -0.4473    0.5487 C   0  0  0  0  0  0  0  0  0  0  0  0
   -4.8710   -1.3782   -0.0060 O   0  0  0  0  0  0  0  0  0  0  0  0
   -4.7958    0.4013    1.4887 N   0  0  0  0  0  0  0  0  0  0  0  0
   -4.2068    1.4732    2.3074 C   0  0  0  0  0  0  0  0  0  0  0  0
   -5.0830    1.3372    3.5885 C   0  0  2  0  0  0  0  0  0  0  0  0
   -6.4462    1.0812    3.0145 C   0  0  0  0  0  0  0  0  0  0  0  0
   -6.2249    0.3391    1.7638 C   0  0  1  0  0  0  0  0  0  0  0  0
   -7.0052    0.7675    0.5884 C   0  0  0  0  0  0  0  0  0  0  0  0
   -6.3513    0.8259   -0.5197 O   0  0  0  0  0  0  0  0  0  0  0  0
   -8.3741    1.1159    0.5708 N   0  0  0  0  0  0  0  0  0  0  0  0
   -8.9146    1.5082   -0.7236 C   0  0  2  0  0  0  0  0  0  0  0  0
   -8.9265    3.0258   -0.7844 C   0  0  0  0  0  0  0  0  0  0  0  0
   -9.3346    3.5003   -1.8714 O   0  0  0  0  0  0  0  0  0  0  0  0
   -8.5058    3.8121    0.3165 N   0  0  0  0  0  0  0  0  0  0  0  0
   -8.5402    5.2498    0.1919 C   0  0  0  0  0  0  0  0  0  0  0  0
   -9.9445    5.6596   -0.0757 C   0  0  0  0  0  0  0  0  0  0  0  0
  -10.8194    4.7635   -0.1335 O   0  0  0  0  0  0  0  0  0  0  0  0
  -10.2200    7.0463   -0.2514 N   0  0  0  0  0  0  0  0  0  0  0  0
  -10.3308    1.0779   -0.8230 C   0  0  0  0  0  0  0  0  0  0  0  0
  -10.5970   -0.3836   -0.7019 C   0  0  0  0  0  0  0  0  0  0  0  0
   -9.8837   -1.1853   -1.7646 C   0  0  0  0  0  0  0  0  0  0  0  0
  -10.4500   -0.9649    0.6634 C   0  0  0  0  0  0  0  0  0  0  0  0
   -5.0653    2.5185    4.3003 O   0  0  0  0  0  0  0  0  0  0  0  0
   12.6872    4.4223    1.2846 H   0  0  0  0  0  0  0  0  0  0  0  0
   11.2157    4.4014    0.2945 H   0  0  0  0  0  0  0  0  0  0  0  0
   12.4782    3.1434   -0.0053 H   0  0  0  0  0  0  0  0  0  0  0  0
   11.8907    2.9323    2.7898 H   0  0  0  0  0  0  0  0  0  0  0  0
   11.3573    1.8017    1.5438 H   0  0  0  0  0  0  0  0  0  0  0  0
    7.5811    4.0741    2.4512 H   0  0  0  0  0  0  0  0  0  0  0  0
    5.7791    4.0847    0.7990 H   0  0  0  0  0  0  0  0  0  0  0  0
    8.4141    2.4778   -2.1246 H   0  0  0  0  0  0  0  0  0  0  0  0
   10.2316    2.4426   -0.5333 H   0  0  0  0  0  0  0  0  0  0  0  0
    6.3751    3.4810   -2.8422 H   0  0  0  0  0  0  0  0  0  0  0  0
    5.2631    4.2508   -1.7173 H   0  0  0  0  0  0  0  0  0  0  0  0
    4.2132    2.3574   -2.7379 H   0  0  0  0  0  0  0  0  0  0  0  0
    4.4958    1.8771    0.2645 H   0  0  0  0  0  0  0  0  0  0  0  0
    1.8350    1.1598    0.8252 H   0  0  0  0  0  0  0  0  0  0  0  0
    1.9818    2.9440    1.0803 H   0  0  0  0  0  0  0  0  0  0  0  0
    0.3678    3.1971   -0.8946 H   0  0  0  0  0  0  0  0  0  0  0  0
    0.1942    1.4356   -0.9536 H   0  0  0  0  0  0  0  0  0  0  0  0
   -0.6759    1.4201    1.4306 H   0  0  0  0  0  0  0  0  0  0  0  0
   -0.6283    3.2459    1.3670 H   0  0  0  0  0  0  0  0  0  0  0  0
   -1.6447    0.5682   -1.5172 H   0  0  0  0  0  0  0  0  0  0  0  0
   -3.4334    0.7960   -1.5382 H   0  0  0  0  0  0  0  0  0  0  0  0
   -2.0740   -0.2048    0.9127 H   0  0  0  0  0  0  0  0  0  0  0  0
   -3.1284   -2.1218   -1.2446 H   0  0  0  0  0  0  0  0  0  0  0  0
   -0.8077   -3.5320   -2.1612 H   0  0  0  0  0  0  0  0  0  0  0  0
    1.4383   -2.6373   -0.4189 H   0  0  0  0  0  0  0  0  0  0  0  0
    3.6397   -4.6776   -2.6512 H   0  0  0  0  0  0  0  0  0  0  0  0
    3.4076   -2.1511   -0.9207 H   0  0  0  0  0  0  0  0  0  0  0  0
    6.3970   -1.3561   -2.7586 H   0  0  0  0  0  0  0  0  0  0  0  0
    4.8817   -0.0983   -0.4868 H   0  0  0  0  0  0  0  0  0  0  0  0
    7.8626   -2.5931   -1.6548 H   0  0  0  0  0  0  0  0  0  0  0  0
    8.2789   -2.6150    0.7186 H   0  0  0  0  0  0  0  0  0  0  0  0
    6.7770   -3.4556    0.4075 H   0  0  0  0  0  0  0  0  0  0  0  0
    6.7807   -2.0811    2.3879 H   0  0  0  0  0  0  0  0  0  0  0  0
    5.5027   -1.4733    1.3485 H   0  0  0  0  0  0  0  0  0  0  0  0
    7.1303   -0.5936    1.5107 H   0  0  0  0  0  0  0  0  0  0  0  0
    9.1544   -0.8699   -0.4355 H   0  0  0  0  0  0  0  0  0  0  0  0
    8.4933   -0.3380   -1.9744 H   0  0  0  0  0  0  0  0  0  0  0  0
    7.6589    0.1491   -0.3785 H   0  0  0  0  0  0  0  0  0  0  0  0
    4.6674   -5.0650   -0.4614 H   0  0  0  0  0  0  0  0  0  0  0  0
    3.0650   -4.5586    0.2684 H   0  0  0  0  0  0  0  0  0  0  0  0
    1.8760   -6.4177   -0.8030 H   0  0  0  0  0  0  0  0  0  0  0  0
    3.3280   -6.8903   -1.7280 H   0  0  0  0  0  0  0  0  0  0  0  0
    1.8486   -8.7455    0.3674 H   0  0  0  0  0  0  0  0  0  0  0  0
    3.5015   -9.4008    0.7507 H   0  0  0  0  0  0  0  0  0  0  0  0
   -0.5815   -5.4076   -0.8482 H   0  0  0  0  0  0  0  0  0  0  0  0
   -0.7092   -4.5251    0.6936 H   0  0  0  0  0  0  0  0  0  0  0  0
   -4.3877   -4.3986    0.5583 H   0  0  0  0  0  0  0  0  0  0  0  0
   -2.9727   -4.2691    1.6164 H   0  0  0  0  0  0  0  0  0  0  0  0
   -3.1927    1.2138    2.5845 H   0  0  0  0  0  0  0  0  0  0  0  0
   -4.4185    2.4745    1.9587 H   0  0  0  0  0  0  0  0  0  0  0  0
   -4.7146    0.5250    4.2281 H   0  0  0  0  0  0  0  0  0  0  0  0
   -6.9177    2.0805    2.8723 H   0  0  0  0  0  0  0  0  0  0  0  0
   -7.0778    0.5472    3.7618 H   0  0  0  0  0  0  0  0  0  0  0  0
   -6.4235   -0.7550    1.9812 H   0  0  0  0  0  0  0  0  0  0  0  0
   -8.9129    1.0823    1.4362 H   0  0  0  0  0  0  0  0  0  0  0  0
   -8.2743    1.2258   -1.5623 H   0  0  0  0  0  0  0  0  0  0  0  0
   -8.1877    3.3069    1.1811 H   0  0  0  0  0  0  0  0  0  0  0  0
   -8.1847    5.6480    1.1716 H   0  0  0  0  0  0  0  0  0  0  0  0
   -7.9093    5.5627   -0.6668 H   0  0  0  0  0  0  0  0  0  0  0  0
  -10.5274    7.4326   -1.1896 H   0  0  0  0  0  0  0  0  0  0  0  0
  -10.1183    7.7099    0.5507 H   0  0  0  0  0  0  0  0  0  0  0  0
  -10.7361    1.3880   -1.8275 H   0  0  0  0  0  0  0  0  0  0  0  0
  -10.9354    1.6608   -0.0741 H   0  0  0  0  0  0  0  0  0  0  0  0
  -11.6983   -0.5095   -0.9614 H   0  0  0  0  0  0  0  0  0  0  0  0
  -10.2439   -2.2247   -1.7007 H   0  0  0  0  0  0  0  0  0  0  0  0
  -10.2652   -0.8003   -2.7538 H   0  0  0  0  0  0  0  0  0  0  0  0
   -8.7898   -1.1130   -1.6625 H   0  0  0  0  0  0  0  0  0  0  0  0
   -9.4399   -1.2489    0.9507 H   0  0  0  0  0  0  0  0  0  0  0  0
  -10.9571   -0.3021    1.3969 H   0  0  0  0  0  0  0  0  0  0  0  0
  -11.0442   -1.9093    0.6724 H   0  0  0  0  0  0  0  0  0  0  0  0
   -4.7611    2.3514    5.2467 H   0  0  0  0  0  0  0  0  0  0  0  0
  1  2  1  0
  2  3  1  0
  3  4  1  0
  4  5  2  0
  5  6  1  0
  6  7  2  0
  7  8  1  0
  8  9  2  0
  7 10  1  0
 10 11  1  0
 11 12  1  0
 12 13  1  0
 13 14  2  0
 13 15  1  0
 15 16  1  0
 16 17  1  0
 17 18  1  0
 18 19  1  0
 19 20  1  0
 20 21  1  0
 21 22  1  0
 22 23  2  0
 22 24  1  0
 24 25  1  0
 25 26  1  0
 26 27  2  0
 26 28  1  0
 28 29  1  0
 29 30  1  0
 30 31  2  0
 30 32  1  0
 32 33  1  0
 33 34  1  0
 34 35  2  0
 32 36  1  0
 36 37  1  0
 37 38  1  0
 36 39  1  0
 28 40  1  0
 40 41  1  0
 41 42  1  0
 42 43  2  0
 42 44  1  0
 24 45  1  0
 45 46  1  0
 46 47  2  0
 46 48  1  0
 20 49  1  0
 49 50  2  0
 49 51  1  0
 51 52  1  0
 52 53  1  0
 53 54  1  0
 54 55  1  0
 55 56  1  0
 56 57  2  0
 56 58  1  0
 58 59  1  0
 59 60  1  0
 60 61  2  0
 60 62  1  0
 62 63  1  0
 63 64  1  0
 64 65  2  0
 64 66  1  0
 59 67  1  0
 67 68  1  0
 68 69  1  0
 68 70  1  0
 53 71  1  0
  9  4  1  0
 34 11  1  0
 55 51  1  0
  1 72  1  0
  1 73  1  0
  1 74  1  0
  2 75  1  0
  2 76  1  0
  5 77  1  0
  6 78  1  0
  8 79  1  0
  9 80  1  0
 10 81  1  0
 10 82  1  0
 11 83  1  6
 12 84  1  0
 15 85  1  0
 15 86  1  0
 16 87  1  0
 16 88  1  0
 17 89  1  0
 17 90  1  0
 19 91  1  0
 19 92  1  0
 20 93  1  1
 21 94  1  0
 24 95  1  6
 25 96  1  0
 28 97  1  6
 29 98  1  0
 32 99  1  6
 33100  1  0
 36101  1  6
 37102  1  0
 37103  1  0
 38104  1  0
 38105  1  0
 38106  1  0
 39107  1  0
 39108  1  0
 39109  1  0
 40110  1  0
 40111  1  0
 41112  1  0
 41113  1  0
 44114  1  0
 44115  1  0
 45116  1  0
 45117  1  0
 48118  1  0
 48119  1  0
 52120  1  0
 52121  1  0
 53122  1  1
 54123  1  0
 54124  1  0
 55125  1  1
 58126  1  0
 59127  1  6
 62128  1  0
 63129  1  0
 63130  1  0
 66131  1  0
 66132  1  0
 67133  1  0
 67134  1  0
 68135  1  0
 69136  1  0
 69137  1  0
 69138  1  0
 70139  1  0
 70140  1  0
 70141  1  0
 71142  1  0
M  END
>  <Ligand ID>  (1) 
LIG0001579

>  <Ligand>  (1) 
CHEMBL3353935

>  <SMILES>  (1) 
CCOc1ccc(cc1)C[C@@H]1NC(=O)CCCSC[C@H](NC(=O)[C@@H](NC(=O)[C@@H](NC(=O)[C@@H](NC1=O)[C@H](CC)C)CCC(=O)N)CC(=O)N)C(=O)N1C[C@H](C[C@H]1C(=O)N[C@H](C(=O)NCC(=O)N)CC(C)C)O

>  <CID>  (1) 
118719824.0

>  <ChEMBL ID>  (1) 
nan

>  <InChiKey>  (1) 
RMZLJLMGQDKPQE-RLXPKYQOSA-N

>  <InChi>  (1) 
InChI=1S/C46H71N11O13S/c1-6-25(5)39-45(68)52-29(14-15-35(47)59)41(64)53-32(20-36(48)60)42(65)55-33(23-71-16-8-9-38(62)51-31(43(66)56-39)18-26-10-12-28(13-11-26)70-7-2)46(69)57-22-27(58)19-34(57)44(67)54-30(17-24(3)4)40(63)50-21-37(49)61/h10-13,24-25,27,29-34,39,58H,6-9,14-23H2,1-5H3,(H2,47,59)(H2,48,60)(H2,49,61)(H,50,63)(H,51,62)(H,52,68)(H,53,64)(H,54,67)(H,55,65)(H,56,66)/t25-,27-,29-,30-,31-,32-,33-,34-,39-/m0/s1

>  <IUPAC Name>  (1) 
(2S,4S)-N-[(2S)-1-[(2-amino-2-oxoethyl)amino]-4-methyl-1-oxopentan-2-yl]-1-[(3R,6S,9S,12S,15S)-6-(2-amino-2-oxoethyl)-9-(3-amino-3-oxopropyl)-12-[(2S)-butan-2-yl]-15-[(4-ethoxyphenyl)methyl]-5,8,11,14,17-pentaoxo-1-thia-4,7,10,13,16-pentazacycloicosane-3-carbonyl]-4-hydroxypyrrolidine-2-carboxamide

$$$$
