
     RDKit          3D

195202  0  0  0  0  0  0  0  0999 V2000
    6.2069   -7.4109   -5.7642 I   0  0  0  0  0  0  0  0  0  0  0  0
    4.6410   -6.4607   -4.7186 C   0  0  0  0  0  0  0  0  0  0  0  0
    4.3974   -6.8080   -3.4190 C   0  0  0  0  0  0  0  0  0  0  0  0
    3.3834   -6.2102   -2.7079 C   0  0  0  0  0  0  0  0  0  0  0  0
    2.5465   -5.2188   -3.2791 C   0  0  0  0  0  0  0  0  0  0  0  0
    2.8170   -4.8918   -4.5855 C   0  0  0  0  0  0  0  0  0  0  0  0
    3.8432   -5.4876   -5.3191 C   0  0  0  0  0  0  0  0  0  0  0  0
    1.5143   -4.6861   -2.4436 C   0  0  0  0  0  0  0  0  0  0  0  0
    1.6339   -3.3497   -1.7750 C   0  0  1  0  0  0  0  0  0  0  0  0
    0.4001   -3.1801   -0.9552 N   0  0  0  0  0  0  0  0  0  0  0  0
    0.2633   -3.7026    0.3392 C   0  0  0  0  0  0  0  0  0  0  0  0
    1.2423   -4.3413    0.7824 O   0  0  0  0  0  0  0  0  0  0  0  0
   -0.9083   -3.5791    1.2363 C   0  0  2  0  0  0  0  0  0  0  0  0
   -1.0595   -5.0009    1.7905 C   0  0  0  0  0  0  0  0  0  0  0  0
   -1.2819   -5.9163    0.5934 C   0  0  0  0  0  0  0  0  0  0  0  0
   -1.4302   -7.2542    0.5165 C   0  0  0  0  0  0  0  0  0  0  0  0
   -1.5756   -7.5468   -0.7972 N   0  0  0  0  0  0  0  0  0  0  0  0
   -1.5154   -6.3949   -1.5240 C   0  0  0  0  0  0  0  0  0  0  0  0
   -1.3366   -5.4129   -0.6546 N   0  0  0  0  0  0  0  0  0  0  0  0
   -2.1156   -3.0736    0.7386 N   0  0  0  0  0  0  0  0  0  0  0  0
   -2.4963   -1.6986    0.4152 C   0  0  0  0  0  0  0  0  0  0  0  0
   -1.5604   -0.9186    0.4294 O   0  0  0  0  0  0  0  0  0  0  0  0
   -3.9010   -1.5181    0.1240 C   0  0  1  0  0  0  0  0  0  0  0  0
   -4.7035   -2.5697    0.7161 N   0  0  0  0  0  0  0  0  0  0  0  0
   -5.7349   -3.3065    0.0677 C   0  0  0  0  0  0  0  0  0  0  0  0
   -6.1108   -3.1339   -1.1011 O   0  0  0  0  0  0  0  0  0  0  0  0
   -6.3551   -4.3622    0.9827 C   0  0  2  0  0  0  0  0  0  0  0  0
   -6.9312   -3.6217    2.1746 C   0  0  0  0  0  0  0  0  0  0  0  0
   -7.5102   -4.5230    3.1951 C   0  0  0  0  0  0  0  0  0  0  0  0
   -8.8333   -4.8695    3.2782 C   0  0  0  0  0  0  0  0  0  0  0  0
   -9.2088   -5.7175    4.3000 C   0  0  0  0  0  0  0  0  0  0  0  0
   -8.3224   -6.2356    5.2407 C   0  0  0  0  0  0  0  0  0  0  0  0
   -6.9715   -5.8801    5.1498 C   0  0  0  0  0  0  0  0  0  0  0  0
   -6.6055   -5.0240    4.1192 C   0  0  0  0  0  0  0  0  0  0  0  0
   -8.7572   -7.0822    6.2375 O   0  0  0  0  0  0  0  0  0  0  0  0
   -5.3392   -5.2293    1.5184 N   0  0  0  0  0  0  0  0  0  0  0  0
   -4.5865   -0.2081    0.3253 C   0  0  0  0  0  0  0  0  0  0  0  0
   -4.1075    0.8535   -0.5580 C   0  0  0  0  0  0  0  0  0  0  0  0
   -3.0025    0.6741   -1.1016 O   0  0  0  0  0  0  0  0  0  0  0  0
   -4.6652    2.0844   -0.9432 N   0  0  0  0  0  0  0  0  0  0  0  0
   -5.9021    2.5035   -0.4938 C   0  0  2  0  0  0  0  0  0  0  0  0
   -5.8929    2.8668    0.9860 C   0  0  0  0  0  0  0  0  0  0  0  0
   -4.8944    2.6885    1.7092 O   0  0  0  0  0  0  0  0  0  0  0  0
   -7.0422    3.4321    1.5841 N   0  0  0  0  0  0  0  0  0  0  0  0
   -7.1457    1.7261   -0.7112 C   0  0  0  0  0  0  0  0  0  0  0  0
   -7.5799    1.4584   -2.0768 C   0  0  0  0  0  0  0  0  0  0  0  0
   -8.4900    2.3511   -2.6784 C   0  0  0  0  0  0  0  0  0  0  0  0
   -8.9351    2.1491   -3.9742 C   0  0  0  0  0  0  0  0  0  0  0  0
   -8.4860    1.0610   -4.6862 C   0  0  0  0  0  0  0  0  0  0  0  0
   -7.5802    0.1542   -4.1219 C   0  0  0  0  0  0  0  0  0  0  0  0
   -7.1261    0.3566   -2.8063 C   0  0  0  0  0  0  0  0  0  0  0  0
   -8.9752    0.9097   -5.9778 O   0  0  0  0  0  0  0  0  0  0  0  0
   -3.8710    3.0473   -1.8004 C   0  0  2  0  0  0  0  0  0  0  0  0
   -3.1381    2.3066   -2.8747 C   0  0  0  0  0  0  0  0  0  0  0  0
   -3.1215    3.9147   -0.9445 N   0  0  0  0  0  0  0  0  0  0  0  0
   -2.2343    4.9573   -1.4658 C   0  0  0  0  0  0  0  0  0  0  0  0
   -2.2097    4.9697   -2.7086 O   0  0  0  0  0  0  0  0  0  0  0  0
   -1.4743    5.8451   -0.5800 C   0  0  2  0  0  0  0  0  0  0  0  0
   -1.9975    7.2056   -0.2935 C   0  0  0  0  0  0  0  0  0  0  0  0
   -3.2846    7.2759    0.3926 C   0  0  0  0  0  0  0  0  0  0  0  0
   -4.5099    7.4820   -0.1839 C   0  0  0  0  0  0  0  0  0  0  0  0
   -5.6915    7.5228    0.5677 C   0  0  0  0  0  0  0  0  0  0  0  0
   -5.5858    7.3502    1.9226 C   0  0  0  0  0  0  0  0  0  0  0  0
   -4.3613    7.1369    2.5645 C   0  0  0  0  0  0  0  0  0  0  0  0
   -3.2396    7.1055    1.7877 C   0  0  0  0  0  0  0  0  0  0  0  0
   -0.0943    5.9711   -1.1324 N   0  0  0  0  0  0  0  0  0  0  0  0
    0.9214    5.5018   -0.3221 C   0  0  0  0  0  0  0  0  0  0  0  0
    0.5535    5.0875    0.8422 O   0  0  0  0  0  0  0  0  0  0  0  0
    2.3802    5.3703   -0.5178 C   0  0  1  0  0  0  0  0  0  0  0  0
    2.9092    4.6728    0.6567 N   0  0  0  0  0  0  0  0  0  0  0  0
    4.2346    4.2010    0.8569 C   0  0  0  0  0  0  0  0  0  0  0  0
    5.0457    4.3439    0.0027 O   0  0  0  0  0  0  0  0  0  0  0  0
    4.3908    3.5283    2.2274 C   0  0  1  0  0  0  0  0  0  0  0  0
    5.4705    2.5705    2.2406 N   0  0  0  0  0  0  0  0  0  0  0  0
    5.6060    1.5163    1.2849 C   0  0  0  0  0  0  0  0  0  0  0  0
    4.8284    1.6100    0.3138 O   0  0  0  0  0  0  0  0  0  0  0  0
    6.5548    0.4098    1.3872 C   0  0  1  0  0  0  0  0  0  0  0  0
    6.4013   -0.4304    0.1665 N   0  0  0  0  0  0  0  0  0  0  0  0
    5.2449   -1.1717   -0.1624 C   0  0  0  0  0  0  0  0  0  0  0  0
    4.2279   -0.9196    0.4992 O   0  0  0  0  0  0  0  0  0  0  0  0
    5.2770   -2.2070   -1.2895 C   0  0  1  0  0  0  0  0  0  0  0  0
    3.9969   -2.4884   -1.8375 N   0  0  0  0  0  0  0  0  0  0  0  0
    2.8856   -3.0539   -1.0842 C   0  0  0  0  0  0  0  0  0  0  0  0
    3.1673   -3.2063    0.1113 O   0  0  0  0  0  0  0  0  0  0  0  0
    6.4023   -1.9157   -2.1621 C   0  0  0  0  0  0  0  0  0  0  0  0
    6.6041   -2.8250   -3.3538 C   0  0  0  0  0  0  0  0  0  0  0  0
    6.7987   -4.2591   -2.9142 C   0  0  0  0  0  0  0  0  0  0  0  0
    7.9180   -4.4592   -2.0686 N   0  0  0  0  0  0  0  0  0  0  0  0
    9.1573   -4.2645   -2.2349 C   0  0  0  0  0  0  0  0  0  0  0  0
   10.0078   -4.6005   -1.1078 N   0  0  0  0  0  0  0  0  0  0  0  0
    9.7649   -3.7378   -3.4062 N   0  0  0  0  0  0  0  0  0  0  0  0
    7.9886    0.6280    1.5266 C   0  0  0  0  0  0  0  0  0  0  0  0
    8.5498    1.3753    2.6449 C   0  0  0  0  0  0  0  0  0  0  0  0
    8.9370    0.7784    3.8362 C   0  0  0  0  0  0  0  0  0  0  0  0
    9.4013    1.7288    4.6896 N   0  0  0  0  0  0  0  0  0  0  0  0
    9.3279    2.9446    4.0877 C   0  0  0  0  0  0  0  0  0  0  0  0
    8.8072    2.7228    2.8394 C   0  0  0  0  0  0  0  0  0  0  0  0
    8.6281    3.7884    1.9893 C   0  0  0  0  0  0  0  0  0  0  0  0
    8.9811    5.0567    2.4237 C   0  0  0  0  0  0  0  0  0  0  0  0
    9.4945    5.2438    3.6744 C   0  0  0  0  0  0  0  0  0  0  0  0
    9.6920    4.1729    4.5698 C   0  0  0  0  0  0  0  0  0  0  0  0
    4.6335    4.5973    3.2342 C   0  0  0  0  0  0  0  0  0  0  0  0
    3.5736    5.6188    3.3301 C   0  0  0  0  0  0  0  0  0  0  0  0
    3.6238    6.5393    2.4307 O   0  0  0  0  0  0  0  0  0  0  0  0
    2.5563    5.6171    4.3280 N   0  0  0  0  0  0  0  0  0  0  0  0
    2.5248    4.4086   -1.7278 C   0  0  0  0  0  0  0  0  0  0  0  0
   -4.8679    3.8928   -2.5411 C   0  0  0  0  0  0  0  0  0  0  0  0
   -5.5348    3.3316   -3.4796 O   0  0  0  0  0  0  0  0  0  0  0  0
   -5.1260    5.2113   -2.3017 O   0  0  0  0  0  0  0  0  0  0  0  0
    5.0124   -7.5615   -2.9323 H   0  0  0  0  0  0  0  0  0  0  0  0
    3.2152   -6.5109   -1.6784 H   0  0  0  0  0  0  0  0  0  0  0  0
    2.1769   -4.1142   -5.0352 H   0  0  0  0  0  0  0  0  0  0  0  0
    4.0294   -5.2104   -6.3483 H   0  0  0  0  0  0  0  0  0  0  0  0
    1.3242   -5.4067   -1.5647 H   0  0  0  0  0  0  0  0  0  0  0  0
    0.4845   -4.7271   -2.9358 H   0  0  0  0  0  0  0  0  0  0  0  0
    1.5277   -2.5232   -2.5474 H   0  0  0  0  0  0  0  0  0  0  0  0
   -0.4165   -2.6662   -1.3161 H   0  0  0  0  0  0  0  0  0  0  0  0
   -0.5313   -2.9247    2.0656 H   0  0  0  0  0  0  0  0  0  0  0  0
   -1.9420   -5.0502    2.4118 H   0  0  0  0  0  0  0  0  0  0  0  0
   -0.1160   -5.3449    2.2341 H   0  0  0  0  0  0  0  0  0  0  0  0
   -1.4283   -7.9488    1.3593 H   0  0  0  0  0  0  0  0  0  0  0  0
   -1.7140   -8.4744   -1.2593 H   0  0  0  0  0  0  0  0  0  0  0  0
   -1.5963   -6.2615   -2.5910 H   0  0  0  0  0  0  0  0  0  0  0  0
   -2.8867   -3.7508    0.5442 H   0  0  0  0  0  0  0  0  0  0  0  0
   -4.0458   -1.7079   -1.0065 H   0  0  0  0  0  0  0  0  0  0  0  0
   -4.4577   -2.7579    1.7416 H   0  0  0  0  0  0  0  0  0  0  0  0
   -7.1473   -4.8557    0.4426 H   0  0  0  0  0  0  0  0  0  0  0  0
   -7.7938   -2.9792    1.8100 H   0  0  0  0  0  0  0  0  0  0  0  0
   -6.2546   -2.9214    2.6623 H   0  0  0  0  0  0  0  0  0  0  0  0
   -9.5140   -4.4715    2.5511 H   0  0  0  0  0  0  0  0  0  0  0  0
  -10.2383   -5.9923    4.3650 H   0  0  0  0  0  0  0  0  0  0  0  0
   -6.2313   -6.2529    5.8462 H   0  0  0  0  0  0  0  0  0  0  0  0
   -5.5384   -4.7762    4.0905 H   0  0  0  0  0  0  0  0  0  0  0  0
   -8.6126   -6.7508    7.2091 H   0  0  0  0  0  0  0  0  0  0  0  0
   -5.1056   -5.9954    0.8333 H   0  0  0  0  0  0  0  0  0  0  0  0
   -4.5409   -4.7662    1.9321 H   0  0  0  0  0  0  0  0  0  0  0  0
   -4.5855    0.0841    1.4183 H   0  0  0  0  0  0  0  0  0  0  0  0
   -5.6454   -0.4179    0.1125 H   0  0  0  0  0  0  0  0  0  0  0  0
   -6.1501    3.5488   -0.9427 H   0  0  0  0  0  0  0  0  0  0  0  0
   -7.9040    2.9344    1.8511 H   0  0  0  0  0  0  0  0  0  0  0  0
   -7.0098    4.4633    1.7794 H   0  0  0  0  0  0  0  0  0  0  0  0
   -7.3370    0.8379   -0.1208 H   0  0  0  0  0  0  0  0  0  0  0  0
   -7.9493    2.4489   -0.2737 H   0  0  0  0  0  0  0  0  0  0  0  0
   -8.8531    3.2252   -2.1137 H   0  0  0  0  0  0  0  0  0  0  0  0
   -9.6401    2.8644   -4.4012 H   0  0  0  0  0  0  0  0  0  0  0  0
   -7.2300   -0.7043   -4.6992 H   0  0  0  0  0  0  0  0  0  0  0  0
   -6.4222   -0.3501   -2.3765 H   0  0  0  0  0  0  0  0  0  0  0  0
   -9.9579    0.6487   -6.1061 H   0  0  0  0  0  0  0  0  0  0  0  0
   -3.1384    2.9199   -3.8123 H   0  0  0  0  0  0  0  0  0  0  0  0
   -3.7069    1.4005   -3.1444 H   0  0  0  0  0  0  0  0  0  0  0  0
   -2.0850    2.0648   -2.5913 H   0  0  0  0  0  0  0  0  0  0  0  0
   -3.1215    3.9011    0.0787 H   0  0  0  0  0  0  0  0  0  0  0  0
   -1.3953    5.3142    0.4274 H   0  0  0  0  0  0  0  0  0  0  0  0
   -2.0072    7.8315   -1.2275 H   0  0  0  0  0  0  0  0  0  0  0  0
   -1.2331    7.7203    0.3675 H   0  0  0  0  0  0  0  0  0  0  0  0
   -4.5421    7.6326   -1.2384 H   0  0  0  0  0  0  0  0  0  0  0  0
   -6.6554    7.6735    0.1384 H   0  0  0  0  0  0  0  0  0  0  0  0
   -6.4420    7.3665    2.5944 H   0  0  0  0  0  0  0  0  0  0  0  0
   -4.3099    7.0035    3.6363 H   0  0  0  0  0  0  0  0  0  0  0  0
   -2.2996    6.9441    2.2965 H   0  0  0  0  0  0  0  0  0  0  0  0
    0.1117    6.3621   -2.0363 H   0  0  0  0  0  0  0  0  0  0  0  0
    2.8829    6.2733   -0.7768 H   0  0  0  0  0  0  0  0  0  0  0  0
    2.2468    4.4964    1.4217 H   0  0  0  0  0  0  0  0  0  0  0  0
    3.4299    2.9674    2.3805 H   0  0  0  0  0  0  0  0  0  0  0  0
    6.1662    2.6134    2.9563 H   0  0  0  0  0  0  0  0  0  0  0  0
    6.1262   -0.2982    2.1929 H   0  0  0  0  0  0  0  0  0  0  0  0
    7.1686   -0.4659   -0.5194 H   0  0  0  0  0  0  0  0  0  0  0  0
    5.5609   -3.1567   -0.6817 H   0  0  0  0  0  0  0  0  0  0  0  0
    3.7812   -2.3045   -2.8138 H   0  0  0  0  0  0  0  0  0  0  0  0
    6.4598   -0.8582   -2.5442 H   0  0  0  0  0  0  0  0  0  0  0  0
    7.3571   -2.0966   -1.5512 H   0  0  0  0  0  0  0  0  0  0  0  0
    7.5976   -2.5231   -3.7812 H   0  0  0  0  0  0  0  0  0  0  0  0
    5.8691   -2.7474   -4.1356 H   0  0  0  0  0  0  0  0  0  0  0  0
    5.8682   -4.6698   -2.4603 H   0  0  0  0  0  0  0  0  0  0  0  0
    6.9823   -4.8363   -3.8493 H   0  0  0  0  0  0  0  0  0  0  0  0
   10.1536   -3.9468   -0.3355 H   0  0  0  0  0  0  0  0  0  0  0  0
   10.4447   -5.5637   -1.1673 H   0  0  0  0  0  0  0  0  0  0  0  0
    9.9215   -4.3663   -4.2406 H   0  0  0  0  0  0  0  0  0  0  0  0
   10.0419   -2.7313   -3.3823 H   0  0  0  0  0  0  0  0  0  0  0  0
    8.5219   -0.3713    1.4582 H   0  0  0  0  0  0  0  0  0  0  0  0
    8.3360    1.1429    0.5527 H   0  0  0  0  0  0  0  0  0  0  0  0
    8.8727   -0.2896    4.0555 H   0  0  0  0  0  0  0  0  0  0  0  0
    9.7516    1.5087    5.6587 H   0  0  0  0  0  0  0  0  0  0  0  0
    8.2167    3.6107    1.0099 H   0  0  0  0  0  0  0  0  0  0  0  0
    8.8251    5.8633    1.7056 H   0  0  0  0  0  0  0  0  0  0  0  0
    9.7477    6.2632    3.9544 H   0  0  0  0  0  0  0  0  0  0  0  0
   10.0997    4.3333    5.5530 H   0  0  0  0  0  0  0  0  0  0  0  0
    5.6513    5.0757    3.0550 H   0  0  0  0  0  0  0  0  0  0  0  0
    4.7274    4.1472    4.2706 H   0  0  0  0  0  0  0  0  0  0  0  0
    2.1691    6.5568    4.5977 H   0  0  0  0  0  0  0  0  0  0  0  0
    2.2191    4.7357    4.7732 H   0  0  0  0  0  0  0  0  0  0  0  0
    1.6295    4.5186   -2.3446 H   0  0  0  0  0  0  0  0  0  0  0  0
    2.5891    3.3936   -1.3246 H   0  0  0  0  0  0  0  0  0  0  0  0
    3.4864    4.6754   -2.2002 H   0  0  0  0  0  0  0  0  0  0  0  0
   -6.0917    5.5711   -2.2982 H   0  0  0  0  0  0  0  0  0  0  0  0
  1  2  1  0
  2  3  2  0
  3  4  1  0
  4  5  2  0
  5  6  1  0
  6  7  2  0
  5  8  1  0
  8  9  1  0
  9 10  1  0
 10 11  1  0
 11 12  2  0
 11 13  1  0
 13 14  1  0
 14 15  1  0
 15 16  2  0
 16 17  1  0
 17 18  1  0
 18 19  2  0
 13 20  1  0
 20 21  1  0
 21 22  2  0
 21 23  1  0
 23 24  1  0
 24 25  1  0
 25 26  2  0
 25 27  1  0
 27 28  1  0
 28 29  1  0
 29 30  2  0
 30 31  1  0
 31 32  2  0
 32 33  1  0
 33 34  2  0
 32 35  1  0
 27 36  1  0
 23 37  1  0
 37 38  1  0
 38 39  2  0
 38 40  1  0
 40 41  1  0
 41 42  1  0
 42 43  2  0
 42 44  1  0
 41 45  1  0
 45 46  1  0
 46 47  2  0
 47 48  1  0
 48 49  2  0
 49 50  1  0
 50 51  2  0
 49 52  1  0
 40 53  1  0
 53 54  1  6
 53 55  1  0
 55 56  1  0
 56 57  2  0
 56 58  1  0
 58 59  1  0
 59 60  1  0
 60 61  2  0
 61 62  1  0
 62 63  2  0
 63 64  1  0
 64 65  2  0
 58 66  1  0
 66 67  1  0
 67 68  2  0
 67 69  1  0
 69 70  1  0
 70 71  1  0
 71 72  2  0
 71 73  1  0
 73 74  1  0
 74 75  1  0
 75 76  2  0
 75 77  1  0
 77 78  1  0
 78 79  1  0
 79 80  2  0
 79 81  1  0
 81 82  1  0
 82 83  1  0
 83 84  2  0
 81 85  1  0
 85 86  1  0
 86 87  1  0
 87 88  1  0
 88 89  2  3
 89 90  1  0
 89 91  1  0
 77 92  1  0
 92 93  1  0
 93 94  2  0
 94 95  1  0
 95 96  1  0
 96 97  2  0
 97 98  1  0
 98 99  2  0
 99100  1  0
100101  2  0
 73102  1  0
102103  1  0
103104  2  0
103105  1  0
 69106  1  0
 53107  1  0
107108  2  0
107109  1  0
  7  2  1  0
 83  9  1  0
 97 93  1  0
 19 15  1  0
 34 29  1  0
 51 46  1  0
 65 60  1  0
101 96  1  0
  3110  1  0
  4111  1  0
  6112  1  0
  7113  1  0
  8114  1  0
  8115  1  0
  9116  1  6
 10117  1  0
 13118  1  1
 14119  1  0
 14120  1  0
 16121  1  0
 17122  1  0
 18123  1  0
 20124  1  0
 23125  1  6
 24126  1  0
 27127  1  6
 28128  1  0
 28129  1  0
 30130  1  0
 31131  1  0
 33132  1  0
 34133  1  0
 35134  1  0
 36135  1  0
 36136  1  0
 37137  1  0
 37138  1  0
 41139  1  6
 44140  1  0
 44141  1  0
 45142  1  0
 45143  1  0
 47144  1  0
 48145  1  0
 50146  1  0
 51147  1  0
 52148  1  0
 54149  1  0
 54150  1  0
 54151  1  0
 55152  1  0
 58153  1  1
 59154  1  0
 59155  1  0
 61156  1  0
 62157  1  0
 63158  1  0
 64159  1  0
 65160  1  0
 66161  1  0
 69162  1  6
 70163  1  0
 73164  1  1
 74165  1  0
 77166  1  1
 78167  1  0
 81168  1  1
 82169  1  0
 85170  1  0
 85171  1  0
 86172  1  0
 86173  1  0
 87174  1  0
 87175  1  0
 90176  1  0
 90177  1  0
 91178  1  0
 91179  1  0
 92180  1  0
 92181  1  0
 94182  1  0
 95183  1  0
 98184  1  0
 99185  1  0
100186  1  0
101187  1  0
102188  1  0
102189  1  0
105190  1  0
105191  1  0
106192  1  0
106193  1  0
106194  1  0
109195  1  0
M  END
>  <Ligand ID>  (1) 
LIG0005490

>  <Ligand>  (1) 
CHEMBL2369973

>  <SMILES>  (1) 
Ic1ccc(cc1)C[C@H]1NC(=O)[C@H](Cc2c[nH]cn2)NC(=O)[C@@H](NC(=O)[C@H](Cc2ccc(cc2)O)N)CC(=O)N([C@H](C(=O)N)Cc2ccc(cc2)O)[C@](C)(NC(=O)[C@H](Cc2ccccc2)NC(=O)[C@@H](NC(=O)[C@@H](NC(=O)[C@@H](NC(=O)[C@@H](NC1=O)CCCN=C(N)N)Cc1c[nH]c2c1cccc2)CC(=O)N)C)C(=O)O

>  <CID>  (1) 
73354517.0

>  <ChEMBL ID>  (1) 
nan

>  <InChiKey>  (1) 
CNIUCUZOXJJMCC-GQGJGNRXSA-N

>  <InChi>  (1) 
InChI=1S/C73H86IN19O16/c1-38-62(99)86-53(28-39-9-4-3-5-10-39)70(107)92-73(2,71(108)109)93(58(61(77)98)30-42-18-24-47(95)25-19-42)60(97)34-57(87-63(100)49(75)27-40-16-22-46(94)23-17-40)69(106)90-55(32-45-36-80-37-83-45)68(105)88-52(29-41-14-20-44(74)21-15-41)66(103)85-51(13-8-26-81-72(78)79)64(101)89-54(31-43-35-82-50-12-7-6-11-48(43)50)67(104)91-56(33-59(76)96)65(102)84-38/h3-7,9-12,14-25,35-38,49,51-58,82,94-95H,8,13,26-34,75H2,1-2H3,(H2,76,96)(H2,77,98)(H,80,83)(H,84,102)(H,85,103)(H,86,99)(H,87,100)(H,88,105)(H,89,101)(H,90,106)(H,91,104)(H,92,107)(H,108,109)(H4,78,79,81)/t38-,49-,51-,52+,53-,54-,55-,56-,57-,58-,73-/m0/s1

>  <IUPAC Name>  (1) 
(2S,5S,8S,11S,14S,17S,20R,23S,26S)-1-[(2S)-1-amino-3-(4-hydroxyphenyl)-1-oxopropan-2-yl]-26-[[(2S)-2-amino-3-(4-hydroxyphenyl)propanoyl]amino]-11-(2-amino-2-oxoethyl)-5-benzyl-17-[3-(diaminomethylideneamino)propyl]-23-(1H-imidazol-4-ylmethyl)-14-(1H-indol-3-ylmethyl)-20-[(4-iodophenyl)methyl]-2,8-dimethyl-4,7,10,13,16,19,22,25,28-nonaoxo-1,3,6,9,12,15,18,21,24-nonazacyclooctacosane-2-carboxylic acid

$$$$
