
     RDKit          3D

 68 73  0  0  0  0  0  0  0  0999 V2000
   -2.9461   -6.5707    2.2289 Cl  0  0  0  0  0  0  0  0  0  0  0  0
   -2.0378   -5.1827    1.6234 C   0  0  0  0  0  0  0  0  0  0  0  0
   -1.3192   -5.2423    0.4461 C   0  0  0  0  0  0  0  0  0  0  0  0
   -0.6460   -4.0983    0.0647 C   0  0  0  0  0  0  0  0  0  0  0  0
   -0.6867   -2.9305    0.8313 C   0  0  0  0  0  0  0  0  0  0  0  0
   -1.4215   -2.8920    2.0219 C   0  0  0  0  0  0  0  0  0  0  0  0
   -2.0860   -4.0409    2.3869 C   0  0  0  0  0  0  0  0  0  0  0  0
   -1.4586   -1.4181    2.9633 Cl  0  0  0  0  0  0  0  0  0  0  0  0
    0.0365   -1.8274    0.3497 N   0  0  0  0  0  0  0  0  0  0  0  0
    1.3653   -1.7163    0.1908 N   0  0  0  0  0  0  0  0  0  0  0  0
    1.6738   -0.4924   -0.2981 C   0  0  0  0  0  0  0  0  0  0  0  0
    0.4874    0.2196   -0.4618 C   0  0  0  0  0  0  0  0  0  0  0  0
   -0.4914   -0.6492   -0.0481 C   0  0  0  0  0  0  0  0  0  0  0  0
   -1.8894   -0.1671   -0.1001 C   0  0  0  0  0  0  0  0  0  0  0  0
   -2.8630   -1.0033   -0.3008 C   0  0  0  0  0  0  0  0  0  0  0  0
   -4.2517   -0.5692   -0.3532 C   0  0  0  0  0  0  0  0  0  0  0  0
   -5.0372   -1.0163   -1.4244 C   0  0  0  0  0  0  0  0  0  0  0  0
   -6.3571   -0.6215   -1.4507 C   0  0  0  0  0  0  0  0  0  0  0  0
   -6.9336    0.1790   -0.4899 C   0  0  0  0  0  0  0  0  0  0  0  0
   -6.1208    0.5925    0.5435 C   0  0  0  0  0  0  0  0  0  0  0  0
   -4.7917    0.2402    0.6402 C   0  0  0  0  0  0  0  0  0  0  0  0
   -8.2278    0.5702   -0.5111 F   0  0  0  0  0  0  0  0  0  0  0  0
   -2.0394    1.3084    0.0526 C   0  0  0  0  0  0  0  0  0  0  0  0
   -1.0936    1.9620   -0.8737 N   0  0  0  0  0  0  0  0  0  0  0  0
    0.2963    1.5772   -0.9533 C   0  0  0  0  0  0  0  0  0  0  0  0
   -1.5141    3.0144   -1.7416 C   0  0  0  0  0  0  0  0  0  0  0  0
   -0.6785    3.5783   -2.5333 O   0  0  0  0  0  0  0  0  0  0  0  0
   -2.8975    3.5354   -1.8083 C   0  0  0  0  0  0  0  0  0  0  0  0
   -3.1527    4.5454   -0.7756 N   0  0  0  0  0  0  0  0  0  0  0  0
   -2.9606    5.8843   -0.9056 C   0  0  0  0  0  0  0  0  0  0  0  0
   -3.3134    6.4419    0.2588 N   0  0  0  0  0  0  0  0  0  0  0  0
   -3.7117    5.5078    1.0938 N   0  0  0  0  0  0  0  0  0  0  0  0
   -3.6092    4.3548    0.4515 N   0  0  0  0  0  0  0  0  0  0  0  0
    3.0147   -0.0014   -0.5983 C   0  0  0  0  0  0  0  0  0  0  0  0
    3.1507    1.1436   -1.1147 O   0  0  0  0  0  0  0  0  0  0  0  0
    4.1459   -0.8247   -0.3022 N   0  0  0  0  0  0  0  0  0  0  0  0
    5.4467   -0.3179   -0.6137 C   0  0  1  0  0  0  0  0  0  0  0  0
    6.2916   -0.1073    0.5958 C   0  0  0  0  0  0  0  0  0  0  0  0
    6.3696   -1.0376    1.6134 C   0  0  0  0  0  0  0  0  0  0  0  0
    7.1926   -0.7179    2.6767 C   0  0  0  0  0  0  0  0  0  0  0  0
    7.9121    0.4527    2.7552 C   0  0  0  0  0  0  0  0  0  0  0  0
    7.7925    1.3395    1.7090 C   0  0  0  0  0  0  0  0  0  0  0  0
    7.0012    1.0479    0.6723 N   0  0  0  0  0  0  0  0  0  0  0  0
    6.1069   -1.2576   -1.5982 C   0  0  0  0  0  0  0  0  0  0  0  0
   -1.2954   -6.1509   -0.1374 H   0  0  0  0  0  0  0  0  0  0  0  0
   -0.0654   -4.1121   -0.8638 H   0  0  0  0  0  0  0  0  0  0  0  0
   -2.6612   -4.0081    3.3221 H   0  0  0  0  0  0  0  0  0  0  0  0
   -2.6550   -2.0665   -0.4403 H   0  0  0  0  0  0  0  0  0  0  0  0
   -4.6380   -1.6446   -2.2061 H   0  0  0  0  0  0  0  0  0  0  0  0
   -7.0271   -0.9387   -2.2658 H   0  0  0  0  0  0  0  0  0  0  0  0
   -6.5492    1.2208    1.3103 H   0  0  0  0  0  0  0  0  0  0  0  0
   -4.2220    0.5941    1.4863 H   0  0  0  0  0  0  0  0  0  0  0  0
   -1.7391    1.5835    1.0784 H   0  0  0  0  0  0  0  0  0  0  0  0
   -3.0171    1.7015   -0.1814 H   0  0  0  0  0  0  0  0  0  0  0  0
    0.8469    2.3018   -0.2861 H   0  0  0  0  0  0  0  0  0  0  0  0
    0.6833    1.7226   -1.9873 H   0  0  0  0  0  0  0  0  0  0  0  0
   -3.0818    4.0686   -2.7766 H   0  0  0  0  0  0  0  0  0  0  0  0
   -3.6225    2.7047   -1.7462 H   0  0  0  0  0  0  0  0  0  0  0  0
   -2.5897    6.3135   -1.8181 H   0  0  0  0  0  0  0  0  0  0  0  0
    3.9494   -1.7529    0.1273 H   0  0  0  0  0  0  0  0  0  0  0  0
    5.3026    0.6618   -1.1582 H   0  0  0  0  0  0  0  0  0  0  0  0
    5.8017   -1.9533    1.5448 H   0  0  0  0  0  0  0  0  0  0  0  0
    7.2619   -1.4297    3.4705 H   0  0  0  0  0  0  0  0  0  0  0  0
    8.5372    0.6511    3.6046 H   0  0  0  0  0  0  0  0  0  0  0  0
    8.3305    2.2831    1.7001 H   0  0  0  0  0  0  0  0  0  0  0  0
    6.1163   -2.3066   -1.2072 H   0  0  0  0  0  0  0  0  0  0  0  0
    5.4525   -1.2839   -2.5046 H   0  0  0  0  0  0  0  0  0  0  0  0
    7.1335   -0.9524   -1.8109 H   0  0  0  0  0  0  0  0  0  0  0  0
  1  2  1  0
  2  3  2  0
  3  4  1  0
  4  5  2  0
  5  6  1  0
  6  7  2  0
  6  8  1  0
  5  9  1  0
  9 10  1  0
 10 11  2  0
 11 12  1  0
 12 13  2  0
 13 14  1  0
 14 15  2  0
 15 16  1  0
 16 17  2  0
 17 18  1  0
 18 19  2  0
 19 20  1  0
 20 21  2  0
 19 22  1  0
 14 23  1  0
 23 24  1  0
 24 25  1  0
 24 26  1  0
 26 27  2  0
 26 28  1  0
 28 29  1  0
 29 30  1  0
 30 31  2  0
 31 32  1  0
 32 33  2  0
 11 34  1  0
 34 35  2  0
 34 36  1  0
 36 37  1  0
 37 38  1  0
 38 39  2  0
 39 40  1  0
 40 41  2  0
 41 42  1  0
 42 43  2  0
 37 44  1  0
  7  2  1  0
 13  9  1  0
 21 16  1  0
 33 29  1  0
 43 38  1  0
 25 12  1  0
  3 45  1  0
  4 46  1  0
  7 47  1  0
 15 48  1  0
 17 49  1  0
 18 50  1  0
 20 51  1  0
 21 52  1  0
 23 53  1  0
 23 54  1  0
 25 55  1  0
 25 56  1  0
 28 57  1  0
 28 58  1  0
 30 59  1  0
 36 60  1  0
 37 61  1  6
 39 62  1  0
 40 63  1  0
 41 64  1  0
 42 65  1  0
 44 66  1  0
 44 67  1  0
 44 68  1  0
M  END
>  <Ligand ID>  (1) 
LIG0005437

>  <Ligand>  (1) 
CHEMBL3947225

>  <SMILES>  (1) 
Clc1ccc(c(c1)Cl)n1nc(c2c1/C(=C/c1ccc(cc1)F)/CN(C2)C(=O)Cn1cnnn1)C(=O)N[C@@H](c1ccccn1)C

>  <CID>  (1) 
134146777.0

>  <ChEMBL ID>  (1) 
nan

>  <InChiKey>  (1) 
LIYWWXNOXASEBR-BAOGCXAUSA-N

>  <InChi>  (1) 
InChI=1S/C30H24Cl2FN9O2/c1-18(25-4-2-3-11-34-25)36-30(44)28-23-15-40(27(43)16-41-17-35-38-39-41)14-20(12-19-5-8-22(33)9-6-19)29(23)42(37-28)26-10-7-21(31)13-24(26)32/h2-13,17-18H,14-16H2,1H3,(H,36,44)/b20-12+/t18-/m1/s1

>  <IUPAC Name>  (1) 
(7E)-1-(2,4-dichlorophenyl)-7-[(4-fluorophenyl)methylidene]-N-[(1R)-1-pyridin-2-ylethyl]-5-[2-(tetrazol-1-yl)acetyl]-4,6-dihydropyrazolo[4,3-c]pyridine-3-carboxamide

$$$$
