
     RDKit          3D

 42 43  0  0  0  0  0  0  0  0999 V2000
    6.5844   -0.5546    0.1496 C   0  0  0  0  0  0  0  0  0  0  0  0
    5.2184    0.1327    0.1015 C   0  0  0  0  0  0  0  0  0  0  0  0
    4.6640   -0.1338   -1.2778 C   0  0  0  0  0  0  0  0  0  0  0  0
    3.3120    0.5206   -1.3985 C   0  0  0  0  0  0  0  0  0  0  0  0
    2.4337   -0.0563   -0.3924 N   0  0  0  0  0  0  0  0  0  0  0  0
    1.0960    0.4684   -0.3720 C   0  0  0  0  0  0  0  0  0  0  0  0
    0.8786    1.3514   -1.2283 O   0  0  0  0  0  0  0  0  0  0  0  0
    0.1358   -0.0362    0.5921 C   0  0  0  0  0  0  0  0  0  0  0  0
    0.5032   -1.0264    1.4775 C   0  0  0  0  0  0  0  0  0  0  0  0
   -0.3858   -1.5506    2.4243 C   0  0  0  0  0  0  0  0  0  0  0  0
   -1.6761   -1.0895    2.5063 C   0  0  0  0  0  0  0  0  0  0  0  0
   -2.0479   -0.1003    1.6245 C   0  0  0  0  0  0  0  0  0  0  0  0
   -1.1674    0.4299    0.6745 C   0  0  0  0  0  0  0  0  0  0  0  0
   -1.6650    1.4659   -0.1745 N   0  0  0  0  0  0  0  0  0  0  0  0
   -3.0530    1.8963   -0.0451 C   0  0  0  0  0  0  0  0  0  0  0  0
   -3.9959    0.8115   -0.4467 C   0  0  0  0  0  0  0  0  0  0  0  0
   -3.7085   -0.3741   -0.9099 N   0  0  0  0  0  0  0  0  0  0  0  0
   -4.8924   -1.1367   -1.1826 C   0  0  0  0  0  0  0  0  0  0  0  0
   -6.0241   -0.3280   -0.6124 C   0  0  0  0  0  0  0  0  0  0  0  0
   -5.4056    0.9651   -0.3686 N   0  0  0  0  0  0  0  0  0  0  0  0
    6.9088   -0.7213    1.1998 H   0  0  0  0  0  0  0  0  0  0  0  0
    6.5870   -1.4890   -0.4439 H   0  0  0  0  0  0  0  0  0  0  0  0
    7.2900    0.1498   -0.3459 H   0  0  0  0  0  0  0  0  0  0  0  0
    5.3398    1.2131    0.2924 H   0  0  0  0  0  0  0  0  0  0  0  0
    4.6248   -0.3181    0.9123 H   0  0  0  0  0  0  0  0  0  0  0  0
    5.3257    0.2408   -2.0670 H   0  0  0  0  0  0  0  0  0  0  0  0
    4.5960   -1.2307   -1.4312 H   0  0  0  0  0  0  0  0  0  0  0  0
    2.9690    0.3343   -2.4325 H   0  0  0  0  0  0  0  0  0  0  0  0
    3.4918    1.6127   -1.2304 H   0  0  0  0  0  0  0  0  0  0  0  0
    2.7795   -0.7908    0.2446 H   0  0  0  0  0  0  0  0  0  0  0  0
    1.4897   -1.4742    1.5154 H   0  0  0  0  0  0  0  0  0  0  0  0
   -0.0854   -2.3275    3.1134 H   0  0  0  0  0  0  0  0  0  0  0  0
   -2.3374   -1.5055    3.2382 H   0  0  0  0  0  0  0  0  0  0  0  0
   -3.0724    0.2509    1.7185 H   0  0  0  0  0  0  0  0  0  0  0  0
   -1.1207    1.9566   -0.8932 H   0  0  0  0  0  0  0  0  0  0  0  0
   -3.2931    2.1440    1.0262 H   0  0  0  0  0  0  0  0  0  0  0  0
   -3.2611    2.7484   -0.6955 H   0  0  0  0  0  0  0  0  0  0  0  0
   -5.0413   -1.2594   -2.2827 H   0  0  0  0  0  0  0  0  0  0  0  0
   -4.7875   -2.1453   -0.7214 H   0  0  0  0  0  0  0  0  0  0  0  0
   -6.8298   -0.1404   -1.3662 H   0  0  0  0  0  0  0  0  0  0  0  0
   -6.4243   -0.7378    0.3290 H   0  0  0  0  0  0  0  0  0  0  0  0
   -5.9536    1.8341   -0.1728 H   0  0  0  0  0  0  0  0  0  0  0  0
  1  2  1  0
  2  3  1  0
  3  4  1  0
  4  5  1  0
  5  6  1  0
  6  7  2  0
  6  8  1  0
  8  9  2  0
  9 10  1  0
 10 11  2  0
 11 12  1  0
 12 13  2  0
 13 14  1  0
 14 15  1  0
 15 16  1  0
 16 17  2  0
 17 18  1  0
 18 19  1  0
 19 20  1  0
 13  8  1  0
 20 16  1  0
  1 21  1  0
  1 22  1  0
  1 23  1  0
  2 24  1  0
  2 25  1  0
  3 26  1  0
  3 27  1  0
  4 28  1  0
  4 29  1  0
  5 30  1  0
  9 31  1  0
 10 32  1  0
 11 33  1  0
 12 34  1  0
 14 35  1  0
 15 36  1  0
 15 37  1  0
 18 38  1  0
 18 39  1  0
 19 40  1  0
 19 41  1  0
 20 42  1  0
M  END
>  <Ligand ID>  (1) 
LIG0004330

>  <Ligand>  (1) 
CHEMBL320419

>  <SMILES>  (1) 
CCCCNC(=O)c1ccccc1NCC1=NCCN1

>  <CID>  (1) 
10378649.0

>  <ChEMBL ID>  (1) 
nan

>  <InChiKey>  (1) 
PIZWZQQKQFIBPD-UHFFFAOYSA-N

>  <InChi>  (1) 
InChI=1S/C15H22N4O/c1-2-3-8-18-15(20)12-6-4-5-7-13(12)19-11-14-16-9-10-17-14/h4-7,19H,2-3,8-11H2,1H3,(H,16,17)(H,18,20)

>  <IUPAC Name>  (1) 
N-butyl-2-(4,5-dihydro-1H-imidazol-2-ylmethylamino)benzamide

$$$$
