
     RDKit          3D

 27 28  0  0  0  0  0  0  0  0999 V2000
   -0.5847    2.8013   -0.1651 C   0  0  0  0  0  0  0  0  0  0  0  0
   -0.1522    1.4580    0.3302 C   0  0  1  0  0  0  0  0  0  0  0  0
   -1.2867    0.5313    0.6379 C   0  0  0  0  0  0  0  0  0  0  0  0
   -0.9059   -0.8399    0.1305 C   0  0  1  0  0  0  0  0  0  0  0  0
    0.3857   -0.7143   -0.6100 C   0  0  1  0  0  0  0  0  0  0  0  0
    0.7755    0.7168   -0.5662 C   0  0  2  0  0  0  0  0  0  0  0  0
    1.5992   -0.3499    0.1197 C   0  0  2  0  0  0  0  0  0  0  0  0
    2.9616   -0.6359   -0.3939 C   0  0  0  0  0  0  0  0  0  0  0  0
    3.2243   -0.5845   -1.6422 O   0  0  0  0  0  0  0  0  0  0  0  0
    4.0307   -0.9738    0.4251 O   0  0  0  0  0  0  0  0  0  0  0  0
   -0.8008   -1.7542    1.2283 N   0  0  0  0  0  0  0  0  0  0  0  0
   -2.0208   -1.2932   -0.7572 C   0  0  0  0  0  0  0  0  0  0  0  0
   -2.2848   -0.6139   -1.8010 O   0  0  0  0  0  0  0  0  0  0  0  0
   -2.7700   -2.4456   -0.4554 O   0  0  0  0  0  0  0  0  0  0  0  0
   -1.1914    3.2498    0.6747 H   0  0  0  0  0  0  0  0  0  0  0  0
    0.3004    3.4276   -0.2691 H   0  0  0  0  0  0  0  0  0  0  0  0
   -1.1855    2.8030   -1.0728 H   0  0  0  0  0  0  0  0  0  0  0  0
    0.4320    1.6540    1.2769 H   0  0  0  0  0  0  0  0  0  0  0  0
   -1.4673    0.5150    1.7218 H   0  0  0  0  0  0  0  0  0  0  0  0
   -2.1939    0.9279    0.1626 H   0  0  0  0  0  0  0  0  0  0  0  0
    0.4932   -1.3071   -1.5393 H   0  0  0  0  0  0  0  0  0  0  0  0
    1.1088    1.1305   -1.5205 H   0  0  0  0  0  0  0  0  0  0  0  0
    1.5344   -0.4363    1.2226 H   0  0  0  0  0  0  0  0  0  0  0  0
    4.9076   -1.3462    0.1106 H   0  0  0  0  0  0  0  0  0  0  0  0
   -1.3069   -1.4516    2.0772 H   0  0  0  0  0  0  0  0  0  0  0  0
    0.1608   -2.0928    1.3979 H   0  0  0  0  0  0  0  0  0  0  0  0
   -3.7633   -2.3760   -0.7233 H   0  0  0  0  0  0  0  0  0  0  0  0
  1  2  1  0
  2  3  1  0
  3  4  1  0
  4  5  1  0
  5  6  1  0
  6  7  1  0
  7  8  1  0
  8  9  2  0
  8 10  1  0
  4 11  1  1
  4 12  1  0
 12 13  2  0
 12 14  1  0
  6  2  1  0
  7  5  1  0
  1 15  1  0
  1 16  1  0
  1 17  1  0
  2 18  1  1
  3 19  1  0
  3 20  1  0
  5 21  1  6
  6 22  1  6
  7 23  1  1
 10 24  1  0
 11 25  1  0
 11 26  1  0
 14 27  1  0
M  END
>  <Ligand ID>  (1) 
LIG0001171

>  <Ligand>  (1) 
CHEMBL365368

>  <SMILES>  (1) 
C[C@H]1C[C@@]([C@H]2[C@@H]1[C@@H]2C(=O)O)(N)C(=O)O

>  <CID>  (1) 
11344646.0

>  <ChEMBL ID>  (1) 
nan

>  <InChiKey>  (1) 
BQVZICWQBFTOJX-DJBRRKJBSA-N

>  <InChi>  (1) 
InChI=1S/C9H13NO4/c1-3-2-9(10,8(13)14)6-4(3)5(6)7(11)12/h3-6H,2,10H2,1H3,(H,11,12)(H,13,14)/t3-,4-,5-,6-,9-/m0/s1

>  <IUPAC Name>  (1) 
(1S,2S,4S,5R,6S)-2-amino-4-methylbicyclo[3.1.0]hexane-2,6-dicarboxylic acid

$$$$
