
     RDKit          3D

 70 73  0  0  0  0  0  0  0  0999 V2000
    5.3862   -3.1814   -0.9389 O   0  0  0  0  0  0  0  0  0  0  0  0
    5.4128   -2.0190   -0.1645 C   0  0  2  0  0  0  0  0  0  0  0  0
    4.9628   -0.8134   -0.9233 C   0  0  1  0  0  0  0  0  0  0  0  0
    3.6410   -0.2567   -0.3898 C   0  0  0  0  0  0  0  0  0  0  0  0
    3.7338    0.0909    0.9595 O   0  0  0  0  0  0  0  0  0  0  0  0
    2.2505    0.6990    1.4986 P   0  0  0  0  0  0  0  0  0  0  0  0
    2.5702    1.9070    2.3675 O   0  0  0  0  0  0  0  0  0  0  0  0
    1.4020    1.2228    0.1423 O   0  0  0  0  0  0  0  0  0  0  0  0
   -0.1016    0.4782   -0.0045 P   0  0  0  0  0  0  0  0  0  0  0  0
   -1.0543    1.5186   -0.5749 O   0  0  0  0  0  0  0  0  0  0  0  0
   -0.6523   -0.1106    1.4791 O   0  0  0  0  0  0  0  0  0  0  0  0
   -2.1659   -0.8234    1.2309 P   0  0  0  0  0  0  0  0  0  0  0  0
   -1.9719   -1.9174    0.1818 O   0  0  0  0  0  0  0  0  0  0  0  0
   -3.1584    0.3452    0.5308 O   0  0  0  0  0  0  0  0  0  0  0  0
   -4.4172    0.3865    1.1261 C   0  0  0  0  0  0  0  0  0  0  0  0
   -5.1869    1.4845    0.3858 C   0  0  2  0  0  0  0  0  0  0  0  0
   -6.4625    1.6636    0.8478 O   0  0  0  0  0  0  0  0  0  0  0  0
   -7.3463    1.7331   -0.2122 C   0  0  1  0  0  0  0  0  0  0  0  0
   -6.5293    1.7575   -1.4872 C   0  0  2  0  0  0  0  0  0  0  0  0
   -5.3204    0.9457   -1.0448 C   0  0  1  0  0  0  0  0  0  0  0  0
   -4.1945    1.1994   -1.7912 O   0  0  0  0  0  0  0  0  0  0  0  0
   -6.0506    3.0498   -1.7211 O   0  0  0  0  0  0  0  0  0  0  0  0
   -8.1616    0.5336   -0.1825 N   0  0  0  0  0  0  0  0  0  0  0  0
   -8.0066   -0.4176    0.7819 C   0  0  0  0  0  0  0  0  0  0  0  0
   -8.7721   -1.5573    0.8210 C   0  0  0  0  0  0  0  0  0  0  0  0
   -9.7350   -1.7790   -0.1270 C   0  0  0  0  0  0  0  0  0  0  0  0
  -10.4371   -2.8167   -0.0975 O   0  0  0  0  0  0  0  0  0  0  0  0
   -9.8798   -0.8257   -1.0814 N   0  0  0  0  0  0  0  0  0  0  0  0
   -9.1209    0.2744   -1.0954 C   0  0  0  0  0  0  0  0  0  0  0  0
   -9.3337    1.1020   -2.0261 O   0  0  0  0  0  0  0  0  0  0  0  0
   -2.7873   -1.4914    2.6291 O   0  0  0  0  0  0  0  0  0  0  0  0
   -0.0834   -0.8010   -1.1126 O   0  0  0  0  0  0  0  0  0  0  0  0
    1.4270   -0.4713    2.3822 O   0  0  0  0  0  0  0  0  0  0  0  0
    5.9446    0.1642   -0.7762 O   0  0  0  0  0  0  0  0  0  0  0  0
    7.1573   -0.5319   -0.6708 C   0  0  2  0  0  0  0  0  0  0  0  0
    6.8381   -1.6834    0.2556 C   0  0  2  0  0  0  0  0  0  0  0  0
    7.6350   -2.7905   -0.0194 O   0  0  0  0  0  0  0  0  0  0  0  0
    8.1617    0.3501   -0.1061 N   0  0  0  0  0  0  0  0  0  0  0  0
    7.9058    1.2160    0.8785 C   0  0  0  0  0  0  0  0  0  0  0  0
    8.8862    2.0463    1.3979 C   0  0  0  0  0  0  0  0  0  0  0  0
   10.1548    1.9303    0.8384 C   0  0  0  0  0  0  0  0  0  0  0  0
   11.0747    2.6712    1.2863 O   0  0  0  0  0  0  0  0  0  0  0  0
   10.4176    1.0629   -0.1502 N   0  0  0  0  0  0  0  0  0  0  0  0
    9.4151    0.2817   -0.6111 C   0  0  0  0  0  0  0  0  0  0  0  0
    9.6772   -0.5241   -1.5358 O   0  0  0  0  0  0  0  0  0  0  0  0
    4.9383   -3.0229   -1.8019 H   0  0  0  0  0  0  0  0  0  0  0  0
    4.7658   -2.2137    0.7193 H   0  0  0  0  0  0  0  0  0  0  0  0
    4.8034   -0.9803   -2.0042 H   0  0  0  0  0  0  0  0  0  0  0  0
    2.8400   -0.9974   -0.4584 H   0  0  0  0  0  0  0  0  0  0  0  0
    3.3765    0.6261   -0.9889 H   0  0  0  0  0  0  0  0  0  0  0  0
   -4.2376    0.7194    2.1741 H   0  0  0  0  0  0  0  0  0  0  0  0
   -4.9298   -0.5764    1.0883 H   0  0  0  0  0  0  0  0  0  0  0  0
   -4.5765    2.4056    0.4259 H   0  0  0  0  0  0  0  0  0  0  0  0
   -7.9724    2.6564   -0.1272 H   0  0  0  0  0  0  0  0  0  0  0  0
   -7.0301    1.3254   -2.3538 H   0  0  0  0  0  0  0  0  0  0  0  0
   -5.5638   -0.1262   -0.9460 H   0  0  0  0  0  0  0  0  0  0  0  0
   -3.9141    0.3136   -2.1757 H   0  0  0  0  0  0  0  0  0  0  0  0
   -6.1905    3.6659   -0.9691 H   0  0  0  0  0  0  0  0  0  0  0  0
   -7.2693   -0.2830    1.5368 H   0  0  0  0  0  0  0  0  0  0  0  0
   -8.6015   -2.2792    1.6151 H   0  0  0  0  0  0  0  0  0  0  0  0
  -10.6144   -0.9816   -1.8155 H   0  0  0  0  0  0  0  0  0  0  0  0
   -3.4687   -2.1749    2.4149 H   0  0  0  0  0  0  0  0  0  0  0  0
    0.3672   -1.6041   -0.7641 H   0  0  0  0  0  0  0  0  0  0  0  0
    1.5071   -1.3331    1.9129 H   0  0  0  0  0  0  0  0  0  0  0  0
    7.4735   -0.9147   -1.6463 H   0  0  0  0  0  0  0  0  0  0  0  0
    6.8873   -1.3718    1.3085 H   0  0  0  0  0  0  0  0  0  0  0  0
    7.3158   -3.1708   -0.8867 H   0  0  0  0  0  0  0  0  0  0  0  0
    6.8946    1.2801    1.2952 H   0  0  0  0  0  0  0  0  0  0  0  0
    8.6905    2.7557    2.1999 H   0  0  0  0  0  0  0  0  0  0  0  0
   11.3839    0.9788   -0.5720 H   0  0  0  0  0  0  0  0  0  0  0  0
  1  2  1  0
  2  3  1  0
  3  4  1  0
  4  5  1  0
  5  6  1  0
  6  7  2  0
  6  8  1  0
  8  9  1  0
  9 10  2  0
  9 11  1  0
 11 12  1  0
 12 13  2  0
 12 14  1  0
 14 15  1  0
 15 16  1  0
 16 17  1  0
 17 18  1  0
 18 19  1  0
 19 20  1  0
 20 21  1  0
 19 22  1  0
 18 23  1  0
 23 24  1  0
 24 25  2  0
 25 26  1  0
 26 27  2  0
 26 28  1  0
 28 29  1  0
 29 30  2  0
 12 31  1  0
  9 32  1  0
  6 33  1  0
  3 34  1  0
 34 35  1  0
 35 36  1  0
 36 37  1  0
 35 38  1  0
 38 39  1  0
 39 40  2  0
 40 41  1  0
 41 42  2  0
 41 43  1  0
 43 44  1  0
 44 45  2  0
 36  2  1  0
 44 38  1  0
 20 16  1  0
 29 23  1  0
  1 46  1  0
  2 47  1  1
  3 48  1  6
  4 49  1  0
  4 50  1  0
 15 51  1  0
 15 52  1  0
 16 53  1  6
 18 54  1  1
 19 55  1  6
 20 56  1  1
 21 57  1  0
 22 58  1  0
 24 59  1  0
 25 60  1  0
 28 61  1  0
 31 62  1  0
 32 63  1  0
 33 64  1  0
 35 65  1  6
 36 66  1  1
 37 67  1  0
 39 68  1  0
 40 69  1  0
 43 70  1  0
M  END
>  <Ligand ID>  (1) 
LIG0002818

>  <Ligand>  (1) 
CHEMBL1162193

>  <SMILES>  (1) 
O[C@@H]1[C@@H](COP(=O)(OP(=O)(OP(=O)(OC[C@@H]2O[C@@H]([C@H]([C@H]2O)O)n2ccc(=O)[nH]c2=O)O)O)O)O[C@H]([C@@H]1O)n1ccc(=O)[nH]c1=O

>  <CID>  (1) 
44457390.0

>  <ChEMBL ID>  (1) 
nan

>  <InChiKey>  (1) 
JPNWHMPVXHYIKN-WWMDGMSNSA-N

>  <InChi>  (1) 
InChI=1S/C18H25N4O20P3/c23-9-1-3-21(17(29)19-9)15-13(27)11(25)7(39-15)5-37-43(31,32)41-45(35,36)42-44(33,34)38-6-8-12(26)14(28)16(40-8)22-4-2-10(24)20-18(22)30/h1-4,7-8,11-16,25-28H,5-6H2,(H,31,32)(H,33,34)(H,35,36)(H,19,23,29)(H,20,24,30)/t7-,8+,11-,12+,13-,14+,15-,16+

>  <IUPAC Name>  (1) 
[[(2R,3S,4R,5R)-5-(2,4-dioxopyrimidin-1-yl)-3,4-dihydroxyoxolan-2-yl]methoxy-hydroxyphosphoryl] [[(2S,3R,4S,5S)-5-(2,4-dioxopyrimidin-1-yl)-3,4-dihydroxyoxolan-2-yl]methoxy-hydroxyphosphoryl] hydrogen phosphate

$$$$
