
     RDKit          3D

 32 32  0  0  0  0  0  0  0  0999 V2000
   -4.3394    1.9249    0.3234 C   0  0  0  0  0  0  0  0  0  0  0  0
   -3.5797    1.3893    1.0971 C   0  0  0  0  0  0  0  0  0  0  0  0
   -2.6535    0.7664    2.0333 C   0  0  0  0  0  0  0  0  0  0  0  0
   -1.4343    0.4739    1.4248 O   0  0  0  0  0  0  0  0  0  0  0  0
   -1.3843   -0.3873    0.3495 C   0  0  0  0  0  0  0  0  0  0  0  0
   -2.4573   -1.0208   -0.2109 C   0  0  0  0  0  0  0  0  0  0  0  0
   -2.3636   -1.8817   -1.2944 C   0  0  0  0  0  0  0  0  0  0  0  0
   -1.1432   -2.1325   -1.8574 C   0  0  0  0  0  0  0  0  0  0  0  0
   -0.0245   -1.5047   -1.3133 C   0  0  0  0  0  0  0  0  0  0  0  0
   -0.1379   -0.6500   -0.2335 C   0  0  0  0  0  0  0  0  0  0  0  0
    1.0548    0.0087    0.3335 C   0  0  2  0  0  0  0  0  0  0  0  0
    1.4034    1.3574   -0.2718 C   0  0  0  0  0  0  0  0  0  0  0  0
    2.3328    0.1411   -0.3565 C   0  0  1  0  0  0  0  0  0  0  0  0
    3.5865    0.2025    0.4907 C   0  0  0  0  0  0  0  0  0  0  0  0
    4.7815    0.3333   -0.3133 N   0  0  0  0  0  0  0  0  0  0  0  0
   -1.0452   -3.2153   -3.2161 Cl  0  0  0  0  0  0  0  0  0  0  0  0
    0.6833    0.0000    0.0000 Cl  0  0  0  0  0  0  0  0  0  0  0  0
   -5.0101    2.4131   -0.3497 H   0  0  0  0  0  0  0  0  0  0  0  0
   -2.4736    1.4082    2.9286 H   0  0  0  0  0  0  0  0  0  0  0  0
   -3.1140   -0.1872    2.4237 H   0  0  0  0  0  0  0  0  0  0  0  0
   -3.4446   -0.8667    0.1892 H   0  0  0  0  0  0  0  0  0  0  0  0
   -3.2473   -2.3516   -1.6920 H   0  0  0  0  0  0  0  0  0  0  0  0
    0.9438   -1.7048   -1.7613 H   0  0  0  0  0  0  0  0  0  0  0  0
    1.0736    0.0129    1.4437 H   0  0  0  0  0  0  0  0  0  0  0  0
    0.8687    1.6797   -1.1704 H   0  0  0  0  0  0  0  0  0  0  0  0
    1.7415    2.1808    0.4118 H   0  0  0  0  0  0  0  0  0  0  0  0
    2.4996   -0.1902   -1.4000 H   0  0  0  0  0  0  0  0  0  0  0  0
    3.5192    1.0296    1.2264 H   0  0  0  0  0  0  0  0  0  0  0  0
    3.6330   -0.7428    1.1038 H   0  0  0  0  0  0  0  0  0  0  0  0
    5.6014    0.1779    0.3150 H   0  0  0  0  0  0  0  0  0  0  0  0
    4.8129    1.3360   -0.6540 H   0  0  0  0  0  0  0  0  0  0  0  0
   -0.6833    0.0000    0.0000 H   0  0  0  0  0  0  0  0  0  0  0  0
  1  2  3  0
  2  3  1  0
  3  4  1  0
  4  5  1  0
  5  6  2  0
  6  7  1  0
  7  8  2  0
  8  9  1  0
  9 10  2  0
 10 11  1  0
 11 12  1  0
 12 13  1  0
 13 14  1  0
 14 15  1  0
  8 16  1  0
 10  5  1  0
 13 11  1  0
  1 18  1  0
  3 19  1  0
  3 20  1  0
  6 21  1  0
  7 22  1  0
  9 23  1  0
 11 24  1  1
 12 25  1  0
 12 26  1  0
 13 27  1  6
 14 28  1  0
 14 29  1  0
 15 30  1  0
 15 31  1  0
 17 32  1  0
M  END
>  <Ligand ID>  (1) 
LIG0005608

>  <Ligand>  (1) 
CHEMBL3416048

>  <SMILES>  (1) 
C#CCOc1ccc(cc1[C@@H]1C[C@H]1CN)Cl.Cl

>  <CID>  (1) 
118733791.0

>  <ChEMBL ID>  (1) 
nan

>  <InChiKey>  (1) 
QCEINVVRTQMVPV-QLSWKGBWSA-N

>  <InChi>  (1) 
InChI=1S/C13H14ClNO.ClH/c1-2-5-16-13-4-3-10(14)7-12(13)11-6-9(11)8-15;/h1,3-4,7,9,11H,5-6,8,15H2;1H/t9-,11+;/m0./s1

>  <IUPAC Name>  (1) 
[(1R,2R)-2-(5-chloro-2-prop-2-ynoxyphenyl)cyclopropyl]methanamine;hydrochloride

$$$$
