
     RDKit          3D

 34 36  0  0  0  0  0  0  0  0999 V2000
    3.8676    3.1207   -0.4247 C   0  0  0  0  0  0  0  0  0  0  0  0
    3.7303    1.6462   -0.0555 C   0  0  0  0  0  0  0  0  0  0  0  0
    4.8241    1.0487    0.5123 N   0  0  0  0  0  0  0  0  0  0  0  0
    4.1742   -0.6508    0.7562 S   0  0  0  0  0  0  0  0  0  0  0  0
    2.6374   -0.3895    0.1220 C   0  0  0  0  0  0  0  0  0  0  0  0
    2.6373    0.9409   -0.2544 C   0  0  0  0  0  0  0  0  0  0  0  0
    1.5583   -1.4100    0.0176 C   0  0  0  0  0  0  0  0  0  0  0  0
    1.8921   -2.6585    0.4938 C   0  0  0  0  0  0  0  0  0  0  0  0
    1.0146   -3.7335    0.4785 C   0  0  0  0  0  0  0  0  0  0  0  0
   -0.2333   -3.5011   -0.0436 C   0  0  0  0  0  0  0  0  0  0  0  0
   -0.5605   -2.2563   -0.5167 C   0  0  0  0  0  0  0  0  0  0  0  0
    0.3233   -1.1730   -0.5006 C   0  0  0  0  0  0  0  0  0  0  0  0
   -0.0078    0.0353   -0.9714 O   0  0  0  0  0  0  0  0  0  0  0  0
   -1.1303    0.6042   -1.5132 C   0  0  0  0  0  0  0  0  0  0  0  0
   -2.2949    0.7774   -0.6188 C   0  0  0  0  0  0  0  0  0  0  0  0
   -2.9084    1.9476   -0.5495 N   0  0  0  0  0  0  0  0  0  0  0  0
   -4.0083    1.9193    0.3644 C   0  0  0  0  0  0  0  0  0  0  0  0
   -4.3365    0.4158    0.3591 C   0  0  0  0  0  0  0  0  0  0  0  0
   -2.9663   -0.0971    0.2546 N   0  0  0  0  0  0  0  0  0  0  0  0
    4.3969    3.6291    0.4055 H   0  0  0  0  0  0  0  0  0  0  0  0
    2.8619    3.5535   -0.5801 H   0  0  0  0  0  0  0  0  0  0  0  0
    4.4173    3.2303   -1.3813 H   0  0  0  0  0  0  0  0  0  0  0  0
    1.7151    1.3663   -0.7116 H   0  0  0  0  0  0  0  0  0  0  0  0
    2.8779   -2.8908    0.9197 H   0  0  0  0  0  0  0  0  0  0  0  0
    1.2734   -4.7141    0.8516 H   0  0  0  0  0  0  0  0  0  0  0  0
   -0.9603   -4.3196   -0.0768 H   0  0  0  0  0  0  0  0  0  0  0  0
   -1.5681   -2.1587   -0.9329 H   0  0  0  0  0  0  0  0  0  0  0  0
   -1.4616    0.0142   -2.4427 H   0  0  0  0  0  0  0  0  0  0  0  0
   -0.9040    1.6071   -1.9877 H   0  0  0  0  0  0  0  0  0  0  0  0
   -3.6300    2.1887    1.3710 H   0  0  0  0  0  0  0  0  0  0  0  0
   -4.8658    2.5091    0.0255 H   0  0  0  0  0  0  0  0  0  0  0  0
   -4.9277    0.1689   -0.5220 H   0  0  0  0  0  0  0  0  0  0  0  0
   -4.8088    0.1525    1.3082 H   0  0  0  0  0  0  0  0  0  0  0  0
   -2.6293   -0.9225    0.7526 H   0  0  0  0  0  0  0  0  0  0  0  0
  1  2  1  0
  2  3  2  0
  3  4  1  0
  4  5  1  0
  5  6  2  0
  5  7  1  0
  7  8  2  0
  8  9  1  0
  9 10  2  0
 10 11  1  0
 11 12  2  0
 12 13  1  0
 13 14  1  0
 14 15  1  0
 15 16  2  0
 16 17  1  0
 17 18  1  0
 18 19  1  0
  6  2  1  0
 12  7  1  0
 19 15  1  0
  1 20  1  0
  1 21  1  0
  1 22  1  0
  6 23  1  0
  8 24  1  0
  9 25  1  0
 10 26  1  0
 11 27  1  0
 14 28  1  0
 14 29  1  0
 17 30  1  0
 17 31  1  0
 18 32  1  0
 18 33  1  0
 19 34  1  0
M  END
>  <Ligand ID>  (1) 
LIG0003990

>  <Ligand>  (1) 
CHEMBL143766

>  <SMILES>  (1) 
Cc1nsc(c1)c1ccccc1OCC1=NCCN1

>  <CID>  (1) 
44362013.0

>  <ChEMBL ID>  (1) 
nan

>  <InChiKey>  (1) 
MAIIYZVIEWXUSC-UHFFFAOYSA-N

>  <InChi>  (1) 
InChI=1S/C14H15N3OS/c1-10-8-13(19-17-10)11-4-2-3-5-12(11)18-9-14-15-6-7-16-14/h2-5,8H,6-7,9H2,1H3,(H,15,16)

>  <IUPAC Name>  (1) 
5-[2-(4,5-dihydro-1H-imidazol-2-ylmethoxy)phenyl]-3-methyl-1,2-thiazole

$$$$
