
     RDKit          3D

 57 59  0  0  0  0  0  0  0  0999 V2000
    2.9225   -1.3071   -0.3251 O   0  0  0  0  0  0  0  0  0  0  0  0
    1.8512   -0.6590   -0.3761 C   0  0  0  0  0  0  0  0  0  0  0  0
    0.6507   -1.3670   -0.8828 C   0  0  0  0  0  0  0  0  0  0  0  0
    0.4442   -2.6584   -0.1785 C   0  0  0  0  0  0  0  0  0  0  0  0
   -0.0205   -2.7635    1.1094 C   0  0  0  0  0  0  0  0  0  0  0  0
   -0.2178   -3.9621    1.7536 C   0  0  0  0  0  0  0  0  0  0  0  0
    0.0653   -5.1312    1.0741 C   0  0  0  0  0  0  0  0  0  0  0  0
    0.5310   -5.0839   -0.2105 C   0  0  0  0  0  0  0  0  0  0  0  0
    0.7164   -3.8722   -0.8239 C   0  0  0  0  0  0  0  0  0  0  0  0
   -0.4598   -0.4713   -0.8324 N   0  0  0  0  0  0  0  0  0  0  0  0
   -1.6694   -1.0310   -1.3844 C   0  0  0  0  0  0  0  0  0  0  0  0
   -2.8493   -0.1032   -1.4013 C   0  0  0  0  0  0  0  0  0  0  0  0
   -3.3136    0.3919   -0.1108 C   0  0  0  0  0  0  0  0  0  0  0  0
   -3.0012   -0.1138    1.1214 C   0  0  0  0  0  0  0  0  0  0  0  0
   -3.4705    0.4149    2.3092 C   0  0  0  0  0  0  0  0  0  0  0  0
   -4.3016    1.5112    2.2973 C   0  0  0  0  0  0  0  0  0  0  0  0
   -4.6305    2.0379    1.0637 C   0  0  0  0  0  0  0  0  0  0  0  0
   -4.1605    1.5081   -0.1197 C   0  0  0  0  0  0  0  0  0  0  0  0
   -2.6160    1.0554   -2.2234 N   0  0  0  0  0  0  0  0  0  0  0  0
   -2.3451    0.7596   -3.5899 C   0  0  0  0  0  0  0  0  0  0  0  0
   -1.8688    2.1092   -1.6542 C   0  0  0  0  0  0  0  0  0  0  0  0
    1.8625    0.6918    0.0494 N   0  0  0  0  0  0  0  0  0  0  0  0
    3.0666    1.3127    0.5304 C   0  0  0  0  0  0  0  0  0  0  0  0
    3.8777    1.9482   -0.3921 C   0  0  0  0  0  0  0  0  0  0  0  0
    5.0430    2.5459    0.0895 C   0  0  0  0  0  0  0  0  0  0  0  0
    5.3926    2.5195    1.4158 C   0  0  0  0  0  0  0  0  0  0  0  0
    4.5546    1.8725    2.3147 C   0  0  0  0  0  0  0  0  0  0  0  0
    3.3935    1.2711    1.8666 C   0  0  0  0  0  0  0  0  0  0  0  0
    2.2170    0.3728    3.0618 Br  0  0  0  0  0  0  0  0  0  0  0  0
    6.6043    3.1525    1.8531 N   0  0  0  0  0  0  0  0  0  0  0  0
    6.8938    3.1088    3.0735 O   0  0  0  0  0  0  0  0  0  0  0  0
    7.4177    3.7886    0.9325 O   0  0  0  0  0  0  0  0  0  0  0  0
    0.7999   -1.6131   -1.9762 H   0  0  0  0  0  0  0  0  0  0  0  0
   -0.2441   -1.8677    1.6691 H   0  0  0  0  0  0  0  0  0  0  0  0
   -0.5894   -4.0014    2.7822 H   0  0  0  0  0  0  0  0  0  0  0  0
   -0.0692   -6.1058    1.5239 H   0  0  0  0  0  0  0  0  0  0  0  0
    0.7632   -5.9993   -0.7687 H   0  0  0  0  0  0  0  0  0  0  0  0
    1.0884   -3.8741   -1.8457 H   0  0  0  0  0  0  0  0  0  0  0  0
   -0.5848    0.0666    0.0251 H   0  0  0  0  0  0  0  0  0  0  0  0
   -1.9548   -1.9796   -0.9244 H   0  0  0  0  0  0  0  0  0  0  0  0
   -1.4545   -1.2542   -2.4553 H   0  0  0  0  0  0  0  0  0  0  0  0
   -3.6808   -0.6626   -1.8751 H   0  0  0  0  0  0  0  0  0  0  0  0
   -2.3701   -0.9662    1.1796 H   0  0  0  0  0  0  0  0  0  0  0  0
   -3.1913   -0.0227    3.2446 H   0  0  0  0  0  0  0  0  0  0  0  0
   -4.6755    1.9356    3.2182 H   0  0  0  0  0  0  0  0  0  0  0  0
   -5.2827    2.9001    1.0395 H   0  0  0  0  0  0  0  0  0  0  0  0
   -4.4590    1.9717   -1.0549 H   0  0  0  0  0  0  0  0  0  0  0  0
   -2.9408    1.4898   -4.1873 H   0  0  0  0  0  0  0  0  0  0  0  0
   -2.6414   -0.2367   -3.9175 H   0  0  0  0  0  0  0  0  0  0  0  0
   -1.2703    0.9732   -3.7653 H   0  0  0  0  0  0  0  0  0  0  0  0
   -2.3182    3.0794   -1.9547 H   0  0  0  0  0  0  0  0  0  0  0  0
   -1.7535    2.1067   -0.5783 H   0  0  0  0  0  0  0  0  0  0  0  0
   -0.8398    2.1032   -2.1132 H   0  0  0  0  0  0  0  0  0  0  0  0
    1.0155    1.2682    0.0255 H   0  0  0  0  0  0  0  0  0  0  0  0
    3.6132    1.9774   -1.4473 H   0  0  0  0  0  0  0  0  0  0  0  0
    5.6602    3.0307   -0.6280 H   0  0  0  0  0  0  0  0  0  0  0  0
    4.7995    1.8318    3.3731 H   0  0  0  0  0  0  0  0  0  0  0  0
  1  2  2  0
  2  3  1  0
  3  4  1  0
  4  5  2  0
  5  6  1  0
  6  7  2  0
  7  8  1  0
  8  9  2  0
  3 10  1  0
 10 11  1  0
 11 12  1  0
 12 13  1  0
 13 14  2  0
 14 15  1  0
 15 16  2  0
 16 17  1  0
 17 18  2  0
 12 19  1  0
 19 20  1  0
 19 21  1  0
  2 22  1  0
 22 23  1  0
 23 24  2  0
 24 25  1  0
 25 26  2  0
 26 27  1  0
 27 28  2  0
 28 29  1  0
 26 30  1  0
 30 31  2  0
 30 32  1  0
  9  4  1  0
 18 13  1  0
 28 23  1  0
  3 33  1  0
  5 34  1  0
  6 35  1  0
  7 36  1  0
  8 37  1  0
  9 38  1  0
 10 39  1  0
 11 40  1  0
 11 41  1  0
 12 42  1  0
 14 43  1  0
 15 44  1  0
 16 45  1  0
 17 46  1  0
 18 47  1  0
 20 48  1  0
 20 49  1  0
 20 50  1  0
 21 51  1  0
 21 52  1  0
 21 53  1  0
 22 54  1  0
 24 55  1  0
 25 56  1  0
 27 57  1  0
M  CHG  2  30   1  32  -1
M  END
>  <Ligand ID>  (1) 
LIG0004532

>  <Ligand>  (1) 
MLS001033829

>  <SMILES>  (1) 
O=C(C(c1ccccc1)NCC(c1ccccc1)N(C)C)Nc1ccc(cc1Br)[N+](=O)[O-]

>  <CID>  (1) 
5126827.0

>  <ChEMBL ID>  (1) 
nan

>  <InChiKey>  (1) 
PIDSRHNJSNUDBH-UHFFFAOYSA-N

>  <InChi>  (1) 
InChI=1S/C24H25BrN4O3/c1-28(2)22(17-9-5-3-6-10-17)16-26-23(18-11-7-4-8-12-18)24(30)27-21-14-13-19(29(31)32)15-20(21)25/h3-15,22-23,26H,16H2,1-2H3,(H,27,30)

>  <IUPAC Name>  (1) 
N-(2-bromo-4-nitrophenyl)-2-[[2-(dimethylamino)-2-phenylethyl]amino]-2-phenylacetamide

$$$$
