
     RDKit          3D

 27 27  0  0  0  0  0  0  0  0999 V2000
   -2.4227   -1.7865    0.1854 C   0  0  0  0  0  0  0  0  0  0  0  0
   -1.4818   -0.6519    0.5790 C   0  0  0  0  0  0  0  0  0  0  0  0
   -2.2974    0.3215    1.4052 C   0  0  0  0  0  0  0  0  0  0  0  0
   -2.5469    1.3930    0.4046 C   0  0  0  0  0  0  0  0  0  0  0  0
   -3.5816    2.1436    0.3920 O   0  0  0  0  0  0  0  0  0  0  0  0
   -1.4695    1.4049   -0.4712 O   0  0  0  0  0  0  0  0  0  0  0  0
   -1.0304    0.0976   -0.6324 C   0  0  0  0  0  0  0  0  0  0  0  0
    0.4322   -0.0495   -0.9209 C   0  0  0  0  0  0  0  0  0  0  0  0
    1.3354    0.4271    0.1633 C   0  0  0  0  0  0  0  0  0  0  0  0
    2.7650    0.1841   -0.3394 C   0  0  0  0  0  0  0  0  0  0  0  0
    3.8011    0.6133    0.6430 C   0  0  0  0  0  0  0  0  0  0  0  0
   -2.4826   -1.8712   -0.9321 H   0  0  0  0  0  0  0  0  0  0  0  0
   -2.1416   -2.7524    0.6141 H   0  0  0  0  0  0  0  0  0  0  0  0
   -3.4747   -1.5899    0.4991 H   0  0  0  0  0  0  0  0  0  0  0  0
   -0.6576   -1.0304    1.2254 H   0  0  0  0  0  0  0  0  0  0  0  0
   -3.2245   -0.1220    1.8035 H   0  0  0  0  0  0  0  0  0  0  0  0
   -1.6648    0.7723    2.2121 H   0  0  0  0  0  0  0  0  0  0  0  0
   -1.5631   -0.3105   -1.5304 H   0  0  0  0  0  0  0  0  0  0  0  0
    0.6266   -1.0992   -1.1650 H   0  0  0  0  0  0  0  0  0  0  0  0
    0.6737    0.5286   -1.8365 H   0  0  0  0  0  0  0  0  0  0  0  0
    1.1687    1.4955    0.3943 H   0  0  0  0  0  0  0  0  0  0  0  0
    1.2054   -0.2144    1.0674 H   0  0  0  0  0  0  0  0  0  0  0  0
    2.8496    0.7632   -1.2859 H   0  0  0  0  0  0  0  0  0  0  0  0
    2.8138   -0.9050   -0.5491 H   0  0  0  0  0  0  0  0  0  0  0  0
    4.2014   -0.2135    1.2873 H   0  0  0  0  0  0  0  0  0  0  0  0
    3.4593    1.4826    1.2162 H   0  0  0  0  0  0  0  0  0  0  0  0
    4.7070    0.9690    0.0715 H   0  0  0  0  0  0  0  0  0  0  0  0
  1  2  1  0
  2  3  1  0
  3  4  1  0
  4  5  2  0
  4  6  1  0
  6  7  1  0
  7  8  1  0
  8  9  1  0
  9 10  1  0
 10 11  1  0
  7  2  1  0
  1 12  1  0
  1 13  1  0
  1 14  1  0
  2 15  1  0
  3 16  1  0
  3 17  1  0
  7 18  1  0
  8 19  1  0
  8 20  1  0
  9 21  1  0
  9 22  1  0
 10 23  1  0
 10 24  1  0
 11 25  1  0
 11 26  1  0
 11 27  1  0
M  END
>  <Ligand ID>  (1) 
LIG0000313

>  <Ligand>  (1) 
Whiskey lactone

>  <SMILES>  (1) 
CC1CC(=O)OC1CCCC

>  <CID>  (1) 
62900.0

>  <ChEMBL ID>  (1) 
nan

>  <InChiKey>  (1) 
WNVCMFHPRIBNCW-UHFFFAOYSA-N

>  <InChi>  (1) 
InChI=1S/C9H16O2/c1-3-4-5-8-7(2)6-9(10)11-8/h7-8H,3-6H2,1-2H3

>  <IUPAC Name>  (1) 
5-butyl-4-methyloxolan-2-one

$$$$
