
     RDKit          3D

135141  0  0  0  0  0  0  0  0999 V2000
   -4.4047   -4.1841    4.0285 N   0  0  0  0  0  0  0  0  0  0  0  0
   -3.7553   -5.4154    3.5606 C   0  0  0  0  0  0  0  0  0  0  0  0
   -3.4770   -5.3923    2.3082 N   0  0  0  0  0  0  0  0  0  0  0  0
   -3.8161   -4.2051    1.5135 C   0  0  0  0  0  0  0  0  0  0  0  0
   -2.4759   -3.5219    1.1965 C   0  0  0  0  0  0  0  0  0  0  0  0
   -2.5365   -2.2681    0.4489 C   0  0  0  0  0  0  0  0  0  0  0  0
   -3.1270   -2.2879   -0.9550 C   0  0  2  0  0  0  0  0  0  0  0  0
   -2.4214   -3.1515   -1.8428 N   0  0  0  0  0  0  0  0  0  0  0  0
   -1.0508   -3.5166   -1.7935 C   0  0  0  0  0  0  0  0  0  0  0  0
   -0.3629   -2.9882   -0.9142 O   0  0  0  0  0  0  0  0  0  0  0  0
   -0.4553   -4.5018   -2.7760 C   0  0  2  0  0  0  0  0  0  0  0  0
   -1.0327   -5.8293   -2.4609 C   0  0  0  0  0  0  0  0  0  0  0  0
   -0.0175   -6.4896   -1.5718 C   0  0  0  0  0  0  0  0  0  0  0  0
    1.2824   -5.7505   -1.7534 C   0  0  0  0  0  0  0  0  0  0  0  0
    0.9678   -4.6383   -2.5449 N   0  0  0  0  0  0  0  0  0  0  0  0
    1.7995   -3.6536   -3.1407 C   0  0  0  0  0  0  0  0  0  0  0  0
    1.1842   -2.7807   -3.7908 O   0  0  0  0  0  0  0  0  0  0  0  0
    3.2675   -3.5651   -3.0665 C   0  0  1  0  0  0  0  0  0  0  0  0
    3.8827   -3.4814   -4.4549 C   0  0  0  0  0  0  0  0  0  0  0  0
    3.6522   -2.0429   -4.8256 C   0  0  0  0  0  0  0  0  0  0  0  0
    3.3736   -1.2722   -3.5268 C   0  0  0  0  0  0  0  0  0  0  0  0
    3.5810   -2.2289   -2.5149 N   0  0  0  0  0  0  0  0  0  0  0  0
    4.1394   -2.0839   -1.1994 C   0  0  0  0  0  0  0  0  0  0  0  0
    4.5085   -3.1713   -0.7210 O   0  0  0  0  0  0  0  0  0  0  0  0
    4.3038   -0.8504   -0.4544 C   0  0  2  0  0  0  0  0  0  0  0  0
    4.0730   -1.0040    1.0607 C   0  0  0  0  0  0  0  0  0  0  0  0
    4.9861   -1.9572    1.6949 C   0  0  0  0  0  0  0  0  0  0  0  0
    4.6181   -3.2481    2.0063 C   0  0  0  0  0  0  0  0  0  0  0  0
    5.4671   -4.1859    2.5768 C   0  0  0  0  0  0  0  0  0  0  0  0
    6.7591   -3.7361    2.8276 C   0  0  0  0  0  0  0  0  0  0  0  0
    7.1724   -2.4791    2.5440 C   0  0  0  0  0  0  0  0  0  0  0  0
    6.2916   -1.5943    1.9822 C   0  0  0  0  0  0  0  0  0  0  0  0
    3.4386    0.1857   -0.9600 N   0  0  0  0  0  0  0  0  0  0  0  0
    3.6246    1.5928   -0.7364 C   0  0  0  0  0  0  0  0  0  0  0  0
    4.5821    1.8849   -0.0068 O   0  0  0  0  0  0  0  0  0  0  0  0
    2.6968    2.5972   -1.3418 C   0  0  1  0  0  0  0  0  0  0  0  0
    2.7290    3.8433   -0.5310 N   0  0  0  0  0  0  0  0  0  0  0  0
    1.5674    4.3635    0.0120 C   0  0  0  0  0  0  0  0  0  0  0  0
    0.5334    3.5710   -0.3381 O   0  0  0  0  0  0  0  0  0  0  0  0
    1.1063    5.4602    0.8208 C   0  0  1  0  0  0  0  0  0  0  0  0
   -0.2832    5.3215    1.2681 N   0  0  0  0  0  0  0  0  0  0  0  0
   -0.6357    4.1482    2.0013 C   0  0  0  0  0  0  0  0  0  0  0  0
    0.2841    3.3558    2.2286 O   0  0  0  0  0  0  0  0  0  0  0  0
   -1.9714    3.8192    2.4885 C   0  0  0  0  0  0  0  0  0  0  0  0
   -3.0895    3.6901    1.7814 C   0  0  0  0  0  0  0  0  0  0  0  0
   -3.2662    3.7329    0.3089 N   0  0  0  0  0  0  0  0  0  0  0  0
   -3.3523    2.4420   -0.2004 C   0  0  0  0  0  0  0  0  0  0  0  0
   -3.2630    1.6366    0.9199 O   0  0  0  0  0  0  0  0  0  0  0  0
   -3.4910    1.6209   -1.3602 C   0  0  1  0  0  0  0  0  0  0  0  0
   -3.7122    0.2118   -0.9773 N   0  0  0  0  0  0  0  0  0  0  0  0
   -3.0002   -0.8853   -1.4713 C   0  0  0  0  0  0  0  0  0  0  0  0
   -2.2107   -0.6779   -2.4114 O   0  0  0  0  0  0  0  0  0  0  0  0
   -4.2643    2.1025   -2.5471 C   0  0  0  0  0  0  0  0  0  0  0  0
   -3.5635    3.3264   -3.0553 C   0  0  0  0  0  0  0  0  0  0  0  0
   -3.8778    4.6115   -2.7559 C   0  0  0  0  0  0  0  0  0  0  0  0
   -3.1882    5.7152   -3.1272 C   0  0  0  0  0  0  0  0  0  0  0  0
   -2.0266    5.5293   -3.8999 C   0  0  0  0  0  0  0  0  0  0  0  0
   -1.6837    4.2172   -4.2237 C   0  0  0  0  0  0  0  0  0  0  0  0
   -2.4104    3.1286   -3.8285 C   0  0  0  0  0  0  0  0  0  0  0  0
   -4.3485    3.3235    2.3513 C   0  0  0  0  0  0  0  0  0  0  0  0
   -4.3351    3.1047    3.6742 C   0  0  0  0  0  0  0  0  0  0  0  0
   -5.5709    2.6603    4.2540 C   0  0  0  0  0  0  0  0  0  0  0  0
   -5.4930    2.3905    5.5770 C   0  0  0  0  0  0  0  0  0  0  0  0
   -4.3989    2.4955    6.3847 C   0  0  0  0  0  0  0  0  0  0  0  0
   -3.2191    2.9199    5.8290 C   0  0  0  0  0  0  0  0  0  0  0  0
   -3.2278    3.2106    4.4835 C   0  0  0  0  0  0  0  0  0  0  0  0
   -2.0451    3.5723    3.8738 C   0  0  0  0  0  0  0  0  0  0  0  0
    2.0341    5.9427    1.8515 C   0  0  0  0  0  0  0  0  0  0  0  0
    3.2873    6.5398    1.3014 C   0  0  0  0  0  0  0  0  0  0  0  0
    3.4586    6.8260    0.0992 O   0  0  0  0  0  0  0  0  0  0  0  0
    4.3212    6.7722    2.2945 N   0  0  0  0  0  0  0  0  0  0  0  0
    3.3465    3.0134   -2.6693 C   0  0  0  0  0  0  0  0  0  0  0  0
   -3.4825   -6.4747    4.4577 N   0  0  0  0  0  0  0  0  0  0  0  0
   -3.6756   -3.4158    4.1776 H   0  0  0  0  0  0  0  0  0  0  0  0
   -5.3983   -4.0957    4.1787 H   0  0  0  0  0  0  0  0  0  0  0  0
   -4.3868   -3.5350    2.1641 H   0  0  0  0  0  0  0  0  0  0  0  0
   -4.3503   -4.4717    0.6138 H   0  0  0  0  0  0  0  0  0  0  0  0
   -1.9388   -4.3783    0.6496 H   0  0  0  0  0  0  0  0  0  0  0  0
   -1.9776   -3.4027    2.2111 H   0  0  0  0  0  0  0  0  0  0  0  0
   -3.2816   -1.5998    1.0138 H   0  0  0  0  0  0  0  0  0  0  0  0
   -1.6175   -1.6491    0.4851 H   0  0  0  0  0  0  0  0  0  0  0  0
   -4.1900   -2.5165   -0.7931 H   0  0  0  0  0  0  0  0  0  0  0  0
   -2.9362   -3.5754   -2.6316 H   0  0  0  0  0  0  0  0  0  0  0  0
   -0.6532   -4.1361   -3.8235 H   0  0  0  0  0  0  0  0  0  0  0  0
   -2.0312   -5.7665   -1.9600 H   0  0  0  0  0  0  0  0  0  0  0  0
   -1.2388   -6.4224   -3.4050 H   0  0  0  0  0  0  0  0  0  0  0  0
    0.0789   -7.5550   -1.9353 H   0  0  0  0  0  0  0  0  0  0  0  0
   -0.4005   -6.4925   -0.5431 H   0  0  0  0  0  0  0  0  0  0  0  0
    1.9729   -6.4461   -2.2908 H   0  0  0  0  0  0  0  0  0  0  0  0
    1.7934   -5.5382   -0.7941 H   0  0  0  0  0  0  0  0  0  0  0  0
    3.7380   -4.3063   -2.4181 H   0  0  0  0  0  0  0  0  0  0  0  0
    3.3717   -4.1870   -5.1124 H   0  0  0  0  0  0  0  0  0  0  0  0
    4.9781   -3.7182   -4.3374 H   0  0  0  0  0  0  0  0  0  0  0  0
    4.5312   -1.6072   -5.3015 H   0  0  0  0  0  0  0  0  0  0  0  0
    2.7198   -1.9930   -5.4347 H   0  0  0  0  0  0  0  0  0  0  0  0
    2.3539   -0.8766   -3.5332 H   0  0  0  0  0  0  0  0  0  0  0  0
    4.1094   -0.4253   -3.4359 H   0  0  0  0  0  0  0  0  0  0  0  0
    5.3795   -0.5283   -0.4777 H   0  0  0  0  0  0  0  0  0  0  0  0
    3.0392   -1.4657    1.1262 H   0  0  0  0  0  0  0  0  0  0  0  0
    4.0576   -0.0385    1.5594 H   0  0  0  0  0  0  0  0  0  0  0  0
    3.6037   -3.5956    1.8240 H   0  0  0  0  0  0  0  0  0  0  0  0
    5.1393   -5.1873    2.7986 H   0  0  0  0  0  0  0  0  0  0  0  0
    7.4756   -4.4201    3.2641 H   0  0  0  0  0  0  0  0  0  0  0  0
    8.1993   -2.1997    2.7734 H   0  0  0  0  0  0  0  0  0  0  0  0
    6.6565   -0.5975    1.7681 H   0  0  0  0  0  0  0  0  0  0  0  0
    2.5987   -0.0352   -1.4914 H   0  0  0  0  0  0  0  0  0  0  0  0
    1.7188    2.1806   -1.4631 H   0  0  0  0  0  0  0  0  0  0  0  0
    3.6247    4.2567   -0.3990 H   0  0  0  0  0  0  0  0  0  0  0  0
    0.9842    6.3693    0.0709 H   0  0  0  0  0  0  0  0  0  0  0  0
   -1.0302    5.9876    1.1137 H   0  0  0  0  0  0  0  0  0  0  0  0
   -3.3394    4.6325   -0.0337 H   0  0  0  0  0  0  0  0  0  0  0  0
   -2.3933    1.5494   -1.7985 H   0  0  0  0  0  0  0  0  0  0  0  0
   -4.4478    0.0167   -0.2928 H   0  0  0  0  0  0  0  0  0  0  0  0
   -5.2776    2.4608   -2.2716 H   0  0  0  0  0  0  0  0  0  0  0  0
   -4.3733    1.3443   -3.3370 H   0  0  0  0  0  0  0  0  0  0  0  0
   -4.7839    4.7719   -2.1655 H   0  0  0  0  0  0  0  0  0  0  0  0
   -3.4264    6.7326   -2.8970 H   0  0  0  0  0  0  0  0  0  0  0  0
   -1.4163    6.3503   -4.2272 H   0  0  0  0  0  0  0  0  0  0  0  0
   -0.8038    4.0384   -4.8213 H   0  0  0  0  0  0  0  0  0  0  0  0
   -2.1354    2.1003   -4.0957 H   0  0  0  0  0  0  0  0  0  0  0  0
   -5.1451    3.2942    1.6559 H   0  0  0  0  0  0  0  0  0  0  0  0
   -6.3807    2.5988    3.5842 H   0  0  0  0  0  0  0  0  0  0  0  0
   -6.4137    2.0329    6.0624 H   0  0  0  0  0  0  0  0  0  0  0  0
   -4.4616    2.2489    7.4590 H   0  0  0  0  0  0  0  0  0  0  0  0
   -2.3260    3.0202    6.4097 H   0  0  0  0  0  0  0  0  0  0  0  0
   -1.1100    3.6682    4.4344 H   0  0  0  0  0  0  0  0  0  0  0  0
    2.4273    5.0680    2.4763 H   0  0  0  0  0  0  0  0  0  0  0  0
    1.5533    6.6324    2.5512 H   0  0  0  0  0  0  0  0  0  0  0  0
    5.2775    7.1095    2.0042 H   0  0  0  0  0  0  0  0  0  0  0  0
    4.1670    6.6151    3.3068 H   0  0  0  0  0  0  0  0  0  0  0  0
    3.5572    2.1836   -3.3355 H   0  0  0  0  0  0  0  0  0  0  0  0
    2.7284    3.7654   -3.1790 H   0  0  0  0  0  0  0  0  0  0  0  0
    4.3141    3.5236   -2.4479 H   0  0  0  0  0  0  0  0  0  0  0  0
   -3.6699   -7.4468    4.0796 H   0  0  0  0  0  0  0  0  0  0  0  0
   -3.1148   -6.2932    5.4074 H   0  0  0  0  0  0  0  0  0  0  0  0
  1  2  1  0
  2  3  2  3
  3  4  1  0
  4  5  1  0
  5  6  1  0
  6  7  1  0
  7  8  1  0
  8  9  1  0
  9 10  2  0
  9 11  1  0
 11 12  1  0
 12 13  1  0
 13 14  1  0
 14 15  1  0
 15 16  1  0
 16 17  2  0
 16 18  1  0
 18 19  1  0
 19 20  1  0
 20 21  1  0
 21 22  1  0
 22 23  1  0
 23 24  2  0
 23 25  1  0
 25 26  1  0
 26 27  1  0
 27 28  2  0
 28 29  1  0
 29 30  2  0
 30 31  1  0
 31 32  2  0
 25 33  1  0
 33 34  1  0
 34 35  2  0
 34 36  1  0
 36 37  1  0
 37 38  1  0
 38 39  2  0
 38 40  1  0
 40 41  1  0
 41 42  1  0
 42 43  2  0
 42 44  1  0
 44 45  2  0
 45 46  1  0
 46 47  1  0
 47 48  2  0
 47 49  1  0
 49 50  1  0
 50 51  1  0
 51 52  2  0
 49 53  1  0
 53 54  1  0
 54 55  2  0
 55 56  1  0
 56 57  2  0
 57 58  1  0
 58 59  2  0
 45 60  1  0
 60 61  2  0
 61 62  1  0
 62 63  2  0
 63 64  1  0
 64 65  2  0
 65 66  1  0
 66 67  2  0
 40 68  1  0
 68 69  1  0
 69 70  2  0
 69 71  1  0
 36 72  1  0
  2 73  1  0
 51  7  1  0
 59 54  1  0
 66 61  1  0
 15 11  1  0
 22 18  1  0
 32 27  1  0
 67 44  1  0
  1 74  1  0
  1 75  1  0
  4 76  1  0
  4 77  1  0
  5 78  1  0
  5 79  1  0
  6 80  1  0
  6 81  1  0
  7 82  1  1
  8 83  1  0
 11 84  1  6
 12 85  1  0
 12 86  1  0
 13 87  1  0
 13 88  1  0
 14 89  1  0
 14 90  1  0
 18 91  1  1
 19 92  1  0
 19 93  1  0
 20 94  1  0
 20 95  1  0
 21 96  1  0
 21 97  1  0
 25 98  1  1
 26 99  1  0
 26100  1  0
 28101  1  0
 29102  1  0
 30103  1  0
 31104  1  0
 32105  1  0
 33106  1  0
 36107  1  6
 37108  1  0
 40109  1  6
 41110  1  0
 46111  1  0
 49112  1  6
 50113  1  0
 53114  1  0
 53115  1  0
 55116  1  0
 56117  1  0
 57118  1  0
 58119  1  0
 59120  1  0
 60121  1  0
 62122  1  0
 63123  1  0
 64124  1  0
 65125  1  0
 67126  1  0
 68127  1  0
 68128  1  0
 71129  1  0
 71130  1  0
 72131  1  0
 72132  1  0
 72133  1  0
 73134  1  0
 73135  1  0
M  END
>  <Ligand ID>  (1) 
LIG0005507

>  <Ligand>  (1) 
CHEMBL3577992

>  <SMILES>  (1) 
NC(=NCCC[C@@H]1NC(=O)[C@@H]2CCCN2C(=O)[C@H]2CCCN2C(=O)[C@H](Cc2ccccc2)NC(=O)[C@@H](NC(=O)[C@@H](NC(=O)c2c(NC(=O)[C@@H](NC1=O)Cc1ccccc1)cc1ccccc1c2)CC(=O)N)C)N

>  <CID>  (1) 
122178163.0

>  <ChEMBL ID>  (1) 
nan

>  <InChiKey>  (1) 
FKJRMGOKQNEHRT-SOGBOZPASA-N

>  <InChi>  (1) 
InChI=1S/C52H62N12O9/c1-30-44(66)62-40(26-32-15-6-3-7-16-32)50(72)64-24-12-21-42(64)51(73)63-23-11-20-41(63)49(71)58-36(19-10-22-56-52(54)55)46(68)61-38(25-31-13-4-2-5-14-31)48(70)59-37-28-34-18-9-8-17-33(34)27-35(37)45(67)60-39(29-43(53)65)47(69)57-30/h2-9,13-18,27-28,30,36,38-42H,10-12,19-26,29H2,1H3,(H2,53,65)(H,57,69)(H,58,71)(H,59,70)(H,60,67)(H,61,68)(H,62,66)(H4,54,55,56)/t30-,36-,38-,39-,40-,41-,42+/m0/s1

>  <IUPAC Name>  (1) 
2-[(4S,7S,10S,16R,22S,25S,28S)-4,22-dibenzyl-7-[3-(diaminomethylideneamino)propyl]-25-methyl-3,6,9,15,21,24,27,30-octaoxo-2,5,8,14,20,23,26,29-octazapentacyclo[29.8.0.010,14.016,20.033,38]nonatriaconta-1(39),31,33,35,37-pentaen-28-yl]acetamide

$$$$
