
     RDKit          3D

 25 24  0  0  0  0  0  0  0  0999 V2000
    3.4139    0.5784    0.8188 C   0  0  0  0  0  0  0  0  0  0  0  0
    2.7271   -0.5057    0.0188 C   0  0  0  0  0  0  0  0  0  0  0  0
    1.3244   -0.0584   -0.3695 C   0  0  0  0  0  0  0  0  0  0  0  0
    0.4774    0.2347    0.8218 C   0  0  0  0  0  0  0  0  0  0  0  0
   -0.8821    0.6771    0.3894 C   0  0  0  0  0  0  0  0  0  0  0  0
   -1.5868   -0.3807   -0.4272 C   0  0  2  0  0  0  0  0  0  0  0  0
   -2.9282    0.2295   -0.7658 C   0  0  0  0  0  0  0  0  0  0  0  0
   -4.0410   -0.1762   -0.1758 C   0  0  0  0  0  0  0  0  0  0  0  0
   -1.7003   -1.5771    0.2241 O   0  0  0  0  0  0  0  0  0  0  0  0
    4.4897    0.2640    0.8708 H   0  0  0  0  0  0  0  0  0  0  0  0
    3.4097    1.5238    0.2327 H   0  0  0  0  0  0  0  0  0  0  0  0
    2.9583    0.6900    1.8035 H   0  0  0  0  0  0  0  0  0  0  0  0
    3.2969   -0.6320   -0.9332 H   0  0  0  0  0  0  0  0  0  0  0  0
    2.6775   -1.4365    0.6197 H   0  0  0  0  0  0  0  0  0  0  0  0
    0.8727   -0.8345   -1.0245 H   0  0  0  0  0  0  0  0  0  0  0  0
    1.4411    0.8572   -0.9752 H   0  0  0  0  0  0  0  0  0  0  0  0
    0.4055   -0.6556    1.5028 H   0  0  0  0  0  0  0  0  0  0  0  0
    0.9771    1.0135    1.4406 H   0  0  0  0  0  0  0  0  0  0  0  0
   -1.5172    1.0243    1.2395 H   0  0  0  0  0  0  0  0  0  0  0  0
   -0.8197    1.5713   -0.2820 H   0  0  0  0  0  0  0  0  0  0  0  0
   -1.0577   -0.4560   -1.4203 H   0  0  0  0  0  0  0  0  0  0  0  0
   -2.9565    1.0155   -1.5114 H   0  0  0  0  0  0  0  0  0  0  0  0
   -4.9961    0.2702   -0.4283 H   0  0  0  0  0  0  0  0  0  0  0  0
   -4.0081   -0.9620    0.5688 H   0  0  0  0  0  0  0  0  0  0  0  0
   -1.9777   -2.2748   -0.4132 H   0  0  0  0  0  0  0  0  0  0  0  0
  1  2  1  0
  2  3  1  0
  3  4  1  0
  4  5  1  0
  5  6  1  0
  6  7  1  0
  7  8  2  0
  6  9  1  0
  1 10  1  0
  1 11  1  0
  1 12  1  0
  2 13  1  0
  2 14  1  0
  3 15  1  0
  3 16  1  0
  4 17  1  0
  4 18  1  0
  5 19  1  0
  5 20  1  0
  6 21  1  6
  7 22  1  0
  8 23  1  0
  8 24  1  0
  9 25  1  0
M  END
>  <Ligand ID>  (1) 
LIG0000748

>  <Ligand>  (1) 
(3R)-oct-1-en-3-ol

>  <SMILES>  (1) 
CCCCC[C@H](C=C)O

>  <CID>  (1) 
6992244.0

>  <ChEMBL ID>  (1) 
nan

>  <InChiKey>  (1) 
VSMOENVRRABVKN-QMMMGPOBSA-N

>  <InChi>  (1) 
InChI=1S/C8H16O/c1-3-5-6-7-8(9)4-2/h4,8-9H,2-3,5-7H2,1H3/t8-/m0/s1

>  <IUPAC Name>  (1) 
(3R)-oct-1-en-3-ol

$$$$
