
     RDKit          3D

 29 31  0  0  0  0  0  0  0  0999 V2000
    3.9675    0.1284   -0.2652 C   0  0  0  0  0  0  0  0  0  0  0  0
    3.2367    0.9119   -1.2930 C   0  0  0  0  0  0  0  0  0  0  0  0
    1.7468    1.0217   -1.0743 C   0  0  0  0  0  0  0  0  0  0  0  0
    1.3216   -0.2253   -0.3265 C   0  0  0  0  0  0  0  0  0  0  0  0
    1.9525   -0.1209    1.0415 C   0  0  0  0  0  0  0  0  0  0  0  0
    3.3653    0.0233    1.0086 N   0  0  0  0  0  0  0  0  0  0  0  0
   -0.1423   -0.3083   -0.1660 C   0  0  0  0  0  0  0  0  0  0  0  0
   -1.1126   -1.0595   -0.4179 N   0  0  0  0  0  0  0  0  0  0  0  0
   -2.3547   -0.8665   -0.1462 C   0  0  0  0  0  0  0  0  0  0  0  0
   -2.6876    0.3172    0.5091 C   0  0  0  0  0  0  0  0  0  0  0  0
   -1.0370    1.1030    0.6844 S   0  0  0  0  0  0  0  0  0  0  0  0
   -3.9028    0.7108    0.8802 C   0  0  0  0  0  0  0  0  0  0  0  0
   -4.9989   -0.1116    0.6092 C   0  0  0  0  0  0  0  0  0  0  0  0
   -4.7059   -1.2927   -0.0392 C   0  0  0  0  0  0  0  0  0  0  0  0
   -3.4648   -1.6932   -0.4176 C   0  0  0  0  0  0  0  0  0  0  0  0
    4.9695    0.6068   -0.1371 H   0  0  0  0  0  0  0  0  0  0  0  0
    4.1698   -0.8964   -0.6589 H   0  0  0  0  0  0  0  0  0  0  0  0
    3.6758    1.9438   -1.4246 H   0  0  0  0  0  0  0  0  0  0  0  0
    3.3764    0.4495   -2.3017 H   0  0  0  0  0  0  0  0  0  0  0  0
    1.2124    1.0297   -2.0478 H   0  0  0  0  0  0  0  0  0  0  0  0
    1.5518    1.8966   -0.4560 H   0  0  0  0  0  0  0  0  0  0  0  0
    1.7419   -1.1050   -0.8377 H   0  0  0  0  0  0  0  0  0  0  0  0
    1.6755   -0.9977    1.6682 H   0  0  0  0  0  0  0  0  0  0  0  0
    1.5087    0.7662    1.5387 H   0  0  0  0  0  0  0  0  0  0  0  0
    3.7989    0.5100    1.7842 H   0  0  0  0  0  0  0  0  0  0  0  0
   -4.0264    1.6707    1.3914 H   0  0  0  0  0  0  0  0  0  0  0  0
   -5.9808    0.1981    0.9048 H   0  0  0  0  0  0  0  0  0  0  0  0
   -5.5432   -1.9607   -0.2668 H   0  0  0  0  0  0  0  0  0  0  0  0
   -3.3144   -2.6498   -0.9307 H   0  0  0  0  0  0  0  0  0  0  0  0
  1  2  1  0
  2  3  1  0
  3  4  1  0
  4  5  1  0
  5  6  1  0
  4  7  1  0
  7  8  2  0
  8  9  1  0
  9 10  2  0
 10 11  1  0
 10 12  1  0
 12 13  2  0
 13 14  1  0
 14 15  2  0
  6  1  1  0
 11  7  1  0
 15  9  1  0
  1 16  1  0
  1 17  1  0
  2 18  1  0
  2 19  1  0
  3 20  1  0
  3 21  1  0
  4 22  1  0
  5 23  1  0
  5 24  1  0
  6 25  1  0
 12 26  1  0
 13 27  1  0
 14 28  1  0
 15 29  1  0
M  END
>  <Ligand ID>  (1) 
LIG0002940

>  <Ligand>  (1) 
2-(Piperidin-3-yl)benzo[d]thiazole

>  <SMILES>  (1) 
C1CCC(CN1)c1nc2c(s1)cccc2

>  <CID>  (1) 
2998624.0

>  <ChEMBL ID>  (1) 
nan

>  <InChiKey>  (1) 
PXPKASSSZWCUJE-UHFFFAOYSA-N

>  <InChi>  (1) 
InChI=1S/C12H14N2S/c1-2-6-11-10(5-1)14-12(15-11)9-4-3-7-13-8-9/h1-2,5-6,9,13H,3-4,7-8H2

>  <IUPAC Name>  (1) 
2-piperidin-3-yl-1,3-benzothiazole

$$$$
