
     RDKit          3D

 77 83  0  0  0  0  0  0  0  0999 V2000
   -4.6174   -0.8792    1.6935 C   0  0  0  0  0  0  0  0  0  0  0  0
   -4.1998   -0.2502    0.3934 C   0  0  0  0  0  0  0  0  0  0  0  0
   -4.2876    1.2521    0.4291 C   0  0  0  0  0  0  0  0  0  0  0  0
   -3.4910    1.8488    1.5561 C   0  0  0  0  0  0  0  0  0  0  0  0
   -2.3804    0.9848    1.9861 C   0  0  0  0  0  0  0  0  0  0  0  0
   -2.0007   -0.1711    1.3320 C   0  0  0  0  0  0  0  0  0  0  0  0
   -2.7488   -0.5788    0.1219 C   0  0  0  0  0  0  0  0  0  0  0  0
   -2.6871   -2.0839   -0.1137 C   0  0  0  0  0  0  0  0  0  0  0  0
   -2.2068    0.1180   -1.0761 C   0  0  0  0  0  0  0  0  0  0  0  0
   -3.1563    1.0805   -1.7190 C   0  0  0  0  0  0  0  0  0  0  0  0
   -4.0252    1.7691   -0.8580 N   0  0  0  0  0  0  0  0  0  0  0  0
   -5.0974    2.4750   -1.4756 C   0  0  0  0  0  0  0  0  0  0  0  0
   -6.1486    1.6418   -2.1225 C   0  0  0  0  0  0  0  0  0  0  0  0
   -7.3190    2.3735   -2.7975 C   0  0  0  0  0  0  0  0  0  0  0  0
   -6.2471    1.7205   -3.6385 C   0  0  0  0  0  0  0  0  0  0  0  0
   -0.9485   -0.9284    1.7961 C   0  0  0  0  0  0  0  0  0  0  0  0
   -0.2197   -0.5924    2.9180 C   0  0  0  0  0  0  0  0  0  0  0  0
   -0.5965    0.5629    3.5745 C   0  0  0  0  0  0  0  0  0  0  0  0
   -1.6629    1.3493    3.1223 C   0  0  0  0  0  0  0  0  0  0  0  0
    0.8958   -1.3832    3.4191 C   0  0  0  0  0  0  0  0  0  0  0  0
    1.4966   -1.0065    4.4694 O   0  0  0  0  0  0  0  0  0  0  0  0
    1.3698   -2.5657    2.8090 N   0  0  0  0  0  0  0  0  0  0  0  0
    2.4650   -3.3607    3.2866 C   0  0  0  0  0  0  0  0  0  0  0  0
    3.7794   -2.6710    3.3693 C   0  0  0  0  0  0  0  0  0  0  0  0
    4.2751   -2.1459    2.0934 C   0  0  0  0  0  0  0  0  0  0  0  0
    3.9524   -0.8498    1.7489 C   0  0  0  0  0  0  0  0  0  0  0  0
    4.3634   -0.2530    0.5747 C   0  0  0  0  0  0  0  0  0  0  0  0
    5.1405   -0.9655   -0.3246 C   0  0  0  0  0  0  0  0  0  0  0  0
    5.4579   -2.2566    0.0260 C   0  0  0  0  0  0  0  0  0  0  0  0
    5.0488   -2.8517    1.1960 C   0  0  0  0  0  0  0  0  0  0  0  0
    5.5673   -0.3233   -1.5543 C   0  0  0  0  0  0  0  0  0  0  0  0
    5.7724   -0.9915   -2.7412 C   0  0  0  0  0  0  0  0  0  0  0  0
    6.1830   -0.2743   -3.8599 C   0  0  0  0  0  0  0  0  0  0  0  0
    6.3970    1.0821   -3.8408 C   0  0  0  0  0  0  0  0  0  0  0  0
    6.1913    1.7446   -2.6546 C   0  0  0  0  0  0  0  0  0  0  0  0
    5.7835    1.0506   -1.5324 C   0  0  0  0  0  0  0  0  0  0  0  0
    6.4616    3.0847   -2.8595 O   0  0  0  0  0  0  0  0  0  0  0  0
    7.2399    3.1437   -4.0616 C   0  0  0  0  0  0  0  0  0  0  0  0
    6.7993    2.0343   -4.7846 O   0  0  0  0  0  0  0  0  0  0  0  0
   -3.8436   -1.5142    2.1626 H   0  0  0  0  0  0  0  0  0  0  0  0
   -4.9245   -0.0350    2.3766 H   0  0  0  0  0  0  0  0  0  0  0  0
   -5.5149   -1.5156    1.5803 H   0  0  0  0  0  0  0  0  0  0  0  0
   -4.8512   -0.6360   -0.3919 H   0  0  0  0  0  0  0  0  0  0  0  0
   -5.3729    1.4763    0.6520 H   0  0  0  0  0  0  0  0  0  0  0  0
   -3.1146    2.8724    1.2665 H   0  0  0  0  0  0  0  0  0  0  0  0
   -4.1375    2.0109    2.4565 H   0  0  0  0  0  0  0  0  0  0  0  0
   -2.7990   -2.6458    0.8259 H   0  0  0  0  0  0  0  0  0  0  0  0
   -1.6909   -2.2723   -0.6038 H   0  0  0  0  0  0  0  0  0  0  0  0
   -3.4329   -2.3424   -0.8676 H   0  0  0  0  0  0  0  0  0  0  0  0
   -1.3196    0.7109   -0.7735 H   0  0  0  0  0  0  0  0  0  0  0  0
   -1.8101   -0.6106   -1.8146 H   0  0  0  0  0  0  0  0  0  0  0  0
   -2.6168    1.8022   -2.3665 H   0  0  0  0  0  0  0  0  0  0  0  0
   -3.7865    0.4635   -2.4265 H   0  0  0  0  0  0  0  0  0  0  0  0
   -5.5926    3.0981   -0.7063 H   0  0  0  0  0  0  0  0  0  0  0  0
   -4.6546    3.1521   -2.2346 H   0  0  0  0  0  0  0  0  0  0  0  0
   -6.3833    0.6240   -1.7503 H   0  0  0  0  0  0  0  0  0  0  0  0
   -8.3055    1.8503   -2.7437 H   0  0  0  0  0  0  0  0  0  0  0  0
   -7.3665    3.4678   -2.7147 H   0  0  0  0  0  0  0  0  0  0  0  0
   -5.5553    2.3848   -4.1953 H   0  0  0  0  0  0  0  0  0  0  0  0
   -6.5762    0.8370   -4.2191 H   0  0  0  0  0  0  0  0  0  0  0  0
   -0.7081   -1.8187    1.2341 H   0  0  0  0  0  0  0  0  0  0  0  0
   -0.0480    0.8590    4.4581 H   0  0  0  0  0  0  0  0  0  0  0  0
   -1.8978    2.2420    3.6929 H   0  0  0  0  0  0  0  0  0  0  0  0
    0.8611   -2.8723    1.9293 H   0  0  0  0  0  0  0  0  0  0  0  0
    2.2614   -3.7643    4.3246 H   0  0  0  0  0  0  0  0  0  0  0  0
    2.5634   -4.2738    2.6678 H   0  0  0  0  0  0  0  0  0  0  0  0
    3.8118   -1.8871    4.1532 H   0  0  0  0  0  0  0  0  0  0  0  0
    4.5281   -3.4361    3.7114 H   0  0  0  0  0  0  0  0  0  0  0  0
    3.3503   -0.2411    2.4103 H   0  0  0  0  0  0  0  0  0  0  0  0
    4.0730    0.7753    0.3645 H   0  0  0  0  0  0  0  0  0  0  0  0
    6.0663   -2.8148   -0.6781 H   0  0  0  0  0  0  0  0  0  0  0  0
    5.2972   -3.8699    1.4766 H   0  0  0  0  0  0  0  0  0  0  0  0
    5.6092   -2.0655   -2.7794 H   0  0  0  0  0  0  0  0  0  0  0  0
    6.3498   -0.7816   -4.8058 H   0  0  0  0  0  0  0  0  0  0  0  0
    5.6382    1.6357   -0.6186 H   0  0  0  0  0  0  0  0  0  0  0  0
    6.9760    4.1037   -4.5384 H   0  0  0  0  0  0  0  0  0  0  0  0
    8.3180    3.0976   -3.7795 H   0  0  0  0  0  0  0  0  0  0  0  0
  1  2  1  0
  2  3  1  0
  3  4  1  0
  4  5  1  0
  5  6  2  0
  6  7  1  0
  7  8  1  0
  7  9  1  0
  9 10  1  0
 10 11  1  0
 11 12  1  0
 12 13  1  0
 13 14  1  0
 14 15  1  0
  6 16  1  0
 16 17  2  0
 17 18  1  0
 18 19  2  0
 17 20  1  0
 20 21  2  0
 20 22  1  0
 22 23  1  0
 23 24  1  0
 24 25  1  0
 25 26  2  0
 26 27  1  0
 27 28  2  0
 28 29  1  0
 29 30  2  0
 28 31  1  0
 31 32  1  0
 32 33  2  0
 33 34  1  0
 34 35  2  0
 35 36  1  0
 35 37  1  0
 37 38  1  0
 38 39  1  0
  7  2  1  0
 15 13  1  0
 30 25  1  0
 36 31  2  0
 11  3  1  0
 39 34  1  0
 19  5  1  0
  1 40  1  0
  1 41  1  0
  1 42  1  0
  2 43  1  0
  3 44  1  0
  4 45  1  0
  4 46  1  0
  8 47  1  0
  8 48  1  0
  8 49  1  0
  9 50  1  0
  9 51  1  0
 10 52  1  0
 10 53  1  0
 12 54  1  0
 12 55  1  0
 13 56  1  0
 14 57  1  0
 14 58  1  0
 15 59  1  0
 15 60  1  0
 16 61  1  0
 18 62  1  0
 19 63  1  0
 22 64  1  0
 23 65  1  0
 23 66  1  0
 24 67  1  0
 24 68  1  0
 26 69  1  0
 27 70  1  0
 29 71  1  0
 30 72  1  0
 32 73  1  0
 33 74  1  0
 36 75  1  0
 38 76  1  0
 38 77  1  0
M  END
>  <Ligand ID>  (1) 
LIG0003998

>  <Ligand>  (1) 
CHEMBL2208351

>  <SMILES>  (1) 
CC1C2Cc3c(C1(C)CCN2CC1CC1)cc(cc3)C(=O)NCCc1ccc(cc1)c1ccc2c(c1)OCO2

>  <CID>  (1) 
58443234.0

>  <ChEMBL ID>  (1) 
nan

>  <InChiKey>  (1) 
NFVWPZJBRDAYII-UHFFFAOYSA-N

>  <InChi>  (1) 
InChI=1S/C34H38N2O3/c1-22-30-18-27-9-10-28(17-29(27)34(22,2)14-16-36(30)20-24-3-4-24)33(37)35-15-13-23-5-7-25(8-6-23)26-11-12-31-32(19-26)39-21-38-31/h5-12,17,19,22,24,30H,3-4,13-16,18,20-21H2,1-2H3,(H,35,37)

>  <IUPAC Name>  (1) 
N-[2-[4-(1,3-benzodioxol-5-yl)phenyl]ethyl]-10-(cyclopropylmethyl)-1,13-dimethyl-10-azatricyclo[7.3.1.02,7]trideca-2(7),3,5-triene-4-carboxamide

$$$$
