
     RDKit          3D

 86 86  0  0  0  0  0  0  0  0999 V2000
   -0.9975   -0.0556   -0.0715 C   0  0  0  0  0  0  0  0  0  0  0  0
    0.4245    0.3597    0.1105 C   0  0  0  0  0  0  0  0  0  0  0  0
    0.8073    1.5323    0.1842 O   0  0  0  0  0  0  0  0  0  0  0  0
    1.3838   -0.6463    0.2034 O   0  0  0  0  0  0  0  0  0  0  0  0
   -8.3567   -3.2125    2.8045 O   0  0  0  0  0  0  0  0  0  0  0  0
   -9.0083   -2.1191    2.2374 C   0  0  0  0  0  0  0  0  0  0  0  0
   -8.1923   -1.4661    1.1676 C   0  0  0  0  0  0  0  0  0  0  0  0
   -7.5263   -0.2664    1.3824 C   0  0  0  0  0  0  0  0  0  0  0  0
   -6.7689    0.3489    0.4050 C   0  0  0  0  0  0  0  0  0  0  0  0
   -6.6958   -0.2870   -0.8230 C   0  0  0  0  0  0  0  0  0  0  0  0
   -7.3509   -1.4792   -1.0543 C   0  0  0  0  0  0  0  0  0  0  0  0
   -8.1100   -2.0891   -0.0637 C   0  0  0  0  0  0  0  0  0  0  0  0
   -8.7644   -3.2956   -0.3202 O   0  0  0  0  0  0  0  0  0  0  0  0
   -6.0929    1.6249    0.7101 C   0  0  2  0  0  0  0  0  0  0  0  0
   -4.9972    1.3864    1.7124 C   0  0  0  0  0  0  0  0  0  0  0  0
   -3.9303    0.5662    1.3676 N   0  0  0  0  0  0  0  0  0  0  0  0
   -2.9409    0.8584    0.4385 C   0  0  0  0  0  0  0  0  0  0  0  0
   -3.2648    0.8834   -1.0073 C   0  0  0  0  0  0  0  0  0  0  0  0
   -2.0495    1.1923   -1.8989 C   0  0  0  0  0  0  0  0  0  0  0  0
   -1.4601    2.5193   -1.5969 C   0  0  0  0  0  0  0  0  0  0  0  0
   -0.3180    2.9323   -2.4370 C   0  0  0  0  0  0  0  0  0  0  0  0
    0.8673    1.9677   -2.3130 C   0  0  0  0  0  0  0  0  0  0  0  0
    0.5515    0.7566   -2.7113 O   0  0  0  0  0  0  0  0  0  0  0  0
    1.2757   -0.3258   -2.8663 C   0  0  0  0  0  0  0  0  0  0  0  0
    2.0442   -0.9094   -1.7296 C   0  0  0  0  0  0  0  0  0  0  0  0
    3.1500   -0.0962   -1.1572 C   0  0  0  0  0  0  0  0  0  0  0  0
    3.7694   -0.9563   -0.0290 C   0  0  0  0  0  0  0  0  0  0  0  0
    4.8927   -0.2117    0.5947 C   0  0  0  0  0  0  0  0  0  0  0  0
    4.7402    0.6475    1.6588 C   0  0  0  0  0  0  0  0  0  0  0  0
    5.8287    1.3247    2.2155 C   0  0  0  0  0  0  0  0  0  0  0  0
    7.1009    1.1235    1.6778 C   0  0  0  0  0  0  0  0  0  0  0  0
    7.2674    0.2636    0.6097 C   0  0  0  0  0  0  0  0  0  0  0  0
    6.1737   -0.4048    0.0645 C   0  0  0  0  0  0  0  0  0  0  0  0
    8.8878    0.0304   -0.0477 S   0  0  0  0  0  0  0  0  0  0  0  0
    8.7976   -0.3587   -1.5154 O   0  0  0  0  0  0  0  0  0  0  0  0
    9.6380    1.3235   -0.0147 O   0  0  0  0  0  0  0  0  0  0  0  0
    9.7203   -1.2341    0.7396 N   0  0  0  0  0  0  0  0  0  0  0  0
    9.9396   -1.0344    2.1350 C   0  0  0  0  0  0  0  0  0  0  0  0
    9.3167   -2.5458    0.3480 C   0  0  0  0  0  0  0  0  0  0  0  0
   -7.0294    2.4667    1.4021 O   0  0  0  0  0  0  0  0  0  0  0  0
   -1.6805    0.7995   -0.0732 H   0  0  0  0  0  0  0  0  0  0  0  0
   -1.1736   -0.7776    0.7596 H   0  0  0  0  0  0  0  0  0  0  0  0
   -1.0992   -0.6715   -0.9997 H   0  0  0  0  0  0  0  0  0  0  0  0
    2.3351   -0.5404   -0.1133 H   0  0  0  0  0  0  0  0  0  0  0  0
   -8.7230   -4.0519    2.4494 H   0  0  0  0  0  0  0  0  0  0  0  0
   -9.2065   -1.3446    3.0180 H   0  0  0  0  0  0  0  0  0  0  0  0
   -9.9812   -2.4078    1.7838 H   0  0  0  0  0  0  0  0  0  0  0  0
   -7.6464    0.1569    2.3876 H   0  0  0  0  0  0  0  0  0  0  0  0
   -6.0917    0.2165   -1.5791 H   0  0  0  0  0  0  0  0  0  0  0  0
   -7.2632   -1.9355   -2.0284 H   0  0  0  0  0  0  0  0  0  0  0  0
   -9.4374   -3.3344   -1.0808 H   0  0  0  0  0  0  0  0  0  0  0  0
   -5.8073    2.2142   -0.1648 H   0  0  0  0  0  0  0  0  0  0  0  0
   -5.5370    0.9006    2.6036 H   0  0  0  0  0  0  0  0  0  0  0  0
   -4.6823    2.4011    2.1105 H   0  0  0  0  0  0  0  0  0  0  0  0
   -4.0277   -0.4507    1.6255 H   0  0  0  0  0  0  0  0  0  0  0  0
   -2.0937    0.0986    0.5829 H   0  0  0  0  0  0  0  0  0  0  0  0
   -2.4247    1.8117    0.7649 H   0  0  0  0  0  0  0  0  0  0  0  0
   -3.5807   -0.1390   -1.3452 H   0  0  0  0  0  0  0  0  0  0  0  0
   -4.0267    1.5938   -1.3315 H   0  0  0  0  0  0  0  0  0  0  0  0
   -2.4075    1.1689   -2.9328 H   0  0  0  0  0  0  0  0  0  0  0  0
   -1.3805    0.3178   -1.7376 H   0  0  0  0  0  0  0  0  0  0  0  0
   -1.1146    2.5933   -0.5197 H   0  0  0  0  0  0  0  0  0  0  0  0
   -2.2806    3.2800   -1.7012 H   0  0  0  0  0  0  0  0  0  0  0  0
   -0.5569    2.9688   -3.5317 H   0  0  0  0  0  0  0  0  0  0  0  0
    0.0502    3.9277   -2.0877 H   0  0  0  0  0  0  0  0  0  0  0  0
    1.7683    2.4153   -2.7875 H   0  0  0  0  0  0  0  0  0  0  0  0
    1.0183    1.9687   -1.1761 H   0  0  0  0  0  0  0  0  0  0  0  0
    0.5913   -1.1394   -3.3130 H   0  0  0  0  0  0  0  0  0  0  0  0
    1.9751   -0.1579   -3.7594 H   0  0  0  0  0  0  0  0  0  0  0  0
    1.3116   -1.1916   -0.9063 H   0  0  0  0  0  0  0  0  0  0  0  0
    2.4208   -1.9249   -2.0635 H   0  0  0  0  0  0  0  0  0  0  0  0
    2.8254    0.8349   -0.7240 H   0  0  0  0  0  0  0  0  0  0  0  0
    3.9413    0.1473   -1.9015 H   0  0  0  0  0  0  0  0  0  0  0  0
    2.9671   -1.0999    0.7052 H   0  0  0  0  0  0  0  0  0  0  0  0
    4.0757   -1.9268   -0.4412 H   0  0  0  0  0  0  0  0  0  0  0  0
    3.7436    0.7992    2.0725 H   0  0  0  0  0  0  0  0  0  0  0  0
    5.7127    2.0035    3.0556 H   0  0  0  0  0  0  0  0  0  0  0  0
    7.9391    1.6607    2.1251 H   0  0  0  0  0  0  0  0  0  0  0  0
    6.3008   -1.0843   -0.7788 H   0  0  0  0  0  0  0  0  0  0  0  0
    9.2913   -1.6023    2.8157 H   0  0  0  0  0  0  0  0  0  0  0  0
    9.7625    0.0455    2.3774 H   0  0  0  0  0  0  0  0  0  0  0  0
   11.0405   -1.1706    2.3513 H   0  0  0  0  0  0  0  0  0  0  0  0
   10.0814   -3.0273   -0.2951 H   0  0  0  0  0  0  0  0  0  0  0  0
    9.0679   -3.2114    1.2056 H   0  0  0  0  0  0  0  0  0  0  0  0
    8.3941   -2.4559   -0.2690 H   0  0  0  0  0  0  0  0  0  0  0  0
   -7.1144    2.1424    2.3352 H   0  0  0  0  0  0  0  0  0  0  0  0
  1  2  1  0
  2  3  2  0
  2  4  1  0
  5  6  1  0
  6  7  1  0
  7  8  2  0
  8  9  1  0
  9 10  2  0
 10 11  1  0
 11 12  2  0
 12 13  1  0
  9 14  1  0
 14 15  1  0
 15 16  1  0
 16 17  1  0
 17 18  1  0
 18 19  1  0
 19 20  1  0
 20 21  1  0
 21 22  1  0
 22 23  1  0
 23 24  1  0
 24 25  1  0
 25 26  1  0
 26 27  1  0
 27 28  1  0
 28 29  2  0
 29 30  1  0
 30 31  2  0
 31 32  1  0
 32 33  2  0
 32 34  1  0
 34 35  2  0
 34 36  2  0
 34 37  1  0
 37 38  1  0
 37 39  1  0
 14 40  1  0
 12  7  1  0
 33 28  1  0
  1 41  1  0
  1 42  1  0
  1 43  1  0
  4 44  1  0
  5 45  1  0
  6 46  1  0
  6 47  1  0
  8 48  1  0
 10 49  1  0
 11 50  1  0
 13 51  1  0
 14 52  1  6
 15 53  1  0
 15 54  1  0
 16 55  1  0
 17 56  1  0
 17 57  1  0
 18 58  1  0
 18 59  1  0
 19 60  1  0
 19 61  1  0
 20 62  1  0
 20 63  1  0
 21 64  1  0
 21 65  1  0
 22 66  1  0
 22 67  1  0
 24 68  1  0
 24 69  1  0
 25 70  1  0
 25 71  1  0
 26 72  1  0
 26 73  1  0
 27 74  1  0
 27 75  1  0
 29 76  1  0
 30 77  1  0
 31 78  1  0
 33 79  1  0
 38 80  1  0
 38 81  1  0
 38 82  1  0
 39 83  1  0
 39 84  1  0
 39 85  1  0
 40 86  1  0
M  END
>  <Ligand ID>  (1) 
LIG0003360

>  <Ligand>  (1) 
CHEMBL474393

>  <SMILES>  (1) 
CC(=O)O.OCc1cc(ccc1O)[C@H](CNCCCCCCOCCCCc1cccc(c1)S(=O)(=O)N(C)C)O

>  <CID>  (1) 
42625820.0

>  <ChEMBL ID>  (1) 
nan

>  <InChiKey>  (1) 
TXVUSAOBBALKPN-YCBFMBTMSA-N

>  <InChi>  (1) 
InChI=1S/C27H42N2O6S.C2H4O2/c1-29(2)36(33,34)25-12-9-11-22(18-25)10-5-8-17-35-16-7-4-3-6-15-28-20-27(32)23-13-14-26(31)24(19-23)21-30;1-2(3)4/h9,11-14,18-19,27-28,30-32H,3-8,10,15-17,20-21H2,1-2H3;1H3,(H,3,4)/t27-;/m0./s1

>  <IUPAC Name>  (1) 
acetic acid;3-[4-[6-[[(2R)-2-hydroxy-2-[4-hydroxy-3-(hydroxymethyl)phenyl]ethyl]amino]hexoxy]butyl]-N,N-dimethylbenzenesulfonamide

$$$$
