
     RDKit          3D

 46 49  0  0  0  0  0  0  0  0999 V2000
   -7.9643    0.2456    0.1727 F   0  0  0  0  0  0  0  0  0  0  0  0
   -6.6800    0.3649   -0.2554 C   0  0  0  0  0  0  0  0  0  0  0  0
   -6.0846   -0.6986   -0.9013 C   0  0  0  0  0  0  0  0  0  0  0  0
   -4.7826   -0.6053   -1.3456 C   0  0  0  0  0  0  0  0  0  0  0  0
   -4.0755    0.5795   -1.1331 C   0  0  0  0  0  0  0  0  0  0  0  0
   -4.6513    1.6531   -0.4916 C   0  0  0  0  0  0  0  0  0  0  0  0
   -5.9731    1.5435   -0.0450 C   0  0  0  0  0  0  0  0  0  0  0  0
   -2.6847    0.5918   -1.6119 C   0  0  0  0  0  0  0  0  0  0  0  0
   -2.3526    1.1673   -2.6717 O   0  0  0  0  0  0  0  0  0  0  0  0
   -1.7085   -0.1014   -0.7914 N   0  0  0  0  0  0  0  0  0  0  0  0
   -0.3567   -0.0824   -1.2711 C   0  0  0  0  0  0  0  0  0  0  0  0
    0.6545   -0.6347   -0.3627 C   0  0  2  0  0  0  0  0  0  0  0  0
    0.1392   -1.1294    0.9929 C   0  0  0  0  0  0  0  0  0  0  0  0
   -1.1549   -1.8560    0.7425 C   0  0  0  0  0  0  0  0  0  0  0  0
   -2.1630   -0.7405    0.4214 C   0  0  1  0  0  0  0  0  0  0  0  0
   -2.1859    0.2644    1.5840 C   0  0  0  0  0  0  0  0  0  0  0  0
    1.8016    0.2801   -0.0644 C   0  0  0  0  0  0  0  0  0  0  0  0
    1.8217    1.5388    0.3865 N   0  0  0  0  0  0  0  0  0  0  0  0
    3.0713    1.9360    0.5799 O   0  0  0  0  0  0  0  0  0  0  0  0
    3.8724    0.9539    0.2629 C   0  0  0  0  0  0  0  0  0  0  0  0
    3.0872   -0.0942   -0.1479 N   0  0  0  0  0  0  0  0  0  0  0  0
    5.3208    0.8272    0.2952 C   0  0  0  0  0  0  0  0  0  0  0  0
    5.9762   -0.2844   -0.2713 C   0  0  0  0  0  0  0  0  0  0  0  0
    7.3286   -0.4097   -0.1822 C   0  0  0  0  0  0  0  0  0  0  0  0
    8.0712    0.5564    0.4694 C   0  0  0  0  0  0  0  0  0  0  0  0
    7.4125    1.6325    1.0162 C   0  0  0  0  0  0  0  0  0  0  0  0
    6.0647    1.7596    0.9259 N   0  0  0  0  0  0  0  0  0  0  0  0
    9.4101    0.4131    0.5538 F   0  0  0  0  0  0  0  0  0  0  0  0
   -6.6503   -1.6254   -1.0522 H   0  0  0  0  0  0  0  0  0  0  0  0
   -4.3653   -1.4597   -1.8480 H   0  0  0  0  0  0  0  0  0  0  0  0
   -4.0746    2.5636   -0.3387 H   0  0  0  0  0  0  0  0  0  0  0  0
   -6.4395    2.3789    0.4680 H   0  0  0  0  0  0  0  0  0  0  0  0
   -0.0516    0.9531   -1.5861 H   0  0  0  0  0  0  0  0  0  0  0  0
   -0.3641   -0.6463   -2.2576 H   0  0  0  0  0  0  0  0  0  0  0  0
    1.0448   -1.5891   -0.8411 H   0  0  0  0  0  0  0  0  0  0  0  0
   -0.0155   -0.2165    1.6212 H   0  0  0  0  0  0  0  0  0  0  0  0
    0.9044   -1.7389    1.5019 H   0  0  0  0  0  0  0  0  0  0  0  0
   -1.4839   -2.4429    1.6176 H   0  0  0  0  0  0  0  0  0  0  0  0
   -1.0609   -2.4829   -0.1558 H   0  0  0  0  0  0  0  0  0  0  0  0
   -3.1292   -1.2408    0.3494 H   0  0  0  0  0  0  0  0  0  0  0  0
   -1.8007   -0.1446    2.5229 H   0  0  0  0  0  0  0  0  0  0  0  0
   -1.6657    1.2028    1.2759 H   0  0  0  0  0  0  0  0  0  0  0  0
   -3.2458    0.5197    1.7612 H   0  0  0  0  0  0  0  0  0  0  0  0
    5.3581   -1.0273   -0.7800 H   0  0  0  0  0  0  0  0  0  0  0  0
    7.7945   -1.2873   -0.6451 H   0  0  0  0  0  0  0  0  0  0  0  0
    8.0309    2.3786    1.5297 H   0  0  0  0  0  0  0  0  0  0  0  0
  1  2  1  0
  2  3  2  0
  3  4  1  0
  4  5  2  0
  5  6  1  0
  6  7  2  0
  5  8  1  0
  8  9  2  0
  8 10  1  0
 10 11  1  0
 11 12  1  0
 12 13  1  0
 13 14  1  0
 14 15  1  0
 15 16  1  0
 12 17  1  0
 17 18  2  0
 18 19  1  0
 19 20  1  0
 20 21  2  0
 20 22  1  0
 22 23  2  0
 23 24  1  0
 24 25  2  0
 25 26  1  0
 26 27  2  0
 25 28  1  0
  7  2  1  0
 15 10  1  0
 21 17  1  0
 27 22  1  0
  3 29  1  0
  4 30  1  0
  6 31  1  0
  7 32  1  0
 11 33  1  0
 11 34  1  0
 12 35  1  6
 13 36  1  0
 13 37  1  0
 14 38  1  0
 14 39  1  0
 15 40  1  6
 16 41  1  0
 16 42  1  0
 16 43  1  0
 23 44  1  0
 24 45  1  0
 26 46  1  0
M  END
>  <Ligand ID>  (1) 
LIG0005233

>  <Ligand>  (1) 
5PAM523

>  <SMILES>  (1) 
Fc1ccc(cc1)C(=O)N1C[C@H](CC[C@H]1C)c1noc(n1)c1ccc(cn1)F

>  <CID>  (1) 
46946406.0

>  <ChEMBL ID>  (1) 
nan

>  <InChiKey>  (1) 
JOBPCEDWVKYVKZ-OCCSQVGLSA-N

>  <InChi>  (1) 
InChI=1S/C20H18F2N4O2/c1-12-2-3-14(11-26(12)20(27)13-4-6-15(21)7-5-13)18-24-19(28-25-18)17-9-8-16(22)10-23-17/h4-10,12,14H,2-3,11H2,1H3/t12-,14+/m1/s1

>  <IUPAC Name>  (1) 
(4-fluorophenyl)-[(2R,5S)-5-[5-(5-fluoropyridin-2-yl)-1,2,4-oxadiazol-3-yl]-2-methylpiperidin-1-yl]methanone

$$$$
