
     RDKit          3D

 28 29  0  0  0  0  0  0  0  0999 V2000
    4.1982   -0.1961   -0.1156 C   0  0  0  0  0  0  0  0  0  0  0  0
    2.9156    0.3153    0.4205 C   0  0  0  0  0  0  0  0  0  0  0  0
    2.9527    1.1477    1.3861 O   0  0  0  0  0  0  0  0  0  0  0  0
    1.7020   -0.0698   -0.0787 O   0  0  0  0  0  0  0  0  0  0  0  0
    0.4635    0.3484    0.3516 C   0  0  1  0  0  0  0  0  0  0  0  0
   -0.2275    1.1024   -0.7614 C   0  0  0  0  0  0  0  0  0  0  0  0
   -1.5870    0.6412   -0.9427 N   0  0  0  0  0  0  0  0  0  0  0  0
   -1.5535   -0.7408   -1.3788 C   0  0  0  0  0  0  0  0  0  0  0  0
   -1.0880   -1.5590   -0.2119 C   0  0  0  0  0  0  0  0  0  0  0  0
   -0.4726   -0.7007    0.8544 C   0  0  0  0  0  0  0  0  0  0  0  0
   -1.6413    0.0890    1.4585 C   0  0  0  0  0  0  0  0  0  0  0  0
   -2.3715    0.6950    0.2627 C   0  0  0  0  0  0  0  0  0  0  0  0
    4.2329   -0.2429   -1.2047 H   0  0  0  0  0  0  0  0  0  0  0  0
    4.3438   -1.2089    0.3466 H   0  0  0  0  0  0  0  0  0  0  0  0
    5.0510    0.4178    0.2408 H   0  0  0  0  0  0  0  0  0  0  0  0
    0.5868    1.0774    1.2012 H   0  0  0  0  0  0  0  0  0  0  0  0
   -0.2852    2.1963   -0.5627 H   0  0  0  0  0  0  0  0  0  0  0  0
    0.2962    0.9820   -1.7230 H   0  0  0  0  0  0  0  0  0  0  0  0
   -2.0556    1.2245   -1.6479 H   0  0  0  0  0  0  0  0  0  0  0  0
   -0.8955   -0.9197   -2.2303 H   0  0  0  0  0  0  0  0  0  0  0  0
   -2.6126   -0.9974   -1.6640 H   0  0  0  0  0  0  0  0  0  0  0  0
   -2.0023   -2.0122    0.2554 H   0  0  0  0  0  0  0  0  0  0  0  0
   -0.4601   -2.4249   -0.4990 H   0  0  0  0  0  0  0  0  0  0  0  0
   -0.0934   -1.3038    1.6835 H   0  0  0  0  0  0  0  0  0  0  0  0
   -1.1869    0.9116    2.0753 H   0  0  0  0  0  0  0  0  0  0  0  0
   -2.2855   -0.5848    2.0282 H   0  0  0  0  0  0  0  0  0  0  0  0
   -2.6413    1.7358    0.4868 H   0  0  0  0  0  0  0  0  0  0  0  0
   -3.2828    0.0764    0.1048 H   0  0  0  0  0  0  0  0  0  0  0  0
  1  2  1  0
  2  3  2  0
  2  4  1  0
  4  5  1  0
  5  6  1  0
  6  7  1  0
  7  8  1  0
  8  9  1  0
  9 10  1  0
 10 11  1  0
 11 12  1  0
 10  5  1  0
 12  7  1  0
  1 13  1  0
  1 14  1  0
  1 15  1  0
  5 16  1  1
  6 17  1  0
  6 18  1  0
  7 19  1  0
  8 20  1  0
  8 21  1  0
  9 22  1  0
  9 23  1  0
 10 24  1  0
 11 25  1  0
 11 26  1  0
 12 27  1  0
 12 28  1  0
M  CHG  1   7   1
M  END
>  <Ligand ID>  (1) 
LIG0000896

>  <Ligand>  (1) 
(-)-aceclidine

>  <SMILES>  (1) 
CC(=O)O[C@H]1C[NH+]2CCC1CC2

>  <CID>  (1) 
6979053.0

>  <ChEMBL ID>  (1) 
nan

>  <InChiKey>  (1) 
WRJPSSPFHGNBMG-VIFPVBQESA-O

>  <InChi>  (1) 
InChI=1S/C9H15NO2/c1-7(11)12-9-6-10-4-2-8(9)3-5-10/h8-9H,2-6H2,1H3/p+1/t9-/m0/s1

>  <IUPAC Name>  (1) 
[(3R)-1-azoniabicyclo[2.2.2]octan-3-yl] acetate

$$$$
