
     RDKit          3D

202210  0  0  0  0  0  0  0  0999 V2000
    7.8049   -6.8382   -1.6026 N   0  0  0  0  0  0  0  0  0  0  0  0
    7.8471   -5.3560   -1.5362 C   0  0  0  0  0  0  0  0  0  0  0  0
    7.0619   -4.7979   -0.8611 N   0  0  0  0  0  0  0  0  0  0  0  0
    6.1427   -4.2180   -0.0765 C   0  0  0  0  0  0  0  0  0  0  0  0
    6.5931   -3.0542    0.8059 C   0  0  0  0  0  0  0  0  0  0  0  0
    5.4741   -2.4161    1.5201 C   0  0  0  0  0  0  0  0  0  0  0  0
    4.4498   -1.6735    0.8288 C   0  0  2  0  0  0  0  0  0  0  0  0
    3.5770   -2.2564   -0.1485 N   0  0  0  0  0  0  0  0  0  0  0  0
    3.5355   -1.8506   -1.4912 C   0  0  0  0  0  0  0  0  0  0  0  0
    4.5636   -1.3555   -1.9952 O   0  0  0  0  0  0  0  0  0  0  0  0
    2.3523   -1.9679   -2.4061 C   0  0  1  0  0  0  0  0  0  0  0  0
    2.5562   -2.7296   -3.6462 C   0  0  0  0  0  0  0  0  0  0  0  0
    2.7795   -4.1862   -3.5003 C   0  0  0  0  0  0  0  0  0  0  0  0
    3.8911   -4.8340   -3.1314 C   0  0  0  0  0  0  0  0  0  0  0  0
    3.9323   -6.1929   -3.0862 C   0  0  0  0  0  0  0  0  0  0  0  0
    2.8528   -6.8989   -3.4207 C   0  0  0  0  0  0  0  0  0  0  0  0
    1.5699   -6.3446   -3.8499 C   0  0  0  0  0  0  0  0  0  0  0  0
    1.6940   -4.9420   -3.8355 C   0  0  0  0  0  0  0  0  0  0  0  0
    1.3403   -2.7422   -1.6257 N   0  0  0  0  0  0  0  0  0  0  0  0
    0.1414   -2.2501   -1.1076 C   0  0  0  0  0  0  0  0  0  0  0  0
   -0.0528   -1.0265   -1.3191 O   0  0  0  0  0  0  0  0  0  0  0  0
   -0.7682   -3.1505   -0.3791 C   0  0  0  0  0  0  0  0  0  0  0  0
   -0.0164   -3.3806    0.9556 C   0  0  0  0  0  0  0  0  0  0  0  0
    0.5368   -4.7218    1.1571 C   0  0  0  0  0  0  0  0  0  0  0  0
   -0.5855   -5.7374    0.9528 C   0  0  0  0  0  0  0  0  0  0  0  0
   -1.2995   -5.5524   -0.1545 C   0  0  0  0  0  0  0  0  0  0  0  0
   -0.9612   -4.4446   -1.0858 C   0  0  0  0  0  0  0  0  0  0  0  0
   -2.3576   -6.4515   -0.3884 C   0  0  0  0  0  0  0  0  0  0  0  0
   -2.6035   -7.4871    0.5353 C   0  0  0  0  0  0  0  0  0  0  0  0
   -1.7513   -7.5838    1.6875 C   0  0  0  0  0  0  0  0  0  0  0  0
   -0.7312   -6.6903    1.8937 C   0  0  0  0  0  0  0  0  0  0  0  0
   -2.0479   -2.5495   -0.0261 N   0  0  0  0  0  0  0  0  0  0  0  0
   -2.7369   -1.4793   -0.5086 C   0  0  0  0  0  0  0  0  0  0  0  0
   -2.3639   -0.8374   -1.4589 O   0  0  0  0  0  0  0  0  0  0  0  0
   -4.0438   -0.9536    0.1346 C   0  0  1  0  0  0  0  0  0  0  0  0
   -4.4879   -1.9713    1.0182 N   0  0  0  0  0  0  0  0  0  0  0  0
   -4.8733   -2.0842    2.3623 C   0  0  0  0  0  0  0  0  0  0  0  0
   -4.9618   -1.3704    3.2821 O   0  0  0  0  0  0  0  0  0  0  0  0
   -5.2835   -3.6132    2.6330 C   0  0  2  0  0  0  0  0  0  0  0  0
   -6.6146   -3.6488    1.9886 C   0  0  0  0  0  0  0  0  0  0  0  0
   -7.3990   -4.8487    1.8477 C   0  0  0  0  0  0  0  0  0  0  0  0
   -7.2720   -5.4950    0.5557 C   0  0  0  0  0  0  0  0  0  0  0  0
   -8.0805   -6.6265    0.3001 C   0  0  0  0  0  0  0  0  0  0  0  0
   -8.9651   -7.1503    1.1789 C   0  0  0  0  0  0  0  0  0  0  0  0
   -9.1035   -6.4984    2.5164 C   0  0  0  0  0  0  0  0  0  0  0  0
   -8.2887   -5.4602    2.6129 C   0  0  0  0  0  0  0  0  0  0  0  0
   -9.8108   -8.2197    1.0618 O   0  0  0  0  0  0  0  0  0  0  0  0
   -5.4146   -3.5951    4.0861 N   0  0  0  0  0  0  0  0  0  0  0  0
   -3.5921    0.3601    0.6320 C   0  0  0  0  0  0  0  0  0  0  0  0
   -4.3423    1.4045    1.2067 C   0  0  0  0  0  0  0  0  0  0  0  0
   -4.5317    1.3682    2.4968 O   0  0  0  0  0  0  0  0  0  0  0  0
   -4.9991    2.5429    0.7419 N   0  0  0  0  0  0  0  0  0  0  0  0
   -5.5867    2.6800   -0.5109 C   0  0  2  0  0  0  0  0  0  0  0  0
   -6.9259    1.8751   -0.4539 C   0  0  0  0  0  0  0  0  0  0  0  0
   -6.8799    0.7317    0.1072 O   0  0  0  0  0  0  0  0  0  0  0  0
   -8.0876    2.4310   -0.9959 N   0  0  0  0  0  0  0  0  0  0  0  0
   -4.9185    2.1868   -1.7612 C   0  0  0  0  0  0  0  0  0  0  0  0
   -5.8635    2.5780   -2.8684 C   0  0  0  0  0  0  0  0  0  0  0  0
   -6.9127    1.8082   -3.3232 C   0  0  0  0  0  0  0  0  0  0  0  0
   -7.8415    2.2202   -4.2406 C   0  0  0  0  0  0  0  0  0  0  0  0
   -7.6874    3.5027   -4.7403 C   0  0  0  0  0  0  0  0  0  0  0  0
   -6.6469    4.3261   -4.3394 C   0  0  0  0  0  0  0  0  0  0  0  0
   -5.7155    3.8443   -3.3675 C   0  0  0  0  0  0  0  0  0  0  0  0
   -8.5708    4.0547   -5.6879 O   0  0  0  0  0  0  0  0  0  0  0  0
   -4.9803    3.8033    1.5646 C   0  0  2  0  0  0  0  0  0  0  0  0
   -5.9856    4.7919    0.9837 C   0  0  0  0  0  0  0  0  0  0  0  0
   -3.6315    4.3311    1.2502 N   0  0  0  0  0  0  0  0  0  0  0  0
   -2.4141    3.9090    1.8234 C   0  0  0  0  0  0  0  0  0  0  0  0
   -2.4378    3.0133    2.6629 O   0  0  0  0  0  0  0  0  0  0  0  0
   -1.0846    4.4560    1.5172 C   0  0  1  0  0  0  0  0  0  0  0  0
   -0.9323    4.9350    0.1564 N   0  0  0  0  0  0  0  0  0  0  0  0
    0.3777    5.0692   -0.3222 C   0  0  0  0  0  0  0  0  0  0  0  0
    1.2671    4.8751    0.5777 O   0  0  0  0  0  0  0  0  0  0  0  0
    0.8977    5.3945   -1.6614 C   0  0  1  0  0  0  0  0  0  0  0  0
    2.3300    5.5581   -1.4100 N   0  0  0  0  0  0  0  0  0  0  0  0
    3.2485    4.5091   -1.1373 C   0  0  0  0  0  0  0  0  0  0  0  0
    2.8837    3.3641   -1.3825 O   0  0  0  0  0  0  0  0  0  0  0  0
    4.5598    4.9392   -0.5714 C   0  0  1  0  0  0  0  0  0  0  0  0
    5.4377    3.9103   -0.1083 N   0  0  0  0  0  0  0  0  0  0  0  0
    5.0855    2.6767    0.5166 C   0  0  0  0  0  0  0  0  0  0  0  0
    3.8831    2.4372    0.5783 O   0  0  0  0  0  0  0  0  0  0  0  0
    6.1939    1.8274    1.0104 C   0  0  1  0  0  0  0  0  0  0  0  0
    5.7568    0.4814    1.3279 N   0  0  0  0  0  0  0  0  0  0  0  0
    4.8466   -0.2727    0.4324 C   0  0  0  0  0  0  0  0  0  0  0  0
    4.5304    0.3659   -0.5444 O   0  0  0  0  0  0  0  0  0  0  0  0
    7.5064    1.8982    0.3518 C   0  0  0  0  0  0  0  0  0  0  0  0
    8.5150    1.0968    1.0715 C   0  0  0  0  0  0  0  0  0  0  0  0
    9.1229   -0.1559    0.8319 C   0  0  0  0  0  0  0  0  0  0  0  0
    9.9946   -0.4347    1.8823 N   0  0  0  0  0  0  0  0  0  0  0  0
    9.9229    0.6766    2.8026 C   0  0  0  0  0  0  0  0  0  0  0  0
    9.0744    1.4579    2.2420 C   0  0  0  0  0  0  0  0  0  0  0  0
    8.8203    2.6470    2.9585 C   0  0  0  0  0  0  0  0  0  0  0  0
    9.4669    2.8902    4.1807 C   0  0  0  0  0  0  0  0  0  0  0  0
   10.3357    1.9873    4.6773 C   0  0  0  0  0  0  0  0  0  0  0  0
   10.6444    0.7292    3.9585 C   0  0  0  0  0  0  0  0  0  0  0  0
    5.2675    5.9828   -1.3863 C   0  0  0  0  0  0  0  0  0  0  0  0
    5.5857    5.5555   -2.7619 C   0  0  0  0  0  0  0  0  0  0  0  0
    5.2366    4.3229   -3.0266 O   0  0  0  0  0  0  0  0  0  0  0  0
    6.1946    6.3048   -3.7667 N   0  0  0  0  0  0  0  0  0  0  0  0
    0.5477    4.4774   -2.7651 C   0  0  0  0  0  0  0  0  0  0  0  0
   -0.9605    5.7047    2.4521 C   0  0  0  0  0  0  0  0  0  0  0  0
   -2.0483    6.6643    2.0340 C   0  0  0  0  0  0  0  0  0  0  0  0
   -1.7629    7.3975    0.9268 C   0  0  0  0  0  0  0  0  0  0  0  0
   -2.8014    8.2861    0.5097 C   0  0  0  0  0  0  0  0  0  0  0  0
   -3.9728    8.3827    1.1935 C   0  0  0  0  0  0  0  0  0  0  0  0
   -4.1676    7.5889    2.3374 C   0  0  0  0  0  0  0  0  0  0  0  0
   -3.2495    6.7582    2.7420 C   0  0  0  0  0  0  0  0  0  0  0  0
   -5.1510    3.6478    2.9593 C   0  0  0  0  0  0  0  0  0  0  0  0
   -4.3709    3.8006    3.9249 O   0  0  0  0  0  0  0  0  0  0  0  0
   -6.4520    3.2360    3.4071 O   0  0  0  0  0  0  0  0  0  0  0  0
    8.8437   -4.6956   -2.3355 N   0  0  0  0  0  0  0  0  0  0  0  0
    6.9781   -7.3071   -1.9878 H   0  0  0  0  0  0  0  0  0  0  0  0
    8.6623   -7.2927   -1.2238 H   0  0  0  0  0  0  0  0  0  0  0  0
    5.7038   -5.0072    0.6777 H   0  0  0  0  0  0  0  0  0  0  0  0
    5.1900   -3.9451   -0.6038 H   0  0  0  0  0  0  0  0  0  0  0  0
    7.2776   -3.5315    1.5729 H   0  0  0  0  0  0  0  0  0  0  0  0
    7.2336   -2.3633    0.2297 H   0  0  0  0  0  0  0  0  0  0  0  0
    4.8868   -3.2979    2.0328 H   0  0  0  0  0  0  0  0  0  0  0  0
    5.8149   -1.8958    2.4675 H   0  0  0  0  0  0  0  0  0  0  0  0
    3.6726   -1.3772    1.6423 H   0  0  0  0  0  0  0  0  0  0  0  0
    2.9417   -3.0501    0.0913 H   0  0  0  0  0  0  0  0  0  0  0  0
    1.9948   -0.9714   -2.6210 H   0  0  0  0  0  0  0  0  0  0  0  0
    1.6827   -2.5236   -4.3248 H   0  0  0  0  0  0  0  0  0  0  0  0
    3.4332   -2.3023   -4.2380 H   0  0  0  0  0  0  0  0  0  0  0  0
    4.7677   -4.2205   -2.8536 H   0  0  0  0  0  0  0  0  0  0  0  0
    4.8407   -6.7396   -2.7767 H   0  0  0  0  0  0  0  0  0  0  0  0
    2.7673   -8.0001   -3.4345 H   0  0  0  0  0  0  0  0  0  0  0  0
    0.7670   -6.9156   -4.0943 H   0  0  0  0  0  0  0  0  0  0  0  0
    0.7525   -4.4506   -4.1498 H   0  0  0  0  0  0  0  0  0  0  0  0
    1.6050   -3.7030   -1.4491 H   0  0  0  0  0  0  0  0  0  0  0  0
   -0.7625   -3.1821    1.7806 H   0  0  0  0  0  0  0  0  0  0  0  0
    0.8101   -2.6179    1.0903 H   0  0  0  0  0  0  0  0  0  0  0  0
    1.3484   -5.0329    0.4943 H   0  0  0  0  0  0  0  0  0  0  0  0
    0.9047   -4.7795    2.2157 H   0  0  0  0  0  0  0  0  0  0  0  0
   -1.7181   -4.3630   -1.9020 H   0  0  0  0  0  0  0  0  0  0  0  0
   -0.0235   -4.7561   -1.5667 H   0  0  0  0  0  0  0  0  0  0  0  0
   -2.9749   -6.3409   -1.2739 H   0  0  0  0  0  0  0  0  0  0  0  0
   -3.3623   -8.2125    0.4044 H   0  0  0  0  0  0  0  0  0  0  0  0
   -1.9614   -8.3896    2.3615 H   0  0  0  0  0  0  0  0  0  0  0  0
   -0.1317   -6.8002    2.7620 H   0  0  0  0  0  0  0  0  0  0  0  0
   -2.5521   -3.1195    0.7297 H   0  0  0  0  0  0  0  0  0  0  0  0
   -4.7770   -0.7995   -0.6383 H   0  0  0  0  0  0  0  0  0  0  0  0
   -4.5656   -2.9239    0.4654 H   0  0  0  0  0  0  0  0  0  0  0  0
   -4.4491   -4.1665    2.2480 H   0  0  0  0  0  0  0  0  0  0  0  0
   -7.2233   -2.8736    2.5817 H   0  0  0  0  0  0  0  0  0  0  0  0
   -6.5548   -3.1219    0.9677 H   0  0  0  0  0  0  0  0  0  0  0  0
   -6.5797   -5.1633   -0.1670 H   0  0  0  0  0  0  0  0  0  0  0  0
   -8.0010   -7.0895   -0.6902 H   0  0  0  0  0  0  0  0  0  0  0  0
   -9.7992   -6.9096    3.1865 H   0  0  0  0  0  0  0  0  0  0  0  0
   -8.3573   -4.9583    3.6651 H   0  0  0  0  0  0  0  0  0  0  0  0
  -10.7509   -8.1875    1.4969 H   0  0  0  0  0  0  0  0  0  0  0  0
   -4.8773   -4.4426    4.4472 H   0  0  0  0  0  0  0  0  0  0  0  0
   -4.9001   -2.7827    4.5325 H   0  0  0  0  0  0  0  0  0  0  0  0
   -2.8445    0.7939   -0.1648 H   0  0  0  0  0  0  0  0  0  0  0  0
   -2.7725    0.1069    1.4269 H   0  0  0  0  0  0  0  0  0  0  0  0
   -5.9485    3.7351   -0.7238 H   0  0  0  0  0  0  0  0  0  0  0  0
   -8.2466    3.4086   -1.2848 H   0  0  0  0  0  0  0  0  0  0  0  0
   -8.9124    1.7631   -1.1472 H   0  0  0  0  0  0  0  0  0  0  0  0
   -3.9510    2.6505   -1.9624 H   0  0  0  0  0  0  0  0  0  0  0  0
   -4.8884    1.0798   -1.8250 H   0  0  0  0  0  0  0  0  0  0  0  0
   -6.9882    0.7858   -2.9155 H   0  0  0  0  0  0  0  0  0  0  0  0
   -8.6493    1.5993   -4.5701 H   0  0  0  0  0  0  0  0  0  0  0  0
   -6.5282    5.3112   -4.7631 H   0  0  0  0  0  0  0  0  0  0  0  0
   -4.9590    4.5463   -3.1022 H   0  0  0  0  0  0  0  0  0  0  0  0
   -9.1507    4.8851   -5.4338 H   0  0  0  0  0  0  0  0  0  0  0  0
   -6.9145    4.2594    0.8070 H   0  0  0  0  0  0  0  0  0  0  0  0
   -5.5618    5.4197    0.2236 H   0  0  0  0  0  0  0  0  0  0  0  0
   -6.2301    5.4865    1.8698 H   0  0  0  0  0  0  0  0  0  0  0  0
   -3.5270    5.0662    0.5176 H   0  0  0  0  0  0  0  0  0  0  0  0
   -0.2990    3.8144    1.8455 H   0  0  0  0  0  0  0  0  0  0  0  0
   -1.7092    5.1685   -0.4374 H   0  0  0  0  0  0  0  0  0  0  0  0
    0.5204    6.4573   -1.9030 H   0  0  0  0  0  0  0  0  0  0  0  0
    2.7315    6.5007   -1.4717 H   0  0  0  0  0  0  0  0  0  0  0  0
    4.1730    5.5238    0.3755 H   0  0  0  0  0  0  0  0  0  0  0  0
    6.4498    4.0945   -0.1795 H   0  0  0  0  0  0  0  0  0  0  0  0
    6.3240    2.2731    2.0759 H   0  0  0  0  0  0  0  0  0  0  0  0
    6.0040   -0.0141    2.1608 H   0  0  0  0  0  0  0  0  0  0  0  0
    7.8989    2.9544    0.4052 H   0  0  0  0  0  0  0  0  0  0  0  0
    7.4974    1.6599   -0.7403 H   0  0  0  0  0  0  0  0  0  0  0  0
    8.9083   -0.7434   -0.0311 H   0  0  0  0  0  0  0  0  0  0  0  0
   10.5823   -1.2652    2.0036 H   0  0  0  0  0  0  0  0  0  0  0  0
    8.1661    3.4201    2.6344 H   0  0  0  0  0  0  0  0  0  0  0  0
    9.2671    3.8297    4.6828 H   0  0  0  0  0  0  0  0  0  0  0  0
   10.8115    2.1582    5.6103 H   0  0  0  0  0  0  0  0  0  0  0  0
   11.3234    0.0487    4.3853 H   0  0  0  0  0  0  0  0  0  0  0  0
    6.2089    6.2177   -0.8090 H   0  0  0  0  0  0  0  0  0  0  0  0
    4.6776    6.9177   -1.3631 H   0  0  0  0  0  0  0  0  0  0  0  0
    6.6837    5.8965   -4.5994 H   0  0  0  0  0  0  0  0  0  0  0  0
    6.2108    7.3567   -3.7308 H   0  0  0  0  0  0  0  0  0  0  0  0
   -0.5804    4.4634   -2.8547 H   0  0  0  0  0  0  0  0  0  0  0  0
    1.0047    3.5024   -2.6497 H   0  0  0  0  0  0  0  0  0  0  0  0
    0.8872    5.0025   -3.7210 H   0  0  0  0  0  0  0  0  0  0  0  0
   -1.2131    5.3058    3.4424 H   0  0  0  0  0  0  0  0  0  0  0  0
    0.0094    6.1387    2.4656 H   0  0  0  0  0  0  0  0  0  0  0  0
   -0.9073    7.4228    0.3147 H   0  0  0  0  0  0  0  0  0  0  0  0
   -2.6379    8.9098   -0.3850 H   0  0  0  0  0  0  0  0  0  0  0  0
   -4.7885    9.0630    0.9647 H   0  0  0  0  0  0  0  0  0  0  0  0
   -5.1362    7.6684    2.8760 H   0  0  0  0  0  0  0  0  0  0  0  0
   -3.3399    6.1499    3.6134 H   0  0  0  0  0  0  0  0  0  0  0  0
   -6.5121    3.0301    4.4029 H   0  0  0  0  0  0  0  0  0  0  0  0
    8.7363   -4.6089   -3.3911 H   0  0  0  0  0  0  0  0  0  0  0  0
    9.7124   -4.2698   -1.9283 H   0  0  0  0  0  0  0  0  0  0  0  0
  1  2  1  0
  2  3  2  3
  3  4  1  0
  4  5  1  0
  5  6  1  0
  6  7  1  0
  7  8  1  0
  8  9  1  0
  9 10  2  0
  9 11  1  0
 11 12  1  0
 12 13  1  0
 13 14  2  0
 14 15  1  0
 15 16  2  0
 16 17  1  0
 17 18  2  0
 11 19  1  0
 19 20  1  0
 20 21  2  0
 20 22  1  0
 22 23  1  0
 23 24  1  0
 24 25  1  0
 25 26  2  0
 26 27  1  0
 26 28  1  0
 28 29  2  0
 29 30  1  0
 30 31  2  0
 22 32  1  0
 32 33  1  0
 33 34  2  0
 33 35  1  0
 35 36  1  0
 36 37  1  0
 37 38  2  0
 37 39  1  0
 39 40  1  0
 40 41  1  0
 41 42  2  0
 42 43  1  0
 43 44  2  0
 44 45  1  0
 45 46  2  0
 44 47  1  0
 39 48  1  0
 35 49  1  0
 49 50  1  0
 50 51  2  0
 50 52  1  0
 52 53  1  0
 53 54  1  0
 54 55  2  0
 54 56  1  0
 53 57  1  0
 57 58  1  0
 58 59  2  0
 59 60  1  0
 60 61  2  0
 61 62  1  0
 62 63  2  0
 61 64  1  0
 52 65  1  0
 65 66  1  6
 65 67  1  0
 67 68  1  0
 68 69  2  0
 68 70  1  0
 70 71  1  0
 71 72  1  0
 72 73  2  0
 72 74  1  0
 74 75  1  0
 75 76  1  0
 76 77  2  0
 76 78  1  0
 78 79  1  0
 79 80  1  0
 80 81  2  0
 80 82  1  0
 82 83  1  0
 83 84  1  0
 84 85  2  0
 82 86  1  0
 86 87  1  0
 87 88  2  0
 88 89  1  0
 89 90  1  0
 90 91  2  0
 91 92  1  0
 92 93  2  0
 93 94  1  0
 94 95  2  0
 78 96  1  0
 96 97  1  0
 97 98  2  0
 97 99  1  0
 74100  1  0
 70101  1  0
101102  1  0
102103  2  0
103104  1  0
104105  2  0
105106  1  0
106107  2  0
 65108  1  0
108109  2  0
108110  1  0
  2111  1  0
 84  7  1  0
 91 87  1  0
107102  1  0
 18 13  1  0
 27 22  1  0
 46 41  1  0
 63 58  1  0
 95 90  1  0
 31 25  1  0
  1112  1  0
  1113  1  0
  4114  1  0
  4115  1  0
  5116  1  0
  5117  1  0
  6118  1  0
  6119  1  0
  7120  1  1
  8121  1  0
 11122  1  6
 12123  1  0
 12124  1  0
 14125  1  0
 15126  1  0
 16127  1  0
 17128  1  0
 18129  1  0
 19130  1  0
 23131  1  0
 23132  1  0
 24133  1  0
 24134  1  0
 27135  1  0
 27136  1  0
 28137  1  0
 29138  1  0
 30139  1  0
 31140  1  0
 32141  1  0
 35142  1  6
 36143  1  0
 39144  1  1
 40145  1  0
 40146  1  0
 42147  1  0
 43148  1  0
 45149  1  0
 46150  1  0
 47151  1  0
 48152  1  0
 48153  1  0
 49154  1  0
 49155  1  0
 53156  1  6
 56157  1  0
 56158  1  0
 57159  1  0
 57160  1  0
 59161  1  0
 60162  1  0
 62163  1  0
 63164  1  0
 64165  1  0
 66166  1  0
 66167  1  0
 66168  1  0
 67169  1  0
 70170  1  1
 71171  1  0
 74172  1  6
 75173  1  0
 78174  1  1
 79175  1  0
 82176  1  1
 83177  1  0
 86178  1  0
 86179  1  0
 88180  1  0
 89181  1  0
 92182  1  0
 93183  1  0
 94184  1  0
 95185  1  0
 96186  1  0
 96187  1  0
 99188  1  0
 99189  1  0
100190  1  0
100191  1  0
100192  1  0
101193  1  0
101194  1  0
103195  1  0
104196  1  0
105197  1  0
106198  1  0
107199  1  0
110200  1  0
111201  1  0
111202  1  0
M  END
>  <Ligand ID>  (1) 
LIG0002282

>  <Ligand>  (1) 
CHEMBL2369961

>  <SMILES>  (1) 
NC(=NCCC[C@@H]1NC(=O)[C@@H](Cc2ccccc2)NC(=O)C2(CCc3c(C2)cccc3)NC(=O)[C@@H](NC(=O)[C@H](Cc2ccc(cc2)O)N)CC(=O)N([C@H](C(=O)N)Cc2ccc(cc2)O)[C@](C)(NC(=O)[C@@H](NC(=O)[C@@H](NC(=O)[C@@H](NC(=O)[C@@H](NC1=O)Cc1c[nH]c2c1cccc2)CC(=O)N)C)Cc1ccccc1)C(=O)O)N

>  <CID>  (1) 
73350032.0

>  <ChEMBL ID>  (1) 
nan

>  <InChiKey>  (1) 
VDJFVHLGBIRCKY-WWFHXNRISA-N

>  <InChi>  (1) 
InChI=1S/C78H91N17O16/c1-43-66(101)88-58(36-45-16-7-4-8-17-45)72(107)93-77(2,75(110)111)95(62(65(81)100)37-47-25-29-52(97)30-26-47)64(99)40-61(89-67(102)54(79)34-46-23-27-51(96)28-24-46)73(108)94-78(32-31-48-18-9-10-19-49(48)41-78)74(109)92-57(35-44-14-5-3-6-15-44)70(105)87-56(22-13-33-84-76(82)83)68(103)90-59(38-50-42-85-55-21-12-11-20-53(50)55)71(106)91-60(39-63(80)98)69(104)86-43/h3-12,14-21,23-30,42-43,54,56-62,85,96-97H,13,22,31-41,79H2,1-2H3,(H2,80,98)(H2,81,100)(H,86,104)(H,87,105)(H,88,101)(H,89,102)(H,90,103)(H,91,106)(H,92,109)(H,93,107)(H,94,108)(H,110,111)(H4,82,83,84)/t43-,54-,56-,57+,58-,59-,60-,61-,62-,77-,78?/m0/s1

>  <IUPAC Name>  (1) 
(2S,5S,8S,11S,14S,17S,20R,26S)-1-[(2S)-1-amino-3-(4-hydroxyphenyl)-1-oxopropan-2-yl]-26-[[(2S)-2-amino-3-(4-hydroxyphenyl)propanoyl]amino]-11-(2-amino-2-oxoethyl)-5,20-dibenzyl-17-[3-(diaminomethylideneamino)propyl]-14-(1H-indol-3-ylmethyl)-2,8-dimethyl-4,7,10,13,16,19,22,25,28-nonaoxospiro[1,3,6,9,12,15,18,21,24-nonazacyclooctacosane-23,3'-2,4-dihydro-1H-naphthalene]-2-carboxylic acid

$$$$
