
     RDKit          3D

 67 73  0  0  0  0  0  0  0  0999 V2000
    1.2616    1.7340    2.3241 C   0  0  0  0  0  0  0  0  0  0  0  0
    1.4626    0.8438    1.2729 O   0  0  0  0  0  0  0  0  0  0  0  0
    0.3286    0.1513    0.9313 C   0  0  2  0  0  0  0  0  0  0  0  0
   -0.1514   -0.6616    2.1720 C   0  0  0  0  0  0  0  0  0  0  0  0
   -1.3462   -1.2594    1.9437 C   0  0  0  0  0  0  0  0  0  0  0  0
   -1.7516   -1.2664    0.5166 C   0  0  2  0  0  0  0  0  0  0  0  0
   -0.5683   -1.8961   -0.2101 C   0  0  0  0  0  0  0  0  0  0  0  0
    0.6681   -1.1014    0.1288 C   0  0  1  0  0  0  0  0  0  0  0  0
    1.6865   -0.9187   -0.9408 C   0  0  1  0  0  0  0  0  0  0  0  0
    2.9252   -0.4833   -0.4771 O   0  0  0  0  0  0  0  0  0  0  0  0
    3.4590    0.5811   -1.1431 C   0  0  0  0  0  0  0  0  0  0  0  0
    4.7779    0.8904   -0.5008 C   0  0  0  0  0  0  0  0  0  0  0  0
    5.9078    0.2668   -0.9794 C   0  0  0  0  0  0  0  0  0  0  0  0
    7.1455    0.5489   -0.3875 C   0  0  0  0  0  0  0  0  0  0  0  0
    7.2725    1.4302    0.6589 C   0  0  0  0  0  0  0  0  0  0  0  0
    6.1198    2.0365    1.1126 C   0  0  0  0  0  0  0  0  0  0  0  0
    4.8974    1.7763    0.5493 C   0  0  0  0  0  0  0  0  0  0  0  0
    2.0701   -2.2599   -1.5899 C   0  0  0  0  0  0  0  0  0  0  0  0
   -1.7727    0.0590   -0.1167 C   0  0  0  0  0  0  0  0  0  0  0  0
   -0.7941    0.9130    0.6202 C   0  0  2  0  0  0  0  0  0  0  0  0
   -1.1253    2.1082   -0.0416 O   0  0  0  0  0  0  0  0  0  0  0  0
   -2.5044    2.1953    0.1646 C   0  0  0  0  0  0  0  0  0  0  0  0
   -2.9187    0.8891    0.2233 C   0  0  0  0  0  0  0  0  0  0  0  0
   -4.1488    0.4128    0.4258 C   0  0  0  0  0  0  0  0  0  0  0  0
   -4.2995   -1.0602    0.5352 C   0  0  0  0  0  0  0  0  0  0  0  0
   -3.0618   -1.8388    0.1634 C   0  0  1  0  0  0  0  0  0  0  0  0
   -3.0224   -2.0369   -1.2722 N   0  0  0  0  0  0  0  0  0  0  0  0
   -2.8166   -0.9098   -2.0536 C   0  0  0  0  0  0  0  0  0  0  0  0
   -1.8028    0.1024   -1.5811 C   0  0  0  0  0  0  0  0  0  0  0  0
   -2.7830   -3.3280   -1.7446 C   0  0  0  0  0  0  0  0  0  0  0  0
   -5.1599    1.3378    0.5911 C   0  0  0  0  0  0  0  0  0  0  0  0
   -4.8454    2.7173    0.5410 C   0  0  0  0  0  0  0  0  0  0  0  0
   -3.5094    3.1297    0.3271 C   0  0  0  0  0  0  0  0  0  0  0  0
   -3.1459    4.4569    0.2712 O   0  0  0  0  0  0  0  0  0  0  0  0
    2.2283    2.2387    2.5224 H   0  0  0  0  0  0  0  0  0  0  0  0
    0.9344    1.2624    3.2613 H   0  0  0  0  0  0  0  0  0  0  0  0
    0.5571    2.5179    1.9765 H   0  0  0  0  0  0  0  0  0  0  0  0
    0.4105   -0.7136    3.0533 H   0  0  0  0  0  0  0  0  0  0  0  0
   -1.9294   -1.6836    2.7456 H   0  0  0  0  0  0  0  0  0  0  0  0
   -0.5513   -2.9523    0.1298 H   0  0  0  0  0  0  0  0  0  0  0  0
   -0.7291   -1.9775   -1.3046 H   0  0  0  0  0  0  0  0  0  0  0  0
    1.2503   -1.8196    0.8105 H   0  0  0  0  0  0  0  0  0  0  0  0
    1.3914   -0.2702   -1.7638 H   0  0  0  0  0  0  0  0  0  0  0  0
    2.8428    1.4903   -0.9970 H   0  0  0  0  0  0  0  0  0  0  0  0
    3.6809    0.3861   -2.2111 H   0  0  0  0  0  0  0  0  0  0  0  0
    5.8187   -0.4304   -1.8050 H   0  0  0  0  0  0  0  0  0  0  0  0
    7.9882    0.0119   -0.8275 H   0  0  0  0  0  0  0  0  0  0  0  0
    8.2548    1.6232    1.0929 H   0  0  0  0  0  0  0  0  0  0  0  0
    6.1856    2.7343    1.9338 H   0  0  0  0  0  0  0  0  0  0  0  0
    3.9829    2.2419    0.8906 H   0  0  0  0  0  0  0  0  0  0  0  0
    2.6000   -2.9014   -0.8600 H   0  0  0  0  0  0  0  0  0  0  0  0
    2.8265   -1.9937   -2.3771 H   0  0  0  0  0  0  0  0  0  0  0  0
    1.2368   -2.7346   -2.1094 H   0  0  0  0  0  0  0  0  0  0  0  0
   -1.2499    1.1846    1.6241 H   0  0  0  0  0  0  0  0  0  0  0  0
   -5.1088   -1.3831   -0.1525 H   0  0  0  0  0  0  0  0  0  0  0  0
   -4.6235   -1.2853    1.5875 H   0  0  0  0  0  0  0  0  0  0  0  0
   -3.1611   -2.8436    0.6211 H   0  0  0  0  0  0  0  0  0  0  0  0
   -2.5596   -1.2460   -3.0984 H   0  0  0  0  0  0  0  0  0  0  0  0
   -3.8189   -0.4074   -2.2057 H   0  0  0  0  0  0  0  0  0  0  0  0
   -2.1464    1.0961   -1.9624 H   0  0  0  0  0  0  0  0  0  0  0  0
   -0.8878   -0.0752   -2.1542 H   0  0  0  0  0  0  0  0  0  0  0  0
   -3.7826   -3.7835   -2.0164 H   0  0  0  0  0  0  0  0  0  0  0  0
   -2.4291   -4.0089   -0.9151 H   0  0  0  0  0  0  0  0  0  0  0  0
   -2.1001   -3.4282   -2.6211 H   0  0  0  0  0  0  0  0  0  0  0  0
   -6.1620    0.9932    0.7541 H   0  0  0  0  0  0  0  0  0  0  0  0
   -5.6180    3.4613    0.6647 H   0  0  0  0  0  0  0  0  0  0  0  0
   -3.7859    5.1358    0.6599 H   0  0  0  0  0  0  0  0  0  0  0  0
  1  2  1  0
  3  2  1  1
  3  4  1  0
  4  5  2  0
  5  6  1  0
  6  7  1  6
  7  8  1  0
  8  9  1  0
  9 10  1  0
 10 11  1  0
 11 12  1  0
 12 13  2  0
 13 14  1  0
 14 15  2  0
 15 16  1  0
 16 17  2  0
  9 18  1  0
  6 19  1  0
 19 20  1  0
 20 21  1  0
 21 22  1  0
 22 23  2  0
 23 24  1  0
 24 25  1  0
 25 26  1  0
 26 27  1  0
 27 28  1  0
 28 29  1  0
 27 30  1  0
 24 31  2  0
 31 32  1  0
 32 33  2  0
 33 34  1  0
  8  3  1  0
 17 12  1  0
 29 19  1  0
 20  3  1  0
 33 22  1  0
 26  6  1  0
 23 19  1  0
  1 35  1  0
  1 36  1  0
  1 37  1  0
  4 38  1  0
  5 39  1  0
  7 40  1  0
  7 41  1  0
  8 42  1  1
  9 43  1  6
 11 44  1  0
 11 45  1  0
 13 46  1  0
 14 47  1  0
 15 48  1  0
 16 49  1  0
 17 50  1  0
 18 51  1  0
 18 52  1  0
 18 53  1  0
 20 54  1  1
 25 55  1  0
 25 56  1  0
 26 57  1  1
 28 58  1  0
 28 59  1  0
 29 60  1  0
 29 61  1  0
 30 62  1  0
 30 63  1  0
 30 64  1  0
 31 65  1  0
 32 66  1  0
 34 67  1  0
M  END
>  <Ligand ID>  (1) 
LIG0002131

>  <Ligand>  (1) 
CHEMBL2113672

>  <SMILES>  (1) 
CO[C@]12C=C[C@]3(C[C@H]1[C@@H](OCc1ccccc1)C)C14[C@@H]2Oc2c4c(C[C@H]3N(CC1)C)ccc2O

>  <CID>  (1) 
71450939.0

>  <ChEMBL ID>  (1) 
nan

>  <InChiKey>  (1) 
CPYPBXTZJKPBSH-DBEKVCBCSA-N

>  <InChi>  (1) 
InChI=1S/C29H33NO4/c1-18(33-17-19-7-5-4-6-8-19)21-16-27-11-12-29(21,32-3)26-28(27)13-14-30(2)23(27)15-20-9-10-22(31)25(34-26)24(20)28/h4-12,18,21,23,26,31H,13-17H2,1-3H3/t18-,21-,23+,26-,27+,28?,29+/m0/s1

>  <IUPAC Name>  (1) 
(1R,6R,14S,15R,19S)-15-methoxy-5-methyl-19-[(1S)-1-phenylmethoxyethyl]-13-oxa-5-azahexacyclo[13.2.2.12,8.01,6.02,14.012,20]icosa-8(20),9,11,16-tetraen-11-ol

$$$$
