
     RDKit          3D

 30 31  0  0  0  0  0  0  0  0999 V2000
   -3.8340    1.3425    1.8450 C   0  0  0  0  0  0  0  0  0  0  0  0
   -2.7010   -0.0641    2.0435 S   0  0  0  0  0  0  0  0  0  0  0  0
   -2.1536   -0.5875    0.4173 C   0  0  0  0  0  0  0  0  0  0  0  0
   -1.0102   -0.0128   -0.1319 C   0  0  0  0  0  0  0  0  0  0  0  0
   -0.6518   -0.4651   -1.3846 C   0  0  0  0  0  0  0  0  0  0  0  0
   -1.3864   -1.4382   -2.0627 C   0  0  0  0  0  0  0  0  0  0  0  0
   -2.5146   -1.9886   -1.4921 C   0  0  0  0  0  0  0  0  0  0  0  0
   -2.8894   -1.5492   -0.2399 C   0  0  0  0  0  0  0  0  0  0  0  0
   -3.9892   -2.0717    0.3398 F   0  0  0  0  0  0  0  0  0  0  0  0
   -0.2580    0.9855    0.5515 N   0  0  0  0  0  0  0  0  0  0  0  0
    0.9311    1.5989    0.0212 C   0  0  0  0  0  0  0  0  0  0  0  0
    2.0314    0.6141   -0.1818 C   0  0  0  0  0  0  0  0  0  0  0  0
    2.0976   -0.6311    0.0640 N   0  0  0  0  0  0  0  0  0  0  0  0
    3.3793   -1.2106   -0.2959 C   0  0  0  0  0  0  0  0  0  0  0  0
    4.2876    0.0238   -0.3380 C   0  0  0  0  0  0  0  0  0  0  0  0
    3.2961    1.0239   -0.7438 N   0  0  0  0  0  0  0  0  0  0  0  0
   -4.0721    1.8192    2.8029 H   0  0  0  0  0  0  0  0  0  0  0  0
   -4.7962    0.9289    1.4599 H   0  0  0  0  0  0  0  0  0  0  0  0
   -3.4506    2.0444    1.0831 H   0  0  0  0  0  0  0  0  0  0  0  0
    0.2079   -0.0878   -1.9000 H   0  0  0  0  0  0  0  0  0  0  0  0
   -1.0827   -1.7840   -3.0599 H   0  0  0  0  0  0  0  0  0  0  0  0
   -3.0715   -2.7398   -2.0292 H   0  0  0  0  0  0  0  0  0  0  0  0
   -0.6322    1.2643    1.5065 H   0  0  0  0  0  0  0  0  0  0  0  0
    0.6921    2.1137   -0.9412 H   0  0  0  0  0  0  0  0  0  0  0  0
    1.2382    2.4080    0.7189 H   0  0  0  0  0  0  0  0  0  0  0  0
    3.7659   -1.8996    0.4637 H   0  0  0  0  0  0  0  0  0  0  0  0
    3.3418   -1.6905   -1.2814 H   0  0  0  0  0  0  0  0  0  0  0  0
    5.1083   -0.0846   -1.0429 H   0  0  0  0  0  0  0  0  0  0  0  0
    4.6414    0.2554    0.6893 H   0  0  0  0  0  0  0  0  0  0  0  0
    3.4748    1.8826   -1.3361 H   0  0  0  0  0  0  0  0  0  0  0  0
  1  2  1  0
  2  3  1  0
  3  4  2  0
  4  5  1  0
  5  6  2  0
  6  7  1  0
  7  8  2  0
  8  9  1  0
  4 10  1  0
 10 11  1  0
 11 12  1  0
 12 13  2  0
 13 14  1  0
 14 15  1  0
 15 16  1  0
  8  3  1  0
 16 12  1  0
  1 17  1  0
  1 18  1  0
  1 19  1  0
  5 20  1  0
  6 21  1  0
  7 22  1  0
 10 23  1  0
 11 24  1  0
 11 25  1  0
 14 26  1  0
 14 27  1  0
 15 28  1  0
 15 29  1  0
 16 30  1  0
M  END
>  <Ligand ID>  (1) 
LIG0001012

>  <Ligand>  (1) 
CHEMBL70692

>  <SMILES>  (1) 
CSc1c(cccc1F)NCC1=NCCN1

>  <CID>  (1) 
11140345.0

>  <ChEMBL ID>  (1) 
nan

>  <InChiKey>  (1) 
QJUBRJKAGWBYDR-UHFFFAOYSA-N

>  <InChi>  (1) 
InChI=1S/C11H14FN3S/c1-16-11-8(12)3-2-4-9(11)15-7-10-13-5-6-14-10/h2-4,15H,5-7H2,1H3,(H,13,14)

>  <IUPAC Name>  (1) 
N-(4,5-dihydro-1H-imidazol-2-ylmethyl)-3-fluoro-2-methylsulfanylaniline

$$$$
