
     RDKit          3D

 42 42  0  0  0  0  0  0  0  0999 V2000
    6.9174    0.9677    1.1328 O   0  0  0  0  0  0  0  0  0  0  0  0
    5.9507    0.8992    2.1134 C   0  0  0  0  0  0  0  0  0  0  0  0
    4.7033    0.2268    1.5520 C   0  0  0  0  0  0  0  0  0  0  0  0
    4.1871    0.9594    0.4524 O   0  0  0  0  0  0  0  0  0  0  0  0
    3.0634    0.4961   -0.1756 C   0  0  0  0  0  0  0  0  0  0  0  0
    2.5892    1.2502   -1.2552 C   0  0  0  0  0  0  0  0  0  0  0  0
    1.4592    0.8334   -1.9290 C   0  0  0  0  0  0  0  0  0  0  0  0
    0.7575   -0.3064   -1.5915 C   0  0  0  0  0  0  0  0  0  0  0  0
    1.2412   -1.0371   -0.5234 C   0  0  0  0  0  0  0  0  0  0  0  0
    2.3739   -0.6437    0.1729 C   0  0  0  0  0  0  0  0  0  0  0  0
   -0.4603   -0.7216   -2.3469 C   0  0  0  0  0  0  0  0  0  0  0  0
   -1.9759   -0.1643   -1.4777 P   0  0  0  0  0  0  0  0  0  0  0  0
   -3.0297    0.1498   -2.5403 O   0  0  0  0  0  0  0  0  0  0  0  0
   -2.6180   -1.4526   -0.4252 C   0  0  0  0  0  0  0  0  0  0  0  0
   -3.9979   -1.3431    0.0743 C   0  0  0  0  0  0  0  0  0  0  0  0
   -4.4063   -0.2520    0.9662 C   0  0  2  0  0  0  0  0  0  0  0  0
   -4.3202    1.1313    0.5440 C   0  0  0  0  0  0  0  0  0  0  0  0
   -4.7263    1.6265   -0.5330 O   0  0  0  0  0  0  0  0  0  0  0  0
   -3.7156    2.0501    1.4330 O   0  0  0  0  0  0  0  0  0  0  0  0
   -3.7795   -0.4613    2.2858 N   0  0  0  0  0  0  0  0  0  0  0  0
   -1.6719    1.2290   -0.6165 O   0  0  0  0  0  0  0  0  0  0  0  0
   -0.4953   -2.0602   -2.6546 O   0  0  0  0  0  0  0  0  0  0  0  0
    6.7228    1.6869    0.4703 H   0  0  0  0  0  0  0  0  0  0  0  0
    6.3126    0.2776    2.9494 H   0  0  0  0  0  0  0  0  0  0  0  0
    5.6891    1.8939    2.4906 H   0  0  0  0  0  0  0  0  0  0  0  0
    3.8921    0.1929    2.2984 H   0  0  0  0  0  0  0  0  0  0  0  0
    4.9233   -0.7918    1.2023 H   0  0  0  0  0  0  0  0  0  0  0  0
    3.0933    2.1571   -1.5731 H   0  0  0  0  0  0  0  0  0  0  0  0
    1.0786    1.4090   -2.7700 H   0  0  0  0  0  0  0  0  0  0  0  0
    0.7187   -1.9240   -0.2395 H   0  0  0  0  0  0  0  0  0  0  0  0
    2.7263   -1.2269    0.9948 H   0  0  0  0  0  0  0  0  0  0  0  0
   -0.4446   -0.1626   -3.3059 H   0  0  0  0  0  0  0  0  0  0  0  0
   -1.9183   -1.6415    0.4621 H   0  0  0  0  0  0  0  0  0  0  0  0
   -2.5348   -2.4524   -0.9705 H   0  0  0  0  0  0  0  0  0  0  0  0
   -4.2313   -2.3116    0.6420 H   0  0  0  0  0  0  0  0  0  0  0  0
   -4.6781   -1.4004   -0.8394 H   0  0  0  0  0  0  0  0  0  0  0  0
   -5.5179   -0.4333    1.1986 H   0  0  0  0  0  0  0  0  0  0  0  0
   -3.8460    3.0595    1.3254 H   0  0  0  0  0  0  0  0  0  0  0  0
   -4.1488    0.3136    2.8982 H   0  0  0  0  0  0  0  0  0  0  0  0
   -4.0857   -1.3722    2.6971 H   0  0  0  0  0  0  0  0  0  0  0  0
   -1.4475    2.0095   -1.1810 H   0  0  0  0  0  0  0  0  0  0  0  0
   -0.3499   -2.6607   -1.8877 H   0  0  0  0  0  0  0  0  0  0  0  0
  1  2  1  0
  2  3  1  0
  3  4  1  0
  4  5  1  0
  5  6  2  0
  6  7  1  0
  7  8  2  0
  8  9  1  0
  9 10  2  0
  8 11  1  0
 11 12  1  0
 12 13  2  0
 12 14  1  0
 14 15  1  0
 15 16  1  0
 16 17  1  0
 17 18  2  0
 17 19  1  0
 16 20  1  0
 12 21  1  0
 11 22  1  0
 10  5  1  0
  1 23  1  0
  2 24  1  0
  2 25  1  0
  3 26  1  0
  3 27  1  0
  6 28  1  0
  7 29  1  0
  9 30  1  0
 10 31  1  0
 11 32  1  0
 14 33  1  0
 14 34  1  0
 15 35  1  0
 15 36  1  0
 16 37  1  1
 19 38  1  0
 20 39  1  0
 20 40  1  0
 21 41  1  0
 22 42  1  0
M  END
>  <Ligand ID>  (1) 
LIG0002538

>  <Ligand>  (1) 
US9212196, Derivative 13

>  <SMILES>  (1) 
OCCOc1ccc(cc1)C(P(=O)(CC[C@H](C(=O)O)N)O)O

>  <CID>  (1) 
122197945.0

>  <ChEMBL ID>  (1) 
nan

>  <InChiKey>  (1) 
SZLONTKCSWELSJ-JTDNENJMSA-N

>  <InChi>  (1) 
InChI=1S/C13H20NO7P/c14-11(12(16)17)5-8-22(19,20)13(18)9-1-3-10(4-2-9)21-7-6-15/h1-4,11,13,15,18H,5-8,14H2,(H,16,17)(H,19,20)/t11-,13?/m1/s1

>  <IUPAC Name>  (1) 
(2R)-2-amino-4-[hydroxy-[hydroxy-[4-(2-hydroxyethoxy)phenyl]methyl]phosphoryl]butanoic acid

$$$$
