
     RDKit          3D

 31 31  0  0  0  0  0  0  0  0999 V2000
    3.8529    0.6055   -0.3232 O   0  0  0  0  0  0  0  0  0  0  0  0
    2.6919    0.2676    0.3619 C   0  0  0  0  0  0  0  0  0  0  0  0
    1.5974    1.2936    0.1550 C   0  0  0  0  0  0  0  0  0  0  0  0
    0.4202    0.8067    1.0093 C   0  0  0  0  0  0  0  0  0  0  0  0
   -0.1753   -0.3951    0.3304 C   0  0  0  0  0  0  0  0  0  0  0  0
    0.7629   -0.9376   -0.6874 C   0  0  0  0  0  0  0  0  0  0  0  0
    2.1364   -1.0636   -0.0822 C   0  0  0  0  0  0  0  0  0  0  0  0
   -1.5614   -0.1341   -0.1925 C   0  0  0  0  0  0  0  0  0  0  0  0
   -1.5713    0.9974   -1.2124 C   0  0  0  0  0  0  0  0  0  0  0  0
   -2.4649    0.2914    0.9450 C   0  0  0  0  0  0  0  0  0  0  0  0
   -2.1772   -1.3037   -0.8791 C   0  0  0  0  0  0  0  0  0  0  0  0
    4.1651   -0.0966   -0.9418 H   0  0  0  0  0  0  0  0  0  0  0  0
    2.9334    0.2693    1.4453 H   0  0  0  0  0  0  0  0  0  0  0  0
    1.3238    1.4264   -0.8964 H   0  0  0  0  0  0  0  0  0  0  0  0
    1.9041    2.3015    0.5142 H   0  0  0  0  0  0  0  0  0  0  0  0
   -0.2733    1.6500    1.1636 H   0  0  0  0  0  0  0  0  0  0  0  0
    0.8530    0.5776    2.0104 H   0  0  0  0  0  0  0  0  0  0  0  0
   -0.2594   -1.1706    1.1213 H   0  0  0  0  0  0  0  0  0  0  0  0
    0.4318   -1.9782   -0.9336 H   0  0  0  0  0  0  0  0  0  0  0  0
    0.8065   -0.4029   -1.6395 H   0  0  0  0  0  0  0  0  0  0  0  0
    1.9821   -1.6854    0.8478 H   0  0  0  0  0  0  0  0  0  0  0  0
    2.8666   -1.5719   -0.7336 H   0  0  0  0  0  0  0  0  0  0  0  0
   -0.8413    0.8401   -2.0221 H   0  0  0  0  0  0  0  0  0  0  0  0
   -1.4762    1.9645   -0.6828 H   0  0  0  0  0  0  0  0  0  0  0  0
   -2.5848    0.9905   -1.6656 H   0  0  0  0  0  0  0  0  0  0  0  0
   -3.1034    1.1732    0.6549 H   0  0  0  0  0  0  0  0  0  0  0  0
   -3.1963   -0.5110    1.1574 H   0  0  0  0  0  0  0  0  0  0  0  0
   -1.8400    0.5304    1.8330 H   0  0  0  0  0  0  0  0  0  0  0  0
   -3.2364   -1.0131   -1.1078 H   0  0  0  0  0  0  0  0  0  0  0  0
   -1.7270   -1.5186   -1.8814 H   0  0  0  0  0  0  0  0  0  0  0  0
   -2.2397   -2.2033   -0.2409 H   0  0  0  0  0  0  0  0  0  0  0  0
  1  2  1  0
  2  3  1  0
  3  4  1  0
  4  5  1  0
  5  6  1  0
  6  7  1  0
  5  8  1  0
  8  9  1  0
  8 10  1  0
  8 11  1  0
  7  2  1  0
  1 12  1  0
  2 13  1  0
  3 14  1  0
  3 15  1  0
  4 16  1  0
  4 17  1  0
  5 18  1  0
  6 19  1  0
  6 20  1  0
  7 21  1  0
  7 22  1  0
  9 23  1  0
  9 24  1  0
  9 25  1  0
 10 26  1  0
 10 27  1  0
 10 28  1  0
 11 29  1  0
 11 30  1  0
 11 31  1  0
M  END
>  <Ligand ID>  (1) 
LIG0000779

>  <Ligand>  (1) 
4-tert-butylcyclohexan-1-ol

>  <SMILES>  (1) 
OC1CCC(CC1)C(C)(C)C

>  <CID>  (1) 
7391.0

>  <ChEMBL ID>  (1) 
nan

>  <InChiKey>  (1) 
CCOQPGVQAWPUPE-UHFFFAOYSA-N

>  <InChi>  (1) 
InChI=1S/C10H20O/c1-10(2,3)8-4-6-9(11)7-5-8/h8-9,11H,4-7H2,1-3H3

>  <IUPAC Name>  (1) 
4-tert-butylcyclohexan-1-ol

$$$$
