
     RDKit          3D

 54 57  0  0  0  0  0  0  0  0999 V2000
   -9.4840    1.3963    1.1999 O   0  0  0  0  0  0  0  0  0  0  0  0
   -8.4322    0.5249    0.8921 C   0  0  0  0  0  0  0  0  0  0  0  0
   -7.6896    0.9850   -0.3225 C   0  0  0  0  0  0  0  0  0  0  0  0
   -6.6161    0.1066   -0.6470 N   0  0  0  0  0  0  0  0  0  0  0  0
   -5.5373    0.1051    0.2930 C   0  0  2  0  0  0  0  0  0  0  0  0
   -4.8754    1.4482    0.4655 C   0  0  0  0  0  0  0  0  0  0  0  0
   -3.5142    1.0440    1.0029 C   0  0  0  0  0  0  0  0  0  0  0  0
   -3.1961   -0.1282    0.1486 C   0  0  0  0  0  0  0  0  0  0  0  0
   -4.3980   -0.6882   -0.2757 C   0  0  0  0  0  0  0  0  0  0  0  0
   -4.4235   -1.8018   -1.0920 C   0  0  0  0  0  0  0  0  0  0  0  0
   -3.2162   -2.3599   -1.4868 C   0  0  0  0  0  0  0  0  0  0  0  0
   -1.9967   -1.8367   -1.0892 C   0  0  0  0  0  0  0  0  0  0  0  0
   -2.0321   -0.7194   -0.2709 C   0  0  0  0  0  0  0  0  0  0  0  0
   -0.7572   -0.1334    0.1760 C   0  0  0  0  0  0  0  0  0  0  0  0
   -0.5617    0.9412    0.9630 N   0  0  0  0  0  0  0  0  0  0  0  0
    0.7114    1.1398    1.1292 O   0  0  0  0  0  0  0  0  0  0  0  0
    1.3991    0.2173    0.4681 C   0  0  0  0  0  0  0  0  0  0  0  0
    0.4867   -0.5721   -0.1230 N   0  0  0  0  0  0  0  0  0  0  0  0
    2.8440    0.0624    0.3799 C   0  0  0  0  0  0  0  0  0  0  0  0
    3.3955   -0.9596   -0.3572 C   0  0  0  0  0  0  0  0  0  0  0  0
    4.7485   -1.1195   -0.4478 C   0  0  0  0  0  0  0  0  0  0  0  0
    5.6691   -0.2600    0.1991 C   0  0  0  0  0  0  0  0  0  0  0  0
    5.0935    0.7506    0.9273 C   0  0  0  0  0  0  0  0  0  0  0  0
    3.7057    0.9136    1.0195 C   0  0  0  0  0  0  0  0  0  0  0  0
    5.8792    1.6978    1.6336 C   0  0  0  0  0  0  0  0  0  0  0  0
    6.4932    2.4687    2.2036 N   0  0  0  0  0  0  0  0  0  0  0  0
    6.9580   -0.5415    0.0181 O   0  0  0  0  0  0  0  0  0  0  0  0
    8.1416   -0.0352    0.4172 C   0  0  0  0  0  0  0  0  0  0  0  0
    9.0087    0.2475   -0.8421 C   0  0  0  0  0  0  0  0  0  0  0  0
    8.9245   -1.1983    1.0950 C   0  0  0  0  0  0  0  0  0  0  0  0
   -9.4511    2.1393    0.5678 H   0  0  0  0  0  0  0  0  0  0  0  0
   -7.8000    0.4427    1.7933 H   0  0  0  0  0  0  0  0  0  0  0  0
   -8.8858   -0.4567    0.6392 H   0  0  0  0  0  0  0  0  0  0  0  0
   -8.4203    0.9237   -1.1810 H   0  0  0  0  0  0  0  0  0  0  0  0
   -7.4135    2.0545   -0.2803 H   0  0  0  0  0  0  0  0  0  0  0  0
   -7.0044   -0.8647   -0.6614 H   0  0  0  0  0  0  0  0  0  0  0  0
   -5.7543   -0.3022    1.2796 H   0  0  0  0  0  0  0  0  0  0  0  0
   -5.3729    2.0850    1.2241 H   0  0  0  0  0  0  0  0  0  0  0  0
   -4.6878    1.9674   -0.5016 H   0  0  0  0  0  0  0  0  0  0  0  0
   -2.7977    1.8810    0.8315 H   0  0  0  0  0  0  0  0  0  0  0  0
   -3.5677    0.7409    2.0682 H   0  0  0  0  0  0  0  0  0  0  0  0
   -5.3711   -2.2176   -1.4076 H   0  0  0  0  0  0  0  0  0  0  0  0
   -3.2481   -3.2400   -2.1326 H   0  0  0  0  0  0  0  0  0  0  0  0
   -1.0840   -2.3031   -1.4204 H   0  0  0  0  0  0  0  0  0  0  0  0
    2.7059   -1.6302   -0.8613 H   0  0  0  0  0  0  0  0  0  0  0  0
    5.1066   -1.9508   -1.0495 H   0  0  0  0  0  0  0  0  0  0  0  0
    3.2598    1.7157    1.5972 H   0  0  0  0  0  0  0  0  0  0  0  0
    8.1827    0.8301    1.0791 H   0  0  0  0  0  0  0  0  0  0  0  0
    8.7370   -0.5470   -1.5592 H   0  0  0  0  0  0  0  0  0  0  0  0
   10.0801    0.1369   -0.5895 H   0  0  0  0  0  0  0  0  0  0  0  0
    8.8330    1.2712   -1.1941 H   0  0  0  0  0  0  0  0  0  0  0  0
    8.2540   -1.6453    1.8704 H   0  0  0  0  0  0  0  0  0  0  0  0
    9.8372   -0.8191    1.5629 H   0  0  0  0  0  0  0  0  0  0  0  0
    9.1339   -1.9070    0.2553 H   0  0  0  0  0  0  0  0  0  0  0  0
  1  2  1  0
  2  3  1  0
  3  4  1  0
  4  5  1  0
  5  6  1  0
  6  7  1  0
  7  8  1  0
  8  9  2  0
  9 10  1  0
 10 11  2  0
 11 12  1  0
 12 13  2  0
 13 14  1  0
 14 15  2  0
 15 16  1  0
 16 17  1  0
 17 18  2  0
 17 19  1  0
 19 20  2  0
 20 21  1  0
 21 22  2  0
 22 23  1  0
 23 24  2  0
 23 25  1  0
 25 26  3  0
 22 27  1  0
 27 28  1  0
 28 29  1  0
 28 30  1  0
  9  5  1  0
 18 14  1  0
 24 19  1  0
 13  8  1  0
  1 31  1  0
  2 32  1  0
  2 33  1  0
  3 34  1  0
  3 35  1  0
  4 36  1  0
  5 37  1  1
  6 38  1  0
  6 39  1  0
  7 40  1  0
  7 41  1  0
 10 42  1  0
 11 43  1  0
 12 44  1  0
 20 45  1  0
 21 46  1  0
 24 47  1  0
 28 48  1  0
 29 49  1  0
 29 50  1  0
 29 51  1  0
 30 52  1  0
 30 53  1  0
 30 54  1  0
M  END
>  <Ligand ID>  (1) 
LIG0001532

>  <Ligand>  (1) 
SCHEMBL2195471

>  <SMILES>  (1) 
OCCN[C@@H]1CCc2c1cccc2c1noc(n1)c1ccc(c(c1)C#N)OC(C)C

>  <CID>  (1) 
58344526.0

>  <ChEMBL ID>  (1) 
nan

>  <InChiKey>  (1) 
XRVDGNKRPOAQTN-HXUWFJFHSA-N

>  <InChi>  (1) 
InChI=1S/C23H24N4O3/c1-14(2)29-21-9-6-15(12-16(21)13-24)23-26-22(27-30-23)19-5-3-4-18-17(19)7-8-20(18)25-10-11-28/h3-6,9,12,14,20,25,28H,7-8,10-11H2,1-2H3/t20-/m1/s1

>  <IUPAC Name>  (1) 
5-[3-[(1R)-1-(2-hydroxyethylamino)-2,3-dihydro-1H-inden-4-yl]-1,2,4-oxadiazol-5-yl]-2-propan-2-yloxybenzonitrile

$$$$
