
     RDKit          3D

 38 40  0  0  0  0  0  0  0  0999 V2000
    1.5830   -1.6722   -0.5742 O   0  0  0  0  0  0  0  0  0  0  0  0
    1.3536   -0.4528   -0.7777 C   0  0  0  0  0  0  0  0  0  0  0  0
   -0.0364   -0.0060   -0.5404 C   0  0  0  0  0  0  0  0  0  0  0  0
   -0.5463    1.6764   -0.6931 S   0  0  0  0  0  0  0  0  0  0  0  0
   -2.2974    1.2887   -0.2174 C   0  0  0  0  0  0  0  0  0  0  0  0
   -2.2930   -0.0690    0.0011 C   0  0  0  0  0  0  0  0  0  0  0  0
   -1.1149   -0.7051   -0.1734 C   0  0  0  0  0  0  0  0  0  0  0  0
   -1.0055   -2.1592    0.0349 N   0  0  0  0  0  0  0  0  0  0  0  0
   -3.5588   -0.5667    0.3814 C   0  0  0  0  0  0  0  0  0  0  0  0
   -3.7795   -2.0048    0.6550 C   0  0  0  0  0  0  0  0  0  0  0  0
   -4.6186    0.2821    0.4963 C   0  0  0  0  0  0  0  0  0  0  0  0
   -4.5619    1.6452    0.2630 C   0  0  0  0  0  0  0  0  0  0  0  0
   -3.3448    2.1183   -0.1026 N   0  0  0  0  0  0  0  0  0  0  0  0
   -5.7195    2.5535    0.3929 C   0  0  0  0  0  0  0  0  0  0  0  0
   -6.1874   -0.3581    0.9730 Cl  0  0  0  0  0  0  0  0  0  0  0  0
    2.3243    0.4625   -1.2030 N   0  0  0  0  0  0  0  0  0  0  0  0
    3.7030    0.1262   -1.4522 C   0  0  0  0  0  0  0  0  0  0  0  0
    4.4459    0.0047   -0.1719 C   0  0  0  0  0  0  0  0  0  0  0  0
    4.5982   -1.1563    0.5327 C   0  0  0  0  0  0  0  0  0  0  0  0
    5.3184   -1.1012    1.7249 C   0  0  0  0  0  0  0  0  0  0  0  0
    5.8544    0.0537    2.1821 N   0  0  0  0  0  0  0  0  0  0  0  0
    5.7135    1.2081    1.4984 C   0  0  0  0  0  0  0  0  0  0  0  0
    5.0093    1.1709    0.3265 C   0  0  0  0  0  0  0  0  0  0  0  0
   -0.9288   -2.5361    1.0026 H   0  0  0  0  0  0  0  0  0  0  0  0
   -1.0090   -2.7773   -0.8276 H   0  0  0  0  0  0  0  0  0  0  0  0
   -3.2456   -2.2739    1.5683 H   0  0  0  0  0  0  0  0  0  0  0  0
   -4.8615   -2.2458    0.6930 H   0  0  0  0  0  0  0  0  0  0  0  0
   -3.3098   -2.5650   -0.2068 H   0  0  0  0  0  0  0  0  0  0  0  0
   -5.7418    3.0092    1.4118 H   0  0  0  0  0  0  0  0  0  0  0  0
   -6.6759    1.9941    0.3122 H   0  0  0  0  0  0  0  0  0  0  0  0
   -5.6605    3.4093   -0.3248 H   0  0  0  0  0  0  0  0  0  0  0  0
    2.0434    1.4556   -1.3535 H   0  0  0  0  0  0  0  0  0  0  0  0
    4.1649    0.8527   -2.1480 H   0  0  0  0  0  0  0  0  0  0  0  0
    3.7003   -0.8609   -1.9780 H   0  0  0  0  0  0  0  0  0  0  0  0
    4.1751   -2.0650    0.1657 H   0  0  0  0  0  0  0  0  0  0  0  0
    5.4668   -1.9923    2.3200 H   0  0  0  0  0  0  0  0  0  0  0  0
    6.1412    2.1552    1.8537 H   0  0  0  0  0  0  0  0  0  0  0  0
    4.9019    2.1013   -0.2155 H   0  0  0  0  0  0  0  0  0  0  0  0
  1  2  2  0
  2  3  1  0
  3  4  1  0
  4  5  1  0
  5  6  2  0
  6  7  1  0
  7  8  1  0
  6  9  1  0
  9 10  1  0
  9 11  2  0
 11 12  1  0
 12 13  2  0
 12 14  1  0
 11 15  1  0
  2 16  1  0
 16 17  1  0
 17 18  1  0
 18 19  2  0
 19 20  1  0
 20 21  2  0
 21 22  1  0
 22 23  2  0
  7  3  2  0
 23 18  1  0
 13  5  1  0
  8 24  1  0
  8 25  1  0
 10 26  1  0
 10 27  1  0
 10 28  1  0
 14 29  1  0
 14 30  1  0
 14 31  1  0
 16 32  1  0
 17 33  1  0
 17 34  1  0
 19 35  1  0
 20 36  1  0
 22 37  1  0
 23 38  1  0
M  END
>  <Ligand ID>  (1) 
LIG0000436

>  <Ligand>  (1) 
CHEMBL2057417

>  <SMILES>  (1) 
O=C(c1sc2c(c1N)c(C)c(c(n2)C)Cl)NCc1ccncc1

>  <CID>  (1) 
53382523.0

>  <ChEMBL ID>  (1) 
nan

>  <InChiKey>  (1) 
XNCQMFVABACABG-UHFFFAOYSA-N

>  <InChi>  (1) 
InChI=1S/C16H15ClN4OS/c1-8-11-13(18)14(23-16(11)21-9(2)12(8)17)15(22)20-7-10-3-5-19-6-4-10/h3-6H,7,18H2,1-2H3,(H,20,22)

>  <IUPAC Name>  (1) 
3-amino-5-chloro-4,6-dimethyl-N-(pyridin-4-ylmethyl)thieno[2,3-b]pyridine-2-carboxamide

$$$$
