
     RDKit          3D

202208  0  0  0  0  0  0  0  0999 V2000
  -12.2871    2.7520    0.0754 N   0  0  0  0  0  0  0  0  0  0  0  0
  -11.0405    3.0367    0.7071 C   0  0  0  0  0  0  0  0  0  0  0  0
  -10.9497    4.0873    1.4092 O   0  0  0  0  0  0  0  0  0  0  0  0
   -9.8681    2.1113    0.5417 C   0  0  0  0  0  0  0  0  0  0  0  0
   -8.7061    2.5643    1.2528 N   0  0  0  0  0  0  0  0  0  0  0  0
   -8.6140    2.7432    2.6558 C   0  0  0  0  0  0  0  0  0  0  0  0
   -9.6264    2.4646    3.3661 O   0  0  0  0  0  0  0  0  0  0  0  0
   -7.3969    3.2351    3.3666 C   0  0  1  0  0  0  0  0  0  0  0  0
   -6.3464    3.6589    2.5024 N   0  0  0  0  0  0  0  0  0  0  0  0
   -5.2587    2.8616    2.0456 C   0  0  0  0  0  0  0  0  0  0  0  0
   -5.1800    1.6614    2.3973 O   0  0  0  0  0  0  0  0  0  0  0  0
   -4.2295    3.4090    1.1705 C   0  0  1  0  0  0  0  0  0  0  0  0
   -3.2897    2.5093    0.5946 N   0  0  0  0  0  0  0  0  0  0  0  0
   -1.8841    2.4775    0.9030 C   0  0  0  0  0  0  0  0  0  0  0  0
   -1.4411    3.3226    1.7734 O   0  0  0  0  0  0  0  0  0  0  0  0
   -0.9457    1.5362    0.2581 C   0  0  2  0  0  0  0  0  0  0  0  0
    0.2341    2.2901   -0.3466 C   0  0  0  0  0  0  0  0  0  0  0  0
    1.2162    2.8712    1.0851 S   0  0  0  0  0  0  0  0  0  0  0  0
    2.2325    1.1099    1.8066 S   0  0  0  0  0  0  0  0  0  0  0  0
    3.8725    1.1204    1.0126 C   0  0  0  0  0  0  0  0  0  0  0  0
    3.8540    1.0381   -0.4629 C   0  0  1  0  0  0  0  0  0  0  0  0
    5.1557    1.4758   -1.0196 N   0  0  0  0  0  0  0  0  0  0  0  0
    5.5199    2.8185   -1.0648 C   0  0  0  0  0  0  0  0  0  0  0  0
    4.7021    3.6567   -0.5862 O   0  0  0  0  0  0  0  0  0  0  0  0
    6.7708    3.3845   -1.6119 C   0  0  2  0  0  0  0  0  0  0  0  0
    7.9660    2.5229   -1.5921 C   0  0  0  0  0  0  0  0  0  0  0  0
    9.1151    3.3957   -2.1570 C   0  0  0  0  0  0  0  0  0  0  0  0
    7.9001    1.3265   -2.5351 C   0  0  0  0  0  0  0  0  0  0  0  0
    7.0204    4.7200   -1.1844 N   0  0  0  0  0  0  0  0  0  0  0  0
    6.5387    5.9083   -1.7571 C   0  0  0  0  0  0  0  0  0  0  0  0
    5.7683    5.9124   -2.7688 O   0  0  0  0  0  0  0  0  0  0  0  0
    6.9516    7.1955   -1.1529 C   0  0  2  0  0  0  0  0  0  0  0  0
    6.6144    7.2789    0.3073 C   0  0  0  0  0  0  0  0  0  0  0  0
    7.0519    8.5733    0.9255 C   0  0  0  0  0  0  0  0  0  0  0  0
    6.2519    9.6934    0.9711 C   0  0  0  0  0  0  0  0  0  0  0  0
    6.7023   10.8492    1.5494 C   0  0  0  0  0  0  0  0  0  0  0  0
    7.9744   10.8944    2.0941 C   0  0  0  0  0  0  0  0  0  0  0  0
    8.7894    9.7737    2.0577 C   0  0  0  0  0  0  0  0  0  0  0  0
    8.3156    8.6335    1.4766 C   0  0  0  0  0  0  0  0  0  0  0  0
    8.4560   12.0601    2.6899 O   0  0  0  0  0  0  0  0  0  0  0  0
    6.3550    8.2662   -1.9170 N   0  0  0  0  0  0  0  0  0  0  0  0
    3.5347   -0.2861   -1.0475 C   0  0  0  0  0  0  0  0  0  0  0  0
    2.8333   -1.1445   -0.5124 O   0  0  0  0  0  0  0  0  0  0  0  0
    4.0807   -0.5857   -2.3201 N   0  0  0  0  0  0  0  0  0  0  0  0
    4.0251   -1.7712   -3.1051 C   0  0  0  0  0  0  0  0  0  0  0  0
    4.7804   -2.9289   -2.5748 C   0  0  0  0  0  0  0  0  0  0  0  0
    4.8303   -3.9845   -3.2346 O   0  0  0  0  0  0  0  0  0  0  0  0
    5.4719   -2.9507   -1.3362 N   0  0  0  0  0  0  0  0  0  0  0  0
    6.3525   -4.0539   -0.9156 C   0  0  2  0  0  0  0  0  0  0  0  0
    5.6241   -5.0809   -0.1194 C   0  0  0  0  0  0  0  0  0  0  0  0
    6.2363   -5.7758    0.6997 O   0  0  0  0  0  0  0  0  0  0  0  0
    4.2330   -5.3349   -0.2463 N   0  0  0  0  0  0  0  0  0  0  0  0
    3.4828   -6.3044    0.5174 C   0  0  1  0  0  0  0  0  0  0  0  0
    2.0356   -6.2227    0.2653 C   0  0  0  0  0  0  0  0  0  0  0  0
    1.3043   -7.1566    0.6177 O   0  0  0  0  0  0  0  0  0  0  0  0
    1.3908   -5.1304   -0.3468 N   0  0  0  0  0  0  0  0  0  0  0  0
   -0.0154   -5.0961   -0.8379 C   0  0  2  0  0  0  0  0  0  0  0  0
   -0.4395   -3.6723   -0.7851 C   0  0  0  0  0  0  0  0  0  0  0  0
    0.4267   -2.9035   -0.3164 O   0  0  0  0  0  0  0  0  0  0  0  0
   -1.6513   -3.0863   -1.1827 N   0  0  0  0  0  0  0  0  0  0  0  0
   -2.1875   -1.7911   -1.2536 C   0  0  2  0  0  0  0  0  0  0  0  0
   -1.3535   -0.7997   -0.4161 C   0  0  0  0  0  0  0  0  0  0  0  0
   -0.4938   -1.0491    0.3907 O   0  0  0  0  0  0  0  0  0  0  0  0
   -1.6163    0.6351   -0.6038 N   0  0  0  0  0  0  0  0  0  0  0  0
   -3.5266   -1.5377   -0.6017 C   0  0  0  0  0  0  0  0  0  0  0  0
   -4.6925   -2.3049   -0.9276 C   0  0  0  0  0  0  0  0  0  0  0  0
   -5.5921   -2.2279   -1.9474 C   0  0  0  0  0  0  0  0  0  0  0  0
   -6.5032   -3.2139   -1.8137 N   0  0  0  0  0  0  0  0  0  0  0  0
   -6.2404   -3.9518   -0.7269 C   0  0  0  0  0  0  0  0  0  0  0  0
   -5.1156   -3.4109   -0.1511 C   0  0  0  0  0  0  0  0  0  0  0  0
   -4.6100   -3.9455    1.0247 C   0  0  0  0  0  0  0  0  0  0  0  0
   -5.2080   -5.0323    1.6602 C   0  0  0  0  0  0  0  0  0  0  0  0
   -6.3545   -5.5871    1.0780 C   0  0  0  0  0  0  0  0  0  0  0  0
   -6.8128   -5.0285   -0.0799 C   0  0  0  0  0  0  0  0  0  0  0  0
   -0.8487   -6.1385   -0.2135 C   0  0  0  0  0  0  0  0  0  0  0  0
   -2.2853   -6.2360   -0.6734 C   0  0  0  0  0  0  0  0  0  0  0  0
   -2.8875   -7.4631    0.0653 C   0  0  0  0  0  0  0  0  0  0  0  0
   -4.2638   -7.6606   -0.3995 N   0  0  0  0  0  0  0  0  0  0  0  0
   -4.5063   -8.6015   -1.2795 C   0  0  0  0  0  0  0  0  0  0  0  0
   -3.4655   -9.4358   -1.7957 N   0  0  0  0  0  0  0  0  0  0  0  0
   -5.8272   -8.8412   -1.7744 N   0  0  0  0  0  0  0  0  0  0  0  0
    4.0424   -7.7262    0.2906 C   0  0  0  0  0  0  0  0  0  0  0  0
    3.2562   -8.6673    1.1235 C   0  0  0  0  0  0  0  0  0  0  0  0
    3.5225   -8.6580    2.4883 C   0  0  0  0  0  0  0  0  0  0  0  0
    2.8833   -9.4889    3.3712 C   0  0  0  0  0  0  0  0  0  0  0  0
    1.9466  -10.3596    2.8895 C   0  0  0  0  0  0  0  0  0  0  0  0
    1.6563  -10.3990    1.5299 C   0  0  0  0  0  0  0  0  0  0  0  0
    2.3203   -9.5537    0.6827 C   0  0  0  0  0  0  0  0  0  0  0  0
    7.4737   -3.4743   -0.1457 C   0  0  0  0  0  0  0  0  0  0  0  0
    8.5275   -4.4132    0.3156 C   0  0  0  0  0  0  0  0  0  0  0  0
    9.6561   -4.6644   -0.4708 C   0  0  0  0  0  0  0  0  0  0  0  0
   10.4815   -5.5204    0.1551 N   0  0  0  0  0  0  0  0  0  0  0  0
    9.8521   -5.7943    1.3229 C   0  0  0  0  0  0  0  0  0  0  0  0
    8.6888   -5.1338    1.4144 N   0  0  0  0  0  0  0  0  0  0  0  0
   -4.5711    4.5577    0.2977 C   0  0  0  0  0  0  0  0  0  0  0  0
   -5.6865    4.4488   -0.6647 C   0  0  0  0  0  0  0  0  0  0  0  0
   -5.5430    3.2955   -1.6089 C   0  0  0  0  0  0  0  0  0  0  0  0
   -4.3417    3.3087   -2.4001 N   0  0  0  0  0  0  0  0  0  0  0  0
   -4.4289    3.8801   -3.5835 C   0  0  0  0  0  0  0  0  0  0  0  0
   -5.6421    4.4466   -4.0399 N   0  0  0  0  0  0  0  0  0  0  0  0
   -3.2384    3.8708   -4.3603 N   0  0  0  0  0  0  0  0  0  0  0  0
   -7.6498    4.2630    4.4047 C   0  0  0  0  0  0  0  0  0  0  0  0
   -8.2721    5.5111    3.9467 C   0  0  0  0  0  0  0  0  0  0  0  0
   -7.4936    6.5489    3.5204 C   0  0  0  0  0  0  0  0  0  0  0  0
   -8.0548    7.7552    3.0682 C   0  0  0  0  0  0  0  0  0  0  0  0
   -9.4222    7.9168    3.0497 C   0  0  0  0  0  0  0  0  0  0  0  0
  -10.2221    6.8837    3.4783 C   0  0  0  0  0  0  0  0  0  0  0  0
   -9.6460    5.6785    3.9296 C   0  0  0  0  0  0  0  0  0  0  0  0
  -12.3114    2.5207   -0.9479 H   0  0  0  0  0  0  0  0  0  0  0  0
  -13.1882    2.7487    0.5574 H   0  0  0  0  0  0  0  0  0  0  0  0
   -9.5987    1.9627   -0.5336 H   0  0  0  0  0  0  0  0  0  0  0  0
  -10.2303    1.1214    0.9169 H   0  0  0  0  0  0  0  0  0  0  0  0
   -7.8370    2.7749    0.7140 H   0  0  0  0  0  0  0  0  0  0  0  0
   -6.9896    2.3049    3.8914 H   0  0  0  0  0  0  0  0  0  0  0  0
   -6.3632    4.6448    2.1558 H   0  0  0  0  0  0  0  0  0  0  0  0
   -3.5341    3.9477    1.9775 H   0  0  0  0  0  0  0  0  0  0  0  0
   -3.5924    1.8086   -0.1063 H   0  0  0  0  0  0  0  0  0  0  0  0
   -0.4549    0.9855    1.1375 H   0  0  0  0  0  0  0  0  0  0  0  0
   -0.1872    3.1951   -0.8294 H   0  0  0  0  0  0  0  0  0  0  0  0
    0.7764    1.6292   -1.0131 H   0  0  0  0  0  0  0  0  0  0  0  0
    4.4275    0.2636    1.4592 H   0  0  0  0  0  0  0  0  0  0  0  0
    4.3748    2.0366    1.3693 H   0  0  0  0  0  0  0  0  0  0  0  0
    3.1353    1.7952   -0.8124 H   0  0  0  0  0  0  0  0  0  0  0  0
    5.7957    0.7454   -1.3558 H   0  0  0  0  0  0  0  0  0  0  0  0
    6.4865    3.4658   -2.7506 H   0  0  0  0  0  0  0  0  0  0  0  0
    8.2799    2.1561   -0.6280 H   0  0  0  0  0  0  0  0  0  0  0  0
    8.8122    3.8340   -3.1364 H   0  0  0  0  0  0  0  0  0  0  0  0
    9.3638    4.1995   -1.4303 H   0  0  0  0  0  0  0  0  0  0  0  0
   10.0169    2.7951   -2.3223 H   0  0  0  0  0  0  0  0  0  0  0  0
    7.0750    1.4250   -3.2497 H   0  0  0  0  0  0  0  0  0  0  0  0
    7.9717    0.3852   -1.9788 H   0  0  0  0  0  0  0  0  0  0  0  0
    8.8365    1.3282   -3.1743 H   0  0  0  0  0  0  0  0  0  0  0  0
    7.6565    4.8219   -0.3377 H   0  0  0  0  0  0  0  0  0  0  0  0
    8.0911    7.2692   -1.2370 H   0  0  0  0  0  0  0  0  0  0  0  0
    5.4957    7.1916    0.4231 H   0  0  0  0  0  0  0  0  0  0  0  0
    7.0407    6.4325    0.8547 H   0  0  0  0  0  0  0  0  0  0  0  0
    5.2578    9.6361    0.5531 H   0  0  0  0  0  0  0  0  0  0  0  0
    6.0250   11.6896    1.5505 H   0  0  0  0  0  0  0  0  0  0  0  0
    9.7980    9.7537    2.4742 H   0  0  0  0  0  0  0  0  0  0  0  0
    8.9694    7.7515    1.4373 H   0  0  0  0  0  0  0  0  0  0  0  0
    9.4389   12.2380    2.7864 H   0  0  0  0  0  0  0  0  0  0  0  0
    5.3486    8.3192   -1.7277 H   0  0  0  0  0  0  0  0  0  0  0  0
    6.8997    9.1213   -1.9462 H   0  0  0  0  0  0  0  0  0  0  0  0
    4.6008    0.2217   -2.7599 H   0  0  0  0  0  0  0  0  0  0  0  0
    4.3829   -1.5489   -4.1520 H   0  0  0  0  0  0  0  0  0  0  0  0
    2.9590   -2.1192   -3.2571 H   0  0  0  0  0  0  0  0  0  0  0  0
    5.3388   -2.1567   -0.7225 H   0  0  0  0  0  0  0  0  0  0  0  0
    6.7291   -4.5580   -1.8641 H   0  0  0  0  0  0  0  0  0  0  0  0
    3.7530   -4.7808   -0.9458 H   0  0  0  0  0  0  0  0  0  0  0  0
    3.7455   -6.1423    1.5890 H   0  0  0  0  0  0  0  0  0  0  0  0
    1.9554   -4.2709   -0.4356 H   0  0  0  0  0  0  0  0  0  0  0  0
    0.1202   -5.4758   -1.9085 H   0  0  0  0  0  0  0  0  0  0  0  0
   -2.3129   -3.8358   -1.6080 H   0  0  0  0  0  0  0  0  0  0  0  0
   -2.1263   -1.3469   -2.3002 H   0  0  0  0  0  0  0  0  0  0  0  0
   -2.2611    0.8360   -1.3509 H   0  0  0  0  0  0  0  0  0  0  0  0
   -3.3531   -1.5410    0.5451 H   0  0  0  0  0  0  0  0  0  0  0  0
   -3.7152   -0.4275   -0.7715 H   0  0  0  0  0  0  0  0  0  0  0  0
   -5.5790   -1.4832   -2.7306 H   0  0  0  0  0  0  0  0  0  0  0  0
   -7.3133   -3.3900   -2.4457 H   0  0  0  0  0  0  0  0  0  0  0  0
   -3.7296   -3.5188    1.4706 H   0  0  0  0  0  0  0  0  0  0  0  0
   -4.7919   -5.4179    2.5806 H   0  0  0  0  0  0  0  0  0  0  0  0
   -6.8106   -6.4310    1.5718 H   0  0  0  0  0  0  0  0  0  0  0  0
   -7.7027   -5.4743   -0.5146 H   0  0  0  0  0  0  0  0  0  0  0  0
   -0.8273   -6.2000    0.8944 H   0  0  0  0  0  0  0  0  0  0  0  0
   -0.4295   -7.1352   -0.6154 H   0  0  0  0  0  0  0  0  0  0  0  0
   -2.3713   -6.5115   -1.7479 H   0  0  0  0  0  0  0  0  0  0  0  0
   -2.9102   -5.3832   -0.4297 H   0  0  0  0  0  0  0  0  0  0  0  0
   -2.3539   -8.3878   -0.1812 H   0  0  0  0  0  0  0  0  0  0  0  0
   -2.8242   -7.2107    1.1121 H   0  0  0  0  0  0  0  0  0  0  0  0
   -3.1576  -10.3285   -1.3015 H   0  0  0  0  0  0  0  0  0  0  0  0
   -2.9745   -9.1638   -2.7071 H   0  0  0  0  0  0  0  0  0  0  0  0
   -6.5869   -9.1098   -1.1225 H   0  0  0  0  0  0  0  0  0  0  0  0
   -5.9487   -8.7388   -2.8219 H   0  0  0  0  0  0  0  0  0  0  0  0
    5.0983   -7.7662    0.6119 H   0  0  0  0  0  0  0  0  0  0  0  0
    4.0027   -7.9995   -0.7674 H   0  0  0  0  0  0  0  0  0  0  0  0
    4.2789   -7.9659    2.8659 H   0  0  0  0  0  0  0  0  0  0  0  0
    3.1708   -9.4039    4.4111 H   0  0  0  0  0  0  0  0  0  0  0  0
    1.4241  -11.0365    3.5641 H   0  0  0  0  0  0  0  0  0  0  0  0
    0.9137  -11.0733    1.1153 H   0  0  0  0  0  0  0  0  0  0  0  0
    2.1094   -9.5892   -0.3867 H   0  0  0  0  0  0  0  0  0  0  0  0
    7.1185   -2.9875    0.8200 H   0  0  0  0  0  0  0  0  0  0  0  0
    7.9696   -2.6295   -0.6953 H   0  0  0  0  0  0  0  0  0  0  0  0
    9.8620   -4.2355   -1.4619 H   0  0  0  0  0  0  0  0  0  0  0  0
   11.3816   -5.8572   -0.2300 H   0  0  0  0  0  0  0  0  0  0  0  0
   10.3191   -6.4856    2.0370 H   0  0  0  0  0  0  0  0  0  0  0  0
   -3.6513    4.8235   -0.3171 H   0  0  0  0  0  0  0  0  0  0  0  0
   -4.7027    5.4958    0.9234 H   0  0  0  0  0  0  0  0  0  0  0  0
   -6.6927    4.5156   -0.2293 H   0  0  0  0  0  0  0  0  0  0  0  0
   -5.5980    5.4000   -1.3144 H   0  0  0  0  0  0  0  0  0  0  0  0
   -5.6051    2.3105   -1.0844 H   0  0  0  0  0  0  0  0  0  0  0  0
   -6.4439    3.3557   -2.3133 H   0  0  0  0  0  0  0  0  0  0  0  0
   -6.3391    3.8024   -4.4909 H   0  0  0  0  0  0  0  0  0  0  0  0
   -5.8653    5.4565   -3.9535 H   0  0  0  0  0  0  0  0  0  0  0  0
   -2.3993    4.3657   -4.0189 H   0  0  0  0  0  0  0  0  0  0  0  0
   -3.2814    3.3512   -5.2639 H   0  0  0  0  0  0  0  0  0  0  0  0
   -8.1782    3.8092    5.2895 H   0  0  0  0  0  0  0  0  0  0  0  0
   -6.6402    4.5446    4.8275 H   0  0  0  0  0  0  0  0  0  0  0  0
   -6.4051    6.5424    3.4962 H   0  0  0  0  0  0  0  0  0  0  0  0
   -7.4639    8.5817    2.7381 H   0  0  0  0  0  0  0  0  0  0  0  0
   -9.8528    8.8640    2.6852 H   0  0  0  0  0  0  0  0  0  0  0  0
  -11.2892    7.0179    3.4567 H   0  0  0  0  0  0  0  0  0  0  0  0
  -10.3370    4.9038    4.2502 H   0  0  0  0  0  0  0  0  0  0  0  0
  1  2  1  0
  2  3  2  0
  2  4  1  0
  4  5  1  0
  5  6  1  0
  6  7  2  0
  6  8  1  0
  8  9  1  0
  9 10  1  0
 10 11  2  0
 10 12  1  0
 12 13  1  0
 13 14  1  0
 14 15  2  0
 14 16  1  0
 16 17  1  0
 17 18  1  0
 18 19  1  0
 19 20  1  0
 20 21  1  0
 21 22  1  0
 22 23  1  0
 23 24  2  0
 23 25  1  0
 25 26  1  0
 26 27  1  0
 26 28  1  0
 25 29  1  0
 29 30  1  0
 30 31  2  0
 30 32  1  0
 32 33  1  0
 33 34  1  0
 34 35  2  0
 35 36  1  0
 36 37  2  0
 37 38  1  0
 38 39  2  0
 37 40  1  0
 32 41  1  0
 21 42  1  0
 42 43  2  0
 42 44  1  0
 44 45  1  0
 45 46  1  0
 46 47  2  0
 46 48  1  0
 48 49  1  0
 49 50  1  0
 50 51  2  0
 50 52  1  0
 52 53  1  0
 53 54  1  0
 54 55  2  0
 54 56  1  0
 56 57  1  0
 57 58  1  0
 58 59  2  0
 58 60  1  0
 60 61  1  0
 61 62  1  0
 62 63  2  0
 62 64  1  0
 61 65  1  0
 65 66  1  0
 66 67  2  0
 67 68  1  0
 68 69  1  0
 69 70  2  0
 70 71  1  0
 71 72  2  0
 72 73  1  0
 73 74  2  0
 57 75  1  0
 75 76  1  0
 76 77  1  0
 77 78  1  0
 78 79  2  3
 79 80  1  0
 79 81  1  0
 53 82  1  0
 82 83  1  0
 83 84  2  0
 84 85  1  0
 85 86  2  0
 86 87  1  0
 87 88  2  0
 49 89  1  0
 89 90  1  0
 90 91  2  0
 91 92  1  0
 92 93  1  0
 93 94  2  0
 12 95  1  0
 95 96  1  0
 96 97  1  0
 97 98  1  0
 98 99  2  3
 99100  1  0
 99101  1  0
  8102  1  0
102103  1  0
103104  2  0
104105  1  0
105106  2  0
106107  1  0
107108  2  0
 64 16  1  0
 70 66  1  0
 88 83  1  0
 94 90  1  0
108103  1  0
 39 34  1  0
 74 69  1  0
  1109  1  0
  1110  1  0
  4111  1  0
  4112  1  0
  5113  1  0
  8114  1  1
  9115  1  0
 12116  1  1
 13117  1  0
 16118  1  1
 17119  1  0
 17120  1  0
 20121  1  0
 20122  1  0
 21123  1  6
 22124  1  0
 25125  1  6
 26126  1  0
 27127  1  0
 27128  1  0
 27129  1  0
 28130  1  0
 28131  1  0
 28132  1  0
 29133  1  0
 32134  1  1
 33135  1  0
 33136  1  0
 35137  1  0
 36138  1  0
 38139  1  0
 39140  1  0
 40141  1  0
 41142  1  0
 41143  1  0
 44144  1  0
 45145  1  0
 45146  1  0
 48147  1  0
 49148  1  6
 52149  1  0
 53150  1  1
 56151  1  0
 57152  1  6
 60153  1  0
 61154  1  6
 64155  1  0
 65156  1  0
 65157  1  0
 67158  1  0
 68159  1  0
 71160  1  0
 72161  1  0
 73162  1  0
 74163  1  0
 75164  1  0
 75165  1  0
 76166  1  0
 76167  1  0
 77168  1  0
 77169  1  0
 80170  1  0
 80171  1  0
 81172  1  0
 81173  1  0
 82174  1  0
 82175  1  0
 84176  1  0
 85177  1  0
 86178  1  0
 87179  1  0
 88180  1  0
 89181  1  0
 89182  1  0
 91183  1  0
 92184  1  0
 93185  1  0
 95186  1  0
 95187  1  0
 96188  1  0
 96189  1  0
 97190  1  0
 97191  1  0
100192  1  0
100193  1  0
101194  1  0
101195  1  0
102196  1  0
102197  1  0
104198  1  0
105199  1  0
106200  1  0
107201  1  0
108202  1  0
M  END
>  <Ligand ID>  (1) 
LIG0003412

>  <Ligand>  (1) 
CID 44364180

>  <SMILES>  (1) 
NC(=O)CNC(=O)[C@@H](NC(=O)[C@@H](NC(=O)[C@@H]1CSSC[C@@H](NC(=O)[C@H](C(C)C)NC(=O)[C@H](Cc2ccc(cc2)O)N)C(=O)NCC(=O)N[C@H](C(=O)N[C@@H](C(=O)N[C@H](C(=O)N[C@H](C(=O)N1)Cc1c[nH]c2c1cccc2)CCCN=C(N)N)Cc1ccccc1)Cc1c[nH]cn1)CCCN=C(N)N)Cc1ccccc1

>  <CID>  (1) 
44364180.0

>  <ChEMBL ID>  (1) 
nan

>  <InChiKey>  (1) 
SMAWMSUKCNWJNR-WSRVCNIUSA-N

>  <InChi>  (1) 
InChI=1S/C71H94N22O13S2/c1-39(2)59(93-60(97)47(72)27-42-21-23-45(94)24-22-42)69(106)92-55-36-107-108-37-56(68(105)87-50(20-12-26-80-71(76)77)63(100)88-51(61(98)82-34-57(73)95)28-40-13-5-3-6-14-40)91-66(103)53(30-43-32-81-48-18-10-9-17-46(43)48)90-64(101)49(19-11-25-79-70(74)75)86-65(102)52(29-41-15-7-4-8-16-41)89-67(104)54(31-44-33-78-38-84-44)85-58(96)35-83-62(55)99/h3-10,13-18,21-24,32-33,38-39,47,49-56,59,81,94H,11-12,19-20,25-31,34-37,72H2,1-2H3,(H2,73,95)(H,78,84)(H,82,98)(H,83,99)(H,85,96)(H,86,102)(H,87,105)(H,88,100)(H,89,104)(H,90,101)(H,91,103)(H,92,106)(H,93,97)(H4,74,75,79)(H4,76,77,80)/t47-,49-,50-,51-,52+,53-,54-,55+,56-,59-/m0/s1

>  <IUPAC Name>  (1) 
(4R,7S,10S,13R,16S,22S)-22-[[(2S)-2-[[(2S)-2-amino-3-(4-hydroxyphenyl)propanoyl]amino]-3-methylbutanoyl]amino]-N-[(2S)-1-[[(2S)-1-[(2-amino-2-oxoethyl)amino]-1-oxo-3-phenylpropan-2-yl]amino]-5-(diaminomethylideneamino)-1-oxopentan-2-yl]-13-benzyl-10-[3-(diaminomethylideneamino)propyl]-16-(1H-imidazol-4-ylmethyl)-7-(1H-indol-3-ylmethyl)-6,9,12,15,18,21-hexaoxo-1,2-dithia-5,8,11,14,17,20-hexazacyclotricosane-4-carboxamide

$$$$
