
     RDKit          3D

118123  0  0  0  0  0  0  0  0999 V2000
    2.7812   -1.3364    0.7239 O   0  0  0  0  0  0  0  0  0  0  0  0
    2.6204   -2.5698    0.4726 C   0  0  0  0  0  0  0  0  0  0  0  0
    1.6563   -2.9680   -0.5301 N   0  0  0  0  0  0  0  0  0  0  0  0
    0.9025   -1.9138   -1.1569 C   0  0  2  0  0  0  0  0  0  0  0  0
   -0.2282   -2.4558   -1.9150 C   0  0  0  0  0  0  0  0  0  0  0  0
   -0.2278   -3.6819   -2.2133 O   0  0  0  0  0  0  0  0  0  0  0  0
   -1.3462   -1.6820   -2.3475 N   0  0  0  0  0  0  0  0  0  0  0  0
   -2.4413   -2.0534   -3.2159 C   0  0  0  0  0  0  0  0  0  0  0  0
   -3.0608   -0.7134   -3.5696 C   0  0  0  0  0  0  0  0  0  0  0  0
   -2.0580    0.3369   -3.1143 C   0  0  0  0  0  0  0  0  0  0  0  0
   -1.5557   -0.3173   -1.8305 C   0  0  1  0  0  0  0  0  0  0  0  0
   -2.7082   -0.4488   -0.8671 C   0  0  0  0  0  0  0  0  0  0  0  0
   -3.4335   -1.4524   -0.9066 O   0  0  0  0  0  0  0  0  0  0  0  0
   -3.0096    0.5445    0.1061 N   0  0  0  0  0  0  0  0  0  0  0  0
   -4.1614    0.2914    0.9510 C   0  0  2  0  0  0  0  0  0  0  0  0
   -4.9427    1.5499    0.9889 C   0  0  0  0  0  0  0  0  0  0  0  0
   -4.3963    2.5417    0.4011 O   0  0  0  0  0  0  0  0  0  0  0  0
   -6.1423    1.6032    1.6105 O   0  0  0  0  0  0  0  0  0  0  0  0
   -6.9360    2.7404    1.7055 C   0  0  0  0  0  0  0  0  0  0  0  0
   -7.2899    3.2921    0.3778 C   0  0  0  0  0  0  0  0  0  0  0  0
   -6.5822    4.3486   -0.1603 C   0  0  0  0  0  0  0  0  0  0  0  0
   -6.8363    4.8948   -1.3914 C   0  0  0  0  0  0  0  0  0  0  0  0
   -7.8516    4.3665   -2.1353 C   0  0  0  0  0  0  0  0  0  0  0  0
   -8.5791    3.3156   -1.6354 C   0  0  0  0  0  0  0  0  0  0  0  0
   -8.3248    2.7674   -0.4019 C   0  0  0  0  0  0  0  0  0  0  0  0
   -9.6753    2.7675   -2.4835 C   0  0  0  0  0  0  0  0  0  0  0  0
   -9.2929    1.6419   -3.1758 F   0  0  0  0  0  0  0  0  0  0  0  0
  -10.0588    3.7384   -3.4054 F   0  0  0  0  0  0  0  0  0  0  0  0
  -10.7771    2.5290   -1.6960 F   0  0  0  0  0  0  0  0  0  0  0  0
   -5.9808    6.0372   -1.8514 C   0  0  0  0  0  0  0  0  0  0  0  0
   -6.6805    7.1987   -1.5794 F   0  0  0  0  0  0  0  0  0  0  0  0
   -5.6875    5.8991   -3.1851 F   0  0  0  0  0  0  0  0  0  0  0  0
   -4.7768    6.0405   -1.1697 F   0  0  0  0  0  0  0  0  0  0  0  0
   -3.7550   -0.0621    2.3644 C   0  0  0  0  0  0  0  0  0  0  0  0
   -4.9948   -0.3040    3.1488 C   0  0  0  0  0  0  0  0  0  0  0  0
   -5.5595    0.5456    4.0930 C   0  0  0  0  0  0  0  0  0  0  0  0
   -6.6672   -0.0028    4.6043 N   0  0  0  0  0  0  0  0  0  0  0  0
   -6.8585   -1.2134    4.0175 C   0  0  0  0  0  0  0  0  0  0  0  0
   -5.8281   -1.4095    3.1142 C   0  0  0  0  0  0  0  0  0  0  0  0
   -5.8050   -2.5801    2.3900 C   0  0  0  0  0  0  0  0  0  0  0  0
   -6.7908   -3.5643    2.5480 C   0  0  0  0  0  0  0  0  0  0  0  0
   -7.8215   -3.3735    3.4486 C   0  0  0  0  0  0  0  0  0  0  0  0
   -7.8328   -2.2044    4.1627 C   0  0  0  0  0  0  0  0  0  0  0  0
    1.8284   -1.2682   -2.2559 C   0  0  0  0  0  0  0  0  0  0  0  0
    2.2344   -2.3140   -3.2279 C   0  0  0  0  0  0  0  0  0  0  0  0
    1.5155   -2.6615   -4.3376 C   0  0  0  0  0  0  0  0  0  0  0  0
    1.9848   -3.6571   -5.1775 C   0  0  0  0  0  0  0  0  0  0  0  0
    3.1645   -4.2816   -4.8885 C   0  0  0  0  0  0  0  0  0  0  0  0
    3.9355   -3.9703   -3.7798 C   0  0  0  0  0  0  0  0  0  0  0  0
    3.4271   -2.9673   -2.9639 C   0  0  0  0  0  0  0  0  0  0  0  0
    3.3516   -3.6567    1.1346 C   0  0  0  0  0  0  0  0  0  0  0  0
    4.3567   -3.1877    2.0800 N   0  0  0  0  0  0  0  0  0  0  0  0
    5.4330   -2.4396    1.5238 C   0  0  0  0  0  0  0  0  0  0  0  0
    5.4969   -2.2124    0.2759 O   0  0  0  0  0  0  0  0  0  0  0  0
    6.5488   -1.8830    2.3574 C   0  0  2  0  0  0  0  0  0  0  0  0
    7.5881   -1.3986    1.4766 N   0  0  0  0  0  0  0  0  0  0  0  0
    8.0579   -0.0887    1.3546 C   0  0  0  0  0  0  0  0  0  0  0  0
    7.5300    0.7975    2.0861 O   0  0  0  0  0  0  0  0  0  0  0  0
    9.1348    0.1929    0.3904 C   0  0  2  0  0  0  0  0  0  0  0  0
    8.9141    1.3178   -0.5505 C   0  0  0  0  0  0  0  0  0  0  0  0
    8.7299    2.6413    0.0848 C   0  0  0  0  0  0  0  0  0  0  0  0
    7.5275    3.1847    0.4389 C   0  0  0  0  0  0  0  0  0  0  0  0
    7.3743    4.4275    1.0258 C   0  0  0  0  0  0  0  0  0  0  0  0
    8.5222    5.1791    1.2748 C   0  0  0  0  0  0  0  0  0  0  0  0
    9.7685    4.6670    0.9325 C   0  0  0  0  0  0  0  0  0  0  0  0
    9.8733    3.4133    0.3443 C   0  0  0  0  0  0  0  0  0  0  0  0
    8.4407    6.4498    1.8696 O   0  0  0  0  0  0  0  0  0  0  0  0
    9.4834   -1.0317   -0.3375 N   0  0  0  0  0  0  0  0  0  0  0  0
    6.9831   -2.9671    3.2929 C   0  0  0  0  0  0  0  0  0  0  0  0
    1.5106   -3.9680   -0.7845 H   0  0  0  0  0  0  0  0  0  0  0  0
    0.7054   -1.0758   -0.4797 H   0  0  0  0  0  0  0  0  0  0  0  0
   -2.0595   -2.5683   -4.1391 H   0  0  0  0  0  0  0  0  0  0  0  0
   -3.1676   -2.7522   -2.7609 H   0  0  0  0  0  0  0  0  0  0  0  0
   -3.1975   -0.6988   -4.6675 H   0  0  0  0  0  0  0  0  0  0  0  0
   -3.9898   -0.5204   -3.0373 H   0  0  0  0  0  0  0  0  0  0  0  0
   -1.2227    0.3245   -3.8274 H   0  0  0  0  0  0  0  0  0  0  0  0
   -2.4849    1.3217   -2.9474 H   0  0  0  0  0  0  0  0  0  0  0  0
   -0.6847    0.1558   -1.4357 H   0  0  0  0  0  0  0  0  0  0  0  0
   -2.4080    1.3894    0.1689 H   0  0  0  0  0  0  0  0  0  0  0  0
   -4.7684   -0.4927    0.4918 H   0  0  0  0  0  0  0  0  0  0  0  0
   -7.8622    2.4508    2.2689 H   0  0  0  0  0  0  0  0  0  0  0  0
   -6.3793    3.4829    2.3237 H   0  0  0  0  0  0  0  0  0  0  0  0
   -5.7794    4.7986    0.4293 H   0  0  0  0  0  0  0  0  0  0  0  0
   -8.0776    4.7759   -3.1163 H   0  0  0  0  0  0  0  0  0  0  0  0
   -8.9266    1.9302   -0.0303 H   0  0  0  0  0  0  0  0  0  0  0  0
   -3.1596   -0.9992    2.3890 H   0  0  0  0  0  0  0  0  0  0  0  0
   -3.2576    0.8172    2.7793 H   0  0  0  0  0  0  0  0  0  0  0  0
   -5.1585    1.5300    4.3829 H   0  0  0  0  0  0  0  0  0  0  0  0
   -7.3144    0.3754    5.3261 H   0  0  0  0  0  0  0  0  0  0  0  0
   -5.0041   -2.7662    1.6683 H   0  0  0  0  0  0  0  0  0  0  0  0
   -6.7504   -4.4816    1.9646 H   0  0  0  0  0  0  0  0  0  0  0  0
   -8.6005   -4.1167    3.5953 H   0  0  0  0  0  0  0  0  0  0  0  0
   -8.6512   -2.0423    4.8841 H   0  0  0  0  0  0  0  0  0  0  0  0
    2.7138   -0.8307   -1.7722 H   0  0  0  0  0  0  0  0  0  0  0  0
    1.1805   -0.5123   -2.7376 H   0  0  0  0  0  0  0  0  0  0  0  0
    0.5884   -2.1260   -4.5084 H   0  0  0  0  0  0  0  0  0  0  0  0
    1.4225   -3.9468   -6.0649 H   0  0  0  0  0  0  0  0  0  0  0  0
    3.4905   -5.0651   -5.5899 H   0  0  0  0  0  0  0  0  0  0  0  0
    4.8620   -4.4675   -3.5623 H   0  0  0  0  0  0  0  0  0  0  0  0
    4.0099   -2.6942   -2.0745 H   0  0  0  0  0  0  0  0  0  0  0  0
    3.8179   -4.3863    0.4384 H   0  0  0  0  0  0  0  0  0  0  0  0
    2.6196   -4.2699    1.7385 H   0  0  0  0  0  0  0  0  0  0  0  0
    4.3179   -3.3717    3.1017 H   0  0  0  0  0  0  0  0  0  0  0  0
    6.1724   -1.0031    2.9211 H   0  0  0  0  0  0  0  0  0  0  0  0
    8.0300   -2.1508    0.8639 H   0  0  0  0  0  0  0  0  0  0  0  0
   10.0571    0.4058    1.0138 H   0  0  0  0  0  0  0  0  0  0  0  0
    8.1269    1.1067   -1.3087 H   0  0  0  0  0  0  0  0  0  0  0  0
    9.8550    1.3971   -1.1777 H   0  0  0  0  0  0  0  0  0  0  0  0
    6.6309    2.6249    0.2563 H   0  0  0  0  0  0  0  0  0  0  0  0
    6.3848    4.8217    1.2930 H   0  0  0  0  0  0  0  0  0  0  0  0
   10.6676    5.2566    1.1310 H   0  0  0  0  0  0  0  0  0  0  0  0
   10.8526    2.9923    0.0637 H   0  0  0  0  0  0  0  0  0  0  0  0
    7.5676    6.6670    2.3608 H   0  0  0  0  0  0  0  0  0  0  0  0
    9.9123   -0.8347   -1.2581 H   0  0  0  0  0  0  0  0  0  0  0  0
    9.9834   -1.6839    0.2768 H   0  0  0  0  0  0  0  0  0  0  0  0
    8.0056   -2.8359    3.6586 H   0  0  0  0  0  0  0  0  0  0  0  0
    6.3244   -2.9408    4.2069 H   0  0  0  0  0  0  0  0  0  0  0  0
    6.8843   -3.9916    2.8785 H   0  0  0  0  0  0  0  0  0  0  0  0
  1  2  2  0
  2  3  1  0
  3  4  1  0
  4  5  1  0
  5  6  2  0
  5  7  1  0
  7  8  1  0
  8  9  1  0
  9 10  1  0
 10 11  1  0
 11 12  1  0
 12 13  2  0
 12 14  1  0
 14 15  1  0
 15 16  1  0
 16 17  2  0
 16 18  1  0
 18 19  1  0
 19 20  1  0
 20 21  2  0
 21 22  1  0
 22 23  2  0
 23 24  1  0
 24 25  2  0
 24 26  1  0
 26 27  1  0
 26 28  1  0
 26 29  1  0
 22 30  1  0
 30 31  1  0
 30 32  1  0
 30 33  1  0
 15 34  1  0
 34 35  1  0
 35 36  2  0
 36 37  1  0
 37 38  1  0
 38 39  2  0
 39 40  1  0
 40 41  2  0
 41 42  1  0
 42 43  2  0
  4 44  1  0
 44 45  1  0
 45 46  2  0
 46 47  1  0
 47 48  2  0
 48 49  1  0
 49 50  2  0
  2 51  1  0
 51 52  1  0
 52 53  1  0
 53 54  2  0
 53 55  1  0
 55 56  1  0
 56 57  1  0
 57 58  2  0
 57 59  1  0
 59 60  1  0
 60 61  1  0
 61 62  2  0
 62 63  1  0
 63 64  2  0
 64 65  1  0
 65 66  2  0
 64 67  1  0
 59 68  1  0
 55 69  1  0
 11  7  1  0
 25 20  1  0
 39 35  1  0
 50 45  1  0
 66 61  1  0
 43 38  1  0
  3 70  1  0
  4 71  1  1
  8 72  1  0
  8 73  1  0
  9 74  1  0
  9 75  1  0
 10 76  1  0
 10 77  1  0
 11 78  1  1
 14 79  1  0
 15 80  1  6
 19 81  1  0
 19 82  1  0
 21 83  1  0
 23 84  1  0
 25 85  1  0
 34 86  1  0
 34 87  1  0
 36 88  1  0
 37 89  1  0
 40 90  1  0
 41 91  1  0
 42 92  1  0
 43 93  1  0
 44 94  1  0
 44 95  1  0
 46 96  1  0
 47 97  1  0
 48 98  1  0
 49 99  1  0
 50100  1  0
 51101  1  0
 51102  1  0
 52103  1  0
 55104  1  1
 56105  1  0
 59106  1  1
 60107  1  0
 60108  1  0
 62109  1  0
 63110  1  0
 65111  1  0
 66112  1  0
 67113  1  0
 68114  1  0
 68115  1  0
 69116  1  0
 69117  1  0
 69118  1  0
M  END
>  <Ligand ID>  (1) 
LIG0005390

>  <Ligand>  (1) 
CHEMBL2419543

>  <SMILES>  (1) 
O=C(N[C@H](C(=O)N1CCC[C@H]1C(=O)N[C@H](C(=O)OCc1cc(cc(c1)C(F)(F)F)C(F)(F)F)Cc1c[nH]c2c1cccc2)Cc1ccccc1)CNC(=O)[C@H](NC(=O)[C@H](Cc1ccc(cc1)O)N)C

>  <CID>  (1) 
71818134.0

>  <ChEMBL ID>  (1) 
nan

>  <InChiKey>  (1) 
NTYJRAGMLUHRNV-DZGOFYRVSA-N

>  <InChi>  (1) 
InChI=1S/C48H49F6N7O8/c1-27(58-43(65)36(55)20-29-13-15-34(62)16-14-29)42(64)57-25-41(63)59-38(21-28-8-3-2-4-9-28)45(67)61-17-7-12-40(61)44(66)60-39(22-31-24-56-37-11-6-5-10-35(31)37)46(68)69-26-30-18-32(47(49,50)51)23-33(19-30)48(52,53)54/h2-6,8-11,13-16,18-19,23-24,27,36,38-40,56,62H,7,12,17,20-22,25-26,55H2,1H3,(H,57,64)(H,58,65)(H,59,63)(H,60,66)/t27-,36+,38+,39+,40+/m1/s1

>  <IUPAC Name>  (1) 
[3,5-bis(trifluoromethyl)phenyl]methyl (2S)-2-[[(2S)-1-[(2S)-2-[[2-[[(2R)-2-[[(2S)-2-amino-3-(4-hydroxyphenyl)propanoyl]amino]propanoyl]amino]acetyl]amino]-3-phenylpropanoyl]pyrrolidine-2-carbonyl]amino]-3-(1H-indol-3-yl)propanoate

$$$$
