
     RDKit          3D

 24 24  0  0  0  0  0  0  0  0999 V2000
   -4.1970    0.3660    0.6371 C   0  0  0  0  0  0  0  0  0  0  0  0
   -2.9178   -0.1551    0.0830 C   0  0  0  0  0  0  0  0  0  0  0  0
   -1.7408    0.3047    0.4354 C   0  0  0  0  0  0  0  0  0  0  0  0
   -0.4746   -0.1897   -0.0935 C   0  0  0  0  0  0  0  0  0  0  0  0
   -0.3859   -1.2002   -1.0264 C   0  0  0  0  0  0  0  0  0  0  0  0
    0.8320   -1.6589   -1.5196 C   0  0  0  0  0  0  0  0  0  0  0  0
    2.0079   -1.0926   -1.0694 C   0  0  0  0  0  0  0  0  0  0  0  0
    1.9513   -0.0837   -0.1400 C   0  0  0  0  0  0  0  0  0  0  0  0
    0.7157    0.3591    0.3398 C   0  0  0  0  0  0  0  0  0  0  0  0
    3.1399    0.4663    0.2946 O   0  0  0  0  0  0  0  0  0  0  0  0
    3.0578    1.5103    1.2578 C   0  0  0  0  0  0  0  0  0  0  0  0
    3.2489   -1.5285   -1.5431 O   0  0  0  0  0  0  0  0  0  0  0  0
   -4.6634   -0.3357    1.3625 H   0  0  0  0  0  0  0  0  0  0  0  0
   -4.0815    1.3425    1.1300 H   0  0  0  0  0  0  0  0  0  0  0  0
   -4.9129    0.4885   -0.2094 H   0  0  0  0  0  0  0  0  0  0  0  0
   -2.9979   -0.9511   -0.6430 H   0  0  0  0  0  0  0  0  0  0  0  0
   -1.7253    1.1030    1.1673 H   0  0  0  0  0  0  0  0  0  0  0  0
   -1.2753   -1.6767   -1.4111 H   0  0  0  0  0  0  0  0  0  0  0  0
    0.8438   -2.4702   -2.2651 H   0  0  0  0  0  0  0  0  0  0  0  0
    0.6985    1.1545    1.0710 H   0  0  0  0  0  0  0  0  0  0  0  0
    4.1140    1.7725    1.5193 H   0  0  0  0  0  0  0  0  0  0  0  0
    2.5204    2.3657    0.7806 H   0  0  0  0  0  0  0  0  0  0  0  0
    2.5204    1.2033    2.1634 H   0  0  0  0  0  0  0  0  0  0  0  0
    3.7217   -1.0942   -2.3211 H   0  0  0  0  0  0  0  0  0  0  0  0
  1  2  1  0
  2  3  2  0
  3  4  1  0
  4  5  2  0
  5  6  1  0
  6  7  2  0
  7  8  1  0
  8  9  2  0
  8 10  1  0
 10 11  1  0
  7 12  1  0
  9  4  1  0
  1 13  1  0
  1 14  1  0
  1 15  1  0
  2 16  1  0
  3 17  1  0
  5 18  1  0
  6 19  1  0
  9 20  1  0
 11 21  1  0
 11 22  1  0
 11 23  1  0
 12 24  1  0
M  END
>  <Ligand ID>  (1) 
LIG0000042

>  <Ligand>  (1) 
isoeugenol

>  <SMILES>  (1) 
C/C=C/c1ccc(c(c1)OC)O

>  <CID>  (1) 
853433.0

>  <ChEMBL ID>  (1) 
nan

>  <InChiKey>  (1) 
BJIOGJUNALELMI-ONEGZZNKSA-N

>  <InChi>  (1) 
InChI=1S/C10H12O2/c1-3-4-8-5-6-9(11)10(7-8)12-2/h3-7,11H,1-2H3/b4-3+

>  <IUPAC Name>  (1) 
2-methoxy-4-[(E)-prop-1-enyl]phenol

$$$$
