
     RDKit          3D

 37 37  0  0  0  0  0  0  0  0999 V2000
    0.4491    2.0778    1.7517 O   0  0  0  0  0  0  0  0  0  0  0  0
    0.4791    2.1270    0.5076 C   0  0  0  0  0  0  0  0  0  0  0  0
    1.8066    2.2925   -0.1543 C   0  0  0  0  0  0  0  0  0  0  0  0
    2.5958    1.0004    0.2450 C   0  0  0  0  0  0  0  0  0  0  0  0
    1.9823   -0.0766   -0.6566 C   0  0  0  0  0  0  0  0  0  0  0  0
    2.3124   -1.4657   -0.3074 C   0  0  0  0  0  0  0  0  0  0  0  0
    1.3139   -2.1340    0.5970 C   0  0  0  0  0  0  0  0  0  0  0  0
    0.0884   -2.6596   -0.0161 C   0  0  0  0  0  0  0  0  0  0  0  0
   -0.8793   -1.8462   -0.7472 C   0  0  0  0  0  0  0  0  0  0  0  0
   -1.6397   -0.8010    0.0192 C   0  0  0  0  0  0  0  0  0  0  0  0
   -2.4665    0.0750   -0.8768 C   0  0  0  0  0  0  0  0  0  0  0  0
   -3.0520    1.2648   -0.1190 C   0  0  0  0  0  0  0  0  0  0  0  0
   -1.9208    1.8055    0.7639 C   0  0  0  0  0  0  0  0  0  0  0  0
   -0.7626    1.9932   -0.1353 N   0  0  0  0  0  0  0  0  0  0  0  0
    1.7440    2.3357   -1.2511 H   0  0  0  0  0  0  0  0  0  0  0  0
    2.4052    3.1181    0.2089 H   0  0  0  0  0  0  0  0  0  0  0  0
    3.6282    1.1480   -0.0533 H   0  0  0  0  0  0  0  0  0  0  0  0
    2.4844    0.8376    1.2957 H   0  0  0  0  0  0  0  0  0  0  0  0
    2.3613    0.1464   -1.7050 H   0  0  0  0  0  0  0  0  0  0  0  0
    0.9141    0.1332   -0.6859 H   0  0  0  0  0  0  0  0  0  0  0  0
    2.5467   -2.1164   -1.1857 H   0  0  0  0  0  0  0  0  0  0  0  0
    3.3006   -1.4320    0.2531 H   0  0  0  0  0  0  0  0  0  0  0  0
    1.1660   -1.4351    1.4457 H   0  0  0  0  0  0  0  0  0  0  0  0
    1.8344   -3.0172    1.0754 H   0  0  0  0  0  0  0  0  0  0  0  0
    0.4227   -3.4691   -0.7542 H   0  0  0  0  0  0  0  0  0  0  0  0
   -0.4928   -3.2873    0.7351 H   0  0  0  0  0  0  0  0  0  0  0  0
   -1.6916   -2.5703   -1.0996 H   0  0  0  0  0  0  0  0  0  0  0  0
   -0.5084   -1.4425   -1.7230 H   0  0  0  0  0  0  0  0  0  0  0  0
   -2.3385   -1.3976    0.6893 H   0  0  0  0  0  0  0  0  0  0  0  0
   -0.9748   -0.3140    0.7134 H   0  0  0  0  0  0  0  0  0  0  0  0
   -3.3079   -0.5099   -1.2670 H   0  0  0  0  0  0  0  0  0  0  0  0
   -1.8617    0.4320   -1.7084 H   0  0  0  0  0  0  0  0  0  0  0  0
   -3.8760    0.9879    0.5151 H   0  0  0  0  0  0  0  0  0  0  0  0
   -3.3155    2.0581   -0.7999 H   0  0  0  0  0  0  0  0  0  0  0  0
   -2.2302    2.8381    1.0265 H   0  0  0  0  0  0  0  0  0  0  0  0
   -1.7243    1.2683    1.6634 H   0  0  0  0  0  0  0  0  0  0  0  0
   -0.7928    2.0350   -1.1377 H   0  0  0  0  0  0  0  0  0  0  0  0
  1  2  2  0
  2  3  1  0
  3  4  1  0
  4  5  1  0
  5  6  1  0
  6  7  1  0
  7  8  1  0
  8  9  1  0
  9 10  1  0
 10 11  1  0
 11 12  1  0
 12 13  1  0
 13 14  1  0
 14  2  1  0
  3 15  1  0
  3 16  1  0
  4 17  1  0
  4 18  1  0
  5 19  1  0
  5 20  1  0
  6 21  1  0
  6 22  1  0
  7 23  1  0
  7 24  1  0
  8 25  1  0
  8 26  1  0
  9 27  1  0
  9 28  1  0
 10 29  1  0
 10 30  1  0
 11 31  1  0
 11 32  1  0
 12 33  1  0
 12 34  1  0
 13 35  1  0
 13 36  1  0
 14 37  1  0
M  END
>  <Ligand ID>  (1) 
LIG0005050

>  <Ligand>  (1) 
Laurolactam

>  <SMILES>  (1) 
O=C1CCCCCCCCCCCN1

>  <CID>  (1) 
13690.0

>  <ChEMBL ID>  (1) 
nan

>  <InChiKey>  (1) 
JHWNWJKBPDFINM-UHFFFAOYSA-N

>  <InChi>  (1) 
InChI=1S/C12H23NO/c14-12-10-8-6-4-2-1-3-5-7-9-11-13-12/h1-11H2,(H,13,14)

>  <IUPAC Name>  (1) 
azacyclotridecan-2-one

$$$$
