
     RDKit          3D

 31 32  0  0  0  0  0  0  0  0999 V2000
   -3.2780    1.5251   -0.3454 C   0  0  0  0  0  0  0  0  0  0  0  0
   -2.4149    0.3209   -0.1493 C   0  0  0  0  0  0  0  0  0  0  0  0
   -2.9384   -0.9624   -0.1591 C   0  0  0  0  0  0  0  0  0  0  0  0
   -2.1325   -2.0664    0.0230 C   0  0  0  0  0  0  0  0  0  0  0  0
   -0.7844   -1.8950    0.2184 C   0  0  0  0  0  0  0  0  0  0  0  0
   -0.2164   -0.6400    0.2368 C   0  0  0  0  0  0  0  0  0  0  0  0
   -1.0624    0.4645    0.0480 C   0  0  0  0  0  0  0  0  0  0  0  0
   -0.4626    1.8177    0.0437 C   0  0  0  0  0  0  0  0  0  0  0  0
   -1.1227    2.8557   -0.1123 O   0  0  0  0  0  0  0  0  0  0  0  0
    0.9741    1.8212    0.2399 N   0  0  0  0  0  0  0  0  0  0  0  0
    1.6820    0.7208   -0.3284 C   0  0  2  0  0  0  0  0  0  0  0  0
    1.2131   -0.5127    0.4676 C   0  0  2  0  0  0  0  0  0  0  0  0
    2.1190   -1.5167   -0.1415 C   0  0  0  0  0  0  0  0  0  0  0  0
    3.4192   -0.8390    0.0137 N   0  0  0  0  0  0  0  0  0  0  0  0
    3.1305    0.6065   -0.0470 C   0  0  0  0  0  0  0  0  0  0  0  0
    0.6843    0.0000    0.0000 Cl  0  0  0  0  0  0  0  0  0  0  0  0
   -3.2953    2.1889    0.5380 H   0  0  0  0  0  0  0  0  0  0  0  0
   -3.0001    2.0759   -1.2662 H   0  0  0  0  0  0  0  0  0  0  0  0
   -4.3324    1.1485   -0.4839 H   0  0  0  0  0  0  0  0  0  0  0  0
   -4.0058   -1.0378   -0.3168 H   0  0  0  0  0  0  0  0  0  0  0  0
   -2.5541   -3.0708    0.0132 H   0  0  0  0  0  0  0  0  0  0  0  0
   -0.1939   -2.7949    0.3567 H   0  0  0  0  0  0  0  0  0  0  0  0
    1.3891    2.6165    0.7725 H   0  0  0  0  0  0  0  0  0  0  0  0
    1.4951    0.5610   -1.4140 H   0  0  0  0  0  0  0  0  0  0  0  0
    1.4815   -0.3021    1.5236 H   0  0  0  0  0  0  0  0  0  0  0  0
    1.8800   -1.6962   -1.1885 H   0  0  0  0  0  0  0  0  0  0  0  0
    2.1746   -2.4612    0.4398 H   0  0  0  0  0  0  0  0  0  0  0  0
    3.6883   -1.0200    1.0270 H   0  0  0  0  0  0  0  0  0  0  0  0
    3.3922    1.1259    0.8841 H   0  0  0  0  0  0  0  0  0  0  0  0
    3.7554    0.9663   -0.8937 H   0  0  0  0  0  0  0  0  0  0  0  0
   -0.6843    0.0000    0.0000 H   0  0  0  0  0  0  0  0  0  0  0  0
  1  2  1  0
  2  3  2  0
  3  4  1  0
  4  5  2  0
  5  6  1  0
  6  7  2  0
  7  8  1  0
  8  9  2  0
  8 10  1  0
 10 11  1  0
 11 12  1  0
 12 13  1  0
 13 14  1  0
 14 15  1  0
  7  2  1  0
 15 11  1  0
 12  6  1  0
  1 17  1  0
  1 18  1  0
  1 19  1  0
  3 20  1  0
  4 21  1  0
  5 22  1  0
 10 23  1  0
 11 24  1  6
 12 25  1  1
 13 26  1  0
 13 27  1  0
 14 28  1  0
 15 29  1  0
 15 30  1  0
 16 31  1  0
M  END
>  <Ligand ID>  (1) 
LIG0003883

>  <Ligand>  (1) 
CHEMBL2337494

>  <SMILES>  (1) 
Cc1cccc2c1C(=O)N[C@@H]1[C@@H]2CNC1.Cl

>  <CID>  (1) 
11514225.0

>  <ChEMBL ID>  (1) 
nan

>  <InChiKey>  (1) 
CCFJJHFDZNFADQ-UXQCFNEQSA-N

>  <InChi>  (1) 
InChI=1S/C12H14N2O.ClH/c1-7-3-2-4-8-9-5-13-6-10(9)14-12(15)11(7)8;/h2-4,9-10,13H,5-6H2,1H3,(H,14,15);1H/t9-,10+;/m1./s1

>  <IUPAC Name>  (1) 
(3aR,9bS)-6-methyl-1,2,3,3a,4,9b-hexahydropyrrolo[3,4-c]isoquinolin-5-one;hydrochloride

$$$$
