
     RDKit          3D

 72 73  0  0  0  0  0  0  0  0999 V2000
   -7.3490    1.3150    2.8562 O   0  0  0  0  0  0  0  0  0  0  0  0
   -7.7209    1.6747    1.5594 C   0  0  0  0  0  0  0  0  0  0  0  0
   -6.6377    2.5692    1.0139 C   0  0  0  0  0  0  0  0  0  0  0  0
   -5.3936    1.8339    1.0119 N   0  0  0  0  0  0  0  0  0  0  0  0
   -5.1736    0.6364    0.2842 C   0  0  0  0  0  0  0  0  0  0  0  0
   -6.1065    0.1884   -0.4009 O   0  0  0  0  0  0  0  0  0  0  0  0
   -3.8949   -0.1135    0.2916 C   0  0  1  0  0  0  0  0  0  0  0  0
   -2.8734    0.5010    1.1164 N   0  0  0  0  0  0  0  0  0  0  0  0
   -1.7409    1.0633    0.5135 C   0  0  0  0  0  0  0  0  0  0  0  0
   -0.8022    1.6205    1.1765 O   0  0  0  0  0  0  0  0  0  0  0  0
   -1.5444    1.0524   -0.9717 C   0  0  0  0  0  0  0  0  0  0  0  0
   -0.2839    1.7049   -1.2970 N   0  0  0  0  0  0  0  0  0  0  0  0
    0.9685    1.2232   -0.8052 C   0  0  0  0  0  0  0  0  0  0  0  0
    1.0532    0.2048   -0.0609 O   0  0  0  0  0  0  0  0  0  0  0  0
    2.2333    1.9049   -1.1510 C   0  0  2  0  0  0  0  0  0  0  0  0
    3.3166    1.1692   -0.4959 N   0  0  0  0  0  0  0  0  0  0  0  0
    4.4246    0.6464   -1.2064 C   0  0  0  0  0  0  0  0  0  0  0  0
    4.4531    0.8394   -2.4654 O   0  0  0  0  0  0  0  0  0  0  0  0
    5.5335   -0.0969   -0.5941 C   0  0  2  0  0  0  0  0  0  0  0  0
    6.2875    0.6223    0.4715 C   0  0  0  0  0  0  0  0  0  0  0  0
    7.3682   -0.2998    0.9634 C   0  0  0  0  0  0  0  0  0  0  0  0
    7.1306   -1.1771    2.0245 C   0  0  0  0  0  0  0  0  0  0  0  0
    8.1439   -2.0195    2.4619 C   0  0  0  0  0  0  0  0  0  0  0  0
    9.3999   -2.0123    1.8659 C   0  0  0  0  0  0  0  0  0  0  0  0
    9.6380   -1.1395    0.8094 C   0  0  0  0  0  0  0  0  0  0  0  0
    8.6168   -0.3050    0.3841 C   0  0  0  0  0  0  0  0  0  0  0  0
   10.3852   -2.8793    2.3430 O   0  0  0  0  0  0  0  0  0  0  0  0
    6.4629   -0.4551   -1.6509 N   0  0  0  0  0  0  0  0  0  0  0  0
    2.2093    3.2630   -0.4684 C   0  0  0  0  0  0  0  0  0  0  0  0
   -2.9614    0.5543    2.5725 C   0  0  0  0  0  0  0  0  0  0  0  0
   -4.0333   -1.5770    0.5618 C   0  0  0  0  0  0  0  0  0  0  0  0
   -4.8557   -2.3284   -0.3854 C   0  0  0  0  0  0  0  0  0  0  0  0
   -4.2699   -2.8357   -1.5284 C   0  0  0  0  0  0  0  0  0  0  0  0
   -4.9696   -3.5670   -2.4717 C   0  0  0  0  0  0  0  0  0  0  0  0
   -6.3279   -3.8127   -2.2762 C   0  0  0  0  0  0  0  0  0  0  0  0
   -6.9393   -3.3171   -1.1411 C   0  0  0  0  0  0  0  0  0  0  0  0
   -6.2045   -2.5894   -0.2197 C   0  0  0  0  0  0  0  0  0  0  0  0
   -7.2830    2.1435    3.3876 H   0  0  0  0  0  0  0  0  0  0  0  0
   -8.7116    2.1982    1.5834 H   0  0  0  0  0  0  0  0  0  0  0  0
   -7.8596    0.7713    0.9720 H   0  0  0  0  0  0  0  0  0  0  0  0
   -6.9029    2.8606   -0.0291 H   0  0  0  0  0  0  0  0  0  0  0  0
   -6.5078    3.4845    1.6287 H   0  0  0  0  0  0  0  0  0  0  0  0
   -4.5840    2.1886    1.5740 H   0  0  0  0  0  0  0  0  0  0  0  0
   -3.5053   -0.0026   -0.7647 H   0  0  0  0  0  0  0  0  0  0  0  0
   -2.3410    1.6060   -1.5088 H   0  0  0  0  0  0  0  0  0  0  0  0
   -1.4304   -0.0009   -1.3581 H   0  0  0  0  0  0  0  0  0  0  0  0
   -0.2293    2.5604   -1.9077 H   0  0  0  0  0  0  0  0  0  0  0  0
    2.4090    1.9776   -2.2245 H   0  0  0  0  0  0  0  0  0  0  0  0
    3.2703    1.0247    0.5322 H   0  0  0  0  0  0  0  0  0  0  0  0
    5.1536   -1.0754   -0.1981 H   0  0  0  0  0  0  0  0  0  0  0  0
    5.6873    0.8548    1.3692 H   0  0  0  0  0  0  0  0  0  0  0  0
    6.8066    1.5049    0.0479 H   0  0  0  0  0  0  0  0  0  0  0  0
    6.1527   -1.2069    2.5147 H   0  0  0  0  0  0  0  0  0  0  0  0
    7.9916   -2.7145    3.2857 H   0  0  0  0  0  0  0  0  0  0  0  0
   10.6078   -1.1404    0.3560 H   0  0  0  0  0  0  0  0  0  0  0  0
    8.7982    0.3762   -0.4385 H   0  0  0  0  0  0  0  0  0  0  0  0
   11.1795   -3.0852    1.7526 H   0  0  0  0  0  0  0  0  0  0  0  0
    6.9259    0.4516   -1.9424 H   0  0  0  0  0  0  0  0  0  0  0  0
    5.8767   -0.7278   -2.4801 H   0  0  0  0  0  0  0  0  0  0  0  0
    3.2477    3.6402   -0.4364 H   0  0  0  0  0  0  0  0  0  0  0  0
    1.5178    3.9367   -0.9946 H   0  0  0  0  0  0  0  0  0  0  0  0
    1.9080    3.0693    0.5961 H   0  0  0  0  0  0  0  0  0  0  0  0
   -2.6699    1.5844    2.8629 H   0  0  0  0  0  0  0  0  0  0  0  0
   -3.9593    0.3593    2.9691 H   0  0  0  0  0  0  0  0  0  0  0  0
   -2.1879   -0.0994    3.0360 H   0  0  0  0  0  0  0  0  0  0  0  0
   -4.4791   -1.7740    1.5823 H   0  0  0  0  0  0  0  0  0  0  0  0
   -3.0380   -2.0771    0.6229 H   0  0  0  0  0  0  0  0  0  0  0  0
   -3.2138   -2.6781   -1.7382 H   0  0  0  0  0  0  0  0  0  0  0  0
   -4.5405   -3.9689   -3.3615 H   0  0  0  0  0  0  0  0  0  0  0  0
   -6.9237   -4.3725   -2.9712 H   0  0  0  0  0  0  0  0  0  0  0  0
   -7.9897   -3.4955   -0.9696 H   0  0  0  0  0  0  0  0  0  0  0  0
   -6.7185   -2.2355    0.6414 H   0  0  0  0  0  0  0  0  0  0  0  0
  1  2  1  0
  2  3  1  0
  3  4  1  0
  4  5  1  0
  5  6  2  0
  5  7  1  0
  7  8  1  0
  8  9  1  0
  9 10  2  0
  9 11  1  0
 11 12  1  0
 12 13  1  0
 13 14  2  0
 13 15  1  0
 15 16  1  0
 16 17  1  0
 17 18  2  0
 17 19  1  0
 19 20  1  0
 20 21  1  0
 21 22  2  0
 22 23  1  0
 23 24  2  0
 24 25  1  0
 25 26  2  0
 24 27  1  0
 19 28  1  0
 15 29  1  0
  8 30  1  0
  7 31  1  0
 31 32  1  0
 32 33  2  0
 33 34  1  0
 34 35  2  0
 35 36  1  0
 36 37  2  0
 26 21  1  0
 37 32  1  0
  1 38  1  0
  2 39  1  0
  2 40  1  0
  3 41  1  0
  3 42  1  0
  4 43  1  0
  7 44  1  6
 11 45  1  0
 11 46  1  0
 12 47  1  0
 15 48  1  6
 16 49  1  0
 19 50  1  1
 20 51  1  0
 20 52  1  0
 22 53  1  0
 23 54  1  0
 25 55  1  0
 26 56  1  0
 27 57  1  0
 28 58  1  0
 28 59  1  0
 29 60  1  0
 29 61  1  0
 29 62  1  0
 30 63  1  0
 30 64  1  0
 30 65  1  0
 31 66  1  0
 31 67  1  0
 33 68  1  0
 34 69  1  0
 35 70  1  0
 36 71  1  0
 37 72  1  0
M  END
>  <Ligand ID>  (1) 
LIG0000648

>  <Ligand>  (1) 
DAMGO

>  <SMILES>  (1) 
OCCNC(=O)[C@@H](N(C(=O)CNC(=O)[C@H](NC(=O)[C@H](Cc1ccc(cc1)O)N)C)C)Cc1ccccc1

>  <CID>  (1) 
5462471.0

>  <ChEMBL ID>  (1) 
nan

>  <InChiKey>  (1) 
HPZJMUBDEAMBFI-WTNAPCKOSA-N

>  <InChi>  (1) 
InChI=1S/C26H35N5O6/c1-17(30-25(36)21(27)14-19-8-10-20(33)11-9-19)24(35)29-16-23(34)31(2)22(26(37)28-12-13-32)15-18-6-4-3-5-7-18/h3-11,17,21-22,32-33H,12-16,27H2,1-2H3,(H,28,37)(H,29,35)(H,30,36)/t17-,21+,22+/m1/s1

>  <IUPAC Name>  (1) 
(2S)-2-amino-N-[(2R)-1-[[2-[[(2S)-1-(2-hydroxyethylamino)-1-oxo-3-phenylpropan-2-yl]-methylamino]-2-oxoethyl]amino]-1-oxopropan-2-yl]-3-(4-hydroxyphenyl)propanamide

$$$$
