
     RDKit          3D

 26 26  0  0  0  0  0  0  0  0999 V2000
    3.4788    0.3583   -0.7231 N   0  0  0  0  0  0  0  0  0  0  0  0
    2.8443   -0.8897   -0.4654 C   0  0  0  0  0  0  0  0  0  0  0  0
    1.4229   -0.8324   -0.0527 C   0  0  1  0  0  0  0  0  0  0  0  0
    1.1972   -0.0313    1.2520 C   0  0  0  0  0  0  0  0  0  0  0  0
    0.5943    0.3646   -0.0599 C   0  0  2  0  0  0  0  0  0  0  0  0
   -0.8820    0.2535   -0.1795 C   0  0  0  0  0  0  0  0  0  0  0  0
   -1.5171   -0.8949   -0.6217 C   0  0  0  0  0  0  0  0  0  0  0  0
   -2.9017   -0.9244   -0.7074 C   0  0  0  0  0  0  0  0  0  0  0  0
   -3.6376    0.1921   -0.3510 C   0  0  0  0  0  0  0  0  0  0  0  0
   -3.0229    1.3544    0.0950 C   0  0  0  0  0  0  0  0  0  0  0  0
   -1.6592    1.3567    0.1699 C   0  0  0  0  0  0  0  0  0  0  0  0
   -1.0575    2.4988    0.6081 F   0  0  0  0  0  0  0  0  0  0  0  0
    0.6832    0.0000    0.0000 Cl  0  0  0  0  0  0  0  0  0  0  0  0
    4.0618    0.7258    0.0585 H   0  0  0  0  0  0  0  0  0  0  0  0
    2.8912    1.0745   -1.1873 H   0  0  0  0  0  0  0  0  0  0  0  0
    3.4053   -1.4125    0.3459 H   0  0  0  0  0  0  0  0  0  0  0  0
    2.9530   -1.5528   -1.3702 H   0  0  0  0  0  0  0  0  0  0  0  0
    0.9197   -1.8319   -0.0757 H   0  0  0  0  0  0  0  0  0  0  0  0
    0.5972   -0.5311    2.0370 H   0  0  0  0  0  0  0  0  0  0  0  0
    2.0269    0.5847    1.6292 H   0  0  0  0  0  0  0  0  0  0  0  0
    0.9709    1.3275   -0.4963 H   0  0  0  0  0  0  0  0  0  0  0  0
   -0.9470   -1.7493   -0.8941 H   0  0  0  0  0  0  0  0  0  0  0  0
   -3.3969   -1.8145   -1.0503 H   0  0  0  0  0  0  0  0  0  0  0  0
   -4.7199    0.1488   -0.4252 H   0  0  0  0  0  0  0  0  0  0  0  0
   -3.6216    2.2251    0.3716 H   0  0  0  0  0  0  0  0  0  0  0  0
   -0.6832    0.0000    0.0000 H   0  0  0  0  0  0  0  0  0  0  0  0
  1  2  1  0
  2  3  1  0
  3  4  1  0
  4  5  1  0
  5  6  1  0
  6  7  2  0
  7  8  1  0
  8  9  2  0
  9 10  1  0
 10 11  2  0
 11 12  1  0
  5  3  1  0
 11  6  1  0
  1 14  1  0
  1 15  1  0
  2 16  1  0
  2 17  1  0
  3 18  1  1
  4 19  1  0
  4 20  1  0
  5 21  1  6
  7 22  1  0
  8 23  1  0
  9 24  1  0
 10 25  1  0
 13 26  1  0
M  END
>  <Ligand ID>  (1) 
LIG0002393

>  <Ligand>  (1) 
CHEMBL510308

>  <SMILES>  (1) 
NC[C@H]1C[C@@H]1c1ccccc1F.Cl

>  <CID>  (1) 
44572746.0

>  <ChEMBL ID>  (1) 
nan

>  <InChiKey>  (1) 
RJCJFIHQNXKYNT-JXLXBRSFSA-N

>  <InChi>  (1) 
InChI=1S/C10H12FN.ClH/c11-10-4-2-1-3-8(10)9-5-7(9)6-12;/h1-4,7,9H,5-6,12H2;1H/t7-,9+;/m1./s1

>  <IUPAC Name>  (1) 
[(1S,2S)-2-(2-fluorophenyl)cyclopropyl]methanamine;hydrochloride

$$$$
