
     RDKit          3D

 68 70  0  0  0  0  0  0  0  0999 V2000
   -4.7376    1.7016   -1.5071 C   0  0  0  0  0  0  0  0  0  0  0  0
   -5.0794    1.4707   -0.0501 C   0  0  0  0  0  0  0  0  0  0  0  0
   -5.7109    0.1674    0.2573 C   0  0  0  0  0  0  0  0  0  0  0  0
   -4.9489   -1.0698   -0.0604 C   0  0  0  0  0  0  0  0  0  0  0  0
   -4.5404   -1.3271   -1.4707 C   0  0  0  0  0  0  0  0  0  0  0  0
   -5.2136   -2.6908   -1.4261 C   0  0  0  0  0  0  0  0  0  0  0  0
   -6.0130   -2.1867   -0.2779 C   0  0  0  0  0  0  0  0  0  0  0  0
   -3.9656   -1.5550    0.9941 C   0  0  0  0  0  0  0  0  0  0  0  0
   -2.9104   -0.6174    1.3471 C   0  0  0  0  0  0  0  0  0  0  0  0
   -3.0366    0.1303    2.5264 C   0  0  0  0  0  0  0  0  0  0  0  0
   -2.0743    1.0313    2.9245 C   0  0  0  0  0  0  0  0  0  0  0  0
   -0.9305    1.2323    2.1604 C   0  0  0  0  0  0  0  0  0  0  0  0
   -0.7830    0.5092    0.9966 C   0  0  0  0  0  0  0  0  0  0  0  0
   -1.7622   -0.3855    0.6229 C   0  0  0  0  0  0  0  0  0  0  0  0
    0.4524    0.7471    0.2009 C   0  0  1  0  0  0  0  0  0  0  0  0
    0.5604    2.1330   -0.3135 C   0  0  2  0  0  0  0  0  0  0  0  0
    0.9645    2.1405   -1.6626 O   0  0  0  0  0  0  0  0  0  0  0  0
    1.5886    2.7854    0.5696 C   0  0  0  0  0  0  0  0  0  0  0  0
    2.4520    1.6928    1.1005 C   0  0  2  0  0  0  0  0  0  0  0  0
    1.6933    0.4378    0.9493 C   0  0  2  0  0  0  0  0  0  0  0  0
    2.5479   -0.5340    0.1137 C   0  0  0  0  0  0  0  0  0  0  0  0
    3.8013   -0.8743    0.8192 C   0  0  0  0  0  0  0  0  0  0  0  0
    5.0218   -0.6450    0.3721 C   0  0  0  0  0  0  0  0  0  0  0  0
    5.3836   -0.0136   -0.8999 C   0  0  0  0  0  0  0  0  0  0  0  0
    6.1983   -0.8765   -1.8000 C   0  0  0  0  0  0  0  0  0  0  0  0
    7.5129   -1.3157   -1.2096 C   0  0  0  0  0  0  0  0  0  0  0  0
    8.4320   -0.2155   -0.8698 C   0  0  0  0  0  0  0  0  0  0  0  0
    8.2108    1.0028   -1.0588 O   0  0  0  0  0  0  0  0  0  0  0  0
    9.6486   -0.5507   -0.2907 O   0  0  0  0  0  0  0  0  0  0  0  0
    2.9928    1.9973    2.7655 Cl  0  0  0  0  0  0  0  0  0  0  0  0
   -3.4531   -2.8181    0.6298 O   0  0  0  0  0  0  0  0  0  0  0  0
   -5.6101    1.5773   -2.1636 H   0  0  0  0  0  0  0  0  0  0  0  0
   -3.8063    1.2342   -1.8332 H   0  0  0  0  0  0  0  0  0  0  0  0
   -4.5239    2.8158   -1.5663 H   0  0  0  0  0  0  0  0  0  0  0  0
   -4.2394    1.7862    0.5636 H   0  0  0  0  0  0  0  0  0  0  0  0
   -5.8821    2.2497    0.1605 H   0  0  0  0  0  0  0  0  0  0  0  0
   -6.7042    0.1548   -0.2431 H   0  0  0  0  0  0  0  0  0  0  0  0
   -5.9095    0.1499    1.3561 H   0  0  0  0  0  0  0  0  0  0  0  0
   -3.4598   -1.4654   -1.6598 H   0  0  0  0  0  0  0  0  0  0  0  0
   -5.0690   -0.7346   -2.2469 H   0  0  0  0  0  0  0  0  0  0  0  0
   -5.8829   -2.9095   -2.3107 H   0  0  0  0  0  0  0  0  0  0  0  0
   -4.5388   -3.5457   -1.2724 H   0  0  0  0  0  0  0  0  0  0  0  0
   -7.0017   -1.7982   -0.5834 H   0  0  0  0  0  0  0  0  0  0  0  0
   -6.1222   -2.8580    0.5899 H   0  0  0  0  0  0  0  0  0  0  0  0
   -4.5844   -1.7629    1.8905 H   0  0  0  0  0  0  0  0  0  0  0  0
   -3.9201   -0.0048    3.1454 H   0  0  0  0  0  0  0  0  0  0  0  0
   -2.2540    1.5693    3.8547 H   0  0  0  0  0  0  0  0  0  0  0  0
   -0.2295    1.9434    2.5293 H   0  0  0  0  0  0  0  0  0  0  0  0
   -1.5987   -0.9278   -0.2926 H   0  0  0  0  0  0  0  0  0  0  0  0
    0.3645    0.0339   -0.6753 H   0  0  0  0  0  0  0  0  0  0  0  0
   -0.4074    2.7096   -0.3227 H   0  0  0  0  0  0  0  0  0  0  0  0
    0.7563    1.2722   -2.0572 H   0  0  0  0  0  0  0  0  0  0  0  0
    1.1657    3.4703    1.3247 H   0  0  0  0  0  0  0  0  0  0  0  0
    2.2236    3.4171   -0.1178 H   0  0  0  0  0  0  0  0  0  0  0  0
    3.4061    1.6171    0.4992 H   0  0  0  0  0  0  0  0  0  0  0  0
    1.4924   -0.0808    1.9260 H   0  0  0  0  0  0  0  0  0  0  0  0
    2.6642   -0.1952   -0.9103 H   0  0  0  0  0  0  0  0  0  0  0  0
    1.9317   -1.4819    0.1264 H   0  0  0  0  0  0  0  0  0  0  0  0
    3.6902   -1.3585    1.7973 H   0  0  0  0  0  0  0  0  0  0  0  0
    5.8599   -0.9605    1.0218 H   0  0  0  0  0  0  0  0  0  0  0  0
    4.5110    0.3438   -1.4851 H   0  0  0  0  0  0  0  0  0  0  0  0
    5.9569    0.9057   -0.6631 H   0  0  0  0  0  0  0  0  0  0  0  0
    6.4692   -0.2956   -2.7307 H   0  0  0  0  0  0  0  0  0  0  0  0
    5.6382   -1.7493   -2.1810 H   0  0  0  0  0  0  0  0  0  0  0  0
    7.3384   -1.9843   -0.3229 H   0  0  0  0  0  0  0  0  0  0  0  0
    8.0683   -1.9885   -1.9252 H   0  0  0  0  0  0  0  0  0  0  0  0
   10.4052    0.1263   -0.3415 H   0  0  0  0  0  0  0  0  0  0  0  0
   -2.4995   -2.7790    0.4128 H   0  0  0  0  0  0  0  0  0  0  0  0
  1  2  1  0
  2  3  1  0
  3  4  1  0
  4  5  1  0
  5  6  1  0
  6  7  1  0
  4  8  1  0
  8  9  1  0
  9 10  2  0
 10 11  1  0
 11 12  2  0
 12 13  1  0
 13 14  2  0
 13 15  1  0
 15 16  1  0
 16 17  1  0
 16 18  1  0
 18 19  1  0
 19 20  1  0
 20 21  1  0
 21 22  1  0
 22 23  2  0
 23 24  1  0
 24 25  1  0
 25 26  1  0
 26 27  1  0
 27 28  2  0
 27 29  1  0
 19 30  1  0
  8 31  1  0
  7  4  1  0
 14  9  1  0
 20 15  1  0
  1 32  1  0
  1 33  1  0
  1 34  1  0
  2 35  1  0
  2 36  1  0
  3 37  1  0
  3 38  1  0
  5 39  1  0
  5 40  1  0
  6 41  1  0
  6 42  1  0
  7 43  1  0
  7 44  1  0
  8 45  1  0
 10 46  1  0
 11 47  1  0
 12 48  1  0
 14 49  1  0
 15 50  1  6
 16 51  1  6
 17 52  1  0
 18 53  1  0
 18 54  1  0
 19 55  1  6
 20 56  1  1
 21 57  1  0
 21 58  1  0
 22 59  1  0
 23 60  1  0
 24 61  1  0
 24 62  1  0
 25 63  1  0
 25 64  1  0
 26 65  1  0
 26 66  1  0
 29 67  1  0
 31 68  1  0
M  END
>  <Ligand ID>  (1) 
LIG0001849

>  <Ligand>  (1) 
SCHEMBL5206998

>  <SMILES>  (1) 
CCCC1(CCC1)C(c1cccc(c1)[C@H]1[C@H](O)C[C@H]([C@@H]1C/C=C\CCCC(=O)O)Cl)O

>  <CID>  (1) 
11955178.0

>  <ChEMBL ID>  (1) 
nan

>  <InChiKey>  (1) 
NJOXKYGJCYOIRG-PBNZNZKVSA-N

>  <InChi>  (1) 
InChI=1S/C26H37ClO4/c1-2-13-26(14-8-15-26)25(31)19-10-7-9-18(16-19)24-20(21(27)17-22(24)28)11-5-3-4-6-12-23(29)30/h3,5,7,9-10,16,20-22,24-25,28,31H,2,4,6,8,11-15,17H2,1H3,(H,29,30)/b5-3-/t20-,21+,22+,24+,25?/m0/s1

>  <IUPAC Name>  (1) 
(Z)-7-[(1R,2S,3R,5R)-5-chloro-3-hydroxy-2-[3-[hydroxy-(1-propylcyclobutyl)methyl]phenyl]cyclopentyl]hept-5-enoic acid

$$$$
