
     RDKit          3D

 91 94  0  0  0  0  0  0  0  0999 V2000
   -6.0684   -2.9272    4.0403 C   0  0  0  0  0  0  0  0  0  0  0  0
   -5.2940   -1.9420    3.1911 C   0  0  0  0  0  0  0  0  0  0  0  0
   -5.7986   -2.0911    1.7657 C   0  0  0  0  0  0  0  0  0  0  0  0
   -4.6371   -2.0390    0.7864 C   0  0  0  0  0  0  0  0  0  0  0  0
   -3.7222   -0.9487    1.3058 C   0  0  0  0  0  0  0  0  0  0  0  0
   -2.9293   -1.4586    2.4378 C   0  0  0  0  0  0  0  0  0  0  0  0
   -3.8333   -2.3315    3.2921 C   0  0  0  0  0  0  0  0  0  0  0  0
   -2.9088   -0.3454    0.1536 C   0  0  0  0  0  0  0  0  0  0  0  0
   -2.0141    0.7178    0.7295 C   0  0  0  0  0  0  0  0  0  0  0  0
   -0.7411    0.9442   -0.0330 C   0  0  0  0  0  0  0  0  0  0  0  0
   -0.0300   -0.3012   -0.1477 N   0  0  0  0  0  0  0  0  0  0  0  0
   -0.7466   -1.5479   -0.3675 C   0  0  0  0  0  0  0  0  0  0  0  0
   -2.1927   -1.3747   -0.6366 C   0  0  0  0  0  0  0  0  0  0  0  0
    1.3907   -0.4146   -0.0678 C   0  0  0  0  0  0  0  0  0  0  0  0
    1.9687   -1.5621   -0.1438 O   0  0  0  0  0  0  0  0  0  0  0  0
    2.3166    0.7294    0.1057 C   0  0  1  0  0  0  0  0  0  0  0  0
    3.6829    0.2536    0.3196 N   0  0  0  0  0  0  0  0  0  0  0  0
    4.4003    0.5163    1.5215 C   0  0  0  0  0  0  0  0  0  0  0  0
    3.8977    1.1778    2.4786 O   0  0  0  0  0  0  0  0  0  0  0  0
    5.7902   -0.0352    1.5922 C   0  0  2  0  0  0  0  0  0  0  0  0
    6.4448    0.2744    2.8336 N   0  0  0  0  0  0  0  0  0  0  0  0
    7.6490   -0.5708    2.8671 C   0  0  0  0  0  0  0  0  0  0  0  0
    8.5830   -0.1486    1.7515 C   0  0  0  0  0  0  0  0  0  0  0  0
    7.9829    0.8757    0.9190 N   0  0  0  0  0  0  0  0  0  0  0  0
    6.6552    0.5103    0.4783 C   0  0  0  0  0  0  0  0  0  0  0  0
    8.0292    2.1778    1.5575 C   0  0  0  0  0  0  0  0  0  0  0  0
    2.2919    1.6874   -1.0710 C   0  0  0  0  0  0  0  0  0  0  0  0
    2.6710    1.0360   -2.3367 C   0  0  0  0  0  0  0  0  0  0  0  0
    3.9881    0.9855   -2.7823 C   0  0  0  0  0  0  0  0  0  0  0  0
    4.2630    0.3552   -3.9776 C   0  0  0  0  0  0  0  0  0  0  0  0
    3.2630   -0.2230   -4.7356 C   0  0  0  0  0  0  0  0  0  0  0  0
    1.9481   -0.1709   -4.2874 C   0  0  0  0  0  0  0  0  0  0  0  0
    1.6522    0.4539   -3.0964 C   0  0  0  0  0  0  0  0  0  0  0  0
    3.5843   -0.8408   -5.9211 F   0  0  0  0  0  0  0  0  0  0  0  0
   -3.9604    0.3738   -0.6517 C   0  0  0  0  0  0  0  0  0  0  0  0
   -5.1633    0.4397   -0.2413 O   0  0  0  0  0  0  0  0  0  0  0  0
   -3.6849    1.0050   -1.8858 N   0  0  0  0  0  0  0  0  0  0  0  0
   -4.7551    1.6869   -2.6123 C   0  0  0  0  0  0  0  0  0  0  0  0
   -4.2195    2.2823   -3.8905 C   0  0  0  0  0  0  0  0  0  0  0  0
   -5.3838    2.7140   -1.7260 C   0  0  0  0  0  0  0  0  0  0  0  0
   -5.7803    0.6092   -2.9732 C   0  0  0  0  0  0  0  0  0  0  0  0
   -6.9789   -2.4714    4.4523 H   0  0  0  0  0  0  0  0  0  0  0  0
   -5.4157   -3.3523    4.8570 H   0  0  0  0  0  0  0  0  0  0  0  0
   -6.3948   -3.8014    3.4430 H   0  0  0  0  0  0  0  0  0  0  0  0
   -5.4659   -0.9366    3.6064 H   0  0  0  0  0  0  0  0  0  0  0  0
   -6.4430   -2.9819    1.6248 H   0  0  0  0  0  0  0  0  0  0  0  0
   -6.4300   -1.2016    1.5623 H   0  0  0  0  0  0  0  0  0  0  0  0
   -4.0987   -3.0175    0.9303 H   0  0  0  0  0  0  0  0  0  0  0  0
   -4.9989   -1.8846   -0.2317 H   0  0  0  0  0  0  0  0  0  0  0  0
   -4.3865   -0.1246    1.6648 H   0  0  0  0  0  0  0  0  0  0  0  0
   -2.5535   -0.6784    3.1577 H   0  0  0  0  0  0  0  0  0  0  0  0
   -2.0905   -2.1214    2.1438 H   0  0  0  0  0  0  0  0  0  0  0  0
   -3.5737   -2.2979    4.3712 H   0  0  0  0  0  0  0  0  0  0  0  0
   -3.7824   -3.4087    3.0132 H   0  0  0  0  0  0  0  0  0  0  0  0
   -2.5306    1.7010    0.8137 H   0  0  0  0  0  0  0  0  0  0  0  0
   -1.6851    0.4912    1.7859 H   0  0  0  0  0  0  0  0  0  0  0  0
   -0.8547    1.4498   -0.9874 H   0  0  0  0  0  0  0  0  0  0  0  0
   -0.1520    1.6709    0.6087 H   0  0  0  0  0  0  0  0  0  0  0  0
   -0.4653   -2.2564    0.4209 H   0  0  0  0  0  0  0  0  0  0  0  0
   -0.2668   -1.9749   -1.3025 H   0  0  0  0  0  0  0  0  0  0  0  0
   -2.6869   -2.3647   -0.3888 H   0  0  0  0  0  0  0  0  0  0  0  0
   -2.3481   -1.2917   -1.7349 H   0  0  0  0  0  0  0  0  0  0  0  0
    2.0112    1.2892    0.9996 H   0  0  0  0  0  0  0  0  0  0  0  0
    4.0901   -0.2932   -0.4784 H   0  0  0  0  0  0  0  0  0  0  0  0
    5.6970   -1.1410    1.5282 H   0  0  0  0  0  0  0  0  0  0  0  0
    5.8846    0.0294    3.6736 H   0  0  0  0  0  0  0  0  0  0  0  0
    8.1276   -0.5877    3.8477 H   0  0  0  0  0  0  0  0  0  0  0  0
    7.3134   -1.5997    2.5949 H   0  0  0  0  0  0  0  0  0  0  0  0
    8.9236   -0.9805    1.1153 H   0  0  0  0  0  0  0  0  0  0  0  0
    9.4830    0.3012    2.2221 H   0  0  0  0  0  0  0  0  0  0  0  0
    6.2250    1.4449    0.0234 H   0  0  0  0  0  0  0  0  0  0  0  0
    6.7474   -0.2846   -0.2881 H   0  0  0  0  0  0  0  0  0  0  0  0
    8.9123    2.7383    1.2136 H   0  0  0  0  0  0  0  0  0  0  0  0
    8.0727    2.0522    2.6634 H   0  0  0  0  0  0  0  0  0  0  0  0
    7.1303    2.7359    1.2354 H   0  0  0  0  0  0  0  0  0  0  0  0
    3.1098    2.4429   -0.8587 H   0  0  0  0  0  0  0  0  0  0  0  0
    1.3612    2.2349   -1.0821 H   0  0  0  0  0  0  0  0  0  0  0  0
    4.7889    1.4428   -2.1867 H   0  0  0  0  0  0  0  0  0  0  0  0
    5.3116    0.3350   -4.2974 H   0  0  0  0  0  0  0  0  0  0  0  0
    1.1793   -0.6400   -4.9130 H   0  0  0  0  0  0  0  0  0  0  0  0
    0.6234    0.4831   -2.7669 H   0  0  0  0  0  0  0  0  0  0  0  0
   -2.7479    0.9867   -2.2818 H   0  0  0  0  0  0  0  0  0  0  0  0
   -5.0163    2.9916   -4.2652 H   0  0  0  0  0  0  0  0  0  0  0  0
   -3.3107    2.8803   -3.6807 H   0  0  0  0  0  0  0  0  0  0  0  0
   -4.0600    1.4777   -4.6197 H   0  0  0  0  0  0  0  0  0  0  0  0
   -6.4323    2.4256   -1.4226 H   0  0  0  0  0  0  0  0  0  0  0  0
   -4.8277    2.8221   -0.7788 H   0  0  0  0  0  0  0  0  0  0  0  0
   -5.4574    3.6952   -2.2470 H   0  0  0  0  0  0  0  0  0  0  0  0
   -6.0704    0.7198   -4.0520 H   0  0  0  0  0  0  0  0  0  0  0  0
   -5.3444   -0.4181   -2.8499 H   0  0  0  0  0  0  0  0  0  0  0  0
   -6.7130    0.7364   -2.4006 H   0  0  0  0  0  0  0  0  0  0  0  0
  1  2  1  0
  2  3  1  0
  3  4  1  0
  4  5  1  0
  5  6  1  0
  6  7  1  0
  5  8  1  0
  8  9  1  0
  9 10  1  0
 10 11  1  0
 11 12  1  0
 12 13  1  0
 11 14  1  0
 14 15  2  0
 14 16  1  0
 16 17  1  0
 17 18  1  0
 18 19  2  0
 18 20  1  0
 20 21  1  0
 21 22  1  0
 22 23  1  0
 23 24  1  0
 24 25  1  0
 24 26  1  0
 16 27  1  0
 27 28  1  0
 28 29  2  0
 29 30  1  0
 30 31  2  0
 31 32  1  0
 32 33  2  0
 31 34  1  0
  8 35  1  0
 35 36  2  0
 35 37  1  0
 37 38  1  0
 38 39  1  0
 38 40  1  0
 38 41  1  0
  7  2  1  0
 13  8  1  0
 25 20  1  0
 33 28  1  0
  1 42  1  0
  1 43  1  0
  1 44  1  0
  2 45  1  0
  3 46  1  0
  3 47  1  0
  4 48  1  0
  4 49  1  0
  5 50  1  0
  6 51  1  0
  6 52  1  0
  7 53  1  0
  7 54  1  0
  9 55  1  0
  9 56  1  0
 10 57  1  0
 10 58  1  0
 12 59  1  0
 12 60  1  0
 13 61  1  0
 13 62  1  0
 16 63  1  1
 17 64  1  0
 20 65  1  6
 21 66  1  0
 22 67  1  0
 22 68  1  0
 23 69  1  0
 23 70  1  0
 25 71  1  0
 25 72  1  0
 26 73  1  0
 26 74  1  0
 26 75  1  0
 27 76  1  0
 27 77  1  0
 29 78  1  0
 30 79  1  0
 32 80  1  0
 33 81  1  0
 37 82  1  0
 39 83  1  0
 39 84  1  0
 39 85  1  0
 40 86  1  0
 40 87  1  0
 40 88  1  0
 41 89  1  0
 41 90  1  0
 41 91  1  0
M  END
>  <Ligand ID>  (1) 
LIG0004003

>  <Ligand>  (1) 
CHEMBL249321

>  <SMILES>  (1) 
CC1CCC(CC1)C1(CCN(CC1)C(=O)[C@@H](NC(=O)[C@@H]1NCCN(C1)C)Cc1ccc(cc1)F)C(=O)NC(C)(C)C

>  <CID>  (1) 
44441684.0

>  <ChEMBL ID>  (1) 
nan

>  <InChiKey>  (1) 
OHUUAUIQJKMPAV-RICNADKYSA-N

>  <InChi>  (1) 
InChI=1S/C32H50FN5O3/c1-22-6-10-24(11-7-22)32(30(41)36-31(2,3)4)14-17-38(18-15-32)29(40)26(20-23-8-12-25(33)13-9-23)35-28(39)27-21-37(5)19-16-34-27/h8-9,12-13,22,24,26-27,34H,6-7,10-11,14-21H2,1-5H3,(H,35,39)(H,36,41)/t22?,24?,26-,27+/m0/s1

>  <IUPAC Name>  (1) 
(2R)-N-[(2S)-1-[4-(tert-butylcarbamoyl)-4-(4-methylcyclohexyl)piperidin-1-yl]-3-(4-fluorophenyl)-1-oxopropan-2-yl]-4-methylpiperazine-2-carboxamide

$$$$
