
     RDKit          3D

111114  0  0  0  0  0  0  0  0999 V2000
    6.7217    3.7281    1.6318 C   0  0  0  0  0  0  0  0  0  0  0  0
    8.4929    3.9768    1.5504 S   0  0  0  0  0  0  0  0  0  0  0  0
    9.4397    2.5246    1.1476 C   0  0  0  0  0  0  0  0  0  0  0  0
    9.2569    2.0948   -0.2694 C   0  0  0  0  0  0  0  0  0  0  0  0
    7.8984    1.6822   -0.6863 C   0  0  1  0  0  0  0  0  0  0  0  0
    7.9323    1.2967   -2.1713 C   0  0  0  0  0  0  0  0  0  0  0  0
    8.2266    2.1876   -3.0269 O   0  0  0  0  0  0  0  0  0  0  0  0
    7.6449   -0.0200   -2.5989 N   0  0  0  0  0  0  0  0  0  0  0  0
    7.5299    0.4162   -0.0373 N   0  0  0  0  0  0  0  0  0  0  0  0
    6.2080    0.1115    0.3643 C   0  0  0  0  0  0  0  0  0  0  0  0
    5.2184    0.8577    0.2220 O   0  0  0  0  0  0  0  0  0  0  0  0
    5.9290   -1.2213    1.0240 C   0  0  1  0  0  0  0  0  0  0  0  0
    4.5125   -1.1665    1.3507 N   0  0  0  0  0  0  0  0  0  0  0  0
    3.9905   -1.2794    2.6929 C   0  0  0  0  0  0  0  0  0  0  0  0
    2.5064   -1.1637    2.5270 C   0  0  1  0  0  0  0  0  0  0  0  0
    2.3359   -0.3975    1.2624 C   0  0  1  0  0  0  0  0  0  0  0  0
    3.4363   -1.0035    0.4271 C   0  0  0  0  0  0  0  0  0  0  0  0
    3.4191   -1.2978   -0.7900 O   0  0  0  0  0  0  0  0  0  0  0  0
    1.0356   -0.8891    0.7735 N   0  0  0  0  0  0  0  0  0  0  0  0
    1.1517   -2.3292    0.9039 C   0  0  0  0  0  0  0  0  0  0  0  0
    1.8634   -2.4847    2.2490 C   0  0  0  0  0  0  0  0  0  0  0  0
   -0.0134   -0.0628    0.3375 C   0  0  0  0  0  0  0  0  0  0  0  0
    0.1781    1.1952    0.4259 O   0  0  0  0  0  0  0  0  0  0  0  0
   -1.3003   -0.5014   -0.2067 C   0  0  2  0  0  0  0  0  0  0  0  0
   -1.0082   -1.2624   -1.4905 C   0  0  0  0  0  0  0  0  0  0  0  0
   -2.2702   -1.7539   -2.1140 C   0  0  0  0  0  0  0  0  0  0  0  0
   -2.9877   -1.0094   -3.0332 C   0  0  0  0  0  0  0  0  0  0  0  0
   -4.1568   -1.4420   -3.6145 C   0  0  0  0  0  0  0  0  0  0  0  0
   -4.6493   -2.6810   -3.2719 C   0  0  0  0  0  0  0  0  0  0  0  0
   -3.9604   -3.4564   -2.3562 C   0  0  0  0  0  0  0  0  0  0  0  0
   -2.7720   -2.9971   -1.7757 C   0  0  0  0  0  0  0  0  0  0  0  0
   -2.2131    0.5867   -0.4238 N   0  0  0  0  0  0  0  0  0  0  0  0
   -3.6139    0.4939   -0.2958 C   0  0  0  0  0  0  0  0  0  0  0  0
   -4.2088   -0.5851    0.0157 O   0  0  0  0  0  0  0  0  0  0  0  0
   -4.4592    1.6889   -0.5297 C   0  0  2  0  0  0  0  0  0  0  0  0
   -4.2329    2.5717    0.7236 C   0  0  0  0  0  0  0  0  0  0  0  0
   -4.6889    1.7615    1.8975 C   0  0  0  0  0  0  0  0  0  0  0  0
   -3.8625    0.9144    2.5952 C   0  0  0  0  0  0  0  0  0  0  0  0
   -4.3255    0.1750    3.6890 C   0  0  0  0  0  0  0  0  0  0  0  0
   -5.6389    0.2887    4.0885 C   0  0  0  0  0  0  0  0  0  0  0  0
   -6.4900    1.1322    3.4058 C   0  0  0  0  0  0  0  0  0  0  0  0
   -6.0042    1.8419    2.3383 C   0  0  0  0  0  0  0  0  0  0  0  0
   -5.8702    1.3436   -0.5564 N   0  0  0  0  0  0  0  0  0  0  0  0
   -6.6784    1.9242   -1.5403 C   0  0  0  0  0  0  0  0  0  0  0  0
   -6.1702    2.7432   -2.3732 O   0  0  0  0  0  0  0  0  0  0  0  0
   -8.1237    1.6421   -1.6796 C   0  0  0  0  0  0  0  0  0  0  0  0
   -8.7842    2.5144   -2.7102 C   0  0  0  0  0  0  0  0  0  0  0  0
  -10.2435    2.2099   -2.8663 C   0  0  0  0  0  0  0  0  0  0  0  0
  -11.0534    2.3584   -1.6167 C   0  0  0  0  0  0  0  0  0  0  0  0
  -11.0447    3.6520   -1.0183 N   0  0  0  0  0  0  0  0  0  0  0  0
    6.3139   -2.2393    0.0021 C   0  0  0  0  0  0  0  0  0  0  0  0
    6.2348   -3.6680    0.3371 C   0  0  0  0  0  0  0  0  0  0  0  0
    4.8982   -4.2240    0.7320 C   0  0  0  0  0  0  0  0  0  0  0  0
    7.3376   -4.1390    1.2706 C   0  0  0  0  0  0  0  0  0  0  0  0
    6.2251    4.1335    0.7422 H   0  0  0  0  0  0  0  0  0  0  0  0
    6.4541    2.6598    1.7455 H   0  0  0  0  0  0  0  0  0  0  0  0
    6.2933    4.2488    2.5380 H   0  0  0  0  0  0  0  0  0  0  0  0
    9.0828    1.6348    1.7695 H   0  0  0  0  0  0  0  0  0  0  0  0
   10.5266    2.6390    1.4124 H   0  0  0  0  0  0  0  0  0  0  0  0
    9.9806    1.2241   -0.4347 H   0  0  0  0  0  0  0  0  0  0  0  0
    9.6967    2.8772   -0.9605 H   0  0  0  0  0  0  0  0  0  0  0  0
    7.1349    2.4393   -0.5858 H   0  0  0  0  0  0  0  0  0  0  0  0
    6.7136   -0.4938   -2.4770 H   0  0  0  0  0  0  0  0  0  0  0  0
    8.4454   -0.5325   -3.0735 H   0  0  0  0  0  0  0  0  0  0  0  0
    8.2830   -0.2918    0.1382 H   0  0  0  0  0  0  0  0  0  0  0  0
    6.5964   -1.3026    1.8866 H   0  0  0  0  0  0  0  0  0  0  0  0
    4.2586   -2.2579    3.1650 H   0  0  0  0  0  0  0  0  0  0  0  0
    4.3670   -0.4292    3.3249 H   0  0  0  0  0  0  0  0  0  0  0  0
    2.0318   -0.6484    3.4062 H   0  0  0  0  0  0  0  0  0  0  0  0
    2.3962    0.6842    1.3234 H   0  0  0  0  0  0  0  0  0  0  0  0
    1.6986   -2.8098    0.0786 H   0  0  0  0  0  0  0  0  0  0  0  0
    0.1786   -2.8449    1.0167 H   0  0  0  0  0  0  0  0  0  0  0  0
    2.5800   -3.3055    2.1454 H   0  0  0  0  0  0  0  0  0  0  0  0
    1.1517   -2.7998    3.0412 H   0  0  0  0  0  0  0  0  0  0  0  0
   -1.7737   -1.2422    0.4461 H   0  0  0  0  0  0  0  0  0  0  0  0
   -0.4441   -2.1634   -1.1851 H   0  0  0  0  0  0  0  0  0  0  0  0
   -0.3558   -0.7013   -2.1806 H   0  0  0  0  0  0  0  0  0  0  0  0
   -2.5773   -0.0419   -3.2818 H   0  0  0  0  0  0  0  0  0  0  0  0
   -4.6532   -0.8095   -4.3155 H   0  0  0  0  0  0  0  0  0  0  0  0
   -5.5833   -3.0303   -3.7334 H   0  0  0  0  0  0  0  0  0  0  0  0
   -4.3156   -4.4498   -2.0544 H   0  0  0  0  0  0  0  0  0  0  0  0
   -2.2670   -3.6161   -1.0767 H   0  0  0  0  0  0  0  0  0  0  0  0
   -1.8065    1.5068   -0.6953 H   0  0  0  0  0  0  0  0  0  0  0  0
   -4.2143    2.2690   -1.4233 H   0  0  0  0  0  0  0  0  0  0  0  0
   -3.1794    2.8054    0.8780 H   0  0  0  0  0  0  0  0  0  0  0  0
   -4.7953    3.5166    0.6296 H   0  0  0  0  0  0  0  0  0  0  0  0
   -2.8428    0.8126    2.3029 H   0  0  0  0  0  0  0  0  0  0  0  0
   -3.6488   -0.4810    4.2149 H   0  0  0  0  0  0  0  0  0  0  0  0
   -5.9731   -0.2898    4.9380 H   0  0  0  0  0  0  0  0  0  0  0  0
   -7.5138    1.1906    3.7542 H   0  0  0  0  0  0  0  0  0  0  0  0
   -6.7056    2.4956    1.8297 H   0  0  0  0  0  0  0  0  0  0  0  0
   -6.3147    0.6857    0.1222 H   0  0  0  0  0  0  0  0  0  0  0  0
   -8.3114    0.5832   -2.0175 H   0  0  0  0  0  0  0  0  0  0  0  0
   -8.6108    1.7023   -0.6818 H   0  0  0  0  0  0  0  0  0  0  0  0
   -8.6301    3.6045   -2.4665 H   0  0  0  0  0  0  0  0  0  0  0  0
   -8.2962    2.3291   -3.6851 H   0  0  0  0  0  0  0  0  0  0  0  0
  -10.3474    1.1645   -3.2146 H   0  0  0  0  0  0  0  0  0  0  0  0
  -10.6261    2.8644   -3.6873 H   0  0  0  0  0  0  0  0  0  0  0  0
  -12.1227    2.1385   -1.8976 H   0  0  0  0  0  0  0  0  0  0  0  0
  -10.8065    1.5609   -0.8792 H   0  0  0  0  0  0  0  0  0  0  0  0
  -10.3454    4.2983   -1.3976 H   0  0  0  0  0  0  0  0  0  0  0  0
  -11.9783    4.1283   -0.9997 H   0  0  0  0  0  0  0  0  0  0  0  0
    7.3393   -2.0154   -0.3701 H   0  0  0  0  0  0  0  0  0  0  0  0
    5.6822   -2.1010   -0.9371 H   0  0  0  0  0  0  0  0  0  0  0  0
    6.4858   -4.2176   -0.6355 H   0  0  0  0  0  0  0  0  0  0  0  0
    4.7476   -4.1845    1.8487 H   0  0  0  0  0  0  0  0  0  0  0  0
    4.8226   -5.3212    0.5114 H   0  0  0  0  0  0  0  0  0  0  0  0
    4.0693   -3.7756    0.1599 H   0  0  0  0  0  0  0  0  0  0  0  0
    7.0171   -4.9823    1.8899 H   0  0  0  0  0  0  0  0  0  0  0  0
    7.6440   -3.2444    1.8537 H   0  0  0  0  0  0  0  0  0  0  0  0
    8.2484   -4.4531    0.7224 H   0  0  0  0  0  0  0  0  0  0  0  0
  1  2  1  0
  2  3  1  0
  3  4  1  0
  4  5  1  0
  5  6  1  0
  6  7  2  0
  6  8  1  0
  5  9  1  0
  9 10  1  0
 10 11  2  0
 10 12  1  0
 12 13  1  0
 13 14  1  0
 14 15  1  0
 15 16  1  0
 16 17  1  0
 17 18  2  0
 16 19  1  0
 19 20  1  0
 20 21  1  0
 19 22  1  0
 22 23  2  0
 22 24  1  0
 24 25  1  0
 25 26  1  0
 26 27  2  0
 27 28  1  0
 28 29  2  0
 29 30  1  0
 30 31  2  0
 24 32  1  0
 32 33  1  0
 33 34  2  0
 33 35  1  0
 35 36  1  0
 36 37  1  0
 37 38  2  0
 38 39  1  0
 39 40  2  0
 40 41  1  0
 41 42  2  0
 35 43  1  0
 43 44  1  0
 44 45  2  0
 44 46  1  0
 46 47  1  0
 47 48  1  0
 48 49  1  0
 49 50  1  0
 12 51  1  0
 51 52  1  0
 52 53  1  0
 52 54  1  0
 17 13  1  0
 31 26  1  0
 42 37  1  0
 21 15  1  0
  1 55  1  0
  1 56  1  0
  1 57  1  0
  3 58  1  0
  3 59  1  0
  4 60  1  0
  4 61  1  0
  5 62  1  6
  8 63  1  0
  8 64  1  0
  9 65  1  0
 12 66  1  1
 14 67  1  0
 14 68  1  0
 15 69  1  1
 16 70  1  1
 20 71  1  0
 20 72  1  0
 21 73  1  0
 21 74  1  0
 24 75  1  1
 25 76  1  0
 25 77  1  0
 27 78  1  0
 28 79  1  0
 29 80  1  0
 30 81  1  0
 31 82  1  0
 32 83  1  0
 35 84  1  6
 36 85  1  0
 36 86  1  0
 38 87  1  0
 39 88  1  0
 40 89  1  0
 41 90  1  0
 42 91  1  0
 43 92  1  0
 46 93  1  0
 46 94  1  0
 47 95  1  0
 47 96  1  0
 48 97  1  0
 48 98  1  0
 49 99  1  0
 49100  1  0
 50101  1  0
 50102  1  0
 51103  1  0
 51104  1  0
 52105  1  0
 53106  1  0
 53107  1  0
 53108  1  0
 54109  1  0
 54110  1  0
 54111  1  0
M  END
>  <Ligand ID>  (1) 
LIG0003422

>  <Ligand>  (1) 
CHEMBL337465

>  <SMILES>  (1) 
CSCC[C@@H](C(=O)N)NC(=O)[C@@H](N1C[C@H]2[C@@H](C1=O)N(CC2)C(=O)[C@H](Cc1ccccc1)NC(=O)[C@H](Cc1ccccc1)NC(=O)CCCCN)CC(C)C

>  <CID>  (1) 
10327810.0

>  <ChEMBL ID>  (1) 
nan

>  <InChiKey>  (1) 
URIRKOHAMZPMCD-SUUSVYONSA-N

>  <InChi>  (1) 
InChI=1S/C40H57N7O6S/c1-26(2)22-33(38(51)44-30(36(42)49)18-21-54-3)47-25-29-17-20-46(35(29)40(47)53)39(52)32(24-28-14-8-5-9-15-28)45-37(50)31(23-27-12-6-4-7-13-27)43-34(48)16-10-11-19-41/h4-9,12-15,26,29-33,35H,10-11,16-25,41H2,1-3H3,(H2,42,49)(H,43,48)(H,44,51)(H,45,50)/t29-,30-,31-,32-,33-,35-/m0/s1

>  <IUPAC Name>  (1) 
(2S)-2-[(3aS,6aS)-1-[(2S)-2-[[(2S)-2-(5-aminopentanoylamino)-3-phenylpropanoyl]amino]-3-phenylpropanoyl]-6-oxo-3,3a,4,6a-tetrahydro-2H-pyrrolo[2,3-c]pyrrol-5-yl]-N-[(2S)-1-amino-4-methylsulfanyl-1-oxobutan-2-yl]-4-methylpentanamide

$$$$
