
     RDKit          3D

 18 18  0  0  0  0  0  0  0  0999 V2000
   -3.2614    0.2487    0.2964 C   0  0  0  0  0  0  0  0  0  0  0  0
   -2.1986   -0.6387    0.4560 O   0  0  0  0  0  0  0  0  0  0  0  0
   -0.8600   -0.3614    0.3034 C   0  0  0  0  0  0  0  0  0  0  0  0
   -0.3557    0.8758   -0.0412 C   0  0  0  0  0  0  0  0  0  0  0  0
    1.0097    1.1091   -0.1843 C   0  0  0  0  0  0  0  0  0  0  0  0
    1.8470    0.0322    0.0373 C   0  0  0  0  0  0  0  0  0  0  0  0
    1.3837   -1.2211    0.3835 C   0  0  0  0  0  0  0  0  0  0  0  0
    0.0248   -1.4171    0.5166 C   0  0  0  0  0  0  0  0  0  0  0  0
    3.2905    0.2045   -0.0951 C   0  0  0  0  0  0  0  0  0  0  0  0
    4.1076   -0.7533    0.0975 O   0  0  0  0  0  0  0  0  0  0  0  0
   -2.9727    1.2981    0.3187 H   0  0  0  0  0  0  0  0  0  0  0  0
   -3.8072    0.0444   -0.6656 H   0  0  0  0  0  0  0  0  0  0  0  0
   -4.0018    0.0936    1.1341 H   0  0  0  0  0  0  0  0  0  0  0  0
   -1.0420    1.6948   -0.2067 H   0  0  0  0  0  0  0  0  0  0  0  0
    1.3804    2.0886   -0.4554 H   0  0  0  0  0  0  0  0  0  0  0  0
    2.0740   -2.0527    0.5519 H   0  0  0  0  0  0  0  0  0  0  0  0
   -0.3583   -2.3989    0.7891 H   0  0  0  0  0  0  0  0  0  0  0  0
    3.7399    1.1535   -0.3632 H   0  0  0  0  0  0  0  0  0  0  0  0
  1  2  1  0
  2  3  1  0
  3  4  2  0
  4  5  1  0
  5  6  2  0
  6  7  1  0
  7  8  2  0
  6  9  1  0
  9 10  2  0
  8  3  1  0
  1 11  1  0
  1 12  1  0
  1 13  1  0
  4 14  1  0
  5 15  1  0
  7 16  1  0
  8 17  1  0
  9 18  1  0
M  END
>  <Ligand ID>  (1) 
LIG0000053

>  <Ligand>  (1) 
anis aldehyde

>  <SMILES>  (1) 
COc1ccc(cc1)C=O

>  <CID>  (1) 
31244.0

>  <ChEMBL ID>  (1) 
nan

>  <InChiKey>  (1) 
ZRSNZINYAWTAHE-UHFFFAOYSA-N

>  <InChi>  (1) 
InChI=1S/C8H8O2/c1-10-8-4-2-7(6-9)3-5-8/h2-6H,1H3

>  <IUPAC Name>  (1) 
4-methoxybenzaldehyde

$$$$
