
     RDKit          3D

 22 22  0  0  0  0  0  0  0  0999 V2000
   -1.9432    2.0323    0.4204 O   0  0  0  0  0  0  0  0  0  0  0  0
   -1.2204    0.9761   -0.1650 C   0  0  0  0  0  0  0  0  0  0  0  0
   -0.6821    1.2646   -1.2795 O   0  0  0  0  0  0  0  0  0  0  0  0
   -1.1079   -0.3464    0.4748 C   0  0  1  0  0  0  0  0  0  0  0  0
   -1.8303   -0.4443    1.7393 N   0  0  0  0  0  0  0  0  0  0  0  0
   -1.3129   -1.5791   -0.4155 C   0  0  0  0  0  0  0  0  0  0  0  0
    0.0043   -1.2712    0.2702 C   0  0  1  0  0  0  0  0  0  0  0  0
    1.1488   -1.0185   -0.6409 C   0  0  0  0  0  0  0  0  0  0  0  0
    2.1354    0.4320   -0.2589 P   0  0  0  0  0  0  0  0  0  0  0  0
    3.5216    0.0290    0.2433 O   0  0  0  0  0  0  0  0  0  0  0  0
    2.3786    1.3270   -1.6656 O   0  0  0  0  0  0  0  0  0  0  0  0
    1.4835    1.4308    0.9096 O   0  0  0  0  0  0  0  0  0  0  0  0
   -2.3281    2.7886   -0.1286 H   0  0  0  0  0  0  0  0  0  0  0  0
   -2.2515   -1.3942    1.8925 H   0  0  0  0  0  0  0  0  0  0  0  0
   -2.6469    0.2213    1.7364 H   0  0  0  0  0  0  0  0  0  0  0  0
   -1.9418   -2.4053   -0.0461 H   0  0  0  0  0  0  0  0  0  0  0  0
   -1.4511   -1.3494   -1.4797 H   0  0  0  0  0  0  0  0  0  0  0  0
    0.2591   -1.9296    1.1438 H   0  0  0  0  0  0  0  0  0  0  0  0
    0.8000   -0.9800   -1.6973 H   0  0  0  0  0  0  0  0  0  0  0  0
    1.8378   -1.9137   -0.6145 H   0  0  0  0  0  0  0  0  0  0  0  0
    2.9319    2.1342   -1.5079 H   0  0  0  0  0  0  0  0  0  0  0  0
    2.2152    1.9956    1.2683 H   0  0  0  0  0  0  0  0  0  0  0  0
  1  2  1  0
  2  3  2  0
  2  4  1  0
  4  5  1  1
  4  6  1  0
  6  7  1  0
  7  8  1  0
  8  9  1  0
  9 10  2  0
  9 11  1  0
  9 12  1  0
  7  4  1  0
  1 13  1  0
  5 14  1  0
  5 15  1  0
  6 16  1  0
  6 17  1  0
  7 18  1  1
  8 19  1  0
  8 20  1  0
 11 21  1  0
 12 22  1  0
M  END
>  <Ligand ID>  (1) 
LIG0002414

>  <Ligand>  (1) 
CHEMBL287703

>  <SMILES>  (1) 
OC(=O)[C@@]1(N)C[C@H]1CP(=O)(O)O

>  <CID>  (1) 
125799.0

>  <ChEMBL ID>  (1) 
nan

>  <InChiKey>  (1) 
RACNCOSUCJNQDH-WVZVXSGGSA-N

>  <InChi>  (1) 
InChI=1S/C5H10NO5P/c6-5(4(7)8)1-3(5)2-12(9,10)11/h3H,1-2,6H2,(H,7,8)(H2,9,10,11)/t3-,5+/m0/s1

>  <IUPAC Name>  (1) 
(1R,2R)-1-amino-2-(phosphonomethyl)cyclopropane-1-carboxylic acid

$$$$
