
     RDKit          3D

 42 42  0  0  0  0  0  0  0  0999 V2000
    3.8813    0.8998    1.5004 C   0  0  0  0  0  0  0  0  0  0  0  0
    2.4891    0.3859    1.1126 C   0  0  0  0  0  0  0  0  0  0  0  0
    2.4622    0.2849   -0.3898 C   0  0  0  0  0  0  0  0  0  0  0  0
    1.1624   -0.2038   -0.8990 C   0  0  0  0  0  0  0  0  0  0  0  0
    0.1279   -0.5237   -0.1537 C   0  0  0  0  0  0  0  0  0  0  0  0
   -1.1269   -1.0042   -0.7884 C   0  0  0  0  0  0  0  0  0  0  0  0
   -1.5072   -2.3093   -0.0992 C   0  0  0  0  0  0  0  0  0  0  0  0
   -2.5180   -1.9350    0.9271 C   0  0  0  0  0  0  0  0  0  0  0  0
   -2.9870   -0.7107    0.7036 C   0  0  0  0  0  0  0  0  0  0  0  0
   -2.3181   -0.1623   -0.5058 C   0  0  0  0  0  0  0  0  0  0  0  0
   -3.3408   -0.1993   -1.6393 C   0  0  0  0  0  0  0  0  0  0  0  0
   -2.0090    1.2886   -0.2567 C   0  0  0  0  0  0  0  0  0  0  0  0
   -4.0056    0.0425    1.4875 C   0  0  0  0  0  0  0  0  0  0  0  0
    3.5390   -0.6456   -0.8971 C   0  0  0  0  0  0  0  0  0  0  0  0
    2.7170    1.6435   -0.9796 C   0  0  0  0  0  0  0  0  0  0  0  0
    1.5950    1.3497    1.5390 O   0  0  0  0  0  0  0  0  0  0  0  0
    4.2377    1.6872    0.8277 H   0  0  0  0  0  0  0  0  0  0  0  0
    3.7953    1.3819    2.5131 H   0  0  0  0  0  0  0  0  0  0  0  0
    4.5992    0.0775    1.6245 H   0  0  0  0  0  0  0  0  0  0  0  0
    2.3349   -0.5616    1.6310 H   0  0  0  0  0  0  0  0  0  0  0  0
    1.0563   -0.3057   -1.9724 H   0  0  0  0  0  0  0  0  0  0  0  0
    0.2121   -0.4296    0.9178 H   0  0  0  0  0  0  0  0  0  0  0  0
   -0.9888   -1.1123   -1.8617 H   0  0  0  0  0  0  0  0  0  0  0  0
   -0.6179   -2.7480    0.3950 H   0  0  0  0  0  0  0  0  0  0  0  0
   -1.9776   -3.0297   -0.8157 H   0  0  0  0  0  0  0  0  0  0  0  0
   -2.8027   -2.6038    1.7319 H   0  0  0  0  0  0  0  0  0  0  0  0
   -2.8329   -0.2594   -2.6227 H   0  0  0  0  0  0  0  0  0  0  0  0
   -3.9546    0.7456   -1.6642 H   0  0  0  0  0  0  0  0  0  0  0  0
   -4.0609   -1.0269   -1.5249 H   0  0  0  0  0  0  0  0  0  0  0  0
   -1.6431    1.4999    0.7662 H   0  0  0  0  0  0  0  0  0  0  0  0
   -1.3475    1.7061   -1.0403 H   0  0  0  0  0  0  0  0  0  0  0  0
   -2.9769    1.8285   -0.3527 H   0  0  0  0  0  0  0  0  0  0  0  0
   -3.6767    1.1055    1.5086 H   0  0  0  0  0  0  0  0  0  0  0  0
   -4.1449   -0.3656    2.5096 H   0  0  0  0  0  0  0  0  0  0  0  0
   -4.9750    0.0610    0.9135 H   0  0  0  0  0  0  0  0  0  0  0  0
    4.1115   -0.1897   -1.7571 H   0  0  0  0  0  0  0  0  0  0  0  0
    3.0982   -1.5994   -1.3115 H   0  0  0  0  0  0  0  0  0  0  0  0
    4.3011   -0.9026   -0.1396 H   0  0  0  0  0  0  0  0  0  0  0  0
    2.2022    1.6931   -1.9629 H   0  0  0  0  0  0  0  0  0  0  0  0
    3.8020    1.7683   -1.1918 H   0  0  0  0  0  0  0  0  0  0  0  0
    2.3174    2.4102   -0.2990 H   0  0  0  0  0  0  0  0  0  0  0  0
    1.7709    1.5228    2.5162 H   0  0  0  0  0  0  0  0  0  0  0  0
  1  2  1  0
  2  3  1  0
  3  4  1  0
  4  5  2  0
  5  6  1  0
  6  7  1  0
  7  8  1  0
  8  9  2  0
  9 10  1  0
 10 11  1  0
 10 12  1  0
  9 13  1  0
  3 14  1  0
  3 15  1  0
  2 16  1  0
 10  6  1  0
  1 17  1  0
  1 18  1  0
  1 19  1  0
  2 20  1  0
  4 21  1  0
  5 22  1  0
  6 23  1  0
  7 24  1  0
  7 25  1  0
  8 26  1  0
 11 27  1  0
 11 28  1  0
 11 29  1  0
 12 30  1  0
 12 31  1  0
 12 32  1  0
 13 33  1  0
 13 34  1  0
 13 35  1  0
 14 36  1  0
 14 37  1  0
 14 38  1  0
 15 39  1  0
 15 40  1  0
 15 41  1  0
 16 42  1  0
M  END
>  <Ligand ID>  (1) 
LIG0004992

>  <Ligand>  (1) 
(+/-) trans-3,3-Dimethyl-5-(2,2,3-trimethyl-cyclopent-3-en-1-yl)pent-4-en-2-ol

>  <SMILES>  (1) 
CC(C(/C=C/C1CC=C(C1(C)C)C)(C)C)O

>  <CID>  (1) 
15984303.0

>  <ChEMBL ID>  (1) 
nan

>  <InChiKey>  (1) 
QZFSNJAQFWEXEA-MDZDMXLPSA-N

>  <InChi>  (1) 
InChI=1S/C15H26O/c1-11-7-8-13(15(11,5)6)9-10-14(3,4)12(2)16/h7,9-10,12-13,16H,8H2,1-6H3/b10-9+

>  <IUPAC Name>  (1) 
(E)-3,3-dimethyl-5-(2,2,3-trimethylcyclopent-3-en-1-yl)pent-4-en-2-ol

$$$$
