
     RDKit          3D

 88 91  0  0  0  0  0  0  0  0999 V2000
   -0.9574    5.2053    2.3314 N   0  0  0  0  0  0  0  0  0  0  0  0
   -1.4621    4.0741    3.0752 C   0  0  0  0  0  0  0  0  0  0  0  0
   -1.0891    2.8779    2.7770 N   0  0  0  0  0  0  0  0  0  0  0  0
   -1.5701    1.6918    3.5001 C   0  0  0  0  0  0  0  0  0  0  0  0
   -0.4884    0.7403    3.8592 C   0  0  0  0  0  0  0  0  0  0  0  0
    0.3665    0.1489    2.8454 C   0  0  0  0  0  0  0  0  0  0  0  0
   -0.0680   -0.7477    1.7585 C   0  0  1  0  0  0  0  0  0  0  0  0
   -1.0386   -0.2006    0.8089 C   0  0  0  0  0  0  0  0  0  0  0  0
   -0.5926    0.3223   -0.2717 O   0  0  0  0  0  0  0  0  0  0  0  0
   -2.4396   -0.2006    0.9493 N   0  0  0  0  0  0  0  0  0  0  0  0
   -3.3714    0.3404   -0.0582 C   0  0  2  0  0  0  0  0  0  0  0  0
   -4.4616    1.0431    0.5706 C   0  0  0  0  0  0  0  0  0  0  0  0
   -4.7602    1.0337    1.7993 O   0  0  0  0  0  0  0  0  0  0  0  0
   -5.3225    1.8598   -0.2498 N   0  0  0  0  0  0  0  0  0  0  0  0
   -3.7542   -0.8177   -0.9735 C   0  0  0  0  0  0  0  0  0  0  0  0
   -4.7280   -0.4521   -1.9955 C   0  0  0  0  0  0  0  0  0  0  0  0
   -4.4877   -0.0248   -3.2785 C   0  0  0  0  0  0  0  0  0  0  0  0
   -5.6712    0.2381   -3.9143 N   0  0  0  0  0  0  0  0  0  0  0  0
   -6.6641   -0.0132   -3.0655 C   0  0  0  0  0  0  0  0  0  0  0  0
   -6.1111   -0.4406   -1.8722 C   0  0  0  0  0  0  0  0  0  0  0  0
   -7.0048   -0.7717   -0.8568 C   0  0  0  0  0  0  0  0  0  0  0  0
   -8.3744   -0.6830   -1.0114 C   0  0  0  0  0  0  0  0  0  0  0  0
   -8.9222   -0.2479   -2.2222 C   0  0  0  0  0  0  0  0  0  0  0  0
   -8.0371    0.0775   -3.2242 C   0  0  0  0  0  0  0  0  0  0  0  0
    1.1732   -0.9650    0.9267 N   0  0  0  0  0  0  0  0  0  0  0  0
    1.4345   -2.2298    0.3577 C   0  0  0  0  0  0  0  0  0  0  0  0
    0.5465   -3.1297    0.5694 O   0  0  0  0  0  0  0  0  0  0  0  0
    2.5953   -2.6099   -0.4308 C   0  0  2  0  0  0  0  0  0  0  0  0
    3.6397   -1.5864   -0.4298 N   0  0  0  0  0  0  0  0  0  0  0  0
    4.9244   -2.0190   -0.0043 C   0  0  0  0  0  0  0  0  0  0  0  0
    5.1634   -3.2232    0.3479 O   0  0  0  0  0  0  0  0  0  0  0  0
    6.1161   -1.1107    0.0740 C   0  0  2  0  0  0  0  0  0  0  0  0
    6.8184   -1.4050    1.4057 C   0  0  0  0  0  0  0  0  0  0  0  0
    8.0090   -0.5940    1.6382 C   0  0  0  0  0  0  0  0  0  0  0  0
    9.2795   -0.9109    1.2706 N   0  0  0  0  0  0  0  0  0  0  0  0
   10.1055    0.0892    1.6663 C   0  0  0  0  0  0  0  0  0  0  0  0
    9.3832    1.0467    2.2848 N   0  0  0  0  0  0  0  0  0  0  0  0
    8.1178    0.6411    2.2710 C   0  0  0  0  0  0  0  0  0  0  0  0
    5.8309    0.2638   -0.1335 N   0  0  0  0  0  0  0  0  0  0  0  0
    2.2361   -2.9413   -1.8449 C   0  0  0  0  0  0  0  0  0  0  0  0
    1.6264   -1.8739   -2.6256 C   0  0  0  0  0  0  0  0  0  0  0  0
    0.2867   -1.6177   -2.7090 C   0  0  0  0  0  0  0  0  0  0  0  0
   -0.2314   -0.5895   -3.4765 C   0  0  0  0  0  0  0  0  0  0  0  0
    0.6177    0.2282   -4.2001 C   0  0  0  0  0  0  0  0  0  0  0  0
    1.9802   -0.0050   -4.1382 C   0  0  0  0  0  0  0  0  0  0  0  0
    2.4673   -1.0379   -3.3641 C   0  0  0  0  0  0  0  0  0  0  0  0
   -2.3855    4.3017    4.1610 N   0  0  0  0  0  0  0  0  0  0  0  0
   -1.2710    5.2542    1.3431 H   0  0  0  0  0  0  0  0  0  0  0  0
   -0.3230    5.9139    2.7720 H   0  0  0  0  0  0  0  0  0  0  0  0
   -2.5023    1.3089    3.1385 H   0  0  0  0  0  0  0  0  0  0  0  0
   -1.8840    2.1583    4.5250 H   0  0  0  0  0  0  0  0  0  0  0  0
    0.1967    1.3297    4.5655 H   0  0  0  0  0  0  0  0  0  0  0  0
   -0.9037   -0.0364    4.5705 H   0  0  0  0  0  0  0  0  0  0  0  0
    1.2172   -0.3770    3.4182 H   0  0  0  0  0  0  0  0  0  0  0  0
    0.9920    1.0218    2.3876 H   0  0  0  0  0  0  0  0  0  0  0  0
   -0.3874   -1.7749    2.0804 H   0  0  0  0  0  0  0  0  0  0  0  0
   -2.8374   -0.6214    1.8342 H   0  0  0  0  0  0  0  0  0  0  0  0
   -2.6943    0.9712   -0.7061 H   0  0  0  0  0  0  0  0  0  0  0  0
   -5.0482    2.1392   -1.2305 H   0  0  0  0  0  0  0  0  0  0  0  0
   -6.2461    2.2120    0.0816 H   0  0  0  0  0  0  0  0  0  0  0  0
   -2.8069   -1.1318   -1.4965 H   0  0  0  0  0  0  0  0  0  0  0  0
   -4.0653   -1.7023   -0.3830 H   0  0  0  0  0  0  0  0  0  0  0  0
   -3.5609    0.1152   -3.7928 H   0  0  0  0  0  0  0  0  0  0  0  0
   -5.7770    0.5803   -4.9044 H   0  0  0  0  0  0  0  0  0  0  0  0
   -6.5441   -1.1083    0.0784 H   0  0  0  0  0  0  0  0  0  0  0  0
   -9.0032   -0.9598   -0.1627 H   0  0  0  0  0  0  0  0  0  0  0  0
   -9.9981   -0.1807   -2.3432 H   0  0  0  0  0  0  0  0  0  0  0  0
   -8.4164    0.4194   -4.1878 H   0  0  0  0  0  0  0  0  0  0  0  0
    1.8361   -0.1775    0.7748 H   0  0  0  0  0  0  0  0  0  0  0  0
    3.0359   -3.5298    0.0025 H   0  0  0  0  0  0  0  0  0  0  0  0
    3.4885   -0.6060   -0.7180 H   0  0  0  0  0  0  0  0  0  0  0  0
    6.8769   -1.4080   -0.7144 H   0  0  0  0  0  0  0  0  0  0  0  0
    7.1243   -2.4928    1.4217 H   0  0  0  0  0  0  0  0  0  0  0  0
    6.0490   -1.3542    2.2258 H   0  0  0  0  0  0  0  0  0  0  0  0
    9.6019   -1.7865    0.7639 H   0  0  0  0  0  0  0  0  0  0  0  0
   11.1792    0.0798    1.4937 H   0  0  0  0  0  0  0  0  0  0  0  0
    7.3103    1.2312    2.7077 H   0  0  0  0  0  0  0  0  0  0  0  0
    6.6198    0.8027    0.3120 H   0  0  0  0  0  0  0  0  0  0  0  0
    5.8625    0.4782   -1.1465 H   0  0  0  0  0  0  0  0  0  0  0  0
    3.1811   -3.2670   -2.3660 H   0  0  0  0  0  0  0  0  0  0  0  0
    1.6103   -3.8754   -1.8373 H   0  0  0  0  0  0  0  0  0  0  0  0
   -0.4022   -2.2348   -2.1571 H   0  0  0  0  0  0  0  0  0  0  0  0
   -1.2898   -0.3996   -3.5295 H   0  0  0  0  0  0  0  0  0  0  0  0
    0.2305    1.0325   -4.8022 H   0  0  0  0  0  0  0  0  0  0  0  0
    2.6733    0.6198   -4.6933 H   0  0  0  0  0  0  0  0  0  0  0  0
    3.5542   -1.2018   -3.3388 H   0  0  0  0  0  0  0  0  0  0  0  0
   -3.3581    3.9779    4.1101 H   0  0  0  0  0  0  0  0  0  0  0  0
   -2.0453    4.8046    5.0054 H   0  0  0  0  0  0  0  0  0  0  0  0
  1  2  1  0
  2  3  2  3
  3  4  1  0
  4  5  1  0
  5  6  1  0
  6  7  1  0
  7  8  1  0
  8  9  2  0
  8 10  1  0
 10 11  1  0
 11 12  1  0
 12 13  2  0
 12 14  1  0
 11 15  1  0
 15 16  1  0
 16 17  2  0
 17 18  1  0
 18 19  1  0
 19 20  2  0
 20 21  1  0
 21 22  2  0
 22 23  1  0
 23 24  2  0
  7 25  1  0
 25 26  1  0
 26 27  2  0
 26 28  1  0
 28 29  1  0
 29 30  1  0
 30 31  2  0
 30 32  1  0
 32 33  1  0
 33 34  1  0
 34 35  1  0
 35 36  1  0
 36 37  2  0
 37 38  1  0
 32 39  1  0
 28 40  1  0
 40 41  1  0
 41 42  2  0
 42 43  1  0
 43 44  2  0
 44 45  1  0
 45 46  2  0
  2 47  1  0
 20 16  1  0
 38 34  2  0
 46 41  1  0
 24 19  1  0
  1 48  1  0
  1 49  1  0
  4 50  1  0
  4 51  1  0
  5 52  1  0
  5 53  1  0
  6 54  1  0
  6 55  1  0
  7 56  1  1
 10 57  1  0
 11 58  1  6
 14 59  1  0
 14 60  1  0
 15 61  1  0
 15 62  1  0
 17 63  1  0
 18 64  1  0
 21 65  1  0
 22 66  1  0
 23 67  1  0
 24 68  1  0
 25 69  1  0
 28 70  1  1
 29 71  1  0
 32 72  1  6
 33 73  1  0
 33 74  1  0
 35 75  1  0
 36 76  1  0
 38 77  1  0
 39 78  1  0
 39 79  1  0
 40 80  1  0
 40 81  1  0
 42 82  1  0
 43 83  1  0
 44 84  1  0
 45 85  1  0
 46 86  1  0
 47 87  1  0
 47 88  1  0
M  END
>  <Ligand ID>  (1) 
LIG0001248

>  <Ligand>  (1) 
CHEMBL370254

>  <SMILES>  (1) 
NC(=NCCC[C@@H](C(=O)N[C@H](C(=O)N)Cc1c[nH]c2c1cccc2)NC(=O)[C@H](NC(=O)[C@H](Cc1[nH]cnc1)N)Cc1ccccc1)N

>  <CID>  (1) 
20806319.0

>  <ChEMBL ID>  (1) 
nan

>  <InChiKey>  (1) 
OVIZBCMXCJAPHP-PGXSJUQOSA-N

>  <InChi>  (1) 
InChI=1S/C32H41N11O4/c33-23(15-21-17-37-18-40-21)29(45)43-27(13-19-7-2-1-3-8-19)31(47)41-25(11-6-12-38-32(35)36)30(46)42-26(28(34)44)14-20-16-39-24-10-5-4-9-22(20)24/h1-5,7-10,16-18,23,25-27,39H,6,11-15,33H2,(H2,34,44)(H,37,40)(H,41,47)(H,42,46)(H,43,45)(H4,35,36,38)/t23-,25-,26-,27+/m0/s1

>  <IUPAC Name>  (1) 
(2S)-2-[[(2R)-2-[[(2S)-2-amino-3-(1H-imidazol-5-yl)propanoyl]amino]-3-phenylpropanoyl]amino]-N-[(2S)-1-amino-3-(1H-indol-3-yl)-1-oxopropan-2-yl]-5-(diaminomethylideneamino)pentanamide

$$$$
