
     RDKit          3D

 62 66  0  0  0  0  0  0  0  0999 V2000
    7.5379   -1.7570   -3.1371 F   0  0  0  0  0  0  0  0  0  0  0  0
    7.4103   -1.0126   -2.0126 C   0  0  0  0  0  0  0  0  0  0  0  0
    8.5097   -0.4878   -1.3777 C   0  0  0  0  0  0  0  0  0  0  0  0
    8.3779    0.2731   -0.2280 C   0  0  0  0  0  0  0  0  0  0  0  0
    7.0950    0.4823    0.2537 C   0  0  0  0  0  0  0  0  0  0  0  0
    6.0007   -0.0446   -0.3851 C   0  0  0  0  0  0  0  0  0  0  0  0
    6.1391   -0.7977   -1.5242 C   0  0  0  0  0  0  0  0  0  0  0  0
    4.8945    0.3302    0.3195 N   0  0  0  0  0  0  0  0  0  0  0  0
    3.5125    0.0096    0.0266 C   0  0  0  0  0  0  0  0  0  0  0  0
    2.7903   -0.4483    1.2746 C   0  0  0  0  0  0  0  0  0  0  0  0
    1.4216   -0.9637    0.8084 C   0  0  0  0  0  0  0  0  0  0  0  0
    0.7777    0.1531    0.2066 N   0  0  0  0  0  0  0  0  0  0  0  0
    1.3861    0.6735   -0.9654 C   0  0  0  0  0  0  0  0  0  0  0  0
    2.7795    1.1839   -0.5732 C   0  0  0  0  0  0  0  0  0  0  0  0
   -0.6258    0.1875    0.2992 C   0  0  0  0  0  0  0  0  0  0  0  0
   -1.3610   -0.9678   -0.3228 C   0  0  0  0  0  0  0  0  0  0  0  0
   -2.8324   -0.8566   -0.0901 C   0  0  0  0  0  0  0  0  0  0  0  0
   -3.3867    0.4252   -0.0870 N   0  0  0  0  0  0  0  0  0  0  0  0
   -2.6018    1.5444    0.2373 C   0  0  0  0  0  0  0  0  0  0  0  0
   -1.1886    1.4360   -0.3457 C   0  0  0  0  0  0  0  0  0  0  0  0
   -4.5283    0.6558   -0.9347 C   0  0  0  0  0  0  0  0  0  0  0  0
   -5.6388   -0.2448   -0.5459 C   0  0  0  0  0  0  0  0  0  0  0  0
   -5.9691   -1.3643   -1.2872 C   0  0  0  0  0  0  0  0  0  0  0  0
   -6.9952   -2.2185   -0.9504 C   0  0  0  0  0  0  0  0  0  0  0  0
   -7.7565   -1.9638    0.1939 C   0  0  0  0  0  0  0  0  0  0  0  0
   -7.4327   -0.8527    0.9346 C   0  0  0  0  0  0  0  0  0  0  0  0
   -6.3908    0.0045    0.5820 C   0  0  0  0  0  0  0  0  0  0  0  0
   -6.1400    1.1696    1.4633 C   0  0  0  0  0  0  0  0  0  0  0  0
    5.2897    1.0713    1.3697 C   0  0  0  0  0  0  0  0  0  0  0  0
    4.5539    1.5945    2.2455 O   0  0  0  0  0  0  0  0  0  0  0  0
    6.6347    1.1560    1.3172 N   0  0  0  0  0  0  0  0  0  0  0  0
    9.5267   -0.6538   -1.7587 H   0  0  0  0  0  0  0  0  0  0  0  0
    9.2557    0.6949    0.2833 H   0  0  0  0  0  0  0  0  0  0  0  0
    5.2545   -1.2070   -2.0153 H   0  0  0  0  0  0  0  0  0  0  0  0
    3.4317   -0.8181   -0.7119 H   0  0  0  0  0  0  0  0  0  0  0  0
    2.5316    0.4664    1.8821 H   0  0  0  0  0  0  0  0  0  0  0  0
    3.3425   -1.2000    1.8411 H   0  0  0  0  0  0  0  0  0  0  0  0
    1.6141   -1.7901    0.1028 H   0  0  0  0  0  0  0  0  0  0  0  0
    0.8391   -1.2608    1.7016 H   0  0  0  0  0  0  0  0  0  0  0  0
    1.5621   -0.1258   -1.7126 H   0  0  0  0  0  0  0  0  0  0  0  0
    0.8029    1.5097   -1.3514 H   0  0  0  0  0  0  0  0  0  0  0  0
    2.6870    2.0387    0.1285 H   0  0  0  0  0  0  0  0  0  0  0  0
    3.2854    1.5508   -1.4803 H   0  0  0  0  0  0  0  0  0  0  0  0
   -0.9059    0.2170    1.3695 H   0  0  0  0  0  0  0  0  0  0  0  0
   -1.1503   -1.0006   -1.4147 H   0  0  0  0  0  0  0  0  0  0  0  0
   -0.9935   -1.9191    0.1076 H   0  0  0  0  0  0  0  0  0  0  0  0
   -3.0457   -1.3419    0.9046 H   0  0  0  0  0  0  0  0  0  0  0  0
   -3.3465   -1.4978   -0.8364 H   0  0  0  0  0  0  0  0  0  0  0  0
   -3.0463    2.4742   -0.1360 H   0  0  0  0  0  0  0  0  0  0  0  0
   -2.4167    1.6671    1.3440 H   0  0  0  0  0  0  0  0  0  0  0  0
   -1.3360    1.2420   -1.4369 H   0  0  0  0  0  0  0  0  0  0  0  0
   -0.5988    2.3425   -0.1278 H   0  0  0  0  0  0  0  0  0  0  0  0
   -4.2703    0.4030   -1.9840 H   0  0  0  0  0  0  0  0  0  0  0  0
   -4.8453    1.6911   -0.8391 H   0  0  0  0  0  0  0  0  0  0  0  0
   -5.4059   -1.5975   -2.1796 H   0  0  0  0  0  0  0  0  0  0  0  0
   -7.2667   -3.0953   -1.5160 H   0  0  0  0  0  0  0  0  0  0  0  0
   -8.5693   -2.6148    0.4870 H   0  0  0  0  0  0  0  0  0  0  0  0
   -8.0397   -0.6720    1.8241 H   0  0  0  0  0  0  0  0  0  0  0  0
   -5.9334    2.0614    0.8384 H   0  0  0  0  0  0  0  0  0  0  0  0
   -5.3365    0.9622    2.2039 H   0  0  0  0  0  0  0  0  0  0  0  0
   -7.0764    1.4244    2.0224 H   0  0  0  0  0  0  0  0  0  0  0  0
    7.1867    1.6792    2.0222 H   0  0  0  0  0  0  0  0  0  0  0  0
  1  2  1  0
  2  3  2  0
  3  4  1  0
  4  5  2  0
  5  6  1  0
  6  7  2  0
  6  8  1  0
  8  9  1  0
  9 10  1  0
 10 11  1  0
 11 12  1  0
 12 13  1  0
 13 14  1  0
 12 15  1  0
 15 16  1  0
 16 17  1  0
 17 18  1  0
 18 19  1  0
 19 20  1  0
 18 21  1  0
 21 22  1  0
 22 23  2  0
 23 24  1  0
 24 25  2  0
 25 26  1  0
 26 27  2  0
 27 28  1  0
  8 29  1  0
 29 30  2  0
 29 31  1  0
  7  2  1  0
 14  9  1  0
 20 15  1  0
 27 22  1  0
 31  5  1  0
  3 32  1  0
  4 33  1  0
  7 34  1  0
  9 35  1  0
 10 36  1  0
 10 37  1  0
 11 38  1  0
 11 39  1  0
 13 40  1  0
 13 41  1  0
 14 42  1  0
 14 43  1  0
 15 44  1  0
 16 45  1  0
 16 46  1  0
 17 47  1  0
 17 48  1  0
 19 49  1  0
 19 50  1  0
 20 51  1  0
 20 52  1  0
 21 53  1  0
 21 54  1  0
 23 55  1  0
 24 56  1  0
 25 57  1  0
 26 58  1  0
 28 59  1  0
 28 60  1  0
 28 61  1  0
 31 62  1  0
M  END
>  <Ligand ID>  (1) 
LIG0000960

>  <Ligand>  (1) 
CHEMBL490797

>  <SMILES>  (1) 
Fc1ccc2c(c1)n(C1CCN(CC1)C1CCN(CC1)Cc1ccccc1C)c(=O)[nH]2

>  <CID>  (1) 
25110765.0

>  <ChEMBL ID>  (1) 
nan

>  <InChiKey>  (1) 
IVSZXUDAZZHELN-UHFFFAOYSA-N

>  <InChi>  (1) 
InChI=1S/C25H31FN4O/c1-18-4-2-3-5-19(18)17-28-12-8-21(9-13-28)29-14-10-22(11-15-29)30-24-16-20(26)6-7-23(24)27-25(30)31/h2-7,16,21-22H,8-15,17H2,1H3,(H,27,31)

>  <IUPAC Name>  (1) 
5-fluoro-3-[1-[1-[(2-methylphenyl)methyl]piperidin-4-yl]piperidin-4-yl]-1H-benzimidazol-2-one

$$$$
