
     RDKit          3D

 32 34  0  0  0  0  0  0  0  0999 V2000
    3.8371    0.1781    1.0722 C   0  0  0  0  0  0  0  0  0  0  0  0
    4.0523   -0.8258   -0.0580 C   0  0  0  0  0  0  0  0  0  0  0  0
    3.1905   -0.3346   -1.1092 N   0  0  0  0  0  0  0  0  0  0  0  0
    2.3252    0.5177   -0.6736 C   0  0  0  0  0  0  0  0  0  0  0  0
    2.5243    0.6849    0.7341 N   0  0  0  0  0  0  0  0  0  0  0  0
    1.2675    1.2590   -1.4094 C   0  0  0  0  0  0  0  0  0  0  0  0
    0.0024    1.0130   -0.9141 O   0  0  0  0  0  0  0  0  0  0  0  0
   -0.7020   -0.1457   -0.8106 C   0  0  0  0  0  0  0  0  0  0  0  0
   -0.2717   -1.3931   -1.2057 C   0  0  0  0  0  0  0  0  0  0  0  0
   -1.0313   -2.5372   -1.0765 C   0  0  0  0  0  0  0  0  0  0  0  0
   -2.2933   -2.4639   -0.5267 C   0  0  0  0  0  0  0  0  0  0  0  0
   -2.7488   -1.2267   -0.1227 C   0  0  0  0  0  0  0  0  0  0  0  0
   -1.9793   -0.0889   -0.2572 C   0  0  0  0  0  0  0  0  0  0  0  0
   -2.5152    1.2111    0.1916 C   0  0  0  0  0  0  0  0  0  0  0  0
   -2.2985    1.6853    1.5808 C   0  0  0  0  0  0  0  0  0  0  0  0
   -3.6742    1.2686    1.1320 C   0  0  0  0  0  0  0  0  0  0  0  0
    3.8498   -0.3104    2.0545 H   0  0  0  0  0  0  0  0  0  0  0  0
    4.5496    1.0102    0.9725 H   0  0  0  0  0  0  0  0  0  0  0  0
    5.0862   -0.8638   -0.4182 H   0  0  0  0  0  0  0  0  0  0  0  0
    3.6942   -1.7995    0.3251 H   0  0  0  0  0  0  0  0  0  0  0  0
    1.8799    1.0914    1.4451 H   0  0  0  0  0  0  0  0  0  0  0  0
    1.4397    2.3727   -1.3350 H   0  0  0  0  0  0  0  0  0  0  0  0
    1.4044    0.9990   -2.4786 H   0  0  0  0  0  0  0  0  0  0  0  0
    0.7112   -1.4852   -1.6415 H   0  0  0  0  0  0  0  0  0  0  0  0
   -0.6077   -3.4800   -1.4169 H   0  0  0  0  0  0  0  0  0  0  0  0
   -2.8665   -3.3767   -0.4375 H   0  0  0  0  0  0  0  0  0  0  0  0
   -3.7305   -1.1829    0.3027 H   0  0  0  0  0  0  0  0  0  0  0  0
   -2.5722    1.9565   -0.6358 H   0  0  0  0  0  0  0  0  0  0  0  0
   -2.2010    2.7649    1.7948 H   0  0  0  0  0  0  0  0  0  0  0  0
   -1.7651    1.0550    2.3134 H   0  0  0  0  0  0  0  0  0  0  0  0
   -4.0972    0.3839    1.6205 H   0  0  0  0  0  0  0  0  0  0  0  0
   -4.4597    2.0631    0.9875 H   0  0  0  0  0  0  0  0  0  0  0  0
  1  2  1  0
  2  3  1  0
  3  4  2  0
  4  5  1  0
  4  6  1  0
  6  7  1  0
  7  8  1  0
  8  9  2  0
  9 10  1  0
 10 11  2  0
 11 12  1  0
 12 13  2  0
 13 14  1  0
 14 15  1  0
 15 16  1  0
  5  1  1  0
 13  8  1  0
 16 14  1  0
  1 17  1  0
  1 18  1  0
  2 19  1  0
  2 20  1  0
  5 21  1  0
  6 22  1  0
  6 23  1  0
  9 24  1  0
 10 25  1  0
 11 26  1  0
 12 27  1  0
 14 28  1  0
 15 29  1  0
 15 30  1  0
 16 31  1  0
 16 32  1  0
M  END
>  <Ligand ID>  (1) 
LIG0000848

>  <Ligand>  (1) 
cirazoline

>  <SMILES>  (1) 
C1CN=C(N1)COc1ccccc1C1CC1

>  <CID>  (1) 
2765.0

>  <ChEMBL ID>  (1) 
nan

>  <InChiKey>  (1) 
YAORIDZYZDUZCM-UHFFFAOYSA-N

>  <InChi>  (1) 
InChI=1S/C13H16N2O/c1-2-4-12(11(3-1)10-5-6-10)16-9-13-14-7-8-15-13/h1-4,10H,5-9H2,(H,14,15)

>  <IUPAC Name>  (1) 
2-[(2-cyclopropylphenoxy)methyl]-4,5-dihydro-1H-imidazole

$$$$
