
     RDKit          3D

 71 73  0  0  0  0  0  0  0  0999 V2000
    0.4701    2.6887   -0.2179 O   0  0  0  0  0  0  0  0  0  0  0  0
    1.1913    1.5015   -0.3728 C   0  0  1  0  0  0  0  0  0  0  0  0
    1.8928    1.1224    0.9097 C   0  0  2  0  0  0  0  0  0  0  0  0
    2.6649   -0.1573    0.7279 C   0  0  0  0  0  0  0  0  0  0  0  0
    3.3751   -0.5596    1.9923 C   0  0  0  0  0  0  0  0  0  0  0  0
    4.3539    0.4519    2.4705 C   0  0  0  0  0  0  0  0  0  0  0  0
    5.4158    0.7298    1.4458 C   0  0  0  0  0  0  0  0  0  0  0  0
    6.1786   -0.5055    1.1268 C   0  0  0  0  0  0  0  0  0  0  0  0
    7.2595   -0.2444    0.1225 C   0  0  0  0  0  0  0  0  0  0  0  0
    7.0478   -0.3524   -1.2357 C   0  0  0  0  0  0  0  0  0  0  0  0
    8.1151   -0.0897   -2.0910 C   0  0  0  0  0  0  0  0  0  0  0  0
    9.3665    0.2736   -1.5877 C   0  0  0  0  0  0  0  0  0  0  0  0
    9.5276    0.3681   -0.2205 C   0  0  0  0  0  0  0  0  0  0  0  0
    8.4943    0.1155    0.6587 C   0  0  0  0  0  0  0  0  0  0  0  0
    0.8442    0.9295    1.9728 C   0  0  0  0  0  0  0  0  0  0  0  0
    0.3126    0.4041   -0.8673 C   0  0  0  0  0  0  0  0  0  0  0  0
   -0.9787    0.4768   -0.6023 C   0  0  0  0  0  0  0  0  0  0  0  0
   -1.8962   -0.6180   -1.0886 C   0  0  1  0  0  0  0  0  0  0  0  0
   -1.8442   -1.7842   -0.1310 C   0  0  0  0  0  0  0  0  0  0  0  0
   -2.7881   -1.4389    0.9858 C   0  0  0  0  0  0  0  0  0  0  0  0
   -3.6385   -0.3722    0.3876 C   0  0  0  0  0  0  0  0  0  0  0  0
   -4.5406    0.2799    1.0120 O   0  0  0  0  0  0  0  0  0  0  0  0
   -3.2800   -0.2053   -0.9792 N   0  0  0  0  0  0  0  0  0  0  0  0
   -4.1719    0.2902   -2.0329 C   0  0  0  0  0  0  0  0  0  0  0  0
   -4.9087   -0.8236   -2.6888 C   0  0  0  0  0  0  0  0  0  0  0  0
   -5.7773   -1.6526   -1.8206 C   0  0  0  0  0  0  0  0  0  0  0  0
   -6.8368   -0.9065   -1.1799 C   0  0  0  0  0  0  0  0  0  0  0  0
   -7.8085   -1.3885   -0.3075 C   0  0  0  0  0  0  0  0  0  0  0  0
   -8.6953   -0.5251    0.1707 C   0  0  0  0  0  0  0  0  0  0  0  0
   -8.6225    0.7920   -0.2074 C   0  0  0  0  0  0  0  0  0  0  0  0
   -7.2163    0.8401   -1.3114 S   0  0  0  0  0  0  0  0  0  0  0  0
   -9.4403    1.9340    0.1491 C   0  0  0  0  0  0  0  0  0  0  0  0
   -9.1892    3.0512   -0.3187 O   0  0  0  0  0  0  0  0  0  0  0  0
  -10.4863    1.7526    1.0057 O   0  0  0  0  0  0  0  0  0  0  0  0
   -3.4920   -2.5535    1.3549 F   0  0  0  0  0  0  0  0  0  0  0  0
   -2.1176   -0.9788    2.1111 F   0  0  0  0  0  0  0  0  0  0  0  0
    0.7431    3.3997   -0.8221 H   0  0  0  0  0  0  0  0  0  0  0  0
    1.9629    1.6709   -1.1523 H   0  0  0  0  0  0  0  0  0  0  0  0
    2.5722    1.9772    1.1418 H   0  0  0  0  0  0  0  0  0  0  0  0
    3.3779   -0.0792   -0.0925 H   0  0  0  0  0  0  0  0  0  0  0  0
    1.9382   -0.9615    0.5064 H   0  0  0  0  0  0  0  0  0  0  0  0
    2.6097   -0.7969    2.7990 H   0  0  0  0  0  0  0  0  0  0  0  0
    3.8804   -1.5235    1.8259 H   0  0  0  0  0  0  0  0  0  0  0  0
    3.8849    1.4222    2.7478 H   0  0  0  0  0  0  0  0  0  0  0  0
    4.7909    0.0694    3.4269 H   0  0  0  0  0  0  0  0  0  0  0  0
    6.1503    1.4995    1.8227 H   0  0  0  0  0  0  0  0  0  0  0  0
    4.9661    1.1949    0.5374 H   0  0  0  0  0  0  0  0  0  0  0  0
    5.4550   -1.2550    0.6860 H   0  0  0  0  0  0  0  0  0  0  0  0
    6.5563   -0.9602    2.0578 H   0  0  0  0  0  0  0  0  0  0  0  0
    6.0724   -0.6349   -1.6076 H   0  0  0  0  0  0  0  0  0  0  0  0
    7.9756   -0.1673   -3.1632 H   0  0  0  0  0  0  0  0  0  0  0  0
   10.2106    0.4833   -2.2130 H   0  0  0  0  0  0  0  0  0  0  0  0
   10.4851    0.6487    0.2393 H   0  0  0  0  0  0  0  0  0  0  0  0
    8.6573    0.1996    1.7301 H   0  0  0  0  0  0  0  0  0  0  0  0
    1.2443    0.9282    3.0064 H   0  0  0  0  0  0  0  0  0  0  0  0
    0.0389    1.6727    1.8867 H   0  0  0  0  0  0  0  0  0  0  0  0
    0.4149   -0.0985    1.7899 H   0  0  0  0  0  0  0  0  0  0  0  0
    0.6863   -0.4408   -1.4289 H   0  0  0  0  0  0  0  0  0  0  0  0
   -1.3625    1.3200   -0.0401 H   0  0  0  0  0  0  0  0  0  0  0  0
   -1.6202   -0.9424   -2.1069 H   0  0  0  0  0  0  0  0  0  0  0  0
   -0.8133   -1.7900    0.3007 H   0  0  0  0  0  0  0  0  0  0  0  0
   -2.0476   -2.7520   -0.6075 H   0  0  0  0  0  0  0  0  0  0  0  0
   -4.7574    1.1571   -1.7338 H   0  0  0  0  0  0  0  0  0  0  0  0
   -3.4530    0.6866   -2.8138 H   0  0  0  0  0  0  0  0  0  0  0  0
   -4.1267   -1.5123   -3.1139 H   0  0  0  0  0  0  0  0  0  0  0  0
   -5.4235   -0.4130   -3.5811 H   0  0  0  0  0  0  0  0  0  0  0  0
   -5.1873   -2.1652   -1.0551 H   0  0  0  0  0  0  0  0  0  0  0  0
   -6.2396   -2.4361   -2.4615 H   0  0  0  0  0  0  0  0  0  0  0  0
   -7.7984   -2.4684   -0.0517 H   0  0  0  0  0  0  0  0  0  0  0  0
   -9.5087   -0.8300    0.8769 H   0  0  0  0  0  0  0  0  0  0  0  0
  -11.1162    2.4829    1.3206 H   0  0  0  0  0  0  0  0  0  0  0  0
  1  2  1  0
  2  3  1  0
  3  4  1  0
  4  5  1  0
  5  6  1  0
  6  7  1  0
  7  8  1  0
  8  9  1  0
  9 10  2  0
 10 11  1  0
 11 12  2  0
 12 13  1  0
 13 14  2  0
  3 15  1  0
  2 16  1  0
 16 17  2  0
 17 18  1  0
 18 19  1  0
 19 20  1  0
 20 21  1  0
 21 22  2  0
 21 23  1  0
 23 24  1  0
 24 25  1  0
 25 26  1  0
 26 27  1  0
 27 28  2  0
 28 29  1  0
 29 30  2  0
 30 31  1  0
 30 32  1  0
 32 33  2  0
 32 34  1  0
 20 35  1  0
 20 36  1  0
 14  9  1  0
 23 18  1  0
 31 27  1  0
  1 37  1  0
  2 38  1  6
  3 39  1  1
  4 40  1  0
  4 41  1  0
  5 42  1  0
  5 43  1  0
  6 44  1  0
  6 45  1  0
  7 46  1  0
  7 47  1  0
  8 48  1  0
  8 49  1  0
 10 50  1  0
 11 51  1  0
 12 52  1  0
 13 53  1  0
 14 54  1  0
 15 55  1  0
 15 56  1  0
 15 57  1  0
 16 58  1  0
 17 59  1  0
 18 60  1  6
 19 61  1  0
 19 62  1  0
 24 63  1  0
 24 64  1  0
 25 65  1  0
 25 66  1  0
 26 67  1  0
 26 68  1  0
 28 69  1  0
 29 70  1  0
 34 71  1  0
M  END
>  <Ligand ID>  (1) 
LIG0005225

>  <Ligand>  (1) 
CHEMBL3968443

>  <SMILES>  (1) 
O[C@@H]([C@H](CCCCCc1ccccc1)C)/C=C/[C@H]1CC(C(=O)N1CCCc1ccc(s1)C(=O)O)(F)F

>  <CID>  (1) 
90054490.0

>  <ChEMBL ID>  (1) 
nan

>  <InChiKey>  (1) 
AGGYHZMNJSBHQQ-WWTZYMIRSA-N

>  <InChi>  (1) 
InChI=1S/C28H35F2NO4S/c1-20(9-4-2-5-10-21-11-6-3-7-12-21)24(32)16-14-22-19-28(29,30)27(35)31(22)18-8-13-23-15-17-25(36-23)26(33)34/h3,6-7,11-12,14-17,20,22,24,32H,2,4-5,8-10,13,18-19H2,1H3,(H,33,34)/b16-14+/t20-,22-,24+/m0/s1

>  <IUPAC Name>  (1) 
5-[3-[(5R)-3,3-difluoro-5-[(E,3S,4S)-3-hydroxy-4-methyl-9-phenylnon-1-enyl]-2-oxopyrrolidin-1-yl]propyl]thiophene-2-carboxylic acid

$$$$
