
     RDKit          3D

212220  0  0  0  0  0  0  0  0999 V2000
  -11.5397   -4.2401    6.3313 O   0  0  0  0  0  0  0  0  0  0  0  0
  -10.7328   -3.8142    5.2626 C   0  0  0  0  0  0  0  0  0  0  0  0
  -11.2726   -3.9765    4.0048 C   0  0  0  0  0  0  0  0  0  0  0  0
  -10.5411   -3.5836    2.9185 C   0  0  0  0  0  0  0  0  0  0  0  0
   -9.2922   -3.0393    3.1038 C   0  0  0  0  0  0  0  0  0  0  0  0
   -8.7219   -2.8637    4.3573 C   0  0  0  0  0  0  0  0  0  0  0  0
   -9.4815   -3.2690    5.4522 C   0  0  0  0  0  0  0  0  0  0  0  0
   -8.5306   -2.6696    1.8453 C   0  0  0  0  0  0  0  0  0  0  0  0
   -7.7476   -3.9041    1.4983 C   0  0  1  0  0  0  0  0  0  0  0  0
   -6.9152   -3.8092    0.2971 C   0  0  0  0  0  0  0  0  0  0  0  0
   -7.3944   -3.5990   -0.8596 O   0  0  0  0  0  0  0  0  0  0  0  0
   -5.5129   -3.9623    0.4067 N   0  0  0  0  0  0  0  0  0  0  0  0
   -4.5702   -3.9255   -0.6670 C   0  0  1  0  0  0  0  0  0  0  0  0
   -3.5495   -2.8580   -0.6399 C   0  0  0  0  0  0  0  0  0  0  0  0
   -4.2092   -1.2688   -1.0974 S   0  0  0  0  0  0  0  0  0  0  0  0
   -5.4882   -0.3547    0.2392 S   0  0  0  0  0  0  0  0  0  0  0  0
   -4.5211    0.7383    1.3724 C   0  0  0  0  0  0  0  0  0  0  0  0
   -3.7785    1.7522    0.4850 C   0  0  2  0  0  0  0  0  0  0  0  0
   -3.0311    2.7230    1.2053 N   0  0  0  0  0  0  0  0  0  0  0  0
   -2.3932    2.5996    2.4459 C   0  0  0  0  0  0  0  0  0  0  0  0
   -2.5715    1.5459    3.1057 O   0  0  0  0  0  0  0  0  0  0  0  0
   -1.5175    3.7094    2.9985 C   0  0  2  0  0  0  0  0  0  0  0  0
   -2.4527    4.5958    3.7949 C   0  0  0  0  0  0  0  0  0  0  0  0
   -1.8026    5.7479    4.4218 C   0  0  0  0  0  0  0  0  0  0  0  0
   -1.7442    6.9587    3.7340 C   0  0  0  0  0  0  0  0  0  0  0  0
   -1.1389    8.0848    4.2895 C   0  0  0  0  0  0  0  0  0  0  0  0
   -0.5789    8.0198    5.5494 C   0  0  0  0  0  0  0  0  0  0  0  0
   -0.6400    6.8280    6.2224 C   0  0  0  0  0  0  0  0  0  0  0  0
   -1.2330    5.7197    5.6794 C   0  0  0  0  0  0  0  0  0  0  0  0
   -1.0549    4.5709    1.8857 N   0  0  0  0  0  0  0  0  0  0  0  0
    0.3308    4.5106    1.6217 C   0  0  0  0  0  0  0  0  0  0  0  0
    1.0663    3.7676    2.3702 O   0  0  0  0  0  0  0  0  0  0  0  0
    1.0656    5.2111    0.5594 C   0  0  2  0  0  0  0  0  0  0  0  0
    0.3880    4.9579   -0.7754 C   0  0  0  0  0  0  0  0  0  0  0  0
    2.4580    4.7542    0.5098 N   0  0  0  0  0  0  0  0  0  0  0  0
    3.5533    5.5816    0.2370 C   0  0  0  0  0  0  0  0  0  0  0  0
    3.2793    6.8138    0.0047 O   0  0  0  0  0  0  0  0  0  0  0  0
    4.9656    5.0892    0.2084 C   0  0  2  0  0  0  0  0  0  0  0  0
    5.5267    5.1152   -1.2007 C   0  0  0  0  0  0  0  0  0  0  0  0
    5.5718    6.4191   -1.8491 C   0  0  0  0  0  0  0  0  0  0  0  0
    5.3009    7.5394   -1.3904 O   0  0  0  0  0  0  0  0  0  0  0  0
    5.9963    6.4139   -3.2426 N   0  0  0  0  0  0  0  0  0  0  0  0
    4.9977    3.6811    0.6771 N   0  0  0  0  0  0  0  0  0  0  0  0
    5.7976    3.2027    1.6885 C   0  0  0  0  0  0  0  0  0  0  0  0
    6.5918    4.0208    2.2741 O   0  0  0  0  0  0  0  0  0  0  0  0
    5.8407    1.7763    2.2111 C   0  0  1  0  0  0  0  0  0  0  0  0
    4.6754    1.1775    1.4354 N   0  0  0  0  0  0  0  0  0  0  0  0
    3.4776    1.0193    2.1186 C   0  0  0  0  0  0  0  0  0  0  0  0
    3.7569    1.3026    3.3701 O   0  0  0  0  0  0  0  0  0  0  0  0
    2.0868    0.6577    1.9544 C   0  0  0  0  0  0  0  0  0  0  0  0
    1.6197   -0.9568    2.0329 S   0  0  0  0  0  0  0  0  0  0  0  0
    1.6651   -2.3938    1.1931 C   0  0  0  0  0  0  0  0  0  0  0  0
    2.8488   -3.2927    0.9370 C   0  0  1  0  0  0  0  0  0  0  0  0
    2.4342   -4.4907    0.2033 N   0  0  0  0  0  0  0  0  0  0  0  0
    1.1594   -4.9942    0.0061 C   0  0  0  0  0  0  0  0  0  0  0  0
    0.1144   -4.3979    0.4271 O   0  0  0  0  0  0  0  0  0  0  0  0
    0.8259   -6.2642   -0.7149 C   0  0  2  0  0  0  0  0  0  0  0  0
   -0.5911   -6.2175   -1.0685 N   0  0  0  0  0  0  0  0  0  0  0  0
   -1.1784   -6.9932   -2.0782 C   0  0  0  0  0  0  0  0  0  0  0  0
   -0.4508   -7.8792   -2.6214 O   0  0  0  0  0  0  0  0  0  0  0  0
   -2.5933   -6.7831   -2.4718 C   0  0  1  0  0  0  0  0  0  0  0  0
   -3.1286   -5.5085   -1.9774 N   0  0  0  0  0  0  0  0  0  0  0  0
   -4.0585   -5.3069   -0.9826 C   0  0  0  0  0  0  0  0  0  0  0  0
   -4.4761   -6.3240   -0.3301 O   0  0  0  0  0  0  0  0  0  0  0  0
   -2.7810   -6.7076   -3.9634 C   0  0  0  0  0  0  0  0  0  0  0  0
   -2.3871   -7.8669   -4.7462 C   0  0  0  0  0  0  0  0  0  0  0  0
   -1.1199   -7.9923   -5.3228 C   0  0  0  0  0  0  0  0  0  0  0  0
   -0.8661   -9.1405   -6.0543 C   0  0  0  0  0  0  0  0  0  0  0  0
   -1.8167  -10.1253   -6.2132 C   0  0  0  0  0  0  0  0  0  0  0  0
   -3.0635  -10.0096   -5.6505 C   0  0  0  0  0  0  0  0  0  0  0  0
   -3.3381   -8.8845   -4.9227 C   0  0  0  0  0  0  0  0  0  0  0  0
    0.8872   -7.3497    0.3867 C   0  0  0  0  0  0  0  0  0  0  0  0
    2.2186   -7.4488    1.0091 C   0  0  0  0  0  0  0  0  0  0  0  0
    3.1414   -8.2937    0.4001 C   0  0  0  0  0  0  0  0  0  0  0  0
    4.4069   -8.4740    0.8967 C   0  0  0  0  0  0  0  0  0  0  0  0
    4.7883   -7.7911    2.0481 C   0  0  0  0  0  0  0  0  0  0  0  0
    3.8881   -6.9472    2.6680 C   0  0  0  0  0  0  0  0  0  0  0  0
    2.6015   -6.7771    2.1480 C   0  0  0  0  0  0  0  0  0  0  0  0
    3.9996   -2.6907    0.2546 C   0  0  0  0  0  0  0  0  0  0  0  0
    4.5256   -3.3687   -0.6760 O   0  0  0  0  0  0  0  0  0  0  0  0
    4.4871   -1.4616    0.5937 N   0  0  0  0  0  0  0  0  0  0  0  0
    5.5241   -0.6275    0.0225 C   0  0  1  0  0  0  0  0  0  0  0  0
    5.4259   -0.9063   -1.4990 C   0  0  0  0  0  0  0  0  0  0  0  0
    6.4371   -0.0678   -2.2701 C   0  0  0  0  0  0  0  0  0  0  0  0
    6.2767   -0.4611   -3.7413 C   0  0  0  0  0  0  0  0  0  0  0  0
    7.1747    0.2530   -4.5876 N   0  0  0  0  0  0  0  0  0  0  0  0
    8.4275   -0.1044   -4.5566 C   0  0  0  0  0  0  0  0  0  0  0  0
    8.9140   -1.1518   -3.7313 N   0  0  0  0  0  0  0  0  0  0  0  0
    9.4116    0.5574   -5.3762 N   0  0  0  0  0  0  0  0  0  0  0  0
    5.0710    0.8209    0.1094 C   0  0  0  0  0  0  0  0  0  0  0  0
    7.1150    1.1407    1.9612 C   0  0  0  0  0  0  0  0  0  0  0  0
    8.3148    1.8348    2.5223 C   0  0  0  0  0  0  0  0  0  0  0  0
    8.8946    1.7116    3.7583 C   0  0  0  0  0  0  0  0  0  0  0  0
    9.9443    2.5413    3.8958 N   0  0  0  0  0  0  0  0  0  0  0  0
   10.0801    3.2375    2.7403 C   0  0  0  0  0  0  0  0  0  0  0  0
    9.0738    2.8116    1.8670 C   0  0  0  0  0  0  0  0  0  0  0  0
    9.0608    3.3942    0.6218 C   0  0  0  0  0  0  0  0  0  0  0  0
    9.9689    4.3501    0.2173 C   0  0  0  0  0  0  0  0  0  0  0  0
   10.9382    4.7524    1.0842 C   0  0  0  0  0  0  0  0  0  0  0  0
   10.9951    4.1978    2.3404 C   0  0  0  0  0  0  0  0  0  0  0  0
   -4.5875    2.2699   -0.6094 C   0  0  0  0  0  0  0  0  0  0  0  0
   -5.2668    1.4065   -1.2840 O   0  0  0  0  0  0  0  0  0  0  0  0
   -4.7141    3.6051   -1.0155 N   0  0  0  0  0  0  0  0  0  0  0  0
   -5.5644    4.0477   -2.1391 C   0  0  2  0  0  0  0  0  0  0  0  0
   -4.6644    4.6466   -3.1648 C   0  0  0  0  0  0  0  0  0  0  0  0
   -3.4321    4.7181   -2.8274 O   0  0  0  0  0  0  0  0  0  0  0  0
   -5.1350    5.1024   -4.4213 N   0  0  0  0  0  0  0  0  0  0  0  0
   -6.5522    5.0813   -1.6025 C   0  0  0  0  0  0  0  0  0  0  0  0
   -7.4520    5.6260   -2.6335 C   0  0  0  0  0  0  0  0  0  0  0  0
   -7.0488    6.7957   -3.2662 C   0  0  0  0  0  0  0  0  0  0  0  0
   -7.8184    7.3903   -4.2431 C   0  0  0  0  0  0  0  0  0  0  0  0
   -9.0132    6.8304   -4.6185 C   0  0  0  0  0  0  0  0  0  0  0  0
   -9.4122    5.6696   -3.9919 C   0  0  0  0  0  0  0  0  0  0  0  0
   -8.6371    5.0659   -3.0007 C   0  0  0  0  0  0  0  0  0  0  0  0
   -9.7563    7.4622   -5.6121 O   0  0  0  0  0  0  0  0  0  0  0  0
   -6.9178   -4.2078    2.6583 N   0  0  0  0  0  0  0  0  0  0  0  0
  -11.5639   -5.2450    6.5730 H   0  0  0  0  0  0  0  0  0  0  0  0
  -12.2639   -4.4018    3.8433 H   0  0  0  0  0  0  0  0  0  0  0  0
  -10.9664   -3.7052    1.9178 H   0  0  0  0  0  0  0  0  0  0  0  0
   -7.7305   -2.4302    4.4922 H   0  0  0  0  0  0  0  0  0  0  0  0
   -9.1269   -3.1857    6.4731 H   0  0  0  0  0  0  0  0  0  0  0  0
   -7.8482   -1.8242    2.0445 H   0  0  0  0  0  0  0  0  0  0  0  0
   -9.2541   -2.4047    1.0535 H   0  0  0  0  0  0  0  0  0  0  0  0
   -8.4681   -4.7565    1.4313 H   0  0  0  0  0  0  0  0  0  0  0  0
   -5.1004   -4.1225    1.3781 H   0  0  0  0  0  0  0  0  0  0  0  0
   -5.2561   -3.6440   -1.5852 H   0  0  0  0  0  0  0  0  0  0  0  0
   -3.0364   -2.7904    0.3654 H   0  0  0  0  0  0  0  0  0  0  0  0
   -2.6952   -3.0686   -1.3467 H   0  0  0  0  0  0  0  0  0  0  0  0
   -5.2267    1.2067    2.0554 H   0  0  0  0  0  0  0  0  0  0  0  0
   -3.7656    0.0728    1.8108 H   0  0  0  0  0  0  0  0  0  0  0  0
   -2.9746    1.0527    0.0404 H   0  0  0  0  0  0  0  0  0  0  0  0
   -2.9224    3.6776    0.7275 H   0  0  0  0  0  0  0  0  0  0  0  0
   -0.7013    3.3127    3.5723 H   0  0  0  0  0  0  0  0  0  0  0  0
   -3.0432    3.9942    4.5436 H   0  0  0  0  0  0  0  0  0  0  0  0
   -3.2628    5.0132    3.1279 H   0  0  0  0  0  0  0  0  0  0  0  0
   -2.1576    7.0823    2.7559 H   0  0  0  0  0  0  0  0  0  0  0  0
   -1.1166    9.0057    3.7068 H   0  0  0  0  0  0  0  0  0  0  0  0
   -0.1156    8.9199    5.9639 H   0  0  0  0  0  0  0  0  0  0  0  0
   -0.2033    6.7834    7.2075 H   0  0  0  0  0  0  0  0  0  0  0  0
   -1.2748    4.7762    6.2263 H   0  0  0  0  0  0  0  0  0  0  0  0
   -1.7032    5.1662    1.3599 H   0  0  0  0  0  0  0  0  0  0  0  0
    1.0839    6.2907    0.7131 H   0  0  0  0  0  0  0  0  0  0  0  0
   -0.5384    5.6012   -0.7436 H   0  0  0  0  0  0  0  0  0  0  0  0
    0.0425    3.9355   -0.9037 H   0  0  0  0  0  0  0  0  0  0  0  0
    0.9891    5.3564   -1.6193 H   0  0  0  0  0  0  0  0  0  0  0  0
    2.5503    3.7079    0.7122 H   0  0  0  0  0  0  0  0  0  0  0  0
    5.6366    5.6476    0.8596 H   0  0  0  0  0  0  0  0  0  0  0  0
    6.5847    4.7255   -1.1987 H   0  0  0  0  0  0  0  0  0  0  0  0
    4.9820    4.3331   -1.8003 H   0  0  0  0  0  0  0  0  0  0  0  0
    7.0089    6.3838   -3.4767 H   0  0  0  0  0  0  0  0  0  0  0  0
    5.2258    6.4420   -3.9425 H   0  0  0  0  0  0  0  0  0  0  0  0
    4.3185    3.0789    0.1395 H   0  0  0  0  0  0  0  0  0  0  0  0
    5.6416    1.8768    3.2828 H   0  0  0  0  0  0  0  0  0  0  0  0
    1.5605    1.2031    2.8737 H   0  0  0  0  0  0  0  0  0  0  0  0
    1.5673    1.3054    1.1515 H   0  0  0  0  0  0  0  0  0  0  0  0
    0.9754   -3.1503    1.8026 H   0  0  0  0  0  0  0  0  0  0  0  0
    1.0246   -2.3556    0.2385 H   0  0  0  0  0  0  0  0  0  0  0  0
    3.1299   -3.6499    1.9486 H   0  0  0  0  0  0  0  0  0  0  0  0
    3.2480   -5.0301   -0.2271 H   0  0  0  0  0  0  0  0  0  0  0  0
    1.4841   -6.5169   -1.5254 H   0  0  0  0  0  0  0  0  0  0  0  0
   -1.2072   -5.5501   -0.5073 H   0  0  0  0  0  0  0  0  0  0  0  0
   -3.2450   -7.6114   -2.0868 H   0  0  0  0  0  0  0  0  0  0  0  0
   -2.7177   -4.6709   -2.4871 H   0  0  0  0  0  0  0  0  0  0  0  0
   -3.8702   -6.4886   -4.1956 H   0  0  0  0  0  0  0  0  0  0  0  0
   -2.2530   -5.7707   -4.2879 H   0  0  0  0  0  0  0  0  0  0  0  0
   -0.3646   -7.2386   -5.2266 H   0  0  0  0  0  0  0  0  0  0  0  0
    0.1007   -9.3265   -6.5468 H   0  0  0  0  0  0  0  0  0  0  0  0
   -1.6166  -11.0346   -6.7983 H   0  0  0  0  0  0  0  0  0  0  0  0
   -3.8167  -10.7969   -5.7774 H   0  0  0  0  0  0  0  0  0  0  0  0
   -4.3195   -8.7841   -4.4736 H   0  0  0  0  0  0  0  0  0  0  0  0
    0.5614   -8.3010   -0.0248 H   0  0  0  0  0  0  0  0  0  0  0  0
    0.1368   -7.0247    1.1730 H   0  0  0  0  0  0  0  0  0  0  0  0
    2.8613   -8.8322   -0.4858 H   0  0  0  0  0  0  0  0  0  0  0  0
    5.1380   -9.1282    0.4399 H   0  0  0  0  0  0  0  0  0  0  0  0
    5.7947   -7.9609    2.4059 H   0  0  0  0  0  0  0  0  0  0  0  0
    4.1997   -6.4138    3.5821 H   0  0  0  0  0  0  0  0  0  0  0  0
    1.8723   -6.1160    2.6271 H   0  0  0  0  0  0  0  0  0  0  0  0
    4.0784   -1.0382    1.4984 H   0  0  0  0  0  0  0  0  0  0  0  0
    6.4987   -0.9442    0.2486 H   0  0  0  0  0  0  0  0  0  0  0  0
    4.4484   -0.7621   -1.9019 H   0  0  0  0  0  0  0  0  0  0  0  0
    5.7993   -1.9441   -1.6287 H   0  0  0  0  0  0  0  0  0  0  0  0
    6.2483    0.9952   -2.1256 H   0  0  0  0  0  0  0  0  0  0  0  0
    7.4698   -0.3017   -1.9738 H   0  0  0  0  0  0  0  0  0  0  0  0
    6.5753   -1.5443   -3.7705 H   0  0  0  0  0  0  0  0  0  0  0  0
    5.2275   -0.4224   -4.0207 H   0  0  0  0  0  0  0  0  0  0  0  0
    8.5109   -2.1412   -3.8262 H   0  0  0  0  0  0  0  0  0  0  0  0
    9.6553   -1.0582   -3.0131 H   0  0  0  0  0  0  0  0  0  0  0  0
    9.3009    0.6751   -6.4028 H   0  0  0  0  0  0  0  0  0  0  0  0
   10.2576    0.9329   -4.9245 H   0  0  0  0  0  0  0  0  0  0  0  0
    4.3504    0.9841   -0.7106 H   0  0  0  0  0  0  0  0  0  0  0  0
    5.9468    1.4270   -0.2402 H   0  0  0  0  0  0  0  0  0  0  0  0
    7.4079    1.0695    0.8587 H   0  0  0  0  0  0  0  0  0  0  0  0
    7.2129    0.1032    2.3950 H   0  0  0  0  0  0  0  0  0  0  0  0
    8.5530    1.0315    4.5342 H   0  0  0  0  0  0  0  0  0  0  0  0
   10.5851    2.6872    4.7090 H   0  0  0  0  0  0  0  0  0  0  0  0
    8.2750    3.0558   -0.0744 H   0  0  0  0  0  0  0  0  0  0  0  0
    9.9225    4.7847   -0.7902 H   0  0  0  0  0  0  0  0  0  0  0  0
   11.6402    5.5011    0.7521 H   0  0  0  0  0  0  0  0  0  0  0  0
   11.7914    4.5373    3.0185 H   0  0  0  0  0  0  0  0  0  0  0  0
   -4.2072    4.3584   -0.5339 H   0  0  0  0  0  0  0  0  0  0  0  0
   -6.1265    3.2194   -2.5867 H   0  0  0  0  0  0  0  0  0  0  0  0
   -4.6416    5.9174   -4.8427 H   0  0  0  0  0  0  0  0  0  0  0  0
   -5.9427    4.6145   -4.8726 H   0  0  0  0  0  0  0  0  0  0  0  0
   -7.0653    4.6366   -0.7337 H   0  0  0  0  0  0  0  0  0  0  0  0
   -5.9202    5.9115   -1.1639 H   0  0  0  0  0  0  0  0  0  0  0  0
   -6.1177    7.2949   -3.0186 H   0  0  0  0  0  0  0  0  0  0  0  0
   -7.4510    8.3151   -4.7153 H   0  0  0  0  0  0  0  0  0  0  0  0
  -10.3654    5.2354   -4.3034 H   0  0  0  0  0  0  0  0  0  0  0  0
   -8.9758    4.1565   -2.5341 H   0  0  0  0  0  0  0  0  0  0  0  0
   -9.8702    8.4916   -5.5794 H   0  0  0  0  0  0  0  0  0  0  0  0
   -6.2661   -3.4342    2.8818 H   0  0  0  0  0  0  0  0  0  0  0  0
   -6.4064   -5.0960    2.5957 H   0  0  0  0  0  0  0  0  0  0  0  0
  1  2  1  0
  2  3  2  0
  3  4  1  0
  4  5  2  0
  5  6  1  0
  6  7  2  0
  5  8  1  0
  8  9  1  0
  9 10  1  0
 10 11  2  0
 10 12  1  0
 12 13  1  0
 13 14  1  0
 14 15  1  0
 15 16  1  0
 16 17  1  0
 17 18  1  0
 18 19  1  0
 19 20  1  0
 20 21  2  0
 20 22  1  0
 22 23  1  0
 23 24  1  0
 24 25  2  0
 25 26  1  0
 26 27  2  0
 27 28  1  0
 28 29  2  0
 22 30  1  0
 30 31  1  0
 31 32  2  0
 31 33  1  0
 33 34  1  0
 33 35  1  0
 35 36  1  0
 36 37  2  0
 36 38  1  0
 38 39  1  0
 39 40  1  0
 40 41  2  0
 40 42  1  0
 38 43  1  0
 43 44  1  0
 44 45  2  0
 44 46  1  0
 46 47  1  0
 47 48  1  0
 48 49  2  0
 48 50  1  0
 50 51  1  0
 51 52  1  0
 52 53  1  0
 53 54  1  0
 54 55  1  0
 55 56  2  0
 55 57  1  0
 57 58  1  0
 58 59  1  0
 59 60  2  0
 59 61  1  0
 61 62  1  0
 62 63  1  0
 63 64  2  0
 61 65  1  0
 65 66  1  0
 66 67  2  0
 67 68  1  0
 68 69  2  0
 69 70  1  0
 70 71  2  0
 57 72  1  0
 72 73  1  0
 73 74  2  0
 74 75  1  0
 75 76  2  0
 76 77  1  0
 77 78  2  0
 53 79  1  0
 79 80  2  0
 79 81  1  0
 81 82  1  0
 82 83  1  0
 83 84  1  0
 84 85  1  0
 85 86  1  0
 86 87  2  3
 87 88  1  0
 87 89  1  0
 82 90  1  0
 46 91  1  0
 91 92  1  0
 92 93  2  0
 93 94  1  0
 94 95  1  0
 95 96  2  0
 96 97  1  0
 97 98  2  0
 98 99  1  0
 99100  2  0
 18101  1  0
101102  2  0
101103  1  0
103104  1  0
104105  1  0
105106  2  0
105107  1  0
104108  1  0
108109  1  0
109110  2  0
110111  1  0
111112  2  0
112113  1  0
113114  2  0
112115  1  0
  9116  1  0
  7  2  1  0
 63 13  1  0
 71 66  1  0
 78 73  1  0
 96 92  1  0
114109  1  0
 29 24  1  0
 90 47  1  0
100 95  1  0
  1117  1  0
  3118  1  0
  4119  1  0
  6120  1  0
  7121  1  0
  8122  1  0
  8123  1  0
  9124  1  6
 12125  1  0
 13126  1  6
 14127  1  0
 14128  1  0
 17129  1  0
 17130  1  0
 18131  1  6
 19132  1  0
 22133  1  1
 23134  1  0
 23135  1  0
 25136  1  0
 26137  1  0
 27138  1  0
 28139  1  0
 29140  1  0
 30141  1  0
 33142  1  1
 34143  1  0
 34144  1  0
 34145  1  0
 35146  1  0
 38147  1  1
 39148  1  0
 39149  1  0
 42150  1  0
 42151  1  0
 43152  1  0
 46153  1  1
 50154  1  0
 50155  1  0
 52156  1  0
 52157  1  0
 53158  1  1
 54159  1  0
 57160  1  6
 58161  1  0
 61162  1  1
 62163  1  0
 65164  1  0
 65165  1  0
 67166  1  0
 68167  1  0
 69168  1  0
 70169  1  0
 71170  1  0
 72171  1  0
 72172  1  0
 74173  1  0
 75174  1  0
 76175  1  0
 77176  1  0
 78177  1  0
 81178  1  0
 82179  1  1
 83180  1  0
 83181  1  0
 84182  1  0
 84183  1  0
 85184  1  0
 85185  1  0
 88186  1  0
 88187  1  0
 89188  1  0
 89189  1  0
 90190  1  0
 90191  1  0
 91192  1  0
 91193  1  0
 93194  1  0
 94195  1  0
 97196  1  0
 98197  1  0
 99198  1  0
100199  1  0
103200  1  0
104201  1  6
107202  1  0
107203  1  0
108204  1  0
108205  1  0
110206  1  0
111207  1  0
113208  1  0
114209  1  0
115210  1  0
116211  1  0
116212  1  0
M  END
>  <Ligand ID>  (1) 
LIG0001140

>  <Ligand>  (1) 
BDBM50427692

>  <SMILES>  (1) 
Oc1ccc(cc1)C[C@@H](C(=O)N[C@H]1CSSC[C@H](NC(=O)[C@H](Cc2ccccc2)NC(=O)[C@H](C)NC(=O)[C@H](CC(=O)N)NC(=O)[C@@H](N2C(=O)CSC[C@@H](NC(=O)[C@H](NC(=O)[C@@H](NC1=O)Cc1ccccc1)Cc1ccccc1)C(=O)N[C@@H](CCCN=C(N)N)C2)Cc1c[nH]c2c1cccc2)C(=O)N[C@H](C(=O)N)Cc1ccc(cc1)O)N

>  <CID>  (1) 
91899989.0

>  <ChEMBL ID>  (1) 
nan

>  <InChiKey>  (1) 
GZWGEWCWRAMJIB-TWLSXMBOSA-N

>  <InChi>  (1) 
InChI=1S/C80H96N18O15S3/c1-45-70(104)91-59(34-46-14-5-2-6-15-46)74(108)97-65(77(111)90-58(69(83)103)33-50-25-29-54(100)30-26-50)43-116-115-42-64(95-71(105)56(81)32-49-23-27-53(99)28-24-49)78(112)93-60(35-47-16-7-3-8-17-47)73(107)92-61(36-48-18-9-4-10-19-48)75(109)96-63-41-114-44-68(102)98(40-52(89-76(63)110)20-13-31-86-80(84)85)66(37-51-39-87-57-22-12-11-21-55(51)57)79(113)94-62(38-67(82)101)72(106)88-45/h2-12,14-19,21-30,39,45,52,56,58-66,87,99-100H,13,20,31-38,40-44,81H2,1H3,(H2,82,101)(H2,83,103)(H,88,106)(H,89,110)(H,90,111)(H,91,104)(H,92,107)(H,93,112)(H,94,113)(H,95,105)(H,96,109)(H,97,108)(H4,84,85,86)/t45-,52-,56-,58-,59-,60-,61+,62-,63+,64-,65-,66-/m0/s1

>  <IUPAC Name>  (1) 
(2S,5S,8S,11S,14R,19R,22S,25R,28S,34S)-N-[(2S)-1-amino-3-(4-hydroxyphenyl)-1-oxopropan-2-yl]-19-[[(2S)-2-amino-3-(4-hydroxyphenyl)propanoyl]amino]-5-(2-amino-2-oxoethyl)-11,22,25-tribenzyl-34-[3-(diaminomethylideneamino)propyl]-2-(1H-indol-3-ylmethyl)-8-methyl-3,6,9,12,20,23,26,32,36-nonaoxo-16,17,30-trithia-1,4,7,10,13,21,24,27,35-nonazabicyclo[26.4.4]hexatriacontane-14-carboxamide

$$$$
