
     RDKit          3D

166169  0  0  0  0  0  0  0  0999 V2000
   -8.0160   -4.4630   -3.3694 C   0  0  0  0  0  0  0  0  0  0  0  0
   -9.0587   -3.5334   -2.9665 N   0  0  0  0  0  0  0  0  0  0  0  0
  -10.0297   -3.9786   -2.2483 C   0  0  0  0  0  0  0  0  0  0  0  0
  -11.0335   -3.0630   -1.8660 N   0  0  0  0  0  0  0  0  0  0  0  0
  -10.9239   -1.6507   -2.1599 C   0  0  0  0  0  0  0  0  0  0  0  0
   -9.8004   -1.0266   -1.3535 C   0  0  0  0  0  0  0  0  0  0  0  0
   -9.6668    0.4344   -1.6279 C   0  0  0  0  0  0  0  0  0  0  0  0
   -8.5256    0.9969   -0.7939 C   0  0  1  0  0  0  0  0  0  0  0  0
   -8.7372    0.8084    0.6384 C   0  0  0  0  0  0  0  0  0  0  0  0
   -7.9736    0.1671    1.4110 O   0  0  0  0  0  0  0  0  0  0  0  0
   -9.8998    1.3903    1.2291 N   0  0  0  0  0  0  0  0  0  0  0  0
  -10.1751    1.2382    2.6727 C   0  0  2  0  0  0  0  0  0  0  0  0
  -11.4837    0.6050    2.8421 C   0  0  0  0  0  0  0  0  0  0  0  0
  -11.9344    0.2396    3.9554 O   0  0  0  0  0  0  0  0  0  0  0  0
  -12.3356    0.3676    1.7140 N   0  0  0  0  0  0  0  0  0  0  0  0
  -10.1426    2.6343    3.2219 C   0  0  0  0  0  0  0  0  0  0  0  0
  -11.1166    3.5617    2.6340 C   0  0  0  0  0  0  0  0  0  0  0  0
  -10.7911    4.3966    1.5598 C   0  0  0  0  0  0  0  0  0  0  0  0
  -11.9013    5.1071    1.2049 N   0  0  0  0  0  0  0  0  0  0  0  0
  -12.9221    4.7675    2.0007 C   0  0  0  0  0  0  0  0  0  0  0  0
  -12.4372    3.8162    2.8808 C   0  0  0  0  0  0  0  0  0  0  0  0
  -13.3052    3.3251    3.8139 C   0  0  0  0  0  0  0  0  0  0  0  0
  -14.6066    3.7299    3.9047 C   0  0  0  0  0  0  0  0  0  0  0  0
  -15.1177    4.6759    3.0371 C   0  0  0  0  0  0  0  0  0  0  0  0
  -14.2433    5.1786    2.0901 C   0  0  0  0  0  0  0  0  0  0  0  0
   -7.3058    0.3462   -1.2270 N   0  0  0  0  0  0  0  0  0  0  0  0
   -6.4128    1.1009   -2.0124 C   0  0  0  0  0  0  0  0  0  0  0  0
   -6.6802    2.3181   -2.3216 O   0  0  0  0  0  0  0  0  0  0  0  0
   -5.1085    0.6101   -2.5658 C   0  0  1  0  0  0  0  0  0  0  0  0
   -4.7616   -0.7067   -2.1602 N   0  0  0  0  0  0  0  0  0  0  0  0
   -3.4665   -0.9116   -1.5412 C   0  0  0  0  0  0  0  0  0  0  0  0
   -2.7741    0.1126   -1.3970 O   0  0  0  0  0  0  0  0  0  0  0  0
   -3.0461   -2.1826   -1.1455 N   0  0  0  0  0  0  0  0  0  0  0  0
   -1.8631   -2.5650   -0.5468 N   0  0  0  0  0  0  0  0  0  0  0  0
   -0.8443   -1.7679   -0.0222 C   0  0  0  0  0  0  0  0  0  0  0  0
   -0.8382   -0.5197    0.0087 O   0  0  0  0  0  0  0  0  0  0  0  0
    0.3650   -2.4388    0.5625 C   0  0  1  0  0  0  0  0  0  0  0  0
    1.3042   -1.4909    1.1215 N   0  0  0  0  0  0  0  0  0  0  0  0
    2.4964   -1.0614    0.4925 C   0  0  0  0  0  0  0  0  0  0  0  0
    2.7826   -1.5191   -0.6450 O   0  0  0  0  0  0  0  0  0  0  0  0
    3.3489   -0.0951    1.2054 C   0  0  2  0  0  0  0  0  0  0  0  0
    2.6687    1.1720    1.6275 C   0  0  2  0  0  0  0  0  0  0  0  0
    1.5344    1.0545    2.3646 O   0  0  0  0  0  0  0  0  0  0  0  0
    2.3983    2.1079    0.4742 C   0  0  0  0  0  0  0  0  0  0  0  0
    4.5354    0.2993    0.4356 N   0  0  0  0  0  0  0  0  0  0  0  0
    5.8528   -0.0239    0.7983 C   0  0  0  0  0  0  0  0  0  0  0  0
    5.9697   -0.7384    1.8667 O   0  0  0  0  0  0  0  0  0  0  0  0
    7.0886    0.3404    0.1295 C   0  0  1  0  0  0  0  0  0  0  0  0
    8.2657   -0.4168    0.5459 N   0  0  0  0  0  0  0  0  0  0  0  0
    9.0368   -0.0896    1.6952 C   0  0  0  0  0  0  0  0  0  0  0  0
    8.5959    0.9205    2.3558 O   0  0  0  0  0  0  0  0  0  0  0  0
   10.2526   -0.8214    2.1373 C   0  0  2  0  0  0  0  0  0  0  0  0
   11.2503   -0.7167    1.0323 N   0  0  0  0  0  0  0  0  0  0  0  0
   12.2942    0.1635    1.2995 C   0  0  0  0  0  0  0  0  0  0  0  0
   12.1892    0.7094    2.5048 O   0  0  0  0  0  0  0  0  0  0  0  0
   13.4585    0.6285    0.5854 C   0  0  1  0  0  0  0  0  0  0  0  0
   14.6877    0.7198    1.5300 C   0  0  0  0  0  0  0  0  0  0  0  0
   15.8763    1.2645    0.8591 C   0  0  0  0  0  0  0  0  0  0  0  0
   15.9229    2.6687    0.7663 C   0  0  0  0  0  0  0  0  0  0  0  0
   16.9842    3.3290    0.2018 C   0  0  0  0  0  0  0  0  0  0  0  0
   18.0560    2.6500   -0.3014 C   0  0  0  0  0  0  0  0  0  0  0  0
   18.0296    1.2646   -0.2194 C   0  0  0  0  0  0  0  0  0  0  0  0
   16.9391    0.6028    0.3603 C   0  0  0  0  0  0  0  0  0  0  0  0
   19.1628    3.2581   -0.8859 O   0  0  0  0  0  0  0  0  0  0  0  0
   13.8078    0.1121   -0.6689 N   0  0  0  0  0  0  0  0  0  0  0  0
   14.5249   -1.1071   -0.9337 C   0  0  0  0  0  0  0  0  0  0  0  0
   14.8921   -1.8568    0.0094 O   0  0  0  0  0  0  0  0  0  0  0  0
   14.8495   -1.5045   -2.3532 C   0  0  0  0  0  0  0  0  0  0  0  0
   11.0410   -1.5463   -0.1162 C   0  0  0  0  0  0  0  0  0  0  0  0
    9.9862   -2.2538    2.4474 C   0  0  0  0  0  0  0  0  0  0  0  0
    7.1209    0.7168   -1.2820 C   0  0  0  0  0  0  0  0  0  0  0  0
    6.4151    1.9021   -1.7348 C   0  0  0  0  0  0  0  0  0  0  0  0
    5.8793    2.7893   -1.0528 O   0  0  0  0  0  0  0  0  0  0  0  0
    6.3152    2.0860   -3.1734 N   0  0  0  0  0  0  0  0  0  0  0  0
    0.0306   -3.5336    1.5252 C   0  0  0  0  0  0  0  0  0  0  0  0
   -0.7351   -3.1277    2.7050 C   0  0  0  0  0  0  0  0  0  0  0  0
   -0.0419   -2.7282    3.8479 C   0  0  0  0  0  0  0  0  0  0  0  0
   -0.6822   -2.3352    5.0024 C   0  0  0  0  0  0  0  0  0  0  0  0
   -2.0723   -2.3253    5.0593 C   0  0  0  0  0  0  0  0  0  0  0  0
   -2.7857   -2.7169    3.9386 C   0  0  0  0  0  0  0  0  0  0  0  0
   -2.1063   -3.1054    2.7999 C   0  0  0  0  0  0  0  0  0  0  0  0
   -5.1175    0.7685   -4.0694 C   0  0  0  0  0  0  0  0  0  0  0  0
   -3.8739    0.3373   -4.7379 C   0  0  0  0  0  0  0  0  0  0  0  0
   -4.0939    0.6373   -6.2429 C   0  0  0  0  0  0  0  0  0  0  0  0
   -3.4973   -1.1016   -4.6560 C   0  0  0  0  0  0  0  0  0  0  0  0
  -10.1329   -5.3327   -1.8285 N   0  0  0  0  0  0  0  0  0  0  0  0
   -8.0445   -5.3895   -2.7338 H   0  0  0  0  0  0  0  0  0  0  0  0
   -7.0069   -4.0325   -3.2329 H   0  0  0  0  0  0  0  0  0  0  0  0
   -8.1684   -4.7584   -4.4251 H   0  0  0  0  0  0  0  0  0  0  0  0
  -11.8779   -3.4357   -1.3564 H   0  0  0  0  0  0  0  0  0  0  0  0
  -10.7072   -1.4544   -3.2386 H   0  0  0  0  0  0  0  0  0  0  0  0
  -11.8698   -1.1508   -1.9011 H   0  0  0  0  0  0  0  0  0  0  0  0
  -10.0921   -1.1486   -0.2803 H   0  0  0  0  0  0  0  0  0  0  0  0
   -8.8480   -1.5457   -1.5292 H   0  0  0  0  0  0  0  0  0  0  0  0
   -9.3530    0.5408   -2.6889 H   0  0  0  0  0  0  0  0  0  0  0  0
  -10.5933    1.0021   -1.5157 H   0  0  0  0  0  0  0  0  0  0  0  0
   -8.4372    2.0867   -1.0749 H   0  0  0  0  0  0  0  0  0  0  0  0
  -10.5948    1.9451    0.6629 H   0  0  0  0  0  0  0  0  0  0  0  0
   -9.3450    0.6147    3.0880 H   0  0  0  0  0  0  0  0  0  0  0  0
  -12.8785   -0.5352    1.6063 H   0  0  0  0  0  0  0  0  0  0  0  0
  -12.4719    1.0571    0.9457 H   0  0  0  0  0  0  0  0  0  0  0  0
  -10.2872    2.5352    4.3408 H   0  0  0  0  0  0  0  0  0  0  0  0
   -9.0999    3.0658    3.1103 H   0  0  0  0  0  0  0  0  0  0  0  0
   -9.8649    4.5177    1.0503 H   0  0  0  0  0  0  0  0  0  0  0  0
  -11.9816    5.8081    0.4458 H   0  0  0  0  0  0  0  0  0  0  0  0
  -12.9467    2.6040    4.5125 H   0  0  0  0  0  0  0  0  0  0  0  0
  -15.2871    3.3364    4.6428 H   0  0  0  0  0  0  0  0  0  0  0  0
  -16.1376    5.0295    3.0641 H   0  0  0  0  0  0  0  0  0  0  0  0
  -14.6493    5.9193    1.4159 H   0  0  0  0  0  0  0  0  0  0  0  0
   -7.0466   -0.6325   -1.0006 H   0  0  0  0  0  0  0  0  0  0  0  0
   -4.3473    1.3655   -2.2133 H   0  0  0  0  0  0  0  0  0  0  0  0
   -5.4334   -1.4920   -2.2872 H   0  0  0  0  0  0  0  0  0  0  0  0
   -3.7448   -2.9672   -1.3272 H   0  0  0  0  0  0  0  0  0  0  0  0
   -1.7023   -3.6169   -0.4807 H   0  0  0  0  0  0  0  0  0  0  0  0
    0.8629   -2.8980   -0.3253 H   0  0  0  0  0  0  0  0  0  0  0  0
    1.0461   -1.1267    2.0820 H   0  0  0  0  0  0  0  0  0  0  0  0
    3.7188   -0.6090    2.1162 H   0  0  0  0  0  0  0  0  0  0  0  0
    3.4183    1.7018    2.2909 H   0  0  0  0  0  0  0  0  0  0  0  0
    0.7053    1.4091    1.9801 H   0  0  0  0  0  0  0  0  0  0  0  0
    3.2229    2.8444    0.3797 H   0  0  0  0  0  0  0  0  0  0  0  0
    2.3714    1.5762   -0.5002 H   0  0  0  0  0  0  0  0  0  0  0  0
    1.4681    2.6969    0.6037 H   0  0  0  0  0  0  0  0  0  0  0  0
    4.3437    0.8277   -0.4310 H   0  0  0  0  0  0  0  0  0  0  0  0
    7.3258    1.3701    0.6786 H   0  0  0  0  0  0  0  0  0  0  0  0
    8.4912   -1.2257   -0.0715 H   0  0  0  0  0  0  0  0  0  0  0  0
   10.6294   -0.2144    3.0014 H   0  0  0  0  0  0  0  0  0  0  0  0
   13.2929    1.7672    0.4126 H   0  0  0  0  0  0  0  0  0  0  0  0
   14.3774    1.3977    2.3444 H   0  0  0  0  0  0  0  0  0  0  0  0
   14.8954   -0.3051    1.9102 H   0  0  0  0  0  0  0  0  0  0  0  0
   15.1094    3.2833    1.1433 H   0  0  0  0  0  0  0  0  0  0  0  0
   17.0109    4.4132    0.1329 H   0  0  0  0  0  0  0  0  0  0  0  0
   18.8646    0.7116   -0.6078 H   0  0  0  0  0  0  0  0  0  0  0  0
   17.0180   -0.4573    0.3998 H   0  0  0  0  0  0  0  0  0  0  0  0
   19.2194    4.2742   -0.7742 H   0  0  0  0  0  0  0  0  0  0  0  0
   13.5302    0.6343   -1.5600 H   0  0  0  0  0  0  0  0  0  0  0  0
   15.8069   -2.0279   -2.4401 H   0  0  0  0  0  0  0  0  0  0  0  0
   13.9950   -2.0493   -2.7732 H   0  0  0  0  0  0  0  0  0  0  0  0
   14.9563   -0.5641   -2.9671 H   0  0  0  0  0  0  0  0  0  0  0  0
   10.3710   -2.4334    0.1394 H   0  0  0  0  0  0  0  0  0  0  0  0
   12.0267   -1.9725   -0.4572 H   0  0  0  0  0  0  0  0  0  0  0  0
   10.6156   -1.0747   -0.9950 H   0  0  0  0  0  0  0  0  0  0  0  0
    9.7755   -2.3788    3.5370 H   0  0  0  0  0  0  0  0  0  0  0  0
   10.8192   -2.9106    2.1182 H   0  0  0  0  0  0  0  0  0  0  0  0
    9.0883   -2.5825    1.8577 H   0  0  0  0  0  0  0  0  0  0  0  0
    8.2169    0.8725   -1.5559 H   0  0  0  0  0  0  0  0  0  0  0  0
    6.8315   -0.1844   -1.9142 H   0  0  0  0  0  0  0  0  0  0  0  0
    5.9954    1.2967   -3.7909 H   0  0  0  0  0  0  0  0  0  0  0  0
    6.5599    3.0043   -3.6062 H   0  0  0  0  0  0  0  0  0  0  0  0
   -0.4348   -4.3485    0.9393 H   0  0  0  0  0  0  0  0  0  0  0  0
    1.0027   -3.9490    1.8771 H   0  0  0  0  0  0  0  0  0  0  0  0
    1.0513   -2.7106    3.8716 H   0  0  0  0  0  0  0  0  0  0  0  0
   -0.0968   -2.0310    5.8702 H   0  0  0  0  0  0  0  0  0  0  0  0
   -2.6208   -2.0244    5.9432 H   0  0  0  0  0  0  0  0  0  0  0  0
   -3.8719   -2.7021    4.0063 H   0  0  0  0  0  0  0  0  0  0  0  0
   -2.7049   -3.4045    1.9529 H   0  0  0  0  0  0  0  0  0  0  0  0
   -5.3333    1.8571   -4.2909 H   0  0  0  0  0  0  0  0  0  0  0  0
   -5.9944    0.1686   -4.4666 H   0  0  0  0  0  0  0  0  0  0  0  0
   -3.0052    0.9510   -4.4558 H   0  0  0  0  0  0  0  0  0  0  0  0
   -3.3282    0.0672   -6.7828 H   0  0  0  0  0  0  0  0  0  0  0  0
   -4.0702    1.7141   -6.4169 H   0  0  0  0  0  0  0  0  0  0  0  0
   -5.0836    0.2067   -6.5080 H   0  0  0  0  0  0  0  0  0  0  0  0
   -2.5085   -1.2781   -4.1689 H   0  0  0  0  0  0  0  0  0  0  0  0
   -4.2769   -1.7337   -4.2411 H   0  0  0  0  0  0  0  0  0  0  0  0
   -3.3335   -1.5224   -5.7027 H   0  0  0  0  0  0  0  0  0  0  0  0
  -10.4173   -5.5418   -0.8452 H   0  0  0  0  0  0  0  0  0  0  0  0
   -9.9280   -6.1287   -2.4809 H   0  0  0  0  0  0  0  0  0  0  0  0
  1  2  1  0
  2  3  2  3
  3  4  1  0
  4  5  1  0
  5  6  1  0
  6  7  1  0
  7  8  1  0
  8  9  1  0
  9 10  2  0
  9 11  1  0
 11 12  1  0
 12 13  1  0
 13 14  2  0
 13 15  1  0
 12 16  1  0
 16 17  1  0
 17 18  2  0
 18 19  1  0
 19 20  1  0
 20 21  2  0
 21 22  1  0
 22 23  2  0
 23 24  1  0
 24 25  2  0
  8 26  1  0
 26 27  1  0
 27 28  2  0
 27 29  1  0
 29 30  1  0
 30 31  1  0
 31 32  2  0
 31 33  1  0
 33 34  1  0
 34 35  1  0
 35 36  2  0
 35 37  1  0
 37 38  1  0
 38 39  1  0
 39 40  2  0
 39 41  1  0
 41 42  1  0
 42 43  1  0
 42 44  1  0
 41 45  1  0
 45 46  1  0
 46 47  2  0
 46 48  1  0
 48 49  1  0
 49 50  1  0
 50 51  2  0
 50 52  1  0
 52 53  1  0
 53 54  1  0
 54 55  2  0
 54 56  1  0
 56 57  1  0
 57 58  1  0
 58 59  2  0
 59 60  1  0
 60 61  2  0
 61 62  1  0
 62 63  2  0
 61 64  1  0
 56 65  1  0
 65 66  1  0
 66 67  2  0
 66 68  1  0
 53 69  1  0
 52 70  1  0
 48 71  1  0
 71 72  1  0
 72 73  2  0
 72 74  1  0
 37 75  1  0
 75 76  1  0
 76 77  2  0
 77 78  1  0
 78 79  2  0
 79 80  1  0
 80 81  2  0
 29 82  1  0
 82 83  1  0
 83 84  1  0
 83 85  1  0
  3 86  1  0
 21 17  1  0
 63 58  1  0
 81 76  1  0
 25 20  1  0
  1 87  1  0
  1 88  1  0
  1 89  1  0
  4 90  1  0
  5 91  1  0
  5 92  1  0
  6 93  1  0
  6 94  1  0
  7 95  1  0
  7 96  1  0
  8 97  1  1
 11 98  1  0
 12 99  1  1
 15100  1  0
 15101  1  0
 16102  1  0
 16103  1  0
 18104  1  0
 19105  1  0
 22106  1  0
 23107  1  0
 24108  1  0
 25109  1  0
 26110  1  0
 29111  1  1
 30112  1  0
 33113  1  0
 34114  1  0
 37115  1  6
 38116  1  0
 41117  1  1
 42118  1  1
 43119  1  0
 44120  1  0
 44121  1  0
 44122  1  0
 45123  1  0
 48124  1  1
 49125  1  0
 52126  1  1
 56127  1  6
 57128  1  0
 57129  1  0
 59130  1  0
 60131  1  0
 62132  1  0
 63133  1  0
 64134  1  0
 65135  1  0
 68136  1  0
 68137  1  0
 68138  1  0
 69139  1  0
 69140  1  0
 69141  1  0
 70142  1  0
 70143  1  0
 70144  1  0
 71145  1  0
 71146  1  0
 74147  1  0
 74148  1  0
 75149  1  0
 75150  1  0
 77151  1  0
 78152  1  0
 79153  1  0
 80154  1  0
 81155  1  0
 82156  1  0
 82157  1  0
 83158  1  0
 84159  1  0
 84160  1  0
 84161  1  0
 85162  1  0
 85163  1  0
 85164  1  0
 86165  1  0
 86166  1  0
M  END
>  <Ligand ID>  (1) 
LIG0005338

>  <Ligand>  (1) 
CHEMBL3977235

>  <SMILES>  (1) 
CN=C(NCCC[C@@H](C(=O)N[C@H](C(=O)N)Cc1c[nH]c2c1cccc2)NC(=O)[C@@H](NC(=O)NNC(=O)[C@@H](NC(=O)[C@H]([C@H](O)C)NC(=O)[C@@H](NC(=O)[C@H](N(C(=O)[C@@H](Cc1ccc(cc1)O)NC(=O)C)C)C)CC(=O)N)Cc1ccccc1)CC(C)C)N

>  <CID>  (1) 
24994272.0

>  <ChEMBL ID>  (1) 
nan

>  <InChiKey>  (1) 
UYHIQFZILAXCNN-BJCXCFIDSA-N

>  <InChi>  (1) 
InChI=1S/C57H80N16O13/c1-30(2)24-42(51(81)65-40(18-13-23-62-56(60)61-6)50(80)66-41(48(59)78)27-36-29-63-39-17-12-11-16-38(36)39)69-57(86)72-71-53(83)43(25-34-14-9-8-10-15-34)68-54(84)47(32(4)74)70-52(82)44(28-46(58)77)67-49(79)31(3)73(7)55(85)45(64-33(5)75)26-35-19-21-37(76)22-20-35/h8-12,14-17,19-22,29-32,40-45,47,63,74,76H,13,18,23-28H2,1-7H3,(H2,58,77)(H2,59,78)(H,64,75)(H,65,81)(H,66,80)(H,67,79)(H,68,84)(H,70,82)(H,71,83)(H3,60,61,62)(H2,69,72,86)/t31-,32-,40+,41+,42+,43+,44+,45-,47+/m1/s1

>  <IUPAC Name>  (1) 
(2S)-2-[[(2R)-2-[[(2R)-2-acetamido-3-(4-hydroxyphenyl)propanoyl]-methylamino]propanoyl]amino]-N-[(2S,3R)-1-[[(2S)-1-[2-[[(2S)-1-[[(2S)-1-[[(2S)-1-amino-3-(1H-indol-3-yl)-1-oxopropan-2-yl]amino]-5-[(N'-methylcarbamimidoyl)amino]-1-oxopentan-2-yl]amino]-4-methyl-1-oxopentan-2-yl]carbamoyl]hydrazinyl]-1-oxo-3-phenylpropan-2-yl]amino]-3-hydroxy-1-oxobutan-2-yl]butanediamide

$$$$
