
     RDKit          3D

102106  0  0  0  0  0  0  0  0999 V2000
    5.1171   -0.9079   -4.0849 C   0  0  0  0  0  0  0  0  0  0  0  0
    4.2103   -0.3858   -3.0610 N   0  0  0  0  0  0  0  0  0  0  0  0
    4.5523    0.7784   -2.3563 C   0  0  0  0  0  0  0  0  0  0  0  0
    5.6755    1.3143   -2.6788 O   0  0  0  0  0  0  0  0  0  0  0  0
    3.7922    1.4537   -1.3056 C   0  0  1  0  0  0  0  0  0  0  0  0
    2.4820    0.9617   -1.0928 N   0  0  0  0  0  0  0  0  0  0  0  0
    2.0764   -0.3526   -0.6681 C   0  0  0  0  0  0  0  0  0  0  0  0
    0.9885   -0.2549    0.4168 C   0  0  0  0  0  0  0  0  0  0  0  0
   -0.1533    0.4803   -0.1472 N   0  0  0  0  0  0  0  0  0  0  0  0
    0.0738    1.7868   -0.6623 C   0  0  2  0  0  0  0  0  0  0  0  0
    1.3859    1.8756   -1.3575 C   0  0  0  0  0  0  0  0  0  0  0  0
    1.5197    2.8055   -2.2156 O   0  0  0  0  0  0  0  0  0  0  0  0
   -0.1528    2.9294    0.2626 C   0  0  0  0  0  0  0  0  0  0  0  0
    0.6679    2.9749    1.4980 C   0  0  0  0  0  0  0  0  0  0  0  0
    0.2490    4.2461    2.2554 C   0  0  0  0  0  0  0  0  0  0  0  0
    0.4712    5.4407    1.5086 N   0  0  0  0  0  0  0  0  0  0  0  0
   -0.3764    6.1105    0.8447 C   0  0  0  0  0  0  0  0  0  0  0  0
    0.0906    7.2897    0.1705 N   0  0  0  0  0  0  0  0  0  0  0  0
   -1.7510    5.8058    0.7025 N   0  0  0  0  0  0  0  0  0  0  0  0
   -1.4578   -0.1004   -0.1980 C   0  0  0  0  0  0  0  0  0  0  0  0
   -2.4110    0.5736   -0.7211 O   0  0  0  0  0  0  0  0  0  0  0  0
   -1.7946   -1.4330    0.3080 C   0  0  2  0  0  0  0  0  0  0  0  0
   -3.1621   -1.8172   -0.1015 N   0  0  0  0  0  0  0  0  0  0  0  0
   -3.2440   -3.0928   -0.7687 C   0  0  0  0  0  0  0  0  0  0  0  0
   -2.2162   -3.7974   -0.9726 O   0  0  0  0  0  0  0  0  0  0  0  0
   -4.5351   -3.6327   -1.2435 C   0  0  2  0  0  0  0  0  0  0  0  0
   -4.4889   -3.9711   -2.7247 C   0  0  0  0  0  0  0  0  0  0  0  0
   -4.1828   -2.7726   -3.5436 C   0  0  0  0  0  0  0  0  0  0  0  0
   -5.0968   -1.9110   -4.0681 N   0  0  0  0  0  0  0  0  0  0  0  0
   -4.4264   -0.9605   -4.7383 C   0  0  0  0  0  0  0  0  0  0  0  0
   -3.1001   -1.1682   -4.6723 N   0  0  0  0  0  0  0  0  0  0  0  0
   -2.9432   -2.3022   -3.9248 C   0  0  0  0  0  0  0  0  0  0  0  0
   -5.6256   -2.7483   -0.9343 N   0  0  0  0  0  0  0  0  0  0  0  0
   -6.6926   -3.1194   -0.1008 C   0  0  0  0  0  0  0  0  0  0  0  0
   -6.6687   -4.2876    0.3861 O   0  0  0  0  0  0  0  0  0  0  0  0
   -7.8082   -2.2097    0.2136 C   0  0  0  0  0  0  0  0  0  0  0  0
   -1.8643   -1.3511    1.8464 C   0  0  0  0  0  0  0  0  0  0  0  0
   -2.8982   -0.4095    2.2814 C   0  0  0  0  0  0  0  0  0  0  0  0
   -4.1820   -0.9029    2.4896 C   0  0  0  0  0  0  0  0  0  0  0  0
   -5.2327   -0.1221    2.8941 C   0  0  0  0  0  0  0  0  0  0  0  0
   -4.9927    1.2230    3.1031 C   0  0  0  0  0  0  0  0  0  0  0  0
   -3.7408    1.7695    2.9131 C   0  0  0  0  0  0  0  0  0  0  0  0
   -2.7191    0.9347    2.5046 C   0  0  0  0  0  0  0  0  0  0  0  0
   -5.9981    2.0448    3.5063 F   0  0  0  0  0  0  0  0  0  0  0  0
    4.6045    1.6973   -0.0577 C   0  0  0  0  0  0  0  0  0  0  0  0
    5.1447    0.5207    0.6284 C   0  0  0  0  0  0  0  0  0  0  0  0
    4.4844   -0.0281    1.7353 C   0  0  0  0  0  0  0  0  0  0  0  0
    4.9520   -1.1369    2.3990 C   0  0  0  0  0  0  0  0  0  0  0  0
    6.1089   -1.7768    2.0090 C   0  0  0  0  0  0  0  0  0  0  0  0
    6.7760   -1.2583    0.9270 C   0  0  0  0  0  0  0  0  0  0  0  0
    6.3017   -0.1375    0.2571 C   0  0  0  0  0  0  0  0  0  0  0  0
    7.9323   -1.8923    0.5276 C   0  0  0  0  0  0  0  0  0  0  0  0
    8.4279   -3.0029    1.1642 C   0  0  0  0  0  0  0  0  0  0  0  0
    7.7508   -3.5148    2.2484 C   0  0  0  0  0  0  0  0  0  0  0  0
    6.6008   -2.8900    2.6512 C   0  0  0  0  0  0  0  0  0  0  0  0
    5.5420   -1.8563   -3.6792 H   0  0  0  0  0  0  0  0  0  0  0  0
    4.5405   -1.1845   -4.9959 H   0  0  0  0  0  0  0  0  0  0  0  0
    5.8819   -0.1561   -4.3317 H   0  0  0  0  0  0  0  0  0  0  0  0
    3.3461   -0.8875   -2.8859 H   0  0  0  0  0  0  0  0  0  0  0  0
    3.6668    2.5379   -1.7113 H   0  0  0  0  0  0  0  0  0  0  0  0
    2.8512   -1.0090   -0.3051 H   0  0  0  0  0  0  0  0  0  0  0  0
    1.5135   -0.8318   -1.5344 H   0  0  0  0  0  0  0  0  0  0  0  0
    0.7132   -1.3130    0.6063 H   0  0  0  0  0  0  0  0  0  0  0  0
    1.4073    0.1801    1.3073 H   0  0  0  0  0  0  0  0  0  0  0  0
   -0.6818    1.9184   -1.4977 H   0  0  0  0  0  0  0  0  0  0  0  0
   -1.2260    2.9926    0.5330 H   0  0  0  0  0  0  0  0  0  0  0  0
    0.0939    3.8635   -0.3202 H   0  0  0  0  0  0  0  0  0  0  0  0
    0.4886    2.1562    2.2121 H   0  0  0  0  0  0  0  0  0  0  0  0
    1.7527    3.0911    1.2935 H   0  0  0  0  0  0  0  0  0  0  0  0
   -0.8505    4.1587    2.4713 H   0  0  0  0  0  0  0  0  0  0  0  0
    0.7268    4.3122    3.2435 H   0  0  0  0  0  0  0  0  0  0  0  0
   -0.5371    8.0826   -0.0697 H   0  0  0  0  0  0  0  0  0  0  0  0
    1.0951    7.4059   -0.1132 H   0  0  0  0  0  0  0  0  0  0  0  0
   -2.4302    6.0496    1.4623 H   0  0  0  0  0  0  0  0  0  0  0  0
   -2.0435    5.3295   -0.1944 H   0  0  0  0  0  0  0  0  0  0  0  0
   -1.0497   -2.1807    0.0634 H   0  0  0  0  0  0  0  0  0  0  0  0
   -3.9826   -1.2356    0.0680 H   0  0  0  0  0  0  0  0  0  0  0  0
   -4.7225   -4.5918   -0.7092 H   0  0  0  0  0  0  0  0  0  0  0  0
   -5.4397   -4.4378   -3.0515 H   0  0  0  0  0  0  0  0  0  0  0  0
   -3.6920   -4.7203   -2.9004 H   0  0  0  0  0  0  0  0  0  0  0  0
   -6.1344   -2.0159   -3.9417 H   0  0  0  0  0  0  0  0  0  0  0  0
   -4.9021   -0.1510   -5.2527 H   0  0  0  0  0  0  0  0  0  0  0  0
   -2.0089   -2.7660   -3.6665 H   0  0  0  0  0  0  0  0  0  0  0  0
   -5.6306   -1.7779   -1.3484 H   0  0  0  0  0  0  0  0  0  0  0  0
   -7.4148   -1.2290    0.5382 H   0  0  0  0  0  0  0  0  0  0  0  0
   -8.4465   -2.5709    1.0348 H   0  0  0  0  0  0  0  0  0  0  0  0
   -8.4017   -2.0005   -0.7249 H   0  0  0  0  0  0  0  0  0  0  0  0
   -2.0946   -2.3518    2.2628 H   0  0  0  0  0  0  0  0  0  0  0  0
   -0.9063   -1.0410    2.2829 H   0  0  0  0  0  0  0  0  0  0  0  0
   -4.3663   -1.9631    2.3236 H   0  0  0  0  0  0  0  0  0  0  0  0
   -6.2357   -0.4661    3.0656 H   0  0  0  0  0  0  0  0  0  0  0  0
   -3.5572    2.8222    3.0774 H   0  0  0  0  0  0  0  0  0  0  0  0
   -1.7358    1.3501    2.3527 H   0  0  0  0  0  0  0  0  0  0  0  0
    4.0301    2.3666    0.6423 H   0  0  0  0  0  0  0  0  0  0  0  0
    5.5043    2.3328   -0.3214 H   0  0  0  0  0  0  0  0  0  0  0  0
    3.5783    0.4180    2.1145 H   0  0  0  0  0  0  0  0  0  0  0  0
    4.4307   -1.5445    3.2472 H   0  0  0  0  0  0  0  0  0  0  0  0
    6.9000    0.1957   -0.5747 H   0  0  0  0  0  0  0  0  0  0  0  0
    8.4800   -1.5156   -0.3145 H   0  0  0  0  0  0  0  0  0  0  0  0
    9.3350   -3.4961    0.8468 H   0  0  0  0  0  0  0  0  0  0  0  0
    8.0671   -4.3827    2.8079 H   0  0  0  0  0  0  0  0  0  0  0  0
    6.0250   -3.2555    3.5046 H   0  0  0  0  0  0  0  0  0  0  0  0
  1  2  1  0
  2  3  1  0
  3  4  2  0
  3  5  1  0
  5  6  1  0
  6  7  1  0
  7  8  1  0
  8  9  1  0
  9 10  1  0
 10 11  1  0
 11 12  2  0
 10 13  1  0
 13 14  1  0
 14 15  1  0
 15 16  1  0
 16 17  2  3
 17 18  1  0
 17 19  1  0
  9 20  1  0
 20 21  2  0
 20 22  1  0
 22 23  1  0
 23 24  1  0
 24 25  2  0
 24 26  1  0
 26 27  1  0
 27 28  1  0
 28 29  1  0
 29 30  1  0
 30 31  2  0
 31 32  1  0
 26 33  1  0
 33 34  1  0
 34 35  2  0
 34 36  1  0
 22 37  1  0
 37 38  1  0
 38 39  2  0
 39 40  1  0
 40 41  2  0
 41 42  1  0
 42 43  2  0
 41 44  1  0
  5 45  1  0
 45 46  1  0
 46 47  2  0
 47 48  1  0
 48 49  2  0
 49 50  1  0
 50 51  2  0
 50 52  1  0
 52 53  2  0
 53 54  1  0
 54 55  2  0
 11  6  1  0
 32 28  2  0
 43 38  1  0
 51 46  1  0
 55 49  1  0
  1 56  1  0
  1 57  1  0
  1 58  1  0
  2 59  1  0
  5 60  1  6
  7 61  1  0
  7 62  1  0
  8 63  1  0
  8 64  1  0
 10 65  1  6
 13 66  1  0
 13 67  1  0
 14 68  1  0
 14 69  1  0
 15 70  1  0
 15 71  1  0
 18 72  1  0
 18 73  1  0
 19 74  1  0
 19 75  1  0
 22 76  1  1
 23 77  1  0
 26 78  1  1
 27 79  1  0
 27 80  1  0
 29 81  1  0
 30 82  1  0
 32 83  1  0
 33 84  1  0
 36 85  1  0
 36 86  1  0
 36 87  1  0
 37 88  1  0
 37 89  1  0
 39 90  1  0
 40 91  1  0
 42 92  1  0
 43 93  1  0
 45 94  1  0
 45 95  1  0
 47 96  1  0
 48 97  1  0
 51 98  1  0
 52 99  1  0
 53100  1  0
 54101  1  0
 55102  1  0
M  END
>  <Ligand ID>  (1) 
LIG0003302

>  <Ligand>  (1) 
CHEMBL384774

>  <SMILES>  (1) 
CNC(=O)[C@@H](N1CCN([C@H](C1=O)CCCN=C(N)N)C(=O)[C@H](NC(=O)[C@H](Cc1[nH]cnc1)NC(=O)C)Cc1ccc(cc1)F)Cc1ccc2c(c1)cccc2

>  <CID>  (1) 
44415918.0

>  <ChEMBL ID>  (1) 
nan

>  <InChiKey>  (1) 
KOWZSZLHPBJHEB-HWFRFQLBSA-N

>  <InChi>  (1) 
InChI=1S/C39H47FN10O5/c1-24(51)47-31(21-30-22-44-23-46-30)35(52)48-32(19-25-10-13-29(40)14-11-25)37(54)49-16-17-50(38(55)33(49)8-5-15-45-39(41)42)34(36(53)43-2)20-26-9-12-27-6-3-4-7-28(27)18-26/h3-4,6-7,9-14,18,22-23,31-34H,5,8,15-17,19-21H2,1-2H3,(H,43,53)(H,44,46)(H,47,51)(H,48,52)(H4,41,42,45)/t31-,32+,33-,34-/m0/s1

>  <IUPAC Name>  (1) 
(2S)-2-[(3S)-4-[(2R)-2-[[(2S)-2-acetamido-3-(1H-imidazol-5-yl)propanoyl]amino]-3-(4-fluorophenyl)propanoyl]-3-[3-(diaminomethylideneamino)propyl]-2-oxopiperazin-1-yl]-N-methyl-3-naphthalen-2-ylpropanamide

$$$$
