
     RDKit          3D

 44 48  0  0  0  0  0  0  0  0999 V2000
   -5.7224   -1.7136    0.7519 C   0  0  0  0  0  0  0  0  0  0  0  0
   -5.4716   -0.3619    0.6290 C   0  0  0  0  0  0  0  0  0  0  0  0
   -4.5834    0.0567   -0.3444 C   0  0  0  0  0  0  0  0  0  0  0  0
   -3.9484   -0.8180   -1.1846 C   0  0  0  0  0  0  0  0  0  0  0  0
   -4.2330   -2.1619   -1.0219 C   0  0  0  0  0  0  0  0  0  0  0  0
   -5.1062   -2.6141   -0.0701 C   0  0  0  0  0  0  0  0  0  0  0  0
   -3.0528   -0.4840   -2.1759 O   0  0  0  0  0  0  0  0  0  0  0  0
   -2.6036    0.7758   -2.4906 C   0  0  0  0  0  0  0  0  0  0  0  0
   -1.7499    1.4135   -1.4454 C   0  0  0  0  0  0  0  0  0  0  0  0
   -0.4612    0.7217   -1.1521 C   0  0  2  0  0  0  0  0  0  0  0  0
   -1.5353    0.7896   -0.1229 C   0  0  1  0  0  0  0  0  0  0  0  0
   -0.9596    1.6674    0.9875 C   0  0  0  0  0  0  0  0  0  0  0  0
    0.4765    1.5075    0.7851 N   0  0  0  0  0  0  0  0  0  0  0  0
    0.6660    1.5706   -0.6510 C   0  0  0  0  0  0  0  0  0  0  0  0
    0.9280    0.2131    1.2455 C   0  0  0  0  0  0  0  0  0  0  0  0
    2.3222    0.0114    1.0845 C   0  0  0  0  0  0  0  0  0  0  0  0
    3.4228    0.2346    1.7350 N   0  0  0  0  0  0  0  0  0  0  0  0
    4.6127   -0.0737    1.3602 C   0  0  0  0  0  0  0  0  0  0  0  0
    4.7686   -0.7168    0.1287 C   0  0  0  0  0  0  0  0  0  0  0  0
    3.0351   -0.8551   -0.4776 S   0  0  0  0  0  0  0  0  0  0  0  0
    5.9356   -1.1166   -0.4300 C   0  0  0  0  0  0  0  0  0  0  0  0
    7.1115   -0.8859    0.2497 C   0  0  0  0  0  0  0  0  0  0  0  0
    7.0072   -0.2546    1.4680 C   0  0  0  0  0  0  0  0  0  0  0  0
    5.8298    0.1508    2.0358 C   0  0  0  0  0  0  0  0  0  0  0  0
   -6.4137   -2.0717    1.5054 H   0  0  0  0  0  0  0  0  0  0  0  0
   -5.9354    0.3907    1.2568 H   0  0  0  0  0  0  0  0  0  0  0  0
   -4.3817    1.1096   -0.4518 H   0  0  0  0  0  0  0  0  0  0  0  0
   -3.7669   -2.9205   -1.6532 H   0  0  0  0  0  0  0  0  0  0  0  0
   -5.3096   -3.6709    0.0343 H   0  0  0  0  0  0  0  0  0  0  0  0
   -1.9665    0.7222   -3.4311 H   0  0  0  0  0  0  0  0  0  0  0  0
   -3.4515    1.4636   -2.8065 H   0  0  0  0  0  0  0  0  0  0  0  0
   -1.6904    2.5445   -1.4547 H   0  0  0  0  0  0  0  0  0  0  0  0
   -0.2479   -0.2749   -1.5720 H   0  0  0  0  0  0  0  0  0  0  0  0
   -1.9494   -0.1619    0.2224 H   0  0  0  0  0  0  0  0  0  0  0  0
   -1.2125    2.7343    0.8535 H   0  0  0  0  0  0  0  0  0  0  0  0
   -1.2570    1.3202    1.9784 H   0  0  0  0  0  0  0  0  0  0  0  0
    0.5222    2.6388   -0.9469 H   0  0  0  0  0  0  0  0  0  0  0  0
    1.6734    1.2177   -0.8875 H   0  0  0  0  0  0  0  0  0  0  0  0
    0.3628   -0.5940    0.6865 H   0  0  0  0  0  0  0  0  0  0  0  0
    0.6290    0.0431    2.3080 H   0  0  0  0  0  0  0  0  0  0  0  0
    5.9172   -1.6075   -1.3966 H   0  0  0  0  0  0  0  0  0  0  0  0
    8.0414   -1.2034   -0.1934 H   0  0  0  0  0  0  0  0  0  0  0  0
    7.9161   -0.0492    2.0466 H   0  0  0  0  0  0  0  0  0  0  0  0
    5.8315    0.6459    3.0074 H   0  0  0  0  0  0  0  0  0  0  0  0
  1  2  2  0
  2  3  1  0
  3  4  2  0
  4  5  1  0
  5  6  2  0
  4  7  1  0
  7  8  1  0
  8  9  1  0
  9 10  1  0
 10 11  1  0
 11 12  1  0
 12 13  1  0
 13 14  1  0
 13 15  1  0
 15 16  1  0
 16 17  2  0
 17 18  1  0
 18 19  2  0
 19 20  1  0
 19 21  1  0
 21 22  2  0
 22 23  1  0
 23 24  2  0
  6  1  1  0
 11  9  1  0
 20 16  1  0
 14 10  1  0
 24 18  1  0
  1 25  1  0
  2 26  1  0
  3 27  1  0
  5 28  1  0
  6 29  1  0
  8 30  1  0
  8 31  1  0
  9 32  1  0
 10 33  1  6
 11 34  1  1
 12 35  1  0
 12 36  1  0
 14 37  1  0
 14 38  1  0
 15 39  1  0
 15 40  1  0
 21 41  1  0
 22 42  1  0
 23 43  1  0
 24 44  1  0
M  END
>  <Ligand ID>  (1) 
LIG0005709

>  <Ligand>  (1) 
CHEMBL515794

>  <SMILES>  (1) 
c1ccc(cc1)OCC1[C@@H]2[C@H]1CN(C2)Cc1nc2c(s1)cccc2

>  <CID>  (1) 
44578993.0

>  <ChEMBL ID>  (1) 
nan

>  <InChiKey>  (1) 
WBVLWNTYBPPISB-SJPCQFCGSA-N

>  <InChi>  (1) 
InChI=1S/C20H20N2OS/c1-2-6-14(7-3-1)23-13-17-15-10-22(11-16(15)17)12-20-21-18-8-4-5-9-19(18)24-20/h1-9,15-17H,10-13H2/t15-,16+,17?

>  <IUPAC Name>  (1) 
2-[[(1S,5R)-6-(phenoxymethyl)-3-azabicyclo[3.1.0]hexan-3-yl]methyl]-1,3-benzothiazole

$$$$
