
     RDKit          3D

 49 51  0  0  0  0  0  0  0  0999 V2000
   -9.2661    2.2057    0.5824 O   0  0  0  0  0  0  0  0  0  0  0  0
   -8.6287    0.9757    0.5927 C   0  0  0  0  0  0  0  0  0  0  0  0
   -9.2828   -0.0780    0.8803 O   0  0  0  0  0  0  0  0  0  0  0  0
   -7.1874    0.9508    0.2609 C   0  0  0  0  0  0  0  0  0  0  0  0
   -6.6358   -0.4738    0.3144 C   0  0  0  0  0  0  0  0  0  0  0  0
   -5.1712   -0.4548   -0.0275 C   0  0  0  0  0  0  0  0  0  0  0  0
   -4.2311   -0.2983    0.9740 C   0  0  0  0  0  0  0  0  0  0  0  0
   -2.8967   -0.2823    0.6523 C   0  0  0  0  0  0  0  0  0  0  0  0
   -2.5157   -0.4232   -0.6709 C   0  0  0  0  0  0  0  0  0  0  0  0
   -3.4298   -0.5805   -1.6886 C   0  0  0  0  0  0  0  0  0  0  0  0
   -4.7842   -0.5942   -1.3394 C   0  0  0  0  0  0  0  0  0  0  0  0
   -3.0183   -0.7313   -3.1074 C   0  0  0  0  0  0  0  0  0  0  0  0
   -1.0961   -0.4046   -1.0046 C   0  0  0  0  0  0  0  0  0  0  0  0
   -0.5132   -0.5260   -2.2272 N   0  0  0  0  0  0  0  0  0  0  0  0
    0.7965   -0.4568   -2.0990 O   0  0  0  0  0  0  0  0  0  0  0  0
    1.1054   -0.2941   -0.8384 C   0  0  0  0  0  0  0  0  0  0  0  0
   -0.0522   -0.2610   -0.1584 N   0  0  0  0  0  0  0  0  0  0  0  0
    2.4391   -0.1709   -0.2636 C   0  0  0  0  0  0  0  0  0  0  0  0
    3.5657   -0.2177   -1.0574 C   0  0  0  0  0  0  0  0  0  0  0  0
    4.8335   -0.1027   -0.5258 C   0  0  0  0  0  0  0  0  0  0  0  0
    5.0129    0.0637    0.8248 C   0  0  0  0  0  0  0  0  0  0  0  0
    3.8569    0.1075    1.6042 C   0  0  0  0  0  0  0  0  0  0  0  0
    2.5995   -0.0042    1.0964 C   0  0  0  0  0  0  0  0  0  0  0  0
    3.9681    0.2716    2.9622 F   0  0  0  0  0  0  0  0  0  0  0  0
    6.2068    0.1886    1.4669 O   0  0  0  0  0  0  0  0  0  0  0  0
    7.4947    0.1825    0.9577 C   0  0  0  0  0  0  0  0  0  0  0  0
    8.2613   -0.9951    1.5171 C   0  0  0  0  0  0  0  0  0  0  0  0
    8.2335    1.4848    1.1690 C   0  0  0  0  0  0  0  0  0  0  0  0
  -10.2948    2.2743    0.5425 H   0  0  0  0  0  0  0  0  0  0  0  0
   -6.5730    1.6481    0.8269 H   0  0  0  0  0  0  0  0  0  0  0  0
   -7.1007    1.2545   -0.8127 H   0  0  0  0  0  0  0  0  0  0  0  0
   -6.7115   -0.8464    1.3498 H   0  0  0  0  0  0  0  0  0  0  0  0
   -7.1264   -1.1245   -0.4163 H   0  0  0  0  0  0  0  0  0  0  0  0
   -4.5361   -0.1898    1.9976 H   0  0  0  0  0  0  0  0  0  0  0  0
   -2.1153   -0.1625    1.3982 H   0  0  0  0  0  0  0  0  0  0  0  0
   -5.5613   -0.7140   -2.0846 H   0  0  0  0  0  0  0  0  0  0  0  0
   -3.9207   -0.9103   -3.7177 H   0  0  0  0  0  0  0  0  0  0  0  0
   -2.3884   -1.6351   -3.2333 H   0  0  0  0  0  0  0  0  0  0  0  0
   -2.4533    0.1447   -3.4764 H   0  0  0  0  0  0  0  0  0  0  0  0
    3.4817   -0.3468   -2.1264 H   0  0  0  0  0  0  0  0  0  0  0  0
    5.7018   -0.1415   -1.1600 H   0  0  0  0  0  0  0  0  0  0  0  0
    1.7306    0.0383    1.7632 H   0  0  0  0  0  0  0  0  0  0  0  0
    7.4483    0.0502   -0.1434 H   0  0  0  0  0  0  0  0  0  0  0  0
    8.6627   -1.6321    0.7136 H   0  0  0  0  0  0  0  0  0  0  0  0
    9.1678   -0.6420    2.0917 H   0  0  0  0  0  0  0  0  0  0  0  0
    7.6311   -1.5815    2.2089 H   0  0  0  0  0  0  0  0  0  0  0  0
    7.8076    2.2891    0.5359 H   0  0  0  0  0  0  0  0  0  0  0  0
    9.2582    1.3142    0.7409 H   0  0  0  0  0  0  0  0  0  0  0  0
    8.2271    1.8314    2.2014 H   0  0  0  0  0  0  0  0  0  0  0  0
  1  2  1  0
  2  3  2  0
  2  4  1  0
  4  5  1  0
  5  6  1  0
  6  7  2  0
  7  8  1  0
  8  9  2  0
  9 10  1  0
 10 11  2  0
 10 12  1  0
  9 13  1  0
 13 14  2  0
 14 15  1  0
 15 16  1  0
 16 17  2  0
 16 18  1  0
 18 19  2  0
 19 20  1  0
 20 21  2  0
 21 22  1  0
 22 23  2  0
 22 24  1  0
 21 25  1  0
 25 26  1  0
 26 27  1  0
 26 28  1  0
 11  6  1  0
 17 13  1  0
 23 18  1  0
  1 29  1  0
  4 30  1  0
  4 31  1  0
  5 32  1  0
  5 33  1  0
  7 34  1  0
  8 35  1  0
 11 36  1  0
 12 37  1  0
 12 38  1  0
 12 39  1  0
 19 40  1  0
 20 41  1  0
 23 42  1  0
 26 43  1  0
 27 44  1  0
 27 45  1  0
 27 46  1  0
 28 47  1  0
 28 48  1  0
 28 49  1  0
M  END
>  <Ligand ID>  (1) 
LIG0001684

>  <Ligand>  (1) 
CHEMBL380253

>  <SMILES>  (1) 
OC(=O)CCc1ccc(c(c1)C)c1noc(n1)c1ccc(c(c1)F)OC(C)C

>  <CID>  (1) 
11501873.0

>  <ChEMBL ID>  (1) 
nan

>  <InChiKey>  (1) 
RGRPJHZDSBBQRH-UHFFFAOYSA-N

>  <InChi>  (1) 
InChI=1S/C21H21FN2O4/c1-12(2)27-18-8-6-15(11-17(18)22)21-23-20(24-28-21)16-7-4-14(10-13(16)3)5-9-19(25)26/h4,6-8,10-12H,5,9H2,1-3H3,(H,25,26)

>  <IUPAC Name>  (1) 
3-[4-[5-(3-fluoro-4-propan-2-yloxyphenyl)-1,2,4-oxadiazol-3-yl]-3-methylphenyl]propanoic acid

$$$$
