
     RDKit          3D

141143  0  0  0  0  0  0  0  0999 V2000
   -7.7381    4.8214   -0.0985 C   0  0  0  0  0  0  0  0  0  0  0  0
   -8.8752    4.2035    1.1603 S   0  0  0  0  0  0  0  0  0  0  0  0
   -9.9870    2.9937    0.4637 C   0  0  0  0  0  0  0  0  0  0  0  0
   -9.3263    1.7121    0.0098 C   0  0  0  0  0  0  0  0  0  0  0  0
   -8.5963    1.0057    1.1467 C   0  0  1  0  0  0  0  0  0  0  0  0
   -9.4615    0.6423    2.2626 C   0  0  0  0  0  0  0  0  0  0  0  0
  -10.0287    1.6015    2.8884 O   0  0  0  0  0  0  0  0  0  0  0  0
   -9.7383   -0.6550    2.7272 N   0  0  0  0  0  0  0  0  0  0  0  0
   -8.0044   -0.1871    0.5124 N   0  0  0  0  0  0  0  0  0  0  0  0
   -6.6501   -0.2631    0.2118 C   0  0  0  0  0  0  0  0  0  0  0  0
   -5.9466    0.7754    0.5033 O   0  0  0  0  0  0  0  0  0  0  0  0
   -5.9039   -1.3702   -0.4016 C   0  0  1  0  0  0  0  0  0  0  0  0
   -4.5479   -0.8391   -0.7733 N   0  0  0  0  0  0  0  0  0  0  0  0
   -3.9750   -1.1420   -2.0351 C   0  0  0  0  0  0  0  0  0  0  0  0
   -4.5916   -1.8757   -2.8021 O   0  0  0  0  0  0  0  0  0  0  0  0
   -2.6662   -0.6077   -2.4995 C   0  0  0  0  0  0  0  0  0  0  0  0
   -2.0095    0.1873   -1.5306 N   0  0  0  0  0  0  0  0  0  0  0  0
   -2.5553    1.5879   -1.4713 C   0  0  0  0  0  0  0  0  0  0  0  0
   -2.0204    2.4592   -2.5410 C   0  0  0  0  0  0  0  0  0  0  0  0
   -0.5348    2.7251   -2.5666 C   0  0  0  0  0  0  0  0  0  0  0  0
   -0.2875    3.4914   -3.8308 C   0  0  0  0  0  0  0  0  0  0  0  0
    1.1368    3.7329   -4.1402 C   0  0  0  0  0  0  0  0  0  0  0  0
    1.9662    4.5919   -3.2873 C   0  0  0  0  0  0  0  0  0  0  0  0
    2.1722    4.2154   -1.9209 N   0  0  0  0  0  0  0  0  0  0  0  0
    3.0382    5.0705   -1.0984 C   0  0  0  0  0  0  0  0  0  0  0  0
    3.5203    6.0215   -1.6968 O   0  0  0  0  0  0  0  0  0  0  0  0
    3.2298    4.6966    0.3158 C   0  0  0  0  0  0  0  0  0  0  0  0
    4.4565    5.1720    0.9751 C   0  0  0  0  0  0  0  0  0  0  0  0
    5.7035    4.7421    0.2454 C   0  0  0  0  0  0  0  0  0  0  0  0
    5.7038    3.3575   -0.2077 C   0  0  0  0  0  0  0  0  0  0  0  0
    4.6635    2.8409   -0.6405 O   0  0  0  0  0  0  0  0  0  0  0  0
    6.8392    2.4602   -0.2070 N   0  0  0  0  0  0  0  0  0  0  0  0
    6.5340    1.1326   -0.7322 C   0  0  2  0  0  0  0  0  0  0  0  0
    5.3967    0.5877    0.1484 C   0  0  0  0  0  0  0  0  0  0  0  0
    5.0738    1.1619    1.1927 O   0  0  0  0  0  0  0  0  0  0  0  0
    4.6674   -0.5829   -0.1831 N   0  0  0  0  0  0  0  0  0  0  0  0
    3.5112   -0.9210    0.6746 C   0  0  1  0  0  0  0  0  0  0  0  0
    2.3376   -1.1218   -0.1841 C   0  0  0  0  0  0  0  0  0  0  0  0
    2.4710   -1.1295   -1.4038 O   0  0  0  0  0  0  0  0  0  0  0  0
    0.9972   -1.3128    0.2880 N   0  0  0  0  0  0  0  0  0  0  0  0
   -0.1558   -1.4291   -0.6328 C   0  0  2  0  0  0  0  0  0  0  0  0
   -0.9438   -0.2222   -0.7075 C   0  0  0  0  0  0  0  0  0  0  0  0
   -0.6758    0.7068    0.1006 O   0  0  0  0  0  0  0  0  0  0  0  0
   -0.7920   -2.7657   -0.5437 C   0  0  0  0  0  0  0  0  0  0  0  0
   -1.2474   -3.2289    0.7656 C   0  0  0  0  0  0  0  0  0  0  0  0
   -0.5129   -4.2319    1.4172 C   0  0  0  0  0  0  0  0  0  0  0  0
   -0.8280   -4.7230    2.6496 C   0  0  0  0  0  0  0  0  0  0  0  0
   -1.9344   -4.2324    3.3409 C   0  0  0  0  0  0  0  0  0  0  0  0
   -2.6581   -3.2556    2.7171 C   0  0  0  0  0  0  0  0  0  0  0  0
   -2.3316   -2.7645    1.4717 C   0  0  0  0  0  0  0  0  0  0  0  0
    3.9498   -2.0024    1.5684 C   0  0  0  0  0  0  0  0  0  0  0  0
    4.3847   -3.2729    0.9666 C   0  0  0  0  0  0  0  0  0  0  0  0
    3.4509   -4.2944    0.9282 C   0  0  0  0  0  0  0  0  0  0  0  0
    3.7058   -5.5387    0.4001 C   0  0  0  0  0  0  0  0  0  0  0  0
    4.9359   -5.8083   -0.1207 C   0  0  0  0  0  0  0  0  0  0  0  0
    5.8905   -4.7982   -0.0933 C   0  0  0  0  0  0  0  0  0  0  0  0
    5.6170   -3.5430    0.4445 C   0  0  0  0  0  0  0  0  0  0  0  0
    7.6543    0.2096   -0.8321 C   0  0  0  0  0  0  0  0  0  0  0  0
    8.3357   -0.1816    0.4456 C   0  0  0  0  0  0  0  0  0  0  0  0
    8.9169    0.8851    1.2897 C   0  0  0  0  0  0  0  0  0  0  0  0
    9.5906    0.3326    2.4795 N   0  0  0  0  0  0  0  0  0  0  0  0
   10.7437   -0.1904    2.3789 C   0  0  0  0  0  0  0  0  0  0  0  0
   11.3683   -0.7184    3.5561 N   0  0  0  0  0  0  0  0  0  0  0  0
   11.4449   -0.2774    1.1448 N   0  0  0  0  0  0  0  0  0  0  0  0
   -5.7082   -2.5276    0.5293 C   0  0  0  0  0  0  0  0  0  0  0  0
   -6.9886   -3.1266    0.9855 C   0  0  0  0  0  0  0  0  0  0  0  0
   -6.6633   -4.3125    1.9301 C   0  0  0  0  0  0  0  0  0  0  0  0
   -7.8802   -3.6395   -0.0894 C   0  0  0  0  0  0  0  0  0  0  0  0
   -8.2240    4.8613   -1.0977 H   0  0  0  0  0  0  0  0  0  0  0  0
   -7.3844    5.8709    0.1310 H   0  0  0  0  0  0  0  0  0  0  0  0
   -6.8664    4.1330   -0.1777 H   0  0  0  0  0  0  0  0  0  0  0  0
  -10.8924    2.7824    1.0887 H   0  0  0  0  0  0  0  0  0  0  0  0
  -10.4321    3.4381   -0.4790 H   0  0  0  0  0  0  0  0  0  0  0  0
  -10.1377    1.0729   -0.3808 H   0  0  0  0  0  0  0  0  0  0  0  0
   -8.5765    1.9636   -0.7744 H   0  0  0  0  0  0  0  0  0  0  0  0
   -7.7757    1.6968    1.4493 H   0  0  0  0  0  0  0  0  0  0  0  0
   -9.8877   -0.8089    3.7593 H   0  0  0  0  0  0  0  0  0  0  0  0
   -9.8124   -1.4975    2.1184 H   0  0  0  0  0  0  0  0  0  0  0  0
   -8.6541   -0.9551    0.2906 H   0  0  0  0  0  0  0  0  0  0  0  0
   -6.3299   -1.7783   -1.3327 H   0  0  0  0  0  0  0  0  0  0  0  0
   -4.0267   -0.2412   -0.0986 H   0  0  0  0  0  0  0  0  0  0  0  0
   -2.9627    0.0630   -3.3894 H   0  0  0  0  0  0  0  0  0  0  0  0
   -2.1103   -1.4086   -2.9752 H   0  0  0  0  0  0  0  0  0  0  0  0
   -2.3797    1.9973   -0.4603 H   0  0  0  0  0  0  0  0  0  0  0  0
   -3.6619    1.5559   -1.6077 H   0  0  0  0  0  0  0  0  0  0  0  0
   -2.5007    3.4677   -2.5530 H   0  0  0  0  0  0  0  0  0  0  0  0
   -2.2345    1.9678   -3.5451 H   0  0  0  0  0  0  0  0  0  0  0  0
    0.0048    1.7977   -2.5679 H   0  0  0  0  0  0  0  0  0  0  0  0
   -0.3140    3.4392   -1.7346 H   0  0  0  0  0  0  0  0  0  0  0  0
   -0.7317    2.8565   -4.6541 H   0  0  0  0  0  0  0  0  0  0  0  0
   -0.8149    4.4791   -3.8233 H   0  0  0  0  0  0  0  0  0  0  0  0
    1.6805    2.7245   -4.3057 H   0  0  0  0  0  0  0  0  0  0  0  0
    1.1806    4.2046   -5.1871 H   0  0  0  0  0  0  0  0  0  0  0  0
    1.5180    5.6231   -3.2794 H   0  0  0  0  0  0  0  0  0  0  0  0
    3.0090    4.7345   -3.7156 H   0  0  0  0  0  0  0  0  0  0  0  0
    1.8280    3.4108   -1.4126 H   0  0  0  0  0  0  0  0  0  0  0  0
    2.3680    5.1673    0.9304 H   0  0  0  0  0  0  0  0  0  0  0  0
    3.0330    3.6215    0.5014 H   0  0  0  0  0  0  0  0  0  0  0  0
    4.4945    4.9571    2.0651 H   0  0  0  0  0  0  0  0  0  0  0  0
    4.4417    6.3022    0.9316 H   0  0  0  0  0  0  0  0  0  0  0  0
    5.9142    5.4797   -0.5592 H   0  0  0  0  0  0  0  0  0  0  0  0
    6.5355    4.8277    1.0101 H   0  0  0  0  0  0  0  0  0  0  0  0
    7.6916    2.8461    0.1190 H   0  0  0  0  0  0  0  0  0  0  0  0
    6.0551    1.3167   -1.7354 H   0  0  0  0  0  0  0  0  0  0  0  0
    4.9796   -1.1111   -0.9779 H   0  0  0  0  0  0  0  0  0  0  0  0
    3.2982   -0.0140    1.3370 H   0  0  0  0  0  0  0  0  0  0  0  0
    0.9158   -1.3583    1.3020 H   0  0  0  0  0  0  0  0  0  0  0  0
    0.3285   -1.4532   -1.7066 H   0  0  0  0  0  0  0  0  0  0  0  0
   -1.6199   -2.8394   -1.3131 H   0  0  0  0  0  0  0  0  0  0  0  0
   -0.0738   -3.5677   -0.9455 H   0  0  0  0  0  0  0  0  0  0  0  0
    0.3373   -4.6478    0.9020 H   0  0  0  0  0  0  0  0  0  0  0  0
   -0.1995   -5.5017    3.0755 H   0  0  0  0  0  0  0  0  0  0  0  0
   -2.1724   -4.6252    4.3102 H   0  0  0  0  0  0  0  0  0  0  0  0
   -3.5399   -2.8439    3.2301 H   0  0  0  0  0  0  0  0  0  0  0  0
   -2.9088   -1.9927    1.0274 H   0  0  0  0  0  0  0  0  0  0  0  0
    4.8361   -1.6437    2.1869 H   0  0  0  0  0  0  0  0  0  0  0  0
    3.1762   -2.1810    2.3743 H   0  0  0  0  0  0  0  0  0  0  0  0
    2.5003   -4.1010    1.3410 H   0  0  0  0  0  0  0  0  0  0  0  0
    2.8984   -6.2740    0.4245 H   0  0  0  0  0  0  0  0  0  0  0  0
    5.1697   -6.7726   -0.5445 H   0  0  0  0  0  0  0  0  0  0  0  0
    6.8958   -4.9439   -0.4939 H   0  0  0  0  0  0  0  0  0  0  0  0
    6.3614   -2.7689    0.4541 H   0  0  0  0  0  0  0  0  0  0  0  0
    8.5002    0.6191   -1.4837 H   0  0  0  0  0  0  0  0  0  0  0  0
    7.3965   -0.7394   -1.4043 H   0  0  0  0  0  0  0  0  0  0  0  0
    9.1820   -0.8625    0.1536 H   0  0  0  0  0  0  0  0  0  0  0  0
    7.6506   -0.8444    1.0302 H   0  0  0  0  0  0  0  0  0  0  0  0
    9.6134    1.5818    0.8287 H   0  0  0  0  0  0  0  0  0  0  0  0
    8.0270    1.4116    1.7795 H   0  0  0  0  0  0  0  0  0  0  0  0
   10.8577   -1.0563    4.3782 H   0  0  0  0  0  0  0  0  0  0  0  0
   12.4242   -0.7616    3.5865 H   0  0  0  0  0  0  0  0  0  0  0  0
   12.1747   -1.0306    0.9922 H   0  0  0  0  0  0  0  0  0  0  0  0
   11.2595    0.3959    0.3601 H   0  0  0  0  0  0  0  0  0  0  0  0
   -5.0768   -3.3124    0.0566 H   0  0  0  0  0  0  0  0  0  0  0  0
   -5.2006   -2.1094    1.4441 H   0  0  0  0  0  0  0  0  0  0  0  0
   -7.5575   -2.4406    1.6521 H   0  0  0  0  0  0  0  0  0  0  0  0
   -7.4891   -5.0445    1.9201 H   0  0  0  0  0  0  0  0  0  0  0  0
   -5.7508   -4.7896    1.4800 H   0  0  0  0  0  0  0  0  0  0  0  0
   -6.4722   -3.9486    2.9569 H   0  0  0  0  0  0  0  0  0  0  0  0
   -7.8783   -4.7460   -0.0805 H   0  0  0  0  0  0  0  0  0  0  0  0
   -7.5817   -3.3480   -1.1186 H   0  0  0  0  0  0  0  0  0  0  0  0
   -8.9486   -3.3347    0.0100 H   0  0  0  0  0  0  0  0  0  0  0  0
  1  2  1  0
  2  3  1  0
  3  4  1  0
  4  5  1  0
  5  6  1  0
  6  7  2  0
  6  8  1  0
  5  9  1  0
  9 10  1  0
 10 11  2  0
 10 12  1  0
 12 13  1  0
 13 14  1  0
 14 15  2  0
 14 16  1  0
 16 17  1  0
 17 18  1  0
 18 19  1  0
 19 20  1  0
 20 21  1  0
 21 22  1  0
 22 23  1  0
 23 24  1  0
 24 25  1  0
 25 26  2  0
 25 27  1  0
 27 28  1  0
 28 29  1  0
 29 30  1  0
 30 31  2  0
 30 32  1  0
 32 33  1  0
 33 34  1  0
 34 35  2  0
 34 36  1  0
 36 37  1  0
 37 38  1  0
 38 39  2  0
 38 40  1  0
 40 41  1  0
 41 42  1  0
 42 43  2  0
 41 44  1  0
 44 45  1  0
 45 46  2  0
 46 47  1  0
 47 48  2  0
 48 49  1  0
 49 50  2  0
 37 51  1  0
 51 52  1  0
 52 53  2  0
 53 54  1  0
 54 55  2  0
 55 56  1  0
 56 57  2  0
 33 58  1  0
 58 59  1  0
 59 60  1  0
 60 61  1  0
 61 62  2  3
 62 63  1  0
 62 64  1  0
 12 65  1  0
 65 66  1  0
 66 67  1  0
 66 68  1  0
 42 17  1  0
 50 45  1  0
 57 52  1  0
  1 69  1  0
  1 70  1  0
  1 71  1  0
  3 72  1  0
  3 73  1  0
  4 74  1  0
  4 75  1  0
  5 76  1  1
  8 77  1  0
  8 78  1  0
  9 79  1  0
 12 80  1  6
 13 81  1  0
 16 82  1  0
 16 83  1  0
 18 84  1  0
 18 85  1  0
 19 86  1  0
 19 87  1  0
 20 88  1  0
 20 89  1  0
 21 90  1  0
 21 91  1  0
 22 92  1  0
 22 93  1  0
 23 94  1  0
 23 95  1  0
 24 96  1  0
 27 97  1  0
 27 98  1  0
 28 99  1  0
 28100  1  0
 29101  1  0
 29102  1  0
 32103  1  0
 33104  1  6
 36105  1  0
 37106  1  1
 40107  1  0
 41108  1  6
 44109  1  0
 44110  1  0
 46111  1  0
 47112  1  0
 48113  1  0
 49114  1  0
 50115  1  0
 51116  1  0
 51117  1  0
 53118  1  0
 54119  1  0
 55120  1  0
 56121  1  0
 57122  1  0
 58123  1  0
 58124  1  0
 59125  1  0
 59126  1  0
 60127  1  0
 60128  1  0
 63129  1  0
 63130  1  0
 64131  1  0
 64132  1  0
 65133  1  0
 65134  1  0
 66135  1  0
 67136  1  0
 67137  1  0
 67138  1  0
 68139  1  0
 68140  1  0
 68141  1  0
M  END
>  <Ligand ID>  (1) 
LIG0003433

>  <Ligand>  (1) 
CHEMBL431243

>  <SMILES>  (1) 
CSCC[C@@H](C(=O)N)NC(=O)[C@@H](NC(=O)CN1CCCCCCNC(=O)CCCC(=O)N[C@H](C(=O)N[C@@H](C(=O)N[C@H](C1=O)Cc1ccccc1)Cc1ccccc1)CCCN=C(N)N)CC(C)C

>  <CID>  (1) 
44337530.0

>  <ChEMBL ID>  (1) 
nan

>  <InChiKey>  (1) 
WVQGRIDUVVDDMZ-IMEMCKAMSA-N

>  <InChi>  (1) 
InChI=1S/C48H73N11O8S/c1-32(2)28-37(45(65)56-35(43(49)63)23-27-68-3)55-42(62)31-59-26-13-5-4-12-24-52-40(60)21-14-22-41(61)54-36(20-15-25-53-48(50)51)44(64)57-38(29-33-16-8-6-9-17-33)46(66)58-39(47(59)67)30-34-18-10-7-11-19-34/h6-11,16-19,32,35-39H,4-5,12-15,20-31H2,1-3H3,(H2,49,63)(H,52,60)(H,54,61)(H,55,62)(H,56,65)(H,57,64)(H,58,66)(H4,50,51,53)/t35-,36-,37-,38+,39-/m0/s1

>  <IUPAC Name>  (1) 
(2S)-N-[(2S)-1-amino-4-methylsulfanyl-1-oxobutan-2-yl]-2-[[2-[(3S,6R,9S)-3,6-dibenzyl-9-[3-(diaminomethylideneamino)propyl]-2,5,8,11,15-pentaoxo-1,4,7,10,16-pentazacyclodocos-1-yl]acetyl]amino]-4-methylpentanamide

$$$$
