
     RDKit          3D

 48 51  0  0  0  0  0  0  0  0999 V2000
   -0.2538    0.3148    1.9040 C   0  0  0  0  0  0  0  0  0  0  0  0
    0.2996   -0.5784    0.8353 C   0  0  1  0  0  0  0  0  0  0  0  0
   -0.5722   -0.7170   -0.3889 C   0  0  0  0  0  0  0  0  0  0  0  0
   -1.8748   -1.2310   -0.1564 N   0  0  0  0  0  0  0  0  0  0  0  0
   -2.1244   -2.5769   -0.0950 C   0  0  0  0  0  0  0  0  0  0  0  0
   -3.4439   -2.8258    0.1635 C   0  0  0  0  0  0  0  0  0  0  0  0
   -4.0505   -1.6042    0.2691 C   0  0  0  0  0  0  0  0  0  0  0  0
   -3.0654   -0.6488    0.0686 C   0  0  0  0  0  0  0  0  0  0  0  0
   -3.4701    0.6555    0.1255 C   0  0  0  0  0  0  0  0  0  0  0  0
   -2.5728    1.6731   -0.0648 C   0  0  0  0  0  0  0  0  0  0  0  0
   -3.0006    3.0101   -0.0096 C   0  0  0  0  0  0  0  0  0  0  0  0
   -4.3318    3.2345    0.2392 C   0  0  0  0  0  0  0  0  0  0  0  0
   -5.2320    2.2573    0.4295 N   0  0  0  0  0  0  0  0  0  0  0  0
   -4.7807    0.9700    0.3686 C   0  0  0  0  0  0  0  0  0  0  0  0
   -5.7714    0.0108    0.5709 C   0  0  0  0  0  0  0  0  0  0  0  0
   -5.3685   -1.3042    0.5144 C   0  0  0  0  0  0  0  0  0  0  0  0
    1.5969   -0.0127    0.4705 N   0  0  0  0  0  0  0  0  0  0  0  0
    2.2800   -0.7387   -0.5530 C   0  0  0  0  0  0  0  0  0  0  0  0
    3.5946   -0.0676   -0.8217 C   0  0  0  0  0  0  0  0  0  0  0  0
    3.8102    0.7145   -1.9355 C   0  0  0  0  0  0  0  0  0  0  0  0
    5.0670    1.2886   -2.0861 C   0  0  0  0  0  0  0  0  0  0  0  0
    6.0820    1.0978   -1.1660 C   0  0  0  0  0  0  0  0  0  0  0  0
    5.8356    0.3034   -0.0513 C   0  0  0  0  0  0  0  0  0  0  0  0
    4.5961   -0.2831    0.1295 C   0  0  0  0  0  0  0  0  0  0  0  0
    4.3241   -1.1405    1.3290 C   0  0  0  0  0  0  0  0  0  0  0  0
   -1.3543    0.1364    2.0687 H   0  0  0  0  0  0  0  0  0  0  0  0
   -0.0672    1.3924    1.6814 H   0  0  0  0  0  0  0  0  0  0  0  0
    0.2096    0.1330    2.8938 H   0  0  0  0  0  0  0  0  0  0  0  0
    0.4694   -1.5987    1.2707 H   0  0  0  0  0  0  0  0  0  0  0  0
   -0.0146   -1.5795   -0.9612 H   0  0  0  0  0  0  0  0  0  0  0  0
   -0.4034    0.1049   -1.0520 H   0  0  0  0  0  0  0  0  0  0  0  0
   -1.4025   -3.3881   -0.2261 H   0  0  0  0  0  0  0  0  0  0  0  0
   -3.9196   -3.7955    0.2653 H   0  0  0  0  0  0  0  0  0  0  0  0
   -1.5293    1.5641   -0.2542 H   0  0  0  0  0  0  0  0  0  0  0  0
   -2.3256    3.8325   -0.1540 H   0  0  0  0  0  0  0  0  0  0  0  0
   -4.6540    4.2649    0.2802 H   0  0  0  0  0  0  0  0  0  0  0  0
   -6.7986    0.2803    0.7616 H   0  0  0  0  0  0  0  0  0  0  0  0
   -6.1047   -2.0928    0.6661 H   0  0  0  0  0  0  0  0  0  0  0  0
    1.4197    0.9814    0.2233 H   0  0  0  0  0  0  0  0  0  0  0  0
    2.3719   -1.7904   -0.2866 H   0  0  0  0  0  0  0  0  0  0  0  0
    1.6982   -0.6399   -1.5152 H   0  0  0  0  0  0  0  0  0  0  0  0
    3.0147    0.8640   -2.6562 H   0  0  0  0  0  0  0  0  0  0  0  0
    5.2529    1.9069   -2.9572 H   0  0  0  0  0  0  0  0  0  0  0  0
    7.0634    1.5304   -1.2587 H   0  0  0  0  0  0  0  0  0  0  0  0
    6.6024    0.1251    0.6983 H   0  0  0  0  0  0  0  0  0  0  0  0
    3.8737   -2.1076    1.0558 H   0  0  0  0  0  0  0  0  0  0  0  0
    5.3008   -1.3543    1.8111 H   0  0  0  0  0  0  0  0  0  0  0  0
    3.7240   -0.5713    2.0580 H   0  0  0  0  0  0  0  0  0  0  0  0
  1  2  1  0
  2  3  1  0
  3  4  1  0
  4  5  1  0
  5  6  2  0
  6  7  1  0
  7  8  2  0
  8  9  1  0
  9 10  2  0
 10 11  1  0
 11 12  2  0
 12 13  1  0
 13 14  2  0
 14 15  1  0
 15 16  2  0
  2 17  1  0
 17 18  1  0
 18 19  1  0
 19 20  2  0
 20 21  1  0
 21 22  2  0
 22 23  1  0
 23 24  2  0
 24 25  1  0
  8  4  1  0
 14  9  1  0
 24 19  1  0
 16  7  1  0
  1 26  1  0
  1 27  1  0
  1 28  1  0
  2 29  1  1
  3 30  1  0
  3 31  1  0
  5 32  1  0
  6 33  1  0
 10 34  1  0
 11 35  1  0
 12 36  1  0
 15 37  1  0
 16 38  1  0
 17 39  1  0
 18 40  1  0
 18 41  1  0
 20 42  1  0
 21 43  1  0
 22 44  1  0
 23 45  1  0
 25 46  1  0
 25 47  1  0
 25 48  1  0
M  END
>  <Ligand ID>  (1) 
LIG0003863

>  <Ligand>  (1) 
CHEMBL379223

>  <SMILES>  (1) 
C[C@@H](Cn1ccc2c1c1cccnc1cc2)NCc1ccccc1C

>  <CID>  (1) 
44407440.0

>  <ChEMBL ID>  (1) 
nan

>  <InChiKey>  (1) 
XWFUGWXBKUSWFS-KRWDZBQOSA-N

>  <InChi>  (1) 
InChI=1S/C22H23N3/c1-16-6-3-4-7-19(16)14-24-17(2)15-25-13-11-18-9-10-21-20(22(18)25)8-5-12-23-21/h3-13,17,24H,14-15H2,1-2H3/t17-/m0/s1

>  <IUPAC Name>  (1) 
(2S)-N-[(2-methylphenyl)methyl]-1-pyrrolo[2,3-f]quinolin-1-ylpropan-2-amine

$$$$
