
     RDKit          3D

 45 47  0  0  0  0  0  0  0  0999 V2000
   -3.7860    5.2421    1.4950 N   0  0  0  0  0  0  0  0  0  0  0  0
   -3.6860    4.1615    1.0619 C   0  0  0  0  0  0  0  0  0  0  0  0
   -3.5410    2.8301    0.5338 C   0  0  0  0  0  0  0  0  0  0  0  0
   -3.8358    1.7745    1.3711 C   0  0  0  0  0  0  0  0  0  0  0  0
   -3.7043    0.4902    0.8876 C   0  0  0  0  0  0  0  0  0  0  0  0
   -3.2816    0.2362   -0.4236 C   0  0  0  0  0  0  0  0  0  0  0  0
   -2.9928    1.3053   -1.2421 C   0  0  0  0  0  0  0  0  0  0  0  0
   -3.1175    2.6143   -0.7776 C   0  0  0  0  0  0  0  0  0  0  0  0
   -3.1827   -1.1762   -0.8192 C   0  0  0  0  0  0  0  0  0  0  0  0
   -1.8628   -1.7939   -0.5247 C   0  0  0  0  0  0  0  0  0  0  0  0
   -1.8128   -2.6286    0.5881 C   0  0  0  0  0  0  0  0  0  0  0  0
   -0.6226   -3.2384    0.9344 C   0  0  0  0  0  0  0  0  0  0  0  0
   -0.5024   -4.1416    2.1132 C   0  0  0  0  0  0  0  0  0  0  0  0
    0.4429   -2.9960    0.1742 N   0  0  0  0  0  0  0  0  0  0  0  0
    0.4164   -2.1956   -0.9020 N   0  0  0  0  0  0  0  0  0  0  0  0
   -0.7332   -1.5967   -1.2498 C   0  0  0  0  0  0  0  0  0  0  0  0
   -0.7598   -0.8555   -2.2457 O   0  0  0  0  0  0  0  0  0  0  0  0
    1.6595   -2.0455   -1.6136 C   0  0  0  0  0  0  0  0  0  0  0  0
    2.4961   -0.9293   -1.1502 C   0  0  0  0  0  0  0  0  0  0  0  0
    3.6071   -0.7432   -1.7214 O   0  0  0  0  0  0  0  0  0  0  0  0
    2.1560   -0.0378   -0.1073 N   0  0  0  0  0  0  0  0  0  0  0  0
    3.1039    0.9894    0.2003 C   0  0  0  0  0  0  0  0  0  0  0  0
    3.0746    2.2228   -0.4236 C   0  0  0  0  0  0  0  0  0  0  0  0
    4.0104    3.1831   -0.0935 C   0  0  0  0  0  0  0  0  0  0  0  0
    4.9630    2.8908    0.8595 C   0  0  0  0  0  0  0  0  0  0  0  0
    5.0169    1.6561    1.5053 C   0  0  0  0  0  0  0  0  0  0  0  0
    4.0616    0.7185    1.1476 C   0  0  0  0  0  0  0  0  0  0  0  0
    6.2624    4.2095    1.3244 Br  0  0  0  0  0  0  0  0  0  0  0  0
   -4.1680    1.9239    2.3961 H   0  0  0  0  0  0  0  0  0  0  0  0
   -3.9395   -0.3464    1.5570 H   0  0  0  0  0  0  0  0  0  0  0  0
   -2.6674    1.1141   -2.2546 H   0  0  0  0  0  0  0  0  0  0  0  0
   -2.8893    3.4519   -1.4246 H   0  0  0  0  0  0  0  0  0  0  0  0
   -4.0128   -1.7983   -0.3961 H   0  0  0  0  0  0  0  0  0  0  0  0
   -3.3105   -1.3037   -1.9354 H   0  0  0  0  0  0  0  0  0  0  0  0
   -2.6848   -2.8195    1.2008 H   0  0  0  0  0  0  0  0  0  0  0  0
   -1.3560   -4.0049    2.7983 H   0  0  0  0  0  0  0  0  0  0  0  0
   -0.5654   -5.1981    1.7410 H   0  0  0  0  0  0  0  0  0  0  0  0
    0.4725   -3.9318    2.5816 H   0  0  0  0  0  0  0  0  0  0  0  0
    2.2846   -2.9737   -1.5280 H   0  0  0  0  0  0  0  0  0  0  0  0
    1.4884   -1.9052   -2.6937 H   0  0  0  0  0  0  0  0  0  0  0  0
    1.2553   -0.1605    0.3813 H   0  0  0  0  0  0  0  0  0  0  0  0
    2.3397    2.4455   -1.1565 H   0  0  0  0  0  0  0  0  0  0  0  0
    4.0414    4.1533   -0.5396 H   0  0  0  0  0  0  0  0  0  0  0  0
    5.7705    1.4445    2.2500 H   0  0  0  0  0  0  0  0  0  0  0  0
    4.0918   -0.2371    1.6378 H   0  0  0  0  0  0  0  0  0  0  0  0
  1  2  3  0
  2  3  1  0
  3  4  2  0
  4  5  1  0
  5  6  2  0
  6  7  1  0
  7  8  2  0
  6  9  1  0
  9 10  1  0
 10 11  2  0
 11 12  1  0
 12 13  1  0
 12 14  2  0
 14 15  1  0
 15 16  1  0
 16 17  2  0
 15 18  1  0
 18 19  1  0
 19 20  2  0
 19 21  1  0
 21 22  1  0
 22 23  2  0
 23 24  1  0
 24 25  2  0
 25 26  1  0
 26 27  2  0
 25 28  1  0
  8  3  1  0
 16 10  1  0
 27 22  1  0
  4 29  1  0
  5 30  1  0
  7 31  1  0
  8 32  1  0
  9 33  1  0
  9 34  1  0
 11 35  1  0
 13 36  1  0
 13 37  1  0
 13 38  1  0
 18 39  1  0
 18 40  1  0
 21 41  1  0
 23 42  1  0
 24 43  1  0
 26 44  1  0
 27 45  1  0
M  END
>  <Ligand ID>  (1) 
LIG0003946

>  <Ligand>  (1) 
CHEMBL2391441

>  <SMILES>  (1) 
N#Cc1ccc(cc1)Cc1cc(C)nn(c1=O)CC(=O)Nc1ccc(cc1)Br

>  <CID>  (1) 
71699064.0

>  <ChEMBL ID>  (1) 
nan

>  <InChiKey>  (1) 
QFFAMOWJLHRYFH-UHFFFAOYSA-N

>  <InChi>  (1) 
InChI=1S/C21H17BrN4O2/c1-14-10-17(11-15-2-4-16(12-23)5-3-15)21(28)26(25-14)13-20(27)24-19-8-6-18(22)7-9-19/h2-10H,11,13H2,1H3,(H,24,27)

>  <IUPAC Name>  (1) 
N-(4-bromophenyl)-2-[5-[(4-cyanophenyl)methyl]-3-methyl-6-oxopyridazin-1-yl]acetamide

$$$$
