
     RDKit          3D

202209  0  0  0  0  0  0  0  0999 V2000
   -3.3215    4.6523   -2.2464 N   0  0  0  0  0  0  0  0  0  0  0  0
   -4.7135    4.6747   -2.5337 C   0  0  0  0  0  0  0  0  0  0  0  0
   -5.4090    5.7601   -2.7755 N   0  0  0  0  0  0  0  0  0  0  0  0
   -5.3260    3.3733   -2.5510 N   0  0  0  0  0  0  0  0  0  0  0  0
   -6.7640    3.1873   -2.2932 C   0  0  0  0  0  0  0  0  0  0  0  0
   -7.0446    1.6942   -2.3622 C   0  0  0  0  0  0  0  0  0  0  0  0
   -6.3136    0.8796   -1.3673 C   0  0  0  0  0  0  0  0  0  0  0  0
   -6.6737    0.9725    0.0644 C   0  0  2  0  0  0  0  0  0  0  0  0
   -6.5591    2.3372    0.5240 N   0  0  0  0  0  0  0  0  0  0  0  0
   -5.2770    2.9065    0.6191 C   0  0  0  0  0  0  0  0  0  0  0  0
   -4.2420    2.3247    0.2496 O   0  0  0  0  0  0  0  0  0  0  0  0
   -5.1559    4.2553    1.1682 C   0  0  1  0  0  0  0  0  0  0  0  0
   -5.7709    4.3522    2.5106 C   0  0  0  0  0  0  0  0  0  0  0  0
   -5.3219    3.1275    3.6759 S   0  0  0  0  0  0  0  0  0  0  0  0
   -6.1994    1.6915    4.0339 C   0  0  0  0  0  0  0  0  0  0  0  0
   -6.4719    0.4969    3.2950 C   0  0  0  0  0  0  0  0  0  0  0  0
   -7.1964   -0.3282    4.0789 O   0  0  0  0  0  0  0  0  0  0  0  0
   -6.3509   -0.2257    2.1362 N   0  0  0  0  0  0  0  0  0  0  0  0
   -5.7453    0.0643    0.8908 C   0  0  0  0  0  0  0  0  0  0  0  0
   -6.8714   -1.7085    2.0970 C   0  0  1  0  0  0  0  0  0  0  0  0
   -7.8698   -1.7711    1.0813 C   0  0  0  0  0  0  0  0  0  0  0  0
   -8.5788   -3.0603    0.7959 C   0  0  0  0  0  0  0  0  0  0  0  0
   -9.7318   -3.4885    1.3428 C   0  0  0  0  0  0  0  0  0  0  0  0
  -10.1095   -4.7000    0.9106 N   0  0  0  0  0  0  0  0  0  0  0  0
   -9.1211   -5.0549    0.0306 C   0  0  0  0  0  0  0  0  0  0  0  0
   -8.1752   -4.0824   -0.0653 C   0  0  0  0  0  0  0  0  0  0  0  0
   -7.1041   -4.2521   -0.9266 C   0  0  0  0  0  0  0  0  0  0  0  0
   -6.9703   -5.4015   -1.6983 C   0  0  0  0  0  0  0  0  0  0  0  0
   -7.9547   -6.3726   -1.5736 C   0  0  0  0  0  0  0  0  0  0  0  0
   -9.0005   -6.1909   -0.7248 C   0  0  0  0  0  0  0  0  0  0  0  0
   -5.6122   -2.4724    2.0563 C   0  0  0  0  0  0  0  0  0  0  0  0
   -4.5589   -1.7274    2.2053 O   0  0  0  0  0  0  0  0  0  0  0  0
   -5.3735   -3.8271    1.8898 N   0  0  0  0  0  0  0  0  0  0  0  0
   -3.9176   -4.2165    2.0248 C   0  0  1  0  0  0  0  0  0  0  0  0
   -3.9062   -5.6879    2.3015 C   0  0  0  0  0  0  0  0  0  0  0  0
   -2.5921   -6.3092    2.4988 C   0  0  0  0  0  0  0  0  0  0  0  0
   -1.4911   -5.7529    2.5595 O   0  0  0  0  0  0  0  0  0  0  0  0
   -2.5871   -7.7479    2.6435 N   0  0  0  0  0  0  0  0  0  0  0  0
   -3.2941   -3.9900    0.6575 C   0  0  0  0  0  0  0  0  0  0  0  0
   -3.9431   -4.1698   -0.4020 O   0  0  0  0  0  0  0  0  0  0  0  0
   -1.9712   -3.5535    0.5490 N   0  0  0  0  0  0  0  0  0  0  0  0
   -1.2787   -3.3259   -0.7342 C   0  0  1  0  0  0  0  0  0  0  0  0
   -1.3440   -1.8406   -1.0820 C   0  0  0  0  0  0  0  0  0  0  0  0
    0.1035   -3.7740   -0.4993 C   0  0  0  0  0  0  0  0  0  0  0  0
    0.3123   -4.2220    0.6901 O   0  0  0  0  0  0  0  0  0  0  0  0
    1.1796   -3.7612   -1.4042 N   0  0  0  0  0  0  0  0  0  0  0  0
    2.4542   -4.2826   -0.8847 C   0  0  1  0  0  0  0  0  0  0  0  0
    3.0934   -5.2983   -1.7705 C   0  0  0  0  0  0  0  0  0  0  0  0
    3.4230   -4.8471   -3.1275 C   0  0  0  0  0  0  0  0  0  0  0  0
    4.5911   -4.2548   -3.4655 C   0  0  0  0  0  0  0  0  0  0  0  0
    4.9652   -3.8258   -4.7172 C   0  0  0  0  0  0  0  0  0  0  0  0
    4.0126   -4.0362   -5.7281 C   0  0  0  0  0  0  0  0  0  0  0  0
    2.7939   -4.6398   -5.4268 C   0  0  0  0  0  0  0  0  0  0  0  0
    2.4772   -5.0526   -4.1423 C   0  0  0  0  0  0  0  0  0  0  0  0
    3.3956   -3.1271   -0.7248 C   0  0  0  0  0  0  0  0  0  0  0  0
    3.1897   -1.9966   -1.2148 O   0  0  0  0  0  0  0  0  0  0  0  0
    4.5548   -3.3534    0.0284 N   0  0  0  0  0  0  0  0  0  0  0  0
    5.5944   -2.3794    0.3124 C   0  0  1  0  0  0  0  0  0  0  0  0
    5.6290   -2.2407    1.8591 C   0  0  0  0  0  0  0  0  0  0  0  0
    6.8369   -1.0792    2.3587 S   0  0  0  0  0  0  0  0  0  0  0  0
    6.3012    0.8756    2.4288 S   0  0  0  0  0  0  0  0  0  0  0  0
    6.4196    1.9072    1.0398 C   0  0  0  0  0  0  0  0  0  0  0  0
    5.3118    1.7772   -0.0183 C   0  0  1  0  0  0  0  0  0  0  0  0
    3.9987    1.9226    0.7008 C   0  0  0  0  0  0  0  0  0  0  0  0
    3.6109    0.9319    1.3641 O   0  0  0  0  0  0  0  0  0  0  0  0
    3.2157    3.1103    0.6580 N   0  0  0  0  0  0  0  0  0  0  0  0
    1.9970    3.1057    1.4345 C   0  0  2  0  0  0  0  0  0  0  0  0
    0.9504    4.0337    0.9769 C   0  0  0  0  0  0  0  0  0  0  0  0
    1.0956    4.7372   -0.0637 O   0  0  0  0  0  0  0  0  0  0  0  0
   -0.2367    4.1221    1.7430 N   0  0  0  0  0  0  0  0  0  0  0  0
   -1.3301    5.0550    1.3924 C   0  0  1  0  0  0  0  0  0  0  0  0
   -2.6212    4.3611    1.4896 C   0  0  0  0  0  0  0  0  0  0  0  0
   -2.5893    3.1691    1.9430 O   0  0  0  0  0  0  0  0  0  0  0  0
   -3.8752    4.8740    1.1335 N   0  0  0  0  0  0  0  0  0  0  0  0
   -1.2478    6.1112    2.4740 C   0  0  0  0  0  0  0  0  0  0  0  0
   -2.2348    7.1752    2.4081 C   0  0  0  0  0  0  0  0  0  0  0  0
   -2.1152    8.3052    1.5940 C   0  0  0  0  0  0  0  0  0  0  0  0
   -3.0941    9.2701    1.6254 C   0  0  0  0  0  0  0  0  0  0  0  0
   -4.2137    9.2044    2.4212 C   0  0  0  0  0  0  0  0  0  0  0  0
   -4.3372    8.0828    3.2321 C   0  0  0  0  0  0  0  0  0  0  0  0
   -3.3706    7.1275    3.2022 C   0  0  0  0  0  0  0  0  0  0  0  0
    2.4231    3.6758    2.8219 C   0  0  0  0  0  0  0  0  0  0  0  0
    5.5209    2.9414   -0.8702 N   0  0  0  0  0  0  0  0  0  0  0  0
    5.3894    3.0252   -2.2405 C   0  0  0  0  0  0  0  0  0  0  0  0
    5.0173    1.9912   -2.9044 O   0  0  0  0  0  0  0  0  0  0  0  0
    5.6440    4.2352   -3.0775 C   0  0  2  0  0  0  0  0  0  0  0  0
    5.3674    5.4622   -2.2870 C   0  0  0  0  0  0  0  0  0  0  0  0
    5.5833    6.7415   -3.0093 C   0  0  0  0  0  0  0  0  0  0  0  0
    4.5985    7.4001   -3.7182 C   0  0  0  0  0  0  0  0  0  0  0  0
    4.8264    8.6028   -4.3674 C   0  0  0  0  0  0  0  0  0  0  0  0
    6.1010    9.1443   -4.2868 C   0  0  0  0  0  0  0  0  0  0  0  0
    7.1215    8.5331   -3.5965 C   0  0  0  0  0  0  0  0  0  0  0  0
    6.8272    7.3248   -2.9650 C   0  0  0  0  0  0  0  0  0  0  0  0
    6.2998   10.3563   -4.9469 O   0  0  0  0  0  0  0  0  0  0  0  0
    4.9528    4.2216   -4.3297 N   0  0  0  0  0  0  0  0  0  0  0  0
    6.9320   -3.0421    0.0625 C   0  0  0  0  0  0  0  0  0  0  0  0
    7.9310   -2.2671    0.2845 O   0  0  0  0  0  0  0  0  0  0  0  0
    7.0967   -4.3703   -0.3605 N   0  0  0  0  0  0  0  0  0  0  0  0
    8.3764   -5.0227   -0.5549 C   0  0  2  0  0  0  0  0  0  0  0  0
    8.5454   -5.4227   -1.9541 C   0  0  0  0  0  0  0  0  0  0  0  0
    7.7373   -5.2469   -2.8805 O   0  0  0  0  0  0  0  0  0  0  0  0
    9.7729   -6.0876   -2.2936 N   0  0  0  0  0  0  0  0  0  0  0  0
    8.3567   -6.3009    0.2691 C   0  0  0  0  0  0  0  0  0  0  0  0
    8.1550   -5.9848    1.7156 C   0  0  0  0  0  0  0  0  0  0  0  0
    9.2388   -5.7283    2.5641 C   0  0  0  0  0  0  0  0  0  0  0  0
    8.8962   -5.4493    3.8857 C   0  0  0  0  0  0  0  0  0  0  0  0
    7.6240   -5.4149    4.3719 C   0  0  0  0  0  0  0  0  0  0  0  0
    6.6080   -5.6821    3.4660 C   0  0  0  0  0  0  0  0  0  0  0  0
    6.8473   -5.9600    2.1718 C   0  0  0  0  0  0  0  0  0  0  0  0
    7.2648   -5.1399    5.6698 O   0  0  0  0  0  0  0  0  0  0  0  0
   -3.0120    5.3207   -1.4768 H   0  0  0  0  0  0  0  0  0  0  0  0
   -2.6583    4.0346   -2.7578 H   0  0  0  0  0  0  0  0  0  0  0  0
   -6.4800    5.5186   -2.9660 H   0  0  0  0  0  0  0  0  0  0  0  0
   -4.7066    2.5330   -2.7582 H   0  0  0  0  0  0  0  0  0  0  0  0
   -7.1305    3.6777   -1.4155 H   0  0  0  0  0  0  0  0  0  0  0  0
   -7.2744    3.6356   -3.1915 H   0  0  0  0  0  0  0  0  0  0  0  0
   -6.9191    1.2960   -3.3688 H   0  0  0  0  0  0  0  0  0  0  0  0
   -8.1506    1.5977   -2.1418 H   0  0  0  0  0  0  0  0  0  0  0  0
   -6.4270   -0.2022   -1.7286 H   0  0  0  0  0  0  0  0  0  0  0  0
   -5.1776    1.0142   -1.5143 H   0  0  0  0  0  0  0  0  0  0  0  0
   -7.6837    0.6817    0.2660 H   0  0  0  0  0  0  0  0  0  0  0  0
   -7.4233    2.9079    0.7917 H   0  0  0  0  0  0  0  0  0  0  0  0
   -5.8566    4.8948    0.4836 H   0  0  0  0  0  0  0  0  0  0  0  0
   -5.6604    5.4137    2.9224 H   0  0  0  0  0  0  0  0  0  0  0  0
   -6.9039    4.2231    2.3165 H   0  0  0  0  0  0  0  0  0  0  0  0
   -7.1931    1.9905    4.6248 H   0  0  0  0  0  0  0  0  0  0  0  0
   -5.6612    1.2638    5.0144 H   0  0  0  0  0  0  0  0  0  0  0  0
   -5.6893   -0.8481    0.2092 H   0  0  0  0  0  0  0  0  0  0  0  0
   -4.7006    0.3345    0.9003 H   0  0  0  0  0  0  0  0  0  0  0  0
   -7.3085   -1.9752    3.0726 H   0  0  0  0  0  0  0  0  0  0  0  0
   -7.4959   -1.4277    0.0512 H   0  0  0  0  0  0  0  0  0  0  0  0
   -8.7058   -1.0565    1.3187 H   0  0  0  0  0  0  0  0  0  0  0  0
  -10.3314   -2.9172    2.0663 H   0  0  0  0  0  0  0  0  0  0  0  0
  -10.9446   -5.2810    1.1546 H   0  0  0  0  0  0  0  0  0  0  0  0
   -6.4066   -3.4330   -0.9680 H   0  0  0  0  0  0  0  0  0  0  0  0
   -6.1200   -5.5208   -2.3712 H   0  0  0  0  0  0  0  0  0  0  0  0
   -7.8099   -7.2560   -2.2035 H   0  0  0  0  0  0  0  0  0  0  0  0
   -9.7440   -6.9748   -0.6572 H   0  0  0  0  0  0  0  0  0  0  0  0
   -6.0606   -4.5831    1.7035 H   0  0  0  0  0  0  0  0  0  0  0  0
   -3.3812   -3.5721    2.6817 H   0  0  0  0  0  0  0  0  0  0  0  0
   -4.5880   -5.9240    3.1848 H   0  0  0  0  0  0  0  0  0  0  0  0
   -4.4421   -6.2566    1.4702 H   0  0  0  0  0  0  0  0  0  0  0  0
   -2.3417   -8.3734    1.8357 H   0  0  0  0  0  0  0  0  0  0  0  0
   -2.8355   -8.1367    3.5715 H   0  0  0  0  0  0  0  0  0  0  0  0
   -1.4036   -3.3479    1.4081 H   0  0  0  0  0  0  0  0  0  0  0  0
   -1.7737   -3.8768   -1.5275 H   0  0  0  0  0  0  0  0  0  0  0  0
   -2.0048   -1.7310   -1.9591 H   0  0  0  0  0  0  0  0  0  0  0  0
   -1.7444   -1.2592   -0.2224 H   0  0  0  0  0  0  0  0  0  0  0  0
   -0.3383   -1.5160   -1.3785 H   0  0  0  0  0  0  0  0  0  0  0  0
    1.1491   -3.4160   -2.3820 H   0  0  0  0  0  0  0  0  0  0  0  0
    2.2870   -4.7610    0.1145 H   0  0  0  0  0  0  0  0  0  0  0  0
    4.0812   -5.5749   -1.2972 H   0  0  0  0  0  0  0  0  0  0  0  0
    2.5379   -6.2687   -1.7849 H   0  0  0  0  0  0  0  0  0  0  0  0
    5.3152   -4.0893   -2.6593 H   0  0  0  0  0  0  0  0  0  0  0  0
    5.8906   -3.3561   -4.9635 H   0  0  0  0  0  0  0  0  0  0  0  0
    4.1763   -3.7496   -6.7489 H   0  0  0  0  0  0  0  0  0  0  0  0
    2.0261   -4.8110   -6.1764 H   0  0  0  0  0  0  0  0  0  0  0  0
    1.5541   -5.5240   -3.8635 H   0  0  0  0  0  0  0  0  0  0  0  0
    4.7246   -4.3106    0.4582 H   0  0  0  0  0  0  0  0  0  0  0  0
    5.5017   -1.4566   -0.1991 H   0  0  0  0  0  0  0  0  0  0  0  0
    5.8763   -3.2425    2.2336 H   0  0  0  0  0  0  0  0  0  0  0  0
    4.5873   -2.0231    2.2047 H   0  0  0  0  0  0  0  0  0  0  0  0
    6.5106    2.9788    1.3547 H   0  0  0  0  0  0  0  0  0  0  0  0
    7.3643    1.7467    0.4087 H   0  0  0  0  0  0  0  0  0  0  0  0
    5.3527    0.8345   -0.5007 H   0  0  0  0  0  0  0  0  0  0  0  0
    3.5458    3.9153    0.0835 H   0  0  0  0  0  0  0  0  0  0  0  0
    1.6641    2.0892    1.6897 H   0  0  0  0  0  0  0  0  0  0  0  0
   -0.3805    3.5167    2.5984 H   0  0  0  0  0  0  0  0  0  0  0  0
   -1.1162    5.4893    0.3880 H   0  0  0  0  0  0  0  0  0  0  0  0
   -3.8612    5.8868    0.7666 H   0  0  0  0  0  0  0  0  0  0  0  0
   -1.3195    5.5388    3.4413 H   0  0  0  0  0  0  0  0  0  0  0  0
   -0.1841    6.4658    2.4456 H   0  0  0  0  0  0  0  0  0  0  0  0
   -1.2877    8.4248    0.9423 H   0  0  0  0  0  0  0  0  0  0  0  0
   -3.0170   10.1631    0.9806 H   0  0  0  0  0  0  0  0  0  0  0  0
   -4.9799    9.9742    2.4457 H   0  0  0  0  0  0  0  0  0  0  0  0
   -5.2162    8.0530    3.8530 H   0  0  0  0  0  0  0  0  0  0  0  0
   -3.4842    6.2597    3.8376 H   0  0  0  0  0  0  0  0  0  0  0  0
    3.4294    3.2895    3.0464 H   0  0  0  0  0  0  0  0  0  0  0  0
    2.4663    4.7764    2.7254 H   0  0  0  0  0  0  0  0  0  0  0  0
    1.6680    3.3754    3.5736 H   0  0  0  0  0  0  0  0  0  0  0  0
    5.7969    3.8159   -0.3380 H   0  0  0  0  0  0  0  0  0  0  0  0
    6.7450    4.1533   -3.3442 H   0  0  0  0  0  0  0  0  0  0  0  0
    6.0262    5.4935   -1.3570 H   0  0  0  0  0  0  0  0  0  0  0  0
    4.3292    5.4481   -1.8968 H   0  0  0  0  0  0  0  0  0  0  0  0
    3.6129    6.9874   -3.7819 H   0  0  0  0  0  0  0  0  0  0  0  0
    4.0237    9.0610   -4.8938 H   0  0  0  0  0  0  0  0  0  0  0  0
    8.1200    8.9601   -3.5323 H   0  0  0  0  0  0  0  0  0  0  0  0
    7.6802    6.8903   -2.4272 H   0  0  0  0  0  0  0  0  0  0  0  0
    5.5589   11.0548   -4.8173 H   0  0  0  0  0  0  0  0  0  0  0  0
    4.0194    4.6874   -4.2890 H   0  0  0  0  0  0  0  0  0  0  0  0
    4.9538    3.3136   -4.8222 H   0  0  0  0  0  0  0  0  0  0  0  0
    6.2555   -4.9432   -0.5605 H   0  0  0  0  0  0  0  0  0  0  0  0
    9.2228   -4.3742   -0.2562 H   0  0  0  0  0  0  0  0  0  0  0  0
   10.6503   -5.5493   -2.0883 H   0  0  0  0  0  0  0  0  0  0  0  0
    9.7833   -7.0505   -2.7214 H   0  0  0  0  0  0  0  0  0  0  0  0
    7.5072   -6.9510   -0.0412 H   0  0  0  0  0  0  0  0  0  0  0  0
    9.2815   -6.8944    0.1429 H   0  0  0  0  0  0  0  0  0  0  0  0
   10.2612   -5.7463    2.2073 H   0  0  0  0  0  0  0  0  0  0  0  0
    9.7068   -5.2441    4.5474 H   0  0  0  0  0  0  0  0  0  0  0  0
    5.5852   -5.6614    3.8185 H   0  0  0  0  0  0  0  0  0  0  0  0
    6.0391   -6.1654    1.4633 H   0  0  0  0  0  0  0  0  0  0  0  0
    6.3845   -5.4654    6.0135 H   0  0  0  0  0  0  0  0  0  0  0  0
  1  2  1  0
  2  3  2  3
  2  4  1  0
  4  5  1  0
  5  6  1  0
  6  7  1  0
  7  8  1  0
  8  9  1  0
  9 10  1  0
 10 11  2  0
 10 12  1  0
 12 13  1  0
 13 14  1  0
 14 15  1  0
 15 16  1  0
 16 17  2  0
 16 18  1  0
 18 19  1  0
 18 20  1  0
 20 21  1  0
 21 22  1  0
 22 23  2  0
 23 24  1  0
 24 25  1  0
 25 26  2  0
 26 27  1  0
 27 28  2  0
 28 29  1  0
 29 30  2  0
 20 31  1  0
 31 32  2  0
 31 33  1  0
 33 34  1  0
 34 35  1  0
 35 36  1  0
 36 37  2  0
 36 38  1  0
 34 39  1  0
 39 40  2  0
 39 41  1  0
 41 42  1  0
 42 43  1  0
 42 44  1  0
 44 45  2  0
 44 46  1  0
 46 47  1  0
 47 48  1  0
 48 49  1  0
 49 50  2  0
 50 51  1  0
 51 52  2  0
 52 53  1  0
 53 54  2  0
 47 55  1  0
 55 56  2  0
 55 57  1  0
 57 58  1  0
 58 59  1  0
 59 60  1  0
 60 61  1  0
 61 62  1  0
 62 63  1  0
 63 64  1  0
 64 65  2  0
 64 66  1  0
 66 67  1  0
 67 68  1  0
 68 69  2  0
 68 70  1  0
 70 71  1  0
 71 72  1  0
 72 73  2  0
 72 74  1  0
 71 75  1  0
 75 76  1  0
 76 77  2  0
 77 78  1  0
 78 79  2  0
 79 80  1  0
 80 81  2  0
 67 82  1  0
 63 83  1  0
 83 84  1  0
 84 85  2  0
 84 86  1  0
 86 87  1  0
 87 88  1  0
 88 89  2  0
 89 90  1  0
 90 91  2  0
 91 92  1  0
 92 93  2  0
 91 94  1  0
 86 95  1  0
 58 96  1  0
 96 97  2  0
 96 98  1  0
 98 99  1  0
 99100  1  0
100101  2  0
100102  1  0
 99103  1  0
103104  1  0
104105  2  0
105106  1  0
106107  2  0
107108  1  0
108109  2  0
107110  1  0
 19  8  1  0
 26 22  1  0
 54 49  1  0
 81 76  1  0
 93 88  1  0
109104  1  0
 74 12  1  0
 30 25  1  0
  1111  1  0
  1112  1  0
  3113  1  0
  4114  1  0
  5115  1  0
  5116  1  0
  6117  1  0
  6118  1  0
  7119  1  0
  7120  1  0
  8121  1  6
  9122  1  0
 12123  1  6
 13124  1  0
 13125  1  0
 15126  1  0
 15127  1  0
 19128  1  0
 19129  1  0
 20130  1  1
 21131  1  0
 21132  1  0
 23133  1  0
 24134  1  0
 27135  1  0
 28136  1  0
 29137  1  0
 30138  1  0
 33139  1  0
 34140  1  1
 35141  1  0
 35142  1  0
 38143  1  0
 38144  1  0
 41145  1  0
 42146  1  6
 43147  1  0
 43148  1  0
 43149  1  0
 46150  1  0
 47151  1  1
 48152  1  0
 48153  1  0
 50154  1  0
 51155  1  0
 52156  1  0
 53157  1  0
 54158  1  0
 57159  1  0
 58160  1  6
 59161  1  0
 59162  1  0
 62163  1  0
 62164  1  0
 63165  1  6
 66166  1  0
 67167  1  1
 70168  1  0
 71169  1  6
 74170  1  0
 75171  1  0
 75172  1  0
 77173  1  0
 78174  1  0
 79175  1  0
 80176  1  0
 81177  1  0
 82178  1  0
 82179  1  0
 82180  1  0
 83181  1  0
 86182  1  6
 87183  1  0
 87184  1  0
 89185  1  0
 90186  1  0
 92187  1  0
 93188  1  0
 94189  1  0
 95190  1  0
 95191  1  0
 98192  1  0
 99193  1  1
102194  1  0
102195  1  0
103196  1  0
103197  1  0
105198  1  0
106199  1  0
108200  1  0
109201  1  0
110202  1  0
M  END
>  <Ligand ID>  (1) 
LIG0001118

>  <Ligand>  (1) 
CID 71605539

>  <SMILES>  (1) 
NC(=N)NCCC[C@@H]1NC(=O)[C@H]2CSCC(=O)N(C1)[C@@H](Cc1c[nH]c3c1cccc3)C(=O)N[C@@H](CC(=O)N)C(=O)N[C@@H](C)C(=O)N[C@@H](Cc1ccccc1)C(=O)N[C@@H](CSSC[C@@H](C(=O)N[C@H](C(=O)N[C@@H](C(=O)N2)Cc1ccccc1)C)NC(=O)[C@H](Cc1ccc(cc1)O)N)C(=O)N[C@H](C(=O)N)Cc1ccc(cc1)O

>  <CID>  (1) 
71605539.0

>  <ChEMBL ID>  (1) 
nan

>  <InChiKey>  (1) 
HCEITYKMCSXXGB-RSXGRFIASA-N

>  <InChi>  (1) 
InChI=1S/C74H92N18O15S3/c1-40-64(98)87-55(31-43-14-7-4-8-15-43)69(103)91-59(72(106)85-53(63(77)97)29-45-21-25-49(94)26-22-45)38-110-109-37-58(89-66(100)51(75)28-44-19-23-48(93)24-20-44)70(104)83-41(2)65(99)86-54(30-42-12-5-3-6-13-42)68(102)90-57-36-108-39-62(96)92(35-47(84-71(57)105)16-11-27-80-74(78)79)60(32-46-34-81-52-18-10-9-17-50(46)52)73(107)88-56(33-61(76)95)67(101)82-40/h3-10,12-15,17-26,34,40-41,47,51,53-60,81,93-94H,11,16,27-33,35-39,75H2,1-2H3,(H2,76,95)(H2,77,97)(H,82,101)(H,83,104)(H,84,105)(H,85,106)(H,86,99)(H,87,98)(H,88,107)(H,89,100)(H,90,102)(H,91,103)(H4,78,79,80)/t40-,41-,47-,51-,53-,54+,55-,56-,57+,58-,59-,60-/m0/s1

>  <IUPAC Name>  (1) 
(2S,5S,8S,11S,14R,19R,22S,25R,28S,34S)-N-[(2S)-1-amino-3-(4-hydroxyphenyl)-1-oxopropan-2-yl]-19-[[(2S)-2-amino-3-(4-hydroxyphenyl)propanoyl]amino]-5-(2-amino-2-oxoethyl)-11,25-dibenzyl-34-(3-carbamimidamidopropyl)-2-(1H-indol-3-ylmethyl)-8,22-dimethyl-3,6,9,12,20,23,26,32,36-nonaoxo-16,17,30-trithia-1,4,7,10,13,21,24,27,35-nonazabicyclo[26.4.4]hexatriacontane-14-carboxamide

$$$$
