
     RDKit          3D

 60 63  0  0  0  0  0  0  0  0999 V2000
   -5.4036    5.1831    1.1785 C   0  0  0  0  0  0  0  0  0  0  0  0
   -5.2385    4.4256   -0.0154 O   0  0  0  0  0  0  0  0  0  0  0  0
   -4.2828    3.4271   -0.1182 C   0  0  0  0  0  0  0  0  0  0  0  0
   -4.1396    2.7174   -1.2861 C   0  0  0  0  0  0  0  0  0  0  0  0
   -3.1602    1.7369   -1.3007 C   0  0  0  0  0  0  0  0  0  0  0  0
   -2.3523    1.4560   -0.2252 C   0  0  0  0  0  0  0  0  0  0  0  0
   -2.5013    2.1820    0.9633 C   0  0  0  0  0  0  0  0  0  0  0  0
   -3.4864    3.1752    0.9913 C   0  0  0  0  0  0  0  0  0  0  0  0
   -1.3512    0.4556   -0.2173 N   0  0  0  0  0  0  0  0  0  0  0  0
   -1.7289   -0.8547   -0.0398 C   0  0  0  0  0  0  0  0  0  0  0  0
   -3.0862   -1.2817    0.1583 C   0  0  0  0  0  0  0  0  0  0  0  0
   -3.3874   -2.6879   -0.1863 C   0  0  0  0  0  0  0  0  0  0  0  0
   -4.2481   -3.3212    0.9198 C   0  0  0  0  0  0  0  0  0  0  0  0
   -4.2460   -2.7769   -1.4589 C   0  0  0  0  0  0  0  0  0  0  0  0
   -2.2435   -3.6122   -0.3862 C   0  0  0  0  0  0  0  0  0  0  0  0
   -0.9370   -3.1229    0.0940 C   0  0  0  0  0  0  0  0  0  0  0  0
   -0.0511   -3.8209    0.6436 O   0  0  0  0  0  0  0  0  0  0  0  0
   -0.5993   -1.6601   -0.0751 C   0  0  0  0  0  0  0  0  0  0  0  0
    0.6474   -1.3494   -0.2391 C   0  0  0  0  0  0  0  0  0  0  0  0
    1.1330    0.2542   -0.4567 C   0  0  0  0  0  0  0  0  0  0  0  0
   -0.0944    0.6262   -0.3665 C   0  0  0  0  0  0  0  0  0  0  0  0
    0.0942    2.0351   -0.5277 O   0  0  0  0  0  0  0  0  0  0  0  0
    2.4487   -0.1447   -0.5534 C   0  0  0  0  0  0  0  0  0  0  0  0
    3.1369    0.8453   -1.2471 O   0  0  0  0  0  0  0  0  0  0  0  0
    3.3520   -1.1129   -0.2339 N   0  0  0  0  0  0  0  0  0  0  0  0
    4.6946   -0.8920   -0.6783 N   0  0  0  0  0  0  0  0  0  0  0  0
    5.5836   -0.1277    0.1187 C   0  0  0  0  0  0  0  0  0  0  0  0
    5.1591    0.4071    1.3234 C   0  0  0  0  0  0  0  0  0  0  0  0
    6.0013    1.1618    2.1176 C   0  0  0  0  0  0  0  0  0  0  0  0
    7.2777    1.3515    1.6473 C   0  0  0  0  0  0  0  0  0  0  0  0
    7.7742    0.8655    0.4800 C   0  0  0  0  0  0  0  0  0  0  0  0
    6.8915    0.1030   -0.3014 C   0  0  0  0  0  0  0  0  0  0  0  0
    7.3989   -0.4323   -1.5696 C   0  0  0  0  0  0  0  0  0  0  0  0
   -5.8319    4.5431    1.9520 H   0  0  0  0  0  0  0  0  0  0  0  0
   -4.4388    5.6440    1.4944 H   0  0  0  0  0  0  0  0  0  0  0  0
   -6.0787    6.0303    0.9383 H   0  0  0  0  0  0  0  0  0  0  0  0
   -4.7438    2.8885   -2.1676 H   0  0  0  0  0  0  0  0  0  0  0  0
   -2.9780    1.1206   -2.1946 H   0  0  0  0  0  0  0  0  0  0  0  0
   -1.8804    1.9823    1.8338 H   0  0  0  0  0  0  0  0  0  0  0  0
   -3.6590    3.7739    1.8810 H   0  0  0  0  0  0  0  0  0  0  0  0
   -3.3924   -1.0950    1.2270 H   0  0  0  0  0  0  0  0  0  0  0  0
   -3.7454   -0.6004   -0.4644 H   0  0  0  0  0  0  0  0  0  0  0  0
   -4.8858   -2.5773    1.4254 H   0  0  0  0  0  0  0  0  0  0  0  0
   -4.9443   -4.0756    0.4686 H   0  0  0  0  0  0  0  0  0  0  0  0
   -3.6081   -3.8956    1.6325 H   0  0  0  0  0  0  0  0  0  0  0  0
   -5.1483   -2.1593   -1.3746 H   0  0  0  0  0  0  0  0  0  0  0  0
   -4.4206   -3.8530   -1.6334 H   0  0  0  0  0  0  0  0  0  0  0  0
   -3.5575   -2.4320   -2.2836 H   0  0  0  0  0  0  0  0  0  0  0  0
   -2.3950   -4.6147    0.0532 H   0  0  0  0  0  0  0  0  0  0  0  0
   -2.0899   -3.8139   -1.4907 H   0  0  0  0  0  0  0  0  0  0  0  0
    1.4298   -2.0164   -0.2835 H   0  0  0  0  0  0  0  0  0  0  0  0
    3.0899   -1.9396    0.3200 H   0  0  0  0  0  0  0  0  0  0  0  0
    4.9291   -1.3219   -1.5769 H   0  0  0  0  0  0  0  0  0  0  0  0
    4.1494    0.2655    1.7058 H   0  0  0  0  0  0  0  0  0  0  0  0
    5.6751    1.5937    3.0743 H   0  0  0  0  0  0  0  0  0  0  0  0
    7.9389    1.9445    2.2682 H   0  0  0  0  0  0  0  0  0  0  0  0
    8.7838    1.0396    0.1530 H   0  0  0  0  0  0  0  0  0  0  0  0
    6.9327   -1.3713   -1.9104 H   0  0  0  0  0  0  0  0  0  0  0  0
    8.4843   -0.6520   -1.4652 H   0  0  0  0  0  0  0  0  0  0  0  0
    7.3297    0.3810   -2.3317 H   0  0  0  0  0  0  0  0  0  0  0  0
  1  2  1  0
  2  3  1  0
  3  4  2  0
  4  5  1  0
  5  6  2  0
  6  7  1  0
  7  8  2  0
  6  9  1  0
  9 10  1  0
 10 11  1  0
 11 12  1  0
 12 13  1  0
 12 14  1  0
 12 15  1  0
 15 16  1  0
 16 17  2  0
 16 18  1  0
 18 19  1  0
 19 20  2  0
 20 21  1  0
 21 22  2  0
 20 23  1  0
 23 24  2  0
 23 25  1  0
 25 26  1  0
 26 27  1  0
 27 28  2  0
 28 29  1  0
 29 30  2  0
 30 31  1  0
 31 32  2  0
 32 33  1  0
  8  3  1  0
 21  9  1  0
 32 27  1  0
 18 10  2  0
  1 34  1  0
  1 35  1  0
  1 36  1  0
  4 37  1  0
  5 38  1  0
  7 39  1  0
  8 40  1  0
 11 41  1  0
 11 42  1  0
 13 43  1  0
 13 44  1  0
 13 45  1  0
 14 46  1  0
 14 47  1  0
 14 48  1  0
 15 49  1  0
 15 50  1  0
 19 51  1  0
 25 52  1  0
 26 53  1  0
 28 54  1  0
 29 55  1  0
 30 56  1  0
 31 57  1  0
 33 58  1  0
 33 59  1  0
 33 60  1  0
M  END
>  <Ligand ID>  (1) 
LIG0003878

>  <Ligand>  (1) 
MLS000724287

>  <SMILES>  (1) 
COc1ccc(cc1)n1c2CC(C)(C)CC(=O)c2cc(c1=O)C(=O)NNc1ccccc1C

>  <CID>  (1) 
16193242.0

>  <ChEMBL ID>  (1) 
nan

>  <InChiKey>  (1) 
WEHQHSLROFNZDZ-UHFFFAOYSA-N

>  <InChi>  (1) 
InChI=1S/C26H27N3O4/c1-16-7-5-6-8-21(16)27-28-24(31)20-13-19-22(14-26(2,3)15-23(19)30)29(25(20)32)17-9-11-18(33-4)12-10-17/h5-13,27H,14-15H2,1-4H3,(H,28,31)

>  <IUPAC Name>  (1) 
1-(4-methoxyphenyl)-7,7-dimethyl-N'-(2-methylphenyl)-2,5-dioxo-6,8-dihydroquinoline-3-carbohydrazide

$$$$
