
     RDKit          3D

 42 40  0  0  0  0  0  0  0  0999 V2000
    2.8727    0.3253   -0.6769 O   0  0  0  0  0  0  0  0  0  0  0  0
    1.9005   -0.0549    0.2586 C   0  0  0  0  0  0  0  0  0  0  0  0
    2.2901   -0.8654    1.1445 O   0  0  0  0  0  0  0  0  0  0  0  0
    0.5129    0.4472    0.2256 C   0  0  0  0  0  0  0  0  0  0  0  0
   -0.4949   -0.6646    0.0354 C   0  0  0  0  0  0  0  0  0  0  0  0
   -1.8521   -0.0142    0.0565 C   0  0  0  0  0  0  0  0  0  0  0  0
   -2.7102   -0.3495    0.9340 O   0  0  0  0  0  0  0  0  0  0  0  0
   -2.1809    0.9516   -0.8741 O   0  0  0  0  0  0  0  0  0  0  0  0
   -0.4061   -1.5845    1.0494 O   0  0  0  0  0  0  0  0  0  0  0  0
    0.3436    1.3305   -0.8548 O   0  0  0  0  0  0  0  0  0  0  0  0
   -3.6556   -0.7082    0.3339 N   0  0  0  0  0  0  0  0  0  0  0  0
   -2.2413   -0.8753    0.0551 C   0  0  0  0  0  0  0  0  0  0  0  0
   -1.5210    0.4340    0.1606 C   0  0  1  0  0  0  0  0  0  0  0  0
   -0.0776    0.3512    0.0310 C   0  0  0  0  0  0  0  0  0  0  0  0
    0.6575    1.5132   -0.0643 C   0  0  0  0  0  0  0  0  0  0  0  0
    2.0492    1.4590   -0.1899 C   0  0  0  0  0  0  0  0  0  0  0  0
    2.7065    0.2530   -0.2204 C   0  0  0  0  0  0  0  0  0  0  0  0
    1.9803   -0.9090   -0.1258 C   0  0  0  0  0  0  0  0  0  0  0  0
    0.6007   -0.8351   -0.0018 C   0  0  0  0  0  0  0  0  0  0  0  0
    2.6230   -2.1470   -0.1541 O   0  0  0  0  0  0  0  0  0  0  0  0
    4.0985    0.2497   -0.3472 O   0  0  0  0  0  0  0  0  0  0  0  0
   -2.0293    1.3639   -0.7451 O   0  0  0  0  0  0  0  0  0  0  0  0
   -0.0026    0.3777   -0.0000 O   0  0  0  0  0  0  0  0  0  0  0  0
    3.8268    0.5404   -0.3957 H   0  0  0  0  0  0  0  0  0  0  0  0
    0.2595    1.0253    1.1375 H   0  0  0  0  0  0  0  0  0  0  0  0
   -0.3533   -1.1745   -0.9375 H   0  0  0  0  0  0  0  0  0  0  0  0
   -3.0720    1.4468   -0.8798 H   0  0  0  0  0  0  0  0  0  0  0  0
   -1.2219   -2.1274    1.1041 H   0  0  0  0  0  0  0  0  0  0  0  0
    0.2852    0.7679   -1.6654 H   0  0  0  0  0  0  0  0  0  0  0  0
   -3.8626    0.3111    0.2391 H   0  0  0  0  0  0  0  0  0  0  0  0
   -3.8329   -1.0061    1.3195 H   0  0  0  0  0  0  0  0  0  0  0  0
   -1.8600   -1.6636    0.6924 H   0  0  0  0  0  0  0  0  0  0  0  0
   -2.1866   -1.2070   -1.0114 H   0  0  0  0  0  0  0  0  0  0  0  0
   -1.7655    0.8587    1.1751 H   0  0  0  0  0  0  0  0  0  0  0  0
    0.2341    2.5035   -0.0499 H   0  0  0  0  0  0  0  0  0  0  0  0
    2.6246    2.3877   -0.2650 H   0  0  0  0  0  0  0  0  0  0  0  0
    0.0823   -1.7895    0.0688 H   0  0  0  0  0  0  0  0  0  0  0  0
    2.4242   -2.8378   -0.8674 H   0  0  0  0  0  0  0  0  0  0  0  0
    4.7041    0.0235    0.4186 H   0  0  0  0  0  0  0  0  0  0  0  0
   -1.7527    2.2698   -0.4518 H   0  0  0  0  0  0  0  0  0  0  0  0
   -0.8086   -0.1898   -0.0000 H   0  0  0  0  0  0  0  0  0  0  0  0
    0.8111   -0.1879    0.0000 H   0  0  0  0  0  0  0  0  0  0  0  0
  1  2  1  0
  2  3  2  0
  2  4  1  0
  4  5  1  0
  5  6  1  0
  6  7  2  0
  6  8  1  0
  5  9  1  0
  4 10  1  0
 11 12  1  0
 12 13  1  0
 13 14  1  0
 14 15  2  0
 15 16  1  0
 16 17  2  0
 17 18  1  0
 18 19  2  0
 18 20  1  0
 17 21  1  0
 13 22  1  0
 19 14  1  0
  1 24  1  0
  4 25  1  0
  5 26  1  0
  8 27  1  0
  9 28  1  0
 10 29  1  0
 11 30  1  0
 11 31  1  0
 12 32  1  0
 12 33  1  0
 13 34  1  1
 15 35  1  0
 16 36  1  0
 19 37  1  0
 20 38  1  0
 21 39  1  0
 22 40  1  0
 23 41  1  0
 23 42  1  0
M  END
>  <Ligand ID>  (1) 
LIG0005779

>  <Ligand>  (1) 
L-(-)-Norepinephrine (+)-bitartrate salt monohydrate

>  <SMILES>  (1) 
OC(=O)C(C(C(=O)O)O)O.NC[C@@H](c1ccc(c(c1)O)O)O.O

>  <CID>  (1) 
24847757.0

>  <ChEMBL ID>  (1) 
nan

>  <InChiKey>  (1) 
LNBCGLZYLJMGKP-JZGIKJSDSA-N

>  <InChi>  (1) 
InChI=1S/C8H11NO3.C4H6O6.H2O/c9-4-8(12)5-1-2-6(10)7(11)3-5;5-1(3(7)8)2(6)4(9)10;/h1-3,8,10-12H,4,9H2;1-2,5-6H,(H,7,8)(H,9,10);1H2/t8-;;/m0../s1

>  <IUPAC Name>  (1) 
4-[(1R)-2-amino-1-hydroxyethyl]benzene-1,2-diol;2,3-dihydroxybutanedioic acid;hydrate

$$$$
