
     RDKit          3D

 50 52  0  0  0  0  0  0  0  0999 V2000
    2.6263   -1.6497   -0.1771 O   0  0  0  0  0  0  0  0  0  0  0  0
    1.7701   -0.7648    0.1176 C   0  0  0  0  0  0  0  0  0  0  0  0
    0.5814   -1.0673    0.8328 N   0  0  0  0  0  0  0  0  0  0  0  0
   -0.4164   -0.0688    1.1803 C   0  0  2  0  0  0  0  0  0  0  0  0
   -0.5227    0.0721    2.6949 C   0  0  0  0  0  0  0  0  0  0  0  0
   -1.8422   -0.3955    3.2371 C   0  0  0  0  0  0  0  0  0  0  0  0
   -3.0354    0.3151    2.6490 C   0  0  0  0  0  0  0  0  0  0  0  0
   -2.6925    0.7112    1.2277 C   0  0  0  0  0  0  0  0  0  0  0  0
   -1.7891   -0.3815    0.6892 C   0  0  1  0  0  0  0  0  0  0  0  0
   -1.9062   -0.5635   -0.7169 N   0  0  0  0  0  0  0  0  0  0  0  0
   -1.5446    0.5438   -1.5346 C   0  0  0  0  0  0  0  0  0  0  0  0
   -2.7817    0.9812   -2.2882 C   0  0  0  0  0  0  0  0  0  0  0  0
   -3.7736   -0.1405   -2.1316 C   0  0  0  0  0  0  0  0  0  0  0  0
   -3.1824   -1.0675   -1.0911 C   0  0  0  0  0  0  0  0  0  0  0  0
    0.3637   -2.4431    1.2307 C   0  0  0  0  0  0  0  0  0  0  0  0
    2.0793    0.6193   -0.3292 C   0  0  0  0  0  0  0  0  0  0  0  0
    3.3607    0.6812   -1.0457 C   0  0  0  0  0  0  0  0  0  0  0  0
    3.4735    0.5157   -2.3993 C   0  0  0  0  0  0  0  0  0  0  0  0
    4.7335    0.5899   -3.0026 C   0  0  0  0  0  0  0  0  0  0  0  0
    5.8663    0.8299   -2.2366 C   0  0  0  0  0  0  0  0  0  0  0  0
    5.7458    0.9958   -0.8732 C   0  0  0  0  0  0  0  0  0  0  0  0
    4.5018    0.9227   -0.2770 C   0  0  0  0  0  0  0  0  0  0  0  0
    7.1603    1.2982    0.1029 Cl  0  0  0  0  0  0  0  0  0  0  0  0
    7.4681    0.9309   -2.9537 Cl  0  0  0  0  0  0  0  0  0  0  0  0
   -0.1291    0.9384    0.8150 H   0  0  0  0  0  0  0  0  0  0  0  0
   -0.3912    1.1172    3.0412 H   0  0  0  0  0  0  0  0  0  0  0  0
    0.2595   -0.5250    3.1675 H   0  0  0  0  0  0  0  0  0  0  0  0
   -1.8153   -0.1449    4.3332 H   0  0  0  0  0  0  0  0  0  0  0  0
   -2.0200   -1.4701    3.1924 H   0  0  0  0  0  0  0  0  0  0  0  0
   -3.3694    1.1468    3.2785 H   0  0  0  0  0  0  0  0  0  0  0  0
   -3.9060   -0.3927    2.5564 H   0  0  0  0  0  0  0  0  0  0  0  0
   -2.1273    1.6737    1.2973 H   0  0  0  0  0  0  0  0  0  0  0  0
   -3.5818    0.8799    0.5972 H   0  0  0  0  0  0  0  0  0  0  0  0
   -2.1106   -1.3502    1.1591 H   0  0  0  0  0  0  0  0  0  0  0  0
   -1.0863    1.3862   -0.9760 H   0  0  0  0  0  0  0  0  0  0  0  0
   -0.8031    0.1984   -2.2842 H   0  0  0  0  0  0  0  0  0  0  0  0
   -3.2026    1.9359   -1.8663 H   0  0  0  0  0  0  0  0  0  0  0  0
   -2.5882    1.1719   -3.3646 H   0  0  0  0  0  0  0  0  0  0  0  0
   -4.7565    0.2820   -1.7801 H   0  0  0  0  0  0  0  0  0  0  0  0
   -3.9578   -0.6816   -3.0907 H   0  0  0  0  0  0  0  0  0  0  0  0
   -3.0442   -2.0762   -1.5722 H   0  0  0  0  0  0  0  0  0  0  0  0
   -3.8727   -1.2427   -0.2526 H   0  0  0  0  0  0  0  0  0  0  0  0
    0.4746   -3.0988    0.3274 H   0  0  0  0  0  0  0  0  0  0  0  0
   -0.6208   -2.6541    1.6442 H   0  0  0  0  0  0  0  0  0  0  0  0
    1.1889   -2.6868    1.9505 H   0  0  0  0  0  0  0  0  0  0  0  0
    2.0747    1.3324    0.5224 H   0  0  0  0  0  0  0  0  0  0  0  0
    1.2735    0.9469   -1.0091 H   0  0  0  0  0  0  0  0  0  0  0  0
    2.5887    0.3292   -2.9901 H   0  0  0  0  0  0  0  0  0  0  0  0
    4.8577    0.4627   -4.0774 H   0  0  0  0  0  0  0  0  0  0  0  0
    4.4212    1.0563    0.8062 H   0  0  0  0  0  0  0  0  0  0  0  0
  1  2  2  0
  2  3  1  0
  3  4  1  0
  4  5  1  0
  5  6  1  0
  6  7  1  0
  7  8  1  0
  8  9  1  0
  9 10  1  0
 10 11  1  0
 11 12  1  0
 12 13  1  0
 13 14  1  0
  3 15  1  0
  2 16  1  0
 16 17  1  0
 17 18  2  0
 18 19  1  0
 19 20  2  0
 20 21  1  0
 21 22  2  0
 21 23  1  0
 20 24  1  0
  9  4  1  0
 14 10  1  0
 22 17  1  0
  4 25  1  6
  5 26  1  0
  5 27  1  0
  6 28  1  0
  6 29  1  0
  7 30  1  0
  7 31  1  0
  8 32  1  0
  8 33  1  0
  9 34  1  1
 11 35  1  0
 11 36  1  0
 12 37  1  0
 12 38  1  0
 13 39  1  0
 13 40  1  0
 14 41  1  0
 14 42  1  0
 15 43  1  0
 15 44  1  0
 15 45  1  0
 16 46  1  0
 16 47  1  0
 18 48  1  0
 19 49  1  0
 22 50  1  0
M  END
>  <Ligand ID>  (1) 
LIG0004502

>  <Ligand>  (1) 
U50488

>  <SMILES>  (1) 
O=C(N([C@@H]1CCCC[C@H]1N1CCCC1)C)Cc1ccc(c(c1)Cl)Cl

>  <CID>  (1) 
3036289.0

>  <ChEMBL ID>  (1) 
nan

>  <InChiKey>  (1) 
VQLPLYSROCPWFF-QZTJIDSGSA-N

>  <InChi>  (1) 
InChI=1S/C19H26Cl2N2O/c1-22(19(24)13-14-8-9-15(20)16(21)12-14)17-6-2-3-7-18(17)23-10-4-5-11-23/h8-9,12,17-18H,2-7,10-11,13H2,1H3/t17-,18-/m1/s1

>  <IUPAC Name>  (1) 
2-(3,4-dichlorophenyl)-N-methyl-N-[(1R,2R)-2-pyrrolidin-1-ylcyclohexyl]acetamide

$$$$
