
     RDKit          3D

 71 72  0  0  0  0  0  0  0  0999 V2000
   -8.9792    3.4462   -1.7712 O   0  0  0  0  0  0  0  0  0  0  0  0
   -9.0537    2.7661   -0.5737 C   0  0  0  0  0  0  0  0  0  0  0  0
   -8.3606    1.4429   -0.6773 C   0  0  0  0  0  0  0  0  0  0  0  0
   -7.1002    1.2986   -0.0822 C   0  0  0  0  0  0  0  0  0  0  0  0
   -6.4180    0.0791   -0.1450 C   0  0  0  0  0  0  0  0  0  0  0  0
   -7.0023   -1.0056   -0.8097 C   0  0  0  0  0  0  0  0  0  0  0  0
   -8.2656   -0.8252   -1.3945 C   0  0  0  0  0  0  0  0  0  0  0  0
   -8.9362    0.3760   -1.3317 C   0  0  0  0  0  0  0  0  0  0  0  0
  -10.2055    0.5531   -1.9213 O   0  0  0  0  0  0  0  0  0  0  0  0
   -5.1145    0.0124    0.5229 C   0  0  2  0  0  0  0  0  0  0  0  0
   -4.0547   -0.3830   -0.4994 C   0  0  0  0  0  0  0  0  0  0  0  0
   -2.8133   -0.4570    0.2465 N   0  0  0  0  0  0  0  0  0  0  0  0
   -2.2399    0.7896    0.6208 C   0  0  0  0  0  0  0  0  0  0  0  0
   -1.1452    0.7524    1.6062 C   0  0  0  0  0  0  0  0  0  0  0  0
    0.0762   -0.0340    1.3280 C   0  0  0  0  0  0  0  0  0  0  0  0
   -0.2065   -1.4856    1.1482 C   0  0  0  0  0  0  0  0  0  0  0  0
    0.9979   -2.3683    1.0291 C   0  0  0  0  0  0  0  0  0  0  0  0
    1.8384   -1.9836   -0.1728 C   0  0  0  0  0  0  0  0  0  0  0  0
    2.9519   -2.7794   -0.2589 O   0  0  0  0  0  0  0  0  0  0  0  0
    3.8154   -2.8573    0.7513 C   0  0  0  0  0  0  0  0  0  0  0  0
    4.8118   -1.8607    1.1669 C   0  0  0  0  0  0  0  0  0  0  0  0
    4.5143   -0.6027    1.4909 O   0  0  0  0  0  0  0  0  0  0  0  0
    4.3114    0.3649    0.5667 C   0  0  0  0  0  0  0  0  0  0  0  0
    5.6776    0.5817   -0.0890 C   0  0  0  0  0  0  0  0  0  0  0  0
    6.4751    1.5659    0.4509 C   0  0  0  0  0  0  0  0  0  0  0  0
    7.7329    1.8282   -0.0590 C   0  0  0  0  0  0  0  0  0  0  0  0
    8.5160    2.8975    0.5714 C   0  0  0  0  0  0  0  0  0  0  0  0
    8.1600    1.0642   -1.1315 C   0  0  0  0  0  0  0  0  0  0  0  0
    7.3419    0.0795   -1.6608 C   0  0  0  0  0  0  0  0  0  0  0  0
    6.0768   -0.1911   -1.1562 C   0  0  0  0  0  0  0  0  0  0  0  0
    7.8899   -0.7101   -2.8243 C   0  0  0  0  0  0  0  0  0  0  0  0
   -5.0689   -1.0798    1.4561 O   0  0  0  0  0  0  0  0  0  0  0  0
   -8.1671    4.0274   -1.7530 H   0  0  0  0  0  0  0  0  0  0  0  0
  -10.0967    2.5976   -0.2774 H   0  0  0  0  0  0  0  0  0  0  0  0
   -8.5499    3.3769    0.2258 H   0  0  0  0  0  0  0  0  0  0  0  0
   -6.6368    2.1375    0.4387 H   0  0  0  0  0  0  0  0  0  0  0  0
   -6.4777   -1.9509   -0.8618 H   0  0  0  0  0  0  0  0  0  0  0  0
   -8.7474   -1.6421   -1.9184 H   0  0  0  0  0  0  0  0  0  0  0  0
  -10.9966    0.3788   -1.2804 H   0  0  0  0  0  0  0  0  0  0  0  0
   -4.8990    0.8966    1.0938 H   0  0  0  0  0  0  0  0  0  0  0  0
   -4.2676   -1.3316   -0.9833 H   0  0  0  0  0  0  0  0  0  0  0  0
   -3.9098    0.4087   -1.2847 H   0  0  0  0  0  0  0  0  0  0  0  0
   -2.9718   -1.0078    1.1179 H   0  0  0  0  0  0  0  0  0  0  0  0
   -3.0326    1.4906    1.0011 H   0  0  0  0  0  0  0  0  0  0  0  0
   -1.8437    1.3448   -0.2795 H   0  0  0  0  0  0  0  0  0  0  0  0
   -0.8067    1.8157    1.8478 H   0  0  0  0  0  0  0  0  0  0  0  0
   -1.5174    0.3999    2.6226 H   0  0  0  0  0  0  0  0  0  0  0  0
    0.8471    0.1481    2.1143 H   0  0  0  0  0  0  0  0  0  0  0  0
    0.5449    0.4201    0.4039 H   0  0  0  0  0  0  0  0  0  0  0  0
   -0.8252   -1.5514    0.1917 H   0  0  0  0  0  0  0  0  0  0  0  0
   -0.8473   -1.9144    1.9272 H   0  0  0  0  0  0  0  0  0  0  0  0
    0.7486   -3.4346    0.9613 H   0  0  0  0  0  0  0  0  0  0  0  0
    1.6320   -2.2017    1.9483 H   0  0  0  0  0  0  0  0  0  0  0  0
    1.8700   -0.9386   -0.2342 H   0  0  0  0  0  0  0  0  0  0  0  0
    1.2132   -2.3122   -1.0885 H   0  0  0  0  0  0  0  0  0  0  0  0
    4.4612   -3.8062    0.5096 H   0  0  0  0  0  0  0  0  0  0  0  0
    3.2938   -3.3027    1.6976 H   0  0  0  0  0  0  0  0  0  0  0  0
    5.7662   -1.9351    0.5286 H   0  0  0  0  0  0  0  0  0  0  0  0
    5.2539   -2.3150    2.1558 H   0  0  0  0  0  0  0  0  0  0  0  0
    3.6704    0.2044   -0.2877 H   0  0  0  0  0  0  0  0  0  0  0  0
    4.0492    1.3194    1.0834 H   0  0  0  0  0  0  0  0  0  0  0  0
    6.0985    2.1536    1.3104 H   0  0  0  0  0  0  0  0  0  0  0  0
    9.4749    2.9790    0.0322 H   0  0  0  0  0  0  0  0  0  0  0  0
    7.9931    3.8736    0.4647 H   0  0  0  0  0  0  0  0  0  0  0  0
    8.6167    2.7120    1.6402 H   0  0  0  0  0  0  0  0  0  0  0  0
    9.1285    1.2444   -1.5399 H   0  0  0  0  0  0  0  0  0  0  0  0
    5.4573   -0.9579   -1.5967 H   0  0  0  0  0  0  0  0  0  0  0  0
    8.3537   -0.0724   -3.5769 H   0  0  0  0  0  0  0  0  0  0  0  0
    7.0342   -1.2712   -3.2439 H   0  0  0  0  0  0  0  0  0  0  0  0
    8.5598   -1.4850   -2.3848 H   0  0  0  0  0  0  0  0  0  0  0  0
   -5.6975   -1.7728    1.0781 H   0  0  0  0  0  0  0  0  0  0  0  0
  1  2  1  0
  2  3  1  0
  3  4  2  0
  4  5  1  0
  5  6  2  0
  6  7  1  0
  7  8  2  0
  8  9  1  0
  5 10  1  0
 10 11  1  0
 11 12  1  0
 12 13  1  0
 13 14  1  0
 14 15  1  0
 15 16  1  0
 16 17  1  0
 17 18  1  0
 18 19  1  0
 19 20  1  0
 20 21  1  0
 21 22  1  0
 22 23  1  0
 23 24  1  0
 24 25  2  0
 25 26  1  0
 26 27  1  0
 26 28  2  0
 28 29  1  0
 29 30  2  0
 29 31  1  0
 10 32  1  0
  8  3  1  0
 30 24  1  0
  1 33  1  0
  2 34  1  0
  2 35  1  0
  4 36  1  0
  6 37  1  0
  7 38  1  0
  9 39  1  0
 10 40  1  1
 11 41  1  0
 11 42  1  0
 12 43  1  0
 13 44  1  0
 13 45  1  0
 14 46  1  0
 14 47  1  0
 15 48  1  0
 15 49  1  0
 16 50  1  0
 16 51  1  0
 17 52  1  0
 17 53  1  0
 18 54  1  0
 18 55  1  0
 20 56  1  0
 20 57  1  0
 21 58  1  0
 21 59  1  0
 23 60  1  0
 23 61  1  0
 25 62  1  0
 27 63  1  0
 27 64  1  0
 27 65  1  0
 28 66  1  0
 30 67  1  0
 31 68  1  0
 31 69  1  0
 31 70  1  0
 32 71  1  0
M  END
>  <Ligand ID>  (1) 
LIG0003745

>  <Ligand>  (1) 
CHEMBL1084891

>  <SMILES>  (1) 
OCc1cc(ccc1O)[C@H](CNCCCCCCOCCOCc1cc(C)cc(c1)C)O

>  <CID>  (1) 
10225563.0

>  <ChEMBL ID>  (1) 
nan

>  <InChiKey>  (1) 
YGPLZKHGYBRUPZ-SANMLTNESA-N

>  <InChi>  (1) 
InChI=1S/C26H39NO5/c1-20-13-21(2)15-22(14-20)19-32-12-11-31-10-6-4-3-5-9-27-17-26(30)23-7-8-25(29)24(16-23)18-28/h7-8,13-16,26-30H,3-6,9-12,17-19H2,1-2H3/t26-/m0/s1

>  <IUPAC Name>  (1) 
4-[(1R)-2-[6-[2-[(3,5-dimethylphenyl)methoxy]ethoxy]hexylamino]-1-hydroxyethyl]-2-(hydroxymethyl)phenol

$$$$
