
     RDKit          3D

 56 58  0  0  0  0  0  0  0  0999 V2000
   -8.4191    1.4632    1.4323 O   0  0  0  0  0  0  0  0  0  0  0  0
   -8.9005    1.9567    0.2351 C   0  0  0  0  0  0  0  0  0  0  0  0
   -9.3382    3.1433    0.2040 O   0  0  0  0  0  0  0  0  0  0  0  0
   -8.9443    1.1919   -1.0294 C   0  0  0  0  0  0  0  0  0  0  0  0
   -8.4216   -0.0983   -0.9453 O   0  0  0  0  0  0  0  0  0  0  0  0
   -7.1257   -0.4373   -0.6114 C   0  0  0  0  0  0  0  0  0  0  0  0
   -6.7987   -1.7699   -0.5743 C   0  0  0  0  0  0  0  0  0  0  0  0
   -5.5307   -2.1911   -0.2520 C   0  0  0  0  0  0  0  0  0  0  0  0
   -4.4925   -1.2875    0.0589 C   0  0  0  0  0  0  0  0  0  0  0  0
   -4.8381    0.0285    0.0166 C   0  0  0  0  0  0  0  0  0  0  0  0
   -6.1344    0.4649   -0.3130 C   0  0  0  0  0  0  0  0  0  0  0  0
   -3.2295   -1.8800    0.3852 C   0  0  0  0  0  0  0  0  0  0  0  0
   -3.3347   -3.0628    0.9386 O   0  0  0  0  0  0  0  0  0  0  0  0
   -1.8862   -1.4362    0.2188 C   0  0  0  0  0  0  0  0  0  0  0  0
   -0.9223   -2.4448    0.0139 C   0  0  0  0  0  0  0  0  0  0  0  0
    0.4072   -2.1831   -0.1492 C   0  0  0  0  0  0  0  0  0  0  0  0
    0.8783   -0.8877   -0.1200 C   0  0  0  0  0  0  0  0  0  0  0  0
   -0.0246    0.1087    0.0759 C   0  0  0  0  0  0  0  0  0  0  0  0
   -1.3860   -0.1673    0.2426 C   0  0  0  0  0  0  0  0  0  0  0  0
    2.3118   -0.5381   -0.2927 C   0  0  0  0  0  0  0  0  0  0  0  0
    2.9411   -0.5380    1.0846 C   0  0  0  0  0  0  0  0  0  0  0  0
    4.3488   -0.2048    1.0291 N   0  0  0  0  0  0  0  0  0  0  0  0
    5.1673   -1.1974    0.3966 C   0  0  0  0  0  0  0  0  0  0  0  0
    6.6023   -0.6737    0.4387 C   0  0  1  0  0  0  0  0  0  0  0  0
    6.5959    0.7199   -0.1129 C   0  0  0  0  0  0  0  0  0  0  0  0
    7.6410    1.5525    0.3016 C   0  0  0  0  0  0  0  0  0  0  0  0
    7.7225    2.8705   -0.1574 C   0  0  0  0  0  0  0  0  0  0  0  0
    6.7338    3.2943   -1.0244 C   0  0  0  0  0  0  0  0  0  0  0  0
    5.7010    2.4764   -1.4359 C   0  0  0  0  0  0  0  0  0  0  0  0
    5.6230    1.1693   -0.9789 C   0  0  0  0  0  0  0  0  0  0  0  0
    4.4712    3.0889   -2.5482 Cl  0  0  0  0  0  0  0  0  0  0  0  0
    6.8803   -0.5244    1.8117 O   0  0  0  0  0  0  0  0  0  0  0  0
   -8.0043    2.0537    2.1466 H   0  0  0  0  0  0  0  0  0  0  0  0
   -8.5150    1.7786   -1.8746 H   0  0  0  0  0  0  0  0  0  0  0  0
  -10.0305    1.0966   -1.2872 H   0  0  0  0  0  0  0  0  0  0  0  0
   -7.5615   -2.5029   -0.8058 H   0  0  0  0  0  0  0  0  0  0  0  0
   -5.3630   -3.2600   -0.2491 H   0  0  0  0  0  0  0  0  0  0  0  0
   -4.1516    0.7951    0.2386 H   0  0  0  0  0  0  0  0  0  0  0  0
   -6.3529    1.5131   -0.3371 H   0  0  0  0  0  0  0  0  0  0  0  0
   -1.2191   -3.4953   -0.0227 H   0  0  0  0  0  0  0  0  0  0  0  0
    1.1308   -2.9730   -0.3054 H   0  0  0  0  0  0  0  0  0  0  0  0
    0.3311    1.1314    0.1008 H   0  0  0  0  0  0  0  0  0  0  0  0
   -2.0031    0.6736    0.3994 H   0  0  0  0  0  0  0  0  0  0  0  0
    2.3587    0.4623   -0.7643 H   0  0  0  0  0  0  0  0  0  0  0  0
    2.7485   -1.3420   -0.9369 H   0  0  0  0  0  0  0  0  0  0  0  0
    2.7863   -1.4807    1.6172 H   0  0  0  0  0  0  0  0  0  0  0  0
    2.4517    0.2666    1.6680 H   0  0  0  0  0  0  0  0  0  0  0  0
    4.7071   -0.0896    2.0011 H   0  0  0  0  0  0  0  0  0  0  0  0
    5.1844   -2.1633    0.9426 H   0  0  0  0  0  0  0  0  0  0  0  0
    4.9317   -1.4095   -0.6540 H   0  0  0  0  0  0  0  0  0  0  0  0
    7.3001   -1.3443   -0.0716 H   0  0  0  0  0  0  0  0  0  0  0  0
    8.3982    1.1654    0.9901 H   0  0  0  0  0  0  0  0  0  0  0  0
    8.5378    3.5007    0.1736 H   0  0  0  0  0  0  0  0  0  0  0  0
    6.7689    4.3069   -1.3955 H   0  0  0  0  0  0  0  0  0  0  0  0
    4.8211    0.5166   -1.2918 H   0  0  0  0  0  0  0  0  0  0  0  0
    6.4461   -1.2066    2.3691 H   0  0  0  0  0  0  0  0  0  0  0  0
  1  2  1  0
  2  3  2  0
  2  4  1  0
  4  5  1  0
  5  6  1  0
  6  7  2  0
  7  8  1  0
  8  9  2  0
  9 10  1  0
 10 11  2  0
  9 12  1  0
 12 13  2  0
 12 14  1  0
 14 15  2  0
 15 16  1  0
 16 17  2  0
 17 18  1  0
 18 19  2  0
 17 20  1  0
 20 21  1  0
 21 22  1  0
 22 23  1  0
 23 24  1  0
 24 25  1  0
 25 26  2  0
 26 27  1  0
 27 28  2  0
 28 29  1  0
 29 30  2  0
 29 31  1  0
 24 32  1  0
 11  6  1  0
 19 14  1  0
 30 25  1  0
  1 33  1  0
  4 34  1  0
  4 35  1  0
  7 36  1  0
  8 37  1  0
 10 38  1  0
 11 39  1  0
 15 40  1  0
 16 41  1  0
 18 42  1  0
 19 43  1  0
 20 44  1  0
 20 45  1  0
 21 46  1  0
 21 47  1  0
 22 48  1  0
 23 49  1  0
 23 50  1  0
 24 51  1  6
 26 52  1  0
 27 53  1  0
 28 54  1  0
 30 55  1  0
 32 56  1  0
M  END
>  <Ligand ID>  (1) 
LIG0005818

>  <Ligand>  (1) 
CHEMBL408958

>  <SMILES>  (1) 
OC(=O)COc1ccc(cc1)C(=O)c1ccc(cc1)CCNC[C@@H](c1cccc(c1)Cl)O

>  <CID>  (1) 
24824227.0

>  <ChEMBL ID>  (1) 
nan

>  <InChiKey>  (1) 
DWACOCWRGJMZMP-QHCPKHFHSA-N

>  <InChi>  (1) 
InChI=1S/C25H24ClNO5/c26-21-3-1-2-20(14-21)23(28)15-27-13-12-17-4-6-18(7-5-17)25(31)19-8-10-22(11-9-19)32-16-24(29)30/h1-11,14,23,27-28H,12-13,15-16H2,(H,29,30)/t23-/m0/s1

>  <IUPAC Name>  (1) 
2-[4-[4-[2-[[(2R)-2-(3-chlorophenyl)-2-hydroxyethyl]amino]ethyl]benzoyl]phenoxy]acetic acid

$$$$
