
     RDKit          3D

152157  0  0  0  0  0  0  0  0999 V2000
   10.3905    0.7476    1.0715 C   0  0  0  0  0  0  0  0  0  0  0  0
   10.5823   -0.6254    1.6093 C   0  0  0  0  0  0  0  0  0  0  0  0
   10.1664   -1.7665    0.7673 C   0  0  0  0  0  0  0  0  0  0  0  0
    8.7566   -1.9118    0.3728 C   0  0  0  0  0  0  0  0  0  0  0  0
    8.1224   -0.8427   -0.4641 C   0  0  2  0  0  0  0  0  0  0  0  0
    6.6797   -1.1997   -0.7592 C   0  0  0  0  0  0  0  0  0  0  0  0
    6.3871   -1.3510   -1.9929 O   0  0  0  0  0  0  0  0  0  0  0  0
    5.7100   -1.3647    0.2348 N   0  0  0  0  0  0  0  0  0  0  0  0
    4.3168   -1.7131    0.0134 C   0  0  1  0  0  0  0  0  0  0  0  0
    4.1457   -3.1829    0.0400 C   0  0  0  0  0  0  0  0  0  0  0  0
    2.7879   -3.7065   -0.2255 C   0  0  0  0  0  0  0  0  0  0  0  0
    1.7053   -3.2497    0.1510 O   0  0  0  0  0  0  0  0  0  0  0  0
    2.5903   -4.9102   -1.0393 N   0  0  0  0  0  0  0  0  0  0  0  0
    1.2526   -5.4165   -1.2789 C   0  0  0  0  0  0  0  0  0  0  0  0
    0.5754   -5.9810   -0.0845 C   0  0  0  0  0  0  0  0  0  0  0  0
   -0.8924   -6.3230   -0.3338 C   0  0  0  0  0  0  0  0  0  0  0  0
   -1.7565   -5.1053   -0.1836 C   0  0  0  0  0  0  0  0  0  0  0  0
   -3.2382   -5.4174   -0.5075 C   0  0  2  0  0  0  0  0  0  0  0  0
   -4.0173   -4.3846    0.1386 N   0  0  0  0  0  0  0  0  0  0  0  0
   -4.4902   -3.1635   -0.4339 C   0  0  0  0  0  0  0  0  0  0  0  0
   -4.2279   -2.9891   -1.6139 O   0  0  0  0  0  0  0  0  0  0  0  0
   -5.2313   -2.2658    0.4841 C   0  0  1  0  0  0  0  0  0  0  0  0
   -5.3077   -0.8822   -0.0642 N   0  0  0  0  0  0  0  0  0  0  0  0
   -4.1779   -0.0316   -0.0919 C   0  0  0  0  0  0  0  0  0  0  0  0
   -3.0925   -0.5772    0.2023 O   0  0  0  0  0  0  0  0  0  0  0  0
   -4.2545    1.4395   -0.4666 C   0  0  1  0  0  0  0  0  0  0  0  0
   -2.9676    1.9111   -0.8959 N   0  0  0  0  0  0  0  0  0  0  0  0
   -1.8979    2.2323    0.0419 C   0  0  0  0  0  0  0  0  0  0  0  0
   -2.2085    2.0719    1.2211 O   0  0  0  0  0  0  0  0  0  0  0  0
   -0.5742    2.6989   -0.4600 C   0  0  2  0  0  0  0  0  0  0  0  0
    0.3226    2.5978    0.6835 N   0  0  0  0  0  0  0  0  0  0  0  0
    1.4085    1.7017    0.5423 C   0  0  0  0  0  0  0  0  0  0  0  0
    1.5651    1.1977   -0.5849 O   0  0  0  0  0  0  0  0  0  0  0  0
    2.3939    1.2913    1.5846 C   0  0  1  0  0  0  0  0  0  0  0  0
    3.3706    0.5294    0.8227 N   0  0  0  0  0  0  0  0  0  0  0  0
    3.3412   -0.9310    0.7579 C   0  0  0  0  0  0  0  0  0  0  0  0
    2.3719   -1.3464    1.4097 O   0  0  0  0  0  0  0  0  0  0  0  0
    4.3965    1.1152    0.0280 C   0  0  0  0  0  0  0  0  0  0  0  0
    2.8360    2.2365    2.5748 C   0  0  0  0  0  0  0  0  0  0  0  0
    3.5120    3.4701    2.2028 C   0  0  0  0  0  0  0  0  0  0  0  0
    2.9069    4.6515    1.9496 N   0  0  0  0  0  0  0  0  0  0  0  0
    3.8369    5.5950    1.6461 C   0  0  0  0  0  0  0  0  0  0  0  0
    5.0620    5.0164    1.7042 N   0  0  0  0  0  0  0  0  0  0  0  0
    4.8735    3.7328    2.0400 C   0  0  0  0  0  0  0  0  0  0  0  0
   -0.5824    3.9791   -1.1868 C   0  0  0  0  0  0  0  0  0  0  0  0
   -1.0428    5.1844   -0.5207 C   0  0  0  0  0  0  0  0  0  0  0  0
   -2.4007    5.5483   -0.4955 C   0  0  0  0  0  0  0  0  0  0  0  0
   -2.8102    6.7260    0.1068 C   0  0  0  0  0  0  0  0  0  0  0  0
   -1.8659    7.5636    0.6952 C   0  0  0  0  0  0  0  0  0  0  0  0
   -0.5063    7.2252    0.6849 C   0  0  0  0  0  0  0  0  0  0  0  0
   -0.1336    6.0280    0.0690 C   0  0  0  0  0  0  0  0  0  0  0  0
    0.4574    8.0281    1.2440 C   0  0  0  0  0  0  0  0  0  0  0  0
    0.0480    9.2071    1.8331 C   0  0  0  0  0  0  0  0  0  0  0  0
   -1.2791    9.5635    1.8571 C   0  0  0  0  0  0  0  0  0  0  0  0
   -2.2535    8.7496    1.2896 C   0  0  0  0  0  0  0  0  0  0  0  0
   -5.4002    1.7696   -1.3244 C   0  0  0  0  0  0  0  0  0  0  0  0
   -5.5121    3.2393   -1.7184 C   0  0  0  0  0  0  0  0  0  0  0  0
   -6.7996    3.2989   -2.5575 C   0  0  0  0  0  0  0  0  0  0  0  0
   -7.0101    4.6381   -2.9822 N   0  0  0  0  0  0  0  0  0  0  0  0
   -7.2652    5.6226   -2.1910 C   0  0  0  0  0  0  0  0  0  0  0  0
   -7.3700    5.5139   -0.7883 N   0  0  0  0  0  0  0  0  0  0  0  0
   -7.4656    6.9160   -2.7593 N   0  0  0  0  0  0  0  0  0  0  0  0
   -6.6090   -2.6411    0.8325 C   0  0  0  0  0  0  0  0  0  0  0  0
   -6.8941   -3.9101    1.4644 C   0  0  0  0  0  0  0  0  0  0  0  0
   -7.0866   -4.1279    2.8353 C   0  0  0  0  0  0  0  0  0  0  0  0
   -7.3335   -5.4369    3.0159 N   0  0  0  0  0  0  0  0  0  0  0  0
   -7.3139   -6.0917    1.8462 C   0  0  0  0  0  0  0  0  0  0  0  0
   -7.0442   -5.1745    0.8749 C   0  0  0  0  0  0  0  0  0  0  0  0
   -6.9805   -5.5916   -0.4649 C   0  0  0  0  0  0  0  0  0  0  0  0
   -7.1993   -6.9293   -0.7087 C   0  0  0  0  0  0  0  0  0  0  0  0
   -7.4734   -7.8642    0.2569 C   0  0  0  0  0  0  0  0  0  0  0  0
   -7.5352   -7.4450    1.5845 C   0  0  0  0  0  0  0  0  0  0  0  0
   -3.5326   -6.7785   -0.0963 C   0  0  0  0  0  0  0  0  0  0  0  0
   -4.3511   -6.9442    0.8731 O   0  0  0  0  0  0  0  0  0  0  0  0
   -3.0095   -7.9588   -0.6579 N   0  0  0  0  0  0  0  0  0  0  0  0
    8.7586   -0.8758   -1.7868 N   0  0  0  0  0  0  0  0  0  0  0  0
    9.1137    0.2950   -2.5059 C   0  0  0  0  0  0  0  0  0  0  0  0
    8.9325    1.4580   -2.1206 O   0  0  0  0  0  0  0  0  0  0  0  0
    9.7654    0.0593   -3.8433 C   0  0  0  0  0  0  0  0  0  0  0  0
    9.5248    1.3099    1.4764 H   0  0  0  0  0  0  0  0  0  0  0  0
   11.2764    1.3760    1.4190 H   0  0  0  0  0  0  0  0  0  0  0  0
   10.4832    0.7492   -0.0205 H   0  0  0  0  0  0  0  0  0  0  0  0
   11.7001   -0.7603    1.7826 H   0  0  0  0  0  0  0  0  0  0  0  0
   10.1275   -0.7225    2.6420 H   0  0  0  0  0  0  0  0  0  0  0  0
   10.8209   -1.8552   -0.1456 H   0  0  0  0  0  0  0  0  0  0  0  0
   10.4525   -2.7038    1.3504 H   0  0  0  0  0  0  0  0  0  0  0  0
    8.7057   -2.8451   -0.2863 H   0  0  0  0  0  0  0  0  0  0  0  0
    8.0972   -2.2133    1.2334 H   0  0  0  0  0  0  0  0  0  0  0  0
    8.1467    0.1583   -0.0292 H   0  0  0  0  0  0  0  0  0  0  0  0
    5.9841   -1.2325    1.2455 H   0  0  0  0  0  0  0  0  0  0  0  0
    4.1362   -1.4994   -1.1391 H   0  0  0  0  0  0  0  0  0  0  0  0
    4.8151   -3.5909   -0.7905 H   0  0  0  0  0  0  0  0  0  0  0  0
    4.5756   -3.6422    0.9727 H   0  0  0  0  0  0  0  0  0  0  0  0
    3.4590   -5.3040   -1.3857 H   0  0  0  0  0  0  0  0  0  0  0  0
    0.5939   -4.6433   -1.7179 H   0  0  0  0  0  0  0  0  0  0  0  0
    1.3457   -6.2144   -2.0780 H   0  0  0  0  0  0  0  0  0  0  0  0
    0.5425   -5.1782    0.6977 H   0  0  0  0  0  0  0  0  0  0  0  0
    1.1274   -6.8122    0.3929 H   0  0  0  0  0  0  0  0  0  0  0  0
   -1.1568   -7.0205    0.4871 H   0  0  0  0  0  0  0  0  0  0  0  0
   -1.0333   -6.8313   -1.2869 H   0  0  0  0  0  0  0  0  0  0  0  0
   -1.7088   -4.6884    0.8548 H   0  0  0  0  0  0  0  0  0  0  0  0
   -1.3904   -4.2800   -0.8604 H   0  0  0  0  0  0  0  0  0  0  0  0
   -3.2659   -5.2856   -1.6236 H   0  0  0  0  0  0  0  0  0  0  0  0
   -4.2624   -4.5283    1.1232 H   0  0  0  0  0  0  0  0  0  0  0  0
   -4.5781   -2.1400    1.3748 H   0  0  0  0  0  0  0  0  0  0  0  0
   -6.1697   -0.4946   -0.4501 H   0  0  0  0  0  0  0  0  0  0  0  0
   -4.4832    1.8777    0.5771 H   0  0  0  0  0  0  0  0  0  0  0  0
   -2.7039    2.0499   -1.8691 H   0  0  0  0  0  0  0  0  0  0  0  0
   -0.3006    1.9159   -1.2338 H   0  0  0  0  0  0  0  0  0  0  0  0
    0.2492    3.0971    1.5576 H   0  0  0  0  0  0  0  0  0  0  0  0
    1.7402    0.5224    2.1596 H   0  0  0  0  0  0  0  0  0  0  0  0
    4.5248    0.6107   -0.9634 H   0  0  0  0  0  0  0  0  0  0  0  0
    5.3410    1.1558    0.5942 H   0  0  0  0  0  0  0  0  0  0  0  0
    4.1414    2.1594   -0.2515 H   0  0  0  0  0  0  0  0  0  0  0  0
    1.9451    2.5411    3.1918 H   0  0  0  0  0  0  0  0  0  0  0  0
    3.4570    1.6590    3.3435 H   0  0  0  0  0  0  0  0  0  0  0  0
    1.8620    4.7835    1.9932 H   0  0  0  0  0  0  0  0  0  0  0  0
    3.6479    6.6508    1.3996 H   0  0  0  0  0  0  0  0  0  0  0  0
    5.6756    3.0038    2.1626 H   0  0  0  0  0  0  0  0  0  0  0  0
    0.4769    4.1167   -1.5860 H   0  0  0  0  0  0  0  0  0  0  0  0
   -1.1514    3.8033   -2.1579 H   0  0  0  0  0  0  0  0  0  0  0  0
   -3.1640    4.9252   -0.9426 H   0  0  0  0  0  0  0  0  0  0  0  0
   -3.8510    7.0388    0.1450 H   0  0  0  0  0  0  0  0  0  0  0  0
    0.9300    5.7358    0.0438 H   0  0  0  0  0  0  0  0  0  0  0  0
    1.4725    7.6918    1.1860 H   0  0  0  0  0  0  0  0  0  0  0  0
    0.8170    9.8425    2.2686 H   0  0  0  0  0  0  0  0  0  0  0  0
   -1.6182   10.4862    2.3183 H   0  0  0  0  0  0  0  0  0  0  0  0
   -3.2888    8.9993    1.2877 H   0  0  0  0  0  0  0  0  0  0  0  0
   -6.3712    1.4362   -0.8621 H   0  0  0  0  0  0  0  0  0  0  0  0
   -5.3572    1.2054   -2.2943 H   0  0  0  0  0  0  0  0  0  0  0  0
   -4.6869    3.5543   -2.3643 H   0  0  0  0  0  0  0  0  0  0  0  0
   -5.5806    3.9036   -0.8393 H   0  0  0  0  0  0  0  0  0  0  0  0
   -7.5964    2.9209   -1.8584 H   0  0  0  0  0  0  0  0  0  0  0  0
   -6.6624    2.6253   -3.4148 H   0  0  0  0  0  0  0  0  0  0  0  0
   -6.7099    6.1098   -0.2132 H   0  0  0  0  0  0  0  0  0  0  0  0
   -8.0414    4.8970   -0.2829 H   0  0  0  0  0  0  0  0  0  0  0  0
   -8.1085    7.0673   -3.5689 H   0  0  0  0  0  0  0  0  0  0  0  0
   -6.9381    7.7173   -2.3228 H   0  0  0  0  0  0  0  0  0  0  0  0
   -7.2767   -2.5038   -0.0824 H   0  0  0  0  0  0  0  0  0  0  0  0
   -7.0119   -1.8126    1.5138 H   0  0  0  0  0  0  0  0  0  0  0  0
   -7.0439   -3.3775    3.6284 H   0  0  0  0  0  0  0  0  0  0  0  0
   -7.5121   -5.8439    3.9547 H   0  0  0  0  0  0  0  0  0  0  0  0
   -6.7662   -4.8913   -1.2428 H   0  0  0  0  0  0  0  0  0  0  0  0
   -7.1570   -7.2961   -1.7413 H   0  0  0  0  0  0  0  0  0  0  0  0
   -7.6454   -8.9232    0.0391 H   0  0  0  0  0  0  0  0  0  0  0  0
   -7.7425   -8.1050    2.3901 H   0  0  0  0  0  0  0  0  0  0  0  0
   -2.9686   -8.1243   -1.6985 H   0  0  0  0  0  0  0  0  0  0  0  0
   -2.6249   -8.7659   -0.0937 H   0  0  0  0  0  0  0  0  0  0  0  0
    8.9296   -1.8541   -2.1639 H   0  0  0  0  0  0  0  0  0  0  0  0
   10.7713   -0.3427   -3.5944 H   0  0  0  0  0  0  0  0  0  0  0  0
    9.1826   -0.7623   -4.3467 H   0  0  0  0  0  0  0  0  0  0  0  0
    9.8022    0.9497   -4.4729 H   0  0  0  0  0  0  0  0  0  0  0  0
  1  2  1  0
  2  3  1  0
  3  4  1  0
  4  5  1  0
  5  6  1  0
  6  7  2  0
  6  8  1  0
  8  9  1  0
  9 10  1  0
 10 11  1  0
 11 12  2  0
 11 13  1  0
 13 14  1  0
 14 15  1  0
 15 16  1  0
 16 17  1  0
 17 18  1  0
 18 19  1  0
 19 20  1  0
 20 21  2  0
 20 22  1  0
 22 23  1  0
 23 24  1  0
 24 25  2  0
 24 26  1  0
 26 27  1  0
 27 28  1  0
 28 29  2  0
 28 30  1  0
 30 31  1  0
 31 32  1  0
 32 33  2  0
 32 34  1  0
 34 35  1  0
 35 36  1  0
 36 37  2  0
 35 38  1  0
 34 39  1  0
 39 40  1  0
 40 41  1  0
 41 42  1  0
 42 43  2  0
 43 44  1  0
 30 45  1  0
 45 46  1  0
 46 47  2  0
 47 48  1  0
 48 49  2  0
 49 50  1  0
 50 51  2  0
 50 52  1  0
 52 53  2  0
 53 54  1  0
 54 55  2  0
 26 56  1  0
 56 57  1  0
 57 58  1  0
 58 59  1  0
 59 60  2  3
 60 61  1  0
 60 62  1  0
 22 63  1  0
 63 64  1  0
 64 65  2  0
 65 66  1  0
 66 67  1  0
 67 68  2  0
 68 69  1  0
 69 70  2  0
 70 71  1  0
 71 72  2  0
 18 73  1  0
 73 74  2  0
 73 75  1  0
  5 76  1  0
 76 77  1  0
 77 78  2  0
 77 79  1  0
 36  9  1  0
 44 40  2  0
 51 46  1  0
 68 64  1  0
 55 49  1  0
 72 67  1  0
  1 80  1  0
  1 81  1  0
  1 82  1  0
  2 83  1  0
  2 84  1  0
  3 85  1  0
  3 86  1  0
  4 87  1  0
  4 88  1  0
  5 89  1  1
  8 90  1  0
  9 91  1  6
 10 92  1  0
 10 93  1  0
 13 94  1  0
 14 95  1  0
 14 96  1  0
 15 97  1  0
 15 98  1  0
 16 99  1  0
 16100  1  0
 17101  1  0
 17102  1  0
 18103  1  6
 19104  1  0
 22105  1  1
 23106  1  0
 26107  1  1
 27108  1  0
 30109  1  6
 31110  1  0
 34111  1  1
 38112  1  0
 38113  1  0
 38114  1  0
 39115  1  0
 39116  1  0
 41117  1  0
 42118  1  0
 44119  1  0
 45120  1  0
 45121  1  0
 47122  1  0
 48123  1  0
 51124  1  0
 52125  1  0
 53126  1  0
 54127  1  0
 55128  1  0
 56129  1  0
 56130  1  0
 57131  1  0
 57132  1  0
 58133  1  0
 58134  1  0
 61135  1  0
 61136  1  0
 62137  1  0
 62138  1  0
 63139  1  0
 63140  1  0
 65141  1  0
 66142  1  0
 69143  1  0
 70144  1  0
 71145  1  0
 72146  1  0
 75147  1  0
 75148  1  0
 76149  1  0
 79150  1  0
 79151  1  0
 79152  1  0
M  END
>  <Ligand ID>  (1) 
LIG0001830

>  <Ligand>  (1) 
CHEMBL3600835

>  <SMILES>  (1) 
CCCC[C@H](C(=O)N[C@H]1CC(=O)NCCCC[C@H](NC(=O)[C@@H](NC(=O)[C@@H](NC(=O)[C@H](NC(=O)[C@@H](N(C1=O)C)Cc1[nH]cnc1)Cc1ccc2c(c1)cccc2)CCCN=C(N)N)Cc1c[nH]c2c1cccc2)C(=O)N)NC(=O)C

>  <CID>  (1) 
122184574.0

>  <ChEMBL ID>  (1) 
nan

>  <InChiKey>  (1) 
BBJOQSQVKOIBHK-PIHYJXJMSA-N

>  <InChi>  (1) 
InChI=1S/C55H73N15O9/c1-4-5-16-41(64-32(2)71)49(74)69-45-28-47(72)60-22-11-10-18-40(48(56)73)65-52(77)44(26-36-29-62-39-17-9-8-15-38(36)39)67-50(75)42(19-12-23-61-55(57)58)66-51(76)43(25-33-20-21-34-13-6-7-14-35(34)24-33)68-53(78)46(70(3)54(45)79)27-37-30-59-31-63-37/h6-9,13-15,17,20-21,24,29-31,40-46,62H,4-5,10-12,16,18-19,22-23,25-28H2,1-3H3,(H2,56,73)(H,59,63)(H,60,72)(H,64,71)(H,65,77)(H,66,76)(H,67,75)(H,68,78)(H,69,74)(H4,57,58,61)/t40-,41+,42-,43+,44-,45-,46-/m0/s1

>  <IUPAC Name>  (1) 
(3S,6S,9R,12S,15S,23S)-15-[[(2R)-2-acetamidohexanoyl]amino]-6-[3-(diaminomethylideneamino)propyl]-12-(1H-imidazol-5-ylmethyl)-3-(1H-indol-3-ylmethyl)-13-methyl-9-(naphthalen-2-ylmethyl)-2,5,8,11,14,17-hexaoxo-1,4,7,10,13,18-hexazacyclotricosane-23-carboxamide

$$$$
