
     RDKit          3D

 53 57  0  0  0  0  0  0  0  0999 V2000
   -5.2289    4.4611    2.4630 Cl  0  0  0  0  0  0  0  0  0  0  0  0
   -4.8133    3.0237    1.5287 C   0  0  0  0  0  0  0  0  0  0  0  0
   -5.4243    2.7902    0.2965 C   0  0  0  0  0  0  0  0  0  0  0  0
   -5.0984    1.6532   -0.4476 C   0  0  0  0  0  0  0  0  0  0  0  0
   -4.1655    0.7546    0.0397 C   0  0  0  0  0  0  0  0  0  0  0  0
   -3.5663    1.0067    1.2738 C   0  0  0  0  0  0  0  0  0  0  0  0
   -3.8712    2.1211    2.0261 C   0  0  0  0  0  0  0  0  0  0  0  0
   -3.7748   -0.4766   -0.7085 C   0  0  0  0  0  0  0  0  0  0  0  0
   -2.6317   -0.2558   -1.6183 C   0  0  0  0  0  0  0  0  0  0  0  0
   -2.8823   -0.1395   -2.9900 C   0  0  0  0  0  0  0  0  0  0  0  0
   -1.8734    0.0743   -3.9031 C   0  0  0  0  0  0  0  0  0  0  0  0
   -0.5926    0.1710   -3.4119 C   0  0  0  0  0  0  0  0  0  0  0  0
   -0.2773    0.0660   -2.0729 C   0  0  0  0  0  0  0  0  0  0  0  0
   -1.3220   -0.1475   -1.2037 C   0  0  0  0  0  0  0  0  0  0  0  0
    1.0503    0.1730   -1.6402 C   0  0  0  0  0  0  0  0  0  0  0  0
    1.9513    0.3788   -2.6130 N   0  0  0  0  0  0  0  0  0  0  0  0
    1.6807    0.4852   -3.9185 C   0  0  0  0  0  0  0  0  0  0  0  0
    0.3991    0.3810   -4.3245 N   0  0  0  0  0  0  0  0  0  0  0  0
    1.3801    0.0856   -0.2771 N   0  0  0  0  0  0  0  0  0  0  0  0
    2.6974    0.1101    0.2562 C   0  0  0  0  0  0  0  0  0  0  0  0
    3.8394   -0.0773   -0.4746 C   0  0  0  0  0  0  0  0  0  0  0  0
    5.1002   -0.0245    0.1269 C   0  0  0  0  0  0  0  0  0  0  0  0
    5.2448    0.2137    1.4554 C   0  0  0  0  0  0  0  0  0  0  0  0
    4.1119    0.4054    2.2132 C   0  0  0  0  0  0  0  0  0  0  0  0
    2.8799    0.3535    1.6239 C   0  0  0  0  0  0  0  0  0  0  0  0
    6.8023    0.2841    2.2218 S   0  0  0  0  0  0  0  0  0  0  0  0
    7.8517    0.8071    1.2659 O   0  0  0  0  0  0  0  0  0  0  0  0
    6.6936    1.2041    3.4076 O   0  0  0  0  0  0  0  0  0  0  0  0
    7.3637   -1.2815    2.8254 C   0  0  0  0  0  0  0  0  0  0  0  0
    8.6086   -1.0513    3.4023 F   0  0  0  0  0  0  0  0  0  0  0  0
    6.5474   -1.7505    3.8424 F   0  0  0  0  0  0  0  0  0  0  0  0
    7.5425   -2.2085    1.8350 F   0  0  0  0  0  0  0  0  0  0  0  0
   -3.6372   -1.5782    0.2164 C   0  0  0  0  0  0  0  0  0  0  0  0
   -4.5887   -2.4522    0.6015 N   0  0  0  0  0  0  0  0  0  0  0  0
   -4.3520   -3.3968    1.4276 C   0  0  0  0  0  0  0  0  0  0  0  0
   -3.0501   -3.5128    1.9418 C   0  0  0  0  0  0  0  0  0  0  0  0
   -2.2011   -2.1295    1.1197 S   0  0  0  0  0  0  0  0  0  0  0  0
   -6.1646    3.4946   -0.0997 H   0  0  0  0  0  0  0  0  0  0  0  0
   -5.5770    1.4672   -1.4163 H   0  0  0  0  0  0  0  0  0  0  0  0
   -2.8375    0.2849    1.6331 H   0  0  0  0  0  0  0  0  0  0  0  0
   -3.3789    2.2729    2.9788 H   0  0  0  0  0  0  0  0  0  0  0  0
   -4.6988   -0.7081   -1.3295 H   0  0  0  0  0  0  0  0  0  0  0  0
   -3.9117   -0.2213   -3.3453 H   0  0  0  0  0  0  0  0  0  0  0  0
   -2.0588    0.1660   -4.9720 H   0  0  0  0  0  0  0  0  0  0  0  0
   -1.1442   -0.2360   -0.1463 H   0  0  0  0  0  0  0  0  0  0  0  0
    2.4649    0.6519   -4.6486 H   0  0  0  0  0  0  0  0  0  0  0  0
    0.6178   -0.0046    0.4318 H   0  0  0  0  0  0  0  0  0  0  0  0
    3.8332   -0.2771   -1.5195 H   0  0  0  0  0  0  0  0  0  0  0  0
    5.9850   -0.1747   -0.4669 H   0  0  0  0  0  0  0  0  0  0  0  0
    4.1797    0.5988    3.2796 H   0  0  0  0  0  0  0  0  0  0  0  0
    2.0067    0.5112    2.2614 H   0  0  0  0  0  0  0  0  0  0  0  0
   -5.1014   -4.1384    1.7726 H   0  0  0  0  0  0  0  0  0  0  0  0
   -2.6085   -4.2083    2.6368 H   0  0  0  0  0  0  0  0  0  0  0  0
  1  2  1  0
  2  3  2  0
  3  4  1  0
  4  5  2  0
  5  6  1  0
  6  7  2  0
  5  8  1  0
  8  9  1  0
  9 10  2  0
 10 11  1  0
 11 12  2  0
 12 13  1  0
 13 14  2  0
 13 15  1  0
 15 16  2  0
 16 17  1  0
 17 18  2  0
 15 19  1  0
 19 20  1  0
 20 21  2  0
 21 22  1  0
 22 23  2  0
 23 24  1  0
 24 25  2  0
 23 26  1  0
 26 27  2  0
 26 28  2  0
 26 29  1  0
 29 30  1  0
 29 31  1  0
 29 32  1  0
  8 33  1  0
 33 34  2  0
 34 35  1  0
 35 36  2  0
 36 37  1  0
  7  2  1  0
 14  9  1  0
 25 20  1  0
 37 33  1  0
 18 12  1  0
  3 38  1  0
  4 39  1  0
  6 40  1  0
  7 41  1  0
  8 42  1  0
 10 43  1  0
 11 44  1  0
 14 45  1  0
 17 46  1  0
 19 47  1  0
 21 48  1  0
 22 49  1  0
 24 50  1  0
 25 51  1  0
 35 52  1  0
 36 53  1  0
M  END
>  <Ligand ID>  (1) 
LIG0005904

>  <Ligand>  (1) 
SCHEMBL17557562

>  <SMILES>  (1) 
Clc1ccc(cc1)C(c1ccc2c(c1)c(ncn2)Nc1ccc(cc1)S(=O)(=O)C(F)(F)F)c1nccs1

>  <CID>  (1) 
118916048.0

>  <ChEMBL ID>  (1) 
nan

>  <InChiKey>  (1) 
JGJZCYATCOVALL-UHFFFAOYSA-N

>  <InChi>  (1) 
InChI=1S/C25H16ClF3N4O2S2/c26-17-4-1-15(2-5-17)22(24-30-11-12-36-24)16-3-10-21-20(13-16)23(32-14-31-21)33-18-6-8-19(9-7-18)37(34,35)25(27,28)29/h1-14,22H,(H,31,32,33)

>  <IUPAC Name>  (1) 
6-[(4-chlorophenyl)-(1,3-thiazol-2-yl)methyl]-N-[4-(trifluoromethylsulfonyl)phenyl]quinazolin-4-amine

$$$$
