
     RDKit          3D

 54 57  0  0  0  0  0  0  0  0999 V2000
   -4.6674    2.5599    1.6972 O   0  0  0  0  0  0  0  0  0  0  0  0
   -4.3297    1.2415    1.4291 C   0  0  0  0  0  0  0  0  0  0  0  0
   -4.8952    0.2637    2.1923 C   0  0  0  0  0  0  0  0  0  0  0  0
   -4.5570   -1.0375    1.9218 C   0  0  0  0  0  0  0  0  0  0  0  0
   -3.6633   -1.3690    0.9006 C   0  0  0  0  0  0  0  0  0  0  0  0
   -3.0742   -0.3743    0.1080 C   0  0  0  0  0  0  0  0  0  0  0  0
   -3.4438    0.9173    0.4164 C   0  0  0  0  0  0  0  0  0  0  0  0
   -2.1412   -0.7424   -0.9675 C   0  0  2  0  0  0  0  0  0  0  0  0
   -2.9189   -0.9097   -2.2586 C   0  0  0  0  0  0  0  0  0  0  0  0
   -1.4201   -2.0500   -0.7460 C   0  0  0  0  0  0  0  0  0  0  0  0
   -0.3618   -2.0133    0.2900 C   0  0  0  0  0  0  0  0  0  0  0  0
    0.3863   -0.8130    0.3970 N   0  0  0  0  0  0  0  0  0  0  0  0
   -0.3732    0.3961    0.1857 C   0  0  2  0  0  0  0  0  0  0  0  0
   -1.0011    0.2493   -1.1740 C   0  0  2  0  0  0  0  0  0  0  0  0
   -1.3277    1.4855   -1.8917 C   0  0  0  0  0  0  0  0  0  0  0  0
    0.4539    1.6339    0.3611 C   0  0  0  0  0  0  0  0  0  0  0  0
    1.8144    1.2602    0.9654 C   0  0  0  0  0  0  0  0  0  0  0  0
    2.4486    0.4030   -0.1380 C   0  0  2  0  0  0  0  0  0  0  0  0
    1.6630   -0.8571   -0.2316 C   0  0  0  0  0  0  0  0  0  0  0  0
    3.8773    0.2161    0.1784 C   0  0  0  0  0  0  0  0  0  0  0  0
    4.3412   -0.5113    1.2553 C   0  0  0  0  0  0  0  0  0  0  0  0
    5.7077   -0.6527    1.5031 C   0  0  0  0  0  0  0  0  0  0  0  0
    6.6581   -0.0702    0.6807 C   0  0  0  0  0  0  0  0  0  0  0  0
    6.1937    0.6593   -0.3993 C   0  0  0  0  0  0  0  0  0  0  0  0
    4.8414    0.7952   -0.6389 C   0  0  0  0  0  0  0  0  0  0  0  0
   -4.5617    3.2318    0.9596 H   0  0  0  0  0  0  0  0  0  0  0  0
   -5.5812    0.4988    2.9780 H   0  0  0  0  0  0  0  0  0  0  0  0
   -5.0054   -1.8131    2.5270 H   0  0  0  0  0  0  0  0  0  0  0  0
   -3.4730   -2.4088    0.7777 H   0  0  0  0  0  0  0  0  0  0  0  0
   -3.0411    1.7359   -0.1398 H   0  0  0  0  0  0  0  0  0  0  0  0
   -2.2919   -0.7407   -3.1618 H   0  0  0  0  0  0  0  0  0  0  0  0
   -3.3542   -1.9323   -2.2944 H   0  0  0  0  0  0  0  0  0  0  0  0
   -3.7766   -0.2168   -2.3329 H   0  0  0  0  0  0  0  0  0  0  0  0
   -0.9405   -2.2834   -1.7440 H   0  0  0  0  0  0  0  0  0  0  0  0
   -2.1436   -2.8523   -0.6034 H   0  0  0  0  0  0  0  0  0  0  0  0
    0.3898   -2.8187    0.0272 H   0  0  0  0  0  0  0  0  0  0  0  0
   -0.6906   -2.3056    1.3157 H   0  0  0  0  0  0  0  0  0  0  0  0
   -1.1331    0.4195    0.9908 H   0  0  0  0  0  0  0  0  0  0  0  0
   -0.2810   -0.3334   -1.8412 H   0  0  0  0  0  0  0  0  0  0  0  0
   -2.3274    1.3998   -2.3695 H   0  0  0  0  0  0  0  0  0  0  0  0
   -0.6356    1.5833   -2.7867 H   0  0  0  0  0  0  0  0  0  0  0  0
   -1.1593    2.4445   -1.3535 H   0  0  0  0  0  0  0  0  0  0  0  0
    0.0067    2.3875    1.0388 H   0  0  0  0  0  0  0  0  0  0  0  0
    0.7026    2.1458   -0.5921 H   0  0  0  0  0  0  0  0  0  0  0  0
    1.6604    0.6652    1.8903 H   0  0  0  0  0  0  0  0  0  0  0  0
    2.4039    2.1887    1.1319 H   0  0  0  0  0  0  0  0  0  0  0  0
    2.3385    1.0363   -1.0671 H   0  0  0  0  0  0  0  0  0  0  0  0
    2.2542   -1.6480    0.3178 H   0  0  0  0  0  0  0  0  0  0  0  0
    1.6298   -1.2428   -1.2851 H   0  0  0  0  0  0  0  0  0  0  0  0
    3.6205   -0.9788    1.9167 H   0  0  0  0  0  0  0  0  0  0  0  0
    6.0829   -1.2212    2.3452 H   0  0  0  0  0  0  0  0  0  0  0  0
    7.7146   -0.1499    0.8290 H   0  0  0  0  0  0  0  0  0  0  0  0
    6.8707    1.1558   -1.1044 H   0  0  0  0  0  0  0  0  0  0  0  0
    4.5105    1.3722   -1.4920 H   0  0  0  0  0  0  0  0  0  0  0  0
  1  2  1  0
  2  3  2  0
  3  4  1  0
  4  5  2  0
  5  6  1  0
  6  7  2  0
  6  8  1  0
  8  9  1  6
  8 10  1  0
 10 11  1  0
 11 12  1  0
 12 13  1  0
 13 14  1  0
 14 15  1  0
 13 16  1  0
 16 17  1  0
 17 18  1  0
 18 19  1  0
 18 20  1  0
 20 21  2  0
 21 22  1  0
 22 23  2  0
 23 24  1  0
 24 25  2  0
  7  2  1  0
 14  8  1  0
 25 20  1  0
 19 12  1  0
  1 26  1  0
  3 27  1  0
  4 28  1  0
  5 29  1  0
  7 30  1  0
  9 31  1  0
  9 32  1  0
  9 33  1  0
 10 34  1  0
 10 35  1  0
 11 36  1  0
 11 37  1  0
 13 38  1  1
 14 39  1  6
 15 40  1  0
 15 41  1  0
 15 42  1  0
 16 43  1  0
 16 44  1  0
 17 45  1  0
 17 46  1  0
 18 47  1  6
 19 48  1  0
 19 49  1  0
 21 50  1  0
 22 51  1  0
 23 52  1  0
 24 53  1  0
 25 54  1  0
M  END
>  <Ligand ID>  (1) 
LIG0002267

>  <Ligand>  (1) 
CHEMBL438821

>  <SMILES>  (1) 
Oc1cccc(c1)[C@]1(C)CCN2[C@H]([C@@H]1C)CC[C@H](C2)c1ccccc1

>  <CID>  (1) 
16094344.0

>  <ChEMBL ID>  (1) 
nan

>  <InChiKey>  (1) 
RBPDWVPVDMDPMQ-WTYSZDEDSA-N

>  <InChi>  (1) 
InChI=1S/C23H29NO/c1-17-22-12-11-19(18-7-4-3-5-8-18)16-24(22)14-13-23(17,2)20-9-6-10-21(25)15-20/h3-10,15,17,19,22,25H,11-14,16H2,1-2H3/t17-,19+,22-,23+/m0/s1

>  <IUPAC Name>  (1) 
3-[(1R,2R,7S,9aS)-1,2-dimethyl-7-phenyl-1,3,4,6,7,8,9,9a-octahydroquinolizin-2-yl]phenol

$$$$
