
     RDKit          3D

 36 38  0  0  0  0  0  0  0  0999 V2000
   -2.8736   -3.4956    0.6016 C   0  0  0  0  0  0  0  0  0  0  0  0
   -1.8368   -2.5905    0.3764 O   0  0  0  0  0  0  0  0  0  0  0  0
   -1.9326   -1.2228    0.2931 C   0  0  0  0  0  0  0  0  0  0  0  0
   -3.1367   -0.5441    0.4304 C   0  0  0  0  0  0  0  0  0  0  0  0
   -3.2329    0.8281    0.3468 C   0  0  0  0  0  0  0  0  0  0  0  0
   -2.0990    1.5808    0.1176 C   0  0  0  0  0  0  0  0  0  0  0  0
   -0.9130    0.9062   -0.0173 C   0  0  0  0  0  0  0  0  0  0  0  0
   -0.7824   -0.4596    0.0606 C   0  0  0  0  0  0  0  0  0  0  0  0
    0.4922   -1.1875   -0.0836 C   0  0  0  0  0  0  0  0  0  0  0  0
    1.4511   -0.4036   -0.9254 C   0  0  2  0  0  0  0  0  0  0  0  0
    2.7976   -1.0397   -1.0239 C   0  0  0  0  0  0  0  0  0  0  0  0
    3.5205   -0.7817    0.1916 N   0  0  0  0  0  0  0  0  0  0  0  0
    3.8928    0.5955    0.2667 C   0  0  0  0  0  0  0  0  0  0  0  0
    2.7882    1.5718   -0.0193 C   0  0  0  0  0  0  0  0  0  0  0  0
    1.5519    0.9401   -0.4016 N   0  0  0  0  0  0  0  0  0  0  0  0
    0.3244    1.6708   -0.2639 C   0  0  0  0  0  0  0  0  0  0  0  0
    0.3152    2.9339   -0.3531 O   0  0  0  0  0  0  0  0  0  0  0  0
   -2.1704    3.0607    0.0224 C   0  0  0  0  0  0  0  0  0  0  0  0
   -2.7409   -4.3798   -0.0838 H   0  0  0  0  0  0  0  0  0  0  0  0
   -2.9092   -3.8473    1.6700 H   0  0  0  0  0  0  0  0  0  0  0  0
   -3.8790   -3.1026    0.3641 H   0  0  0  0  0  0  0  0  0  0  0  0
   -4.0492   -1.0846    0.6102 H   0  0  0  0  0  0  0  0  0  0  0  0
   -4.2014    1.3109    0.4618 H   0  0  0  0  0  0  0  0  0  0  0  0
    0.3432   -2.2077   -0.4868 H   0  0  0  0  0  0  0  0  0  0  0  0
    0.9283   -1.2562    0.9373 H   0  0  0  0  0  0  0  0  0  0  0  0
    1.0533   -0.3467   -1.9805 H   0  0  0  0  0  0  0  0  0  0  0  0
    3.3470   -0.5005   -1.8374 H   0  0  0  0  0  0  0  0  0  0  0  0
    2.7469   -2.1097   -1.2318 H   0  0  0  0  0  0  0  0  0  0  0  0
    3.0581   -1.1615    1.0417 H   0  0  0  0  0  0  0  0  0  0  0  0
    4.7597    0.7520   -0.4346 H   0  0  0  0  0  0  0  0  0  0  0  0
    4.3320    0.7452    1.2948 H   0  0  0  0  0  0  0  0  0  0  0  0
    3.1044    2.2376   -0.8392 H   0  0  0  0  0  0  0  0  0  0  0  0
    2.6815    2.2297    0.8898 H   0  0  0  0  0  0  0  0  0  0  0  0
   -1.6078    3.5665    0.8342 H   0  0  0  0  0  0  0  0  0  0  0  0
   -1.8897    3.4198   -0.9919 H   0  0  0  0  0  0  0  0  0  0  0  0
   -3.2337    3.3718    0.1633 H   0  0  0  0  0  0  0  0  0  0  0  0
  1  2  1  0
  2  3  1  0
  3  4  2  0
  4  5  1  0
  5  6  2  0
  6  7  1  0
  7  8  2  0
  8  9  1  0
  9 10  1  0
 10 11  1  0
 11 12  1  0
 12 13  1  0
 13 14  1  0
 14 15  1  0
 15 16  1  0
 16 17  2  0
  6 18  1  0
  8  3  1  0
 15 10  1  0
 16  7  1  0
  1 19  1  0
  1 20  1  0
  1 21  1  0
  4 22  1  0
  5 23  1  0
  9 24  1  0
  9 25  1  0
 10 26  1  6
 11 27  1  0
 11 28  1  0
 12 29  1  0
 13 30  1  0
 13 31  1  0
 14 32  1  0
 14 33  1  0
 18 34  1  0
 18 35  1  0
 18 36  1  0
M  END
>  <Ligand ID>  (1) 
LIG0003690

>  <Ligand>  (1) 
SCHEMBL3560949

>  <SMILES>  (1) 
COc1ccc(c2c1C[C@@H]1CNCCN1C2=O)C

>  <CID>  (1) 
24826957.0

>  <ChEMBL ID>  (1) 
nan

>  <InChiKey>  (1) 
HATSPAUQABBECE-SNVBAGLBSA-N

>  <InChi>  (1) 
InChI=1S/C14H18N2O2/c1-9-3-4-12(18-2)11-7-10-8-15-5-6-16(10)14(17)13(9)11/h3-4,10,15H,5-8H2,1-2H3/t10-/m1/s1

>  <IUPAC Name>  (1) 
(11aR)-10-methoxy-7-methyl-1,2,3,4,11,11a-hexahydropyrazino[1,2-b]isoquinolin-6-one

$$$$
