
     RDKit          3D

 20 20  0  0  0  0  0  0  0  0999 V2000
   -1.5684    1.1181    0.1570 C   0  0  0  0  0  0  0  0  0  0  0  0
   -1.2856   -0.3293    0.4110 C   0  0  2  0  0  0  0  0  0  0  0  0
   -0.1926   -0.8943   -0.4338 C   0  0  0  0  0  0  0  0  0  0  0  0
    1.1074   -0.2071   -0.2377 C   0  0  0  0  0  0  0  0  0  0  0  0
    2.2519   -0.5673   -0.9178 C   0  0  0  0  0  0  0  0  0  0  0  0
    3.2364    0.2560   -0.5018 N   0  0  0  0  0  0  0  0  0  0  0  0
    2.7553    1.1196    0.4134 C   0  0  0  0  0  0  0  0  0  0  0  0
    1.4523    0.8078    0.5499 N   0  0  0  0  0  0  0  0  0  0  0  0
   -2.5023   -1.0683    0.1106 N   0  0  0  0  0  0  0  0  0  0  0  0
   -2.6059    1.2924   -0.2507 H   0  0  0  0  0  0  0  0  0  0  0  0
   -0.8606    1.6034   -0.5137 H   0  0  0  0  0  0  0  0  0  0  0  0
   -1.5704    1.6837    1.1308 H   0  0  0  0  0  0  0  0  0  0  0  0
   -1.0850   -0.4879    1.4942 H   0  0  0  0  0  0  0  0  0  0  0  0
   -0.5038   -0.9088   -1.4958 H   0  0  0  0  0  0  0  0  0  0  0  0
   -0.0760   -1.9656   -0.1400 H   0  0  0  0  0  0  0  0  0  0  0  0
    2.3387   -1.3635   -1.6488 H   0  0  0  0  0  0  0  0  0  0  0  0
    3.3411    1.8885    0.9075 H   0  0  0  0  0  0  0  0  0  0  0  0
    0.8014    1.3004    1.1910 H   0  0  0  0  0  0  0  0  0  0  0  0
   -2.5349   -1.9478    0.6695 H   0  0  0  0  0  0  0  0  0  0  0  0
   -2.4989   -1.3301   -0.8949 H   0  0  0  0  0  0  0  0  0  0  0  0
  1  2  1  0
  2  3  1  0
  3  4  1  0
  4  5  2  0
  5  6  1  0
  6  7  2  0
  7  8  1  0
  2  9  1  0
  8  4  1  0
  1 10  1  0
  1 11  1  0
  1 12  1  0
  2 13  1  1
  3 14  1  0
  3 15  1  0
  5 16  1  0
  7 17  1  0
  8 18  1  0
  9 19  1  0
  9 20  1  0
M  END
>  <Ligand ID>  (1) 
LIG0005466

>  <Ligand>  (1) 
[3H](R)-alpha;-methylhistamine

>  <SMILES>  (1) 
C[C@H](Cc1cnc[nH]1)N

>  <CID>  (1) 
156615.0

>  <ChEMBL ID>  (1) 
nan

>  <InChiKey>  (1) 
XNQIOISZPFVUFG-RXMQYKEDSA-N

>  <InChi>  (1) 
InChI=1S/C6H11N3/c1-5(7)2-6-3-8-4-9-6/h3-5H,2,7H2,1H3,(H,8,9)/t5-/m1/s1

>  <IUPAC Name>  (1) 
(2R)-1-(1H-imidazol-5-yl)propan-2-amine

$$$$
