
     RDKit          3D

 62 63  0  0  0  0  0  0  0  0999 V2000
   10.9486    0.1966    0.2893 C   0  0  0  0  0  0  0  0  0  0  0  0
   10.5654   -0.8921   -0.6526 C   0  0  0  0  0  0  0  0  0  0  0  0
    9.3464   -0.7526   -1.1984 O   0  0  0  0  0  0  0  0  0  0  0  0
    8.2652   -0.8449   -0.4406 C   0  0  0  0  0  0  0  0  0  0  0  0
    8.0021    0.0858    0.7004 C   0  0  0  0  0  0  0  0  0  0  0  0
    6.7271   -0.3219    1.2342 O   0  0  0  0  0  0  0  0  0  0  0  0
    5.5395   -0.2016    0.5754 C   0  0  0  0  0  0  0  0  0  0  0  0
    5.3437    0.3710   -0.6569 C   0  0  0  0  0  0  0  0  0  0  0  0
    4.0944    0.4267   -1.2275 C   0  0  0  0  0  0  0  0  0  0  0  0
    2.9503   -0.0889   -0.5978 C   0  0  0  0  0  0  0  0  0  0  0  0
    3.1533   -0.6587    0.6345 C   0  0  0  0  0  0  0  0  0  0  0  0
    4.4109   -0.7100    1.1980 C   0  0  0  0  0  0  0  0  0  0  0  0
    1.7856    0.0295   -1.2658 O   0  0  0  0  0  0  0  0  0  0  0  0
    0.5382   -0.3537   -0.9349 C   0  0  0  0  0  0  0  0  0  0  0  0
   -0.1058    0.2462    0.3012 C   0  0  0  0  0  0  0  0  0  0  0  0
   -1.5798   -0.2427    0.3464 C   0  0  0  0  0  0  0  0  0  0  0  0
   -2.2636    0.1981   -0.7854 N   0  0  0  0  0  0  0  0  0  0  0  0
   -2.6256    1.5615   -0.8975 C   0  0  0  0  0  0  0  0  0  0  0  0
   -3.7569    1.7943    0.1289 C   0  0  0  0  0  0  0  0  0  0  0  0
   -4.8259    0.9074   -0.3269 N   0  0  0  0  0  0  0  0  0  0  0  0
   -6.0764    0.7972    0.3421 C   0  0  0  0  0  0  0  0  0  0  0  0
   -6.2335    1.4885    1.3727 O   0  0  0  0  0  0  0  0  0  0  0  0
   -7.0939   -0.0483   -0.1346 N   0  0  0  0  0  0  0  0  0  0  0  0
   -8.3664   -0.2474    0.4257 C   0  0  0  0  0  0  0  0  0  0  0  0
   -9.2759   -1.0521   -0.2681 C   0  0  0  0  0  0  0  0  0  0  0  0
  -10.5380   -1.3117    0.1964 C   0  0  0  0  0  0  0  0  0  0  0  0
  -10.9842   -0.7845    1.3949 C   0  0  0  0  0  0  0  0  0  0  0  0
  -10.1099    0.0059    2.0933 C   0  0  0  0  0  0  0  0  0  0  0  0
   -8.8210    0.2680    1.6113 C   0  0  0  0  0  0  0  0  0  0  0  0
  -12.2738   -1.0878    1.8061 O   0  0  0  0  0  0  0  0  0  0  0  0
   -0.1580    1.6284    0.2806 O   0  0  0  0  0  0  0  0  0  0  0  0
   10.3049    1.0964    0.2599 H   0  0  0  0  0  0  0  0  0  0  0  0
   11.9551    0.5935   -0.0549 H   0  0  0  0  0  0  0  0  0  0  0  0
   11.0201   -0.1745    1.3176 H   0  0  0  0  0  0  0  0  0  0  0  0
   10.6616   -1.9144   -0.1289 H   0  0  0  0  0  0  0  0  0  0  0  0
   11.3205   -0.9727   -1.4843 H   0  0  0  0  0  0  0  0  0  0  0  0
    8.3924   -1.8764    0.1274 H   0  0  0  0  0  0  0  0  0  0  0  0
    7.3310   -1.0145   -1.0332 H   0  0  0  0  0  0  0  0  0  0  0  0
    7.9504    1.1553    0.4052 H   0  0  0  0  0  0  0  0  0  0  0  0
    8.7227   -0.0297    1.5366 H   0  0  0  0  0  0  0  0  0  0  0  0
    6.1461    0.8331   -1.2253 H   0  0  0  0  0  0  0  0  0  0  0  0
    3.9771    0.8899   -2.2147 H   0  0  0  0  0  0  0  0  0  0  0  0
    2.3510   -1.0855    1.1793 H   0  0  0  0  0  0  0  0  0  0  0  0
    4.5172   -1.1740    2.1794 H   0  0  0  0  0  0  0  0  0  0  0  0
    0.5453   -1.4732   -0.7153 H   0  0  0  0  0  0  0  0  0  0  0  0
   -0.2034   -0.2781   -1.7777 H   0  0  0  0  0  0  0  0  0  0  0  0
    0.3119   -0.0847    1.2507 H   0  0  0  0  0  0  0  0  0  0  0  0
   -1.6001   -1.3637    0.4884 H   0  0  0  0  0  0  0  0  0  0  0  0
   -1.9573    0.2321    1.2952 H   0  0  0  0  0  0  0  0  0  0  0  0
   -2.8247   -0.4544   -1.3376 H   0  0  0  0  0  0  0  0  0  0  0  0
   -3.1644    1.6343   -1.9137 H   0  0  0  0  0  0  0  0  0  0  0  0
   -1.8729    2.3280   -0.8300 H   0  0  0  0  0  0  0  0  0  0  0  0
   -3.4544    1.5229    1.1485 H   0  0  0  0  0  0  0  0  0  0  0  0
   -4.0602    2.8545    0.1118 H   0  0  0  0  0  0  0  0  0  0  0  0
   -4.7157    0.2990   -1.1883 H   0  0  0  0  0  0  0  0  0  0  0  0
   -6.8656   -0.5928   -1.0204 H   0  0  0  0  0  0  0  0  0  0  0  0
   -9.0095   -1.5097   -1.2272 H   0  0  0  0  0  0  0  0  0  0  0  0
  -11.2076   -1.9356   -0.3709 H   0  0  0  0  0  0  0  0  0  0  0  0
  -10.4514    0.4174    3.0319 H   0  0  0  0  0  0  0  0  0  0  0  0
   -8.2145    0.8826    2.2144 H   0  0  0  0  0  0  0  0  0  0  0  0
  -13.0223   -1.1840    1.1095 H   0  0  0  0  0  0  0  0  0  0  0  0
    0.5349    1.9726    0.8953 H   0  0  0  0  0  0  0  0  0  0  0  0
  1  2  1  0
  2  3  1  0
  3  4  1  0
  4  5  1  0
  5  6  1  0
  6  7  1  0
  7  8  2  0
  8  9  1  0
  9 10  2  0
 10 11  1  0
 11 12  2  0
 10 13  1  0
 13 14  1  0
 14 15  1  0
 15 16  1  0
 16 17  1  0
 17 18  1  0
 18 19  1  0
 19 20  1  0
 20 21  1  0
 21 22  2  0
 21 23  1  0
 23 24  1  0
 24 25  2  0
 25 26  1  0
 26 27  2  0
 27 28  1  0
 28 29  2  0
 27 30  1  0
 15 31  1  0
 12  7  1  0
 29 24  1  0
  1 32  1  0
  1 33  1  0
  1 34  1  0
  2 35  1  0
  2 36  1  0
  4 37  1  0
  4 38  1  0
  5 39  1  0
  5 40  1  0
  8 41  1  0
  9 42  1  0
 11 43  1  0
 12 44  1  0
 14 45  1  0
 14 46  1  0
 15 47  1  0
 16 48  1  0
 16 49  1  0
 17 50  1  0
 18 51  1  0
 18 52  1  0
 19 53  1  0
 19 54  1  0
 20 55  1  0
 23 56  1  0
 25 57  1  0
 26 58  1  0
 28 59  1  0
 29 60  1  0
 30 61  1  0
 31 62  1  0
M  END
>  <Ligand ID>  (1) 
LIG0004494

>  <Ligand>  (1) 
CHEMBL2348217

>  <SMILES>  (1) 
CCOCCOc1ccc(cc1)OCC(CNCCNC(=O)Nc1ccc(cc1)O)O

>  <CID>  (1) 
56598833.0

>  <ChEMBL ID>  (1) 
nan

>  <InChiKey>  (1) 
LZAHCRHPGUIOBW-UHFFFAOYSA-N

>  <InChi>  (1) 
InChI=1S/C22H31N3O6/c1-2-29-13-14-30-20-7-9-21(10-8-20)31-16-19(27)15-23-11-12-24-22(28)25-17-3-5-18(26)6-4-17/h3-10,19,23,26-27H,2,11-16H2,1H3,(H2,24,25,28)

>  <IUPAC Name>  (1) 
1-[2-[[3-[4-(2-ethoxyethoxy)phenoxy]-2-hydroxypropyl]amino]ethyl]-3-(4-hydroxyphenyl)urea

$$$$
