
     RDKit          3D

 58 60  0  0  0  0  0  0  0  0999 V2000
    2.5320    0.3848   -1.2806 O   0  0  0  0  0  0  0  0  0  0  0  0
    3.7532    0.0654   -0.6795 C   0  0  2  0  0  0  0  0  0  0  0  0
    4.4164   -0.9261   -1.6107 C   0  0  0  0  0  0  0  0  0  0  0  0
    5.6363   -1.3879   -1.1863 O   0  0  0  0  0  0  0  0  0  0  0  0
    6.7752   -0.6954   -0.9970 C   0  0  0  0  0  0  0  0  0  0  0  0
    7.8774   -1.4450   -0.5234 C   0  0  0  0  0  0  0  0  0  0  0  0
    9.1012   -0.8725   -0.2875 C   0  0  0  0  0  0  0  0  0  0  0  0
    9.3126    0.4616   -0.5026 C   0  0  0  0  0  0  0  0  0  0  0  0
    8.2711    1.2234   -0.9610 C   0  0  0  0  0  0  0  0  0  0  0  0
    7.0263    0.6315   -1.1992 C   0  0  0  0  0  0  0  0  0  0  0  0
   10.5617    1.0068   -0.2536 O   0  0  0  0  0  0  0  0  0  0  0  0
    3.5917   -0.6197    0.6629 C   0  0  0  0  0  0  0  0  0  0  0  0
    2.9107    0.1237    1.6377 N   0  0  0  0  0  0  0  0  0  0  0  0
    1.5418    0.3838    1.5276 C   0  0  0  0  0  0  0  0  0  0  0  0
    0.6375   -0.8101    1.6957 C   0  0  0  0  0  0  0  0  0  0  0  0
   -0.8016   -0.4950    1.5873 C   0  0  0  0  0  0  0  0  0  0  0  0
   -1.5279   -0.5418    0.4222 C   0  0  0  0  0  0  0  0  0  0  0  0
   -2.8893   -0.2275    0.3979 C   0  0  0  0  0  0  0  0  0  0  0  0
   -3.5492    0.1408    1.5399 C   0  0  0  0  0  0  0  0  0  0  0  0
   -2.8082    0.1841    2.7038 C   0  0  0  0  0  0  0  0  0  0  0  0
   -1.4679   -0.1254    2.7299 C   0  0  0  0  0  0  0  0  0  0  0  0
   -4.9217    0.4663    1.6246 N   0  0  0  0  0  0  0  0  0  0  0  0
   -5.8544    0.4255    0.5821 C   0  0  0  0  0  0  0  0  0  0  0  0
   -5.5666    0.0803   -0.5880 O   0  0  0  0  0  0  0  0  0  0  0  0
   -7.2697    0.8020    0.8353 C   0  0  0  0  0  0  0  0  0  0  0  0
   -8.1263    0.6873   -0.3574 C   0  0  0  0  0  0  0  0  0  0  0  0
   -8.7729   -0.5384   -0.5432 C   0  0  0  0  0  0  0  0  0  0  0  0
   -9.6041   -0.7872   -1.6068 C   0  0  0  0  0  0  0  0  0  0  0  0
   -9.7829    0.2604   -2.5205 C   0  0  0  0  0  0  0  0  0  0  0  0
   -9.1315    1.4803   -2.3242 C   0  0  0  0  0  0  0  0  0  0  0  0
   -8.3162    1.6769   -1.2512 N   0  0  0  0  0  0  0  0  0  0  0  0
    2.5746    0.2658   -2.2572 H   0  0  0  0  0  0  0  0  0  0  0  0
    4.2953    1.0031   -0.5307 H   0  0  0  0  0  0  0  0  0  0  0  0
    4.5636   -0.4682   -2.6245 H   0  0  0  0  0  0  0  0  0  0  0  0
    3.7056   -1.7902   -1.8116 H   0  0  0  0  0  0  0  0  0  0  0  0
    7.7839   -2.5057   -0.3319 H   0  0  0  0  0  0  0  0  0  0  0  0
    9.9276   -1.4938    0.0811 H   0  0  0  0  0  0  0  0  0  0  0  0
    8.4198    2.2902   -1.1367 H   0  0  0  0  0  0  0  0  0  0  0  0
    6.2716    1.2884   -1.5744 H   0  0  0  0  0  0  0  0  0  0  0  0
   10.6653    1.6625    0.5190 H   0  0  0  0  0  0  0  0  0  0  0  0
    3.2341   -1.6427    0.4511 H   0  0  0  0  0  0  0  0  0  0  0  0
    4.6493   -0.7530    1.0293 H   0  0  0  0  0  0  0  0  0  0  0  0
    3.3981    0.4097    2.4842 H   0  0  0  0  0  0  0  0  0  0  0  0
    1.2635    1.0822    2.3695 H   0  0  0  0  0  0  0  0  0  0  0  0
    1.3159    0.9572    0.6105 H   0  0  0  0  0  0  0  0  0  0  0  0
    0.8876   -1.4962    0.8463 H   0  0  0  0  0  0  0  0  0  0  0  0
    0.7944   -1.3516    2.6290 H   0  0  0  0  0  0  0  0  0  0  0  0
   -1.0151   -0.8348   -0.5086 H   0  0  0  0  0  0  0  0  0  0  0  0
   -3.3746   -0.2851   -0.5400 H   0  0  0  0  0  0  0  0  0  0  0  0
   -3.2562    0.4660    3.6608 H   0  0  0  0  0  0  0  0  0  0  0  0
   -0.9341   -0.0781    3.6558 H   0  0  0  0  0  0  0  0  0  0  0  0
   -5.2958    0.7761    2.5700 H   0  0  0  0  0  0  0  0  0  0  0  0
   -7.7134    0.2708    1.7069 H   0  0  0  0  0  0  0  0  0  0  0  0
   -7.2548    1.8925    1.1267 H   0  0  0  0  0  0  0  0  0  0  0  0
   -8.6239   -1.3419    0.1721 H   0  0  0  0  0  0  0  0  0  0  0  0
  -10.1167   -1.7168   -1.7800 H   0  0  0  0  0  0  0  0  0  0  0  0
  -10.4337    0.0978   -3.3712 H   0  0  0  0  0  0  0  0  0  0  0  0
   -9.2862    2.2827   -3.0529 H   0  0  0  0  0  0  0  0  0  0  0  0
  1  2  1  0
  2  3  1  0
  3  4  1  0
  4  5  1  0
  5  6  2  0
  6  7  1  0
  7  8  2  0
  8  9  1  0
  9 10  2  0
  8 11  1  0
  2 12  1  0
 12 13  1  0
 13 14  1  0
 14 15  1  0
 15 16  1  0
 16 17  2  0
 17 18  1  0
 18 19  2  0
 19 20  1  0
 20 21  2  0
 19 22  1  0
 22 23  1  0
 23 24  2  0
 23 25  1  0
 25 26  1  0
 26 27  2  0
 27 28  1  0
 28 29  2  0
 29 30  1  0
 30 31  2  0
 10  5  1  0
 21 16  1  0
 31 26  1  0
  1 32  1  0
  2 33  1  1
  3 34  1  0
  3 35  1  0
  6 36  1  0
  7 37  1  0
  9 38  1  0
 10 39  1  0
 11 40  1  0
 12 41  1  0
 12 42  1  0
 13 43  1  0
 14 44  1  0
 14 45  1  0
 15 46  1  0
 15 47  1  0
 17 48  1  0
 18 49  1  0
 20 50  1  0
 21 51  1  0
 22 52  1  0
 25 53  1  0
 25 54  1  0
 27 55  1  0
 28 56  1  0
 29 57  1  0
 30 58  1  0
M  END
>  <Ligand ID>  (1) 
LIG0002782

>  <Ligand>  (1) 
CHEMBL466705

>  <SMILES>  (1) 
O[C@H](COc1ccc(cc1)O)CNCCc1ccc(cc1)NC(=O)Cc1ccccn1

>  <CID>  (1) 
44127171.0

>  <ChEMBL ID>  (1) 
nan

>  <InChiKey>  (1) 
FSACXLQYORFFJK-QFIPXVFZSA-N

>  <InChi>  (1) 
InChI=1S/C24H27N3O4/c28-21-8-10-23(11-9-21)31-17-22(29)16-25-14-12-18-4-6-19(7-5-18)27-24(30)15-20-3-1-2-13-26-20/h1-11,13,22,25,28-29H,12,14-17H2,(H,27,30)/t22-/m0/s1

>  <IUPAC Name>  (1) 
N-[4-[2-[[(2S)-2-hydroxy-3-(4-hydroxyphenoxy)propyl]amino]ethyl]phenyl]-2-pyridin-2-ylacetamide

$$$$
