
     RDKit          3D

 80 85  0  0  0  0  0  0  0  0999 V2000
   -4.0127   -1.9719   -4.4226 N   0  0  0  0  0  0  0  0  0  0  0  0
   -4.4086   -1.6949   -3.3643 C   0  0  0  0  0  0  0  0  0  0  0  0
   -4.8907   -1.3429   -2.0177 C   0  0  0  0  0  0  0  0  0  0  0  0
   -3.7990   -1.6629   -1.0016 C   0  0  1  0  0  0  0  0  0  0  0  0
   -2.6617   -0.9563   -1.2780 O   0  0  0  0  0  0  0  0  0  0  0  0
   -2.3363   -0.1159   -0.2189 C   0  0  0  0  0  0  0  0  0  0  0  0
   -3.3845   -0.3105    0.8172 C   0  0  0  0  0  0  0  0  0  0  0  0
   -4.2777   -1.2735    0.3246 C   0  0  0  0  0  0  0  0  0  0  0  0
   -5.3170   -1.5909    1.1593 C   0  0  0  0  0  0  0  0  0  0  0  0
   -5.4783   -1.0008    2.4081 C   0  0  0  0  0  0  0  0  0  0  0  0
   -6.6230   -1.3727    3.2880 C   0  0  0  0  0  0  0  0  0  0  0  0
   -4.5841   -0.0594    2.8605 C   0  0  0  0  0  0  0  0  0  0  0  0
   -3.5286    0.2740    2.0329 C   0  0  0  0  0  0  0  0  0  0  0  0
   -4.8023    0.6741    4.4356 Cl  0  0  0  0  0  0  0  0  0  0  0  0
   -2.3599    1.2598   -0.7798 C   0  0  0  0  0  0  0  0  0  0  0  0
   -1.3896    2.2439   -0.2618 C   0  0  0  0  0  0  0  0  0  0  0  0
   -0.0885    1.5800   -0.1163 N   0  0  0  0  0  0  0  0  0  0  0  0
   -0.0563    0.4374    0.7594 C   0  0  0  0  0  0  0  0  0  0  0  0
   -1.0349   -0.6164    0.3180 C   0  0  0  0  0  0  0  0  0  0  0  0
    0.9904    2.1131   -0.8394 C   0  0  0  0  0  0  0  0  0  0  0  0
    0.7184    3.1354   -1.5683 O   0  0  0  0  0  0  0  0  0  0  0  0
    2.3763    1.6381   -0.8549 C   0  0  2  0  0  0  0  0  0  0  0  0
    2.5504    0.2076   -1.2847 C   0  0  0  0  0  0  0  0  0  0  0  0
    3.5432   -0.4101   -0.4627 N   0  0  0  0  0  0  0  0  0  0  0  0
    3.7239    0.3837    0.7318 C   0  0  0  0  0  0  0  0  0  0  0  0
    3.0739    1.7228    0.4497 C   0  0  1  0  0  0  0  0  0  0  0  0
    4.0863    2.7917    0.5885 C   0  0  0  0  0  0  0  0  0  0  0  0
    4.0677    3.6226    1.7178 C   0  0  0  0  0  0  0  0  0  0  0  0
    4.9800    4.6387    1.8824 C   0  0  0  0  0  0  0  0  0  0  0  0
    5.9568    4.8930    0.9500 C   0  0  0  0  0  0  0  0  0  0  0  0
    5.9947    4.0916   -0.1644 C   0  0  0  0  0  0  0  0  0  0  0  0
    5.0691    3.0618   -0.3292 C   0  0  0  0  0  0  0  0  0  0  0  0
    5.2024    2.3211   -1.4509 F   0  0  0  0  0  0  0  0  0  0  0  0
    6.8294    5.8991    1.1523 F   0  0  0  0  0  0  0  0  0  0  0  0
    3.2697   -1.7713   -0.0911 C   0  0  0  0  0  0  0  0  0  0  0  0
    3.1368   -2.6772   -1.2835 C   0  0  0  0  0  0  0  0  0  0  0  0
    4.1917   -3.7631   -1.2332 C   0  0  0  0  0  0  0  0  0  0  0  0
    5.4776   -3.2639   -1.1586 O   0  0  0  0  0  0  0  0  0  0  0  0
    5.6598   -2.2527   -0.2443 C   0  0  0  0  0  0  0  0  0  0  0  0
    4.4850   -2.2557    0.7071 C   0  0  0  0  0  0  0  0  0  0  0  0
   -5.3091    0.0905   -2.0126 C   0  0  0  0  0  0  0  0  0  0  0  0
   -6.1123   -2.1985   -1.7850 C   0  0  0  0  0  0  0  0  0  0  0  0
   -3.6495   -2.7559   -1.0380 H   0  0  0  0  0  0  0  0  0  0  0  0
   -6.0610   -2.3218    0.8871 H   0  0  0  0  0  0  0  0  0  0  0  0
   -6.9097   -2.4271    3.0559 H   0  0  0  0  0  0  0  0  0  0  0  0
   -7.5442   -0.7743    3.0337 H   0  0  0  0  0  0  0  0  0  0  0  0
   -6.3803   -1.3402    4.3604 H   0  0  0  0  0  0  0  0  0  0  0  0
   -2.8198    1.0207    2.3926 H   0  0  0  0  0  0  0  0  0  0  0  0
   -3.3874    1.6709   -0.5443 H   0  0  0  0  0  0  0  0  0  0  0  0
   -2.3436    1.3010   -1.9049 H   0  0  0  0  0  0  0  0  0  0  0  0
   -1.6528    2.5853    0.7615 H   0  0  0  0  0  0  0  0  0  0  0  0
   -1.3158    3.0770   -0.9718 H   0  0  0  0  0  0  0  0  0  0  0  0
    0.9078   -0.0293    0.9154 H   0  0  0  0  0  0  0  0  0  0  0  0
   -0.4051    0.8227    1.7589 H   0  0  0  0  0  0  0  0  0  0  0  0
   -1.2067   -1.2556    1.2099 H   0  0  0  0  0  0  0  0  0  0  0  0
   -0.4868   -1.2656   -0.3998 H   0  0  0  0  0  0  0  0  0  0  0  0
    2.9987    2.2447   -1.5852 H   0  0  0  0  0  0  0  0  0  0  0  0
    2.9456    0.1569   -2.3399 H   0  0  0  0  0  0  0  0  0  0  0  0
    1.5922   -0.3644   -1.3466 H   0  0  0  0  0  0  0  0  0  0  0  0
    4.8146    0.5108    0.8883 H   0  0  0  0  0  0  0  0  0  0  0  0
    3.2646   -0.0578    1.6294 H   0  0  0  0  0  0  0  0  0  0  0  0
    2.2578    1.9162    1.2205 H   0  0  0  0  0  0  0  0  0  0  0  0
    3.2874    3.4233    2.4678 H   0  0  0  0  0  0  0  0  0  0  0  0
    4.9065    5.2488    2.7893 H   0  0  0  0  0  0  0  0  0  0  0  0
    6.7634    4.2765   -0.9184 H   0  0  0  0  0  0  0  0  0  0  0  0
    2.3823   -1.8920    0.5762 H   0  0  0  0  0  0  0  0  0  0  0  0
    2.1528   -3.1823   -1.2900 H   0  0  0  0  0  0  0  0  0  0  0  0
    3.3239   -2.1277   -2.2435 H   0  0  0  0  0  0  0  0  0  0  0  0
    4.1514   -4.3780   -2.1592 H   0  0  0  0  0  0  0  0  0  0  0  0
    3.9672   -4.4832   -0.3970 H   0  0  0  0  0  0  0  0  0  0  0  0
    5.6447   -1.2871   -0.7946 H   0  0  0  0  0  0  0  0  0  0  0  0
    6.5992   -2.3325    0.3148 H   0  0  0  0  0  0  0  0  0  0  0  0
    4.3211   -3.2335    1.1753 H   0  0  0  0  0  0  0  0  0  0  0  0
    4.7098   -1.4878    1.4810 H   0  0  0  0  0  0  0  0  0  0  0  0
   -5.4311    0.4482   -0.9590 H   0  0  0  0  0  0  0  0  0  0  0  0
   -4.6480    0.7563   -2.6031 H   0  0  0  0  0  0  0  0  0  0  0  0
   -6.3471    0.1396   -2.4407 H   0  0  0  0  0  0  0  0  0  0  0  0
   -6.6109   -2.3682   -2.7866 H   0  0  0  0  0  0  0  0  0  0  0  0
   -6.8542   -1.5929   -1.2254 H   0  0  0  0  0  0  0  0  0  0  0  0
   -5.8652   -3.1603   -1.3294 H   0  0  0  0  0  0  0  0  0  0  0  0
  1  2  3  0
  2  3  1  0
  3  4  1  0
  4  5  1  0
  5  6  1  0
  6  7  1  0
  7  8  2  0
  8  9  1  0
  9 10  2  0
 10 11  1  0
 10 12  1  0
 12 13  2  0
 12 14  1  0
  6 15  1  0
 15 16  1  0
 16 17  1  0
 17 18  1  0
 18 19  1  0
 17 20  1  0
 20 21  2  0
 20 22  1  0
 22 23  1  0
 23 24  1  0
 24 25  1  0
 25 26  1  0
 26 27  1  0
 27 28  2  0
 28 29  1  0
 29 30  2  0
 30 31  1  0
 31 32  2  0
 32 33  1  0
 30 34  1  0
 24 35  1  0
 35 36  1  0
 36 37  1  0
 37 38  1  0
 38 39  1  0
 39 40  1  0
  3 41  1  0
  3 42  1  0
  8  4  1  0
 26 22  1  0
 32 27  1  0
 40 35  1  0
 19  6  1  0
 13  7  1  0
  4 43  1  1
  9 44  1  0
 11 45  1  0
 11 46  1  0
 11 47  1  0
 13 48  1  0
 15 49  1  0
 15 50  1  0
 16 51  1  0
 16 52  1  0
 18 53  1  0
 18 54  1  0
 19 55  1  0
 19 56  1  0
 22 57  1  6
 23 58  1  0
 23 59  1  0
 25 60  1  0
 25 61  1  0
 26 62  1  1
 28 63  1  0
 29 64  1  0
 31 65  1  0
 35 66  1  0
 36 67  1  0
 36 68  1  0
 37 69  1  0
 37 70  1  0
 39 71  1  0
 39 72  1  0
 40 73  1  0
 40 74  1  0
 41 75  1  0
 41 76  1  0
 41 77  1  0
 42 78  1  0
 42 79  1  0
 42 80  1  0
M  END
>  <Ligand ID>  (1) 
LIG0000934

>  <Ligand>  (1) 
CHEMBL1209788

>  <SMILES>  (1) 
N#CC([C@H]1OC2(c3c1cc(C)c(c3)Cl)CCN(CC2)C(=O)[C@@H]1CN(C[C@H]1c1ccc(cc1F)F)C1CCOCC1)(C)C

>  <CID>  (1) 
46919520.0

>  <ChEMBL ID>  (1) 
nan

>  <InChiKey>  (1) 
BCFFSQJVHOEAAU-MWSYKCOMSA-N

>  <InChi>  (1) 
InChI=1S/C33H38ClF2N3O3/c1-20-14-24-27(16-28(20)34)33(42-30(24)32(2,3)19-37)8-10-38(11-9-33)31(40)26-18-39(22-6-12-41-13-7-22)17-25(26)23-5-4-21(35)15-29(23)36/h4-5,14-16,22,25-26,30H,6-13,17-18H2,1-3H3/t25-,26+,30-/m0/s1

>  <IUPAC Name>  (1) 
2-[(1S)-5-chloro-1'-[(3S,4R)-4-(2,4-difluorophenyl)-1-(oxan-4-yl)pyrrolidine-3-carbonyl]-6-methylspiro[1H-2-benzofuran-3,4'-piperidine]-1-yl]-2-methylpropanenitrile

$$$$
