
     RDKit          3D

 50 52  0  0  0  0  0  0  0  0999 V2000
    0.9116    1.6429    1.2494 O   0  0  0  0  0  0  0  0  0  0  0  0
   -0.0779    0.8061    0.7735 C   0  0  2  0  0  0  0  0  0  0  0  0
    0.1880    0.3136   -0.6436 C   0  0  1  0  0  0  0  0  0  0  0  0
    1.2439   -0.7581   -0.6657 C   0  0  0  0  0  0  0  0  0  0  0  0
    2.4505   -0.1566   -0.3246 O   0  0  0  0  0  0  0  0  0  0  0  0
    3.7139   -1.2837   -0.3192 P   0  0  0  0  0  0  0  0  0  0  0  0
    4.0745   -1.6062   -1.7392 O   0  0  0  0  0  0  0  0  0  0  0  0
    5.0219   -0.7429    0.5930 O   0  0  0  0  0  0  0  0  0  0  0  0
    5.3263    0.9082    0.2930 P   0  0  0  0  0  0  0  0  0  0  0  0
    4.7108    1.6832    1.4391 O   0  0  0  0  0  0  0  0  0  0  0  0
    6.9546    1.2675    0.2272 O   0  0  0  0  0  0  0  0  0  0  0  0
    7.9696   -0.0199    0.5437 P   0  0  0  0  0  0  0  0  0  0  0  0
    7.4017   -0.9924    1.5379 O   0  0  0  0  0  0  0  0  0  0  0  0
    9.3938    0.6256    1.2180 O   0  0  0  0  0  0  0  0  0  0  0  0
    8.4418   -0.8396   -0.8595 O   0  0  0  0  0  0  0  0  0  0  0  0
    4.5018    1.3791   -1.1051 O   0  0  0  0  0  0  0  0  0  0  0  0
    3.0991   -2.6606    0.4860 O   0  0  0  0  0  0  0  0  0  0  0  0
   -1.0817   -0.1735   -0.9733 O   0  0  0  0  0  0  0  0  0  0  0  0
   -1.9130    0.9048   -0.6950 C   0  0  2  0  0  0  0  0  0  0  0  0
   -1.4136    1.5100    0.5950 C   0  0  2  0  0  0  0  0  0  0  0  0
   -1.1228    2.8645    0.4417 O   0  0  0  0  0  0  0  0  0  0  0  0
   -3.2997    0.5244   -0.5067 N   0  0  0  0  0  0  0  0  0  0  0  0
   -4.2293    1.4747   -0.8008 C   0  0  0  0  0  0  0  0  0  0  0  0
   -5.5783    1.2437   -0.6660 C   0  0  0  0  0  0  0  0  0  0  0  0
   -5.9872    0.0140   -0.2209 C   0  0  0  0  0  0  0  0  0  0  0  0
   -5.0320   -0.9316    0.0704 C   0  0  0  0  0  0  0  0  0  0  0  0
   -3.6778   -0.6880   -0.0689 C   0  0  0  0  0  0  0  0  0  0  0  0
   -2.8039   -1.5546    0.1982 O   0  0  0  0  0  0  0  0  0  0  0  0
   -5.4649   -2.1727    0.5205 C   0  0  0  0  0  0  0  0  0  0  0  0
   -6.8080   -2.4156    0.6591 C   0  0  0  0  0  0  0  0  0  0  0  0
   -7.7420   -1.4438    0.3578 C   0  0  0  0  0  0  0  0  0  0  0  0
   -7.3410   -0.2069   -0.0895 C   0  0  0  0  0  0  0  0  0  0  0  0
   -7.2637   -3.6231    1.0984 F   0  0  0  0  0  0  0  0  0  0  0  0
    1.2957    1.2331    2.0805 H   0  0  0  0  0  0  0  0  0  0  0  0
   -0.2060   -0.0812    1.4339 H   0  0  0  0  0  0  0  0  0  0  0  0
    0.4249    1.1404   -1.3167 H   0  0  0  0  0  0  0  0  0  0  0  0
    0.9694   -1.5797    0.0080 H   0  0  0  0  0  0  0  0  0  0  0  0
    1.3236   -1.1277   -1.7022 H   0  0  0  0  0  0  0  0  0  0  0  0
    9.5376    1.5441    0.8399 H   0  0  0  0  0  0  0  0  0  0  0  0
    9.3453   -0.5739   -1.1677 H   0  0  0  0  0  0  0  0  0  0  0  0
    5.0519    1.3412   -1.9157 H   0  0  0  0  0  0  0  0  0  0  0  0
    3.7839   -3.3771    0.4221 H   0  0  0  0  0  0  0  0  0  0  0  0
   -1.8406    1.6393   -1.5178 H   0  0  0  0  0  0  0  0  0  0  0  0
   -2.1020    1.3172    1.4343 H   0  0  0  0  0  0  0  0  0  0  0  0
   -0.3408    3.1437    0.9804 H   0  0  0  0  0  0  0  0  0  0  0  0
   -3.9255    2.4500   -1.1530 H   0  0  0  0  0  0  0  0  0  0  0  0
   -6.2940    2.0215   -0.9085 H   0  0  0  0  0  0  0  0  0  0  0  0
   -4.7419   -2.9485    0.7620 H   0  0  0  0  0  0  0  0  0  0  0  0
   -8.8042   -1.6224    0.4627 H   0  0  0  0  0  0  0  0  0  0  0  0
   -8.0445    0.5873   -0.3382 H   0  0  0  0  0  0  0  0  0  0  0  0
  1  2  1  0
  2  3  1  0
  3  4  1  0
  4  5  1  0
  5  6  1  0
  6  7  2  0
  6  8  1  0
  8  9  1  0
  9 10  2  0
  9 11  1  0
 11 12  1  0
 12 13  2  0
 12 14  1  0
 12 15  1  0
  9 16  1  0
  6 17  1  0
  3 18  1  0
 18 19  1  0
 19 20  1  0
 20 21  1  0
 19 22  1  0
 22 23  1  0
 23 24  2  0
 24 25  1  0
 25 26  2  0
 26 27  1  0
 27 28  2  0
 26 29  1  0
 29 30  2  0
 30 31  1  0
 31 32  2  0
 30 33  1  0
 20  2  1  0
 27 22  1  0
 32 25  1  0
  1 34  1  0
  2 35  1  1
  3 36  1  6
  4 37  1  0
  4 38  1  0
 14 39  1  0
 15 40  1  0
 16 41  1  0
 17 42  1  0
 19 43  1  6
 20 44  1  1
 21 45  1  0
 23 46  1  0
 24 47  1  0
 29 48  1  0
 31 49  1  0
 32 50  1  0
M  END
>  <Ligand ID>  (1) 
LIG0001240

>  <Ligand>  (1) 
CHEMBL399017

>  <SMILES>  (1) 
O[C@@H]1[C@@H](COP(=O)(OP(=O)(OP(=O)(O)O)O)O)O[C@H]([C@@H]1O)n1ccc2c(c1=O)cc(cc2)F

>  <CID>  (1) 
44439757.0

>  <ChEMBL ID>  (1) 
nan

>  <InChiKey>  (1) 
PWMTWCIWTNGYAD-HKUMRIAESA-N

>  <InChi>  (1) 
InChI=1S/C14H17FNO14P3/c15-8-2-1-7-3-4-16(13(19)9(7)5-8)14-12(18)11(17)10(28-14)6-27-32(23,24)30-33(25,26)29-31(20,21)22/h1-5,10-12,14,17-18H,6H2,(H,23,24)(H,25,26)(H2,20,21,22)/t10-,11-,12-,14-/m1/s1

>  <IUPAC Name>  (1) 
[[(2R,3S,4R,5R)-5-(7-fluoro-1-oxoisoquinolin-2-yl)-3,4-dihydroxyoxolan-2-yl]methoxy-hydroxyphosphoryl] phosphono hydrogen phosphate

$$$$
