
     RDKit          3D

 58 61  0  0  0  0  0  0  0  0999 V2000
   -4.9977   -0.6029   -2.2774 C   0  0  0  0  0  0  0  0  0  0  0  0
   -4.0874   -1.1543   -1.2106 C   0  0  2  0  0  0  0  0  0  0  0  0
   -4.9413   -1.7352   -0.0811 C   0  0  0  0  0  0  0  0  0  0  0  0
   -5.7530   -0.6276    0.3934 N   0  0  0  0  0  0  0  0  0  0  0  0
   -5.0834    0.5298    0.8992 C   0  0  0  0  0  0  0  0  0  0  0  0
   -3.9156    0.9738    0.0457 C   0  0  0  0  0  0  0  0  0  0  0  0
   -3.2533   -0.1302   -0.6097 N   0  0  0  0  0  0  0  0  0  0  0  0
   -1.8318   -0.1776   -0.6447 C   0  0  0  0  0  0  0  0  0  0  0  0
   -1.1713    0.8333   -0.0510 N   0  0  0  0  0  0  0  0  0  0  0  0
    0.1933    0.8574   -0.0435 C   0  0  0  0  0  0  0  0  0  0  0  0
    0.8545   -0.1873   -0.6636 C   0  0  0  0  0  0  0  0  0  0  0  0
    0.1810   -1.2341   -1.2784 C   0  0  0  0  0  0  0  0  0  0  0  0
   -1.1829   -1.1886   -1.2449 N   0  0  0  0  0  0  0  0  0  0  0  0
    2.2619   -0.1455   -0.6458 O   0  0  0  0  0  0  0  0  0  0  0  0
    2.8780    0.9402   -0.0077 C   0  0  0  0  0  0  0  0  0  0  0  0
    4.3493    0.7615   -0.1205 C   0  0  0  0  0  0  0  0  0  0  0  0
    4.9067   -0.3405   -0.7742 C   0  0  0  0  0  0  0  0  0  0  0  0
    6.2828   -0.4728   -0.8591 C   0  0  0  0  0  0  0  0  0  0  0  0
    7.0878    0.5075   -0.2840 C   0  0  0  0  0  0  0  0  0  0  0  0
    6.5550    1.6056    0.3673 C   0  0  0  0  0  0  0  0  0  0  0  0
    5.1674    1.7291    0.4471 C   0  0  0  0  0  0  0  0  0  0  0  0
    4.6188    2.7951    1.0795 F   0  0  0  0  0  0  0  0  0  0  0  0
    8.5700    0.4204   -0.3427 C   0  0  0  0  0  0  0  0  0  0  0  0
    9.1031   -0.4737    1.0973 S   0  0  0  0  0  0  0  0  0  0  0  0
    8.7002    0.2016    2.3571 O   0  0  0  0  0  0  0  0  0  0  0  0
    8.5349   -1.8453    1.1088 O   0  0  0  0  0  0  0  0  0  0  0  0
   10.8755   -0.5896    1.0469 C   0  0  0  0  0  0  0  0  0  0  0  0
   -7.1749   -0.7063    0.3499 C   0  0  0  0  0  0  0  0  0  0  0  0
   -7.9253   -1.6724   -0.0736 O   0  0  0  0  0  0  0  0  0  0  0  0
   -9.1855   -1.3824    0.0438 N   0  0  0  0  0  0  0  0  0  0  0  0
   -9.2699   -0.1629    0.5715 C   0  0  0  0  0  0  0  0  0  0  0  0
   -8.0110    0.2621    0.7639 N   0  0  0  0  0  0  0  0  0  0  0  0
  -10.4583    0.6621    0.9211 C   0  0  0  0  0  0  0  0  0  0  0  0
  -10.4393    1.0242    2.2455 F   0  0  0  0  0  0  0  0  0  0  0  0
  -11.6090   -0.0768    0.6892 F   0  0  0  0  0  0  0  0  0  0  0  0
  -10.5008    1.7491    0.0641 F   0  0  0  0  0  0  0  0  0  0  0  0
   -4.3637   -0.2343   -3.1129 H   0  0  0  0  0  0  0  0  0  0  0  0
   -5.5453   -1.4772   -2.6934 H   0  0  0  0  0  0  0  0  0  0  0  0
   -5.6515    0.2024   -1.9403 H   0  0  0  0  0  0  0  0  0  0  0  0
   -3.4410   -1.9153   -1.6753 H   0  0  0  0  0  0  0  0  0  0  0  0
   -4.1943   -1.9901    0.7224 H   0  0  0  0  0  0  0  0  0  0  0  0
   -5.5416   -2.5916   -0.3944 H   0  0  0  0  0  0  0  0  0  0  0  0
   -4.6873    0.4198    1.9297 H   0  0  0  0  0  0  0  0  0  0  0  0
   -5.7963    1.3811    0.9406 H   0  0  0  0  0  0  0  0  0  0  0  0
   -3.1808    1.5263    0.6667 H   0  0  0  0  0  0  0  0  0  0  0  0
   -4.2736    1.7192   -0.7119 H   0  0  0  0  0  0  0  0  0  0  0  0
    0.6948    1.6811    0.4404 H   0  0  0  0  0  0  0  0  0  0  0  0
    0.7251   -2.0284   -1.7501 H   0  0  0  0  0  0  0  0  0  0  0  0
    2.5854    1.8618   -0.5769 H   0  0  0  0  0  0  0  0  0  0  0  0
    2.5534    1.0737    1.0432 H   0  0  0  0  0  0  0  0  0  0  0  0
    4.2315   -1.0809   -1.2082 H   0  0  0  0  0  0  0  0  0  0  0  0
    6.7288   -1.3341   -1.3700 H   0  0  0  0  0  0  0  0  0  0  0  0
    7.1813    2.3647    0.8126 H   0  0  0  0  0  0  0  0  0  0  0  0
    9.0787    1.3889   -0.4224 H   0  0  0  0  0  0  0  0  0  0  0  0
    8.9068   -0.1668   -1.2341 H   0  0  0  0  0  0  0  0  0  0  0  0
   11.2120   -1.5337    1.5332 H   0  0  0  0  0  0  0  0  0  0  0  0
   11.2564    0.3241    1.5745 H   0  0  0  0  0  0  0  0  0  0  0  0
   11.1928   -0.5375   -0.0142 H   0  0  0  0  0  0  0  0  0  0  0  0
  1  2  1  0
  2  3  1  0
  3  4  1  0
  4  5  1  0
  5  6  1  0
  6  7  1  0
  7  8  1  0
  8  9  2  0
  9 10  1  0
 10 11  2  0
 11 12  1  0
 12 13  2  0
 11 14  1  0
 14 15  1  0
 15 16  1  0
 16 17  2  0
 17 18  1  0
 18 19  2  0
 19 20  1  0
 20 21  2  0
 21 22  1  0
 19 23  1  0
 23 24  1  0
 24 25  2  0
 24 26  2  0
 24 27  1  0
  4 28  1  0
 28 29  1  0
 29 30  1  0
 30 31  2  0
 31 32  1  0
 31 33  1  0
 33 34  1  0
 33 35  1  0
 33 36  1  0
  7  2  1  0
 13  8  1  0
 21 16  1  0
 32 28  2  0
  1 37  1  0
  1 38  1  0
  1 39  1  0
  2 40  1  6
  3 41  1  0
  3 42  1  0
  5 43  1  0
  5 44  1  0
  6 45  1  0
  6 46  1  0
 10 47  1  0
 12 48  1  0
 15 49  1  0
 15 50  1  0
 17 51  1  0
 18 52  1  0
 20 53  1  0
 23 54  1  0
 23 55  1  0
 27 56  1  0
 27 57  1  0
 27 58  1  0
M  END
>  <Ligand ID>  (1) 
LIG0005273

>  <Ligand>  (1) 
CHEMBL3358006

>  <SMILES>  (1) 
C[C@@H]1CN(CCN1c1ncc(cn1)OCc1ccc(cc1F)CS(=O)(=O)C)c1onc(n1)C(F)(F)F

>  <CID>  (1) 
71722055.0

>  <ChEMBL ID>  (1) 
nan

>  <InChiKey>  (1) 
HXNOCBIFNWVJLT-CYBMUJFWSA-N

>  <InChi>  (1) 
InChI=1S/C21H22F4N6O4S/c1-13-10-30(20-28-18(29-35-20)21(23,24)25)5-6-31(13)19-26-8-16(9-27-19)34-11-15-4-3-14(7-17(15)22)12-36(2,32)33/h3-4,7-9,13H,5-6,10-12H2,1-2H3/t13-/m1/s1

>  <IUPAC Name>  (1) 
5-[(3R)-4-[5-[[2-fluoro-4-(methylsulfonylmethyl)phenyl]methoxy]pyrimidin-2-yl]-3-methylpiperazin-1-yl]-3-(trifluoromethyl)-1,2,4-oxadiazole

$$$$
