
     RDKit          3D

 58 61  0  0  0  0  0  0  0  0999 V2000
    7.6233   -1.6518    1.5964 O   0  0  0  0  0  0  0  0  0  0  0  0
    8.6507   -0.7347    1.5175 C   0  0  0  0  0  0  0  0  0  0  0  0
    9.3067   -0.5266    2.5814 O   0  0  0  0  0  0  0  0  0  0  0  0
    9.0431    0.0099    0.3193 C   0  0  0  0  0  0  0  0  0  0  0  0
    8.2394   -0.2729   -0.7759 O   0  0  0  0  0  0  0  0  0  0  0  0
    6.8758   -0.0684   -0.8912 C   0  0  0  0  0  0  0  0  0  0  0  0
    6.2956   -0.4477   -2.1040 C   0  0  0  0  0  0  0  0  0  0  0  0
    4.9326   -0.2855   -2.3254 C   0  0  0  0  0  0  0  0  0  0  0  0
    4.1652    0.2613   -1.3132 C   0  0  0  0  0  0  0  0  0  0  0  0
    4.7393    0.6361   -0.1149 C   0  0  0  0  0  0  0  0  0  0  0  0
    6.0920    0.4753    0.1046 C   0  0  0  0  0  0  0  0  0  0  0  0
    2.7178    0.4718   -1.4519 C   0  0  0  0  0  0  0  0  0  0  0  0
    2.2034    0.7646   -2.6993 C   0  0  0  0  0  0  0  0  0  0  0  0
    0.8251    0.9651   -2.8348 C   0  0  0  0  0  0  0  0  0  0  0  0
    0.0188    0.8624   -1.7073 C   0  0  0  0  0  0  0  0  0  0  0  0
    0.5236    0.5738   -0.4768 C   0  0  0  0  0  0  0  0  0  0  0  0
    1.8990    0.3701   -0.3212 C   0  0  0  0  0  0  0  0  0  0  0  0
   -0.2899    0.4511    0.7623 C   0  0  0  0  0  0  0  0  0  0  0  0
   -1.7385    0.3128    0.3147 C   0  0  2  0  0  0  0  0  0  0  0  0
   -1.9842    1.5210   -0.5639 C   0  0  0  0  0  0  0  0  0  0  0  0
   -1.4497    1.0928   -1.9372 C   0  0  0  0  0  0  0  0  0  0  0  0
   -2.6415    0.1549    1.3993 N   0  0  0  0  0  0  0  0  0  0  0  0
   -3.9722   -0.0859    0.9022 C   0  0  0  0  0  0  0  0  0  0  0  0
   -4.9684   -0.2815    2.0323 C   0  0  1  0  0  0  0  0  0  0  0  0
   -6.3228   -0.5040    1.4663 C   0  0  0  0  0  0  0  0  0  0  0  0
   -6.7197   -1.6979    0.9016 C   0  0  0  0  0  0  0  0  0  0  0  0
   -7.9908   -1.8552    0.3892 C   0  0  0  0  0  0  0  0  0  0  0  0
   -8.9208   -0.8153    0.4224 C   0  0  0  0  0  0  0  0  0  0  0  0
   -8.5360    0.3724    0.9805 C   0  0  0  0  0  0  0  0  0  0  0  0
   -7.2778    0.5153    1.4833 C   0  0  0  0  0  0  0  0  0  0  0  0
   -9.6367    1.7412    1.0687 Cl  0  0  0  0  0  0  0  0  0  0  0  0
   -4.6040   -1.3582    2.8030 O   0  0  0  0  0  0  0  0  0  0  0  0
    7.7121   -2.4933    2.1524 H   0  0  0  0  0  0  0  0  0  0  0  0
    8.9368    1.1174    0.5115 H   0  0  0  0  0  0  0  0  0  0  0  0
   10.1036   -0.1154    0.0423 H   0  0  0  0  0  0  0  0  0  0  0  0
    6.9087   -0.8796   -2.8999 H   0  0  0  0  0  0  0  0  0  0  0  0
    4.4705   -0.5779   -3.2680 H   0  0  0  0  0  0  0  0  0  0  0  0
    4.1406    1.0688    0.6892 H   0  0  0  0  0  0  0  0  0  0  0  0
    6.5332    0.7768    1.0435 H   0  0  0  0  0  0  0  0  0  0  0  0
    2.8404    0.8418   -3.5671 H   0  0  0  0  0  0  0  0  0  0  0  0
    0.4003    1.1977   -3.8132 H   0  0  0  0  0  0  0  0  0  0  0  0
    2.3160    0.1382    0.6572 H   0  0  0  0  0  0  0  0  0  0  0  0
   -0.2154    1.4253    1.2880 H   0  0  0  0  0  0  0  0  0  0  0  0
    0.0240   -0.3923    1.4060 H   0  0  0  0  0  0  0  0  0  0  0  0
   -1.7752   -0.6317   -0.2842 H   0  0  0  0  0  0  0  0  0  0  0  0
   -1.2955    2.3736   -0.2757 H   0  0  0  0  0  0  0  0  0  0  0  0
   -3.0133    1.8538   -0.6209 H   0  0  0  0  0  0  0  0  0  0  0  0
   -1.6544    1.8216   -2.7201 H   0  0  0  0  0  0  0  0  0  0  0  0
   -1.8853    0.0849   -2.1252 H   0  0  0  0  0  0  0  0  0  0  0  0
   -2.6209    0.8681    2.1334 H   0  0  0  0  0  0  0  0  0  0  0  0
   -4.3464    0.6793    0.2322 H   0  0  0  0  0  0  0  0  0  0  0  0
   -3.9967   -1.0646    0.3388 H   0  0  0  0  0  0  0  0  0  0  0  0
   -4.9975    0.6747    2.6102 H   0  0  0  0  0  0  0  0  0  0  0  0
   -6.0251   -2.5290    0.8578 H   0  0  0  0  0  0  0  0  0  0  0  0
   -8.3238   -2.7862   -0.0600 H   0  0  0  0  0  0  0  0  0  0  0  0
   -9.9179   -0.9331    0.0224 H   0  0  0  0  0  0  0  0  0  0  0  0
   -6.9666    1.4596    1.9293 H   0  0  0  0  0  0  0  0  0  0  0  0
   -4.4506   -2.1213    2.1922 H   0  0  0  0  0  0  0  0  0  0  0  0
  1  2  1  0
  2  3  2  0
  2  4  1  0
  4  5  1  0
  5  6  1  0
  6  7  2  0
  7  8  1  0
  8  9  2  0
  9 10  1  0
 10 11  2  0
  9 12  1  0
 12 13  2  0
 13 14  1  0
 14 15  2  0
 15 16  1  0
 16 17  2  0
 16 18  1  0
 18 19  1  0
 19 20  1  0
 20 21  1  0
 19 22  1  0
 22 23  1  0
 23 24  1  0
 24 25  1  0
 25 26  2  0
 26 27  1  0
 27 28  2  0
 28 29  1  0
 29 30  2  0
 29 31  1  0
 24 32  1  0
 11  6  1  0
 17 12  1  0
 30 25  1  0
 21 15  1  0
  1 33  1  0
  4 34  1  0
  4 35  1  0
  7 36  1  0
  8 37  1  0
 10 38  1  0
 11 39  1  0
 13 40  1  0
 14 41  1  0
 17 42  1  0
 18 43  1  0
 18 44  1  0
 19 45  1  6
 20 46  1  0
 20 47  1  0
 21 48  1  0
 21 49  1  0
 22 50  1  0
 23 51  1  0
 23 52  1  0
 24 53  1  1
 26 54  1  0
 27 55  1  0
 28 56  1  0
 30 57  1  0
 32 58  1  0
M  END
>  <Ligand ID>  (1) 
LIG0002990

>  <Ligand>  (1) 
CHEMBL497453

>  <SMILES>  (1) 
OC(=O)COc1ccc(cc1)c1ccc2c(c1)C[C@H](CC2)NC[C@@H](c1cccc(c1)Cl)O

>  <CID>  (1) 
24950403.0

>  <ChEMBL ID>  (1) 
nan

>  <InChiKey>  (1) 
BQHRITAIBBBODG-ZCYQVOJMSA-N

>  <InChi>  (1) 
InChI=1S/C26H26ClNO4/c27-22-3-1-2-20(13-22)25(29)15-28-23-9-6-18-4-5-19(12-21(18)14-23)17-7-10-24(11-8-17)32-16-26(30)31/h1-5,7-8,10-13,23,25,28-29H,6,9,14-16H2,(H,30,31)/t23-,25-/m0/s1

>  <IUPAC Name>  (1) 
2-[4-[(7S)-7-[[(2R)-2-(3-chlorophenyl)-2-hydroxyethyl]amino]-5,6,7,8-tetrahydronaphthalen-2-yl]phenoxy]acetic acid

$$$$
