
     RDKit          3D

 29 28  0  0  0  0  0  0  0  0999 V2000
   -2.8664    1.7434   -0.9685 C   0  0  0  0  0  0  0  0  0  0  0  0
   -2.1608    0.6204   -0.9947 C   0  0  0  0  0  0  0  0  0  0  0  0
   -2.1372   -0.3361    0.1437 C   0  0  0  0  0  0  0  0  0  0  0  0
   -0.7947   -0.3270    0.8326 C   0  0  0  0  0  0  0  0  0  0  0  0
    0.3412   -0.7060   -0.0604 C   0  0  0  0  0  0  0  0  0  0  0  0
    1.6491   -0.6869    0.6498 C   0  0  0  0  0  0  0  0  0  0  0  0
    2.6507    0.0999    0.2695 C   0  0  0  0  0  0  0  0  0  0  0  0
    2.4913    0.9978   -0.8945 C   0  0  0  0  0  0  0  0  0  0  0  0
    3.9221    0.0649    1.0239 C   0  0  0  0  0  0  0  0  0  0  0  0
   -3.0669    0.1180    1.0822 O   0  0  0  0  0  0  0  0  0  0  0  0
   -2.5345   -1.6702   -0.3733 C   0  0  0  0  0  0  0  0  0  0  0  0
   -3.4342    1.9508   -0.0840 H   0  0  0  0  0  0  0  0  0  0  0  0
   -2.8232    2.3808   -1.8455 H   0  0  0  0  0  0  0  0  0  0  0  0
   -1.5493    0.3315   -1.8660 H   0  0  0  0  0  0  0  0  0  0  0  0
   -0.6093    0.7018    1.2097 H   0  0  0  0  0  0  0  0  0  0  0  0
   -0.7929   -0.9795    1.7255 H   0  0  0  0  0  0  0  0  0  0  0  0
    0.3709    0.0557   -0.8765 H   0  0  0  0  0  0  0  0  0  0  0  0
    0.1774   -1.6857   -0.5583 H   0  0  0  0  0  0  0  0  0  0  0  0
    1.7475   -1.3516    1.5005 H   0  0  0  0  0  0  0  0  0  0  0  0
    1.7455    1.8002   -0.6920 H   0  0  0  0  0  0  0  0  0  0  0  0
    3.4827    1.4639   -1.1414 H   0  0  0  0  0  0  0  0  0  0  0  0
    2.1468    0.4399   -1.8033 H   0  0  0  0  0  0  0  0  0  0  0  0
    3.7911   -0.1792    2.0964 H   0  0  0  0  0  0  0  0  0  0  0  0
    4.5902   -0.6960    0.5632 H   0  0  0  0  0  0  0  0  0  0  0  0
    4.3634    1.0797    0.9919 H   0  0  0  0  0  0  0  0  0  0  0  0
   -2.6137    0.8549    1.5810 H   0  0  0  0  0  0  0  0  0  0  0  0
   -2.1612   -2.5230    0.2202 H   0  0  0  0  0  0  0  0  0  0  0  0
   -2.2785   -1.8358   -1.4256 H   0  0  0  0  0  0  0  0  0  0  0  0
   -3.6469   -1.7267   -0.3059 H   0  0  0  0  0  0  0  0  0  0  0  0
  1  2  2  0
  2  3  1  0
  3  4  1  0
  4  5  1  0
  5  6  1  0
  6  7  2  3
  7  8  1  0
  7  9  1  0
  3 10  1  0
  3 11  1  0
  1 12  1  0
  1 13  1  0
  2 14  1  0
  4 15  1  0
  4 16  1  0
  5 17  1  0
  5 18  1  0
  6 19  1  0
  8 20  1  0
  8 21  1  0
  8 22  1  0
  9 23  1  0
  9 24  1  0
  9 25  1  0
 10 26  1  0
 11 27  1  0
 11 28  1  0
 11 29  1  0
M  END
>  <Ligand ID>  (1) 
LIG0000081

>  <Ligand>  (1) 
Limonene

>  <SMILES>  (1) 
C=CC(CCC=C(C)C)(O)C

>  <CID>  (1) 
6549.0

>  <ChEMBL ID>  (1) 
nan

>  <InChiKey>  (1) 
CDOSHBSSFJOMGT-UHFFFAOYSA-N

>  <InChi>  (1) 
InChI=1S/C10H18O/c1-5-10(4,11)8-6-7-9(2)3/h5,7,11H,1,6,8H2,2-4H3

>  <IUPAC Name>  (1) 
3,7-dimethylocta-1,6-dien-3-ol

$$$$
