
     RDKit          3D

 38 40  0  0  0  0  0  0  0  0999 V2000
   -3.4502    1.0396    0.7616 C   0  0  0  0  0  0  0  0  0  0  0  0
   -3.1984    0.0124   -0.2735 C   0  0  0  0  0  0  0  0  0  0  0  0
   -2.0864   -0.8085   -0.2319 N   0  0  0  0  0  0  0  0  0  0  0  0
   -0.7698   -0.4163   -0.4797 C   0  0  2  0  0  0  0  0  0  0  0  0
    0.0841   -1.6837   -0.4357 C   0  0  0  0  0  0  0  0  0  0  0  0
    1.1399   -1.6441   -1.5336 C   0  0  0  0  0  0  0  0  0  0  0  0
    2.3278   -0.9517   -1.0186 N   0  0  0  0  0  0  0  0  0  0  0  0
    2.2459    0.0529   -0.1217 C   0  0  0  0  0  0  0  0  0  0  0  0
    1.2256    0.6900    0.5109 C   0  0  0  0  0  0  0  0  0  0  0  0
   -0.2660    0.6015    0.4983 C   0  0  1  0  0  0  0  0  0  0  0  0
   -0.7703    1.8782    0.2096 O   0  0  0  0  0  0  0  0  0  0  0  0
    1.5701    1.7030    1.3953 C   0  0  0  0  0  0  0  0  0  0  0  0
    2.9038    2.0542    1.6255 C   0  0  0  0  0  0  0  0  0  0  0  0
    3.9362    1.4058    0.9807 C   0  0  0  0  0  0  0  0  0  0  0  0
    3.5815    0.4015    0.1057 C   0  0  0  0  0  0  0  0  0  0  0  0
    4.3825   -0.3789   -0.6382 N   0  0  0  0  0  0  0  0  0  0  0  0
    3.6004   -1.2199   -1.3369 C   0  0  0  0  0  0  0  0  0  0  0  0
    3.9314   -2.1200   -2.1577 O   0  0  0  0  0  0  0  0  0  0  0  0
   -4.4432   -0.9093   -0.3280 C   0  0  0  0  0  0  0  0  0  0  0  0
   -2.8747    0.9941    1.6814 H   0  0  0  0  0  0  0  0  0  0  0  0
   -4.5337    0.9541    1.1188 H   0  0  0  0  0  0  0  0  0  0  0  0
   -3.4428    2.1029    0.3718 H   0  0  0  0  0  0  0  0  0  0  0  0
   -3.2252    0.5009   -1.2979 H   0  0  0  0  0  0  0  0  0  0  0  0
   -2.2365   -1.8132    0.0056 H   0  0  0  0  0  0  0  0  0  0  0  0
   -0.6111    0.0357   -1.4945 H   0  0  0  0  0  0  0  0  0  0  0  0
   -0.5742   -2.5302   -0.7005 H   0  0  0  0  0  0  0  0  0  0  0  0
    0.5922   -1.8303    0.5220 H   0  0  0  0  0  0  0  0  0  0  0  0
    0.7585   -1.2039   -2.4635 H   0  0  0  0  0  0  0  0  0  0  0  0
    1.4434   -2.6851   -1.7290 H   0  0  0  0  0  0  0  0  0  0  0  0
   -0.6285    0.3284    1.5090 H   0  0  0  0  0  0  0  0  0  0  0  0
   -0.9257    2.3636    1.0480 H   0  0  0  0  0  0  0  0  0  0  0  0
    0.8500    2.2749    1.9570 H   0  0  0  0  0  0  0  0  0  0  0  0
    3.1555    2.8413    2.3135 H   0  0  0  0  0  0  0  0  0  0  0  0
    4.9740    1.6739    1.1548 H   0  0  0  0  0  0  0  0  0  0  0  0
    5.4248   -0.3459   -0.6742 H   0  0  0  0  0  0  0  0  0  0  0  0
   -5.2871   -0.3707   -0.7867 H   0  0  0  0  0  0  0  0  0  0  0  0
   -4.1594   -1.8420   -0.8218 H   0  0  0  0  0  0  0  0  0  0  0  0
   -4.6443   -1.1553    0.7539 H   0  0  0  0  0  0  0  0  0  0  0  0
  1  2  1  0
  2  3  1  0
  3  4  1  0
  4  5  1  0
  5  6  1  0
  6  7  1  0
  7  8  1  0
  8  9  2  0
  9 10  1  0
 10 11  1  0
  9 12  1  0
 12 13  2  0
 13 14  1  0
 14 15  2  0
 15 16  1  0
 16 17  1  0
 17 18  2  0
  2 19  1  0
 10  4  1  0
 17  7  1  0
 15  8  1  0
  1 20  1  0
  1 21  1  0
  1 22  1  0
  2 23  1  0
  3 24  1  0
  4 25  1  6
  5 26  1  0
  5 27  1  0
  6 28  1  0
  6 29  1  0
 10 30  1  1
 11 31  1  0
 12 32  1  0
 13 33  1  0
 14 34  1  0
 16 35  1  0
 19 36  1  0
 19 37  1  0
 19 38  1  0
M  END
>  <Ligand ID>  (1) 
LIG0003479

>  <Ligand>  (1) 
Zilpaterol

>  <SMILES>  (1) 
CC(N[C@@H]1CCn2c3c([C@H]1O)cccc3[nH]c2=O)C

>  <CID>  (1) 
3086576.0

>  <ChEMBL ID>  (1) 
nan

>  <InChiKey>  (1) 
ZSTCZWJCLIRCOJ-DGCLKSJQSA-N

>  <InChi>  (1) 
InChI=1S/C14H19N3O2/c1-8(2)15-11-6-7-17-12-9(13(11)18)4-3-5-10(12)16-14(17)19/h3-5,8,11,13,15,18H,6-7H2,1-2H3,(H,16,19)/t11-,13-/m1/s1

>  <IUPAC Name>  (1) 
(9R,10R)-9-hydroxy-10-(propan-2-ylamino)-1,3-diazatricyclo[6.4.1.04,13]trideca-4,6,8(13)-trien-2-one

$$$$
