
     RDKit          3D

 69 73  0  0  0  0  0  0  0  0999 V2000
   -0.1853    2.3889   -1.1641 C   0  0  0  0  0  0  0  0  0  0  0  0
    0.2965    2.3405    0.2886 C   0  0  2  0  0  0  0  0  0  0  0  0
    1.7553    2.6468    0.3064 C   0  0  0  0  0  0  0  0  0  0  0  0
    2.5355    1.6708   -0.4693 C   0  0  0  0  0  0  0  0  0  0  0  0
    2.9143    1.8733   -1.7961 C   0  0  0  0  0  0  0  0  0  0  0  0
    3.5919    0.7862   -2.2241 N   0  0  0  0  0  0  0  0  0  0  0  0
    3.6821   -0.1311   -1.2424 C   0  0  0  0  0  0  0  0  0  0  0  0
    3.0210    0.4268   -0.1488 C   0  0  0  0  0  0  0  0  0  0  0  0
    2.9862   -0.3216    0.9929 C   0  0  0  0  0  0  0  0  0  0  0  0
    3.5518   -1.5675    1.1253 C   0  0  0  0  0  0  0  0  0  0  0  0
    4.2100   -2.1272    0.0389 C   0  0  0  0  0  0  0  0  0  0  0  0
    4.2504   -1.3791   -1.1161 C   0  0  0  0  0  0  0  0  0  0  0  0
    4.9028   -1.9034   -2.2350 O   0  0  0  0  0  0  0  0  0  0  0  0
    6.5572   -1.6110   -2.4787 S   0  0  0  0  0  0  0  0  0  0  0  0
    7.3938   -2.8491   -2.3502 O   0  0  0  0  0  0  0  0  0  0  0  0
    6.7897   -1.0280   -3.8356 O   0  0  0  0  0  0  0  0  0  0  0  0
    7.1258   -0.4552   -1.2787 C   0  0  0  0  0  0  0  0  0  0  0  0
    7.0839    0.8902   -1.5656 C   0  0  0  0  0  0  0  0  0  0  0  0
    7.5409    1.7571   -0.5911 C   0  0  0  0  0  0  0  0  0  0  0  0
    8.0199    1.3027    0.6193 C   0  0  0  0  0  0  0  0  0  0  0  0
    8.0444   -0.0293    0.8620 N   0  0  0  0  0  0  0  0  0  0  0  0
    7.6105   -0.9225   -0.0534 C   0  0  0  0  0  0  0  0  0  0  0  0
    0.0401    1.0443    0.8598 N   0  0  0  0  0  0  0  0  0  0  0  0
   -1.4223    0.8280    0.9924 C   0  0  0  0  0  0  0  0  0  0  0  0
   -1.5946   -0.5225    1.5779 C   0  0  1  0  0  0  0  0  0  0  0  0
   -2.9578   -0.9301    1.8735 C   0  0  0  0  0  0  0  0  0  0  0  0
   -3.1874   -2.2677    2.1912 C   0  0  0  0  0  0  0  0  0  0  0  0
   -4.4764   -2.6801    2.4792 C   0  0  0  0  0  0  0  0  0  0  0  0
   -5.5290   -1.7903    2.4561 C   0  0  0  0  0  0  0  0  0  0  0  0
   -5.3235   -0.4458    2.1407 C   0  0  0  0  0  0  0  0  0  0  0  0
   -4.0266   -0.0630    1.8575 C   0  0  0  0  0  0  0  0  0  0  0  0
   -6.4224    0.4564    2.1247 N   0  0  0  0  0  0  0  0  0  0  0  0
   -7.9333    0.1150    1.3967 S   0  0  0  0  0  0  0  0  0  0  0  0
   -8.4843   -1.1544    2.0059 O   0  0  0  0  0  0  0  0  0  0  0  0
   -8.9185    1.1834    1.6785 O   0  0  0  0  0  0  0  0  0  0  0  0
   -7.8189   -0.1651   -0.3126 C   0  0  0  0  0  0  0  0  0  0  0  0
   -8.4060    0.4935   -1.3378 C   0  0  0  0  0  0  0  0  0  0  0  0
   -8.1807    0.1066   -2.5937 C   0  0  0  0  0  0  0  0  0  0  0  0
   -7.3352   -0.9760   -2.7723 C   0  0  0  0  0  0  0  0  0  0  0  0
   -6.8407   -1.4610   -1.0527 S   0  0  0  0  0  0  0  0  0  0  0  0
   -1.0235   -1.4832    0.7269 O   0  0  0  0  0  0  0  0  0  0  0  0
    0.3167    3.2383   -1.6504 H   0  0  0  0  0  0  0  0  0  0  0  0
   -1.2966    2.5772   -1.1409 H   0  0  0  0  0  0  0  0  0  0  0  0
    0.0089    1.4362   -1.6754 H   0  0  0  0  0  0  0  0  0  0  0  0
   -0.3059    3.0879    0.8583 H   0  0  0  0  0  0  0  0  0  0  0  0
    2.1028    2.5133    1.3808 H   0  0  0  0  0  0  0  0  0  0  0  0
    1.9747    3.6990   -0.0061 H   0  0  0  0  0  0  0  0  0  0  0  0
    2.7347    2.7199   -2.4340 H   0  0  0  0  0  0  0  0  0  0  0  0
    4.0022    0.6442   -3.1792 H   0  0  0  0  0  0  0  0  0  0  0  0
    2.4748    0.1076    1.8499 H   0  0  0  0  0  0  0  0  0  0  0  0
    3.4744   -2.0852    2.0642 H   0  0  0  0  0  0  0  0  0  0  0  0
    4.6631   -3.1151    0.1302 H   0  0  0  0  0  0  0  0  0  0  0  0
    6.7035    1.2112   -2.5199 H   0  0  0  0  0  0  0  0  0  0  0  0
    7.5198    2.8095   -0.7869 H   0  0  0  0  0  0  0  0  0  0  0  0
    8.3794    1.9830    1.3878 H   0  0  0  0  0  0  0  0  0  0  0  0
    7.6055   -1.9788    0.0813 H   0  0  0  0  0  0  0  0  0  0  0  0
    0.3966    0.3016    0.1720 H   0  0  0  0  0  0  0  0  0  0  0  0
   -1.9083    1.6485    1.5071 H   0  0  0  0  0  0  0  0  0  0  0  0
   -1.7995    0.8162   -0.0519 H   0  0  0  0  0  0  0  0  0  0  0  0
   -0.9933   -0.6022    2.5253 H   0  0  0  0  0  0  0  0  0  0  0  0
   -2.3389   -2.9636    2.2045 H   0  0  0  0  0  0  0  0  0  0  0  0
   -4.6162   -3.7333    2.7234 H   0  0  0  0  0  0  0  0  0  0  0  0
   -6.5072   -2.1864    2.6916 H   0  0  0  0  0  0  0  0  0  0  0  0
   -3.8685    0.9777    1.6134 H   0  0  0  0  0  0  0  0  0  0  0  0
   -6.2828    1.3798    2.5903 H   0  0  0  0  0  0  0  0  0  0  0  0
   -9.0822    1.3659   -1.1108 H   0  0  0  0  0  0  0  0  0  0  0  0
   -8.6221    0.5918   -3.4846 H   0  0  0  0  0  0  0  0  0  0  0  0
   -6.9718   -1.5079   -3.6625 H   0  0  0  0  0  0  0  0  0  0  0  0
   -1.6016   -1.6830   -0.0535 H   0  0  0  0  0  0  0  0  0  0  0  0
  1  2  1  0
  2  3  1  0
  3  4  1  0
  4  5  2  0
  5  6  1  0
  6  7  1  0
  7  8  2  0
  8  9  1  0
  9 10  2  0
 10 11  1  0
 11 12  2  0
 12 13  1  0
 13 14  1  0
 14 15  2  0
 14 16  2  0
 14 17  1  0
 17 18  2  0
 18 19  1  0
 19 20  2  0
 20 21  1  0
 21 22  2  0
  2 23  1  0
 23 24  1  0
 24 25  1  0
 25 26  1  0
 26 27  2  0
 27 28  1  0
 28 29  2  0
 29 30  1  0
 30 31  2  0
 30 32  1  0
 32 33  1  0
 33 34  2  0
 33 35  2  0
 33 36  1  0
 36 37  2  0
 37 38  1  0
 38 39  2  0
 39 40  1  0
 25 41  1  0
  8  4  1  0
 22 17  1  0
 31 26  1  0
 40 36  1  0
 12  7  1  0
  1 42  1  0
  1 43  1  0
  1 44  1  0
  2 45  1  1
  3 46  1  0
  3 47  1  0
  5 48  1  0
  6 49  1  0
  9 50  1  0
 10 51  1  0
 11 52  1  0
 18 53  1  0
 19 54  1  0
 20 55  1  0
 22 56  1  0
 23 57  1  0
 24 58  1  0
 24 59  1  0
 25 60  1  1
 27 61  1  0
 28 62  1  0
 29 63  1  0
 31 64  1  0
 32 65  1  0
 37 66  1  0
 38 67  1  0
 39 68  1  0
 41 69  1  0
M  END
>  <Ligand ID>  (1) 
LIG0002229

>  <Ligand>  (1) 
CHEMBL189081

>  <SMILES>  (1) 
C[C@H](Cc1c[nH]c2c1cccc2OS(=O)(=O)c1cccnc1)NC[C@@H](c1cccc(c1)NS(=O)(=O)c1cccs1)O

>  <CID>  (1) 
44396715.0

>  <ChEMBL ID>  (1) 
nan

>  <InChiKey>  (1) 
IKLSTZJKPLQBND-CLOONOSVSA-N

>  <InChi>  (1) 
InChI=1S/C28H28N4O6S3/c1-19(30-18-25(33)20-6-2-7-22(15-20)32-40(34,35)27-11-5-13-39-27)14-21-16-31-28-24(21)9-3-10-26(28)38-41(36,37)23-8-4-12-29-17-23/h2-13,15-17,19,25,30-33H,14,18H2,1H3/t19-,25+/m1/s1

>  <IUPAC Name>  (1) 
[3-[(2R)-2-[[(2R)-2-hydroxy-2-[3-(thiophen-2-ylsulfonylamino)phenyl]ethyl]amino]propyl]-1H-indol-7-yl] pyridine-3-sulfonate

$$$$
