
     RDKit          3D

 45 48  0  0  0  0  0  0  0  0999 V2000
    5.9182   -1.0708   -1.0402 C   0  0  0  0  0  0  0  0  0  0  0  0
    5.8868   -0.2034    0.0818 O   0  0  0  0  0  0  0  0  0  0  0  0
    4.7278    0.4743    0.4691 C   0  0  0  0  0  0  0  0  0  0  0  0
    4.7134    1.3186    1.5691 C   0  0  0  0  0  0  0  0  0  0  0  0
    3.5407    1.9636    1.9079 C   0  0  0  0  0  0  0  0  0  0  0  0
    2.3917    1.7614    1.1469 C   0  0  0  0  0  0  0  0  0  0  0  0
    2.3912    0.9220    0.0469 C   0  0  0  0  0  0  0  0  0  0  0  0
    3.5753    0.2883   -0.2722 C   0  0  0  0  0  0  0  0  0  0  0  0
    1.1038    2.4554    1.5059 C   0  0  0  0  0  0  0  0  0  0  0  0
    0.1366    1.4307    2.6481 S   0  0  0  0  0  0  0  0  0  0  0  0
   -0.4410   -0.0696    1.8984 C   0  0  0  0  0  0  0  0  0  0  0  0
    0.2529   -1.2096    1.8720 N   0  0  0  0  0  0  0  0  0  0  0  0
   -0.4651   -2.1106    1.2534 N   0  0  0  0  0  0  0  0  0  0  0  0
   -1.6069   -1.5441    0.8905 C   0  0  0  0  0  0  0  0  0  0  0  0
   -1.6238   -0.2386    1.2883 N   0  0  0  0  0  0  0  0  0  0  0  0
   -2.7169    0.6495    1.0651 C   0  0  0  0  0  0  0  0  0  0  0  0
   -2.6061    1.3663   -0.2221 C   0  0  0  0  0  0  0  0  0  0  0  0
   -2.0911    2.6292   -0.5244 C   0  0  0  0  0  0  0  0  0  0  0  0
   -2.1320    3.0029   -1.8094 C   0  0  0  0  0  0  0  0  0  0  0  0
   -2.6439    2.1918   -2.7327 C   0  0  0  0  0  0  0  0  0  0  0  0
   -3.1770    0.6727   -1.8334 S   0  0  0  0  0  0  0  0  0  0  0  0
   -2.6609   -2.2653    0.1670 C   0  0  0  0  0  0  0  0  0  0  0  0
   -2.2471   -3.0053   -0.9244 C   0  0  0  0  0  0  0  0  0  0  0  0
   -3.1665   -3.7269   -1.6786 C   0  0  0  0  0  0  0  0  0  0  0  0
   -4.5125   -3.6833   -1.3047 C   0  0  0  0  0  0  0  0  0  0  0  0
   -4.8726   -2.9200   -0.1944 C   0  0  0  0  0  0  0  0  0  0  0  0
   -3.9501   -2.2306    0.5159 N   0  0  0  0  0  0  0  0  0  0  0  0
    5.4170   -0.6527   -1.9308 H   0  0  0  0  0  0  0  0  0  0  0  0
    5.5435   -2.0915   -0.7705 H   0  0  0  0  0  0  0  0  0  0  0  0
    7.0159   -1.1904   -1.2690 H   0  0  0  0  0  0  0  0  0  0  0  0
    5.6277    1.4439    2.1285 H   0  0  0  0  0  0  0  0  0  0  0  0
    3.5271    2.6319    2.7772 H   0  0  0  0  0  0  0  0  0  0  0  0
    1.4955    0.7610   -0.5507 H   0  0  0  0  0  0  0  0  0  0  0  0
    3.5400   -0.3652   -1.1434 H   0  0  0  0  0  0  0  0  0  0  0  0
    0.5989    2.6643    0.5550 H   0  0  0  0  0  0  0  0  0  0  0  0
    1.3139    3.4099    2.0270 H   0  0  0  0  0  0  0  0  0  0  0  0
   -3.6500    0.0424    1.1230 H   0  0  0  0  0  0  0  0  0  0  0  0
   -2.7416    1.4067    1.8783 H   0  0  0  0  0  0  0  0  0  0  0  0
   -1.6906    3.2369    0.3079 H   0  0  0  0  0  0  0  0  0  0  0  0
   -1.7286    4.0161   -2.1131 H   0  0  0  0  0  0  0  0  0  0  0  0
   -2.7729    2.2900   -3.7987 H   0  0  0  0  0  0  0  0  0  0  0  0
   -1.1899   -3.0493   -1.2307 H   0  0  0  0  0  0  0  0  0  0  0  0
   -2.8611   -4.3129   -2.5373 H   0  0  0  0  0  0  0  0  0  0  0  0
   -5.2566   -4.2324   -1.8677 H   0  0  0  0  0  0  0  0  0  0  0  0
   -5.9133   -2.8575    0.1342 H   0  0  0  0  0  0  0  0  0  0  0  0
  1  2  1  0
  2  3  1  0
  3  4  2  0
  4  5  1  0
  5  6  2  0
  6  7  1  0
  7  8  2  0
  6  9  1  0
  9 10  1  0
 10 11  1  0
 11 12  2  0
 12 13  1  0
 13 14  2  0
 14 15  1  0
 15 16  1  0
 16 17  1  0
 17 18  2  0
 18 19  1  0
 19 20  2  0
 20 21  1  0
 14 22  1  0
 22 23  2  0
 23 24  1  0
 24 25  2  0
 25 26  1  0
 26 27  2  0
  8  3  1  0
 15 11  1  0
 21 17  1  0
 27 22  1  0
  1 28  1  0
  1 29  1  0
  1 30  1  0
  4 31  1  0
  5 32  1  0
  7 33  1  0
  8 34  1  0
  9 35  1  0
  9 36  1  0
 16 37  1  0
 16 38  1  0
 18 39  1  0
 19 40  1  0
 20 41  1  0
 23 42  1  0
 24 43  1  0
 25 44  1  0
 26 45  1  0
M  END
>  <Ligand ID>  (1) 
LIG0004817

>  <Ligand>  (1) 
KSC-5-247D

>  <SMILES>  (1) 
COc1ccc(cc1)CSc1nnc(n1Cc1cccs1)c1ccccn1

>  <CID>  (1) 
44601471.0

>  <ChEMBL ID>  (1) 
nan

>  <InChiKey>  (1) 
PMBLGXCUIPSJDG-UHFFFAOYSA-N

>  <InChi>  (1) 
InChI=1S/C20H18N4OS2/c1-25-16-9-7-15(8-10-16)14-27-20-23-22-19(18-6-2-3-11-21-18)24(20)13-17-5-4-12-26-17/h2-12H,13-14H2,1H3

>  <IUPAC Name>  (1) 
2-[5-[(4-methoxyphenyl)methylsulfanyl]-4-(thiophen-2-ylmethyl)-1,2,4-triazol-3-yl]pyridine

$$$$
