
     RDKit          3D

 76 79  0  0  0  0  0  0  0  0999 V2000
    3.6170   -1.4443    0.4510 O   0  0  0  0  0  0  0  0  0  0  0  0
    3.7686   -0.9134   -0.6778 C   0  0  0  0  0  0  0  0  0  0  0  0
    2.8997    0.1357   -1.1283 N   0  0  0  0  0  0  0  0  0  0  0  0
    1.8614    0.5549   -0.2503 C   0  0  0  0  0  0  0  0  0  0  0  0
    0.5536    0.3885   -0.9619 C   0  0  0  0  0  0  0  0  0  0  0  0
    0.6244   -0.0626   -2.1546 O   0  0  0  0  0  0  0  0  0  0  0  0
   -0.6931    0.7056   -0.3640 N   0  0  0  0  0  0  0  0  0  0  0  0
   -1.8999    0.5077   -1.1270 C   0  0  0  0  0  0  0  0  0  0  0  0
   -2.6637   -0.5620   -0.3844 C   0  0  0  0  0  0  0  0  0  0  0  0
   -2.0789   -0.9958    0.6534 O   0  0  0  0  0  0  0  0  0  0  0  0
   -3.9121   -1.0423   -0.7969 N   0  0  0  0  0  0  0  0  0  0  0  0
   -4.6567   -2.0528   -0.1139 C   0  0  0  0  0  0  0  0  0  0  0  0
   -4.9899   -1.6164    1.2956 C   0  0  0  0  0  0  0  0  0  0  0  0
   -5.7599   -2.6453    2.0445 C   0  0  0  0  0  0  0  0  0  0  0  0
   -4.9996   -3.5748    2.7539 C   0  0  0  0  0  0  0  0  0  0  0  0
   -5.5682   -4.5853    3.4973 C   0  0  0  0  0  0  0  0  0  0  0  0
   -6.9501   -4.6412    3.5116 C   0  0  0  0  0  0  0  0  0  0  0  0
   -7.7109   -3.7276    2.8141 C   0  0  0  0  0  0  0  0  0  0  0  0
   -7.1326   -2.7076    2.0638 C   0  0  0  0  0  0  0  0  0  0  0  0
   -2.7963    1.6883   -1.2293 C   0  0  0  0  0  0  0  0  0  0  0  0
   -2.2335    2.8863   -1.8610 C   0  0  0  0  0  0  0  0  0  0  0  0
   -2.4801    3.2200   -3.1983 C   0  0  0  0  0  0  0  0  0  0  0  0
   -1.8081    4.3620   -3.4869 N   0  0  0  0  0  0  0  0  0  0  0  0
   -1.1343    4.7913   -2.4031 C   0  0  0  0  0  0  0  0  0  0  0  0
   -1.4025    3.8774   -1.4086 C   0  0  0  0  0  0  0  0  0  0  0  0
   -0.8346    4.0874   -0.1756 C   0  0  0  0  0  0  0  0  0  0  0  0
   -0.0207    5.1675    0.0792 C   0  0  0  0  0  0  0  0  0  0  0  0
    0.2416    6.0737   -0.9205 C   0  0  0  0  0  0  0  0  0  0  0  0
   -0.3094    5.9010   -2.1749 C   0  0  0  0  0  0  0  0  0  0  0  0
    1.9240    1.9559    0.2734 C   0  0  0  0  0  0  0  0  0  0  0  0
    3.1313    2.2791    1.0828 C   0  0  0  0  0  0  0  0  0  0  0  0
    4.4204    2.2099    0.4034 C   0  0  0  0  0  0  0  0  0  0  0  0
    4.6434    2.1844   -0.8182 O   0  0  0  0  0  0  0  0  0  0  0  0
    5.5962    2.1688    1.2486 N   0  0  0  0  0  0  0  0  0  0  0  0
    4.8884   -1.4282   -1.5121 C   0  0  0  0  0  0  0  0  0  0  0  0
    5.5409   -2.5025   -0.7118 C   0  0  0  0  0  0  0  0  0  0  0  0
    6.5731   -2.2568    0.1701 C   0  0  0  0  0  0  0  0  0  0  0  0
    7.1419   -3.2921    0.8886 C   0  0  0  0  0  0  0  0  0  0  0  0
    6.6561   -4.5658    0.7032 C   0  0  0  0  0  0  0  0  0  0  0  0
    5.6263   -4.8595   -0.1669 C   0  0  0  0  0  0  0  0  0  0  0  0
    5.0733   -3.7973   -0.8765 C   0  0  0  0  0  0  0  0  0  0  0  0
    7.3703   -5.8831    1.6099 Cl  0  0  0  0  0  0  0  0  0  0  0  0
    3.0230    0.5534   -2.0800 H   0  0  0  0  0  0  0  0  0  0  0  0
    1.8078   -0.1735    0.6279 H   0  0  0  0  0  0  0  0  0  0  0  0
   -0.7362    1.0632    0.6054 H   0  0  0  0  0  0  0  0  0  0  0  0
   -1.6532    0.0684   -2.1306 H   0  0  0  0  0  0  0  0  0  0  0  0
   -4.3156   -0.6105   -1.6835 H   0  0  0  0  0  0  0  0  0  0  0  0
   -5.5979   -2.2706   -0.6545 H   0  0  0  0  0  0  0  0  0  0  0  0
   -4.1212   -3.0273   -0.0581 H   0  0  0  0  0  0  0  0  0  0  0  0
   -5.6145   -0.6999    1.2593 H   0  0  0  0  0  0  0  0  0  0  0  0
   -4.0400   -1.3650    1.8041 H   0  0  0  0  0  0  0  0  0  0  0  0
   -3.9190   -3.5270    2.7384 H   0  0  0  0  0  0  0  0  0  0  0  0
   -4.9330   -5.2757    4.0257 H   0  0  0  0  0  0  0  0  0  0  0  0
   -7.4378   -5.4203    4.0841 H   0  0  0  0  0  0  0  0  0  0  0  0
   -8.7822   -3.8302    2.8694 H   0  0  0  0  0  0  0  0  0  0  0  0
   -7.7040   -1.9904    1.5174 H   0  0  0  0  0  0  0  0  0  0  0  0
   -3.7333    1.3626   -1.7670 H   0  0  0  0  0  0  0  0  0  0  0  0
   -3.1463    1.9261   -0.1853 H   0  0  0  0  0  0  0  0  0  0  0  0
   -3.0937    2.6871   -3.9137 H   0  0  0  0  0  0  0  0  0  0  0  0
   -1.8094    4.8475   -4.4215 H   0  0  0  0  0  0  0  0  0  0  0  0
   -1.0348    3.3934    0.6151 H   0  0  0  0  0  0  0  0  0  0  0  0
    0.4023    5.2794    1.0844 H   0  0  0  0  0  0  0  0  0  0  0  0
    0.8924    6.9296   -0.7018 H   0  0  0  0  0  0  0  0  0  0  0  0
   -0.1113    6.6086   -2.9742 H   0  0  0  0  0  0  0  0  0  0  0  0
    0.9782    2.1126    0.8811 H   0  0  0  0  0  0  0  0  0  0  0  0
    1.7984    2.6983   -0.5653 H   0  0  0  0  0  0  0  0  0  0  0  0
    3.0026    3.3443    1.4533 H   0  0  0  0  0  0  0  0  0  0  0  0
    3.1464    1.6466    2.0105 H   0  0  0  0  0  0  0  0  0  0  0  0
    6.4972    2.6080    0.9223 H   0  0  0  0  0  0  0  0  0  0  0  0
    5.5412    1.6965    2.1900 H   0  0  0  0  0  0  0  0  0  0  0  0
    4.5351   -1.7689   -2.4920 H   0  0  0  0  0  0  0  0  0  0  0  0
    5.6445   -0.6207   -1.7077 H   0  0  0  0  0  0  0  0  0  0  0  0
    6.9358   -1.2429    0.2955 H   0  0  0  0  0  0  0  0  0  0  0  0
    7.9522   -3.1048    1.5835 H   0  0  0  0  0  0  0  0  0  0  0  0
    5.2456   -5.8468   -0.3142 H   0  0  0  0  0  0  0  0  0  0  0  0
    4.2637   -4.0400   -1.5594 H   0  0  0  0  0  0  0  0  0  0  0  0
  1  2  2  0
  2  3  1  0
  3  4  1  0
  4  5  1  0
  5  6  2  0
  5  7  1  0
  7  8  1  0
  8  9  1  0
  9 10  2  0
  9 11  1  0
 11 12  1  0
 12 13  1  0
 13 14  1  0
 14 15  2  0
 15 16  1  0
 16 17  2  0
 17 18  1  0
 18 19  2  0
  8 20  1  0
 20 21  1  0
 21 22  2  0
 22 23  1  0
 23 24  1  0
 24 25  2  0
 25 26  1  0
 26 27  2  0
 27 28  1  0
 28 29  2  0
  4 30  1  0
 30 31  1  0
 31 32  1  0
 32 33  2  0
 32 34  1  0
  2 35  1  0
 35 36  1  0
 36 37  2  0
 37 38  1  0
 38 39  2  0
 39 40  1  0
 40 41  2  0
 39 42  1  0
 19 14  1  0
 25 21  1  0
 41 36  1  0
 29 24  1  0
  3 43  1  0
  4 44  1  0
  7 45  1  0
  8 46  1  0
 11 47  1  0
 12 48  1  0
 12 49  1  0
 13 50  1  0
 13 51  1  0
 15 52  1  0
 16 53  1  0
 17 54  1  0
 18 55  1  0
 19 56  1  0
 20 57  1  0
 20 58  1  0
 22 59  1  0
 23 60  1  0
 26 61  1  0
 27 62  1  0
 28 63  1  0
 29 64  1  0
 30 65  1  0
 30 66  1  0
 31 67  1  0
 31 68  1  0
 34 69  1  0
 34 70  1  0
 35 71  1  0
 35 72  1  0
 37 73  1  0
 38 74  1  0
 40 75  1  0
 41 76  1  0
M  END
>  <Ligand ID>  (1) 
LIG0002683

>  <Ligand>  (1) 
CHEMBL291764

>  <SMILES>  (1) 
O=C(NC(C(=O)NC(C(=O)NCCc1ccccc1)Cc1c[nH]c2c1cccc2)CCC(=O)N)Cc1ccc(cc1)Cl

>  <CID>  (1) 
44300538.0

>  <ChEMBL ID>  (1) 
nan

>  <InChiKey>  (1) 
QXYSJPMGIVOYKS-UHFFFAOYSA-N

>  <InChi>  (1) 
InChI=1S/C32H34ClN5O4/c33-24-12-10-22(11-13-24)18-30(40)37-27(14-15-29(34)39)32(42)38-28(19-23-20-36-26-9-5-4-8-25(23)26)31(41)35-17-16-21-6-2-1-3-7-21/h1-13,20,27-28,36H,14-19H2,(H2,34,39)(H,35,41)(H,37,40)(H,38,42)

>  <IUPAC Name>  (1) 
2-[[2-(4-chlorophenyl)acetyl]amino]-N-[3-(1H-indol-3-yl)-1-oxo-1-(2-phenylethylamino)propan-2-yl]pentanediamide

$$$$
