
     RDKit          3D

138141  0  0  0  0  0  0  0  0999 V2000
    1.3402   -5.7364   -0.2090 N   0  0  0  0  0  0  0  0  0  0  0  0
    0.5276   -4.5705   -0.1665 C   0  0  0  0  0  0  0  0  0  0  0  0
    0.0892   -3.9887   -1.1915 O   0  0  0  0  0  0  0  0  0  0  0  0
    0.1629   -3.9900    1.1522 C   0  0  0  0  0  0  0  0  0  0  0  0
   -0.6946   -2.7927    1.0587 C   0  0  2  0  0  0  0  0  0  0  0  0
   -1.9644   -2.9788    0.3956 N   0  0  0  0  0  0  0  0  0  0  0  0
   -3.1267   -2.2372    0.8490 C   0  0  0  0  0  0  0  0  0  0  0  0
   -2.8856   -1.4422    1.7669 O   0  0  0  0  0  0  0  0  0  0  0  0
   -4.4745   -2.4076    0.2642 C   0  0  2  0  0  0  0  0  0  0  0  0
   -4.3389   -2.2655   -1.2482 C   0  0  0  0  0  0  0  0  0  0  0  0
   -5.6301   -2.4654   -1.9803 C   0  0  0  0  0  0  0  0  0  0  0  0
   -6.2128   -3.8276   -1.8123 C   0  0  0  0  0  0  0  0  0  0  0  0
   -5.6114   -4.7728   -1.2424 O   0  0  0  0  0  0  0  0  0  0  0  0
   -7.5352   -4.0832   -2.3290 N   0  0  0  0  0  0  0  0  0  0  0  0
   -5.2644   -1.2916    0.7975 N   0  0  0  0  0  0  0  0  0  0  0  0
   -6.6533   -1.3401    1.0722 C   0  0  0  0  0  0  0  0  0  0  0  0
   -7.1394   -2.4869    0.9690 O   0  0  0  0  0  0  0  0  0  0  0  0
   -7.4876   -0.1798    1.4644 C   0  0  2  0  0  0  0  0  0  0  0  0
   -8.9210   -0.4216    1.6264 C   0  0  0  0  0  0  0  0  0  0  0  0
   -9.6900   -0.9437    0.4954 C   0  0  0  0  0  0  0  0  0  0  0  0
   -9.9897   -2.2953    0.4035 C   0  0  0  0  0  0  0  0  0  0  0  0
  -10.6989   -2.8259   -0.6685 C   0  0  0  0  0  0  0  0  0  0  0  0
  -11.1422   -2.0280   -1.6989 C   0  0  0  0  0  0  0  0  0  0  0  0
  -10.8553   -0.6897   -1.6241 C   0  0  0  0  0  0  0  0  0  0  0  0
  -10.1513   -0.1577   -0.5623 C   0  0  0  0  0  0  0  0  0  0  0  0
   -7.0418    1.1372    1.1037 N   0  0  0  0  0  0  0  0  0  0  0  0
   -6.1789    1.5189    0.0723 C   0  0  0  0  0  0  0  0  0  0  0  0
   -5.8630    0.6546   -0.7644 O   0  0  0  0  0  0  0  0  0  0  0  0
   -5.5726    2.8652   -0.1660 C   0  0  1  0  0  0  0  0  0  0  0  0
   -4.4233    2.4684   -1.0349 N   0  0  0  0  0  0  0  0  0  0  0  0
   -3.0807    2.8142   -0.6405 C   0  0  0  0  0  0  0  0  0  0  0  0
   -3.0172    3.5905    0.3213 O   0  0  0  0  0  0  0  0  0  0  0  0
   -1.9319    2.2494   -1.3800 C   0  0  0  0  0  0  0  0  0  0  0  0
   -0.6696    2.9607   -0.9864 C   0  0  0  0  0  0  0  0  0  0  0  0
   -0.3526    3.1814    0.7172 S   0  0  0  0  0  0  0  0  0  0  0  0
   -0.0683    1.5401    1.9332 S   0  0  0  0  0  0  0  0  0  0  0  0
    1.6270    0.9712    2.0308 C   0  0  0  0  0  0  0  0  0  0  0  0
    1.9242    0.0806    0.7834 C   0  0  2  0  0  0  0  0  0  0  0  0
    1.1786   -1.1075    1.0767 N   0  0  0  0  0  0  0  0  0  0  0  0
   -0.0114   -1.5750    0.4749 C   0  0  0  0  0  0  0  0  0  0  0  0
   -0.4251   -0.9523   -0.4992 O   0  0  0  0  0  0  0  0  0  0  0  0
    3.3502   -0.0112    0.5451 C   0  0  0  0  0  0  0  0  0  0  0  0
    3.9633    1.1327    0.5471 O   0  0  0  0  0  0  0  0  0  0  0  0
    4.1441   -1.1263    0.3185 N   0  0  0  0  0  0  0  0  0  0  0  0
    3.6715   -2.5405    0.1424 C   0  0  0  0  0  0  0  0  0  0  0  0
    4.3955   -2.9158   -1.1610 C   0  0  0  0  0  0  0  0  0  0  0  0
    5.6754   -2.1314   -1.1085 C   0  0  0  0  0  0  0  0  0  0  0  0
    5.5710   -1.3542    0.1857 C   0  0  1  0  0  0  0  0  0  0  0  0
    6.5041   -0.3092    0.4436 C   0  0  0  0  0  0  0  0  0  0  0  0
    6.3234    0.7688    1.0779 O   0  0  0  0  0  0  0  0  0  0  0  0
    7.8549   -0.4548   -0.0670 N   0  0  0  0  0  0  0  0  0  0  0  0
    8.8227    0.6277    0.2212 C   0  0  1  0  0  0  0  0  0  0  0  0
    9.9404   -0.0112    0.9535 C   0  0  0  0  0  0  0  0  0  0  0  0
   10.9408    0.6070    1.3976 O   0  0  0  0  0  0  0  0  0  0  0  0
    9.9612   -1.4370    1.2192 N   0  0  0  0  0  0  0  0  0  0  0  0
   11.1351   -1.9012    1.9453 C   0  0  0  0  0  0  0  0  0  0  0  0
   12.3894   -1.6491    1.2135 C   0  0  0  0  0  0  0  0  0  0  0  0
   13.4917   -1.9978    1.7415 O   0  0  0  0  0  0  0  0  0  0  0  0
   12.4389   -1.0264   -0.0764 N   0  0  0  0  0  0  0  0  0  0  0  0
    9.2151    1.3162   -1.0453 C   0  0  0  0  0  0  0  0  0  0  0  0
   10.1868    2.4260   -0.7428 C   0  0  0  0  0  0  0  0  0  0  0  0
   10.6132    3.1962   -1.9846 C   0  0  0  0  0  0  0  0  0  0  0  0
   11.5368    4.2343   -1.5160 N   0  0  0  0  0  0  0  0  0  0  0  0
   12.7458    3.9546   -1.1735 C   0  0  0  0  0  0  0  0  0  0  0  0
   13.6008    5.0068   -0.7244 N   0  0  0  0  0  0  0  0  0  0  0  0
   13.2468    2.6109   -1.2383 N   0  0  0  0  0  0  0  0  0  0  0  0
   -6.3742    3.7952   -0.9891 C   0  0  0  0  0  0  0  0  0  0  0  0
   -7.6923    4.1810   -0.5082 C   0  0  0  0  0  0  0  0  0  0  0  0
   -8.8571    3.5238   -0.8434 C   0  0  0  0  0  0  0  0  0  0  0  0
  -10.0997    3.8654   -0.4051 C   0  0  0  0  0  0  0  0  0  0  0  0
  -10.2168    4.9489    0.4385 C   0  0  0  0  0  0  0  0  0  0  0  0
   -9.0780    5.6440    0.8065 C   0  0  0  0  0  0  0  0  0  0  0  0
   -7.8351    5.2760    0.3485 C   0  0  0  0  0  0  0  0  0  0  0  0
  -11.4239    5.3974    0.9518 O   0  0  0  0  0  0  0  0  0  0  0  0
    2.1236   -5.7974   -0.8940 H   0  0  0  0  0  0  0  0  0  0  0  0
    1.1445   -6.5421    0.4590 H   0  0  0  0  0  0  0  0  0  0  0  0
    1.0924   -3.7562    1.7304 H   0  0  0  0  0  0  0  0  0  0  0  0
   -0.3366   -4.7873    1.7360 H   0  0  0  0  0  0  0  0  0  0  0  0
   -0.9944   -2.4713    2.1191 H   0  0  0  0  0  0  0  0  0  0  0  0
   -2.1565   -3.5988   -0.3898 H   0  0  0  0  0  0  0  0  0  0  0  0
   -4.9166   -3.3801    0.4398 H   0  0  0  0  0  0  0  0  0  0  0  0
   -3.9816   -1.2255   -1.4036 H   0  0  0  0  0  0  0  0  0  0  0  0
   -3.5813   -2.9728   -1.6447 H   0  0  0  0  0  0  0  0  0  0  0  0
   -5.4135   -2.2696   -3.0643 H   0  0  0  0  0  0  0  0  0  0  0  0
   -6.4122   -1.7598   -1.7052 H   0  0  0  0  0  0  0  0  0  0  0  0
   -8.2077   -4.4669   -1.6135 H   0  0  0  0  0  0  0  0  0  0  0  0
   -7.7890   -3.9023   -3.3228 H   0  0  0  0  0  0  0  0  0  0  0  0
   -4.7761   -0.4364    1.0530 H   0  0  0  0  0  0  0  0  0  0  0  0
   -7.1290   -0.1389    2.6333 H   0  0  0  0  0  0  0  0  0  0  0  0
   -9.0835   -1.1273    2.4939 H   0  0  0  0  0  0  0  0  0  0  0  0
   -9.3963    0.5348    2.0196 H   0  0  0  0  0  0  0  0  0  0  0  0
   -9.7088   -3.0187    1.1642 H   0  0  0  0  0  0  0  0  0  0  0  0
  -10.9190   -3.9002   -0.7100 H   0  0  0  0  0  0  0  0  0  0  0  0
  -11.6838   -2.5046   -2.4964 H   0  0  0  0  0  0  0  0  0  0  0  0
  -11.2102   -0.0685   -2.4435 H   0  0  0  0  0  0  0  0  0  0  0  0
   -9.9343    0.8941   -0.5075 H   0  0  0  0  0  0  0  0  0  0  0  0
   -7.4102    1.9296    1.6718 H   0  0  0  0  0  0  0  0  0  0  0  0
   -5.2302    3.2539    0.7856 H   0  0  0  0  0  0  0  0  0  0  0  0
   -4.5189    1.9693   -1.8999 H   0  0  0  0  0  0  0  0  0  0  0  0
   -2.1500    2.4369   -2.4807 H   0  0  0  0  0  0  0  0  0  0  0  0
   -1.9083    1.1710   -1.1721 H   0  0  0  0  0  0  0  0  0  0  0  0
    0.1882    2.4429   -1.5465 H   0  0  0  0  0  0  0  0  0  0  0  0
   -0.6352    3.9889   -1.4924 H   0  0  0  0  0  0  0  0  0  0  0  0
    1.7282    0.3562    2.9494 H   0  0  0  0  0  0  0  0  0  0  0  0
    2.3361    1.8024    2.0428 H   0  0  0  0  0  0  0  0  0  0  0  0
    1.4382    0.6278   -0.0840 H   0  0  0  0  0  0  0  0  0  0  0  0
    1.5479   -1.7180    1.8314 H   0  0  0  0  0  0  0  0  0  0  0  0
    4.0701   -3.1889    0.9177 H   0  0  0  0  0  0  0  0  0  0  0  0
    2.6151   -2.5912   -0.0769 H   0  0  0  0  0  0  0  0  0  0  0  0
    3.7752   -2.6684   -2.0463 H   0  0  0  0  0  0  0  0  0  0  0  0
    4.6465   -3.9933   -1.0985 H   0  0  0  0  0  0  0  0  0  0  0  0
    5.6070   -1.3548   -1.9258 H   0  0  0  0  0  0  0  0  0  0  0  0
    6.5880   -2.7329   -1.1818 H   0  0  0  0  0  0  0  0  0  0  0  0
    5.7625   -2.1967    0.9774 H   0  0  0  0  0  0  0  0  0  0  0  0
    8.1225   -1.2938   -0.6190 H   0  0  0  0  0  0  0  0  0  0  0  0
    8.3810    1.3781    0.8849 H   0  0  0  0  0  0  0  0  0  0  0  0
    9.1891   -2.0623    0.9099 H   0  0  0  0  0  0  0  0  0  0  0  0
   10.9446   -2.9844    2.1535 H   0  0  0  0  0  0  0  0  0  0  0  0
   11.1464   -1.3859    2.9359 H   0  0  0  0  0  0  0  0  0  0  0  0
   11.7882   -1.2506   -0.8497 H   0  0  0  0  0  0  0  0  0  0  0  0
   13.1807   -0.2894   -0.2674 H   0  0  0  0  0  0  0  0  0  0  0  0
    9.6263    0.6238   -1.8028 H   0  0  0  0  0  0  0  0  0  0  0  0
    8.3047    1.7800   -1.4828 H   0  0  0  0  0  0  0  0  0  0  0  0
   11.1358    1.9424   -0.3878 H   0  0  0  0  0  0  0  0  0  0  0  0
    9.8123    3.1280    0.0037 H   0  0  0  0  0  0  0  0  0  0  0  0
    9.7484    3.6981   -2.4505 H   0  0  0  0  0  0  0  0  0  0  0  0
   11.1111    2.5802   -2.7310 H   0  0  0  0  0  0  0  0  0  0  0  0
   14.3958    4.7933   -0.0999 H   0  0  0  0  0  0  0  0  0  0  0  0
   13.4384    6.0094   -1.0184 H   0  0  0  0  0  0  0  0  0  0  0  0
   13.6226    2.1119   -0.3919 H   0  0  0  0  0  0  0  0  0  0  0  0
   13.2083    2.1699   -2.1874 H   0  0  0  0  0  0  0  0  0  0  0  0
   -6.5338    3.3537   -2.0208 H   0  0  0  0  0  0  0  0  0  0  0  0
   -5.8229    4.7546   -1.2195 H   0  0  0  0  0  0  0  0  0  0  0  0
   -8.7306    2.6709   -1.5170 H   0  0  0  0  0  0  0  0  0  0  0  0
  -11.0150    3.3475   -0.6674 H   0  0  0  0  0  0  0  0  0  0  0  0
   -9.1204    6.4990    1.4633 H   0  0  0  0  0  0  0  0  0  0  0  0
   -6.9393    5.7902    0.6113 H   0  0  0  0  0  0  0  0  0  0  0  0
  -12.0622    5.9709    0.4155 H   0  0  0  0  0  0  0  0  0  0  0  0
  1  2  1  0
  2  3  2  0
  2  4  1  0
  4  5  1  0
  5  6  1  0
  6  7  1  0
  7  8  2  0
  7  9  1  0
  9 10  1  0
 10 11  1  0
 11 12  1  0
 12 13  2  0
 12 14  1  0
  9 15  1  0
 15 16  1  0
 16 17  2  0
 16 18  1  0
 18 19  1  0
 19 20  1  0
 20 21  2  0
 21 22  1  0
 22 23  2  0
 23 24  1  0
 24 25  2  0
 18 26  1  0
 26 27  1  0
 27 28  2  0
 27 29  1  0
 29 30  1  0
 30 31  1  0
 31 32  2  0
 31 33  1  0
 33 34  1  0
 34 35  1  0
 35 36  1  0
 36 37  1  0
 37 38  1  0
 38 39  1  0
 39 40  1  0
 40 41  2  0
 38 42  1  0
 42 43  2  0
 42 44  1  0
 44 45  1  0
 45 46  1  0
 46 47  1  0
 47 48  1  0
 48 49  1  0
 49 50  2  0
 49 51  1  0
 51 52  1  0
 52 53  1  0
 53 54  2  0
 53 55  1  0
 55 56  1  0
 56 57  1  0
 57 58  2  0
 57 59  1  0
 52 60  1  0
 60 61  1  0
 61 62  1  0
 62 63  1  0
 63 64  2  3
 64 65  1  0
 64 66  1  0
 29 67  1  0
 67 68  1  0
 68 69  2  0
 69 70  1  0
 70 71  2  0
 71 72  1  0
 72 73  2  0
 71 74  1  0
 40  5  1  0
 48 44  1  0
 73 68  1  0
 25 20  1  0
  1 75  1  0
  1 76  1  0
  4 77  1  0
  4 78  1  0
  5 79  1  1
  6 80  1  0
  9 81  1  6
 10 82  1  0
 10 83  1  0
 11 84  1  0
 11 85  1  0
 14 86  1  0
 14 87  1  0
 15 88  1  0
 18 89  1  1
 19 90  1  0
 19 91  1  0
 21 92  1  0
 22 93  1  0
 23 94  1  0
 24 95  1  0
 25 96  1  0
 26 97  1  0
 29 98  1  1
 30 99  1  0
 33100  1  0
 33101  1  0
 34102  1  0
 34103  1  0
 37104  1  0
 37105  1  0
 38106  1  6
 39107  1  0
 45108  1  0
 45109  1  0
 46110  1  0
 46111  1  0
 47112  1  0
 47113  1  0
 48114  1  1
 51115  1  0
 52116  1  1
 55117  1  0
 56118  1  0
 56119  1  0
 59120  1  0
 59121  1  0
 60122  1  0
 60123  1  0
 61124  1  0
 61125  1  0
 62126  1  0
 62127  1  0
 65128  1  0
 65129  1  0
 66130  1  0
 66131  1  0
 67132  1  0
 67133  1  0
 69134  1  0
 70135  1  0
 72136  1  0
 73137  1  0
 74138  1  0
M  END
>  <Ligand ID>  (1) 
LIG0001302

>  <Ligand>  (1) 
DESMOPRESSIN

>  <SMILES>  (1) 
NC(=O)C[C@@H]1NC(=O)[C@H](CCC(=O)N)NC(=O)[C@H](Cc2ccccc2)NC(=O)[C@@H](NC(=O)CCSSC[C@H](NC1=O)C(=O)N1CCC[C@H]1C(=O)N[C@@H](C(=O)NCC(=O)N)CCCN=C(N)N)Cc1ccc(cc1)O

>  <CID>  (1) 
5311065.0

>  <ChEMBL ID>  (1) 
nan

>  <InChiKey>  (1) 
NFLWUMRGJYTJIN-PNIOQBSNSA-N

>  <InChi>  (1) 
InChI=1S/C46H64N14O12S2/c47-35(62)15-14-29-40(67)58-32(22-36(48)63)43(70)59-33(45(72)60-18-5-9-34(60)44(71)56-28(8-4-17-52-46(50)51)39(66)53-23-37(49)64)24-74-73-19-16-38(65)54-30(21-26-10-12-27(61)13-11-26)41(68)57-31(42(69)55-29)20-25-6-2-1-3-7-25/h1-3,6-7,10-13,28-34,61H,4-5,8-9,14-24H2,(H2,47,62)(H2,48,63)(H2,49,64)(H,53,66)(H,54,65)(H,55,69)(H,56,71)(H,57,68)(H,58,67)(H,59,70)(H4,50,51,52)/t28-,29+,30+,31+,32+,33+,34+/m1/s1

>  <IUPAC Name>  (1) 
(2S)-N-[(2R)-1-[(2-amino-2-oxoethyl)amino]-5-(diaminomethylideneamino)-1-oxopentan-2-yl]-1-[(4R,7S,10S,13S,16S)-7-(2-amino-2-oxoethyl)-10-(3-amino-3-oxopropyl)-13-benzyl-16-[(4-hydroxyphenyl)methyl]-6,9,12,15,18-pentaoxo-1,2-dithia-5,8,11,14,17-pentazacycloicosane-4-carbonyl]pyrrolidine-2-carboxamide

$$$$
