
     RDKit          3D

 34 34  0  0  0  0  0  0  0  0999 V2000
    4.8206   -0.0338   -0.5222 C   0  0  0  0  0  0  0  0  0  0  0  0
    3.5266    0.6246   -0.2477 C   0  0  0  0  0  0  0  0  0  0  0  0
    3.5362    1.8784   -0.1157 O   0  0  0  0  0  0  0  0  0  0  0  0
    2.2641   -0.1494   -0.1308 C   0  0  0  0  0  0  0  0  0  0  0  0
    1.1407    0.4377    0.1092 C   0  0  0  0  0  0  0  0  0  0  0  0
   -0.1856   -0.0586    0.2660 C   0  0  0  0  0  0  0  0  0  0  0  0
   -0.5857   -1.3220    0.1976 C   0  0  0  0  0  0  0  0  0  0  0  0
    0.3146   -2.4605   -0.0631 C   0  0  0  0  0  0  0  0  0  0  0  0
   -2.0374   -1.6174    0.4057 C   0  0  0  0  0  0  0  0  0  0  0  0
   -2.9423   -0.7082   -0.3838 C   0  0  0  0  0  0  0  0  0  0  0  0
   -2.4430    0.7052   -0.4149 C   0  0  0  0  0  0  0  0  0  0  0  0
   -1.2822    0.9256    0.5337 C   0  0  0  0  0  0  0  0  0  0  0  0
   -1.6771    0.9103    1.9829 C   0  0  0  0  0  0  0  0  0  0  0  0
   -0.7619    2.3042    0.2051 C   0  0  0  0  0  0  0  0  0  0  0  0
    5.5047    0.6763   -1.0425 H   0  0  0  0  0  0  0  0  0  0  0  0
    4.7165   -0.9090   -1.1987 H   0  0  0  0  0  0  0  0  0  0  0  0
    5.3302   -0.3109    0.4282 H   0  0  0  0  0  0  0  0  0  0  0  0
    2.3442   -1.1858   -0.2552 H   0  0  0  0  0  0  0  0  0  0  0  0
    1.2432    1.5448    0.2175 H   0  0  0  0  0  0  0  0  0  0  0  0
    1.0366   -2.6829    0.7429 H   0  0  0  0  0  0  0  0  0  0  0  0
    0.7375   -2.4680   -1.0871 H   0  0  0  0  0  0  0  0  0  0  0  0
   -0.3638   -3.3819   -0.0918 H   0  0  0  0  0  0  0  0  0  0  0  0
   -2.3167   -1.5266    1.4738 H   0  0  0  0  0  0  0  0  0  0  0  0
   -2.1929   -2.6833    0.1500 H   0  0  0  0  0  0  0  0  0  0  0  0
   -3.9663   -0.7574    0.0307 H   0  0  0  0  0  0  0  0  0  0  0  0
   -2.9793   -1.0907   -1.4213 H   0  0  0  0  0  0  0  0  0  0  0  0
   -2.1314    1.0314   -1.4250 H   0  0  0  0  0  0  0  0  0  0  0  0
   -3.2343    1.3928   -0.0721 H   0  0  0  0  0  0  0  0  0  0  0  0
   -1.4873    1.9149    2.4071 H   0  0  0  0  0  0  0  0  0  0  0  0
   -1.0824    0.1919    2.5829 H   0  0  0  0  0  0  0  0  0  0  0  0
   -2.7761    0.7480    2.0417 H   0  0  0  0  0  0  0  0  0  0  0  0
   -0.2577    2.3808   -0.7732 H   0  0  0  0  0  0  0  0  0  0  0  0
   -0.1667    2.6531    1.0721 H   0  0  0  0  0  0  0  0  0  0  0  0
   -1.6456    3.0261    0.1959 H   0  0  0  0  0  0  0  0  0  0  0  0
  1  2  1  0
  2  3  2  0
  2  4  1  0
  4  5  2  0
  5  6  1  0
  6  7  2  0
  7  8  1  0
  7  9  1  0
  9 10  1  0
 10 11  1  0
 11 12  1  0
 12 13  1  0
 12 14  1  0
 12  6  1  0
  1 15  1  0
  1 16  1  0
  1 17  1  0
  4 18  1  0
  5 19  1  0
  8 20  1  0
  8 21  1  0
  8 22  1  0
  9 23  1  0
  9 24  1  0
 10 25  1  0
 10 26  1  0
 11 27  1  0
 11 28  1  0
 13 29  1  0
 13 30  1  0
 13 31  1  0
 14 32  1  0
 14 33  1  0
 14 34  1  0
M  END
>  <Ligand ID>  (1) 
LIG0000130

>  <Ligand>  (1) 
(E)-beta-Ionone

>  <SMILES>  (1) 
CC(=O)/C=C/C1=C(C)CCCC1(C)C

>  <CID>  (1) 
638014.0

>  <ChEMBL ID>  (1) 
nan

>  <InChiKey>  (1) 
PSQYTAPXSHCGMF-BQYQJAHWSA-N

>  <InChi>  (1) 
InChI=1S/C13H20O/c1-10-6-5-9-13(3,4)12(10)8-7-11(2)14/h7-8H,5-6,9H2,1-4H3/b8-7+

>  <IUPAC Name>  (1) 
(E)-4-(2,6,6-trimethylcyclohexen-1-yl)but-3-en-2-one

$$$$
