
     RDKit          3D

 49 51  0  0  0  0  0  0  0  0999 V2000
   -0.1466   -0.6019   -1.1020 O   0  0  0  0  0  0  0  0  0  0  0  0
   -0.6889   -1.4821   -0.3872 C   0  0  0  0  0  0  0  0  0  0  0  0
   -2.1435   -1.4014   -0.0965 C   0  0  0  0  0  0  0  0  0  0  0  0
   -2.7127   -0.1833   -0.7733 C   0  0  0  0  0  0  0  0  0  0  0  0
   -2.0186    1.0486   -0.2483 C   0  0  0  0  0  0  0  0  0  0  0  0
   -1.5723    1.5227    0.7166 N   0  0  0  0  0  0  0  0  0  0  0  0
   -0.9876    2.6845    0.9006 C   0  0  0  0  0  0  0  0  0  0  0  0
   -0.9014    3.4272   -0.2133 C   0  0  0  0  0  0  0  0  0  0  0  0
   -1.6664    2.4417   -1.5221 S   0  0  0  0  0  0  0  0  0  0  0  0
   -4.1496    0.0132   -0.5836 C   0  0  0  0  0  0  0  0  0  0  0  0
   -4.7522   -0.3973    0.5891 C   0  0  0  0  0  0  0  0  0  0  0  0
   -6.1110   -0.2362    0.8231 C   0  0  0  0  0  0  0  0  0  0  0  0
   -6.8981    0.3497   -0.1336 C   0  0  0  0  0  0  0  0  0  0  0  0
   -6.3146    0.7588   -1.2950 C   0  0  0  0  0  0  0  0  0  0  0  0
   -4.9620    0.6050   -1.5426 C   0  0  0  0  0  0  0  0  0  0  0  0
    0.0656   -2.5745    0.1619 N   0  0  0  0  0  0  0  0  0  0  0  0
    1.4582   -2.6492   -0.1181 C   0  0  0  0  0  0  0  0  0  0  0  0
    1.9684   -1.7210   -0.8572 N   0  0  0  0  0  0  0  0  0  0  0  0
    3.3997   -1.8102   -1.1367 C   0  0  0  0  0  0  0  0  0  0  0  0
    4.2009   -1.0296   -0.1137 C   0  0  0  0  0  0  0  0  0  0  0  0
    3.7407    0.4095   -0.2053 C   0  0  0  0  0  0  0  0  0  0  0  0
    4.4573    1.2860    0.7564 C   0  0  0  0  0  0  0  0  0  0  0  0
    5.4290    0.8595    1.6362 C   0  0  0  0  0  0  0  0  0  0  0  0
    5.8143    1.9548    2.3173 N   0  0  0  0  0  0  0  0  0  0  0  0
    5.1060    3.0194    1.8742 C   0  0  0  0  0  0  0  0  0  0  0  0
    4.2594    2.5924    0.8979 N   0  0  0  0  0  0  0  0  0  0  0  0
    2.2241   -3.7261    0.4179 N   0  0  0  0  0  0  0  0  0  0  0  0
   -2.6967   -2.3152   -0.2996 H   0  0  0  0  0  0  0  0  0  0  0  0
   -2.2179   -1.2265    1.0094 H   0  0  0  0  0  0  0  0  0  0  0  0
   -2.5537   -0.2884   -1.8804 H   0  0  0  0  0  0  0  0  0  0  0  0
   -0.6050    3.0155    1.8787 H   0  0  0  0  0  0  0  0  0  0  0  0
   -0.4531    4.4902   -0.4160 H   0  0  0  0  0  0  0  0  0  0  0  0
   -4.1963   -0.8730    1.4021 H   0  0  0  0  0  0  0  0  0  0  0  0
   -6.5517   -0.5750    1.7662 H   0  0  0  0  0  0  0  0  0  0  0  0
   -7.9527    0.4531    0.0960 H   0  0  0  0  0  0  0  0  0  0  0  0
   -6.9376    1.2292   -2.0670 H   0  0  0  0  0  0  0  0  0  0  0  0
   -4.4968    0.9258   -2.4565 H   0  0  0  0  0  0  0  0  0  0  0  0
   -0.3617   -3.3128    0.7550 H   0  0  0  0  0  0  0  0  0  0  0  0
    3.5629   -1.3649   -2.1224 H   0  0  0  0  0  0  0  0  0  0  0  0
    3.7472   -2.8660   -1.1723 H   0  0  0  0  0  0  0  0  0  0  0  0
    5.2565   -1.0636   -0.4542 H   0  0  0  0  0  0  0  0  0  0  0  0
    4.1205   -1.4152    0.9011 H   0  0  0  0  0  0  0  0  0  0  0  0
    3.9305    0.7863   -1.2225 H   0  0  0  0  0  0  0  0  0  0  0  0
    2.6405    0.3913    0.0008 H   0  0  0  0  0  0  0  0  0  0  0  0
    5.8342   -0.1262    1.7907 H   0  0  0  0  0  0  0  0  0  0  0  0
    5.2026    4.0412    2.2414 H   0  0  0  0  0  0  0  0  0  0  0  0
    3.5972    3.2168    0.3861 H   0  0  0  0  0  0  0  0  0  0  0  0
    2.5808   -3.7046    1.3844 H   0  0  0  0  0  0  0  0  0  0  0  0
    2.4522   -4.5782   -0.1508 H   0  0  0  0  0  0  0  0  0  0  0  0
  1  2  2  0
  2  3  1  0
  3  4  1  0
  4  5  1  0
  5  6  2  0
  6  7  1  0
  7  8  2  0
  8  9  1  0
  4 10  1  0
 10 11  2  0
 11 12  1  0
 12 13  2  0
 13 14  1  0
 14 15  2  0
  2 16  1  0
 16 17  1  0
 17 18  2  3
 18 19  1  0
 19 20  1  0
 20 21  1  0
 21 22  1  0
 22 23  2  0
 23 24  1  0
 24 25  2  0
 25 26  1  0
 17 27  1  0
  9  5  1  0
 15 10  1  0
 26 22  1  0
  3 28  1  0
  3 29  1  0
  4 30  1  0
  7 31  1  0
  8 32  1  0
 11 33  1  0
 12 34  1  0
 13 35  1  0
 14 36  1  0
 15 37  1  0
 16 38  1  0
 19 39  1  0
 19 40  1  0
 20 41  1  0
 20 42  1  0
 21 43  1  0
 21 44  1  0
 23 45  1  0
 25 46  1  0
 26 47  1  0
 27 48  1  0
 27 49  1  0
M  END
>  <Ligand ID>  (1) 
LIG0002609

>  <Ligand>  (1) 
CHEMBL472441

>  <SMILES>  (1) 
O=C(CC(c1nccs1)c1ccccc1)NC(=NCCCc1cnc[nH]1)N

>  <CID>  (1) 
25149613.0

>  <ChEMBL ID>  (1) 
nan

>  <InChiKey>  (1) 
SGQYOPBUMICDBU-UHFFFAOYSA-N

>  <InChi>  (1) 
InChI=1S/C19H22N6OS/c20-19(23-8-4-7-15-12-21-13-24-15)25-17(26)11-16(18-22-9-10-27-18)14-5-2-1-3-6-14/h1-3,5-6,9-10,12-13,16H,4,7-8,11H2,(H,21,24)(H3,20,23,25,26)

>  <IUPAC Name>  (1) 
N-[N'-[3-(1H-imidazol-5-yl)propyl]carbamimidoyl]-3-phenyl-3-(1,3-thiazol-2-yl)propanamide

$$$$
