
     RDKit          3D

 29 28  0  0  0  0  0  0  0  0999 V2000
   -4.4143    0.9837   -0.7776 C   0  0  0  0  0  0  0  0  0  0  0  0
   -3.0835    0.2576   -0.6112 C   0  0  0  0  0  0  0  0  0  0  0  0
   -2.3646    0.7234    0.6338 C   0  0  0  0  0  0  0  0  0  0  0  0
   -1.0756   -0.0021    0.7826 C   0  0  0  0  0  0  0  0  0  0  0  0
   -0.0995    0.1786   -0.3516 C   0  0  0  0  0  0  0  0  0  0  0  0
    1.1246   -0.6350    0.0233 C   0  0  0  0  0  0  0  0  0  0  0  0
    2.2025   -0.5450   -1.0400 C   0  0  0  0  0  0  0  0  0  0  0  0
    3.3994   -1.3659   -0.6285 C   0  0  0  0  0  0  0  0  0  0  0  0
    3.9911   -0.9715    0.5724 O   0  0  0  0  0  0  0  0  0  0  0  0
    4.5104    0.3269    0.7124 C   0  0  0  0  0  0  0  0  0  0  0  0
    4.4626    1.1693   -0.2234 O   0  0  0  0  0  0  0  0  0  0  0  0
   -5.0581    0.3606   -1.4386 H   0  0  0  0  0  0  0  0  0  0  0  0
   -4.8967    1.1893    0.1989 H   0  0  0  0  0  0  0  0  0  0  0  0
   -4.2223    1.9571   -1.2809 H   0  0  0  0  0  0  0  0  0  0  0  0
   -3.2579   -0.8243   -0.5331 H   0  0  0  0  0  0  0  0  0  0  0  0
   -2.4432    0.4618   -1.5008 H   0  0  0  0  0  0  0  0  0  0  0  0
   -3.0360    0.5097    1.4977 H   0  0  0  0  0  0  0  0  0  0  0  0
   -2.1757    1.8170    0.6046 H   0  0  0  0  0  0  0  0  0  0  0  0
   -1.2439   -1.1098    0.8672 H   0  0  0  0  0  0  0  0  0  0  0  0
   -0.5485    0.3287    1.7106 H   0  0  0  0  0  0  0  0  0  0  0  0
   -0.5713   -0.2303   -1.2811 H   0  0  0  0  0  0  0  0  0  0  0  0
    0.1942    1.2339   -0.4668 H   0  0  0  0  0  0  0  0  0  0  0  0
    0.8248   -1.6835    0.2164 H   0  0  0  0  0  0  0  0  0  0  0  0
    1.5294   -0.1922    0.9562 H   0  0  0  0  0  0  0  0  0  0  0  0
    2.4214    0.4803   -1.3373 H   0  0  0  0  0  0  0  0  0  0  0  0
    1.7830   -1.0585   -1.9350 H   0  0  0  0  0  0  0  0  0  0  0  0
    2.9928   -2.4006   -0.4237 H   0  0  0  0  0  0  0  0  0  0  0  0
    4.1044   -1.5161   -1.4632 H   0  0  0  0  0  0  0  0  0  0  0  0
    4.9506    0.5567    1.6670 H   0  0  0  0  0  0  0  0  0  0  0  0
  1  2  1  0
  2  3  1  0
  3  4  1  0
  4  5  1  0
  5  6  1  0
  6  7  1  0
  7  8  1  0
  8  9  1  0
  9 10  1  0
 10 11  2  0
  1 12  1  0
  1 13  1  0
  1 14  1  0
  2 15  1  0
  2 16  1  0
  3 17  1  0
  3 18  1  0
  4 19  1  0
  4 20  1  0
  5 21  1  0
  5 22  1  0
  6 23  1  0
  6 24  1  0
  7 25  1  0
  7 26  1  0
  8 27  1  0
  8 28  1  0
 10 29  1  0
M  END
>  <Ligand ID>  (1) 
LIG0000200

>  <Ligand>  (1) 
Octyl formate

>  <SMILES>  (1) 
CCCCCCCCOC=O

>  <CID>  (1) 
8176.0

>  <ChEMBL ID>  (1) 
nan

>  <InChiKey>  (1) 
AVBRYQRTMPHARE-UHFFFAOYSA-N

>  <InChi>  (1) 
InChI=1S/C9H18O2/c1-2-3-4-5-6-7-8-11-9-10/h9H,2-8H2,1H3

>  <IUPAC Name>  (1) 
octyl formate

$$$$
