
     RDKit          3D

 25 25  0  0  0  0  0  0  0  0999 V2000
   -2.6367    1.4110    1.4522 O   0  0  0  0  0  0  0  0  0  0  0  0
   -2.9391    0.3364    0.6348 C   0  0  0  0  0  0  0  0  0  0  0  0
   -4.1213   -0.1097    0.7049 O   0  0  0  0  0  0  0  0  0  0  0  0
   -1.9235   -0.2763   -0.2916 C   0  0  0  0  0  0  0  0  0  0  0  0
   -0.6891    0.3711   -0.2068 O   0  0  0  0  0  0  0  0  0  0  0  0
    0.5134   -0.2162    0.0572 C   0  0  0  0  0  0  0  0  0  0  0  0
    0.7324   -1.5517    0.2882 C   0  0  0  0  0  0  0  0  0  0  0  0
    1.9957   -2.0727    0.5512 C   0  0  0  0  0  0  0  0  0  0  0  0
    3.0786   -1.2184    0.5830 C   0  0  0  0  0  0  0  0  0  0  0  0
    2.8987    0.1319    0.3555 C   0  0  0  0  0  0  0  0  0  0  0  0
    1.6346    0.6192    0.0974 C   0  0  0  0  0  0  0  0  0  0  0  0
    1.5019    2.0917   -0.1414 C   0  0  0  0  0  0  0  0  0  0  0  0
    4.6866   -1.8627    0.9150 Cl  0  0  0  0  0  0  0  0  0  0  0  0
   -2.4638   -0.1752   -1.7267 C   0  0  0  0  0  0  0  0  0  0  0  0
   -3.0255    1.5331    2.3826 H   0  0  0  0  0  0  0  0  0  0  0  0
   -1.8368   -1.3583   -0.1178 H   0  0  0  0  0  0  0  0  0  0  0  0
   -0.0755   -2.2372    0.2717 H   0  0  0  0  0  0  0  0  0  0  0  0
    2.1639   -3.1257    0.7327 H   0  0  0  0  0  0  0  0  0  0  0  0
    3.7745    0.7718    0.3888 H   0  0  0  0  0  0  0  0  0  0  0  0
    1.9578    2.2987   -1.1483 H   0  0  0  0  0  0  0  0  0  0  0  0
    2.0865    2.6438    0.5996 H   0  0  0  0  0  0  0  0  0  0  0  0
    0.4436    2.4006   -0.2145 H   0  0  0  0  0  0  0  0  0  0  0  0
   -3.0514    0.7663   -1.7506 H   0  0  0  0  0  0  0  0  0  0  0  0
   -3.0883   -1.0696   -1.9709 H   0  0  0  0  0  0  0  0  0  0  0  0
   -1.6172   -0.1018   -2.4466 H   0  0  0  0  0  0  0  0  0  0  0  0
  1  2  1  0
  2  3  2  0
  2  4  1  0
  4  5  1  0
  5  6  1  0
  6  7  2  0
  7  8  1  0
  8  9  2  0
  9 10  1  0
 10 11  2  0
 11 12  1  0
  9 13  1  0
  4 14  1  0
 11  6  1  0
  1 15  1  0
  4 16  1  0
  7 17  1  0
  8 18  1  0
 10 19  1  0
 12 20  1  0
 12 21  1  0
 12 22  1  0
 14 23  1  0
 14 24  1  0
 14 25  1  0
M  END
>  <Ligand ID>  (1) 
LIG0003626

>  <Ligand>  (1) 
MECOPROP

>  <SMILES>  (1) 
OC(=O)C(Oc1ccc(cc1C)Cl)C

>  <CID>  (1) 
7153.0

>  <ChEMBL ID>  (1) 
nan

>  <InChiKey>  (1) 
WNTGYJSOUMFZEP-UHFFFAOYSA-N

>  <InChi>  (1) 
InChI=1S/C10H11ClO3/c1-6-5-8(11)3-4-9(6)14-7(2)10(12)13/h3-5,7H,1-2H3,(H,12,13)

>  <IUPAC Name>  (1) 
2-(4-chloro-2-methylphenoxy)propanoic acid

$$$$
