
     RDKit          3D

 56 58  0  0  0  0  0  0  0  0999 V2000
    8.5796   -1.0964    2.7257 C   0  0  0  0  0  0  0  0  0  0  0  0
    7.3216   -1.4632    1.9630 C   0  0  0  0  0  0  0  0  0  0  0  0
    6.4694   -0.3388    1.9670 O   0  0  0  0  0  0  0  0  0  0  0  0
    5.2396   -0.3416    1.3663 C   0  0  0  0  0  0  0  0  0  0  0  0
    4.7254   -1.4330    0.7054 C   0  0  0  0  0  0  0  0  0  0  0  0
    3.4646   -1.4119    0.1006 C   0  0  0  0  0  0  0  0  0  0  0  0
    2.7115   -0.2621    0.1671 C   0  0  0  0  0  0  0  0  0  0  0  0
    3.2336    0.8509    0.8385 C   0  0  0  0  0  0  0  0  0  0  0  0
    4.4766    0.8143    1.4293 C   0  0  0  0  0  0  0  0  0  0  0  0
    1.4091   -0.2113   -0.4385 N   0  0  0  0  0  0  0  0  0  0  0  0
    0.4120   -1.0505   -0.0722 C   0  0  0  0  0  0  0  0  0  0  0  0
    0.4932   -2.1223    0.9543 C   0  0  0  0  0  0  0  0  0  0  0  0
   -0.6708   -0.7024   -0.8498 C   0  0  0  0  0  0  0  0  0  0  0  0
   -0.3561    0.3434   -1.6942 C   0  0  0  0  0  0  0  0  0  0  0  0
    0.9782    0.6264   -1.4021 C   0  0  0  0  0  0  0  0  0  0  0  0
    1.8330    1.6846   -2.0625 C   0  0  0  0  0  0  0  0  0  0  0  0
   -1.1150    1.0500   -2.6778 C   0  0  0  0  0  0  0  0  0  0  0  0
   -0.5379    1.9690   -3.3380 O   0  0  0  0  0  0  0  0  0  0  0  0
   -2.5421    0.8225   -3.0225 C   0  0  0  0  0  0  0  0  0  0  0  0
   -3.4956    2.3720   -2.8094 S   0  0  0  0  0  0  0  0  0  0  0  0
   -3.6165    2.7482   -1.0647 C   0  0  0  0  0  0  0  0  0  0  0  0
   -4.5199    1.8065   -0.3599 C   0  0  0  0  0  0  0  0  0  0  0  0
   -4.1551    0.6276    0.2201 C   0  0  0  0  0  0  0  0  0  0  0  0
   -5.1055   -0.1939    0.8464 C   0  0  0  0  0  0  0  0  0  0  0  0
   -6.4415    0.1600    0.8984 C   0  0  0  0  0  0  0  0  0  0  0  0
   -6.8185    1.3739    0.3028 C   0  0  0  0  0  0  0  0  0  0  0  0
   -5.8678    2.1823   -0.3160 C   0  0  0  0  0  0  0  0  0  0  0  0
   -7.4166   -0.6210    1.5040 O   0  0  0  0  0  0  0  0  0  0  0  0
   -7.0082   -1.8478    2.0960 C   0  0  0  0  0  0  0  0  0  0  0  0
    8.9270   -1.9433    3.3646 H   0  0  0  0  0  0  0  0  0  0  0  0
    8.3622   -0.2499    3.4271 H   0  0  0  0  0  0  0  0  0  0  0  0
    9.3479   -0.8032    1.9892 H   0  0  0  0  0  0  0  0  0  0  0  0
    7.5662   -1.6931    0.8996 H   0  0  0  0  0  0  0  0  0  0  0  0
    6.8150   -2.3566    2.3854 H   0  0  0  0  0  0  0  0  0  0  0  0
    5.3268   -2.3374    0.6547 H   0  0  0  0  0  0  0  0  0  0  0  0
    3.0996   -2.2833   -0.4024 H   0  0  0  0  0  0  0  0  0  0  0  0
    2.6712    1.7709    0.9086 H   0  0  0  0  0  0  0  0  0  0  0  0
    4.8964    1.6762    1.9589 H   0  0  0  0  0  0  0  0  0  0  0  0
    0.8202   -3.0636    0.4225 H   0  0  0  0  0  0  0  0  0  0  0  0
   -0.5048   -2.3207    1.3987 H   0  0  0  0  0  0  0  0  0  0  0  0
    1.2083   -1.8445    1.7459 H   0  0  0  0  0  0  0  0  0  0  0  0
   -1.6332   -1.1882   -0.8109 H   0  0  0  0  0  0  0  0  0  0  0  0
    2.0581    1.3817   -3.1156 H   0  0  0  0  0  0  0  0  0  0  0  0
    1.3188    2.6632   -1.9949 H   0  0  0  0  0  0  0  0  0  0  0  0
    2.8031    1.7624   -1.5326 H   0  0  0  0  0  0  0  0  0  0  0  0
   -2.9514   -0.0117   -2.4315 H   0  0  0  0  0  0  0  0  0  0  0  0
   -2.6849    0.5254   -4.0914 H   0  0  0  0  0  0  0  0  0  0  0  0
   -3.9931    3.7940   -0.9738 H   0  0  0  0  0  0  0  0  0  0  0  0
   -2.5791    2.6766   -0.6216 H   0  0  0  0  0  0  0  0  0  0  0  0
   -3.1327    0.3355    0.1995 H   0  0  0  0  0  0  0  0  0  0  0  0
   -4.7919   -1.1438    1.3098 H   0  0  0  0  0  0  0  0  0  0  0  0
   -7.8679    1.6502    0.3414 H   0  0  0  0  0  0  0  0  0  0  0  0
   -6.1931    3.1316   -0.7749 H   0  0  0  0  0  0  0  0  0  0  0  0
   -7.8441   -2.3693    2.5995 H   0  0  0  0  0  0  0  0  0  0  0  0
   -6.5716   -2.4516    1.2453 H   0  0  0  0  0  0  0  0  0  0  0  0
   -6.1533   -1.6431    2.7783 H   0  0  0  0  0  0  0  0  0  0  0  0
  1  2  1  0
  2  3  1  0
  3  4  1  0
  4  5  2  0
  5  6  1  0
  6  7  2  0
  7  8  1  0
  8  9  2  0
  7 10  1  0
 10 11  1  0
 11 12  1  0
 11 13  2  0
 13 14  1  0
 14 15  2  0
 15 16  1  0
 14 17  1  0
 17 18  2  0
 17 19  1  0
 19 20  1  0
 20 21  1  0
 21 22  1  0
 22 23  2  0
 23 24  1  0
 24 25  2  0
 25 26  1  0
 26 27  2  0
 25 28  1  0
 28 29  1  0
  9  4  1  0
 15 10  1  0
 27 22  1  0
  1 30  1  0
  1 31  1  0
  1 32  1  0
  2 33  1  0
  2 34  1  0
  5 35  1  0
  6 36  1  0
  8 37  1  0
  9 38  1  0
 12 39  1  0
 12 40  1  0
 12 41  1  0
 13 42  1  0
 16 43  1  0
 16 44  1  0
 16 45  1  0
 19 46  1  0
 19 47  1  0
 21 48  1  0
 21 49  1  0
 23 50  1  0
 24 51  1  0
 26 52  1  0
 27 53  1  0
 29 54  1  0
 29 55  1  0
 29 56  1  0
M  END
>  <Ligand ID>  (1) 
LIG0004483

>  <Ligand>  (1) 
CHEMBL3560901

>  <SMILES>  (1) 
CCOc1ccc(cc1)n1c(C)cc(c1C)C(=O)CSCc1ccc(cc1)OC

>  <CID>  (1) 
73058452.0

>  <ChEMBL ID>  (1) 
nan

>  <InChiKey>  (1) 
WXUGPHBBQXCXOP-UHFFFAOYSA-N

>  <InChi>  (1) 
InChI=1S/C24H27NO3S/c1-5-28-22-12-8-20(9-13-22)25-17(2)14-23(18(25)3)24(26)16-29-15-19-6-10-21(27-4)11-7-19/h6-14H,5,15-16H2,1-4H3

>  <IUPAC Name>  (1) 
1-[1-(4-ethoxyphenyl)-2,5-dimethylpyrrol-3-yl]-2-[(4-methoxyphenyl)methylsulfanyl]ethanone

$$$$
