
     RDKit          3D

 37 39  0  0  0  0  0  0  0  0999 V2000
    6.0657   -0.8345    2.2006 Cl  0  0  0  0  0  0  0  0  0  0  0  0
    4.8649   -0.3710    1.0100 C   0  0  0  0  0  0  0  0  0  0  0  0
    3.7014   -1.0945    0.8276 C   0  0  0  0  0  0  0  0  0  0  0  0
    2.7908   -0.6735   -0.1349 C   0  0  0  0  0  0  0  0  0  0  0  0
    3.0663    0.4683   -0.8974 C   0  0  0  0  0  0  0  0  0  0  0  0
    4.2175    1.1670   -0.7025 C   0  0  0  0  0  0  0  0  0  0  0  0
    5.1263    0.7510    0.2546 C   0  0  0  0  0  0  0  0  0  0  0  0
    2.1178    0.9499   -1.9359 C   0  0  0  0  0  0  0  0  0  0  0  0
    1.2020    1.8484   -1.3914 N   0  0  0  0  0  0  0  0  0  0  0  0
    0.3453    1.4487   -0.3555 C   0  0  0  0  0  0  0  0  0  0  0  0
   -0.6445    0.4498   -0.9187 C   0  0  0  0  0  0  0  0  0  0  0  0
   -1.6065   -0.0271    0.1357 C   0  0  1  0  0  0  0  0  0  0  0  0
   -2.4443    0.9794    0.7883 C   0  0  0  0  0  0  0  0  0  0  0  0
   -3.0366    0.0162   -0.2460 C   0  0  2  0  0  0  0  0  0  0  0  0
   -3.9204   -1.0583    0.2169 C   0  0  0  0  0  0  0  0  0  0  0  0
   -5.0314   -1.4936   -0.4876 C   0  0  0  0  0  0  0  0  0  0  0  0
   -5.6177   -2.4769    0.1974 N   0  0  0  0  0  0  0  0  0  0  0  0
   -4.9022   -2.6836    1.3346 C   0  0  0  0  0  0  0  0  0  0  0  0
   -3.8817   -1.8183    1.3291 N   0  0  0  0  0  0  0  0  0  0  0  0
    3.5508   -1.9629    1.4445 H   0  0  0  0  0  0  0  0  0  0  0  0
    1.8886   -1.2330   -0.2781 H   0  0  0  0  0  0  0  0  0  0  0  0
    4.4554    2.0631   -1.2865 H   0  0  0  0  0  0  0  0  0  0  0  0
    6.0420    1.3145    0.4031 H   0  0  0  0  0  0  0  0  0  0  0  0
    1.5863    0.0698   -2.3482 H   0  0  0  0  0  0  0  0  0  0  0  0
    2.6815    1.4402   -2.7569 H   0  0  0  0  0  0  0  0  0  0  0  0
    1.2381    2.8354   -1.6666 H   0  0  0  0  0  0  0  0  0  0  0  0
   -0.2063    2.2495    0.1491 H   0  0  0  0  0  0  0  0  0  0  0  0
    0.9765    0.9420    0.4330 H   0  0  0  0  0  0  0  0  0  0  0  0
   -1.1819    0.9500   -1.7368 H   0  0  0  0  0  0  0  0  0  0  0  0
   -0.0982   -0.4278   -1.3483 H   0  0  0  0  0  0  0  0  0  0  0  0
   -1.2075   -0.8292    0.7754 H   0  0  0  0  0  0  0  0  0  0  0  0
   -2.7968    0.8354    1.8430 H   0  0  0  0  0  0  0  0  0  0  0  0
   -2.3423    2.0393    0.5003 H   0  0  0  0  0  0  0  0  0  0  0  0
   -3.3179    0.4544   -1.2252 H   0  0  0  0  0  0  0  0  0  0  0  0
   -5.4054   -1.1228   -1.4519 H   0  0  0  0  0  0  0  0  0  0  0  0
   -5.1130   -3.4226    2.1229 H   0  0  0  0  0  0  0  0  0  0  0  0
   -3.1625   -1.7431    2.0750 H   0  0  0  0  0  0  0  0  0  0  0  0
  1  2  1  0
  2  3  2  0
  3  4  1  0
  4  5  2  0
  5  6  1  0
  6  7  2  0
  5  8  1  0
  8  9  1  0
  9 10  1  0
 10 11  1  0
 11 12  1  0
 12 13  1  0
 13 14  1  0
 14 15  1  0
 15 16  2  0
 16 17  1  0
 17 18  2  0
 18 19  1  0
  7  2  1  0
 14 12  1  0
 19 15  1  0
  3 20  1  0
  4 21  1  0
  6 22  1  0
  7 23  1  0
  8 24  1  0
  8 25  1  0
  9 26  1  0
 10 27  1  0
 10 28  1  0
 11 29  1  0
 11 30  1  0
 12 31  1  1
 13 32  1  0
 13 33  1  0
 14 34  1  6
 16 35  1  0
 18 36  1  0
 19 37  1  0
M  END
>  <Ligand ID>  (1) 
LIG0001186

>  <Ligand>  (1) 
CHEMBL214311

>  <SMILES>  (1) 
Clc1ccc(cc1)CNCC[C@H]1C[C@@H]1c1cnc[nH]1

>  <CID>  (1) 
16082831.0

>  <ChEMBL ID>  (1) 
nan

>  <InChiKey>  (1) 
BOQXUEKBVIXPKQ-JSGCOSHPSA-N

>  <InChi>  (1) 
InChI=1S/C15H18ClN3/c16-13-3-1-11(2-4-13)8-17-6-5-12-7-14(12)15-9-18-10-19-15/h1-4,9-10,12,14,17H,5-8H2,(H,18,19)/t12-,14-/m0/s1

>  <IUPAC Name>  (1) 
N-[(4-chlorophenyl)methyl]-2-[(1R,2S)-2-(1H-imidazol-5-yl)cyclopropyl]ethanamine

$$$$
