
     RDKit          3D

140143  0  0  0  0  0  0  0  0999 V2000
   -4.5803   -6.7230   -4.4288 C   0  0  0  0  0  0  0  0  0  0  0  0
   -6.1341   -5.9580   -3.9343 S   0  0  0  0  0  0  0  0  0  0  0  0
   -5.7757   -4.2810   -3.3038 C   0  0  0  0  0  0  0  0  0  0  0  0
   -4.9929   -4.4461   -2.0241 C   0  0  0  0  0  0  0  0  0  0  0  0
   -4.6164   -3.1977   -1.3662 C   0  0  1  0  0  0  0  0  0  0  0  0
   -3.7799   -2.2526   -2.1370 C   0  0  0  0  0  0  0  0  0  0  0  0
   -3.9072   -1.0045   -1.8685 O   0  0  0  0  0  0  0  0  0  0  0  0
   -2.8545   -2.5668   -3.1545 N   0  0  0  0  0  0  0  0  0  0  0  0
   -2.1845   -1.3709   -3.7192 C   0  0  0  0  0  0  0  0  0  0  0  0
   -1.2605   -0.7800   -2.6735 C   0  0  0  0  0  0  0  0  0  0  0  0
   -0.7014    0.3484   -2.8780 O   0  0  0  0  0  0  0  0  0  0  0  0
   -1.0222   -1.5123   -1.4769 N   0  0  0  0  0  0  0  0  0  0  0  0
   -0.1290   -1.0126   -0.4188 C   0  0  2  0  0  0  0  0  0  0  0  0
    1.1849   -0.6273   -0.9590 C   0  0  0  0  0  0  0  0  0  0  0  0
    1.4254   -0.9447   -2.1842 O   0  0  0  0  0  0  0  0  0  0  0  0
    2.1946    0.0694   -0.2447 N   0  0  0  0  0  0  0  0  0  0  0  0
    3.3974    0.4163   -0.8968 C   0  0  2  0  0  0  0  0  0  0  0  0
    4.6539    0.2514   -0.1228 C   0  0  0  0  0  0  0  0  0  0  0  0
    4.5946   -0.0780    1.0800 O   0  0  0  0  0  0  0  0  0  0  0  0
    5.8627    0.4791   -0.8135 N   0  0  0  0  0  0  0  0  0  0  0  0
    7.1880    0.3657   -0.2412 C   0  0  2  0  0  0  0  0  0  0  0  0
    7.8604    1.7274   -0.2592 C   0  0  0  0  0  0  0  0  0  0  0  0
    7.1629    2.7424   -0.6096 O   0  0  0  0  0  0  0  0  0  0  0  0
    9.2149    1.9045    0.0910 N   0  0  0  0  0  0  0  0  0  0  0  0
    9.8741    3.2053    0.0873 C   0  0  2  0  0  0  0  0  0  0  0  0
   10.7183    3.3559   -1.1336 C   0  0  0  0  0  0  0  0  0  0  0  0
   10.7871    2.4417   -2.0158 O   0  0  0  0  0  0  0  0  0  0  0  0
   11.4884    4.5270   -1.3746 N   0  0  0  0  0  0  0  0  0  0  0  0
   10.6312    3.4493    1.3568 C   0  0  0  0  0  0  0  0  0  0  0  0
   11.6998    2.4252    1.5609 C   0  0  0  0  0  0  0  0  0  0  0  0
   11.4359    1.2315    2.2390 C   0  0  0  0  0  0  0  0  0  0  0  0
   12.4637    0.2937    2.4051 C   0  0  0  0  0  0  0  0  0  0  0  0
   13.7262    0.5430    1.9030 C   0  0  0  0  0  0  0  0  0  0  0  0
   13.9961    1.6970    1.2430 C   0  0  0  0  0  0  0  0  0  0  0  0
   12.9957    2.6228    1.0769 C   0  0  0  0  0  0  0  0  0  0  0  0
    8.0712   -0.5742   -0.9873 C   0  0  0  0  0  0  0  0  0  0  0  0
    8.2748   -0.1471   -2.4020 C   0  0  0  0  0  0  0  0  0  0  0  0
    8.8132   -0.9854   -3.1692 O   0  0  0  0  0  0  0  0  0  0  0  0
    7.9150    1.0841   -2.8997 O   0  0  0  0  0  0  0  0  0  0  0  0
    3.3054    1.7160   -1.5946 C   0  0  0  0  0  0  0  0  0  0  0  0
    3.0087    2.9851   -0.9276 C   0  0  0  0  0  0  0  0  0  0  0  0
    1.4978    3.3522   -0.1426 S   0  0  0  0  0  0  0  0  0  0  0  0
    1.0052    2.6519    1.3809 C   0  0  0  0  0  0  0  0  0  0  0  0
   -0.2248   -1.8587    0.7657 C   0  0  0  0  0  0  0  0  0  0  0  0
    0.6135   -1.6292    1.9260 C   0  0  0  0  0  0  0  0  0  0  0  0
    0.4456   -0.9552    3.1141 C   0  0  0  0  0  0  0  0  0  0  0  0
    1.5895   -1.0606    3.8467 N   0  0  0  0  0  0  0  0  0  0  0  0
    2.4990   -1.7727    3.1886 C   0  0  0  0  0  0  0  0  0  0  0  0
    1.9413   -2.1460    1.9938 C   0  0  0  0  0  0  0  0  0  0  0  0
    2.6692   -2.9137    1.0912 C   0  0  0  0  0  0  0  0  0  0  0  0
    3.9427   -3.2741    1.4473 C   0  0  0  0  0  0  0  0  0  0  0  0
    4.5488   -2.9264    2.6316 C   0  0  0  0  0  0  0  0  0  0  0  0
    3.7911   -2.1541    3.5146 C   0  0  0  0  0  0  0  0  0  0  0  0
   -5.7808   -2.4519   -0.9346 N   0  0  0  0  0  0  0  0  0  0  0  0
   -5.9282   -1.6420    0.1967 C   0  0  0  0  0  0  0  0  0  0  0  0
   -5.0364   -1.4332    1.0669 O   0  0  0  0  0  0  0  0  0  0  0  0
   -7.2476   -0.9610    0.3860 C   0  0  1  0  0  0  0  0  0  0  0  0
   -7.2564    0.0156    1.4327 N   0  0  0  0  0  0  0  0  0  0  0  0
   -8.0252   -0.0621    2.5998 C   0  0  0  0  0  0  0  0  0  0  0  0
   -8.7574   -1.1178    2.7044 O   0  0  0  0  0  0  0  0  0  0  0  0
   -8.1084    0.8833    3.7013 C   0  0  2  0  0  0  0  0  0  0  0  0
   -6.9164    1.6886    4.0504 C   0  0  0  0  0  0  0  0  0  0  0  0
   -6.4322    2.5860    2.9700 C   0  0  0  0  0  0  0  0  0  0  0  0
   -5.2203    2.7612    2.7119 O   0  0  0  0  0  0  0  0  0  0  0  0
   -7.4596    3.2375    2.2401 O   0  0  0  0  0  0  0  0  0  0  0  0
   -8.7410    0.2438    4.8489 N   0  0  0  0  0  0  0  0  0  0  0  0
   -7.8336   -0.4708   -0.9134 C   0  0  0  0  0  0  0  0  0  0  0  0
   -9.1105    0.2370   -0.6357 C   0  0  0  0  0  0  0  0  0  0  0  0
  -10.3320   -0.4318   -0.5490 C   0  0  0  0  0  0  0  0  0  0  0  0
  -11.4898    0.3039   -0.3458 C   0  0  0  0  0  0  0  0  0  0  0  0
  -11.4195    1.6804   -0.2344 C   0  0  0  0  0  0  0  0  0  0  0  0
  -10.2198    2.3753   -0.3155 C   0  0  0  0  0  0  0  0  0  0  0  0
   -9.0970    1.6185   -0.5146 C   0  0  0  0  0  0  0  0  0  0  0  0
  -12.5930    2.4414   -0.0339 O   0  0  0  0  0  0  0  0  0  0  0  0
  -13.4775    3.0095   -1.3778 S   0  0  0  0  0  0  0  0  0  0  0  0
  -13.8414    1.9013   -2.3022 O   0  0  0  0  0  0  0  0  0  0  0  0
  -14.6770    3.7504   -0.8403 O   0  0  0  0  0  0  0  0  0  0  0  0
  -12.4671    4.1375   -2.1449 O   0  0  0  0  0  0  0  0  0  0  0  0
   -3.8006   -6.4650   -3.6725 H   0  0  0  0  0  0  0  0  0  0  0  0
   -4.7345   -7.8408   -4.4340 H   0  0  0  0  0  0  0  0  0  0  0  0
   -4.2098   -6.3914   -5.4119 H   0  0  0  0  0  0  0  0  0  0  0  0
   -6.7754   -3.8338   -3.1126 H   0  0  0  0  0  0  0  0  0  0  0  0
   -5.2288   -3.6961   -4.0826 H   0  0  0  0  0  0  0  0  0  0  0  0
   -4.1642   -5.1777   -2.1637 H   0  0  0  0  0  0  0  0  0  0  0  0
   -5.6986   -4.9960   -1.3345 H   0  0  0  0  0  0  0  0  0  0  0  0
   -4.0405   -3.3878   -0.4040 H   0  0  0  0  0  0  0  0  0  0  0  0
   -2.6930   -3.5207   -3.4563 H   0  0  0  0  0  0  0  0  0  0  0  0
   -2.9449   -0.6290   -3.9277 H   0  0  0  0  0  0  0  0  0  0  0  0
   -1.6146   -1.6798   -4.5942 H   0  0  0  0  0  0  0  0  0  0  0  0
   -1.4821   -2.4607   -1.3123 H   0  0  0  0  0  0  0  0  0  0  0  0
   -0.5658    0.0167   -0.1553 H   0  0  0  0  0  0  0  0  0  0  0  0
    2.0448    0.2898    0.7349 H   0  0  0  0  0  0  0  0  0  0  0  0
    3.4843   -0.3399   -1.7614 H   0  0  0  0  0  0  0  0  0  0  0  0
    5.8374    0.7395   -1.8274 H   0  0  0  0  0  0  0  0  0  0  0  0
    7.0634    0.0215    0.8001 H   0  0  0  0  0  0  0  0  0  0  0  0
    9.8022    1.0996    0.3621 H   0  0  0  0  0  0  0  0  0  0  0  0
    9.0831    3.9701   -0.0177 H   0  0  0  0  0  0  0  0  0  0  0  0
   11.6870    5.2115   -0.6035 H   0  0  0  0  0  0  0  0  0  0  0  0
   11.8845    4.7657   -2.3049 H   0  0  0  0  0  0  0  0  0  0  0  0
   11.0365    4.4714    1.4284 H   0  0  0  0  0  0  0  0  0  0  0  0
    9.9395    3.3326    2.2138 H   0  0  0  0  0  0  0  0  0  0  0  0
   10.4585    1.0173    2.6407 H   0  0  0  0  0  0  0  0  0  0  0  0
   12.1968   -0.6022    2.9338 H   0  0  0  0  0  0  0  0  0  0  0  0
   14.4598   -0.2592    2.0803 H   0  0  0  0  0  0  0  0  0  0  0  0
   14.9781    1.8785    0.8547 H   0  0  0  0  0  0  0  0  0  0  0  0
   13.2291    3.5364    0.5575 H   0  0  0  0  0  0  0  0  0  0  0  0
    9.0802   -0.5660   -0.5316 H   0  0  0  0  0  0  0  0  0  0  0  0
    7.7075   -1.6224   -0.9087 H   0  0  0  0  0  0  0  0  0  0  0  0
    7.6929    1.2005   -3.8932 H   0  0  0  0  0  0  0  0  0  0  0  0
    4.2478    1.8517   -2.1920 H   0  0  0  0  0  0  0  0  0  0  0  0
    2.5069    1.5647   -2.4012 H   0  0  0  0  0  0  0  0  0  0  0  0
    3.9268    3.2852   -0.2876 H   0  0  0  0  0  0  0  0  0  0  0  0
    3.1418    3.7829   -1.7616 H   0  0  0  0  0  0  0  0  0  0  0  0
    0.4690    3.3776    2.0680 H   0  0  0  0  0  0  0  0  0  0  0  0
    1.8982    2.3335    2.0011 H   0  0  0  0  0  0  0  0  0  0  0  0
    0.3309    1.7659    1.2381 H   0  0  0  0  0  0  0  0  0  0  0  0
   -1.2902   -1.9138    1.1654 H   0  0  0  0  0  0  0  0  0  0  0  0
   -0.1038   -2.9370    0.3801 H   0  0  0  0  0  0  0  0  0  0  0  0
   -0.4736   -0.4388    3.3686 H   0  0  0  0  0  0  0  0  0  0  0  0
    1.6487   -0.6020    4.7932 H   0  0  0  0  0  0  0  0  0  0  0  0
    2.2634   -3.2301    0.1432 H   0  0  0  0  0  0  0  0  0  0  0  0
    4.5045   -3.8757    0.7388 H   0  0  0  0  0  0  0  0  0  0  0  0
    5.5610   -3.2405    2.8528 H   0  0  0  0  0  0  0  0  0  0  0  0
    4.2604   -1.8716    4.4656 H   0  0  0  0  0  0  0  0  0  0  0  0
   -6.6184   -2.5608   -1.5735 H   0  0  0  0  0  0  0  0  0  0  0  0
   -7.9496   -1.7995    0.7157 H   0  0  0  0  0  0  0  0  0  0  0  0
   -6.6359    0.8468    1.3096 H   0  0  0  0  0  0  0  0  0  0  0  0
   -8.8981    1.6592    3.3503 H   0  0  0  0  0  0  0  0  0  0  0  0
   -6.0933    1.0981    4.5128 H   0  0  0  0  0  0  0  0  0  0  0  0
   -7.2389    2.3802    4.8856 H   0  0  0  0  0  0  0  0  0  0  0  0
   -7.2558    3.5310    1.2754 H   0  0  0  0  0  0  0  0  0  0  0  0
   -8.0024    0.2498    5.6061 H   0  0  0  0  0  0  0  0  0  0  0  0
   -8.9045   -0.7477    4.6015 H   0  0  0  0  0  0  0  0  0  0  0  0
   -7.1633    0.2403   -1.4095 H   0  0  0  0  0  0  0  0  0  0  0  0
   -8.0424   -1.3520   -1.5745 H   0  0  0  0  0  0  0  0  0  0  0  0
  -10.3343   -1.5094   -0.6466 H   0  0  0  0  0  0  0  0  0  0  0  0
  -12.4745   -0.1783   -0.2737 H   0  0  0  0  0  0  0  0  0  0  0  0
  -10.1183    3.4328   -0.2337 H   0  0  0  0  0  0  0  0  0  0  0  0
   -8.1310    2.0913   -0.5865 H   0  0  0  0  0  0  0  0  0  0  0  0
  -11.6004    3.6502   -2.2784 H   0  0  0  0  0  0  0  0  0  0  0  0
  1  2  1  0
  2  3  1  0
  3  4  1  0
  4  5  1  0
  5  6  1  0
  6  7  2  0
  6  8  1  0
  8  9  1  0
  9 10  1  0
 10 11  2  0
 10 12  1  0
 12 13  1  0
 13 14  1  0
 14 15  2  0
 14 16  1  0
 16 17  1  0
 17 18  1  0
 18 19  2  0
 18 20  1  0
 20 21  1  0
 21 22  1  0
 22 23  2  0
 22 24  1  0
 24 25  1  0
 25 26  1  0
 26 27  2  0
 26 28  1  0
 25 29  1  0
 29 30  1  0
 30 31  2  0
 31 32  1  0
 32 33  2  0
 33 34  1  0
 34 35  2  0
 21 36  1  0
 36 37  1  0
 37 38  2  0
 37 39  1  0
 17 40  1  0
 40 41  1  0
 41 42  1  0
 42 43  1  0
 13 44  1  0
 44 45  1  0
 45 46  2  0
 46 47  1  0
 47 48  1  0
 48 49  2  0
 49 50  1  0
 50 51  2  0
 51 52  1  0
 52 53  2  0
  5 54  1  0
 54 55  1  0
 55 56  2  0
 55 57  1  0
 57 58  1  0
 58 59  1  0
 59 60  2  0
 59 61  1  0
 61 62  1  0
 62 63  1  0
 63 64  2  0
 63 65  1  0
 61 66  1  0
 57 67  1  0
 67 68  1  0
 68 69  2  0
 69 70  1  0
 70 71  2  0
 71 72  1  0
 72 73  2  0
 71 74  1  0
 74 75  1  0
 75 76  2  0
 75 77  2  0
 75 78  1  0
 35 30  1  0
 49 45  1  0
 73 68  1  0
 53 48  1  0
  1 79  1  0
  1 80  1  0
  1 81  1  0
  3 82  1  0
  3 83  1  0
  4 84  1  0
  4 85  1  0
  5 86  1  1
  8 87  1  0
  9 88  1  0
  9 89  1  0
 12 90  1  0
 13 91  1  1
 16 92  1  0
 17 93  1  6
 20 94  1  0
 21 95  1  1
 24 96  1  0
 25 97  1  6
 28 98  1  0
 28 99  1  0
 29100  1  0
 29101  1  0
 31102  1  0
 32103  1  0
 33104  1  0
 34105  1  0
 35106  1  0
 36107  1  0
 36108  1  0
 39109  1  0
 40110  1  0
 40111  1  0
 41112  1  0
 41113  1  0
 43114  1  0
 43115  1  0
 43116  1  0
 44117  1  0
 44118  1  0
 46119  1  0
 47120  1  0
 50121  1  0
 51122  1  0
 52123  1  0
 53124  1  0
 54125  1  0
 57126  1  1
 58127  1  0
 61128  1  6
 62129  1  0
 62130  1  0
 65131  1  0
 66132  1  0
 66133  1  0
 67134  1  0
 67135  1  0
 69136  1  0
 70137  1  0
 72138  1  0
 73139  1  0
 78140  1  0
M  END
>  <Ligand ID>  (1) 
LIG0004969

>  <Ligand>  (1) 
CCK-8

>  <SMILES>  (1) 
CSCC[C@@H](C(=O)NCC(=O)N[C@H](C(=O)N[C@H](C(=O)N[C@H](C(=O)N[C@H](C(=O)N)Cc1ccccc1)CC(=O)O)CCSC)Cc1c[nH]c2c1cccc2)NC(=O)[C@@H](NC(=O)[C@H](CC(=O)O)N)Cc1ccc(cc1)OS(=O)(=O)O

>  <CID>  (1) 
9833444.0

>  <ChEMBL ID>  (1) 
nan

>  <InChiKey>  (1) 
IZTQOLKUZKXIRV-YRVFCXMDSA-N

>  <InChi>  (1) 
InChI=1S/C49H62N10O16S3/c1-76-18-16-34(55-47(69)37(58-44(66)32(50)23-41(61)62)21-28-12-14-30(15-13-28)75-78(72,73)74)45(67)53-26-40(60)54-38(22-29-25-52-33-11-7-6-10-31(29)33)48(70)56-35(17-19-77-2)46(68)59-39(24-42(63)64)49(71)57-36(43(51)65)20-27-8-4-3-5-9-27/h3-15,25,32,34-39,52H,16-24,26,50H2,1-2H3,(H2,51,65)(H,53,67)(H,54,60)(H,55,69)(H,56,70)(H,57,71)(H,58,66)(H,59,68)(H,61,62)(H,63,64)(H,72,73,74)/t32-,34-,35-,36-,37-,38-,39-/m0/s1

>  <IUPAC Name>  (1) 
(3S)-3-amino-4-[[(2S)-1-[[(2S)-1-[[2-[[(2S)-1-[[(2S)-1-[[(2S)-1-[[(2S)-1-amino-1-oxo-3-phenylpropan-2-yl]amino]-3-carboxy-1-oxopropan-2-yl]amino]-4-methylsulfanyl-1-oxobutan-2-yl]amino]-3-(1H-indol-3-yl)-1-oxopropan-2-yl]amino]-2-oxoethyl]amino]-4-methylsulfanyl-1-oxobutan-2-yl]amino]-1-oxo-3-(4-sulfooxyphenyl)propan-2-yl]amino]-4-oxobutanoic acid

$$$$
