
     RDKit          3D

 47 49  0  0  0  0  0  0  0  0999 V2000
    0.6158    2.6700    0.1000 O   0  0  0  0  0  0  0  0  0  0  0  0
   -0.2121    1.6714    0.1299 C   0  0  0  0  0  0  0  0  0  0  0  0
   -1.6014    2.0351    0.1788 C   0  0  0  0  0  0  0  0  0  0  0  0
   -2.7255    1.3110    0.2922 N   0  0  0  0  0  0  0  0  0  0  0  0
   -3.7835    2.0477    0.2984 O   0  0  0  0  0  0  0  0  0  0  0  0
   -3.4633    3.3179    0.1911 C   0  0  0  0  0  0  0  0  0  0  0  0
   -2.0887    3.3588    0.1122 C   0  0  0  0  0  0  0  0  0  0  0  0
   -4.4504    4.4276    0.1667 C   0  0  0  0  0  0  0  0  0  0  0  0
    0.3598    0.4042    0.1116 N   0  0  0  0  0  0  0  0  0  0  0  0
   -0.2908   -0.8797    0.1312 C   0  0  0  0  0  0  0  0  0  0  0  0
   -1.0284   -1.2115   -1.1555 C   0  0  0  0  0  0  0  0  0  0  0  0
   -1.1650   -2.7424   -1.1556 C   0  0  0  0  0  0  0  0  0  0  0  0
   -1.7815   -3.1779    0.1274 C   0  0  0  0  0  0  0  0  0  0  0  0
   -2.2515   -2.0472    1.0085 C   0  0  0  0  0  0  0  0  0  0  0  0
   -1.0567   -1.1941    1.3749 C   0  0  0  0  0  0  0  0  0  0  0  0
    1.8448    0.3496    0.0607 C   0  0  0  0  0  0  0  0  0  0  0  0
    2.4179   -0.2581    1.3090 C   0  0  0  0  0  0  0  0  0  0  0  0
    3.6847   -0.9956    0.9934 C   0  0  0  0  0  0  0  0  0  0  0  0
    4.5227   -0.3599   -0.0658 C   0  0  0  0  0  0  0  0  0  0  0  0
    3.8009   -0.0570   -1.3394 C   0  0  0  0  0  0  0  0  0  0  0  0
    2.3205   -0.3289   -1.1749 C   0  0  0  0  0  0  0  0  0  0  0  0
   -1.5363    4.2658    0.0169 H   0  0  0  0  0  0  0  0  0  0  0  0
   -4.2116    5.1406   -0.6577 H   0  0  0  0  0  0  0  0  0  0  0  0
   -5.4829    4.0365    0.0051 H   0  0  0  0  0  0  0  0  0  0  0  0
   -4.4011    5.0187    1.1138 H   0  0  0  0  0  0  0  0  0  0  0  0
    0.5251   -1.6964    0.1197 H   0  0  0  0  0  0  0  0  0  0  0  0
   -0.2956   -0.9533   -1.9610 H   0  0  0  0  0  0  0  0  0  0  0  0
   -1.9990   -0.7733   -1.2812 H   0  0  0  0  0  0  0  0  0  0  0  0
   -0.1135   -3.1124   -1.1927 H   0  0  0  0  0  0  0  0  0  0  0  0
   -1.7095   -3.0801   -2.0570 H   0  0  0  0  0  0  0  0  0  0  0  0
   -1.0738   -3.7831    0.7618 H   0  0  0  0  0  0  0  0  0  0  0  0
   -2.6601   -3.8140   -0.0628 H   0  0  0  0  0  0  0  0  0  0  0  0
   -2.6248   -2.5119    1.9391 H   0  0  0  0  0  0  0  0  0  0  0  0
   -3.0018   -1.4458    0.4856 H   0  0  0  0  0  0  0  0  0  0  0  0
   -1.3254   -0.3231    1.9907 H   0  0  0  0  0  0  0  0  0  0  0  0
   -0.4747   -1.8518    2.0982 H   0  0  0  0  0  0  0  0  0  0  0  0
    2.1722    1.4069    0.0421 H   0  0  0  0  0  0  0  0  0  0  0  0
    2.6415    0.5406    2.0696 H   0  0  0  0  0  0  0  0  0  0  0  0
    1.7315   -0.9672    1.8083 H   0  0  0  0  0  0  0  0  0  0  0  0
    4.3008   -0.9791    1.9363 H   0  0  0  0  0  0  0  0  0  0  0  0
    3.4365   -2.0458    0.7776 H   0  0  0  0  0  0  0  0  0  0  0  0
    4.9559    0.5806    0.3727 H   0  0  0  0  0  0  0  0  0  0  0  0
    5.3493   -1.0691   -0.2921 H   0  0  0  0  0  0  0  0  0  0  0  0
    4.1804   -0.6730   -2.1990 H   0  0  0  0  0  0  0  0  0  0  0  0
    3.9020    1.0258   -1.5706 H   0  0  0  0  0  0  0  0  0  0  0  0
    2.2072   -1.4320   -1.1507 H   0  0  0  0  0  0  0  0  0  0  0  0
    1.8394    0.1549   -2.0556 H   0  0  0  0  0  0  0  0  0  0  0  0
  1  2  2  0
  2  3  1  0
  3  4  2  0
  4  5  1  0
  5  6  1  0
  6  7  2  0
  6  8  1  0
  2  9  1  0
  9 10  1  0
 10 11  1  0
 11 12  1  0
 12 13  1  0
 13 14  1  0
 14 15  1  0
  9 16  1  0
 16 17  1  0
 17 18  1  0
 18 19  1  0
 19 20  1  0
 20 21  1  0
  7  3  1  0
 15 10  1  0
 21 16  1  0
  7 22  1  0
  8 23  1  0
  8 24  1  0
  8 25  1  0
 10 26  1  0
 11 27  1  0
 11 28  1  0
 12 29  1  0
 12 30  1  0
 13 31  1  0
 13 32  1  0
 14 33  1  0
 14 34  1  0
 15 35  1  0
 15 36  1  0
 16 37  1  0
 17 38  1  0
 17 39  1  0
 18 40  1  0
 18 41  1  0
 19 42  1  0
 19 43  1  0
 20 44  1  0
 20 45  1  0
 21 46  1  0
 21 47  1  0
M  END
>  <Ligand ID>  (1) 
LIG0003788

>  <Ligand>  (1) 
SMR000023524

>  <SMILES>  (1) 
O=C(c1noc(c1)C)N(C1CCCCC1)C1CCCCC1

>  <CID>  (1) 
3245758.0

>  <ChEMBL ID>  (1) 
nan

>  <InChiKey>  (1) 
ACAPZKCRDPYIJW-UHFFFAOYSA-N

>  <InChi>  (1) 
InChI=1S/C17H26N2O2/c1-13-12-16(18-21-13)17(20)19(14-8-4-2-5-9-14)15-10-6-3-7-11-15/h12,14-15H,2-11H2,1H3

>  <IUPAC Name>  (1) 
N,N-dicyclohexyl-5-methyl-1,2-oxazole-3-carboxamide

$$$$
