
     RDKit          3D

 43 45  0  0  0  0  0  0  0  0999 V2000
    6.7138    1.1156    1.8216 C   0  0  0  0  0  0  0  0  0  0  0  0
    6.1930    0.7214    0.6456 C   0  0  0  0  0  0  0  0  0  0  0  0
    5.1408    1.5748    0.0656 C   0  0  0  0  0  0  0  0  0  0  0  0
    3.8999    0.7402   -0.0695 C   0  0  0  0  0  0  0  0  0  0  0  0
    3.8993   -0.4811    0.2912 O   0  0  0  0  0  0  0  0  0  0  0  0
    2.7039    1.3065   -0.6047 N   0  0  0  0  0  0  0  0  0  0  0  0
    1.4829    0.5614   -0.7602 C   0  0  0  0  0  0  0  0  0  0  0  0
    0.9158    0.0032    0.5062 C   0  0  0  0  0  0  0  0  0  0  0  0
   -0.3773   -0.7704    0.2585 C   0  0  0  0  0  0  0  0  0  0  0  0
   -1.5266   -0.0402    0.0268 C   0  0  0  0  0  0  0  0  0  0  0  0
   -1.8575    1.6727   -0.0490 S   0  0  0  0  0  0  0  0  0  0  0  0
   -3.6036    1.9490   -0.3951 C   0  0  0  0  0  0  0  0  0  0  0  0
   -4.4781    2.0509    0.6901 C   0  0  0  0  0  0  0  0  0  0  0  0
   -5.8178    2.2632    0.4324 C   0  0  0  0  0  0  0  0  0  0  0  0
   -6.3150    2.3769   -0.8521 C   0  0  0  0  0  0  0  0  0  0  0  0
   -5.4186    2.2708   -1.9110 C   0  0  0  0  0  0  0  0  0  0  0  0
   -4.0745    2.0587   -1.6873 C   0  0  0  0  0  0  0  0  0  0  0  0
   -7.6428    2.5861   -1.0663 F   0  0  0  0  0  0  0  0  0  0  0  0
   -2.8394   -1.3637   -0.2219 S   0  0  0  0  0  0  0  0  0  0  0  0
   -1.6967   -2.6697    0.0127 C   0  0  0  0  0  0  0  0  0  0  0  0
   -0.4820   -2.1102    0.2478 C   0  0  0  0  0  0  0  0  0  0  0  0
    0.5596   -3.0486    0.4596 C   0  0  0  0  0  0  0  0  0  0  0  0
    0.3008   -4.3952    0.4185 C   0  0  0  0  0  0  0  0  0  0  0  0
    1.3225   -5.2644    0.6262 F   0  0  0  0  0  0  0  0  0  0  0  0
   -0.9381   -4.9425    0.1788 C   0  0  0  0  0  0  0  0  0  0  0  0
   -1.9687   -4.0191   -0.0309 C   0  0  0  0  0  0  0  0  0  0  0  0
    6.2720    2.0519    2.2068 H   0  0  0  0  0  0  0  0  0  0  0  0
    7.4826    0.5798    2.3398 H   0  0  0  0  0  0  0  0  0  0  0  0
    6.5121   -0.1719    0.1317 H   0  0  0  0  0  0  0  0  0  0  0  0
    5.4882    1.8666   -0.9678 H   0  0  0  0  0  0  0  0  0  0  0  0
    4.9167    2.4596    0.6645 H   0  0  0  0  0  0  0  0  0  0  0  0
    2.7860    2.3286   -0.8819 H   0  0  0  0  0  0  0  0  0  0  0  0
    0.7308    1.2613   -1.2082 H   0  0  0  0  0  0  0  0  0  0  0  0
    1.6592   -0.2167   -1.5384 H   0  0  0  0  0  0  0  0  0  0  0  0
    0.6646    0.8515    1.1727 H   0  0  0  0  0  0  0  0  0  0  0  0
    1.6659   -0.6766    0.9500 H   0  0  0  0  0  0  0  0  0  0  0  0
   -4.0821    1.9605    1.6878 H   0  0  0  0  0  0  0  0  0  0  0  0
   -6.4770    2.3384    1.2935 H   0  0  0  0  0  0  0  0  0  0  0  0
   -5.8108    2.3603   -2.9331 H   0  0  0  0  0  0  0  0  0  0  0  0
   -3.3855    1.9781   -2.5328 H   0  0  0  0  0  0  0  0  0  0  0  0
    1.5660   -2.7432    0.6556 H   0  0  0  0  0  0  0  0  0  0  0  0
   -1.1310   -6.0021    0.1489 H   0  0  0  0  0  0  0  0  0  0  0  0
   -2.9536   -4.3724   -0.2227 H   0  0  0  0  0  0  0  0  0  0  0  0
  1  2  2  0
  2  3  1  0
  3  4  1  0
  4  5  2  0
  4  6  1  0
  6  7  1  0
  7  8  1  0
  8  9  1  0
  9 10  2  0
 10 11  1  0
 11 12  1  0
 12 13  2  0
 13 14  1  0
 14 15  2  0
 15 16  1  0
 16 17  2  0
 15 18  1  0
 10 19  1  0
 19 20  1  0
 20 21  2  0
 21 22  1  0
 22 23  2  0
 23 24  1  0
 23 25  1  0
 25 26  2  0
 21  9  1  0
 17 12  1  0
 26 20  1  0
  1 27  1  0
  1 28  1  0
  2 29  1  0
  3 30  1  0
  3 31  1  0
  6 32  1  0
  7 33  1  0
  7 34  1  0
  8 35  1  0
  8 36  1  0
 13 37  1  0
 14 38  1  0
 16 39  1  0
 17 40  1  0
 22 41  1  0
 25 42  1  0
 26 43  1  0
M  END
>  <Ligand ID>  (1) 
LIG0005612

>  <Ligand>  (1) 
CHEMBL1779810

>  <SMILES>  (1) 
C=CCC(=O)NCCc1c(Sc2ccc(cc2)F)sc2c1cc(F)cc2

>  <CID>  (1) 
52953165.0

>  <ChEMBL ID>  (1) 
nan

>  <InChiKey>  (1) 
QURSEHRPLOXNGN-UHFFFAOYSA-N

>  <InChi>  (1) 
InChI=1S/C20H17F2NOS2/c1-2-3-19(24)23-11-10-16-17-12-14(22)6-9-18(17)26-20(16)25-15-7-4-13(21)5-8-15/h2,4-9,12H,1,3,10-11H2,(H,23,24)

>  <IUPAC Name>  (1) 
N-[2-[5-fluoro-2-(4-fluorophenyl)sulfanyl-1-benzothiophen-3-yl]ethyl]but-3-enamide

$$$$
