
     RDKit          3D

 64 65  0  0  0  0  0  0  0  0999 V2000
    6.6465    2.2134   -1.6949 C   0  0  0  0  0  0  0  0  0  0  0  0
    6.3951    1.5732   -0.3448 C   0  0  0  0  0  0  0  0  0  0  0  0
    6.4219    0.0742   -0.5378 C   0  0  0  0  0  0  0  0  0  0  0  0
    6.1767   -0.6347    0.7765 C   0  0  0  0  0  0  0  0  0  0  0  0
    6.2046   -2.1092    0.5783 C   0  0  0  0  0  0  0  0  0  0  0  0
    5.2127   -2.6681   -0.3778 C   0  0  0  0  0  0  0  0  0  0  0  0
    3.8234   -2.3702    0.0596 C   0  0  0  0  0  0  0  0  0  0  0  0
    3.5024   -1.0031    0.1602 O   0  0  0  0  0  0  0  0  0  0  0  0
    2.2297   -0.6102    0.5609 C   0  0  0  0  0  0  0  0  0  0  0  0
    1.9716    0.7438    0.6416 C   0  0  0  0  0  0  0  0  0  0  0  0
    0.7316    1.2064    1.0319 C   0  0  0  0  0  0  0  0  0  0  0  0
   -0.2973    0.3153    1.3561 C   0  0  0  0  0  0  0  0  0  0  0  0
   -0.0031   -1.0114    1.2642 C   0  0  0  0  0  0  0  0  0  0  0  0
    1.2292   -1.5096    0.8763 C   0  0  0  0  0  0  0  0  0  0  0  0
   -1.5938    0.8870    1.7736 C   0  0  0  0  0  0  0  0  0  0  0  0
   -2.5001    1.1741    0.6366 C   0  0  0  0  0  0  0  0  0  0  0  0
   -2.9273    0.0399   -0.2142 C   0  0  1  0  0  0  0  0  0  0  0  0
   -3.8446    0.5276   -1.3462 C   0  0  0  0  0  0  0  0  0  0  0  0
   -5.0809    1.2006   -0.8504 C   0  0  0  0  0  0  0  0  0  0  0  0
   -5.8491    0.2701   -0.0533 N   0  0  0  0  0  0  0  0  0  0  0  0
   -6.7796    1.0418    0.7522 C   0  0  0  0  0  0  0  0  0  0  0  0
   -7.7159    1.7110   -0.1920 C   0  0  0  0  0  0  0  0  0  0  0  0
   -8.0233    2.9444   -0.1522 O   0  0  0  0  0  0  0  0  0  0  0  0
   -8.1983    0.7526   -1.1279 N   0  0  0  0  0  0  0  0  0  0  0  0
   -6.9762   -0.4907   -1.1581 S   0  0  0  0  0  0  0  0  0  0  0  0
   -6.3334   -0.6322   -2.4843 O   0  0  0  0  0  0  0  0  0  0  0  0
   -7.5130   -1.7715   -0.6022 O   0  0  0  0  0  0  0  0  0  0  0  0
   -1.7727   -0.5376   -0.9203 N   0  0  0  0  0  0  0  0  0  0  0  0
   -3.6236   -1.0782    0.4749 C   0  0  0  0  0  0  0  0  0  0  0  0
    5.6674    2.3682   -2.1889 H   0  0  0  0  0  0  0  0  0  0  0  0
    7.1989    3.1722   -1.5620 H   0  0  0  0  0  0  0  0  0  0  0  0
    7.2341    1.5058   -2.3131 H   0  0  0  0  0  0  0  0  0  0  0  0
    7.1304    1.9156    0.4136 H   0  0  0  0  0  0  0  0  0  0  0  0
    5.3533    1.8304   -0.0211 H   0  0  0  0  0  0  0  0  0  0  0  0
    7.4390   -0.2221   -0.8824 H   0  0  0  0  0  0  0  0  0  0  0  0
    5.6837   -0.1529   -1.3176 H   0  0  0  0  0  0  0  0  0  0  0  0
    7.0831   -0.3882    1.4024 H   0  0  0  0  0  0  0  0  0  0  0  0
    5.3211   -0.2783    1.3437 H   0  0  0  0  0  0  0  0  0  0  0  0
    5.9554   -2.5635    1.5847 H   0  0  0  0  0  0  0  0  0  0  0  0
    7.2436   -2.4592    0.3905 H   0  0  0  0  0  0  0  0  0  0  0  0
    5.3661   -3.7873   -0.3721 H   0  0  0  0  0  0  0  0  0  0  0  0
    5.3970   -2.3819   -1.4341 H   0  0  0  0  0  0  0  0  0  0  0  0
    3.5593   -2.8902    1.0062 H   0  0  0  0  0  0  0  0  0  0  0  0
    3.1148   -2.8012   -0.7057 H   0  0  0  0  0  0  0  0  0  0  0  0
    2.7694    1.4495    0.3903 H   0  0  0  0  0  0  0  0  0  0  0  0
    0.5872    2.2835    1.0770 H   0  0  0  0  0  0  0  0  0  0  0  0
   -0.7561   -1.7420    1.5081 H   0  0  0  0  0  0  0  0  0  0  0  0
    1.4254   -2.5778    0.8149 H   0  0  0  0  0  0  0  0  0  0  0  0
   -2.0185    0.1880    2.5246 H   0  0  0  0  0  0  0  0  0  0  0  0
   -1.3593    1.8326    2.3386 H   0  0  0  0  0  0  0  0  0  0  0  0
   -2.0380    1.9776    0.0091 H   0  0  0  0  0  0  0  0  0  0  0  0
   -3.4314    1.6539    1.0497 H   0  0  0  0  0  0  0  0  0  0  0  0
   -4.0513   -0.3640   -1.9703 H   0  0  0  0  0  0  0  0  0  0  0  0
   -3.2094    1.1828   -1.9700 H   0  0  0  0  0  0  0  0  0  0  0  0
   -4.8843    2.1471   -0.3184 H   0  0  0  0  0  0  0  0  0  0  0  0
   -5.6500    1.5130   -1.7723 H   0  0  0  0  0  0  0  0  0  0  0  0
   -6.1756    1.8049    1.2730 H   0  0  0  0  0  0  0  0  0  0  0  0
   -7.3077    0.3963    1.4718 H   0  0  0  0  0  0  0  0  0  0  0  0
   -9.0704    0.7861   -1.6648 H   0  0  0  0  0  0  0  0  0  0  0  0
   -1.5455    0.0992   -1.7017 H   0  0  0  0  0  0  0  0  0  0  0  0
   -1.9698   -1.4949   -1.2523 H   0  0  0  0  0  0  0  0  0  0  0  0
   -4.3397   -1.5438   -0.2621 H   0  0  0  0  0  0  0  0  0  0  0  0
   -2.9818   -1.9335    0.7742 H   0  0  0  0  0  0  0  0  0  0  0  0
   -4.2538   -0.7745    1.3427 H   0  0  0  0  0  0  0  0  0  0  0  0
  1  2  1  0
  2  3  1  0
  3  4  1  0
  4  5  1  0
  5  6  1  0
  6  7  1  0
  7  8  1  0
  8  9  1  0
  9 10  2  0
 10 11  1  0
 11 12  2  0
 12 13  1  0
 13 14  2  0
 12 15  1  0
 15 16  1  0
 16 17  1  0
 17 18  1  0
 18 19  1  0
 19 20  1  0
 20 21  1  0
 21 22  1  0
 22 23  2  0
 22 24  1  0
 24 25  1  0
 25 26  2  0
 25 27  2  0
 17 28  1  6
 17 29  1  0
 14  9  1  0
 25 20  1  0
  1 30  1  0
  1 31  1  0
  1 32  1  0
  2 33  1  0
  2 34  1  0
  3 35  1  0
  3 36  1  0
  4 37  1  0
  4 38  1  0
  5 39  1  0
  5 40  1  0
  6 41  1  0
  6 42  1  0
  7 43  1  0
  7 44  1  0
 10 45  1  0
 11 46  1  0
 13 47  1  0
 14 48  1  0
 15 49  1  0
 15 50  1  0
 16 51  1  0
 16 52  1  0
 18 53  1  0
 18 54  1  0
 19 55  1  0
 19 56  1  0
 21 57  1  0
 21 58  1  0
 24 59  1  0
 28 60  1  0
 28 61  1  0
 29 62  1  0
 29 63  1  0
 29 64  1  0
M  END
>  <Ligand ID>  (1) 
LIG0004300

>  <Ligand>  (1) 
CHEMBL1083841

>  <SMILES>  (1) 
CCCCCCCOc1ccc(cc1)CC[C@@](CCN1CC(=O)NS1(=O)=O)(N)C

>  <CID>  (1) 
46881912.0

>  <ChEMBL ID>  (1) 
nan

>  <InChiKey>  (1) 
KBFWNTPZEXXBFF-NRFANRHFSA-N

>  <InChi>  (1) 
InChI=1S/C21H35N3O4S/c1-3-4-5-6-7-16-28-19-10-8-18(9-11-19)12-13-21(2,22)14-15-24-17-20(25)23-29(24,26)27/h8-11H,3-7,12-17,22H2,1-2H3,(H,23,25)/t21-/m0/s1

>  <IUPAC Name>  (1) 
5-[(3S)-3-amino-5-(4-heptoxyphenyl)-3-methylpentyl]-1,1-dioxo-1,2,5-thiadiazolidin-3-one

$$$$
