
     RDKit          3D

 59 61  0  0  0  0  0  0  0  0999 V2000
    6.3939    1.5244    0.4971 N   0  0  0  0  0  0  0  0  0  0  0  0
    5.5370    0.6514   -0.2909 C   0  0  0  0  0  0  0  0  0  0  0  0
    5.0359    1.4693   -1.4617 C   0  0  0  0  0  0  0  0  0  0  0  0
    4.2616    2.6395   -0.9143 C   0  0  0  0  0  0  0  0  0  0  0  0
    3.0494    2.2516   -0.1014 C   0  0  0  0  0  0  0  0  0  0  0  0
    2.1576    1.5083   -0.9885 N   0  0  0  0  0  0  0  0  0  0  0  0
    0.9176    1.0260   -0.5225 C   0  0  0  0  0  0  0  0  0  0  0  0
    0.6491    1.2757    0.7057 O   0  0  0  0  0  0  0  0  0  0  0  0
   -0.0784    0.2905   -1.2848 C   0  0  1  0  0  0  0  0  0  0  0  0
    0.2664   -1.0457   -1.8267 C   0  0  0  0  0  0  0  0  0  0  0  0
    0.6123   -2.0943   -0.8636 C   0  0  0  0  0  0  0  0  0  0  0  0
   -0.3411   -3.0367   -0.4322 C   0  0  0  0  0  0  0  0  0  0  0  0
    0.2187   -3.8641    0.4652 N   0  0  0  0  0  0  0  0  0  0  0  0
    1.4922   -3.4905    0.6255 C   0  0  0  0  0  0  0  0  0  0  0  0
    1.7437   -2.4172   -0.1760 C   0  0  0  0  0  0  0  0  0  0  0  0
    2.9961   -1.8687   -0.1836 C   0  0  0  0  0  0  0  0  0  0  0  0
    3.9754   -2.4156    0.6231 C   0  0  0  0  0  0  0  0  0  0  0  0
    3.6992   -3.5003    1.4266 C   0  0  0  0  0  0  0  0  0  0  0  0
    2.4466   -4.0752    1.4550 C   0  0  0  0  0  0  0  0  0  0  0  0
   -1.2986    0.1624   -0.4194 N   0  0  0  0  0  0  0  0  0  0  0  0
   -2.5234    0.7446   -0.8547 C   0  0  0  0  0  0  0  0  0  0  0  0
   -2.6023    1.3646   -1.9505 O   0  0  0  0  0  0  0  0  0  0  0  0
   -3.6713    0.6121   -0.0197 N   0  0  0  0  0  0  0  0  0  0  0  0
   -4.9092    1.2155   -0.4898 C   0  0  0  0  0  0  0  0  0  0  0  0
   -6.0298    1.0180    0.4650 C   0  0  0  0  0  0  0  0  0  0  0  0
   -6.2053    1.9864    1.4306 C   0  0  0  0  0  0  0  0  0  0  0  0
   -7.2403    1.8533    2.3537 C   0  0  0  0  0  0  0  0  0  0  0  0
   -8.0824    0.7588    2.2996 C   0  0  0  0  0  0  0  0  0  0  0  0
   -7.9089   -0.2250    1.3231 C   0  0  0  0  0  0  0  0  0  0  0  0
   -6.8709   -0.0685    0.4162 C   0  0  0  0  0  0  0  0  0  0  0  0
    6.0571    1.6462    1.4733 H   0  0  0  0  0  0  0  0  0  0  0  0
    6.6786    2.3888    0.0113 H   0  0  0  0  0  0  0  0  0  0  0  0
    6.0824   -0.2092   -0.6799 H   0  0  0  0  0  0  0  0  0  0  0  0
    4.7108    0.3655    0.3731 H   0  0  0  0  0  0  0  0  0  0  0  0
    5.9133    1.8984   -1.9875 H   0  0  0  0  0  0  0  0  0  0  0  0
    4.4035    0.9034   -2.1537 H   0  0  0  0  0  0  0  0  0  0  0  0
    3.9327    3.2236   -1.8202 H   0  0  0  0  0  0  0  0  0  0  0  0
    4.9196    3.3518   -0.3629 H   0  0  0  0  0  0  0  0  0  0  0  0
    3.2911    1.7316    0.8244 H   0  0  0  0  0  0  0  0  0  0  0  0
    2.5817    3.2196    0.2064 H   0  0  0  0  0  0  0  0  0  0  0  0
    2.3995    1.3079   -1.9893 H   0  0  0  0  0  0  0  0  0  0  0  0
   -0.4449    0.8828   -2.1594 H   0  0  0  0  0  0  0  0  0  0  0  0
   -0.6173   -1.3512   -2.4657 H   0  0  0  0  0  0  0  0  0  0  0  0
    1.0742   -0.8871   -2.5916 H   0  0  0  0  0  0  0  0  0  0  0  0
   -1.3704   -3.1191   -0.7451 H   0  0  0  0  0  0  0  0  0  0  0  0
   -0.2835   -4.6656    0.9472 H   0  0  0  0  0  0  0  0  0  0  0  0
    3.1740   -1.0283   -0.8300 H   0  0  0  0  0  0  0  0  0  0  0  0
    4.9612   -2.0205    0.6480 H   0  0  0  0  0  0  0  0  0  0  0  0
    4.4552   -3.9493    2.0717 H   0  0  0  0  0  0  0  0  0  0  0  0
    2.1985   -4.9261    2.0750 H   0  0  0  0  0  0  0  0  0  0  0  0
   -1.2010   -0.3584    0.4855 H   0  0  0  0  0  0  0  0  0  0  0  0
   -3.6225    0.0957    0.9033 H   0  0  0  0  0  0  0  0  0  0  0  0
   -4.6984    2.2891   -0.6716 H   0  0  0  0  0  0  0  0  0  0  0  0
   -5.1221    0.7314   -1.4821 H   0  0  0  0  0  0  0  0  0  0  0  0
   -5.5709    2.8474    1.5010 H   0  0  0  0  0  0  0  0  0  0  0  0
   -7.4214    2.5818    3.1286 H   0  0  0  0  0  0  0  0  0  0  0  0
   -8.8867    0.6845    3.0414 H   0  0  0  0  0  0  0  0  0  0  0  0
   -8.5720   -1.0674    1.2959 H   0  0  0  0  0  0  0  0  0  0  0  0
   -6.7129   -0.8178   -0.3532 H   0  0  0  0  0  0  0  0  0  0  0  0
  1  2  1  0
  2  3  1  0
  3  4  1  0
  4  5  1  0
  5  6  1  0
  6  7  1  0
  7  8  2  0
  7  9  1  0
  9 10  1  0
 10 11  1  0
 11 12  2  0
 12 13  1  0
 13 14  1  0
 14 15  2  0
 15 16  1  0
 16 17  2  0
 17 18  1  0
 18 19  2  0
  9 20  1  0
 20 21  1  0
 21 22  2  0
 21 23  1  0
 23 24  1  0
 24 25  1  0
 25 26  2  0
 26 27  1  0
 27 28  2  0
 28 29  1  0
 29 30  2  0
 15 11  1  0
 30 25  1  0
 19 14  1  0
  1 31  1  0
  1 32  1  0
  2 33  1  0
  2 34  1  0
  3 35  1  0
  3 36  1  0
  4 37  1  0
  4 38  1  0
  5 39  1  0
  5 40  1  0
  6 41  1  0
  9 42  1  6
 10 43  1  0
 10 44  1  0
 12 45  1  0
 13 46  1  0
 16 47  1  0
 17 48  1  0
 18 49  1  0
 19 50  1  0
 20 51  1  0
 23 52  1  0
 24 53  1  0
 24 54  1  0
 26 55  1  0
 27 56  1  0
 28 57  1  0
 29 58  1  0
 30 59  1  0
M  END
>  <Ligand ID>  (1) 
LIG0001271

>  <Ligand>  (1) 
CHEMBL64954

>  <SMILES>  (1) 
NCCCCNC(=O)[C@@H](Cc1c[nH]c2c1cccc2)NC(=O)NCc1ccccc1

>  <CID>  (1) 
44305704.0

>  <ChEMBL ID>  (1) 
nan

>  <InChiKey>  (1) 
CKUHVWJCONRCIC-OAQYLSRUSA-N

>  <InChi>  (1) 
InChI=1S/C23H29N5O2/c24-12-6-7-13-25-22(29)21(14-18-16-26-20-11-5-4-10-19(18)20)28-23(30)27-15-17-8-2-1-3-9-17/h1-5,8-11,16,21,26H,6-7,12-15,24H2,(H,25,29)(H2,27,28,30)/t21-/m1/s1

>  <IUPAC Name>  (1) 
(2R)-N-(4-aminobutyl)-2-(benzylcarbamoylamino)-3-(1H-indol-3-yl)propanamide

$$$$
