
     RDKit          3D

 44 46  0  0  0  0  0  0  0  0999 V2000
    8.7141    0.8888   -1.6795 Br  0  0  0  0  0  0  0  0  0  0  0  0
    7.0215    0.1708   -1.1615 C   0  0  0  0  0  0  0  0  0  0  0  0
    6.0968   -0.0624   -2.1782 C   0  0  0  0  0  0  0  0  0  0  0  0
    4.8495   -0.5853   -1.8486 C   0  0  0  0  0  0  0  0  0  0  0  0
    4.5799   -0.8522   -0.5225 C   0  0  0  0  0  0  0  0  0  0  0  0
    5.5016   -0.6195    0.4892 C   0  0  0  0  0  0  0  0  0  0  0  0
    6.7145   -0.1079    0.1433 C   0  0  0  0  0  0  0  0  0  0  0  0
    3.3263   -1.3839   -0.1445 N   0  0  0  0  0  0  0  0  0  0  0  0
    2.2152   -0.5475    0.1964 C   0  0  0  0  0  0  0  0  0  0  0  0
    2.3090    0.7165    0.1738 O   0  0  0  0  0  0  0  0  0  0  0  0
    0.9583   -1.2471    0.5744 C   0  0  0  0  0  0  0  0  0  0  0  0
   -0.0979   -0.3077    0.8983 N   0  0  0  0  0  0  0  0  0  0  0  0
   -0.2265    0.1028    2.1558 N   0  0  0  0  0  0  0  0  0  0  0  0
   -1.1769    0.9707    2.5406 C   0  0  0  0  0  0  0  0  0  0  0  0
   -1.2505    1.3777    3.9682 C   0  0  0  0  0  0  0  0  0  0  0  0
   -2.0501    1.4480    1.5781 C   0  0  0  0  0  0  0  0  0  0  0  0
   -1.9361    1.0321    0.2502 C   0  0  0  0  0  0  0  0  0  0  0  0
   -0.9469    0.1520   -0.0554 C   0  0  0  0  0  0  0  0  0  0  0  0
   -0.8106   -0.2414   -1.2188 O   0  0  0  0  0  0  0  0  0  0  0  0
   -2.9151    1.5931   -0.7063 C   0  0  0  0  0  0  0  0  0  0  0  0
   -3.9420    0.5648   -1.0003 C   0  0  0  0  0  0  0  0  0  0  0  0
   -3.8795   -0.2996   -2.0700 C   0  0  0  0  0  0  0  0  0  0  0  0
   -4.8689   -1.2451   -2.2920 C   0  0  0  0  0  0  0  0  0  0  0  0
   -5.9341   -1.3233   -1.4291 C   0  0  0  0  0  0  0  0  0  0  0  0
   -6.0083   -0.4711   -0.3633 C   0  0  0  0  0  0  0  0  0  0  0  0
   -5.0233    0.4845   -0.1255 C   0  0  0  0  0  0  0  0  0  0  0  0
   -7.4584   -0.5238    0.8727 Br  0  0  0  0  0  0  0  0  0  0  0  0
    6.3342    0.1577   -3.2254 H   0  0  0  0  0  0  0  0  0  0  0  0
    4.1107   -0.7753   -2.6311 H   0  0  0  0  0  0  0  0  0  0  0  0
    5.2523   -0.8443    1.5364 H   0  0  0  0  0  0  0  0  0  0  0  0
    7.4661    0.0888    0.9109 H   0  0  0  0  0  0  0  0  0  0  0  0
    3.2271   -2.4413   -0.1191 H   0  0  0  0  0  0  0  0  0  0  0  0
    1.1935   -1.9132    1.4479 H   0  0  0  0  0  0  0  0  0  0  0  0
    0.6891   -1.9385   -0.2501 H   0  0  0  0  0  0  0  0  0  0  0  0
   -1.8476    2.3220    4.0346 H   0  0  0  0  0  0  0  0  0  0  0  0
   -1.7486    0.6461    4.6047 H   0  0  0  0  0  0  0  0  0  0  0  0
   -0.2564    1.6410    4.3801 H   0  0  0  0  0  0  0  0  0  0  0  0
   -2.8300    2.1559    1.8764 H   0  0  0  0  0  0  0  0  0  0  0  0
   -2.3606    1.7280   -1.6805 H   0  0  0  0  0  0  0  0  0  0  0  0
   -3.3351    2.5551   -0.3556 H   0  0  0  0  0  0  0  0  0  0  0  0
   -3.0681   -0.2558   -2.7510 H   0  0  0  0  0  0  0  0  0  0  0  0
   -4.7831   -1.9099   -3.1485 H   0  0  0  0  0  0  0  0  0  0  0  0
   -6.7133   -2.0498   -1.5825 H   0  0  0  0  0  0  0  0  0  0  0  0
   -5.0914    1.1493    0.7149 H   0  0  0  0  0  0  0  0  0  0  0  0
  1  2  1  0
  2  3  2  0
  3  4  1  0
  4  5  2  0
  5  6  1  0
  6  7  2  0
  5  8  1  0
  8  9  1  0
  9 10  2  0
  9 11  1  0
 11 12  1  0
 12 13  1  0
 13 14  2  0
 14 15  1  0
 14 16  1  0
 16 17  2  0
 17 18  1  0
 18 19  2  0
 17 20  1  0
 20 21  1  0
 21 22  2  0
 22 23  1  0
 23 24  2  0
 24 25  1  0
 25 26  2  0
 25 27  1  0
  7  2  1  0
 18 12  1  0
 26 21  1  0
  3 28  1  0
  4 29  1  0
  6 30  1  0
  7 31  1  0
  8 32  1  0
 11 33  1  0
 11 34  1  0
 15 35  1  0
 15 36  1  0
 15 37  1  0
 16 38  1  0
 20 39  1  0
 20 40  1  0
 22 41  1  0
 23 42  1  0
 24 43  1  0
 26 44  1  0
M  END
>  <Ligand ID>  (1) 
LIG0003939

>  <Ligand>  (1) 
CHEMBL2391282

>  <SMILES>  (1) 
Brc1ccc(cc1)NC(=O)Cn1nc(C)cc(c1=O)Cc1cccc(c1)Br

>  <CID>  (1) 
71698969.0

>  <ChEMBL ID>  (1) 
nan

>  <InChiKey>  (1) 
IPCAAUNXJQAOBP-UHFFFAOYSA-N

>  <InChi>  (1) 
InChI=1S/C20H17Br2N3O2/c1-13-9-15(10-14-3-2-4-17(22)11-14)20(27)25(24-13)12-19(26)23-18-7-5-16(21)6-8-18/h2-9,11H,10,12H2,1H3,(H,23,26)

>  <IUPAC Name>  (1) 
N-(4-bromophenyl)-2-[5-[(3-bromophenyl)methyl]-3-methyl-6-oxopyridazin-1-yl]acetamide

$$$$
