
     RDKit          3D

143147  0  0  0  0  0  0  0  0999 V2000
    8.0038   -5.1982    0.0883 C   0  0  0  0  0  0  0  0  0  0  0  0
    8.2516   -4.7520   -1.3442 C   0  0  0  0  0  0  0  0  0  0  0  0
    8.5615   -3.2475   -1.4286 C   0  0  0  0  0  0  0  0  0  0  0  0
    7.3924   -2.4622   -1.0027 C   0  0  0  0  0  0  0  0  0  0  0  0
    7.6352   -0.9489   -1.0303 C   0  0  1  0  0  0  0  0  0  0  0  0
    6.2744   -0.3632   -0.6156 C   0  0  0  0  0  0  0  0  0  0  0  0
    6.2457    0.0799    0.5111 O   0  0  0  0  0  0  0  0  0  0  0  0
    5.2932   -0.4396   -1.5989 N   0  0  0  0  0  0  0  0  0  0  0  0
    3.9763    0.0777   -1.3216 C   0  0  1  0  0  0  0  0  0  0  0  0
    3.1220   -0.7375   -0.4253 C   0  0  0  0  0  0  0  0  0  0  0  0
    3.0133   -2.1597   -0.8752 C   0  0  0  0  0  0  0  0  0  0  0  0
    3.5874   -2.6940   -1.8126 O   0  0  0  0  0  0  0  0  0  0  0  0
    2.1388   -3.0433   -0.1125 N   0  0  0  0  0  0  0  0  0  0  0  0
    1.9820   -4.4384   -0.3836 C   0  0  0  0  0  0  0  0  0  0  0  0
    1.4827   -4.8823   -1.6852 C   0  0  0  0  0  0  0  0  0  0  0  0
    0.1568   -4.4106   -2.1581 C   0  0  0  0  0  0  0  0  0  0  0  0
   -0.9647   -4.6294   -1.1789 C   0  0  0  0  0  0  0  0  0  0  0  0
   -2.2882   -4.1110   -1.7995 C   0  0  2  0  0  0  0  0  0  0  0  0
   -3.2359   -3.9594   -0.6682 N   0  0  0  0  0  0  0  0  0  0  0  0
   -3.7670   -2.7182   -0.4274 C   0  0  0  0  0  0  0  0  0  0  0  0
   -3.5329   -1.8772   -1.4304 O   0  0  0  0  0  0  0  0  0  0  0  0
   -4.5264   -2.0984    0.6425 C   0  0  1  0  0  0  0  0  0  0  0  0
   -4.8220   -0.6733    0.3439 N   0  0  0  0  0  0  0  0  0  0  0  0
   -3.8030    0.2871    0.1710 C   0  0  0  0  0  0  0  0  0  0  0  0
   -2.6311   -0.1097    0.1127 O   0  0  0  0  0  0  0  0  0  0  0  0
   -4.2363    1.7443    0.0656 C   0  0  1  0  0  0  0  0  0  0  0  0
   -3.1128    2.6308   -0.1389 N   0  0  0  0  0  0  0  0  0  0  0  0
   -1.9662    2.7079    0.6931 C   0  0  0  0  0  0  0  0  0  0  0  0
   -1.8302    1.7636    1.5061 O   0  0  0  0  0  0  0  0  0  0  0  0
   -0.9305    3.7484    0.6951 C   0  0  2  0  0  0  0  0  0  0  0  0
    0.4253    3.2408    0.7405 N   0  0  0  0  0  0  0  0  0  0  0  0
    1.5590    4.0304    0.3933 C   0  0  0  0  0  0  0  0  0  0  0  0
    1.3327    5.2390    0.2278 O   0  0  0  0  0  0  0  0  0  0  0  0
    2.9216    3.5335    0.2420 C   0  0  1  0  0  0  0  0  0  0  0  0
    2.9734    2.1973   -0.2865 N   0  0  0  0  0  0  0  0  0  0  0  0
    4.0863    1.4755   -0.7521 C   0  0  0  0  0  0  0  0  0  0  0  0
    5.1993    1.9818   -0.7034 O   0  0  0  0  0  0  0  0  0  0  0  0
    3.8680    4.4646   -0.4837 C   0  0  0  0  0  0  0  0  0  0  0  0
    4.0473    5.7644    0.2088 C   0  0  0  0  0  0  0  0  0  0  0  0
    3.4934    6.3635    1.1786 N   0  0  0  0  0  0  0  0  0  0  0  0
    4.1341    7.6431    1.3977 C   0  0  0  0  0  0  0  0  0  0  0  0
    5.0798    7.8384    0.5596 N   0  0  0  0  0  0  0  0  0  0  0  0
    5.1565    6.6897   -0.2973 C   0  0  0  0  0  0  0  0  0  0  0  0
   -1.2551    4.4706    2.0346 C   0  0  0  0  0  0  0  0  0  0  0  0
   -0.4397    5.5716    2.4314 C   0  0  0  0  0  0  0  0  0  0  0  0
   -0.6878    6.8838    2.0493 C   0  0  0  0  0  0  0  0  0  0  0  0
    0.1090    7.9478    2.5336 C   0  0  0  0  0  0  0  0  0  0  0  0
    1.1702    7.6457    3.4227 C   0  0  0  0  0  0  0  0  0  0  0  0
    1.3337    6.3524    3.7303 C   0  0  0  0  0  0  0  0  0  0  0  0
    0.6367    5.2691    3.3273 C   0  0  0  0  0  0  0  0  0  0  0  0
   -5.2627    1.8550   -0.9526 C   0  0  0  0  0  0  0  0  0  0  0  0
   -5.9096    3.2297   -1.1484 C   0  0  0  0  0  0  0  0  0  0  0  0
   -6.9176    3.0207   -2.2487 C   0  0  0  0  0  0  0  0  0  0  0  0
   -7.7724    4.0448   -2.6081 N   0  0  0  0  0  0  0  0  0  0  0  0
   -8.1522    5.0535   -1.9419 C   0  0  0  0  0  0  0  0  0  0  0  0
   -9.0054    5.9499   -2.4724 N   0  0  0  0  0  0  0  0  0  0  0  0
   -7.7036    5.3255   -0.5691 N   0  0  0  0  0  0  0  0  0  0  0  0
   -5.8137   -2.7055    1.0330 C   0  0  0  0  0  0  0  0  0  0  0  0
   -5.8637   -4.0341    1.6282 C   0  0  0  0  0  0  0  0  0  0  0  0
   -4.8755   -4.7794    2.2823 C   0  0  0  0  0  0  0  0  0  0  0  0
   -5.4532   -5.9425    2.7226 N   0  0  0  0  0  0  0  0  0  0  0  0
   -6.7448   -5.9730    2.3837 C   0  0  0  0  0  0  0  0  0  0  0  0
   -7.0496   -4.7830    1.6831 C   0  0  0  0  0  0  0  0  0  0  0  0
   -8.3597   -4.5831    1.2087 C   0  0  0  0  0  0  0  0  0  0  0  0
   -9.3124   -5.5251    1.4309 C   0  0  0  0  0  0  0  0  0  0  0  0
   -9.0143   -6.6615    2.1035 C   0  0  0  0  0  0  0  0  0  0  0  0
   -7.7699   -6.9163    2.5837 C   0  0  0  0  0  0  0  0  0  0  0  0
   -2.8545   -5.1887   -2.6247 C   0  0  0  0  0  0  0  0  0  0  0  0
   -2.2235   -5.5515   -3.6823 O   0  0  0  0  0  0  0  0  0  0  0  0
   -4.0633   -5.8951   -2.3757 N   0  0  0  0  0  0  0  0  0  0  0  0
    8.5797   -0.5511   -0.0242 N   0  0  0  0  0  0  0  0  0  0  0  0
    9.9929   -0.3581   -0.1693 C   0  0  0  0  0  0  0  0  0  0  0  0
   10.6135   -0.5428   -1.2109 O   0  0  0  0  0  0  0  0  0  0  0  0
   10.6498    0.1254    1.1202 C   0  0  0  0  0  0  0  0  0  0  0  0
    6.9739   -5.5573    0.2006 H   0  0  0  0  0  0  0  0  0  0  0  0
    8.6860   -6.0083    0.3823 H   0  0  0  0  0  0  0  0  0  0  0  0
    8.1538   -4.3572    0.8202 H   0  0  0  0  0  0  0  0  0  0  0  0
    7.3000   -4.8811   -1.9479 H   0  0  0  0  0  0  0  0  0  0  0  0
    9.0574   -5.3352   -1.7679 H   0  0  0  0  0  0  0  0  0  0  0  0
    9.4911   -3.0673   -0.8838 H   0  0  0  0  0  0  0  0  0  0  0  0
    8.7837   -3.1002   -2.5294 H   0  0  0  0  0  0  0  0  0  0  0  0
    7.0431   -2.7781   -0.0178 H   0  0  0  0  0  0  0  0  0  0  0  0
    6.5531   -2.6305   -1.7345 H   0  0  0  0  0  0  0  0  0  0  0  0
    7.9159   -0.7084   -2.0209 H   0  0  0  0  0  0  0  0  0  0  0  0
    5.4484   -0.8679   -2.5737 H   0  0  0  0  0  0  0  0  0  0  0  0
    3.4382    0.2594   -2.2910 H   0  0  0  0  0  0  0  0  0  0  0  0
    3.3970   -0.7126    0.6552 H   0  0  0  0  0  0  0  0  0  0  0  0
    2.1031   -0.3259   -0.4460 H   0  0  0  0  0  0  0  0  0  0  0  0
    1.6039   -2.5643    0.6099 H   0  0  0  0  0  0  0  0  0  0  0  0
    3.0499   -4.8916   -0.3103 H   0  0  0  0  0  0  0  0  0  0  0  0
    1.4671   -4.9233    0.4844 H   0  0  0  0  0  0  0  0  0  0  0  0
    2.2242   -4.7525   -2.5140 H   0  0  0  0  0  0  0  0  0  0  0  0
    1.3974   -6.0292   -1.6389 H   0  0  0  0  0  0  0  0  0  0  0  0
    0.1652   -3.4097   -2.5944 H   0  0  0  0  0  0  0  0  0  0  0  0
   -0.0981   -5.0811   -3.0356 H   0  0  0  0  0  0  0  0  0  0  0  0
   -1.0455   -5.6709   -0.8542 H   0  0  0  0  0  0  0  0  0  0  0  0
   -0.8216   -4.0371   -0.2587 H   0  0  0  0  0  0  0  0  0  0  0  0
   -2.1360   -3.2001   -2.3630 H   0  0  0  0  0  0  0  0  0  0  0  0
   -3.4832   -4.7613   -0.1276 H   0  0  0  0  0  0  0  0  0  0  0  0
   -3.7685   -2.0241    1.5100 H   0  0  0  0  0  0  0  0  0  0  0  0
   -5.7991   -0.3761    0.2661 H   0  0  0  0  0  0  0  0  0  0  0  0
   -4.6596    1.9104    1.1026 H   0  0  0  0  0  0  0  0  0  0  0  0
   -3.1068    3.2310   -0.9612 H   0  0  0  0  0  0  0  0  0  0  0  0
   -1.0582    4.4613   -0.1099 H   0  0  0  0  0  0  0  0  0  0  0  0
    0.6053    2.2820    1.0256 H   0  0  0  0  0  0  0  0  0  0  0  0
    3.4172    3.4979    1.2820 H   0  0  0  0  0  0  0  0  0  0  0  0
    2.0705    1.6834   -0.3318 H   0  0  0  0  0  0  0  0  0  0  0  0
    3.5245    4.5763   -1.5114 H   0  0  0  0  0  0  0  0  0  0  0  0
    4.9142    4.0171   -0.4057 H   0  0  0  0  0  0  0  0  0  0  0  0
    3.8192    8.2978    2.1674 H   0  0  0  0  0  0  0  0  0  0  0  0
    6.1056    6.1167   -0.2221 H   0  0  0  0  0  0  0  0  0  0  0  0
    4.9724    6.9207   -1.3540 H   0  0  0  0  0  0  0  0  0  0  0  0
   -1.1742    3.6107    2.7832 H   0  0  0  0  0  0  0  0  0  0  0  0
   -2.3562    4.7387    2.0508 H   0  0  0  0  0  0  0  0  0  0  0  0
   -1.5044    7.0332    1.3792 H   0  0  0  0  0  0  0  0  0  0  0  0
   -0.1017    8.9396    2.2160 H   0  0  0  0  0  0  0  0  0  0  0  0
    1.7958    8.4204    3.8198 H   0  0  0  0  0  0  0  0  0  0  0  0
    2.1756    6.1319    4.4461 H   0  0  0  0  0  0  0  0  0  0  0  0
    0.8194    4.2325    3.6045 H   0  0  0  0  0  0  0  0  0  0  0  0
   -4.8043    1.5670   -1.9683 H   0  0  0  0  0  0  0  0  0  0  0  0
   -6.0842    1.1469   -0.8311 H   0  0  0  0  0  0  0  0  0  0  0  0
   -5.2253    4.0396   -1.3195 H   0  0  0  0  0  0  0  0  0  0  0  0
   -6.4863    3.3962   -0.1728 H   0  0  0  0  0  0  0  0  0  0  0  0
   -6.2713    2.6477   -3.1290 H   0  0  0  0  0  0  0  0  0  0  0  0
   -7.5138    2.0922   -2.0048 H   0  0  0  0  0  0  0  0  0  0  0  0
  -10.0787    5.2378   -2.2551 H   0  0  0  0  0  0  0  0  0  0  0  0
   -9.6399    6.6511   -2.8851 H   0  0  0  0  0  0  0  0  0  0  0  0
   -6.7706    5.7268   -0.3648 H   0  0  0  0  0  0  0  0  0  0  0  0
   -8.4151    5.0820    0.1859 H   0  0  0  0  0  0  0  0  0  0  0  0
   -6.4690   -2.8338    0.0769 H   0  0  0  0  0  0  0  0  0  0  0  0
   -6.4688   -1.9757    1.6088 H   0  0  0  0  0  0  0  0  0  0  0  0
   -3.8467   -4.4587    2.4186 H   0  0  0  0  0  0  0  0  0  0  0  0
   -4.9457   -6.7120    3.2603 H   0  0  0  0  0  0  0  0  0  0  0  0
   -8.4998   -3.6487    0.6719 H   0  0  0  0  0  0  0  0  0  0  0  0
  -10.3172   -5.3013    1.0430 H   0  0  0  0  0  0  0  0  0  0  0  0
   -9.8315   -7.3764    2.2718 H   0  0  0  0  0  0  0  0  0  0  0  0
   -7.4872   -7.7987    3.1049 H   0  0  0  0  0  0  0  0  0  0  0  0
   -4.3713   -6.7085   -2.9288 H   0  0  0  0  0  0  0  0  0  0  0  0
   -4.7042   -5.6044   -1.5960 H   0  0  0  0  0  0  0  0  0  0  0  0
    8.1360   -0.3832    0.9626 H   0  0  0  0  0  0  0  0  0  0  0  0
   10.5863    1.2023    1.2298 H   0  0  0  0  0  0  0  0  0  0  0  0
   10.1146   -0.3346    1.9630 H   0  0  0  0  0  0  0  0  0  0  0  0
   11.7072   -0.2659    1.1603 H   0  0  0  0  0  0  0  0  0  0  0  0
  1  2  1  0
  2  3  1  0
  3  4  1  0
  4  5  1  0
  5  6  1  0
  6  7  2  0
  6  8  1  0
  8  9  1  0
  9 10  1  0
 10 11  1  0
 11 12  2  0
 11 13  1  0
 13 14  1  0
 14 15  1  0
 15 16  1  0
 16 17  1  0
 17 18  1  0
 18 19  1  0
 19 20  1  0
 20 21  2  0
 20 22  1  0
 22 23  1  0
 23 24  1  0
 24 25  2  0
 24 26  1  0
 26 27  1  0
 27 28  1  0
 28 29  2  0
 28 30  1  0
 30 31  1  0
 31 32  1  0
 32 33  2  0
 32 34  1  0
 34 35  1  0
 35 36  1  0
 36 37  2  0
 34 38  1  0
 38 39  1  0
 39 40  2  0
 40 41  1  0
 41 42  2  0
 42 43  1  0
 30 44  1  0
 44 45  1  0
 45 46  2  0
 46 47  1  0
 47 48  2  0
 48 49  1  0
 49 50  2  0
 26 51  1  0
 51 52  1  0
 52 53  1  0
 53 54  1  0
 54 55  2  3
 55 56  1  0
 55 57  1  0
 22 58  1  0
 58 59  1  0
 59 60  2  0
 60 61  1  0
 61 62  1  0
 62 63  2  0
 63 64  1  0
 64 65  2  0
 65 66  1  0
 66 67  2  0
 18 68  1  0
 68 69  2  0
 68 70  1  0
  5 71  1  0
 71 72  1  0
 72 73  2  0
 72 74  1  0
 36  9  1  0
 43 39  1  0
 50 45  1  0
 63 59  1  0
 67 62  1  0
  1 75  1  0
  1 76  1  0
  1 77  1  0
  2 78  1  0
  2 79  1  0
  3 80  1  0
  3 81  1  0
  4 82  1  0
  4 83  1  0
  5 84  1  6
  8 85  1  0
  9 86  1  6
 10 87  1  0
 10 88  1  0
 13 89  1  0
 14 90  1  0
 14 91  1  0
 15 92  1  0
 15 93  1  0
 16 94  1  0
 16 95  1  0
 17 96  1  0
 17 97  1  0
 18 98  1  6
 19 99  1  0
 22100  1  1
 23101  1  0
 26102  1  1
 27103  1  0
 30104  1  6
 31105  1  0
 34106  1  1
 35107  1  0
 38108  1  0
 38109  1  0
 41110  1  0
 43111  1  0
 43112  1  0
 44113  1  0
 44114  1  0
 46115  1  0
 47116  1  0
 48117  1  0
 49118  1  0
 50119  1  0
 51120  1  0
 51121  1  0
 52122  1  0
 52123  1  0
 53124  1  0
 53125  1  0
 56126  1  0
 56127  1  0
 57128  1  0
 57129  1  0
 58130  1  0
 58131  1  0
 60132  1  0
 61133  1  0
 64134  1  0
 65135  1  0
 66136  1  0
 67137  1  0
 70138  1  0
 70139  1  0
 71140  1  0
 74141  1  0
 74142  1  0
 74143  1  0
M  END
>  <Ligand ID>  (1) 
LIG0001775

>  <Ligand>  (1) 
CHEMBL2372570

>  <SMILES>  (1) 
CCCC[C@@H](C(=O)N[C@H]1CC(=O)NCCCC[C@H](NC(=O)[C@@H](NC(=O)[C@@H](NC(=O)[C@H](NC(=O)[C@@H](NC1=O)CC1=NC=NC1)Cc1ccccc1)CCCN=C(N)N)Cc1c[nH]c2c1cccc2)C(=O)N)NC(=O)C

>  <CID>  (1) 
73354780.0

>  <ChEMBL ID>  (1) 
nan

>  <InChiKey>  (1) 
HSZNKTZWJAXWMX-MFVUMRCOSA-N

>  <InChi>  (1) 
InChI=1S/C50H69N15O9/c1-3-4-16-36(59-29(2)66)44(69)65-41-25-42(67)55-20-11-10-18-35(43(51)68)60-47(72)39(23-31-26-57-34-17-9-8-15-33(31)34)63-45(70)37(19-12-21-56-50(52)53)61-46(71)38(22-30-13-6-5-7-14-30)62-48(73)40(64-49(41)74)24-32-27-54-28-58-32/h5-9,13-15,17,26,28,35-41,57H,3-4,10-12,16,18-25,27H2,1-2H3,(H2,51,68)(H,55,67)(H,59,66)(H,60,72)(H,61,71)(H,62,73)(H,63,70)(H,64,74)(H,65,69)(H4,52,53,56)/t35-,36-,37-,38+,39-,40-,41-/m0/s1

>  <IUPAC Name>  (1) 
(3S,6S,9R,12S,15S,23S)-15-[[(2S)-2-acetamidohexanoyl]amino]-9-benzyl-6-[3-(diaminomethylideneamino)propyl]-12-(4H-imidazol-5-ylmethyl)-3-(1H-indol-3-ylmethyl)-2,5,8,11,14,17-hexaoxo-1,4,7,10,13,18-hexazacyclotricosane-23-carboxamide

$$$$
