
     RDKit          3D

 27 28  0  0  0  0  0  0  0  0999 V2000
    4.5359    0.4771    0.5271 C   0  0  0  0  0  0  0  0  0  0  0  0
    3.5094   -0.3818   -0.1783 C   0  0  0  0  0  0  0  0  0  0  0  0
    2.2179    0.0393    0.2166 O   0  0  0  0  0  0  0  0  0  0  0  0
    1.0733   -0.5658   -0.2687 C   0  0  0  0  0  0  0  0  0  0  0  0
    1.0130   -1.5952   -1.1460 N   0  0  0  0  0  0  0  0  0  0  0  0
   -0.2439   -1.8760   -1.3514 O   0  0  0  0  0  0  0  0  0  0  0  0
   -1.0360   -1.0950   -0.6628 C   0  0  0  0  0  0  0  0  0  0  0  0
   -0.2440   -0.2277    0.0561 C   0  0  0  0  0  0  0  0  0  0  0  0
   -0.6053    0.8566    0.9918 C   0  0  0  0  0  0  0  0  0  0  0  0
   -1.7884    1.5935    0.6079 N   0  0  0  0  0  0  0  0  0  0  0  0
   -2.9721    0.7493    0.6842 C   0  0  0  0  0  0  0  0  0  0  0  0
   -3.1619    0.1555   -0.6942 C   0  0  0  0  0  0  0  0  0  0  0  0
   -2.4958   -1.1981   -0.7109 C   0  0  0  0  0  0  0  0  0  0  0  0
    4.0607    1.4143    0.8095 H   0  0  0  0  0  0  0  0  0  0  0  0
    5.3198    0.7183   -0.2470 H   0  0  0  0  0  0  0  0  0  0  0  0
    4.9861   -0.1041    1.3641 H   0  0  0  0  0  0  0  0  0  0  0  0
    3.5879   -0.2823   -1.2899 H   0  0  0  0  0  0  0  0  0  0  0  0
    3.6609   -1.4504    0.1051 H   0  0  0  0  0  0  0  0  0  0  0  0
   -0.7358    0.5360    2.0392 H   0  0  0  0  0  0  0  0  0  0  0  0
    0.2275    1.6176    0.9779 H   0  0  0  0  0  0  0  0  0  0  0  0
   -1.7164    2.0729   -0.3001 H   0  0  0  0  0  0  0  0  0  0  0  0
   -2.7306   -0.0566    1.4315 H   0  0  0  0  0  0  0  0  0  0  0  0
   -3.8677    1.2895    1.0510 H   0  0  0  0  0  0  0  0  0  0  0  0
   -2.6771    0.7831   -1.4922 H   0  0  0  0  0  0  0  0  0  0  0  0
   -4.2057    0.0693   -0.9923 H   0  0  0  0  0  0  0  0  0  0  0  0
   -2.8960   -1.8003    0.1194 H   0  0  0  0  0  0  0  0  0  0  0  0
   -2.8156   -1.7391   -1.6478 H   0  0  0  0  0  0  0  0  0  0  0  0
  1  2  1  0
  2  3  1  0
  3  4  1  0
  4  5  2  0
  5  6  1  0
  6  7  1  0
  7  8  2  0
  8  9  1  0
  9 10  1  0
 10 11  1  0
 11 12  1  0
 12 13  1  0
  8  4  1  0
 13  7  1  0
  1 14  1  0
  1 15  1  0
  1 16  1  0
  2 17  1  0
  2 18  1  0
  9 19  1  0
  9 20  1  0
 10 21  1  0
 11 22  1  0
 11 23  1  0
 12 24  1  0
 12 25  1  0
 13 26  1  0
 13 27  1  0
M  END
>  <Ligand ID>  (1) 
LIG0000987

>  <Ligand>  (1) 
CHEMBL69305

>  <SMILES>  (1) 
CCOc1noc2c1CNCCC2

>  <CID>  (1) 
10442337.0

>  <ChEMBL ID>  (1) 
nan

>  <InChiKey>  (1) 
JGSYDDJSPMMTRM-UHFFFAOYSA-N

>  <InChi>  (1) 
InChI=1S/C9H14N2O2/c1-2-12-9-7-6-10-5-3-4-8(7)13-11-9/h10H,2-6H2,1H3

>  <IUPAC Name>  (1) 
3-ethoxy-5,6,7,8-tetrahydro-4H-[1,2]oxazolo[4,5-c]azepine

$$$$
