
     RDKit          3D

136138  0  0  0  0  0  0  0  0999 V2000
   10.7288    2.4723    3.1308 N   0  0  0  0  0  0  0  0  0  0  0  0
    9.6841    1.4741    3.0307 C   0  0  0  0  0  0  0  0  0  0  0  0
    8.8456    1.7087    1.7676 C   0  0  0  0  0  0  0  0  0  0  0  0
    7.7974    0.6508    1.7215 C   0  0  0  0  0  0  0  0  0  0  0  0
    6.8455    0.7507    0.5511 C   0  0  1  0  0  0  0  0  0  0  0  0
    7.6812    0.6565   -0.7043 C   0  0  0  0  0  0  0  0  0  0  0  0
    7.7701   -0.3913   -1.3736 O   0  0  0  0  0  0  0  0  0  0  0  0
    8.4109    1.7924   -1.1856 N   0  0  0  0  0  0  0  0  0  0  0  0
    9.1862    1.6308   -2.3824 C   0  0  0  0  0  0  0  0  0  0  0  0
    9.8557    2.9208   -2.7061 C   0  0  0  0  0  0  0  0  0  0  0  0
   10.5954    2.9703   -3.7455 O   0  0  0  0  0  0  0  0  0  0  0  0
    9.7117    4.0958   -1.9166 N   0  0  0  0  0  0  0  0  0  0  0  0
    5.9934   -0.4262    0.6424 N   0  0  0  0  0  0  0  0  0  0  0  0
    4.5653   -0.1483    0.5082 C   0  0  0  0  0  0  0  0  0  0  0  0
    4.3374    1.0908    0.3503 O   0  0  0  0  0  0  0  0  0  0  0  0
    3.6147   -1.2111    0.5546 C   0  0  2  0  0  0  0  0  0  0  0  0
    4.1256   -2.6000    0.2202 C   0  0  0  0  0  0  0  0  0  0  0  0
    2.8263   -3.3885    0.4652 C   0  0  0  0  0  0  0  0  0  0  0  0
    1.6932   -2.4134    0.1513 C   0  0  0  0  0  0  0  0  0  0  0  0
    2.4151   -1.1937   -0.2421 N   0  0  0  0  0  0  0  0  0  0  0  0
    1.9819   -0.2664   -1.1960 C   0  0  0  0  0  0  0  0  0  0  0  0
    2.8276    0.7221   -1.4041 O   0  0  0  0  0  0  0  0  0  0  0  0
    0.8057   -0.1329   -2.0273 C   0  0  2  0  0  0  0  0  0  0  0  0
   -0.0102    1.1240   -1.8432 C   0  0  0  0  0  0  0  0  0  0  0  0
    0.7230    2.7001   -1.7567 S   0  0  0  0  0  0  0  0  0  0  0  0
    1.7313    3.0649    0.1013 S   0  0  0  0  0  0  0  0  0  0  0  0
    0.5183    3.6862    1.3083 C   0  0  0  0  0  0  0  0  0  0  0  0
   -0.0618    5.0268    0.9346 C   0  0  2  0  0  0  0  0  0  0  0  0
    0.7137    6.0754    1.4659 N   0  0  0  0  0  0  0  0  0  0  0  0
   -1.4898    5.0104    1.3094 C   0  0  0  0  0  0  0  0  0  0  0  0
   -2.0897    5.7225    2.0923 O   0  0  0  0  0  0  0  0  0  0  0  0
   -2.2656    4.0017    0.6412 N   0  0  0  0  0  0  0  0  0  0  0  0
   -3.6484    3.7308    0.7084 C   0  0  1  0  0  0  0  0  0  0  0  0
   -4.4159    3.9489   -0.5383 C   0  0  0  0  0  0  0  0  0  0  0  0
   -4.0350    3.1861   -1.7236 C   0  0  0  0  0  0  0  0  0  0  0  0
   -3.0664    3.7281   -2.5517 C   0  0  0  0  0  0  0  0  0  0  0  0
   -2.6286    3.1051   -3.6971 C   0  0  0  0  0  0  0  0  0  0  0  0
   -3.1515    1.8952   -4.0630 C   0  0  0  0  0  0  0  0  0  0  0  0
   -4.1163    1.3411   -3.2508 C   0  0  0  0  0  0  0  0  0  0  0  0
   -4.5525    1.9702   -2.1041 C   0  0  0  0  0  0  0  0  0  0  0  0
   -3.9433    2.4482    1.3951 C   0  0  0  0  0  0  0  0  0  0  0  0
   -3.0646    1.9686    2.1296 O   0  0  0  0  0  0  0  0  0  0  0  0
   -5.1370    1.7194    1.2772 N   0  0  0  0  0  0  0  0  0  0  0  0
   -5.4801    0.4710    1.9536 C   0  0  2  0  0  0  0  0  0  0  0  0
   -4.6650   -0.6429    1.4396 C   0  0  0  0  0  0  0  0  0  0  0  0
   -3.4898   -0.2926    1.0331 O   0  0  0  0  0  0  0  0  0  0  0  0
   -4.9034   -2.0052    1.2801 N   0  0  0  0  0  0  0  0  0  0  0  0
   -3.7175   -2.8690    0.9409 C   0  0  2  0  0  0  0  0  0  0  0  0
   -3.4619   -2.8461   -0.5236 C   0  0  0  0  0  0  0  0  0  0  0  0
   -4.4086   -2.7307   -1.2847 O   0  0  0  0  0  0  0  0  0  0  0  0
   -2.1654   -2.9325   -1.0711 N   0  0  0  0  0  0  0  0  0  0  0  0
   -1.7673   -3.0128   -2.4583 C   0  0  2  0  0  0  0  0  0  0  0  0
   -0.6657   -2.0862   -2.7607 C   0  0  0  0  0  0  0  0  0  0  0  0
   -0.0411   -1.9614   -3.8231 O   0  0  0  0  0  0  0  0  0  0  0  0
   -0.1828   -1.1614   -1.7463 N   0  0  0  0  0  0  0  0  0  0  0  0
   -2.9574   -2.5591   -3.3524 C   0  0  0  0  0  0  0  0  0  0  0  0
   -2.5681   -2.6756   -4.7654 C   0  0  0  0  0  0  0  0  0  0  0  0
   -1.5517   -3.2020   -5.2421 O   0  0  0  0  0  0  0  0  0  0  0  0
   -3.4929   -2.1009   -5.7245 N   0  0  0  0  0  0  0  0  0  0  0  0
   -4.0710   -4.2148    1.4889 C   0  0  0  0  0  0  0  0  0  0  0  0
   -3.0863   -5.2772    1.2858 C   0  0  0  0  0  0  0  0  0  0  0  0
   -1.9506   -5.2029    0.7943 O   0  0  0  0  0  0  0  0  0  0  0  0
   -3.4943   -6.5987    1.7149 N   0  0  0  0  0  0  0  0  0  0  0  0
   -2.6161   -7.7371    1.5602 C   0  0  0  0  0  0  0  0  0  0  0  0
   -2.3085   -7.9333    0.0817 C   0  0  0  0  0  0  0  0  0  0  0  0
   -6.9129    0.2197    2.0541 C   0  0  2  0  0  0  0  0  0  0  0  0
   -7.6474    1.3626    2.7692 C   0  0  0  0  0  0  0  0  0  0  0  0
   -7.1407    1.5923    4.1675 C   0  0  0  0  0  0  0  0  0  0  0  0
   -7.2399   -1.0022    2.9251 C   0  0  0  0  0  0  0  0  0  0  0  0
   11.3788    2.4988    2.3418 H   0  0  0  0  0  0  0  0  0  0  0  0
   11.1025    2.6288    4.0710 H   0  0  0  0  0  0  0  0  0  0  0  0
   10.1588    0.4744    3.0305 H   0  0  0  0  0  0  0  0  0  0  0  0
    9.0582    1.5492    3.9366 H   0  0  0  0  0  0  0  0  0  0  0  0
    9.5807    1.6155    0.9265 H   0  0  0  0  0  0  0  0  0  0  0  0
    8.4310    2.7181    1.8328 H   0  0  0  0  0  0  0  0  0  0  0  0
    8.3095   -0.3292    1.7266 H   0  0  0  0  0  0  0  0  0  0  0  0
    7.2428    0.6884    2.6904 H   0  0  0  0  0  0  0  0  0  0  0  0
    6.3437    1.6989    0.4889 H   0  0  0  0  0  0  0  0  0  0  0  0
    8.3758    2.7261   -0.6980 H   0  0  0  0  0  0  0  0  0  0  0  0
    8.5924    1.3046   -3.2513 H   0  0  0  0  0  0  0  0  0  0  0  0
   10.0111    0.9061   -2.1995 H   0  0  0  0  0  0  0  0  0  0  0  0
   10.1616    4.2408   -0.9931 H   0  0  0  0  0  0  0  0  0  0  0  0
    9.0929    4.8404   -2.3445 H   0  0  0  0  0  0  0  0  0  0  0  0
    6.3434   -1.3887    0.7903 H   0  0  0  0  0  0  0  0  0  0  0  0
    3.2579   -1.2915    1.6421 H   0  0  0  0  0  0  0  0  0  0  0  0
    4.3782   -2.7370   -0.8326 H   0  0  0  0  0  0  0  0  0  0  0  0
    4.8855   -2.9008    0.9471 H   0  0  0  0  0  0  0  0  0  0  0  0
    2.7346   -4.2329   -0.2199 H   0  0  0  0  0  0  0  0  0  0  0  0
    2.7862   -3.7463    1.5120 H   0  0  0  0  0  0  0  0  0  0  0  0
    1.0770   -2.8245   -0.6736 H   0  0  0  0  0  0  0  0  0  0  0  0
    1.1152   -2.2348    1.0576 H   0  0  0  0  0  0  0  0  0  0  0  0
    1.1421   -0.1932   -3.0932 H   0  0  0  0  0  0  0  0  0  0  0  0
   -0.7441    1.1052   -2.7092 H   0  0  0  0  0  0  0  0  0  0  0  0
   -0.7131    1.0013   -0.9576 H   0  0  0  0  0  0  0  0  0  0  0  0
    1.0873    3.7809    2.2644 H   0  0  0  0  0  0  0  0  0  0  0  0
   -0.2950    2.9475    1.3764 H   0  0  0  0  0  0  0  0  0  0  0  0
   -0.0219    5.0896   -0.2371 H   0  0  0  0  0  0  0  0  0  0  0  0
    1.3723    6.5296    0.7997 H   0  0  0  0  0  0  0  0  0  0  0  0
    0.0851    6.8358    1.7999 H   0  0  0  0  0  0  0  0  0  0  0  0
   -1.6942    3.3959    0.0137 H   0  0  0  0  0  0  0  0  0  0  0  0
   -4.0608    4.5115    1.4193 H   0  0  0  0  0  0  0  0  0  0  0  0
   -5.4735    3.7435   -0.3262 H   0  0  0  0  0  0  0  0  0  0  0  0
   -4.4240    5.0614   -0.7444 H   0  0  0  0  0  0  0  0  0  0  0  0
   -2.6200    4.6769   -2.3095 H   0  0  0  0  0  0  0  0  0  0  0  0
   -1.8767    3.5298   -4.3330 H   0  0  0  0  0  0  0  0  0  0  0  0
   -2.8172    1.3780   -4.9669 H   0  0  0  0  0  0  0  0  0  0  0  0
   -4.5402    0.3888   -3.5270 H   0  0  0  0  0  0  0  0  0  0  0  0
   -5.3102    1.4679   -1.5257 H   0  0  0  0  0  0  0  0  0  0  0  0
   -5.8515    2.1038    0.6552 H   0  0  0  0  0  0  0  0  0  0  0  0
   -5.0675    0.6756    3.0158 H   0  0  0  0  0  0  0  0  0  0  0  0
   -5.8106   -2.3978    1.3505 H   0  0  0  0  0  0  0  0  0  0  0  0
   -2.8680   -2.4314    1.4391 H   0  0  0  0  0  0  0  0  0  0  0  0
   -1.4023   -2.9367   -0.3727 H   0  0  0  0  0  0  0  0  0  0  0  0
   -1.6408   -4.0375   -2.7731 H   0  0  0  0  0  0  0  0  0  0  0  0
   -0.5870   -1.2554   -0.8347 H   0  0  0  0  0  0  0  0  0  0  0  0
   -3.3702   -1.6166   -3.0308 H   0  0  0  0  0  0  0  0  0  0  0  0
   -3.7216   -3.3824   -3.2135 H   0  0  0  0  0  0  0  0  0  0  0  0
   -3.5628   -2.5705   -6.6611 H   0  0  0  0  0  0  0  0  0  0  0  0
   -4.0597   -1.2473   -5.4685 H   0  0  0  0  0  0  0  0  0  0  0  0
   -5.0384   -4.5533    1.0406 H   0  0  0  0  0  0  0  0  0  0  0  0
   -4.3108   -4.1170    2.6039 H   0  0  0  0  0  0  0  0  0  0  0  0
   -4.4252   -6.7526    2.1437 H   0  0  0  0  0  0  0  0  0  0  0  0
   -1.6794   -7.5731    2.1458 H   0  0  0  0  0  0  0  0  0  0  0  0
   -3.0657   -8.6551    1.9809 H   0  0  0  0  0  0  0  0  0  0  0  0
   -2.8916   -8.7890   -0.3340 H   0  0  0  0  0  0  0  0  0  0  0  0
   -2.4663   -7.0208   -0.5233 H   0  0  0  0  0  0  0  0  0  0  0  0
   -1.2437   -8.2141   -0.0062 H   0  0  0  0  0  0  0  0  0  0  0  0
   -7.4087    0.0577    1.0948 H   0  0  0  0  0  0  0  0  0  0  0  0
   -7.6702    2.2738    2.1577 H   0  0  0  0  0  0  0  0  0  0  0  0
   -8.7035    1.0134    2.8607 H   0  0  0  0  0  0  0  0  0  0  0  0
   -6.3430    2.3937    4.1501 H   0  0  0  0  0  0  0  0  0  0  0  0
   -7.9276    2.0086    4.8334 H   0  0  0  0  0  0  0  0  0  0  0  0
   -6.7665    0.6882    4.6789 H   0  0  0  0  0  0  0  0  0  0  0  0
   -7.8581   -0.7283    3.8155 H   0  0  0  0  0  0  0  0  0  0  0  0
   -7.7768   -1.7853    2.3839 H   0  0  0  0  0  0  0  0  0  0  0  0
   -6.3186   -1.4243    3.3598 H   0  0  0  0  0  0  0  0  0  0  0  0
  1  2  1  0
  2  3  1  0
  3  4  1  0
  4  5  1  0
  5  6  1  0
  6  7  2  0
  6  8  1  0
  8  9  1  0
  9 10  1  0
 10 11  2  0
 10 12  1  0
  5 13  1  0
 13 14  1  0
 14 15  2  0
 14 16  1  0
 16 17  1  0
 17 18  1  0
 18 19  1  0
 19 20  1  0
 20 21  1  0
 21 22  2  0
 21 23  1  0
 23 24  1  0
 24 25  1  0
 25 26  1  0
 26 27  1  0
 27 28  1  0
 28 29  1  0
 28 30  1  0
 30 31  2  0
 30 32  1  0
 32 33  1  0
 33 34  1  0
 34 35  1  0
 35 36  2  0
 36 37  1  0
 37 38  2  0
 38 39  1  0
 39 40  2  0
 33 41  1  0
 41 42  2  0
 41 43  1  0
 43 44  1  0
 44 45  1  0
 45 46  2  0
 45 47  1  0
 47 48  1  0
 48 49  1  0
 49 50  2  0
 49 51  1  0
 51 52  1  0
 52 53  1  0
 53 54  2  0
 53 55  1  0
 52 56  1  0
 56 57  1  0
 57 58  2  0
 57 59  1  0
 48 60  1  0
 60 61  1  0
 61 62  2  0
 61 63  1  0
 63 64  1  0
 64 65  1  0
 44 66  1  0
 66 67  1  0
 67 68  1  0
 66 69  1  0
 20 16  1  0
 55 23  1  0
 40 35  1  0
  1 70  1  0
  1 71  1  0
  2 72  1  0
  2 73  1  0
  3 74  1  0
  3 75  1  0
  4 76  1  0
  4 77  1  0
  5 78  1  6
  8 79  1  0
  9 80  1  0
  9 81  1  0
 12 82  1  0
 12 83  1  0
 13 84  1  0
 16 85  1  1
 17 86  1  0
 17 87  1  0
 18 88  1  0
 18 89  1  0
 19 90  1  0
 19 91  1  0
 23 92  1  6
 24 93  1  0
 24 94  1  0
 27 95  1  0
 27 96  1  0
 28 97  1  6
 29 98  1  0
 29 99  1  0
 32100  1  0
 33101  1  1
 34102  1  0
 34103  1  0
 36104  1  0
 37105  1  0
 38106  1  0
 39107  1  0
 40108  1  0
 43109  1  0
 44110  1  1
 47111  1  0
 48112  1  1
 51113  1  0
 52114  1  6
 55115  1  0
 56116  1  0
 56117  1  0
 59118  1  0
 59119  1  0
 60120  1  0
 60121  1  0
 63122  1  0
 64123  1  0
 64124  1  0
 65125  1  0
 65126  1  0
 65127  1  0
 66128  1  6
 67129  1  0
 67130  1  0
 68131  1  0
 68132  1  0
 68133  1  0
 69134  1  0
 69135  1  0
 69136  1  0
M  END
>  <Ligand ID>  (1) 
LIG0001589

>  <Ligand>  (1) 
CHEMBL1817694

>  <SMILES>  (1) 
NCCC[C@@H](C(=O)NCC(=O)N)NC(=O)[C@@H]1CCCN1C(=O)[C@@H]1CSSC[C@H](N)C(=O)N[C@@H](Cc2ccccc2)C(=O)N[C@H](C(=O)N[C@H](C(=O)N[C@H](C(=O)N1)CC(=O)N)CC(=O)NCC)[C@H](CC)C

>  <CID>  (1) 
53362257.0

>  <ChEMBL ID>  (1) 
nan

>  <InChiKey>  (1) 
WAWMDLAGJPZNAS-GHDRINTISA-N

>  <InChi>  (1) 
InChI=1S/C43H67N13O11S2/c1-4-23(3)35-42(66)53-29(19-34(59)48-5-2)39(63)52-28(18-32(46)57)38(62)54-30(22-69-68-21-25(45)36(60)51-27(40(64)55-35)17-24-11-7-6-8-12-24)43(67)56-16-10-14-31(56)41(65)50-26(13-9-15-44)37(61)49-20-33(47)58/h6-8,11-12,23,25-31,35H,4-5,9-10,13-22,44-45H2,1-3H3,(H2,46,57)(H2,47,58)(H,48,59)(H,49,61)(H,50,65)(H,51,60)(H,52,63)(H,53,66)(H,54,62)(H,55,64)/t23-,25-,26-,27-,28-,29-,30-,31-,35-/m0/s1

>  <IUPAC Name>  (1) 
(2S)-N-[(2S)-5-amino-1-[(2-amino-2-oxoethyl)amino]-1-oxopentan-2-yl]-1-[(4R,7S,10S,13S,16S,19R)-19-amino-7-(2-amino-2-oxoethyl)-16-benzyl-13-[(2S)-butan-2-yl]-10-[2-(ethylamino)-2-oxoethyl]-6,9,12,15,18-pentaoxo-1,2-dithia-5,8,11,14,17-pentazacycloicosane-4-carbonyl]pyrrolidine-2-carboxamide

$$$$
