
     RDKit          3D

 40 42  0  0  0  0  0  0  0  0999 V2000
    2.7426    3.2758    0.4357 O   0  0  0  0  0  0  0  0  0  0  0  0
    1.7038    2.3853    0.1966 C   0  0  0  0  0  0  0  0  0  0  0  0
    0.4263    2.7680    0.5277 C   0  0  0  0  0  0  0  0  0  0  0  0
   -0.6081    1.8684    0.2838 C   0  0  0  0  0  0  0  0  0  0  0  0
   -0.4265    0.6442   -0.2589 C   0  0  0  0  0  0  0  0  0  0  0  0
    0.8978    0.2904   -0.5837 C   0  0  0  0  0  0  0  0  0  0  0  0
    1.9529    1.1260   -0.3692 C   0  0  0  0  0  0  0  0  0  0  0  0
    3.2984    0.8610   -0.6964 N   0  0  0  0  0  0  0  0  0  0  0  0
    4.4896    0.2089    0.3205 S   0  0  0  0  0  0  0  0  0  0  0  0
    4.6749    1.1018    1.5394 O   0  0  0  0  0  0  0  0  0  0  0  0
    5.8243    0.0698   -0.3902 O   0  0  0  0  0  0  0  0  0  0  0  0
    4.0693   -1.4156    0.8766 C   0  0  0  0  0  0  0  0  0  0  0  0
    1.0854   -1.0444   -1.1988 C   0  0  0  0  0  0  0  0  0  0  0  0
    0.3986   -2.0562   -0.3006 C   0  0  0  0  0  0  0  0  0  0  0  0
   -1.0036   -1.6767    0.0758 C   0  0  0  0  0  0  0  0  0  0  0  0
   -1.4334   -0.3729   -0.5684 C   0  0  1  0  0  0  0  0  0  0  0  0
   -2.8312   -0.0472   -0.3250 C   0  0  0  0  0  0  0  0  0  0  0  0
   -3.4297    1.0154    0.0855 N   0  0  0  0  0  0  0  0  0  0  0  0
   -4.8444    0.8952    0.1831 C   0  0  0  0  0  0  0  0  0  0  0  0
   -5.0431   -0.6298    0.2187 C   0  0  0  0  0  0  0  0  0  0  0  0
   -3.8814   -1.0220   -0.5565 N   0  0  0  0  0  0  0  0  0  0  0  0
    3.0403    3.3691    1.4179 H   0  0  0  0  0  0  0  0  0  0  0  0
    0.2542    3.7256    0.9559 H   0  0  0  0  0  0  0  0  0  0  0  0
   -1.5843    2.2050    0.5584 H   0  0  0  0  0  0  0  0  0  0  0  0
    3.5845    1.1012   -1.6940 H   0  0  0  0  0  0  0  0  0  0  0  0
    3.9722   -2.0775   -0.0063 H   0  0  0  0  0  0  0  0  0  0  0  0
    3.1170   -1.4233    1.4185 H   0  0  0  0  0  0  0  0  0  0  0  0
    4.9144   -1.7968    1.5030 H   0  0  0  0  0  0  0  0  0  0  0  0
    2.1377   -1.3256   -1.2805 H   0  0  0  0  0  0  0  0  0  0  0  0
    0.5852   -1.0765   -2.2026 H   0  0  0  0  0  0  0  0  0  0  0  0
    0.4110   -3.0535   -0.7993 H   0  0  0  0  0  0  0  0  0  0  0  0
    0.9988   -2.0889    0.6487 H   0  0  0  0  0  0  0  0  0  0  0  0
   -1.1003   -1.5852    1.1658 H   0  0  0  0  0  0  0  0  0  0  0  0
   -1.6814   -2.5065   -0.2566 H   0  0  0  0  0  0  0  0  0  0  0  0
   -1.3167   -0.5726   -1.6828 H   0  0  0  0  0  0  0  0  0  0  0  0
   -5.3604    1.2280   -0.7645 H   0  0  0  0  0  0  0  0  0  0  0  0
   -5.3008    1.3767    1.0673 H   0  0  0  0  0  0  0  0  0  0  0  0
   -5.9846   -0.9168   -0.2463 H   0  0  0  0  0  0  0  0  0  0  0  0
   -4.9251   -0.9732    1.2792 H   0  0  0  0  0  0  0  0  0  0  0  0
   -3.8245   -1.8545   -1.1648 H   0  0  0  0  0  0  0  0  0  0  0  0
  1  2  1  0
  2  3  2  0
  3  4  1  0
  4  5  2  0
  5  6  1  0
  6  7  2  0
  7  8  1  0
  8  9  1  0
  9 10  2  0
  9 11  2  0
  9 12  1  0
  6 13  1  0
 13 14  1  0
 14 15  1  0
 15 16  1  0
 16 17  1  0
 17 18  2  0
 18 19  1  0
 19 20  1  0
 20 21  1  0
  7  2  1  0
 21 17  1  0
 16  5  1  0
  1 22  1  0
  3 23  1  0
  4 24  1  0
  8 25  1  0
 12 26  1  0
 12 27  1  0
 12 28  1  0
 13 29  1  0
 13 30  1  0
 14 31  1  0
 14 32  1  0
 15 33  1  0
 15 34  1  0
 16 35  1  6
 19 36  1  0
 19 37  1  0
 20 38  1  0
 20 39  1  0
 21 40  1  0
M  END
>  <Ligand ID>  (1) 
LIG0002027

>  <Ligand>  (1) 
Tocris-1052

>  <SMILES>  (1) 
Oc1ccc2c(c1NS(=O)(=O)C)CCC[C@H]2C1=NCCN1

>  <CID>  (1) 
6604803.0

>  <ChEMBL ID>  (1) 
nan

>  <InChiKey>  (1) 
OQFCXJDXHCDLHX-LLVKDONJSA-N

>  <InChi>  (1) 
InChI=1S/C14H19N3O3S/c1-21(19,20)17-13-10-3-2-4-11(14-15-7-8-16-14)9(10)5-6-12(13)18/h5-6,11,17-18H,2-4,7-8H2,1H3,(H,15,16)/t11-/m1/s1

>  <IUPAC Name>  (1) 
N-[(5R)-5-(4,5-dihydro-1H-imidazol-2-yl)-2-hydroxy-5,6,7,8-tetrahydronaphthalen-1-yl]methanesulfonamide

$$$$
