
     RDKit          3D

 82 83  0  0  0  0  0  0  0  0999 V2000
   -0.9898   -0.0910    0.1216 C   0  0  0  0  0  0  0  0  0  0  0  0
    0.4237    0.3287   -0.1339 C   0  0  0  0  0  0  0  0  0  0  0  0
    0.7554    1.5345   -0.2715 O   0  0  0  0  0  0  0  0  0  0  0  0
    1.3952   -0.6595   -0.2199 O   0  0  0  0  0  0  0  0  0  0  0  0
   -7.5042    1.7656    0.3283 O   0  0  0  0  0  0  0  0  0  0  0  0
   -7.6114    0.4047    0.6419 C   0  0  0  0  0  0  0  0  0  0  0  0
   -6.8279   -0.4392   -0.3217 C   0  0  0  0  0  0  0  0  0  0  0  0
   -5.6187   -0.9407    0.0947 C   0  0  0  0  0  0  0  0  0  0  0  0
   -4.8100   -1.7306   -0.7268 C   0  0  0  0  0  0  0  0  0  0  0  0
   -5.2876   -1.9863   -1.9864 C   0  0  0  0  0  0  0  0  0  0  0  0
   -6.5041   -1.4803   -2.4012 C   0  0  0  0  0  0  0  0  0  0  0  0
   -7.2928   -0.7028   -1.5846 C   0  0  0  0  0  0  0  0  0  0  0  0
   -8.5123   -0.1749   -1.9518 O   0  0  0  0  0  0  0  0  0  0  0  0
   -3.5395   -2.2163   -0.1770 C   0  0  2  0  0  0  0  0  0  0  0  0
   -2.3823   -1.2435   -0.3983 C   0  0  0  0  0  0  0  0  0  0  0  0
   -2.0226   -1.1096   -1.7493 N   0  0  0  0  0  0  0  0  0  0  0  0
   -1.0336   -0.2402   -2.1980 C   0  0  0  0  0  0  0  0  0  0  0  0
   -1.3521    1.1935   -2.2206 C   0  0  0  0  0  0  0  0  0  0  0  0
   -1.6902    1.8768   -0.9487 C   0  0  0  0  0  0  0  0  0  0  0  0
   -0.5449    1.7725    0.0715 C   0  0  0  0  0  0  0  0  0  0  0  0
   -0.9059    2.4468    1.3424 C   0  0  0  0  0  0  0  0  0  0  0  0
    0.1661    2.4469    2.3705 C   0  0  0  0  0  0  0  0  0  0  0  0
    0.6731    1.3489    2.9057 O   0  0  0  0  0  0  0  0  0  0  0  0
    1.3371    0.3708    2.3012 C   0  0  0  0  0  0  0  0  0  0  0  0
    2.5757    0.8352    1.5352 C   0  0  0  0  0  0  0  0  0  0  0  0
    3.4683    1.4930    2.5576 C   0  0  0  0  0  0  0  0  0  0  0  0
    4.7313    2.0044    1.9036 C   0  0  0  0  0  0  0  0  0  0  0  0
    5.4329    0.8421    1.3012 C   0  0  0  0  0  0  0  0  0  0  0  0
    6.3702    0.1231    2.0124 C   0  0  0  0  0  0  0  0  0  0  0  0
    7.0265   -0.9574    1.4624 C   0  0  0  0  0  0  0  0  0  0  0  0
    6.7390   -1.3438    0.1431 C   0  0  0  0  0  0  0  0  0  0  0  0
    5.8077   -0.6022   -0.5130 C   0  0  0  0  0  0  0  0  0  0  0  0
    5.1375    0.4816    0.0118 C   0  0  0  0  0  0  0  0  0  0  0  0
    5.6530   -1.3360   -2.1222 S   0  0  0  0  0  0  0  0  0  0  0  0
    6.6015   -0.7466   -3.0937 O   0  0  0  0  0  0  0  0  0  0  0  0
    4.2465   -1.4066   -2.5717 O   0  0  0  0  0  0  0  0  0  0  0  0
    6.2963   -2.9496   -1.6234 C   0  0  0  0  0  0  0  0  0  0  0  0
    7.3119   -2.4344   -0.6275 C   0  0  0  0  0  0  0  0  0  0  0  0
   -3.2856   -3.4935   -0.6115 O   0  0  0  0  0  0  0  0  0  0  0  0
   -1.2806   -0.7607   -0.6967 H   0  0  0  0  0  0  0  0  0  0  0  0
   -1.0150   -0.6761    1.0559 H   0  0  0  0  0  0  0  0  0  0  0  0
   -1.6571    0.7935    0.1396 H   0  0  0  0  0  0  0  0  0  0  0  0
    2.3681   -0.4695    0.0049 H   0  0  0  0  0  0  0  0  0  0  0  0
   -8.2493    1.9906   -0.2918 H   0  0  0  0  0  0  0  0  0  0  0  0
   -8.6654    0.0786    0.5601 H   0  0  0  0  0  0  0  0  0  0  0  0
   -7.2754    0.1738    1.6623 H   0  0  0  0  0  0  0  0  0  0  0  0
   -5.2775   -0.7157    1.0991 H   0  0  0  0  0  0  0  0  0  0  0  0
   -4.7345   -2.5853   -2.6631 H   0  0  0  0  0  0  0  0  0  0  0  0
   -6.8907   -1.6755   -3.3955 H   0  0  0  0  0  0  0  0  0  0  0  0
   -9.3796   -0.4608   -1.5428 H   0  0  0  0  0  0  0  0  0  0  0  0
   -3.6248   -2.2724    0.9572 H   0  0  0  0  0  0  0  0  0  0  0  0
   -2.5162   -0.3335    0.1814 H   0  0  0  0  0  0  0  0  0  0  0  0
   -1.4825   -1.7425    0.1168 H   0  0  0  0  0  0  0  0  0  0  0  0
   -2.8014   -1.2738   -2.4293 H   0  0  0  0  0  0  0  0  0  0  0  0
   -0.5476   -0.5848   -3.1649 H   0  0  0  0  0  0  0  0  0  0  0  0
   -0.1411   -0.3443   -1.4784 H   0  0  0  0  0  0  0  0  0  0  0  0
   -2.1054    1.4503   -3.0346 H   0  0  0  0  0  0  0  0  0  0  0  0
   -0.4264    1.7340   -2.6141 H   0  0  0  0  0  0  0  0  0  0  0  0
   -2.6800    1.7098   -0.5349 H   0  0  0  0  0  0  0  0  0  0  0  0
   -1.6701    3.0000   -1.2222 H   0  0  0  0  0  0  0  0  0  0  0  0
   -0.3637    0.7030    0.2398 H   0  0  0  0  0  0  0  0  0  0  0  0
    0.3447    2.3150   -0.3472 H   0  0  0  0  0  0  0  0  0  0  0  0
   -1.8337    1.9008    1.7266 H   0  0  0  0  0  0  0  0  0  0  0  0
   -1.1966    3.5209    1.1848 H   0  0  0  0  0  0  0  0  0  0  0  0
    0.9745    3.1396    1.9433 H   0  0  0  0  0  0  0  0  0  0  0  0
   -0.2476    3.1484    3.1983 H   0  0  0  0  0  0  0  0  0  0  0  0
    0.8425   -0.3915    1.7151 H   0  0  0  0  0  0  0  0  0  0  0  0
    1.8173   -0.2454    3.1659 H   0  0  0  0  0  0  0  0  0  0  0  0
    3.0319   -0.0959    1.1436 H   0  0  0  0  0  0  0  0  0  0  0  0
    2.3333    1.4769    0.6796 H   0  0  0  0  0  0  0  0  0  0  0  0
    3.6825    0.7101    3.3192 H   0  0  0  0  0  0  0  0  0  0  0  0
    2.9418    2.2958    3.1162 H   0  0  0  0  0  0  0  0  0  0  0  0
    5.4056    2.4924    2.6193 H   0  0  0  0  0  0  0  0  0  0  0  0
    4.4207    2.7414    1.1253 H   0  0  0  0  0  0  0  0  0  0  0  0
    6.5798    0.4415    3.0418 H   0  0  0  0  0  0  0  0  0  0  0  0
    7.7569   -1.5046    2.0404 H   0  0  0  0  0  0  0  0  0  0  0  0
    4.4004    1.0237   -0.5899 H   0  0  0  0  0  0  0  0  0  0  0  0
    6.7856   -3.4475   -2.4632 H   0  0  0  0  0  0  0  0  0  0  0  0
    5.5227   -3.5383   -1.0983 H   0  0  0  0  0  0  0  0  0  0  0  0
    7.5858   -3.2764    0.0504 H   0  0  0  0  0  0  0  0  0  0  0  0
    8.1973   -2.1251   -1.2450 H   0  0  0  0  0  0  0  0  0  0  0  0
   -3.3626   -4.1973    0.0726 H   0  0  0  0  0  0  0  0  0  0  0  0
  1  2  1  0
  2  3  2  0
  2  4  1  0
  5  6  1  0
  6  7  1  0
  7  8  2  0
  8  9  1  0
  9 10  2  0
 10 11  1  0
 11 12  2  0
 12 13  1  0
  9 14  1  0
 14 15  1  0
 15 16  1  0
 16 17  1  0
 17 18  1  0
 18 19  1  0
 19 20  1  0
 20 21  1  0
 21 22  1  0
 22 23  1  0
 23 24  1  0
 24 25  1  0
 25 26  1  0
 26 27  1  0
 27 28  1  0
 28 29  2  0
 29 30  1  0
 30 31  2  0
 31 32  1  0
 32 33  2  0
 32 34  1  0
 34 35  2  0
 34 36  2  0
 34 37  1  0
 37 38  1  0
 14 39  1  0
 12  7  1  0
 33 28  1  0
 38 31  1  0
  1 40  1  0
  1 41  1  0
  1 42  1  0
  4 43  1  0
  5 44  1  0
  6 45  1  0
  6 46  1  0
  8 47  1  0
 10 48  1  0
 11 49  1  0
 13 50  1  0
 14 51  1  1
 15 52  1  0
 15 53  1  0
 16 54  1  0
 17 55  1  0
 17 56  1  0
 18 57  1  0
 18 58  1  0
 19 59  1  0
 19 60  1  0
 20 61  1  0
 20 62  1  0
 21 63  1  0
 21 64  1  0
 22 65  1  0
 22 66  1  0
 24 67  1  0
 24 68  1  0
 25 69  1  0
 25 70  1  0
 26 71  1  0
 26 72  1  0
 27 73  1  0
 27 74  1  0
 29 75  1  0
 30 76  1  0
 33 77  1  0
 37 78  1  0
 37 79  1  0
 38 80  1  0
 38 81  1  0
 39 82  1  0
M  END
>  <Ligand ID>  (1) 
LIG0003359

>  <Ligand>  (1) 
SCHEMBL5441868

>  <SMILES>  (1) 
CC(=O)O.OCc1cc(ccc1O)[C@H](CNCCCCCCOCCCCc1ccc2c(c1)S(=O)(=O)CC2)O

>  <CID>  (1) 
69442961.0

>  <ChEMBL ID>  (1) 
nan

>  <InChiKey>  (1) 
ZWYFOZRMWRZXRX-SNYZSRNZSA-N

>  <InChi>  (1) 
InChI=1S/C27H39NO6S.C2H4O2/c29-20-24-18-23(10-11-25(24)30)26(31)19-28-13-4-1-2-5-14-34-15-6-3-7-21-8-9-22-12-16-35(32,33)27(22)17-21;1-2(3)4/h8-11,17-18,26,28-31H,1-7,12-16,19-20H2;1H3,(H,3,4)/t26-;/m0./s1

>  <IUPAC Name>  (1) 
acetic acid;4-[(1R)-2-[6-[4-(1,1-dioxo-2,3-dihydro-1-benzothiophen-6-yl)butoxy]hexylamino]-1-hydroxyethyl]-2-(hydroxymethyl)phenol

$$$$
