
     RDKit          3D

 72 79  0  0  0  0  0  0  0  0999 V2000
    3.7719   -2.1702   -0.3193 C   0  0  0  0  0  0  0  0  0  0  0  0
    4.0521   -0.9638   -1.0288 O   0  0  0  0  0  0  0  0  0  0  0  0
    4.8865   -0.0321   -0.4328 C   0  0  0  0  0  0  0  0  0  0  0  0
    4.4071    0.9828    0.3549 C   0  0  0  0  0  0  0  0  0  0  0  0
    5.3479    1.8161    0.8775 N   0  0  0  0  0  0  0  0  0  0  0  0
    6.6633    1.6825    0.6557 C   0  0  0  0  0  0  0  0  0  0  0  0
    7.1750    0.6663   -0.1376 C   0  0  0  0  0  0  0  0  0  0  0  0
    6.2498   -0.1988   -0.6842 C   0  0  0  0  0  0  0  0  0  0  0  0
    6.7100   -1.2293   -1.4828 C   0  0  0  0  0  0  0  0  0  0  0  0
    8.0651   -1.4127   -1.7451 C   0  0  0  0  0  0  0  0  0  0  0  0
    8.9658   -0.5152   -1.1720 C   0  0  0  0  0  0  0  0  0  0  0  0
    8.5224    0.5166   -0.3742 C   0  0  0  0  0  0  0  0  0  0  0  0
    7.7461    2.8382    1.4016 Cl  0  0  0  0  0  0  0  0  0  0  0  0
    3.0130    1.2512    0.6274 C   0  0  0  0  0  0  0  0  0  0  0  0
    2.7664    2.0940    1.5481 O   0  0  0  0  0  0  0  0  0  0  0  0
    1.9063    0.6868   -0.0133 N   0  0  0  0  0  0  0  0  0  0  0  0
    0.5601    1.0400    0.3616 C   0  0  1  0  0  0  0  0  0  0  0  0
   -0.1693    1.7751   -0.7287 C   0  0  0  0  0  0  0  0  0  0  0  0
   -1.5607    2.1375   -0.3241 C   0  0  0  0  0  0  0  0  0  0  0  0
   -2.2820    1.1134    0.4765 C   0  0  2  0  0  0  0  0  0  0  0  0
   -1.6015   -0.2221    0.5179 C   0  0  2  0  0  0  0  0  0  0  0  0
   -0.1329   -0.1950    0.8243 C   0  0  1  0  0  0  0  0  0  0  0  0
    0.3944   -1.2936    0.0451 O   0  0  0  0  0  0  0  0  0  0  0  0
   -0.3465   -1.3560   -1.1226 C   0  0  0  0  0  0  0  0  0  0  0  0
   -1.5382   -0.7344   -0.8989 C   0  0  0  0  0  0  0  0  0  0  0  0
   -2.5541   -0.5710   -1.7837 C   0  0  0  0  0  0  0  0  0  0  0  0
   -3.7671    0.1522   -1.3504 C   0  0  0  0  0  0  0  0  0  0  0  0
   -3.6765    0.8366   -0.0345 C   0  0  1  0  0  0  0  0  0  0  0  0
   -4.4400    0.0723    0.9237 N   0  0  0  0  0  0  0  0  0  0  0  0
   -3.6854   -0.7137    1.8375 C   0  0  0  0  0  0  0  0  0  0  0  0
   -2.3550   -1.1771    1.3652 C   0  0  0  0  0  0  0  0  0  0  0  0
   -5.3267    0.9972    1.6058 C   0  0  0  0  0  0  0  0  0  0  0  0
   -6.1154    0.1471    2.6007 C   0  0  0  0  0  0  0  0  0  0  0  0
   -6.9124   -0.9259    1.9514 C   0  0  0  0  0  0  0  0  0  0  0  0
   -7.5989    0.2334    2.6008 C   0  0  0  0  0  0  0  0  0  0  0  0
   -2.3739   -1.0880   -3.0539 C   0  0  0  0  0  0  0  0  0  0  0  0
   -1.1729   -1.7371   -3.3427 C   0  0  0  0  0  0  0  0  0  0  0  0
   -0.1620   -1.8774   -2.3995 C   0  0  0  0  0  0  0  0  0  0  0  0
    1.0232   -2.5251   -2.7064 O   0  0  0  0  0  0  0  0  0  0  0  0
   -2.3888    1.5639    1.7880 O   0  0  0  0  0  0  0  0  0  0  0  0
    4.7091   -2.7363   -0.0888 H   0  0  0  0  0  0  0  0  0  0  0  0
    3.1173   -2.7891   -0.9526 H   0  0  0  0  0  0  0  0  0  0  0  0
    3.2284   -1.8872    0.6036 H   0  0  0  0  0  0  0  0  0  0  0  0
    6.0202   -1.9366   -1.9362 H   0  0  0  0  0  0  0  0  0  0  0  0
    8.3805   -2.2286   -2.3725 H   0  0  0  0  0  0  0  0  0  0  0  0
   10.0351   -0.6398   -1.3643 H   0  0  0  0  0  0  0  0  0  0  0  0
    9.2274    1.2276    0.0807 H   0  0  0  0  0  0  0  0  0  0  0  0
    2.0222    0.0064   -0.7849 H   0  0  0  0  0  0  0  0  0  0  0  0
    0.6243    1.7487    1.2123 H   0  0  0  0  0  0  0  0  0  0  0  0
    0.3814    2.7425   -0.8643 H   0  0  0  0  0  0  0  0  0  0  0  0
   -0.2267    1.1994   -1.6738 H   0  0  0  0  0  0  0  0  0  0  0  0
   -2.1966    2.3183   -1.2431 H   0  0  0  0  0  0  0  0  0  0  0  0
   -1.6136    3.1100    0.2068 H   0  0  0  0  0  0  0  0  0  0  0  0
    0.1170   -0.3922    1.8665 H   0  0  0  0  0  0  0  0  0  0  0  0
   -4.1247    0.8489   -2.1704 H   0  0  0  0  0  0  0  0  0  0  0  0
   -4.5803   -0.6366   -1.3487 H   0  0  0  0  0  0  0  0  0  0  0  0
   -4.1330    1.8630   -0.1741 H   0  0  0  0  0  0  0  0  0  0  0  0
   -4.2926   -1.6497    2.0122 H   0  0  0  0  0  0  0  0  0  0  0  0
   -3.6460   -0.2415    2.8590 H   0  0  0  0  0  0  0  0  0  0  0  0
   -1.7276   -1.3414    2.2925 H   0  0  0  0  0  0  0  0  0  0  0  0
   -2.3996   -2.1986    0.9118 H   0  0  0  0  0  0  0  0  0  0  0  0
   -4.7915    1.8219    2.1037 H   0  0  0  0  0  0  0  0  0  0  0  0
   -6.0770    1.4361    0.9130 H   0  0  0  0  0  0  0  0  0  0  0  0
   -5.5753   -0.1252    3.5134 H   0  0  0  0  0  0  0  0  0  0  0  0
   -7.0230   -0.9833    0.8380 H   0  0  0  0  0  0  0  0  0  0  0  0
   -6.9823   -1.9075    2.4333 H   0  0  0  0  0  0  0  0  0  0  0  0
   -8.1514    0.0154    3.5206 H   0  0  0  0  0  0  0  0  0  0  0  0
   -8.1121    0.9768    1.9371 H   0  0  0  0  0  0  0  0  0  0  0  0
   -3.1629   -0.9750   -3.7818 H   0  0  0  0  0  0  0  0  0  0  0  0
   -1.0336   -2.1458   -4.3471 H   0  0  0  0  0  0  0  0  0  0  0  0
    1.4931   -2.3106   -3.5802 H   0  0  0  0  0  0  0  0  0  0  0  0
   -1.5723    1.9460    2.1500 H   0  0  0  0  0  0  0  0  0  0  0  0
  1  2  1  0
  2  3  1  0
  3  4  2  0
  4  5  1  0
  5  6  2  0
  6  7  1  0
  7  8  2  0
  8  9  1  0
  9 10  2  0
 10 11  1  0
 11 12  2  0
  6 13  1  0
  4 14  1  0
 14 15  2  0
 14 16  1  0
 16 17  1  0
 17 18  1  0
 18 19  1  0
 19 20  1  0
 20 21  1  0
 21 22  1  0
 22 23  1  0
 23 24  1  0
 24 25  2  0
 25 26  1  0
 26 27  1  0
 27 28  1  0
 28 29  1  0
 29 30  1  0
 30 31  1  0
 29 32  1  0
 32 33  1  0
 33 34  1  0
 34 35  1  0
 26 36  2  0
 36 37  1  0
 37 38  2  0
 38 39  1  0
 20 40  1  1
  8  3  1  0
 22 17  1  0
 38 24  1  0
 12  7  1  0
 28 20  1  0
 35 33  1  0
 21 31  1  1
 25 21  1  0
  1 41  1  0
  1 42  1  0
  1 43  1  0
  9 44  1  0
 10 45  1  0
 11 46  1  0
 12 47  1  0
 16 48  1  0
 17 49  1  1
 18 50  1  0
 18 51  1  0
 19 52  1  0
 19 53  1  0
 22 54  1  1
 27 55  1  0
 27 56  1  0
 28 57  1  6
 30 58  1  0
 30 59  1  0
 31 60  1  0
 31 61  1  0
 32 62  1  0
 32 63  1  0
 33 64  1  0
 34 65  1  0
 34 66  1  0
 35 67  1  0
 35 68  1  0
 36 69  1  0
 37 70  1  0
 39 71  1  0
 40 72  1  0
M  END
>  <Ligand ID>  (1) 
LIG0004762

>  <Ligand>  (1) 
CHEMBL2419121

>  <SMILES>  (1) 
COc1c(nc(c2c1cccc2)Cl)C(=O)N[C@H]1CC[C@@]2([C@@]34[C@H]1Oc1c4c(C[C@H]2N(CC3)CC2CC2)ccc1O)O

>  <CID>  (1) 
72164175.0

>  <ChEMBL ID>  (1) 
nan

>  <InChiKey>  (1) 
POSDXXHDYYVBFA-OZKNTWEWSA-N

>  <InChi>  (1) 
InChI=1S/C31H32ClN3O5/c1-39-25-18-4-2-3-5-19(18)28(32)34-24(25)29(37)33-20-10-11-31(38)22-14-17-8-9-21(36)26-23(17)30(31,27(20)40-26)12-13-35(22)15-16-6-7-16/h2-5,8-9,16,20,22,27,36,38H,6-7,10-15H2,1H3,(H,33,37)/t20-,22+,27-,30-,31+/m0/s1

>  <IUPAC Name>  (1) 
N-[(4R,4aS,7S,7aR,12bS)-3-(cyclopropylmethyl)-4a,9-dihydroxy-1,2,4,5,6,7,7a,13-octahydro-4,12-methanobenzofuro[3,2-e]isoquinolin-7-yl]-1-chloro-4-methoxyisoquinoline-3-carboxamide

$$$$
