
     RDKit          3D

136138  0  0  0  0  0  0  0  0999 V2000
   -9.2802    2.9431   -4.1965 C   0  0  0  0  0  0  0  0  0  0  0  0
   -8.0376    2.0548   -4.0511 C   0  0  0  0  0  0  0  0  0  0  0  0
   -8.0419    1.5515   -2.6370 C   0  0  1  0  0  0  0  0  0  0  0  0
   -6.9236    0.6558   -2.2628 C   0  0  2  0  0  0  0  0  0  0  0  0
   -7.0328    0.2251   -0.8552 N   0  0  0  0  0  0  0  0  0  0  0  0
   -6.3873   -0.9929   -0.5460 C   0  0  0  0  0  0  0  0  0  0  0  0
   -5.6825   -1.4756   -1.4606 O   0  0  0  0  0  0  0  0  0  0  0  0
   -6.4439   -1.7476    0.7276 C   0  0  1  0  0  0  0  0  0  0  0  0
   -5.3935   -2.7681    0.7064 N   0  0  0  0  0  0  0  0  0  0  0  0
   -4.0480   -2.5070    1.1639 C   0  0  0  0  0  0  0  0  0  0  0  0
   -3.8691   -1.3721    1.6154 O   0  0  0  0  0  0  0  0  0  0  0  0
   -2.9752   -3.5186    1.0984 C   0  0  0  0  0  0  0  0  0  0  0  0
   -1.9318   -3.2241    2.1324 C   0  0  0  0  0  0  0  0  0  0  0  0
   -0.4604   -4.2809    1.8876 S   0  0  0  0  0  0  0  0  0  0  0  0
    0.5881   -3.4216    0.2133 S   0  0  0  0  0  0  0  0  0  0  0  0
    1.7839   -2.2864    0.9132 C   0  0  0  0  0  0  0  0  0  0  0  0
    2.3709   -1.3125   -0.1258 C   0  0  2  0  0  0  0  0  0  0  0  0
    1.2230   -0.4262   -0.4886 N   0  0  0  0  0  0  0  0  0  0  0  0
    1.1210    0.8164    0.2228 C   0  0  0  0  0  0  0  0  0  0  0  0
    2.0694    0.9967    1.0221 O   0  0  0  0  0  0  0  0  0  0  0  0
    0.0801    1.8190    0.1059 C   0  0  1  0  0  0  0  0  0  0  0  0
   -0.9020    1.6515   -0.9212 N   0  0  0  0  0  0  0  0  0  0  0  0
   -2.3135    1.7356   -0.8021 C   0  0  0  0  0  0  0  0  0  0  0  0
   -2.7665    1.7547    0.3524 O   0  0  0  0  0  0  0  0  0  0  0  0
   -3.2560    1.7835   -1.9248 C   0  0  1  0  0  0  0  0  0  0  0  0
   -4.5991    1.4546   -1.4921 N   0  0  0  0  0  0  0  0  0  0  0  0
   -5.5612    1.1605   -2.5076 C   0  0  0  0  0  0  0  0  0  0  0  0
   -5.1929    1.3652   -3.6684 O   0  0  0  0  0  0  0  0  0  0  0  0
   -3.2351    3.2797   -2.3541 C   0  0  0  0  0  0  0  0  0  0  0  0
   -3.6661    4.0979   -1.1793 C   0  0  0  0  0  0  0  0  0  0  0  0
   -3.6795    5.5527   -1.4887 C   0  0  0  0  0  0  0  0  0  0  0  0
   -3.4574    6.0162   -2.6453 O   0  0  0  0  0  0  0  0  0  0  0  0
   -3.9573    6.4695   -0.4363 N   0  0  0  0  0  0  0  0  0  0  0  0
   -0.5651    2.1293    1.4784 C   0  0  0  0  0  0  0  0  0  0  0  0
    0.4523    2.6969    2.3825 C   0  0  0  0  0  0  0  0  0  0  0  0
    1.6025    3.0685    2.1010 O   0  0  0  0  0  0  0  0  0  0  0  0
    0.0687    2.8417    3.7661 N   0  0  0  0  0  0  0  0  0  0  0  0
    2.7186   -2.0564   -1.3401 C   0  0  0  0  0  0  0  0  0  0  0  0
    1.8459   -2.0266   -2.2773 O   0  0  0  0  0  0  0  0  0  0  0  0
    3.9507   -2.7866   -1.5183 N   0  0  0  0  0  0  0  0  0  0  0  0
    4.9561   -2.7504   -0.4889 C   0  0  0  0  0  0  0  0  0  0  0  0
    5.9198   -1.6554   -0.5816 C   0  0  0  0  0  0  0  0  0  0  0  0
    6.0289   -0.7633   -1.4194 O   0  0  0  0  0  0  0  0  0  0  0  0
    6.9087   -1.6119    0.4903 N   0  0  0  0  0  0  0  0  0  0  0  0
    7.9340   -0.5303    0.4335 C   0  0  2  0  0  0  0  0  0  0  0  0
    9.1835   -1.0502    0.9296 C   0  0  0  0  0  0  0  0  0  0  0  0
    9.1158   -2.1260    1.6519 O   0  0  0  0  0  0  0  0  0  0  0  0
   10.4850   -0.5568    0.7336 N   0  0  0  0  0  0  0  0  0  0  0  0
   11.5822   -1.2683    1.3590 C   0  0  0  0  0  0  0  0  0  0  0  0
   12.9007   -0.6689    1.0797 C   0  0  0  0  0  0  0  0  0  0  0  0
   13.9409   -1.1836    1.5672 O   0  0  0  0  0  0  0  0  0  0  0  0
   13.0879    0.4911    0.2663 N   0  0  0  0  0  0  0  0  0  0  0  0
    7.2783    0.5955    1.1622 C   0  0  0  0  0  0  0  0  0  0  0  0
    8.0221    1.8648    1.3311 C   0  0  0  0  0  0  0  0  0  0  0  0
    9.2761    1.8195    2.1295 C   0  0  0  0  0  0  0  0  0  0  0  0
    8.3198    2.5144   -0.0387 C   0  0  0  0  0  0  0  0  0  0  0  0
    4.0714   -3.6318   -2.6499 C   0  0  0  0  0  0  0  0  0  0  0  0
    4.5231   -3.2332   -3.9773 C   0  0  0  0  0  0  0  0  0  0  0  0
    3.8561   -2.2297   -4.8617 C   0  0  0  0  0  0  0  0  0  0  0  0
    5.2570   -2.0444   -4.3729 C   0  0  0  0  0  0  0  0  0  0  0  0
   -6.6045   -0.9640    1.9684 C   0  0  0  0  0  0  0  0  0  0  0  0
   -6.7429   -1.7825    3.1967 C   0  0  0  0  0  0  0  0  0  0  0  0
   -8.0396   -2.2385    3.4623 C   0  0  0  0  0  0  0  0  0  0  0  0
   -8.3389   -3.0052    4.5744 C   0  0  0  0  0  0  0  0  0  0  0  0
   -7.3510   -3.3449    5.4633 C   0  0  0  0  0  0  0  0  0  0  0  0
   -6.0603   -2.8978    5.2097 C   0  0  0  0  0  0  0  0  0  0  0  0
   -5.7844   -2.1276    4.0849 C   0  0  0  0  0  0  0  0  0  0  0  0
   -7.6109   -4.1144    6.5933 O   0  0  0  0  0  0  0  0  0  0  0  0
   -8.2120    2.6829   -1.6221 C   0  0  0  0  0  0  0  0  0  0  0  0
  -10.0678    2.5518   -3.5244 H   0  0  0  0  0  0  0  0  0  0  0  0
   -8.9974    3.9898   -4.0089 H   0  0  0  0  0  0  0  0  0  0  0  0
   -9.6486    2.8073   -5.2431 H   0  0  0  0  0  0  0  0  0  0  0  0
   -7.1572    2.6295   -4.3453 H   0  0  0  0  0  0  0  0  0  0  0  0
   -8.2076    1.1612   -4.7056 H   0  0  0  0  0  0  0  0  0  0  0  0
   -8.9861    0.9441   -2.5285 H   0  0  0  0  0  0  0  0  0  0  0  0
   -6.9420   -0.3066   -2.8940 H   0  0  0  0  0  0  0  0  0  0  0  0
   -7.5088    0.7107   -0.1191 H   0  0  0  0  0  0  0  0  0  0  0  0
   -7.3932   -2.3838    0.6441 H   0  0  0  0  0  0  0  0  0  0  0  0
   -5.5243   -3.7276    0.3685 H   0  0  0  0  0  0  0  0  0  0  0  0
   -2.5044   -3.6022    0.1036 H   0  0  0  0  0  0  0  0  0  0  0  0
   -3.4149   -4.5497    1.2688 H   0  0  0  0  0  0  0  0  0  0  0  0
   -1.5857   -2.1754    2.1246 H   0  0  0  0  0  0  0  0  0  0  0  0
   -2.3703   -3.4050    3.1348 H   0  0  0  0  0  0  0  0  0  0  0  0
    2.5570   -2.7645    1.5112 H   0  0  0  0  0  0  0  0  0  0  0  0
    1.2074   -1.6519    1.6599 H   0  0  0  0  0  0  0  0  0  0  0  0
    3.1479   -0.7604    0.3811 H   0  0  0  0  0  0  0  0  0  0  0  0
    0.5316   -0.6248   -1.1753 H   0  0  0  0  0  0  0  0  0  0  0  0
    0.5266    2.8569   -0.1124 H   0  0  0  0  0  0  0  0  0  0  0  0
   -0.5743    1.4396   -1.8771 H   0  0  0  0  0  0  0  0  0  0  0  0
   -2.9347    1.2002   -2.7743 H   0  0  0  0  0  0  0  0  0  0  0  0
   -4.9435    1.4095   -0.5421 H   0  0  0  0  0  0  0  0  0  0  0  0
   -2.1684    3.4809   -2.5521 H   0  0  0  0  0  0  0  0  0  0  0  0
   -3.7842    3.4445   -3.2805 H   0  0  0  0  0  0  0  0  0  0  0  0
   -2.8929    3.9678   -0.3686 H   0  0  0  0  0  0  0  0  0  0  0  0
   -4.6744    3.8294   -0.8073 H   0  0  0  0  0  0  0  0  0  0  0  0
   -4.8682    7.0061   -0.3676 H   0  0  0  0  0  0  0  0  0  0  0  0
   -3.2193    6.6214    0.3131 H   0  0  0  0  0  0  0  0  0  0  0  0
   -1.2492    3.0089    1.2597 H   0  0  0  0  0  0  0  0  0  0  0  0
   -1.1176    1.2937    1.8924 H   0  0  0  0  0  0  0  0  0  0  0  0
   -0.6846    3.5250    4.0527 H   0  0  0  0  0  0  0  0  0  0  0  0
    0.5696    2.2458    4.4613 H   0  0  0  0  0  0  0  0  0  0  0  0
    4.5306   -2.7764    0.5501 H   0  0  0  0  0  0  0  0  0  0  0  0
    5.5645   -3.6947   -0.6414 H   0  0  0  0  0  0  0  0  0  0  0  0
    6.9044   -2.3051    1.2626 H   0  0  0  0  0  0  0  0  0  0  0  0
    8.0419   -0.1818   -0.6169 H   0  0  0  0  0  0  0  0  0  0  0  0
   10.6095    0.2837    0.1376 H   0  0  0  0  0  0  0  0  0  0  0  0
   11.6455   -2.3210    1.0133 H   0  0  0  0  0  0  0  0  0  0  0  0
   11.4026   -1.3228    2.4581 H   0  0  0  0  0  0  0  0  0  0  0  0
   13.2485    0.2965   -0.7602 H   0  0  0  0  0  0  0  0  0  0  0  0
   13.0755    1.4614    0.6393 H   0  0  0  0  0  0  0  0  0  0  0  0
    6.3541    0.8482    0.5612 H   0  0  0  0  0  0  0  0  0  0  0  0
    6.8678    0.2955    2.1545 H   0  0  0  0  0  0  0  0  0  0  0  0
    7.3174    2.5953    1.8013 H   0  0  0  0  0  0  0  0  0  0  0  0
    9.2055    2.6371    2.9269 H   0  0  0  0  0  0  0  0  0  0  0  0
   10.1962    2.0625    1.6017 H   0  0  0  0  0  0  0  0  0  0  0  0
    9.2865    0.8948    2.7422 H   0  0  0  0  0  0  0  0  0  0  0  0
    8.8406    1.8423   -0.7187 H   0  0  0  0  0  0  0  0  0  0  0  0
    9.0117    3.3526    0.2142 H   0  0  0  0  0  0  0  0  0  0  0  0
    7.4021    2.9457   -0.4288 H   0  0  0  0  0  0  0  0  0  0  0  0
    4.6468   -4.5519   -2.2728 H   0  0  0  0  0  0  0  0  0  0  0  0
    3.0068   -4.0780   -2.7875 H   0  0  0  0  0  0  0  0  0  0  0  0
    4.7924   -4.1784   -4.6290 H   0  0  0  0  0  0  0  0  0  0  0  0
    3.8261   -2.3932   -5.9866 H   0  0  0  0  0  0  0  0  0  0  0  0
    3.1043   -1.5146   -4.5430 H   0  0  0  0  0  0  0  0  0  0  0  0
    6.1212   -2.1817   -5.1053 H   0  0  0  0  0  0  0  0  0  0  0  0
    5.3955   -1.1254   -3.8123 H   0  0  0  0  0  0  0  0  0  0  0  0
   -5.7830   -0.2236    2.1112 H   0  0  0  0  0  0  0  0  0  0  0  0
   -7.5846   -0.3941    1.8406 H   0  0  0  0  0  0  0  0  0  0  0  0
   -8.8677   -2.0039    2.8011 H   0  0  0  0  0  0  0  0  0  0  0  0
   -9.3504   -3.3569    4.7696 H   0  0  0  0  0  0  0  0  0  0  0  0
   -5.2499   -3.1430    5.8917 H   0  0  0  0  0  0  0  0  0  0  0  0
   -4.7647   -1.8142    3.9723 H   0  0  0  0  0  0  0  0  0  0  0  0
   -7.1564   -5.0293    6.7016 H   0  0  0  0  0  0  0  0  0  0  0  0
   -8.7102    2.2617   -0.7174 H   0  0  0  0  0  0  0  0  0  0  0  0
   -7.2416    3.1255   -1.4023 H   0  0  0  0  0  0  0  0  0  0  0  0
   -8.9276    3.4094   -2.0628 H   0  0  0  0  0  0  0  0  0  0  0  0
  1  2  1  0
  2  3  1  0
  3  4  1  0
  4  5  1  0
  5  6  1  0
  6  7  2  0
  6  8  1  0
  8  9  1  0
  9 10  1  0
 10 11  2  0
 10 12  1  0
 12 13  1  0
 13 14  1  0
 14 15  1  0
 15 16  1  0
 16 17  1  0
 17 18  1  0
 18 19  1  0
 19 20  2  0
 19 21  1  0
 21 22  1  0
 22 23  1  0
 23 24  2  0
 23 25  1  0
 25 26  1  0
 26 27  1  0
 27 28  2  0
 25 29  1  0
 29 30  1  0
 30 31  1  0
 31 32  2  0
 31 33  1  0
 21 34  1  0
 34 35  1  0
 35 36  2  0
 35 37  1  0
 17 38  1  0
 38 39  2  0
 38 40  1  0
 40 41  1  0
 41 42  1  0
 42 43  2  0
 42 44  1  0
 44 45  1  0
 45 46  1  0
 46 47  2  0
 46 48  1  0
 48 49  1  0
 49 50  1  0
 50 51  2  0
 50 52  1  0
 45 53  1  0
 53 54  1  0
 54 55  1  0
 54 56  1  0
 40 57  1  0
 57 58  1  0
 58 59  1  0
 59 60  1  0
  8 61  1  0
 61 62  1  0
 62 63  2  0
 63 64  1  0
 64 65  2  0
 65 66  1  0
 66 67  2  0
 65 68  1  0
  3 69  1  0
 27  4  1  0
 60 58  1  0
 67 62  1  0
  1 70  1  0
  1 71  1  0
  1 72  1  0
  2 73  1  0
  2 74  1  0
  3 75  1  6
  4 76  1  6
  5 77  1  0
  8 78  1  6
  9 79  1  0
 12 80  1  0
 12 81  1  0
 13 82  1  0
 13 83  1  0
 16 84  1  0
 16 85  1  0
 17 86  1  1
 18 87  1  0
 21 88  1  6
 22 89  1  0
 25 90  1  6
 26 91  1  0
 29 92  1  0
 29 93  1  0
 30 94  1  0
 30 95  1  0
 33 96  1  0
 33 97  1  0
 34 98  1  0
 34 99  1  0
 37100  1  0
 37101  1  0
 41102  1  0
 41103  1  0
 44104  1  0
 45105  1  6
 48106  1  0
 49107  1  0
 49108  1  0
 52109  1  0
 52110  1  0
 53111  1  0
 53112  1  0
 54113  1  0
 55114  1  0
 55115  1  0
 55116  1  0
 56117  1  0
 56118  1  0
 56119  1  0
 57120  1  0
 57121  1  0
 58122  1  0
 59123  1  0
 59124  1  0
 60125  1  0
 60126  1  0
 61127  1  0
 61128  1  0
 63129  1  0
 64130  1  0
 66131  1  0
 67132  1  0
 68133  1  0
 69134  1  0
 69135  1  0
 69136  1  0
M  END
>  <Ligand ID>  (1) 
LIG0001642

>  <Ligand>  (1) 
CHEMBL3353930

>  <SMILES>  (1) 
CC[C@@H]([C@@H]1NC(=O)[C@@H](NC(=O)CCSSC[C@H](NC(=O)[C@@H](NC(=O)[C@@H](NC1=O)CCC(=O)N)CC(=O)N)C(=O)N(CC(=O)N[C@H](C(=O)NCC(=O)N)CC(C)C)CC1CC1)Cc1ccc(cc1)O)C

>  <CID>  (1) 
118719819.0

>  <ChEMBL ID>  (1) 
nan

>  <InChiKey>  (1) 
WEXUTKCJQHLWGY-PBHNCVLYSA-N

>  <InChi>  (1) 
InChI=1S/C44H67N11O12S2/c1-5-24(4)38-43(66)51-28(12-13-33(45)57)40(63)52-31(18-34(46)58)41(64)53-32(22-69-68-15-14-36(60)49-30(42(65)54-38)17-25-8-10-27(56)11-9-25)44(67)55(20-26-6-7-26)21-37(61)50-29(16-23(2)3)39(62)48-19-35(47)59/h8-11,23-24,26,28-32,38,56H,5-7,12-22H2,1-4H3,(H2,45,57)(H2,46,58)(H2,47,59)(H,48,62)(H,49,60)(H,50,61)(H,51,66)(H,52,63)(H,53,64)(H,54,65)/t24-,28-,29-,30-,31-,32-,38-/m0/s1

>  <IUPAC Name>  (1) 
(4R,7S,10S,13S,16S)-7-(2-amino-2-oxoethyl)-N-[2-[[(2S)-1-[(2-amino-2-oxoethyl)amino]-4-methyl-1-oxopentan-2-yl]amino]-2-oxoethyl]-10-(3-amino-3-oxopropyl)-13-[(2S)-butan-2-yl]-N-(cyclopropylmethyl)-16-[(4-hydroxyphenyl)methyl]-6,9,12,15,18-pentaoxo-1,2-dithia-5,8,11,14,17-pentazacycloicosane-4-carboxamide

$$$$
