
     RDKit          3D

 77 84  0  0  0  0  0  0  0  0999 V2000
   -3.1585    6.2328   -0.6371 C   0  0  0  0  0  0  0  0  0  0  0  0
   -2.4762    5.1279   -0.1420 O   0  0  0  0  0  0  0  0  0  0  0  0
   -2.7156    3.8011   -0.4361 C   0  0  0  0  0  0  0  0  0  0  0  0
   -3.7278    3.3947   -1.3111 C   0  0  0  0  0  0  0  0  0  0  0  0
   -3.9563    2.0420   -1.5987 C   0  0  0  0  0  0  0  0  0  0  0  0
   -3.1534    1.0776   -0.9945 C   0  0  0  0  0  0  0  0  0  0  0  0
   -2.1958    1.5513   -0.1570 C   0  0  0  0  0  0  0  0  0  0  0  0
   -1.9123    2.8357    0.1679 C   0  0  0  0  0  0  0  0  0  0  0  0
   -0.8452    2.7994    1.0487 O   0  0  0  0  0  0  0  0  0  0  0  0
   -0.2579    1.5103    1.0660 C   0  0  1  0  0  0  0  0  0  0  0  0
   -1.3236    0.5803    0.5405 C   0  0  1  0  0  0  0  0  0  0  0  0
   -2.0252   -0.1252    1.6220 C   0  0  0  0  0  0  0  0  0  0  0  0
   -2.6230   -1.4648    1.3200 C   0  0  0  0  0  0  0  0  0  0  0  0
   -2.2658   -2.0453    0.1092 N   0  0  0  0  0  0  0  0  0  0  0  0
   -1.9788   -1.1469   -0.9702 C   0  0  1  0  0  0  0  0  0  0  0  0
   -3.2410   -0.3635   -1.2356 C   0  0  0  0  0  0  0  0  0  0  0  0
   -0.8099   -0.3050   -0.5626 C   0  0  1  0  0  0  0  0  0  0  0  0
   -0.2972    0.5225   -1.7194 C   0  0  0  0  0  0  0  0  0  0  0  0
    0.7686    1.4354   -1.2157 C   0  0  0  0  0  0  0  0  0  0  0  0
    0.9728    1.3096    0.2794 C   0  0  1  0  0  0  0  0  0  0  0  0
    1.9837    2.1391    0.6711 O   0  0  0  0  0  0  0  0  0  0  0  0
    1.8137    3.4811    0.5768 C   0  0  0  0  0  0  0  0  0  0  0  0
    1.3905   -0.1624    0.5246 C   0  0  1  0  0  0  0  0  0  0  0  0
    0.3472   -1.0657   -0.0329 C   0  0  0  0  0  0  0  0  0  0  0  0
    2.7834   -0.3755   -0.0118 C   0  0  0  0  0  0  0  0  0  0  0  0
    3.6332    0.5293    0.7136 N   0  0  0  0  0  0  0  0  0  0  0  0
    4.9841    0.5882    0.3128 C   0  0  0  0  0  0  0  0  0  0  0  0
    5.7538   -0.6488    0.3005 C   0  0  0  0  0  0  0  0  0  0  0  0
    6.4900   -1.1269    1.3455 C   0  0  0  0  0  0  0  0  0  0  0  0
    7.1926   -2.2969    1.2464 C   0  0  0  0  0  0  0  0  0  0  0  0
    7.1687   -3.0224    0.0746 C   0  0  0  0  0  0  0  0  0  0  0  0
    6.4403   -2.5803   -1.0072 C   0  0  0  0  0  0  0  0  0  0  0  0
    5.7430   -1.3998   -0.8785 C   0  0  0  0  0  0  0  0  0  0  0  0
   -2.3599   -3.4064   -0.1500 C   0  0  0  0  0  0  0  0  0  0  0  0
   -3.7998   -3.8588   -0.2215 C   0  0  0  0  0  0  0  0  0  0  0  0
   -4.7207   -3.7375    0.9323 C   0  0  0  0  0  0  0  0  0  0  0  0
   -4.2719   -5.0960    0.4250 C   0  0  0  0  0  0  0  0  0  0  0  0
   -3.7231    6.0297   -1.5514 H   0  0  0  0  0  0  0  0  0  0  0  0
   -3.9163    6.5283    0.1407 H   0  0  0  0  0  0  0  0  0  0  0  0
   -2.4913    7.1295   -0.7413 H   0  0  0  0  0  0  0  0  0  0  0  0
   -4.3699    4.1280   -1.7935 H   0  0  0  0  0  0  0  0  0  0  0  0
   -4.7254    1.7125   -2.2636 H   0  0  0  0  0  0  0  0  0  0  0  0
   -0.0635    1.2321    2.1136 H   0  0  0  0  0  0  0  0  0  0  0  0
   -2.8445    0.5716    1.9766 H   0  0  0  0  0  0  0  0  0  0  0  0
   -1.3885   -0.2123    2.5556 H   0  0  0  0  0  0  0  0  0  0  0  0
   -2.4321   -2.1611    2.1608 H   0  0  0  0  0  0  0  0  0  0  0  0
   -3.7460   -1.3237    1.3067 H   0  0  0  0  0  0  0  0  0  0  0  0
   -1.7258   -1.7201   -1.8653 H   0  0  0  0  0  0  0  0  0  0  0  0
   -3.5857   -0.5185   -2.3001 H   0  0  0  0  0  0  0  0  0  0  0  0
   -4.0799   -0.7479   -0.6208 H   0  0  0  0  0  0  0  0  0  0  0  0
    0.1238   -0.2319   -2.4475 H   0  0  0  0  0  0  0  0  0  0  0  0
   -1.0603    1.0747   -2.2684 H   0  0  0  0  0  0  0  0  0  0  0  0
    1.7251    1.1719   -1.7039 H   0  0  0  0  0  0  0  0  0  0  0  0
    0.5375    2.4777   -1.5154 H   0  0  0  0  0  0  0  0  0  0  0  0
    2.7964    3.9410    0.9287 H   0  0  0  0  0  0  0  0  0  0  0  0
    1.7192    3.8275   -0.4603 H   0  0  0  0  0  0  0  0  0  0  0  0
    1.0811    3.9390    1.2854 H   0  0  0  0  0  0  0  0  0  0  0  0
    1.4902   -0.2032    1.6461 H   0  0  0  0  0  0  0  0  0  0  0  0
    0.0121   -1.7816    0.7513 H   0  0  0  0  0  0  0  0  0  0  0  0
    0.7607   -1.7202   -0.8445 H   0  0  0  0  0  0  0  0  0  0  0  0
    3.0764   -1.4069    0.3485 H   0  0  0  0  0  0  0  0  0  0  0  0
    2.8936   -0.3528   -1.0861 H   0  0  0  0  0  0  0  0  0  0  0  0
    3.4305    0.5952    1.7107 H   0  0  0  0  0  0  0  0  0  0  0  0
    5.5118    1.2818    1.0345 H   0  0  0  0  0  0  0  0  0  0  0  0
    5.0338    1.1534   -0.6569 H   0  0  0  0  0  0  0  0  0  0  0  0
    6.5236   -0.5773    2.2733 H   0  0  0  0  0  0  0  0  0  0  0  0
    7.7759   -2.6838    2.0671 H   0  0  0  0  0  0  0  0  0  0  0  0
    7.7079   -3.9592   -0.0611 H   0  0  0  0  0  0  0  0  0  0  0  0
    6.3777   -3.0907   -1.9495 H   0  0  0  0  0  0  0  0  0  0  0  0
    5.1589   -1.0338   -1.7361 H   0  0  0  0  0  0  0  0  0  0  0  0
   -1.9012   -3.7413   -1.1168 H   0  0  0  0  0  0  0  0  0  0  0  0
   -1.8840   -4.0499    0.6550 H   0  0  0  0  0  0  0  0  0  0  0  0
   -4.3282   -3.6502   -1.2119 H   0  0  0  0  0  0  0  0  0  0  0  0
   -5.8052   -3.5257    0.7660 H   0  0  0  0  0  0  0  0  0  0  0  0
   -4.4091   -3.4754    1.9521 H   0  0  0  0  0  0  0  0  0  0  0  0
   -5.0385   -5.7338   -0.0729 H   0  0  0  0  0  0  0  0  0  0  0  0
   -3.5672   -5.6227    1.0701 H   0  0  0  0  0  0  0  0  0  0  0  0
  1  2  1  0
  2  3  1  0
  3  4  2  0
  4  5  1  0
  5  6  2  0
  6  7  1  0
  7  8  2  0
  8  9  1  0
  9 10  1  0
 10 11  1  0
 11 12  1  1
 12 13  1  0
 13 14  1  0
 14 15  1  0
 15 16  1  0
 15 17  1  0
 17 18  1  6
 18 19  1  0
 19 20  1  0
 20 21  1  1
 21 22  1  0
 20 23  1  0
 23 24  1  0
 23 25  1  0
 25 26  1  0
 26 27  1  0
 27 28  1  0
 28 29  2  0
 29 30  1  0
 30 31  2  0
 31 32  1  0
 32 33  2  0
 14 34  1  0
 34 35  1  0
 35 36  1  0
 36 37  1  0
  8  3  1  0
 20 10  1  0
 33 28  1  0
 37 35  1  0
 16  6  1  0
 24 17  1  0
 11  7  1  0
 17 11  1  0
  1 38  1  0
  1 39  1  0
  1 40  1  0
  4 41  1  0
  5 42  1  0
 10 43  1  1
 12 44  1  0
 12 45  1  0
 13 46  1  0
 13 47  1  0
 15 48  1  6
 16 49  1  0
 16 50  1  0
 18 51  1  0
 18 52  1  0
 19 53  1  0
 19 54  1  0
 22 55  1  0
 22 56  1  0
 22 57  1  0
 23 58  1  1
 24 59  1  0
 24 60  1  0
 25 61  1  0
 25 62  1  0
 26 63  1  0
 27 64  1  0
 27 65  1  0
 29 66  1  0
 30 67  1  0
 31 68  1  0
 32 69  1  0
 33 70  1  0
 34 71  1  0
 34 72  1  0
 35 73  1  0
 36 74  1  0
 36 75  1  0
 37 76  1  0
 37 77  1  0
M  END
>  <Ligand ID>  (1) 
LIG0004777

>  <Ligand>  (1) 
CHEMBL3933323

>  <SMILES>  (1) 
COc1ccc2c3c1O[C@H]1[C@]43CCN([C@@H](C2)[C@]24CC[C@]1(OC)[C@@H](C2)CNCc1ccccc1)CC1CC1

>  <CID>  (1) 
134138021.0

>  <ChEMBL ID>  (1) 
nan

>  <InChiKey>  (1) 
PGANIOBIXBHMAK-KUUCXNLBSA-N

>  <InChi>  (1) 
InChI=1S/C32H40N2O3/c1-35-25-11-10-23-16-26-30-12-13-32(36-2,24(17-30)19-33-18-21-6-4-3-5-7-21)29-31(30,27(23)28(25)37-29)14-15-34(26)20-22-8-9-22/h3-7,10-11,22,24,26,29,33H,8-9,12-20H2,1-2H3/t24-,26-,29-,30-,31+,32-/m0/s1

>  <IUPAC Name>  (1) 
N-benzyl-1-[(1R,2R,6S,14S,15S,16S)-5-(cyclopropylmethyl)-11,15-dimethoxy-13-oxa-5-azahexacyclo[13.2.2.12,8.01,6.02,14.012,20]icosa-8(20),9,11-trien-16-yl]methanamine

$$$$
