
     RDKit          3D

 70 74  0  0  0  0  0  0  0  0999 V2000
    0.0896    6.0020   -0.0665 C   0  0  0  0  0  0  0  0  0  0  0  0
    0.0781    4.5848   -0.0661 O   0  0  0  0  0  0  0  0  0  0  0  0
    0.5670    3.8245   -1.1100 C   0  0  0  0  0  0  0  0  0  0  0  0
    1.0428    4.4744   -2.1024 O   0  0  0  0  0  0  0  0  0  0  0  0
    0.5692    2.3446   -1.1419 C   0  0  2  0  0  0  0  0  0  0  0  0
   -0.8380    1.8651   -0.9876 C   0  0  0  0  0  0  0  0  0  0  0  0
   -1.0026    0.3931   -0.8030 C   0  0  2  0  0  0  0  0  0  0  0  0
   -2.2965    0.1382   -0.3589 O   0  0  0  0  0  0  0  0  0  0  0  0
   -3.2731   -0.5857   -0.9845 C   0  0  0  0  0  0  0  0  0  0  0  0
   -3.0473   -1.1159   -2.1007 O   0  0  0  0  0  0  0  0  0  0  0  0
   -4.5808   -0.7239   -0.3197 C   0  0  0  0  0  0  0  0  0  0  0  0
   -4.8387   -0.1458    0.9061 C   0  0  0  0  0  0  0  0  0  0  0  0
   -6.0701   -0.2717    1.5399 C   0  0  0  0  0  0  0  0  0  0  0  0
   -7.0725   -1.0082    0.9093 C   0  0  0  0  0  0  0  0  0  0  0  0
   -6.8394   -1.5998   -0.3235 C   0  0  0  0  0  0  0  0  0  0  0  0
   -5.6060   -1.4460   -0.9082 C   0  0  0  0  0  0  0  0  0  0  0  0
   -7.7999   -2.3407   -0.9912 O   0  0  0  0  0  0  0  0  0  0  0  0
   -9.0613   -2.4821   -0.3645 C   0  0  0  0  0  0  0  0  0  0  0  0
    0.0381   -0.0429    0.2028 C   0  0  0  0  0  0  0  0  0  0  0  0
   -0.3585   -0.6658    1.1445 O   0  0  0  0  0  0  0  0  0  0  0  0
    1.4299    0.3439   -0.0811 C   0  0  1  0  0  0  0  0  0  0  0  0
    1.5110    1.8411   -0.0519 C   0  0  2  0  0  0  0  0  0  0  0  0
    1.1264    2.4885    1.2287 C   0  0  0  0  0  0  0  0  0  0  0  0
    2.8939    2.3470   -0.4348 C   0  0  0  0  0  0  0  0  0  0  0  0
    3.9252    1.6415    0.3844 C   0  0  0  0  0  0  0  0  0  0  0  0
    3.8300    0.1533    0.1499 C   0  0  2  0  0  0  0  0  0  0  0  0
    2.4848   -0.4038    0.6322 C   0  0  1  0  0  0  0  0  0  0  0  0
    2.4300   -0.4253    2.1164 C   0  0  0  0  0  0  0  0  0  0  0  0
    2.4954   -1.8392    0.0799 C   0  0  0  0  0  0  0  0  0  0  0  0
    3.5517   -2.6335    0.7805 C   0  0  2  0  0  0  0  0  0  0  0  0
    4.6614   -1.8975    1.1968 O   0  0  0  0  0  0  0  0  0  0  0  0
    4.8766   -0.5558    0.9138 C   0  0  0  0  0  0  0  0  0  0  0  0
    5.9352   -0.0442    1.3230 O   0  0  0  0  0  0  0  0  0  0  0  0
    4.0652   -3.7462   -0.0984 C   0  0  0  0  0  0  0  0  0  0  0  0
    3.5690   -4.1715   -1.3083 C   0  0  0  0  0  0  0  0  0  0  0  0
    4.4038   -5.2157   -1.6883 C   0  0  0  0  0  0  0  0  0  0  0  0
    5.3319   -5.4120   -0.7866 O   0  0  0  0  0  0  0  0  0  0  0  0
    5.1518   -4.5497    0.1698 C   0  0  0  0  0  0  0  0  0  0  0  0
    0.9985    6.3665   -0.6060 H   0  0  0  0  0  0  0  0  0  0  0  0
   -0.7894    6.4537   -0.5380 H   0  0  0  0  0  0  0  0  0  0  0  0
    0.1552    6.3985    0.9739 H   0  0  0  0  0  0  0  0  0  0  0  0
    0.9382    1.9876   -2.1397 H   0  0  0  0  0  0  0  0  0  0  0  0
   -1.3861    2.2140   -1.8884 H   0  0  0  0  0  0  0  0  0  0  0  0
   -1.3477    2.3576   -0.1340 H   0  0  0  0  0  0  0  0  0  0  0  0
   -0.8031   -0.0831   -1.8029 H   0  0  0  0  0  0  0  0  0  0  0  0
   -4.0595    0.4290    1.4004 H   0  0  0  0  0  0  0  0  0  0  0  0
   -6.2617    0.1872    2.5037 H   0  0  0  0  0  0  0  0  0  0  0  0
   -8.0414   -1.1184    1.3878 H   0  0  0  0  0  0  0  0  0  0  0  0
   -5.3881   -1.8940   -1.8707 H   0  0  0  0  0  0  0  0  0  0  0  0
   -9.6374   -3.2699   -0.9047 H   0  0  0  0  0  0  0  0  0  0  0  0
   -8.9753   -2.7953    0.6857 H   0  0  0  0  0  0  0  0  0  0  0  0
   -9.5820   -1.5052   -0.3987 H   0  0  0  0  0  0  0  0  0  0  0  0
    1.5689    0.0817   -1.1821 H   0  0  0  0  0  0  0  0  0  0  0  0
    0.0375    2.7084    1.3057 H   0  0  0  0  0  0  0  0  0  0  0  0
    1.6289    3.5027    1.2600 H   0  0  0  0  0  0  0  0  0  0  0  0
    1.5119    2.0000    2.1490 H   0  0  0  0  0  0  0  0  0  0  0  0
    3.0671    2.2390   -1.5288 H   0  0  0  0  0  0  0  0  0  0  0  0
    2.9496    3.4262   -0.2094 H   0  0  0  0  0  0  0  0  0  0  0  0
    4.9155    1.9461    0.0159 H   0  0  0  0  0  0  0  0  0  0  0  0
    3.8326    1.9256    1.4325 H   0  0  0  0  0  0  0  0  0  0  0  0
    3.8613   -0.0267   -0.9397 H   0  0  0  0  0  0  0  0  0  0  0  0
    1.4325   -0.3346    2.5723 H   0  0  0  0  0  0  0  0  0  0  0  0
    2.8314   -1.3939    2.5463 H   0  0  0  0  0  0  0  0  0  0  0  0
    3.1743    0.3262    2.5152 H   0  0  0  0  0  0  0  0  0  0  0  0
    1.4902   -2.2938    0.1616 H   0  0  0  0  0  0  0  0  0  0  0  0
    2.7394   -1.7829   -1.0013 H   0  0  0  0  0  0  0  0  0  0  0  0
    3.0354   -3.1907    1.6171 H   0  0  0  0  0  0  0  0  0  0  0  0
    2.7170   -3.7641   -1.8242 H   0  0  0  0  0  0  0  0  0  0  0  0
    4.2482   -5.7579   -2.6287 H   0  0  0  0  0  0  0  0  0  0  0  0
    5.7651   -4.4590    1.0683 H   0  0  0  0  0  0  0  0  0  0  0  0
  1  2  1  0
  2  3  1  0
  3  4  2  0
  3  5  1  0
  5  6  1  0
  6  7  1  0
  7  8  1  0
  8  9  1  0
  9 10  2  0
  9 11  1  0
 11 12  2  0
 12 13  1  0
 13 14  2  0
 14 15  1  0
 15 16  2  0
 15 17  1  0
 17 18  1  0
  7 19  1  0
 19 20  2  0
 19 21  1  0
 21 22  1  0
 22 23  1  1
 22 24  1  0
 24 25  1  0
 25 26  1  0
 26 27  1  0
 27 28  1  1
 27 29  1  0
 29 30  1  0
 30 31  1  0
 31 32  1  0
 32 33  2  0
 30 34  1  0
 34 35  1  0
 35 36  2  0
 36 37  1  0
 37 38  1  0
 22  5  1  0
 32 26  1  0
 38 34  2  0
 16 11  1  0
 27 21  1  0
  1 39  1  0
  1 40  1  0
  1 41  1  0
  5 42  1  6
  6 43  1  0
  6 44  1  0
  7 45  1  6
 12 46  1  0
 13 47  1  0
 14 48  1  0
 16 49  1  0
 18 50  1  0
 18 51  1  0
 18 52  1  0
 21 53  1  6
 23 54  1  0
 23 55  1  0
 23 56  1  0
 24 57  1  0
 24 58  1  0
 25 59  1  0
 25 60  1  0
 26 61  1  6
 28 62  1  0
 28 63  1  0
 28 64  1  0
 29 65  1  0
 29 66  1  0
 30 67  1  1
 35 68  1  0
 36 69  1  0
 38 70  1  0
M  END
>  <Ligand ID>  (1) 
LIG0005149

>  <Ligand>  (1) 
CHEMBL260485

>  <SMILES>  (1) 
COC(=O)[C@@H]1C[C@H](OC(=O)c2cccc(c2)OC)C(=O)[C@H]2[C@@]1(C)CC[C@@H]1[C@]2(C)C[C@H](OC1=O)c1ccoc1

>  <CID>  (1) 
24854100.0

>  <ChEMBL ID>  (1) 
nan

>  <InChiKey>  (1) 
MWJDXNHLIAFHDP-UTFYOTOKSA-N

>  <InChi>  (1) 
InChI=1S/C29H32O9/c1-28-10-8-19-27(33)38-22(17-9-11-36-15-17)14-29(19,2)24(28)23(30)21(13-20(28)26(32)35-4)37-25(31)16-6-5-7-18(12-16)34-3/h5-7,9,11-12,15,19-22,24H,8,10,13-14H2,1-4H3/t19-,20-,21-,22-,24-,28-,29-/m0/s1

>  <IUPAC Name>  (1) 
methyl (2S,4aR,6aR,7R,9S,10aS,10bR)-2-(furan-3-yl)-9-(3-methoxybenzoyl)oxy-6a,10b-dimethyl-4,10-dioxo-2,4a,5,6,7,8,9,10a-octahydro-1H-benzo[f]isochromene-7-carboxylate

$$$$
