
     RDKit          3D

 33 36  0  0  0  0  0  0  0  0999 V2000
    0.6476   -0.5766    2.3855 C   0  0  0  0  0  0  0  0  0  0  0  0
   -0.5336   -0.7946    1.7182 C   0  0  0  0  0  0  0  0  0  0  0  0
   -0.5540   -0.6591    0.3222 C   0  0  0  0  0  0  0  0  0  0  0  0
    0.5702   -0.3154   -0.3957 C   0  0  0  0  0  0  0  0  0  0  0  0
    1.7448   -0.0994    0.2689 C   0  0  0  0  0  0  0  0  0  0  0  0
    1.7472   -0.2391    1.6649 C   0  0  0  0  0  0  0  0  0  0  0  0
    3.0043    0.2551   -0.3696 C   0  0  0  0  0  0  0  0  0  0  0  0
    4.1978    0.5081    0.3059 C   0  0  0  0  0  0  0  0  0  0  0  0
    5.1836    0.8179   -0.6138 C   0  0  0  0  0  0  0  0  0  0  0  0
    4.5999    0.7527   -1.8034 N   0  0  0  0  0  0  0  0  0  0  0  0
    3.3128    0.4204   -1.6620 N   0  0  0  0  0  0  0  0  0  0  0  0
    0.2281   -0.2425   -1.8298 C   0  0  0  0  0  0  0  0  0  0  0  0
   -1.2919   -0.3957   -1.8833 C   0  0  0  0  0  0  0  0  0  0  0  0
   -1.7278   -0.8621   -0.5552 C   0  0  0  0  0  0  0  0  0  0  0  0
   -2.8352   -0.0609    0.0278 C   0  0  0  0  0  0  0  0  0  0  0  0
   -3.0981    1.2171   -0.2821 N   0  0  0  0  0  0  0  0  0  0  0  0
   -4.1794    1.5947    0.4539 C   0  0  0  0  0  0  0  0  0  0  0  0
   -4.5719    0.4998    1.2288 C   0  0  0  0  0  0  0  0  0  0  0  0
   -3.7271   -0.5137    0.9499 N   0  0  0  0  0  0  0  0  0  0  0  0
    0.6979   -0.6724    3.4606 H   0  0  0  0  0  0  0  0  0  0  0  0
   -1.4106   -1.0627    2.2807 H   0  0  0  0  0  0  0  0  0  0  0  0
    2.6716   -0.0738    2.2367 H   0  0  0  0  0  0  0  0  0  0  0  0
    4.4004    0.4868    1.3662 H   0  0  0  0  0  0  0  0  0  0  0  0
    6.2000    1.0590   -0.4148 H   0  0  0  0  0  0  0  0  0  0  0  0
    2.6917    0.3169   -2.4653 H   0  0  0  0  0  0  0  0  0  0  0  0
    0.4042    0.7489   -2.2954 H   0  0  0  0  0  0  0  0  0  0  0  0
    0.7307   -1.0079   -2.4305 H   0  0  0  0  0  0  0  0  0  0  0  0
   -1.8116    0.4783   -2.2732 H   0  0  0  0  0  0  0  0  0  0  0  0
   -1.5019   -1.2319   -2.6125 H   0  0  0  0  0  0  0  0  0  0  0  0
   -1.9751   -1.9413   -0.5128 H   0  0  0  0  0  0  0  0  0  0  0  0
   -4.6597    2.5803    0.4437 H   0  0  0  0  0  0  0  0  0  0  0  0
   -5.4151    0.4957    1.9259 H   0  0  0  0  0  0  0  0  0  0  0  0
   -3.7396   -1.4827    1.3595 H   0  0  0  0  0  0  0  0  0  0  0  0
  1  2  2  0
  2  3  1  0
  3  4  2  0
  4  5  1  0
  5  6  2  0
  5  7  1  0
  7  8  2  0
  8  9  1  0
  9 10  2  0
 10 11  1  0
  4 12  1  0
 12 13  1  0
 13 14  1  0
 14 15  1  0
 15 16  2  0
 16 17  1  0
 17 18  2  0
 18 19  1  0
  6  1  1  0
 11  7  1  0
 19 15  1  0
 14  3  1  0
  1 20  1  0
  2 21  1  0
  6 22  1  0
  8 23  1  0
  9 24  1  0
 11 25  1  0
 12 26  1  0
 12 27  1  0
 13 28  1  0
 13 29  1  0
 14 30  1  0
 17 31  1  0
 18 32  1  0
 19 33  1  0
M  END
>  <Ligand ID>  (1) 
LIG0001339

>  <Ligand>  (1) 
CHEMBL256983

>  <SMILES>  (1) 
c1cc2c(c(c1)c1ccn[nH]1)CCC2c1ncc[nH]1

>  <CID>  (1) 
44449245.0

>  <ChEMBL ID>  (1) 
nan

>  <InChiKey>  (1) 
VFOKHHLQWNICHU-UHFFFAOYSA-N

>  <InChi>  (1) 
InChI=1S/C15H14N4/c1-2-10-11(12(3-1)14-6-7-18-19-14)4-5-13(10)15-16-8-9-17-15/h1-3,6-9,13H,4-5H2,(H,16,17)(H,18,19)

>  <IUPAC Name>  (1) 
2-[4-(1H-pyrazol-5-yl)-2,3-dihydro-1H-inden-1-yl]-1H-imidazole

$$$$
