
     RDKit          3D

 54 57  0  0  0  0  0  0  0  0999 V2000
   -1.9423    0.8677   -1.5901 O   0  0  0  0  0  0  0  0  0  0  0  0
   -1.8333    0.0468   -0.5925 C   0  0  0  0  0  0  0  0  0  0  0  0
   -3.1251   -0.2314    0.0592 C   0  0  0  0  0  0  0  0  0  0  0  0
   -4.3398   -0.2386   -0.8243 C   0  0  0  0  0  0  0  0  0  0  0  0
   -4.1536    0.8628    0.1424 C   0  0  0  0  0  0  0  0  0  0  0  0
   -3.6732    2.2227   -0.2555 C   0  0  0  0  0  0  0  0  0  0  0  0
   -5.0566    0.9027    1.3762 C   0  0  0  0  0  0  0  0  0  0  0  0
   -4.2162    0.0084   -2.2809 C   0  0  0  0  0  0  0  0  0  0  0  0
   -5.3647   -1.3385   -0.4967 C   0  0  0  0  0  0  0  0  0  0  0  0
   -0.5154   -0.4263   -0.3137 C   0  0  0  0  0  0  0  0  0  0  0  0
    0.6063   -0.0409   -1.0593 C   0  0  0  0  0  0  0  0  0  0  0  0
    1.7071   -0.6322   -0.5816 N   0  0  0  0  0  0  0  0  0  0  0  0
    1.3877   -1.4066    0.4593 C   0  0  0  0  0  0  0  0  0  0  0  0
    0.0071   -1.2797    0.6272 C   0  0  0  0  0  0  0  0  0  0  0  0
   -0.5415   -1.9997    1.6488 C   0  0  0  0  0  0  0  0  0  0  0  0
    0.1908   -2.8096    2.4796 C   0  0  0  0  0  0  0  0  0  0  0  0
    1.5425   -2.9389    2.3205 C   0  0  0  0  0  0  0  0  0  0  0  0
    2.1374   -2.2288    1.3004 C   0  0  0  0  0  0  0  0  0  0  0  0
    3.0295   -0.4493   -1.1025 C   0  0  0  0  0  0  0  0  0  0  0  0
    3.7828    0.7019   -0.5357 C   0  0  0  0  0  0  0  0  0  0  0  0
    5.1606    0.8475   -1.1120 C   0  0  0  0  0  0  0  0  0  0  0  0
    6.1589    1.4902   -0.2341 C   0  0  0  0  0  0  0  0  0  0  0  0
    5.8482    1.7444    1.0522 O   0  0  0  0  0  0  0  0  0  0  0  0
    4.5416    1.8749    1.3979 C   0  0  0  0  0  0  0  0  0  0  0  0
    3.8213    0.5939    0.9669 C   0  0  0  0  0  0  0  0  0  0  0  0
   -3.1804   -0.9157    0.9183 H   0  0  0  0  0  0  0  0  0  0  0  0
   -2.6074    2.3053    0.1141 H   0  0  0  0  0  0  0  0  0  0  0  0
   -4.2832    3.0156    0.2481 H   0  0  0  0  0  0  0  0  0  0  0  0
   -3.6470    2.4285   -1.3273 H   0  0  0  0  0  0  0  0  0  0  0  0
   -4.6278    1.6632    2.0573 H   0  0  0  0  0  0  0  0  0  0  0  0
   -5.1079   -0.0836    1.8895 H   0  0  0  0  0  0  0  0  0  0  0  0
   -6.0688    1.2174    1.0497 H   0  0  0  0  0  0  0  0  0  0  0  0
   -5.1999   -0.2731   -2.7711 H   0  0  0  0  0  0  0  0  0  0  0  0
   -3.4277   -0.6161   -2.7710 H   0  0  0  0  0  0  0  0  0  0  0  0
   -4.0356    1.0327   -2.6136 H   0  0  0  0  0  0  0  0  0  0  0  0
   -6.0452   -1.0067    0.3320 H   0  0  0  0  0  0  0  0  0  0  0  0
   -4.7753   -2.1969   -0.1141 H   0  0  0  0  0  0  0  0  0  0  0  0
   -5.9547   -1.6345   -1.3691 H   0  0  0  0  0  0  0  0  0  0  0  0
    0.6432    0.6342   -1.9105 H   0  0  0  0  0  0  0  0  0  0  0  0
   -1.5898   -1.9335    1.8145 H   0  0  0  0  0  0  0  0  0  0  0  0
   -0.3016   -3.3630    3.2816 H   0  0  0  0  0  0  0  0  0  0  0  0
    2.1412   -3.5702    2.9612 H   0  0  0  0  0  0  0  0  0  0  0  0
    3.2047   -2.3475    1.1903 H   0  0  0  0  0  0  0  0  0  0  0  0
    2.9430   -0.2840   -2.2076 H   0  0  0  0  0  0  0  0  0  0  0  0
    3.6158   -1.3734   -0.9226 H   0  0  0  0  0  0  0  0  0  0  0  0
    3.2126    1.6567   -0.7419 H   0  0  0  0  0  0  0  0  0  0  0  0
    5.5039   -0.1784   -1.3733 H   0  0  0  0  0  0  0  0  0  0  0  0
    5.0480    1.3696   -2.0931 H   0  0  0  0  0  0  0  0  0  0  0  0
    6.4596    2.4582   -0.7023 H   0  0  0  0  0  0  0  0  0  0  0  0
    7.1177    0.8988   -0.2247 H   0  0  0  0  0  0  0  0  0  0  0  0
    4.0905    2.7322    0.9001 H   0  0  0  0  0  0  0  0  0  0  0  0
    4.4891    1.9489    2.5115 H   0  0  0  0  0  0  0  0  0  0  0  0
    4.4128   -0.2986    1.2287 H   0  0  0  0  0  0  0  0  0  0  0  0
    2.8102    0.5701    1.3972 H   0  0  0  0  0  0  0  0  0  0  0  0
  1  2  2  0
  2  3  1  0
  3  4  1  0
  4  5  1  0
  5  6  1  0
  5  7  1  0
  4  8  1  0
  4  9  1  0
  2 10  1  0
 10 11  2  0
 11 12  1  0
 12 13  1  0
 13 14  2  0
 14 15  1  0
 15 16  2  0
 16 17  1  0
 17 18  2  0
 12 19  1  0
 19 20  1  0
 20 21  1  0
 21 22  1  0
 22 23  1  0
 23 24  1  0
 24 25  1  0
  5  3  1  0
 14 10  1  0
 25 20  1  0
 18 13  1  0
  3 26  1  0
  6 27  1  0
  6 28  1  0
  6 29  1  0
  7 30  1  0
  7 31  1  0
  7 32  1  0
  8 33  1  0
  8 34  1  0
  8 35  1  0
  9 36  1  0
  9 37  1  0
  9 38  1  0
 11 39  1  0
 15 40  1  0
 16 41  1  0
 17 42  1  0
 18 43  1  0
 19 44  1  0
 19 45  1  0
 20 46  1  0
 21 47  1  0
 21 48  1  0
 22 49  1  0
 22 50  1  0
 24 51  1  0
 24 52  1  0
 25 53  1  0
 25 54  1  0
M  END
>  <Ligand ID>  (1) 
LIG0001656

>  <Ligand>  (1) 
895155-57-4

>  <SMILES>  (1) 
O=C(C1C(C1(C)C)(C)C)c1cn(c2c1cccc2)CC1CCOCC1

>  <CID>  (1) 
11544639.0

>  <ChEMBL ID>  (1) 
nan

>  <InChiKey>  (1) 
NQTMRZNYLIGQCF-UHFFFAOYSA-N

>  <InChi>  (1) 
InChI=1S/C22H29NO2/c1-21(2)20(22(21,3)4)19(24)17-14-23(13-15-9-11-25-12-10-15)18-8-6-5-7-16(17)18/h5-8,14-15,20H,9-13H2,1-4H3

>  <IUPAC Name>  (1) 
[1-(oxan-4-ylmethyl)indol-3-yl]-(2,2,3,3-tetramethylcyclopropyl)methanone

$$$$
