
     RDKit          3D

 82 84  0  0  0  0  0  0  0  0999 V2000
   10.5601    1.5668    1.9631 C   0  0  0  0  0  0  0  0  0  0  0  0
    9.0918    1.9384    1.9410 C   0  0  0  0  0  0  0  0  0  0  0  0
    8.5196    1.3751    0.6190 C   0  0  0  0  0  0  0  0  0  0  0  0
    9.2950    2.0421   -0.4773 C   0  0  0  0  0  0  0  0  0  0  0  0
    8.8124    1.6504   -1.8286 C   0  0  0  0  0  0  0  0  0  0  0  0
    8.9334    0.2238   -2.1437 C   0  0  0  0  0  0  0  0  0  0  0  0
    8.2211   -0.7405   -1.3579 N   0  0  0  0  0  0  0  0  0  0  0  0
    6.8297   -0.6735   -1.2893 C   0  0  0  0  0  0  0  0  0  0  0  0
    6.2308    0.2478   -1.8990 O   0  0  0  0  0  0  0  0  0  0  0  0
    5.9917   -1.5922   -0.5687 N   0  0  0  0  0  0  0  0  0  0  0  0
    4.5940   -1.3127   -0.6518 C   0  0  0  0  0  0  0  0  0  0  0  0
    3.9381   -0.6377    0.3526 C   0  0  0  0  0  0  0  0  0  0  0  0
    2.6195   -0.2859    0.3210 C   0  0  0  0  0  0  0  0  0  0  0  0
    1.8790   -0.6345   -0.8167 C   0  0  0  0  0  0  0  0  0  0  0  0
    2.5422   -1.2977   -1.7907 C   0  0  0  0  0  0  0  0  0  0  0  0
    3.8552   -1.6697   -1.7957 C   0  0  0  0  0  0  0  0  0  0  0  0
    0.2010   -0.1804   -0.8424 S   0  0  0  0  0  0  0  0  0  0  0  0
   -0.1560    0.6558    0.3782 O   0  0  0  0  0  0  0  0  0  0  0  0
   -0.1005    0.7048   -2.0461 O   0  0  0  0  0  0  0  0  0  0  0  0
   -0.8663   -1.5168   -0.8208 N   0  0  0  0  0  0  0  0  0  0  0  0
   -1.6796   -1.5671   -1.9893 C   0  0  0  0  0  0  0  0  0  0  0  0
   -2.9360   -0.7364   -1.8311 C   0  0  0  0  0  0  0  0  0  0  0  0
   -3.6488   -1.0333   -0.5516 C   0  0  0  0  0  0  0  0  0  0  0  0
   -2.7548   -1.1822    0.6281 C   0  0  0  0  0  0  0  0  0  0  0  0
   -1.4228   -1.7885    0.4256 C   0  0  0  0  0  0  0  0  0  0  0  0
   -4.7845   -0.1869   -0.2945 N   0  0  0  0  0  0  0  0  0  0  0  0
   -4.4916    1.2040   -0.0897 C   0  0  0  0  0  0  0  0  0  0  0  0
   -5.8551    1.8961    0.1943 C   0  0  1  0  0  0  0  0  0  0  0  0
   -6.5559    1.0887    1.2080 C   0  0  0  0  0  0  0  0  0  0  0  0
   -6.2610    1.1744    2.5828 C   0  0  0  0  0  0  0  0  0  0  0  0
   -6.8885    0.3864    3.5149 C   0  0  0  0  0  0  0  0  0  0  0  0
   -7.8464   -0.5281    3.0822 C   0  0  0  0  0  0  0  0  0  0  0  0
   -8.1656   -0.6501    1.7692 C   0  0  0  0  0  0  0  0  0  0  0  0
   -7.5115    0.1593    0.8821 C   0  0  0  0  0  0  0  0  0  0  0  0
   -9.1242   -1.5648    1.2611 N   0  0  0  0  0  0  0  0  0  0  0  0
   -9.5297   -1.5955   -0.4046 S   0  0  0  0  0  0  0  0  0  0  0  0
  -10.5555   -2.6779   -0.6684 O   0  0  0  0  0  0  0  0  0  0  0  0
   -8.3800   -1.8549   -1.3055 O   0  0  0  0  0  0  0  0  0  0  0  0
  -10.2223    0.0065   -0.8312 C   0  0  0  0  0  0  0  0  0  0  0  0
   -8.4990   -1.3423    4.0236 O   0  0  0  0  0  0  0  0  0  0  0  0
   -5.6997    3.2291    0.4468 O   0  0  0  0  0  0  0  0  0  0  0  0
   11.1189    2.3843    1.4746 H   0  0  0  0  0  0  0  0  0  0  0  0
   10.6941    0.6598    1.3683 H   0  0  0  0  0  0  0  0  0  0  0  0
   10.8987    1.4418    3.0255 H   0  0  0  0  0  0  0  0  0  0  0  0
    8.9568    3.0390    1.8739 H   0  0  0  0  0  0  0  0  0  0  0  0
    8.5614    1.5222    2.8175 H   0  0  0  0  0  0  0  0  0  0  0  0
    7.4445    1.5515    0.6062 H   0  0  0  0  0  0  0  0  0  0  0  0
    8.6837    0.2646    0.6704 H   0  0  0  0  0  0  0  0  0  0  0  0
    9.2854    3.1667   -0.3520 H   0  0  0  0  0  0  0  0  0  0  0  0
   10.3748    1.7220   -0.3372 H   0  0  0  0  0  0  0  0  0  0  0  0
    7.7436    1.9939   -1.9538 H   0  0  0  0  0  0  0  0  0  0  0  0
    9.3512    2.3004   -2.5961 H   0  0  0  0  0  0  0  0  0  0  0  0
    9.9985   -0.1246   -2.2516 H   0  0  0  0  0  0  0  0  0  0  0  0
    8.4901    0.0983   -3.1980 H   0  0  0  0  0  0  0  0  0  0  0  0
    8.6874   -1.5307   -0.8222 H   0  0  0  0  0  0  0  0  0  0  0  0
    6.4101   -2.3809   -0.0465 H   0  0  0  0  0  0  0  0  0  0  0  0
    4.4983   -0.3462    1.2556 H   0  0  0  0  0  0  0  0  0  0  0  0
    2.1158    0.2343    1.1252 H   0  0  0  0  0  0  0  0  0  0  0  0
    1.9664   -1.5677   -2.6919 H   0  0  0  0  0  0  0  0  0  0  0  0
    4.3316   -2.2064   -2.6176 H   0  0  0  0  0  0  0  0  0  0  0  0
   -1.0829   -1.2194   -2.8569 H   0  0  0  0  0  0  0  0  0  0  0  0
   -1.9622   -2.6167   -2.1941 H   0  0  0  0  0  0  0  0  0  0  0  0
   -2.5853    0.3172   -1.7563 H   0  0  0  0  0  0  0  0  0  0  0  0
   -3.5597   -0.8177   -2.7226 H   0  0  0  0  0  0  0  0  0  0  0  0
   -4.1077   -2.0588   -0.7117 H   0  0  0  0  0  0  0  0  0  0  0  0
   -3.2610   -1.8288    1.4311 H   0  0  0  0  0  0  0  0  0  0  0  0
   -2.6318   -0.2079    1.1918 H   0  0  0  0  0  0  0  0  0  0  0  0
   -0.7309   -1.3832    1.2126 H   0  0  0  0  0  0  0  0  0  0  0  0
   -1.4472   -2.9068    0.5923 H   0  0  0  0  0  0  0  0  0  0  0  0
   -5.5595   -0.3771   -0.9426 H   0  0  0  0  0  0  0  0  0  0  0  0
   -3.9330    1.2981    0.8714 H   0  0  0  0  0  0  0  0  0  0  0  0
   -3.9638    1.7235   -0.8756 H   0  0  0  0  0  0  0  0  0  0  0  0
   -6.4733    1.8071   -0.7450 H   0  0  0  0  0  0  0  0  0  0  0  0
   -5.5033    1.8922    2.9321 H   0  0  0  0  0  0  0  0  0  0  0  0
   -6.6883    0.4118    4.5812 H   0  0  0  0  0  0  0  0  0  0  0  0
   -7.7588    0.0819   -0.1753 H   0  0  0  0  0  0  0  0  0  0  0  0
   -9.5959   -2.2439    1.8954 H   0  0  0  0  0  0  0  0  0  0  0  0
   -9.6951    0.4141   -1.7236 H   0  0  0  0  0  0  0  0  0  0  0  0
  -10.0550    0.7334    0.0161 H   0  0  0  0  0  0  0  0  0  0  0  0
  -11.3180   -0.1485   -1.0199 H   0  0  0  0  0  0  0  0  0  0  0  0
   -9.4291   -1.0135    4.3420 H   0  0  0  0  0  0  0  0  0  0  0  0
   -6.4488    3.6206    0.9432 H   0  0  0  0  0  0  0  0  0  0  0  0
  1  2  1  0
  2  3  1  0
  3  4  1  0
  4  5  1  0
  5  6  1  0
  6  7  1  0
  7  8  1  0
  8  9  2  0
  8 10  1  0
 10 11  1  0
 11 12  2  0
 12 13  1  0
 13 14  2  0
 14 15  1  0
 15 16  2  0
 14 17  1  0
 17 18  2  0
 17 19  2  0
 17 20  1  0
 20 21  1  0
 21 22  1  0
 22 23  1  0
 23 24  1  0
 24 25  1  0
 23 26  1  0
 26 27  1  0
 27 28  1  0
 28 29  1  0
 29 30  2  0
 30 31  1  0
 31 32  2  0
 32 33  1  0
 33 34  2  0
 33 35  1  0
 35 36  1  0
 36 37  2  0
 36 38  2  0
 36 39  1  0
 32 40  1  0
 28 41  1  0
 16 11  1  0
 25 20  1  0
 34 29  1  0
  1 42  1  0
  1 43  1  0
  1 44  1  0
  2 45  1  0
  2 46  1  0
  3 47  1  0
  3 48  1  0
  4 49  1  0
  4 50  1  0
  5 51  1  0
  5 52  1  0
  6 53  1  0
  6 54  1  0
  7 55  1  0
 10 56  1  0
 12 57  1  0
 13 58  1  0
 15 59  1  0
 16 60  1  0
 21 61  1  0
 21 62  1  0
 22 63  1  0
 22 64  1  0
 23 65  1  0
 24 66  1  0
 24 67  1  0
 25 68  1  0
 25 69  1  0
 26 70  1  0
 27 71  1  0
 27 72  1  0
 28 73  1  6
 30 74  1  0
 31 75  1  0
 34 76  1  0
 35 77  1  0
 39 78  1  0
 39 79  1  0
 39 80  1  0
 40 81  1  0
 41 82  1  0
M  END
>  <Ligand ID>  (1) 
LIG0004307

>  <Ligand>  (1) 
CHEMBL68766

>  <SMILES>  (1) 
CCCCCCNC(=O)Nc1ccc(cc1)S(=O)(=O)N1CCC(CC1)NC[C@@H](c1ccc(c(c1)NS(=O)(=O)C)O)O

>  <CID>  (1) 
44309272.0

>  <ChEMBL ID>  (1) 
nan

>  <InChiKey>  (1) 
HUEJHSLVYFVRMN-SANMLTNESA-N

>  <InChi>  (1) 
InChI=1S/C27H41N5O7S2/c1-3-4-5-6-15-28-27(35)30-22-8-10-23(11-9-22)41(38,39)32-16-13-21(14-17-32)29-19-26(34)20-7-12-25(33)24(18-20)31-40(2,36)37/h7-12,18,21,26,29,31,33-34H,3-6,13-17,19H2,1-2H3,(H2,28,30,35)/t26-/m0/s1

>  <IUPAC Name>  (1) 
1-hexyl-3-[4-[4-[[(2R)-2-hydroxy-2-[4-hydroxy-3-(methanesulfonamido)phenyl]ethyl]amino]piperidin-1-yl]sulfonylphenyl]urea

$$$$
