
     RDKit          3D

 75 83  0  0  0  0  0  0  0  0999 V2000
    2.5040   -1.6844    4.7699 O   0  0  0  0  0  0  0  0  0  0  0  0
    1.3724   -1.5397    3.9723 C   0  0  0  0  0  0  0  0  0  0  0  0
    0.1792   -2.2124    4.2593 C   0  0  0  0  0  0  0  0  0  0  0  0
   -0.9370   -2.0784    3.4821 C   0  0  0  0  0  0  0  0  0  0  0  0
   -0.9009   -1.2485    2.3650 C   0  0  0  0  0  0  0  0  0  0  0  0
    0.2635   -0.5639    2.0510 C   0  0  0  0  0  0  0  0  0  0  0  0
    1.4122   -0.7028    2.8478 C   0  0  0  0  0  0  0  0  0  0  0  0
    2.7189   -0.1786    2.8097 O   0  0  0  0  0  0  0  0  0  0  0  0
    3.5354    0.0585    1.6500 C   0  0  0  0  0  0  0  0  0  0  0  0
    3.3138   -0.7475    0.5904 O   0  0  0  0  0  0  0  0  0  0  0  0
    2.2168   -0.5758   -0.1978 C   0  0  2  0  0  0  0  0  0  0  0  0
    1.3714    0.6049    0.1141 C   0  0  2  0  0  0  0  0  0  0  0  0
    0.1062    0.3316    0.8308 C   0  0  2  0  0  0  0  0  0  0  0  0
   -0.6427    1.5437    1.2331 C   0  0  0  0  0  0  0  0  0  0  0  0
   -1.8651    1.8699    0.4619 C   0  0  0  0  0  0  0  0  0  0  0  0
   -2.7348    0.7594    0.1307 N   0  0  0  0  0  0  0  0  0  0  0  0
   -2.0521   -0.5126    0.2372 C   0  0  2  0  0  0  0  0  0  0  0  0
   -2.1313   -1.1879    1.5490 C   0  0  0  0  0  0  0  0  0  0  0  0
   -0.6383   -0.4210   -0.2504 C   0  0  2  0  0  0  0  0  0  0  0  0
    0.0090   -1.6943   -0.6340 C   0  0  0  0  0  0  0  0  0  0  0  0
    1.4393   -1.8618   -0.2351 C   0  0  0  0  0  0  0  0  0  0  0  0
   -0.4731    0.4559   -1.3101 O   0  0  0  0  0  0  0  0  0  0  0  0
    0.7808    1.0202   -1.2415 C   0  0  2  0  0  0  0  0  0  0  0  0
    1.7510    0.5495   -2.2266 C   0  0  0  0  0  0  0  0  0  0  0  0
    1.7437    0.9009   -3.4426 O   0  0  0  0  0  0  0  0  0  0  0  0
    2.6548   -0.3388   -1.5626 N   0  0  0  0  0  0  0  0  0  0  0  0
    3.8110   -0.8865   -2.2657 C   0  0  0  0  0  0  0  0  0  0  0  0
    4.9531    0.0407   -2.1150 C   0  0  0  0  0  0  0  0  0  0  0  0
    5.1262    1.0942   -3.0238 C   0  0  0  0  0  0  0  0  0  0  0  0
    6.1928    1.9584   -2.9002 C   0  0  0  0  0  0  0  0  0  0  0  0
    7.1194    1.8209   -1.8895 C   0  0  0  0  0  0  0  0  0  0  0  0
    6.9623    0.7815   -0.9806 C   0  0  0  0  0  0  0  0  0  0  0  0
    5.8945   -0.0852   -1.1030 C   0  0  0  0  0  0  0  0  0  0  0  0
   -3.9134    0.8396    0.9344 C   0  0  0  0  0  0  0  0  0  0  0  0
   -5.0369   -0.0813    0.5775 C   0  0  0  0  0  0  0  0  0  0  0  0
   -5.5853    0.2108   -0.7847 C   0  0  0  0  0  0  0  0  0  0  0  0
   -6.6056    1.1764   -0.8072 C   0  0  0  0  0  0  0  0  0  0  0  0
   -7.2032    1.5544   -2.0055 C   0  0  0  0  0  0  0  0  0  0  0  0
   -6.7520    0.9436   -3.1549 C   0  0  0  0  0  0  0  0  0  0  0  0
   -5.7383   -0.0169   -3.1301 C   0  0  0  0  0  0  0  0  0  0  0  0
   -5.1438   -0.3925   -1.9323 C   0  0  0  0  0  0  0  0  0  0  0  0
    2.4660   -2.4381    5.4660 H   0  0  0  0  0  0  0  0  0  0  0  0
    0.2042   -2.8486    5.1480 H   0  0  0  0  0  0  0  0  0  0  0  0
   -1.8425   -2.6313    3.7522 H   0  0  0  0  0  0  0  0  0  0  0  0
    3.6190    1.1459    1.4565 H   0  0  0  0  0  0  0  0  0  0  0  0
    4.5682   -0.2061    2.0332 H   0  0  0  0  0  0  0  0  0  0  0  0
    1.8832    1.4951    0.4802 H   0  0  0  0  0  0  0  0  0  0  0  0
    0.0420    2.4240    1.1821 H   0  0  0  0  0  0  0  0  0  0  0  0
   -0.9556    1.4656    2.3159 H   0  0  0  0  0  0  0  0  0  0  0  0
   -1.6332    2.4818   -0.4677 H   0  0  0  0  0  0  0  0  0  0  0  0
   -2.4565    2.5887    1.0664 H   0  0  0  0  0  0  0  0  0  0  0  0
   -2.5689   -1.1801   -0.5130 H   0  0  0  0  0  0  0  0  0  0  0  0
   -2.9769   -0.8893    2.2082 H   0  0  0  0  0  0  0  0  0  0  0  0
   -2.3776   -2.2983    1.3691 H   0  0  0  0  0  0  0  0  0  0  0  0
   -0.5306   -2.6045   -0.2293 H   0  0  0  0  0  0  0  0  0  0  0  0
   -0.0538   -1.8500   -1.7435 H   0  0  0  0  0  0  0  0  0  0  0  0
    1.5633   -2.5011    0.6700 H   0  0  0  0  0  0  0  0  0  0  0  0
    1.9449   -2.5045   -1.0302 H   0  0  0  0  0  0  0  0  0  0  0  0
    0.6176    2.1315   -1.2651 H   0  0  0  0  0  0  0  0  0  0  0  0
    4.1319   -1.8431   -1.7886 H   0  0  0  0  0  0  0  0  0  0  0  0
    3.5588   -1.0968   -3.3219 H   0  0  0  0  0  0  0  0  0  0  0  0
    4.4334    1.2592   -3.8405 H   0  0  0  0  0  0  0  0  0  0  0  0
    6.3595    2.7880   -3.5867 H   0  0  0  0  0  0  0  0  0  0  0  0
    7.9626    2.5263   -1.8165 H   0  0  0  0  0  0  0  0  0  0  0  0
    7.6769    0.6669   -0.1954 H   0  0  0  0  0  0  0  0  0  0  0  0
    5.8406   -0.8773   -0.3622 H   0  0  0  0  0  0  0  0  0  0  0  0
   -4.3299    1.8812    0.6928 H   0  0  0  0  0  0  0  0  0  0  0  0
   -3.7300    0.9379    2.0342 H   0  0  0  0  0  0  0  0  0  0  0  0
   -5.8776    0.0203    1.2868 H   0  0  0  0  0  0  0  0  0  0  0  0
   -4.6628   -1.1360    0.5622 H   0  0  0  0  0  0  0  0  0  0  0  0
   -6.9529    1.6471    0.1074 H   0  0  0  0  0  0  0  0  0  0  0  0
   -7.9842    2.2988   -1.9738 H   0  0  0  0  0  0  0  0  0  0  0  0
   -7.2197    1.2414   -4.0961 H   0  0  0  0  0  0  0  0  0  0  0  0
   -5.4265   -0.4604   -4.0848 H   0  0  0  0  0  0  0  0  0  0  0  0
   -4.3711   -1.1383   -1.9378 H   0  0  0  0  0  0  0  0  0  0  0  0
  1  2  1  0
  2  3  2  0
  3  4  1  0
  4  5  2  0
  5  6  1  0
  6  7  2  0
  7  8  1  0
  8  9  1  0
  9 10  1  0
 11 10  1  1
 11 12  1  0
 12 13  1  0
 13 14  1  1
 14 15  1  0
 15 16  1  0
 16 17  1  0
 17 18  1  0
 17 19  1  0
 19 20  1  0
 20 21  1  0
 19 22  1  6
 22 23  1  0
 23 24  1  0
 24 25  2  0
 24 26  1  0
 26 27  1  0
 27 28  1  0
 28 29  2  0
 29 30  1  0
 30 31  2  0
 31 32  1  0
 32 33  2  0
 16 34  1  0
 34 35  1  0
 35 36  1  0
 36 37  2  0
 37 38  1  0
 38 39  2  0
 39 40  1  0
 40 41  2  0
  7  2  1  0
 21 11  1  0
 33 28  1  0
 41 36  1  0
 18  5  1  0
 13  6  1  0
 26 11  1  0
 23 12  1  0
 19 13  1  0
  1 42  1  0
  3 43  1  0
  4 44  1  0
  9 45  1  0
  9 46  1  0
 12 47  1  1
 14 48  1  0
 14 49  1  0
 15 50  1  0
 15 51  1  0
 17 52  1  6
 18 53  1  0
 18 54  1  0
 20 55  1  0
 20 56  1  0
 21 57  1  0
 21 58  1  0
 23 59  1  1
 27 60  1  0
 27 61  1  0
 29 62  1  0
 30 63  1  0
 31 64  1  0
 32 65  1  0
 33 66  1  0
 34 67  1  0
 34 68  1  0
 35 69  1  0
 35 70  1  0
 37 71  1  0
 38 72  1  0
 39 73  1  0
 40 74  1  0
 41 75  1  0
M  END
>  <Ligand ID>  (1) 
LIG0002888

>  <Ligand>  (1) 
CHEMBL3264746

>  <SMILES>  (1) 
Oc1ccc2c3c1OCO[C@]14[C@@H]5[C@@]63CCN([C@H](C2)[C@@]6(CC1)O[C@@H]5C(=O)N4Cc1ccccc1)CCc1ccccc1

>  <CID>  (1) 
90655827.0

>  <ChEMBL ID>  (1) 
nan

>  <InChiKey>  (1) 
BOWOPEVIHUYMAZ-KRGIVBCISA-N

>  <InChi>  (1) 
InChI=1S/C34H34N2O5/c37-25-12-11-24-19-26-33-14-15-34-30(29(41-33)31(38)36(34)20-23-9-5-2-6-10-23)32(33,27(24)28(25)39-21-40-34)16-18-35(26)17-13-22-7-3-1-4-8-22/h1-12,26,29-30,37H,13-21H2/t26-,29+,30+,32+,33-,34+/m1/s1

>  <IUPAC Name>  (1) 
(1S,11R,15R,16R,17S,19S)-22-benzyl-6-hydroxy-12-(2-phenylethyl)-2,4,18-trioxa-12,22-diazaheptacyclo[15.4.2.15,9.01,16.011,19.015,19.015,24]tetracosa-5,7,9(24)-trien-23-one

$$$$
