
     RDKit          3D

127129  0  0  0  0  0  0  0  0999 V2000
    6.4031   -3.0766    2.6903 N   0  0  0  0  0  0  0  0  0  0  0  0
    6.4852   -3.7689    1.4205 C   0  0  0  0  0  0  0  0  0  0  0  0
    7.6489   -3.2518    0.5855 C   0  0  0  0  0  0  0  0  0  0  0  0
    7.5917   -1.8224    0.2558 C   0  0  1  0  0  0  0  0  0  0  0  0
    8.8125   -1.4948   -0.5701 C   0  0  0  0  0  0  0  0  0  0  0  0
    8.5725   -0.8862   -1.6490 O   0  0  0  0  0  0  0  0  0  0  0  0
   10.1192   -1.8521   -0.1474 N   0  0  0  0  0  0  0  0  0  0  0  0
   11.2653   -1.5068   -0.9876 C   0  0  0  0  0  0  0  0  0  0  0  0
   11.2721   -0.0315   -1.1215 C   0  0  0  0  0  0  0  0  0  0  0  0
   10.3794    0.6872   -0.5566 O   0  0  0  0  0  0  0  0  0  0  0  0
   12.2493    0.6673   -1.8704 N   0  0  0  0  0  0  0  0  0  0  0  0
    6.4775   -1.3138   -0.4470 N   0  0  0  0  0  0  0  0  0  0  0  0
    5.8666   -0.1067   -0.0401 C   0  0  0  0  0  0  0  0  0  0  0  0
    6.3697    0.4818    0.9742 O   0  0  0  0  0  0  0  0  0  0  0  0
    4.7029    0.4665   -0.7427 C   0  0  2  0  0  0  0  0  0  0  0  0
    5.0630    0.6678   -2.2277 C   0  0  0  0  0  0  0  0  0  0  0  0
    6.0182    1.8282   -2.1093 C   0  0  0  0  0  0  0  0  0  0  0  0
    5.6273    2.5779   -0.8533 C   0  0  0  0  0  0  0  0  0  0  0  0
    4.4370    1.8341   -0.3925 N   0  0  0  0  0  0  0  0  0  0  0  0
    3.3542    2.4995    0.2173 C   0  0  0  0  0  0  0  0  0  0  0  0
    3.5142    3.7832    0.3174 O   0  0  0  0  0  0  0  0  0  0  0  0
    2.1249    1.9617    0.7274 C   0  0  2  0  0  0  0  0  0  0  0  0
    1.6848    2.4325    2.0945 C   0  0  0  0  0  0  0  0  0  0  0  0
    1.3417    4.1699    2.2485 S   0  0  0  0  0  0  0  0  0  0  0  0
   -0.2545    4.8780    1.0816 S   0  0  0  0  0  0  0  0  0  0  0  0
   -1.8763    4.7228    1.9459 C   0  0  0  0  0  0  0  0  0  0  0  0
   -2.1401    3.2299    1.9723 C   0  0  2  0  0  0  0  0  0  0  0  0
   -2.2012    2.8564    0.5416 N   0  0  0  0  0  0  0  0  0  0  0  0
   -3.4430    2.9313    2.5798 C   0  0  0  0  0  0  0  0  0  0  0  0
   -3.6459    2.9289    3.8006 O   0  0  0  0  0  0  0  0  0  0  0  0
   -4.6295    2.6122    1.7936 N   0  0  0  0  0  0  0  0  0  0  0  0
   -5.8500    2.2262    2.4815 C   0  0  1  0  0  0  0  0  0  0  0  0
   -6.8139    3.3830    2.2723 C   0  0  0  0  0  0  0  0  0  0  0  0
   -8.1217    3.1439    2.9202 C   0  0  0  0  0  0  0  0  0  0  0  0
   -9.1551    4.0767    2.8534 C   0  0  0  0  0  0  0  0  0  0  0  0
  -10.2393    3.5862    3.5410 C   0  0  0  0  0  0  0  0  0  0  0  0
   -9.8192    2.3389    4.0160 C   0  0  0  0  0  0  0  0  0  0  0  0
   -8.5864    2.1601    3.6142 O   0  0  0  0  0  0  0  0  0  0  0  0
   -6.3529    0.9830    1.8554 C   0  0  0  0  0  0  0  0  0  0  0  0
   -7.1998    0.2863    2.4337 O   0  0  0  0  0  0  0  0  0  0  0  0
   -5.9382    0.4958    0.5825 N   0  0  0  0  0  0  0  0  0  0  0  0
   -6.3548   -0.7537   -0.0111 C   0  0  2  0  0  0  0  0  0  0  0  0
   -5.2406   -1.4813   -0.6926 C   0  0  0  0  0  0  0  0  0  0  0  0
   -5.3506   -2.6216   -1.1778 O   0  0  0  0  0  0  0  0  0  0  0  0
   -3.9640   -0.8949   -0.8306 N   0  0  0  0  0  0  0  0  0  0  0  0
   -2.8320   -1.5610   -1.5556 C   0  0  2  0  0  0  0  0  0  0  0  0
   -1.6398   -1.4532   -0.7094 C   0  0  0  0  0  0  0  0  0  0  0  0
   -1.7958   -0.8764    0.4098 O   0  0  0  0  0  0  0  0  0  0  0  0
   -0.3289   -1.8956   -0.9488 N   0  0  0  0  0  0  0  0  0  0  0  0
    0.7040   -1.6185    0.0647 C   0  0  2  0  0  0  0  0  0  0  0  0
    0.9889   -0.1382   -0.0426 C   0  0  0  0  0  0  0  0  0  0  0  0
    0.3908    0.5973   -0.8363 O   0  0  0  0  0  0  0  0  0  0  0  0
    1.9727    0.5091    0.7670 N   0  0  0  0  0  0  0  0  0  0  0  0
    1.8738   -2.4909    0.0256 C   0  0  0  0  0  0  0  0  0  0  0  0
    1.5056   -3.9280    0.2356 C   0  0  0  0  0  0  0  0  0  0  0  0
    0.2803   -4.1722    0.4283 O   0  0  0  0  0  0  0  0  0  0  0  0
    2.4361   -4.9785    0.2270 N   0  0  0  0  0  0  0  0  0  0  0  0
   -2.7417   -0.9171   -2.9119 C   0  0  0  0  0  0  0  0  0  0  0  0
   -1.6783   -1.4748   -3.7557 C   0  0  0  0  0  0  0  0  0  0  0  0
   -1.8112   -2.9173   -4.0301 C   0  0  0  0  0  0  0  0  0  0  0  0
   -2.7570   -3.6433   -3.6899 O   0  0  0  0  0  0  0  0  0  0  0  0
   -0.7436   -3.5438   -4.7630 N   0  0  0  0  0  0  0  0  0  0  0  0
   -7.3408   -0.4567   -1.1432 C   0  0  2  0  0  0  0  0  0  0  0  0
   -8.5764    0.2512   -0.7204 C   0  0  0  0  0  0  0  0  0  0  0  0
   -9.4012   -0.5040    0.2661 C   0  0  0  0  0  0  0  0  0  0  0  0
   -7.7715   -1.7888   -1.7329 C   0  0  0  0  0  0  0  0  0  0  0  0
    7.3321   -2.8673    3.1125 H   0  0  0  0  0  0  0  0  0  0  0  0
    5.8810   -2.1802    2.5494 H   0  0  0  0  0  0  0  0  0  0  0  0
    6.7036   -4.8372    1.6688 H   0  0  0  0  0  0  0  0  0  0  0  0
    5.5218   -3.6282    0.9208 H   0  0  0  0  0  0  0  0  0  0  0  0
    7.8438   -3.9267   -0.2834 H   0  0  0  0  0  0  0  0  0  0  0  0
    8.5452   -3.4017    1.2485 H   0  0  0  0  0  0  0  0  0  0  0  0
    7.7439   -1.2225    1.1892 H   0  0  0  0  0  0  0  0  0  0  0  0
   10.2205   -2.3551    0.7619 H   0  0  0  0  0  0  0  0  0  0  0  0
   12.2020   -1.9087   -0.5855 H   0  0  0  0  0  0  0  0  0  0  0  0
   11.0702   -1.9155   -1.9966 H   0  0  0  0  0  0  0  0  0  0  0  0
   12.5801    1.6096   -1.5230 H   0  0  0  0  0  0  0  0  0  0  0  0
   12.6843    0.3388   -2.7463 H   0  0  0  0  0  0  0  0  0  0  0  0
    6.0757   -1.8088   -1.2817 H   0  0  0  0  0  0  0  0  0  0  0  0
    3.8071   -0.1947   -0.6670 H   0  0  0  0  0  0  0  0  0  0  0  0
    4.1167    0.9698   -2.7279 H   0  0  0  0  0  0  0  0  0  0  0  0
    5.4757   -0.2347   -2.6757 H   0  0  0  0  0  0  0  0  0  0  0  0
    7.0359    1.3922   -2.0637 H   0  0  0  0  0  0  0  0  0  0  0  0
    5.9421    2.5009   -3.0117 H   0  0  0  0  0  0  0  0  0  0  0  0
    6.3963    2.5351   -0.0795 H   0  0  0  0  0  0  0  0  0  0  0  0
    5.3723    3.6372   -1.0756 H   0  0  0  0  0  0  0  0  0  0  0  0
    1.3045    2.3792    0.0361 H   0  0  0  0  0  0  0  0  0  0  0  0
    2.5351    2.1695    2.7743 H   0  0  0  0  0  0  0  0  0  0  0  0
    0.8174    1.7713    2.3920 H   0  0  0  0  0  0  0  0  0  0  0  0
   -2.6245    5.1995    1.2816 H   0  0  0  0  0  0  0  0  0  0  0  0
   -1.8606    5.1977    2.9280 H   0  0  0  0  0  0  0  0  0  0  0  0
   -1.3338    2.7180    2.4981 H   0  0  0  0  0  0  0  0  0  0  0  0
   -2.7961    3.5507    0.0384 H   0  0  0  0  0  0  0  0  0  0  0  0
   -2.6401    1.9277    0.4283 H   0  0  0  0  0  0  0  0  0  0  0  0
   -4.4866    2.7061    0.7986 H   0  0  0  0  0  0  0  0  0  0  0  0
   -5.7074    2.1539    3.5688 H   0  0  0  0  0  0  0  0  0  0  0  0
   -6.3776    4.3199    2.7058 H   0  0  0  0  0  0  0  0  0  0  0  0
   -6.9935    3.6191    1.2128 H   0  0  0  0  0  0  0  0  0  0  0  0
   -9.1275    5.0482    2.3414 H   0  0  0  0  0  0  0  0  0  0  0  0
  -11.2236    4.0395    3.7025 H   0  0  0  0  0  0  0  0  0  0  0  0
  -10.4697    1.7060    4.6027 H   0  0  0  0  0  0  0  0  0  0  0  0
   -5.3136    1.1053    0.0646 H   0  0  0  0  0  0  0  0  0  0  0  0
   -6.8738   -1.4432    0.6581 H   0  0  0  0  0  0  0  0  0  0  0  0
   -3.7997    0.0063   -0.4183 H   0  0  0  0  0  0  0  0  0  0  0  0
   -3.1381   -2.5943   -1.6824 H   0  0  0  0  0  0  0  0  0  0  0  0
   -0.1198   -2.4070   -1.7831 H   0  0  0  0  0  0  0  0  0  0  0  0
    0.1304   -1.7351    1.0363 H   0  0  0  0  0  0  0  0  0  0  0  0
    2.5311   -0.1158    1.3459 H   0  0  0  0  0  0  0  0  0  0  0  0
    2.5316   -2.2458    0.8958 H   0  0  0  0  0  0  0  0  0  0  0  0
    2.5068   -2.4051   -0.8787 H   0  0  0  0  0  0  0  0  0  0  0  0
    3.1112   -5.1363    1.0312 H   0  0  0  0  0  0  0  0  0  0  0  0
    2.5402   -5.6782   -0.5540 H   0  0  0  0  0  0  0  0  0  0  0  0
   -3.7279   -1.1560   -3.4119 H   0  0  0  0  0  0  0  0  0  0  0  0
   -2.7500    0.1932   -2.8483 H   0  0  0  0  0  0  0  0  0  0  0  0
   -0.6409   -1.1355   -3.5553 H   0  0  0  0  0  0  0  0  0  0  0  0
   -1.8618   -1.0003   -4.8057 H   0  0  0  0  0  0  0  0  0  0  0  0
   -0.3610   -4.4761   -4.4259 H   0  0  0  0  0  0  0  0  0  0  0  0
   -0.3373   -3.0852   -5.6301 H   0  0  0  0  0  0  0  0  0  0  0  0
   -6.7953    0.1244   -1.8967 H   0  0  0  0  0  0  0  0  0  0  0  0
   -8.3951    1.3110   -0.4155 H   0  0  0  0  0  0  0  0  0  0  0  0
   -9.2106    0.3529   -1.6458 H   0  0  0  0  0  0  0  0  0  0  0  0
  -10.4002   -0.8300   -0.1528 H   0  0  0  0  0  0  0  0  0  0  0  0
   -9.6458    0.1053    1.1666 H   0  0  0  0  0  0  0  0  0  0  0  0
   -8.8924   -1.4465    0.5432 H   0  0  0  0  0  0  0  0  0  0  0  0
   -8.8329   -1.7401   -2.0901 H   0  0  0  0  0  0  0  0  0  0  0  0
   -7.0900   -2.0118   -2.5754 H   0  0  0  0  0  0  0  0  0  0  0  0
   -7.6699   -2.5981   -0.9883 H   0  0  0  0  0  0  0  0  0  0  0  0
  1  2  1  0
  2  3  1  0
  3  4  1  0
  4  5  1  0
  5  6  2  0
  5  7  1  0
  7  8  1  0
  8  9  1  0
  9 10  2  0
  9 11  1  0
  4 12  1  0
 12 13  1  0
 13 14  2  0
 13 15  1  0
 15 16  1  0
 16 17  1  0
 17 18  1  0
 18 19  1  0
 19 20  1  0
 20 21  2  0
 20 22  1  0
 22 23  1  0
 23 24  1  0
 24 25  1  0
 25 26  1  0
 26 27  1  0
 27 28  1  0
 27 29  1  0
 29 30  2  0
 29 31  1  0
 31 32  1  0
 32 33  1  0
 33 34  1  0
 34 35  2  0
 35 36  1  0
 36 37  2  0
 37 38  1  0
 32 39  1  0
 39 40  2  0
 39 41  1  0
 41 42  1  0
 42 43  1  0
 43 44  2  0
 43 45  1  0
 45 46  1  0
 46 47  1  0
 47 48  2  0
 47 49  1  0
 49 50  1  0
 50 51  1  0
 51 52  2  0
 51 53  1  0
 50 54  1  0
 54 55  1  0
 55 56  2  0
 55 57  1  0
 46 58  1  0
 58 59  1  0
 59 60  1  0
 60 61  2  0
 60 62  1  0
 42 63  1  0
 63 64  1  0
 64 65  1  0
 63 66  1  0
 19 15  1  0
 53 22  1  0
 38 34  1  0
  1 67  1  0
  1 68  1  0
  2 69  1  0
  2 70  1  0
  3 71  1  0
  3 72  1  0
  4 73  1  1
  7 74  1  0
  8 75  1  0
  8 76  1  0
 11 77  1  0
 11 78  1  0
 12 79  1  0
 15 80  1  6
 16 81  1  0
 16 82  1  0
 17 83  1  0
 17 84  1  0
 18 85  1  0
 18 86  1  0
 22 87  1  6
 23 88  1  0
 23 89  1  0
 26 90  1  0
 26 91  1  0
 27 92  1  1
 28 93  1  0
 28 94  1  0
 31 95  1  0
 32 96  1  1
 33 97  1  0
 33 98  1  0
 35 99  1  0
 36100  1  0
 37101  1  0
 41102  1  0
 42103  1  1
 45104  1  0
 46105  1  6
 49106  1  0
 50107  1  1
 53108  1  0
 54109  1  0
 54110  1  0
 57111  1  0
 57112  1  0
 58113  1  0
 58114  1  0
 59115  1  0
 59116  1  0
 62117  1  0
 62118  1  0
 63119  1  6
 64120  1  0
 64121  1  0
 65122  1  0
 65123  1  0
 65124  1  0
 66125  1  0
 66126  1  0
 66127  1  0
M  END
>  <Ligand ID>  (1) 
LIG0001609

>  <Ligand>  (1) 
CHEMBL1819550

>  <SMILES>  (1) 
NCC[C@@H](C(=O)NCC(=O)N)NC(=O)[C@@H]1CCCN1C(=O)[C@@H]1CSSC[C@H](N)C(=O)N[C@@H](Cc2ccco2)C(=O)N[C@H](C(=O)N[C@H](C(=O)N[C@H](C(=O)N1)CC(=O)N)CCC(=O)N)[C@H](CC)C

>  <CID>  (1) 
53362909.0

>  <ChEMBL ID>  (1) 
nan

>  <InChiKey>  (1) 
VAVWOSPTJIOXLQ-DSMBUKBGSA-N

>  <InChi>  (1) 
InChI=1S/C39H61N13O12S2/c1-3-19(2)31-38(62)47-22(8-9-28(42)53)34(58)49-25(15-29(43)54)35(59)50-26(18-66-65-17-21(41)32(56)48-24(36(60)51-31)14-20-6-5-13-64-20)39(63)52-12-4-7-27(52)37(61)46-23(10-11-40)33(57)45-16-30(44)55/h5-6,13,19,21-27,31H,3-4,7-12,14-18,40-41H2,1-2H3,(H2,42,53)(H2,43,54)(H2,44,55)(H,45,57)(H,46,61)(H,47,62)(H,48,56)(H,49,58)(H,50,59)(H,51,60)/t19-,21-,22-,23-,24-,25-,26-,27-,31-/m0/s1

>  <IUPAC Name>  (1) 
(2S)-N-[(2S)-4-amino-1-[(2-amino-2-oxoethyl)amino]-1-oxobutan-2-yl]-1-[(4R,7S,10S,13S,16S,19R)-19-amino-7-(2-amino-2-oxoethyl)-10-(3-amino-3-oxopropyl)-13-[(2S)-butan-2-yl]-16-(furan-2-ylmethyl)-6,9,12,15,18-pentaoxo-1,2-dithia-5,8,11,14,17-pentazacycloicosane-4-carbonyl]pyrrolidine-2-carboxamide

$$$$
