
     RDKit          3D

 64 68  0  0  0  0  0  0  0  0999 V2000
    1.5992   -3.5695   -2.3701 C   0  0  0  0  0  0  0  0  0  0  0  0
    1.5747   -2.1586   -2.4149 O   0  0  0  0  0  0  0  0  0  0  0  0
    0.6069   -1.4913   -1.6848 C   0  0  0  0  0  0  0  0  0  0  0  0
   -0.3315   -2.1914   -0.9194 C   0  0  0  0  0  0  0  0  0  0  0  0
   -1.2905   -1.5096   -0.2009 C   0  0  0  0  0  0  0  0  0  0  0  0
   -1.3750   -0.1350   -0.1976 C   0  0  0  0  0  0  0  0  0  0  0  0
   -0.4456    0.5477   -0.9546 C   0  0  0  0  0  0  0  0  0  0  0  0
    0.5377   -0.1229   -1.6921 C   0  0  0  0  0  0  0  0  0  0  0  0
    1.5087    0.7419   -2.4579 C   0  0  0  0  0  0  0  0  0  0  0  0
    2.6441    0.9223   -1.8363 O   0  0  0  0  0  0  0  0  0  0  0  0
    3.7888    0.7372   -1.2460 C   0  0  0  0  0  0  0  0  0  0  0  0
    4.3900   -0.5026   -1.0516 C   0  0  0  0  0  0  0  0  0  0  0  0
    5.6069   -0.6517   -0.4189 C   0  0  0  0  0  0  0  0  0  0  0  0
    6.2249    0.4915    0.0258 C   0  0  0  0  0  0  0  0  0  0  0  0
    5.6997    1.7531   -0.1259 C   0  0  0  0  0  0  0  0  0  0  0  0
    4.4898    1.8636   -0.7586 C   0  0  0  0  0  0  0  0  0  0  0  0
    7.4783    0.3811    0.6815 N   0  0  0  0  0  0  0  0  0  0  0  0
    7.5927    0.2165    2.0767 C   0  0  0  0  0  0  0  0  0  0  0  0
    6.6171    0.1516    2.8678 O   0  0  0  0  0  0  0  0  0  0  0  0
    8.9587    0.1125    2.6524 C   0  0  0  0  0  0  0  0  0  0  0  0
   -2.4241    0.5627    0.5888 C   0  0  0  0  0  0  0  0  0  0  0  0
   -3.0246    1.6179   -0.2001 N   0  0  0  0  0  0  0  0  0  0  0  0
   -3.9774    1.2698   -1.1840 C   0  0  0  0  0  0  0  0  0  0  0  0
   -4.1977    2.1272   -2.2420 C   0  0  0  0  0  0  0  0  0  0  0  0
   -5.1288    1.7823   -3.1999 C   0  0  0  0  0  0  0  0  0  0  0  0
   -5.8015    0.5851   -3.0520 C   0  0  0  0  0  0  0  0  0  0  0  0
   -5.5766   -0.2735   -1.9868 C   0  0  0  0  0  0  0  0  0  0  0  0
   -4.6444    0.0737   -1.0298 C   0  0  0  0  0  0  0  0  0  0  0  0
   -4.3929   -0.8260    0.1073 C   0  0  0  0  0  0  0  0  0  0  0  0
   -4.9866   -1.9062    0.2584 O   0  0  0  0  0  0  0  0  0  0  0  0
   -3.4036   -0.3875    1.0610 N   0  0  0  0  0  0  0  0  0  0  0  0
   -3.4342   -0.9050    2.4159 C   0  0  0  0  0  0  0  0  0  0  0  0
   -4.2909   -0.0126    3.2574 C   0  0  0  0  0  0  0  0  0  0  0  0
   -5.6538   -0.2009    3.4162 C   0  0  0  0  0  0  0  0  0  0  0  0
   -6.0959    0.8059    4.2511 C   0  0  0  0  0  0  0  0  0  0  0  0
   -4.9765    1.5594    4.5599 C   0  0  0  0  0  0  0  0  0  0  0  0
   -3.9127    1.0494    3.9539 O   0  0  0  0  0  0  0  0  0  0  0  0
    1.7995   -3.9123   -1.3144 H   0  0  0  0  0  0  0  0  0  0  0  0
    0.5951   -3.9855   -2.6228 H   0  0  0  0  0  0  0  0  0  0  0  0
    2.3341   -3.9992   -3.0691 H   0  0  0  0  0  0  0  0  0  0  0  0
   -0.3177   -3.2823   -0.8809 H   0  0  0  0  0  0  0  0  0  0  0  0
   -1.9961   -2.0882    0.3772 H   0  0  0  0  0  0  0  0  0  0  0  0
   -0.4977    1.6269   -0.9633 H   0  0  0  0  0  0  0  0  0  0  0  0
    0.9702    1.7135   -2.7196 H   0  0  0  0  0  0  0  0  0  0  0  0
    1.5815    0.2069   -3.4658 H   0  0  0  0  0  0  0  0  0  0  0  0
    3.9248   -1.4154   -1.3938 H   0  0  0  0  0  0  0  0  0  0  0  0
    6.0890   -1.6048   -0.2588 H   0  0  0  0  0  0  0  0  0  0  0  0
    6.1934    2.6453    0.2269 H   0  0  0  0  0  0  0  0  0  0  0  0
    4.0670    2.8518   -0.8836 H   0  0  0  0  0  0  0  0  0  0  0  0
    8.3466    0.4282    0.0712 H   0  0  0  0  0  0  0  0  0  0  0  0
    9.2443   -0.8975    2.9572 H   0  0  0  0  0  0  0  0  0  0  0  0
    8.9572    0.8015    3.5328 H   0  0  0  0  0  0  0  0  0  0  0  0
    9.7563    0.4767    1.9830 H   0  0  0  0  0  0  0  0  0  0  0  0
   -1.9300    1.0215    1.4670 H   0  0  0  0  0  0  0  0  0  0  0  0
   -2.7568    2.6136   -0.0425 H   0  0  0  0  0  0  0  0  0  0  0  0
   -3.6376    3.0692   -2.3160 H   0  0  0  0  0  0  0  0  0  0  0  0
   -5.2971    2.4596   -4.0281 H   0  0  0  0  0  0  0  0  0  0  0  0
   -6.5325    0.3528   -3.8376 H   0  0  0  0  0  0  0  0  0  0  0  0
   -6.1206   -1.2046   -1.9003 H   0  0  0  0  0  0  0  0  0  0  0  0
   -3.8498   -1.9211    2.4639 H   0  0  0  0  0  0  0  0  0  0  0  0
   -2.4141   -0.8834    2.8647 H   0  0  0  0  0  0  0  0  0  0  0  0
   -6.3045   -0.9513    3.0070 H   0  0  0  0  0  0  0  0  0  0  0  0
   -7.1290    0.9602    4.5901 H   0  0  0  0  0  0  0  0  0  0  0  0
   -5.0289    2.4237    5.2056 H   0  0  0  0  0  0  0  0  0  0  0  0
  1  2  1  0
  2  3  1  0
  3  4  2  0
  4  5  1  0
  5  6  2  0
  6  7  1  0
  7  8  2  0
  8  9  1  0
  9 10  1  0
 10 11  1  0
 11 12  2  0
 12 13  1  0
 13 14  2  0
 14 15  1  0
 15 16  2  0
 14 17  1  0
 17 18  1  0
 18 19  2  0
 18 20  1  0
  6 21  1  0
 21 22  1  0
 22 23  1  0
 23 24  2  0
 24 25  1  0
 25 26  2  0
 26 27  1  0
 27 28  2  0
 28 29  1  0
 29 30  2  0
 29 31  1  0
 31 32  1  0
 32 33  1  0
 33 34  2  0
 34 35  1  0
 35 36  2  0
 36 37  1  0
  8  3  1  0
 16 11  1  0
 31 21  1  0
 37 33  1  0
 28 23  1  0
  1 38  1  0
  1 39  1  0
  1 40  1  0
  4 41  1  0
  5 42  1  0
  7 43  1  0
  9 44  1  0
  9 45  1  0
 12 46  1  0
 13 47  1  0
 15 48  1  0
 16 49  1  0
 17 50  1  0
 20 51  1  0
 20 52  1  0
 20 53  1  0
 21 54  1  0
 22 55  1  0
 24 56  1  0
 25 57  1  0
 26 58  1  0
 27 59  1  0
 32 60  1  0
 32 61  1  0
 34 62  1  0
 35 63  1  0
 36 64  1  0
M  END
>  <Ligand ID>  (1) 
LIG0001461

>  <Ligand>  (1) 
SMR000034463

>  <SMILES>  (1) 
COc1ccc(cc1COc1ccc(cc1)NC(=O)C)C1Nc2ccccc2C(=O)N1Cc1ccco1

>  <CID>  (1) 
661788.0

>  <ChEMBL ID>  (1) 
nan

>  <InChiKey>  (1) 
QPNJPCYYDZIJJR-UHFFFAOYSA-N

>  <InChi>  (1) 
InChI=1S/C29H27N3O5/c1-19(33)30-22-10-12-23(13-11-22)37-18-21-16-20(9-14-27(21)35-2)28-31-26-8-4-3-7-25(26)29(34)32(28)17-24-6-5-15-36-24/h3-16,28,31H,17-18H2,1-2H3,(H,30,33)

>  <IUPAC Name>  (1) 
N-[4-[[5-[3-(furan-2-ylmethyl)-4-oxo-1,2-dihydroquinazolin-2-yl]-2-methoxyphenyl]methoxy]phenyl]acetamide

$$$$
