
     RDKit          3D

 99102  0  0  0  0  0  0  0  0999 V2000
    1.3626    6.0980    4.2895 N   0  0  0  0  0  0  0  0  0  0  0  0
    1.8061    6.5675    3.0250 C   0  0  0  0  0  0  0  0  0  0  0  0
    1.3910    6.0210    1.9469 N   0  0  0  0  0  0  0  0  0  0  0  0
    0.4749    4.9330    2.0241 C   0  0  0  0  0  0  0  0  0  0  0  0
    0.4956    4.0281    0.7951 C   0  0  0  0  0  0  0  0  0  0  0  0
   -0.5250    2.9565    1.0146 C   0  0  0  0  0  0  0  0  0  0  0  0
   -0.6605    1.9801   -0.1813 C   0  0  1  0  0  0  0  0  0  0  0  0
    0.6052    1.3156   -0.4390 C   0  0  0  0  0  0  0  0  0  0  0  0
    0.6846    0.0909   -0.0385 O   0  0  0  0  0  0  0  0  0  0  0  0
    1.7449    1.8512   -1.0679 N   0  0  0  0  0  0  0  0  0  0  0  0
    3.0019    1.1211   -1.2595 C   0  0  1  0  0  0  0  0  0  0  0  0
    3.7141    0.9982    0.0251 C   0  0  0  0  0  0  0  0  0  0  0  0
    3.1185    1.3636    1.0652 O   0  0  0  0  0  0  0  0  0  0  0  0
    5.0343    0.4979    0.1767 N   0  0  0  0  0  0  0  0  0  0  0  0
    2.8209   -0.1795   -1.9541 C   0  0  0  0  0  0  0  0  0  0  0  0
    4.1243   -0.8730   -2.1061 C   0  0  0  0  0  0  0  0  0  0  0  0
    4.9791   -0.6331   -3.1785 C   0  0  0  0  0  0  0  0  0  0  0  0
    6.1787   -1.3197   -3.2807 C   0  0  0  0  0  0  0  0  0  0  0  0
    6.5153   -2.2487   -2.2985 C   0  0  0  0  0  0  0  0  0  0  0  0
    5.6868   -2.5061   -1.2263 C   0  0  0  0  0  0  0  0  0  0  0  0
    4.4958   -1.8192   -1.1330 C   0  0  0  0  0  0  0  0  0  0  0  0
    7.7687   -2.9912   -2.3460 C   0  0  0  0  0  0  0  0  0  0  0  0
    7.9181   -4.2657   -1.8496 C   0  0  0  0  0  0  0  0  0  0  0  0
    9.1418   -4.9052   -1.9264 C   0  0  0  0  0  0  0  0  0  0  0  0
   10.2611   -4.3081   -2.4964 C   0  0  0  0  0  0  0  0  0  0  0  0
   10.1062   -3.0401   -2.9887 C   0  0  0  0  0  0  0  0  0  0  0  0
    8.8834   -2.4066   -2.9098 C   0  0  0  0  0  0  0  0  0  0  0  0
   -1.6892    0.9922    0.2393 N   0  0  0  0  0  0  0  0  0  0  0  0
   -3.0641    1.2368    0.1024 C   0  0  0  0  0  0  0  0  0  0  0  0
   -3.3835    2.3696   -0.4046 O   0  0  0  0  0  0  0  0  0  0  0  0
   -4.1630    0.3530    0.4750 C   0  0  1  0  0  0  0  0  0  0  0  0
   -3.6711   -0.9748    0.8116 N   0  0  0  0  0  0  0  0  0  0  0  0
   -4.6419   -2.0368    0.6234 C   0  0  0  0  0  0  0  0  0  0  0  0
   -5.7609   -1.6597    0.2033 O   0  0  0  0  0  0  0  0  0  0  0  0
   -4.2968   -3.4453    0.9239 C   0  0  2  0  0  0  0  0  0  0  0  0
   -3.1269   -3.8831    0.1112 C   0  0  0  0  0  0  0  0  0  0  0  0
   -3.2652   -3.8446   -1.3404 C   0  0  0  0  0  0  0  0  0  0  0  0
   -4.2485   -3.4913   -2.1715 N   0  0  0  0  0  0  0  0  0  0  0  0
   -3.8839   -3.6420   -3.4670 C   0  0  0  0  0  0  0  0  0  0  0  0
   -2.6293   -4.1059   -3.4542 N   0  0  0  0  0  0  0  0  0  0  0  0
   -2.2221   -4.2407   -2.1917 C   0  0  0  0  0  0  0  0  0  0  0  0
   -5.4155   -4.3321    0.7349 N   0  0  0  0  0  0  0  0  0  0  0  0
   -5.9065   -4.9969    1.9173 C   0  0  0  0  0  0  0  0  0  0  0  0
   -5.3845   -4.8148    3.0499 O   0  0  0  0  0  0  0  0  0  0  0  0
   -7.0678   -5.9387    1.8443 C   0  0  0  0  0  0  0  0  0  0  0  0
   -4.8019    0.9490    1.7566 C   0  0  0  0  0  0  0  0  0  0  0  0
   -5.3181    2.3134    1.5359 C   0  0  0  0  0  0  0  0  0  0  0  0
   -6.6173    2.5096    1.0546 C   0  0  0  0  0  0  0  0  0  0  0  0
   -7.1436    3.7719    0.8548 C   0  0  0  0  0  0  0  0  0  0  0  0
   -6.3697    4.8812    1.1363 C   0  0  0  0  0  0  0  0  0  0  0  0
   -5.0748    4.7327    1.6152 C   0  0  0  0  0  0  0  0  0  0  0  0
   -4.5913    3.4534    1.7996 C   0  0  0  0  0  0  0  0  0  0  0  0
    2.7219    7.6726    3.0366 N   0  0  0  0  0  0  0  0  0  0  0  0
    0.4158    6.4079    4.6076 H   0  0  0  0  0  0  0  0  0  0  0  0
    1.9235    5.4703    4.9074 H   0  0  0  0  0  0  0  0  0  0  0  0
   -0.5588    5.3286    2.0681 H   0  0  0  0  0  0  0  0  0  0  0  0
    0.6263    4.2695    2.9107 H   0  0  0  0  0  0  0  0  0  0  0  0
    0.2649    4.5994   -0.1001 H   0  0  0  0  0  0  0  0  0  0  0  0
    1.5151    3.5697    0.7036 H   0  0  0  0  0  0  0  0  0  0  0  0
   -1.5259    3.4804    1.0219 H   0  0  0  0  0  0  0  0  0  0  0  0
   -0.4484    2.4204    1.9624 H   0  0  0  0  0  0  0  0  0  0  0  0
   -1.0289    2.5744   -0.9874 H   0  0  0  0  0  0  0  0  0  0  0  0
    1.6808    2.8446   -1.4484 H   0  0  0  0  0  0  0  0  0  0  0  0
    3.6547    1.7514   -1.9358 H   0  0  0  0  0  0  0  0  0  0  0  0
    5.7689    0.7040   -0.5635 H   0  0  0  0  0  0  0  0  0  0  0  0
    5.3324   -0.0814    1.0071 H   0  0  0  0  0  0  0  0  0  0  0  0
    2.3672   -0.0287   -2.9610 H   0  0  0  0  0  0  0  0  0  0  0  0
    2.1651   -0.8960   -1.4167 H   0  0  0  0  0  0  0  0  0  0  0  0
    4.7064    0.0895   -3.9336 H   0  0  0  0  0  0  0  0  0  0  0  0
    6.8747   -1.1572   -4.1117 H   0  0  0  0  0  0  0  0  0  0  0  0
    5.9199   -3.2210   -0.4449 H   0  0  0  0  0  0  0  0  0  0  0  0
    3.8235   -2.0172   -0.2801 H   0  0  0  0  0  0  0  0  0  0  0  0
    7.0760   -4.7556   -1.4020 H   0  0  0  0  0  0  0  0  0  0  0  0
    9.3024   -5.9161   -1.5443 H   0  0  0  0  0  0  0  0  0  0  0  0
   11.2032   -4.8240   -2.5452 H   0  0  0  0  0  0  0  0  0  0  0  0
   10.9670   -2.5477   -3.4423 H   0  0  0  0  0  0  0  0  0  0  0  0
    8.8199   -1.4168   -3.3116 H   0  0  0  0  0  0  0  0  0  0  0  0
   -1.3284    0.1062    0.6370 H   0  0  0  0  0  0  0  0  0  0  0  0
   -5.0196    0.3397   -0.2332 H   0  0  0  0  0  0  0  0  0  0  0  0
   -2.7226   -1.1858    1.1591 H   0  0  0  0  0  0  0  0  0  0  0  0
   -4.0173   -3.4427    2.0285 H   0  0  0  0  0  0  0  0  0  0  0  0
   -2.1895   -3.3244    0.3614 H   0  0  0  0  0  0  0  0  0  0  0  0
   -2.8671   -4.9423    0.4327 H   0  0  0  0  0  0  0  0  0  0  0  0
   -5.1813   -3.1450   -1.9027 H   0  0  0  0  0  0  0  0  0  0  0  0
   -4.5311   -3.4117   -4.3255 H   0  0  0  0  0  0  0  0  0  0  0  0
   -1.2448   -4.5997   -1.9152 H   0  0  0  0  0  0  0  0  0  0  0  0
   -5.8980   -4.5392   -0.1505 H   0  0  0  0  0  0  0  0  0  0  0  0
   -7.4474   -6.1666    2.8654 H   0  0  0  0  0  0  0  0  0  0  0  0
   -7.9404   -5.4750    1.3042 H   0  0  0  0  0  0  0  0  0  0  0  0
   -6.8071   -6.8330    1.2496 H   0  0  0  0  0  0  0  0  0  0  0  0
   -5.6058    0.2941    2.1278 H   0  0  0  0  0  0  0  0  0  0  0  0
   -4.0356    1.0168    2.5540 H   0  0  0  0  0  0  0  0  0  0  0  0
   -7.1963    1.6128    0.8445 H   0  0  0  0  0  0  0  0  0  0  0  0
   -8.1679    3.9181    0.4755 H   0  0  0  0  0  0  0  0  0  0  0  0
   -6.8269    5.8475    0.9622 H   0  0  0  0  0  0  0  0  0  0  0  0
   -4.4709    5.6217    1.8354 H   0  0  0  0  0  0  0  0  0  0  0  0
   -3.5908    3.3106    2.1739 H   0  0  0  0  0  0  0  0  0  0  0  0
    2.7513    8.3278    3.8670 H   0  0  0  0  0  0  0  0  0  0  0  0
    3.3792    7.8664    2.2405 H   0  0  0  0  0  0  0  0  0  0  0  0
  1  2  1  0
  2  3  2  3
  3  4  1  0
  4  5  1  0
  5  6  1  0
  6  7  1  0
  7  8  1  0
  8  9  2  0
  8 10  1  0
 10 11  1  0
 11 12  1  0
 12 13  2  0
 12 14  1  0
 11 15  1  0
 15 16  1  0
 16 17  2  0
 17 18  1  0
 18 19  2  0
 19 20  1  0
 20 21  2  0
 19 22  1  0
 22 23  2  0
 23 24  1  0
 24 25  2  0
 25 26  1  0
 26 27  2  0
  7 28  1  0
 28 29  1  0
 29 30  2  0
 29 31  1  0
 31 32  1  0
 32 33  1  0
 33 34  2  0
 33 35  1  0
 35 36  1  0
 36 37  1  0
 37 38  1  0
 38 39  1  0
 39 40  2  0
 40 41  1  0
 35 42  1  0
 42 43  1  0
 43 44  2  0
 43 45  1  0
 31 46  1  0
 46 47  1  0
 47 48  2  0
 48 49  1  0
 49 50  2  0
 50 51  1  0
 51 52  2  0
  2 53  1  0
 21 16  1  0
 27 22  1  0
 41 37  2  0
 52 47  1  0
  1 54  1  0
  1 55  1  0
  4 56  1  0
  4 57  1  0
  5 58  1  0
  5 59  1  0
  6 60  1  0
  6 61  1  0
  7 62  1  6
 10 63  1  0
 11 64  1  6
 14 65  1  0
 14 66  1  0
 15 67  1  0
 15 68  1  0
 17 69  1  0
 18 70  1  0
 20 71  1  0
 21 72  1  0
 23 73  1  0
 24 74  1  0
 25 75  1  0
 26 76  1  0
 27 77  1  0
 28 78  1  0
 31 79  1  6
 32 80  1  0
 35 81  1  1
 36 82  1  0
 36 83  1  0
 38 84  1  0
 39 85  1  0
 41 86  1  0
 42 87  1  0
 45 88  1  0
 45 89  1  0
 45 90  1  0
 46 91  1  0
 46 92  1  0
 48 93  1  0
 49 94  1  0
 50 95  1  0
 51 96  1  0
 52 97  1  0
 53 98  1  0
 53 99  1  0
M  END
>  <Ligand ID>  (1) 
LIG0001409

>  <Ligand>  (1) 
CHEMBL347364

>  <SMILES>  (1) 
NC(=NCCC[C@@H](C(=O)N[C@@H](C(=O)N)Cc1ccc(cc1)c1ccccc1)NC(=O)[C@@H](NC(=O)[C@H](Cc1[nH]cnc1)NC(=O)C)Cc1ccccc1)N

>  <CID>  (1) 
44369187.0

>  <ChEMBL ID>  (1) 
nan

>  <InChiKey>  (1) 
RERCBFQKZPDEAT-YGXYGYJOSA-N

>  <InChi>  (1) 
InChI=1S/C38H46N10O5/c1-24(49)45-33(21-29-22-42-23-44-29)37(53)48-32(20-25-9-4-2-5-10-25)36(52)46-30(13-8-18-43-38(40)41)35(51)47-31(34(39)50)19-26-14-16-28(17-15-26)27-11-6-3-7-12-27/h2-7,9-12,14-17,22-23,30-33H,8,13,18-21H2,1H3,(H2,39,50)(H,42,44)(H,45,49)(H,46,52)(H,47,51)(H,48,53)(H4,40,41,43)/t30-,31+,32-,33-/m0/s1

>  <IUPAC Name>  (1) 
(2S)-2-[[(2S)-2-[[(2S)-2-acetamido-3-(1H-imidazol-5-yl)propanoyl]amino]-3-phenylpropanoyl]amino]-N-[(2R)-1-amino-1-oxo-3-(4-phenylphenyl)propan-2-yl]-5-(diaminomethylideneamino)pentanamide

$$$$
