
     RDKit          3D

 16 16  0  0  0  0  0  0  0  0999 V2000
    2.9878   -0.0726    0.8594 S   0  0  0  0  0  0  0  0  0  0  0  0
    1.9537    0.3840   -0.5652 C   0  0  0  0  0  0  0  0  0  0  0  0
    0.5032    0.1749   -0.2816 C   0  0  0  0  0  0  0  0  0  0  0  0
   -0.2659    1.2038    0.2731 C   0  0  0  0  0  0  0  0  0  0  0  0
   -1.6041    0.9994    0.5307 C   0  0  0  0  0  0  0  0  0  0  0  0
   -2.1822   -0.2203    0.2407 C   0  0  0  0  0  0  0  0  0  0  0  0
   -1.4272   -1.2387   -0.3068 C   0  0  0  0  0  0  0  0  0  0  0  0
   -0.0735   -1.0564   -0.5760 C   0  0  0  0  0  0  0  0  0  0  0  0
    2.2924   -0.8421    1.7873 H   0  0  0  0  0  0  0  0  0  0  0  0
    2.2434   -0.3046   -1.4041 H   0  0  0  0  0  0  0  0  0  0  0  0
    2.1271    1.3989   -0.9258 H   0  0  0  0  0  0  0  0  0  0  0  0
    0.2414    2.1370    0.4789 H   0  0  0  0  0  0  0  0  0  0  0  0
   -2.1551    1.8253    0.9595 H   0  0  0  0  0  0  0  0  0  0  0  0
   -3.2454   -0.3732    0.4487 H   0  0  0  0  0  0  0  0  0  0  0  0
   -1.9219   -2.1677   -0.5143 H   0  0  0  0  0  0  0  0  0  0  0  0
    0.5263   -1.8474   -1.0045 H   0  0  0  0  0  0  0  0  0  0  0  0
  1  2  1  0
  2  3  1  0
  3  4  2  0
  4  5  1  0
  5  6  2  0
  6  7  1  0
  7  8  2  0
  8  3  1  0
  1  9  1  0
  2 10  1  0
  2 11  1  0
  4 12  1  0
  5 13  1  0
  6 14  1  0
  7 15  1  0
  8 16  1  0
M  END
>  <Ligand ID>  (1) 
LIG0002106

>  <Ligand>  (1) 
Benzyl mercaptan

>  <SMILES>  (1) 
SCc1ccccc1

>  <CID>  (1) 
7509.0

>  <ChEMBL ID>  (1) 
nan

>  <InChiKey>  (1) 
UENWRTRMUIOCKN-UHFFFAOYSA-N

>  <InChi>  (1) 
InChI=1S/C7H8S/c8-6-7-4-2-1-3-5-7/h1-5,8H,6H2

>  <IUPAC Name>  (1) 
phenylmethanethiol

$$$$
