
     RDKit          3D

 46 50  0  0  0  0  0  0  0  0999 V2000
    3.6273    2.4695    2.6930 N   0  0  0  0  0  0  0  0  0  0  0  0
    2.8574    1.6414    1.8272 C   0  0  0  0  0  0  0  0  0  0  0  0
    1.4984    1.7751    1.8476 N   0  0  0  0  0  0  0  0  0  0  0  0
    0.6983    1.0320    1.0619 C   0  0  0  0  0  0  0  0  0  0  0  0
    1.2884    0.1142    0.2185 C   0  0  0  0  0  0  0  0  0  0  0  0
    2.6655   -0.0007    0.2179 C   0  0  0  0  0  0  0  0  0  0  0  0
    3.4518    0.7513    1.0110 N   0  0  0  0  0  0  0  0  0  0  0  0
    4.7346    0.4223    0.7950 N   0  0  0  0  0  0  0  0  0  0  0  0
    4.7740   -0.5464   -0.1421 C   0  0  0  0  0  0  0  0  0  0  0  0
    3.4897   -0.8123   -0.5036 N   0  0  0  0  0  0  0  0  0  0  0  0
    5.9274   -1.2326   -0.7153 C   0  0  0  0  0  0  0  0  0  0  0  0
    6.4341   -0.9140   -1.9604 C   0  0  0  0  0  0  0  0  0  0  0  0
    7.5045   -1.7326   -2.2011 C   0  0  0  0  0  0  0  0  0  0  0  0
    7.6088   -2.5357   -1.0658 C   0  0  0  0  0  0  0  0  0  0  0  0
    6.6539   -2.2029   -0.2143 O   0  0  0  0  0  0  0  0  0  0  0  0
   -0.7425    1.2365    1.1443 C   0  0  0  0  0  0  0  0  0  0  0  0
   -1.1853    2.1981    2.0419 C   0  0  0  0  0  0  0  0  0  0  0  0
   -2.5479    2.4464    2.1732 C   0  0  0  0  0  0  0  0  0  0  0  0
   -3.4194    1.7153    1.3935 C   0  0  0  0  0  0  0  0  0  0  0  0
   -3.0096    0.7544    0.4940 C   0  0  0  0  0  0  0  0  0  0  0  0
   -1.6555    0.5343    0.3894 C   0  0  0  0  0  0  0  0  0  0  0  0
   -3.9138    0.0001   -0.3086 N   0  0  0  0  0  0  0  0  0  0  0  0
   -3.3896   -0.9736   -1.2703 C   0  0  0  0  0  0  0  0  0  0  0  0
   -4.4721   -1.2805   -2.2813 C   0  0  0  0  0  0  0  0  0  0  0  0
   -5.5951   -1.8897   -1.6295 N   0  0  0  0  0  0  0  0  0  0  0  0
   -5.9347   -1.2687   -0.3834 C   0  0  0  0  0  0  0  0  0  0  0  0
   -5.3440    0.1304   -0.2373 C   0  0  0  0  0  0  0  0  0  0  0  0
    3.7839    2.1263    3.6745 H   0  0  0  0  0  0  0  0  0  0  0  0
    4.0282    3.3806    2.3881 H   0  0  0  0  0  0  0  0  0  0  0  0
    0.6913   -0.4919   -0.4178 H   0  0  0  0  0  0  0  0  0  0  0  0
    6.0493   -0.1443   -2.6355 H   0  0  0  0  0  0  0  0  0  0  0  0
    8.1375   -1.7501   -3.0908 H   0  0  0  0  0  0  0  0  0  0  0  0
    8.3751   -3.3009   -0.9510 H   0  0  0  0  0  0  0  0  0  0  0  0
   -0.5180    2.7808    2.6611 H   0  0  0  0  0  0  0  0  0  0  0  0
   -2.8754    3.2044    2.8825 H   0  0  0  0  0  0  0  0  0  0  0  0
   -4.4710    1.9317    1.5180 H   0  0  0  0  0  0  0  0  0  0  0  0
   -1.3176   -0.2014   -0.2967 H   0  0  0  0  0  0  0  0  0  0  0  0
   -2.5561   -0.5203   -1.8773 H   0  0  0  0  0  0  0  0  0  0  0  0
   -3.0511   -1.9043   -0.8080 H   0  0  0  0  0  0  0  0  0  0  0  0
   -4.0515   -1.9845   -3.0385 H   0  0  0  0  0  0  0  0  0  0  0  0
   -4.7924   -0.3578   -2.8010 H   0  0  0  0  0  0  0  0  0  0  0  0
   -5.4432   -2.9130   -1.5068 H   0  0  0  0  0  0  0  0  0  0  0  0
   -7.0431   -1.1492   -0.3245 H   0  0  0  0  0  0  0  0  0  0  0  0
   -5.5295   -1.8554    0.4790 H   0  0  0  0  0  0  0  0  0  0  0  0
   -5.6667    0.4878    0.7417 H   0  0  0  0  0  0  0  0  0  0  0  0
   -5.7547    0.8304   -0.9922 H   0  0  0  0  0  0  0  0  0  0  0  0
  1  2  1  0
  2  3  2  0
  3  4  1  0
  4  5  2  0
  5  6  1  0
  6  7  1  0
  7  8  1  0
  8  9  2  0
  9 10  1  0
  9 11  1  0
 11 12  2  0
 12 13  1  0
 13 14  2  0
 14 15  1  0
  4 16  1  0
 16 17  2  0
 17 18  1  0
 18 19  2  0
 19 20  1  0
 20 21  2  0
 20 22  1  0
 22 23  1  0
 23 24  1  0
 24 25  1  0
 25 26  1  0
 26 27  1  0
  7  2  1  0
 15 11  1  0
 21 16  1  0
 27 22  1  0
 10  6  2  0
  1 28  1  0
  1 29  1  0
  5 30  1  0
 12 31  1  0
 13 32  1  0
 14 33  1  0
 17 34  1  0
 18 35  1  0
 19 36  1  0
 21 37  1  0
 23 38  1  0
 23 39  1  0
 24 40  1  0
 24 41  1  0
 25 42  1  0
 26 43  1  0
 26 44  1  0
 27 45  1  0
 27 46  1  0
M  END
>  <Ligand ID>  (1) 
LIG0000876

>  <Ligand>  (1) 
CHEMBL179714

>  <SMILES>  (1) 
Nc1nc(cc2n1nc(n2)c1ccco1)c1cccc(c1)N1CCNCC1

>  <CID>  (1) 
10126162.0

>  <ChEMBL ID>  (1) 
nan

>  <InChiKey>  (1) 
MQAJFAGHNPJXCS-UHFFFAOYSA-N

>  <InChi>  (1) 
InChI=1S/C19H19N7O/c20-19-22-15(12-17-23-18(24-26(17)19)16-5-2-10-27-16)13-3-1-4-14(11-13)25-8-6-21-7-9-25/h1-5,10-12,21H,6-9H2,(H2,20,22)

>  <IUPAC Name>  (1) 
2-(furan-2-yl)-7-(3-piperazin-1-ylphenyl)-[1,2,4]triazolo[1,5-c]pyrimidin-5-amine

$$$$
