
     RDKit          3D

 66 72  0  0  0  0  0  0  0  0999 V2000
   -4.9433    4.5478   -0.0733 C   0  0  0  0  0  0  0  0  0  0  0  0
   -3.8717    3.7102   -0.4370 O   0  0  0  0  0  0  0  0  0  0  0  0
   -3.8398    2.3755   -0.0662 C   0  0  0  0  0  0  0  0  0  0  0  0
   -4.8631    1.7860    0.6859 C   0  0  0  0  0  0  0  0  0  0  0  0
   -4.8141    0.4346    1.0524 C   0  0  0  0  0  0  0  0  0  0  0  0
   -3.7317   -0.3292    0.6607 C   0  0  0  0  0  0  0  0  0  0  0  0
   -2.7747    0.3064   -0.0692 C   0  0  0  0  0  0  0  0  0  0  0  0
   -2.7576    1.6017   -0.4544 C   0  0  0  0  0  0  0  0  0  0  0  0
   -1.5807    1.7836   -1.1684 O   0  0  0  0  0  0  0  0  0  0  0  0
   -0.7157    0.6714   -1.0113 C   0  0  2  0  0  0  0  0  0  0  0  0
   -1.6070   -0.4562   -0.5393 C   0  0  2  0  0  0  0  0  0  0  0  0
   -1.9958   -1.3770   -1.6253 C   0  0  0  0  0  0  0  0  0  0  0  0
   -1.9873   -2.8252   -1.3867 C   0  0  0  0  0  0  0  0  0  0  0  0
   -1.9900   -3.2726   -0.0335 N   0  0  0  0  0  0  0  0  0  0  0  0
   -2.1183   -2.2350    0.9522 C   0  0  2  0  0  0  0  0  0  0  0  0
   -3.5266   -1.7474    0.9946 C   0  0  0  0  0  0  0  0  0  0  0  0
   -1.1035   -1.1689    0.6966 C   0  0  2  0  0  0  0  0  0  0  0  0
   -1.0395   -0.2438    1.8773 C   0  0  0  0  0  0  0  0  0  0  0  0
   -0.4368    1.0337    1.4090 C   0  0  0  0  0  0  0  0  0  0  0  0
    0.3119    0.8816    0.0627 C   0  0  2  0  0  0  0  0  0  0  0  0
    1.0384    2.0076   -0.0338 O   0  0  0  0  0  0  0  0  0  0  0  0
    1.7716    2.2884   -1.1265 C   0  0  0  0  0  0  0  0  0  0  0  0
    1.1362   -0.3733    0.1854 C   0  0  2  0  0  0  0  0  0  0  0  0
    0.2795   -1.6189    0.4315 C   0  0  0  0  0  0  0  0  0  0  0  0
    2.2178   -0.2308    1.1996 C   0  0  0  0  0  0  0  0  0  0  0  0
    3.0162   -1.2991    1.4275 O   0  0  0  0  0  0  0  0  0  0  0  0
    3.7744   -1.8553    0.4683 C   0  0  0  0  0  0  0  0  0  0  0  0
    4.8115   -1.0450   -0.1745 C   0  0  0  0  0  0  0  0  0  0  0  0
    6.0578   -0.9513    0.4580 C   0  0  0  0  0  0  0  0  0  0  0  0
    7.0801   -0.2142   -0.1156 C   0  0  0  0  0  0  0  0  0  0  0  0
    6.9286    0.4525   -1.3145 C   0  0  0  0  0  0  0  0  0  0  0  0
    5.7041    0.3617   -1.9384 C   0  0  0  0  0  0  0  0  0  0  0  0
    4.6928   -0.3722   -1.3634 C   0  0  0  0  0  0  0  0  0  0  0  0
   -5.9075    4.0368   -0.2409 H   0  0  0  0  0  0  0  0  0  0  0  0
   -4.7896    4.8341    0.9951 H   0  0  0  0  0  0  0  0  0  0  0  0
   -4.8616    5.5027   -0.6364 H   0  0  0  0  0  0  0  0  0  0  0  0
   -5.7143    2.3992    0.9895 H   0  0  0  0  0  0  0  0  0  0  0  0
   -5.5932   -0.0351    1.6318 H   0  0  0  0  0  0  0  0  0  0  0  0
   -0.2602    0.3246   -1.9456 H   0  0  0  0  0  0  0  0  0  0  0  0
   -1.3106   -1.1455   -2.4954 H   0  0  0  0  0  0  0  0  0  0  0  0
   -2.9972   -1.0565   -2.0405 H   0  0  0  0  0  0  0  0  0  0  0  0
   -1.1344   -3.3189   -1.8998 H   0  0  0  0  0  0  0  0  0  0  0  0
   -2.8889   -3.3033   -1.8756 H   0  0  0  0  0  0  0  0  0  0  0  0
   -2.6983   -4.0096    0.1685 H   0  0  0  0  0  0  0  0  0  0  0  0
   -1.8841   -2.7114    1.9271 H   0  0  0  0  0  0  0  0  0  0  0  0
   -4.0056   -1.9663    1.9956 H   0  0  0  0  0  0  0  0  0  0  0  0
   -4.1425   -2.3315    0.2806 H   0  0  0  0  0  0  0  0  0  0  0  0
   -1.9939   -0.0691    2.3933 H   0  0  0  0  0  0  0  0  0  0  0  0
   -0.4025   -0.7759    2.6346 H   0  0  0  0  0  0  0  0  0  0  0  0
    0.3062    1.3807    2.1618 H   0  0  0  0  0  0  0  0  0  0  0  0
   -1.1568    1.8836    1.3443 H   0  0  0  0  0  0  0  0  0  0  0  0
    2.5384    1.5221   -1.3242 H   0  0  0  0  0  0  0  0  0  0  0  0
    1.2048    2.5778   -2.0314 H   0  0  0  0  0  0  0  0  0  0  0  0
    2.3727    3.2164   -0.8847 H   0  0  0  0  0  0  0  0  0  0  0  0
    1.6203   -0.5426   -0.8249 H   0  0  0  0  0  0  0  0  0  0  0  0
    0.6691   -2.0793    1.3840 H   0  0  0  0  0  0  0  0  0  0  0  0
    0.4227   -2.3849   -0.3333 H   0  0  0  0  0  0  0  0  0  0  0  0
    1.8153    0.0845    2.2062 H   0  0  0  0  0  0  0  0  0  0  0  0
    2.8992    0.6005    0.8438 H   0  0  0  0  0  0  0  0  0  0  0  0
    4.2938   -2.7487    0.9485 H   0  0  0  0  0  0  0  0  0  0  0  0
    3.1223   -2.3739   -0.3028 H   0  0  0  0  0  0  0  0  0  0  0  0
    6.2109   -1.4605    1.3971 H   0  0  0  0  0  0  0  0  0  0  0  0
    8.0438   -0.1511    0.3889 H   0  0  0  0  0  0  0  0  0  0  0  0
    7.7512    1.0127   -1.7213 H   0  0  0  0  0  0  0  0  0  0  0  0
    5.5964    0.8884   -2.8778 H   0  0  0  0  0  0  0  0  0  0  0  0
    3.7506   -0.4275   -1.8866 H   0  0  0  0  0  0  0  0  0  0  0  0
  1  2  1  0
  2  3  1  0
  3  4  2  0
  4  5  1  0
  5  6  2  0
  6  7  1  0
  7  8  2  0
  8  9  1  0
  9 10  1  0
 10 11  1  0
 11 12  1  6
 12 13  1  0
 13 14  1  0
 14 15  1  0
 15 16  1  0
 15 17  1  0
 17 18  1  1
 18 19  1  0
 19 20  1  0
 20 21  1  6
 21 22  1  0
 20 23  1  0
 23 24  1  0
 23 25  1  0
 25 26  1  0
 26 27  1  0
 27 28  1  0
 28 29  2  0
 29 30  1  0
 30 31  2  0
 31 32  1  0
 32 33  2  0
  8  3  1  0
 20 10  1  0
 33 28  1  0
 16  6  1  0
 24 17  1  0
 11  7  1  0
 17 11  1  0
  1 34  1  0
  1 35  1  0
  1 36  1  0
  4 37  1  0
  5 38  1  0
 10 39  1  6
 12 40  1  0
 12 41  1  0
 13 42  1  0
 13 43  1  0
 14 44  1  0
 15 45  1  1
 16 46  1  0
 16 47  1  0
 18 48  1  0
 18 49  1  0
 19 50  1  0
 19 51  1  0
 22 52  1  0
 22 53  1  0
 22 54  1  0
 23 55  1  6
 24 56  1  0
 24 57  1  0
 25 58  1  0
 25 59  1  0
 27 60  1  0
 27 61  1  0
 29 62  1  0
 30 63  1  0
 31 64  1  0
 32 65  1  0
 33 66  1  0
M  END
>  <Ligand ID>  (1) 
LIG0004768

>  <Ligand>  (1) 
SCHEMBL15485621

>  <SMILES>  (1) 
COc1ccc2c3c1O[C@@H]1[C@@]43CCN[C@H](C2)[C@@]24CC[C@@]1(OC)[C@H](C2)COCc1ccccc1

>  <CID>  (1) 
89978524.0

>  <ChEMBL ID>  (1) 
nan

>  <InChiKey>  (1) 
FDYCYWQDIVTVDR-RHRQCQTHSA-N

>  <InChi>  (1) 
InChI=1S/C28H33NO4/c1-30-21-9-8-19-14-22-26-10-11-28(31-2,20(15-26)17-32-16-18-6-4-3-5-7-18)25-27(26,12-13-29-22)23(19)24(21)33-25/h3-9,20,22,25,29H,10-17H2,1-2H3/t20-,22-,25-,26-,27+,28-/m1/s1

>  <IUPAC Name>  (1) 
(1S,2S,6R,14R,15R,16R)-11,15-dimethoxy-16-(phenylmethoxymethyl)-13-oxa-5-azahexacyclo[13.2.2.12,8.01,6.02,14.012,20]icosa-8(20),9,11-triene

$$$$
