
     RDKit          3D

 21 20  0  0  0  0  0  0  0  0999 V2000
   -2.6576    1.8386   -0.0931 O   0  0  0  0  0  0  0  0  0  0  0  0
   -2.5787    0.4582   -0.2249 C   0  0  0  0  0  0  0  0  0  0  0  0
   -3.4694   -0.1690   -0.8866 O   0  0  0  0  0  0  0  0  0  0  0  0
   -1.4795   -0.3376    0.3837 C   0  0  2  0  0  0  0  0  0  0  0  0
   -0.1813    0.1826   -0.1861 C   0  0  0  0  0  0  0  0  0  0  0  0
    1.0018   -0.5692    0.3764 C   0  0  0  0  0  0  0  0  0  0  0  0
    2.5094    0.0864   -0.3309 P   0  0  0  0  0  0  0  0  0  0  0  0
    3.2866   -1.1478   -1.2548 S   0  0  0  0  0  0  0  0  0  0  0  0
    2.1795    1.3628   -1.3570 O   0  0  0  0  0  0  0  0  0  0  0  0
    3.5396    0.6186    0.8999 O   0  0  0  0  0  0  0  0  0  0  0  0
   -1.6867   -1.7308    0.0648 N   0  0  0  0  0  0  0  0  0  0  0  0
   -3.2171    2.4031   -0.7440 H   0  0  0  0  0  0  0  0  0  0  0  0
   -1.4909   -0.2004    1.4845 H   0  0  0  0  0  0  0  0  0  0  0  0
   -0.0547    1.2454    0.0953 H   0  0  0  0  0  0  0  0  0  0  0  0
   -0.2011    0.1323   -1.2775 H   0  0  0  0  0  0  0  0  0  0  0  0
    0.9174   -1.6632    0.1868 H   0  0  0  0  0  0  0  0  0  0  0  0
    1.0167   -0.4505    1.4854 H   0  0  0  0  0  0  0  0  0  0  0  0
    2.9476    1.9854   -1.4698 H   0  0  0  0  0  0  0  0  0  0  0  0
    3.2221    0.2686    1.7910 H   0  0  0  0  0  0  0  0  0  0  0  0
   -2.6207   -1.9767    0.5085 H   0  0  0  0  0  0  0  0  0  0  0  0
   -0.9830   -2.3367    0.5484 H   0  0  0  0  0  0  0  0  0  0  0  0
  1  2  1  0
  2  3  2  0
  2  4  1  0
  4  5  1  0
  5  6  1  0
  6  7  1  0
  7  8  2  0
  7  9  1  0
  7 10  1  0
  4 11  1  0
  1 12  1  0
  4 13  1  1
  5 14  1  0
  5 15  1  0
  6 16  1  0
  6 17  1  0
  9 18  1  0
 10 19  1  0
 11 20  1  0
 11 21  1  0
M  END
>  <Ligand ID>  (1) 
LIG0001084

>  <Ligand>  (1) 
CHEMBL243925

>  <SMILES>  (1) 
OC(=O)[C@H](CCP(=S)(O)O)N

>  <CID>  (1) 
17759041.0

>  <ChEMBL ID>  (1) 
nan

>  <InChiKey>  (1) 
SBYYVZHQFAJJDQ-VKHMYHEASA-N

>  <InChi>  (1) 
InChI=1S/C4H10NO4PS/c5-3(4(6)7)1-2-10(8,9)11/h3H,1-2,5H2,(H,6,7)(H2,8,9,11)/t3-/m0/s1

>  <IUPAC Name>  (1) 
(2S)-2-amino-4-dihydroxyphosphinothioylbutanoic acid

$$$$
