
     RDKit          3D

 71 75  0  0  0  0  0  0  0  0999 V2000
   -6.0693   -2.6748   -3.5711 O   0  0  0  0  0  0  0  0  0  0  0  0
   -5.2420   -3.6003   -2.9417 C   0  0  0  0  0  0  0  0  0  0  0  0
   -5.2384   -3.2789   -1.4576 C   0  0  0  0  0  0  0  0  0  0  0  0
   -4.3599   -4.2289   -0.6637 C   0  0  0  0  0  0  0  0  0  0  0  0
   -4.4424   -3.8108    0.7979 C   0  0  0  0  0  0  0  0  0  0  0  0
   -4.0018   -2.4905    0.9884 O   0  0  0  0  0  0  0  0  0  0  0  0
   -2.7245   -2.0876    0.6726 C   0  0  0  0  0  0  0  0  0  0  0  0
   -2.4092   -0.7985    0.8935 N   0  0  0  0  0  0  0  0  0  0  0  0
   -1.2066   -0.2587    0.6375 C   0  0  0  0  0  0  0  0  0  0  0  0
   -1.0259    1.1248    0.9073 N   0  0  0  0  0  0  0  0  0  0  0  0
   -2.1354    1.9130    1.4669 C   0  0  0  0  0  0  0  0  0  0  0  0
   -1.8020    3.3358    1.6215 C   0  0  0  0  0  0  0  0  0  0  0  0
   -1.2345    3.8877    2.7443 C   0  0  0  0  0  0  0  0  0  0  0  0
   -0.9648    5.2565    2.7888 C   0  0  0  0  0  0  0  0  0  0  0  0
   -1.2642    6.0823    1.7020 C   0  0  0  0  0  0  0  0  0  0  0  0
   -1.8304    5.5319    0.5795 C   0  0  0  0  0  0  0  0  0  0  0  0
   -2.0888    4.1768    0.5557 C   0  0  0  0  0  0  0  0  0  0  0  0
   -2.1923    6.3138   -0.6335 C   0  0  0  0  0  0  0  0  0  0  0  0
   -3.5700    6.5184   -0.6027 F   0  0  0  0  0  0  0  0  0  0  0  0
   -1.8608    5.6034   -1.7660 F   0  0  0  0  0  0  0  0  0  0  0  0
   -1.6085    7.5484   -0.6227 F   0  0  0  0  0  0  0  0  0  0  0  0
   -0.2207   -1.0678    0.1139 C   0  0  0  0  0  0  0  0  0  0  0  0
   -0.5257   -2.4051   -0.1228 C   0  0  0  0  0  0  0  0  0  0  0  0
   -1.7697   -2.8738    0.1645 N   0  0  0  0  0  0  0  0  0  0  0  0
    0.4505   -3.2053   -0.6422 C   0  0  0  0  0  0  0  0  0  0  0  0
    1.7230   -2.7076   -0.9329 C   0  0  0  0  0  0  0  0  0  0  0  0
    1.9840   -1.3754   -0.6842 C   0  0  0  0  0  0  0  0  0  0  0  0
    1.0173   -0.5316   -0.1561 C   0  0  0  0  0  0  0  0  0  0  0  0
    3.3575   -0.8963   -1.0309 C   0  0  0  0  0  0  0  0  0  0  0  0
    4.3375   -1.5457   -0.1382 C   0  0  0  0  0  0  0  0  0  0  0  0
    5.3677   -2.3232   -0.6832 C   0  0  0  0  0  0  0  0  0  0  0  0
    6.2967   -2.9651    0.1050 C   0  0  0  0  0  0  0  0  0  0  0  0
    6.2556   -2.8724    1.4779 C   0  0  0  0  0  0  0  0  0  0  0  0
    5.2468   -2.1099    2.0191 C   0  0  0  0  0  0  0  0  0  0  0  0
    4.2941   -1.4513    1.2430 C   0  0  0  0  0  0  0  0  0  0  0  0
    7.4546   -3.7079    2.4317 Cl  0  0  0  0  0  0  0  0  0  0  0  0
    3.4755    0.5698   -1.1017 C   0  0  0  0  0  0  0  0  0  0  0  0
    2.8940    1.2037   -2.1813 C   0  0  0  0  0  0  0  0  0  0  0  0
    2.9738    2.5793   -2.3149 C   0  0  0  0  0  0  0  0  0  0  0  0
    3.6230    3.3827   -1.4006 C   0  0  0  0  0  0  0  0  0  0  0  0
    4.2121    2.7301   -0.3074 C   0  0  0  0  0  0  0  0  0  0  0  0
    4.1271    1.3546   -0.1824 C   0  0  0  0  0  0  0  0  0  0  0  0
    3.7285    5.1203   -1.5642 Cl  0  0  0  0  0  0  0  0  0  0  0  0
   -7.0031   -2.8369   -3.2507 H   0  0  0  0  0  0  0  0  0  0  0  0
   -5.6025   -4.6277   -3.1367 H   0  0  0  0  0  0  0  0  0  0  0  0
   -4.2274   -3.4698   -3.3697 H   0  0  0  0  0  0  0  0  0  0  0  0
   -6.2867   -3.3133   -1.1073 H   0  0  0  0  0  0  0  0  0  0  0  0
   -4.8035   -2.2805   -1.3384 H   0  0  0  0  0  0  0  0  0  0  0  0
   -3.3289   -4.1489   -1.0539 H   0  0  0  0  0  0  0  0  0  0  0  0
   -4.7574   -5.2564   -0.7965 H   0  0  0  0  0  0  0  0  0  0  0  0
   -3.8183   -4.5543    1.3616 H   0  0  0  0  0  0  0  0  0  0  0  0
   -5.4711   -3.9564    1.1863 H   0  0  0  0  0  0  0  0  0  0  0  0
   -0.1524    1.6562    0.7407 H   0  0  0  0  0  0  0  0  0  0  0  0
   -3.0035    1.7924    0.7898 H   0  0  0  0  0  0  0  0  0  0  0  0
   -2.3725    1.5148    2.4739 H   0  0  0  0  0  0  0  0  0  0  0  0
   -1.0045    3.2548    3.5889 H   0  0  0  0  0  0  0  0  0  0  0  0
   -0.5102    5.6992    3.6883 H   0  0  0  0  0  0  0  0  0  0  0  0
   -1.0675    7.1402    1.7110 H   0  0  0  0  0  0  0  0  0  0  0  0
   -2.5371    3.7518   -0.3417 H   0  0  0  0  0  0  0  0  0  0  0  0
    0.2169   -4.2623   -0.8302 H   0  0  0  0  0  0  0  0  0  0  0  0
    2.4885   -3.3789   -1.3559 H   0  0  0  0  0  0  0  0  0  0  0  0
    1.2797    0.5009    0.0193 H   0  0  0  0  0  0  0  0  0  0  0  0
    3.5345   -1.2942   -2.0636 H   0  0  0  0  0  0  0  0  0  0  0  0
    5.4186   -2.4097   -1.7646 H   0  0  0  0  0  0  0  0  0  0  0  0
    7.0540   -3.5427   -0.4265 H   0  0  0  0  0  0  0  0  0  0  0  0
    5.2310   -2.0459    3.1150 H   0  0  0  0  0  0  0  0  0  0  0  0
    3.5056   -0.8651    1.7391 H   0  0  0  0  0  0  0  0  0  0  0  0
    2.3683    0.6262   -2.9313 H   0  0  0  0  0  0  0  0  0  0  0  0
    2.5093    3.0754   -3.1787 H   0  0  0  0  0  0  0  0  0  0  0  0
    4.7180    3.3561    0.4080 H   0  0  0  0  0  0  0  0  0  0  0  0
    4.5905    0.9091    0.6569 H   0  0  0  0  0  0  0  0  0  0  0  0
  1  2  1  0
  2  3  1  0
  3  4  1  0
  4  5  1  0
  5  6  1  0
  6  7  1  0
  7  8  2  0
  8  9  1  0
  9 10  1  0
 10 11  1  0
 11 12  1  0
 12 13  2  0
 13 14  1  0
 14 15  2  0
 15 16  1  0
 16 17  2  0
 16 18  1  0
 18 19  1  0
 18 20  1  0
 18 21  1  0
  9 22  2  0
 22 23  1  0
 23 24  2  0
 23 25  1  0
 25 26  2  0
 26 27  1  0
 27 28  2  0
 27 29  1  0
 29 30  1  0
 30 31  2  0
 31 32  1  0
 32 33  2  0
 33 34  1  0
 34 35  2  0
 33 36  1  0
 29 37  1  0
 37 38  2  0
 38 39  1  0
 39 40  2  0
 40 41  1  0
 41 42  2  0
 40 43  1  0
 24  7  1  0
 35 30  1  0
 42 37  1  0
 17 12  1  0
 28 22  1  0
  1 44  1  0
  2 45  1  0
  2 46  1  0
  3 47  1  0
  3 48  1  0
  4 49  1  0
  4 50  1  0
  5 51  1  0
  5 52  1  0
 10 53  1  0
 11 54  1  0
 11 55  1  0
 13 56  1  0
 14 57  1  0
 15 58  1  0
 17 59  1  0
 25 60  1  0
 26 61  1  0
 28 62  1  0
 29 63  1  0
 31 64  1  0
 32 65  1  0
 34 66  1  0
 35 67  1  0
 38 68  1  0
 39 69  1  0
 41 70  1  0
 42 71  1  0
M  END
>  <Ligand ID>  (1) 
LIG0005809

>  <Ligand>  (1) 
SCHEMBL17557613

>  <SMILES>  (1) 
OCCCCOc1nc(NCc2cccc(c2)C(F)(F)F)c2c(n1)ccc(c2)C(c1ccc(cc1)Cl)c1ccc(cc1)Cl

>  <CID>  (1) 
118916098.0

>  <ChEMBL ID>  (1) 
nan

>  <InChiKey>  (1) 
PKABREPKFFHQMY-UHFFFAOYSA-N

>  <InChi>  (1) 
InChI=1S/C33H28Cl2F3N3O2/c34-26-11-6-22(7-12-26)30(23-8-13-27(35)14-9-23)24-10-15-29-28(19-24)31(41-32(40-29)43-17-2-1-16-42)39-20-21-4-3-5-25(18-21)33(36,37)38/h3-15,18-19,30,42H,1-2,16-17,20H2,(H,39,40,41)

>  <IUPAC Name>  (1) 
4-[6-[bis(4-chlorophenyl)methyl]-4-[[3-(trifluoromethyl)phenyl]methylamino]quinazolin-2-yl]oxybutan-1-ol

$$$$
