
     RDKit          3D

 60 63  0  0  0  0  0  0  0  0999 V2000
    0.6174    0.5435   -5.5251 C   0  0  0  0  0  0  0  0  0  0  0  0
   -0.7369    0.2506   -4.9294 C   0  0  0  0  0  0  0  0  0  0  0  0
   -0.6249    0.0054   -3.5704 O   0  0  0  0  0  0  0  0  0  0  0  0
   -1.6252   -0.2968   -2.6823 C   0  0  0  0  0  0  0  0  0  0  0  0
   -2.9154   -0.3663   -3.2245 C   0  0  0  0  0  0  0  0  0  0  0  0
   -3.9963   -0.6660   -2.4282 C   0  0  0  0  0  0  0  0  0  0  0  0
   -3.7441   -0.8895   -1.0947 C   0  0  0  0  0  0  0  0  0  0  0  0
   -2.4762   -0.8198   -0.5677 C   0  0  0  0  0  0  0  0  0  0  0  0
   -1.3588   -0.5153   -1.3598 C   0  0  0  0  0  0  0  0  0  0  0  0
   -0.1183   -0.4965   -0.7191 N   0  0  0  0  0  0  0  0  0  0  0  0
    1.1100    0.0177   -1.1520 C   0  0  0  0  0  0  0  0  0  0  0  0
    1.2271    0.5761   -2.2600 O   0  0  0  0  0  0  0  0  0  0  0  0
    2.3429   -0.0598   -0.3433 C   0  0  0  0  0  0  0  0  0  0  0  0
    2.3883   -0.6562    0.8924 C   0  0  0  0  0  0  0  0  0  0  0  0
    3.5817   -0.7026    1.6158 C   0  0  0  0  0  0  0  0  0  0  0  0
    4.7494   -0.1581    1.1248 C   0  0  0  0  0  0  0  0  0  0  0  0
    4.7101    0.4416   -0.1142 C   0  0  0  0  0  0  0  0  0  0  0  0
    3.5295    0.4800   -0.8145 C   0  0  0  0  0  0  0  0  0  0  0  0
    5.9704   -0.2012    1.8521 N   0  0  0  0  0  0  0  0  0  0  0  0
    6.9185   -1.3045    1.7136 C   0  0  0  0  0  0  0  0  0  0  0  0
    8.0312   -1.0132    2.6809 C   0  0  0  0  0  0  0  0  0  0  0  0
    7.9714    0.4799    2.9366 C   0  0  0  0  0  0  0  0  0  0  0  0
    6.4967    0.7289    2.7887 C   0  0  0  0  0  0  0  0  0  0  0  0
    5.8271    1.6076    3.3855 O   0  0  0  0  0  0  0  0  0  0  0  0
   -5.0965   -1.2728   -0.0625 S   0  0  0  0  0  0  0  0  0  0  0  0
   -6.1017   -2.1149   -0.7923 O   0  0  0  0  0  0  0  0  0  0  0  0
   -4.6185   -2.1114    1.0962 O   0  0  0  0  0  0  0  0  0  0  0  0
   -5.8413    0.1394    0.6115 N   0  0  0  0  0  0  0  0  0  0  0  0
   -4.9177    0.8729    1.4364 C   0  0  0  0  0  0  0  0  0  0  0  0
   -4.9104    0.3756    2.8839 C   0  0  0  0  0  0  0  0  0  0  0  0
   -6.1519    0.4857    3.4878 O   0  0  0  0  0  0  0  0  0  0  0  0
   -7.1937    0.6407    2.5951 C   0  0  0  0  0  0  0  0  0  0  0  0
   -6.9432   -0.2936    1.4233 C   0  0  0  0  0  0  0  0  0  0  0  0
    0.9031    1.5626   -5.1925 H   0  0  0  0  0  0  0  0  0  0  0  0
    1.3695   -0.2034   -5.1832 H   0  0  0  0  0  0  0  0  0  0  0  0
    0.5660    0.5407   -6.6248 H   0  0  0  0  0  0  0  0  0  0  0  0
   -1.3799    1.1282   -5.2013 H   0  0  0  0  0  0  0  0  0  0  0  0
   -1.2015   -0.6185   -5.4462 H   0  0  0  0  0  0  0  0  0  0  0  0
   -3.0861   -0.1868   -4.2735 H   0  0  0  0  0  0  0  0  0  0  0  0
   -4.9720   -0.7099   -2.8824 H   0  0  0  0  0  0  0  0  0  0  0  0
   -2.3856   -1.0130    0.4954 H   0  0  0  0  0  0  0  0  0  0  0  0
   -0.0852   -0.9507    0.2519 H   0  0  0  0  0  0  0  0  0  0  0  0
    1.5423   -1.1047    1.3575 H   0  0  0  0  0  0  0  0  0  0  0  0
    3.6210   -1.1710    2.5881 H   0  0  0  0  0  0  0  0  0  0  0  0
    5.6279    0.8659   -0.4927 H   0  0  0  0  0  0  0  0  0  0  0  0
    3.5374    0.9549   -1.7754 H   0  0  0  0  0  0  0  0  0  0  0  0
    6.4541   -2.2726    1.9563 H   0  0  0  0  0  0  0  0  0  0  0  0
    7.3702   -1.3177    0.7048 H   0  0  0  0  0  0  0  0  0  0  0  0
    7.8581   -1.5202    3.6362 H   0  0  0  0  0  0  0  0  0  0  0  0
    9.0310   -1.2361    2.2961 H   0  0  0  0  0  0  0  0  0  0  0  0
    8.5582    1.0556    2.2212 H   0  0  0  0  0  0  0  0  0  0  0  0
    8.2147    0.6771    3.9910 H   0  0  0  0  0  0  0  0  0  0  0  0
   -3.8918    0.7642    1.0574 H   0  0  0  0  0  0  0  0  0  0  0  0
   -5.1212    1.9634    1.4452 H   0  0  0  0  0  0  0  0  0  0  0  0
   -4.4219   -0.5908    2.9874 H   0  0  0  0  0  0  0  0  0  0  0  0
   -4.2445    1.1099    3.4203 H   0  0  0  0  0  0  0  0  0  0  0  0
   -8.1350    0.2989    3.0735 H   0  0  0  0  0  0  0  0  0  0  0  0
   -7.2704    1.6550    2.1610 H   0  0  0  0  0  0  0  0  0  0  0  0
   -6.7274   -1.3171    1.7840 H   0  0  0  0  0  0  0  0  0  0  0  0
   -7.8317   -0.3388    0.7601 H   0  0  0  0  0  0  0  0  0  0  0  0
  1  2  1  0
  2  3  1  0
  3  4  1  0
  4  5  2  0
  5  6  1  0
  6  7  2  0
  7  8  1  0
  8  9  2  0
  9 10  1  0
 10 11  1  0
 11 12  2  0
 11 13  1  0
 13 14  2  0
 14 15  1  0
 15 16  2  0
 16 17  1  0
 17 18  2  0
 16 19  1  0
 19 20  1  0
 20 21  1  0
 21 22  1  0
 22 23  1  0
 23 24  2  0
  7 25  1  0
 25 26  2  0
 25 27  2  0
 25 28  1  0
 28 29  1  0
 29 30  1  0
 30 31  1  0
 31 32  1  0
 32 33  1  0
  9  4  1  0
 18 13  1  0
 23 19  1  0
 33 28  1  0
  1 34  1  0
  1 35  1  0
  1 36  1  0
  2 37  1  0
  2 38  1  0
  5 39  1  0
  6 40  1  0
  8 41  1  0
 10 42  1  0
 14 43  1  0
 15 44  1  0
 17 45  1  0
 18 46  1  0
 20 47  1  0
 20 48  1  0
 21 49  1  0
 21 50  1  0
 22 51  1  0
 22 52  1  0
 29 53  1  0
 29 54  1  0
 30 55  1  0
 30 56  1  0
 32 57  1  0
 32 58  1  0
 33 59  1  0
 33 60  1  0
M  END
>  <Ligand ID>  (1) 
LIG0001956

>  <Ligand>  (1) 
MLS-0401659.0001

>  <SMILES>  (1) 
CCOc1ccc(cc1NC(=O)c1ccc(cc1)N1CCCC1=O)S(=O)(=O)N1CCOCC1

>  <CID>  (1) 
24978834.0

>  <ChEMBL ID>  (1) 
nan

>  <InChiKey>  (1) 
OWCOXNVJVGVOCQ-UHFFFAOYSA-N

>  <InChi>  (1) 
InChI=1S/C23H27N3O6S/c1-2-32-21-10-9-19(33(29,30)25-12-14-31-15-13-25)16-20(21)24-23(28)17-5-7-18(8-6-17)26-11-3-4-22(26)27/h5-10,16H,2-4,11-15H2,1H3,(H,24,28)

>  <IUPAC Name>  (1) 
N-(2-ethoxy-5-morpholin-4-ylsulfonylphenyl)-4-(2-oxopyrrolidin-1-yl)benzamide

$$$$
