
     RDKit          3D

 77 80  0  0  0  0  0  0  0  0999 V2000
    6.3562   -1.3491    2.9731 C   0  0  0  0  0  0  0  0  0  0  0  0
    6.5401   -0.6440    1.6574 C   0  0  0  0  0  0  0  0  0  0  0  0
    5.2115    0.0156    1.2777 C   0  0  0  0  0  0  0  0  0  0  0  0
    4.1971   -1.0571    1.1662 C   0  0  0  0  0  0  0  0  0  0  0  0
    4.4911   -2.2219    1.3607 O   0  0  0  0  0  0  0  0  0  0  0  0
    2.7855   -0.6357    0.8013 C   0  0  0  0  0  0  0  0  0  0  0  0
    1.9796   -1.8824    0.8254 C   0  0  0  0  0  0  0  0  0  0  0  0
    0.5094   -1.7185    0.5953 C   0  0  0  0  0  0  0  0  0  0  0  0
    0.1400   -0.3366    0.7860 N   0  0  0  0  0  0  0  0  0  0  0  0
    0.7618    0.3492    1.9180 C   0  0  0  0  0  0  0  0  0  0  0  0
    2.2605    0.3539    1.7961 C   0  0  0  0  0  0  0  0  0  0  0  0
   -0.7732    0.3685   -0.0471 C   0  0  0  0  0  0  0  0  0  0  0  0
   -0.9527    1.6015    0.2251 O   0  0  0  0  0  0  0  0  0  0  0  0
   -1.5120   -0.1831   -1.1786 C   0  0  1  0  0  0  0  0  0  0  0  0
   -2.7360   -0.9758   -0.8753 C   0  0  0  0  0  0  0  0  0  0  0  0
   -2.5806   -2.1632   -0.0316 C   0  0  0  0  0  0  0  0  0  0  0  0
   -2.7977   -1.9803    1.3424 C   0  0  0  0  0  0  0  0  0  0  0  0
   -2.6820   -3.0548    2.2269 C   0  0  0  0  0  0  0  0  0  0  0  0
   -2.3492   -4.2925    1.7059 C   0  0  0  0  0  0  0  0  0  0  0  0
   -2.1374   -4.4521    0.3360 C   0  0  0  0  0  0  0  0  0  0  0  0
   -2.2474   -3.4056   -0.5468 C   0  0  0  0  0  0  0  0  0  0  0  0
   -2.2060   -5.4309    2.4825 O   0  0  0  0  0  0  0  0  0  0  0  0
   -2.3929   -5.4095    3.8901 C   0  0  0  0  0  0  0  0  0  0  0  0
   -2.0240    0.9961   -1.9278 N   0  0  0  0  0  0  0  0  0  0  0  0
   -2.9411    1.9144   -1.4000 C   0  0  0  0  0  0  0  0  0  0  0  0
   -3.4505    1.8820   -0.2568 O   0  0  0  0  0  0  0  0  0  0  0  0
   -3.3625    3.0504   -2.2757 C   0  0  0  0  0  0  0  0  0  0  0  0
   -4.3425    3.8709   -1.4613 C   0  0  0  0  0  0  0  0  0  0  0  0
   -4.8133    5.0267   -2.2589 C   0  0  0  0  0  0  0  0  0  0  0  0
   -5.7147    5.9579   -1.7862 C   0  0  0  0  0  0  0  0  0  0  0  0
   -5.9045    6.8533   -2.7789 N   0  0  0  0  0  0  0  0  0  0  0  0
   -5.1576    6.5128   -3.8435 C   0  0  0  0  0  0  0  0  0  0  0  0
   -4.5042    5.3981   -3.4995 N   0  0  0  0  0  0  0  0  0  0  0  0
    2.9311    0.0120   -0.5141 C   0  0  0  0  0  0  0  0  0  0  0  0
    3.7214   -0.6489   -1.4538 C   0  0  0  0  0  0  0  0  0  0  0  0
    3.9312   -0.1236   -2.7235 C   0  0  0  0  0  0  0  0  0  0  0  0
    3.3452    1.0733   -3.0560 C   0  0  0  0  0  0  0  0  0  0  0  0
    2.5534    1.7617   -2.1529 C   0  0  0  0  0  0  0  0  0  0  0  0
    2.3718    1.1990   -0.8968 C   0  0  0  0  0  0  0  0  0  0  0  0
    6.2893   -2.4298    2.8356 H   0  0  0  0  0  0  0  0  0  0  0  0
    7.2131   -1.1421    3.6437 H   0  0  0  0  0  0  0  0  0  0  0  0
    5.4259   -0.9891    3.4733 H   0  0  0  0  0  0  0  0  0  0  0  0
    7.3495    0.1161    1.6738 H   0  0  0  0  0  0  0  0  0  0  0  0
    6.8307   -1.4030    0.9031 H   0  0  0  0  0  0  0  0  0  0  0  0
    5.2969    0.5612    0.3174 H   0  0  0  0  0  0  0  0  0  0  0  0
    4.9148    0.7021    2.0964 H   0  0  0  0  0  0  0  0  0  0  0  0
    2.4055   -2.6962    0.1924 H   0  0  0  0  0  0  0  0  0  0  0  0
    2.1040   -2.2978    1.8743 H   0  0  0  0  0  0  0  0  0  0  0  0
   -0.0238   -2.4221    1.2930 H   0  0  0  0  0  0  0  0  0  0  0  0
    0.2807   -2.0332   -0.4547 H   0  0  0  0  0  0  0  0  0  0  0  0
    0.4097    1.3984    1.9341 H   0  0  0  0  0  0  0  0  0  0  0  0
    0.4489   -0.1124    2.8806 H   0  0  0  0  0  0  0  0  0  0  0  0
    2.5863    1.3788    1.5407 H   0  0  0  0  0  0  0  0  0  0  0  0
    2.6762    0.1806    2.8215 H   0  0  0  0  0  0  0  0  0  0  0  0
   -0.8238   -0.7426   -1.8269 H   0  0  0  0  0  0  0  0  0  0  0  0
   -3.0944   -1.3638   -1.8849 H   0  0  0  0  0  0  0  0  0  0  0  0
   -3.5660   -0.3432   -0.4912 H   0  0  0  0  0  0  0  0  0  0  0  0
   -3.0566   -1.0204    1.7545 H   0  0  0  0  0  0  0  0  0  0  0  0
   -2.8416   -2.9523    3.2883 H   0  0  0  0  0  0  0  0  0  0  0  0
   -1.8723   -5.4323   -0.0843 H   0  0  0  0  0  0  0  0  0  0  0  0
   -2.0919   -3.4864   -1.6123 H   0  0  0  0  0  0  0  0  0  0  0  0
   -1.8848   -4.5228    4.3402 H   0  0  0  0  0  0  0  0  0  0  0  0
   -3.4911   -5.3988    4.0853 H   0  0  0  0  0  0  0  0  0  0  0  0
   -1.9580   -6.3225    4.3442 H   0  0  0  0  0  0  0  0  0  0  0  0
   -1.6641    1.1358   -2.9186 H   0  0  0  0  0  0  0  0  0  0  0  0
   -3.8901    2.6477   -3.1549 H   0  0  0  0  0  0  0  0  0  0  0  0
   -2.4850    3.6552   -2.5409 H   0  0  0  0  0  0  0  0  0  0  0  0
   -3.7809    4.2328   -0.5557 H   0  0  0  0  0  0  0  0  0  0  0  0
   -5.1642    3.2354   -1.0932 H   0  0  0  0  0  0  0  0  0  0  0  0
   -6.1750    5.9637   -0.8117 H   0  0  0  0  0  0  0  0  0  0  0  0
   -5.1412    7.0762   -4.7581 H   0  0  0  0  0  0  0  0  0  0  0  0
   -3.8349    4.8832   -4.1252 H   0  0  0  0  0  0  0  0  0  0  0  0
    4.2011   -1.5993   -1.2233 H   0  0  0  0  0  0  0  0  0  0  0  0
    4.5469   -0.6322   -3.4657 H   0  0  0  0  0  0  0  0  0  0  0  0
    3.5217    1.4750   -4.0661 H   0  0  0  0  0  0  0  0  0  0  0  0
    2.0850    2.7116   -2.4088 H   0  0  0  0  0  0  0  0  0  0  0  0
    1.7489    1.7568   -0.2168 H   0  0  0  0  0  0  0  0  0  0  0  0
  1  2  1  0
  2  3  1  0
  3  4  1  0
  4  5  2  0
  4  6  1  0
  6  7  1  0
  7  8  1  0
  8  9  1  0
  9 10  1  0
 10 11  1  0
  9 12  1  0
 12 13  2  0
 12 14  1  0
 14 15  1  0
 15 16  1  0
 16 17  2  0
 17 18  1  0
 18 19  2  0
 19 20  1  0
 20 21  2  0
 19 22  1  0
 22 23  1  0
 14 24  1  0
 24 25  1  0
 25 26  2  0
 25 27  1  0
 27 28  1  0
 28 29  1  0
 29 30  2  0
 30 31  1  0
 31 32  2  0
 32 33  1  0
  6 34  1  0
 34 35  2  0
 35 36  1  0
 36 37  2  0
 37 38  1  0
 38 39  2  0
 11  6  1  0
 21 16  1  0
 33 29  1  0
 39 34  1  0
  1 40  1  0
  1 41  1  0
  1 42  1  0
  2 43  1  0
  2 44  1  0
  3 45  1  0
  3 46  1  0
  7 47  1  0
  7 48  1  0
  8 49  1  0
  8 50  1  0
 10 51  1  0
 10 52  1  0
 11 53  1  0
 11 54  1  0
 14 55  1  6
 15 56  1  0
 15 57  1  0
 17 58  1  0
 18 59  1  0
 20 60  1  0
 21 61  1  0
 23 62  1  0
 23 63  1  0
 23 64  1  0
 24 65  1  0
 27 66  1  0
 27 67  1  0
 28 68  1  0
 28 69  1  0
 30 70  1  0
 32 71  1  0
 33 72  1  0
 35 73  1  0
 36 74  1  0
 37 75  1  0
 38 76  1  0
 39 77  1  0
M  END
>  <Ligand ID>  (1) 
LIG0001761

>  <Ligand>  (1) 
CHEMBL276301

>  <SMILES>  (1) 
CCCC(=O)C1(CCN(CC1)C(=O)[C@@H](Cc1ccc(cc1)OC)NC(=O)CCc1cnc[nH]1)c1ccccc1

>  <CID>  (1) 
11813437.0

>  <ChEMBL ID>  (1) 
nan

>  <InChiKey>  (1) 
PKOVYIKOIGUQLU-HHHXNRCGSA-N

>  <InChi>  (1) 
InChI=1S/C31H38N4O4/c1-3-7-28(36)31(24-8-5-4-6-9-24)16-18-35(19-17-31)30(38)27(20-23-10-13-26(39-2)14-11-23)34-29(37)15-12-25-21-32-22-33-25/h4-6,8-11,13-14,21-22,27H,3,7,12,15-20H2,1-2H3,(H,32,33)(H,34,37)/t27-/m1/s1

>  <IUPAC Name>  (1) 
N-[(2R)-1-(4-butanoyl-4-phenylpiperidin-1-yl)-3-(4-methoxyphenyl)-1-oxopropan-2-yl]-3-(1H-imidazol-5-yl)propanamide

$$$$
