
     RDKit          3D

 46 49  0  0  0  0  0  0  0  0999 V2000
    5.3320    0.4346   -0.6858 C   0  0  0  0  0  0  0  0  0  0  0  0
    4.1142    0.7536   -0.0768 O   0  0  0  0  0  0  0  0  0  0  0  0
    2.9059    0.1606   -0.3767 C   0  0  0  0  0  0  0  0  0  0  0  0
    2.7704   -0.8388   -1.3376 C   0  0  0  0  0  0  0  0  0  0  0  0
    1.5256   -1.4131   -1.6101 C   0  0  0  0  0  0  0  0  0  0  0  0
    0.4288   -0.9679   -0.9047 C   0  0  0  0  0  0  0  0  0  0  0  0
    0.5968    0.0053    0.0225 C   0  0  0  0  0  0  0  0  0  0  0  0
    1.7962    0.5931    0.3192 C   0  0  0  0  0  0  0  0  0  0  0  0
    1.5320    1.5268    1.3105 O   0  0  0  0  0  0  0  0  0  0  0  0
    0.1380    1.8784    1.2655 C   0  0  0  0  0  0  0  0  0  0  0  0
   -0.4934    0.5815    0.8572 C   0  0  2  0  0  0  0  0  0  0  0  0
   -0.7541   -0.3450    1.9878 C   0  0  0  0  0  0  0  0  0  0  0  0
   -1.8510   -1.3148    1.8673 C   0  0  0  0  0  0  0  0  0  0  0  0
   -2.5775   -1.3649    0.6456 N   0  0  0  0  0  0  0  0  0  0  0  0
   -2.0095   -0.7213   -0.4844 C   0  0  2  0  0  0  0  0  0  0  0  0
   -0.9269   -1.5195   -1.1293 C   0  0  0  0  0  0  0  0  0  0  0  0
   -1.6507    0.6786   -0.0768 C   0  0  1  0  0  0  0  0  0  0  0  0
   -2.7490    1.1441    0.6789 O   0  0  0  0  0  0  0  0  0  0  0  0
   -1.4382    1.5617   -1.2444 C   0  0  0  0  0  0  0  0  0  0  0  0
   -0.2388    2.4478   -1.1807 C   0  0  0  0  0  0  0  0  0  0  0  0
    0.0152    2.9035    0.2002 C   0  0  0  0  0  0  0  0  0  0  0  0
    0.1297    4.0915    0.5098 O   0  0  0  0  0  0  0  0  0  0  0  0
   -3.1224   -2.6653    0.3370 C   0  0  0  0  0  0  0  0  0  0  0  0
    0.6837    0.0000    0.0000 Cl  0  0  0  0  0  0  0  0  0  0  0  0
    5.5161   -0.6519   -0.7788 H   0  0  0  0  0  0  0  0  0  0  0  0
    6.1408    0.8687   -0.0642 H   0  0  0  0  0  0  0  0  0  0  0  0
    5.4368    0.9026   -1.6917 H   0  0  0  0  0  0  0  0  0  0  0  0
    3.6454   -1.1757   -1.8822 H   0  0  0  0  0  0  0  0  0  0  0  0
    1.4255   -2.1885   -2.3569 H   0  0  0  0  0  0  0  0  0  0  0  0
   -0.1854    2.2663    2.2430 H   0  0  0  0  0  0  0  0  0  0  0  0
   -0.9524    0.3085    2.8894 H   0  0  0  0  0  0  0  0  0  0  0  0
    0.2159   -0.8438    2.2745 H   0  0  0  0  0  0  0  0  0  0  0  0
   -1.4399   -2.3533    2.0230 H   0  0  0  0  0  0  0  0  0  0  0  0
   -2.6105   -1.2058    2.6855 H   0  0  0  0  0  0  0  0  0  0  0  0
   -2.8506   -0.6063   -1.2297 H   0  0  0  0  0  0  0  0  0  0  0  0
   -1.0932   -1.6282   -2.2207 H   0  0  0  0  0  0  0  0  0  0  0  0
   -0.9339   -2.5454   -0.7038 H   0  0  0  0  0  0  0  0  0  0  0  0
   -2.3871    1.7947    1.3235 H   0  0  0  0  0  0  0  0  0  0  0  0
   -1.4431    0.9346   -2.1703 H   0  0  0  0  0  0  0  0  0  0  0  0
   -2.3325    2.2380   -1.3781 H   0  0  0  0  0  0  0  0  0  0  0  0
    0.5995    1.8989   -1.6481 H   0  0  0  0  0  0  0  0  0  0  0  0
   -0.4132    3.3534   -1.8158 H   0  0  0  0  0  0  0  0  0  0  0  0
   -2.5541   -3.4826    0.8072 H   0  0  0  0  0  0  0  0  0  0  0  0
   -4.2088   -2.6671    0.5569 H   0  0  0  0  0  0  0  0  0  0  0  0
   -3.0489   -2.8275   -0.7686 H   0  0  0  0  0  0  0  0  0  0  0  0
   -0.6837    0.0000    0.0000 H   0  0  0  0  0  0  0  0  0  0  0  0
  1  2  1  0
  2  3  1  0
  3  4  2  0
  4  5  1  0
  5  6  2  0
  6  7  1  0
  7  8  2  0
  8  9  1  0
  9 10  1  0
 10 11  1  0
 11 12  1  1
 12 13  1  0
 13 14  1  0
 14 15  1  0
 15 16  1  0
 15 17  1  0
 17 18  1  1
 17 19  1  0
 19 20  1  0
 20 21  1  0
 21 22  2  0
 14 23  1  0
  8  3  1  0
 21 10  1  0
 16  6  1  0
 11  7  1  0
 17 11  1  0
  1 25  1  0
  1 26  1  0
  1 27  1  0
  4 28  1  0
  5 29  1  0
 10 30  1  0
 12 31  1  0
 12 32  1  0
 13 33  1  0
 13 34  1  0
 15 35  1  6
 16 36  1  0
 16 37  1  0
 18 38  1  0
 19 39  1  0
 19 40  1  0
 20 41  1  0
 20 42  1  0
 23 43  1  0
 23 44  1  0
 23 45  1  0
 24 46  1  0
M  END
>  <Ligand ID>  (1) 
LIG0004616

>  <Ligand>  (1) 
Stupenone

>  <SMILES>  (1) 
COc1ccc2c3c1OC1[C@@]43CCN([C@H](C2)[C@]4(O)CCC1=O)C.Cl

>  <CID>  (1) 
5464086.0

>  <ChEMBL ID>  (1) 
nan

>  <InChiKey>  (1) 
MUZQPDBAOYKNLO-CJJIHIERSA-N

>  <InChi>  (1) 
InChI=1S/C18H21NO4.ClH/c1-19-8-7-17-14-10-3-4-12(22-2)15(14)23-16(17)11(20)5-6-18(17,21)13(19)9-10;/h3-4,13,16,21H,5-9H2,1-2H3;1H/t13-,16?,17+,18-;/m1./s1

>  <IUPAC Name>  (1) 
(4R,4aS,12bS)-4a-hydroxy-9-methoxy-3-methyl-2,4,5,6,7a,13-hexahydro-1H-4,12-methanobenzofuro[3,2-e]isoquinolin-7-one;hydrochloride

$$$$
