
     RDKit          3D

 41 43  0  0  0  0  0  0  0  0999 V2000
    4.3601   -0.4198    1.5072 O   0  0  0  0  0  0  0  0  0  0  0  0
    3.1922   -0.8414    0.9168 C   0  0  0  0  0  0  0  0  0  0  0  0
    3.0600   -2.0181    0.4670 O   0  0  0  0  0  0  0  0  0  0  0  0
    1.9887    0.0448    0.7564 C   0  0  0  0  0  0  0  0  0  0  0  0
    1.7749    0.1925   -0.6841 C   0  0  0  0  0  0  0  0  0  0  0  0
    2.8047    0.4392   -1.5830 C   0  0  0  0  0  0  0  0  0  0  0  0
    2.2521    0.5020   -2.7835 N   0  0  0  0  0  0  0  0  0  0  0  0
    0.9581    0.3114   -2.6829 N   0  0  0  0  0  0  0  0  0  0  0  0
    0.6032    0.1109   -1.3751 C   0  0  0  0  0  0  0  0  0  0  0  0
   -0.7917   -0.1215   -0.9185 C   0  0  0  0  0  0  0  0  0  0  0  0
   -1.4438    1.1024   -0.4417 C   0  0  0  0  0  0  0  0  0  0  0  0
   -1.1798    1.7231    0.7623 C   0  0  0  0  0  0  0  0  0  0  0  0
   -1.8289    2.8806    1.1690 C   0  0  0  0  0  0  0  0  0  0  0  0
   -2.7776    3.4715    0.3819 C   0  0  0  0  0  0  0  0  0  0  0  0
   -3.0637    2.8744   -0.8284 C   0  0  0  0  0  0  0  0  0  0  0  0
   -2.4258    1.7417   -1.2218 C   0  0  0  0  0  0  0  0  0  0  0  0
   -0.9449   -1.3041   -0.0463 C   0  0  0  0  0  0  0  0  0  0  0  0
   -1.5467   -1.3147    1.1827 C   0  0  0  0  0  0  0  0  0  0  0  0
   -1.6472   -2.4640    1.9627 C   0  0  0  0  0  0  0  0  0  0  0  0
   -1.1156   -3.6554    1.4771 C   0  0  0  0  0  0  0  0  0  0  0  0
   -0.5086   -3.6536    0.2410 C   0  0  0  0  0  0  0  0  0  0  0  0
   -0.4250   -2.4985   -0.5069 C   0  0  0  0  0  0  0  0  0  0  0  0
    0.1111    0.3200   -3.7699 O   0  0  0  0  0  0  0  0  0  0  0  0
    2.3505    1.3282    1.3293 N   0  0  0  0  0  0  0  0  0  0  0  0
    5.0739   -1.1239    1.7059 H   0  0  0  0  0  0  0  0  0  0  0  0
    1.1915   -0.4179    1.3290 H   0  0  0  0  0  0  0  0  0  0  0  0
    3.8513    0.5577   -1.3538 H   0  0  0  0  0  0  0  0  0  0  0  0
   -1.3702   -0.4221   -1.8540 H   0  0  0  0  0  0  0  0  0  0  0  0
   -0.4450    1.3323    1.4451 H   0  0  0  0  0  0  0  0  0  0  0  0
   -1.5919    3.3476    2.1371 H   0  0  0  0  0  0  0  0  0  0  0  0
   -3.2774    4.3682    0.7018 H   0  0  0  0  0  0  0  0  0  0  0  0
   -3.8078    3.3424   -1.4401 H   0  0  0  0  0  0  0  0  0  0  0  0
   -2.6947    1.3102   -2.1970 H   0  0  0  0  0  0  0  0  0  0  0  0
   -1.9840   -0.4254    1.6037 H   0  0  0  0  0  0  0  0  0  0  0  0
   -2.1407   -2.4149    2.9423 H   0  0  0  0  0  0  0  0  0  0  0  0
   -1.2086   -4.5314    2.1052 H   0  0  0  0  0  0  0  0  0  0  0  0
   -0.1075   -4.6034   -0.1007 H   0  0  0  0  0  0  0  0  0  0  0  0
    0.0740   -2.5903   -1.4758 H   0  0  0  0  0  0  0  0  0  0  0  0
   -0.8890    0.2429   -3.7223 H   0  0  0  0  0  0  0  0  0  0  0  0
    2.7105    2.0141    0.6409 H   0  0  0  0  0  0  0  0  0  0  0  0
    2.8592    1.2621    2.2214 H   0  0  0  0  0  0  0  0  0  0  0  0
  1  2  1  0
  2  3  2  0
  2  4  1  0
  4  5  1  0
  5  6  1  0
  6  7  2  0
  7  8  1  0
  8  9  1  0
  9 10  1  0
 10 11  1  0
 11 12  2  0
 12 13  1  0
 13 14  2  0
 14 15  1  0
 15 16  2  0
 10 17  1  0
 17 18  2  0
 18 19  1  0
 19 20  2  0
 20 21  1  0
 21 22  2  0
  8 23  1  0
  4 24  1  0
  9  5  2  0
 16 11  1  0
 22 17  1  0
  1 25  1  0
  4 26  1  0
  6 27  1  0
 10 28  1  0
 12 29  1  0
 13 30  1  0
 14 31  1  0
 15 32  1  0
 16 33  1  0
 18 34  1  0
 19 35  1  0
 20 36  1  0
 21 37  1  0
 22 38  1  0
 23 39  1  0
 24 40  1  0
 24 41  1  0
M  END
>  <Ligand ID>  (1) 
LIG0001245

>  <Ligand>  (1) 
CHEMBL244005

>  <SMILES>  (1) 
OC(=O)C(c1cnn(c1C(c1ccccc1)c1ccccc1)O)N

>  <CID>  (1) 
44428740.0

>  <ChEMBL ID>  (1) 
nan

>  <InChiKey>  (1) 
OWCLZCADURHJFH-UHFFFAOYSA-N

>  <InChi>  (1) 
InChI=1S/C18H17N3O3/c19-16(18(22)23)14-11-20-21(24)17(14)15(12-7-3-1-4-8-12)13-9-5-2-6-10-13/h1-11,15-16,24H,19H2,(H,22,23)

>  <IUPAC Name>  (1) 
2-amino-2-(5-benzhydryl-1-hydroxypyrazol-4-yl)acetic acid

$$$$
