
     RDKit          3D

 61 65  0  0  0  0  0  0  0  0999 V2000
   -3.8841   -1.9763    0.7606 O   0  0  0  0  0  0  0  0  0  0  0  0
   -4.1141   -0.8620    1.2964 C   0  0  0  0  0  0  0  0  0  0  0  0
   -5.3550   -0.5565    2.0541 C   0  0  2  0  0  0  0  0  0  0  0  0
   -6.2764   -1.7672    2.0806 C   0  0  0  0  0  0  0  0  0  0  0  0
   -6.8275   -1.6944    0.6520 C   0  0  0  0  0  0  0  0  0  0  0  0
   -7.0682   -0.2294    0.5675 C   0  0  0  0  0  0  0  0  0  0  0  0
   -6.2016    0.4140    1.3909 N   0  0  0  0  0  0  0  0  0  0  0  0
   -6.3057    1.7554    1.4170 C   0  0  0  0  0  0  0  0  0  0  0  0
   -5.5515    2.4410    2.1446 O   0  0  0  0  0  0  0  0  0  0  0  0
   -7.2332    2.4525    0.6580 C   0  0  0  0  0  0  0  0  0  0  0  0
   -8.1079    1.7619   -0.1767 C   0  0  0  0  0  0  0  0  0  0  0  0
   -7.9768    0.4211   -0.1789 N   0  0  0  0  0  0  0  0  0  0  0  0
   -3.1283    0.1531    1.1645 N   0  0  0  0  0  0  0  0  0  0  0  0
   -1.9501   -0.2067    0.4189 C   0  0  0  0  0  0  0  0  0  0  0  0
   -1.9760    0.0252   -0.9429 C   0  0  0  0  0  0  0  0  0  0  0  0
   -0.8709   -0.3050   -1.6873 C   0  0  0  0  0  0  0  0  0  0  0  0
    0.2615   -0.8622   -1.1029 C   0  0  0  0  0  0  0  0  0  0  0  0
    0.2566   -1.0812    0.2576 C   0  0  0  0  0  0  0  0  0  0  0  0
   -0.8436   -0.7612    1.0524 C   0  0  0  0  0  0  0  0  0  0  0  0
    1.3899   -1.1788   -1.9893 C   0  0  0  0  0  0  0  0  0  0  0  0
    2.3006    0.0083   -2.0790 C   0  0  2  0  0  0  0  0  0  0  0  0
    3.4905   -0.2435   -2.9781 C   0  0  0  0  0  0  0  0  0  0  0  0
    4.4985    0.7673   -2.4720 C   0  0  0  0  0  0  0  0  0  0  0  0
    3.8573    1.3480   -1.2127 C   0  0  1  0  0  0  0  0  0  0  0  0
    2.9494    0.2965   -0.8022 N   0  0  0  0  0  0  0  0  0  0  0  0
    4.8202    1.7965   -0.1892 C   0  0  1  0  0  0  0  0  0  0  0  0
    5.5886    0.7200    0.4197 C   0  0  0  0  0  0  0  0  0  0  0  0
    6.5548    1.0861    1.3581 C   0  0  0  0  0  0  0  0  0  0  0  0
    7.3535    0.1825    2.0029 C   0  0  0  0  0  0  0  0  0  0  0  0
    7.2368   -1.1533    1.7495 C   0  0  0  0  0  0  0  0  0  0  0  0
    6.2916   -1.5502    0.8271 C   0  0  0  0  0  0  0  0  0  0  0  0
    5.4787   -0.6204    0.1717 C   0  0  0  0  0  0  0  0  0  0  0  0
    5.6474    2.8338   -0.6567 O   0  0  0  0  0  0  0  0  0  0  0  0
   -5.0631   -0.2387    3.0757 H   0  0  0  0  0  0  0  0  0  0  0  0
   -7.0952   -1.5434    2.7644 H   0  0  0  0  0  0  0  0  0  0  0  0
   -5.7357   -2.7089    2.2528 H   0  0  0  0  0  0  0  0  0  0  0  0
   -6.0669   -2.0382   -0.0707 H   0  0  0  0  0  0  0  0  0  0  0  0
   -7.7613   -2.2774    0.5445 H   0  0  0  0  0  0  0  0  0  0  0  0
   -7.3162    3.5226    0.6788 H   0  0  0  0  0  0  0  0  0  0  0  0
   -8.8451    2.2691   -0.7842 H   0  0  0  0  0  0  0  0  0  0  0  0
   -3.2167    1.1103    1.5682 H   0  0  0  0  0  0  0  0  0  0  0  0
   -2.8671    0.4644   -1.4075 H   0  0  0  0  0  0  0  0  0  0  0  0
   -0.9272   -0.1075   -2.7621 H   0  0  0  0  0  0  0  0  0  0  0  0
    1.1369   -1.5153    0.7175 H   0  0  0  0  0  0  0  0  0  0  0  0
   -0.8541   -0.9303    2.1190 H   0  0  0  0  0  0  0  0  0  0  0  0
    1.9792   -2.0372   -1.6187 H   0  0  0  0  0  0  0  0  0  0  0  0
    1.0240   -1.3800   -3.0155 H   0  0  0  0  0  0  0  0  0  0  0  0
    1.7846    0.9095   -2.4748 H   0  0  0  0  0  0  0  0  0  0  0  0
    3.9159   -1.2664   -2.7823 H   0  0  0  0  0  0  0  0  0  0  0  0
    3.2327   -0.1077   -4.0487 H   0  0  0  0  0  0  0  0  0  0  0  0
    4.4981    1.5910   -3.2473 H   0  0  0  0  0  0  0  0  0  0  0  0
    5.5018    0.3750   -2.3165 H   0  0  0  0  0  0  0  0  0  0  0  0
    3.1646    2.1917   -1.5396 H   0  0  0  0  0  0  0  0  0  0  0  0
    2.3060    0.5809   -0.0567 H   0  0  0  0  0  0  0  0  0  0  0  0
    4.2120    2.2811    0.6359 H   0  0  0  0  0  0  0  0  0  0  0  0
    6.7052    2.1446    1.6129 H   0  0  0  0  0  0  0  0  0  0  0  0
    8.1024    0.4938    2.7333 H   0  0  0  0  0  0  0  0  0  0  0  0
    7.8703   -1.8646    2.2616 H   0  0  0  0  0  0  0  0  0  0  0  0
    6.1921   -2.6028    0.6202 H   0  0  0  0  0  0  0  0  0  0  0  0
    4.7819   -1.0307   -0.5277 H   0  0  0  0  0  0  0  0  0  0  0  0
    5.0358    3.5766   -0.9086 H   0  0  0  0  0  0  0  0  0  0  0  0
  1  2  2  0
  2  3  1  0
  3  4  1  0
  4  5  1  0
  5  6  1  0
  6  7  1  0
  7  8  1  0
  8  9  2  0
  8 10  1  0
 10 11  2  0
 11 12  1  0
  2 13  1  0
 13 14  1  0
 14 15  2  0
 15 16  1  0
 16 17  2  0
 17 18  1  0
 18 19  2  0
 17 20  1  0
 20 21  1  0
 21 22  1  0
 22 23  1  0
 23 24  1  0
 24 25  1  0
 24 26  1  0
 26 27  1  0
 27 28  2  0
 28 29  1  0
 29 30  2  0
 30 31  1  0
 31 32  2  0
 26 33  1  0
  7  3  1  0
 19 14  1  0
 25 21  1  0
 32 27  1  0
 12  6  2  0
  3 34  1  1
  4 35  1  0
  4 36  1  0
  5 37  1  0
  5 38  1  0
 10 39  1  0
 11 40  1  0
 13 41  1  0
 15 42  1  0
 16 43  1  0
 18 44  1  0
 19 45  1  0
 20 46  1  0
 20 47  1  0
 21 48  1  6
 22 49  1  0
 22 50  1  0
 23 51  1  0
 23 52  1  0
 24 53  1  6
 25 54  1  0
 26 55  1  1
 28 56  1  0
 29 57  1  0
 30 58  1  0
 31 59  1  0
 32 60  1  0
 33 61  1  0
M  END
>  <Ligand ID>  (1) 
LIG0001299

>  <Ligand>  (1) 
vibegron

>  <SMILES>  (1) 
O=C([C@@H]1CCc2n1c(=O)ccn2)Nc1ccc(cc1)C[C@@H]1CC[C@@H](N1)[C@@H](c1ccccc1)O

>  <CID>  (1) 
44472635.0

>  <ChEMBL ID>  (1) 
nan

>  <InChiKey>  (1) 
DJXRIQMCROIRCZ-XOEOCAAJSA-N

>  <InChi>  (1) 
InChI=1S/C26H28N4O3/c31-24-14-15-27-23-13-12-22(30(23)24)26(33)29-19-8-6-17(7-9-19)16-20-10-11-21(28-20)25(32)18-4-2-1-3-5-18/h1-9,14-15,20-22,25,28,32H,10-13,16H2,(H,29,33)/t20-,21+,22-,25+/m0/s1

>  <IUPAC Name>  (1) 
(6S)-N-[4-[[(2S,5R)-5-[(R)-hydroxy(phenyl)methyl]pyrrolidin-2-yl]methyl]phenyl]-4-oxo-7,8-dihydro-6H-pyrrolo[1,2-a]pyrimidine-6-carboxamide

$$$$
