
     RDKit          3D

 24 24  0  0  0  0  0  0  0  0999 V2000
   -2.3807   -1.8148   -0.3744 N   0  0  0  0  0  0  0  0  0  0  0  0
   -2.1377   -0.5927    0.3602 C   0  0  1  0  0  0  0  0  0  0  0  0
   -0.6920   -0.2997    0.2153 C   0  0  0  0  0  0  0  0  0  0  0  0
    0.1839   -1.3488    0.3951 C   0  0  0  0  0  0  0  0  0  0  0  0
    1.5373   -1.1466    0.2742 C   0  0  0  0  0  0  0  0  0  0  0  0
    2.0476    0.0875   -0.0245 C   0  0  0  0  0  0  0  0  0  0  0  0
    1.1733    1.1480   -0.2069 C   0  0  0  0  0  0  0  0  0  0  0  0
   -0.1816    0.9395   -0.0846 C   0  0  0  0  0  0  0  0  0  0  0  0
    1.6512    2.4221   -0.5126 O   0  0  0  0  0  0  0  0  0  0  0  0
    3.4773    0.3253   -0.1575 C   0  0  0  0  0  0  0  0  0  0  0  0
    3.8475    1.5100   -0.4375 O   0  0  0  0  0  0  0  0  0  0  0  0
    4.3822   -0.7139    0.0185 O   0  0  0  0  0  0  0  0  0  0  0  0
   -3.0294    0.4843   -0.0617 C   0  0  0  0  0  0  0  0  0  0  0  0
   -3.8728    0.2815   -1.0001 O   0  0  0  0  0  0  0  0  0  0  0  0
   -3.0423    1.7551    0.4875 O   0  0  0  0  0  0  0  0  0  0  0  0
   -2.0779   -1.7937   -1.3605 H   0  0  0  0  0  0  0  0  0  0  0  0
   -3.2895   -2.2660   -0.1823 H   0  0  0  0  0  0  0  0  0  0  0  0
   -2.2865   -0.8504    1.4384 H   0  0  0  0  0  0  0  0  0  0  0  0
   -0.1408   -2.3557    0.6337 H   0  0  0  0  0  0  0  0  0  0  0  0
    2.2252   -1.9692    0.4151 H   0  0  0  0  0  0  0  0  0  0  0  0
   -0.8320    1.7645   -0.2288 H   0  0  0  0  0  0  0  0  0  0  0  0
    1.9597    2.6206   -1.4682 H   0  0  0  0  0  0  0  0  0  0  0  0
    5.3425   -0.5375   -0.2668 H   0  0  0  0  0  0  0  0  0  0  0  0
   -3.8645    2.3507    0.5349 H   0  0  0  0  0  0  0  0  0  0  0  0
  1  2  1  0
  2  3  1  0
  3  4  2  0
  4  5  1  0
  5  6  2  0
  6  7  1  0
  7  8  2  0
  7  9  1  0
  6 10  1  0
 10 11  2  0
 10 12  1  0
  2 13  1  0
 13 14  2  0
 13 15  1  0
  8  3  1  0
  1 16  1  0
  1 17  1  0
  2 18  1  1
  4 19  1  0
  5 20  1  0
  8 21  1  0
  9 22  1  0
 12 23  1  0
 15 24  1  0
M  END
>  <Ligand ID>  (1) 
LIG0005778

>  <Ligand>  (1) 
(S)-4-CARBOXY-3-HYDROXYPHENYLGLYCINE

>  <SMILES>  (1) 
N[C@@H](c1ccc(c(c1)O)C(=O)O)C(=O)O

>  <CID>  (1) 
5311455.0

>  <ChEMBL ID>  (1) 
nan

>  <InChiKey>  (1) 
GXZSAQLJWLCLOX-ZETCQYMHSA-N

>  <InChi>  (1) 
InChI=1S/C9H9NO5/c10-7(9(14)15)4-1-2-5(8(12)13)6(11)3-4/h1-3,7,11H,10H2,(H,12,13)(H,14,15)/t7-/m0/s1

>  <IUPAC Name>  (1) 
4-[(S)-amino(carboxy)methyl]-2-hydroxybenzoic acid

$$$$
