
     RDKit          3D

 14 13  0  0  0  0  0  0  0  0999 V2000
    1.7109   -0.6276   -0.3218 C   0  0  0  0  0  0  0  0  0  0  0  0
    0.8314    0.4947    0.1016 C   0  0  0  0  0  0  0  0  0  0  0  0
    1.1944    1.3642    0.8852 O   0  0  0  0  0  0  0  0  0  0  0  0
   -0.5416    0.5349   -0.4684 C   0  0  0  0  0  0  0  0  0  0  0  0
   -1.2700    1.6266   -0.0010 O   0  0  0  0  0  0  0  0  0  0  0  0
   -1.3465   -0.6944   -0.0409 C   0  0  0  0  0  0  0  0  0  0  0  0
    2.7798   -0.4368   -0.0414 H   0  0  0  0  0  0  0  0  0  0  0  0
    1.6662   -0.7780   -1.4159 H   0  0  0  0  0  0  0  0  0  0  0  0
    1.4057   -1.5207    0.2386 H   0  0  0  0  0  0  0  0  0  0  0  0
   -0.5213    0.5347   -1.5798 H   0  0  0  0  0  0  0  0  0  0  0  0
   -1.0805    2.4582   -0.5040 H   0  0  0  0  0  0  0  0  0  0  0  0
   -2.4476   -0.4425   -0.0613 H   0  0  0  0  0  0  0  0  0  0  0  0
   -1.1611   -0.9660    1.0230 H   0  0  0  0  0  0  0  0  0  0  0  0
   -1.2198   -1.5475   -0.7296 H   0  0  0  0  0  0  0  0  0  0  0  0
  1  2  1  0
  2  3  2  0
  2  4  1  0
  4  5  1  0
  4  6  1  0
  1  7  1  0
  1  8  1  0
  1  9  1  0
  4 10  1  0
  5 11  1  0
  6 12  1  0
  6 13  1  0
  6 14  1  0
M  END
>  <Ligand ID>  (1) 
LIG0000726

>  <Ligand>  (1) 
Acetoin

>  <SMILES>  (1) 
CC(=O)C(O)C

>  <CID>  (1) 
179.0

>  <ChEMBL ID>  (1) 
nan

>  <InChiKey>  (1) 
ROWKJAVDOGWPAT-UHFFFAOYSA-N

>  <InChi>  (1) 
InChI=1S/C4H8O2/c1-3(5)4(2)6/h3,5H,1-2H3

>  <IUPAC Name>  (1) 
3-hydroxybutan-2-one

$$$$
