
     RDKit          3D

138139  0  0  0  0  0  0  0  0999 V2000
    5.0454    5.9570    0.6442 C   0  0  0  0  0  0  0  0  0  0  0  0
    3.7549    5.8720    0.1886 O   0  0  0  0  0  0  0  0  0  0  0  0
    3.2988    4.5857    0.1052 C   0  0  0  0  0  0  0  0  0  0  0  0
    4.1155    3.7571   -0.8357 C   0  0  0  0  0  0  0  0  0  0  0  0
    3.4895    2.3907   -0.8151 N   0  0  0  0  0  0  0  0  0  0  0  0
    2.4876    2.2189   -1.7699 C   0  0  0  0  0  0  0  0  0  0  0  0
    2.3684    3.2381   -2.5812 O   0  0  0  0  0  0  0  0  0  0  0  0
    1.5603    1.1406   -2.0440 C   0  0  2  0  0  0  0  0  0  0  0  0
    0.3409    1.5208   -2.7990 C   0  0  0  0  0  0  0  0  0  0  0  0
   -0.8236    2.1968   -2.3032 C   0  0  0  0  0  0  0  0  0  0  0  0
   -0.7987    3.7022   -1.3716 S   0  0  0  0  0  0  0  0  0  0  0  0
   -0.2721    3.2987    0.3521 C   0  0  0  0  0  0  0  0  0  0  0  0
   -1.2365    2.3191    0.9378 C   0  0  0  0  0  0  0  0  0  0  0  0
   -2.6026    2.8158    1.1822 C   0  0  0  0  0  0  0  0  0  0  0  0
   -2.9249    3.9898    1.4148 O   0  0  0  0  0  0  0  0  0  0  0  0
   -3.7398    1.9073    1.1520 N   0  0  0  0  0  0  0  0  0  0  0  0
   -5.0772    2.3671    1.5651 C   0  0  1  0  0  0  0  0  0  0  0  0
   -5.7283    3.0342    0.3411 C   0  0  0  0  0  0  0  0  0  0  0  0
   -7.0775    3.5300    0.6432 C   0  0  0  0  0  0  0  0  0  0  0  0
   -7.2443    4.8062    1.2036 C   0  0  0  0  0  0  0  0  0  0  0  0
   -8.5278    5.2899    1.4724 C   0  0  0  0  0  0  0  0  0  0  0  0
   -9.6274    4.5176    1.1904 C   0  0  0  0  0  0  0  0  0  0  0  0
   -9.4721    3.2765    0.6473 C   0  0  0  0  0  0  0  0  0  0  0  0
   -8.2232    2.7857    0.3752 C   0  0  0  0  0  0  0  0  0  0  0  0
  -10.8938    5.0263    1.4707 O   0  0  0  0  0  0  0  0  0  0  0  0
   -5.8264    1.1373    1.8752 C   0  0  0  0  0  0  0  0  0  0  0  0
   -6.6710    1.0399    2.7788 O   0  0  0  0  0  0  0  0  0  0  0  0
   -5.6480   -0.0857    1.1175 N   0  0  0  0  0  0  0  0  0  0  0  0
   -6.1530   -1.3783    1.4536 C   0  0  2  0  0  0  0  0  0  0  0  0
   -5.2126   -2.5083    1.1607 C   0  0  0  0  0  0  0  0  0  0  0  0
   -5.3744   -3.6706    1.5686 O   0  0  0  0  0  0  0  0  0  0  0  0
   -4.0895   -2.2595    0.3823 N   0  0  0  0  0  0  0  0  0  0  0  0
   -3.0115   -3.2529    0.0135 C   0  0  2  0  0  0  0  0  0  0  0  0
   -1.7540   -2.4992    0.1945 C   0  0  0  0  0  0  0  0  0  0  0  0
   -1.9626   -1.2688    0.5143 O   0  0  0  0  0  0  0  0  0  0  0  0
   -0.4044   -2.8425    0.0930 N   0  0  0  0  0  0  0  0  0  0  0  0
    0.5483   -1.7355    0.3601 C   0  0  2  0  0  0  0  0  0  0  0  0
    0.8457   -1.0786   -0.9698 C   0  0  0  0  0  0  0  0  0  0  0  0
    0.7637   -1.6148   -2.0633 O   0  0  0  0  0  0  0  0  0  0  0  0
    1.2387    0.2830   -0.9349 N   0  0  0  0  0  0  0  0  0  0  0  0
    1.7725   -2.2034    1.0772 C   0  0  0  0  0  0  0  0  0  0  0  0
    1.3111   -2.7950    2.3773 C   0  0  0  0  0  0  0  0  0  0  0  0
    2.1274   -3.2460    3.2328 O   0  0  0  0  0  0  0  0  0  0  0  0
   -0.0688   -2.8846    2.7248 N   0  0  0  0  0  0  0  0  0  0  0  0
   -3.2242   -3.5968   -1.4251 C   0  0  0  0  0  0  0  0  0  0  0  0
   -2.2197   -4.5704   -1.9441 C   0  0  0  0  0  0  0  0  0  0  0  0
   -2.1848   -5.8588   -1.2211 C   0  0  0  0  0  0  0  0  0  0  0  0
   -2.9634   -6.2189   -0.3191 O   0  0  0  0  0  0  0  0  0  0  0  0
   -1.1417   -6.7757   -1.6098 N   0  0  0  0  0  0  0  0  0  0  0  0
   -7.5176   -1.6873    0.8728 C   0  0  2  0  0  0  0  0  0  0  0  0
   -7.5801   -1.5746   -0.6061 C   0  0  0  0  0  0  0  0  0  0  0  0
   -6.6853   -2.4753   -1.3961 C   0  0  0  0  0  0  0  0  0  0  0  0
   -8.6303   -0.9826    1.5885 C   0  0  0  0  0  0  0  0  0  0  0  0
    4.0777    1.4905    0.1102 C   0  0  0  0  0  0  0  0  0  0  0  0
    5.2807    0.8706   -0.5951 C   0  0  0  0  0  0  0  0  0  0  0  0
    5.4132    1.2572   -1.7912 O   0  0  0  0  0  0  0  0  0  0  0  0
    6.1516   -0.0345    0.0276 N   0  0  0  0  0  0  0  0  0  0  0  0
    7.2684   -0.5283   -0.8238 C   0  0  2  0  0  0  0  0  0  0  0  0
    7.3169   -1.9866   -0.6416 C   0  0  0  0  0  0  0  0  0  0  0  0
    8.1574   -2.7421   -1.2244 O   0  0  0  0  0  0  0  0  0  0  0  0
    6.4022   -2.6992    0.2256 N   0  0  0  0  0  0  0  0  0  0  0  0
    6.4816   -4.1361    0.3793 C   0  0  0  0  0  0  0  0  0  0  0  0
    7.7876   -4.5460    0.9263 C   0  0  0  0  0  0  0  0  0  0  0  0
    8.0251   -5.7906    1.1194 O   0  0  0  0  0  0  0  0  0  0  0  0
    8.8376   -3.6608    1.2701 N   0  0  0  0  0  0  0  0  0  0  0  0
    8.4413    0.2738   -0.3845 C   0  0  0  0  0  0  0  0  0  0  0  0
    9.7548    0.1184   -1.0210 C   0  0  0  0  0  0  0  0  0  0  0  0
   10.6624    1.1769   -0.2975 C   0  0  0  0  0  0  0  0  0  0  0  0
   10.5062   -1.1530   -0.8804 C   0  0  0  0  0  0  0  0  0  0  0  0
    5.3613    7.0252    0.7004 H   0  0  0  0  0  0  0  0  0  0  0  0
    5.1982    5.4182    1.6165 H   0  0  0  0  0  0  0  0  0  0  0  0
    5.7233    5.5000   -0.1073 H   0  0  0  0  0  0  0  0  0  0  0  0
    3.2076    4.1085    1.1170 H   0  0  0  0  0  0  0  0  0  0  0  0
    2.2516    4.6130   -0.2900 H   0  0  0  0  0  0  0  0  0  0  0  0
    4.0895    4.1723   -1.8443 H   0  0  0  0  0  0  0  0  0  0  0  0
    5.1568    3.6202   -0.5509 H   0  0  0  0  0  0  0  0  0  0  0  0
    2.0847    0.4284   -2.7888 H   0  0  0  0  0  0  0  0  0  0  0  0
    0.6585    2.0955   -3.7622 H   0  0  0  0  0  0  0  0  0  0  0  0
   -0.0443    0.5595   -3.3128 H   0  0  0  0  0  0  0  0  0  0  0  0
   -1.4637    2.4486   -3.2327 H   0  0  0  0  0  0  0  0  0  0  0  0
   -1.5826    1.4450   -1.8204 H   0  0  0  0  0  0  0  0  0  0  0  0
    0.7295    2.9040    0.3059 H   0  0  0  0  0  0  0  0  0  0  0  0
   -0.2571    4.2353    0.9550 H   0  0  0  0  0  0  0  0  0  0  0  0
   -1.2676    1.3733    0.3284 H   0  0  0  0  0  0  0  0  0  0  0  0
   -0.8613    1.9904    1.9543 H   0  0  0  0  0  0  0  0  0  0  0  0
   -3.5110    0.9777    0.8314 H   0  0  0  0  0  0  0  0  0  0  0  0
   -5.0653    3.0559    2.4007 H   0  0  0  0  0  0  0  0  0  0  0  0
   -5.7590    2.3534   -0.5273 H   0  0  0  0  0  0  0  0  0  0  0  0
   -5.0777    3.8946    0.0011 H   0  0  0  0  0  0  0  0  0  0  0  0
   -6.3723    5.4346    1.4314 H   0  0  0  0  0  0  0  0  0  0  0  0
   -8.6253    6.2862    1.9029 H   0  0  0  0  0  0  0  0  0  0  0  0
  -10.3430    2.6953    0.4374 H   0  0  0  0  0  0  0  0  0  0  0  0
   -8.0523    1.8215   -0.0639 H   0  0  0  0  0  0  0  0  0  0  0  0
  -11.3787    5.5530    0.7399 H   0  0  0  0  0  0  0  0  0  0  0  0
   -5.1334    0.0653    0.2465 H   0  0  0  0  0  0  0  0  0  0  0  0
   -6.3323   -1.4449    2.5892 H   0  0  0  0  0  0  0  0  0  0  0  0
   -3.9302   -1.3409   -0.0028 H   0  0  0  0  0  0  0  0  0  0  0  0
   -3.1087   -4.1486    0.6200 H   0  0  0  0  0  0  0  0  0  0  0  0
   -0.1324   -3.7797   -0.1263 H   0  0  0  0  0  0  0  0  0  0  0  0
    0.0228   -0.9987    1.0040 H   0  0  0  0  0  0  0  0  0  0  0  0
    1.2857    0.6911    0.0103 H   0  0  0  0  0  0  0  0  0  0  0  0
    2.3437   -1.2990    1.3696 H   0  0  0  0  0  0  0  0  0  0  0  0
    2.3671   -2.9336    0.5273 H   0  0  0  0  0  0  0  0  0  0  0  0
   -0.5252   -3.8247    2.9041 H   0  0  0  0  0  0  0  0  0  0  0  0
   -0.6121   -2.0129    2.7958 H   0  0  0  0  0  0  0  0  0  0  0  0
   -3.1711   -2.6930   -2.0806 H   0  0  0  0  0  0  0  0  0  0  0  0
   -4.2322   -4.0953   -1.5765 H   0  0  0  0  0  0  0  0  0  0  0  0
   -1.2191   -4.1632   -2.0283 H   0  0  0  0  0  0  0  0  0  0  0  0
   -2.4838   -4.8183   -3.0478 H   0  0  0  0  0  0  0  0  0  0  0  0
   -1.4406   -7.7367   -1.8880 H   0  0  0  0  0  0  0  0  0  0  0  0
   -0.1339   -6.5077   -1.6190 H   0  0  0  0  0  0  0  0  0  0  0  0
   -7.7044   -2.8122    1.0869 H   0  0  0  0  0  0  0  0  0  0  0  0
   -8.6506   -1.7909   -0.9259 H   0  0  0  0  0  0  0  0  0  0  0  0
   -7.4534   -0.5059   -0.9441 H   0  0  0  0  0  0  0  0  0  0  0  0
   -5.7579   -1.9819   -1.7757 H   0  0  0  0  0  0  0  0  0  0  0  0
   -7.2290   -2.8533   -2.3325 H   0  0  0  0  0  0  0  0  0  0  0  0
   -6.4842   -3.4022   -0.8431 H   0  0  0  0  0  0  0  0  0  0  0  0
   -8.4033   -1.0539    2.6941 H   0  0  0  0  0  0  0  0  0  0  0  0
   -9.5645   -1.5578    1.3893 H   0  0  0  0  0  0  0  0  0  0  0  0
   -8.7530    0.0540    1.2810 H   0  0  0  0  0  0  0  0  0  0  0  0
    3.5160    0.6465    0.4673 H   0  0  0  0  0  0  0  0  0  0  0  0
    4.4594    2.0295    1.0047 H   0  0  0  0  0  0  0  0  0  0  0  0
    6.0286   -0.3187    1.0097 H   0  0  0  0  0  0  0  0  0  0  0  0
    7.0233   -0.2257   -1.8766 H   0  0  0  0  0  0  0  0  0  0  0  0
    5.6608   -2.2095    0.7581 H   0  0  0  0  0  0  0  0  0  0  0  0
    5.7068   -4.4994    1.1089 H   0  0  0  0  0  0  0  0  0  0  0  0
    6.2735   -4.5995   -0.6104 H   0  0  0  0  0  0  0  0  0  0  0  0
    9.8548   -3.8495    1.0100 H   0  0  0  0  0  0  0  0  0  0  0  0
    8.6871   -2.7604    1.8057 H   0  0  0  0  0  0  0  0  0  0  0  0
    8.1319    1.3588   -0.5307 H   0  0  0  0  0  0  0  0  0  0  0  0
    8.5522    0.2206    0.7390 H   0  0  0  0  0  0  0  0  0  0  0  0
    9.7959    0.4465   -2.0802 H   0  0  0  0  0  0  0  0  0  0  0  0
   11.5836    1.3186   -0.8715 H   0  0  0  0  0  0  0  0  0  0  0  0
   10.0241    2.0768   -0.2341 H   0  0  0  0  0  0  0  0  0  0  0  0
   10.8299    0.7978    0.7282 H   0  0  0  0  0  0  0  0  0  0  0  0
   10.5258   -1.7613   -1.8147 H   0  0  0  0  0  0  0  0  0  0  0  0
   11.6219   -0.8649   -0.7854 H   0  0  0  0  0  0  0  0  0  0  0  0
   10.3205   -1.7213    0.0263 H   0  0  0  0  0  0  0  0  0  0  0  0
  1  2  1  0
  2  3  1  0
  3  4  1  0
  4  5  1  0
  5  6  1  0
  6  7  2  0
  6  8  1  0
  8  9  1  0
  9 10  1  0
 10 11  1  0
 11 12  1  0
 12 13  1  0
 13 14  1  0
 14 15  2  0
 14 16  1  0
 16 17  1  0
 17 18  1  0
 18 19  1  0
 19 20  2  0
 20 21  1  0
 21 22  2  0
 22 23  1  0
 23 24  2  0
 22 25  1  0
 17 26  1  0
 26 27  2  0
 26 28  1  0
 28 29  1  0
 29 30  1  0
 30 31  2  0
 30 32  1  0
 32 33  1  0
 33 34  1  0
 34 35  2  0
 34 36  1  0
 36 37  1  0
 37 38  1  0
 38 39  2  0
 38 40  1  0
 37 41  1  0
 41 42  1  0
 42 43  2  0
 42 44  1  0
 33 45  1  0
 45 46  1  0
 46 47  1  0
 47 48  2  0
 47 49  1  0
 29 50  1  0
 50 51  1  0
 51 52  1  0
 50 53  1  0
  5 54  1  0
 54 55  1  0
 55 56  2  0
 55 57  1  0
 57 58  1  0
 58 59  1  0
 59 60  2  0
 59 61  1  0
 61 62  1  0
 62 63  1  0
 63 64  2  0
 63 65  1  0
 58 66  1  0
 66 67  1  0
 67 68  1  0
 67 69  1  0
 40  8  1  0
 24 19  1  0
  1 70  1  0
  1 71  1  0
  1 72  1  0
  3 73  1  0
  3 74  1  0
  4 75  1  0
  4 76  1  0
  8 77  1  6
  9 78  1  0
  9 79  1  0
 10 80  1  0
 10 81  1  0
 12 82  1  0
 12 83  1  0
 13 84  1  0
 13 85  1  0
 16 86  1  0
 17 87  1  1
 18 88  1  0
 18 89  1  0
 20 90  1  0
 21 91  1  0
 23 92  1  0
 24 93  1  0
 25 94  1  0
 28 95  1  0
 29 96  1  1
 32 97  1  0
 33 98  1  1
 36 99  1  0
 37100  1  1
 40101  1  0
 41102  1  0
 41103  1  0
 44104  1  0
 44105  1  0
 45106  1  0
 45107  1  0
 46108  1  0
 46109  1  0
 49110  1  0
 49111  1  0
 50112  1  6
 51113  1  0
 51114  1  0
 52115  1  0
 52116  1  0
 52117  1  0
 53118  1  0
 53119  1  0
 53120  1  0
 54121  1  0
 54122  1  0
 57123  1  0
 58124  1  6
 61125  1  0
 62126  1  0
 62127  1  0
 65128  1  0
 65129  1  0
 66130  1  0
 66131  1  0
 67132  1  0
 68133  1  0
 68134  1  0
 68135  1  0
 69136  1  0
 69137  1  0
 69138  1  0
M  END
>  <Ligand ID>  (1) 
LIG0001560

>  <Ligand>  (1) 
CHEMBL3354576

>  <SMILES>  (1) 
COCCN(C(=O)[C@@H]1CCSCCC(=O)N[C@@H](Cc2ccc(cc2)O)C(=O)N[C@H](C(=O)N[C@H](C(=O)N[C@H](C(=O)N1)CC(=O)N)CCC(=O)N)[C@H](CC)C)CC(=O)N[C@H](C(=O)NCC(=O)N)CC(C)C

>  <CID>  (1) 
118720265.0

>  <ChEMBL ID>  (1) 
nan

>  <InChiKey>  (1) 
NJVNZTVLLAAHAG-FRGVEXLJSA-N

>  <InChi>  (1) 
InChI=1S/C44H69N11O13S/c1-6-25(4)38-43(66)51-28(11-12-33(45)57)40(63)53-32(21-34(46)58)41(64)52-29(13-17-69-18-14-36(60)49-31(42(65)54-38)20-26-7-9-27(56)10-8-26)44(67)55(15-16-68-5)23-37(61)50-30(19-24(2)3)39(62)48-22-35(47)59/h7-10,24-25,28-32,38,56H,6,11-23H2,1-5H3,(H2,45,57)(H2,46,58)(H2,47,59)(H,48,62)(H,49,60)(H,50,61)(H,51,66)(H,52,64)(H,53,63)(H,54,65)/t25-,28-,29-,30-,31-,32-,38-/m0/s1

>  <IUPAC Name>  (1) 
(4S,7S,10S,13S,16S)-7-(2-amino-2-oxoethyl)-N-[2-[[(2S)-1-[(2-amino-2-oxoethyl)amino]-4-methyl-1-oxopentan-2-yl]amino]-2-oxoethyl]-10-(3-amino-3-oxopropyl)-13-[(2S)-butan-2-yl]-16-[(4-hydroxyphenyl)methyl]-N-(2-methoxyethyl)-6,9,12,15,18-pentaoxo-1-thia-5,8,11,14,17-pentazacycloicosane-4-carboxamide

$$$$
