
     RDKit          3D

 44 46  0  0  0  0  0  0  0  0999 V2000
   -4.9445   -2.4096    0.5340 C   0  0  0  0  0  0  0  0  0  0  0  0
   -3.6500   -2.5933    0.4660 C   0  0  0  0  0  0  0  0  0  0  0  0
   -2.7748   -2.0639   -0.6222 C   0  0  0  0  0  0  0  0  0  0  0  0
   -1.8460   -1.2294    0.0475 N   0  0  0  0  0  0  0  0  0  0  0  0
   -2.5106   -0.0380    0.5776 C   0  0  0  0  0  0  0  0  0  0  0  0
   -2.1857    1.2351   -0.1750 C   0  0  0  0  0  0  0  0  0  0  0  0
   -0.8370    1.7988   -0.1068 C   0  0  0  0  0  0  0  0  0  0  0  0
    0.4055    1.1854   -0.4044 C   0  0  0  0  0  0  0  0  0  0  0  0
    0.5392   -0.2635   -0.8711 C   0  0  0  0  0  0  0  0  0  0  0  0
   -0.6361   -0.9678   -0.4742 C   0  0  0  0  0  0  0  0  0  0  0  0
    1.8078   -0.8836   -0.4033 C   0  0  0  0  0  0  0  0  0  0  0  0
    2.9323   -0.9899   -1.2196 C   0  0  0  0  0  0  0  0  0  0  0  0
    4.1074   -1.5489   -0.8291 C   0  0  0  0  0  0  0  0  0  0  0  0
    4.2502   -2.0587    0.4449 C   0  0  0  0  0  0  0  0  0  0  0  0
    3.1676   -1.9770    1.2873 C   0  0  0  0  0  0  0  0  0  0  0  0
    1.9634   -1.4000    0.8761 C   0  0  0  0  0  0  0  0  0  0  0  0
    5.4197   -2.6388    0.9012 O   0  0  0  0  0  0  0  0  0  0  0  0
    1.5941    1.8359   -0.2923 C   0  0  0  0  0  0  0  0  0  0  0  0
    1.6087    3.1468    0.1266 C   0  0  0  0  0  0  0  0  0  0  0  0
    0.4315    3.8009    0.4319 C   0  0  0  0  0  0  0  0  0  0  0  0
   -0.7821    3.1312    0.3152 C   0  0  0  0  0  0  0  0  0  0  0  0
   -2.4450    3.9729    0.7148 Br  0  0  0  0  0  0  0  0  0  0  0  0
    0.4602    5.1274    0.8557 O   0  0  0  0  0  0  0  0  0  0  0  0
    2.8542    3.7726    0.2263 O   0  0  0  0  0  0  0  0  0  0  0  0
   -5.4988   -2.8349    1.3673 H   0  0  0  0  0  0  0  0  0  0  0  0
   -5.4527   -1.8379   -0.2333 H   0  0  0  0  0  0  0  0  0  0  0  0
   -3.1219   -3.1716    1.2435 H   0  0  0  0  0  0  0  0  0  0  0  0
   -3.4204   -1.4044   -1.2685 H   0  0  0  0  0  0  0  0  0  0  0  0
   -2.3398   -2.8978   -1.1760 H   0  0  0  0  0  0  0  0  0  0  0  0
   -3.6026   -0.1207    0.5284 H   0  0  0  0  0  0  0  0  0  0  0  0
   -2.2352    0.1470    1.6309 H   0  0  0  0  0  0  0  0  0  0  0  0
   -2.5928    1.2049   -1.2301 H   0  0  0  0  0  0  0  0  0  0  0  0
   -2.8519    1.9878    0.3020 H   0  0  0  0  0  0  0  0  0  0  0  0
    0.7001   -0.1677   -1.9936 H   0  0  0  0  0  0  0  0  0  0  0  0
   -1.2069   -0.2899   -1.1561 H   0  0  0  0  0  0  0  0  0  0  0  0
   -0.3566   -0.6925    0.5728 H   0  0  0  0  0  0  0  0  0  0  0  0
    2.8236   -0.5936   -2.2193 H   0  0  0  0  0  0  0  0  0  0  0  0
    4.9777   -1.6194   -1.4898 H   0  0  0  0  0  0  0  0  0  0  0  0
    3.2665   -2.3754    2.2974 H   0  0  0  0  0  0  0  0  0  0  0  0
    1.1840   -1.3863    1.6093 H   0  0  0  0  0  0  0  0  0  0  0  0
    5.5897   -3.6226    0.9965 H   0  0  0  0  0  0  0  0  0  0  0  0
    2.4945    1.3081   -0.5307 H   0  0  0  0  0  0  0  0  0  0  0  0
   -0.1719    5.7803    0.4346 H   0  0  0  0  0  0  0  0  0  0  0  0
    2.8852    4.6416    0.7727 H   0  0  0  0  0  0  0  0  0  0  0  0
  1  2  2  0
  2  3  1  0
  3  4  1  0
  4  5  1  0
  5  6  1  0
  6  7  1  0
  7  8  2  0
  8  9  1  0
  9 10  1  0
  9 11  1  0
 11 12  2  0
 12 13  1  0
 13 14  2  0
 14 15  1  0
 15 16  2  0
 14 17  1  0
  8 18  1  0
 18 19  2  0
 19 20  1  0
 20 21  2  0
 21 22  1  0
 20 23  1  0
 19 24  1  0
 10  4  1  0
 16 11  1  0
 21  7  1  0
  1 25  1  0
  1 26  1  0
  2 27  1  0
  3 28  1  0
  3 29  1  0
  5 30  1  0
  5 31  1  0
  6 32  1  0
  6 33  1  0
  9 34  1  0
 10 35  1  0
 10 36  1  0
 12 37  1  0
 13 38  1  0
 15 39  1  0
 16 40  1  0
 17 41  1  0
 18 42  1  0
 23 43  1  0
 24 44  1  0
M  END
>  <Ligand ID>  (1) 
LIG0005630

>  <Ligand>  (1) 
CHEMBL131313

>  <SMILES>  (1) 
C=CCN1CCc2c(C(C1)c1ccc(cc1)O)cc(c(c2Br)O)O

>  <CID>  (1) 
13720686.0

>  <ChEMBL ID>  (1) 
nan

>  <InChiKey>  (1) 
XKEQGYALVIXDMO-UHFFFAOYSA-N

>  <InChi>  (1) 
InChI=1S/C19H20BrNO3/c1-2-8-21-9-7-14-15(10-17(23)19(24)18(14)20)16(11-21)12-3-5-13(22)6-4-12/h2-6,10,16,22-24H,1,7-9,11H2

>  <IUPAC Name>  (1) 
9-bromo-5-(4-hydroxyphenyl)-3-prop-2-enyl-1,2,4,5-tetrahydro-3-benzazepine-7,8-diol

$$$$
