
     RDKit          3D

161166  0  0  0  0  0  0  0  0999 V2000
   11.7957   -3.8728    0.1392 C   0  0  0  0  0  0  0  0  0  0  0  0
   10.9383   -4.9425    0.7875 C   0  0  0  0  0  0  0  0  0  0  0  0
    9.6141   -4.3215    1.1868 C   0  0  0  0  0  0  0  0  0  0  0  0
    8.8978   -3.7634   -0.0450 C   0  0  0  0  0  0  0  0  0  0  0  0
    7.6140   -3.1893    0.3654 C   0  0  2  0  0  0  0  0  0  0  0  0
    6.8015   -2.5810   -0.7586 C   0  0  0  0  0  0  0  0  0  0  0  0
    7.0518   -2.8229   -1.9574 O   0  0  0  0  0  0  0  0  0  0  0  0
    5.6905   -1.6908   -0.4325 N   0  0  0  0  0  0  0  0  0  0  0  0
    5.0237   -1.1580   -1.5682 C   0  0  1  0  0  0  0  0  0  0  0  0
    3.8799   -2.0981   -2.0025 C   0  0  0  0  0  0  0  0  0  0  0  0
    3.8566   -3.3594   -1.2407 C   0  0  0  0  0  0  0  0  0  0  0  0
    4.2255   -3.3741   -0.0550 O   0  0  0  0  0  0  0  0  0  0  0  0
    3.4317   -4.6156   -1.7591 N   0  0  0  0  0  0  0  0  0  0  0  0
    3.3836   -5.8316   -0.9238 C   0  0  0  0  0  0  0  0  0  0  0  0
    2.2809   -5.5976    0.1417 C   0  0  0  0  0  0  0  0  0  0  0  0
    1.0821   -5.3225   -0.7889 C   0  0  0  0  0  0  0  0  0  0  0  0
   -0.1418   -5.0213   -0.0314 C   0  0  0  0  0  0  0  0  0  0  0  0
   -1.2560   -4.7103   -1.0378 C   0  0  2  0  0  0  0  0  0  0  0  0
   -2.4495   -4.1818   -0.3385 N   0  0  0  0  0  0  0  0  0  0  0  0
   -2.6621   -2.7689   -0.2237 C   0  0  0  0  0  0  0  0  0  0  0  0
   -1.7528   -2.0448   -0.5974 O   0  0  0  0  0  0  0  0  0  0  0  0
   -3.9835   -2.2379    0.3594 C   0  0  1  0  0  0  0  0  0  0  0  0
   -3.6906   -0.9489    0.8159 N   0  0  0  0  0  0  0  0  0  0  0  0
   -3.4650    0.2448    0.0029 C   0  0  0  0  0  0  0  0  0  0  0  0
   -3.6233   -0.0722   -1.1893 O   0  0  0  0  0  0  0  0  0  0  0  0
   -3.1131    1.5448    0.5346 C   0  0  1  0  0  0  0  0  0  0  0  0
   -2.2430    2.2959   -0.4537 N   0  0  0  0  0  0  0  0  0  0  0  0
   -0.9614    2.7571   -0.0501 C   0  0  0  0  0  0  0  0  0  0  0  0
   -0.6721    2.4614    1.1025 O   0  0  0  0  0  0  0  0  0  0  0  0
    0.0140    3.5206   -0.8591 C   0  0  2  0  0  0  0  0  0  0  0  0
    1.3197    3.2783   -0.1727 N   0  0  0  0  0  0  0  0  0  0  0  0
    2.3750    2.5575   -0.8420 C   0  0  0  0  0  0  0  0  0  0  0  0
    2.0349    2.1838   -1.9628 O   0  0  0  0  0  0  0  0  0  0  0  0
    3.6945    2.3036   -0.2201 C   0  0  1  0  0  0  0  0  0  0  0  0
    4.0875    0.8963   -0.2302 N   0  0  0  0  0  0  0  0  0  0  0  0
    4.4744    0.1630   -1.3574 C   0  0  0  0  0  0  0  0  0  0  0  0
    4.2607    0.8674   -2.4121 O   0  0  0  0  0  0  0  0  0  0  0  0
    3.9396    0.1927    1.0101 C   0  0  0  0  0  0  0  0  0  0  0  0
    4.8158    3.1636   -0.6783 C   0  0  0  0  0  0  0  0  0  0  0  0
    4.6966    4.5998   -0.4620 C   0  0  0  0  0  0  0  0  0  0  0  0
    5.1313    5.1938    0.6958 N   0  0  0  0  0  0  0  0  0  0  0  0
    4.9080    6.5175    0.6294 C   0  0  0  0  0  0  0  0  0  0  0  0
    4.3388    6.7892   -0.5461 N   0  0  0  0  0  0  0  0  0  0  0  0
    4.1992    5.6298   -1.2301 C   0  0  0  0  0  0  0  0  0  0  0  0
    1.6016    3.6748    1.1552 C   0  0  0  0  0  0  0  0  0  0  0  0
   -0.2120    4.9790   -0.7199 C   0  0  0  0  0  0  0  0  0  0  0  0
   -1.4778    5.5724   -1.0861 C   0  0  0  0  0  0  0  0  0  0  0  0
   -1.7863    6.0241   -2.3641 C   0  0  0  0  0  0  0  0  0  0  0  0
   -3.0093    6.5960   -2.6538 C   0  0  0  0  0  0  0  0  0  0  0  0
   -4.0071    6.7563   -1.7017 C   0  0  0  0  0  0  0  0  0  0  0  0
   -3.6947    6.2994   -0.4165 C   0  0  0  0  0  0  0  0  0  0  0  0
   -2.4716    5.7319   -0.1306 C   0  0  0  0  0  0  0  0  0  0  0  0
   -4.6784    6.4407    0.5663 C   0  0  0  0  0  0  0  0  0  0  0  0
   -5.9059    7.0199    0.2355 C   0  0  0  0  0  0  0  0  0  0  0  0
   -6.1965    7.4627   -1.0256 C   0  0  0  0  0  0  0  0  0  0  0  0
   -5.2230    7.3234   -2.0028 C   0  0  0  0  0  0  0  0  0  0  0  0
   -2.6289    2.5621   -1.7831 C   0  0  0  0  0  0  0  0  0  0  0  0
   -4.1639    2.5591    0.8395 C   0  0  0  0  0  0  0  0  0  0  0  0
   -5.2618    2.2932    1.7740 C   0  0  0  0  0  0  0  0  0  0  0  0
   -6.3332    1.3444    1.3513 C   0  0  0  0  0  0  0  0  0  0  0  0
   -7.0149    1.8778    0.1573 N   0  0  0  0  0  0  0  0  0  0  0  0
   -8.2749    2.1218    0.2057 C   0  0  0  0  0  0  0  0  0  0  0  0
   -8.8786    2.6350   -0.9842 N   0  0  0  0  0  0  0  0  0  0  0  0
   -9.0843    1.9120    1.3560 N   0  0  0  0  0  0  0  0  0  0  0  0
   -3.5421   -0.7177    2.2276 C   0  0  0  0  0  0  0  0  0  0  0  0
   -4.9641   -2.5469   -0.6770 C   0  0  0  0  0  0  0  0  0  0  0  0
   -6.3277   -2.1319   -0.3735 C   0  0  0  0  0  0  0  0  0  0  0  0
   -7.0141   -1.1460   -1.0489 C   0  0  0  0  0  0  0  0  0  0  0  0
   -8.2528   -1.0686   -0.5391 N   0  0  0  0  0  0  0  0  0  0  0  0
   -8.4291   -1.9529    0.4451 C   0  0  0  0  0  0  0  0  0  0  0  0
   -7.2190   -2.6289    0.5553 C   0  0  0  0  0  0  0  0  0  0  0  0
   -7.1189   -3.6106    1.5110 C   0  0  0  0  0  0  0  0  0  0  0  0
   -8.2102   -3.8790    2.3086 C   0  0  0  0  0  0  0  0  0  0  0  0
   -9.4108   -3.2338    2.2277 C   0  0  0  0  0  0  0  0  0  0  0  0
   -9.5078   -2.2329    1.2496 C   0  0  0  0  0  0  0  0  0  0  0  0
   -1.6426   -5.9453   -1.7400 C   0  0  0  0  0  0  0  0  0  0  0  0
   -2.8765   -6.2973   -1.5775 O   0  0  0  0  0  0  0  0  0  0  0  0
   -0.8803   -6.7890   -2.5530 N   0  0  0  0  0  0  0  0  0  0  0  0
    7.5593   -2.4347    1.5782 N   0  0  0  0  0  0  0  0  0  0  0  0
    7.7379   -1.0033    1.4545 C   0  0  0  0  0  0  0  0  0  0  0  0
    7.9356   -0.4681    0.3108 O   0  0  0  0  0  0  0  0  0  0  0  0
    7.7080   -0.0927    2.6215 C   0  0  0  0  0  0  0  0  0  0  0  0
   12.8786   -4.0395    0.2831 H   0  0  0  0  0  0  0  0  0  0  0  0
   11.4944   -2.9069    0.6269 H   0  0  0  0  0  0  0  0  0  0  0  0
   11.5842   -3.8181   -0.9581 H   0  0  0  0  0  0  0  0  0  0  0  0
   11.4607   -5.2411    1.7410 H   0  0  0  0  0  0  0  0  0  0  0  0
   10.7888   -5.8210    0.1666 H   0  0  0  0  0  0  0  0  0  0  0  0
    9.7618   -3.5692    1.9717 H   0  0  0  0  0  0  0  0  0  0  0  0
    8.9727   -5.1235    1.6054 H   0  0  0  0  0  0  0  0  0  0  0  0
    8.6944   -4.6620   -0.6689 H   0  0  0  0  0  0  0  0  0  0  0  0
    9.5606   -3.1180   -0.6520 H   0  0  0  0  0  0  0  0  0  0  0  0
    6.9268   -4.1006    0.5969 H   0  0  0  0  0  0  0  0  0  0  0  0
    5.5316   -1.5841    0.5625 H   0  0  0  0  0  0  0  0  0  0  0  0
    5.7137   -1.1690   -2.4695 H   0  0  0  0  0  0  0  0  0  0  0  0
    2.9120   -1.5279   -1.8517 H   0  0  0  0  0  0  0  0  0  0  0  0
    3.9562   -2.3087   -3.0695 H   0  0  0  0  0  0  0  0  0  0  0  0
    3.1657   -4.6103   -2.7438 H   0  0  0  0  0  0  0  0  0  0  0  0
    4.2988   -6.0279   -0.3855 H   0  0  0  0  0  0  0  0  0  0  0  0
    3.0098   -6.6401   -1.5646 H   0  0  0  0  0  0  0  0  0  0  0  0
    2.0456   -6.4816    0.7095 H   0  0  0  0  0  0  0  0  0  0  0  0
    2.5470   -4.7281    0.7370 H   0  0  0  0  0  0  0  0  0  0  0  0
    1.3663   -4.4738   -1.4778 H   0  0  0  0  0  0  0  0  0  0  0  0
    0.9382   -6.1743   -1.4655 H   0  0  0  0  0  0  0  0  0  0  0  0
   -0.4808   -5.8931    0.5526 H   0  0  0  0  0  0  0  0  0  0  0  0
    0.0035   -4.1434    0.6482 H   0  0  0  0  0  0  0  0  0  0  0  0
   -0.8817   -3.8867   -1.6758 H   0  0  0  0  0  0  0  0  0  0  0  0
   -3.1600   -4.7665    0.0909 H   0  0  0  0  0  0  0  0  0  0  0  0
   -4.1297   -2.9901    1.2080 H   0  0  0  0  0  0  0  0  0  0  0  0
   -2.5059    1.4639    1.4770 H   0  0  0  0  0  0  0  0  0  0  0  0
    0.0505    3.1047   -1.8668 H   0  0  0  0  0  0  0  0  0  0  0  0
    3.5159    2.5607    0.8699 H   0  0  0  0  0  0  0  0  0  0  0  0
    3.5110   -0.8231    0.9283 H   0  0  0  0  0  0  0  0  0  0  0  0
    4.7973    0.2239    1.6480 H   0  0  0  0  0  0  0  0  0  0  0  0
    3.1054    0.7152    1.6268 H   0  0  0  0  0  0  0  0  0  0  0  0
    5.8047    2.8300   -0.2962 H   0  0  0  0  0  0  0  0  0  0  0  0
    4.9126    3.0139   -1.7985 H   0  0  0  0  0  0  0  0  0  0  0  0
    5.5717    4.7035    1.5172 H   0  0  0  0  0  0  0  0  0  0  0  0
    5.1597    7.2206    1.4066 H   0  0  0  0  0  0  0  0  0  0  0  0
    3.7773    5.4897   -2.2123 H   0  0  0  0  0  0  0  0  0  0  0  0
    1.7344    2.7067    1.7455 H   0  0  0  0  0  0  0  0  0  0  0  0
    0.7480    4.1530    1.6523 H   0  0  0  0  0  0  0  0  0  0  0  0
    2.5136    4.2576    1.2978 H   0  0  0  0  0  0  0  0  0  0  0  0
    0.0090    5.3452    0.3302 H   0  0  0  0  0  0  0  0  0  0  0  0
    0.5804    5.5662   -1.3073 H   0  0  0  0  0  0  0  0  0  0  0  0
   -1.0565    5.9312   -3.1408 H   0  0  0  0  0  0  0  0  0  0  0  0
   -3.2786    6.9555   -3.6546 H   0  0  0  0  0  0  0  0  0  0  0  0
   -2.2588    5.4000    0.8744 H   0  0  0  0  0  0  0  0  0  0  0  0
   -4.4945    6.0998    1.5981 H   0  0  0  0  0  0  0  0  0  0  0  0
   -6.6816    7.1299    0.9959 H   0  0  0  0  0  0  0  0  0  0  0  0
   -7.1251    7.9073   -1.3009 H   0  0  0  0  0  0  0  0  0  0  0  0
   -5.4473    7.6767   -3.0007 H   0  0  0  0  0  0  0  0  0  0  0  0
   -3.5399    3.1882   -1.8102 H   0  0  0  0  0  0  0  0  0  0  0  0
   -2.8675    1.6278   -2.3502 H   0  0  0  0  0  0  0  0  0  0  0  0
   -1.8741    3.1351   -2.3712 H   0  0  0  0  0  0  0  0  0  0  0  0
   -4.6377    2.8786   -0.1543 H   0  0  0  0  0  0  0  0  0  0  0  0
   -3.6873    3.5351    1.1682 H   0  0  0  0  0  0  0  0  0  0  0  0
   -4.8301    1.8849    2.7254 H   0  0  0  0  0  0  0  0  0  0  0  0
   -5.7189    3.2734    2.0830 H   0  0  0  0  0  0  0  0  0  0  0  0
   -6.0254    0.3356    1.1303 H   0  0  0  0  0  0  0  0  0  0  0  0
   -7.0916    1.2732    2.1710 H   0  0  0  0  0  0  0  0  0  0  0  0
   -9.3690    3.5346   -0.8995 H   0  0  0  0  0  0  0  0  0  0  0  0
   -8.7656    2.0558   -1.8355 H   0  0  0  0  0  0  0  0  0  0  0  0
   -9.3143    0.9102    1.6427 H   0  0  0  0  0  0  0  0  0  0  0  0
   -9.4199    2.7405    1.8849 H   0  0  0  0  0  0  0  0  0  0  0  0
   -2.7287   -0.0582    2.5297 H   0  0  0  0  0  0  0  0  0  0  0  0
   -3.2738   -1.7220    2.7192 H   0  0  0  0  0  0  0  0  0  0  0  0
   -4.5110   -0.4717    2.7043 H   0  0  0  0  0  0  0  0  0  0  0  0
   -4.6475   -2.2930   -1.7199 H   0  0  0  0  0  0  0  0  0  0  0  0
   -5.0216   -3.6869   -0.7376 H   0  0  0  0  0  0  0  0  0  0  0  0
   -6.6377   -0.5316   -1.8446 H   0  0  0  0  0  0  0  0  0  0  0  0
   -8.9905   -0.4044   -0.8638 H   0  0  0  0  0  0  0  0  0  0  0  0
   -6.1818   -4.1493    1.5962 H   0  0  0  0  0  0  0  0  0  0  0  0
   -8.0818   -4.6621    3.0468 H   0  0  0  0  0  0  0  0  0  0  0  0
  -10.2603   -3.4625    2.8797 H   0  0  0  0  0  0  0  0  0  0  0  0
  -10.4313   -1.6739    1.1283 H   0  0  0  0  0  0  0  0  0  0  0  0
   -0.5147   -6.5268   -3.5079 H   0  0  0  0  0  0  0  0  0  0  0  0
   -0.6511   -7.7616   -2.1948 H   0  0  0  0  0  0  0  0  0  0  0  0
    7.4006   -2.8355    2.5359 H   0  0  0  0  0  0  0  0  0  0  0  0
    8.6876    0.3959    2.8235 H   0  0  0  0  0  0  0  0  0  0  0  0
    6.9170    0.6847    2.5554 H   0  0  0  0  0  0  0  0  0  0  0  0
    7.4784   -0.6803    3.5446 H   0  0  0  0  0  0  0  0  0  0  0  0
  1  2  1  0
  2  3  1  0
  3  4  1  0
  4  5  1  0
  5  6  1  0
  6  7  2  0
  6  8  1  0
  8  9  1  0
  9 10  1  0
 10 11  1  0
 11 12  2  0
 11 13  1  0
 13 14  1  0
 14 15  1  0
 15 16  1  0
 16 17  1  0
 17 18  1  0
 18 19  1  0
 19 20  1  0
 20 21  2  0
 20 22  1  0
 22 23  1  0
 23 24  1  0
 24 25  2  0
 24 26  1  0
 26 27  1  0
 27 28  1  0
 28 29  2  0
 28 30  1  0
 30 31  1  0
 31 32  1  0
 32 33  2  0
 32 34  1  0
 34 35  1  0
 35 36  1  0
 36 37  2  0
 35 38  1  0
 34 39  1  0
 39 40  1  0
 40 41  1  0
 41 42  1  0
 42 43  2  0
 43 44  1  0
 31 45  1  0
 30 46  1  0
 46 47  1  0
 47 48  2  0
 48 49  1  0
 49 50  2  0
 50 51  1  0
 51 52  2  0
 51 53  1  0
 53 54  2  0
 54 55  1  0
 55 56  2  0
 27 57  1  0
 26 58  1  0
 58 59  1  0
 59 60  1  0
 60 61  1  0
 61 62  2  3
 62 63  1  0
 62 64  1  0
 23 65  1  0
 22 66  1  0
 66 67  1  0
 67 68  2  0
 68 69  1  0
 69 70  1  0
 70 71  2  0
 71 72  1  0
 72 73  2  0
 73 74  1  0
 74 75  2  0
 18 76  1  0
 76 77  2  0
 76 78  1  0
  5 79  1  0
 79 80  1  0
 80 81  2  0
 80 82  1  0
 36  9  1  0
 44 40  2  0
 52 47  1  0
 71 67  1  0
 56 50  1  0
 75 70  1  0
  1 83  1  0
  1 84  1  0
  1 85  1  0
  2 86  1  0
  2 87  1  0
  3 88  1  0
  3 89  1  0
  4 90  1  0
  4 91  1  0
  5 92  1  1
  8 93  1  0
  9 94  1  6
 10 95  1  0
 10 96  1  0
 13 97  1  0
 14 98  1  0
 14 99  1  0
 15100  1  0
 15101  1  0
 16102  1  0
 16103  1  0
 17104  1  0
 17105  1  0
 18106  1  6
 19107  1  0
 22108  1  1
 26109  1  1
 30110  1  6
 34111  1  1
 38112  1  0
 38113  1  0
 38114  1  0
 39115  1  0
 39116  1  0
 41117  1  0
 42118  1  0
 44119  1  0
 45120  1  0
 45121  1  0
 45122  1  0
 46123  1  0
 46124  1  0
 48125  1  0
 49126  1  0
 52127  1  0
 53128  1  0
 54129  1  0
 55130  1  0
 56131  1  0
 57132  1  0
 57133  1  0
 57134  1  0
 58135  1  0
 58136  1  0
 59137  1  0
 59138  1  0
 60139  1  0
 60140  1  0
 63141  1  0
 63142  1  0
 64143  1  0
 64144  1  0
 65145  1  0
 65146  1  0
 65147  1  0
 66148  1  0
 66149  1  0
 68150  1  0
 69151  1  0
 72152  1  0
 73153  1  0
 74154  1  0
 75155  1  0
 78156  1  0
 78157  1  0
 79158  1  0
 82159  1  0
 82160  1  0
 82161  1  0
M  END
>  <Ligand ID>  (1) 
LIG0001816

>  <Ligand>  (1) 
CHEMBL3601431

>  <SMILES>  (1) 
CCCC[C@H](C(=O)N[C@H]1CC(=O)NCCCC[C@H](NC(=O)[C@@H](N(C(=O)[C@@H](N(C(=O)[C@H](N(C(=O)[C@@H](N(C1=O)C)Cc1[nH]cnc1)C)Cc1ccc2c(c1)cccc2)C)CCCN=C(N)N)C)Cc1c[nH]c2c1cccc2)C(=O)N)NC(=O)C

>  <CID>  (1) 
122184913.0

>  <ChEMBL ID>  (1) 
nan

>  <InChiKey>  (1) 
FRHMEXCWIHUKBH-XSBZVKHOSA-N

>  <InChi>  (1) 
InChI=1S/C58H79N15O9/c1-7-8-19-44(67-35(2)74)52(77)69-45-31-50(75)63-25-14-13-21-43(51(59)76)68-53(78)47(29-39-32-65-42-20-12-11-18-41(39)42)71(4)55(80)46(22-15-26-64-58(60)61)70(3)56(81)48(28-36-23-24-37-16-9-10-17-38(37)27-36)73(6)57(82)49(72(5)54(45)79)30-40-33-62-34-66-40/h9-12,16-18,20,23-24,27,32-34,43-49,65H,7-8,13-15,19,21-22,25-26,28-31H2,1-6H3,(H2,59,76)(H,62,66)(H,63,75)(H,67,74)(H,68,78)(H,69,77)(H4,60,61,64)/t43-,44+,45-,46-,47-,48+,49-/m0/s1

>  <IUPAC Name>  (1) 
(3S,6S,9R,12S,15S,23S)-15-[[(2R)-2-acetamidohexanoyl]amino]-6-[3-(diaminomethylideneamino)propyl]-12-(1H-imidazol-5-ylmethyl)-3-(1H-indol-3-ylmethyl)-4,7,10,13-tetramethyl-9-(naphthalen-2-ylmethyl)-2,5,8,11,14,17-hexaoxo-1,4,7,10,13,18-hexazacyclotricosane-23-carboxamide

$$$$
