
     RDKit          3D

 74 76  0  0  0  0  0  0  0  0999 V2000
    8.8113   -1.5626    0.1679 C   0  0  0  0  0  0  0  0  0  0  0  0
    9.1234   -0.2876    0.9447 C   0  0  0  0  0  0  0  0  0  0  0  0
    8.4426    0.8412    0.2016 C   0  0  1  0  0  0  0  0  0  0  0  0
    8.9952    0.9032   -1.1978 C   0  0  0  0  0  0  0  0  0  0  0  0
    8.2866    0.7111   -2.2084 O   0  0  0  0  0  0  0  0  0  0  0  0
   10.3425    1.1845   -1.3654 O   0  0  0  0  0  0  0  0  0  0  0  0
    7.0200    0.5366    0.1556 N   0  0  0  0  0  0  0  0  0  0  0  0
    6.0219    1.4096    0.6422 C   0  0  0  0  0  0  0  0  0  0  0  0
    6.4266    2.5123    1.1404 O   0  0  0  0  0  0  0  0  0  0  0  0
    4.6006    1.0992    0.5930 C   0  0  0  0  0  0  0  0  0  0  0  0
    4.0916   -0.0809    0.0969 C   0  0  0  0  0  0  0  0  0  0  0  0
    2.7108   -0.3194    0.0727 C   0  0  0  0  0  0  0  0  0  0  0  0
    1.8032    0.6053    0.5389 C   0  0  0  0  0  0  0  0  0  0  0  0
    2.3118    1.7833    1.0337 C   0  0  0  0  0  0  0  0  0  0  0  0
    3.6922    2.0243    1.0592 C   0  0  0  0  0  0  0  0  0  0  0  0
    0.4228    0.3636    0.5216 N   0  0  0  0  0  0  0  0  0  0  0  0
   -0.1543   -0.9632    0.2301 C   0  0  0  0  0  0  0  0  0  0  0  0
   -1.1010   -0.8735   -0.9264 C   0  0  0  0  0  0  0  0  0  0  0  0
   -1.9928    0.3204   -0.9178 C   0  0  0  0  0  0  0  0  0  0  0  0
   -1.2967    1.5848   -0.5416 C   0  0  0  0  0  0  0  0  0  0  0  0
   -0.5889    1.3932    0.7715 C   0  0  0  0  0  0  0  0  0  0  0  0
   -3.1496    0.0365   -0.1061 N   0  0  0  0  0  0  0  0  0  0  0  0
   -4.1123    1.0882   -0.0297 C   0  0  0  0  0  0  0  0  0  0  0  0
   -4.7769    1.2683   -1.3629 C   0  0  1  0  0  0  0  0  0  0  0  0
   -5.5021   -0.0239   -1.6371 C   0  0  0  0  0  0  0  0  0  0  0  0
   -5.0181   -0.9636   -2.5116 C   0  0  0  0  0  0  0  0  0  0  0  0
   -5.6723   -2.1605   -2.7782 C   0  0  0  0  0  0  0  0  0  0  0  0
   -6.8603   -2.3705   -2.1096 C   0  0  0  0  0  0  0  0  0  0  0  0
   -7.4012   -1.4680   -1.2191 C   0  0  0  0  0  0  0  0  0  0  0  0
   -6.7104   -0.2978   -0.9925 C   0  0  0  0  0  0  0  0  0  0  0  0
   -8.6321   -1.7631   -0.5768 N   0  0  0  0  0  0  0  0  0  0  0  0
   -9.3407   -0.6427    0.5557 S   0  0  0  0  0  0  0  0  0  0  0  0
   -9.4954    0.6614   -0.2107 O   0  0  0  0  0  0  0  0  0  0  0  0
  -10.6988   -1.0743    0.9594 O   0  0  0  0  0  0  0  0  0  0  0  0
   -8.2143   -0.4508    1.8957 C   0  0  0  0  0  0  0  0  0  0  0  0
   -7.5149   -3.5845   -2.3861 O   0  0  0  0  0  0  0  0  0  0  0  0
   -5.7330    2.2821   -1.3771 O   0  0  0  0  0  0  0  0  0  0  0  0
    8.4333   -0.3919    2.3092 C   0  0  0  0  0  0  0  0  0  0  0  0
    9.7202   -2.2221    0.2243 H   0  0  0  0  0  0  0  0  0  0  0  0
    8.6008   -1.3019   -0.9040 H   0  0  0  0  0  0  0  0  0  0  0  0
    7.9170   -2.0177    0.5936 H   0  0  0  0  0  0  0  0  0  0  0  0
   10.2000   -0.1286    1.0568 H   0  0  0  0  0  0  0  0  0  0  0  0
    8.6025    1.8252    0.6920 H   0  0  0  0  0  0  0  0  0  0  0  0
   10.7264    1.5786   -2.2209 H   0  0  0  0  0  0  0  0  0  0  0  0
    6.7649   -0.3839   -0.2660 H   0  0  0  0  0  0  0  0  0  0  0  0
    4.7793   -0.8267   -0.2771 H   0  0  0  0  0  0  0  0  0  0  0  0
    2.4271   -1.2737   -0.3386 H   0  0  0  0  0  0  0  0  0  0  0  0
    1.7101    2.5878    1.4291 H   0  0  0  0  0  0  0  0  0  0  0  0
    4.0824    2.9714    1.4582 H   0  0  0  0  0  0  0  0  0  0  0  0
   -0.7523   -1.1849    1.1644 H   0  0  0  0  0  0  0  0  0  0  0  0
    0.5575   -1.7571    0.1218 H   0  0  0  0  0  0  0  0  0  0  0  0
   -1.7276   -1.7904   -0.9277 H   0  0  0  0  0  0  0  0  0  0  0  0
   -0.5329   -0.9227   -1.8884 H   0  0  0  0  0  0  0  0  0  0  0  0
   -2.3542    0.4500   -1.9796 H   0  0  0  0  0  0  0  0  0  0  0  0
   -0.5017    1.7501   -1.3108 H   0  0  0  0  0  0  0  0  0  0  0  0
   -1.9769    2.4392   -0.5640 H   0  0  0  0  0  0  0  0  0  0  0  0
   -1.3514    0.9171    1.4563 H   0  0  0  0  0  0  0  0  0  0  0  0
   -0.2476    2.2766    1.2757 H   0  0  0  0  0  0  0  0  0  0  0  0
   -2.9247   -0.3507    0.8314 H   0  0  0  0  0  0  0  0  0  0  0  0
   -4.9003    0.7491    0.6746 H   0  0  0  0  0  0  0  0  0  0  0  0
   -3.7268    2.0341    0.4036 H   0  0  0  0  0  0  0  0  0  0  0  0
   -4.0907    1.4885   -2.1972 H   0  0  0  0  0  0  0  0  0  0  0  0
   -4.0951   -0.8053   -3.0351 H   0  0  0  0  0  0  0  0  0  0  0  0
   -5.2715   -2.8893   -3.4735 H   0  0  0  0  0  0  0  0  0  0  0  0
   -7.1027    0.4444   -0.2949 H   0  0  0  0  0  0  0  0  0  0  0  0
   -9.1250   -2.6455   -0.7710 H   0  0  0  0  0  0  0  0  0  0  0  0
   -7.9470    0.6252    2.0194 H   0  0  0  0  0  0  0  0  0  0  0  0
   -7.2457   -0.9934    1.7364 H   0  0  0  0  0  0  0  0  0  0  0  0
   -8.6926   -0.8647    2.8160 H   0  0  0  0  0  0  0  0  0  0  0  0
   -7.7468   -4.2175   -1.6253 H   0  0  0  0  0  0  0  0  0  0  0  0
   -6.2079    2.4122   -0.5381 H   0  0  0  0  0  0  0  0  0  0  0  0
    8.2749    0.6106    2.7560 H   0  0  0  0  0  0  0  0  0  0  0  0
    9.1003   -0.9396    2.9906 H   0  0  0  0  0  0  0  0  0  0  0  0
    7.4881   -0.9748    2.2048 H   0  0  0  0  0  0  0  0  0  0  0  0
  1  2  1  0
  2  3  1  0
  3  4  1  0
  4  5  2  0
  4  6  1  0
  3  7  1  0
  7  8  1  0
  8  9  2  0
  8 10  1  0
 10 11  2  0
 11 12  1  0
 12 13  2  0
 13 14  1  0
 14 15  2  0
 13 16  1  0
 16 17  1  0
 17 18  1  0
 18 19  1  0
 19 20  1  0
 20 21  1  0
 19 22  1  0
 22 23  1  0
 23 24  1  0
 24 25  1  0
 25 26  2  0
 26 27  1  0
 27 28  2  0
 28 29  1  0
 29 30  2  0
 29 31  1  0
 31 32  1  0
 32 33  2  0
 32 34  2  0
 32 35  1  0
 28 36  1  0
 24 37  1  0
  2 38  1  0
 15 10  1  0
 21 16  1  0
 30 25  1  0
  1 39  1  0
  1 40  1  0
  1 41  1  0
  2 42  1  0
  3 43  1  1
  6 44  1  0
  7 45  1  0
 11 46  1  0
 12 47  1  0
 14 48  1  0
 15 49  1  0
 17 50  1  0
 17 51  1  0
 18 52  1  0
 18 53  1  0
 19 54  1  0
 20 55  1  0
 20 56  1  0
 21 57  1  0
 21 58  1  0
 22 59  1  0
 23 60  1  0
 23 61  1  0
 24 62  1  6
 26 63  1  0
 27 64  1  0
 30 65  1  0
 31 66  1  0
 35 67  1  0
 35 68  1  0
 35 69  1  0
 36 70  1  0
 37 71  1  0
 38 72  1  0
 38 73  1  0
 38 74  1  0
M  END
>  <Ligand ID>  (1) 
LIG0003416

>  <Ligand>  (1) 
CHEMBL35282

>  <SMILES>  (1) 
CC([C@@H](C(=O)O)NC(=O)c1ccc(cc1)N1CCC(CC1)NC[C@@H](c1ccc(c(c1)NS(=O)(=O)C)O)O)C

>  <CID>  (1) 
10602703.0

>  <ChEMBL ID>  (1) 
nan

>  <InChiKey>  (1) 
REDWDSXTDOSSPR-ZEQRLZLVSA-N

>  <InChi>  (1) 
InChI=1S/C26H36N4O7S/c1-16(2)24(26(34)35)28-25(33)17-4-7-20(8-5-17)30-12-10-19(11-13-30)27-15-23(32)18-6-9-22(31)21(14-18)29-38(3,36)37/h4-9,14,16,19,23-24,27,29,31-32H,10-13,15H2,1-3H3,(H,28,33)(H,34,35)/t23-,24-/m0/s1

>  <IUPAC Name>  (1) 
(2S)-2-[[4-[4-[[(2R)-2-hydroxy-2-[4-hydroxy-3-(methanesulfonamido)phenyl]ethyl]amino]piperidin-1-yl]benzoyl]amino]-3-methylbutanoic acid

$$$$
