
     RDKit          3D

 57 58  0  0  0  0  0  0  0  0999 V2000
   -5.1300    2.9103    0.5743 C   0  0  0  0  0  0  0  0  0  0  0  0
   -6.4820    2.7564   -0.0222 C   0  0  0  0  0  0  0  0  0  0  0  0
   -6.8828    1.4542   -0.6119 C   0  0  0  0  0  0  0  0  0  0  0  0
   -6.1067    0.9617   -1.7637 C   0  0  0  0  0  0  0  0  0  0  0  0
   -4.6888    0.6530   -1.4898 C   0  0  0  0  0  0  0  0  0  0  0  0
   -4.6025   -0.4605   -0.4547 C   0  0  0  0  0  0  0  0  0  0  0  0
   -3.1643   -0.7591   -0.1821 C   0  0  0  0  0  0  0  0  0  0  0  0
   -2.3628   -1.2117   -1.3543 C   0  0  0  0  0  0  0  0  0  0  0  0
   -0.9649   -1.4532   -0.8373 C   0  0  0  0  0  0  0  0  0  0  0  0
   -0.5951   -2.7028   -0.3517 C   0  0  0  0  0  0  0  0  0  0  0  0
    0.6891   -2.8956    0.1147 C   0  0  0  0  0  0  0  0  0  0  0  0
    1.6372   -1.8667    0.1144 C   0  0  0  0  0  0  0  0  0  0  0  0
    1.2277   -0.6608   -0.3710 C   0  0  0  0  0  0  0  0  0  0  0  0
   -0.0451   -0.4234   -0.8468 C   0  0  0  0  0  0  0  0  0  0  0  0
    2.9908   -2.0892    0.6117 C   0  0  0  0  0  0  0  0  0  0  0  0
    3.4456   -3.3003    1.1134 C   0  0  0  0  0  0  0  0  0  0  0  0
    4.7262   -3.1066    1.4649 N   0  0  0  0  0  0  0  0  0  0  0  0
    5.0946   -1.8218    1.2041 C   0  0  0  0  0  0  0  0  0  0  0  0
    4.0262   -1.2323    0.6897 N   0  0  0  0  0  0  0  0  0  0  0  0
    6.4609   -1.3246    1.4960 C   0  0  1  0  0  0  0  0  0  0  0  0
    6.5153    0.1601    1.3048 C   0  0  0  0  0  0  0  0  0  0  0  0
    6.1223    0.5319    0.0458 O   0  0  0  0  0  0  0  0  0  0  0  0
    6.1688    2.1943   -0.2060 P   0  0  0  0  0  0  0  0  0  0  0  0
    7.3288    2.8310    0.4857 O   0  0  0  0  0  0  0  0  0  0  0  0
    6.2608    2.4153   -1.8991 O   0  0  0  0  0  0  0  0  0  0  0  0
    4.7474    2.9695    0.3017 O   0  0  0  0  0  0  0  0  0  0  0  0
    6.8813   -1.7452    2.8220 N   0  0  0  0  0  0  0  0  0  0  0  0
   -5.2328    3.6289    1.4577 H   0  0  0  0  0  0  0  0  0  0  0  0
   -4.6972    2.0015    1.0029 H   0  0  0  0  0  0  0  0  0  0  0  0
   -4.4207    3.4629   -0.1061 H   0  0  0  0  0  0  0  0  0  0  0  0
   -6.6490    3.5885   -0.7960 H   0  0  0  0  0  0  0  0  0  0  0  0
   -7.2783    3.0015    0.7673 H   0  0  0  0  0  0  0  0  0  0  0  0
   -7.9747    1.4819   -0.9382 H   0  0  0  0  0  0  0  0  0  0  0  0
   -6.8139    0.6812    0.2016 H   0  0  0  0  0  0  0  0  0  0  0  0
   -6.5741   -0.0339   -2.0871 H   0  0  0  0  0  0  0  0  0  0  0  0
   -6.2127    1.6446   -2.6643 H   0  0  0  0  0  0  0  0  0  0  0  0
   -4.0387    1.4639   -1.1680 H   0  0  0  0  0  0  0  0  0  0  0  0
   -4.1706    0.2843   -2.4474 H   0  0  0  0  0  0  0  0  0  0  0  0
   -5.0593   -1.4024   -0.8579 H   0  0  0  0  0  0  0  0  0  0  0  0
   -5.0905   -0.2497    0.4891 H   0  0  0  0  0  0  0  0  0  0  0  0
   -2.6701    0.1705    0.2111 H   0  0  0  0  0  0  0  0  0  0  0  0
   -3.0526   -1.5153    0.6193 H   0  0  0  0  0  0  0  0  0  0  0  0
   -2.3517   -0.5563   -2.2236 H   0  0  0  0  0  0  0  0  0  0  0  0
   -2.6816   -2.2135   -1.7334 H   0  0  0  0  0  0  0  0  0  0  0  0
   -1.3112   -3.5147   -0.3412 H   0  0  0  0  0  0  0  0  0  0  0  0
    0.9914   -3.8700    0.4978 H   0  0  0  0  0  0  0  0  0  0  0  0
    1.9239    0.1743   -0.3946 H   0  0  0  0  0  0  0  0  0  0  0  0
   -0.3553    0.5526   -1.2329 H   0  0  0  0  0  0  0  0  0  0  0  0
    2.8914   -4.2070    1.2036 H   0  0  0  0  0  0  0  0  0  0  0  0
    3.9668   -0.2514    0.3829 H   0  0  0  0  0  0  0  0  0  0  0  0
    7.1839   -1.8281    0.7947 H   0  0  0  0  0  0  0  0  0  0  0  0
    7.5538    0.5127    1.4694 H   0  0  0  0  0  0  0  0  0  0  0  0
    5.8086    0.6147    2.0333 H   0  0  0  0  0  0  0  0  0  0  0  0
    5.3753    2.2420   -2.3052 H   0  0  0  0  0  0  0  0  0  0  0  0
    4.6673    3.8309   -0.1990 H   0  0  0  0  0  0  0  0  0  0  0  0
    6.2316   -1.3438    3.5508 H   0  0  0  0  0  0  0  0  0  0  0  0
    6.7427   -2.7799    2.8609 H   0  0  0  0  0  0  0  0  0  0  0  0
  1  2  1  0
  2  3  1  0
  3  4  1  0
  4  5  1  0
  5  6  1  0
  6  7  1  0
  7  8  1  0
  8  9  1  0
  9 10  2  0
 10 11  1  0
 11 12  2  0
 12 13  1  0
 13 14  2  0
 12 15  1  0
 15 16  2  0
 16 17  1  0
 17 18  2  0
 18 19  1  0
 18 20  1  0
 20 21  1  0
 21 22  1  0
 22 23  1  0
 23 24  2  0
 23 25  1  0
 23 26  1  0
 20 27  1  0
 14  9  1  0
 19 15  1  0
  1 28  1  0
  1 29  1  0
  1 30  1  0
  2 31  1  0
  2 32  1  0
  3 33  1  0
  3 34  1  0
  4 35  1  0
  4 36  1  0
  5 37  1  0
  5 38  1  0
  6 39  1  0
  6 40  1  0
  7 41  1  0
  7 42  1  0
  8 43  1  0
  8 44  1  0
 10 45  1  0
 11 46  1  0
 13 47  1  0
 14 48  1  0
 16 49  1  0
 19 50  1  0
 20 51  1  6
 21 52  1  0
 21 53  1  0
 25 54  1  0
 26 55  1  0
 27 56  1  0
 27 57  1  0
M  END
>  <Ligand ID>  (1) 
LIG0004237

>  <Ligand>  (1) 
CHEMBL187712

>  <SMILES>  (1) 
CCCCCCCCc1ccc(cc1)c1cnc([nH]1)[C@@H](COP(=O)(O)O)N

>  <CID>  (1) 
44398058.0

>  <ChEMBL ID>  (1) 
nan

>  <InChiKey>  (1) 
MRXCOXFHDGXOMV-QGZVFWFLSA-N

>  <InChi>  (1) 
InChI=1S/C19H30N3O4P/c1-2-3-4-5-6-7-8-15-9-11-16(12-10-15)18-13-21-19(22-18)17(20)14-26-27(23,24)25/h9-13,17H,2-8,14,20H2,1H3,(H,21,22)(H2,23,24,25)/t17-/m1/s1

>  <IUPAC Name>  (1) 
[(2S)-2-amino-2-[5-(4-octylphenyl)-1H-imidazol-2-yl]ethyl] dihydrogen phosphate

$$$$
