
     RDKit          3D

 56 59  0  0  0  0  0  0  0  0999 V2000
   -6.7600    0.4046   -1.5775 O   0  0  0  0  0  0  0  0  0  0  0  0
   -6.3168   -0.0655   -0.3691 C   0  0  0  0  0  0  0  0  0  0  0  0
   -4.8318    0.1570   -0.1169 C   0  0  0  0  0  0  0  0  0  0  0  0
   -4.0123   -0.4873   -1.0811 N   0  0  0  0  0  0  0  0  0  0  0  0
   -2.6088   -0.6582   -1.0345 C   0  0  0  0  0  0  0  0  0  0  0  0
   -1.9328   -1.2668   -2.1007 C   0  0  0  0  0  0  0  0  0  0  0  0
   -0.5745   -1.4718   -2.0900 C   0  0  0  0  0  0  0  0  0  0  0  0
    0.1767   -1.0756   -1.0060 C   0  0  0  0  0  0  0  0  0  0  0  0
   -0.4474   -0.4742    0.0625 C   0  0  0  0  0  0  0  0  0  0  0  0
   -1.8161   -0.2798    0.0266 C   0  0  0  0  0  0  0  0  0  0  0  0
    0.3577   -0.0516    1.2213 C   0  0  2  0  0  0  0  0  0  0  0  0
   -0.5142   -0.1711    2.4502 C   0  0  0  0  0  0  0  0  0  0  0  0
    0.7942    1.3799    0.9869 C   0  0  0  0  0  0  0  0  0  0  0  0
    1.7138    1.4678   -0.2113 C   0  0  0  0  0  0  0  0  0  0  0  0
    2.8030    0.5534   -0.1548 N   0  0  0  0  0  0  0  0  0  0  0  0
    2.4422   -0.7898    0.1648 C   0  0  2  0  0  0  0  0  0  0  0  0
    1.6193   -1.2924   -0.9950 C   0  0  0  0  0  0  0  0  0  0  0  0
    2.1547   -1.8984   -1.9588 O   0  0  0  0  0  0  0  0  0  0  0  0
    1.6182   -0.8294    1.4222 C   0  0  2  0  0  0  0  0  0  0  0  0
    1.3793   -2.2368    1.9055 C   0  0  0  0  0  0  0  0  0  0  0  0
    3.8889    1.1000    0.6057 C   0  0  0  0  0  0  0  0  0  0  0  0
    5.0678    0.1760    0.6977 C   0  0  0  0  0  0  0  0  0  0  0  0
    5.7605   -0.2648   -0.5818 C   0  0  0  0  0  0  0  0  0  0  0  0
    6.4031    0.7379    0.3307 C   0  0  0  0  0  0  0  0  0  0  0  0
   -4.6356    1.6664   -0.1266 C   0  0  0  0  0  0  0  0  0  0  0  0
   -4.9714    2.1660   -1.3958 O   0  0  0  0  0  0  0  0  0  0  0  0
   -6.0782    0.3054   -2.2600 H   0  0  0  0  0  0  0  0  0  0  0  0
   -6.6044   -1.1048   -0.1557 H   0  0  0  0  0  0  0  0  0  0  0  0
   -6.8297    0.5496    0.4212 H   0  0  0  0  0  0  0  0  0  0  0  0
   -4.6140   -0.1968    0.9000 H   0  0  0  0  0  0  0  0  0  0  0  0
   -4.4980   -0.8929   -1.9355 H   0  0  0  0  0  0  0  0  0  0  0  0
   -2.4878   -1.5837   -2.9526 H   0  0  0  0  0  0  0  0  0  0  0  0
   -0.0774   -1.9399   -2.9173 H   0  0  0  0  0  0  0  0  0  0  0  0
   -2.2493    0.1842    0.9003 H   0  0  0  0  0  0  0  0  0  0  0  0
    0.1602   -0.4275    3.3136 H   0  0  0  0  0  0  0  0  0  0  0  0
   -1.0446    0.7419    2.7272 H   0  0  0  0  0  0  0  0  0  0  0  0
   -1.2698   -0.9536    2.2797 H   0  0  0  0  0  0  0  0  0  0  0  0
   -0.0655    2.0438    0.9166 H   0  0  0  0  0  0  0  0  0  0  0  0
    1.3947    1.6744    1.8796 H   0  0  0  0  0  0  0  0  0  0  0  0
    2.0526    2.5018   -0.4005 H   0  0  0  0  0  0  0  0  0  0  0  0
    1.0910    1.2064   -1.1054 H   0  0  0  0  0  0  0  0  0  0  0  0
    3.2959   -1.4825    0.2175 H   0  0  0  0  0  0  0  0  0  0  0  0
    2.1961   -0.3195    2.2205 H   0  0  0  0  0  0  0  0  0  0  0  0
    2.2934   -2.8245    1.6796 H   0  0  0  0  0  0  0  0  0  0  0  0
    0.5590   -2.7328    1.3296 H   0  0  0  0  0  0  0  0  0  0  0  0
    1.2242   -2.2775    2.9888 H   0  0  0  0  0  0  0  0  0  0  0  0
    3.6019    1.3554    1.6461 H   0  0  0  0  0  0  0  0  0  0  0  0
    4.2128    2.0308    0.1025 H   0  0  0  0  0  0  0  0  0  0  0  0
    5.1250   -0.5195    1.5799 H   0  0  0  0  0  0  0  0  0  0  0  0
    6.1449   -1.2981   -0.6469 H   0  0  0  0  0  0  0  0  0  0  0  0
    5.3783    0.1502   -1.5240 H   0  0  0  0  0  0  0  0  0  0  0  0
    6.5197    1.7855    0.0123 H   0  0  0  0  0  0  0  0  0  0  0  0
    7.3378    0.3516    0.8211 H   0  0  0  0  0  0  0  0  0  0  0  0
   -3.5872    1.8919    0.1051 H   0  0  0  0  0  0  0  0  0  0  0  0
   -5.2825    2.1633    0.6160 H   0  0  0  0  0  0  0  0  0  0  0  0
   -4.6567    3.1221   -1.3728 H   0  0  0  0  0  0  0  0  0  0  0  0
  1  2  1  0
  2  3  1  0
  3  4  1  0
  4  5  1  0
  5  6  2  0
  6  7  1  0
  7  8  2  0
  8  9  1  0
  9 10  2  0
  9 11  1  0
 11 12  1  1
 11 13  1  0
 13 14  1  0
 14 15  1  0
 15 16  1  0
 16 17  1  0
 17 18  2  0
 16 19  1  0
 19 20  1  0
 15 21  1  0
 21 22  1  0
 22 23  1  0
 23 24  1  0
  3 25  1  0
 25 26  1  0
 10  5  1  0
 19 11  1  0
 24 22  1  0
 17  8  1  0
  1 27  1  0
  2 28  1  0
  2 29  1  0
  3 30  1  0
  4 31  1  0
  6 32  1  0
  7 33  1  0
 10 34  1  0
 12 35  1  0
 12 36  1  0
 12 37  1  0
 13 38  1  0
 13 39  1  0
 14 40  1  0
 14 41  1  0
 16 42  1  1
 19 43  1  1
 20 44  1  0
 20 45  1  0
 20 46  1  0
 21 47  1  0
 21 48  1  0
 22 49  1  0
 23 50  1  0
 23 51  1  0
 24 52  1  0
 24 53  1  0
 25 54  1  0
 25 55  1  0
 26 56  1  0
M  END
>  <Ligand ID>  (1) 
LIG0005482

>  <Ligand>  (1) 
SCHEMBL16774687

>  <SMILES>  (1) 
OCC(Nc1ccc2c(c1)[C@]1(C)CCN([C@H](C2=O)[C@@H]1C)CC1CC1)CO

>  <CID>  (1) 
118123720.0

>  <ChEMBL ID>  (1) 
nan

>  <InChiKey>  (1) 
DZAXUMWVIDHSHQ-JBZDTAIVSA-N

>  <InChi>  (1) 
InChI=1S/C21H30N2O3/c1-13-19-20(26)17-6-5-15(22-16(11-24)12-25)9-18(17)21(13,2)7-8-23(19)10-14-3-4-14/h5-6,9,13-14,16,19,22,24-25H,3-4,7-8,10-12H2,1-2H3/t13-,19-,21+/m0/s1

>  <IUPAC Name>  (1) 
(1R,9S,13R)-10-(cyclopropylmethyl)-4-(1,3-dihydroxypropan-2-ylamino)-1,13-dimethyl-10-azatricyclo[7.3.1.02,7]trideca-2(7),3,5-trien-8-one

$$$$
