
     RDKit          3D

 21 20  0  0  0  0  0  0  0  0999 V2000
   -3.9263   -0.4589   -0.4098 C   0  0  0  0  0  0  0  0  0  0  0  0
   -3.3365    0.2147    1.1603 S   0  0  0  0  0  0  0  0  0  0  0  0
   -1.6442    0.8762    0.9944 C   0  0  0  0  0  0  0  0  0  0  0  0
   -0.7466   -0.2849    0.7188 C   0  0  0  0  0  0  0  0  0  0  0  0
    0.6750    0.1012    0.5588 C   0  0  0  0  0  0  0  0  0  0  0  0
    0.9851    1.3212    0.6631 O   0  0  0  0  0  0  0  0  0  0  0  0
    1.6245   -0.8767    0.3008 O   0  0  0  0  0  0  0  0  0  0  0  0
    2.9995   -0.5982    0.1350 C   0  0  0  0  0  0  0  0  0  0  0  0
    3.3020    0.3261   -0.9976 C   0  0  0  0  0  0  0  0  0  0  0  0
   -5.0089   -0.2189   -0.5977 H   0  0  0  0  0  0  0  0  0  0  0  0
   -3.3322    0.0097   -1.2477 H   0  0  0  0  0  0  0  0  0  0  0  0
   -3.8184   -1.5725   -0.4311 H   0  0  0  0  0  0  0  0  0  0  0  0
   -1.5933    1.5747    0.1169 H   0  0  0  0  0  0  0  0  0  0  0  0
   -1.4041    1.4109    1.9450 H   0  0  0  0  0  0  0  0  0  0  0  0
   -0.8966   -1.0381    1.5280 H   0  0  0  0  0  0  0  0  0  0  0  0
   -1.0707   -0.7062   -0.2558 H   0  0  0  0  0  0  0  0  0  0  0  0
    3.4826   -1.5765   -0.0818 H   0  0  0  0  0  0  0  0  0  0  0  0
    3.4701   -0.2548    1.0933 H   0  0  0  0  0  0  0  0  0  0  0  0
    2.4026    0.8199   -1.4316 H   0  0  0  0  0  0  0  0  0  0  0  0
    4.0087    1.1269   -0.6472 H   0  0  0  0  0  0  0  0  0  0  0  0
    3.8277   -0.1959   -1.8471 H   0  0  0  0  0  0  0  0  0  0  0  0
  1  2  1  0
  2  3  1  0
  3  4  1  0
  4  5  1  0
  5  6  2  0
  5  7  1  0
  7  8  1  0
  8  9  1  0
  1 10  1  0
  1 11  1  0
  1 12  1  0
  3 13  1  0
  3 14  1  0
  4 15  1  0
  4 16  1  0
  8 17  1  0
  8 18  1  0
  9 19  1  0
  9 20  1  0
  9 21  1  0
M  END
>  <Ligand ID>  (1) 
LIG0000564

>  <Ligand>  (1) 
Ethyl 3-(methylsulfanyl)propanoate

>  <SMILES>  (1) 
CSCCC(=O)OCC

>  <CID>  (1) 
61592.0

>  <ChEMBL ID>  (1) 
nan

>  <InChiKey>  (1) 
YSNWHRKJEKWJNY-UHFFFAOYSA-N

>  <InChi>  (1) 
InChI=1S/C6H12O2S/c1-3-8-6(7)4-5-9-2/h3-5H2,1-2H3

>  <IUPAC Name>  (1) 
ethyl 3-methylsulfanylpropanoate

$$$$
