
     RDKit          3D

 48 51  0  0  0  0  0  0  0  0999 V2000
    3.3689    1.3284    1.9304 O   0  0  0  0  0  0  0  0  0  0  0  0
    3.1078    0.2611    1.2848 C   0  0  0  0  0  0  0  0  0  0  0  0
    1.7081   -0.0618    0.9045 C   0  0  0  0  0  0  0  0  0  0  0  0
    1.2784    0.6192   -0.6695 S   0  0  0  0  0  0  0  0  0  0  0  0
    2.1829    0.0885   -1.7565 O   0  0  0  0  0  0  0  0  0  0  0  0
    1.4118    2.1138   -0.6806 O   0  0  0  0  0  0  0  0  0  0  0  0
   -0.3843    0.1851   -1.0323 C   0  0  0  0  0  0  0  0  0  0  0  0
   -1.4229    1.0666   -1.2331 C   0  0  0  0  0  0  0  0  0  0  0  0
   -2.5731    0.4217   -1.4873 N   0  0  0  0  0  0  0  0  0  0  0  0
   -2.2578   -0.8915   -1.4476 C   0  0  0  0  0  0  0  0  0  0  0  0
   -0.9192   -1.0651   -1.1698 C   0  0  0  0  0  0  0  0  0  0  0  0
   -0.3273   -2.2984   -1.0732 C   0  0  0  0  0  0  0  0  0  0  0  0
   -1.0611   -3.4533   -1.2540 C   0  0  0  0  0  0  0  0  0  0  0  0
   -2.4035   -3.3095   -1.5333 C   0  0  0  0  0  0  0  0  0  0  0  0
   -3.0006   -2.0460   -1.6304 C   0  0  0  0  0  0  0  0  0  0  0  0
   -3.8925    0.9026   -1.7629 C   0  0  0  0  0  0  0  0  0  0  0  0
   -4.7791    1.0731   -0.6211 C   0  0  0  0  0  0  0  0  0  0  0  0
   -5.7526    0.0954   -0.3956 C   0  0  0  0  0  0  0  0  0  0  0  0
   -6.6308    0.1775    0.6721 C   0  0  0  0  0  0  0  0  0  0  0  0
   -6.5916    1.2255    1.5671 C   0  0  0  0  0  0  0  0  0  0  0  0
   -5.6365    2.1958    1.3550 C   0  0  0  0  0  0  0  0  0  0  0  0
   -4.7565    2.1099    0.2813 C   0  0  0  0  0  0  0  0  0  0  0  0
   -3.6035    3.3995    0.0998 Cl  0  0  0  0  0  0  0  0  0  0  0  0
    4.1176   -0.6582    0.9013 N   0  0  0  0  0  0  0  0  0  0  0  0
    5.4828   -0.3996    1.2396 C   0  0  0  0  0  0  0  0  0  0  0  0
    6.1757   -0.7436    2.3250 N   0  0  0  0  0  0  0  0  0  0  0  0
    7.3926   -0.2981    2.2116 O   0  0  0  0  0  0  0  0  0  0  0  0
    7.5448    0.3481    1.0613 C   0  0  0  0  0  0  0  0  0  0  0  0
    6.3284    0.3033    0.4038 C   0  0  0  0  0  0  0  0  0  0  0  0
    8.7948    1.0061    0.5588 C   0  0  0  0  0  0  0  0  0  0  0  0
    1.4554   -1.1217    1.0004 H   0  0  0  0  0  0  0  0  0  0  0  0
    1.0533    0.4680    1.6572 H   0  0  0  0  0  0  0  0  0  0  0  0
   -1.2847    2.1359   -1.1894 H   0  0  0  0  0  0  0  0  0  0  0  0
    0.7316   -2.4437   -0.8546 H   0  0  0  0  0  0  0  0  0  0  0  0
   -0.6038   -4.4272   -1.1799 H   0  0  0  0  0  0  0  0  0  0  0  0
   -3.0164   -4.2040   -1.6824 H   0  0  0  0  0  0  0  0  0  0  0  0
   -4.0374   -2.0381   -1.8514 H   0  0  0  0  0  0  0  0  0  0  0  0
   -4.3745    0.3225   -2.5815 H   0  0  0  0  0  0  0  0  0  0  0  0
   -3.7540    1.9273   -2.2197 H   0  0  0  0  0  0  0  0  0  0  0  0
   -5.8712   -0.7645   -1.0379 H   0  0  0  0  0  0  0  0  0  0  0  0
   -7.3859   -0.6098    0.8204 H   0  0  0  0  0  0  0  0  0  0  0  0
   -7.2996    1.2377    2.3800 H   0  0  0  0  0  0  0  0  0  0  0  0
   -5.6010    3.0294    2.0615 H   0  0  0  0  0  0  0  0  0  0  0  0
    3.8505   -1.5332    0.3650 H   0  0  0  0  0  0  0  0  0  0  0  0
    6.0921    0.7377   -0.5768 H   0  0  0  0  0  0  0  0  0  0  0  0
    9.6970    0.5191    0.9465 H   0  0  0  0  0  0  0  0  0  0  0  0
    8.7399    0.9866   -0.5525 H   0  0  0  0  0  0  0  0  0  0  0  0
    8.7068    2.0817    0.8465 H   0  0  0  0  0  0  0  0  0  0  0  0
  1  2  2  0
  2  3  1  0
  3  4  1  0
  4  5  2  0
  4  6  2  0
  4  7  1  0
  7  8  2  0
  8  9  1  0
  9 10  1  0
 10 11  2  0
 11 12  1  0
 12 13  2  0
 13 14  1  0
 14 15  2  0
  9 16  1  0
 16 17  1  0
 17 18  2  0
 18 19  1  0
 19 20  2  0
 20 21  1  0
 21 22  2  0
 22 23  1  0
  2 24  1  0
 24 25  1  0
 25 26  2  0
 26 27  1  0
 27 28  1  0
 28 29  2  0
 28 30  1  0
 11  7  1  0
 22 17  1  0
 29 25  1  0
 15 10  1  0
  3 31  1  0
  3 32  1  0
  8 33  1  0
 12 34  1  0
 13 35  1  0
 14 36  1  0
 15 37  1  0
 16 38  1  0
 16 39  1  0
 18 40  1  0
 19 41  1  0
 20 42  1  0
 21 43  1  0
 24 44  1  0
 29 45  1  0
 30 46  1  0
 30 47  1  0
 30 48  1  0
M  END
>  <Ligand ID>  (1) 
LIG0000956

>  <Ligand>  (1) 
VU0108370-10

>  <SMILES>  (1) 
O=C(CS(=O)(=O)c1cn(c2c1cccc2)Cc1ccccc1Cl)Nc1noc(c1)C

>  <CID>  (1) 
2157678.0

>  <ChEMBL ID>  (1) 
nan

>  <InChiKey>  (1) 
FPBRFRSODHILCO-UHFFFAOYSA-N

>  <InChi>  (1) 
InChI=1S/C21H18ClN3O4S/c1-14-10-20(24-29-14)23-21(26)13-30(27,28)19-12-25(18-9-5-3-7-16(18)19)11-15-6-2-4-8-17(15)22/h2-10,12H,11,13H2,1H3,(H,23,24,26)

>  <IUPAC Name>  (1) 
2-[1-[(2-chlorophenyl)methyl]indol-3-yl]sulfonyl-N-(5-methyl-1,2-oxazol-3-yl)acetamide

$$$$
