
     RDKit          3D

 46 48  0  0  0  0  0  0  0  0999 V2000
    6.5543    0.4453   -1.2484 C   0  0  0  0  0  0  0  0  0  0  0  0
    5.6010   -0.6248   -1.0179 N   0  0  0  0  0  0  0  0  0  0  0  0
    4.3527   -0.1303   -0.5095 C   0  0  0  0  0  0  0  0  0  0  0  0
    3.4004   -1.2852   -0.2885 C   0  0  0  0  0  0  0  0  0  0  0  0
    2.1482   -0.9066    0.2085 O   0  0  0  0  0  0  0  0  0  0  0  0
    1.2644   -0.0464   -0.4302 C   0  0  0  0  0  0  0  0  0  0  0  0
    1.6016    0.4432   -1.5510 O   0  0  0  0  0  0  0  0  0  0  0  0
   -0.0200    0.2849    0.1749 C   0  0  0  0  0  0  0  0  0  0  0  0
   -0.9605    1.1269   -0.3825 C   0  0  0  0  0  0  0  0  0  0  0  0
   -2.0374    1.2129    0.4447 N   0  0  0  0  0  0  0  0  0  0  0  0
   -1.8194    0.4450    1.5297 C   0  0  0  0  0  0  0  0  0  0  0  0
   -0.5597   -0.1412    1.3724 C   0  0  0  0  0  0  0  0  0  0  0  0
   -0.0748   -0.9862    2.3454 C   0  0  0  0  0  0  0  0  0  0  0  0
   -0.8558   -1.2382    3.4699 C   0  0  0  0  0  0  0  0  0  0  0  0
   -2.1068   -0.6489    3.6141 C   0  0  0  0  0  0  0  0  0  0  0  0
   -2.6044    0.2055    2.6369 C   0  0  0  0  0  0  0  0  0  0  0  0
   -3.1846    2.0308    0.1140 C   0  0  0  0  0  0  0  0  0  0  0  0
   -4.2136    1.2751   -0.6596 C   0  0  0  0  0  0  0  0  0  0  0  0
   -5.2248    0.5939    0.0229 C   0  0  0  0  0  0  0  0  0  0  0  0
   -6.1787   -0.1076   -0.7183 C   0  0  0  0  0  0  0  0  0  0  0  0
   -6.1086   -0.1170   -2.0934 C   0  0  0  0  0  0  0  0  0  0  0  0
   -5.1167    0.5502   -2.7870 C   0  0  0  0  0  0  0  0  0  0  0  0
   -4.1617    1.2525   -2.0469 C   0  0  0  0  0  0  0  0  0  0  0  0
    6.1386   -1.7417   -0.3025 C   0  0  0  0  0  0  0  0  0  0  0  0
    7.5100    0.0488   -1.6433 H   0  0  0  0  0  0  0  0  0  0  0  0
    6.1055    1.1457   -1.9777 H   0  0  0  0  0  0  0  0  0  0  0  0
    6.7297    0.9183   -0.2588 H   0  0  0  0  0  0  0  0  0  0  0  0
    4.5338    0.4542    0.3920 H   0  0  0  0  0  0  0  0  0  0  0  0
    3.9234    0.5285   -1.2946 H   0  0  0  0  0  0  0  0  0  0  0  0
    3.8484   -1.9423    0.5135 H   0  0  0  0  0  0  0  0  0  0  0  0
    3.3734   -1.9390   -1.1825 H   0  0  0  0  0  0  0  0  0  0  0  0
   -0.8370    1.6395   -1.3493 H   0  0  0  0  0  0  0  0  0  0  0  0
    0.8994   -1.4465    2.2353 H   0  0  0  0  0  0  0  0  0  0  0  0
   -0.5232   -1.8953    4.2666 H   0  0  0  0  0  0  0  0  0  0  0  0
   -2.6935   -0.8637    4.5014 H   0  0  0  0  0  0  0  0  0  0  0  0
   -3.5772    0.6642    2.7484 H   0  0  0  0  0  0  0  0  0  0  0  0
   -2.8954    2.9121   -0.5018 H   0  0  0  0  0  0  0  0  0  0  0  0
   -3.5716    2.4175    1.0696 H   0  0  0  0  0  0  0  0  0  0  0  0
   -5.3052    0.5826    1.0823 H   0  0  0  0  0  0  0  0  0  0  0  0
   -6.9672   -0.6387   -0.1852 H   0  0  0  0  0  0  0  0  0  0  0  0
   -6.8467   -0.6606   -2.6854 H   0  0  0  0  0  0  0  0  0  0  0  0
   -5.0740    0.5341   -3.8697 H   0  0  0  0  0  0  0  0  0  0  0  0
   -3.3824    1.7778   -2.5642 H   0  0  0  0  0  0  0  0  0  0  0  0
    5.8523   -1.6402    0.7620 H   0  0  0  0  0  0  0  0  0  0  0  0
    5.8045   -2.7289   -0.7071 H   0  0  0  0  0  0  0  0  0  0  0  0
    7.2590   -1.7601   -0.3104 H   0  0  0  0  0  0  0  0  0  0  0  0
  1  2  1  0
  2  3  1  0
  3  4  1  0
  4  5  1  0
  5  6  1  0
  6  7  2  0
  6  8  1  0
  8  9  2  0
  9 10  1  0
 10 11  1  0
 11 12  2  0
 12 13  1  0
 13 14  2  0
 14 15  1  0
 15 16  2  0
 10 17  1  0
 17 18  1  0
 18 19  2  0
 19 20  1  0
 20 21  2  0
 21 22  1  0
 22 23  2  0
  2 24  1  0
 12  8  1  0
 23 18  1  0
 16 11  1  0
  1 25  1  0
  1 26  1  0
  1 27  1  0
  3 28  1  0
  3 29  1  0
  4 30  1  0
  4 31  1  0
  9 32  1  0
 13 33  1  0
 14 34  1  0
 15 35  1  0
 16 36  1  0
 17 37  1  0
 17 38  1  0
 19 39  1  0
 20 40  1  0
 21 41  1  0
 22 42  1  0
 23 43  1  0
 24 44  1  0
 24 45  1  0
 24 46  1  0
M  END
>  <Ligand ID>  (1) 
LIG0004550

>  <Ligand>  (1) 
MLS000080214

>  <SMILES>  (1) 
CN(CCOC(=O)c1cn(c2c1cccc2)Cc1ccccc1)C

>  <CID>  (1) 
657635.0

>  <ChEMBL ID>  (1) 
nan

>  <InChiKey>  (1) 
YKBOWZAAKMELLI-UHFFFAOYSA-N

>  <InChi>  (1) 
InChI=1S/C20H22N2O2/c1-21(2)12-13-24-20(23)18-15-22(14-16-8-4-3-5-9-16)19-11-7-6-10-17(18)19/h3-11,15H,12-14H2,1-2H3

>  <IUPAC Name>  (1) 
2-(dimethylamino)ethyl 1-benzylindole-3-carboxylate

$$$$
