
     RDKit          3D

 19 19  0  0  0  0  0  0  0  0999 V2000
    4.4398    0.4174    0.4553 O   0  0  0  0  0  0  0  0  0  0  0  0
    3.3294   -0.4082    0.5660 C   0  0  0  0  0  0  0  0  0  0  0  0
    3.5584   -1.6127    0.8757 O   0  0  0  0  0  0  0  0  0  0  0  0
    1.9745    0.0794    0.3395 C   0  0  0  0  0  0  0  0  0  0  0  0
    0.9061   -0.6922    0.4405 C   0  0  0  0  0  0  0  0  0  0  0  0
   -0.4533   -0.2387    0.2218 C   0  0  0  0  0  0  0  0  0  0  0  0
   -1.5234   -1.1314    0.3519 C   0  0  0  0  0  0  0  0  0  0  0  0
   -2.8264   -0.7340    0.1513 C   0  0  0  0  0  0  0  0  0  0  0  0
   -3.1392    0.5777   -0.1910 C   0  0  0  0  0  0  0  0  0  0  0  0
   -2.0949    1.4669   -0.3223 C   0  0  0  0  0  0  0  0  0  0  0  0
   -0.7906    1.0491   -0.1167 C   0  0  0  0  0  0  0  0  0  0  0  0
    5.2618    0.3151    1.0703 H   0  0  0  0  0  0  0  0  0  0  0  0
    1.8547    1.1204    0.0781 H   0  0  0  0  0  0  0  0  0  0  0  0
    1.0780   -1.7226    0.7034 H   0  0  0  0  0  0  0  0  0  0  0  0
   -1.3694   -2.1702    0.6154 H   0  0  0  0  0  0  0  0  0  0  0  0
   -3.6556   -1.4370    0.2548 H   0  0  0  0  0  0  0  0  0  0  0  0
   -4.1678    0.8407   -0.3371 H   0  0  0  0  0  0  0  0  0  0  0  0
   -2.3556    2.4817   -0.5887 H   0  0  0  0  0  0  0  0  0  0  0  0
   -0.0266    1.7988   -0.2367 H   0  0  0  0  0  0  0  0  0  0  0  0
  1  2  1  0
  2  3  2  0
  2  4  1  0
  4  5  2  0
  5  6  1  0
  6  7  2  0
  7  8  1  0
  8  9  2  0
  9 10  1  0
 10 11  2  0
 11  6  1  0
  1 12  1  0
  4 13  1  0
  5 14  1  0
  7 15  1  0
  8 16  1  0
  9 17  1  0
 10 18  1  0
 11 19  1  0
M  END
>  <Ligand ID>  (1) 
LIG0000280

>  <Ligand>  (1) 
cinnamic acid

>  <SMILES>  (1) 
OC(=O)/C=C/c1ccccc1

>  <CID>  (1) 
444539.0

>  <ChEMBL ID>  (1) 
nan

>  <InChiKey>  (1) 
WBYWAXJHAXSJNI-VOTSOKGWSA-N

>  <InChi>  (1) 
InChI=1S/C9H8O2/c10-9(11)7-6-8-4-2-1-3-5-8/h1-7H,(H,10,11)/b7-6+

>  <IUPAC Name>  (1) 
(E)-3-phenylprop-2-enoic acid

$$$$
