
     RDKit          3D

129131  0  0  0  0  0  0  0  0999 V2000
   -8.3493    5.2361    1.9799 C   0  0  0  0  0  0  0  0  0  0  0  0
   -9.2892    3.7256    2.3204 S   0  0  0  0  0  0  0  0  0  0  0  0
   -8.2980    2.4176    2.9932 C   0  0  0  0  0  0  0  0  0  0  0  0
   -7.2607    1.7976    2.1523 C   0  0  0  0  0  0  0  0  0  0  0  0
   -7.6288    1.0829    0.9209 C   0  0  1  0  0  0  0  0  0  0  0  0
   -8.2908    1.9151   -0.0942 C   0  0  0  0  0  0  0  0  0  0  0  0
   -7.5635    2.1994   -1.1235 O   0  0  0  0  0  0  0  0  0  0  0  0
   -9.5819    2.4291   -0.1058 N   0  0  0  0  0  0  0  0  0  0  0  0
   -6.3776    0.5154    0.3090 N   0  0  0  0  0  0  0  0  0  0  0  0
   -6.4092   -0.8067   -0.2496 C   0  0  0  0  0  0  0  0  0  0  0  0
   -7.5628   -1.3618   -0.1704 O   0  0  0  0  0  0  0  0  0  0  0  0
   -5.2388   -1.4473   -0.8487 C   0  0  1  0  0  0  0  0  0  0  0  0
   -4.0877   -0.5814   -0.6335 N   0  0  0  0  0  0  0  0  0  0  0  0
   -3.6880   -0.4134    0.7323 C   0  0  0  0  0  0  0  0  0  0  0  0
   -4.3632   -1.0127    1.5908 O   0  0  0  0  0  0  0  0  0  0  0  0
   -2.5594    0.3962    1.1800 C   0  0  0  0  0  0  0  0  0  0  0  0
   -1.8121    1.0352    0.1228 N   0  0  0  0  0  0  0  0  0  0  0  0
   -2.4047    2.2701   -0.3427 C   0  0  0  0  0  0  0  0  0  0  0  0
   -2.1109    3.4751    0.4223 C   0  0  0  0  0  0  0  0  0  0  0  0
   -0.9054    4.2923    0.3402 C   0  0  0  0  0  0  0  0  0  0  0  0
    0.3692    3.7288    0.5580 N   0  0  0  0  0  0  0  0  0  0  0  0
    1.6244    4.5015    0.5654 C   0  0  0  0  0  0  0  0  0  0  0  0
    1.4524    5.7034    0.4034 O   0  0  0  0  0  0  0  0  0  0  0  0
    2.8054    3.7109    0.7588 C   0  0  0  0  0  0  0  0  0  0  0  0
    4.1243    4.1761    1.2383 C   0  0  0  0  0  0  0  0  0  0  0  0
    4.9273    2.8910    1.0192 C   0  0  0  0  0  0  0  0  0  0  0  0
    4.7760    2.4148   -0.1248 O   0  0  0  0  0  0  0  0  0  0  0  0
    5.7587    2.2253    1.9076 N   0  0  0  0  0  0  0  0  0  0  0  0
    6.2362    0.8811    1.4699 C   0  0  1  0  0  0  0  0  0  0  0  0
    4.9572    0.3109    0.8804 C   0  0  0  0  0  0  0  0  0  0  0  0
    3.8400    0.7988    1.1149 O   0  0  0  0  0  0  0  0  0  0  0  0
    4.9118   -0.8243    0.0208 N   0  0  0  0  0  0  0  0  0  0  0  0
    3.6821   -1.0400   -0.7040 C   0  0  2  0  0  0  0  0  0  0  0  0
    2.4549   -1.1403    0.0813 C   0  0  0  0  0  0  0  0  0  0  0  0
    2.3073   -1.3145    1.2876 O   0  0  0  0  0  0  0  0  0  0  0  0
    1.1894   -1.0072   -0.6470 N   0  0  0  0  0  0  0  0  0  0  0  0
   -0.0963   -0.9686    0.0672 C   0  0  1  0  0  0  0  0  0  0  0  0
   -0.6653    0.3791   -0.3297 C   0  0  0  0  0  0  0  0  0  0  0  0
   -0.0365    1.0037   -1.1727 O   0  0  0  0  0  0  0  0  0  0  0  0
   -0.9550   -2.0500   -0.4651 C   0  0  0  0  0  0  0  0  0  0  0  0
   -0.3837   -3.3970   -0.3835 C   0  0  0  0  0  0  0  0  0  0  0  0
    0.2013   -3.9051   -1.5418 C   0  0  0  0  0  0  0  0  0  0  0  0
    0.7086   -5.1931   -1.6145 C   0  0  0  0  0  0  0  0  0  0  0  0
    0.6067   -5.9673   -0.4571 C   0  0  0  0  0  0  0  0  0  0  0  0
    0.0356   -5.4848    0.6973 C   0  0  0  0  0  0  0  0  0  0  0  0
   -0.4632   -4.2015    0.7480 C   0  0  0  0  0  0  0  0  0  0  0  0
    3.9202   -2.1264   -1.7036 C   0  0  0  0  0  0  0  0  0  0  0  0
    4.4674   -3.3488   -1.0577 C   0  0  0  0  0  0  0  0  0  0  0  0
    3.7675   -4.2579   -0.3325 C   0  0  0  0  0  0  0  0  0  0  0  0
    4.4382   -5.3743    0.1635 C   0  0  0  0  0  0  0  0  0  0  0  0
    5.7817   -5.5930   -0.0504 C   0  0  0  0  0  0  0  0  0  0  0  0
    6.4931   -4.6700   -0.7854 C   0  0  0  0  0  0  0  0  0  0  0  0
    5.8364   -3.5684   -1.2762 C   0  0  0  0  0  0  0  0  0  0  0  0
    7.2624    0.9245    0.4181 C   0  0  0  0  0  0  0  0  0  0  0  0
    8.5248    1.6531    0.7895 C   0  0  0  0  0  0  0  0  0  0  0  0
    9.5160    1.6354   -0.3852 C   0  0  0  0  0  0  0  0  0  0  0  0
    8.9164    2.2751   -1.5227 N   0  0  0  0  0  0  0  0  0  0  0  0
    8.9735    3.5276   -1.8101 C   0  0  0  0  0  0  0  0  0  0  0  0
    8.3011    3.9408   -2.9921 N   0  0  0  0  0  0  0  0  0  0  0  0
    9.6767    4.4704   -0.9820 N   0  0  0  0  0  0  0  0  0  0  0  0
   -4.9552   -2.8562   -0.5982 C   0  0  0  0  0  0  0  0  0  0  0  0
   -5.8968   -3.9012   -0.9955 C   0  0  0  0  0  0  0  0  0  0  0  0
   -6.2461   -3.9544   -2.4646 C   0  0  0  0  0  0  0  0  0  0  0  0
   -7.1134   -4.1625   -0.1687 C   0  0  0  0  0  0  0  0  0  0  0  0
   -8.7024    6.1024    2.5965 H   0  0  0  0  0  0  0  0  0  0  0  0
   -8.4867    5.5048    0.8940 H   0  0  0  0  0  0  0  0  0  0  0  0
   -7.2575    5.1266    2.1592 H   0  0  0  0  0  0  0  0  0  0  0  0
   -7.8145    2.8496    3.9509 H   0  0  0  0  0  0  0  0  0  0  0  0
   -8.9646    1.6178    3.4698 H   0  0  0  0  0  0  0  0  0  0  0  0
   -6.6246    1.1140    2.7966 H   0  0  0  0  0  0  0  0  0  0  0  0
   -6.5721    2.6749    1.8419 H   0  0  0  0  0  0  0  0  0  0  0  0
   -8.2842    0.1931    1.1715 H   0  0  0  0  0  0  0  0  0  0  0  0
   -9.7809    3.3765   -0.5558 H   0  0  0  0  0  0  0  0  0  0  0  0
  -10.4450    1.9708    0.2858 H   0  0  0  0  0  0  0  0  0  0  0  0
   -5.5349    1.1141    0.3125 H   0  0  0  0  0  0  0  0  0  0  0  0
   -5.4115   -1.3431   -1.9824 H   0  0  0  0  0  0  0  0  0  0  0  0
   -3.5636   -0.0932   -1.3813 H   0  0  0  0  0  0  0  0  0  0  0  0
   -1.8203   -0.2606    1.7424 H   0  0  0  0  0  0  0  0  0  0  0  0
   -2.8119    1.1561    1.9761 H   0  0  0  0  0  0  0  0  0  0  0  0
   -3.5425    2.1661   -0.3732 H   0  0  0  0  0  0  0  0  0  0  0  0
   -2.1894    2.4055   -1.4542 H   0  0  0  0  0  0  0  0  0  0  0  0
   -2.9757    4.2453    0.2784 H   0  0  0  0  0  0  0  0  0  0  0  0
   -2.3195    3.2602    1.5598 H   0  0  0  0  0  0  0  0  0  0  0  0
   -1.0217    5.1162    1.1185 H   0  0  0  0  0  0  0  0  0  0  0  0
   -0.9358    4.9065   -0.6186 H   0  0  0  0  0  0  0  0  0  0  0  0
    0.4993    2.7498    0.7486 H   0  0  0  0  0  0  0  0  0  0  0  0
    2.4926    2.9624    1.6149 H   0  0  0  0  0  0  0  0  0  0  0  0
    2.9494    3.0541   -0.1523 H   0  0  0  0  0  0  0  0  0  0  0  0
    4.6093    4.9350    0.6288 H   0  0  0  0  0  0  0  0  0  0  0  0
    4.1582    4.3297    2.3279 H   0  0  0  0  0  0  0  0  0  0  0  0
    6.0048    2.6556    2.7840 H   0  0  0  0  0  0  0  0  0  0  0  0
    6.5373    0.2786    2.3268 H   0  0  0  0  0  0  0  0  0  0  0  0
    5.7501   -1.3957    0.0001 H   0  0  0  0  0  0  0  0  0  0  0  0
    3.5764   -0.0153   -1.2836 H   0  0  0  0  0  0  0  0  0  0  0  0
    1.2827   -0.9483   -1.6489 H   0  0  0  0  0  0  0  0  0  0  0  0
   -0.0086   -1.0470    1.1472 H   0  0  0  0  0  0  0  0  0  0  0  0
   -1.3523   -1.8362   -1.4961 H   0  0  0  0  0  0  0  0  0  0  0  0
   -1.8425   -2.1318    0.2533 H   0  0  0  0  0  0  0  0  0  0  0  0
    0.2833   -3.3048   -2.4375 H   0  0  0  0  0  0  0  0  0  0  0  0
    1.1560   -5.5817   -2.5153 H   0  0  0  0  0  0  0  0  0  0  0  0
    0.9895   -6.9803   -0.4769 H   0  0  0  0  0  0  0  0  0  0  0  0
   -0.0479   -6.0787    1.6152 H   0  0  0  0  0  0  0  0  0  0  0  0
   -0.9226   -3.7803    1.6330 H   0  0  0  0  0  0  0  0  0  0  0  0
    4.5807   -1.7993   -2.5293 H   0  0  0  0  0  0  0  0  0  0  0  0
    2.9224   -2.4141   -2.1353 H   0  0  0  0  0  0  0  0  0  0  0  0
    2.7278   -4.0663   -0.1487 H   0  0  0  0  0  0  0  0  0  0  0  0
    3.9170   -6.1181    0.7417 H   0  0  0  0  0  0  0  0  0  0  0  0
    6.3208   -6.4428    0.3211 H   0  0  0  0  0  0  0  0  0  0  0  0
    7.5652   -4.8068   -0.9770 H   0  0  0  0  0  0  0  0  0  0  0  0
    6.4369   -2.8646   -1.8523 H   0  0  0  0  0  0  0  0  0  0  0  0
    6.8253    1.3572   -0.5339 H   0  0  0  0  0  0  0  0  0  0  0  0
    7.5826   -0.0938    0.1038 H   0  0  0  0  0  0  0  0  0  0  0  0
    8.3911    2.7089    1.0664 H   0  0  0  0  0  0  0  0  0  0  0  0
    9.0510    1.1346    1.6190 H   0  0  0  0  0  0  0  0  0  0  0  0
    9.6443    0.5688   -0.6471 H   0  0  0  0  0  0  0  0  0  0  0  0
   10.4444    2.1011   -0.0304 H   0  0  0  0  0  0  0  0  0  0  0  0
    8.6981    3.7685   -3.9607 H   0  0  0  0  0  0  0  0  0  0  0  0
    7.3763    4.4370   -2.9954 H   0  0  0  0  0  0  0  0  0  0  0  0
   10.1276    4.1173   -0.1154 H   0  0  0  0  0  0  0  0  0  0  0  0
    9.6916    5.4671   -1.3016 H   0  0  0  0  0  0  0  0  0  0  0  0
   -4.7552   -3.0311    0.5174 H   0  0  0  0  0  0  0  0  0  0  0  0
   -3.9775   -3.0779   -1.1469 H   0  0  0  0  0  0  0  0  0  0  0  0
   -5.3069   -4.9137   -0.8813 H   0  0  0  0  0  0  0  0  0  0  0  0
   -5.3826   -4.0038   -3.1321 H   0  0  0  0  0  0  0  0  0  0  0  0
   -7.0288   -3.2168   -2.7555 H   0  0  0  0  0  0  0  0  0  0  0  0
   -6.7734   -4.9417   -2.5926 H   0  0  0  0  0  0  0  0  0  0  0  0
   -8.0701   -3.9127   -0.6938 H   0  0  0  0  0  0  0  0  0  0  0  0
   -7.2540   -5.2791    0.0284 H   0  0  0  0  0  0  0  0  0  0  0  0
   -7.0611   -3.7564    0.8704 H   0  0  0  0  0  0  0  0  0  0  0  0
  1  2  1  0
  2  3  1  0
  3  4  1  0
  4  5  1  0
  5  6  1  0
  6  7  2  0
  6  8  1  0
  5  9  1  0
  9 10  1  0
 10 11  2  0
 10 12  1  0
 12 13  1  0
 13 14  1  0
 14 15  2  0
 14 16  1  0
 16 17  1  0
 17 18  1  0
 18 19  1  0
 19 20  1  0
 20 21  1  0
 21 22  1  0
 22 23  2  0
 22 24  1  0
 24 25  1  0
 25 26  1  0
 26 27  2  0
 26 28  1  0
 28 29  1  0
 29 30  1  0
 30 31  2  0
 30 32  1  0
 32 33  1  0
 33 34  1  0
 34 35  2  0
 34 36  1  0
 36 37  1  0
 37 38  1  0
 38 39  2  0
 37 40  1  0
 40 41  1  0
 41 42  2  0
 42 43  1  0
 43 44  2  0
 44 45  1  0
 45 46  2  0
 33 47  1  0
 47 48  1  0
 48 49  2  0
 49 50  1  0
 50 51  2  0
 51 52  1  0
 52 53  2  0
 29 54  1  0
 54 55  1  0
 55 56  1  0
 56 57  1  0
 57 58  2  3
 58 59  1  0
 58 60  1  0
 12 61  1  0
 61 62  1  0
 62 63  1  0
 62 64  1  0
 38 17  1  0
 46 41  1  0
 53 48  1  0
  1 65  1  0
  1 66  1  0
  1 67  1  0
  3 68  1  0
  3 69  1  0
  4 70  1  0
  4 71  1  0
  5 72  1  1
  8 73  1  0
  8 74  1  0
  9 75  1  0
 12 76  1  6
 13 77  1  0
 16 78  1  0
 16 79  1  0
 18 80  1  0
 18 81  1  0
 19 82  1  0
 19 83  1  0
 20 84  1  0
 20 85  1  0
 21 86  1  0
 24 87  1  0
 24 88  1  0
 25 89  1  0
 25 90  1  0
 28 91  1  0
 29 92  1  1
 32 93  1  0
 33 94  1  6
 36 95  1  0
 37 96  1  1
 40 97  1  0
 40 98  1  0
 42 99  1  0
 43100  1  0
 44101  1  0
 45102  1  0
 46103  1  0
 47104  1  0
 47105  1  0
 49106  1  0
 50107  1  0
 51108  1  0
 52109  1  0
 53110  1  0
 54111  1  0
 54112  1  0
 55113  1  0
 55114  1  0
 56115  1  0
 56116  1  0
 59117  1  0
 59118  1  0
 60119  1  0
 60120  1  0
 61121  1  0
 61122  1  0
 62123  1  0
 63124  1  0
 63125  1  0
 63126  1  0
 64127  1  0
 64128  1  0
 64129  1  0
M  END
>  <Ligand ID>  (1) 
LIG0003434

>  <Ligand>  (1) 
CHEMBL421485

>  <SMILES>  (1) 
CSCC[C@@H](C(=O)N)NC(=O)[C@@H](NC(=O)CN1CCCNC(=O)CCC(=O)N[C@@H](C(=O)N[C@H](C(=O)N[C@@H](C1=O)Cc1ccccc1)Cc1ccccc1)CCCN=C(N)N)CC(C)C

>  <CID>  (1) 
44308431.0

>  <ChEMBL ID>  (1) 
nan

>  <InChiKey>  (1) 
ZFMPRZDNGINSND-FVXJUOQQSA-N

>  <InChi>  (1) 
InChI=1S/C44H65N11O8S/c1-28(2)24-33(41(61)52-31(39(45)59)19-23-64-3)51-38(58)27-55-22-11-21-48-36(56)17-18-37(57)50-32(16-10-20-49-44(46)47)40(60)53-34(25-29-12-6-4-7-13-29)42(62)54-35(43(55)63)26-30-14-8-5-9-15-30/h4-9,12-15,28,31-35H,10-11,16-27H2,1-3H3,(H2,45,59)(H,48,56)(H,50,57)(H,51,58)(H,52,61)(H,53,60)(H,54,62)(H4,46,47,49)/t31-,32+,33-,34-,35+/m0/s1

>  <IUPAC Name>  (1) 
(2S)-N-[(2S)-1-amino-4-methylsulfanyl-1-oxobutan-2-yl]-2-[[2-[(2R,5S,8R)-5,8-dibenzyl-2-[3-(diaminomethylideneamino)propyl]-3,6,9,15,18-pentaoxo-1,4,7,10,14-pentazacyclooctadec-10-yl]acetyl]amino]-4-methylpentanamide

$$$$
