
     RDKit          3D

 51 54  0  0  0  0  0  0  0  0999 V2000
   -0.9961   -1.9884   -2.3707 O   0  0  0  0  0  0  0  0  0  0  0  0
   -0.1695   -1.1775   -1.6104 C   0  0  2  0  0  0  0  0  0  0  0  0
    1.2537   -1.6908   -1.5583 C   0  0  0  0  0  0  0  0  0  0  0  0
    1.8348   -0.8670   -0.4246 C   0  0  1  0  0  0  0  0  0  0  0  0
    0.6457   -0.4332    0.4384 C   0  0  1  0  0  0  0  0  0  0  0  0
   -0.5498   -1.1475   -0.1555 C   0  0  1  0  0  0  0  0  0  0  0  0
   -1.8271   -0.3677    0.0785 C   0  0  0  0  0  0  0  0  0  0  0  0
   -2.9021   -0.9420   -0.6288 O   0  0  0  0  0  0  0  0  0  0  0  0
   -4.1944   -0.4131   -0.5831 C   0  0  0  0  0  0  0  0  0  0  0  0
   -5.2289   -1.0030   -1.2911 C   0  0  0  0  0  0  0  0  0  0  0  0
   -6.4947   -0.4337   -1.2087 C   0  0  0  0  0  0  0  0  0  0  0  0
   -6.6691    0.6939   -0.4265 C   0  0  0  0  0  0  0  0  0  0  0  0
   -5.6424    1.2844    0.2799 C   0  0  0  0  0  0  0  0  0  0  0  0
   -4.3912    0.7146    0.1933 C   0  0  0  0  0  0  0  0  0  0  0  0
   -5.8619    2.5021    1.1165 C   0  0  0  0  0  0  0  0  0  0  0  0
   -8.2654    1.4292   -0.3098 Cl  0  0  0  0  0  0  0  0  0  0  0  0
    0.9619   -0.9064    1.8392 C   0  0  0  0  0  0  0  0  0  0  0  0
    2.2865   -0.2288    2.2055 C   0  0  0  0  0  0  0  0  0  0  0  0
    3.3253   -0.8182    1.2786 C   0  0  1  0  0  0  0  0  0  0  0  0
    2.7738   -1.5830    0.2766 O   0  0  0  0  0  0  0  0  0  0  0  0
    4.2501    0.2169    0.7546 C   0  0  0  0  0  0  0  0  0  0  0  0
    4.3646    1.5504    1.0878 C   0  0  0  0  0  0  0  0  0  0  0  0
    5.3258    2.0652    0.3575 O   0  0  0  0  0  0  0  0  0  0  0  0
    5.8516    1.1478   -0.4380 C   0  0  0  0  0  0  0  0  0  0  0  0
    5.1929   -0.0457   -0.2153 C   0  0  0  0  0  0  0  0  0  0  0  0
    6.9412    1.4378   -1.3628 C   0  0  0  0  0  0  0  0  0  0  0  0
    7.3889    2.5994   -1.3985 O   0  0  0  0  0  0  0  0  0  0  0  0
    7.4786    0.4727   -2.1850 O   0  0  0  0  0  0  0  0  0  0  0  0
   -1.7685   -1.4292   -2.6430 H   0  0  0  0  0  0  0  0  0  0  0  0
   -0.1123   -0.1353   -1.9689 H   0  0  0  0  0  0  0  0  0  0  0  0
    1.1714   -2.7662   -1.2672 H   0  0  0  0  0  0  0  0  0  0  0  0
    1.7925   -1.5460   -2.5097 H   0  0  0  0  0  0  0  0  0  0  0  0
    2.3060    0.0231   -0.9329 H   0  0  0  0  0  0  0  0  0  0  0  0
    0.5161    0.6577    0.4300 H   0  0  0  0  0  0  0  0  0  0  0  0
   -0.6158   -2.1894    0.1946 H   0  0  0  0  0  0  0  0  0  0  0  0
   -2.0265   -0.2368    1.1601 H   0  0  0  0  0  0  0  0  0  0  0  0
   -1.6764    0.6468   -0.3429 H   0  0  0  0  0  0  0  0  0  0  0  0
   -5.0761   -1.8751   -1.8914 H   0  0  0  0  0  0  0  0  0  0  0  0
   -7.3546   -0.8172   -1.7188 H   0  0  0  0  0  0  0  0  0  0  0  0
   -3.5863    1.1762    0.7461 H   0  0  0  0  0  0  0  0  0  0  0  0
   -5.9086    2.2263    2.1725 H   0  0  0  0  0  0  0  0  0  0  0  0
   -6.8188    2.9656    0.8156 H   0  0  0  0  0  0  0  0  0  0  0  0
   -5.0230    3.2110    0.8750 H   0  0  0  0  0  0  0  0  0  0  0  0
    1.1008   -2.0008    1.8602 H   0  0  0  0  0  0  0  0  0  0  0  0
    0.1769   -0.6442    2.5688 H   0  0  0  0  0  0  0  0  0  0  0  0
    2.5219   -0.3461    3.2697 H   0  0  0  0  0  0  0  0  0  0  0  0
    2.1376    0.8556    1.9356 H   0  0  0  0  0  0  0  0  0  0  0  0
    3.9402   -1.5178    1.9185 H   0  0  0  0  0  0  0  0  0  0  0  0
    3.7722    2.0673    1.8134 H   0  0  0  0  0  0  0  0  0  0  0  0
    5.4129   -0.9716   -0.7271 H   0  0  0  0  0  0  0  0  0  0  0  0
    8.4359    0.5777   -2.5182 H   0  0  0  0  0  0  0  0  0  0  0  0
  1  2  1  0
  2  3  1  0
  3  4  1  0
  4  5  1  0
  5  6  1  0
  6  7  1  0
  7  8  1  0
  8  9  1  0
  9 10  2  0
 10 11  1  0
 11 12  2  0
 12 13  1  0
 13 14  2  0
 13 15  1  0
 12 16  1  0
  5 17  1  0
 17 18  1  0
 18 19  1  0
 19 20  1  0
 19 21  1  0
 21 22  2  0
 22 23  1  0
 23 24  1  0
 24 25  2  0
 24 26  1  0
 26 27  2  0
 26 28  1  0
  6  2  1  0
 14  9  1  0
 25 21  1  0
 20  4  1  0
  1 29  1  0
  2 30  1  6
  3 31  1  0
  3 32  1  0
  4 33  1  6
  5 34  1  1
  6 35  1  1
  7 36  1  0
  7 37  1  0
 10 38  1  0
 11 39  1  0
 14 40  1  0
 15 41  1  0
 15 42  1  0
 15 43  1  0
 17 44  1  0
 17 45  1  0
 18 46  1  0
 18 47  1  0
 19 48  1  1
 22 49  1  0
 25 50  1  0
 28 51  1  0
M  END
>  <Ligand ID>  (1) 
LIG0000939

>  <Ligand>  (1) 
CHEMBL3792668

>  <SMILES>  (1) 
O[C@@H]1C[C@H]2[C@@H]([C@H]1COc1ccc(c(c1)C)Cl)CC[C@@H](O2)c1coc(c1)C(=O)O

>  <CID>  (1) 
126495432.0

>  <ChEMBL ID>  (1) 
nan

>  <InChiKey>  (1) 
PGFAYOUFUJNOPE-YRGVVPAESA-N

>  <InChi>  (1) 
InChI=1S/C21H23ClO6/c1-11-6-13(2-4-16(11)22)26-10-15-14-3-5-18(28-19(14)8-17(15)23)12-7-20(21(24)25)27-9-12/h2,4,6-7,9,14-15,17-19,23H,3,5,8,10H2,1H3,(H,24,25)/t14-,15-,17-,18-,19+/m1/s1

>  <IUPAC Name>  (1) 
4-[(2R,4aR,5S,6R,7aS)-5-[(4-chloro-3-methylphenoxy)methyl]-6-hydroxy-2,3,4,4a,5,6,7,7a-octahydrocyclopenta[b]pyran-2-yl]furan-2-carboxylic acid

$$$$
