
     RDKit          3D

 74 76  0  0  0  0  0  0  0  0999 V2000
   12.0514    1.8342    0.3644 C   0  0  0  0  0  0  0  0  0  0  0  0
   11.1466    2.8486    0.7243 O   0  0  0  0  0  0  0  0  0  0  0  0
   10.1062    2.8484   -0.1481 N   0  0  0  0  0  0  0  0  0  0  0  0
    9.2096    1.7471   -0.2371 C   0  0  0  0  0  0  0  0  0  0  0  0
    8.1417    1.7107   -1.1108 C   0  0  0  0  0  0  0  0  0  0  0  0
    7.3067    0.6118   -1.1497 C   0  0  0  0  0  0  0  0  0  0  0  0
    7.5067   -0.4641   -0.3344 N   0  0  0  0  0  0  0  0  0  0  0  0
    8.5571   -0.3775    0.4945 C   0  0  0  0  0  0  0  0  0  0  0  0
    8.7818   -1.3411    1.2630 O   0  0  0  0  0  0  0  0  0  0  0  0
    9.3798    0.6717    0.5530 N   0  0  0  0  0  0  0  0  0  0  0  0
    6.6056   -1.5579   -0.4317 C   0  0  2  0  0  0  0  0  0  0  0  0
    5.3357   -1.0138   -0.6995 O   0  0  0  0  0  0  0  0  0  0  0  0
    4.4281   -2.0353   -0.4936 C   0  0  1  0  0  0  0  0  0  0  0  0
    5.0099   -2.9727    0.5099 C   0  0  2  0  0  0  0  0  0  0  0  0
    6.3680   -2.3564    0.7923 C   0  0  1  0  0  0  0  0  0  0  0  0
    7.2316   -3.4469    0.9592 O   0  0  0  0  0  0  0  0  0  0  0  0
    5.1460   -4.2312   -0.0490 O   0  0  0  0  0  0  0  0  0  0  0  0
    3.1530   -1.4250    0.0932 C   0  0  0  0  0  0  0  0  0  0  0  0
    2.6116   -0.4875   -0.7808 O   0  0  0  0  0  0  0  0  0  0  0  0
    1.2003    0.2137   -0.1739 P   0  0  0  0  0  0  0  0  0  0  0  0
    1.4684    0.7810    1.1962 O   0  0  0  0  0  0  0  0  0  0  0  0
   -0.0804   -0.8835   -0.1460 O   0  0  0  0  0  0  0  0  0  0  0  0
   -1.1783   -0.5601    1.0933 P   0  0  0  0  0  0  0  0  0  0  0  0
   -0.6189    0.5346    1.9494 O   0  0  0  0  0  0  0  0  0  0  0  0
   -2.7109   -0.2059    0.4727 O   0  0  0  0  0  0  0  0  0  0  0  0
   -2.7878   -0.9223   -1.0625 P   0  0  0  0  0  0  0  0  0  0  0  0
   -2.4475    0.1704   -2.0593 O   0  0  0  0  0  0  0  0  0  0  0  0
   -4.3515   -1.4666   -1.4167 O   0  0  0  0  0  0  0  0  0  0  0  0
   -5.4369   -0.5479   -0.5428 P   0  0  0  0  0  0  0  0  0  0  0  0
   -4.8734    0.7363   -0.0291 O   0  0  0  0  0  0  0  0  0  0  0  0
   -6.8274   -0.1852   -1.4493 O   0  0  0  0  0  0  0  0  0  0  0  0
   -7.7832    0.3756   -0.6042 C   0  0  1  0  0  0  0  0  0  0  0  0
   -8.0832    1.6496   -1.0510 O   0  0  0  0  0  0  0  0  0  0  0  0
   -9.0688    2.2819   -0.3537 C   0  0  2  0  0  0  0  0  0  0  0  0
   -8.4539    3.3380    0.5543 C   0  0  0  0  0  0  0  0  0  0  0  0
   -9.4261    3.9981    1.2757 O   0  0  0  0  0  0  0  0  0  0  0  0
  -10.0370    1.4078    0.3691 C   0  0  2  0  0  0  0  0  0  0  0  0
  -10.2801    0.1789   -0.5159 C   0  0  1  0  0  0  0  0  0  0  0  0
   -8.9650   -0.5568   -0.6291 C   0  0  1  0  0  0  0  0  0  0  0  0
   -8.9387   -1.3970   -1.7421 O   0  0  0  0  0  0  0  0  0  0  0  0
  -11.2949   -0.6061   -0.0621 F   0  0  0  0  0  0  0  0  0  0  0  0
  -11.2656    2.0805    0.4354 O   0  0  0  0  0  0  0  0  0  0  0  0
   -5.9741   -1.5040    0.7584 O   0  0  0  0  0  0  0  0  0  0  0  0
   -1.6601   -2.1725   -1.1787 O   0  0  0  0  0  0  0  0  0  0  0  0
   -1.3465   -1.9693    2.0418 O   0  0  0  0  0  0  0  0  0  0  0  0
    0.7876    1.4962   -1.1865 O   0  0  0  0  0  0  0  0  0  0  0  0
   13.0650    2.2639    0.3676 H   0  0  0  0  0  0  0  0  0  0  0  0
   11.9112    0.9662    1.0250 H   0  0  0  0  0  0  0  0  0  0  0  0
   11.8397    1.4628   -0.6805 H   0  0  0  0  0  0  0  0  0  0  0  0
    9.9651    3.6762   -0.7646 H   0  0  0  0  0  0  0  0  0  0  0  0
    7.9886    2.5641   -1.7530 H   0  0  0  0  0  0  0  0  0  0  0  0
    6.4689    0.6135   -1.8534 H   0  0  0  0  0  0  0  0  0  0  0  0
    6.8632   -2.2518   -1.2534 H   0  0  0  0  0  0  0  0  0  0  0  0
    4.2271   -2.5280   -1.4437 H   0  0  0  0  0  0  0  0  0  0  0  0
    4.4066   -3.0684    1.4341 H   0  0  0  0  0  0  0  0  0  0  0  0
    6.2409   -1.7592    1.7156 H   0  0  0  0  0  0  0  0  0  0  0  0
    7.1417   -3.9834    0.1311 H   0  0  0  0  0  0  0  0  0  0  0  0
    4.6676   -4.3070   -0.9145 H   0  0  0  0  0  0  0  0  0  0  0  0
    2.4507   -2.2273    0.3655 H   0  0  0  0  0  0  0  0  0  0  0  0
    3.4096   -0.8703    1.0172 H   0  0  0  0  0  0  0  0  0  0  0  0
   -7.3417    0.4152    0.4116 H   0  0  0  0  0  0  0  0  0  0  0  0
   -9.6605    2.8778   -1.1079 H   0  0  0  0  0  0  0  0  0  0  0  0
   -7.9061    4.0488   -0.0848 H   0  0  0  0  0  0  0  0  0  0  0  0
   -7.7101    2.8206    1.2028 H   0  0  0  0  0  0  0  0  0  0  0  0
   -9.6050    4.8636    0.8405 H   0  0  0  0  0  0  0  0  0  0  0  0
   -9.7129    1.1061    1.3835 H   0  0  0  0  0  0  0  0  0  0  0  0
  -10.5033    0.5829   -1.5330 H   0  0  0  0  0  0  0  0  0  0  0  0
   -8.8873   -1.2189    0.2583 H   0  0  0  0  0  0  0  0  0  0  0  0
   -8.8809   -0.8901   -2.5752 H   0  0  0  0  0  0  0  0  0  0  0  0
  -11.3449    2.6162    1.2593 H   0  0  0  0  0  0  0  0  0  0  0  0
   -5.9179   -1.0287    1.6097 H   0  0  0  0  0  0  0  0  0  0  0  0
   -1.4769   -2.4111   -2.1128 H   0  0  0  0  0  0  0  0  0  0  0  0
   -0.5639   -2.5736    1.9196 H   0  0  0  0  0  0  0  0  0  0  0  0
    1.2219    1.4115   -2.0771 H   0  0  0  0  0  0  0  0  0  0  0  0
  1  2  1  0
  2  3  1  0
  3  4  1  0
  4  5  1  0
  5  6  2  0
  6  7  1  0
  7  8  1  0
  8  9  2  0
  8 10  1  0
  7 11  1  0
 11 12  1  0
 12 13  1  0
 13 14  1  0
 14 15  1  0
 15 16  1  0
 14 17  1  0
 13 18  1  0
 18 19  1  0
 19 20  1  0
 20 21  2  0
 20 22  1  0
 22 23  1  0
 23 24  2  0
 23 25  1  0
 25 26  1  0
 26 27  2  0
 26 28  1  0
 28 29  1  0
 29 30  2  0
 29 31  1  0
 31 32  1  0
 32 33  1  0
 33 34  1  0
 34 35  1  0
 35 36  1  0
 34 37  1  0
 37 38  1  0
 38 39  1  0
 39 40  1  0
 38 41  1  0
 37 42  1  0
 29 43  1  0
 26 44  1  0
 23 45  1  0
 20 46  1  0
 10  4  2  0
 15 11  1  0
 39 32  1  0
  1 47  1  0
  1 48  1  0
  1 49  1  0
  3 50  1  0
  5 51  1  0
  6 52  1  0
 11 53  1  6
 13 54  1  6
 14 55  1  1
 15 56  1  1
 16 57  1  0
 17 58  1  0
 18 59  1  0
 18 60  1  0
 32 61  1  1
 34 62  1  6
 35 63  1  0
 35 64  1  0
 36 65  1  0
 37 66  1  1
 38 67  1  6
 39 68  1  1
 40 69  1  0
 42 70  1  0
 43 71  1  0
 44 72  1  0
 45 73  1  0
 46 74  1  0
M  END
>  <Ligand ID>  (1) 
LIG0004909

>  <Ligand>  (1) 
CHEMBL1784292

>  <SMILES>  (1) 
CONc1ccn(c(=O)n1)[C@@H]1O[C@@H]([C@H]([C@H]1O)O)COP(=O)(OP(=O)(OP(=O)(OP(=O)(O[C@H]1O[C@H](CO)[C@H]([C@@H]([C@H]1O)F)O)O)O)O)O

>  <CID>  (1) 
53309529.0

>  <ChEMBL ID>  (1) 
nan

>  <InChiKey>  (1) 
URJOBJGVBHZRMG-YIPCRTQPSA-N

>  <InChi>  (1) 
InChI=1S/C16H28FN3O22P4/c1-35-19-8-2-3-20(16(26)18-8)14-13(25)11(23)7(37-14)5-36-43(27,28)40-45(31,32)42-46(33,34)41-44(29,30)39-15-12(24)9(17)10(22)6(4-21)38-15/h2-3,6-7,9-15,21-25H,4-5H2,1H3,(H,27,28)(H,29,30)(H,31,32)(H,33,34)(H,18,19,26)/t6-,7-,9+,10-,11-,12-,13-,14-,15-/m1/s1

>  <IUPAC Name>  (1) 
[[(2R,3S,4R,5R)-3,4-dihydroxy-5-[4-(methoxyamino)-2-oxopyrimidin-1-yl]oxolan-2-yl]methoxy-hydroxyphosphoryl] [[[(2R,3S,4S,5R,6R)-4-fluoro-3,5-dihydroxy-6-(hydroxymethyl)oxan-2-yl]oxy-hydroxyphosphoryl]oxy-hydroxyphosphoryl] hydrogen phosphate

$$$$
