
     RDKit          3D

 20 20  0  0  0  0  0  0  0  0999 V2000
    3.6630    0.2961   -0.5191 O   0  0  0  0  0  0  0  0  0  0  0  0
    2.8458    0.5293    0.5825 C   0  0  0  0  0  0  0  0  0  0  0  0
    1.4406    0.1526    0.3477 C   0  0  0  0  0  0  0  0  0  0  0  0
    0.5833    1.1172   -0.1698 C   0  0  0  0  0  0  0  0  0  0  0  0
   -0.7279    0.7428   -0.3817 C   0  0  0  0  0  0  0  0  0  0  0  0
   -1.2103   -0.5173   -0.1080 C   0  0  0  0  0  0  0  0  0  0  0  0
   -0.3194   -1.4455    0.4065 C   0  0  0  0  0  0  0  0  0  0  0  0
    1.0176   -1.1200    0.6402 C   0  0  0  0  0  0  0  0  0  0  0  0
   -2.5087   -0.9186   -0.3082 O   0  0  0  0  0  0  0  0  0  0  0  0
   -3.4751   -0.0232   -0.8314 C   0  0  0  0  0  0  0  0  0  0  0  0
    3.1989   -0.1993   -1.2342 H   0  0  0  0  0  0  0  0  0  0  0  0
    3.2268   -0.1019    1.4129 H   0  0  0  0  0  0  0  0  0  0  0  0
    2.9335    1.5976    0.9179 H   0  0  0  0  0  0  0  0  0  0  0  0
    0.9534    2.1202   -0.3911 H   0  0  0  0  0  0  0  0  0  0  0  0
   -1.4118    1.4827   -0.7852 H   0  0  0  0  0  0  0  0  0  0  0  0
   -0.6417   -2.4630    0.6444 H   0  0  0  0  0  0  0  0  0  0  0  0
    1.7000   -1.8508    1.0405 H   0  0  0  0  0  0  0  0  0  0  0  0
   -3.6895    0.7282   -0.0524 H   0  0  0  0  0  0  0  0  0  0  0  0
   -3.1357    0.4582   -1.7764 H   0  0  0  0  0  0  0  0  0  0  0  0
   -4.4430   -0.5852   -0.9736 H   0  0  0  0  0  0  0  0  0  0  0  0
  1  2  1  0
  2  3  1  0
  3  4  2  0
  4  5  1  0
  5  6  2  0
  6  7  1  0
  7  8  2  0
  6  9  1  0
  9 10  1  0
  8  3  1  0
  1 11  1  0
  2 12  1  0
  2 13  1  0
  4 14  1  0
  5 15  1  0
  7 16  1  0
  8 17  1  0
 10 18  1  0
 10 19  1  0
 10 20  1  0
M  END
>  <Ligand ID>  (1) 
LIG0000570

>  <Ligand>  (1) 
Anise alcohol

>  <SMILES>  (1) 
OCc1ccc(cc1)OC

>  <CID>  (1) 
7738.0

>  <ChEMBL ID>  (1) 
nan

>  <InChiKey>  (1) 
MSHFRERJPWKJFX-UHFFFAOYSA-N

>  <InChi>  (1) 
InChI=1S/C8H10O2/c1-10-8-4-2-7(6-9)3-5-8/h2-5,9H,6H2,1H3

>  <IUPAC Name>  (1) 
(4-methoxyphenyl)methanol

$$$$
