
     RDKit          3D

 36 37  0  0  0  0  0  0  0  0999 V2000
   -3.6678   -2.6440   -0.3056 C   0  0  0  0  0  0  0  0  0  0  0  0
   -3.1547   -1.4864    0.4937 N   0  0  0  0  0  0  0  0  0  0  0  0
   -2.1601   -0.7457   -0.1793 C   0  0  0  0  0  0  0  0  0  0  0  0
   -1.8970   -1.2609   -1.3438 O   0  0  0  0  0  0  0  0  0  0  0  0
   -1.4651    0.4327    0.2759 C   0  0  0  0  0  0  0  0  0  0  0  0
   -1.9369    1.1909    1.3231 C   0  0  0  0  0  0  0  0  0  0  0  0
   -1.3229    2.3724    1.7538 C   0  0  0  0  0  0  0  0  0  0  0  0
   -0.1954    2.8327    1.1291 C   0  0  0  0  0  0  0  0  0  0  0  0
    0.2907    2.0881    0.0798 C   0  0  0  0  0  0  0  0  0  0  0  0
   -0.3091    0.9077   -0.3604 C   0  0  0  0  0  0  0  0  0  0  0  0
    0.3113    0.2656   -1.4455 N   0  0  0  0  0  0  0  0  0  0  0  0
    1.5307    0.7463   -2.0983 C   0  0  0  0  0  0  0  0  0  0  0  0
    2.7654    0.3398   -1.3867 C   0  0  0  0  0  0  0  0  0  0  0  0
    3.6623   -0.4095   -1.9603 N   0  0  0  0  0  0  0  0  0  0  0  0
    4.7846   -0.6901   -1.0981 C   0  0  0  0  0  0  0  0  0  0  0  0
    4.2154   -0.4097    0.2791 C   0  0  0  0  0  0  0  0  0  0  0  0
    3.2289    0.6169   -0.0856 N   0  0  0  0  0  0  0  0  0  0  0  0
   -3.7103   -1.3310    1.7798 C   0  0  0  0  0  0  0  0  0  0  0  0
   -3.5063   -2.4889   -1.3729 H   0  0  0  0  0  0  0  0  0  0  0  0
   -4.7757   -2.6136   -0.1311 H   0  0  0  0  0  0  0  0  0  0  0  0
   -3.2583   -3.5626    0.1201 H   0  0  0  0  0  0  0  0  0  0  0  0
   -2.8263    0.9464    1.8851 H   0  0  0  0  0  0  0  0  0  0  0  0
   -1.7120    2.9525    2.5813 H   0  0  0  0  0  0  0  0  0  0  0  0
    0.2646    3.7445    1.4731 H   0  0  0  0  0  0  0  0  0  0  0  0
    1.1828    2.4919   -0.4000 H   0  0  0  0  0  0  0  0  0  0  0  0
   -0.0423   -0.6403   -1.8823 H   0  0  0  0  0  0  0  0  0  0  0  0
    1.5381    0.3048   -3.1268 H   0  0  0  0  0  0  0  0  0  0  0  0
    1.5318    1.8551   -2.2288 H   0  0  0  0  0  0  0  0  0  0  0  0
    5.1412   -1.7366   -1.1674 H   0  0  0  0  0  0  0  0  0  0  0  0
    5.6655   -0.0434   -1.2997 H   0  0  0  0  0  0  0  0  0  0  0  0
    3.6395   -1.2738    0.6546 H   0  0  0  0  0  0  0  0  0  0  0  0
    4.9515   -0.0389    0.9915 H   0  0  0  0  0  0  0  0  0  0  0  0
    2.9836    1.3769    0.5641 H   0  0  0  0  0  0  0  0  0  0  0  0
   -4.2326   -2.3008    2.0572 H   0  0  0  0  0  0  0  0  0  0  0  0
   -2.9938   -1.1950    2.6204 H   0  0  0  0  0  0  0  0  0  0  0  0
   -4.5214   -0.5937    1.8109 H   0  0  0  0  0  0  0  0  0  0  0  0
  1  2  1  0
  2  3  1  0
  3  4  2  0
  3  5  1  0
  5  6  2  0
  6  7  1  0
  7  8  2  0
  8  9  1  0
  9 10  2  0
 10 11  1  0
 11 12  1  0
 12 13  1  0
 13 14  2  0
 14 15  1  0
 15 16  1  0
 16 17  1  0
  2 18  1  0
 10  5  1  0
 17 13  1  0
  1 19  1  0
  1 20  1  0
  1 21  1  0
  6 22  1  0
  7 23  1  0
  8 24  1  0
  9 25  1  0
 11 26  1  0
 12 27  1  0
 12 28  1  0
 15 29  1  0
 15 30  1  0
 16 31  1  0
 16 32  1  0
 17 33  1  0
 18 34  1  0
 18 35  1  0
 18 36  1  0
M  END
>  <Ligand ID>  (1) 
LIG0004507

>  <Ligand>  (1) 
CHEMBL100198

>  <SMILES>  (1) 
CN(C(=O)c1ccccc1NCC1=NCCN1)C

>  <CID>  (1) 
22493320.0

>  <ChEMBL ID>  (1) 
nan

>  <InChiKey>  (1) 
IPEWCJVARRJXDP-UHFFFAOYSA-N

>  <InChi>  (1) 
InChI=1S/C13H18N4O/c1-17(2)13(18)10-5-3-4-6-11(10)16-9-12-14-7-8-15-12/h3-6,16H,7-9H2,1-2H3,(H,14,15)

>  <IUPAC Name>  (1) 
2-(4,5-dihydro-1H-imidazol-2-ylmethylamino)-N,N-dimethylbenzamide

$$$$
