
     RDKit          3D

 30 31  0  0  0  0  0  0  0  0999 V2000
   -0.7181   -0.3817   -1.6613 C   0  0  0  0  0  0  0  0  0  0  0  0
   -1.2269    0.0113   -0.3324 C   0  0  0  0  0  0  0  0  0  0  0  0
   -0.4034    0.5694    0.5927 C   0  0  0  0  0  0  0  0  0  0  0  0
    1.0256    0.8194    0.4756 C   0  0  1  0  0  0  0  0  0  0  0  0
    1.8520   -0.1867    1.3485 C   0  0  0  0  0  0  0  0  0  0  0  0
    2.0318   -0.0304   -0.1476 C   0  0  2  0  0  0  0  0  0  0  0  0
    3.3719    0.5899   -0.4986 C   0  0  0  0  0  0  0  0  0  0  0  0
    4.1862   -0.4494   -1.0965 N   0  0  0  0  0  0  0  0  0  0  0  0
   -1.0019    0.9272    1.8160 C   0  0  0  0  0  0  0  0  0  0  0  0
   -2.3412    0.7214    2.0567 C   0  0  0  0  0  0  0  0  0  0  0  0
   -3.1457    0.1594    1.1132 C   0  0  0  0  0  0  0  0  0  0  0  0
   -2.5757   -0.1966   -0.0907 C   0  0  0  0  0  0  0  0  0  0  0  0
   -3.4373   -0.8119   -1.1343 C   0  0  0  0  0  0  0  0  0  0  0  0
   -1.5616   -0.4085   -2.4082 H   0  0  0  0  0  0  0  0  0  0  0  0
   -0.3762   -1.4319   -1.5988 H   0  0  0  0  0  0  0  0  0  0  0  0
    0.0954    0.2563   -2.0168 H   0  0  0  0  0  0  0  0  0  0  0  0
    1.3192    1.8971    0.6510 H   0  0  0  0  0  0  0  0  0  0  0  0
    2.5748    0.2733    2.0492 H   0  0  0  0  0  0  0  0  0  0  0  0
    1.3680   -1.1251    1.6344 H   0  0  0  0  0  0  0  0  0  0  0  0
    1.7606   -0.8541   -0.8032 H   0  0  0  0  0  0  0  0  0  0  0  0
    3.2399    1.3852   -1.2727 H   0  0  0  0  0  0  0  0  0  0  0  0
    3.9221    0.9691    0.3857 H   0  0  0  0  0  0  0  0  0  0  0  0
    3.6190   -1.2705   -1.4024 H   0  0  0  0  0  0  0  0  0  0  0  0
    4.8760   -0.8452   -0.4075 H   0  0  0  0  0  0  0  0  0  0  0  0
   -0.4080    1.3803    2.6073 H   0  0  0  0  0  0  0  0  0  0  0  0
   -2.7810    1.0038    3.0041 H   0  0  0  0  0  0  0  0  0  0  0  0
   -4.1836    0.0058    1.3152 H   0  0  0  0  0  0  0  0  0  0  0  0
   -2.9535   -1.6816   -1.6332 H   0  0  0  0  0  0  0  0  0  0  0  0
   -4.3448   -1.2286   -0.6534 H   0  0  0  0  0  0  0  0  0  0  0  0
   -3.7836   -0.0666   -1.8918 H   0  0  0  0  0  0  0  0  0  0  0  0
  1  2  1  0
  2  3  2  0
  3  4  1  0
  4  5  1  0
  5  6  1  0
  6  7  1  0
  7  8  1  0
  3  9  1  0
  9 10  2  0
 10 11  1  0
 11 12  2  0
 12 13  1  0
 12  2  1  0
  6  4  1  0
  1 14  1  0
  1 15  1  0
  1 16  1  0
  4 17  1  1
  5 18  1  0
  5 19  1  0
  6 20  1  6
  7 21  1  0
  7 22  1  0
  8 23  1  0
  8 24  1  0
  9 25  1  0
 10 26  1  0
 11 27  1  0
 13 28  1  0
 13 29  1  0
 13 30  1  0
M  END
>  <Ligand ID>  (1) 
LIG0003850

>  <Ligand>  (1) 
CHEMBL475642

>  <SMILES>  (1) 
Cc1c([C@H]2C[C@@H]2CN)cccc1C

>  <CID>  (1) 
44572178.0

>  <ChEMBL ID>  (1) 
nan

>  <InChiKey>  (1) 
AYMXOPKHKRKGEC-PWSUYJOCSA-N

>  <InChi>  (1) 
InChI=1S/C12H17N/c1-8-4-3-5-11(9(8)2)12-6-10(12)7-13/h3-5,10,12H,6-7,13H2,1-2H3/t10-,12+/m1/s1

>  <IUPAC Name>  (1) 
[(1S,2S)-2-(2,3-dimethylphenyl)cyclopropyl]methanamine

$$$$
