
     RDKit          3D

 70 74  0  0  0  0  0  0  0  0999 V2000
    2.3263    2.9263    2.1524 C   0  0  0  0  0  0  0  0  0  0  0  0
    1.1739    2.1072    2.2166 O   0  0  0  0  0  0  0  0  0  0  0  0
    1.2145    0.8269    1.6851 C   0  0  0  0  0  0  0  0  0  0  0  0
    2.3381    0.2909    1.0826 C   0  0  0  0  0  0  0  0  0  0  0  0
    2.3710   -0.9773    0.5585 C   0  0  0  0  0  0  0  0  0  0  0  0
    1.1974   -1.7215    0.6605 C   0  0  0  0  0  0  0  0  0  0  0  0
    0.0569   -1.2234    1.2533 C   0  0  0  0  0  0  0  0  0  0  0  0
    0.0551    0.0543    1.7705 C   0  0  0  0  0  0  0  0  0  0  0  0
   -1.1542    0.6127    2.4110 C   0  0  0  0  0  0  0  0  0  0  0  0
   -1.3475    0.4581    3.6453 O   0  0  0  0  0  0  0  0  0  0  0  0
   -2.0824    1.3264    1.5799 N   0  0  0  0  0  0  0  0  0  0  0  0
   -1.8302    1.4908    0.1552 C   0  0  0  0  0  0  0  0  0  0  0  0
   -3.0043    1.2051   -0.7133 C   0  0  0  0  0  0  0  0  0  0  0  0
   -4.2315    0.9610    0.1764 C   0  0  0  0  0  0  0  0  0  0  0  0
   -4.2682    2.1525    1.1116 C   0  0  0  0  0  0  0  0  0  0  0  0
   -3.2682    1.8703    2.2123 C   0  0  0  0  0  0  0  0  0  0  0  0
   -5.4574    0.9574   -0.5680 N   0  0  0  0  0  0  0  0  0  0  0  0
   -5.8555    2.0733   -1.3749 C   0  0  0  0  0  0  0  0  0  0  0  0
   -5.1359    3.1270   -1.4523 O   0  0  0  0  0  0  0  0  0  0  0  0
   -7.0209    2.0965   -2.1131 O   0  0  0  0  0  0  0  0  0  0  0  0
   -7.9207    1.0505   -2.1402 C   0  0  0  0  0  0  0  0  0  0  0  0
   -7.5117   -0.1064   -1.3116 C   0  0  0  0  0  0  0  0  0  0  0  0
   -6.3554   -0.1534   -0.5695 C   0  0  0  0  0  0  0  0  0  0  0  0
   -6.0964   -1.2874    0.1550 C   0  0  0  0  0  0  0  0  0  0  0  0
   -6.9780   -2.3649    0.1428 C   0  0  0  0  0  0  0  0  0  0  0  0
   -8.1432   -2.3397   -0.5940 C   0  0  0  0  0  0  0  0  0  0  0  0
   -8.3952   -1.1958   -1.3195 C   0  0  0  0  0  0  0  0  0  0  0  0
    3.4375   -1.5722   -0.0487 O   0  0  0  0  0  0  0  0  0  0  0  0
    4.7045   -1.0494   -0.2775 C   0  0  0  0  0  0  0  0  0  0  0  0
    5.7531   -1.8853    0.4060 C   0  0  0  0  0  0  0  0  0  0  0  0
    6.8714   -2.2800   -0.5177 C   0  0  0  0  0  0  0  0  0  0  0  0
    7.3458   -1.1098   -1.2278 N   0  0  0  0  0  0  0  0  0  0  0  0
    6.3299   -0.3093   -1.9295 C   0  0  0  0  0  0  0  0  0  0  0  0
    4.9773   -0.9855   -1.7838 C   0  0  0  0  0  0  0  0  0  0  0  0
    8.7016   -0.7113   -1.2788 C   0  0  0  0  0  0  0  0  0  0  0  0
    9.0329    0.3374   -1.9291 O   0  0  0  0  0  0  0  0  0  0  0  0
    9.7124   -1.5302   -0.5682 C   0  0  0  0  0  0  0  0  0  0  0  0
    3.0627    2.6724    2.9497 H   0  0  0  0  0  0  0  0  0  0  0  0
    2.8042    2.8951    1.1645 H   0  0  0  0  0  0  0  0  0  0  0  0
    2.0254    3.9890    2.3415 H   0  0  0  0  0  0  0  0  0  0  0  0
    3.2045    0.9005    1.0318 H   0  0  0  0  0  0  0  0  0  0  0  0
    1.1620   -2.7091    0.2736 H   0  0  0  0  0  0  0  0  0  0  0  0
   -0.8440   -1.8139    1.3234 H   0  0  0  0  0  0  0  0  0  0  0  0
   -1.5073    2.5428    0.0102 H   0  0  0  0  0  0  0  0  0  0  0  0
   -0.9575    0.8477   -0.1307 H   0  0  0  0  0  0  0  0  0  0  0  0
   -3.1643    2.0074   -1.4165 H   0  0  0  0  0  0  0  0  0  0  0  0
   -2.7963    0.2880   -1.3012 H   0  0  0  0  0  0  0  0  0  0  0  0
   -4.0245    0.0835    0.7878 H   0  0  0  0  0  0  0  0  0  0  0  0
   -3.9877    3.1028    0.6220 H   0  0  0  0  0  0  0  0  0  0  0  0
   -5.2783    2.1958    1.5718 H   0  0  0  0  0  0  0  0  0  0  0  0
   -3.0457    2.7949    2.7855 H   0  0  0  0  0  0  0  0  0  0  0  0
   -3.7043    1.0678    2.8746 H   0  0  0  0  0  0  0  0  0  0  0  0
   -8.9196    1.4025   -1.8065 H   0  0  0  0  0  0  0  0  0  0  0  0
   -7.9633    0.6551   -3.1918 H   0  0  0  0  0  0  0  0  0  0  0  0
   -5.2237   -1.4012    0.7541 H   0  0  0  0  0  0  0  0  0  0  0  0
   -6.7466   -3.2586    0.7313 H   0  0  0  0  0  0  0  0  0  0  0  0
   -8.8043   -3.1939   -0.5804 H   0  0  0  0  0  0  0  0  0  0  0  0
   -9.3116   -1.1681   -1.9024 H   0  0  0  0  0  0  0  0  0  0  0  0
    4.7463   -0.0156    0.1195 H   0  0  0  0  0  0  0  0  0  0  0  0
    6.1273   -1.3238    1.2808 H   0  0  0  0  0  0  0  0  0  0  0  0
    5.2640   -2.8507    0.7331 H   0  0  0  0  0  0  0  0  0  0  0  0
    6.5913   -3.0636   -1.2272 H   0  0  0  0  0  0  0  0  0  0  0  0
    7.6986   -2.6450    0.1363 H   0  0  0  0  0  0  0  0  0  0  0  0
    6.3326    0.7088   -1.5392 H   0  0  0  0  0  0  0  0  0  0  0  0
    6.5739   -0.2692   -3.0085 H   0  0  0  0  0  0  0  0  0  0  0  0
    5.0126   -2.0207   -2.1419 H   0  0  0  0  0  0  0  0  0  0  0  0
    4.2037   -0.3650   -2.2445 H   0  0  0  0  0  0  0  0  0  0  0  0
   10.6820   -1.0185   -0.6536 H   0  0  0  0  0  0  0  0  0  0  0  0
    9.7835   -2.5567   -1.0025 H   0  0  0  0  0  0  0  0  0  0  0  0
    9.4611   -1.6024    0.5043 H   0  0  0  0  0  0  0  0  0  0  0  0
  1  2  1  0
  2  3  1  0
  3  4  2  0
  4  5  1  0
  5  6  2  0
  6  7  1  0
  7  8  2  0
  8  9  1  0
  9 10  2  0
  9 11  1  0
 11 12  1  0
 12 13  1  0
 13 14  1  0
 14 15  1  0
 15 16  1  0
 14 17  1  0
 17 18  1  0
 18 19  2  0
 18 20  1  0
 20 21  1  0
 21 22  1  0
 22 23  2  0
 23 24  1  0
 24 25  2  0
 25 26  1  0
 26 27  2  0
  5 28  1  0
 28 29  1  0
 29 30  1  0
 30 31  1  0
 31 32  1  0
 32 33  1  0
 33 34  1  0
 32 35  1  0
 35 36  2  0
 35 37  1  0
  8  3  1  0
 16 11  1  0
 23 17  1  0
 34 29  1  0
 27 22  1  0
  1 38  1  0
  1 39  1  0
  1 40  1  0
  4 41  1  0
  6 42  1  0
  7 43  1  0
 12 44  1  0
 12 45  1  0
 13 46  1  0
 13 47  1  0
 14 48  1  0
 15 49  1  0
 15 50  1  0
 16 51  1  0
 16 52  1  0
 21 53  1  0
 21 54  1  0
 24 55  1  0
 25 56  1  0
 26 57  1  0
 27 58  1  0
 29 59  1  0
 30 60  1  0
 30 61  1  0
 31 62  1  0
 31 63  1  0
 33 64  1  0
 33 65  1  0
 34 66  1  0
 34 67  1  0
 37 68  1  0
 37 69  1  0
 37 70  1  0
M  END
>  <Ligand ID>  (1) 
LIG0003323

>  <Ligand>  (1) 
CHEMBL24781

>  <SMILES>  (1) 
COc1cc(ccc1C(=O)N1CCC(CC1)N1C(=O)OCc2c1cccc2)OC1CCN(CC1)C(=O)C

>  <CID>  (1) 
6918320.0

>  <ChEMBL ID>  (1) 
nan

>  <InChiKey>  (1) 
WDERJSQJYIJOPD-UHFFFAOYSA-N

>  <InChi>  (1) 
InChI=1S/C28H33N3O6/c1-19(32)29-15-11-22(12-16-29)37-23-7-8-24(26(17-23)35-2)27(33)30-13-9-21(10-14-30)31-25-6-4-3-5-20(25)18-36-28(31)34/h3-8,17,21-22H,9-16,18H2,1-2H3

>  <IUPAC Name>  (1) 
1-[1-[4-(1-acetylpiperidin-4-yl)oxy-2-methoxybenzoyl]piperidin-4-yl]-4H-3,1-benzoxazin-2-one

$$$$
