
     RDKit          3D

 22 24  0  0  0  0  0  0  0  0999 V2000
    2.9196    1.3007   -0.3350 C   0  0  0  0  0  0  0  0  0  0  0  0
    3.4648    0.0329   -0.3456 C   0  0  0  0  0  0  0  0  0  0  0  0
    2.6209   -1.0740   -0.2236 C   0  0  0  0  0  0  0  0  0  0  0  0
    1.2675   -0.8306   -0.0974 C   0  0  0  0  0  0  0  0  0  0  0  0
    0.7361    0.4314   -0.0880 C   0  0  0  0  0  0  0  0  0  0  0  0
    1.5910    1.4802   -0.2091 N   0  0  0  0  0  0  0  0  0  0  0  0
   -0.6431    0.6419    0.0419 C   0  0  0  0  0  0  0  0  0  0  0  0
   -1.1422    1.8788    0.0489 N   0  0  0  0  0  0  0  0  0  0  0  0
   -2.4662    2.0551    0.1745 C   0  0  0  0  0  0  0  0  0  0  0  0
   -3.3320    1.0012    0.2968 C   0  0  0  0  0  0  0  0  0  0  0  0
   -2.8142   -0.2751    0.2892 C   0  0  0  0  0  0  0  0  0  0  0  0
   -1.4450   -0.4505    0.1592 C   0  0  0  0  0  0  0  0  0  0  0  0
   -0.9239   -1.7160    0.1509 C   0  0  0  0  0  0  0  0  0  0  0  0
    0.4345   -1.9378    0.0235 C   0  0  0  0  0  0  0  0  0  0  0  0
    3.6154    2.1218   -0.4324 H   0  0  0  0  0  0  0  0  0  0  0  0
    4.5354   -0.1426   -0.4460 H   0  0  0  0  0  0  0  0  0  0  0  0
    3.0304   -2.0888   -0.2294 H   0  0  0  0  0  0  0  0  0  0  0  0
   -2.8388    3.0545    0.1771 H   0  0  0  0  0  0  0  0  0  0  0  0
   -4.3997    1.1406    0.3981 H   0  0  0  0  0  0  0  0  0  0  0  0
   -3.4770   -1.1380    0.3848 H   0  0  0  0  0  0  0  0  0  0  0  0
   -1.5948   -2.5396    0.2459 H   0  0  0  0  0  0  0  0  0  0  0  0
    0.8613   -2.9461    0.0158 H   0  0  0  0  0  0  0  0  0  0  0  0
  1  2  2  0
  2  3  1  0
  3  4  2  0
  4  5  1  0
  5  6  2  0
  5  7  1  0
  7  8  2  0
  8  9  1  0
  9 10  2  0
 10 11  1  0
 11 12  2  0
 12 13  1  0
 13 14  2  0
  6  1  1  0
 12  7  1  0
 14  4  1  0
  1 15  1  0
  2 16  1  0
  3 17  1  0
  9 18  1  0
 10 19  1  0
 11 20  1  0
 13 21  1  0
 14 22  1  0
M  END
>  <Ligand ID>  (1) 
LIG0002037

>  <Ligand>  (1) 
1,10-Phenanthroline

>  <SMILES>  (1) 
c1ccc2c(n1)c1ncccc1cc2

>  <CID>  (1) 
1318.0

>  <ChEMBL ID>  (1) 
nan

>  <InChiKey>  (1) 
DGEZNRSVGBDHLK-UHFFFAOYSA-N

>  <InChi>  (1) 
InChI=1S/C12H8N2/c1-3-9-5-6-10-4-2-8-14-12(10)11(9)13-7-1/h1-8H

>  <IUPAC Name>  (1) 
1,10-phenanthroline

$$$$
