
     RDKit          3D

 45 45  0  0  0  0  0  0  0  0999 V2000
    3.1033    3.9926   -0.6156 C   0  0  0  0  0  0  0  0  0  0  0  0
    3.7464    2.7843   -0.2545 O   0  0  0  0  0  0  0  0  0  0  0  0
    3.0850    1.5839   -0.2750 C   0  0  0  0  0  0  0  0  0  0  0  0
    1.7578    1.5346   -0.6549 C   0  0  0  0  0  0  0  0  0  0  0  0
    1.0401    0.3437   -0.6932 C   0  0  0  0  0  0  0  0  0  0  0  0
    1.6950   -0.8035   -0.3376 C   0  0  0  0  0  0  0  0  0  0  0  0
    3.0205   -0.7429    0.0401 C   0  0  0  0  0  0  0  0  0  0  0  0
    3.7461    0.4266    0.0840 C   0  0  0  0  0  0  0  0  0  0  0  0
    5.0609    0.5263    0.4539 O   0  0  0  0  0  0  0  0  0  0  0  0
    5.9222   -0.4840    0.8592 C   0  0  0  0  0  0  0  0  0  0  0  0
    5.4472   -1.1678    2.0869 C   0  0  0  0  0  0  0  0  0  0  0  0
    6.1226   -2.1343    2.5665 O   0  0  0  0  0  0  0  0  0  0  0  0
    4.2971   -0.8275    2.7700 O   0  0  0  0  0  0  0  0  0  0  0  0
   -0.3818    0.3035   -1.1019 C   0  0  0  0  0  0  0  0  0  0  0  0
   -1.4944    0.1234    0.3127 P   0  0  0  0  0  0  0  0  0  0  0  0
   -1.5624    1.4147    1.0768 O   0  0  0  0  0  0  0  0  0  0  0  0
   -3.1324   -0.3204   -0.3257 C   0  0  0  0  0  0  0  0  0  0  0  0
   -3.9265   -1.0696    0.7352 C   0  0  0  0  0  0  0  0  0  0  0  0
   -5.3060   -1.4497    0.2142 C   0  0  1  0  0  0  0  0  0  0  0  0
   -6.0154   -0.2048   -0.1464 C   0  0  0  0  0  0  0  0  0  0  0  0
   -6.5168   -0.0215   -1.2827 O   0  0  0  0  0  0  0  0  0  0  0  0
   -6.1332    0.7889    0.7895 O   0  0  0  0  0  0  0  0  0  0  0  0
   -5.2689   -2.3861   -0.8701 N   0  0  0  0  0  0  0  0  0  0  0  0
   -1.0102   -1.1239    1.3364 O   0  0  0  0  0  0  0  0  0  0  0  0
   -0.6321   -0.7434   -1.9887 O   0  0  0  0  0  0  0  0  0  0  0  0
    2.0901    4.0911   -0.2008 H   0  0  0  0  0  0  0  0  0  0  0  0
    3.6800    4.8775   -0.2536 H   0  0  0  0  0  0  0  0  0  0  0  0
    3.0605    4.0278   -1.7270 H   0  0  0  0  0  0  0  0  0  0  0  0
    1.1912    2.4191   -0.9472 H   0  0  0  0  0  0  0  0  0  0  0  0
    1.1850   -1.7444   -0.3513 H   0  0  0  0  0  0  0  0  0  0  0  0
    3.4969   -1.6744    0.3078 H   0  0  0  0  0  0  0  0  0  0  0  0
    6.9031   -0.0063    1.1082 H   0  0  0  0  0  0  0  0  0  0  0  0
    6.1421   -1.2334    0.0698 H   0  0  0  0  0  0  0  0  0  0  0  0
    3.7253   -1.4854    3.2789 H   0  0  0  0  0  0  0  0  0  0  0  0
   -0.6209    1.2804   -1.5769 H   0  0  0  0  0  0  0  0  0  0  0  0
   -3.0572   -1.0261   -1.1861 H   0  0  0  0  0  0  0  0  0  0  0  0
   -3.7009    0.5545   -0.6719 H   0  0  0  0  0  0  0  0  0  0  0  0
   -3.4161   -2.0045    1.0204 H   0  0  0  0  0  0  0  0  0  0  0  0
   -4.0680   -0.4661    1.6349 H   0  0  0  0  0  0  0  0  0  0  0  0
   -5.8381   -1.9335    1.0527 H   0  0  0  0  0  0  0  0  0  0  0  0
   -6.5252    1.7085    0.6150 H   0  0  0  0  0  0  0  0  0  0  0  0
   -4.9706   -1.9376   -1.7594 H   0  0  0  0  0  0  0  0  0  0  0  0
   -4.6682   -3.1853   -0.5839 H   0  0  0  0  0  0  0  0  0  0  0  0
   -1.1433   -2.0098    0.9530 H   0  0  0  0  0  0  0  0  0  0  0  0
   -0.1296   -0.5954   -2.8160 H   0  0  0  0  0  0  0  0  0  0  0  0
  1  2  1  0
  2  3  1  0
  3  4  2  0
  4  5  1  0
  5  6  2  0
  6  7  1  0
  7  8  2  0
  8  9  1  0
  9 10  1  0
 10 11  1  0
 11 12  2  0
 11 13  1  0
  5 14  1  0
 14 15  1  0
 15 16  2  0
 15 17  1  0
 17 18  1  0
 18 19  1  0
 19 20  1  0
 20 21  2  0
 20 22  1  0
 19 23  1  0
 15 24  1  0
 14 25  1  0
  8  3  1  0
  1 26  1  0
  1 27  1  0
  1 28  1  0
  4 29  1  0
  6 30  1  0
  7 31  1  0
 10 32  1  0
 10 33  1  0
 13 34  1  0
 14 35  1  0
 17 36  1  0
 17 37  1  0
 18 38  1  0
 18 39  1  0
 19 40  1  1
 22 41  1  0
 23 42  1  0
 23 43  1  0
 24 44  1  0
 25 45  1  0
M  END
>  <Ligand ID>  (1) 
LIG0002001

>  <Ligand>  (1) 
CHEMBL3935255

>  <SMILES>  (1) 
COc1cc(ccc1OCC(=O)O)C(P(=O)(CC[C@@H](C(=O)O)N)O)O

>  <CID>  (1) 
71014590.0

>  <ChEMBL ID>  (1) 
nan

>  <InChiKey>  (1) 
LNLCIHWIBXKXQU-CUVJYRNJSA-N

>  <InChi>  (1) 
InChI=1S/C14H20NO9P/c1-23-11-6-8(2-3-10(11)24-7-12(16)17)14(20)25(21,22)5-4-9(15)13(18)19/h2-3,6,9,14,20H,4-5,7,15H2,1H3,(H,16,17)(H,18,19)(H,21,22)/t9-,14?/m0/s1

>  <IUPAC Name>  (1) 
(2S)-2-amino-4-[[[4-(carboxymethoxy)-3-methoxyphenyl]-hydroxymethyl]-hydroxyphosphoryl]butanoic acid

$$$$
