
     RDKit          3D

 33 34  0  0  0  0  0  0  0  0999 V2000
   -0.4956   -3.2141    1.1429 C   0  0  0  0  0  0  0  0  0  0  0  0
   -0.9568   -2.5389   -0.1323 C   0  0  0  0  0  0  0  0  0  0  0  0
   -0.3882   -1.1390   -0.1642 N   0  0  0  0  0  0  0  0  0  0  0  0
   -1.3144   -0.0762   -0.0450 C   0  0  0  0  0  0  0  0  0  0  0  0
   -2.6960   -0.3359   -0.0593 C   0  0  0  0  0  0  0  0  0  0  0  0
   -3.6317    0.6814    0.0991 C   0  0  0  0  0  0  0  0  0  0  0  0
   -3.2614    1.9840    0.2765 C   0  0  0  0  0  0  0  0  0  0  0  0
   -1.9283    2.2662    0.2949 C   0  0  0  0  0  0  0  0  0  0  0  0
   -0.9920    1.2405    0.1357 C   0  0  0  0  0  0  0  0  0  0  0  0
    0.9990   -1.1632   -0.3292 C   0  0  0  0  0  0  0  0  0  0  0  0
    1.9561   -0.1234   -0.5232 C   0  0  1  0  0  0  0  0  0  0  0  0
    1.9188    0.7964   -1.6741 C   0  0  0  0  0  0  0  0  0  0  0  0
    2.8528    1.7992   -1.2434 O   0  0  0  0  0  0  0  0  0  0  0  0
    2.9060    1.7515    0.1434 C   0  0  0  0  0  0  0  0  0  0  0  0
    2.4022    0.6667    0.5988 N   0  0  0  0  0  0  0  0  0  0  0  0
    3.4799    2.8429    0.8975 N   0  0  0  0  0  0  0  0  0  0  0  0
   -1.3595   -3.7094    1.6359 H   0  0  0  0  0  0  0  0  0  0  0  0
   -0.1164   -2.4679    1.8829 H   0  0  0  0  0  0  0  0  0  0  0  0
    0.2584   -4.0013    0.9506 H   0  0  0  0  0  0  0  0  0  0  0  0
   -0.4845   -3.1135   -0.9708 H   0  0  0  0  0  0  0  0  0  0  0  0
   -2.0072   -2.6068   -0.2190 H   0  0  0  0  0  0  0  0  0  0  0  0
   -3.1162   -1.3072   -0.1997 H   0  0  0  0  0  0  0  0  0  0  0  0
   -4.6945    0.4673    0.0860 H   0  0  0  0  0  0  0  0  0  0  0  0
   -3.9841    2.7726    0.3990 H   0  0  0  0  0  0  0  0  0  0  0  0
   -1.6278    3.2971    0.4357 H   0  0  0  0  0  0  0  0  0  0  0  0
    0.0177    1.5577    0.1846 H   0  0  0  0  0  0  0  0  0  0  0  0
    1.3880   -1.8203    0.5467 H   0  0  0  0  0  0  0  0  0  0  0  0
    1.1728   -1.9208   -1.2087 H   0  0  0  0  0  0  0  0  0  0  0  0
    2.9716   -0.7221   -0.7373 H   0  0  0  0  0  0  0  0  0  0  0  0
    0.9987    1.3031   -1.9287 H   0  0  0  0  0  0  0  0  0  0  0  0
    2.4167    0.3648   -2.5953 H   0  0  0  0  0  0  0  0  0  0  0  0
    2.8299    3.6223    1.1411 H   0  0  0  0  0  0  0  0  0  0  0  0
    4.4859    2.8463    1.1790 H   0  0  0  0  0  0  0  0  0  0  0  0
  1  2  1  0
  2  3  1  0
  3  4  1  0
  4  5  2  0
  5  6  1  0
  6  7  2  0
  7  8  1  0
  8  9  2  0
  3 10  1  0
 10 11  1  0
 11 12  1  0
 12 13  1  0
 13 14  1  0
 14 15  2  0
 14 16  1  0
  9  4  1  0
 15 11  1  0
  1 17  1  0
  1 18  1  0
  1 19  1  0
  2 20  1  0
  2 21  1  0
  5 22  1  0
  6 23  1  0
  7 24  1  0
  8 25  1  0
  9 26  1  0
 10 27  1  0
 10 28  1  0
 11 29  1  6
 12 30  1  0
 12 31  1  0
 16 32  1  0
 16 33  1  0
M  END
>  <Ligand ID>  (1) 
LIG0004364

>  <Ligand>  (1) 
RO5166017

>  <SMILES>  (1) 
CCN(c1ccccc1)C[C@H]1COC(=N1)N

>  <CID>  (1) 
25016538.0

>  <ChEMBL ID>  (1) 
nan

>  <InChiKey>  (1) 
PPONHQQJLWPUPH-JTQLQIEISA-N

>  <InChi>  (1) 
InChI=1S/C12H17N3O/c1-2-15(11-6-4-3-5-7-11)8-10-9-16-12(13)14-10/h3-7,10H,2,8-9H2,1H3,(H2,13,14)/t10-/m0/s1

>  <IUPAC Name>  (1) 
(4S)-4-[(N-ethylanilino)methyl]-4,5-dihydro-1,3-oxazol-2-amine

$$$$
