
     RDKit          3D

 49 52  0  0  0  0  0  0  0  0999 V2000
   -3.7140   -3.4988   -1.4846 N   0  0  0  0  0  0  0  0  0  0  0  0
   -4.6203   -2.8482   -1.1598 C   0  0  0  0  0  0  0  0  0  0  0  0
   -5.7475   -2.0457   -0.7786 C   0  0  0  0  0  0  0  0  0  0  0  0
   -6.9736   -2.6379   -0.5934 C   0  0  0  0  0  0  0  0  0  0  0  0
   -8.0224   -1.8883   -0.2389 N   0  0  0  0  0  0  0  0  0  0  0  0
   -7.9435   -0.5619   -0.0495 C   0  0  0  0  0  0  0  0  0  0  0  0
   -6.7014    0.0448   -0.2360 C   0  0  0  0  0  0  0  0  0  0  0  0
   -5.5913   -0.6946   -0.6030 C   0  0  0  0  0  0  0  0  0  0  0  0
   -4.2929   -0.0268   -0.7918 C   0  0  0  0  0  0  0  0  0  0  0  0
   -3.4869   -0.3143    0.3501 O   0  0  0  0  0  0  0  0  0  0  0  0
   -2.1950    0.1771    0.4733 C   0  0  0  0  0  0  0  0  0  0  0  0
   -1.5869    0.9684   -0.4759 C   0  0  0  0  0  0  0  0  0  0  0  0
   -0.3320    1.4190   -0.3073 N   0  0  0  0  0  0  0  0  0  0  0  0
    0.3567    1.1124    0.7818 C   0  0  0  0  0  0  0  0  0  0  0  0
   -0.2426    0.3321    1.7178 N   0  0  0  0  0  0  0  0  0  0  0  0
   -1.4852   -0.1435    1.6039 C   0  0  0  0  0  0  0  0  0  0  0  0
    1.6890    1.5421    1.0506 N   0  0  0  0  0  0  0  0  0  0  0  0
    2.3901    1.1422    2.2756 C   0  0  0  0  0  0  0  0  0  0  0  0
    3.9038    1.1638    2.0396 C   0  0  0  0  0  0  0  0  0  0  0  0
    4.0986    0.7174    0.6732 N   0  0  0  0  0  0  0  0  0  0  0  0
    3.6541    1.6144   -0.3783 C   0  0  0  0  0  0  0  0  0  0  0  0
    2.4430    2.3915    0.1484 C   0  0  1  0  0  0  0  0  0  0  0  0
    1.6412    3.0303   -0.9237 C   0  0  0  0  0  0  0  0  0  0  0  0
    4.7004   -0.5446    0.4210 C   0  0  0  0  0  0  0  0  0  0  0  0
    5.0983   -1.3027    1.4526 N   0  0  0  0  0  0  0  0  0  0  0  0
    5.6794   -2.5208    1.2459 C   0  0  0  0  0  0  0  0  0  0  0  0
    5.8729   -3.0049   -0.0403 C   0  0  0  0  0  0  0  0  0  0  0  0
    5.4513   -2.1988   -1.0841 C   0  0  0  0  0  0  0  0  0  0  0  0
    4.8785   -0.9957   -0.8430 N   0  0  0  0  0  0  0  0  0  0  0  0
    6.4454   -4.2068   -0.2917 F   0  0  0  0  0  0  0  0  0  0  0  0
   -7.1149   -3.7100   -0.7284 H   0  0  0  0  0  0  0  0  0  0  0  0
   -8.8046    0.0433    0.2396 H   0  0  0  0  0  0  0  0  0  0  0  0
   -6.6287    1.1075   -0.0863 H   0  0  0  0  0  0  0  0  0  0  0  0
   -3.7726   -0.4493   -1.6707 H   0  0  0  0  0  0  0  0  0  0  0  0
   -4.4417    1.0830   -0.8997 H   0  0  0  0  0  0  0  0  0  0  0  0
   -2.1845    1.1997   -1.3575 H   0  0  0  0  0  0  0  0  0  0  0  0
   -1.8942   -0.7568    2.3886 H   0  0  0  0  0  0  0  0  0  0  0  0
    2.1350    1.7605    3.1422 H   0  0  0  0  0  0  0  0  0  0  0  0
    2.1395    0.0638    2.4621 H   0  0  0  0  0  0  0  0  0  0  0  0
    4.2573    2.2219    2.1267 H   0  0  0  0  0  0  0  0  0  0  0  0
    4.3855    0.5376    2.7884 H   0  0  0  0  0  0  0  0  0  0  0  0
    3.3254    1.0537   -1.2723 H   0  0  0  0  0  0  0  0  0  0  0  0
    4.4278    2.3369   -0.6423 H   0  0  0  0  0  0  0  0  0  0  0  0
    2.8944    3.1807    0.8026 H   0  0  0  0  0  0  0  0  0  0  0  0
    0.7518    3.5140   -0.4673 H   0  0  0  0  0  0  0  0  0  0  0  0
    1.3473    2.3782   -1.7424 H   0  0  0  0  0  0  0  0  0  0  0  0
    2.2207    3.8987   -1.3587 H   0  0  0  0  0  0  0  0  0  0  0  0
    6.0081   -3.1487    2.0600 H   0  0  0  0  0  0  0  0  0  0  0  0
    5.5813   -2.5357   -2.1114 H   0  0  0  0  0  0  0  0  0  0  0  0
  1  2  3  0
  2  3  1  0
  3  4  2  0
  4  5  1  0
  5  6  2  0
  6  7  1  0
  7  8  2  0
  8  9  1  0
  9 10  1  0
 10 11  1  0
 11 12  2  0
 12 13  1  0
 13 14  2  0
 14 15  1  0
 15 16  2  0
 14 17  1  0
 17 18  1  0
 18 19  1  0
 19 20  1  0
 20 21  1  0
 21 22  1  0
 22 23  1  0
 20 24  1  0
 24 25  2  0
 25 26  1  0
 26 27  2  0
 27 28  1  0
 28 29  2  0
 27 30  1  0
  8  3  1  0
 16 11  1  0
 22 17  1  0
 29 24  1  0
  4 31  1  0
  6 32  1  0
  7 33  1  0
  9 34  1  0
  9 35  1  0
 12 36  1  0
 16 37  1  0
 18 38  1  0
 18 39  1  0
 19 40  1  0
 19 41  1  0
 21 42  1  0
 21 43  1  0
 22 44  1  1
 23 45  1  0
 23 46  1  0
 23 47  1  0
 26 48  1  0
 28 49  1  0
M  END
>  <Ligand ID>  (1) 
LIG0005306

>  <Ligand>  (1) 
CHEMBL2086689

>  <SMILES>  (1) 
N#Cc1cnccc1COc1cnc(nc1)N1CCN(C[C@H]1C)c1ncc(cn1)F

>  <CID>  (1) 
51030056.0

>  <ChEMBL ID>  (1) 
nan

>  <InChiKey>  (1) 
AMHHRGZLTPMKNL-CQSZACIVSA-N

>  <InChi>  (1) 
InChI=1S/C20H19FN8O/c1-14-12-28(19-24-8-17(21)9-25-19)4-5-29(14)20-26-10-18(11-27-20)30-13-15-2-3-23-7-16(15)6-22/h2-3,7-11,14H,4-5,12-13H2,1H3/t14-/m1/s1

>  <IUPAC Name>  (1) 
4-[[2-[(2R)-4-(5-fluoropyrimidin-2-yl)-2-methylpiperazin-1-yl]pyrimidin-5-yl]oxymethyl]pyridine-3-carbonitrile

$$$$
