
     RDKit          3D

 51 55  0  0  0  0  0  0  0  0999 V2000
   -4.7641   -3.1840   -0.8851 C   0  0  0  0  0  0  0  0  0  0  0  0
   -5.3236   -2.1118   -0.2350 O   0  0  0  0  0  0  0  0  0  0  0  0
   -5.1189   -0.8844   -0.8257 C   0  0  0  0  0  0  0  0  0  0  0  0
   -3.6632   -0.5032   -0.9441 C   0  0  0  0  0  0  0  0  0  0  0  0
   -3.0799   -0.4719    0.4495 C   0  0  0  0  0  0  0  0  0  0  0  0
   -1.6734   -0.1067    0.3704 N   0  0  0  0  0  0  0  0  0  0  0  0
   -0.6034   -0.9584    0.2362 C   0  0  0  0  0  0  0  0  0  0  0  0
   -0.8186   -2.3487    0.1598 N   0  0  0  0  0  0  0  0  0  0  0  0
    0.5631   -0.2506    0.1972 C   0  0  0  0  0  0  0  0  0  0  0  0
    0.1501    1.0790    0.3145 C   0  0  0  0  0  0  0  0  0  0  0  0
   -1.2172    1.1360    0.4184 C   0  0  0  0  0  0  0  0  0  0  0  0
   -1.8606    2.3021    0.5420 N   0  0  0  0  0  0  0  0  0  0  0  0
   -1.1591    3.4439    0.5655 C   0  0  0  0  0  0  0  0  0  0  0  0
   -1.8623    4.6161    0.6939 C   0  0  0  0  0  0  0  0  0  0  0  0
   -1.1340    5.7885    0.7174 C   0  0  0  0  0  0  0  0  0  0  0  0
    0.2531    5.8062    0.6170 C   0  0  0  0  0  0  0  0  0  0  0  0
    0.9403    4.6063    0.4879 C   0  0  0  0  0  0  0  0  0  0  0  0
    0.2086    3.4266    0.4641 C   0  0  0  0  0  0  0  0  0  0  0  0
    0.8146    2.2469    0.3424 N   0  0  0  0  0  0  0  0  0  0  0  0
    1.9541   -0.6207    0.0729 C   0  0  0  0  0  0  0  0  0  0  0  0
    2.9504    0.2981    0.0585 N   0  0  0  0  0  0  0  0  0  0  0  0
    4.1433   -0.2732   -0.0634 C   0  0  0  0  0  0  0  0  0  0  0  0
    3.9250   -1.6214   -0.1320 C   0  0  0  0  0  0  0  0  0  0  0  0
    2.5803   -1.7917   -0.0455 N   0  0  0  0  0  0  0  0  0  0  0  0
    1.9890   -3.1109   -0.0837 C   0  0  0  0  0  0  0  0  0  0  0  0
    5.0156   -2.4438   -0.2622 C   0  0  0  0  0  0  0  0  0  0  0  0
    6.2963   -1.9345   -0.3229 C   0  0  0  0  0  0  0  0  0  0  0  0
    6.5228   -0.5752   -0.2542 C   0  0  0  0  0  0  0  0  0  0  0  0
    5.4150    0.2508   -0.1225 C   0  0  0  0  0  0  0  0  0  0  0  0
   -3.6633   -3.1414   -0.9814 H   0  0  0  0  0  0  0  0  0  0  0  0
   -5.2580   -3.2632   -1.8939 H   0  0  0  0  0  0  0  0  0  0  0  0
   -4.9888   -4.1550   -0.3995 H   0  0  0  0  0  0  0  0  0  0  0  0
   -5.6321   -0.8346   -1.8201 H   0  0  0  0  0  0  0  0  0  0  0  0
   -5.6161   -0.1321   -0.1480 H   0  0  0  0  0  0  0  0  0  0  0  0
   -3.5570    0.4844   -1.4475 H   0  0  0  0  0  0  0  0  0  0  0  0
   -3.1469   -1.2920   -1.5135 H   0  0  0  0  0  0  0  0  0  0  0  0
   -3.2221   -1.4225    0.9867 H   0  0  0  0  0  0  0  0  0  0  0  0
   -3.6235    0.2911    1.0689 H   0  0  0  0  0  0  0  0  0  0  0  0
   -0.9630   -2.8898   -0.7173 H   0  0  0  0  0  0  0  0  0  0  0  0
   -0.8335   -2.8688    1.0859 H   0  0  0  0  0  0  0  0  0  0  0  0
   -2.9279    4.6857    0.7765 H   0  0  0  0  0  0  0  0  0  0  0  0
   -1.5994    6.7688    0.8158 H   0  0  0  0  0  0  0  0  0  0  0  0
    0.8256    6.7312    0.6357 H   0  0  0  0  0  0  0  0  0  0  0  0
    2.0250    4.6152    0.4090 H   0  0  0  0  0  0  0  0  0  0  0  0
    2.8362   -3.8872   -0.1472 H   0  0  0  0  0  0  0  0  0  0  0  0
    1.3838   -3.2259   -0.9779 H   0  0  0  0  0  0  0  0  0  0  0  0
    1.4827   -3.3873    0.8358 H   0  0  0  0  0  0  0  0  0  0  0  0
    4.8508   -3.5069   -0.3169 H   0  0  0  0  0  0  0  0  0  0  0  0
    7.1714   -2.5675   -0.4257 H   0  0  0  0  0  0  0  0  0  0  0  0
    7.5189   -0.1404   -0.2989 H   0  0  0  0  0  0  0  0  0  0  0  0
    5.4939    1.3291   -0.0607 H   0  0  0  0  0  0  0  0  0  0  0  0
  1  2  1  0
  2  3  1  0
  3  4  1  0
  4  5  1  0
  5  6  1  0
  6  7  1  0
  7  8  1  0
  7  9  2  0
  9 10  1  0
 10 11  2  0
 11 12  1  0
 12 13  2  0
 13 14  1  0
 14 15  2  0
 15 16  1  0
 16 17  2  0
 17 18  1  0
 18 19  2  0
  9 20  1  0
 20 21  2  0
 21 22  1  0
 22 23  2  0
 23 24  1  0
 24 25  1  0
 23 26  1  0
 26 27  2  0
 27 28  1  0
 28 29  2  0
 11  6  1  0
 18 13  1  0
 24 20  1  0
 19 10  1  0
 29 22  1  0
  1 30  1  0
  1 31  1  0
  1 32  1  0
  3 33  1  0
  3 34  1  0
  4 35  1  0
  4 36  1  0
  5 37  1  0
  5 38  1  0
  8 39  1  0
  8 40  1  0
 14 41  1  0
 15 42  1  0
 16 43  1  0
 17 44  1  0
 25 45  1  0
 25 46  1  0
 25 47  1  0
 26 48  1  0
 27 49  1  0
 28 50  1  0
 29 51  1  0
M  END
>  <Ligand ID>  (1) 
LIG0004580

>  <Ligand>  (1) 
MLS000559003

>  <SMILES>  (1) 
COCCCn1c(N)c(c2c1nc1ccccc1n2)c1nc2c(n1C)cccc2

>  <CID>  (1) 
4889526.0

>  <ChEMBL ID>  (1) 
nan

>  <InChiKey>  (1) 
QXNGSBMMEOFHHP-UHFFFAOYSA-N

>  <InChi>  (1) 
InChI=1S/C22H22N6O/c1-27-17-11-6-5-10-16(17)26-21(27)18-19-22(28(20(18)23)12-7-13-29-2)25-15-9-4-3-8-14(15)24-19/h3-6,8-11H,7,12-13,23H2,1-2H3

>  <IUPAC Name>  (1) 
1-(3-methoxypropyl)-3-(1-methylbenzimidazol-2-yl)pyrrolo[3,2-b]quinoxalin-2-amine

$$$$
