
     RDKit          3D

 48 49  0  0  0  0  0  0  0  0999 V2000
   -6.9081    1.2755   -0.5705 C   0  0  0  0  0  0  0  0  0  0  0  0
   -6.2321    0.6620    0.6341 C   0  0  0  0  0  0  0  0  0  0  0  0
   -4.7269    0.5479    0.3991 C   0  0  0  0  0  0  0  0  0  0  0  0
   -4.4246   -0.3211   -0.7876 C   0  0  0  0  0  0  0  0  0  0  0  0
   -2.9822   -0.3941   -0.9735 N   0  0  0  0  0  0  0  0  0  0  0  0
   -2.3018   -1.0856    0.0298 C   0  0  0  0  0  0  0  0  0  0  0  0
   -0.8723   -1.4291   -0.0851 C   0  0  0  0  0  0  0  0  0  0  0  0
    0.0953   -0.2881   -0.2490 C   0  0  0  0  0  0  0  0  0  0  0  0
    1.4975   -0.7488   -0.2961 N   0  0  0  0  0  0  0  0  0  0  0  0
    2.1116   -1.4177    0.7946 C   0  0  0  0  0  0  0  0  0  0  0  0
    1.4230   -1.6190    1.8585 O   0  0  0  0  0  0  0  0  0  0  0  0
    3.4890   -1.9125    0.8246 C   0  0  0  0  0  0  0  0  0  0  0  0
    4.4345   -0.8547    1.2634 N   0  0  0  0  0  0  0  0  0  0  0  0
    4.6189   -0.7317    2.6175 C   0  0  0  0  0  0  0  0  0  0  0  0
    4.1009   -1.3663    3.5775 O   0  0  0  0  0  0  0  0  0  0  0  0
    5.8462    0.6237    2.8128 S   0  0  0  0  0  0  0  0  0  0  0  0
    5.9632    0.8641    1.0165 C   0  0  0  0  0  0  0  0  0  0  0  0
    5.1094   -0.0559    0.4902 C   0  0  0  0  0  0  0  0  0  0  0  0
    5.0649   -0.0293   -0.9348 C   0  0  0  0  0  0  0  0  0  0  0  0
    5.8330    0.8621   -1.6344 C   0  0  0  0  0  0  0  0  0  0  0  0
    6.6866    1.7802   -1.0609 C   0  0  0  0  0  0  0  0  0  0  0  0
    6.7328    1.7560    0.3339 C   0  0  0  0  0  0  0  0  0  0  0  0
   -2.4558    0.8740   -1.4096 C   0  0  0  0  0  0  0  0  0  0  0  0
   -6.3829    2.2309   -0.7755 H   0  0  0  0  0  0  0  0  0  0  0  0
   -7.9778    1.5395   -0.3254 H   0  0  0  0  0  0  0  0  0  0  0  0
   -6.8497    0.5596   -1.3963 H   0  0  0  0  0  0  0  0  0  0  0  0
   -6.6810   -0.3049    0.9446 H   0  0  0  0  0  0  0  0  0  0  0  0
   -6.3740    1.3838    1.4602 H   0  0  0  0  0  0  0  0  0  0  0  0
   -4.3879    1.5904    0.1901 H   0  0  0  0  0  0  0  0  0  0  0  0
   -4.2199    0.1856    1.3075 H   0  0  0  0  0  0  0  0  0  0  0  0
   -4.9245    0.0585   -1.6926 H   0  0  0  0  0  0  0  0  0  0  0  0
   -4.8301   -1.3514   -0.5813 H   0  0  0  0  0  0  0  0  0  0  0  0
   -2.8627   -2.0372    0.2757 H   0  0  0  0  0  0  0  0  0  0  0  0
   -2.3962   -0.5017    1.0026 H   0  0  0  0  0  0  0  0  0  0  0  0
   -0.5974   -1.9379    0.8898 H   0  0  0  0  0  0  0  0  0  0  0  0
   -0.6678   -2.2446   -0.8321 H   0  0  0  0  0  0  0  0  0  0  0  0
   -0.0490    0.4114    0.5976 H   0  0  0  0  0  0  0  0  0  0  0  0
   -0.0410    0.1907   -1.2472 H   0  0  0  0  0  0  0  0  0  0  0  0
    2.0974   -0.6010   -1.1403 H   0  0  0  0  0  0  0  0  0  0  0  0
    3.5772   -2.8003    1.4543 H   0  0  0  0  0  0  0  0  0  0  0  0
    3.8474   -2.2378   -0.1956 H   0  0  0  0  0  0  0  0  0  0  0  0
    4.4433   -0.6974   -1.4894 H   0  0  0  0  0  0  0  0  0  0  0  0
    5.7759    0.8583   -2.7130 H   0  0  0  0  0  0  0  0  0  0  0  0
    7.2850    2.4779   -1.6135 H   0  0  0  0  0  0  0  0  0  0  0  0
    7.3701    2.4377    0.8833 H   0  0  0  0  0  0  0  0  0  0  0  0
   -1.9635    0.8798   -2.3776 H   0  0  0  0  0  0  0  0  0  0  0  0
   -1.9304    1.3735   -0.5757 H   0  0  0  0  0  0  0  0  0  0  0  0
   -3.3636    1.5449   -1.5675 H   0  0  0  0  0  0  0  0  0  0  0  0
  1  2  1  0
  2  3  1  0
  3  4  1  0
  4  5  1  0
  5  6  1  0
  6  7  1  0
  7  8  1  0
  8  9  1  0
  9 10  1  0
 10 11  2  0
 10 12  1  0
 12 13  1  0
 13 14  1  0
 14 15  2  0
 14 16  1  0
 16 17  1  0
 17 18  2  0
 18 19  1  0
 19 20  2  0
 20 21  1  0
 21 22  2  0
  5 23  1  0
 18 13  1  0
 22 17  1  0
  1 24  1  0
  1 25  1  0
  1 26  1  0
  2 27  1  0
  2 28  1  0
  3 29  1  0
  3 30  1  0
  4 31  1  0
  4 32  1  0
  6 33  1  0
  6 34  1  0
  7 35  1  0
  7 36  1  0
  8 37  1  0
  8 38  1  0
  9 39  1  0
 12 40  1  0
 12 41  1  0
 19 42  1  0
 20 43  1  0
 21 44  1  0
 22 45  1  0
 23 46  1  0
 23 47  1  0
 23 48  1  0
M  END
>  <Ligand ID>  (1) 
LIG0004318

>  <Ligand>  (1) 
MLS000086722

>  <SMILES>  (1) 
CCCCN(CCCNC(=O)Cn1c(=O)sc2c1cccc2)C

>  <CID>  (1) 
3239520.0

>  <ChEMBL ID>  (1) 
nan

>  <InChiKey>  (1) 
FOVXFYNKMOHPDL-UHFFFAOYSA-N

>  <InChi>  (1) 
InChI=1S/C17H25N3O2S/c1-3-4-11-19(2)12-7-10-18-16(21)13-20-14-8-5-6-9-15(14)23-17(20)22/h5-6,8-9H,3-4,7,10-13H2,1-2H3,(H,18,21)

>  <IUPAC Name>  (1) 
N-[3-[butyl(methyl)amino]propyl]-2-(2-oxo-1,3-benzothiazol-3-yl)acetamide

$$$$
