
     RDKit          3D

132135  0  0  0  0  0  0  0  0999 V2000
   14.7719    0.7773   -2.4175 C   0  0  0  0  0  0  0  0  0  0  0  0
   15.1004    0.5207   -0.9836 C   0  0  0  0  0  0  0  0  0  0  0  0
   14.0402   -0.2575   -0.2366 C   0  0  0  0  0  0  0  0  0  0  0  0
   12.7126    0.4803   -0.2553 C   0  0  0  0  0  0  0  0  0  0  0  0
   11.6275   -0.2485    0.4867 C   0  0  0  0  0  0  0  0  0  0  0  0
   10.3315    0.5750    0.4056 C   0  0  0  0  0  0  0  0  0  0  0  0
    9.8830    0.7044   -1.0143 C   0  0  0  0  0  0  0  0  0  0  0  0
    9.5303   -0.5502   -1.6937 C   0  0  0  0  0  0  0  0  0  0  0  0
    8.2350   -1.1777   -1.5059 C   0  0  0  0  0  0  0  0  0  0  0  0
    7.4952   -1.3841   -0.2508 C   0  0  0  0  0  0  0  0  0  0  0  0
    6.8870   -0.1268    0.3067 C   0  0  0  0  0  0  0  0  0  0  0  0
    5.9314    0.5612   -0.6298 C   0  0  0  0  0  0  0  0  0  0  0  0
    4.6263   -0.0348   -0.9259 C   0  0  0  0  0  0  0  0  0  0  0  0
    4.4552   -1.4193   -1.4053 C   0  0  0  0  0  0  0  0  0  0  0  0
    2.9566   -1.6471   -1.6974 C   0  0  0  0  0  0  0  0  0  0  0  0
    2.3987   -0.6297   -2.1683 O   0  0  0  0  0  0  0  0  0  0  0  0
    2.3556   -2.8798   -1.4245 N   0  0  0  0  0  0  0  0  0  0  0  0
    0.9521   -3.2073   -1.6346 C   0  0  2  0  0  0  0  0  0  0  0  0
    0.0276   -2.1122   -1.4086 C   0  0  0  0  0  0  0  0  0  0  0  0
   -0.0369   -1.1572   -2.2608 O   0  0  0  0  0  0  0  0  0  0  0  0
   -0.8734   -1.9225   -0.3045 N   0  0  0  0  0  0  0  0  0  0  0  0
   -1.6679   -0.7424   -0.3380 C   0  0  1  0  0  0  0  0  0  0  0  0
   -2.9617   -0.9290    0.3195 C   0  0  0  0  0  0  0  0  0  0  0  0
   -3.1923   -2.0197    0.9093 O   0  0  0  0  0  0  0  0  0  0  0  0
   -3.8899    0.1394    0.2490 N   0  0  0  0  0  0  0  0  0  0  0  0
   -5.2122    0.1672    0.8198 C   0  0  2  0  0  0  0  0  0  0  0  0
   -6.2581   -0.0985   -0.1658 C   0  0  0  0  0  0  0  0  0  0  0  0
   -5.8617   -0.4874   -1.3230 O   0  0  0  0  0  0  0  0  0  0  0  0
   -7.6506    0.0193    0.0024 N   0  0  0  0  0  0  0  0  0  0  0  0
   -8.4959   -0.3407   -1.1106 C   0  0  2  0  0  0  0  0  0  0  0  0
   -8.9606    0.7610   -1.9772 C   0  0  0  0  0  0  0  0  0  0  0  0
   -8.8406    1.9739   -1.7709 O   0  0  0  0  0  0  0  0  0  0  0  0
   -9.6199    0.3035   -3.1972 N   0  0  0  0  0  0  0  0  0  0  0  0
   -9.6983   -1.0325   -0.5027 C   0  0  0  0  0  0  0  0  0  0  0  0
  -10.4543   -0.2225    0.4591 C   0  0  0  0  0  0  0  0  0  0  0  0
  -10.2352   -0.3226    1.8418 C   0  0  0  0  0  0  0  0  0  0  0  0
  -11.0284    0.5457    2.4944 N   0  0  0  0  0  0  0  0  0  0  0  0
  -11.7589    1.2078    1.5833 C   0  0  0  0  0  0  0  0  0  0  0  0
  -11.4179    0.7449    0.3081 C   0  0  0  0  0  0  0  0  0  0  0  0
  -12.0407    1.2656   -0.7862 C   0  0  0  0  0  0  0  0  0  0  0  0
  -13.0085    2.2534   -0.6036 C   0  0  0  0  0  0  0  0  0  0  0  0
  -13.3748    2.7357    0.6198 C   0  0  0  0  0  0  0  0  0  0  0  0
  -12.7199    2.1830    1.7237 C   0  0  0  0  0  0  0  0  0  0  0  0
   -5.3561    1.2937    1.7592 C   0  0  0  0  0  0  0  0  0  0  0  0
   -5.1398    2.6667    1.2160 C   0  0  0  0  0  0  0  0  0  0  0  0
   -6.1057    3.1002    0.1576 C   0  0  0  0  0  0  0  0  0  0  0  0
   -7.4766    3.1158    0.6747 N   0  0  0  0  0  0  0  0  0  0  0  0
   -8.1275    4.2174    0.7881 C   0  0  0  0  0  0  0  0  0  0  0  0
   -9.4600    4.2434    1.2889 N   0  0  0  0  0  0  0  0  0  0  0  0
   -7.5211    5.4669    0.4161 N   0  0  0  0  0  0  0  0  0  0  0  0
   -0.9121    0.4903    0.1370 C   0  0  0  0  0  0  0  0  0  0  0  0
   -0.4001    0.4346    1.4923 C   0  0  0  0  0  0  0  0  0  0  0  0
   -1.1466    0.8341    2.5887 C   0  0  0  0  0  0  0  0  0  0  0  0
   -0.6804    0.8074    3.8739 C   0  0  0  0  0  0  0  0  0  0  0  0
    0.6023    0.3647    4.1428 C   0  0  0  0  0  0  0  0  0  0  0  0
    1.3534   -0.0333    3.0678 C   0  0  0  0  0  0  0  0  0  0  0  0
    0.8863   -0.0101    1.7535 C   0  0  0  0  0  0  0  0  0  0  0  0
    0.6300   -4.5272   -1.0854 C   0  0  0  0  0  0  0  0  0  0  0  0
    0.9404   -4.6647    0.3652 C   0  0  0  0  0  0  0  0  0  0  0  0
    0.7261   -5.7710    1.1362 N   0  0  0  0  0  0  0  0  0  0  0  0
    1.1651   -5.5321    2.3849 C   0  0  0  0  0  0  0  0  0  0  0  0
    1.6622   -4.2980    2.4572 N   0  0  0  0  0  0  0  0  0  0  0  0
    1.5288   -3.7571    1.2245 C   0  0  0  0  0  0  0  0  0  0  0  0
   14.1245    1.7005   -2.4293 H   0  0  0  0  0  0  0  0  0  0  0  0
   15.7345    1.1108   -2.9022 H   0  0  0  0  0  0  0  0  0  0  0  0
   14.3427   -0.0649   -2.9660 H   0  0  0  0  0  0  0  0  0  0  0  0
   16.0619   -0.0266   -0.9179 H   0  0  0  0  0  0  0  0  0  0  0  0
   15.2801    1.5153   -0.5062 H   0  0  0  0  0  0  0  0  0  0  0  0
   13.9350   -1.2541   -0.6915 H   0  0  0  0  0  0  0  0  0  0  0  0
   14.3669   -0.3788    0.8096 H   0  0  0  0  0  0  0  0  0  0  0  0
   12.8494    1.4807    0.2311 H   0  0  0  0  0  0  0  0  0  0  0  0
   12.3976    0.6732   -1.2865 H   0  0  0  0  0  0  0  0  0  0  0  0
   11.8647   -0.2781    1.5751 H   0  0  0  0  0  0  0  0  0  0  0  0
   11.4895   -1.2778    0.1181 H   0  0  0  0  0  0  0  0  0  0  0  0
    9.6125    0.1410    1.0670 H   0  0  0  0  0  0  0  0  0  0  0  0
   10.6193    1.5908    0.7941 H   0  0  0  0  0  0  0  0  0  0  0  0
    8.9752    1.4096   -0.9718 H   0  0  0  0  0  0  0  0  0  0  0  0
   10.6020    1.3225   -1.6182 H   0  0  0  0  0  0  0  0  0  0  0  0
   10.3792   -1.3363   -1.5614 H   0  0  0  0  0  0  0  0  0  0  0  0
    9.6703   -0.3482   -2.8463 H   0  0  0  0  0  0  0  0  0  0  0  0
    8.2993   -2.2271   -2.0177 H   0  0  0  0  0  0  0  0  0  0  0  0
    7.5265   -0.6794   -2.2870 H   0  0  0  0  0  0  0  0  0  0  0  0
    8.2856   -1.6748    0.5378 H   0  0  0  0  0  0  0  0  0  0  0  0
    6.8182   -2.2299   -0.2668 H   0  0  0  0  0  0  0  0  0  0  0  0
    6.2347   -0.5089    1.1693 H   0  0  0  0  0  0  0  0  0  0  0  0
    7.5809    0.5378    0.7814 H   0  0  0  0  0  0  0  0  0  0  0  0
    6.4643    0.8727   -1.5831 H   0  0  0  0  0  0  0  0  0  0  0  0
    5.7800    1.5926   -0.1286 H   0  0  0  0  0  0  0  0  0  0  0  0
    4.1345    0.6974   -1.6814 H   0  0  0  0  0  0  0  0  0  0  0  0
    3.9343    0.1594   -0.0320 H   0  0  0  0  0  0  0  0  0  0  0  0
    4.9882   -1.6067   -2.3286 H   0  0  0  0  0  0  0  0  0  0  0  0
    4.7275   -2.1787   -0.6552 H   0  0  0  0  0  0  0  0  0  0  0  0
    2.9904   -3.6428   -1.0343 H   0  0  0  0  0  0  0  0  0  0  0  0
    0.8983   -3.3047   -2.8051 H   0  0  0  0  0  0  0  0  0  0  0  0
   -0.9107   -2.6404    0.4438 H   0  0  0  0  0  0  0  0  0  0  0  0
   -1.8586   -0.4902   -1.4304 H   0  0  0  0  0  0  0  0  0  0  0  0
   -3.6105    1.0269   -0.2753 H   0  0  0  0  0  0  0  0  0  0  0  0
   -5.2252   -0.7844    1.4832 H   0  0  0  0  0  0  0  0  0  0  0  0
   -7.9925    0.3605    0.9277 H   0  0  0  0  0  0  0  0  0  0  0  0
   -7.9266   -1.0230   -1.7964 H   0  0  0  0  0  0  0  0  0  0  0  0
  -10.3868   -0.3899   -3.1676 H   0  0  0  0  0  0  0  0  0  0  0  0
   -9.2306    0.7489   -4.0555 H   0  0  0  0  0  0  0  0  0  0  0  0
  -10.3701   -1.3226   -1.3432 H   0  0  0  0  0  0  0  0  0  0  0  0
   -9.4029   -1.9882   -0.0095 H   0  0  0  0  0  0  0  0  0  0  0  0
   -9.5491   -0.9713    2.3624 H   0  0  0  0  0  0  0  0  0  0  0  0
  -11.0804    0.6957    3.5413 H   0  0  0  0  0  0  0  0  0  0  0  0
  -11.8073    0.9222   -1.7526 H   0  0  0  0  0  0  0  0  0  0  0  0
  -13.4966    2.6584   -1.4986 H   0  0  0  0  0  0  0  0  0  0  0  0
  -14.1370    3.5094    0.7486 H   0  0  0  0  0  0  0  0  0  0  0  0
  -13.0013    2.5538    2.6986 H   0  0  0  0  0  0  0  0  0  0  0  0
   -4.5953    1.1663    2.5695 H   0  0  0  0  0  0  0  0  0  0  0  0
   -6.3329    1.2614    2.3078 H   0  0  0  0  0  0  0  0  0  0  0  0
   -5.2442    3.3762    2.0717 H   0  0  0  0  0  0  0  0  0  0  0  0
   -4.0922    2.7779    0.8518 H   0  0  0  0  0  0  0  0  0  0  0  0
   -5.8662    4.1464   -0.1150 H   0  0  0  0  0  0  0  0  0  0  0  0
   -6.0555    2.5058   -0.7840 H   0  0  0  0  0  0  0  0  0  0  0  0
   -9.6166    3.6589    2.1657 H   0  0  0  0  0  0  0  0  0  0  0  0
  -10.2260    4.7853    0.8401 H   0  0  0  0  0  0  0  0  0  0  0  0
   -7.3483    5.7257   -0.5884 H   0  0  0  0  0  0  0  0  0  0  0  0
   -7.2304    6.1685    1.1425 H   0  0  0  0  0  0  0  0  0  0  0  0
   -0.1335    0.7224   -0.6393 H   0  0  0  0  0  0  0  0  0  0  0  0
   -1.6363    1.3388    0.0597 H   0  0  0  0  0  0  0  0  0  0  0  0
   -2.1695    1.1862    2.3673 H   0  0  0  0  0  0  0  0  0  0  0  0
   -1.3596    1.1498    4.6600 H   0  0  0  0  0  0  0  0  0  0  0  0
    0.9870    0.3371    5.1551 H   0  0  0  0  0  0  0  0  0  0  0  0
    2.3733   -0.3787    3.2945 H   0  0  0  0  0  0  0  0  0  0  0  0
    1.5633   -0.3518    0.9718 H   0  0  0  0  0  0  0  0  0  0  0  0
    1.0123   -5.3881   -1.6726 H   0  0  0  0  0  0  0  0  0  0  0  0
   -0.4937   -4.6476   -1.1397 H   0  0  0  0  0  0  0  0  0  0  0  0
    0.2855   -6.6364    0.7558 H   0  0  0  0  0  0  0  0  0  0  0  0
    1.1429   -6.2046    3.2302 H   0  0  0  0  0  0  0  0  0  0  0  0
    1.8262   -2.7627    0.9019 H   0  0  0  0  0  0  0  0  0  0  0  0
  1  2  1  0
  2  3  1  0
  3  4  1  0
  4  5  1  0
  5  6  1  0
  6  7  1  0
  7  8  1  0
  8  9  1  0
  9 10  1  0
 10 11  1  0
 11 12  1  0
 12 13  1  0
 13 14  1  0
 14 15  1  0
 15 16  2  0
 15 17  1  0
 17 18  1  0
 18 19  1  0
 19 20  2  0
 19 21  1  0
 21 22  1  0
 22 23  1  0
 23 24  2  0
 23 25  1  0
 25 26  1  0
 26 27  1  0
 27 28  2  0
 27 29  1  0
 29 30  1  0
 30 31  1  0
 31 32  2  0
 31 33  1  0
 30 34  1  0
 34 35  1  0
 35 36  2  0
 36 37  1  0
 37 38  1  0
 38 39  2  0
 39 40  1  0
 40 41  2  0
 41 42  1  0
 42 43  2  0
 26 44  1  0
 44 45  1  0
 45 46  1  0
 46 47  1  0
 47 48  2  3
 48 49  1  0
 48 50  1  0
 22 51  1  0
 51 52  1  0
 52 53  2  0
 53 54  1  0
 54 55  2  0
 55 56  1  0
 56 57  2  0
 18 58  1  0
 58 59  1  0
 59 60  1  0
 60 61  1  0
 61 62  2  0
 62 63  1  0
 39 35  1  0
 57 52  1  0
 63 59  2  0
 43 38  1  0
  1 64  1  0
  1 65  1  0
  1 66  1  0
  2 67  1  0
  2 68  1  0
  3 69  1  0
  3 70  1  0
  4 71  1  0
  4 72  1  0
  5 73  1  0
  5 74  1  0
  6 75  1  0
  6 76  1  0
  7 77  1  0
  7 78  1  0
  8 79  1  0
  8 80  1  0
  9 81  1  0
  9 82  1  0
 10 83  1  0
 10 84  1  0
 11 85  1  0
 11 86  1  0
 12 87  1  0
 12 88  1  0
 13 89  1  0
 13 90  1  0
 14 91  1  0
 14 92  1  0
 17 93  1  0
 18 94  1  6
 21 95  1  0
 22 96  1  6
 25 97  1  0
 26 98  1  1
 29 99  1  0
 30100  1  6
 33101  1  0
 33102  1  0
 34103  1  0
 34104  1  0
 36105  1  0
 37106  1  0
 40107  1  0
 41108  1  0
 42109  1  0
 43110  1  0
 44111  1  0
 44112  1  0
 45113  1  0
 45114  1  0
 46115  1  0
 46116  1  0
 49117  1  0
 49118  1  0
 50119  1  0
 50120  1  0
 51121  1  0
 51122  1  0
 53123  1  0
 54124  1  0
 55125  1  0
 56126  1  0
 57127  1  0
 58128  1  0
 58129  1  0
 60130  1  0
 61131  1  0
 63132  1  0
M  END
>  <Ligand ID>  (1) 
LIG0001888

>  <Ligand>  (1) 
CHEMBL193151

>  <SMILES>  (1) 
CCCCCCCCCCCCCCC(=O)N[C@H](C(=O)N[C@@H](C(=O)N[C@H](C(=O)N[C@H](C(=O)N)Cc1c[nH]c2c1cccc2)CCCN=C(N)N)Cc1ccccc1)Cc1[nH]cnc1

>  <CID>  (1) 
11308957.0

>  <ChEMBL ID>  (1) 
nan

>  <InChiKey>  (1) 
ZCYDDEYLARALIR-SHOCBOQASA-N

>  <InChi>  (1) 
InChI=1S/C47H69N11O5/c1-2-3-4-5-6-7-8-9-10-11-12-16-25-42(59)55-41(29-35-31-51-32-54-35)46(63)58-40(27-33-20-14-13-15-21-33)45(62)56-38(24-19-26-52-47(49)50)44(61)57-39(43(48)60)28-34-30-53-37-23-18-17-22-36(34)37/h13-15,17-18,20-23,30-32,38-41,53H,2-12,16,19,24-29H2,1H3,(H2,48,60)(H,51,54)(H,55,59)(H,56,62)(H,57,61)(H,58,63)(H4,49,50,52)/t38-,39-,40+,41-/m0/s1

>  <IUPAC Name>  (1) 
N-[(2S)-1-[[(2R)-1-[[(2S)-1-[[(2S)-1-amino-3-(1H-indol-3-yl)-1-oxopropan-2-yl]amino]-5-(diaminomethylideneamino)-1-oxopentan-2-yl]amino]-1-oxo-3-phenylpropan-2-yl]amino]-3-(1H-imidazol-5-yl)-1-oxopropan-2-yl]pentadecanamide

$$$$
