
     RDKit          3D

 32 35  0  0  0  0  0  0  0  0999 V2000
   -1.4563   -2.7829   -1.7133 C   0  0  0  0  0  0  0  0  0  0  0  0
   -2.7188   -2.4928   -1.2518 C   0  0  0  0  0  0  0  0  0  0  0  0
   -2.8696   -1.3533   -0.4904 C   0  0  0  0  0  0  0  0  0  0  0  0
   -1.8239   -0.5014   -0.1744 C   0  0  0  0  0  0  0  0  0  0  0  0
   -0.5606   -0.7940   -0.6377 C   0  0  0  0  0  0  0  0  0  0  0  0
   -0.3998   -1.9476   -1.4104 C   0  0  0  0  0  0  0  0  0  0  0  0
    0.5805    0.0567   -0.3459 C   0  0  1  0  0  0  0  0  0  0  0  0
    1.2262   -0.4151    0.9679 C   0  0  0  0  0  0  0  0  0  0  0  0
    2.5077    0.3560    0.8795 C   0  0  0  0  0  0  0  0  0  0  0  0
    2.8067    0.5424   -0.4207 N   0  0  0  0  0  0  0  0  0  0  0  0
    1.7692   -0.0876   -1.2624 C   0  0  0  0  0  0  0  0  0  0  0  0
    3.9532    1.2372   -0.4603 C   0  0  0  0  0  0  0  0  0  0  0  0
    4.3501    1.4721    0.8407 C   0  0  0  0  0  0  0  0  0  0  0  0
    3.4356    0.9147    1.6645 N   0  0  0  0  0  0  0  0  0  0  0  0
   -2.1386    0.6612    0.6390 C   0  0  0  0  0  0  0  0  0  0  0  0
   -1.3700    1.6531    1.1078 N   0  0  0  0  0  0  0  0  0  0  0  0
   -2.1169    2.5165    1.8235 C   0  0  0  0  0  0  0  0  0  0  0  0
   -3.3877    2.0246    1.7843 C   0  0  0  0  0  0  0  0  0  0  0  0
   -3.3482    0.9357    1.0778 O   0  0  0  0  0  0  0  0  0  0  0  0
   -1.3386   -3.6776   -2.3109 H   0  0  0  0  0  0  0  0  0  0  0  0
   -3.5599   -3.1386   -1.4808 H   0  0  0  0  0  0  0  0  0  0  0  0
   -3.8991   -1.1653   -0.1451 H   0  0  0  0  0  0  0  0  0  0  0  0
    0.5612   -2.2445   -1.8104 H   0  0  0  0  0  0  0  0  0  0  0  0
    0.3490    1.1264   -0.3086 H   0  0  0  0  0  0  0  0  0  0  0  0
    1.3924   -1.5081    0.8760 H   0  0  0  0  0  0  0  0  0  0  0  0
    0.6057   -0.1536    1.8193 H   0  0  0  0  0  0  0  0  0  0  0  0
    2.1352   -1.1015   -1.4089 H   0  0  0  0  0  0  0  0  0  0  0  0
    1.6751    0.4357   -2.2150 H   0  0  0  0  0  0  0  0  0  0  0  0
    4.5032    1.5740   -1.3228 H   0  0  0  0  0  0  0  0  0  0  0  0
    5.2581    2.0211    1.1174 H   0  0  0  0  0  0  0  0  0  0  0  0
   -1.8213    3.4175    2.3367 H   0  0  0  0  0  0  0  0  0  0  0  0
   -4.2999    2.4190    2.2354 H   0  0  0  0  0  0  0  0  0  0  0  0
  1  2  2  0
  2  3  1  0
  3  4  2  0
  4  5  1  0
  5  6  2  0
  5  7  1  0
  7  8  1  0
  8  9  1  0
  9 10  1  0
 10 11  1  0
 10 12  1  0
 12 13  2  0
 13 14  1  0
  4 15  1  0
 15 16  2  0
 16 17  1  0
 17 18  2  0
 18 19  1  0
  6  1  1  0
 11  7  1  0
 19 15  1  0
 14  9  2  0
  1 20  1  0
  2 21  1  0
  3 22  1  0
  6 23  1  0
  7 24  1  1
  8 25  1  0
  8 26  1  0
 11 27  1  0
 11 28  1  0
 12 29  1  0
 13 30  1  0
 17 31  1  0
 18 32  1  0
M  END
>  <Ligand ID>  (1) 
LIG0002406

>  <Ligand>  (1) 
CHEMBL448147

>  <SMILES>  (1) 
c1ccc(c(c1)[C@H]1Cc2n(C1)ccn2)c1ncco1

>  <CID>  (1) 
44574076.0

>  <ChEMBL ID>  (1) 
nan

>  <InChiKey>  (1) 
MIWWMVGPFZMLEG-NSHDSACASA-N

>  <InChi>  (1) 
InChI=1S/C15H13N3O/c1-2-4-13(15-17-6-8-19-15)12(3-1)11-9-14-16-5-7-18(14)10-11/h1-8,11H,9-10H2/t11-/m0/s1

>  <IUPAC Name>  (1) 
2-[2-[(6R)-6,7-dihydro-5H-pyrrolo[1,2-a]imidazol-6-yl]phenyl]-1,3-oxazole

$$$$
