
     RDKit          3D

 45 47  0  0  0  0  0  0  0  0999 V2000
   -3.5267   -0.1945   -1.4616 C   0  0  0  0  0  0  0  0  0  0  0  0
   -3.0628   -0.6518   -0.0958 C   0  0  2  0  0  0  0  0  0  0  0  0
   -4.0236   -1.5768    0.5922 C   0  0  0  0  0  0  0  0  0  0  0  0
   -5.0689   -0.9078    1.3090 N   0  0  0  0  0  0  0  0  0  0  0  0
   -4.9049    0.5123    1.4032 C   0  0  0  0  0  0  0  0  0  0  0  0
   -3.4715    0.7801    1.8765 C   0  0  0  0  0  0  0  0  0  0  0  0
   -2.6231    0.4318    0.7542 N   0  0  0  0  0  0  0  0  0  0  0  0
   -1.4049    1.0982    0.4664 C   0  0  0  0  0  0  0  0  0  0  0  0
   -0.9126    2.1289    1.2378 C   0  0  0  0  0  0  0  0  0  0  0  0
    0.2838    2.7617    0.9290 C   0  0  0  0  0  0  0  0  0  0  0  0
    0.9846    2.3308   -0.1867 C   0  0  0  0  0  0  0  0  0  0  0  0
    2.0513    2.9083   -0.4463 O   0  0  0  0  0  0  0  0  0  0  0  0
    0.4824    1.3250   -0.9203 N   0  0  0  0  0  0  0  0  0  0  0  0
   -0.6723    0.7342   -0.5991 N   0  0  0  0  0  0  0  0  0  0  0  0
    1.2309    0.8913   -2.0814 C   0  0  0  0  0  0  0  0  0  0  0  0
    2.2076   -0.2054   -1.6957 C   0  0  0  0  0  0  0  0  0  0  0  0
    3.1021    0.3135   -0.7152 O   0  0  0  0  0  0  0  0  0  0  0  0
    4.0941   -0.5323   -0.2132 C   0  0  0  0  0  0  0  0  0  0  0  0
    4.2200   -1.8504   -0.6483 C   0  0  0  0  0  0  0  0  0  0  0  0
    5.1980   -2.6734   -0.1490 C   0  0  0  0  0  0  0  0  0  0  0  0
    6.0702   -2.1892    0.7983 C   0  0  0  0  0  0  0  0  0  0  0  0
    5.9427   -0.8831    1.2271 C   0  0  0  0  0  0  0  0  0  0  0  0
    4.9667   -0.0490    0.7341 C   0  0  0  0  0  0  0  0  0  0  0  0
    4.8839    1.5859    1.3367 Cl  0  0  0  0  0  0  0  0  0  0  0  0
   -3.1009   -0.8418   -2.2833 H   0  0  0  0  0  0  0  0  0  0  0  0
   -4.6228   -0.2772   -1.5000 H   0  0  0  0  0  0  0  0  0  0  0  0
   -3.1766    0.8426   -1.6262 H   0  0  0  0  0  0  0  0  0  0  0  0
   -2.1386   -1.2689   -0.2821 H   0  0  0  0  0  0  0  0  0  0  0  0
   -3.4699   -2.2035    1.3220 H   0  0  0  0  0  0  0  0  0  0  0  0
   -4.4495   -2.2653   -0.1645 H   0  0  0  0  0  0  0  0  0  0  0  0
   -6.0255   -1.2090    1.0744 H   0  0  0  0  0  0  0  0  0  0  0  0
   -5.1337    1.0062    0.4600 H   0  0  0  0  0  0  0  0  0  0  0  0
   -5.6051    0.8868    2.1984 H   0  0  0  0  0  0  0  0  0  0  0  0
   -3.2821    0.0019    2.6530 H   0  0  0  0  0  0  0  0  0  0  0  0
   -3.3527    1.7982    2.2461 H   0  0  0  0  0  0  0  0  0  0  0  0
   -1.4438    2.4732    2.1049 H   0  0  0  0  0  0  0  0  0  0  0  0
    0.6262    3.5569    1.5570 H   0  0  0  0  0  0  0  0  0  0  0  0
    1.7950    1.7448   -2.5197 H   0  0  0  0  0  0  0  0  0  0  0  0
    0.5640    0.4468   -2.8546 H   0  0  0  0  0  0  0  0  0  0  0  0
    1.6804   -1.0816   -1.3124 H   0  0  0  0  0  0  0  0  0  0  0  0
    2.7753   -0.5064   -2.5937 H   0  0  0  0  0  0  0  0  0  0  0  0
    3.5155   -2.1949   -1.3942 H   0  0  0  0  0  0  0  0  0  0  0  0
    5.2974   -3.6962   -0.4850 H   0  0  0  0  0  0  0  0  0  0  0  0
    6.8648   -2.7868    1.2333 H   0  0  0  0  0  0  0  0  0  0  0  0
    6.6356   -0.5138    1.9735 H   0  0  0  0  0  0  0  0  0  0  0  0
  1  2  1  0
  2  3  1  0
  3  4  1  0
  4  5  1  0
  5  6  1  0
  6  7  1  0
  7  8  1  0
  8  9  1  0
  9 10  2  0
 10 11  1  0
 11 12  2  0
 11 13  1  0
 13 14  1  0
 13 15  1  0
 15 16  1  0
 16 17  1  0
 17 18  1  0
 18 19  2  0
 19 20  1  0
 20 21  2  0
 21 22  1  0
 22 23  2  0
 23 24  1  0
  7  2  1  0
 14  8  2  0
 23 18  1  0
  1 25  1  0
  1 26  1  0
  1 27  1  0
  2 28  1  6
  3 29  1  0
  3 30  1  0
  4 31  1  0
  5 32  1  0
  5 33  1  0
  6 34  1  0
  6 35  1  0
  9 36  1  0
 10 37  1  0
 15 38  1  0
 15 39  1  0
 16 40  1  0
 16 41  1  0
 19 42  1  0
 20 43  1  0
 21 44  1  0
 22 45  1  0
M  END
>  <Ligand ID>  (1) 
LIG0002187

>  <Ligand>  (1) 
CHEMBL570023

>  <SMILES>  (1) 
C[C@@H]1CNCCN1c1ccc(=O)n(n1)CCOc1ccccc1Cl

>  <CID>  (1) 
45485779.0

>  <ChEMBL ID>  (1) 
nan

>  <InChiKey>  (1) 
PVDXSFFUEIMKOU-CYBMUJFWSA-N

>  <InChi>  (1) 
InChI=1S/C17H21ClN4O2/c1-13-12-19-8-9-21(13)16-6-7-17(23)22(20-16)10-11-24-15-5-3-2-4-14(15)18/h2-7,13,19H,8-12H2,1H3/t13-/m1/s1

>  <IUPAC Name>  (1) 
2-[2-(2-chlorophenoxy)ethyl]-6-[(2R)-2-methylpiperazin-1-yl]pyridazin-3-one

$$$$
