
     RDKit          3D

 54 55  0  0  0  0  0  0  0  0999 V2000
   -5.7066    1.8636   -2.6158 C   0  0  0  0  0  0  0  0  0  0  0  0
   -5.0452    0.6532   -2.1153 N   0  0  0  0  0  0  0  0  0  0  0  0
   -3.8773    0.6997   -1.3454 C   0  0  0  0  0  0  0  0  0  0  0  0
   -3.4029    1.8660   -1.1025 O   0  0  0  0  0  0  0  0  0  0  0  0
   -3.1293   -0.4318   -0.7855 C   0  0  0  0  0  0  0  0  0  0  0  0
   -3.9340   -1.0869    0.3155 C   0  0  0  0  0  0  0  0  0  0  0  0
   -3.1571   -2.2533    0.9234 C   0  0  0  0  0  0  0  0  0  0  0  0
   -4.2858   -0.1470    1.4303 C   0  0  0  0  0  0  0  0  0  0  0  0
   -5.1881   -1.7016   -0.2513 C   0  0  0  0  0  0  0  0  0  0  0  0
   -1.8488    0.0426   -0.2152 N   0  0  0  0  0  0  0  0  0  0  0  0
   -0.6049   -0.4386   -0.6657 C   0  0  0  0  0  0  0  0  0  0  0  0
   -0.5229   -1.3009   -1.5808 O   0  0  0  0  0  0  0  0  0  0  0  0
    0.6077    0.0888   -0.0424 C   0  0  0  0  0  0  0  0  0  0  0  0
    0.5562    1.0170    0.9446 N   0  0  0  0  0  0  0  0  0  0  0  0
    1.6361    1.5199    1.5351 C   0  0  0  0  0  0  0  0  0  0  0  0
    2.8870    1.0926    1.1425 C   0  0  0  0  0  0  0  0  0  0  0  0
    3.0293    0.1444    0.1388 C   0  0  0  0  0  0  0  0  0  0  0  0
    1.8639   -0.3286   -0.4241 C   0  0  0  0  0  0  0  0  0  0  0  0
    4.2907   -0.2370   -0.2044 O   0  0  0  0  0  0  0  0  0  0  0  0
    4.7065   -1.1517   -1.1584 C   0  0  2  0  0  0  0  0  0  0  0  0
    5.5027   -2.3076   -0.5534 C   0  0  0  0  0  0  0  0  0  0  0  0
    6.6358   -1.8328    0.0862 F   0  0  0  0  0  0  0  0  0  0  0  0
    4.7145   -3.0589    0.2930 F   0  0  0  0  0  0  0  0  0  0  0  0
    5.9567   -3.1075   -1.5842 F   0  0  0  0  0  0  0  0  0  0  0  0
    5.5672   -0.5460   -2.2437 C   0  0  0  0  0  0  0  0  0  0  0  0
    4.1021    1.6496    1.7974 C   0  0  0  0  0  0  0  0  0  0  0  0
    4.6828    0.9991    3.0112 C   0  0  0  0  0  0  0  0  0  0  0  0
    3.9530    2.2817    3.1636 C   0  0  0  0  0  0  0  0  0  0  0  0
   -6.7788    1.7462   -2.3414 H   0  0  0  0  0  0  0  0  0  0  0  0
   -5.2358    2.7136   -2.0805 H   0  0  0  0  0  0  0  0  0  0  0  0
   -5.5807    1.8913   -3.7057 H   0  0  0  0  0  0  0  0  0  0  0  0
   -5.4755   -0.2385   -2.3720 H   0  0  0  0  0  0  0  0  0  0  0  0
   -2.9243   -1.1743   -1.5670 H   0  0  0  0  0  0  0  0  0  0  0  0
   -2.8820   -2.9384    0.0972 H   0  0  0  0  0  0  0  0  0  0  0  0
   -3.8684   -2.8039    1.5750 H   0  0  0  0  0  0  0  0  0  0  0  0
   -2.3124   -1.8837    1.5180 H   0  0  0  0  0  0  0  0  0  0  0  0
   -3.4193    0.0068    2.1155 H   0  0  0  0  0  0  0  0  0  0  0  0
   -5.0965   -0.6136    2.0256 H   0  0  0  0  0  0  0  0  0  0  0  0
   -4.6747    0.8149    1.0411 H   0  0  0  0  0  0  0  0  0  0  0  0
   -6.0543   -1.0138   -0.2536 H   0  0  0  0  0  0  0  0  0  0  0  0
   -5.5451   -2.5487    0.4278 H   0  0  0  0  0  0  0  0  0  0  0  0
   -5.0283   -2.2131   -1.2215 H   0  0  0  0  0  0  0  0  0  0  0  0
   -1.9335    0.7686    0.5546 H   0  0  0  0  0  0  0  0  0  0  0  0
    1.4772    2.2585    2.3145 H   0  0  0  0  0  0  0  0  0  0  0  0
    1.9266   -1.0679   -1.2091 H   0  0  0  0  0  0  0  0  0  0  0  0
    3.8303   -1.5918   -1.6712 H   0  0  0  0  0  0  0  0  0  0  0  0
    4.9381   -0.1192   -3.0668 H   0  0  0  0  0  0  0  0  0  0  0  0
    6.2727    0.1984   -1.8657 H   0  0  0  0  0  0  0  0  0  0  0  0
    6.1379   -1.3761   -2.7070 H   0  0  0  0  0  0  0  0  0  0  0  0
    4.7644    2.1999    1.0948 H   0  0  0  0  0  0  0  0  0  0  0  0
    4.2015    0.0602    3.3328 H   0  0  0  0  0  0  0  0  0  0  0  0
    5.8007    0.9809    3.0029 H   0  0  0  0  0  0  0  0  0  0  0  0
    4.4903    3.2286    3.3763 H   0  0  0  0  0  0  0  0  0  0  0  0
    2.9806    2.2018    3.6919 H   0  0  0  0  0  0  0  0  0  0  0  0
  1  2  1  0
  2  3  1  0
  3  4  2  0
  3  5  1  0
  5  6  1  0
  6  7  1  0
  6  8  1  0
  6  9  1  0
  5 10  1  0
 10 11  1  0
 11 12  2  0
 11 13  1  0
 13 14  2  0
 14 15  1  0
 15 16  2  0
 16 17  1  0
 17 18  2  0
 17 19  1  0
 19 20  1  0
 20 21  1  0
 21 22  1  0
 21 23  1  0
 21 24  1  0
 20 25  1  0
 16 26  1  0
 26 27  1  0
 27 28  1  0
 18 13  1  0
 28 26  1  0
  1 29  1  0
  1 30  1  0
  1 31  1  0
  2 32  1  0
  5 33  1  0
  7 34  1  0
  7 35  1  0
  7 36  1  0
  8 37  1  0
  8 38  1  0
  8 39  1  0
  9 40  1  0
  9 41  1  0
  9 42  1  0
 10 43  1  0
 15 44  1  0
 18 45  1  0
 20 46  1  6
 25 47  1  0
 25 48  1  0
 25 49  1  0
 26 50  1  0
 27 51  1  0
 27 52  1  0
 28 53  1  0
 28 54  1  0
M  END
>  <Ligand ID>  (1) 
LIG0005185

>  <Ligand>  (1) 
CHEMBL3894051

>  <SMILES>  (1) 
CNC(=O)C(C(C)(C)C)NC(=O)c1ncc(c(c1)O[C@H](C(F)(F)F)C)C1CC1

>  <CID>  (1) 
90204176.0

>  <ChEMBL ID>  (1) 
nan

>  <InChiKey>  (1) 
QGERDMRNHNARTG-MYHCZTBNSA-N

>  <InChi>  (1) 
InChI=1S/C19H26F3N3O3/c1-10(19(20,21)22)28-14-8-13(24-9-12(14)11-6-7-11)16(26)25-15(17(27)23-5)18(2,3)4/h8-11,15H,6-7H2,1-5H3,(H,23,27)(H,25,26)/t10-,15?/m0/s1

>  <IUPAC Name>  (1) 
5-cyclopropyl-N-[3,3-dimethyl-1-(methylamino)-1-oxobutan-2-yl]-4-[(2S)-1,1,1-trifluoropropan-2-yl]oxypyridine-2-carboxamide

$$$$
