
     RDKit          3D

 57 61  0  0  0  0  0  0  0  0999 V2000
    6.0915    1.0291    2.0505 C   0  0  0  0  0  0  0  0  0  0  0  0
    5.4021    1.8274    0.9565 C   0  0  0  0  0  0  0  0  0  0  0  0
    4.2924    1.0169    0.4769 N   0  0  0  0  0  0  0  0  0  0  0  0
    4.4347    0.1423   -0.5382 C   0  0  0  0  0  0  0  0  0  0  0  0
    5.4618   -0.2596   -1.3617 C   0  0  0  0  0  0  0  0  0  0  0  0
    5.3138   -1.2075   -2.3497 C   0  0  0  0  0  0  0  0  0  0  0  0
    4.0746   -1.7936   -2.5345 C   0  0  0  0  0  0  0  0  0  0  0  0
    3.0353   -1.4026   -1.7185 C   0  0  0  0  0  0  0  0  0  0  0  0
    3.1972   -0.4394   -0.7189 C   0  0  0  0  0  0  0  0  0  0  0  0
    2.3437    0.0872    0.1775 N   0  0  0  0  0  0  0  0  0  0  0  0
    3.0172    0.9860    0.9164 C   0  0  0  0  0  0  0  0  0  0  0  0
    2.5540    1.6688    1.8398 O   0  0  0  0  0  0  0  0  0  0  0  0
    0.9509   -0.3160    0.2509 C   0  0  1  0  0  0  0  0  0  0  0  0
    0.2572    0.1852    1.4977 C   0  0  0  0  0  0  0  0  0  0  0  0
   -1.1345   -0.4313    1.4814 C   0  0  0  0  0  0  0  0  0  0  0  0
   -1.9063   -0.0792    0.3261 N   0  0  0  0  0  0  0  0  0  0  0  0
   -1.1450    0.8013   -0.5381 C   0  0  1  0  0  0  0  0  0  0  0  0
    0.1358    0.0882   -0.9351 C   0  0  0  0  0  0  0  0  0  0  0  0
   -1.8923    1.1335   -1.7877 C   0  0  0  0  0  0  0  0  0  0  0  0
   -3.3711    1.4217   -1.4981 C   0  0  0  0  0  0  0  0  0  0  0  0
   -3.4859    1.6974   -0.0361 C   0  0  0  0  0  0  0  0  0  0  0  0
   -3.1732    0.4281    0.7236 C   0  0  1  0  0  0  0  0  0  0  0  0
   -4.2711   -0.5617    0.6142 C   0  0  0  0  0  0  0  0  0  0  0  0
   -4.1260   -1.8610    1.0449 C   0  0  0  0  0  0  0  0  0  0  0  0
   -5.1532   -2.8008    0.9481 C   0  0  0  0  0  0  0  0  0  0  0  0
   -6.3733   -2.4590    0.4085 C   0  0  0  0  0  0  0  0  0  0  0  0
   -6.5362   -1.1615   -0.0280 C   0  0  0  0  0  0  0  0  0  0  0  0
   -5.5169   -0.2333    0.0694 C   0  0  0  0  0  0  0  0  0  0  0  0
    5.3695    0.2729    2.4768 H   0  0  0  0  0  0  0  0  0  0  0  0
    6.4275    1.6636    2.8843 H   0  0  0  0  0  0  0  0  0  0  0  0
    6.9241    0.4006    1.6199 H   0  0  0  0  0  0  0  0  0  0  0  0
    4.9483    2.7166    1.4744 H   0  0  0  0  0  0  0  0  0  0  0  0
    6.0953    2.1169    0.1527 H   0  0  0  0  0  0  0  0  0  0  0  0
    6.4321    0.1855   -1.2322 H   0  0  0  0  0  0  0  0  0  0  0  0
    6.1026   -1.5264   -2.9933 H   0  0  0  0  0  0  0  0  0  0  0  0
    3.8732   -2.5435   -3.2850 H   0  0  0  0  0  0  0  0  0  0  0  0
    2.0575   -1.8670   -1.8667 H   0  0  0  0  0  0  0  0  0  0  0  0
    0.8823   -1.4419    0.3019 H   0  0  0  0  0  0  0  0  0  0  0  0
    0.2657    1.2640    1.6313 H   0  0  0  0  0  0  0  0  0  0  0  0
    0.7840   -0.2807    2.3602 H   0  0  0  0  0  0  0  0  0  0  0  0
   -0.9366   -1.5374    1.5772 H   0  0  0  0  0  0  0  0  0  0  0  0
   -1.6481   -0.1418    2.4388 H   0  0  0  0  0  0  0  0  0  0  0  0
   -0.7967    1.7309   -0.0273 H   0  0  0  0  0  0  0  0  0  0  0  0
    0.6920    0.8451   -1.5621 H   0  0  0  0  0  0  0  0  0  0  0  0
   -0.1128   -0.7398   -1.6139 H   0  0  0  0  0  0  0  0  0  0  0  0
   -1.7805    0.3525   -2.5733 H   0  0  0  0  0  0  0  0  0  0  0  0
   -1.4907    2.0642   -2.2511 H   0  0  0  0  0  0  0  0  0  0  0  0
   -3.7182    2.3418   -2.0443 H   0  0  0  0  0  0  0  0  0  0  0  0
   -3.9446    0.5757   -1.8754 H   0  0  0  0  0  0  0  0  0  0  0  0
   -4.4150    2.1870    0.2889 H   0  0  0  0  0  0  0  0  0  0  0  0
   -2.6787    2.4318    0.2324 H   0  0  0  0  0  0  0  0  0  0  0  0
   -3.1626    0.7299    1.8117 H   0  0  0  0  0  0  0  0  0  0  0  0
   -3.2120   -2.2196    1.4802 H   0  0  0  0  0  0  0  0  0  0  0  0
   -5.0063   -3.8323    1.3013 H   0  0  0  0  0  0  0  0  0  0  0  0
   -7.2029   -3.1347    0.3058 H   0  0  0  0  0  0  0  0  0  0  0  0
   -7.5057   -0.8705   -0.4623 H   0  0  0  0  0  0  0  0  0  0  0  0
   -5.7201    0.7502   -0.2885 H   0  0  0  0  0  0  0  0  0  0  0  0
  1  2  1  0
  2  3  1  0
  3  4  1  0
  4  5  2  0
  5  6  1  0
  6  7  2  0
  7  8  1  0
  8  9  2  0
  9 10  1  0
 10 11  1  0
 11 12  2  0
 10 13  1  0
 13 14  1  0
 14 15  1  0
 15 16  1  0
 16 17  1  0
 17 18  1  0
 17 19  1  0
 19 20  1  0
 20 21  1  0
 21 22  1  0
 22 23  1  0
 23 24  2  0
 24 25  1  0
 25 26  2  0
 26 27  1  0
 27 28  2  0
 11  3  1  0
 18 13  1  0
 28 23  1  0
  9  4  1  0
 22 16  1  0
  1 29  1  0
  1 30  1  0
  1 31  1  0
  2 32  1  0
  2 33  1  0
  5 34  1  0
  6 35  1  0
  7 36  1  0
  8 37  1  0
 13 38  1  1
 14 39  1  0
 14 40  1  0
 15 41  1  0
 15 42  1  0
 17 43  1  1
 18 44  1  0
 18 45  1  0
 19 46  1  0
 19 47  1  0
 20 48  1  0
 20 49  1  0
 21 50  1  0
 21 51  1  0
 22 52  1  1
 24 53  1  0
 25 54  1  0
 26 55  1  0
 27 56  1  0
 28 57  1  0
M  END
>  <Ligand ID>  (1) 
LIG0004402

>  <Ligand>  (1) 
SR-14137

>  <SMILES>  (1) 
CCn1c2ccccc2n(c1=O)[C@H]1CCN2[C@@H](C1)CCC[C@H]2c1ccccc1

>  <CID>  (1) 
44297697.0

>  <ChEMBL ID>  (1) 
nan

>  <InChiKey>  (1) 
RTCXPSZQJKHURF-HKBOAZHASA-N

>  <InChi>  (1) 
InChI=1S/C24H29N3O/c1-2-25-22-12-6-7-13-23(22)27(24(25)28)20-15-16-26-19(17-20)11-8-14-21(26)18-9-4-3-5-10-18/h3-7,9-10,12-13,19-21H,2,8,11,14-17H2,1H3/t19-,20+,21+/m1/s1

>  <IUPAC Name>  (1) 
1-[(2S,6S,9aR)-6-phenyl-2,3,4,6,7,8,9,9a-octahydro-1H-quinolizin-2-yl]-3-ethylbenzimidazol-2-one

$$$$
