
     RDKit          3D

 76 78  0  0  0  0  0  0  0  0999 V2000
   -2.2125    0.9640   -4.2897 C   0  0  0  0  0  0  0  0  0  0  0  0
   -1.7712    0.8433   -2.8948 N   0  0  0  0  0  0  0  0  0  0  0  0
   -2.6000    0.1412   -1.9793 C   0  0  0  0  0  0  0  0  0  0  0  0
   -3.6941   -0.3384   -2.4509 O   0  0  0  0  0  0  0  0  0  0  0  0
   -2.2378   -0.0451   -0.5362 C   0  0  1  0  0  0  0  0  0  0  0  0
   -0.9437    0.5745   -0.2410 N   0  0  0  0  0  0  0  0  0  0  0  0
    0.2573   -0.1735   -0.1391 C   0  0  0  0  0  0  0  0  0  0  0  0
    0.3172   -1.4251   -0.3075 O   0  0  0  0  0  0  0  0  0  0  0  0
    1.4903    0.6299    0.1932 C   0  0  1  0  0  0  0  0  0  0  0  0
    2.6659   -0.2207    0.2137 N   0  0  0  0  0  0  0  0  0  0  0  0
    2.8147   -1.0342    1.4024 C   0  0  0  0  0  0  0  0  0  0  0  0
    1.9404   -0.9576    2.2739 O   0  0  0  0  0  0  0  0  0  0  0  0
    4.0017   -1.9355    1.5460 C   0  0  1  0  0  0  0  0  0  0  0  0
    3.9069   -2.9653    0.4262 C   0  0  0  0  0  0  0  0  0  0  0  0
    5.0751   -3.8640    0.5687 C   0  0  0  0  0  0  0  0  0  0  0  0
    6.2525   -3.5225   -0.0837 C   0  0  0  0  0  0  0  0  0  0  0  0
    7.3932   -4.3339    0.0058 C   0  0  0  0  0  0  0  0  0  0  0  0
    7.3234   -5.5065    0.7705 C   0  0  0  0  0  0  0  0  0  0  0  0
    6.1353   -5.8487    1.4266 C   0  0  0  0  0  0  0  0  0  0  0  0
    5.0141   -5.0313    1.3286 C   0  0  0  0  0  0  0  0  0  0  0  0
    5.1850   -1.0805    1.3011 N   0  0  0  0  0  0  0  0  0  0  0  0
    1.6495    1.8624   -0.5925 C   0  0  0  0  0  0  0  0  0  0  0  0
    2.8933    2.6022   -0.1964 C   0  0  0  0  0  0  0  0  0  0  0  0
    2.7639    2.9932    1.2681 C   0  0  0  0  0  0  0  0  0  0  0  0
    1.5921    3.7964    1.3742 N   0  0  0  0  0  0  0  0  0  0  0  0
    1.6366    5.0593    1.3558 C   0  0  0  0  0  0  0  0  0  0  0  0
    2.9313    5.6431    1.2243 N   0  0  0  0  0  0  0  0  0  0  0  0
    0.4762    5.9058    1.4559 N   0  0  0  0  0  0  0  0  0  0  0  0
   -3.2124    0.5517    0.4166 C   0  0  0  0  0  0  0  0  0  0  0  0
   -4.5844    0.0299    0.3344 C   0  0  0  0  0  0  0  0  0  0  0  0
   -4.9589   -1.0720    1.0812 C   0  0  0  0  0  0  0  0  0  0  0  0
   -6.2699   -1.4930    0.9475 C   0  0  0  0  0  0  0  0  0  0  0  0
   -7.1659   -0.8593    0.1202 C   0  0  0  0  0  0  0  0  0  0  0  0
   -6.7684    0.2514   -0.6248 C   0  0  0  0  0  0  0  0  0  0  0  0
   -5.4705    0.6814   -0.5041 C   0  0  0  0  0  0  0  0  0  0  0  0
   -7.6653    0.9070   -1.4765 C   0  0  0  0  0  0  0  0  0  0  0  0
   -8.9478    0.4377   -1.5614 C   0  0  0  0  0  0  0  0  0  0  0  0
   -9.3566   -0.6613   -0.8286 C   0  0  0  0  0  0  0  0  0  0  0  0
   -8.4818   -1.3064    0.0034 C   0  0  0  0  0  0  0  0  0  0  0  0
   -3.3292    1.0618   -4.2963 H   0  0  0  0  0  0  0  0  0  0  0  0
   -1.7799    1.8438   -4.7479 H   0  0  0  0  0  0  0  0  0  0  0  0
   -1.9895   -0.0038   -4.8151 H   0  0  0  0  0  0  0  0  0  0  0  0
   -0.8563    1.2734   -2.5678 H   0  0  0  0  0  0  0  0  0  0  0  0
   -2.1534   -1.1345   -0.3994 H   0  0  0  0  0  0  0  0  0  0  0  0
   -0.9891    1.6202   -0.1122 H   0  0  0  0  0  0  0  0  0  0  0  0
    1.2905    0.8942    1.2700 H   0  0  0  0  0  0  0  0  0  0  0  0
    3.3552   -0.2517   -0.5769 H   0  0  0  0  0  0  0  0  0  0  0  0
    3.9776   -2.3554    2.5490 H   0  0  0  0  0  0  0  0  0  0  0  0
    3.9964   -2.4537   -0.5771 H   0  0  0  0  0  0  0  0  0  0  0  0
    2.9642   -3.4929    0.5055 H   0  0  0  0  0  0  0  0  0  0  0  0
    6.3427   -2.6185   -0.6883 H   0  0  0  0  0  0  0  0  0  0  0  0
    8.3245   -4.0673   -0.5050 H   0  0  0  0  0  0  0  0  0  0  0  0
    8.2104   -6.1411    0.8461 H   0  0  0  0  0  0  0  0  0  0  0  0
    6.0931   -6.7644    2.0067 H   0  0  0  0  0  0  0  0  0  0  0  0
    4.1169   -5.3020    1.8412 H   0  0  0  0  0  0  0  0  0  0  0  0
    5.4172   -0.6389    2.2286 H   0  0  0  0  0  0  0  0  0  0  0  0
    4.9398   -0.2964    0.6569 H   0  0  0  0  0  0  0  0  0  0  0  0
    1.7235    1.6987   -1.6995 H   0  0  0  0  0  0  0  0  0  0  0  0
    0.7748    2.5327   -0.4241 H   0  0  0  0  0  0  0  0  0  0  0  0
    3.8102    1.9401   -0.3045 H   0  0  0  0  0  0  0  0  0  0  0  0
    3.0714    3.5177   -0.7682 H   0  0  0  0  0  0  0  0  0  0  0  0
    2.7033    2.1492    1.9579 H   0  0  0  0  0  0  0  0  0  0  0  0
    3.7009    3.5580    1.5593 H   0  0  0  0  0  0  0  0  0  0  0  0
    3.5189    5.6565    2.0891 H   0  0  0  0  0  0  0  0  0  0  0  0
    3.2723    6.0356    0.3070 H   0  0  0  0  0  0  0  0  0  0  0  0
    0.4345    6.6788    0.7290 H   0  0  0  0  0  0  0  0  0  0  0  0
   -0.2565    5.7689    2.1832 H   0  0  0  0  0  0  0  0  0  0  0  0
   -3.1674    1.6619    0.2929 H   0  0  0  0  0  0  0  0  0  0  0  0
   -2.8167    0.3688    1.4397 H   0  0  0  0  0  0  0  0  0  0  0  0
   -4.2680   -1.5913    1.7561 H   0  0  0  0  0  0  0  0  0  0  0  0
   -6.6007   -2.3622    1.5225 H   0  0  0  0  0  0  0  0  0  0  0  0
   -5.1214    1.5307   -1.0484 H   0  0  0  0  0  0  0  0  0  0  0  0
   -7.2844    1.7736   -2.0405 H   0  0  0  0  0  0  0  0  0  0  0  0
   -9.6795    0.9062   -2.1988 H   0  0  0  0  0  0  0  0  0  0  0  0
  -10.3713   -1.0242   -0.9040 H   0  0  0  0  0  0  0  0  0  0  0  0
   -8.7493   -2.1722    0.6019 H   0  0  0  0  0  0  0  0  0  0  0  0
  1  2  1  0
  2  3  1  0
  3  4  2  0
  3  5  1  0
  5  6  1  0
  6  7  1  0
  7  8  2  0
  7  9  1  0
  9 10  1  0
 10 11  1  0
 11 12  2  0
 11 13  1  0
 13 14  1  0
 14 15  1  0
 15 16  2  0
 16 17  1  0
 17 18  2  0
 18 19  1  0
 19 20  2  0
 13 21  1  0
  9 22  1  0
 22 23  1  0
 23 24  1  0
 24 25  1  0
 25 26  2  3
 26 27  1  0
 26 28  1  0
  5 29  1  0
 29 30  1  0
 30 31  2  0
 31 32  1  0
 32 33  2  0
 33 34  1  0
 34 35  2  0
 34 36  1  0
 36 37  2  0
 37 38  1  0
 38 39  2  0
 20 15  1  0
 35 30  1  0
 39 33  1  0
  1 40  1  0
  1 41  1  0
  1 42  1  0
  2 43  1  0
  5 44  1  1
  6 45  1  0
  9 46  1  1
 10 47  1  0
 13 48  1  1
 14 49  1  0
 14 50  1  0
 16 51  1  0
 17 52  1  0
 18 53  1  0
 19 54  1  0
 20 55  1  0
 21 56  1  0
 21 57  1  0
 22 58  1  0
 22 59  1  0
 23 60  1  0
 23 61  1  0
 24 62  1  0
 24 63  1  0
 27 64  1  0
 27 65  1  0
 28 66  1  0
 28 67  1  0
 29 68  1  0
 29 69  1  0
 31 70  1  0
 32 71  1  0
 35 72  1  0
 36 73  1  0
 37 74  1  0
 38 75  1  0
 39 76  1  0
M  END
>  <Ligand ID>  (1) 
LIG0004649

>  <Ligand>  (1) 
CHEMBL387246

>  <SMILES>  (1) 
CNC(=O)[C@@H](NC(=O)[C@@H](NC(=O)[C@@H](Cc1ccccc1)N)CCCN=C(N)N)Cc1ccc2c(c1)cccc2

>  <CID>  (1) 
44415956.0

>  <ChEMBL ID>  (1) 
nan

>  <InChiKey>  (1) 
GXWODOLKOXXRLR-DSITVLBTSA-N

>  <InChi>  (1) 
InChI=1S/C29H37N7O3/c1-33-27(38)25(18-20-13-14-21-10-5-6-11-22(21)16-20)36-28(39)24(12-7-15-34-29(31)32)35-26(37)23(30)17-19-8-3-2-4-9-19/h2-6,8-11,13-14,16,23-25H,7,12,15,17-18,30H2,1H3,(H,33,38)(H,35,37)(H,36,39)(H4,31,32,34)/t23-,24+,25+/m1/s1

>  <IUPAC Name>  (1) 
(2S)-2-[[(2R)-2-amino-3-phenylpropanoyl]amino]-5-(diaminomethylideneamino)-N-[(2S)-1-(methylamino)-3-naphthalen-2-yl-1-oxopropan-2-yl]pentanamide

$$$$
