
     RDKit          3D

 47 50  0  0  0  0  0  0  0  0999 V2000
   -3.5078   -1.2537    2.5821 C   0  0  0  0  0  0  0  0  0  0  0  0
   -2.7975   -0.4977    1.5159 C   0  0  0  0  0  0  0  0  0  0  0  0
   -1.4840   -0.4983    1.2492 N   0  0  0  0  0  0  0  0  0  0  0  0
   -1.2198    0.3029    0.2186 N   0  0  0  0  0  0  0  0  0  0  0  0
   -2.3750    0.8447   -0.2070 C   0  0  0  0  0  0  0  0  0  0  0  0
   -3.3737    0.3531    0.5957 C   0  0  0  0  0  0  0  0  0  0  0  0
   -4.6913    0.9071    0.1885 C   0  0  1  0  0  0  0  0  0  0  0  0
   -4.4075    1.7409   -1.0152 C   0  0  1  0  0  0  0  0  0  0  0  0
   -2.9310    1.7777   -1.2313 C   0  0  0  0  0  0  0  0  0  0  0  0
   -5.2146    0.5275   -1.1685 C   0  0  0  0  0  0  0  0  0  0  0  0
   -4.6277   -0.7147   -1.8210 C   0  0  0  0  0  0  0  0  0  0  0  0
   -6.7031    0.6888   -1.3321 C   0  0  0  0  0  0  0  0  0  0  0  0
    0.0628    0.5511   -0.3451 C   0  0  0  0  0  0  0  0  0  0  0  0
    0.1894    1.3364   -1.3283 O   0  0  0  0  0  0  0  0  0  0  0  0
    1.2492   -0.0951    0.2015 C   0  0  0  0  0  0  0  0  0  0  0  0
    2.4334    0.1387   -0.3245 C   0  0  0  0  0  0  0  0  0  0  0  0
    3.6714   -0.4611    0.1550 C   0  0  0  0  0  0  0  0  0  0  0  0
    3.7296   -1.3401    1.2150 C   0  0  0  0  0  0  0  0  0  0  0  0
    4.9329   -1.8633    1.6081 C   0  0  0  0  0  0  0  0  0  0  0  0
    6.1249   -1.5578    0.9930 C   0  0  0  0  0  0  0  0  0  0  0  0
    6.0801   -0.6790   -0.0695 C   0  0  0  0  0  0  0  0  0  0  0  0
    4.8664   -0.1543   -0.4623 C   0  0  0  0  0  0  0  0  0  0  0  0
    7.5235   -0.1975   -0.9505 S   0  0  0  0  0  0  0  0  0  0  0  0
    8.5373   -1.2998   -0.8450 O   0  0  0  0  0  0  0  0  0  0  0  0
    7.2024    0.1296   -2.3777 O   0  0  0  0  0  0  0  0  0  0  0  0
    8.1652    1.2034   -0.1831 N   0  0  0  0  0  0  0  0  0  0  0  0
   -3.0351   -2.2704    2.6121 H   0  0  0  0  0  0  0  0  0  0  0  0
   -3.2948   -0.7676    3.5472 H   0  0  0  0  0  0  0  0  0  0  0  0
   -4.5676   -1.3478    2.3215 H   0  0  0  0  0  0  0  0  0  0  0  0
   -5.3508    1.3651    0.9387 H   0  0  0  0  0  0  0  0  0  0  0  0
   -4.9339    2.7090   -1.1633 H   0  0  0  0  0  0  0  0  0  0  0  0
   -2.5352    2.7845   -1.0668 H   0  0  0  0  0  0  0  0  0  0  0  0
   -2.6780    1.4532   -2.2534 H   0  0  0  0  0  0  0  0  0  0  0  0
   -5.4066   -1.4686   -2.0021 H   0  0  0  0  0  0  0  0  0  0  0  0
   -4.1071   -0.4919   -2.7612 H   0  0  0  0  0  0  0  0  0  0  0  0
   -3.8536   -1.1726   -1.1410 H   0  0  0  0  0  0  0  0  0  0  0  0
   -7.1922    0.6553   -0.3345 H   0  0  0  0  0  0  0  0  0  0  0  0
   -7.1483   -0.0984   -1.9725 H   0  0  0  0  0  0  0  0  0  0  0  0
   -6.9501    1.7103   -1.7369 H   0  0  0  0  0  0  0  0  0  0  0  0
    1.1483   -0.7664    1.0406 H   0  0  0  0  0  0  0  0  0  0  0  0
    2.4666    0.8206   -1.1628 H   0  0  0  0  0  0  0  0  0  0  0  0
    2.8374   -1.6249    1.7439 H   0  0  0  0  0  0  0  0  0  0  0  0
    4.9525   -2.5605    2.4543 H   0  0  0  0  0  0  0  0  0  0  0  0
    7.0617   -1.9635    1.2971 H   0  0  0  0  0  0  0  0  0  0  0  0
    4.8316    0.5317   -1.2919 H   0  0  0  0  0  0  0  0  0  0  0  0
    7.4018    1.6855    0.3513 H   0  0  0  0  0  0  0  0  0  0  0  0
    8.9181    0.9281    0.4660 H   0  0  0  0  0  0  0  0  0  0  0  0
  1  2  1  0
  2  3  2  0
  3  4  1  0
  4  5  1  0
  5  6  2  0
  6  7  1  0
  7  8  1  0
  8  9  1  0
  8 10  1  0
 10 11  1  0
 10 12  1  0
  4 13  1  0
 13 14  2  0
 13 15  1  0
 15 16  2  0
 16 17  1  0
 17 18  2  0
 18 19  1  0
 19 20  2  0
 20 21  1  0
 21 22  2  0
 21 23  1  0
 23 24  2  0
 23 25  2  0
 23 26  1  0
  6  2  1  0
 10  7  1  0
 22 17  1  0
  9  5  1  0
  1 27  1  0
  1 28  1  0
  1 29  1  0
  7 30  1  1
  8 31  1  1
  9 32  1  0
  9 33  1  0
 11 34  1  0
 11 35  1  0
 11 36  1  0
 12 37  1  0
 12 38  1  0
 12 39  1  0
 15 40  1  0
 16 41  1  0
 18 42  1  0
 19 43  1  0
 20 44  1  0
 22 45  1  0
 26 46  1  0
 26 47  1  0
M  END
>  <Ligand ID>  (1) 
LIG0003966

>  <Ligand>  (1) 
CHEMBL590135

>  <SMILES>  (1) 
Cc1nn(c2c1[C@H]1[C@@H](C2)C1(C)C)C(=O)/C=C/c1cccc(c1)S(=O)(=O)N

>  <CID>  (1) 
46224715.0

>  <ChEMBL ID>  (1) 
nan

>  <InChiKey>  (1) 
PUTFWTSPTVZYFR-WXVPVVBVSA-N

>  <InChi>  (1) 
InChI=1S/C19H21N3O3S/c1-11-17-15(10-14-18(17)19(14,2)3)22(21-11)16(23)8-7-12-5-4-6-13(9-12)26(20,24)25/h4-9,14,18H,10H2,1-3H3,(H2,20,24,25)/b8-7+/t14-,18-/m1/s1

>  <IUPAC Name>  (1) 
3-[(E)-3-oxo-3-[(2S,4R)-3,3,9-trimethyl-7,8-diazatricyclo[4.3.0.02,4]nona-1(6),8-dien-7-yl]prop-1-enyl]benzenesulfonamide

$$$$
