
     RDKit          3D

 44 46  0  0  0  0  0  0  0  0999 V2000
    3.9264   -1.2386    2.0102 O   0  0  0  0  0  0  0  0  0  0  0  0
    2.8013   -1.0441    1.4420 C   0  0  0  0  0  0  0  0  0  0  0  0
    1.6181   -1.6561    2.0497 C   0  0  0  0  0  0  0  0  0  0  0  0
    0.3784   -1.3887    1.3450 N   0  0  0  0  0  0  0  0  0  0  0  0
   -0.0344   -2.1956    0.3909 N   0  0  0  0  0  0  0  0  0  0  0  0
   -1.1798   -1.9953   -0.2978 C   0  0  0  0  0  0  0  0  0  0  0  0
   -1.6175   -2.9371   -1.3787 C   0  0  0  0  0  0  0  0  0  0  0  0
   -1.9880   -0.9105   -0.0262 C   0  0  0  0  0  0  0  0  0  0  0  0
   -1.5722   -0.0519    0.9717 C   0  0  0  0  0  0  0  0  0  0  0  0
   -0.3779   -0.3007    1.6576 C   0  0  0  0  0  0  0  0  0  0  0  0
   -0.0246    0.4910    2.5554 O   0  0  0  0  0  0  0  0  0  0  0  0
   -2.3709    1.1609    1.3531 C   0  0  0  0  0  0  0  0  0  0  0  0
   -3.5992    1.2635    0.5246 C   0  0  0  0  0  0  0  0  0  0  0  0
   -4.7474    0.6354    1.0057 C   0  0  0  0  0  0  0  0  0  0  0  0
   -5.9438    0.6632    0.3237 C   0  0  0  0  0  0  0  0  0  0  0  0
   -5.9850    1.3426   -0.8766 C   0  0  0  0  0  0  0  0  0  0  0  0
   -4.8568    1.9734   -1.3730 C   0  0  0  0  0  0  0  0  0  0  0  0
   -3.6527    1.9386   -0.6748 C   0  0  0  0  0  0  0  0  0  0  0  0
   -4.9487    2.6328   -2.5654 F   0  0  0  0  0  0  0  0  0  0  0  0
    2.7606   -0.2425    0.2486 N   0  0  0  0  0  0  0  0  0  0  0  0
    3.9804    0.3064   -0.2568 C   0  0  0  0  0  0  0  0  0  0  0  0
    4.6899   -0.4772   -1.1733 C   0  0  0  0  0  0  0  0  0  0  0  0
    5.8687   -0.0439   -1.7165 C   0  0  0  0  0  0  0  0  0  0  0  0
    6.3819    1.1986   -1.3581 C   0  0  0  0  0  0  0  0  0  0  0  0
    5.6686    1.9688   -0.4467 C   0  0  0  0  0  0  0  0  0  0  0  0
    4.4780    1.5208    0.0961 C   0  0  0  0  0  0  0  0  0  0  0  0
    8.0093    1.7564   -2.1310 Br  0  0  0  0  0  0  0  0  0  0  0  0
    1.7131   -2.7692    2.1967 H   0  0  0  0  0  0  0  0  0  0  0  0
    1.5611   -1.2704    3.1085 H   0  0  0  0  0  0  0  0  0  0  0  0
   -2.2852   -3.7348   -0.9989 H   0  0  0  0  0  0  0  0  0  0  0  0
   -2.0441   -2.3702   -2.2275 H   0  0  0  0  0  0  0  0  0  0  0  0
   -0.6862   -3.4674   -1.7345 H   0  0  0  0  0  0  0  0  0  0  0  0
   -2.9118   -0.7121   -0.5520 H   0  0  0  0  0  0  0  0  0  0  0  0
   -2.6567    1.0236    2.4141 H   0  0  0  0  0  0  0  0  0  0  0  0
   -1.7322    2.0634    1.2388 H   0  0  0  0  0  0  0  0  0  0  0  0
   -4.6951    0.0989    1.9640 H   0  0  0  0  0  0  0  0  0  0  0  0
   -6.7961    0.1543    0.7548 H   0  0  0  0  0  0  0  0  0  0  0  0
   -6.9400    1.3496   -1.3946 H   0  0  0  0  0  0  0  0  0  0  0  0
   -2.7683    2.4213   -1.0435 H   0  0  0  0  0  0  0  0  0  0  0  0
    1.8385   -0.0856   -0.2133 H   0  0  0  0  0  0  0  0  0  0  0  0
    4.3230   -1.4445   -1.4740 H   0  0  0  0  0  0  0  0  0  0  0  0
    6.3936   -0.6919   -2.4331 H   0  0  0  0  0  0  0  0  0  0  0  0
    6.0877    2.9329   -0.1826 H   0  0  0  0  0  0  0  0  0  0  0  0
    3.9361    2.1316    0.8031 H   0  0  0  0  0  0  0  0  0  0  0  0
  1  2  2  0
  2  3  1  0
  3  4  1  0
  4  5  1  0
  5  6  2  0
  6  7  1  0
  6  8  1  0
  8  9  2  0
  9 10  1  0
 10 11  2  0
  9 12  1  0
 12 13  1  0
 13 14  2  0
 14 15  1  0
 15 16  2  0
 16 17  1  0
 17 18  2  0
 17 19  1  0
  2 20  1  0
 20 21  1  0
 21 22  2  0
 22 23  1  0
 23 24  2  0
 24 25  1  0
 25 26  2  0
 24 27  1  0
 10  4  1  0
 18 13  1  0
 26 21  1  0
  3 28  1  0
  3 29  1  0
  7 30  1  0
  7 31  1  0
  7 32  1  0
  8 33  1  0
 12 34  1  0
 12 35  1  0
 14 36  1  0
 15 37  1  0
 16 38  1  0
 18 39  1  0
 20 40  1  0
 22 41  1  0
 23 42  1  0
 25 43  1  0
 26 44  1  0
M  END
>  <Ligand ID>  (1) 
LIG0003942

>  <Ligand>  (1) 
CHEMBL2391280

>  <SMILES>  (1) 
O=C(Cn1nc(C)cc(c1=O)Cc1cccc(c1)F)Nc1ccc(cc1)Br

>  <CID>  (1) 
71698967.0

>  <ChEMBL ID>  (1) 
nan

>  <InChiKey>  (1) 
AASNZCKMXHAVNS-UHFFFAOYSA-N

>  <InChi>  (1) 
InChI=1S/C20H17BrFN3O2/c1-13-9-15(10-14-3-2-4-17(22)11-14)20(27)25(24-13)12-19(26)23-18-7-5-16(21)6-8-18/h2-9,11H,10,12H2,1H3,(H,23,26)

>  <IUPAC Name>  (1) 
N-(4-bromophenyl)-2-[5-[(3-fluorophenyl)methyl]-3-methyl-6-oxopyridazin-1-yl]acetamide

$$$$
