
     RDKit          3D

132133  0  0  0  0  0  0  0  0999 V2000
   11.9588    0.9491   -1.8437 N   0  0  0  0  0  0  0  0  0  0  0  0
   11.1285    1.1391   -0.6294 C   0  0  0  0  0  0  0  0  0  0  0  0
    9.7934    0.5424   -0.8746 C   0  0  0  0  0  0  0  0  0  0  0  0
    8.8335    0.6255    0.3432 C   0  0  1  0  0  0  0  0  0  0  0  0
    8.6073    2.0177    0.7041 C   0  0  0  0  0  0  0  0  0  0  0  0
    7.4795    2.5310    0.4013 O   0  0  0  0  0  0  0  0  0  0  0  0
    9.5190    2.8702    1.3651 N   0  0  0  0  0  0  0  0  0  0  0  0
    9.0967    4.2371    1.6230 C   0  0  0  0  0  0  0  0  0  0  0  0
    8.7700    4.9850    0.3937 C   0  0  0  0  0  0  0  0  0  0  0  0
    8.3941    6.1956    0.5424 O   0  0  0  0  0  0  0  0  0  0  0  0
    8.8383    4.4729   -0.9192 N   0  0  0  0  0  0  0  0  0  0  0  0
    7.5884    0.0682   -0.2391 N   0  0  0  0  0  0  0  0  0  0  0  0
    7.4484   -1.3274   -0.1507 C   0  0  0  0  0  0  0  0  0  0  0  0
    8.4325   -1.9366    0.4360 O   0  0  0  0  0  0  0  0  0  0  0  0
    6.3771   -2.1749   -0.6234 C   0  0  2  0  0  0  0  0  0  0  0  0
    6.6891   -2.7304   -2.0294 C   0  0  0  0  0  0  0  0  0  0  0  0
    6.3003   -1.5240   -2.8741 C   0  0  0  0  0  0  0  0  0  0  0  0
    5.1204   -0.8860   -2.1631 C   0  0  0  0  0  0  0  0  0  0  0  0
    5.0762   -1.5400   -0.8744 N   0  0  0  0  0  0  0  0  0  0  0  0
    4.0127   -1.6771    0.0599 C   0  0  0  0  0  0  0  0  0  0  0  0
    4.1830   -2.3103    1.1614 O   0  0  0  0  0  0  0  0  0  0  0  0
    2.6463   -1.1321   -0.1344 C   0  0  2  0  0  0  0  0  0  0  0  0
    2.6384    0.3713   -0.0147 C   0  0  0  0  0  0  0  0  0  0  0  0
    1.0415    1.1304   -0.2566 S   0  0  0  0  0  0  0  0  0  0  0  0
   -0.3813    0.7915    1.2177 S   0  0  0  0  0  0  0  0  0  0  0  0
   -0.4725    1.9770    2.5379 C   0  0  0  0  0  0  0  0  0  0  0  0
   -0.9601    3.3398    2.1925 C   0  0  2  0  0  0  0  0  0  0  0  0
   -0.9040    4.1430    3.4310 N   0  0  0  0  0  0  0  0  0  0  0  0
   -2.3952    3.3568    1.7020 C   0  0  0  0  0  0  0  0  0  0  0  0
   -3.2873    3.9994    2.2851 O   0  0  0  0  0  0  0  0  0  0  0  0
   -2.8023    2.6475    0.5609 N   0  0  0  0  0  0  0  0  0  0  0  0
   -4.2438    2.6549    0.0610 C   0  0  1  0  0  0  0  0  0  0  0  0
   -4.1254    2.7418   -1.3798 C   0  0  0  0  0  0  0  0  0  0  0  0
   -5.2258    2.7949   -2.3473 C   0  0  0  0  0  0  0  0  0  0  0  0
   -6.1626    1.6613   -2.4869 C   0  0  0  0  0  0  0  0  0  0  0  0
   -6.1284    4.0359   -2.0678 C   0  0  0  0  0  0  0  0  0  0  0  0
   -4.6609    3.1109   -3.7535 C   0  0  0  0  0  0  0  0  0  0  0  0
   -4.8124    1.4907    0.7135 C   0  0  0  0  0  0  0  0  0  0  0  0
   -3.9924    0.9043    1.5383 O   0  0  0  0  0  0  0  0  0  0  0  0
   -6.0454    0.8370    0.6716 N   0  0  0  0  0  0  0  0  0  0  0  0
   -6.3043   -0.3256    1.5021 C   0  0  2  0  0  0  0  0  0  0  0  0
   -5.6346   -1.5695    1.0852 C   0  0  0  0  0  0  0  0  0  0  0  0
   -5.8272   -2.6398    1.6436 O   0  0  0  0  0  0  0  0  0  0  0  0
   -4.7045   -1.6079   -0.0058 N   0  0  0  0  0  0  0  0  0  0  0  0
   -3.9579   -2.8564   -0.3161 C   0  0  2  0  0  0  0  0  0  0  0  0
   -2.6453   -2.7035    0.4376 C   0  0  0  0  0  0  0  0  0  0  0  0
   -2.5741   -1.6986    1.1557 O   0  0  0  0  0  0  0  0  0  0  0  0
   -1.5415   -3.5565    0.4030 N   0  0  0  0  0  0  0  0  0  0  0  0
   -0.3873   -3.1364    1.2344 C   0  0  2  0  0  0  0  0  0  0  0  0
    0.6020   -2.4438    0.3566 C   0  0  0  0  0  0  0  0  0  0  0  0
    0.4605   -2.4657   -0.8675 O   0  0  0  0  0  0  0  0  0  0  0  0
    1.7309   -1.7302    0.8506 N   0  0  0  0  0  0  0  0  0  0  0  0
    0.1846   -4.3166    1.9306 C   0  0  0  0  0  0  0  0  0  0  0  0
   -0.8407   -4.9298    2.8013 C   0  0  0  0  0  0  0  0  0  0  0  0
   -1.9907   -4.4071    2.7900 O   0  0  0  0  0  0  0  0  0  0  0  0
   -0.5849   -6.0537    3.6244 N   0  0  0  0  0  0  0  0  0  0  0  0
   -3.5949   -2.9633   -1.7573 C   0  0  0  0  0  0  0  0  0  0  0  0
   -4.7394   -2.9597   -2.7216 C   0  0  0  0  0  0  0  0  0  0  0  0
   -5.6547   -4.0754   -2.5149 C   0  0  0  0  0  0  0  0  0  0  0  0
   -5.5355   -4.9226   -1.6141 O   0  0  0  0  0  0  0  0  0  0  0  0
   -6.7661   -4.2055   -3.4085 N   0  0  0  0  0  0  0  0  0  0  0  0
   -7.7440   -0.4113    1.8110 C   0  0  2  0  0  0  0  0  0  0  0  0
   -8.1677    0.8443    2.5543 C   0  0  0  0  0  0  0  0  0  0  0  0
   -9.6161    0.8370    2.9100 C   0  0  0  0  0  0  0  0  0  0  0  0
   -8.1406   -1.6543    2.5608 C   0  0  0  0  0  0  0  0  0  0  0  0
   11.5638    0.1573   -2.3949 H   0  0  0  0  0  0  0  0  0  0  0  0
   12.9423    0.7575   -1.5413 H   0  0  0  0  0  0  0  0  0  0  0  0
   10.9992    2.2627   -0.6114 H   0  0  0  0  0  0  0  0  0  0  0  0
   11.6314    0.7315    0.2423 H   0  0  0  0  0  0  0  0  0  0  0  0
    9.2628    0.9954   -1.7515 H   0  0  0  0  0  0  0  0  0  0  0  0
    9.9094   -0.5434   -1.0769 H   0  0  0  0  0  0  0  0  0  0  0  0
    9.2491   -0.0366    1.1183 H   0  0  0  0  0  0  0  0  0  0  0  0
   10.4486    2.4892    1.6521 H   0  0  0  0  0  0  0  0  0  0  0  0
    8.2237    4.1939    2.3235 H   0  0  0  0  0  0  0  0  0  0  0  0
    9.8957    4.7943    2.1794 H   0  0  0  0  0  0  0  0  0  0  0  0
    7.9962    4.3766   -1.5567 H   0  0  0  0  0  0  0  0  0  0  0  0
    9.7385    4.1584   -1.3501 H   0  0  0  0  0  0  0  0  0  0  0  0
    6.8734    0.6409   -0.6745 H   0  0  0  0  0  0  0  0  0  0  0  0
    6.2842   -3.0719    0.0178 H   0  0  0  0  0  0  0  0  0  0  0  0
    7.7401   -2.9878   -2.0692 H   0  0  0  0  0  0  0  0  0  0  0  0
    6.0808   -3.6259   -2.2424 H   0  0  0  0  0  0  0  0  0  0  0  0
    7.1340   -0.8357   -3.0146 H   0  0  0  0  0  0  0  0  0  0  0  0
    6.0126   -1.9083   -3.8706 H   0  0  0  0  0  0  0  0  0  0  0  0
    5.1410    0.2034   -2.1411 H   0  0  0  0  0  0  0  0  0  0  0  0
    4.2244   -1.1486   -2.7813 H   0  0  0  0  0  0  0  0  0  0  0  0
    2.3372   -1.3670   -1.1682 H   0  0  0  0  0  0  0  0  0  0  0  0
    3.4235    0.7895   -0.6630 H   0  0  0  0  0  0  0  0  0  0  0  0
    2.9614    0.5985    1.0377 H   0  0  0  0  0  0  0  0  0  0  0  0
    0.5321    2.0995    2.9957 H   0  0  0  0  0  0  0  0  0  0  0  0
   -1.0955    1.5466    3.3753 H   0  0  0  0  0  0  0  0  0  0  0  0
   -0.3044    3.8190    1.4658 H   0  0  0  0  0  0  0  0  0  0  0  0
   -1.1887    3.4927    4.2204 H   0  0  0  0  0  0  0  0  0  0  0  0
   -1.6612    4.8812    3.4040 H   0  0  0  0  0  0  0  0  0  0  0  0
   -2.1038    2.1214    0.0537 H   0  0  0  0  0  0  0  0  0  0  0  0
   -4.7140    3.5407    0.5696 H   0  0  0  0  0  0  0  0  0  0  0  0
   -3.4498    3.6558   -1.6379 H   0  0  0  0  0  0  0  0  0  0  0  0
   -3.3975    1.9121   -1.7569 H   0  0  0  0  0  0  0  0  0  0  0  0
   -7.1871    1.8304   -2.0946 H   0  0  0  0  0  0  0  0  0  0  0  0
   -6.3505    1.4843   -3.5978 H   0  0  0  0  0  0  0  0  0  0  0  0
   -5.8033    0.6881   -2.0748 H   0  0  0  0  0  0  0  0  0  0  0  0
   -6.8069    4.0839   -2.9425 H   0  0  0  0  0  0  0  0  0  0  0  0
   -6.7319    3.8371   -1.1836 H   0  0  0  0  0  0  0  0  0  0  0  0
   -5.5415    4.9569   -2.0472 H   0  0  0  0  0  0  0  0  0  0  0  0
   -3.6872    3.5963   -3.7022 H   0  0  0  0  0  0  0  0  0  0  0  0
   -4.5905    2.1137   -4.2632 H   0  0  0  0  0  0  0  0  0  0  0  0
   -5.4321    3.6687   -4.3055 H   0  0  0  0  0  0  0  0  0  0  0  0
   -6.7831    1.1793    0.0901 H   0  0  0  0  0  0  0  0  0  0  0  0
   -5.7597   -0.1235    2.5088 H   0  0  0  0  0  0  0  0  0  0  0  0
   -4.6066   -0.7488   -0.5324 H   0  0  0  0  0  0  0  0  0  0  0  0
   -4.4367   -3.7477    0.0537 H   0  0  0  0  0  0  0  0  0  0  0  0
   -1.5765   -4.3853   -0.1619 H   0  0  0  0  0  0  0  0  0  0  0  0
   -0.6972   -2.3333    1.9618 H   0  0  0  0  0  0  0  0  0  0  0  0
    1.8295   -1.6794    1.8516 H   0  0  0  0  0  0  0  0  0  0  0  0
    1.0959   -4.0082    2.4828 H   0  0  0  0  0  0  0  0  0  0  0  0
    0.4664   -5.0641    1.1529 H   0  0  0  0  0  0  0  0  0  0  0  0
    0.3606   -6.1858    4.0664 H   0  0  0  0  0  0  0  0  0  0  0  0
   -1.3254   -6.7480    3.7962 H   0  0  0  0  0  0  0  0  0  0  0  0
   -3.0349   -3.9246   -1.9659 H   0  0  0  0  0  0  0  0  0  0  0  0
   -2.8414   -2.1799   -2.0226 H   0  0  0  0  0  0  0  0  0  0  0  0
   -5.2367   -1.9677   -2.7634 H   0  0  0  0  0  0  0  0  0  0  0  0
   -4.2861   -3.1011   -3.7443 H   0  0  0  0  0  0  0  0  0  0  0  0
   -6.5678   -3.9884   -4.4225 H   0  0  0  0  0  0  0  0  0  0  0  0
   -7.7146   -4.4965   -3.0931 H   0  0  0  0  0  0  0  0  0  0  0  0
   -8.3471   -0.3996    0.8584 H   0  0  0  0  0  0  0  0  0  0  0  0
   -7.5785    0.9683    3.4860 H   0  0  0  0  0  0  0  0  0  0  0  0
   -7.9830    1.7545    1.9522 H   0  0  0  0  0  0  0  0  0  0  0  0
   -9.8412    0.2820    3.8493 H   0  0  0  0  0  0  0  0  0  0  0  0
   -9.9323    1.8895    3.0929 H   0  0  0  0  0  0  0  0  0  0  0  0
  -10.2656    0.4858    2.0684 H   0  0  0  0  0  0  0  0  0  0  0  0
   -7.4418   -1.9111    3.3831 H   0  0  0  0  0  0  0  0  0  0  0  0
   -8.3262   -2.4973    1.8520 H   0  0  0  0  0  0  0  0  0  0  0  0
   -9.1291   -1.4528    3.0446 H   0  0  0  0  0  0  0  0  0  0  0  0
  1  2  1  0
  2  3  1  0
  3  4  1  0
  4  5  1  0
  5  6  2  0
  5  7  1  0
  7  8  1  0
  8  9  1  0
  9 10  2  0
  9 11  1  0
  4 12  1  0
 12 13  1  0
 13 14  2  0
 13 15  1  0
 15 16  1  0
 16 17  1  0
 17 18  1  0
 18 19  1  0
 19 20  1  0
 20 21  2  0
 20 22  1  0
 22 23  1  0
 23 24  1  0
 24 25  1  0
 25 26  1  0
 26 27  1  0
 27 28  1  0
 27 29  1  0
 29 30  2  0
 29 31  1  0
 31 32  1  0
 32 33  1  0
 33 34  1  0
 34 35  1  0
 34 36  1  0
 34 37  1  0
 32 38  1  0
 38 39  2  0
 38 40  1  0
 40 41  1  0
 41 42  1  0
 42 43  2  0
 42 44  1  0
 44 45  1  0
 45 46  1  0
 46 47  2  0
 46 48  1  0
 48 49  1  0
 49 50  1  0
 50 51  2  0
 50 52  1  0
 49 53  1  0
 53 54  1  0
 54 55  2  0
 54 56  1  0
 45 57  1  0
 57 58  1  0
 58 59  1  0
 59 60  2  0
 59 61  1  0
 41 62  1  0
 62 63  1  0
 63 64  1  0
 62 65  1  0
 19 15  1  0
 52 22  1  0
  1 66  1  0
  1 67  1  0
  2 68  1  0
  2 69  1  0
  3 70  1  0
  3 71  1  0
  4 72  1  1
  7 73  1  0
  8 74  1  0
  8 75  1  0
 11 76  1  0
 11 77  1  0
 12 78  1  0
 15 79  1  1
 16 80  1  0
 16 81  1  0
 17 82  1  0
 17 83  1  0
 18 84  1  0
 18 85  1  0
 22 86  1  6
 23 87  1  0
 23 88  1  0
 26 89  1  0
 26 90  1  0
 27 91  1  6
 28 92  1  0
 28 93  1  0
 31 94  1  0
 32 95  1  1
 33 96  1  0
 33 97  1  0
 35 98  1  0
 35 99  1  0
 35100  1  0
 36101  1  0
 36102  1  0
 36103  1  0
 37104  1  0
 37105  1  0
 37106  1  0
 40107  1  0
 41108  1  1
 44109  1  0
 45110  1  1
 48111  1  0
 49112  1  1
 52113  1  0
 53114  1  0
 53115  1  0
 56116  1  0
 56117  1  0
 57118  1  0
 57119  1  0
 58120  1  0
 58121  1  0
 61122  1  0
 61123  1  0
 62124  1  6
 63125  1  0
 63126  1  0
 64127  1  0
 64128  1  0
 64129  1  0
 65130  1  0
 65131  1  0
 65132  1  0
M  END
>  <Ligand ID>  (1) 
LIG0001583

>  <Ligand>  (1) 
CHEMBL1819552

>  <SMILES>  (1) 
NCC[C@@H](C(=O)NCC(=O)N)NC(=O)[C@@H]1CCCN1C(=O)[C@@H]1CSSC[C@H](N)C(=O)N[C@@H](CC(C)(C)C)C(=O)N[C@H](C(=O)N[C@H](C(=O)N[C@H](C(=O)N1)CC(=O)N)CCC(=O)N)[C@H](CC)C

>  <CID>  (1) 
53362911.0

>  <ChEMBL ID>  (1) 
nan

>  <InChiKey>  (1) 
BJOIQOYXLZOPSG-IHEWHSJKSA-N

>  <InChi>  (1) 
InChI=1S/C39H67N13O11S2/c1-6-19(2)30-37(62)47-21(9-10-27(42)53)33(58)48-23(14-28(43)54)34(59)50-25(18-65-64-17-20(41)31(56)49-24(35(60)51-30)15-39(3,4)5)38(63)52-13-7-8-26(52)36(61)46-22(11-12-40)32(57)45-16-29(44)55/h19-26,30H,6-18,40-41H2,1-5H3,(H2,42,53)(H2,43,54)(H2,44,55)(H,45,57)(H,46,61)(H,47,62)(H,48,58)(H,49,56)(H,50,59)(H,51,60)/t19-,20-,21-,22-,23-,24-,25-,26-,30-/m0/s1

>  <IUPAC Name>  (1) 
(2S)-N-[(2S)-4-amino-1-[(2-amino-2-oxoethyl)amino]-1-oxobutan-2-yl]-1-[(4R,7S,10S,13S,16S,19R)-19-amino-7-(2-amino-2-oxoethyl)-10-(3-amino-3-oxopropyl)-13-[(2S)-butan-2-yl]-16-(2,2-dimethylpropyl)-6,9,12,15,18-pentaoxo-1,2-dithia-5,8,11,14,17-pentazacycloicosane-4-carbonyl]pyrrolidine-2-carboxamide

$$$$
