
     RDKit          3D

 26 26  0  0  0  0  0  0  0  0999 V2000
    4.9178    1.1195   -1.2426 C   0  0  0  0  0  0  0  0  0  0  0  0
    4.2146    0.1824   -0.6136 C   0  0  0  0  0  0  0  0  0  0  0  0
    3.4321    0.5231    0.5971 C   0  0  0  0  0  0  0  0  0  0  0  0
    2.0542    0.2690    0.4459 O   0  0  0  0  0  0  0  0  0  0  0  0
    1.5501   -0.9981    0.1720 C   0  0  0  0  0  0  0  0  0  0  0  0
    2.3402   -1.9747    0.0499 O   0  0  0  0  0  0  0  0  0  0  0  0
    0.0782   -1.1258    0.0372 C   0  0  0  0  0  0  0  0  0  0  0  0
   -0.6052    0.0764    0.2094 O   0  0  0  0  0  0  0  0  0  0  0  0
   -1.9904    0.1089    0.1109 C   0  0  0  0  0  0  0  0  0  0  0  0
   -2.6513    1.2962    0.2821 C   0  0  0  0  0  0  0  0  0  0  0  0
   -4.0267    1.3375    0.1859 C   0  0  0  0  0  0  0  0  0  0  0  0
   -4.7431    0.1836   -0.0829 C   0  0  0  0  0  0  0  0  0  0  0  0
   -4.0791   -1.0251   -0.2578 C   0  0  0  0  0  0  0  0  0  0  0  0
   -2.7050   -1.0417   -0.1572 C   0  0  0  0  0  0  0  0  0  0  0  0
    4.9119    2.1342   -0.8597 H   0  0  0  0  0  0  0  0  0  0  0  0
    5.4899    0.8675   -2.1288 H   0  0  0  0  0  0  0  0  0  0  0  0
    4.2089   -0.8372   -0.9820 H   0  0  0  0  0  0  0  0  0  0  0  0
    3.8846   -0.0543    1.4328 H   0  0  0  0  0  0  0  0  0  0  0  0
    3.5347    1.5978    0.8409 H   0  0  0  0  0  0  0  0  0  0  0  0
   -0.3404   -1.8745    0.7420 H   0  0  0  0  0  0  0  0  0  0  0  0
   -0.1213   -1.5035   -0.9874 H   0  0  0  0  0  0  0  0  0  0  0  0
   -2.0782    2.1913    0.4919 H   0  0  0  0  0  0  0  0  0  0  0  0
   -4.5724    2.2773    0.3197 H   0  0  0  0  0  0  0  0  0  0  0  0
   -5.8239    0.1938   -0.1626 H   0  0  0  0  0  0  0  0  0  0  0  0
   -4.6611   -1.9227   -0.4688 H   0  0  0  0  0  0  0  0  0  0  0  0
   -2.2191   -2.0010   -0.2991 H   0  0  0  0  0  0  0  0  0  0  0  0
  1  2  2  0
  2  3  1  0
  3  4  1  0
  4  5  1  0
  5  6  2  0
  5  7  1  0
  7  8  1  0
  8  9  1  0
  9 10  2  0
 10 11  1  0
 11 12  2  0
 12 13  1  0
 13 14  2  0
 14  9  1  0
  1 15  1  0
  1 16  1  0
  2 17  1  0
  3 18  1  0
  3 19  1  0
  7 20  1  0
  7 21  1  0
 10 22  1  0
 11 23  1  0
 12 24  1  0
 13 25  1  0
 14 26  1  0
M  END
>  <Ligand ID>  (1) 
LIG0004986

>  <Ligand>  (1) 
Allyl phenoxyacetate

>  <SMILES>  (1) 
C=CCOC(=O)COc1ccccc1

>  <CID>  (1) 
24117.0

>  <ChEMBL ID>  (1) 
nan

>  <InChiKey>  (1) 
VUFZVGQUAVDKMC-UHFFFAOYSA-N

>  <InChi>  (1) 
InChI=1S/C11H12O3/c1-2-8-13-11(12)9-14-10-6-4-3-5-7-10/h2-7H,1,8-9H2

>  <IUPAC Name>  (1) 
prop-2-enyl 2-phenoxyacetate

$$$$
