
     RDKit          3D

 63 66  0  0  0  0  0  0  0  0999 V2000
    4.5971   -0.8405    0.4676 O   0  0  0  0  0  0  0  0  0  0  0  0
    4.9679   -0.7649   -0.7091 C   0  0  0  0  0  0  0  0  0  0  0  0
    4.1792    0.0059   -1.6095 N   0  0  0  0  0  0  0  0  0  0  0  0
    2.9916    0.6857   -1.2221 C   0  0  0  0  0  0  0  0  0  0  0  0
    2.9884    1.9807   -0.7441 C   0  0  0  0  0  0  0  0  0  0  0  0
    1.7624    2.5478   -0.3989 C   0  0  0  0  0  0  0  0  0  0  0  0
    0.5970    1.8229   -0.5371 C   0  0  0  0  0  0  0  0  0  0  0  0
    0.5958    0.5293   -1.0142 C   0  0  0  0  0  0  0  0  0  0  0  0
    1.8042   -0.0320   -1.3551 C   0  0  0  0  0  0  0  0  0  0  0  0
   -0.6836   -0.1794   -1.1397 C   0  0  0  0  0  0  0  0  0  0  0  0
   -1.0823   -0.9543    0.1007 C   0  0  0  0  0  0  0  0  0  0  0  0
   -2.3194   -1.6275   -0.0654 N   0  0  0  0  0  0  0  0  0  0  0  0
   -3.4971   -0.8475   -0.1803 C   0  0  0  0  0  0  0  0  0  0  0  0
   -3.9444   -0.1093    1.0351 C   0  0  0  0  0  0  0  0  0  0  0  0
   -5.2185    0.5979    0.6824 C   0  0  0  0  0  0  0  0  0  0  0  0
   -5.2078    1.9133    0.2705 C   0  0  0  0  0  0  0  0  0  0  0  0
   -6.3796    2.5994   -0.0571 C   0  0  0  0  0  0  0  0  0  0  0  0
   -7.5920    1.9544    0.0291 C   0  0  0  0  0  0  0  0  0  0  0  0
   -7.6339    0.6394    0.4378 C   0  0  0  0  0  0  0  0  0  0  0  0
   -6.4497   -0.0189    0.7580 C   0  0  0  0  0  0  0  0  0  0  0  0
   -6.5570   -1.3213    1.1532 C   0  0  0  0  0  0  0  0  0  0  0  0
   -7.7877   -1.9364    1.2254 C   0  0  0  0  0  0  0  0  0  0  0  0
   -8.9292   -1.2478    0.9002 C   0  0  0  0  0  0  0  0  0  0  0  0
  -10.0809   -1.7446    0.9434 O   0  0  0  0  0  0  0  0  0  0  0  0
   -8.8329    0.0496    0.5053 N   0  0  0  0  0  0  0  0  0  0  0  0
   -8.7362    2.6805   -0.3083 O   0  0  0  0  0  0  0  0  0  0  0  0
   -2.9686    0.7932    1.4371 O   0  0  0  0  0  0  0  0  0  0  0  0
    6.1243   -1.3943   -1.2190 N   0  0  0  0  0  0  0  0  0  0  0  0
    7.0319   -2.2053   -0.4347 C   0  0  0  0  0  0  0  0  0  0  0  0
    7.8864   -1.2935    0.3619 C   0  0  0  0  0  0  0  0  0  0  0  0
    7.6045   -0.8739    1.6346 C   0  0  0  0  0  0  0  0  0  0  0  0
    8.4710   -0.0174    2.2821 C   0  0  0  0  0  0  0  0  0  0  0  0
    9.6393    0.4517    1.6988 C   0  0  0  0  0  0  0  0  0  0  0  0
    9.9134    0.0141    0.3988 C   0  0  0  0  0  0  0  0  0  0  0  0
    9.0528   -0.8415   -0.2547 C   0  0  0  0  0  0  0  0  0  0  0  0
   10.4843    1.2955    2.3486 F   0  0  0  0  0  0  0  0  0  0  0  0
    4.4505    0.1057   -2.6251 H   0  0  0  0  0  0  0  0  0  0  0  0
    3.9067    2.5254   -0.6455 H   0  0  0  0  0  0  0  0  0  0  0  0
    1.6997    3.5730   -0.0139 H   0  0  0  0  0  0  0  0  0  0  0  0
   -0.3503    2.2988   -0.2574 H   0  0  0  0  0  0  0  0  0  0  0  0
    1.8106   -1.0339   -1.7251 H   0  0  0  0  0  0  0  0  0  0  0  0
   -0.6120   -0.8749   -2.0033 H   0  0  0  0  0  0  0  0  0  0  0  0
   -1.4852    0.5776   -1.3252 H   0  0  0  0  0  0  0  0  0  0  0  0
   -1.0092   -0.2930    0.9776 H   0  0  0  0  0  0  0  0  0  0  0  0
   -0.3153   -1.7620    0.3095 H   0  0  0  0  0  0  0  0  0  0  0  0
   -2.4582   -2.3186    0.7158 H   0  0  0  0  0  0  0  0  0  0  0  0
   -3.3634   -0.0758   -0.9872 H   0  0  0  0  0  0  0  0  0  0  0  0
   -4.3389   -1.5258   -0.5317 H   0  0  0  0  0  0  0  0  0  0  0  0
   -4.0873   -0.7944    1.9227 H   0  0  0  0  0  0  0  0  0  0  0  0
   -4.2981    2.4885    0.1769 H   0  0  0  0  0  0  0  0  0  0  0  0
   -6.3257    3.6488   -0.3814 H   0  0  0  0  0  0  0  0  0  0  0  0
   -5.6950   -1.8884    1.4117 H   0  0  0  0  0  0  0  0  0  0  0  0
   -7.8926   -2.9729    1.5377 H   0  0  0  0  0  0  0  0  0  0  0  0
   -9.6951    0.5780    0.2572 H   0  0  0  0  0  0  0  0  0  0  0  0
   -9.5176    2.7190    0.3542 H   0  0  0  0  0  0  0  0  0  0  0  0
   -2.6822    1.3951    0.7278 H   0  0  0  0  0  0  0  0  0  0  0  0
    6.3583   -1.2728   -2.2492 H   0  0  0  0  0  0  0  0  0  0  0  0
    6.4106   -2.8544    0.2383 H   0  0  0  0  0  0  0  0  0  0  0  0
    7.6694   -2.8154   -1.0874 H   0  0  0  0  0  0  0  0  0  0  0  0
    6.7215   -1.2095    2.1269 H   0  0  0  0  0  0  0  0  0  0  0  0
    8.2227    0.3045    3.3014 H   0  0  0  0  0  0  0  0  0  0  0  0
   10.7906    0.3280   -0.1205 H   0  0  0  0  0  0  0  0  0  0  0  0
    9.2953   -1.1614   -1.2619 H   0  0  0  0  0  0  0  0  0  0  0  0
  1  2  2  0
  2  3  1  0
  3  4  1  0
  4  5  2  0
  5  6  1  0
  6  7  2  0
  7  8  1  0
  8  9  2  0
  8 10  1  0
 10 11  1  0
 11 12  1  0
 12 13  1  0
 13 14  1  0
 14 15  1  0
 15 16  2  0
 16 17  1  0
 17 18  2  0
 18 19  1  0
 19 20  2  0
 20 21  1  0
 21 22  2  0
 22 23  1  0
 23 24  2  0
 23 25  1  0
 18 26  1  0
 14 27  1  0
  2 28  1  0
 28 29  1  0
 29 30  1  0
 30 31  2  0
 31 32  1  0
 32 33  2  0
 33 34  1  0
 34 35  2  0
 33 36  1  0
  9  4  1  0
 20 15  1  0
 35 30  1  0
 25 19  1  0
  3 37  1  0
  5 38  1  0
  6 39  1  0
  7 40  1  0
  9 41  1  0
 10 42  1  0
 10 43  1  0
 11 44  1  0
 11 45  1  0
 12 46  1  0
 13 47  1  0
 13 48  1  0
 14 49  1  0
 16 50  1  0
 17 51  1  0
 21 52  1  0
 22 53  1  0
 25 54  1  0
 26 55  1  0
 27 56  1  0
 28 57  1  0
 29 58  1  0
 29 59  1  0
 31 60  1  0
 32 61  1  0
 34 62  1  0
 35 63  1  0
M  END
>  <Ligand ID>  (1) 
LIG0005863

>  <Ligand>  (1) 
CHEMBL1682216

>  <SMILES>  (1) 
O=C(Nc1cccc(c1)CCNCC(c1ccc(c2c1ccc(=O)[nH]2)O)O)NCc1ccc(cc1)F

>  <CID>  (1) 
44237614.0

>  <ChEMBL ID>  (1) 
nan

>  <InChiKey>  (1) 
REXUUKCAGPTANY-UHFFFAOYSA-N

>  <InChi>  (1) 
InChI=1S/C27H27FN4O4/c28-19-6-4-18(5-7-19)15-30-27(36)31-20-3-1-2-17(14-20)12-13-29-16-24(34)21-8-10-23(33)26-22(21)9-11-25(35)32-26/h1-11,14,24,29,33-34H,12-13,15-16H2,(H,32,35)(H2,30,31,36)

>  <IUPAC Name>  (1) 
1-[(4-fluorophenyl)methyl]-3-[3-[2-[[2-hydroxy-2-(8-hydroxy-2-oxo-1H-quinolin-5-yl)ethyl]amino]ethyl]phenyl]urea

$$$$
