
     RDKit          3D

 81 84  0  0  0  0  0  0  0  0999 V2000
   -7.4843    1.1322    0.6639 O   0  0  0  0  0  0  0  0  0  0  0  0
   -6.6667    0.4363    1.3115 C   0  0  0  0  0  0  0  0  0  0  0  0
   -7.1963   -0.6622    2.0426 N   0  0  0  0  0  0  0  0  0  0  0  0
   -8.9264   -0.8840    1.9312 S   0  0  0  0  0  0  0  0  0  0  0  0
   -9.4496   -0.3268    0.6481 O   0  0  0  0  0  0  0  0  0  0  0  0
   -9.3070   -2.3292    2.0029 O   0  0  0  0  0  0  0  0  0  0  0  0
   -9.6775    0.0462    3.2504 C   0  0  0  0  0  0  0  0  0  0  0  0
  -11.0489   -0.0517    3.2636 F   0  0  0  0  0  0  0  0  0  0  0  0
   -9.2925    1.3641    3.1359 F   0  0  0  0  0  0  0  0  0  0  0  0
   -9.1490   -0.4674    4.4300 F   0  0  0  0  0  0  0  0  0  0  0  0
   -5.2138    0.6671    1.3726 C   0  0  0  0  0  0  0  0  0  0  0  0
   -4.6897    1.8151    0.6042 C   0  0  0  0  0  0  0  0  0  0  0  0
   -4.9033    1.8708   -0.8288 C   0  0  0  0  0  0  0  0  0  0  0  0
   -5.9067    2.7033   -1.3135 C   0  0  0  0  0  0  0  0  0  0  0  0
   -6.1948    2.8453   -2.6500 C   0  0  0  0  0  0  0  0  0  0  0  0
   -5.4798    2.1476   -3.5976 C   0  0  0  0  0  0  0  0  0  0  0  0
   -4.4845    1.3198   -3.1476 C   0  0  0  0  0  0  0  0  0  0  0  0
   -4.1900    1.1744   -1.7835 C   0  0  0  0  0  0  0  0  0  0  0  0
   -3.0904    0.2448   -1.4573 C   0  0  0  0  0  0  0  0  0  0  0  0
   -3.4881   -1.0566   -1.0357 N   0  0  0  0  0  0  0  0  0  0  0  0
   -4.2597   -1.7079   -2.0714 C   0  0  0  0  0  0  0  0  0  0  0  0
   -3.2476   -2.3249   -3.0445 C   0  0  0  0  0  0  0  0  0  0  0  0
   -1.9618   -2.3877   -2.2890 C   0  0  0  0  0  0  0  0  0  0  0  0
   -2.3838   -1.9777   -0.8977 C   0  0  1  0  0  0  0  0  0  0  0  0
   -1.2392   -1.3918   -0.1369 C   0  0  0  0  0  0  0  0  0  0  0  0
   -1.2107   -0.7124    0.9590 O   0  0  0  0  0  0  0  0  0  0  0  0
    0.0118   -0.3807    1.2951 C   0  0  0  0  0  0  0  0  0  0  0  0
    0.8515   -0.8917    0.3293 C   0  0  0  0  0  0  0  0  0  0  0  0
    0.0537   -1.5143   -0.5478 N   0  0  0  0  0  0  0  0  0  0  0  0
    2.3350   -0.7693    0.2838 C   0  0  0  0  0  0  0  0  0  0  0  0
    2.8451   -0.1498    1.2152 O   0  0  0  0  0  0  0  0  0  0  0  0
    3.0242   -1.3458   -0.7761 N   0  0  0  0  0  0  0  0  0  0  0  0
    4.4265   -1.3599   -1.0563 C   0  0  0  0  0  0  0  0  0  0  0  0
    5.1120   -0.0968   -1.3335 C   0  0  0  0  0  0  0  0  0  0  0  0
    5.2372    0.9979   -0.3931 C   0  0  0  0  0  0  0  0  0  0  0  0
    5.9329    0.8914    0.8890 C   0  0  0  0  0  0  0  0  0  0  0  0
    7.3822    0.5988    0.9350 C   0  0  0  0  0  0  0  0  0  0  0  0
    7.8344   -0.6958    0.3196 C   0  0  0  0  0  0  0  0  0  0  0  0
    9.1490   -1.0684    0.9991 C   0  0  0  0  0  0  0  0  0  0  0  0
    9.8233    0.1454    1.5843 C   0  0  0  0  0  0  0  0  0  0  0  0
    9.7012    1.3588    0.7235 C   0  0  0  0  0  0  0  0  0  0  0  0
    8.2692    1.6792    0.3813 C   0  0  0  0  0  0  0  0  0  0  0  0
   -5.7172    2.2470   -4.9149 F   0  0  0  0  0  0  0  0  0  0  0  0
   -6.5993   -1.3009    2.6124 H   0  0  0  0  0  0  0  0  0  0  0  0
   -4.5881   -0.2137    1.2484 H   0  0  0  0  0  0  0  0  0  0  0  0
   -5.0355    0.9508    2.4756 H   0  0  0  0  0  0  0  0  0  0  0  0
   -3.5710    1.8355    0.8305 H   0  0  0  0  0  0  0  0  0  0  0  0
   -5.0141    2.8110    1.0366 H   0  0  0  0  0  0  0  0  0  0  0  0
   -6.5278    3.3084   -0.6349 H   0  0  0  0  0  0  0  0  0  0  0  0
   -6.9828    3.5000   -3.0156 H   0  0  0  0  0  0  0  0  0  0  0  0
   -3.9103    0.7603   -3.9016 H   0  0  0  0  0  0  0  0  0  0  0  0
   -2.4294    0.1177   -2.3357 H   0  0  0  0  0  0  0  0  0  0  0  0
   -2.4568    0.7753   -0.7090 H   0  0  0  0  0  0  0  0  0  0  0  0
   -4.8562   -2.5571   -1.6712 H   0  0  0  0  0  0  0  0  0  0  0  0
   -4.8934   -1.0559   -2.6668 H   0  0  0  0  0  0  0  0  0  0  0  0
   -3.1203   -1.6979   -3.9422 H   0  0  0  0  0  0  0  0  0  0  0  0
   -3.6060   -3.3081   -3.4040 H   0  0  0  0  0  0  0  0  0  0  0  0
   -1.5722   -3.4357   -2.3111 H   0  0  0  0  0  0  0  0  0  0  0  0
   -1.1925   -1.6805   -2.7034 H   0  0  0  0  0  0  0  0  0  0  0  0
   -2.7401   -2.8497   -0.3310 H   0  0  0  0  0  0  0  0  0  0  0  0
    0.3254    0.1915    2.1704 H   0  0  0  0  0  0  0  0  0  0  0  0
    2.4079   -1.8600   -1.4998 H   0  0  0  0  0  0  0  0  0  0  0  0
    4.5828   -2.0648   -1.9321 H   0  0  0  0  0  0  0  0  0  0  0  0
    4.8869   -1.9577   -0.2175 H   0  0  0  0  0  0  0  0  0  0  0  0
    4.5309    0.3486   -2.2292 H   0  0  0  0  0  0  0  0  0  0  0  0
    6.0877   -0.3332   -1.8881 H   0  0  0  0  0  0  0  0  0  0  0  0
    4.2514    1.5005   -0.2314 H   0  0  0  0  0  0  0  0  0  0  0  0
    5.7908    1.8345   -0.9612 H   0  0  0  0  0  0  0  0  0  0  0  0
    5.7777    1.9016    1.3855 H   0  0  0  0  0  0  0  0  0  0  0  0
    5.4537    0.2132    1.6446 H   0  0  0  0  0  0  0  0  0  0  0  0
    7.6725    0.5205    2.0290 H   0  0  0  0  0  0  0  0  0  0  0  0
    7.1183   -1.5104    0.3372 H   0  0  0  0  0  0  0  0  0  0  0  0
    8.1498   -0.4601   -0.7404 H   0  0  0  0  0  0  0  0  0  0  0  0
    8.8668   -1.7304    1.8431 H   0  0  0  0  0  0  0  0  0  0  0  0
    9.8218   -1.6455    0.3416 H   0  0  0  0  0  0  0  0  0  0  0  0
   10.9243   -0.1145    1.5851 H   0  0  0  0  0  0  0  0  0  0  0  0
    9.5878    0.2877    2.6511 H   0  0  0  0  0  0  0  0  0  0  0  0
   10.3155    1.2217   -0.2078 H   0  0  0  0  0  0  0  0  0  0  0  0
   10.1820    2.2344    1.2333 H   0  0  0  0  0  0  0  0  0  0  0  0
    8.0314    2.6814    0.7867 H   0  0  0  0  0  0  0  0  0  0  0  0
    8.2011    1.6492   -0.7292 H   0  0  0  0  0  0  0  0  0  0  0  0
  1  2  2  0
  2  3  1  0
  3  4  1  0
  4  5  2  0
  4  6  2  0
  4  7  1  0
  7  8  1  0
  7  9  1  0
  7 10  1  0
  2 11  1  0
 11 12  1  0
 12 13  1  0
 13 14  2  0
 14 15  1  0
 15 16  2  0
 16 17  1  0
 17 18  2  0
 18 19  1  0
 19 20  1  0
 20 21  1  0
 21 22  1  0
 22 23  1  0
 23 24  1  0
 24 25  1  0
 25 26  1  0
 26 27  1  0
 27 28  2  0
 28 29  1  0
 28 30  1  0
 30 31  2  0
 30 32  1  0
 32 33  1  0
 33 34  1  0
 34 35  1  0
 35 36  1  0
 36 37  1  0
 37 38  1  0
 38 39  1  0
 39 40  1  0
 40 41  1  0
 41 42  1  0
 16 43  1  0
 18 13  1  0
 24 20  1  0
 29 25  2  0
 42 37  1  0
  3 44  1  0
 11 45  1  0
 11 46  1  0
 12 47  1  0
 12 48  1  0
 14 49  1  0
 15 50  1  0
 17 51  1  0
 19 52  1  0
 19 53  1  0
 21 54  1  0
 21 55  1  0
 22 56  1  0
 22 57  1  0
 23 58  1  0
 23 59  1  0
 24 60  1  1
 27 61  1  0
 32 62  1  0
 33 63  1  0
 33 64  1  0
 34 65  1  0
 34 66  1  0
 35 67  1  0
 35 68  1  0
 36 69  1  0
 36 70  1  0
 37 71  1  0
 38 72  1  0
 38 73  1  0
 39 74  1  0
 39 75  1  0
 40 76  1  0
 40 77  1  0
 41 78  1  0
 41 79  1  0
 42 80  1  0
 42 81  1  0
M  END
>  <Ligand ID>  (1) 
LIG0000503

>  <Ligand>  (1) 
SCHEMBL671511

>  <SMILES>  (1) 
O=C(NS(=O)(=O)C(F)(F)F)CCc1ccc(cc1CN1CCC[C@H]1c1occ(n1)C(=O)NCCCCC1CCCCC1)F

>  <CID>  (1) 
56649302.0

>  <ChEMBL ID>  (1) 
nan

>  <InChiKey>  (1) 
BJUUQOLZOPQZKM-VWLOTQADSA-N

>  <InChi>  (1) 
InChI=1S/C29H38F4N4O5S/c30-23-13-11-21(12-14-26(38)36-43(40,41)29(31,32)33)22(17-23)18-37-16-6-10-25(37)28-35-24(19-42-28)27(39)34-15-5-4-9-20-7-2-1-3-8-20/h11,13,17,19-20,25H,1-10,12,14-16,18H2,(H,34,39)(H,36,38)/t25-/m0/s1

>  <IUPAC Name>  (1) 
N-(4-cyclohexylbutyl)-2-[(2S)-1-[[5-fluoro-2-[3-oxo-3-(trifluoromethylsulfonylamino)propyl]phenyl]methyl]pyrrolidin-2-yl]-1,3-oxazole-4-carboxamide

$$$$
