
     RDKit          3D

 30 30  0  0  0  0  0  0  0  0999 V2000
    3.2287    0.0918   -1.0868 N   0  0  0  0  0  0  0  0  0  0  0  0
    2.3191    0.7923   -0.1526 C   0  0  0  0  0  0  0  0  0  0  0  0
    2.0668   -0.1638    0.9978 C   0  0  0  0  0  0  0  0  0  0  0  0
    1.4365   -1.5156    0.6156 C   0  0  0  0  0  0  0  0  0  0  0  0
    0.6078   -0.5394    1.2829 C   0  0  0  0  0  0  0  0  0  0  0  0
   -0.4282    0.3093    0.7141 C   0  0  0  0  0  0  0  0  0  0  0  0
   -1.4301   -0.3119   -0.0429 C   0  0  0  0  0  0  0  0  0  0  0  0
   -1.3970   -1.6641   -0.2456 O   0  0  0  0  0  0  0  0  0  0  0  0
   -2.2960   -2.4495   -0.9627 C   0  0  0  0  0  0  0  0  0  0  0  0
   -2.4673    0.4101   -0.6002 C   0  0  0  0  0  0  0  0  0  0  0  0
   -2.5569    1.7827   -0.4308 C   0  0  0  0  0  0  0  0  0  0  0  0
   -1.5856    2.4058    0.3073 C   0  0  0  0  0  0  0  0  0  0  0  0
   -0.5513    1.6691    0.8610 C   0  0  0  0  0  0  0  0  0  0  0  0
    0.6137    2.5452    1.8266 Cl  0  0  0  0  0  0  0  0  0  0  0  0
   -1.6662    4.1518    0.5445 Cl  0  0  0  0  0  0  0  0  0  0  0  0
    0.6925    0.0000    0.0000 Cl  0  0  0  0  0  0  0  0  0  0  0  0
    4.1887    0.2224   -0.6990 H   0  0  0  0  0  0  0  0  0  0  0  0
    3.2076    0.5978   -1.9993 H   0  0  0  0  0  0  0  0  0  0  0  0
    2.8698    1.6879    0.2142 H   0  0  0  0  0  0  0  0  0  0  0  0
    1.3586    1.0183   -0.6404 H   0  0  0  0  0  0  0  0  0  0  0  0
    2.8232   -0.2326    1.7771 H   0  0  0  0  0  0  0  0  0  0  0  0
    1.7860   -2.4177    1.2011 H   0  0  0  0  0  0  0  0  0  0  0  0
    1.4913   -1.7182   -0.4505 H   0  0  0  0  0  0  0  0  0  0  0  0
    0.4705   -0.7036    2.3966 H   0  0  0  0  0  0  0  0  0  0  0  0
   -3.0536   -2.8499   -0.2406 H   0  0  0  0  0  0  0  0  0  0  0  0
   -2.7147   -1.9844   -1.8556 H   0  0  0  0  0  0  0  0  0  0  0  0
   -1.7307   -3.3656   -1.2843 H   0  0  0  0  0  0  0  0  0  0  0  0
   -3.2299   -0.1240   -1.1865 H   0  0  0  0  0  0  0  0  0  0  0  0
   -3.3606    2.3559   -0.8610 H   0  0  0  0  0  0  0  0  0  0  0  0
   -0.6925    0.0000    0.0000 H   0  0  0  0  0  0  0  0  0  0  0  0
  1  2  1  0
  2  3  1  0
  3  4  1  0
  4  5  1  0
  5  6  1  0
  6  7  2  0
  7  8  1  0
  8  9  1  0
  7 10  1  0
 10 11  2  0
 11 12  1  0
 12 13  2  0
 13 14  1  0
 12 15  1  0
  5  3  1  0
 13  6  1  0
  1 17  1  0
  1 18  1  0
  2 19  1  0
  2 20  1  0
  3 21  1  0
  4 22  1  0
  4 23  1  0
  5 24  1  0
  9 25  1  0
  9 26  1  0
  9 27  1  0
 10 28  1  0
 11 29  1  0
 16 30  1  0
M  END
>  <Ligand ID>  (1) 
LIG0004716

>  <Ligand>  (1) 
CHEMBL3769454

>  <SMILES>  (1) 
NCC1CC1c1c(OC)ccc(c1Cl)Cl.Cl

>  <CID>  (1) 
127028423.0

>  <ChEMBL ID>  (1) 
nan

>  <InChiKey>  (1) 
JRDORSXUUGUHGN-UHFFFAOYSA-N

>  <InChi>  (1) 
InChI=1S/C11H13Cl2NO.ClH/c1-15-9-3-2-8(12)11(13)10(9)7-4-6(7)5-14;/h2-3,6-7H,4-5,14H2,1H3;1H

>  <IUPAC Name>  (1) 
[2-(2,3-dichloro-6-methoxyphenyl)cyclopropyl]methanamine;hydrochloride

$$$$
