
     RDKit          3D

 49 50  0  0  0  0  0  0  0  0999 V2000
   -1.7055    0.0806   -3.2888 O   0  0  0  0  0  0  0  0  0  0  0  0
   -1.6982    0.3968   -1.9275 C   0  0  2  0  0  0  0  0  0  0  0  0
   -1.3641   -0.7666   -1.0618 C   0  0  1  0  0  0  0  0  0  0  0  0
   -0.2386   -0.4693   -0.0899 C   0  0  0  0  0  0  0  0  0  0  0  0
   -0.5960    0.5790    0.7509 O   0  0  0  0  0  0  0  0  0  0  0  0
    0.7443    0.8133    1.7884 P   0  0  0  0  0  0  0  0  0  0  0  0
    0.4370    1.7952    2.8781 O   0  0  0  0  0  0  0  0  0  0  0  0
    2.0086    1.3650    0.8106 O   0  0  0  0  0  0  0  0  0  0  0  0
    3.4521    0.5641    1.0846 P   0  0  0  0  0  0  0  0  0  0  0  0
    3.6617    0.3496    2.5664 O   0  0  0  0  0  0  0  0  0  0  0  0
    4.7075    1.5240    0.4359 O   0  0  0  0  0  0  0  0  0  0  0  0
    5.3715    0.7345   -0.9008 P   0  0  0  0  0  0  0  0  0  0  0  0
    4.2182    0.1086   -1.6848 O   0  0  0  0  0  0  0  0  0  0  0  0
    6.4450   -0.4380   -0.3311 O   0  0  0  0  0  0  0  0  0  0  0  0
    7.3135    0.1976    0.9762 P   0  0  0  0  0  0  0  0  0  0  0  0
    6.8526    1.5876    1.3303 O   0  0  0  0  0  0  0  0  0  0  0  0
    7.1906   -0.7985    2.3437 O   0  0  0  0  0  0  0  0  0  0  0  0
    8.9426    0.3383    0.5019 O   0  0  0  0  0  0  0  0  0  0  0  0
    6.1554    1.8909   -1.8439 O   0  0  0  0  0  0  0  0  0  0  0  0
    3.4023   -0.9411    0.3180 O   0  0  0  0  0  0  0  0  0  0  0  0
    1.0952   -0.7215    2.4280 O   0  0  0  0  0  0  0  0  0  0  0  0
   -2.4806   -1.1133   -0.3378 O   0  0  0  0  0  0  0  0  0  0  0  0
   -3.5880   -0.6171   -1.0128 C   0  0  2  0  0  0  0  0  0  0  0  0
   -3.1254    0.7130   -1.5296 C   0  0  2  0  0  0  0  0  0  0  0  0
   -3.8589    1.0890   -2.6749 O   0  0  0  0  0  0  0  0  0  0  0  0
   -4.7667   -0.5862   -0.2132 N   0  0  0  0  0  0  0  0  0  0  0  0
   -5.9597   -0.4631   -0.8658 C   0  0  0  0  0  0  0  0  0  0  0  0
   -7.1604   -0.4217   -0.2118 C   0  0  0  0  0  0  0  0  0  0  0  0
   -7.1705   -0.5077    1.1667 C   0  0  0  0  0  0  0  0  0  0  0  0
   -8.2756   -0.4689    1.7601 O   0  0  0  0  0  0  0  0  0  0  0  0
   -5.9924   -0.6289    1.8062 N   0  0  0  0  0  0  0  0  0  0  0  0
   -4.8139   -0.6668    1.1196 C   0  0  0  0  0  0  0  0  0  0  0  0
   -3.4065   -0.8143    1.9260 S   0  0  0  0  0  0  0  0  0  0  0  0
   -1.5455   -0.8635   -3.4769 H   0  0  0  0  0  0  0  0  0  0  0  0
   -1.0232    1.2623   -1.8015 H   0  0  0  0  0  0  0  0  0  0  0  0
   -1.0038   -1.5984   -1.7205 H   0  0  0  0  0  0  0  0  0  0  0  0
   -0.0352   -1.3367    0.5694 H   0  0  0  0  0  0  0  0  0  0  0  0
    0.7254   -0.2585   -0.6278 H   0  0  0  0  0  0  0  0  0  0  0  0
    6.7851   -0.3190    3.0954 H   0  0  0  0  0  0  0  0  0  0  0  0
    8.9967    1.0898   -0.1242 H   0  0  0  0  0  0  0  0  0  0  0  0
    6.6525    2.5285   -1.2855 H   0  0  0  0  0  0  0  0  0  0  0  0
    3.9986   -1.6072    0.7368 H   0  0  0  0  0  0  0  0  0  0  0  0
    1.6265   -1.2705    1.8237 H   0  0  0  0  0  0  0  0  0  0  0  0
   -3.7237   -1.2708   -1.9077 H   0  0  0  0  0  0  0  0  0  0  0  0
   -3.1815    1.5193   -0.7883 H   0  0  0  0  0  0  0  0  0  0  0  0
   -4.0321    2.0618   -2.6273 H   0  0  0  0  0  0  0  0  0  0  0  0
   -5.9748   -0.3932   -1.9612 H   0  0  0  0  0  0  0  0  0  0  0  0
   -8.0926   -0.3221   -0.7753 H   0  0  0  0  0  0  0  0  0  0  0  0
   -5.9694   -0.6964    2.8541 H   0  0  0  0  0  0  0  0  0  0  0  0
  1  2  1  0
  2  3  1  0
  3  4  1  0
  4  5  1  0
  5  6  1  0
  6  7  2  0
  6  8  1  0
  8  9  1  0
  9 10  2  0
  9 11  1  0
 11 12  1  0
 12 13  2  0
 12 14  1  0
 14 15  1  0
 15 16  2  0
 15 17  1  0
 15 18  1  0
 12 19  1  0
  9 20  1  0
  6 21  1  0
  3 22  1  0
 22 23  1  0
 23 24  1  0
 24 25  1  0
 23 26  1  0
 26 27  1  0
 27 28  2  0
 28 29  1  0
 29 30  2  0
 29 31  1  0
 31 32  1  0
 32 33  2  0
 24  2  1  0
 32 26  1  0
  1 34  1  0
  2 35  1  6
  3 36  1  6
  4 37  1  0
  4 38  1  0
 17 39  1  0
 18 40  1  0
 19 41  1  0
 20 42  1  0
 21 43  1  0
 23 44  1  6
 24 45  1  1
 25 46  1  0
 27 47  1  0
 28 48  1  0
 31 49  1  0
M  END
>  <Ligand ID>  (1) 
LIG0002843

>  <Ligand>  (1) 
CHEMBL482485

>  <SMILES>  (1) 
O[C@@H]1[C@@H](COP(=O)(OP(=O)(OP(=O)(OP(=O)(O)O)O)O)O)O[C@H]([C@@H]1O)n1ccc(=O)[nH]c1=S

>  <CID>  (1) 
44586025.0

>  <ChEMBL ID>  (1) 
nan

>  <InChiKey>  (1) 
ULAQHHDKUXIVNV-XVFCMESISA-N

>  <InChi>  (1) 
InChI=1S/C9H16N2O17P4S/c12-5-1-2-11(9(33)10-5)8-7(14)6(13)4(25-8)3-24-30(18,19)27-32(22,23)28-31(20,21)26-29(15,16)17/h1-2,4,6-8,13-14H,3H2,(H,18,19)(H,20,21)(H,22,23)(H,10,12,33)(H2,15,16,17)/t4-,6-,7-,8-/m1/s1

>  <IUPAC Name>  (1) 
[[(2R,3S,4R,5R)-3,4-dihydroxy-5-(4-oxo-2-sulfanylidenepyrimidin-1-yl)oxolan-2-yl]methoxy-hydroxyphosphoryl] [hydroxy(phosphonooxy)phosphoryl] hydrogen phosphate

$$$$
