
     RDKit          3D

 59 61  0  0  0  0  0  0  0  0999 V2000
   11.0068   -2.0054    0.6226 Cl  0  0  0  0  0  0  0  0  0  0  0  0
    9.9513   -0.6834    0.1395 C   0  0  0  0  0  0  0  0  0  0  0  0
   10.4594    0.4709   -0.4590 C   0  0  0  0  0  0  0  0  0  0  0  0
    9.5904    1.5034   -0.8301 C   0  0  0  0  0  0  0  0  0  0  0  0
    8.2206    1.3490   -0.5881 C   0  0  0  0  0  0  0  0  0  0  0  0
    7.7003    0.2241   -0.0012 C   0  0  0  0  0  0  0  0  0  0  0  0
    8.6115   -0.7783    0.3502 C   0  0  0  0  0  0  0  0  0  0  0  0
    6.2953   -0.0157    0.3114 C   0  0  0  0  0  0  0  0  0  0  0  0
    5.4653   -0.6512   -0.7584 C   0  0  0  0  0  0  0  0  0  0  0  0
    4.1443   -0.8444   -0.2207 N   0  0  0  0  0  0  0  0  0  0  0  0
    3.3590    0.3117    0.0280 C   0  0  0  0  0  0  0  0  0  0  0  0
    2.0857   -0.0443    0.7454 C   0  0  0  0  0  0  0  0  0  0  0  0
    1.1886   -1.0035   -0.0489 C   0  0  0  0  0  0  0  0  0  0  0  0
    0.1360   -1.3808    0.5225 O   0  0  0  0  0  0  0  0  0  0  0  0
   -0.9143   -1.7048    1.0871 C   0  0  0  0  0  0  0  0  0  0  0  0
   -2.3034   -1.4250    0.5026 C   0  0  0  0  0  0  0  0  0  0  0  0
   -2.4776   -0.0453    0.3272 N   0  0  0  0  0  0  0  0  0  0  0  0
   -3.7385    0.4568   -0.0826 C   0  0  0  0  0  0  0  0  0  0  0  0
   -4.8466    0.3962    0.9081 C   0  0  1  0  0  0  0  0  0  0  0  0
   -6.1039    0.9472    0.2943 C   0  0  0  0  0  0  0  0  0  0  0  0
   -6.3822    2.2845    0.2250 C   0  0  0  0  0  0  0  0  0  0  0  0
   -7.5961    2.6263   -0.3616 C   0  0  0  0  0  0  0  0  0  0  0  0
   -8.4893    1.7268   -0.8533 C   0  0  0  0  0  0  0  0  0  0  0  0
   -8.2284    0.3334   -0.7956 C   0  0  0  0  0  0  0  0  0  0  0  0
   -7.0105    0.0430   -0.2043 C   0  0  0  0  0  0  0  0  0  0  0  0
   -6.9210   -1.7919   -0.2482 S   0  0  0  0  0  0  0  0  0  0  0  0
   -8.6092   -1.9158   -1.0921 C   0  0  0  0  0  0  0  0  0  0  0  0
   -9.0995   -2.9905   -1.3869 O   0  0  0  0  0  0  0  0  0  0  0  0
   -8.9793   -0.6311   -1.2146 N   0  0  0  0  0  0  0  0  0  0  0  0
   -9.6610    2.2130   -1.4120 O   0  0  0  0  0  0  0  0  0  0  0  0
   -5.0854   -0.9048    1.2844 O   0  0  0  0  0  0  0  0  0  0  0  0
   11.5408    0.5608   -0.6364 H   0  0  0  0  0  0  0  0  0  0  0  0
    9.9828    2.4025   -1.2936 H   0  0  0  0  0  0  0  0  0  0  0  0
    7.5232    2.1415   -0.8682 H   0  0  0  0  0  0  0  0  0  0  0  0
    8.2377   -1.7018    0.8255 H   0  0  0  0  0  0  0  0  0  0  0  0
    5.8457    1.0125    0.4790 H   0  0  0  0  0  0  0  0  0  0  0  0
    6.1824   -0.5563    1.2673 H   0  0  0  0  0  0  0  0  0  0  0  0
    5.8304   -1.6512   -1.0642 H   0  0  0  0  0  0  0  0  0  0  0  0
    5.3841    0.0136   -1.6519 H   0  0  0  0  0  0  0  0  0  0  0  0
    4.2324   -1.3879    0.6660 H   0  0  0  0  0  0  0  0  0  0  0  0
    3.8771    1.1055    0.5867 H   0  0  0  0  0  0  0  0  0  0  0  0
    3.1326    0.7735   -0.9794 H   0  0  0  0  0  0  0  0  0  0  0  0
    2.3340   -0.5507    1.6996 H   0  0  0  0  0  0  0  0  0  0  0  0
    1.5550    0.8849    1.0064 H   0  0  0  0  0  0  0  0  0  0  0  0
    1.8826   -1.8814   -0.2952 H   0  0  0  0  0  0  0  0  0  0  0  0
    1.1226   -0.4984   -1.0659 H   0  0  0  0  0  0  0  0  0  0  0  0
   -0.9686   -2.8536    1.2636 H   0  0  0  0  0  0  0  0  0  0  0  0
   -0.9856   -1.3757    2.2061 H   0  0  0  0  0  0  0  0  0  0  0  0
   -2.3903   -2.0001   -0.4713 H   0  0  0  0  0  0  0  0  0  0  0  0
   -3.0788   -1.8608    1.1431 H   0  0  0  0  0  0  0  0  0  0  0  0
   -1.8746    0.6158    0.8235 H   0  0  0  0  0  0  0  0  0  0  0  0
   -3.5816    1.5285   -0.4177 H   0  0  0  0  0  0  0  0  0  0  0  0
   -4.0412   -0.0609   -1.0420 H   0  0  0  0  0  0  0  0  0  0  0  0
   -4.6698    1.0706    1.7912 H   0  0  0  0  0  0  0  0  0  0  0  0
   -5.6811    2.9914    0.6100 H   0  0  0  0  0  0  0  0  0  0  0  0
   -7.8358    3.6769   -0.4289 H   0  0  0  0  0  0  0  0  0  0  0  0
   -9.9451   -0.4643   -1.6864 H   0  0  0  0  0  0  0  0  0  0  0  0
  -10.1434    3.0301   -1.0103 H   0  0  0  0  0  0  0  0  0  0  0  0
   -5.2361   -1.0350    2.2404 H   0  0  0  0  0  0  0  0  0  0  0  0
  1  2  1  0
  2  3  2  0
  3  4  1  0
  4  5  2  0
  5  6  1  0
  6  7  2  0
  6  8  1  0
  8  9  1  0
  9 10  1  0
 10 11  1  0
 11 12  1  0
 12 13  1  0
 13 14  1  0
 14 15  1  0
 15 16  1  0
 16 17  1  0
 17 18  1  0
 18 19  1  0
 19 20  1  0
 20 21  2  0
 21 22  1  0
 22 23  2  0
 23 24  1  0
 24 25  2  0
 25 26  1  0
 26 27  1  0
 27 28  2  0
 27 29  1  0
 23 30  1  0
 19 31  1  0
  7  2  1  0
 25 20  1  0
 29 24  1  0
  3 32  1  0
  4 33  1  0
  5 34  1  0
  7 35  1  0
  8 36  1  0
  8 37  1  0
  9 38  1  0
  9 39  1  0
 10 40  1  0
 11 41  1  0
 11 42  1  0
 12 43  1  0
 12 44  1  0
 13 45  1  0
 13 46  1  0
 15 47  1  0
 15 48  1  0
 16 49  1  0
 16 50  1  0
 17 51  1  0
 18 52  1  0
 18 53  1  0
 19 54  1  1
 21 55  1  0
 22 56  1  0
 29 57  1  0
 30 58  1  0
 31 59  1  0
M  END
>  <Ligand ID>  (1) 
LIG0005841

>  <Ligand>  (1) 
CHEMBL1807832

>  <SMILES>  (1) 
Clc1cccc(c1)CCNCCCOCCNC[C@@H](c1ccc(c2c1sc(=O)[nH]2)O)O

>  <CID>  (1) 
16049377.0

>  <ChEMBL ID>  (1) 
nan

>  <InChiKey>  (1) 
SWIWUIRVOIOIIY-IBGZPJMESA-N

>  <InChi>  (1) 
InChI=1S/C22H28ClN3O4S/c23-16-4-1-3-15(13-16)7-9-24-8-2-11-30-12-10-25-14-19(28)17-5-6-18(27)20-21(17)31-22(29)26-20/h1,3-6,13,19,24-25,27-28H,2,7-12,14H2,(H,26,29)/t19-/m0/s1

>  <IUPAC Name>  (1) 
7-[(1R)-2-[2-[3-[2-(3-chlorophenyl)ethylamino]propoxy]ethylamino]-1-hydroxyethyl]-4-hydroxy-3H-1,3-benzothiazol-2-one

$$$$
