
     RDKit          3D

 43 44  0  0  0  0  0  0  0  0999 V2000
   -5.7758    0.2039    1.2448 C   0  0  0  0  0  0  0  0  0  0  0  0
   -4.5672    1.1200    1.2783 C   0  0  0  0  0  0  0  0  0  0  0  0
   -3.3465    0.4161    1.8446 C   0  0  0  0  0  0  0  0  0  0  0  0
   -2.9129   -1.0300    0.8392 S   0  0  0  0  0  0  0  0  0  0  0  0
   -2.3885   -0.3960   -0.7530 C   0  0  0  0  0  0  0  0  0  0  0  0
   -3.3126   -0.2175   -1.7155 N   0  0  0  0  0  0  0  0  0  0  0  0
   -2.9584    0.2595   -2.9316 C   0  0  0  0  0  0  0  0  0  0  0  0
   -3.8469    0.4144   -3.8091 O   0  0  0  0  0  0  0  0  0  0  0  0
   -1.6256    0.5506   -3.1376 C   0  0  0  0  0  0  0  0  0  0  0  0
   -0.6914    0.3598   -2.1342 C   0  0  0  0  0  0  0  0  0  0  0  0
   -1.0771   -0.1166   -0.9350 N   0  0  0  0  0  0  0  0  0  0  0  0
   -0.1545   -0.3436    0.1627 C   0  0  2  0  0  0  0  0  0  0  0  0
    0.8940    0.5576    0.2012 O   0  0  0  0  0  0  0  0  0  0  0  0
    2.0098   -0.1341    0.6607 C   0  0  1  0  0  0  0  0  0  0  0  0
    1.9008   -1.4044   -0.1790 C   0  0  2  0  0  0  0  0  0  0  0  0
    0.4402   -1.7280    0.0650 C   0  0  1  0  0  0  0  0  0  0  0  0
    0.3864   -2.3841    1.2825 O   0  0  0  0  0  0  0  0  0  0  0  0
    2.7572   -2.3929    0.2959 O   0  0  0  0  0  0  0  0  0  0  0  0
    3.2914    0.5898    0.3725 C   0  0  0  0  0  0  0  0  0  0  0  0
    4.3988   -0.1160    0.8380 O   0  0  0  0  0  0  0  0  0  0  0  0
    5.8623    0.6482    0.5265 P   0  0  0  0  0  0  0  0  0  0  0  0
    6.4392    0.2237   -0.8099 O   0  0  0  0  0  0  0  0  0  0  0  0
    5.7540    2.3251    0.5700 O   0  0  0  0  0  0  0  0  0  0  0  0
    6.9888    0.1675    1.7067 O   0  0  0  0  0  0  0  0  0  0  0  0
   -5.5052   -0.8373    1.0251 H   0  0  0  0  0  0  0  0  0  0  0  0
   -6.3502    0.3041    2.2022 H   0  0  0  0  0  0  0  0  0  0  0  0
   -6.4506    0.5912    0.4482 H   0  0  0  0  0  0  0  0  0  0  0  0
   -4.3807    1.5299    0.2770 H   0  0  0  0  0  0  0  0  0  0  0  0
   -4.8383    1.9664    1.9392 H   0  0  0  0  0  0  0  0  0  0  0  0
   -3.5140    0.1747    2.9113 H   0  0  0  0  0  0  0  0  0  0  0  0
   -2.5158    1.1626    1.7626 H   0  0  0  0  0  0  0  0  0  0  0  0
   -1.3247    0.9385   -4.1198 H   0  0  0  0  0  0  0  0  0  0  0  0
    0.3553    0.5891   -2.2981 H   0  0  0  0  0  0  0  0  0  0  0  0
   -0.7446   -0.3205    1.1254 H   0  0  0  0  0  0  0  0  0  0  0  0
    1.9420   -0.4439    1.7079 H   0  0  0  0  0  0  0  0  0  0  0  0
    2.0678   -1.1863   -1.2555 H   0  0  0  0  0  0  0  0  0  0  0  0
    0.0077   -2.3192   -0.7637 H   0  0  0  0  0  0  0  0  0  0  0  0
    0.3013   -1.7254    2.0275 H   0  0  0  0  0  0  0  0  0  0  0  0
    3.5828   -2.3492   -0.2806 H   0  0  0  0  0  0  0  0  0  0  0  0
    3.3492    0.8883   -0.6772 H   0  0  0  0  0  0  0  0  0  0  0  0
    3.2667    1.5273    0.9963 H   0  0  0  0  0  0  0  0  0  0  0  0
    4.9369    2.6700    0.1418 H   0  0  0  0  0  0  0  0  0  0  0  0
    7.3489   -0.7338    1.5199 H   0  0  0  0  0  0  0  0  0  0  0  0
  1  2  1  0
  2  3  1  0
  3  4  1  0
  4  5  1  0
  5  6  2  0
  6  7  1  0
  7  8  2  0
  7  9  1  0
  9 10  2  0
 10 11  1  0
 11 12  1  0
 12 13  1  0
 13 14  1  0
 14 15  1  0
 15 16  1  0
 16 17  1  0
 15 18  1  0
 14 19  1  0
 19 20  1  0
 20 21  1  0
 21 22  2  0
 21 23  1  0
 21 24  1  0
 11  5  1  0
 16 12  1  0
  1 25  1  0
  1 26  1  0
  1 27  1  0
  2 28  1  0
  2 29  1  0
  3 30  1  0
  3 31  1  0
  9 32  1  0
 10 33  1  0
 12 34  1  1
 14 35  1  1
 15 36  1  6
 16 37  1  6
 17 38  1  0
 18 39  1  0
 19 40  1  0
 19 41  1  0
 23 42  1  0
 24 43  1  0
M  END
>  <Ligand ID>  (1) 
LIG0004361

>  <Ligand>  (1) 
CHEMBL1767419

>  <SMILES>  (1) 
CCCSc1nc(=O)ccn1[C@@H]1O[C@@H]([C@H]([C@H]1O)O)COP(=O)(O)O

>  <CID>  (1) 
52952396.0

>  <ChEMBL ID>  (1) 
nan

>  <InChiKey>  (1) 
FENPKUDFWRAYIO-QCNRFFRDSA-N

>  <InChi>  (1) 
InChI=1S/C12H19N2O8PS/c1-2-5-24-12-13-8(15)3-4-14(12)11-10(17)9(16)7(22-11)6-21-23(18,19)20/h3-4,7,9-11,16-17H,2,5-6H2,1H3,(H2,18,19,20)/t7-,9-,10-,11-/m1/s1

>  <IUPAC Name>  (1) 
[(2R,3S,4R,5R)-3,4-dihydroxy-5-(4-oxo-2-propylsulfanylpyrimidin-1-yl)oxolan-2-yl]methyl dihydrogen phosphate

$$$$
