
     RDKit          3D

 52 55  0  0  0  0  0  0  0  0999 V2000
    9.4616   -1.4047    2.3562 O   0  0  0  0  0  0  0  0  0  0  0  0
    8.2337   -1.2794    1.7042 C   0  0  0  0  0  0  0  0  0  0  0  0
    7.5709   -2.2698    1.3021 O   0  0  0  0  0  0  0  0  0  0  0  0
    7.7514    0.1328    1.5129 C   0  0  0  0  0  0  0  0  0  0  0  0
    6.4429    0.1530    0.8129 C   0  0  0  0  0  0  0  0  0  0  0  0
    5.3067    0.1093    1.6167 C   0  0  0  0  0  0  0  0  0  0  0  0
    4.0650    0.1264    1.0001 C   0  0  0  0  0  0  0  0  0  0  0  0
    3.9821    0.1857   -0.3801 C   0  0  0  0  0  0  0  0  0  0  0  0
    5.0951    0.2296   -1.1923 C   0  0  0  0  0  0  0  0  0  0  0  0
    6.3258    0.2111   -0.5460 C   0  0  0  0  0  0  0  0  0  0  0  0
    4.9664    0.2926   -2.6687 C   0  0  0  0  0  0  0  0  0  0  0  0
    2.6623    0.2022   -0.9990 C   0  0  0  0  0  0  0  0  0  0  0  0
    2.3602    0.2576   -2.3278 N   0  0  0  0  0  0  0  0  0  0  0  0
    1.0576    0.2533   -2.4647 O   0  0  0  0  0  0  0  0  0  0  0  0
    0.4664    0.1983   -1.3079 C   0  0  0  0  0  0  0  0  0  0  0  0
    1.4641    0.1659   -0.3812 N   0  0  0  0  0  0  0  0  0  0  0  0
   -0.9637    0.1731   -0.9882 C   0  0  0  0  0  0  0  0  0  0  0  0
   -1.4256    0.1129    0.3108 C   0  0  0  0  0  0  0  0  0  0  0  0
   -2.7839    0.0914    0.5566 C   0  0  0  0  0  0  0  0  0  0  0  0
   -3.6791    0.1309   -0.5110 C   0  0  0  0  0  0  0  0  0  0  0  0
   -3.1864    0.1913   -1.8070 C   0  0  0  0  0  0  0  0  0  0  0  0
   -1.8387    0.2138   -2.0794 C   0  0  0  0  0  0  0  0  0  0  0  0
   -5.1340    0.1118   -0.3360 C   0  0  0  0  0  0  0  0  0  0  0  0
   -5.5837    1.2811    0.4891 C   0  0  0  0  0  0  0  0  0  0  0  0
   -7.0312    1.2036    0.8794 C   0  0  0  0  0  0  0  0  0  0  0  0
   -7.7822    0.0608    0.2719 C   0  0  0  0  0  0  0  0  0  0  0  0
   -7.0709   -1.2553    0.2558 C   0  0  0  0  0  0  0  0  0  0  0  0
   -5.5784   -1.1385    0.3897 C   0  0  0  0  0  0  0  0  0  0  0  0
    9.6760   -2.2972    2.7883 H   0  0  0  0  0  0  0  0  0  0  0  0
    7.6622    0.5580    2.5384 H   0  0  0  0  0  0  0  0  0  0  0  0
    8.5301    0.7293    0.9611 H   0  0  0  0  0  0  0  0  0  0  0  0
    5.3566    0.0629    2.6946 H   0  0  0  0  0  0  0  0  0  0  0  0
    3.1629    0.0925    1.6210 H   0  0  0  0  0  0  0  0  0  0  0  0
    7.2286    0.2453   -1.1729 H   0  0  0  0  0  0  0  0  0  0  0  0
    4.4325    1.1949   -3.0294 H   0  0  0  0  0  0  0  0  0  0  0  0
    5.9973    0.3428   -3.1034 H   0  0  0  0  0  0  0  0  0  0  0  0
    4.5451   -0.6641   -3.0498 H   0  0  0  0  0  0  0  0  0  0  0  0
   -0.7320    0.0826    1.1320 H   0  0  0  0  0  0  0  0  0  0  0  0
   -3.1862    0.0441    1.5691 H   0  0  0  0  0  0  0  0  0  0  0  0
   -3.8648    0.2222   -2.6404 H   0  0  0  0  0  0  0  0  0  0  0  0
   -1.4388    0.2612   -3.0965 H   0  0  0  0  0  0  0  0  0  0  0  0
   -5.7014    0.1493   -1.3049 H   0  0  0  0  0  0  0  0  0  0  0  0
   -4.9659    1.2418    1.4328 H   0  0  0  0  0  0  0  0  0  0  0  0
   -5.2894    2.2088   -0.0237 H   0  0  0  0  0  0  0  0  0  0  0  0
   -7.5177    2.1391    0.5038 H   0  0  0  0  0  0  0  0  0  0  0  0
   -7.1536    1.2255    1.9826 H   0  0  0  0  0  0  0  0  0  0  0  0
   -8.1170    0.3563   -0.7602 H   0  0  0  0  0  0  0  0  0  0  0  0
   -8.7168   -0.0784    0.8571 H   0  0  0  0  0  0  0  0  0  0  0  0
   -7.4233   -1.9633    1.0344 H   0  0  0  0  0  0  0  0  0  0  0  0
   -7.2713   -1.7413   -0.7252 H   0  0  0  0  0  0  0  0  0  0  0  0
   -5.2654   -1.1043    1.4542 H   0  0  0  0  0  0  0  0  0  0  0  0
   -5.1023   -2.0489   -0.0282 H   0  0  0  0  0  0  0  0  0  0  0  0
  1  2  1  0
  2  3  2  0
  2  4  1  0
  4  5  1  0
  5  6  2  0
  6  7  1  0
  7  8  2  0
  8  9  1  0
  9 10  2  0
  9 11  1  0
  8 12  1  0
 12 13  2  0
 13 14  1  0
 14 15  1  0
 15 16  2  0
 15 17  1  0
 17 18  2  0
 18 19  1  0
 19 20  2  0
 20 21  1  0
 21 22  2  0
 20 23  1  0
 23 24  1  0
 24 25  1  0
 25 26  1  0
 26 27  1  0
 27 28  1  0
 10  5  1  0
 16 12  1  0
 22 17  1  0
 28 23  1  0
  1 29  1  0
  4 30  1  0
  4 31  1  0
  6 32  1  0
  7 33  1  0
 10 34  1  0
 11 35  1  0
 11 36  1  0
 11 37  1  0
 18 38  1  0
 19 39  1  0
 21 40  1  0
 22 41  1  0
 23 42  1  0
 24 43  1  0
 24 44  1  0
 25 45  1  0
 25 46  1  0
 26 47  1  0
 26 48  1  0
 27 49  1  0
 27 50  1  0
 28 51  1  0
 28 52  1  0
M  END
>  <Ligand ID>  (1) 
LIG0003625

>  <Ligand>  (1) 
CHEMBL425058

>  <SMILES>  (1) 
OC(=O)Cc1ccc(c(c1)C)c1noc(n1)c1ccc(cc1)C1CCCCC1

>  <CID>  (1) 
44412854.0

>  <ChEMBL ID>  (1) 
nan

>  <InChiKey>  (1) 
ZGERSFAPNYTHQM-UHFFFAOYSA-N

>  <InChi>  (1) 
InChI=1S/C23H24N2O3/c1-15-13-16(14-21(26)27)7-12-20(15)22-24-23(28-25-22)19-10-8-18(9-11-19)17-5-3-2-4-6-17/h7-13,17H,2-6,14H2,1H3,(H,26,27)

>  <IUPAC Name>  (1) 
2-[4-[5-(4-cyclohexylphenyl)-1,2,4-oxadiazol-3-yl]-3-methylphenyl]acetic acid

$$$$
