
     RDKit          3D

 59 62  0  0  0  0  0  0  0  0999 V2000
   -7.7146   -1.7804    2.0239 N   0  0  0  0  0  0  0  0  0  0  0  0
   -6.9460   -1.1727    1.4226 C   0  0  0  0  0  0  0  0  0  0  0  0
   -5.9721   -0.4319    0.6830 C   0  0  0  0  0  0  0  0  0  0  0  0
   -4.6530   -0.8762    0.8116 C   0  0  0  0  0  0  0  0  0  0  0  0
   -3.6224   -0.2462    0.1604 C   0  0  0  0  0  0  0  0  0  0  0  0
   -3.9420    0.8380   -0.6230 C   0  0  0  0  0  0  0  0  0  0  0  0
   -5.2326    1.2715   -0.7484 C   0  0  0  0  0  0  0  0  0  0  0  0
   -6.3176    0.6470   -0.0920 C   0  0  0  0  0  0  0  0  0  0  0  0
   -7.5204    1.1786   -0.3058 O   0  0  0  0  0  0  0  0  0  0  0  0
   -8.7829    0.9394    0.0660 C   0  0  0  0  0  0  0  0  0  0  0  0
   -9.3731    2.0637    0.9606 C   0  0  0  0  0  0  0  0  0  0  0  0
   -9.7662    0.8986   -1.1310 C   0  0  0  0  0  0  0  0  0  0  0  0
   -2.2509   -0.7091    0.3011 C   0  0  0  0  0  0  0  0  0  0  0  0
   -1.8609   -1.7332    1.0238 O   0  0  0  0  0  0  0  0  0  0  0  0
   -0.5716   -1.8720    0.9311 N   0  0  0  0  0  0  0  0  0  0  0  0
   -0.1140   -0.9034    0.1194 C   0  0  0  0  0  0  0  0  0  0  0  0
   -1.1708   -0.1670   -0.2806 N   0  0  0  0  0  0  0  0  0  0  0  0
    1.2540   -0.6120   -0.3067 C   0  0  0  0  0  0  0  0  0  0  0  0
    1.5034    0.4395   -1.1735 C   0  0  0  0  0  0  0  0  0  0  0  0
    2.7581    0.7742   -1.6146 C   0  0  0  0  0  0  0  0  0  0  0  0
    3.8093   -0.0019   -1.1488 C   0  0  0  0  0  0  0  0  0  0  0  0
    3.6441   -1.0609   -0.2889 C   0  0  0  0  0  0  0  0  0  0  0  0
    2.3489   -1.3530    0.1251 C   0  0  0  0  0  0  0  0  0  0  0  0
    2.0450   -2.4663    1.0688 C   0  0  0  0  0  0  0  0  0  0  0  0
    4.7546   -1.9068    0.2135 C   0  0  0  0  0  0  0  0  0  0  0  0
    5.9823   -1.5973   -0.6435 C   0  0  0  0  0  0  0  0  0  0  0  0
    6.0897   -0.1891   -0.7289 N   0  0  0  0  0  0  0  0  0  0  0  0
    5.1685    0.4163   -1.6551 C   0  0  0  0  0  0  0  0  0  0  0  0
    7.3617    0.4039   -0.6035 C   0  0  0  0  0  0  0  0  0  0  0  0
    7.8357    0.2249    0.8213 C   0  0  0  0  0  0  0  0  0  0  0  0
    9.1733    0.8217    1.0427 C   0  0  0  0  0  0  0  0  0  0  0  0
    9.8384    1.4046    0.1471 O   0  0  0  0  0  0  0  0  0  0  0  0
    9.7200    0.7306    2.3117 O   0  0  0  0  0  0  0  0  0  0  0  0
   -4.3896   -1.7298    1.4258 H   0  0  0  0  0  0  0  0  0  0  0  0
   -3.1305    1.3328   -1.1351 H   0  0  0  0  0  0  0  0  0  0  0  0
   -5.4026    2.1352   -1.3865 H   0  0  0  0  0  0  0  0  0  0  0  0
   -8.9507    0.0296    0.6322 H   0  0  0  0  0  0  0  0  0  0  0  0
   -9.4587    2.9893    0.3675 H   0  0  0  0  0  0  0  0  0  0  0  0
   -8.7138    2.1788    1.8425 H   0  0  0  0  0  0  0  0  0  0  0  0
  -10.3798    1.7232    1.2263 H   0  0  0  0  0  0  0  0  0  0  0  0
   -9.8360    1.9040   -1.5780 H   0  0  0  0  0  0  0  0  0  0  0  0
   -9.5187    0.0996   -1.8302 H   0  0  0  0  0  0  0  0  0  0  0  0
  -10.7546    0.6465   -0.6699 H   0  0  0  0  0  0  0  0  0  0  0  0
    0.6738    1.0564   -1.5446 H   0  0  0  0  0  0  0  0  0  0  0  0
    2.9005    1.6027   -2.2901 H   0  0  0  0  0  0  0  0  0  0  0  0
    1.3611   -3.1968    0.5757 H   0  0  0  0  0  0  0  0  0  0  0  0
    1.5151   -2.0838    1.9713 H   0  0  0  0  0  0  0  0  0  0  0  0
    2.9351   -3.0672    1.3470 H   0  0  0  0  0  0  0  0  0  0  0  0
    4.4943   -2.9874    0.1253 H   0  0  0  0  0  0  0  0  0  0  0  0
    5.0530   -1.6539    1.2559 H   0  0  0  0  0  0  0  0  0  0  0  0
    6.8931   -2.0465   -0.2433 H   0  0  0  0  0  0  0  0  0  0  0  0
    5.7515   -2.0768   -1.6257 H   0  0  0  0  0  0  0  0  0  0  0  0
    5.2432    0.0590   -2.6804 H   0  0  0  0  0  0  0  0  0  0  0  0
    5.2462    1.5090   -1.5679 H   0  0  0  0  0  0  0  0  0  0  0  0
    7.2768    1.5115   -0.7803 H   0  0  0  0  0  0  0  0  0  0  0  0
    8.1161    0.0554   -1.3400 H   0  0  0  0  0  0  0  0  0  0  0  0
    7.0530    0.7465    1.4475 H   0  0  0  0  0  0  0  0  0  0  0  0
    7.8304   -0.8354    1.0781 H   0  0  0  0  0  0  0  0  0  0  0  0
   10.7155    0.7020    2.4877 H   0  0  0  0  0  0  0  0  0  0  0  0
  1  2  3  0
  2  3  1  0
  3  4  2  0
  4  5  1  0
  5  6  2  0
  6  7  1  0
  7  8  2  0
  8  9  1  0
  9 10  1  0
 10 11  1  0
 10 12  1  0
  5 13  1  0
 13 14  1  0
 14 15  1  0
 15 16  2  0
 16 17  1  0
 16 18  1  0
 18 19  2  0
 19 20  1  0
 20 21  2  0
 21 22  1  0
 22 23  2  0
 23 24  1  0
 22 25  1  0
 25 26  1  0
 26 27  1  0
 27 28  1  0
 27 29  1  0
 29 30  1  0
 30 31  1  0
 31 32  2  0
 31 33  1  0
  8  3  1  0
 17 13  2  0
 23 18  1  0
 28 21  1  0
  4 34  1  0
  6 35  1  0
  7 36  1  0
 10 37  1  0
 11 38  1  0
 11 39  1  0
 11 40  1  0
 12 41  1  0
 12 42  1  0
 12 43  1  0
 19 44  1  0
 20 45  1  0
 24 46  1  0
 24 47  1  0
 24 48  1  0
 25 49  1  0
 25 50  1  0
 26 51  1  0
 26 52  1  0
 28 53  1  0
 28 54  1  0
 29 55  1  0
 29 56  1  0
 30 57  1  0
 30 58  1  0
 33 59  1  0
M  END
>  <Ligand ID>  (1) 
LIG0001703

>  <Ligand>  (1) 
CHEMBL1836169

>  <SMILES>  (1) 
N#Cc1cc(ccc1OC(C)C)c1onc(n1)c1ccc2c(c1C)CCN(C2)CCC(=O)O

>  <CID>  (1) 
44125170.0

>  <ChEMBL ID>  (1) 
nan

>  <InChiKey>  (1) 
KYDLFNMKNFOMEK-UHFFFAOYSA-N

>  <InChi>  (1) 
InChI=1S/C25H26N4O4/c1-15(2)32-22-7-5-17(12-19(22)13-26)25-27-24(28-33-25)21-6-4-18-14-29(11-9-23(30)31)10-8-20(18)16(21)3/h4-7,12,15H,8-11,14H2,1-3H3,(H,30,31)

>  <IUPAC Name>  (1) 
3-[6-[5-(3-cyano-4-propan-2-yloxyphenyl)-1,2,4-oxadiazol-3-yl]-5-methyl-3,4-dihydro-1H-isoquinolin-2-yl]propanoic acid

$$$$
