
     RDKit          3D

133135  0  0  0  0  0  0  0  0999 V2000
    9.5587   -3.0326   -0.3499 N   0  0  0  0  0  0  0  0  0  0  0  0
    9.2108   -2.8772   -1.7251 C   0  0  0  0  0  0  0  0  0  0  0  0
    8.8531   -1.4812   -2.0651 C   0  0  0  0  0  0  0  0  0  0  0  0
    7.6904   -0.8731   -1.3758 C   0  0  0  0  0  0  0  0  0  0  0  0
    7.7329   -0.7364    0.0915 C   0  0  1  0  0  0  0  0  0  0  0  0
    8.8507    0.0882    0.6223 C   0  0  0  0  0  0  0  0  0  0  0  0
   10.0298    0.0241    0.1468 O   0  0  0  0  0  0  0  0  0  0  0  0
    8.6862    1.0111    1.7041 N   0  0  0  0  0  0  0  0  0  0  0  0
    9.7904    1.7999    2.1726 C   0  0  0  0  0  0  0  0  0  0  0  0
   10.8876    0.9252    2.6471 C   0  0  0  0  0  0  0  0  0  0  0  0
   10.8502   -0.3236    2.6414 O   0  0  0  0  0  0  0  0  0  0  0  0
   12.0611    1.6112    3.1406 N   0  0  0  0  0  0  0  0  0  0  0  0
    6.4441   -0.3011    0.6391 N   0  0  0  0  0  0  0  0  0  0  0  0
    6.0967    1.0531    0.4068 C   0  0  0  0  0  0  0  0  0  0  0  0
    6.9104    1.7856   -0.2581 O   0  0  0  0  0  0  0  0  0  0  0  0
    4.8683    1.7180    0.8639 C   0  0  2  0  0  0  0  0  0  0  0  0
    5.3393    2.8259    1.8267 C   0  0  0  0  0  0  0  0  0  0  0  0
    5.1518    2.2043    3.1690 C   0  0  0  0  0  0  0  0  0  0  0  0
    4.4166    0.9174    2.9712 C   0  0  0  0  0  0  0  0  0  0  0  0
    3.9289    0.9226    1.5653 N   0  0  0  0  0  0  0  0  0  0  0  0
    2.7673    0.2071    1.2278 C   0  0  0  0  0  0  0  0  0  0  0  0
    2.2188   -0.4409    2.1893 O   0  0  0  0  0  0  0  0  0  0  0  0
    2.0945    0.0960   -0.0751 C   0  0  2  0  0  0  0  0  0  0  0  0
    1.4845    1.4592   -0.4202 C   0  0  0  0  0  0  0  0  0  0  0  0
    0.4765    1.2246   -1.8568 S   0  0  0  0  0  0  0  0  0  0  0  0
   -0.5340    2.8589   -2.6530 S   0  0  0  0  0  0  0  0  0  0  0  0
   -2.1777    3.1407   -1.9709 C   0  0  0  0  0  0  0  0  0  0  0  0
   -2.1200    3.8965   -0.6995 C   0  0  2  0  0  0  0  0  0  0  0  0
   -1.0608    3.4849    0.2196 N   0  0  0  0  0  0  0  0  0  0  0  0
   -3.3906    3.6392    0.1145 C   0  0  0  0  0  0  0  0  0  0  0  0
   -3.3448    3.6137    1.3461 O   0  0  0  0  0  0  0  0  0  0  0  0
   -4.6504    3.4176   -0.4959 N   0  0  0  0  0  0  0  0  0  0  0  0
   -5.7404    3.0588    0.4234 C   0  0  1  0  0  0  0  0  0  0  0  0
   -7.1059    3.2580    0.0320 C   0  0  0  0  0  0  0  0  0  0  0  0
   -7.6553    2.5708   -1.1763 C   0  0  0  0  0  0  0  0  0  0  0  0
   -9.1353    2.9789   -1.2514 C   0  0  0  0  0  0  0  0  0  0  0  0
   -9.2047    3.9220   -2.4194 C   0  0  0  0  0  0  0  0  0  0  0  0
   -8.2928    3.1866   -3.4157 C   0  0  0  0  0  0  0  0  0  0  0  0
   -7.0587    3.0644   -2.4859 C   0  0  0  0  0  0  0  0  0  0  0  0
   -5.3117    1.6613    0.7852 C   0  0  0  0  0  0  0  0  0  0  0  0
   -4.1799    1.3394    0.3729 O   0  0  0  0  0  0  0  0  0  0  0  0
   -6.0149    0.6820    1.5115 N   0  0  0  0  0  0  0  0  0  0  0  0
   -5.2218   -0.5359    1.7622 C   0  0  2  0  0  0  0  0  0  0  0  0
   -5.0842   -1.3054    0.4896 C   0  0  0  0  0  0  0  0  0  0  0  0
   -5.9750   -1.4704   -0.3415 O   0  0  0  0  0  0  0  0  0  0  0  0
   -3.8104   -1.9214    0.1333 N   0  0  0  0  0  0  0  0  0  0  0  0
   -3.6637   -2.6604   -1.1193 C   0  0  2  0  0  0  0  0  0  0  0  0
   -2.3035   -3.2000   -1.2870 C   0  0  0  0  0  0  0  0  0  0  0  0
   -2.0973   -4.0423   -2.1596 O   0  0  0  0  0  0  0  0  0  0  0  0
   -1.1716   -2.8133   -0.5158 N   0  0  0  0  0  0  0  0  0  0  0  0
    0.1783   -3.2762   -0.5932 C   0  0  2  0  0  0  0  0  0  0  0  0
    1.2293   -2.2581   -0.4743 C   0  0  0  0  0  0  0  0  0  0  0  0
    2.4216   -2.5127   -0.7243 O   0  0  0  0  0  0  0  0  0  0  0  0
    1.0038   -0.8983   -0.0595 N   0  0  0  0  0  0  0  0  0  0  0  0
    0.4988   -4.3401   -1.6116 C   0  0  0  0  0  0  0  0  0  0  0  0
   -0.2196   -5.5822   -1.2657 C   0  0  0  0  0  0  0  0  0  0  0  0
   -0.8306   -5.7647   -0.1604 O   0  0  0  0  0  0  0  0  0  0  0  0
   -0.2134   -6.6326   -2.2535 N   0  0  0  0  0  0  0  0  0  0  0  0
   -3.7412   -1.5954   -2.2600 C   0  0  0  0  0  0  0  0  0  0  0  0
   -3.6763   -2.2560   -3.5543 C   0  0  0  0  0  0  0  0  0  0  0  0
   -3.7603   -3.4682   -3.8195 O   0  0  0  0  0  0  0  0  0  0  0  0
   -3.4858   -1.3919   -4.7065 N   0  0  0  0  0  0  0  0  0  0  0  0
   -5.6606   -1.3571    2.8888 C   0  0  2  0  0  0  0  0  0  0  0  0
   -4.7298   -2.5620    2.9978 C   0  0  0  0  0  0  0  0  0  0  0  0
   -5.1225   -3.4616    4.1359 C   0  0  0  0  0  0  0  0  0  0  0  0
   -7.0457   -1.9331    2.7767 C   0  0  0  0  0  0  0  0  0  0  0  0
   10.5770   -2.8850   -0.1507 H   0  0  0  0  0  0  0  0  0  0  0  0
    9.3593   -4.0173   -0.0439 H   0  0  0  0  0  0  0  0  0  0  0  0
    8.4330   -3.6143   -2.0284 H   0  0  0  0  0  0  0  0  0  0  0  0
   10.1412   -3.1238   -2.3222 H   0  0  0  0  0  0  0  0  0  0  0  0
    8.6030   -1.4730   -3.1721 H   0  0  0  0  0  0  0  0  0  0  0  0
    9.7851   -0.8731   -1.9829 H   0  0  0  0  0  0  0  0  0  0  0  0
    6.7938   -1.5099   -1.6614 H   0  0  0  0  0  0  0  0  0  0  0  0
    7.4401    0.1430   -1.8063 H   0  0  0  0  0  0  0  0  0  0  0  0
    7.8804   -1.7531    0.5579 H   0  0  0  0  0  0  0  0  0  0  0  0
    7.7632    1.1141    2.1833 H   0  0  0  0  0  0  0  0  0  0  0  0
   10.1701    2.5049    1.3927 H   0  0  0  0  0  0  0  0  0  0  0  0
    9.4548    2.4404    3.0187 H   0  0  0  0  0  0  0  0  0  0  0  0
   12.2809    2.5960    2.8388 H   0  0  0  0  0  0  0  0  0  0  0  0
   12.7268    1.1747    3.8002 H   0  0  0  0  0  0  0  0  0  0  0  0
    5.8026   -0.9209    1.1663 H   0  0  0  0  0  0  0  0  0  0  0  0
    4.4918    2.2884   -0.0087 H   0  0  0  0  0  0  0  0  0  0  0  0
    6.4187    3.0439    1.7019 H   0  0  0  0  0  0  0  0  0  0  0  0
    4.7884    3.7612    1.6749 H   0  0  0  0  0  0  0  0  0  0  0  0
    4.5459    2.8472    3.8506 H   0  0  0  0  0  0  0  0  0  0  0  0
    6.1146    1.9866    3.6843 H   0  0  0  0  0  0  0  0  0  0  0  0
    3.5054    0.8679    3.6100 H   0  0  0  0  0  0  0  0  0  0  0  0
    5.0229    0.0425    3.1879 H   0  0  0  0  0  0  0  0  0  0  0  0
    2.8777   -0.1505   -0.7992 H   0  0  0  0  0  0  0  0  0  0  0  0
    2.3220    2.1584   -0.5801 H   0  0  0  0  0  0  0  0  0  0  0  0
    0.9549    1.8311    0.4781 H   0  0  0  0  0  0  0  0  0  0  0  0
   -2.7614    3.6674   -2.7654 H   0  0  0  0  0  0  0  0  0  0  0  0
   -2.6701    2.1493   -1.7355 H   0  0  0  0  0  0  0  0  0  0  0  0
   -2.0431    4.9709   -0.8344 H   0  0  0  0  0  0  0  0  0  0  0  0
   -1.3209    2.5651    0.6378 H   0  0  0  0  0  0  0  0  0  0  0  0
   -1.0273    4.2491    0.9411 H   0  0  0  0  0  0  0  0  0  0  0  0
   -4.6977    3.5162   -1.4905 H   0  0  0  0  0  0  0  0  0  0  0  0
   -5.5503    3.6478    1.3965 H   0  0  0  0  0  0  0  0  0  0  0  0
   -7.2695    4.3803   -0.1238 H   0  0  0  0  0  0  0  0  0  0  0  0
   -7.7735    3.0543    0.9088 H   0  0  0  0  0  0  0  0  0  0  0  0
   -7.6241    1.4845   -1.1201 H   0  0  0  0  0  0  0  0  0  0  0  0
   -9.7700    2.1050   -1.5057 H   0  0  0  0  0  0  0  0  0  0  0  0
   -9.4719    3.5057   -0.3444 H   0  0  0  0  0  0  0  0  0  0  0  0
   -8.6465    4.8793   -2.2093 H   0  0  0  0  0  0  0  0  0  0  0  0
  -10.2041    4.0863   -2.8139 H   0  0  0  0  0  0  0  0  0  0  0  0
   -8.0771    3.8150   -4.2914 H   0  0  0  0  0  0  0  0  0  0  0  0
   -8.6900    2.1970   -3.6894 H   0  0  0  0  0  0  0  0  0  0  0  0
   -6.7133    4.1313   -2.4122 H   0  0  0  0  0  0  0  0  0  0  0  0
   -6.3653    2.3840   -2.9612 H   0  0  0  0  0  0  0  0  0  0  0  0
   -6.9541    0.8600    1.7947 H   0  0  0  0  0  0  0  0  0  0  0  0
   -4.1972   -0.1609    1.9431 H   0  0  0  0  0  0  0  0  0  0  0  0
   -3.0961   -1.7745    0.8352 H   0  0  0  0  0  0  0  0  0  0  0  0
   -4.4835   -3.2866   -1.2986 H   0  0  0  0  0  0  0  0  0  0  0  0
   -1.3739   -2.0915    0.1914 H   0  0  0  0  0  0  0  0  0  0  0  0
    0.2536   -3.9311    0.3822 H   0  0  0  0  0  0  0  0  0  0  0  0
    0.0543   -0.6968    0.2360 H   0  0  0  0  0  0  0  0  0  0  0  0
    0.1753   -4.0356   -2.6317 H   0  0  0  0  0  0  0  0  0  0  0  0
    1.6021   -4.4727   -1.6017 H   0  0  0  0  0  0  0  0  0  0  0  0
    0.6533   -6.7826   -2.8339 H   0  0  0  0  0  0  0  0  0  0  0  0
   -1.0539   -7.2357   -2.3915 H   0  0  0  0  0  0  0  0  0  0  0  0
   -2.8372   -0.9667   -2.0943 H   0  0  0  0  0  0  0  0  0  0  0  0
   -4.6748   -1.0734   -2.1292 H   0  0  0  0  0  0  0  0  0  0  0  0
   -4.2790   -0.8631   -5.1259 H   0  0  0  0  0  0  0  0  0  0  0  0
   -2.4991   -1.3531   -5.0640 H   0  0  0  0  0  0  0  0  0  0  0  0
   -5.6168   -0.8236    3.8659 H   0  0  0  0  0  0  0  0  0  0  0  0
   -4.8299   -3.1275    2.0557 H   0  0  0  0  0  0  0  0  0  0  0  0
   -3.6699   -2.2323    3.0784 H   0  0  0  0  0  0  0  0  0  0  0  0
   -5.6645   -2.9794    4.9485 H   0  0  0  0  0  0  0  0  0  0  0  0
   -4.1624   -3.8464    4.5767 H   0  0  0  0  0  0  0  0  0  0  0  0
   -5.6209   -4.4095    3.7725 H   0  0  0  0  0  0  0  0  0  0  0  0
   -7.2025   -2.5709    3.6867 H   0  0  0  0  0  0  0  0  0  0  0  0
   -7.8373   -1.1424    2.8876 H   0  0  0  0  0  0  0  0  0  0  0  0
   -7.2032   -2.6136    1.9349 H   0  0  0  0  0  0  0  0  0  0  0  0
  1  2  1  0
  2  3  1  0
  3  4  1  0
  4  5  1  0
  5  6  1  0
  6  7  2  0
  6  8  1  0
  8  9  1  0
  9 10  1  0
 10 11  2  0
 10 12  1  0
  5 13  1  0
 13 14  1  0
 14 15  2  0
 14 16  1  0
 16 17  1  0
 17 18  1  0
 18 19  1  0
 19 20  1  0
 20 21  1  0
 21 22  2  0
 21 23  1  0
 23 24  1  0
 24 25  1  0
 25 26  1  0
 26 27  1  0
 27 28  1  0
 28 29  1  0
 28 30  1  0
 30 31  2  0
 30 32  1  0
 32 33  1  0
 33 34  1  0
 34 35  1  0
 35 36  1  0
 36 37  1  0
 37 38  1  0
 38 39  1  0
 33 40  1  0
 40 41  2  0
 40 42  1  0
 42 43  1  0
 43 44  1  0
 44 45  2  0
 44 46  1  0
 46 47  1  0
 47 48  1  0
 48 49  2  0
 48 50  1  0
 50 51  1  0
 51 52  1  0
 52 53  2  0
 52 54  1  0
 51 55  1  0
 55 56  1  0
 56 57  2  0
 56 58  1  0
 47 59  1  0
 59 60  1  0
 60 61  2  0
 60 62  1  0
 43 63  1  0
 63 64  1  0
 64 65  1  0
 63 66  1  0
 20 16  1  0
 54 23  1  0
 39 35  1  0
  1 67  1  0
  1 68  1  0
  2 69  1  0
  2 70  1  0
  3 71  1  0
  3 72  1  0
  4 73  1  0
  4 74  1  0
  5 75  1  1
  8 76  1  0
  9 77  1  0
  9 78  1  0
 12 79  1  0
 12 80  1  0
 13 81  1  0
 16 82  1  6
 17 83  1  0
 17 84  1  0
 18 85  1  0
 18 86  1  0
 19 87  1  0
 19 88  1  0
 23 89  1  6
 24 90  1  0
 24 91  1  0
 27 92  1  0
 27 93  1  0
 28 94  1  6
 29 95  1  0
 29 96  1  0
 32 97  1  0
 33 98  1  1
 34 99  1  0
 34100  1  0
 35101  1  0
 36102  1  0
 36103  1  0
 37104  1  0
 37105  1  0
 38106  1  0
 38107  1  0
 39108  1  0
 39109  1  0
 42110  1  0
 43111  1  1
 46112  1  0
 47113  1  6
 50114  1  0
 51115  1  1
 54116  1  0
 55117  1  0
 55118  1  0
 58119  1  0
 58120  1  0
 59121  1  0
 59122  1  0
 62123  1  0
 62124  1  0
 63125  1  1
 64126  1  0
 64127  1  0
 65128  1  0
 65129  1  0
 65130  1  0
 66131  1  0
 66132  1  0
 66133  1  0
M  END
>  <Ligand ID>  (1) 
LIG0001621

>  <Ligand>  (1) 
CHEMBL1817768

>  <SMILES>  (1) 
NCCC[C@@H](C(=O)NCC(=O)N)NC(=O)[C@@H]1CCCN1C(=O)[C@@H]1CSSC[C@H](N)C(=O)N[C@@H](CC2CCCC2)C(=O)N[C@H](C(=O)N[C@H](C(=O)N[C@H](C(=O)N1)CC(=O)N)CC(=O)N)[C@H](CC)C

>  <CID>  (1) 
53362914.0

>  <ChEMBL ID>  (1) 
nan

>  <InChiKey>  (1) 
OOKVMYBPXRUBNP-LWHYKBHJSA-N

>  <InChi>  (1) 
InChI=1S/C40H67N13O11S2/c1-3-20(2)32-39(63)50-26(16-30(44)55)35(59)49-25(15-29(43)54)36(60)51-27(19-66-65-18-22(42)33(57)48-24(37(61)52-32)14-21-8-4-5-9-21)40(64)53-13-7-11-28(53)38(62)47-23(10-6-12-41)34(58)46-17-31(45)56/h20-28,32H,3-19,41-42H2,1-2H3,(H2,43,54)(H2,44,55)(H2,45,56)(H,46,58)(H,47,62)(H,48,57)(H,49,59)(H,50,63)(H,51,60)(H,52,61)/t20-,22-,23-,24-,25-,26-,27-,28-,32-/m0/s1

>  <IUPAC Name>  (1) 
(2S)-N-[(2S)-5-amino-1-[(2-amino-2-oxoethyl)amino]-1-oxopentan-2-yl]-1-[(4R,7S,10S,13S,16S,19R)-19-amino-7,10-bis(2-amino-2-oxoethyl)-13-[(2S)-butan-2-yl]-16-(cyclopentylmethyl)-6,9,12,15,18-pentaoxo-1,2-dithia-5,8,11,14,17-pentazacycloicosane-4-carbonyl]pyrrolidine-2-carboxamide

$$$$
