
     RDKit          3D

104108  0  0  0  0  0  0  0  0999 V2000
    7.1069    0.8159   -1.3932 O   0  0  0  0  0  0  0  0  0  0  0  0
    6.6861   -0.3430   -1.6207 C   0  0  0  0  0  0  0  0  0  0  0  0
    5.6820   -1.0316   -0.9485 N   0  0  0  0  0  0  0  0  0  0  0  0
    4.8676   -0.6802    0.1610 C   0  0  2  0  0  0  0  0  0  0  0  0
    3.4684   -1.0124   -0.0390 C   0  0  0  0  0  0  0  0  0  0  0  0
    3.1689   -1.6194   -1.1321 O   0  0  0  0  0  0  0  0  0  0  0  0
    2.4107   -0.7216    0.8697 N   0  0  0  0  0  0  0  0  0  0  0  0
    1.0490   -1.1141    0.5489 C   0  0  2  0  0  0  0  0  0  0  0  0
    0.2514    0.0232    0.0265 C   0  0  0  0  0  0  0  0  0  0  0  0
    0.7573    1.1913    0.0009 O   0  0  0  0  0  0  0  0  0  0  0  0
   -1.0820   -0.1737   -0.4582 N   0  0  0  0  0  0  0  0  0  0  0  0
   -1.8419    0.9104   -0.9765 C   0  0  2  0  0  0  0  0  0  0  0  0
   -3.1878    1.0447   -0.4333 C   0  0  0  0  0  0  0  0  0  0  0  0
   -3.9072    1.9889   -0.9115 O   0  0  0  0  0  0  0  0  0  0  0  0
   -3.7944    0.2532    0.5638 N   0  0  0  0  0  0  0  0  0  0  0  0
   -5.1614    0.5544    0.9687 C   0  0  2  0  0  0  0  0  0  0  0  0
   -5.0925    1.0436    2.3836 C   0  0  0  0  0  0  0  0  0  0  0  0
   -6.1269    1.3903    3.0252 O   0  0  0  0  0  0  0  0  0  0  0  0
   -3.8611    1.1496    3.0936 N   0  0  0  0  0  0  0  0  0  0  0  0
   -6.0568   -0.6492    0.9440 C   0  0  0  0  0  0  0  0  0  0  0  0
   -7.4142   -0.2489    1.3570 C   0  0  0  0  0  0  0  0  0  0  0  0
   -8.0934   -0.4516    2.5404 C   0  0  0  0  0  0  0  0  0  0  0  0
   -9.3322    0.1019    2.4408 N   0  0  0  0  0  0  0  0  0  0  0  0
   -9.4914    0.6637    1.2286 C   0  0  0  0  0  0  0  0  0  0  0  0
   -8.2895    0.4439    0.5500 C   0  0  0  0  0  0  0  0  0  0  0  0
   -8.1519    0.9149   -0.7400 C   0  0  0  0  0  0  0  0  0  0  0  0
   -9.1850    1.6032   -1.3774 C   0  0  0  0  0  0  0  0  0  0  0  0
  -10.3676    1.8168   -0.7031 C   0  0  0  0  0  0  0  0  0  0  0  0
  -10.5100    1.3458    0.5918 C   0  0  0  0  0  0  0  0  0  0  0  0
   -1.8830    0.9500   -2.4809 C   0  0  0  0  0  0  0  0  0  0  0  0
   -2.4291   -0.2203   -3.1832 C   0  0  0  0  0  0  0  0  0  0  0  0
   -3.8354   -0.6166   -2.9168 C   0  0  0  0  0  0  0  0  0  0  0  0
   -4.1081   -1.7948   -3.7589 N   0  0  0  0  0  0  0  0  0  0  0  0
   -5.2982   -2.0810   -4.1390 C   0  0  0  0  0  0  0  0  0  0  0  0
   -6.3471   -1.2288   -3.7238 N   0  0  0  0  0  0  0  0  0  0  0  0
   -5.5658   -3.2128   -4.9513 N   0  0  0  0  0  0  0  0  0  0  0  0
    0.4061   -1.9117    1.6214 C   0  0  0  0  0  0  0  0  0  0  0  0
    0.3143   -1.2443    2.9199 C   0  0  0  0  0  0  0  0  0  0  0  0
    1.3865   -1.4266    3.8030 C   0  0  0  0  0  0  0  0  0  0  0  0
    1.3914   -0.8346    5.0572 C   0  0  0  0  0  0  0  0  0  0  0  0
    0.3179   -0.0579    5.4263 C   0  0  0  0  0  0  0  0  0  0  0  0
   -0.7607    0.1514    4.5931 C   0  0  0  0  0  0  0  0  0  0  0  0
   -0.7325   -0.4568    3.3433 C   0  0  0  0  0  0  0  0  0  0  0  0
    5.0032    0.7516    0.6576 C   0  0  0  0  0  0  0  0  0  0  0  0
    6.3483    1.0162    1.2229 C   0  0  0  0  0  0  0  0  0  0  0  0
    6.7769    2.2348    1.6915 C   0  0  0  0  0  0  0  0  0  0  0  0
    8.0356    2.1384    2.1300 N   0  0  0  0  0  0  0  0  0  0  0  0
    8.4352    0.8721    1.9543 C   0  0  0  0  0  0  0  0  0  0  0  0
    7.4043    0.1849    1.3998 N   0  0  0  0  0  0  0  0  0  0  0  0
    7.3763   -1.0425   -2.7713 C   0  0  0  0  0  0  0  0  0  0  0  0
    8.3519   -0.1994   -3.3077 O   0  0  0  0  0  0  0  0  0  0  0  0
    9.4660    0.2875   -2.6777 C   0  0  0  0  0  0  0  0  0  0  0  0
    9.8078   -0.0223   -1.3598 C   0  0  0  0  0  0  0  0  0  0  0  0
   10.9609    0.5310   -0.8185 C   0  0  0  0  0  0  0  0  0  0  0  0
   11.7726    1.3773   -1.5544 C   0  0  0  0  0  0  0  0  0  0  0  0
   11.4317    1.6772   -2.8486 C   0  0  0  0  0  0  0  0  0  0  0  0
   10.2904    1.1396   -3.4085 C   0  0  0  0  0  0  0  0  0  0  0  0
   13.2289    2.0531   -0.8059 Cl  0  0  0  0  0  0  0  0  0  0  0  0
    5.4737   -2.0269   -1.3384 H   0  0  0  0  0  0  0  0  0  0  0  0
    5.2825   -1.2357    1.1069 H   0  0  0  0  0  0  0  0  0  0  0  0
    2.6343   -0.2282    1.7618 H   0  0  0  0  0  0  0  0  0  0  0  0
    1.1384   -1.7987   -0.3560 H   0  0  0  0  0  0  0  0  0  0  0  0
   -1.4309   -1.1704   -0.3934 H   0  0  0  0  0  0  0  0  0  0  0  0
   -1.2496    1.8608   -0.6914 H   0  0  0  0  0  0  0  0  0  0  0  0
   -3.2315   -0.5210    0.9674 H   0  0  0  0  0  0  0  0  0  0  0  0
   -5.5711    1.3880    0.3646 H   0  0  0  0  0  0  0  0  0  0  0  0
   -3.6847    0.4176    3.8262 H   0  0  0  0  0  0  0  0  0  0  0  0
   -3.2044    1.9241    2.8687 H   0  0  0  0  0  0  0  0  0  0  0  0
   -5.7166   -1.3969    1.7103 H   0  0  0  0  0  0  0  0  0  0  0  0
   -6.0350   -1.1950   -0.0118 H   0  0  0  0  0  0  0  0  0  0  0  0
   -7.7068   -0.9651    3.4056 H   0  0  0  0  0  0  0  0  0  0  0  0
  -10.0586    0.0905    3.2027 H   0  0  0  0  0  0  0  0  0  0  0  0
   -7.2496    0.7631   -1.2822 H   0  0  0  0  0  0  0  0  0  0  0  0
   -9.0648    1.9725   -2.4020 H   0  0  0  0  0  0  0  0  0  0  0  0
  -11.1382    2.3522   -1.2335 H   0  0  0  0  0  0  0  0  0  0  0  0
  -11.4466    1.5288    1.0899 H   0  0  0  0  0  0  0  0  0  0  0  0
   -2.4607    1.8518   -2.8240 H   0  0  0  0  0  0  0  0  0  0  0  0
   -0.8528    1.1375   -2.8911 H   0  0  0  0  0  0  0  0  0  0  0  0
   -2.3907    0.0308   -4.2895 H   0  0  0  0  0  0  0  0  0  0  0  0
   -1.7864   -1.1323   -3.1221 H   0  0  0  0  0  0  0  0  0  0  0  0
   -4.5844    0.1358   -3.2133 H   0  0  0  0  0  0  0  0  0  0  0  0
   -3.9691   -0.9846   -1.8712 H   0  0  0  0  0  0  0  0  0  0  0  0
   -7.0634   -0.9408   -4.4297 H   0  0  0  0  0  0  0  0  0  0  0  0
   -6.3581   -0.9250   -2.7256 H   0  0  0  0  0  0  0  0  0  0  0  0
   -6.3123   -3.9110   -4.6745 H   0  0  0  0  0  0  0  0  0  0  0  0
   -5.0067   -3.3497   -5.8451 H   0  0  0  0  0  0  0  0  0  0  0  0
   -0.6122   -2.1999    1.2754 H   0  0  0  0  0  0  0  0  0  0  0  0
    0.9624   -2.8842    1.7004 H   0  0  0  0  0  0  0  0  0  0  0  0
    2.2347   -2.0344    3.5227 H   0  0  0  0  0  0  0  0  0  0  0  0
    2.2198   -0.9662    5.7608 H   0  0  0  0  0  0  0  0  0  0  0  0
    0.3212    0.4109    6.4220 H   0  0  0  0  0  0  0  0  0  0  0  0
   -1.5816    0.7687    4.9250 H   0  0  0  0  0  0  0  0  0  0  0  0
   -1.5500   -0.3275    2.6496 H   0  0  0  0  0  0  0  0  0  0  0  0
    4.7208    1.5040   -0.1145 H   0  0  0  0  0  0  0  0  0  0  0  0
    4.2942    0.8975    1.4969 H   0  0  0  0  0  0  0  0  0  0  0  0
    6.1747    3.1493    1.7068 H   0  0  0  0  0  0  0  0  0  0  0  0
    9.4029    0.4099    2.1918 H   0  0  0  0  0  0  0  0  0  0  0  0
    7.4045   -0.8429    1.1372 H   0  0  0  0  0  0  0  0  0  0  0  0
    7.8222   -1.9523   -2.3693 H   0  0  0  0  0  0  0  0  0  0  0  0
    6.5522   -1.2185   -3.5174 H   0  0  0  0  0  0  0  0  0  0  0  0
    9.2259   -0.6794   -0.7454 H   0  0  0  0  0  0  0  0  0  0  0  0
   11.2707    0.3210    0.2008 H   0  0  0  0  0  0  0  0  0  0  0  0
   12.0858    2.3485   -3.4138 H   0  0  0  0  0  0  0  0  0  0  0  0
   10.0486    1.3987   -4.4412 H   0  0  0  0  0  0  0  0  0  0  0  0
  1  2  2  0
  2  3  1  0
  3  4  1  0
  4  5  1  0
  5  6  2  0
  5  7  1  0
  7  8  1  0
  8  9  1  0
  9 10  2  0
  9 11  1  0
 11 12  1  0
 12 13  1  0
 13 14  2  0
 13 15  1  0
 15 16  1  0
 16 17  1  0
 17 18  2  0
 17 19  1  0
 16 20  1  0
 20 21  1  0
 21 22  2  0
 22 23  1  0
 23 24  1  0
 24 25  2  0
 25 26  1  0
 26 27  2  0
 27 28  1  0
 28 29  2  0
 12 30  1  0
 30 31  1  0
 31 32  1  0
 32 33  1  0
 33 34  2  3
 34 35  1  0
 34 36  1  0
  8 37  1  0
 37 38  1  0
 38 39  2  0
 39 40  1  0
 40 41  2  0
 41 42  1  0
 42 43  2  0
  4 44  1  0
 44 45  1  0
 45 46  2  0
 46 47  1  0
 47 48  2  0
 48 49  1  0
  2 50  1  0
 50 51  1  0
 51 52  1  0
 52 53  2  0
 53 54  1  0
 54 55  2  0
 55 56  1  0
 56 57  2  0
 55 58  1  0
 25 21  1  0
 43 38  1  0
 49 45  1  0
 57 52  1  0
 29 24  1  0
  3 59  1  0
  4 60  1  1
  7 61  1  0
  8 62  1  6
 11 63  1  0
 12 64  1  1
 15 65  1  0
 16 66  1  6
 19 67  1  0
 19 68  1  0
 20 69  1  0
 20 70  1  0
 22 71  1  0
 23 72  1  0
 26 73  1  0
 27 74  1  0
 28 75  1  0
 29 76  1  0
 30 77  1  0
 30 78  1  0
 31 79  1  0
 31 80  1  0
 32 81  1  0
 32 82  1  0
 35 83  1  0
 35 84  1  0
 36 85  1  0
 36 86  1  0
 37 87  1  0
 37 88  1  0
 39 89  1  0
 40 90  1  0
 41 91  1  0
 42 92  1  0
 43 93  1  0
 44 94  1  0
 44 95  1  0
 46 96  1  0
 48 97  1  0
 49 98  1  0
 50 99  1  0
 50100  1  0
 53101  1  0
 54102  1  0
 56103  1  0
 57104  1  0
M  END
>  <Ligand ID>  (1) 
LIG0002647

>  <Ligand>  (1) 
CHEMBL419307

>  <SMILES>  (1) 
O=C(N[C@H](C(=O)N[C@H](C(=O)N[C@H](C(=O)N[C@H](C(=O)N)Cc1c[nH]c2c1cccc2)CCCN=C(N)N)Cc1ccccc1)Cc1cnc[nH]1)COc1ccc(cc1)Cl

>  <CID>  (1) 
44322895.0

>  <ChEMBL ID>  (1) 
nan

>  <InChiKey>  (1) 
PPISUPSPKCHLKT-CUPIEXAXSA-N

>  <InChi>  (1) 
InChI=1S/C40H46ClN11O6/c41-26-12-14-28(15-13-26)58-22-35(53)49-34(19-27-21-45-23-48-27)39(57)52-33(17-24-7-2-1-3-8-24)38(56)50-31(11-6-16-46-40(43)44)37(55)51-32(36(42)54)18-25-20-47-30-10-5-4-9-29(25)30/h1-5,7-10,12-15,20-21,23,31-34,47H,6,11,16-19,22H2,(H2,42,54)(H,45,48)(H,49,53)(H,50,56)(H,51,55)(H,52,57)(H4,43,44,46)/t31-,32-,33-,34-/m0/s1

>  <IUPAC Name>  (1) 
(2S)-N-[(2S)-1-amino-3-(1H-indol-3-yl)-1-oxopropan-2-yl]-2-[[(2S)-2-[[(2S)-2-[[2-(4-chlorophenoxy)acetyl]amino]-3-(1H-imidazol-5-yl)propanoyl]amino]-3-phenylpropanoyl]amino]-5-(diaminomethylideneamino)pentanamide

$$$$
