
     RDKit          3D

 50 52  0  0  0  0  0  0  0  0999 V2000
   -2.5150   -1.4905   -0.1855 O   0  0  0  0  0  0  0  0  0  0  0  0
   -3.8380   -1.8122   -0.3260 C   0  0  0  0  0  0  0  0  0  0  0  0
   -4.7301   -0.7227    0.2378 C   0  0  0  0  0  0  0  0  0  0  0  0
   -4.5294    0.5038   -0.4024 N   0  0  0  0  0  0  0  0  0  0  0  0
   -3.5750    1.6850    0.2994 S   0  0  0  0  0  0  0  0  0  0  0  0
   -4.2135    2.1336    1.6175 O   0  0  0  0  0  0  0  0  0  0  0  0
   -3.6256    2.9360   -0.5653 O   0  0  0  0  0  0  0  0  0  0  0  0
   -1.9014    1.2594    0.5696 C   0  0  0  0  0  0  0  0  0  0  0  0
   -1.4567    0.7692    1.8056 C   0  0  0  0  0  0  0  0  0  0  0  0
   -0.1311    0.4354    2.0142 C   0  0  0  0  0  0  0  0  0  0  0  0
    0.7924    0.5792    0.9993 C   0  0  0  0  0  0  0  0  0  0  0  0
    0.3842    1.0592   -0.2277 C   0  0  0  0  0  0  0  0  0  0  0  0
   -0.9455    1.3961   -0.4436 C   0  0  0  0  0  0  0  0  0  0  0  0
    2.1463    0.2376    1.2148 N   0  0  0  0  0  0  0  0  0  0  0  0
    2.7254   -0.2769    2.4422 C   0  0  0  0  0  0  0  0  0  0  0  0
    3.8240   -1.1648    1.8928 C   0  0  0  0  0  0  0  0  0  0  0  0
    4.1662   -0.4466    0.6370 C   0  0  0  0  0  0  0  0  0  0  0  0
    3.1962    0.3230    0.3022 N   0  0  0  0  0  0  0  0  0  0  0  0
    5.4228   -0.6132   -0.0822 C   0  0  0  0  0  0  0  0  0  0  0  0
    6.4187   -1.4650    0.3471 C   0  0  0  0  0  0  0  0  0  0  0  0
    7.6115   -1.6289   -0.3275 C   0  0  0  0  0  0  0  0  0  0  0  0
    7.8461   -0.9259   -1.4806 C   0  0  0  0  0  0  0  0  0  0  0  0
    6.8526   -0.0584   -1.9335 C   0  0  0  0  0  0  0  0  0  0  0  0
    5.6677    0.0918   -1.2460 C   0  0  0  0  0  0  0  0  0  0  0  0
    9.3568   -1.1218   -2.3510 Cl  0  0  0  0  0  0  0  0  0  0  0  0
   -5.3688    0.8673   -1.4819 C   0  0  0  0  0  0  0  0  0  0  0  0
   -6.7325    1.3751   -1.1068 C   0  0  0  0  0  0  0  0  0  0  0  0
   -7.4582    0.4399   -0.4005 O   0  0  0  0  0  0  0  0  0  0  0  0
   -2.1691   -1.1580   -1.0460 H   0  0  0  0  0  0  0  0  0  0  0  0
   -4.0298   -2.7738    0.2008 H   0  0  0  0  0  0  0  0  0  0  0  0
   -4.0586   -1.9355   -1.4157 H   0  0  0  0  0  0  0  0  0  0  0  0
   -5.7975   -1.0636    0.1755 H   0  0  0  0  0  0  0  0  0  0  0  0
   -4.5048   -0.6918    1.3479 H   0  0  0  0  0  0  0  0  0  0  0  0
   -2.1973    0.6608    2.5977 H   0  0  0  0  0  0  0  0  0  0  0  0
    0.1509    0.0619    2.9910 H   0  0  0  0  0  0  0  0  0  0  0  0
    1.0599    1.1934   -1.0595 H   0  0  0  0  0  0  0  0  0  0  0  0
   -1.2751    1.7768   -1.4131 H   0  0  0  0  0  0  0  0  0  0  0  0
    3.1367    0.6124    2.9760 H   0  0  0  0  0  0  0  0  0  0  0  0
    1.9972   -0.8495    3.0453 H   0  0  0  0  0  0  0  0  0  0  0  0
    4.6854   -1.2384    2.5824 H   0  0  0  0  0  0  0  0  0  0  0  0
    3.3874   -2.1386    1.6271 H   0  0  0  0  0  0  0  0  0  0  0  0
    6.2716   -2.0377    1.2532 H   0  0  0  0  0  0  0  0  0  0  0  0
    8.3844   -2.3017    0.0220 H   0  0  0  0  0  0  0  0  0  0  0  0
    7.0062    0.5100   -2.8385 H   0  0  0  0  0  0  0  0  0  0  0  0
    4.8876    0.7661   -1.5919 H   0  0  0  0  0  0  0  0  0  0  0  0
   -4.8333    1.6435   -2.0750 H   0  0  0  0  0  0  0  0  0  0  0  0
   -5.5138   -0.0470   -2.1181 H   0  0  0  0  0  0  0  0  0  0  0  0
   -6.6970    2.2901   -0.4929 H   0  0  0  0  0  0  0  0  0  0  0  0
   -7.2920    1.5525   -2.0666 H   0  0  0  0  0  0  0  0  0  0  0  0
   -7.9894    0.8031    0.3415 H   0  0  0  0  0  0  0  0  0  0  0  0
  1  2  1  0
  2  3  1  0
  3  4  1  0
  4  5  1  0
  5  6  2  0
  5  7  2  0
  5  8  1  0
  8  9  2  0
  9 10  1  0
 10 11  2  0
 11 12  1  0
 12 13  2  0
 11 14  1  0
 14 15  1  0
 15 16  1  0
 16 17  1  0
 17 18  2  0
 17 19  1  0
 19 20  2  0
 20 21  1  0
 21 22  2  0
 22 23  1  0
 23 24  2  0
 22 25  1  0
  4 26  1  0
 26 27  1  0
 27 28  1  0
 13  8  1  0
 18 14  1  0
 24 19  1  0
  1 29  1  0
  2 30  1  0
  2 31  1  0
  3 32  1  0
  3 33  1  0
  9 34  1  0
 10 35  1  0
 12 36  1  0
 13 37  1  0
 15 38  1  0
 15 39  1  0
 16 40  1  0
 16 41  1  0
 20 42  1  0
 21 43  1  0
 23 44  1  0
 24 45  1  0
 26 46  1  0
 26 47  1  0
 27 48  1  0
 27 49  1  0
 28 50  1  0
M  END
>  <Ligand ID>  (1) 
LIG0003170

>  <Ligand>  (1) 
MLS000523397

>  <SMILES>  (1) 
OCCN(S(=O)(=O)c1ccc(cc1)N1CCC(=N1)c1ccc(cc1)Cl)CCO

>  <CID>  (1) 
3093171.0

>  <ChEMBL ID>  (1) 
nan

>  <InChiKey>  (1) 
MFSDVTHDZNQWBH-UHFFFAOYSA-N

>  <InChi>  (1) 
InChI=1S/C19H22ClN3O4S/c20-16-3-1-15(2-4-16)19-9-10-23(21-19)17-5-7-18(8-6-17)28(26,27)22(11-13-24)12-14-25/h1-8,24-25H,9-14H2

>  <IUPAC Name>  (1) 
4-[5-(4-chlorophenyl)-3,4-dihydropyrazol-2-yl]-N,N-bis(2-hydroxyethyl)benzenesulfonamide

$$$$
