
     RDKit          3D

 43 46  0  0  0  0  0  0  0  0999 V2000
    1.5449   -0.9844    2.9353 C   0  0  0  0  0  0  0  0  0  0  0  0
    1.3141   -0.4165    1.5747 C   0  0  0  0  0  0  0  0  0  0  0  0
    0.2600    0.3475    1.1673 N   0  0  0  0  0  0  0  0  0  0  0  0
    0.4088    0.6601   -0.1097 N   0  0  0  0  0  0  0  0  0  0  0  0
    1.5459    0.1259   -0.5913 C   0  0  0  0  0  0  0  0  0  0  0  0
    2.1236   -0.5538    0.4603 C   0  0  0  0  0  0  0  0  0  0  0  0
    3.3939   -1.1892    0.0453 C   0  0  1  0  0  0  0  0  0  0  0  0
    3.5244   -0.8455   -1.3909 C   0  0  1  0  0  0  0  0  0  0  0  0
    2.3720    0.0116   -1.8102 C   0  0  0  0  0  0  0  0  0  0  0  0
    4.4686   -0.2760   -0.3926 C   0  0  0  0  0  0  0  0  0  0  0  0
    5.8940   -0.7925   -0.5403 C   0  0  0  0  0  0  0  0  0  0  0  0
    4.3970    1.1377    0.0798 C   0  0  0  0  0  0  0  0  0  0  0  0
   -0.7370    1.6285   -0.9903 S   0  0  0  0  0  0  0  0  0  0  0  0
   -0.8952    2.9393   -0.2881 O   0  0  0  0  0  0  0  0  0  0  0  0
   -0.2707    1.8405   -2.3961 O   0  0  0  0  0  0  0  0  0  0  0  0
   -2.2524    0.7322   -0.9591 C   0  0  0  0  0  0  0  0  0  0  0  0
   -3.3417    1.2104   -0.3904 C   0  0  0  0  0  0  0  0  0  0  0  0
   -4.6134    0.5105   -0.3388 C   0  0  0  0  0  0  0  0  0  0  0  0
   -5.7162    1.0939    0.2854 C   0  0  0  0  0  0  0  0  0  0  0  0
   -6.9272    0.4662    0.3534 C   0  0  0  0  0  0  0  0  0  0  0  0
   -7.1146   -0.7816   -0.1962 C   0  0  0  0  0  0  0  0  0  0  0  0
   -6.0375   -1.3770   -0.8183 C   0  0  0  0  0  0  0  0  0  0  0  0
   -4.8179   -0.7345   -0.8817 C   0  0  0  0  0  0  0  0  0  0  0  0
    2.4505   -0.5438    3.4084 H   0  0  0  0  0  0  0  0  0  0  0  0
    1.5972   -2.0914    2.8891 H   0  0  0  0  0  0  0  0  0  0  0  0
    0.6962   -0.7203    3.5781 H   0  0  0  0  0  0  0  0  0  0  0  0
    3.6029   -2.2225    0.4079 H   0  0  0  0  0  0  0  0  0  0  0  0
    3.8405   -1.6462   -2.0634 H   0  0  0  0  0  0  0  0  0  0  0  0
    1.8070   -0.4541   -2.6403 H   0  0  0  0  0  0  0  0  0  0  0  0
    2.7335    0.9971   -2.1820 H   0  0  0  0  0  0  0  0  0  0  0  0
    6.4680   -0.7397    0.3957 H   0  0  0  0  0  0  0  0  0  0  0  0
    5.8959   -1.8019   -1.0191 H   0  0  0  0  0  0  0  0  0  0  0  0
    6.3950   -0.1237   -1.2819 H   0  0  0  0  0  0  0  0  0  0  0  0
    3.6531    1.7652   -0.4459 H   0  0  0  0  0  0  0  0  0  0  0  0
    4.0673    1.1354    1.1562 H   0  0  0  0  0  0  0  0  0  0  0  0
    5.3930    1.6412    0.1060 H   0  0  0  0  0  0  0  0  0  0  0  0
   -2.2728   -0.2315   -1.4220 H   0  0  0  0  0  0  0  0  0  0  0  0
   -3.2657    2.1868    0.0614 H   0  0  0  0  0  0  0  0  0  0  0  0
   -5.6095    2.0788    0.7318 H   0  0  0  0  0  0  0  0  0  0  0  0
   -7.7522    0.9642    0.8503 H   0  0  0  0  0  0  0  0  0  0  0  0
   -8.0517   -1.3212   -0.1698 H   0  0  0  0  0  0  0  0  0  0  0  0
   -6.1497   -2.3711   -1.2675 H   0  0  0  0  0  0  0  0  0  0  0  0
   -4.0218   -1.2547   -1.3805 H   0  0  0  0  0  0  0  0  0  0  0  0
  1  2  1  0
  2  3  2  0
  3  4  1  0
  4  5  1  0
  5  6  2  0
  6  7  1  0
  7  8  1  0
  8  9  1  0
  8 10  1  0
 10 11  1  0
 10 12  1  0
  4 13  1  0
 13 14  2  0
 13 15  2  0
 13 16  1  0
 16 17  2  0
 17 18  1  0
 18 19  2  0
 19 20  1  0
 20 21  2  0
 21 22  1  0
 22 23  2  0
  6  2  1  0
 10  7  1  0
 23 18  1  0
  9  5  1  0
  1 24  1  0
  1 25  1  0
  1 26  1  0
  7 27  1  6
  8 28  1  6
  9 29  1  0
  9 30  1  0
 11 31  1  0
 11 32  1  0
 11 33  1  0
 12 34  1  0
 12 35  1  0
 12 36  1  0
 16 37  1  0
 17 38  1  0
 19 39  1  0
 20 40  1  0
 21 41  1  0
 22 42  1  0
 23 43  1  0
M  END
>  <Ligand ID>  (1) 
LIG0003976

>  <Ligand>  (1) 
CHEMBL603441

>  <SMILES>  (1) 
Cc1nn(c2c1[C@H]1[C@@H](C2)C1(C)C)S(=O)(=O)/C=C/c1ccccc1

>  <CID>  (1) 
46225282.0

>  <ChEMBL ID>  (1) 
nan

>  <InChiKey>  (1) 
ZMMBHROVKDGNDE-HVMBIVEYSA-N

>  <InChi>  (1) 
InChI=1S/C18H20N2O2S/c1-12-16-15(11-14-17(16)18(14,2)3)20(19-12)23(21,22)10-9-13-7-5-4-6-8-13/h4-10,14,17H,11H2,1-3H3/b10-9+/t14-,17-/m1/s1

>  <IUPAC Name>  (1) 
(2S,4R)-3,3,9-trimethyl-7-[(E)-2-phenylethenyl]sulfonyl-7,8-diazatricyclo[4.3.0.02,4]nona-1(6),8-diene

$$$$
