
     RDKit          3D

142144  0  0  0  0  0  0  0  0999 V2000
   -9.0922    0.2506    2.7561 C   0  0  0  0  0  0  0  0  0  0  0  0
   -7.6340    0.7038    2.7219 C   0  0  0  0  0  0  0  0  0  0  0  0
   -7.1693    0.9934    1.3448 C   0  0  1  0  0  0  0  0  0  0  0  0
   -5.6756    1.4610    1.4040 C   0  0  2  0  0  0  0  0  0  0  0  0
   -5.2802    1.7296    0.0298 N   0  0  0  0  0  0  0  0  0  0  0  0
   -5.7431    2.9083   -0.6792 C   0  0  0  0  0  0  0  0  0  0  0  0
   -6.5548    3.5997   -0.0971 O   0  0  0  0  0  0  0  0  0  0  0  0
   -5.2023    3.1910   -2.0805 C   0  0  1  0  0  0  0  0  0  0  0  0
   -4.0407    2.3113   -2.2352 N   0  0  0  0  0  0  0  0  0  0  0  0
   -2.7619    2.9433   -2.0827 C   0  0  0  0  0  0  0  0  0  0  0  0
   -2.7758    4.1772   -2.0483 O   0  0  0  0  0  0  0  0  0  0  0  0
   -1.4904    2.2257   -1.9713 C   0  0  1  0  0  0  0  0  0  0  0  0
   -1.6275    0.7930   -2.0736 N   0  0  0  0  0  0  0  0  0  0  0  0
   -0.4693    2.7358   -2.9453 C   0  0  0  0  0  0  0  0  0  0  0  0
    1.1382    1.8595   -2.6182 S   0  0  0  0  0  0  0  0  0  0  0  0
    1.7193    2.4058   -0.6080 S   0  0  0  0  0  0  0  0  0  0  0  0
    1.0408    1.1854    0.5006 C   0  0  0  0  0  0  0  0  0  0  0  0
    1.8195   -0.1358    0.5189 C   0  0  2  0  0  0  0  0  0  0  0  0
    0.9859   -1.0988    1.2713 N   0  0  0  0  0  0  0  0  0  0  0  0
    0.9051   -2.4440    0.8371 C   0  0  0  0  0  0  0  0  0  0  0  0
    1.6485   -2.7570   -0.1008 O   0  0  0  0  0  0  0  0  0  0  0  0
    0.0063   -3.4873    1.4439 C   0  0  1  0  0  0  0  0  0  0  0  0
   -1.2333   -3.0247    1.9429 N   0  0  0  0  0  0  0  0  0  0  0  0
   -2.0175   -1.9247    1.4209 C   0  0  0  0  0  0  0  0  0  0  0  0
   -1.5162   -1.3665    0.4379 O   0  0  0  0  0  0  0  0  0  0  0  0
   -3.2854   -1.5763    2.0610 C   0  0  1  0  0  0  0  0  0  0  0  0
   -4.0028   -0.5032    1.3186 N   0  0  0  0  0  0  0  0  0  0  0  0
   -4.8635    0.4092    1.9991 C   0  0  0  0  0  0  0  0  0  0  0  0
   -4.8900    0.2399    3.2353 O   0  0  0  0  0  0  0  0  0  0  0  0
   -4.2672   -2.7336    2.1552 C   0  0  0  0  0  0  0  0  0  0  0  0
   -4.7509   -3.3301    0.9039 C   0  0  0  0  0  0  0  0  0  0  0  0
   -3.7740   -3.9772   -0.0166 C   0  0  0  0  0  0  0  0  0  0  0  0
   -4.5200   -4.5185   -1.2336 C   0  0  0  0  0  0  0  0  0  0  0  0
   -5.7688   -4.3405   -1.3351 O   0  0  0  0  0  0  0  0  0  0  0  0
   -3.8382   -5.2185   -2.2555 N   0  0  0  0  0  0  0  0  0  0  0  0
    0.0647   -4.7545    0.6999 C   0  0  0  0  0  0  0  0  0  0  0  0
   -0.7788   -5.8026    1.2708 C   0  0  0  0  0  0  0  0  0  0  0  0
   -1.4735   -5.7077    2.3119 O   0  0  0  0  0  0  0  0  0  0  0  0
   -0.8378   -7.0715    0.5964 N   0  0  0  0  0  0  0  0  0  0  0  0
    3.1423    0.1012    1.1444 C   0  0  0  0  0  0  0  0  0  0  0  0
    3.9235    0.8453    0.4177 O   0  0  0  0  0  0  0  0  0  0  0  0
    3.6461   -0.3442    2.3724 N   0  0  0  0  0  0  0  0  0  0  0  0
    3.1134   -1.1921    3.4120 C   0  0  0  0  0  0  0  0  0  0  0  0
    4.3341   -2.1010    3.6498 C   0  0  0  0  0  0  0  0  0  0  0  0
    5.4943   -1.1397    3.5482 C   0  0  0  0  0  0  0  0  0  0  0  0
    4.9448    0.1059    2.8939 C   0  0  1  0  0  0  0  0  0  0  0  0
    5.8665    0.6157    1.8700 C   0  0  0  0  0  0  0  0  0  0  0  0
    6.1277    1.8430    1.8676 O   0  0  0  0  0  0  0  0  0  0  0  0
    6.4640   -0.2456    0.9007 N   0  0  0  0  0  0  0  0  0  0  0  0
    7.3867    0.4263   -0.0586 C   0  0  2  0  0  0  0  0  0  0  0  0
    7.1026   -0.0066   -1.4191 C   0  0  0  0  0  0  0  0  0  0  0  0
    6.3601   -1.0392   -1.5630 O   0  0  0  0  0  0  0  0  0  0  0  0
    7.5564    0.5919   -2.6135 N   0  0  0  0  0  0  0  0  0  0  0  0
    7.2079    0.0497   -3.9275 C   0  0  0  0  0  0  0  0  0  0  0  0
    7.7013   -1.3297   -4.0819 C   0  0  0  0  0  0  0  0  0  0  0  0
    8.3310   -1.8491   -3.1286 O   0  0  0  0  0  0  0  0  0  0  0  0
    7.4955   -2.0963   -5.2661 N   0  0  0  0  0  0  0  0  0  0  0  0
    8.8085    0.0908    0.4187 C   0  0  0  0  0  0  0  0  0  0  0  0
    9.8575    0.6946   -0.4302 C   0  0  0  0  0  0  0  0  0  0  0  0
    9.9105    2.0951   -0.5634 N   0  0  0  0  0  0  0  0  0  0  0  0
   10.2956    2.8991    0.5338 C   0  0  0  0  0  0  0  0  0  0  0  0
   11.5726    2.4615    1.2289 C   0  0  0  0  0  0  0  0  0  0  0  0
    9.2308    3.2752    1.5220 C   0  0  0  0  0  0  0  0  0  0  0  0
   -6.2019    2.8530   -3.1151 C   0  0  0  0  0  0  0  0  0  0  0  0
   -7.4685    3.6164   -2.9789 C   0  0  0  0  0  0  0  0  0  0  0  0
   -7.7339    4.8079   -3.5856 C   0  0  0  0  0  0  0  0  0  0  0  0
   -8.9386    5.4642   -3.3959 C   0  0  0  0  0  0  0  0  0  0  0  0
   -9.9349    4.9319   -2.5734 C   0  0  0  0  0  0  0  0  0  0  0  0
   -9.6657    3.7335   -1.9656 C   0  0  0  0  0  0  0  0  0  0  0  0
   -8.4696    3.0880   -2.1575 C   0  0  0  0  0  0  0  0  0  0  0  0
   -7.3338   -0.0984    0.3505 C   0  0  0  0  0  0  0  0  0  0  0  0
   -9.2238   -0.7278    2.2793 H   0  0  0  0  0  0  0  0  0  0  0  0
   -9.7329    1.0063    2.2682 H   0  0  0  0  0  0  0  0  0  0  0  0
   -9.4471    0.1786    3.8040 H   0  0  0  0  0  0  0  0  0  0  0  0
   -7.0908   -0.1422    3.2302 H   0  0  0  0  0  0  0  0  0  0  0  0
   -7.5611    1.5687    3.4081 H   0  0  0  0  0  0  0  0  0  0  0  0
   -7.7046    1.8945    0.9899 H   0  0  0  0  0  0  0  0  0  0  0  0
   -5.7492    2.3412    2.0410 H   0  0  0  0  0  0  0  0  0  0  0  0
   -4.6712    1.1418   -0.5397 H   0  0  0  0  0  0  0  0  0  0  0  0
   -4.9721    4.2456   -2.0623 H   0  0  0  0  0  0  0  0  0  0  0  0
   -4.0368    1.3336   -2.4410 H   0  0  0  0  0  0  0  0  0  0  0  0
   -1.0580    2.4166   -0.9321 H   0  0  0  0  0  0  0  0  0  0  0  0
   -1.7892    0.4826   -3.0664 H   0  0  0  0  0  0  0  0  0  0  0  0
   -2.3829    0.4455   -1.4414 H   0  0  0  0  0  0  0  0  0  0  0  0
   -0.2420    3.8056   -2.7937 H   0  0  0  0  0  0  0  0  0  0  0  0
   -0.8029    2.5782   -3.9790 H   0  0  0  0  0  0  0  0  0  0  0  0
   -0.0113    0.9709    0.2487 H   0  0  0  0  0  0  0  0  0  0  0  0
    1.0029    1.5593    1.5656 H   0  0  0  0  0  0  0  0  0  0  0  0
    1.9377   -0.5137   -0.4786 H   0  0  0  0  0  0  0  0  0  0  0  0
    0.4520   -0.8517    2.1029 H   0  0  0  0  0  0  0  0  0  0  0  0
    0.6225   -3.6652    2.4335 H   0  0  0  0  0  0  0  0  0  0  0  0
   -1.6645   -3.4739    2.7596 H   0  0  0  0  0  0  0  0  0  0  0  0
   -3.1273   -1.2795    3.1195 H   0  0  0  0  0  0  0  0  0  0  0  0
   -3.9022   -0.3949    0.3251 H   0  0  0  0  0  0  0  0  0  0  0  0
   -3.7341   -3.5123    2.7609 H   0  0  0  0  0  0  0  0  0  0  0  0
   -5.0756   -2.3754    2.8342 H   0  0  0  0  0  0  0  0  0  0  0  0
   -5.3279   -2.5942    0.2593 H   0  0  0  0  0  0  0  0  0  0  0  0
   -5.5468   -4.0783    1.1684 H   0  0  0  0  0  0  0  0  0  0  0  0
   -3.0131   -3.3270   -0.4628 H   0  0  0  0  0  0  0  0  0  0  0  0
   -3.3134   -4.8545    0.4786 H   0  0  0  0  0  0  0  0  0  0  0  0
   -3.0731   -5.9118   -2.0186 H   0  0  0  0  0  0  0  0  0  0  0  0
   -4.0274   -5.1102   -3.2765 H   0  0  0  0  0  0  0  0  0  0  0  0
    1.1304   -5.1349    0.8152 H   0  0  0  0  0  0  0  0  0  0  0  0
   -0.0376   -4.6550   -0.4009 H   0  0  0  0  0  0  0  0  0  0  0  0
   -0.3366   -7.2375   -0.3082 H   0  0  0  0  0  0  0  0  0  0  0  0
   -1.3774   -7.8819    0.9693 H   0  0  0  0  0  0  0  0  0  0  0  0
    2.2296   -1.7586    3.2029 H   0  0  0  0  0  0  0  0  0  0  0  0
    3.0357   -0.5744    4.3574 H   0  0  0  0  0  0  0  0  0  0  0  0
    4.4146   -2.8266    2.8223 H   0  0  0  0  0  0  0  0  0  0  0  0
    4.2683   -2.5956    4.6450 H   0  0  0  0  0  0  0  0  0  0  0  0
    6.2924   -1.5320    2.8684 H   0  0  0  0  0  0  0  0  0  0  0  0
    5.9300   -0.9184    4.5480 H   0  0  0  0  0  0  0  0  0  0  0  0
    4.7870    0.8382    3.7204 H   0  0  0  0  0  0  0  0  0  0  0  0
    6.2841   -1.2653    0.8520 H   0  0  0  0  0  0  0  0  0  0  0  0
    7.2712    1.5032    0.0457 H   0  0  0  0  0  0  0  0  0  0  0  0
    8.1357    1.4477   -2.5756 H   0  0  0  0  0  0  0  0  0  0  0  0
    7.5332    0.7298   -4.7134 H   0  0  0  0  0  0  0  0  0  0  0  0
    6.0801   -0.0099   -3.9279 H   0  0  0  0  0  0  0  0  0  0  0  0
    8.2449   -2.7457   -5.6261 H   0  0  0  0  0  0  0  0  0  0  0  0
    6.5842   -2.0314   -5.8074 H   0  0  0  0  0  0  0  0  0  0  0  0
    8.8765   -1.0411    0.3526 H   0  0  0  0  0  0  0  0  0  0  0  0
    8.8706    0.3780    1.4830 H   0  0  0  0  0  0  0  0  0  0  0  0
   10.8626    0.2642   -0.1080 H   0  0  0  0  0  0  0  0  0  0  0  0
    9.7490    0.2399   -1.4627 H   0  0  0  0  0  0  0  0  0  0  0  0
   10.1744    2.4759   -1.4855 H   0  0  0  0  0  0  0  0  0  0  0  0
   10.6095    3.9170    0.0791 H   0  0  0  0  0  0  0  0  0  0  0  0
   11.9398    3.3315    1.8101 H   0  0  0  0  0  0  0  0  0  0  0  0
   12.3359    2.2405    0.4715 H   0  0  0  0  0  0  0  0  0  0  0  0
   11.4117    1.6500    1.9591 H   0  0  0  0  0  0  0  0  0  0  0  0
    8.2479    3.3919    1.0257 H   0  0  0  0  0  0  0  0  0  0  0  0
    9.1975    2.5290    2.3271 H   0  0  0  0  0  0  0  0  0  0  0  0
    9.4879    4.2797    1.9859 H   0  0  0  0  0  0  0  0  0  0  0  0
   -5.7806    3.0868   -4.1121 H   0  0  0  0  0  0  0  0  0  0  0  0
   -6.4431    1.7655   -3.1565 H   0  0  0  0  0  0  0  0  0  0  0  0
   -6.9781    5.2385   -4.2259 H   0  0  0  0  0  0  0  0  0  0  0  0
   -9.1659    6.4200   -3.8716 H   0  0  0  0  0  0  0  0  0  0  0  0
  -10.8791    5.4537   -2.4300 H   0  0  0  0  0  0  0  0  0  0  0  0
  -10.4313    3.3023   -1.3220 H   0  0  0  0  0  0  0  0  0  0  0  0
   -8.3385    2.1448   -1.6401 H   0  0  0  0  0  0  0  0  0  0  0  0
   -6.4685   -0.0728   -0.3451 H   0  0  0  0  0  0  0  0  0  0  0  0
   -8.2325    0.1174   -0.2721 H   0  0  0  0  0  0  0  0  0  0  0  0
   -7.3685   -1.1196    0.7574 H   0  0  0  0  0  0  0  0  0  0  0  0
  1  2  1  0
  2  3  1  0
  3  4  1  0
  4  5  1  0
  5  6  1  0
  6  7  2  0
  6  8  1  0
  8  9  1  0
  9 10  1  0
 10 11  2  0
 10 12  1  0
 12 13  1  0
 12 14  1  0
 14 15  1  0
 15 16  1  0
 16 17  1  0
 17 18  1  0
 18 19  1  0
 19 20  1  0
 20 21  2  0
 20 22  1  0
 22 23  1  0
 23 24  1  0
 24 25  2  0
 24 26  1  0
 26 27  1  0
 27 28  1  0
 28 29  2  0
 26 30  1  0
 30 31  1  0
 31 32  1  0
 32 33  1  0
 33 34  2  0
 33 35  1  0
 22 36  1  0
 36 37  1  0
 37 38  2  0
 37 39  1  0
 18 40  1  0
 40 41  2  0
 40 42  1  0
 42 43  1  0
 43 44  1  0
 44 45  1  0
 45 46  1  0
 46 47  1  0
 47 48  2  0
 47 49  1  0
 49 50  1  0
 50 51  1  0
 51 52  2  0
 51 53  1  0
 53 54  1  0
 54 55  1  0
 55 56  2  0
 55 57  1  0
 50 58  1  0
 58 59  1  0
 59 60  1  0
 60 61  1  0
 61 62  1  0
 61 63  1  0
  8 64  1  0
 64 65  1  0
 65 66  2  0
 66 67  1  0
 67 68  2  0
 68 69  1  0
 69 70  2  0
  3 71  1  0
 28  4  1  0
 46 42  1  0
 70 65  1  0
  1 72  1  0
  1 73  1  0
  1 74  1  0
  2 75  1  0
  2 76  1  0
  3 77  1  6
  4 78  1  1
  5 79  1  0
  8 80  1  1
  9 81  1  0
 12 82  1  1
 13 83  1  0
 13 84  1  0
 14 85  1  0
 14 86  1  0
 17 87  1  0
 17 88  1  0
 18 89  1  6
 19 90  1  0
 22 91  1  1
 23 92  1  0
 26 93  1  1
 27 94  1  0
 30 95  1  0
 30 96  1  0
 31 97  1  0
 31 98  1  0
 32 99  1  0
 32100  1  0
 35101  1  0
 35102  1  0
 36103  1  0
 36104  1  0
 39105  1  0
 39106  1  0
 43107  1  0
 43108  1  0
 44109  1  0
 44110  1  0
 45111  1  0
 45112  1  0
 46113  1  1
 49114  1  0
 50115  1  6
 53116  1  0
 54117  1  0
 54118  1  0
 57119  1  0
 57120  1  0
 58121  1  0
 58122  1  0
 59123  1  0
 59124  1  0
 60125  1  0
 61126  1  0
 62127  1  0
 62128  1  0
 62129  1  0
 63130  1  0
 63131  1  0
 63132  1  0
 64133  1  0
 64134  1  0
 66135  1  0
 67136  1  0
 68137  1  0
 69138  1  0
 70139  1  0
 71140  1  0
 71141  1  0
 71142  1  0
M  END
>  <Ligand ID>  (1) 
LIG0001604

>  <Ligand>  (1) 
CHEMBL1817671

>  <SMILES>  (1) 
CC[C@@H]([C@@H]1NC(=O)[C@@H](NC(=O)[C@@H](N)CSSC[C@H](NC(=O)[C@@H](NC(=O)[C@@H](NC1=O)CCCC(=O)N)CC(=O)N)C(=O)N1CCC[C@H]1C(=O)N[C@H](C(=O)NCC(=O)N)CCNC(C)C)Cc1ccccc1)C

>  <CID>  (1) 
53362490.0

>  <ChEMBL ID>  (1) 
nan

>  <InChiKey>  (1) 
FLUDUPBOFDHVIQ-HOHGFJJGSA-N

>  <InChi>  (1) 
InChI=1S/C45H71N13O11S2/c1-5-25(4)37-44(68)53-28(13-9-15-34(47)59)40(64)55-31(20-35(48)60)41(65)56-32(23-71-70-22-27(46)38(62)54-30(42(66)57-37)19-26-11-7-6-8-12-26)45(69)58-18-10-14-33(58)43(67)52-29(16-17-50-24(2)3)39(63)51-21-36(49)61/h6-8,11-12,24-25,27-33,37,50H,5,9-10,13-23,46H2,1-4H3,(H2,47,59)(H2,48,60)(H2,49,61)(H,51,63)(H,52,67)(H,53,68)(H,54,62)(H,55,64)(H,56,65)(H,57,66)/t25-,27-,28-,29-,30-,31-,32-,33-,37-/m0/s1

>  <IUPAC Name>  (1) 
(2S)-1-[(4R,7S,10S,13S,16S,19R)-19-amino-10-(4-amino-4-oxobutyl)-7-(2-amino-2-oxoethyl)-16-benzyl-13-[(2S)-butan-2-yl]-6,9,12,15,18-pentaoxo-1,2-dithia-5,8,11,14,17-pentazacycloicosane-4-carbonyl]-N-[(2S)-1-[(2-amino-2-oxoethyl)amino]-1-oxo-4-(propan-2-ylamino)butan-2-yl]pyrrolidine-2-carboxamide

$$$$
