
     RDKit          3D

 37 38  0  0  0  0  0  0  0  0999 V2000
    7.1428    0.1184   -0.1443 C   0  0  0  0  0  0  0  0  0  0  0  0
    5.7271   -0.1559   -0.6389 C   0  0  0  0  0  0  0  0  0  0  0  0
    4.7615    0.3309    0.3999 C   0  0  0  0  0  0  0  0  0  0  0  0
    3.3459    0.1030    0.0002 C   0  0  0  0  0  0  0  0  0  0  0  0
    2.8658   -0.4428   -1.0923 O   0  0  0  0  0  0  0  0  0  0  0  0
    1.5517   -0.4464   -1.0387 N   0  0  0  0  0  0  0  0  0  0  0  0
    1.1414    0.1095    0.1154 C   0  0  0  0  0  0  0  0  0  0  0  0
    2.2841    0.4708    0.8004 C   0  0  0  0  0  0  0  0  0  0  0  0
   -0.2339    0.3141    0.5970 C   0  0  0  0  0  0  0  0  0  0  0  0
   -0.4443    0.8522    1.7056 O   0  0  0  0  0  0  0  0  0  0  0  0
   -1.3077   -0.1275   -0.2549 N   0  0  0  0  0  0  0  0  0  0  0  0
   -2.6623    0.0579    0.1864 C   0  0  0  0  0  0  0  0  0  0  0  0
   -3.4227    1.0436   -0.6828 C   0  0  0  0  0  0  0  0  0  0  0  0
   -4.8679    0.9495   -0.2564 C   0  0  0  0  0  0  0  0  0  0  0  0
   -5.4640   -0.3552   -0.7555 C   0  0  0  0  0  0  0  0  0  0  0  0
   -4.3905   -1.4228   -0.8069 C   0  0  0  0  0  0  0  0  0  0  0  0
   -3.4695   -1.1762    0.3758 C   0  0  0  0  0  0  0  0  0  0  0  0
    7.7672   -0.7475   -0.4389 H   0  0  0  0  0  0  0  0  0  0  0  0
    7.1568    0.3058    0.9520 H   0  0  0  0  0  0  0  0  0  0  0  0
    7.5391    1.0081   -0.6605 H   0  0  0  0  0  0  0  0  0  0  0  0
    5.5992   -1.2595   -0.7880 H   0  0  0  0  0  0  0  0  0  0  0  0
    5.5577    0.4116   -1.5558 H   0  0  0  0  0  0  0  0  0  0  0  0
    4.9087   -0.2581    1.3503 H   0  0  0  0  0  0  0  0  0  0  0  0
    4.9437    1.3855    0.6374 H   0  0  0  0  0  0  0  0  0  0  0  0
    2.3408    0.9456    1.7672 H   0  0  0  0  0  0  0  0  0  0  0  0
   -1.0686   -0.5714   -1.1725 H   0  0  0  0  0  0  0  0  0  0  0  0
   -2.5992    0.5540    1.1964 H   0  0  0  0  0  0  0  0  0  0  0  0
   -3.2769    0.8726   -1.7631 H   0  0  0  0  0  0  0  0  0  0  0  0
   -3.0550    2.0545   -0.4264 H   0  0  0  0  0  0  0  0  0  0  0  0
   -4.8415    0.8968    0.8689 H   0  0  0  0  0  0  0  0  0  0  0  0
   -5.4706    1.8260   -0.5127 H   0  0  0  0  0  0  0  0  0  0  0  0
   -6.2567   -0.6724   -0.0273 H   0  0  0  0  0  0  0  0  0  0  0  0
   -5.9156   -0.1473   -1.7468 H   0  0  0  0  0  0  0  0  0  0  0  0
   -3.8838   -1.3275   -1.7813 H   0  0  0  0  0  0  0  0  0  0  0  0
   -4.9020   -2.3862   -0.6696 H   0  0  0  0  0  0  0  0  0  0  0  0
   -4.1977   -1.0416    1.2320 H   0  0  0  0  0  0  0  0  0  0  0  0
   -2.9031   -2.0722    0.6622 H   0  0  0  0  0  0  0  0  0  0  0  0
  1  2  1  0
  2  3  1  0
  3  4  1  0
  4  5  1  0
  5  6  1  0
  6  7  2  0
  7  8  1  0
  7  9  1  0
  9 10  2  0
  9 11  1  0
 11 12  1  0
 12 13  1  0
 13 14  1  0
 14 15  1  0
 15 16  1  0
 16 17  1  0
  8  4  2  0
 17 12  1  0
  1 18  1  0
  1 19  1  0
  1 20  1  0
  2 21  1  0
  2 22  1  0
  3 23  1  0
  3 24  1  0
  8 25  1  0
 11 26  1  0
 12 27  1  0
 13 28  1  0
 13 29  1  0
 14 30  1  0
 14 31  1  0
 15 32  1  0
 15 33  1  0
 16 34  1  0
 16 35  1  0
 17 36  1  0
 17 37  1  0
M  END
>  <Ligand ID>  (1) 
LIG0001854

>  <Ligand>  (1) 
SR-01000104852

>  <SMILES>  (1) 
CCCc1onc(c1)C(=O)NC1CCCCC1

>  <CID>  (1) 
5307570.0

>  <ChEMBL ID>  (1) 
nan

>  <InChiKey>  (1) 
UWYFUCDLJDTNBA-UHFFFAOYSA-N

>  <InChi>  (1) 
InChI=1S/C13H20N2O2/c1-2-6-11-9-12(15-17-11)13(16)14-10-7-4-3-5-8-10/h9-10H,2-8H2,1H3,(H,14,16)

>  <IUPAC Name>  (1) 
N-cyclohexyl-5-propyl-1,2-oxazole-3-carboxamide

$$$$
