
     RDKit          3D

 33 35  0  0  0  0  0  0  0  0999 V2000
   -2.2657    2.4694    1.4258 C   0  0  0  0  0  0  0  0  0  0  0  0
   -1.4347    1.4957    0.8216 O   0  0  0  0  0  0  0  0  0  0  0  0
   -1.9202    0.2616    0.4843 C   0  0  0  0  0  0  0  0  0  0  0  0
   -3.2629   -0.0302    0.7462 C   0  0  0  0  0  0  0  0  0  0  0  0
   -3.7992   -1.2585    0.4249 C   0  0  0  0  0  0  0  0  0  0  0  0
   -2.9644   -2.1762   -0.1589 C   0  0  0  0  0  0  0  0  0  0  0  0
   -1.6418   -1.8896   -0.4172 C   0  0  0  0  0  0  0  0  0  0  0  0
   -1.0722   -0.6507   -0.1011 C   0  0  0  0  0  0  0  0  0  0  0  0
    0.3374   -0.4290   -0.4078 C   0  0  0  0  0  0  0  0  0  0  0  0
    0.6047    0.1640   -1.7704 C   0  0  0  0  0  0  0  0  0  0  0  0
    1.9959   -0.2485   -2.1849 C   0  0  0  0  0  0  0  0  0  0  0  0
    2.9219   -0.1079   -1.0471 C   0  0  0  0  0  0  0  0  0  0  0  0
    2.5535    0.1507    0.2476 C   0  0  0  0  0  0  0  0  0  0  0  0
    1.1101    0.3252    0.6538 C   0  0  0  0  0  0  0  0  0  0  0  0
    3.6515    0.2172    1.0438 N   0  0  0  0  0  0  0  0  0  0  0  0
    4.7154   -0.0041    0.2263 C   0  0  0  0  0  0  0  0  0  0  0  0
    4.2728   -0.2007   -1.0390 N   0  0  0  0  0  0  0  0  0  0  0  0
   -3.2070    2.6204    0.8463 H   0  0  0  0  0  0  0  0  0  0  0  0
   -2.5861    2.1659    2.4601 H   0  0  0  0  0  0  0  0  0  0  0  0
   -1.7531    3.4324    1.5440 H   0  0  0  0  0  0  0  0  0  0  0  0
   -3.9034    0.7314    1.2162 H   0  0  0  0  0  0  0  0  0  0  0  0
   -4.8329   -1.4258    0.6486 H   0  0  0  0  0  0  0  0  0  0  0  0
   -3.3814   -3.1593   -0.4195 H   0  0  0  0  0  0  0  0  0  0  0  0
   -1.0539   -2.6742   -0.8814 H   0  0  0  0  0  0  0  0  0  0  0  0
    0.8468   -1.4410   -0.4360 H   0  0  0  0  0  0  0  0  0  0  0  0
   -0.1715   -0.2236   -2.4689 H   0  0  0  0  0  0  0  0  0  0  0  0
    0.6061    1.2628   -1.7194 H   0  0  0  0  0  0  0  0  0  0  0  0
    2.3711    0.3601   -3.0424 H   0  0  0  0  0  0  0  0  0  0  0  0
    2.0287   -1.3415   -2.4655 H   0  0  0  0  0  0  0  0  0  0  0  0
    0.8739    1.3960    0.7140 H   0  0  0  0  0  0  0  0  0  0  0  0
    0.9680   -0.1837    1.6221 H   0  0  0  0  0  0  0  0  0  0  0  0
    3.6549    0.4023    2.0740 H   0  0  0  0  0  0  0  0  0  0  0  0
    5.7378   -0.0109    0.5853 H   0  0  0  0  0  0  0  0  0  0  0  0
  1  2  1  0
  2  3  1  0
  3  4  2  0
  4  5  1  0
  5  6  2  0
  6  7  1  0
  7  8  2  0
  8  9  1  0
  9 10  1  0
 10 11  1  0
 11 12  1  0
 12 13  2  0
 13 14  1  0
 13 15  1  0
 15 16  1  0
 16 17  2  0
  8  3  1  0
 14  9  1  0
 17 12  1  0
  1 18  1  0
  1 19  1  0
  1 20  1  0
  4 21  1  0
  5 22  1  0
  6 23  1  0
  7 24  1  0
  9 25  1  0
 10 26  1  0
 10 27  1  0
 11 28  1  0
 11 29  1  0
 14 30  1  0
 14 31  1  0
 15 32  1  0
 16 33  1  0
M  END
>  <Ligand ID>  (1) 
LIG0004860

>  <Ligand>  (1) 
CHEMBL466869

>  <SMILES>  (1) 
COc1ccccc1C1CCc2c(C1)[nH]cn2

>  <CID>  (1) 
44574877.0

>  <ChEMBL ID>  (1) 
nan

>  <InChiKey>  (1) 
QQOAUSLLNSKQPA-UHFFFAOYSA-N

>  <InChi>  (1) 
InChI=1S/C14H16N2O/c1-17-14-5-3-2-4-11(14)10-6-7-12-13(8-10)16-9-15-12/h2-5,9-10H,6-8H2,1H3,(H,15,16)

>  <IUPAC Name>  (1) 
6-(2-methoxyphenyl)-4,5,6,7-tetrahydro-1H-benzimidazole

$$$$
