
     RDKit          3D

 35 34  0  0  0  0  0  0  0  0999 V2000
   -4.4311    1.6727   -0.1812 C   0  0  0  0  0  0  0  0  0  0  0  0
   -3.7141    0.5967    0.6305 C   0  0  0  0  0  0  0  0  0  0  0  0
   -3.6847   -0.6619   -0.1878 C   0  0  0  0  0  0  0  0  0  0  0  0
   -3.0244   -1.8114    0.4951 C   0  0  0  0  0  0  0  0  0  0  0  0
   -1.7138   -1.4950    0.8258 O   0  0  0  0  0  0  0  0  0  0  0  0
   -0.7067   -1.1042   -0.0389 C   0  0  0  0  0  0  0  0  0  0  0  0
   -0.9285   -1.0029   -1.2679 O   0  0  0  0  0  0  0  0  0  0  0  0
    0.6223   -0.8209    0.5851 C   0  0  0  0  0  0  0  0  0  0  0  0
    1.5797   -0.3594   -0.3389 O   0  0  0  0  0  0  0  0  0  0  0  0
    2.1563    0.8955   -0.1510 C   0  0  0  0  0  0  0  0  0  0  0  0
    1.8015    1.5990    0.8563 O   0  0  0  0  0  0  0  0  0  0  0  0
    3.1644    1.4857   -1.0439 C   0  0  0  0  0  0  0  0  0  0  0  0
    4.1649    0.4380   -1.4557 C   0  0  0  0  0  0  0  0  0  0  0  0
    4.8866   -0.1683   -0.2910 C   0  0  0  0  0  0  0  0  0  0  0  0
    1.0438   -2.0794    1.2853 C   0  0  0  0  0  0  0  0  0  0  0  0
   -4.8327    1.2183   -1.1288 H   0  0  0  0  0  0  0  0  0  0  0  0
   -3.7475    2.4709   -0.4818 H   0  0  0  0  0  0  0  0  0  0  0  0
   -5.3492    2.0322    0.3670 H   0  0  0  0  0  0  0  0  0  0  0  0
   -4.1716    0.4837    1.6263 H   0  0  0  0  0  0  0  0  0  0  0  0
   -2.6783    0.9683    0.8118 H   0  0  0  0  0  0  0  0  0  0  0  0
   -4.7492   -0.9789   -0.3979 H   0  0  0  0  0  0  0  0  0  0  0  0
   -3.2333   -0.4345   -1.1728 H   0  0  0  0  0  0  0  0  0  0  0  0
   -3.5688   -1.9362    1.4763 H   0  0  0  0  0  0  0  0  0  0  0  0
   -3.1521   -2.7763   -0.0167 H   0  0  0  0  0  0  0  0  0  0  0  0
    0.4959   -0.0396    1.3582 H   0  0  0  0  0  0  0  0  0  0  0  0
    3.7241    2.2966   -0.5434 H   0  0  0  0  0  0  0  0  0  0  0  0
    2.7325    1.9336   -1.9643 H   0  0  0  0  0  0  0  0  0  0  0  0
    3.7500   -0.3071   -2.1371 H   0  0  0  0  0  0  0  0  0  0  0  0
    4.9622    0.9903   -2.0404 H   0  0  0  0  0  0  0  0  0  0  0  0
    4.2375   -0.9885    0.1104 H   0  0  0  0  0  0  0  0  0  0  0  0
    5.8414   -0.6360   -0.5993 H   0  0  0  0  0  0  0  0  0  0  0  0
    5.1239    0.5673    0.5019 H   0  0  0  0  0  0  0  0  0  0  0  0
    0.4139   -2.1783    2.2125 H   0  0  0  0  0  0  0  0  0  0  0  0
    0.8963   -2.9885    0.6762 H   0  0  0  0  0  0  0  0  0  0  0  0
    2.0887   -1.9593    1.6202 H   0  0  0  0  0  0  0  0  0  0  0  0
  1  2  1  0
  2  3  1  0
  3  4  1  0
  4  5  1  0
  5  6  1  0
  6  7  2  0
  6  8  1  0
  8  9  1  0
  9 10  1  0
 10 11  2  0
 10 12  1  0
 12 13  1  0
 13 14  1  0
  8 15  1  0
  1 16  1  0
  1 17  1  0
  1 18  1  0
  2 19  1  0
  2 20  1  0
  3 21  1  0
  3 22  1  0
  4 23  1  0
  4 24  1  0
  8 25  1  0
 12 26  1  0
 12 27  1  0
 13 28  1  0
 13 29  1  0
 14 30  1  0
 14 31  1  0
 14 32  1  0
 15 33  1  0
 15 34  1  0
 15 35  1  0
M  END
>  <Ligand ID>  (1) 
LIG0000139

>  <Ligand>  (1) 
Butyl Butyryllactate

>  <SMILES>  (1) 
CCCCOC(=O)C(OC(=O)CCC)C

>  <CID>  (1) 
24114.0

>  <ChEMBL ID>  (1) 
nan

>  <InChiKey>  (1) 
NORZZKKLCYMBBF-UHFFFAOYSA-N

>  <InChi>  (1) 
InChI=1S/C11H20O4/c1-4-6-8-14-11(13)9(3)15-10(12)7-5-2/h9H,4-8H2,1-3H3

>  <IUPAC Name>  (1) 
(1-butoxy-1-oxopropan-2-yl) butanoate

$$$$
