
     RDKit          3D

194201  0  0  0  0  0  0  0  0999 V2000
    1.7872   -3.5350    5.5935 N   0  0  0  0  0  0  0  0  0  0  0  0
    2.5721   -4.0725    4.5207 C   0  0  0  0  0  0  0  0  0  0  0  0
    3.1516   -5.1604    4.7380 O   0  0  0  0  0  0  0  0  0  0  0  0
    2.6274   -3.3040    3.2638 C   0  0  0  0  0  0  0  0  0  0  0  0
    3.1036   -4.2553    2.1527 C   0  0  2  0  0  0  0  0  0  0  0  0
    3.2996   -3.4075    0.9313 N   0  0  0  0  0  0  0  0  0  0  0  0
    4.4162   -2.5151    0.8524 C   0  0  0  0  0  0  0  0  0  0  0  0
    5.1727   -2.5365    1.8337 O   0  0  0  0  0  0  0  0  0  0  0  0
    4.5414   -1.6819   -0.3443 C   0  0  1  0  0  0  0  0  0  0  0  0
    5.4785   -0.5544   -0.0937 N   0  0  0  0  0  0  0  0  0  0  0  0
    5.1159    0.6883   -0.6599 C   0  0  0  0  0  0  0  0  0  0  0  0
    4.1179    0.6473   -1.4090 O   0  0  0  0  0  0  0  0  0  0  0  0
    5.7936    2.0012   -0.4678 C   0  0  2  0  0  0  0  0  0  0  0  0
    5.6633    2.5756    0.9000 C   0  0  0  0  0  0  0  0  0  0  0  0
    6.2055    1.7599    2.0177 C   0  0  0  0  0  0  0  0  0  0  0  0
    7.6925    1.4998    1.9574 C   0  0  0  0  0  0  0  0  0  0  0  0
    8.4478    2.7381    2.0262 N   0  0  0  0  0  0  0  0  0  0  0  0
    9.4264    2.9174    1.2241 C   0  0  0  0  0  0  0  0  0  0  0  0
    9.8382    1.9704    0.2467 N   0  0  0  0  0  0  0  0  0  0  0  0
   10.1449    4.1464    1.3393 N   0  0  0  0  0  0  0  0  0  0  0  0
    5.1252    2.8912   -1.4592 N   0  0  0  0  0  0  0  0  0  0  0  0
    3.7263    3.0728   -1.4734 C   0  0  0  0  0  0  0  0  0  0  0  0
    3.1057    2.5642   -0.4901 O   0  0  0  0  0  0  0  0  0  0  0  0
    2.9033    3.7678   -2.4527 C   0  0  1  0  0  0  0  0  0  0  0  0
    2.9623    3.0345   -3.7945 C   0  0  0  0  0  0  0  0  0  0  0  0
    4.2690    2.9081   -4.3873 C   0  0  0  0  0  0  0  0  0  0  0  0
    5.0654    1.7774   -4.3918 C   0  0  0  0  0  0  0  0  0  0  0  0
    6.3137    1.7103   -4.9558 C   0  0  0  0  0  0  0  0  0  0  0  0
    6.8308    2.8252   -5.5625 C   0  0  0  0  0  0  0  0  0  0  0  0
    6.0830    3.9588   -5.5810 C   0  0  0  0  0  0  0  0  0  0  0  0
    4.8201    4.0308   -5.0130 C   0  0  0  0  0  0  0  0  0  0  0  0
    1.4989    3.6062   -1.9493 N   0  0  0  0  0  0  0  0  0  0  0  0
    0.4022    4.2129   -2.5941 C   0  0  0  0  0  0  0  0  0  0  0  0
    0.6483    4.8593   -3.6136 O   0  0  0  0  0  0  0  0  0  0  0  0
   -1.0229    4.0900   -2.0957 C   0  0  2  0  0  0  0  0  0  0  0  0
   -1.8276    5.2793   -2.4738 C   0  0  0  0  0  0  0  0  0  0  0  0
   -1.2430    6.5338   -1.9016 C   0  0  0  0  0  0  0  0  0  0  0  0
   -0.1356    6.6636   -1.1304 N   0  0  0  0  0  0  0  0  0  0  0  0
    0.0652    7.9609   -0.8163 C   0  0  0  0  0  0  0  0  0  0  0  0
   -0.9410    8.6715   -1.4049 N   0  0  0  0  0  0  0  0  0  0  0  0
   -1.7323    7.8135   -2.0593 C   0  0  0  0  0  0  0  0  0  0  0  0
   -1.0944    3.6914   -0.7254 N   0  0  0  0  0  0  0  0  0  0  0  0
   -1.0568    2.3873   -0.1753 C   0  0  0  0  0  0  0  0  0  0  0  0
   -0.9079    1.4567   -0.9686 O   0  0  0  0  0  0  0  0  0  0  0  0
   -1.1887    2.2499    1.3007 C   0  0  2  0  0  0  0  0  0  0  0  0
   -1.7612    0.9781    1.8134 C   0  0  0  0  0  0  0  0  0  0  0  0
   -3.4057    0.5559    1.3202 S   0  0  0  0  0  0  0  0  0  0  0  0
   -3.4363   -0.0352   -0.7084 S   0  0  0  0  0  0  0  0  0  0  0  0
   -3.1691   -1.8183   -0.8839 C   0  0  0  0  0  0  0  0  0  0  0  0
   -4.2661   -2.6287   -0.2104 C   0  0  2  0  0  0  0  0  0  0  0  0
   -3.9757   -4.0299   -0.4071 N   0  0  0  0  0  0  0  0  0  0  0  0
   -3.2989   -4.8650    0.5295 C   0  0  0  0  0  0  0  0  0  0  0  0
   -2.8699   -4.3176    1.5422 O   0  0  0  0  0  0  0  0  0  0  0  0
   -3.1315   -6.3537    0.2401 C   0  0  1  0  0  0  0  0  0  0  0  0
   -2.1400   -6.9476    1.1070 N   0  0  0  0  0  0  0  0  0  0  0  0
   -0.7982   -6.3863    1.1895 C   0  0  0  0  0  0  0  0  0  0  0  0
   -0.6731   -5.3211    0.5775 O   0  0  0  0  0  0  0  0  0  0  0  0
    0.2882   -7.0450    1.9612 C   0  0  1  0  0  0  0  0  0  0  0  0
    1.2080   -6.0386    2.5150 N   0  0  0  0  0  0  0  0  0  0  0  0
    2.1037   -5.2711    1.7979 C   0  0  0  0  0  0  0  0  0  0  0  0
    2.0238   -5.4965    0.5143 O   0  0  0  0  0  0  0  0  0  0  0  0
   -0.0953   -8.0496    2.9517 C   0  0  0  0  0  0  0  0  0  0  0  0
   -4.4524   -7.0418    0.3181 C   0  0  0  0  0  0  0  0  0  0  0  0
   -5.0758   -6.9094    1.6787 C   0  0  0  0  0  0  0  0  0  0  0  0
   -4.9133   -7.8548    2.6636 C   0  0  0  0  0  0  0  0  0  0  0  0
   -5.4791   -7.7043    3.9181 C   0  0  0  0  0  0  0  0  0  0  0  0
   -6.2423   -6.5715    4.2287 C   0  0  0  0  0  0  0  0  0  0  0  0
   -6.4143   -5.6042    3.2377 C   0  0  0  0  0  0  0  0  0  0  0  0
   -5.8339   -5.7865    1.9881 C   0  0  0  0  0  0  0  0  0  0  0  0
   -5.6007   -2.4260   -0.8139 C   0  0  0  0  0  0  0  0  0  0  0  0
   -6.1115   -3.4584   -1.3751 O   0  0  0  0  0  0  0  0  0  0  0  0
   -6.3241   -1.2169   -0.8146 N   0  0  0  0  0  0  0  0  0  0  0  0
   -7.6429   -1.1244   -1.4531 C   0  0  2  0  0  0  0  0  0  0  0  0
   -8.5982   -2.0910   -0.9099 C   0  0  0  0  0  0  0  0  0  0  0  0
   -8.2484   -2.9352   -0.0235 O   0  0  0  0  0  0  0  0  0  0  0  0
   -9.9485   -2.1543   -1.3176 N   0  0  0  0  0  0  0  0  0  0  0  0
   -7.5048   -1.2869   -2.9384 C   0  0  0  0  0  0  0  0  0  0  0  0
   -8.7651   -1.2166   -3.6742 C   0  0  0  0  0  0  0  0  0  0  0  0
   -9.3033   -0.0139   -4.0964 C   0  0  0  0  0  0  0  0  0  0  0  0
  -10.4779    0.0495   -4.8114 C   0  0  0  0  0  0  0  0  0  0  0  0
  -11.1705   -1.0939   -5.1370 C   0  0  0  0  0  0  0  0  0  0  0  0
  -10.6594   -2.3182   -4.7289 C   0  0  0  0  0  0  0  0  0  0  0  0
   -9.4938   -2.3631   -4.0211 C   0  0  0  0  0  0  0  0  0  0  0  0
  -12.3642   -1.0810   -5.8553 O   0  0  0  0  0  0  0  0  0  0  0  0
   -1.7676    3.4535    1.8532 N   0  0  0  0  0  0  0  0  0  0  0  0
   -1.1608    4.3774    2.7262 C   0  0  0  0  0  0  0  0  0  0  0  0
    0.0034    4.3003    3.1726 O   0  0  0  0  0  0  0  0  0  0  0  0
   -2.0256    5.5474    3.1308 C   0  0  2  0  0  0  0  0  0  0  0  0
   -2.4513    6.3164    1.9030 C   0  0  0  0  0  0  0  0  0  0  0  0
   -3.3135    7.4793    2.1906 C   0  0  0  0  0  0  0  0  0  0  0  0
   -2.7035    8.7038    2.4204 C   0  0  0  0  0  0  0  0  0  0  0  0
   -3.4658    9.8188    2.6819 C   0  0  0  0  0  0  0  0  0  0  0  0
   -4.8428    9.7010    2.7109 C   0  0  0  0  0  0  0  0  0  0  0  0
   -5.4983    8.5116    2.4891 C   0  0  0  0  0  0  0  0  0  0  0  0
   -4.6844    7.4077    2.2293 C   0  0  0  0  0  0  0  0  0  0  0  0
   -5.5616   10.8593    2.9803 O   0  0  0  0  0  0  0  0  0  0  0  0
   -1.3529    6.4452    4.0299 N   0  0  0  0  0  0  0  0  0  0  0  0
    5.1636   -2.4458   -1.4754 C   0  0  0  0  0  0  0  0  0  0  0  0
    6.5212   -2.9027   -1.1804 C   0  0  0  0  0  0  0  0  0  0  0  0
    7.6517   -2.1806   -1.6303 C   0  0  0  0  0  0  0  0  0  0  0  0
    8.7498   -2.8139   -1.2037 N   0  0  0  0  0  0  0  0  0  0  0  0
    8.4303   -3.9033   -0.5048 C   0  0  0  0  0  0  0  0  0  0  0  0
    7.0194   -3.9724   -0.4804 C   0  0  0  0  0  0  0  0  0  0  0  0
    6.4183   -5.0142    0.1678 C   0  0  0  0  0  0  0  0  0  0  0  0
    7.1255   -6.0002    0.8028 C   0  0  0  0  0  0  0  0  0  0  0  0
    8.5017   -5.9395    0.7893 C   0  0  0  0  0  0  0  0  0  0  0  0
    9.1308   -4.9012    0.1400 C   0  0  0  0  0  0  0  0  0  0  0  0
    2.0313   -2.5797    5.9555 H   0  0  0  0  0  0  0  0  0  0  0  0
    0.9885   -4.0932    5.9974 H   0  0  0  0  0  0  0  0  0  0  0  0
    1.6760   -2.8332    3.0088 H   0  0  0  0  0  0  0  0  0  0  0  0
    3.4659   -2.5763    3.3889 H   0  0  0  0  0  0  0  0  0  0  0  0
    4.0953   -4.5465    2.4721 H   0  0  0  0  0  0  0  0  0  0  0  0
    2.6725   -3.4347    0.1443 H   0  0  0  0  0  0  0  0  0  0  0  0
    3.5496   -1.2614   -0.6718 H   0  0  0  0  0  0  0  0  0  0  0  0
    6.3279   -0.6200    0.4293 H   0  0  0  0  0  0  0  0  0  0  0  0
    6.8168    1.8567   -0.8545 H   0  0  0  0  0  0  0  0  0  0  0  0
    6.2585    3.5337    0.9007 H   0  0  0  0  0  0  0  0  0  0  0  0
    4.6332    2.8480    1.1471 H   0  0  0  0  0  0  0  0  0  0  0  0
    5.6925    0.8094    2.1924 H   0  0  0  0  0  0  0  0  0  0  0  0
    6.0586    2.3441    2.9865 H   0  0  0  0  0  0  0  0  0  0  0  0
    7.9982    0.8832    1.0912 H   0  0  0  0  0  0  0  0  0  0  0  0
    7.9496    0.9137    2.8768 H   0  0  0  0  0  0  0  0  0  0  0  0
    9.3968    1.9858   -0.7213 H   0  0  0  0  0  0  0  0  0  0  0  0
   10.5772    1.2527    0.5001 H   0  0  0  0  0  0  0  0  0  0  0  0
   10.0406    4.9018    0.6002 H   0  0  0  0  0  0  0  0  0  0  0  0
   10.7884    4.3328    2.1511 H   0  0  0  0  0  0  0  0  0  0  0  0
    5.6483    3.4155   -2.1584 H   0  0  0  0  0  0  0  0  0  0  0  0
    3.1030    4.8156   -2.6774 H   0  0  0  0  0  0  0  0  0  0  0  0
    2.5158    2.0173   -3.6905 H   0  0  0  0  0  0  0  0  0  0  0  0
    2.3020    3.5731   -4.5330 H   0  0  0  0  0  0  0  0  0  0  0  0
    4.6901    0.8726   -3.9431 H   0  0  0  0  0  0  0  0  0  0  0  0
    6.8845    0.7729   -4.9205 H   0  0  0  0  0  0  0  0  0  0  0  0
    7.8267    2.7951   -6.0097 H   0  0  0  0  0  0  0  0  0  0  0  0
    6.4554    4.8701   -6.0449 H   0  0  0  0  0  0  0  0  0  0  0  0
    4.2431    4.9590   -5.0508 H   0  0  0  0  0  0  0  0  0  0  0  0
    1.2848    3.0525   -1.1196 H   0  0  0  0  0  0  0  0  0  0  0  0
   -1.4157    3.1966   -2.7075 H   0  0  0  0  0  0  0  0  0  0  0  0
   -1.7829    5.4027   -3.5853 H   0  0  0  0  0  0  0  0  0  0  0  0
   -2.8644    5.1980   -2.1106 H   0  0  0  0  0  0  0  0  0  0  0  0
    0.4945    5.9157   -0.7965 H   0  0  0  0  0  0  0  0  0  0  0  0
    0.8491    8.4122   -0.2186 H   0  0  0  0  0  0  0  0  0  0  0  0
   -2.6102    8.0733   -2.6250 H   0  0  0  0  0  0  0  0  0  0  0  0
   -1.1895    4.4517   -0.0199 H   0  0  0  0  0  0  0  0  0  0  0  0
   -0.1083    2.2754    1.6956 H   0  0  0  0  0  0  0  0  0  0  0  0
   -1.0075    0.1664    1.5292 H   0  0  0  0  0  0  0  0  0  0  0  0
   -1.6850    1.0352    2.9458 H   0  0  0  0  0  0  0  0  0  0  0  0
   -3.1811   -2.0627   -1.9499 H   0  0  0  0  0  0  0  0  0  0  0  0
   -2.2198   -2.0662   -0.3700 H   0  0  0  0  0  0  0  0  0  0  0  0
   -4.2767   -2.4086    0.8831 H   0  0  0  0  0  0  0  0  0  0  0  0
   -4.2592   -4.4947   -1.2726 H   0  0  0  0  0  0  0  0  0  0  0  0
   -2.7440   -6.3482   -0.7775 H   0  0  0  0  0  0  0  0  0  0  0  0
   -2.2586   -7.7586    1.7173 H   0  0  0  0  0  0  0  0  0  0  0  0
    0.9197   -7.5337    1.1464 H   0  0  0  0  0  0  0  0  0  0  0  0
    1.1290   -5.9180    3.5233 H   0  0  0  0  0  0  0  0  0  0  0  0
   -0.6374   -7.6455    3.8373 H   0  0  0  0  0  0  0  0  0  0  0  0
    0.8645   -8.5081    3.3538 H   0  0  0  0  0  0  0  0  0  0  0  0
   -0.6410   -8.8889    2.4741 H   0  0  0  0  0  0  0  0  0  0  0  0
   -5.1916   -6.6334   -0.3952 H   0  0  0  0  0  0  0  0  0  0  0  0
   -4.3133   -8.1058    0.0531 H   0  0  0  0  0  0  0  0  0  0  0  0
   -4.3374   -8.7387    2.4468 H   0  0  0  0  0  0  0  0  0  0  0  0
   -5.3838   -8.4210    4.7170 H   0  0  0  0  0  0  0  0  0  0  0  0
   -6.6880   -6.4575    5.2109 H   0  0  0  0  0  0  0  0  0  0  0  0
   -7.0074   -4.7236    3.4818 H   0  0  0  0  0  0  0  0  0  0  0  0
   -5.9877   -5.0128    1.2487 H   0  0  0  0  0  0  0  0  0  0  0  0
   -5.8961   -0.3801   -0.3457 H   0  0  0  0  0  0  0  0  0  0  0  0
   -8.0032   -0.0690   -1.2555 H   0  0  0  0  0  0  0  0  0  0  0  0
  -10.4346   -1.2416   -1.5455 H   0  0  0  0  0  0  0  0  0  0  0  0
  -10.4743   -3.0529   -1.3960 H   0  0  0  0  0  0  0  0  0  0  0  0
   -6.8387   -0.4718   -3.3436 H   0  0  0  0  0  0  0  0  0  0  0  0
   -6.9398   -2.2271   -3.1425 H   0  0  0  0  0  0  0  0  0  0  0  0
   -8.7832    0.9132   -3.8519 H   0  0  0  0  0  0  0  0  0  0  0  0
  -10.9059    0.9807   -5.1416 H   0  0  0  0  0  0  0  0  0  0  0  0
  -11.2180   -3.2244   -4.9916 H   0  0  0  0  0  0  0  0  0  0  0  0
   -9.1150   -3.3269   -3.7177 H   0  0  0  0  0  0  0  0  0  0  0  0
  -12.9477   -1.8940   -5.9174 H   0  0  0  0  0  0  0  0  0  0  0  0
   -2.7818    3.6309    1.5406 H   0  0  0  0  0  0  0  0  0  0  0  0
   -2.9452    5.1747    3.6441 H   0  0  0  0  0  0  0  0  0  0  0  0
   -1.5473    6.6762    1.3458 H   0  0  0  0  0  0  0  0  0  0  0  0
   -3.0252    5.6322    1.2266 H   0  0  0  0  0  0  0  0  0  0  0  0
   -1.6285    8.7859    2.3907 H   0  0  0  0  0  0  0  0  0  0  0  0
   -2.9494   10.7616    2.8599 H   0  0  0  0  0  0  0  0  0  0  0  0
   -6.5810    8.4134    2.5097 H   0  0  0  0  0  0  0  0  0  0  0  0
   -5.1901    6.4643    2.0504 H   0  0  0  0  0  0  0  0  0  0  0  0
   -5.8716   11.1151    3.8930 H   0  0  0  0  0  0  0  0  0  0  0  0
   -1.5292    6.2491    5.0339 H   0  0  0  0  0  0  0  0  0  0  0  0
   -0.3863    6.6849    3.7897 H   0  0  0  0  0  0  0  0  0  0  0  0
    4.5438   -3.3645   -1.6798 H   0  0  0  0  0  0  0  0  0  0  0  0
    5.1895   -1.8117   -2.4045 H   0  0  0  0  0  0  0  0  0  0  0  0
    7.6373   -1.2704   -2.2202 H   0  0  0  0  0  0  0  0  0  0  0  0
    9.7227   -2.4657   -1.4172 H   0  0  0  0  0  0  0  0  0  0  0  0
    5.3513   -5.0788    0.1714 H   0  0  0  0  0  0  0  0  0  0  0  0
    6.6755   -6.8411    1.3212 H   0  0  0  0  0  0  0  0  0  0  0  0
    9.0959   -6.6948    1.2812 H   0  0  0  0  0  0  0  0  0  0  0  0
   10.2077   -4.8433    0.1209 H   0  0  0  0  0  0  0  0  0  0  0  0
  1  2  1  0
  2  3  2  0
  2  4  1  0
  4  5  1  0
  5  6  1  0
  6  7  1  0
  7  8  2  0
  7  9  1  0
  9 10  1  0
 10 11  1  0
 11 12  2  0
 11 13  1  0
 13 14  1  0
 14 15  1  0
 15 16  1  0
 16 17  1  0
 17 18  2  3
 18 19  1  0
 18 20  1  0
 13 21  1  0
 21 22  1  0
 22 23  2  0
 22 24  1  0
 24 25  1  0
 25 26  1  0
 26 27  2  0
 27 28  1  0
 28 29  2  0
 29 30  1  0
 30 31  2  0
 24 32  1  0
 32 33  1  0
 33 34  2  0
 33 35  1  0
 35 36  1  0
 36 37  1  0
 37 38  1  0
 38 39  1  0
 39 40  2  0
 40 41  1  0
 35 42  1  0
 42 43  1  0
 43 44  2  0
 43 45  1  0
 45 46  1  0
 46 47  1  0
 47 48  1  0
 48 49  1  0
 49 50  1  0
 50 51  1  0
 51 52  1  0
 52 53  2  0
 52 54  1  0
 54 55  1  0
 55 56  1  0
 56 57  2  0
 56 58  1  0
 58 59  1  0
 59 60  1  0
 60 61  2  0
 58 62  1  0
 54 63  1  0
 63 64  1  0
 64 65  2  0
 65 66  1  0
 66 67  2  0
 67 68  1  0
 68 69  2  0
 50 70  1  0
 70 71  2  0
 70 72  1  0
 72 73  1  0
 73 74  1  0
 74 75  2  0
 74 76  1  0
 73 77  1  0
 77 78  1  0
 78 79  2  0
 79 80  1  0
 80 81  2  0
 81 82  1  0
 82 83  2  0
 81 84  1  0
 45 85  1  0
 85 86  1  0
 86 87  2  0
 86 88  1  0
 88 89  1  0
 89 90  1  0
 90 91  2  0
 91 92  1  0
 92 93  2  0
 93 94  1  0
 94 95  2  0
 93 96  1  0
 88 97  1  0
  9 98  1  0
 98 99  1  0
 99100  2  0
100101  1  0
101102  1  0
102103  2  0
103104  1  0
104105  2  0
105106  1  0
106107  2  0
 60  5  1  0
 69 64  1  0
 83 78  1  0
 95 90  1  0
103 99  1  0
 31 26  1  0
 41 37  2  0
107102  1  0
  1108  1  0
  1109  1  0
  4110  1  0
  4111  1  0
  5112  1  1
  6113  1  0
  9114  1  6
 10115  1  0
 13116  1  6
 14117  1  0
 14118  1  0
 15119  1  0
 15120  1  0
 16121  1  0
 16122  1  0
 19123  1  0
 19124  1  0
 20125  1  0
 20126  1  0
 21127  1  0
 24128  1  6
 25129  1  0
 25130  1  0
 27131  1  0
 28132  1  0
 29133  1  0
 30134  1  0
 31135  1  0
 32136  1  0
 35137  1  6
 36138  1  0
 36139  1  0
 38140  1  0
 39141  1  0
 41142  1  0
 42143  1  0
 45144  1  1
 46145  1  0
 46146  1  0
 49147  1  0
 49148  1  0
 50149  1  1
 51150  1  0
 54151  1  6
 55152  1  0
 58153  1  6
 59154  1  0
 62155  1  0
 62156  1  0
 62157  1  0
 63158  1  0
 63159  1  0
 65160  1  0
 66161  1  0
 67162  1  0
 68163  1  0
 69164  1  0
 72165  1  0
 73166  1  6
 76167  1  0
 76168  1  0
 77169  1  0
 77170  1  0
 79171  1  0
 80172  1  0
 82173  1  0
 83174  1  0
 84175  1  0
 85176  1  0
 88177  1  1
 89178  1  0
 89179  1  0
 91180  1  0
 92181  1  0
 94182  1  0
 95183  1  0
 96184  1  0
 97185  1  0
 97186  1  0
 98187  1  0
 98188  1  0
100189  1  0
101190  1  0
104191  1  0
105192  1  0
106193  1  0
107194  1  0
M  END
>  <Ligand ID>  (1) 
LIG0001147

>  <Ligand>  (1) 
BDBM50339348

>  <SMILES>  (1) 
NC(=O)C[C@@H]1NC(=O)[C@@H](NC(=O)[C@H](CCCN=C(N)N)NC(=O)[C@@H](Cc2ccccc2)NC(=O)[C@H](Cc2[nH]cnc2)NC(=O)[C@H](CSSC[C@H](NC(=O)[C@@H](NC(=O)[C@@H](NC1=O)C)Cc1ccccc1)C(=O)N[C@H](C(=O)N)Cc1ccc(cc1)O)NC(=O)[C@H](Cc1ccc(cc1)O)N)Cc1c[nH]c2c1cccc2

>  <CID>  (1) 
91932361.0

>  <ChEMBL ID>  (1) 
nan

>  <InChiKey>  (1) 
VEIBXMZRLHAMLO-LANMVBEMSA-N

>  <InChi>  (1) 
InChI=1S/C72H87N19O14S2/c1-39-62(96)85-53(29-40-11-4-2-5-12-40)67(101)91-59(70(104)84-52(61(75)95)28-43-20-24-47(93)25-21-43)37-107-106-36-58(90-63(97)49(73)27-42-18-22-46(92)23-19-42)71(105)88-56(32-45-35-78-38-81-45)69(103)86-54(30-41-13-6-3-7-14-41)66(100)83-51(17-10-26-79-72(76)77)64(98)87-55(31-44-34-80-50-16-9-8-15-48(44)50)68(102)89-57(33-60(74)94)65(99)82-39/h2-9,11-16,18-25,34-35,38-39,49,51-59,80,92-93H,10,17,26-33,36-37,73H2,1H3,(H2,74,94)(H2,75,95)(H,78,81)(H,82,99)(H,83,100)(H,84,104)(H,85,96)(H,86,103)(H,87,98)(H,88,105)(H,89,102)(H,90,97)(H,91,101)(H4,76,77,79)/t39-,49-,51-,52-,53-,54+,55-,56-,57-,58-,59-/m0/s1

>  <IUPAC Name>  (1) 
(4R,7S,10S,13S,16S,19S,22R,25S,28R)-N-[(2S)-1-amino-3-(4-hydroxyphenyl)-1-oxopropan-2-yl]-28-[[(2S)-2-amino-3-(4-hydroxyphenyl)propanoyl]amino]-13-(2-amino-2-oxoethyl)-7,22-dibenzyl-19-[3-(diaminomethylideneamino)propyl]-25-(1H-imidazol-5-ylmethyl)-16-(1H-indol-3-ylmethyl)-10-methyl-6,9,12,15,18,21,24,27-octaoxo-1,2-dithia-5,8,11,14,17,20,23,26-octazacyclononacosane-4-carboxamide

$$$$
