
     RDKit          3D

 89 91  0  0  0  0  0  0  0  0999 V2000
   10.8668    2.8595    1.1451 C   0  0  0  0  0  0  0  0  0  0  0  0
   10.1205    1.5995    1.5067 C   0  0  0  0  0  0  0  0  0  0  0  0
    9.6305    0.8694    0.2284 C   0  0  0  0  0  0  0  0  0  0  0  0
   10.7905    0.5167   -0.6055 C   0  0  0  0  0  0  0  0  0  0  0  0
   10.4867   -0.1697   -1.8711 C   0  0  0  0  0  0  0  0  0  0  0  0
    9.9084   -1.5193   -1.7833 C   0  0  0  0  0  0  0  0  0  0  0  0
    8.5974   -1.7440   -1.1251 C   0  0  0  0  0  0  0  0  0  0  0  0
    7.4634   -0.9860   -1.6902 C   0  0  0  0  0  0  0  0  0  0  0  0
    6.1692   -1.1839   -1.0371 C   0  0  0  0  0  0  0  0  0  0  0  0
    6.1476   -1.9820   -0.0335 O   0  0  0  0  0  0  0  0  0  0  0  0
    4.9731   -0.5674   -1.4299 N   0  0  0  0  0  0  0  0  0  0  0  0
    3.7954   -0.8727   -0.6714 C   0  0  0  0  0  0  0  0  0  0  0  0
    2.9634   -1.9272   -0.9778 C   0  0  0  0  0  0  0  0  0  0  0  0
    1.8392   -2.1336   -0.1694 C   0  0  0  0  0  0  0  0  0  0  0  0
    1.5804   -1.3021    0.8988 C   0  0  0  0  0  0  0  0  0  0  0  0
    2.4383   -0.2442    1.1853 C   0  0  0  0  0  0  0  0  0  0  0  0
    3.5517   -0.0195    0.4047 C   0  0  0  0  0  0  0  0  0  0  0  0
    0.1714   -1.5386    1.9438 S   0  0  0  0  0  0  0  0  0  0  0  0
   -0.0448   -3.0367    2.0863 O   0  0  0  0  0  0  0  0  0  0  0  0
    0.5920   -1.0528    3.3215 O   0  0  0  0  0  0  0  0  0  0  0  0
   -1.1579   -0.7244    1.3560 N   0  0  0  0  0  0  0  0  0  0  0  0
   -1.7100   -1.0117    0.1180 C   0  0  0  0  0  0  0  0  0  0  0  0
   -3.2240   -1.0454    0.1053 C   0  0  0  0  0  0  0  0  0  0  0  0
   -3.8078   -0.7504    1.4463 C   0  0  0  0  0  0  0  0  0  0  0  0
   -3.1637    0.4192    2.1571 C   0  0  0  0  0  0  0  0  0  0  0  0
   -1.6568    0.2766    2.1934 C   0  0  0  0  0  0  0  0  0  0  0  0
   -5.2898   -0.3698    1.2510 C   0  0  0  0  0  0  0  0  0  0  0  0
   -5.8662   -0.0800    2.5126 N   0  0  0  0  0  0  0  0  0  0  0  0
   -7.2174    0.2529    2.5583 C   0  0  0  0  0  0  0  0  0  0  0  0
   -7.6226    1.5747    2.0048 C   0  0  1  0  0  0  0  0  0  0  0  0
   -7.5020    1.7093    0.5356 C   0  0  0  0  0  0  0  0  0  0  0  0
   -6.7707    2.7437   -0.0626 C   0  0  0  0  0  0  0  0  0  0  0  0
   -6.7254    2.7815   -1.4484 C   0  0  0  0  0  0  0  0  0  0  0  0
   -7.3740    1.8399   -2.2136 C   0  0  0  0  0  0  0  0  0  0  0  0
   -8.1100    0.7988   -1.6340 C   0  0  0  0  0  0  0  0  0  0  0  0
   -8.1349    0.7890   -0.2552 C   0  0  0  0  0  0  0  0  0  0  0  0
   -8.7714   -0.1672   -2.4377 N   0  0  0  0  0  0  0  0  0  0  0  0
   -9.8801   -1.3295   -1.8195 S   0  0  0  0  0  0  0  0  0  0  0  0
  -10.2679   -2.2698   -2.9050 O   0  0  0  0  0  0  0  0  0  0  0  0
   -9.1470   -2.1570   -0.7737 O   0  0  0  0  0  0  0  0  0  0  0  0
  -11.3081   -0.5890   -1.0716 C   0  0  0  0  0  0  0  0  0  0  0  0
   -7.3358    1.8670   -3.6009 O   0  0  0  0  0  0  0  0  0  0  0  0
   -9.0484    1.6261    2.2204 O   0  0  0  0  0  0  0  0  0  0  0  0
   11.9441    2.7129    1.3374 H   0  0  0  0  0  0  0  0  0  0  0  0
   10.6887    3.1568    0.0992 H   0  0  0  0  0  0  0  0  0  0  0  0
   10.5424    3.7087    1.8034 H   0  0  0  0  0  0  0  0  0  0  0  0
    9.1695    1.8365    2.0453 H   0  0  0  0  0  0  0  0  0  0  0  0
   10.7401    0.8885    2.0569 H   0  0  0  0  0  0  0  0  0  0  0  0
    8.9800    1.6655   -0.2563 H   0  0  0  0  0  0  0  0  0  0  0  0
    8.9345    0.0984    0.5424 H   0  0  0  0  0  0  0  0  0  0  0  0
   11.4961    1.3899   -0.7471 H   0  0  0  0  0  0  0  0  0  0  0  0
   11.3975   -0.2378    0.0148 H   0  0  0  0  0  0  0  0  0  0  0  0
    9.7842    0.5384   -2.4391 H   0  0  0  0  0  0  0  0  0  0  0  0
   11.3858   -0.1618   -2.5725 H   0  0  0  0  0  0  0  0  0  0  0  0
    9.9085   -1.9278   -2.8454 H   0  0  0  0  0  0  0  0  0  0  0  0
   10.6439   -2.2493   -1.2851 H   0  0  0  0  0  0  0  0  0  0  0  0
    8.6827   -1.9174   -0.0712 H   0  0  0  0  0  0  0  0  0  0  0  0
    8.3438   -2.8515   -1.4883 H   0  0  0  0  0  0  0  0  0  0  0  0
    7.6949    0.0912   -1.7106 H   0  0  0  0  0  0  0  0  0  0  0  0
    7.2930   -1.2464   -2.7800 H   0  0  0  0  0  0  0  0  0  0  0  0
    4.9676    0.0819   -2.2438 H   0  0  0  0  0  0  0  0  0  0  0  0
    3.1884   -2.5657   -1.8229 H   0  0  0  0  0  0  0  0  0  0  0  0
    1.1635   -2.9377   -0.3658 H   0  0  0  0  0  0  0  0  0  0  0  0
    2.2625    0.4247    2.0148 H   0  0  0  0  0  0  0  0  0  0  0  0
    4.2210    0.8125    0.6363 H   0  0  0  0  0  0  0  0  0  0  0  0
   -1.3364   -0.2854   -0.6401 H   0  0  0  0  0  0  0  0  0  0  0  0
   -1.3268   -2.0082   -0.2272 H   0  0  0  0  0  0  0  0  0  0  0  0
   -3.5749   -0.3021   -0.6606 H   0  0  0  0  0  0  0  0  0  0  0  0
   -3.5530   -2.0232   -0.2920 H   0  0  0  0  0  0  0  0  0  0  0  0
   -3.7604   -1.6445    2.0999 H   0  0  0  0  0  0  0  0  0  0  0  0
   -3.5287    0.3804    3.2014 H   0  0  0  0  0  0  0  0  0  0  0  0
   -3.4465    1.3834    1.7260 H   0  0  0  0  0  0  0  0  0  0  0  0
   -1.2162    1.2605    1.8535 H   0  0  0  0  0  0  0  0  0  0  0  0
   -1.3246    0.1805    3.2470 H   0  0  0  0  0  0  0  0  0  0  0  0
   -5.3635    0.4648    0.5420 H   0  0  0  0  0  0  0  0  0  0  0  0
   -5.8282   -1.2183    0.7631 H   0  0  0  0  0  0  0  0  0  0  0  0
   -5.6364   -0.8251    3.2021 H   0  0  0  0  0  0  0  0  0  0  0  0
   -7.7810   -0.5671    1.9931 H   0  0  0  0  0  0  0  0  0  0  0  0
   -7.5660    0.1691    3.6441 H   0  0  0  0  0  0  0  0  0  0  0  0
   -7.2169    2.4351    2.5303 H   0  0  0  0  0  0  0  0  0  0  0  0
   -6.2703    3.4702    0.5531 H   0  0  0  0  0  0  0  0  0  0  0  0
   -6.1571    3.5861   -1.9203 H   0  0  0  0  0  0  0  0  0  0  0  0
   -8.6917   -0.0054    0.2165 H   0  0  0  0  0  0  0  0  0  0  0  0
   -8.5569   -0.1529   -3.4744 H   0  0  0  0  0  0  0  0  0  0  0  0
  -11.9569   -0.1012   -1.8086 H   0  0  0  0  0  0  0  0  0  0  0  0
  -11.8885   -1.3903   -0.5566 H   0  0  0  0  0  0  0  0  0  0  0  0
  -11.0116    0.1217   -0.2877 H   0  0  0  0  0  0  0  0  0  0  0  0
   -8.1603    2.0505   -4.1658 H   0  0  0  0  0  0  0  0  0  0  0  0
   -9.2291    1.9610    3.1295 H   0  0  0  0  0  0  0  0  0  0  0  0
  1  2  1  0
  2  3  1  0
  3  4  1  0
  4  5  1  0
  5  6  1  0
  6  7  1  0
  7  8  1  0
  8  9  1  0
  9 10  2  0
  9 11  1  0
 11 12  1  0
 12 13  2  0
 13 14  1  0
 14 15  2  0
 15 16  1  0
 16 17  2  0
 15 18  1  0
 18 19  2  0
 18 20  2  0
 18 21  1  0
 21 22  1  0
 22 23  1  0
 23 24  1  0
 24 25  1  0
 25 26  1  0
 24 27  1  0
 27 28  1  0
 28 29  1  0
 29 30  1  0
 30 31  1  0
 31 32  2  0
 32 33  1  0
 33 34  2  0
 34 35  1  0
 35 36  2  0
 35 37  1  0
 37 38  1  0
 38 39  2  0
 38 40  2  0
 38 41  1  0
 34 42  1  0
 30 43  1  0
 17 12  1  0
 26 21  1  0
 36 31  1  0
  1 44  1  0
  1 45  1  0
  1 46  1  0
  2 47  1  0
  2 48  1  0
  3 49  1  0
  3 50  1  0
  4 51  1  0
  4 52  1  0
  5 53  1  0
  5 54  1  0
  6 55  1  0
  6 56  1  0
  7 57  1  0
  7 58  1  0
  8 59  1  0
  8 60  1  0
 11 61  1  0
 13 62  1  0
 14 63  1  0
 16 64  1  0
 17 65  1  0
 22 66  1  0
 22 67  1  0
 23 68  1  0
 23 69  1  0
 24 70  1  0
 25 71  1  0
 25 72  1  0
 26 73  1  0
 26 74  1  0
 27 75  1  0
 27 76  1  0
 28 77  1  0
 29 78  1  0
 29 79  1  0
 30 80  1  1
 32 81  1  0
 33 82  1  0
 36 83  1  0
 37 84  1  0
 41 85  1  0
 41 86  1  0
 41 87  1  0
 42 88  1  0
 43 89  1  0
M  END
>  <Ligand ID>  (1) 
LIG0004229

>  <Ligand>  (1) 
CHEMBL99599

>  <SMILES>  (1) 
CCCCCCCCC(=O)Nc1ccc(cc1)S(=O)(=O)N1CCC(CC1)CNC[C@@H](c1ccc(c(c1)NS(=O)(=O)C)O)O

>  <CID>  (1) 
44331346.0

>  <ChEMBL ID>  (1) 
nan

>  <InChiKey>  (1) 
LCRJAKNCIMQCLJ-LJAQVGFWSA-N

>  <InChi>  (1) 
InChI=1S/C30H46N4O7S2/c1-3-4-5-6-7-8-9-30(37)32-25-11-13-26(14-12-25)43(40,41)34-18-16-23(17-19-34)21-31-22-29(36)24-10-15-28(35)27(20-24)33-42(2,38)39/h10-15,20,23,29,31,33,35-36H,3-9,16-19,21-22H2,1-2H3,(H,32,37)/t29-/m0/s1

>  <IUPAC Name>  (1) 
N-[4-[4-[[[(2R)-2-hydroxy-2-[4-hydroxy-3-(methanesulfonamido)phenyl]ethyl]amino]methyl]piperidin-1-yl]sulfonylphenyl]nonanamide

$$$$
