
     RDKit          3D

 23 23  0  0  0  0  0  0  0  0999 V2000
    4.4264    0.4991   -0.3076 C   0  0  0  0  0  0  0  0  0  0  0  0
    3.0472   -0.0622   -0.2942 C   0  0  0  0  0  0  0  0  0  0  0  0
    1.9875    0.6805   -0.0246 C   0  0  0  0  0  0  0  0  0  0  0  0
    0.6247    0.1721   -0.0011 C   0  0  0  0  0  0  0  0  0  0  0  0
   -0.4253    1.0484    0.2971 C   0  0  0  0  0  0  0  0  0  0  0  0
   -1.7345    0.6023    0.3290 C   0  0  0  0  0  0  0  0  0  0  0  0
   -2.0392   -0.7018    0.0713 C   0  0  0  0  0  0  0  0  0  0  0  0
   -1.0238   -1.5892   -0.2259 C   0  0  0  0  0  0  0  0  0  0  0  0
    0.2896   -1.1190   -0.2529 C   0  0  0  0  0  0  0  0  0  0  0  0
   -3.3497   -1.1596    0.1007 O   0  0  0  0  0  0  0  0  0  0  0  0
   -4.3742   -0.2367    0.4067 C   0  0  0  0  0  0  0  0  0  0  0  0
    4.3633    1.5130   -0.7943 H   0  0  0  0  0  0  0  0  0  0  0  0
    4.8361    0.6777    0.7025 H   0  0  0  0  0  0  0  0  0  0  0  0
    5.0978   -0.0761   -0.9725 H   0  0  0  0  0  0  0  0  0  0  0  0
    2.9241   -1.1130   -0.5140 H   0  0  0  0  0  0  0  0  0  0  0  0
    2.1770    1.7251    0.1872 H   0  0  0  0  0  0  0  0  0  0  0  0
   -0.2115    2.1066    0.5096 H   0  0  0  0  0  0  0  0  0  0  0  0
   -2.4912    1.3415    0.5677 H   0  0  0  0  0  0  0  0  0  0  0  0
   -1.2381   -2.6322   -0.4350 H   0  0  0  0  0  0  0  0  0  0  0  0
    1.0399   -1.8530   -0.4898 H   0  0  0  0  0  0  0  0  0  0  0  0
   -5.3552   -0.6975    0.5230 H   0  0  0  0  0  0  0  0  0  0  0  0
   -4.4552    0.5758   -0.3599 H   0  0  0  0  0  0  0  0  0  0  0  0
   -4.1155    0.2981    1.3562 H   0  0  0  0  0  0  0  0  0  0  0  0
  1  2  1  0
  2  3  2  0
  3  4  1  0
  4  5  2  0
  5  6  1  0
  6  7  2  0
  7  8  1  0
  8  9  2  0
  7 10  1  0
 10 11  1  0
  9  4  1  0
  1 12  1  0
  1 13  1  0
  1 14  1  0
  2 15  1  0
  3 16  1  0
  5 17  1  0
  6 18  1  0
  8 19  1  0
  9 20  1  0
 11 21  1  0
 11 22  1  0
 11 23  1  0
M  END
>  <Ligand ID>  (1) 
LIG0000161

>  <Ligand>  (1) 
p-Anethole

>  <SMILES>  (1) 
C/C=C/c1ccc(cc1)OC

>  <CID>  (1) 
637563.0

>  <ChEMBL ID>  (1) 
nan

>  <InChiKey>  (1) 
RUVINXPYWBROJD-ONEGZZNKSA-N

>  <InChi>  (1) 
InChI=1S/C10H12O/c1-3-4-9-5-7-10(11-2)8-6-9/h3-8H,1-2H3/b4-3+

>  <IUPAC Name>  (1) 
1-methoxy-4-[(E)-prop-1-enyl]benzene

$$$$
