
     RDKit          3D

196204  0  0  0  0  0  0  0  0999 V2000
   -6.0186   -6.9617    4.1211 N   0  0  0  0  0  0  0  0  0  0  0  0
   -5.3361   -5.9864    3.3028 C   0  0  0  0  0  0  0  0  0  0  0  0
   -5.6968   -4.7987    3.4576 O   0  0  0  0  0  0  0  0  0  0  0  0
   -4.3108   -6.4885    2.3895 C   0  0  0  0  0  0  0  0  0  0  0  0
   -3.5853   -5.4149    1.5673 C   0  0  2  0  0  0  0  0  0  0  0  0
   -4.5590   -4.7109    0.7767 N   0  0  0  0  0  0  0  0  0  0  0  0
   -4.9011   -3.3353    0.9602 C   0  0  0  0  0  0  0  0  0  0  0  0
   -4.1703   -2.8044    1.8835 O   0  0  0  0  0  0  0  0  0  0  0  0
   -5.8671   -2.5131    0.3162 C   0  0  1  0  0  0  0  0  0  0  0  0
   -5.8874   -1.2312    0.9899 N   0  0  0  0  0  0  0  0  0  0  0  0
   -5.9066    0.0558    0.4237 C   0  0  0  0  0  0  0  0  0  0  0  0
   -5.7927    0.1593   -0.7955 O   0  0  0  0  0  0  0  0  0  0  0  0
   -6.0425    1.2113    1.3369 C   0  0  2  0  0  0  0  0  0  0  0  0
   -7.3487    1.4248    1.9873 C   0  0  0  0  0  0  0  0  0  0  0  0
   -8.5614    1.6756    1.1945 C   0  0  0  0  0  0  0  0  0  0  0  0
   -9.0119    0.5727    0.3078 C   0  0  0  0  0  0  0  0  0  0  0  0
   -9.3212   -0.6563    1.0251 N   0  0  0  0  0  0  0  0  0  0  0  0
  -10.5166   -1.1642    1.0877 C   0  0  0  0  0  0  0  0  0  0  0  0
  -11.6187   -0.5274    0.4411 N   0  0  0  0  0  0  0  0  0  0  0  0
  -10.7682   -2.3749    1.8045 N   0  0  0  0  0  0  0  0  0  0  0  0
   -5.5964    2.4484    0.6530 N   0  0  0  0  0  0  0  0  0  0  0  0
   -4.3450    2.9627    1.0751 C   0  0  0  0  0  0  0  0  0  0  0  0
   -3.7493    2.3838    1.9714 O   0  0  0  0  0  0  0  0  0  0  0  0
   -3.6973    4.1793    0.4937 C   0  0  1  0  0  0  0  0  0  0  0  0
   -4.4802    5.4276    0.5900 C   0  0  0  0  0  0  0  0  0  0  0  0
   -4.8473    5.8661    1.9416 C   0  0  0  0  0  0  0  0  0  0  0  0
   -6.0890    5.4445    2.4172 C   0  0  0  0  0  0  0  0  0  0  0  0
   -6.5339    5.8034    3.6695 C   0  0  0  0  0  0  0  0  0  0  0  0
   -5.7745    6.5892    4.4974 C   0  0  0  0  0  0  0  0  0  0  0  0
   -4.5368    7.0091    4.0241 C   0  0  0  0  0  0  0  0  0  0  0  0
   -4.0825    6.6481    2.7593 C   0  0  0  0  0  0  0  0  0  0  0  0
   -2.4160    4.3564    1.1688 N   0  0  0  0  0  0  0  0  0  0  0  0
   -1.2626    4.0694    0.4179 C   0  0  0  0  0  0  0  0  0  0  0  0
   -1.4037    3.7012   -0.7471 O   0  0  0  0  0  0  0  0  0  0  0  0
    0.1450    4.1793    0.9389 C   0  0  2  0  0  0  0  0  0  0  0  0
    0.3231    5.5253    1.5872 C   0  0  0  0  0  0  0  0  0  0  0  0
    0.0517    6.6268    0.6386 C   0  0  0  0  0  0  0  0  0  0  0  0
   -0.3143    6.4551   -0.6261 N   0  0  0  0  0  0  0  0  0  0  0  0
   -0.4900    7.6431   -1.2597 C   0  0  0  0  0  0  0  0  0  0  0  0
   -0.2122    8.5830   -0.3206 N   0  0  0  0  0  0  0  0  0  0  0  0
    0.1182    7.9904    0.8345 C   0  0  0  0  0  0  0  0  0  0  0  0
    1.0793    3.8811   -0.1056 N   0  0  0  0  0  0  0  0  0  0  0  0
    1.9821    2.7387   -0.0570 C   0  0  0  0  0  0  0  0  0  0  0  0
    1.8322    2.0719    0.9754 O   0  0  0  0  0  0  0  0  0  0  0  0
    2.9091    2.4953   -1.1648 C   0  0  2  0  0  0  0  0  0  0  0  0
    4.1061    1.6766   -0.9228 C   0  0  0  0  0  0  0  0  0  0  0  0
    3.8750    0.2875   -0.4673 C   0  0  0  0  0  0  0  0  0  0  0  0
    2.8017   -0.0835    0.0490 O   0  0  0  0  0  0  0  0  0  0  0  0
    4.8472   -0.7775   -0.5884 N   0  0  0  0  0  0  0  0  0  0  0  0
    4.6062   -2.0837   -0.0140 C   0  0  1  0  0  0  0  0  0  0  0  0
    4.0949   -3.0352   -1.0546 N   0  0  0  0  0  0  0  0  0  0  0  0
    2.7861   -3.5348   -1.0486 C   0  0  0  0  0  0  0  0  0  0  0  0
    2.0870   -3.0606   -0.0697 O   0  0  0  0  0  0  0  0  0  0  0  0
    2.1096   -4.4627   -1.9203 C   0  0  1  0  0  0  0  0  0  0  0  0
    0.7141   -4.7975   -1.4782 N   0  0  0  0  0  0  0  0  0  0  0  0
    0.2781   -6.1310   -1.3627 C   0  0  0  0  0  0  0  0  0  0  0  0
    1.1907   -6.9777   -1.7220 O   0  0  0  0  0  0  0  0  0  0  0  0
   -0.9645   -6.7293   -0.9348 C   0  0  1  0  0  0  0  0  0  0  0  0
   -2.0573   -5.9108   -0.4800 N   0  0  0  0  0  0  0  0  0  0  0  0
   -2.4520   -6.0176    0.8874 C   0  0  0  0  0  0  0  0  0  0  0  0
   -1.6808   -6.7414    1.5791 O   0  0  0  0  0  0  0  0  0  0  0  0
   -1.4952   -7.6250   -2.0821 C   0  0  0  0  0  0  0  0  0  0  0  0
    2.1892   -4.3716   -3.3852 C   0  0  0  0  0  0  0  0  0  0  0  0
    3.5211   -4.5543   -3.9927 C   0  0  0  0  0  0  0  0  0  0  0  0
    3.9158   -5.9132   -4.1188 C   0  0  0  0  0  0  0  0  0  0  0  0
    5.1428   -6.1583   -4.7461 C   0  0  0  0  0  0  0  0  0  0  0  0
    5.9384   -5.1401   -5.2191 C   0  0  0  0  0  0  0  0  0  0  0  0
    5.5422   -3.8255   -5.0883 C   0  0  0  0  0  0  0  0  0  0  0  0
    4.3323   -3.5601   -4.4713 C   0  0  0  0  0  0  0  0  0  0  0  0
    5.8438   -2.7700    0.4481 C   0  0  0  0  0  0  0  0  0  0  0  0
    5.8333   -3.8596    1.0836 O   0  0  0  0  0  0  0  0  0  0  0  0
    7.1596   -2.2493    0.1970 N   0  0  0  0  0  0  0  0  0  0  0  0
    8.3256   -2.8144    0.5393 N   0  0  0  0  0  0  0  0  0  0  0  0
    9.0406   -2.4736    1.7219 C   0  0  2  0  0  0  0  0  0  0  0  0
    9.3844   -1.0445    1.8064 C   0  0  0  0  0  0  0  0  0  0  0  0
    9.2252   -0.3246    0.7795 O   0  0  0  0  0  0  0  0  0  0  0  0
    9.8932   -0.3931    2.9982 C   0  0  0  0  0  0  0  0  0  0  0  0
   10.0668   -0.9560    4.1023 O   0  0  0  0  0  0  0  0  0  0  0  0
   10.2311    0.9774    2.9737 O   0  0  0  0  0  0  0  0  0  0  0  0
   10.3673   -3.2459    1.5351 C   0  0  0  0  0  0  0  0  0  0  0  0
   11.3629   -3.1111    2.5717 C   0  0  0  0  0  0  0  0  0  0  0  0
   11.4074   -3.9020    3.7174 C   0  0  0  0  0  0  0  0  0  0  0  0
   12.4484   -3.7365    4.6088 C   0  0  0  0  0  0  0  0  0  0  0  0
   13.4539   -2.8259    4.4357 C   0  0  0  0  0  0  0  0  0  0  0  0
   13.4144   -2.0307    3.2926 C   0  0  0  0  0  0  0  0  0  0  0  0
   12.3913   -2.1692    2.3765 C   0  0  0  0  0  0  0  0  0  0  0  0
   14.4944   -2.6785    5.3559 O   0  0  0  0  0  0  0  0  0  0  0  0
    3.1003    3.6872   -1.9505 N   0  0  0  0  0  0  0  0  0  0  0  0
    3.7483    4.7232   -1.3850 N   0  0  0  0  0  0  0  0  0  0  0  0
    3.3416    6.0561   -1.5531 C   0  0  1  0  0  0  0  0  0  0  0  0
    4.4024    6.9677   -0.9681 C   0  0  0  0  0  0  0  0  0  0  0  0
    4.4763    8.2838   -1.6016 C   0  0  0  0  0  0  0  0  0  0  0  0
    5.1815    9.2754   -0.9575 C   0  0  0  0  0  0  0  0  0  0  0  0
    5.3037   10.5326   -1.5110 C   0  0  0  0  0  0  0  0  0  0  0  0
    4.7340   10.8733   -2.7293 C   0  0  0  0  0  0  0  0  0  0  0  0
    4.0219    9.8875   -3.3826 C   0  0  0  0  0  0  0  0  0  0  0  0
    3.9051    8.6198   -2.8137 C   0  0  0  0  0  0  0  0  0  0  0  0
    3.1606    7.6412   -3.5136 N   0  0  0  0  0  0  0  0  0  0  0  0
    3.0188    6.3449   -2.9568 C   0  0  0  0  0  0  0  0  0  0  0  0
    2.5935    5.4433   -3.7478 O   0  0  0  0  0  0  0  0  0  0  0  0
    4.8949   12.1542   -3.2280 O   0  0  0  0  0  0  0  0  0  0  0  0
   -5.8609   -2.3933   -1.1922 C   0  0  0  0  0  0  0  0  0  0  0  0
   -6.0651   -3.6689   -1.9194 C   0  0  0  0  0  0  0  0  0  0  0  0
   -5.1744   -4.3879   -2.6895 C   0  0  0  0  0  0  0  0  0  0  0  0
   -5.8064   -5.4616   -3.1989 N   0  0  0  0  0  0  0  0  0  0  0  0
   -7.0892   -5.4976   -2.8019 C   0  0  0  0  0  0  0  0  0  0  0  0
   -7.2701   -4.3780   -1.9975 C   0  0  0  0  0  0  0  0  0  0  0  0
   -8.5298   -4.1856   -1.4488 C   0  0  0  0  0  0  0  0  0  0  0  0
   -9.5762   -5.0551   -1.6746 C   0  0  0  0  0  0  0  0  0  0  0  0
   -9.3968   -6.1589   -2.4696 C   0  0  0  0  0  0  0  0  0  0  0  0
   -8.1483   -6.3700   -3.0282 C   0  0  0  0  0  0  0  0  0  0  0  0
   -6.7724   -6.6984    4.7914 H   0  0  0  0  0  0  0  0  0  0  0  0
   -5.7815   -7.9794    4.0762 H   0  0  0  0  0  0  0  0  0  0  0  0
   -4.7440   -7.2527    1.6925 H   0  0  0  0  0  0  0  0  0  0  0  0
   -3.5718   -7.0642    3.0132 H   0  0  0  0  0  0  0  0  0  0  0  0
   -3.1442   -4.7384    2.3648 H   0  0  0  0  0  0  0  0  0  0  0  0
   -5.0498   -5.1922    0.0314 H   0  0  0  0  0  0  0  0  0  0  0  0
   -6.9216   -2.8986    0.5172 H   0  0  0  0  0  0  0  0  0  0  0  0
   -5.8784   -1.2672    2.0209 H   0  0  0  0  0  0  0  0  0  0  0  0
   -5.3066    0.9824    2.1763 H   0  0  0  0  0  0  0  0  0  0  0  0
   -7.2278    2.1636    2.8394 H   0  0  0  0  0  0  0  0  0  0  0  0
   -7.5524    0.4644    2.5700 H   0  0  0  0  0  0  0  0  0  0  0  0
   -9.4060    1.8342    1.9361 H   0  0  0  0  0  0  0  0  0  0  0  0
   -8.5465    2.6636    0.6551 H   0  0  0  0  0  0  0  0  0  0  0  0
   -8.3304    0.3239   -0.5010 H   0  0  0  0  0  0  0  0  0  0  0  0
  -10.0060    0.9020   -0.1259 H   0  0  0  0  0  0  0  0  0  0  0  0
  -12.1307    0.1959    0.9562 H   0  0  0  0  0  0  0  0  0  0  0  0
  -11.8663   -0.8253   -0.5351 H   0  0  0  0  0  0  0  0  0  0  0  0
  -11.5094   -2.3041    2.5599 H   0  0  0  0  0  0  0  0  0  0  0  0
  -10.2896   -3.2627    1.6328 H   0  0  0  0  0  0  0  0  0  0  0  0
   -6.0948    2.9434   -0.0553 H   0  0  0  0  0  0  0  0  0  0  0  0
   -3.4983    3.9823   -0.5949 H   0  0  0  0  0  0  0  0  0  0  0  0
   -3.8637    6.2354    0.1260 H   0  0  0  0  0  0  0  0  0  0  0  0
   -5.3974    5.3578   -0.0291 H   0  0  0  0  0  0  0  0  0  0  0  0
   -6.7243    4.8197    1.7954 H   0  0  0  0  0  0  0  0  0  0  0  0
   -7.4900    5.4751    4.0235 H   0  0  0  0  0  0  0  0  0  0  0  0
   -6.1445    6.8694    5.4790 H   0  0  0  0  0  0  0  0  0  0  0  0
   -3.9462    7.6221    4.6529 H   0  0  0  0  0  0  0  0  0  0  0  0
   -3.0956    6.9741    2.3900 H   0  0  0  0  0  0  0  0  0  0  0  0
   -2.2860    4.6680    2.1264 H   0  0  0  0  0  0  0  0  0  0  0  0
    0.1970    3.4033    1.7640 H   0  0  0  0  0  0  0  0  0  0  0  0
   -0.2103    5.6084    2.5523 H   0  0  0  0  0  0  0  0  0  0  0  0
    1.4164    5.6055    1.8626 H   0  0  0  0  0  0  0  0  0  0  0  0
   -0.7855    7.8431   -2.2568 H   0  0  0  0  0  0  0  0  0  0  0  0
   -0.2468    9.6100   -0.4438 H   0  0  0  0  0  0  0  0  0  0  0  0
    0.3895    8.4273    1.7796 H   0  0  0  0  0  0  0  0  0  0  0  0
    1.1519    4.4335   -0.9448 H   0  0  0  0  0  0  0  0  0  0  0  0
    2.2771    1.8351   -1.8853 H   0  0  0  0  0  0  0  0  0  0  0  0
    4.8951    1.7617   -1.7019 H   0  0  0  0  0  0  0  0  0  0  0  0
    4.6247    2.1722   -0.0245 H   0  0  0  0  0  0  0  0  0  0  0  0
    5.6723   -0.4934   -1.1281 H   0  0  0  0  0  0  0  0  0  0  0  0
    3.8366   -2.0355    0.7757 H   0  0  0  0  0  0  0  0  0  0  0  0
    4.7412   -3.3223   -1.7552 H   0  0  0  0  0  0  0  0  0  0  0  0
    2.6245   -5.4868   -1.6865 H   0  0  0  0  0  0  0  0  0  0  0  0
    0.0424   -4.0734   -1.2524 H   0  0  0  0  0  0  0  0  0  0  0  0
   -0.6956   -7.4980   -0.1449 H   0  0  0  0  0  0  0  0  0  0  0  0
   -2.6084   -5.2520   -1.0309 H   0  0  0  0  0  0  0  0  0  0  0  0
   -2.1396   -7.0550   -2.7754 H   0  0  0  0  0  0  0  0  0  0  0  0
   -0.6140   -7.9923   -2.6481 H   0  0  0  0  0  0  0  0  0  0  0  0
   -1.9773   -8.5288   -1.6581 H   0  0  0  0  0  0  0  0  0  0  0  0
    1.4921   -5.1672   -3.8059 H   0  0  0  0  0  0  0  0  0  0  0  0
    1.7093   -3.4157   -3.7801 H   0  0  0  0  0  0  0  0  0  0  0  0
    3.2945   -6.7117   -3.7582 H   0  0  0  0  0  0  0  0  0  0  0  0
    5.4247   -7.1946   -4.8261 H   0  0  0  0  0  0  0  0  0  0  0  0
    6.8772   -5.4415   -5.6966 H   0  0  0  0  0  0  0  0  0  0  0  0
    6.1799   -3.0331   -5.4757 H   0  0  0  0  0  0  0  0  0  0  0  0
    4.0152   -2.5335   -4.3655 H   0  0  0  0  0  0  0  0  0  0  0  0
    7.2046   -1.3125   -0.3146 H   0  0  0  0  0  0  0  0  0  0  0  0
    8.9817   -2.8196   -0.2692 H   0  0  0  0  0  0  0  0  0  0  0  0
    8.6128   -2.8786    2.6646 H   0  0  0  0  0  0  0  0  0  0  0  0
   10.7018    1.4279    3.7426 H   0  0  0  0  0  0  0  0  0  0  0  0
   10.8079   -2.9892    0.5438 H   0  0  0  0  0  0  0  0  0  0  0  0
   10.0686   -4.3298    1.4218 H   0  0  0  0  0  0  0  0  0  0  0  0
   10.6120   -4.6082    3.8254 H   0  0  0  0  0  0  0  0  0  0  0  0
   12.4239   -4.4011    5.4865 H   0  0  0  0  0  0  0  0  0  0  0  0
   14.2064   -1.2739    3.1090 H   0  0  0  0  0  0  0  0  0  0  0  0
   12.3912   -1.5294    1.4893 H   0  0  0  0  0  0  0  0  0  0  0  0
   15.1941   -3.4133    5.3098 H   0  0  0  0  0  0  0  0  0  0  0  0
    3.4829    3.4678   -2.9045 H   0  0  0  0  0  0  0  0  0  0  0  0
    4.6844    4.5436   -0.9749 H   0  0  0  0  0  0  0  0  0  0  0  0
    2.4234    6.3414   -0.9806 H   0  0  0  0  0  0  0  0  0  0  0  0
    4.1732    7.1374    0.1267 H   0  0  0  0  0  0  0  0  0  0  0  0
    5.3960    6.4999   -0.9948 H   0  0  0  0  0  0  0  0  0  0  0  0
    5.6621    9.0876    0.0132 H   0  0  0  0  0  0  0  0  0  0  0  0
    5.8767   11.2856   -0.9660 H   0  0  0  0  0  0  0  0  0  0  0  0
    3.5481   10.0868   -4.3352 H   0  0  0  0  0  0  0  0  0  0  0  0
    2.7004    7.8382   -4.4591 H   0  0  0  0  0  0  0  0  0  0  0  0
    4.2538   12.5490   -3.9186 H   0  0  0  0  0  0  0  0  0  0  0  0
   -6.6934   -1.6849   -1.4850 H   0  0  0  0  0  0  0  0  0  0  0  0
   -4.9338   -1.8784   -1.4771 H   0  0  0  0  0  0  0  0  0  0  0  0
   -4.1308   -4.0905   -2.8284 H   0  0  0  0  0  0  0  0  0  0  0  0
   -5.3453   -6.1802   -3.8282 H   0  0  0  0  0  0  0  0  0  0  0  0
   -8.7523   -3.3312   -0.8231 H   0  0  0  0  0  0  0  0  0  0  0  0
  -10.5532   -4.9124   -1.2406 H   0  0  0  0  0  0  0  0  0  0  0  0
  -10.1997   -6.8859   -2.6699 H   0  0  0  0  0  0  0  0  0  0  0  0
   -7.9322   -7.2141   -3.6622 H   0  0  0  0  0  0  0  0  0  0  0  0
  1  2  1  0
  2  3  2  0
  2  4  1  0
  4  5  1  0
  5  6  1  0
  6  7  1  0
  7  8  2  0
  7  9  1  0
  9 10  1  0
 10 11  1  0
 11 12  2  0
 11 13  1  0
 13 14  1  0
 14 15  1  0
 15 16  1  0
 16 17  1  0
 17 18  2  3
 18 19  1  0
 18 20  1  0
 13 21  1  0
 21 22  1  0
 22 23  2  0
 22 24  1  0
 24 25  1  0
 25 26  1  0
 26 27  2  0
 27 28  1  0
 28 29  2  0
 29 30  1  0
 30 31  2  0
 24 32  1  0
 32 33  1  0
 33 34  2  0
 33 35  1  0
 35 36  1  0
 36 37  1  0
 37 38  1  0
 38 39  2  0
 39 40  1  0
 40 41  1  0
 35 42  1  0
 42 43  1  0
 43 44  2  0
 43 45  1  0
 45 46  1  0
 46 47  1  0
 47 48  2  0
 47 49  1  0
 49 50  1  0
 50 51  1  0
 51 52  1  0
 52 53  2  0
 52 54  1  0
 54 55  1  0
 55 56  1  0
 56 57  2  0
 56 58  1  0
 58 59  1  0
 59 60  1  0
 60 61  2  0
 58 62  1  0
 54 63  1  0
 63 64  1  0
 64 65  2  0
 65 66  1  0
 66 67  2  0
 67 68  1  0
 68 69  2  0
 50 70  1  0
 70 71  2  0
 70 72  1  0
 72 73  1  0
 73 74  1  0
 74 75  1  0
 75 76  2  0
 75 77  1  0
 77 78  2  0
 77 79  1  0
 74 80  1  0
 80 81  1  0
 81 82  2  0
 82 83  1  0
 83 84  2  0
 84 85  1  0
 85 86  2  0
 84 87  1  0
 45 88  1  0
 88 89  1  0
 89 90  1  0
 90 91  1  0
 91 92  1  0
 92 93  2  0
 93 94  1  0
 94 95  2  0
 95 96  1  0
 96 97  2  0
 97 98  1  0
 98 99  1  0
 99100  2  0
 95101  1  0
  9102  1  0
102103  1  0
103104  2  0
104105  1  0
105106  1  0
106107  2  0
107108  1  0
108109  2  0
109110  1  0
110111  2  0
 60  5  1  0
 69 64  1  0
 86 81  1  0
 99 90  1  0
107103  1  0
 31 26  1  0
 41 37  2  0
 97 92  1  0
111106  1  0
  1112  1  0
  1113  1  0
  4114  1  0
  4115  1  0
  5116  1  1
  6117  1  0
  9118  1  6
 10119  1  0
 13120  1  1
 14121  1  0
 14122  1  0
 15123  1  0
 15124  1  0
 16125  1  0
 16126  1  0
 19127  1  0
 19128  1  0
 20129  1  0
 20130  1  0
 21131  1  0
 24132  1  6
 25133  1  0
 25134  1  0
 27135  1  0
 28136  1  0
 29137  1  0
 30138  1  0
 31139  1  0
 32140  1  0
 35141  1  1
 36142  1  0
 36143  1  0
 39144  1  0
 40145  1  0
 41146  1  0
 42147  1  0
 45148  1  6
 46149  1  0
 46150  1  0
 49151  1  0
 50152  1  1
 51153  1  0
 54154  1  1
 55155  1  0
 58156  1  1
 59157  1  0
 62158  1  0
 62159  1  0
 62160  1  0
 63161  1  0
 63162  1  0
 65163  1  0
 66164  1  0
 67165  1  0
 68166  1  0
 69167  1  0
 72168  1  0
 73169  1  0
 74170  1  1
 79171  1  0
 80172  1  0
 80173  1  0
 82174  1  0
 83175  1  0
 85176  1  0
 86177  1  0
 87178  1  0
 88179  1  0
 89180  1  0
 90181  1  1
 91182  1  0
 91183  1  0
 93184  1  0
 94185  1  0
 96186  1  0
 98187  1  0
101188  1  0
102189  1  0
102190  1  0
104191  1  0
105192  1  0
108193  1  0
109194  1  0
110195  1  0
111196  1  0
M  END
>  <Ligand ID>  (1) 
LIG0001158

>  <Ligand>  (1) 
CHEMBL2369484

>  <SMILES>  (1) 
NC(=O)C[C@@H]1NC(=O)[C@@H](NC(=O)[C@H](CCCN=C(N)N)NC(=O)[C@@H](Cc2ccccc2)NC(=O)[C@H](Cc2nc[nH]c2)NC(=O)[C@H](CC(=O)N[C@@H](NC(=O)[C@@H](NC(=O)[C@@H](NC1=O)C)Cc1ccccc1)C(=O)NN[C@H](C(=O)C(=O)O)Cc1ccc(cc1)O)NN[C@H]1Cc2ccc(cc2NC1=O)O)Cc1c[nH]c2c1cccc2

>  <CID>  (1) 
73352950.0

>  <ChEMBL ID>  (1) 
nan

>  <InChiKey>  (1) 
IURJLDFCJBKSNA-KDBOLTFKSA-N

>  <InChi>  (1) 
InChI=1S/C73H85N21O17/c1-37-62(100)84-52(27-39-13-6-3-7-14-39)68(106)90-61(71(109)94-91-50(60(99)72(110)111)25-40-18-21-44(95)22-19-40)89-59(98)33-57(93-92-56-28-41-20-23-45(96)31-49(41)83-69(56)107)70(108)87-54(30-43-35-77-36-80-43)67(105)85-51(26-38-11-4-2-5-12-38)65(103)82-48(17-10-24-78-73(75)76)63(101)86-53(29-42-34-79-47-16-9-8-15-46(42)47)66(104)88-55(32-58(74)97)64(102)81-37/h2-9,11-16,18-23,31,34-37,48,50-57,61,79,91-93,95-96H,10,17,24-30,32-33H2,1H3,(H2,74,97)(H,77,80)(H,81,102)(H,82,103)(H,83,107)(H,84,100)(H,85,105)(H,86,101)(H,87,108)(H,88,104)(H,89,98)(H,90,106)(H,94,109)(H,110,111)(H4,75,76,78)/t37-,48-,50-,51+,52-,53-,54-,55-,56-,57-,61-/m0/s1

>  <IUPAC Name>  (1) 
(3S)-3-[2-[(2S,5S,8S,11S,14S,17S,20R,23S,26S)-11-(2-amino-2-oxoethyl)-5,20-dibenzyl-17-[3-(diaminomethylideneamino)propyl]-26-[2-[(3S)-7-hydroxy-2-oxo-3,4-dihydro-1H-quinolin-3-yl]hydrazinyl]-23-(1H-imidazol-4-ylmethyl)-14-(1H-indol-3-ylmethyl)-8-methyl-4,7,10,13,16,19,22,25,28-nonaoxo-1,3,6,9,12,15,18,21,24-nonazacyclooctacosane-2-carbonyl]hydrazinyl]-4-(4-hydroxyphenyl)-2-oxobutanoic acid

$$$$
