
     RDKit          3D

 48 49  0  0  0  0  0  0  0  0999 V2000
   -6.9731   -3.5451   -0.6351 N   0  0  0  0  0  0  0  0  0  0  0  0
   -6.9326   -2.4273   -0.3247 C   0  0  0  0  0  0  0  0  0  0  0  0
   -6.8822   -1.0296    0.0520 C   0  0  0  0  0  0  0  0  0  0  0  0
   -8.0813   -0.3858    0.2827 C   0  0  0  0  0  0  0  0  0  0  0  0
   -8.0482    0.9424    0.6420 C   0  0  0  0  0  0  0  0  0  0  0  0
   -6.8287    1.6122    0.7671 C   0  0  0  0  0  0  0  0  0  0  0  0
   -5.6485    0.9423    0.5302 C   0  0  0  0  0  0  0  0  0  0  0  0
   -5.6643   -0.3832    0.1710 C   0  0  0  0  0  0  0  0  0  0  0  0
   -4.5318   -1.1351   -0.0860 O   0  0  0  0  0  0  0  0  0  0  0  0
   -3.2742   -0.5085    0.0259 C   0  0  0  0  0  0  0  0  0  0  0  0
   -2.2305   -1.5428   -0.3034 C   0  0  0  0  0  0  0  0  0  0  0  0
   -0.8321   -0.9897   -0.2396 C   0  0  0  0  0  0  0  0  0  0  0  0
   -0.5512    0.0578   -1.1618 N   0  0  0  0  0  0  0  0  0  0  0  0
    0.7989    0.5646   -1.0817 C   0  0  0  0  0  0  0  0  0  0  0  0
    1.1020    1.3018    0.1788 C   0  0  0  0  0  0  0  0  0  0  0  0
    2.4558    1.8051    0.2525 N   0  0  0  0  0  0  0  0  0  0  0  0
    3.5881    0.9117    0.1987 C   0  0  0  0  0  0  0  0  0  0  0  0
    3.3423   -0.2910    0.0878 O   0  0  0  0  0  0  0  0  0  0  0  0
    4.8938    1.4280    0.2723 N   0  0  0  0  0  0  0  0  0  0  0  0
    6.0917    0.6820    0.2330 C   0  0  0  0  0  0  0  0  0  0  0  0
    7.3070    1.3694    0.3238 C   0  0  0  0  0  0  0  0  0  0  0  0
    8.5030    0.7107    0.2918 C   0  0  0  0  0  0  0  0  0  0  0  0
    8.5969   -0.6585    0.1698 C   0  0  0  0  0  0  0  0  0  0  0  0
    7.4092   -1.3548    0.0789 C   0  0  0  0  0  0  0  0  0  0  0  0
    6.1849   -0.6763    0.1118 C   0  0  0  0  0  0  0  0  0  0  0  0
   -2.4063   -2.5726    0.6461 O   0  0  0  0  0  0  0  0  0  0  0  0
   -9.0111   -0.9488    0.1729 H   0  0  0  0  0  0  0  0  0  0  0  0
   -8.9949    1.4362    0.8202 H   0  0  0  0  0  0  0  0  0  0  0  0
   -6.8867    2.6524    1.0522 H   0  0  0  0  0  0  0  0  0  0  0  0
   -4.7091    1.4534    0.6253 H   0  0  0  0  0  0  0  0  0  0  0  0
   -3.1414   -0.0967    1.0496 H   0  0  0  0  0  0  0  0  0  0  0  0
   -3.2365    0.3030   -0.7381 H   0  0  0  0  0  0  0  0  0  0  0  0
   -2.4875   -1.9817   -1.2678 H   0  0  0  0  0  0  0  0  0  0  0  0
   -0.1532   -1.8600   -0.3189 H   0  0  0  0  0  0  0  0  0  0  0  0
   -0.6697   -0.5903    0.7922 H   0  0  0  0  0  0  0  0  0  0  0  0
   -0.8813   -0.0814   -2.1228 H   0  0  0  0  0  0  0  0  0  0  0  0
    0.8954    1.3138   -1.9196 H   0  0  0  0  0  0  0  0  0  0  0  0
    1.5143   -0.2340   -1.3462 H   0  0  0  0  0  0  0  0  0  0  0  0
    0.4076    2.1751    0.2103 H   0  0  0  0  0  0  0  0  0  0  0  0
    0.9400    0.6471    1.0864 H   0  0  0  0  0  0  0  0  0  0  0  0
    2.6380    2.8495    0.3483 H   0  0  0  0  0  0  0  0  0  0  0  0
    4.9791    2.4685    0.3650 H   0  0  0  0  0  0  0  0  0  0  0  0
    7.3211    2.4642    0.4237 H   0  0  0  0  0  0  0  0  0  0  0  0
    9.4089    1.2942    0.3659 H   0  0  0  0  0  0  0  0  0  0  0  0
    9.5375   -1.1890    0.1435 H   0  0  0  0  0  0  0  0  0  0  0  0
    7.4265   -2.4434   -0.0199 H   0  0  0  0  0  0  0  0  0  0  0  0
    5.3168   -1.3013    0.0346 H   0  0  0  0  0  0  0  0  0  0  0  0
   -1.6026   -3.1587    0.5814 H   0  0  0  0  0  0  0  0  0  0  0  0
  1  2  3  0
  2  3  1  0
  3  4  2  0
  4  5  1  0
  5  6  2  0
  6  7  1  0
  7  8  2  0
  8  9  1  0
  9 10  1  0
 10 11  1  0
 11 12  1  0
 12 13  1  0
 13 14  1  0
 14 15  1  0
 15 16  1  0
 16 17  1  0
 17 18  2  0
 17 19  1  0
 19 20  1  0
 20 21  2  0
 21 22  1  0
 22 23  2  0
 23 24  1  0
 24 25  2  0
 11 26  1  0
  8  3  1  0
 25 20  1  0
  4 27  1  0
  5 28  1  0
  6 29  1  0
  7 30  1  0
 10 31  1  0
 10 32  1  0
 11 33  1  0
 12 34  1  0
 12 35  1  0
 13 36  1  0
 14 37  1  0
 14 38  1  0
 15 39  1  0
 15 40  1  0
 16 41  1  0
 19 42  1  0
 21 43  1  0
 22 44  1  0
 23 45  1  0
 24 46  1  0
 25 47  1  0
 26 48  1  0
M  END
>  <Ligand ID>  (1) 
LIG0002720

>  <Ligand>  (1) 
ICI 89406

>  <SMILES>  (1) 
N#Cc1ccccc1OCC(CNCCNC(=O)Nc1ccccc1)O

>  <CID>  (1) 
123686.0

>  <ChEMBL ID>  (1) 
nan

>  <InChiKey>  (1) 
HTLWRKRZKFAAAH-UHFFFAOYSA-N

>  <InChi>  (1) 
InChI=1S/C19H22N4O3/c20-12-15-6-4-5-9-18(15)26-14-17(24)13-21-10-11-22-19(25)23-16-7-2-1-3-8-16/h1-9,17,21,24H,10-11,13-14H2,(H2,22,23,25)

>  <IUPAC Name>  (1) 
1-[2-[[3-(2-cyanophenoxy)-2-hydroxypropyl]amino]ethyl]-3-phenylurea

$$$$
