
     RDKit          3D

145150  0  0  0  0  0  0  0  0999 V2000
    9.8580    0.2172   -3.0520 C   0  0  0  0  0  0  0  0  0  0  0  0
    9.9067    0.6723   -1.5948 C   0  0  0  0  0  0  0  0  0  0  0  0
    9.0483   -0.2123   -0.7388 C   0  0  0  0  0  0  0  0  0  0  0  0
    9.0276    0.2022    0.7169 C   0  0  0  0  0  0  0  0  0  0  0  0
    8.1260   -0.7195    1.5419 C   0  0  1  0  0  0  0  0  0  0  0  0
    6.7723   -0.7279    1.0536 C   0  0  0  0  0  0  0  0  0  0  0  0
    6.3410    0.3630    0.5035 O   0  0  0  0  0  0  0  0  0  0  0  0
    5.7954   -1.7552    1.0690 N   0  0  0  0  0  0  0  0  0  0  0  0
    4.5297   -1.4044    0.4143 C   0  0  1  0  0  0  0  0  0  0  0  0
    3.5454   -2.5184    0.5947 C   0  0  0  0  0  0  0  0  0  0  0  0
    3.8743   -3.8073   -0.0593 C   0  0  0  0  0  0  0  0  0  0  0  0
    3.6462   -3.7529   -1.5758 C   0  0  0  0  0  0  0  0  0  0  0  0
    2.2102   -3.5211   -1.7329 N   0  0  0  0  0  0  0  0  0  0  0  0
    1.4901   -2.8672   -2.6597 N   0  0  0  0  0  0  0  0  0  0  0  0
    0.1998   -2.9089   -2.3935 N   0  0  0  0  0  0  0  0  0  0  0  0
    0.0282   -3.6088   -1.2516 C   0  0  0  0  0  0  0  0  0  0  0  0
    1.2964   -3.9769   -0.8668 C   0  0  0  0  0  0  0  0  0  0  0  0
   -1.1919   -3.9464   -0.4735 C   0  0  0  0  0  0  0  0  0  0  0  0
   -2.0623   -4.9235   -1.1750 C   0  0  0  0  0  0  0  0  0  0  0  0
   -3.3094   -5.1744   -0.3275 C   0  0  2  0  0  0  0  0  0  0  0  0
   -4.0206   -3.9251   -0.1104 N   0  0  0  0  0  0  0  0  0  0  0  0
   -5.3139   -3.6473   -0.6798 C   0  0  0  0  0  0  0  0  0  0  0  0
   -5.7937   -4.6054   -1.3029 O   0  0  0  0  0  0  0  0  0  0  0  0
   -5.9238   -2.3329   -0.4872 C   0  0  1  0  0  0  0  0  0  0  0  0
   -5.1058   -1.4301    0.2831 N   0  0  0  0  0  0  0  0  0  0  0  0
   -4.7386   -0.1052   -0.0592 C   0  0  0  0  0  0  0  0  0  0  0  0
   -5.0738    0.3206   -1.1537 O   0  0  0  0  0  0  0  0  0  0  0  0
   -3.9560    0.7779    0.8404 C   0  0  1  0  0  0  0  0  0  0  0  0
   -3.2623    1.8388    0.1459 N   0  0  0  0  0  0  0  0  0  0  0  0
   -1.8865    2.0541    0.5649 C   0  0  0  0  0  0  0  0  0  0  0  0
   -1.4923    1.3624    1.4785 O   0  0  0  0  0  0  0  0  0  0  0  0
   -1.0441    3.1045   -0.1521 C   0  0  2  0  0  0  0  0  0  0  0  0
    0.2201    3.0208    0.6044 N   0  0  0  0  0  0  0  0  0  0  0  0
    1.1971    2.0616    0.2174 C   0  0  0  0  0  0  0  0  0  0  0  0
    0.8923    1.3454   -0.7454 O   0  0  0  0  0  0  0  0  0  0  0  0
    2.5068    1.8628    0.8669 C   0  0  1  0  0  0  0  0  0  0  0  0
    3.2028    0.7171    0.3276 N   0  0  0  0  0  0  0  0  0  0  0  0
    3.9197   -0.2337    1.1670 C   0  0  0  0  0  0  0  0  0  0  0  0
    3.9615    0.0129    2.3379 O   0  0  0  0  0  0  0  0  0  0  0  0
    3.3829    3.1121    0.7980 C   0  0  0  0  0  0  0  0  0  0  0  0
    3.6720    3.5529   -0.5714 C   0  0  0  0  0  0  0  0  0  0  0  0
    3.0182    4.4002   -1.3830 N   0  0  0  0  0  0  0  0  0  0  0  0
    3.6525    4.5042   -2.5724 C   0  0  0  0  0  0  0  0  0  0  0  0
    4.7380    3.7080   -2.5260 N   0  0  0  0  0  0  0  0  0  0  0  0
    4.7749    3.1149   -1.3199 C   0  0  0  0  0  0  0  0  0  0  0  0
   -1.6718    4.4208    0.1065 C   0  0  0  0  0  0  0  0  0  0  0  0
   -1.0294    5.5885   -0.4946 C   0  0  0  0  0  0  0  0  0  0  0  0
   -0.0706    6.2853    0.2420 C   0  0  0  0  0  0  0  0  0  0  0  0
    0.5601    7.4077   -0.2826 C   0  0  0  0  0  0  0  0  0  0  0  0
    0.2076    7.8256   -1.5756 C   0  0  0  0  0  0  0  0  0  0  0  0
   -0.7535    7.1198   -2.3040 C   0  0  0  0  0  0  0  0  0  0  0  0
   -1.3778    5.9936   -1.7642 C   0  0  0  0  0  0  0  0  0  0  0  0
   -4.9642    1.5597    1.7378 C   0  0  0  0  0  0  0  0  0  0  0  0
   -4.2884    2.4974    2.6758 C   0  0  0  0  0  0  0  0  0  0  0  0
   -5.3219    3.2473    3.5268 C   0  0  0  0  0  0  0  0  0  0  0  0
   -4.6645    4.1868    4.4060 N   0  0  0  0  0  0  0  0  0  0  0  0
   -4.8149    5.4478    4.1652 C   0  0  0  0  0  0  0  0  0  0  0  0
   -5.6128    5.8700    3.0592 N   0  0  0  0  0  0  0  0  0  0  0  0
   -4.2036    6.4702    4.9585 N   0  0  0  0  0  0  0  0  0  0  0  0
   -6.3499   -1.7544   -1.8353 C   0  0  0  0  0  0  0  0  0  0  0  0
   -7.3287   -2.6317   -2.5216 C   0  0  0  0  0  0  0  0  0  0  0  0
   -7.1493   -3.4592   -3.6236 C   0  0  0  0  0  0  0  0  0  0  0  0
   -8.3329   -4.0259   -3.8714 N   0  0  0  0  0  0  0  0  0  0  0  0
   -9.2759   -3.6275   -3.0077 C   0  0  0  0  0  0  0  0  0  0  0  0
   -8.6711   -2.7484   -2.1455 C   0  0  0  0  0  0  0  0  0  0  0  0
   -9.4354   -2.1842   -1.1415 C   0  0  0  0  0  0  0  0  0  0  0  0
  -10.7713   -2.4503   -0.9503 C   0  0  0  0  0  0  0  0  0  0  0  0
  -11.3437   -3.3525   -1.8511 C   0  0  0  0  0  0  0  0  0  0  0  0
  -10.5986   -3.9203   -2.8546 C   0  0  0  0  0  0  0  0  0  0  0  0
   -3.0072   -5.8590    0.9291 C   0  0  0  0  0  0  0  0  0  0  0  0
   -3.3844   -5.4491    2.0656 O   0  0  0  0  0  0  0  0  0  0  0  0
   -2.2292   -7.0678    0.8611 N   0  0  0  0  0  0  0  0  0  0  0  0
    8.7712   -1.9771    1.7441 N   0  0  0  0  0  0  0  0  0  0  0  0
    9.2516   -2.5032    2.9660 C   0  0  0  0  0  0  0  0  0  0  0  0
    9.1402   -1.8728    4.0737 O   0  0  0  0  0  0  0  0  0  0  0  0
    9.9282   -3.8428    3.0309 C   0  0  0  0  0  0  0  0  0  0  0  0
   10.8668    0.0895   -3.4841 H   0  0  0  0  0  0  0  0  0  0  0  0
    9.2728   -0.7200   -3.1447 H   0  0  0  0  0  0  0  0  0  0  0  0
    9.2993    1.0112   -3.6344 H   0  0  0  0  0  0  0  0  0  0  0  0
   10.9710    0.5687   -1.2636 H   0  0  0  0  0  0  0  0  0  0  0  0
    9.5800    1.7317   -1.5176 H   0  0  0  0  0  0  0  0  0  0  0  0
    7.9933   -0.1658   -1.0965 H   0  0  0  0  0  0  0  0  0  0  0  0
    9.3874   -1.2570   -0.8553 H   0  0  0  0  0  0  0  0  0  0  0  0
   10.0826    0.0460    1.0718 H   0  0  0  0  0  0  0  0  0  0  0  0
    8.8090    1.2683    0.8719 H   0  0  0  0  0  0  0  0  0  0  0  0
    8.1157   -0.2380    2.5996 H   0  0  0  0  0  0  0  0  0  0  0  0
    6.0015   -2.6426    1.5209 H   0  0  0  0  0  0  0  0  0  0  0  0
    4.6854   -1.1217   -0.6089 H   0  0  0  0  0  0  0  0  0  0  0  0
    3.3674   -2.7066    1.7069 H   0  0  0  0  0  0  0  0  0  0  0  0
    2.5111   -2.1923    0.2558 H   0  0  0  0  0  0  0  0  0  0  0  0
    4.9788   -4.0103    0.0368 H   0  0  0  0  0  0  0  0  0  0  0  0
    3.3305   -4.6470    0.3421 H   0  0  0  0  0  0  0  0  0  0  0  0
    3.8452   -4.7311   -2.0453 H   0  0  0  0  0  0  0  0  0  0  0  0
    4.2597   -2.9791   -2.0487 H   0  0  0  0  0  0  0  0  0  0  0  0
    1.4391   -4.5725    0.0513 H   0  0  0  0  0  0  0  0  0  0  0  0
   -0.8276   -4.4479    0.4574 H   0  0  0  0  0  0  0  0  0  0  0  0
   -1.7781   -3.0184   -0.2669 H   0  0  0  0  0  0  0  0  0  0  0  0
   -1.5913   -5.9051   -1.3431 H   0  0  0  0  0  0  0  0  0  0  0  0
   -2.3715   -4.5588   -2.2021 H   0  0  0  0  0  0  0  0  0  0  0  0
   -3.9516   -5.8315   -0.9752 H   0  0  0  0  0  0  0  0  0  0  0  0
   -3.6227   -3.1995    0.4613 H   0  0  0  0  0  0  0  0  0  0  0  0
   -6.8832   -2.3952    0.0585 H   0  0  0  0  0  0  0  0  0  0  0  0
   -4.7423   -1.7579    1.1850 H   0  0  0  0  0  0  0  0  0  0  0  0
   -3.3748    0.1825    1.5279 H   0  0  0  0  0  0  0  0  0  0  0  0
   -3.5911    2.4470   -0.5796 H   0  0  0  0  0  0  0  0  0  0  0  0
   -0.9306    2.7898   -1.1967 H   0  0  0  0  0  0  0  0  0  0  0  0
    0.4665    3.6045    1.3939 H   0  0  0  0  0  0  0  0  0  0  0  0
    2.3753    1.6799    1.9597 H   0  0  0  0  0  0  0  0  0  0  0  0
    3.2407    0.5353   -0.6665 H   0  0  0  0  0  0  0  0  0  0  0  0
    4.3220    2.8125    1.3507 H   0  0  0  0  0  0  0  0  0  0  0  0
    2.8922    3.8773    1.3892 H   0  0  0  0  0  0  0  0  0  0  0  0
    2.1208    4.9127   -1.1011 H   0  0  0  0  0  0  0  0  0  0  0  0
    3.3402    5.1204   -3.4113 H   0  0  0  0  0  0  0  0  0  0  0  0
    5.5452    2.4294   -1.0368 H   0  0  0  0  0  0  0  0  0  0  0  0
   -2.7532    4.3873   -0.2140 H   0  0  0  0  0  0  0  0  0  0  0  0
   -1.7524    4.6347    1.2140 H   0  0  0  0  0  0  0  0  0  0  0  0
    0.2266    5.9852    1.2468 H   0  0  0  0  0  0  0  0  0  0  0  0
    1.3013    7.9446    0.2840 H   0  0  0  0  0  0  0  0  0  0  0  0
    0.6642    8.6935   -2.0382 H   0  0  0  0  0  0  0  0  0  0  0  0
   -0.9838    7.4823   -3.2900 H   0  0  0  0  0  0  0  0  0  0  0  0
   -2.1092    5.4984   -2.3718 H   0  0  0  0  0  0  0  0  0  0  0  0
   -5.6119    2.1354    1.0375 H   0  0  0  0  0  0  0  0  0  0  0  0
   -5.5972    0.8690    2.3016 H   0  0  0  0  0  0  0  0  0  0  0  0
   -3.6910    3.2972    2.1799 H   0  0  0  0  0  0  0  0  0  0  0  0
   -3.6106    1.9977    3.3880 H   0  0  0  0  0  0  0  0  0  0  0  0
   -5.8843    2.5130    4.1491 H   0  0  0  0  0  0  0  0  0  0  0  0
   -5.9572    3.7995    2.8247 H   0  0  0  0  0  0  0  0  0  0  0  0
   -6.6647    5.7741    3.1999 H   0  0  0  0  0  0  0  0  0  0  0  0
   -5.2013    6.2484    2.1716 H   0  0  0  0  0  0  0  0  0  0  0  0
   -3.1832    6.4074    5.1034 H   0  0  0  0  0  0  0  0  0  0  0  0
   -4.8017    7.2313    5.3630 H   0  0  0  0  0  0  0  0  0  0  0  0
   -6.8646   -0.7776   -1.6972 H   0  0  0  0  0  0  0  0  0  0  0  0
   -5.4518   -1.6022   -2.4317 H   0  0  0  0  0  0  0  0  0  0  0  0
   -6.2094   -3.5893   -4.1524 H   0  0  0  0  0  0  0  0  0  0  0  0
   -8.4925   -4.7020   -4.6520 H   0  0  0  0  0  0  0  0  0  0  0  0
   -8.9878   -1.4818   -0.4467 H   0  0  0  0  0  0  0  0  0  0  0  0
  -11.3757   -2.0064   -0.1635 H   0  0  0  0  0  0  0  0  0  0  0  0
  -12.3874   -3.5645   -1.7075 H   0  0  0  0  0  0  0  0  0  0  0  0
  -11.1401   -4.6119   -3.5133 H   0  0  0  0  0  0  0  0  0  0  0  0
   -2.3404   -7.6947    0.0424 H   0  0  0  0  0  0  0  0  0  0  0  0
   -1.5936   -7.2400    1.6585 H   0  0  0  0  0  0  0  0  0  0  0  0
    8.9030   -2.5775    0.8736 H   0  0  0  0  0  0  0  0  0  0  0  0
   10.2250   -4.0521    1.9669 H   0  0  0  0  0  0  0  0  0  0  0  0
   10.8078   -3.7985    3.6957 H   0  0  0  0  0  0  0  0  0  0  0  0
    9.2151   -4.6252    3.3297 H   0  0  0  0  0  0  0  0  0  0  0  0
  1  2  1  0
  2  3  1  0
  3  4  1  0
  4  5  1  0
  5  6  1  0
  6  7  2  0
  6  8  1  0
  8  9  1  0
  9 10  1  0
 10 11  1  0
 11 12  1  0
 12 13  1  0
 13 14  1  0
 14 15  2  0
 15 16  1  0
 16 17  2  0
 16 18  1  0
 18 19  1  0
 19 20  1  0
 20 21  1  0
 21 22  1  0
 22 23  2  0
 22 24  1  0
 24 25  1  0
 25 26  1  0
 26 27  2  0
 26 28  1  0
 28 29  1  0
 29 30  1  0
 30 31  2  0
 30 32  1  0
 32 33  1  0
 33 34  1  0
 34 35  2  0
 34 36  1  0
 36 37  1  0
 37 38  1  0
 38 39  2  0
 36 40  1  0
 40 41  1  0
 41 42  1  0
 42 43  1  0
 43 44  2  0
 44 45  1  0
 32 46  1  0
 46 47  1  0
 47 48  2  0
 48 49  1  0
 49 50  2  0
 50 51  1  0
 51 52  2  0
 28 53  1  0
 53 54  1  0
 54 55  1  0
 55 56  1  0
 56 57  2  3
 57 58  1  0
 57 59  1  0
 24 60  1  0
 60 61  1  0
 61 62  2  0
 62 63  1  0
 63 64  1  0
 64 65  2  0
 65 66  1  0
 66 67  2  0
 67 68  1  0
 68 69  2  0
 20 70  1  0
 70 71  2  0
 70 72  1  0
  5 73  1  0
 73 74  1  0
 74 75  2  0
 74 76  1  0
 38  9  1  0
 45 41  2  0
 52 47  1  0
 65 61  1  0
 17 13  1  0
 69 64  1  0
  1 77  1  0
  1 78  1  0
  1 79  1  0
  2 80  1  0
  2 81  1  0
  3 82  1  0
  3 83  1  0
  4 84  1  0
  4 85  1  0
  5 86  1  1
  8 87  1  0
  9 88  1  6
 10 89  1  0
 10 90  1  0
 11 91  1  0
 11 92  1  0
 12 93  1  0
 12 94  1  0
 17 95  1  0
 18 96  1  0
 18 97  1  0
 19 98  1  0
 19 99  1  0
 20100  1  6
 21101  1  0
 24102  1  1
 25103  1  0
 28104  1  1
 29105  1  0
 32106  1  6
 33107  1  0
 36108  1  1
 37109  1  0
 40110  1  0
 40111  1  0
 42112  1  0
 43113  1  0
 45114  1  0
 46115  1  0
 46116  1  0
 48117  1  0
 49118  1  0
 50119  1  0
 51120  1  0
 52121  1  0
 53122  1  0
 53123  1  0
 54124  1  0
 54125  1  0
 55126  1  0
 55127  1  0
 58128  1  0
 58129  1  0
 59130  1  0
 59131  1  0
 60132  1  0
 60133  1  0
 62134  1  0
 63135  1  0
 66136  1  0
 67137  1  0
 68138  1  0
 69139  1  0
 72140  1  0
 72141  1  0
 73142  1  0
 76143  1  0
 76144  1  0
 76145  1  0
M  END
>  <Ligand ID>  (1) 
LIG0001794

>  <Ligand>  (1) 
CHEMBL3358548

>  <SMILES>  (1) 
CCCC[C@@H](C(=O)N[C@H]1CCCn2nnc(c2)CC[C@H](NC(=O)[C@@H](NC(=O)[C@@H](NC(=O)[C@H](NC(=O)[C@@H](NC1=O)Cc1[nH]cnc1)Cc1ccccc1)CCCN=C(N)N)Cc1c[nH]c2c1cccc2)C(=O)N)NC(=O)C

>  <CID>  (1) 
118722940.0

>  <ChEMBL ID>  (1) 
nan

>  <InChiKey>  (1) 
QILKOMANHAGCIP-PMHRFVFWSA-N

>  <InChi>  (1) 
InChI=1S/C51H69N17O8/c1-3-4-15-38(59-30(2)69)45(71)61-40-18-11-22-68-28-33(66-67-68)19-20-37(44(52)70)60-49(75)42(24-32-26-57-36-16-9-8-14-35(32)36)64-46(72)39(17-10-21-56-51(53)54)62-48(74)41(23-31-12-6-5-7-13-31)63-50(76)43(65-47(40)73)25-34-27-55-29-58-34/h5-9,12-14,16,26-29,37-43,57H,3-4,10-11,15,17-25H2,1-2H3,(H2,52,70)(H,55,58)(H,59,69)(H,60,75)(H,61,71)(H,62,74)(H,63,76)(H,64,72)(H,65,73)(H4,53,54,56)/t37-,38-,39-,40-,41+,42-,43-/m0/s1

>  <IUPAC Name>  (1) 
(5S,8S,11R,14S,17S,20S)-5-[[(2S)-2-acetamidohexanoyl]amino]-11-benzyl-14-[3-(diaminomethylideneamino)propyl]-8-(1H-imidazol-5-ylmethyl)-17-(1H-indol-3-ylmethyl)-6,9,12,15,18-pentaoxo-1,7,10,13,16,19,24,25-octazabicyclo[21.2.1]hexacosa-23(26),24-diene-20-carboxamide

$$$$
