
     RDKit          3D

 61 63  0  0  0  0  0  0  0  0999 V2000
    7.9994    2.2427   -0.3693 C   0  0  0  0  0  0  0  0  0  0  0  0
    6.6845    2.8447    0.0518 C   0  0  0  0  0  0  0  0  0  0  0  0
    5.6498    1.9627   -0.3382 O   0  0  0  0  0  0  0  0  0  0  0  0
    5.5461    0.6680    0.1100 C   0  0  0  0  0  0  0  0  0  0  0  0
    6.3800    0.1743    0.9118 O   0  0  0  0  0  0  0  0  0  0  0  0
    4.4612   -0.1542   -0.3417 N   0  0  0  0  0  0  0  0  0  0  0  0
    4.4038   -1.5193    0.1681 C   0  0  0  0  0  0  0  0  0  0  0  0
    3.0101   -1.7016    0.7333 C   0  0  0  0  0  0  0  0  0  0  0  0
    1.9517   -1.3624   -0.3051 C   0  0  0  0  0  0  0  0  0  0  0  0
    2.0624    0.0231   -0.8185 C   0  0  0  0  0  0  0  0  0  0  0  0
    3.4701    0.3446   -1.2588 C   0  0  0  0  0  0  0  0  0  0  0  0
    0.6952   -1.7515    0.1817 N   0  0  0  0  0  0  0  0  0  0  0  0
    0.4984   -3.1114    0.4827 C   0  0  0  0  0  0  0  0  0  0  0  0
   -0.8001   -3.7233    0.0839 C   0  0  0  0  0  0  0  0  0  0  0  0
   -1.9678   -2.7752    0.0689 C   0  0  0  0  0  0  0  0  0  0  0  0
   -1.6275   -1.4722   -0.6274 C   0  0  2  0  0  0  0  0  0  0  0  0
   -0.4128   -0.9009    0.0593 C   0  0  0  0  0  0  0  0  0  0  0  0
   -2.7191   -0.5440   -0.3113 N   0  0  0  0  0  0  0  0  0  0  0  0
   -3.4981    0.0776   -1.3257 C   0  0  0  0  0  0  0  0  0  0  0  0
   -3.2426   -0.1770   -2.5332 O   0  0  0  0  0  0  0  0  0  0  0  0
   -4.5742    0.9967   -0.8902 C   0  0  0  0  0  0  0  0  0  0  0  0
   -4.0584    2.1521   -0.0899 C   0  0  0  0  0  0  0  0  0  0  0  0
   -5.1268    2.7921    0.7459 C   0  0  0  0  0  0  0  0  0  0  0  0
   -6.4668    2.6091    0.0854 C   0  0  0  0  0  0  0  0  0  0  0  0
   -6.8097    1.1322    0.1739 C   0  0  0  0  0  0  0  0  0  0  0  0
   -5.6864    0.2320   -0.2327 C   0  0  0  0  0  0  0  0  0  0  0  0
    7.8511    1.1830   -0.5879 H   0  0  0  0  0  0  0  0  0  0  0  0
    8.3574    2.7456   -1.2993 H   0  0  0  0  0  0  0  0  0  0  0  0
    8.7762    2.3362    0.4330 H   0  0  0  0  0  0  0  0  0  0  0  0
    6.5862    3.8370   -0.4179 H   0  0  0  0  0  0  0  0  0  0  0  0
    6.7050    2.9152    1.1708 H   0  0  0  0  0  0  0  0  0  0  0  0
    5.0977   -1.6799    0.9913 H   0  0  0  0  0  0  0  0  0  0  0  0
    4.5475   -2.2072   -0.6922 H   0  0  0  0  0  0  0  0  0  0  0  0
    2.8960   -1.0828    1.6453 H   0  0  0  0  0  0  0  0  0  0  0  0
    2.8665   -2.7690    0.9979 H   0  0  0  0  0  0  0  0  0  0  0  0
    2.1989   -2.0420   -1.1740 H   0  0  0  0  0  0  0  0  0  0  0  0
    1.4086    0.1217   -1.7079 H   0  0  0  0  0  0  0  0  0  0  0  0
    1.7750    0.8142   -0.1085 H   0  0  0  0  0  0  0  0  0  0  0  0
    3.6747   -0.0823   -2.2775 H   0  0  0  0  0  0  0  0  0  0  0  0
    3.6168    1.4410   -1.3464 H   0  0  0  0  0  0  0  0  0  0  0  0
    1.3359   -3.6887    0.0172 H   0  0  0  0  0  0  0  0  0  0  0  0
    0.5999   -3.2245    1.6000 H   0  0  0  0  0  0  0  0  0  0  0  0
   -1.0555   -4.5271    0.8048 H   0  0  0  0  0  0  0  0  0  0  0  0
   -0.6856   -4.2580   -0.8978 H   0  0  0  0  0  0  0  0  0  0  0  0
   -2.3666   -2.6054    1.0722 H   0  0  0  0  0  0  0  0  0  0  0  0
   -2.7823   -3.2633   -0.5302 H   0  0  0  0  0  0  0  0  0  0  0  0
   -1.5498   -1.5737   -1.7077 H   0  0  0  0  0  0  0  0  0  0  0  0
   -0.1047    0.0692   -0.3406 H   0  0  0  0  0  0  0  0  0  0  0  0
   -0.7721   -0.6674    1.1060 H   0  0  0  0  0  0  0  0  0  0  0  0
   -2.9164   -0.3449    0.6964 H   0  0  0  0  0  0  0  0  0  0  0  0
   -5.0089    1.4304   -1.8314 H   0  0  0  0  0  0  0  0  0  0  0  0
   -3.2245    1.8782    0.5962 H   0  0  0  0  0  0  0  0  0  0  0  0
   -3.6128    2.8886   -0.7975 H   0  0  0  0  0  0  0  0  0  0  0  0
   -4.9215    3.8750    0.9464 H   0  0  0  0  0  0  0  0  0  0  0  0
   -5.2110    2.2957    1.7507 H   0  0  0  0  0  0  0  0  0  0  0  0
   -7.2245    3.1321    0.7212 H   0  0  0  0  0  0  0  0  0  0  0  0
   -6.4584    2.9997   -0.9379 H   0  0  0  0  0  0  0  0  0  0  0  0
   -7.0321    0.9275    1.2406 H   0  0  0  0  0  0  0  0  0  0  0  0
   -7.7393    0.9666   -0.4227 H   0  0  0  0  0  0  0  0  0  0  0  0
   -5.3631   -0.4403    0.5838 H   0  0  0  0  0  0  0  0  0  0  0  0
   -6.0866   -0.4593   -1.0278 H   0  0  0  0  0  0  0  0  0  0  0  0
  1  2  1  0
  2  3  1  0
  3  4  1  0
  4  5  2  0
  4  6  1  0
  6  7  1  0
  7  8  1  0
  8  9  1  0
  9 10  1  0
 10 11  1  0
  9 12  1  0
 12 13  1  0
 13 14  1  0
 14 15  1  0
 15 16  1  0
 16 17  1  0
 16 18  1  0
 18 19  1  0
 19 20  2  0
 19 21  1  0
 21 22  1  0
 22 23  1  0
 23 24  1  0
 24 25  1  0
 25 26  1  0
 11  6  1  0
 17 12  1  0
 26 21  1  0
  1 27  1  0
  1 28  1  0
  1 29  1  0
  2 30  1  0
  2 31  1  0
  7 32  1  0
  7 33  1  0
  8 34  1  0
  8 35  1  0
  9 36  1  0
 10 37  1  0
 10 38  1  0
 11 39  1  0
 11 40  1  0
 13 41  1  0
 13 42  1  0
 14 43  1  0
 14 44  1  0
 15 45  1  0
 15 46  1  0
 16 47  1  6
 17 48  1  0
 17 49  1  0
 18 50  1  0
 21 51  1  0
 22 52  1  0
 22 53  1  0
 23 54  1  0
 23 55  1  0
 24 56  1  0
 24 57  1  0
 25 58  1  0
 25 59  1  0
 26 60  1  0
 26 61  1  0
M  END
>  <Ligand ID>  (1) 
LIG0001949

>  <Ligand>  (1) 
CHEMBL1916231

>  <SMILES>  (1) 
CCOC(=O)N1CCC(CC1)N1CCC[C@H](C1)NC(=O)C1CCCCC1

>  <CID>  (1) 
46872062.0

>  <ChEMBL ID>  (1) 
nan

>  <InChiKey>  (1) 
NWXCHPFLJBTGEW-QGZVFWFLSA-N

>  <InChi>  (1) 
InChI=1S/C20H35N3O3/c1-2-26-20(25)22-13-10-18(11-14-22)23-12-6-9-17(15-23)21-19(24)16-7-4-3-5-8-16/h16-18H,2-15H2,1H3,(H,21,24)/t17-/m1/s1

>  <IUPAC Name>  (1) 
ethyl 4-[(3R)-3-(cyclohexanecarbonylamino)piperidin-1-yl]piperidine-1-carboxylate

$$$$
