
     RDKit          3D

 89 93  0  0  0  0  0  0  0  0999 V2000
   -4.6678    6.0033   -3.3333 I   0  0  0  0  0  0  0  0  0  0  0  0
   -3.4441    4.7754   -2.1283 C   0  0  0  0  0  0  0  0  0  0  0  0
   -2.4513    4.0518   -2.7603 C   0  0  0  0  0  0  0  0  0  0  0  0
   -1.6134    3.2264   -2.0073 C   0  0  0  0  0  0  0  0  0  0  0  0
   -1.7322    3.0984   -0.6451 C   0  0  0  0  0  0  0  0  0  0  0  0
   -2.7497    3.8448   -0.0334 C   0  0  0  0  0  0  0  0  0  0  0  0
   -3.5826    4.6658   -0.7827 C   0  0  0  0  0  0  0  0  0  0  0  0
   -0.8378    2.2178    0.1753 C   0  0  0  0  0  0  0  0  0  0  0  0
   -1.3512    0.8365    0.2909 C   0  0  2  0  0  0  0  0  0  0  0  0
   -1.5398    0.0575   -0.9263 C   0  0  0  0  0  0  0  0  0  0  0  0
   -2.6559   -0.5572   -1.2001 O   0  0  0  0  0  0  0  0  0  0  0  0
   -0.5882   -0.1669   -1.9747 N   0  0  0  0  0  0  0  0  0  0  0  0
   -1.1129   -1.0227   -3.0560 C   0  0  0  0  0  0  0  0  0  0  0  0
   -0.0725   -1.9994   -3.4800 C   0  0  0  0  0  0  0  0  0  0  0  0
   -0.2810   -3.3440   -3.6223 C   0  0  0  0  0  0  0  0  0  0  0  0
    0.7967   -4.1120   -4.0271 C   0  0  0  0  0  0  0  0  0  0  0  0
    2.0469   -3.5535   -4.2815 C   0  0  0  0  0  0  0  0  0  0  0  0
    2.2584   -2.1798   -4.1365 C   0  0  0  0  0  0  0  0  0  0  0  0
    1.1858   -1.4304   -3.7359 C   0  0  0  0  0  0  0  0  0  0  0  0
    1.2332    0.0481   -3.5246 C   0  0  0  0  0  0  0  0  0  0  0  0
    0.7347    0.2972   -2.0839 C   0  0  0  0  0  0  0  0  0  0  0  0
    1.6949   -0.4328   -1.1707 C   0  0  0  0  0  0  0  0  0  0  0  0
    1.3147   -1.3306   -0.3878 O   0  0  0  0  0  0  0  0  0  0  0  0
    3.0649   -0.0157   -1.2755 N   0  0  0  0  0  0  0  0  0  0  0  0
    4.1094   -0.6369   -0.4479 C   0  0  1  0  0  0  0  0  0  0  0  0
    5.2430   -1.1244   -1.2553 C   0  0  0  0  0  0  0  0  0  0  0  0
    6.2311   -1.7423   -0.7647 O   0  0  0  0  0  0  0  0  0  0  0  0
    5.2956   -0.9238   -2.6700 N   0  0  0  0  0  0  0  0  0  0  0  0
    4.5980    0.4783    0.4629 C   0  0  0  0  0  0  0  0  0  0  0  0
    5.6650    0.0294    1.3720 C   0  0  0  0  0  0  0  0  0  0  0  0
    5.3294   -0.5417    2.6072 C   0  0  0  0  0  0  0  0  0  0  0  0
    6.3451   -0.9521    3.4540 C   0  0  0  0  0  0  0  0  0  0  0  0
    7.6735   -0.7988    3.0821 C   0  0  0  0  0  0  0  0  0  0  0  0
    8.0245   -0.2378    1.8686 C   0  0  0  0  0  0  0  0  0  0  0  0
    7.0118    0.1688    1.0301 C   0  0  0  0  0  0  0  0  0  0  0  0
    8.7125   -1.2238    3.9487 N   0  0  0  0  0  0  0  0  0  0  0  0
    8.4910   -1.7430    5.0693 O   0  0  0  0  0  0  0  0  0  0  0  0
   10.0087   -1.0550    3.5295 O   0  0  0  0  0  0  0  0  0  0  0  0
   -2.4344    0.8619    1.2306 N   0  0  0  0  0  0  0  0  0  0  0  0
   -3.7937    0.6049    1.0998 C   0  0  0  0  0  0  0  0  0  0  0  0
   -4.4356    0.2949    0.0726 O   0  0  0  0  0  0  0  0  0  0  0  0
   -4.6369    0.7046    2.3487 C   0  0  2  0  0  0  0  0  0  0  0  0
   -4.1170   -0.0978    3.4853 C   0  0  0  0  0  0  0  0  0  0  0  0
   -4.0060   -1.5367    3.2903 C   0  0  0  0  0  0  0  0  0  0  0  0
   -4.2950   -2.3684    2.2303 C   0  0  0  0  0  0  0  0  0  0  0  0
   -4.0213   -3.6559    2.5367 N   0  0  0  0  0  0  0  0  0  0  0  0
   -3.5613   -3.6231    3.7885 C   0  0  0  0  0  0  0  0  0  0  0  0
   -3.5409   -2.3848    4.2595 N   0  0  0  0  0  0  0  0  0  0  0  0
   -6.0221    0.4639    2.0210 N   0  0  0  0  0  0  0  0  0  0  0  0
   -7.0344    1.4842    2.1385 C   0  0  0  0  0  0  0  0  0  0  0  0
   -6.6070    2.6094    2.5536 O   0  0  0  0  0  0  0  0  0  0  0  0
   -8.4532    1.2384    1.8023 C   0  0  0  0  0  0  0  0  0  0  0  0
   -2.3227    4.1267   -3.8443 H   0  0  0  0  0  0  0  0  0  0  0  0
   -0.8643    2.6984   -2.5699 H   0  0  0  0  0  0  0  0  0  0  0  0
   -2.8688    3.7622    1.0498 H   0  0  0  0  0  0  0  0  0  0  0  0
   -4.3760    5.2516   -0.2999 H   0  0  0  0  0  0  0  0  0  0  0  0
    0.1787    2.3998   -0.1078 H   0  0  0  0  0  0  0  0  0  0  0  0
   -0.8965    2.6382    1.2477 H   0  0  0  0  0  0  0  0  0  0  0  0
   -0.5523    0.2165    0.8477 H   0  0  0  0  0  0  0  0  0  0  0  0
   -1.4573   -0.4233   -3.9172 H   0  0  0  0  0  0  0  0  0  0  0  0
   -1.9729   -1.6050   -2.6868 H   0  0  0  0  0  0  0  0  0  0  0  0
   -1.2570   -3.7500   -3.4157 H   0  0  0  0  0  0  0  0  0  0  0  0
    0.6814   -5.1804   -4.1551 H   0  0  0  0  0  0  0  0  0  0  0  0
    2.8857   -4.1370   -4.5924 H   0  0  0  0  0  0  0  0  0  0  0  0
    3.1915   -1.7059   -4.3234 H   0  0  0  0  0  0  0  0  0  0  0  0
    2.2337    0.4445   -3.6980 H   0  0  0  0  0  0  0  0  0  0  0  0
    0.5270    0.5246   -4.2037 H   0  0  0  0  0  0  0  0  0  0  0  0
    0.9475    1.3530   -1.9158 H   0  0  0  0  0  0  0  0  0  0  0  0
    3.3634    0.7240   -1.9271 H   0  0  0  0  0  0  0  0  0  0  0  0
    3.6629   -1.4054    0.2165 H   0  0  0  0  0  0  0  0  0  0  0  0
    5.6947   -1.6236   -3.3318 H   0  0  0  0  0  0  0  0  0  0  0  0
    4.9110   -0.0316   -3.0200 H   0  0  0  0  0  0  0  0  0  0  0  0
    5.0107    1.3188   -0.1665 H   0  0  0  0  0  0  0  0  0  0  0  0
    3.7485    0.9417    1.0312 H   0  0  0  0  0  0  0  0  0  0  0  0
    4.2901   -0.6629    2.9051 H   0  0  0  0  0  0  0  0  0  0  0  0
    6.0462   -1.3887    4.4034 H   0  0  0  0  0  0  0  0  0  0  0  0
    9.0685   -0.1114    1.5655 H   0  0  0  0  0  0  0  0  0  0  0  0
    7.3162    0.6062    0.0853 H   0  0  0  0  0  0  0  0  0  0  0  0
   -2.1178    1.1395    2.2363 H   0  0  0  0  0  0  0  0  0  0  0  0
   -4.5640    1.7852    2.6749 H   0  0  0  0  0  0  0  0  0  0  0  0
   -3.1389    0.3365    3.8262 H   0  0  0  0  0  0  0  0  0  0  0  0
   -4.8077    0.0852    4.3556 H   0  0  0  0  0  0  0  0  0  0  0  0
   -4.6858   -2.0810    1.2806 H   0  0  0  0  0  0  0  0  0  0  0  0
   -3.2536   -4.5213    4.3187 H   0  0  0  0  0  0  0  0  0  0  0  0
   -3.2136   -2.1315    5.2219 H   0  0  0  0  0  0  0  0  0  0  0  0
   -6.3744   -0.4585    1.6825 H   0  0  0  0  0  0  0  0  0  0  0  0
   -8.9722    2.2260    1.7485 H   0  0  0  0  0  0  0  0  0  0  0  0
   -8.9251    0.6453    2.6030 H   0  0  0  0  0  0  0  0  0  0  0  0
   -8.5661    0.7234    0.8377 H   0  0  0  0  0  0  0  0  0  0  0  0
  1  2  1  0
  2  3  2  0
  3  4  1  0
  4  5  2  0
  5  6  1  0
  6  7  2  0
  5  8  1  0
  8  9  1  0
  9 10  1  0
 10 11  2  0
 10 12  1  0
 12 13  1  0
 13 14  1  0
 14 15  2  0
 15 16  1  0
 16 17  2  0
 17 18  1  0
 18 19  2  0
 19 20  1  0
 20 21  1  0
 21 22  1  0
 22 23  2  0
 22 24  1  0
 24 25  1  0
 25 26  1  0
 26 27  2  0
 26 28  1  0
 25 29  1  0
 29 30  1  0
 30 31  2  0
 31 32  1  0
 32 33  2  0
 33 34  1  0
 34 35  2  0
 33 36  1  0
 36 37  2  0
 36 38  1  0
  9 39  1  0
 39 40  1  0
 40 41  2  0
 40 42  1  0
 42 43  1  0
 43 44  1  0
 44 45  2  0
 45 46  1  0
 46 47  2  0
 47 48  1  0
 42 49  1  0
 49 50  1  0
 50 51  2  0
 50 52  1  0
  7  2  1  0
 21 12  1  0
 35 30  1  0
 48 44  1  0
 19 14  1  0
  3 53  1  0
  4 54  1  0
  6 55  1  0
  7 56  1  0
  8 57  1  0
  8 58  1  0
  9 59  1  1
 13 60  1  0
 13 61  1  0
 15 62  1  0
 16 63  1  0
 17 64  1  0
 18 65  1  0
 20 66  1  0
 20 67  1  0
 21 68  1  0
 24 69  1  0
 25 70  1  1
 28 71  1  0
 28 72  1  0
 29 73  1  0
 29 74  1  0
 31 75  1  0
 32 76  1  0
 34 77  1  0
 35 78  1  0
 39 79  1  0
 42 80  1  1
 43 81  1  0
 43 82  1  0
 45 83  1  0
 47 84  1  0
 48 85  1  0
 49 86  1  0
 52 87  1  0
 52 88  1  0
 52 89  1  0
M  CHG  2  36   1  38  -1
M  END
>  <Ligand ID>  (1) 
LIG0000887

>  <Ligand>  (1) 
CHEMBL3287322

>  <SMILES>  (1) 
Ic1ccc(cc1)C[C@H](C(=O)N1Cc2ccccc2CC1C(=O)N[C@@H](C(=O)N)Cc1ccc(cc1)[N+](=O)[O-])NC(=O)[C@H](Cc1cnc[nH]1)NC(=O)C

>  <CID>  (1) 
90643802.0

>  <ChEMBL ID>  (1) 
nan

>  <InChiKey>  (1) 
IRYMLYQXVLFVAF-NUMJAJDCSA-N

>  <InChi>  (1) 
InChI=1S/C36H37IN8O7/c1-21(46)41-30(17-27-18-39-20-40-27)34(48)43-31(15-22-6-10-26(37)11-7-22)36(50)44-19-25-5-3-2-4-24(25)16-32(44)35(49)42-29(33(38)47)14-23-8-12-28(13-9-23)45(51)52/h2-13,18,20,29-32H,14-17,19H2,1H3,(H2,38,47)(H,39,40)(H,41,46)(H,42,49)(H,43,48)/t29-,30+,31-,32?/m1/s1

>  <IUPAC Name>  (1) 
2-[(2R)-2-[[(2S)-2-acetamido-3-(1H-imidazol-5-yl)propanoyl]amino]-3-(4-iodophenyl)propanoyl]-N-[(2R)-1-amino-3-(4-nitrophenyl)-1-oxopropan-2-yl]-3,4-dihydro-1H-isoquinoline-3-carboxamide

$$$$
