
     RDKit          3D

 59 62  0  0  0  0  0  0  0  0999 V2000
   -3.6211   -1.2878    1.7687 C   0  0  0  0  0  0  0  0  0  0  0  0
   -4.3111   -0.2845    0.9065 C   0  0  2  0  0  0  0  0  0  0  0  0
   -5.5265   -0.9478    0.2431 C   0  0  0  0  0  0  0  0  0  0  0  0
   -6.2788    0.1445   -0.3429 N   0  0  0  0  0  0  0  0  0  0  0  0
   -5.6074    1.0172   -1.2514 C   0  0  0  0  0  0  0  0  0  0  0  0
   -4.1266    0.9274   -1.2802 C   0  0  0  0  0  0  0  0  0  0  0  0
   -3.5155    0.2693   -0.1546 N   0  0  0  0  0  0  0  0  0  0  0  0
   -2.0741    0.2047   -0.1624 C   0  0  0  0  0  0  0  0  0  0  0  0
   -1.3916   -0.3801    0.8422 N   0  0  0  0  0  0  0  0  0  0  0  0
   -0.0665   -0.4662    0.8813 C   0  0  0  0  0  0  0  0  0  0  0  0
    0.6746    0.0663   -0.1545 C   0  0  0  0  0  0  0  0  0  0  0  0
   -0.0255    0.6632   -1.1794 C   0  0  0  0  0  0  0  0  0  0  0  0
   -1.3483    0.7184   -1.1624 N   0  0  0  0  0  0  0  0  0  0  0  0
    2.0399    0.0415   -0.2311 O   0  0  0  0  0  0  0  0  0  0  0  0
    2.9181   -0.5209    0.7134 C   0  0  0  0  0  0  0  0  0  0  0  0
    4.3053   -0.2969    0.1786 C   0  0  0  0  0  0  0  0  0  0  0  0
    4.9399   -1.3956   -0.3847 C   0  0  0  0  0  0  0  0  0  0  0  0
    6.2176   -1.2425   -0.8929 C   0  0  0  0  0  0  0  0  0  0  0  0
    6.8171   -0.0024   -0.8220 C   0  0  0  0  0  0  0  0  0  0  0  0
    6.1680    1.0795   -0.2570 C   0  0  0  0  0  0  0  0  0  0  0  0
    4.8916    0.9478    0.2563 C   0  0  0  0  0  0  0  0  0  0  0  0
    4.2259    1.9879    0.8160 F   0  0  0  0  0  0  0  0  0  0  0  0
    8.1358    0.0972   -1.3626 N   0  0  0  0  0  0  0  0  0  0  0  0
    9.2340   -0.2473   -0.2815 S   0  0  0  0  0  0  0  0  0  0  0  0
    8.8288   -1.5636    0.2606 O   0  0  0  0  0  0  0  0  0  0  0  0
    8.9961    0.9569    1.0301 C   0  0  0  0  0  0  0  0  0  0  0  0
   10.8681   -0.1940   -0.9101 C   0  0  0  0  0  0  0  0  0  0  0  0
   -7.6503    0.3897   -0.0590 C   0  0  0  0  0  0  0  0  0  0  0  0
   -8.1998    1.1311    0.8713 O   0  0  0  0  0  0  0  0  0  0  0  0
   -9.4956    1.1081    0.8168 N   0  0  0  0  0  0  0  0  0  0  0  0
   -9.8239    0.3048   -0.2097 C   0  0  0  0  0  0  0  0  0  0  0  0
   -8.6806   -0.1485   -0.7624 N   0  0  0  0  0  0  0  0  0  0  0  0
  -11.2021   -0.0179   -0.6463 C   0  0  0  0  0  0  0  0  0  0  0  0
  -11.1637   -0.5697   -1.9240 F   0  0  0  0  0  0  0  0  0  0  0  0
  -11.8071   -0.9622    0.1574 F   0  0  0  0  0  0  0  0  0  0  0  0
  -12.0415    1.0689   -0.6793 F   0  0  0  0  0  0  0  0  0  0  0  0
   -4.4336   -1.8327    2.3257 H   0  0  0  0  0  0  0  0  0  0  0  0
   -3.0108   -0.7582    2.5227 H   0  0  0  0  0  0  0  0  0  0  0  0
   -3.0601   -2.0220    1.1641 H   0  0  0  0  0  0  0  0  0  0  0  0
   -4.7375    0.5346    1.5581 H   0  0  0  0  0  0  0  0  0  0  0  0
   -6.1105   -1.5314    0.9786 H   0  0  0  0  0  0  0  0  0  0  0  0
   -5.1666   -1.5786   -0.6024 H   0  0  0  0  0  0  0  0  0  0  0  0
   -5.9782    2.0767   -1.1521 H   0  0  0  0  0  0  0  0  0  0  0  0
   -5.9624    0.7176   -2.2819 H   0  0  0  0  0  0  0  0  0  0  0  0
   -3.7330    1.9859   -1.2510 H   0  0  0  0  0  0  0  0  0  0  0  0
   -3.6974    0.5075   -2.2260 H   0  0  0  0  0  0  0  0  0  0  0  0
    0.4580   -0.9437    1.7041 H   0  0  0  0  0  0  0  0  0  0  0  0
    0.5082    1.0956   -2.0139 H   0  0  0  0  0  0  0  0  0  0  0  0
    2.7687    0.0685    1.6564 H   0  0  0  0  0  0  0  0  0  0  0  0
    2.6958   -1.5804    0.8332 H   0  0  0  0  0  0  0  0  0  0  0  0
    4.4958   -2.3694   -0.4518 H   0  0  0  0  0  0  0  0  0  0  0  0
    6.7220   -2.0849   -1.3332 H   0  0  0  0  0  0  0  0  0  0  0  0
    6.6704    2.0337   -0.2194 H   0  0  0  0  0  0  0  0  0  0  0  0
    8.9674    1.9898    0.6362 H   0  0  0  0  0  0  0  0  0  0  0  0
    9.7333    0.7974    1.8390 H   0  0  0  0  0  0  0  0  0  0  0  0
    7.9920    0.7803    1.4763 H   0  0  0  0  0  0  0  0  0  0  0  0
   11.5608   -0.0415   -0.0622 H   0  0  0  0  0  0  0  0  0  0  0  0
   10.9487    0.6855   -1.5756 H   0  0  0  0  0  0  0  0  0  0  0  0
   11.0660   -1.1270   -1.4622 H   0  0  0  0  0  0  0  0  0  0  0  0
  1  2  1  0
  2  3  1  0
  3  4  1  0
  4  5  1  0
  5  6  1  0
  6  7  1  0
  7  8  1  0
  8  9  2  0
  9 10  1  0
 10 11  2  0
 11 12  1  0
 12 13  2  0
 11 14  1  0
 14 15  1  0
 15 16  1  0
 16 17  2  0
 17 18  1  0
 18 19  2  0
 19 20  1  0
 20 21  2  0
 21 22  1  0
 19 23  1  0
 23 24  2  0
 24 25  2  0
 24 26  1  0
 24 27  1  0
  4 28  1  0
 28 29  1  0
 29 30  1  0
 30 31  2  0
 31 32  1  0
 31 33  1  0
 33 34  1  0
 33 35  1  0
 33 36  1  0
  7  2  1  0
 13  8  1  0
 21 16  1  0
 32 28  2  0
  1 37  1  0
  1 38  1  0
  1 39  1  0
  2 40  1  1
  3 41  1  0
  3 42  1  0
  5 43  1  0
  5 44  1  0
  6 45  1  0
  6 46  1  0
 10 47  1  0
 12 48  1  0
 15 49  1  0
 15 50  1  0
 17 51  1  0
 18 52  1  0
 20 53  1  0
 26 54  1  0
 26 55  1  0
 26 56  1  0
 27 57  1  0
 27 58  1  0
 27 59  1  0
M  END
>  <Ligand ID>  (1) 
LIG0005277

>  <Ligand>  (1) 
CHEMBL3358009

>  <SMILES>  (1) 
C[C@@H]1CN(CCN1c1ncc(cn1)OCc1ccc(cc1F)N=S(=O)(C)C)c1onc(n1)C(F)(F)F

>  <CID>  (1) 
118722584.0

>  <ChEMBL ID>  (1) 
nan

>  <InChiKey>  (1) 
XHLVPOJFTMKAHC-CYBMUJFWSA-N

>  <InChi>  (1) 
InChI=1S/C21H23F4N7O3S/c1-13-11-31(20-28-18(29-35-20)21(23,24)25)6-7-32(13)19-26-9-16(10-27-19)34-12-14-4-5-15(8-17(14)22)30-36(2,3)33/h4-5,8-10,13H,6-7,11-12H2,1-3H3/t13-/m1/s1

>  <IUPAC Name>  (1) 
[3-fluoro-4-[[2-[(2R)-2-methyl-4-[3-(trifluoromethyl)-1,2,4-oxadiazol-5-yl]piperazin-1-yl]pyrimidin-5-yl]oxymethyl]phenyl]imino-dimethyl-oxo-lambda6-sulfane

$$$$
