
     RDKit          3D

 65 68  0  0  0  0  0  0  0  0999 V2000
    1.6592    0.2374   -0.5920 C   0  0  0  0  0  0  0  0  0  0  0  0
    1.6018   -1.0419    0.1815 C   0  0  2  0  0  0  0  0  0  0  0  0
    2.7487   -1.9575   -0.0543 C   0  0  0  0  0  0  0  0  0  0  0  0
    4.0759   -1.4438    0.2864 C   0  0  0  0  0  0  0  0  0  0  0  0
    4.7260   -1.7364    1.4922 C   0  0  0  0  0  0  0  0  0  0  0  0
    5.9126   -1.1115    1.5321 N   0  0  0  0  0  0  0  0  0  0  0  0
    6.0725   -0.4184    0.4007 C   0  0  0  0  0  0  0  0  0  0  0  0
    4.9499   -0.6152   -0.3732 C   0  0  0  0  0  0  0  0  0  0  0  0
    4.8910   -0.0075   -1.5898 C   0  0  0  0  0  0  0  0  0  0  0  0
    5.9221    0.7815   -2.0335 C   0  0  0  0  0  0  0  0  0  0  0  0
    7.0580    0.9791   -1.2446 C   0  0  0  0  0  0  0  0  0  0  0  0
    7.1215    0.3696   -0.0219 C   0  0  0  0  0  0  0  0  0  0  0  0
    8.2569    0.5614    0.7760 O   0  0  0  0  0  0  0  0  0  0  0  0
    8.2425    1.8907    1.8695 S   0  0  0  0  0  0  0  0  0  0  0  0
    6.8761    1.9860    2.4831 O   0  0  0  0  0  0  0  0  0  0  0  0
    9.2292    1.6493    2.9615 O   0  0  0  0  0  0  0  0  0  0  0  0
    8.6573    3.3500    0.9401 C   0  0  0  0  0  0  0  0  0  0  0  0
    0.3276   -1.7179    0.0691 N   0  0  0  0  0  0  0  0  0  0  0  0
    0.0536   -2.0006   -1.3010 C   0  0  0  0  0  0  0  0  0  0  0  0
   -1.2274   -2.7052   -1.5582 C   0  0  1  0  0  0  0  0  0  0  0  0
   -2.4281   -1.9549   -1.1472 C   0  0  0  0  0  0  0  0  0  0  0  0
   -3.6541   -2.4626   -1.5981 C   0  0  0  0  0  0  0  0  0  0  0  0
   -4.8511   -1.8454   -1.2813 C   0  0  0  0  0  0  0  0  0  0  0  0
   -4.8562   -0.7031   -0.5050 C   0  0  0  0  0  0  0  0  0  0  0  0
   -3.6588   -0.1894   -0.0531 C   0  0  0  0  0  0  0  0  0  0  0  0
   -2.4541   -0.8249   -0.3815 C   0  0  0  0  0  0  0  0  0  0  0  0
   -6.1514   -0.0999   -0.1996 C   0  0  0  0  0  0  0  0  0  0  0  0
   -7.1846   -0.6695   -0.6389 O   0  0  0  0  0  0  0  0  0  0  0  0
   -6.2965    1.0888    0.5638 N   0  0  0  0  0  0  0  0  0  0  0  0
   -7.6084    1.5977    0.8098 C   0  0  0  0  0  0  0  0  0  0  0  0
   -8.2199    2.4950   -0.0597 C   0  0  0  0  0  0  0  0  0  0  0  0
   -9.4857    2.9267    0.2678 C   0  0  0  0  0  0  0  0  0  0  0  0
  -10.1571    2.5234    1.3850 C   0  0  0  0  0  0  0  0  0  0  0  0
   -9.5329    1.6306    2.2383 C   0  0  0  0  0  0  0  0  0  0  0  0
   -8.2634    1.1590    1.9674 C   0  0  0  0  0  0  0  0  0  0  0  0
   -1.3168   -2.9264   -2.9612 O   0  0  0  0  0  0  0  0  0  0  0  0
    0.7507    0.8579   -0.3559 H   0  0  0  0  0  0  0  0  0  0  0  0
    1.7468    0.0847   -1.6865 H   0  0  0  0  0  0  0  0  0  0  0  0
    2.5050    0.8373   -0.2568 H   0  0  0  0  0  0  0  0  0  0  0  0
    1.6311   -0.7201    1.2819 H   0  0  0  0  0  0  0  0  0  0  0  0
    2.5486   -2.8830    0.5614 H   0  0  0  0  0  0  0  0  0  0  0  0
    2.7514   -2.2962   -1.1321 H   0  0  0  0  0  0  0  0  0  0  0  0
    4.3281   -2.3751    2.2786 H   0  0  0  0  0  0  0  0  0  0  0  0
    6.5690   -1.1894    2.3460 H   0  0  0  0  0  0  0  0  0  0  0  0
    4.0350   -0.1546   -2.1999 H   0  0  0  0  0  0  0  0  0  0  0  0
    5.9076    1.2822   -3.0004 H   0  0  0  0  0  0  0  0  0  0  0  0
    7.8588    1.6171   -1.6376 H   0  0  0  0  0  0  0  0  0  0  0  0
    9.1479    4.0464    1.6387 H   0  0  0  0  0  0  0  0  0  0  0  0
    7.7515    3.8210    0.4679 H   0  0  0  0  0  0  0  0  0  0  0  0
    9.3543    3.1249    0.1135 H   0  0  0  0  0  0  0  0  0  0  0  0
    0.3128   -2.6149    0.5911 H   0  0  0  0  0  0  0  0  0  0  0  0
    0.1070   -1.0903   -1.9494 H   0  0  0  0  0  0  0  0  0  0  0  0
    0.8676   -2.6911   -1.6759 H   0  0  0  0  0  0  0  0  0  0  0  0
   -1.2439   -3.7165   -1.0904 H   0  0  0  0  0  0  0  0  0  0  0  0
   -3.6821   -3.3646   -2.2146 H   0  0  0  0  0  0  0  0  0  0  0  0
   -5.7673   -2.2953   -1.6667 H   0  0  0  0  0  0  0  0  0  0  0  0
   -3.6503    0.6975    0.5497 H   0  0  0  0  0  0  0  0  0  0  0  0
   -1.5529   -0.3811   -0.0078 H   0  0  0  0  0  0  0  0  0  0  0  0
   -5.4481    1.5760    0.9356 H   0  0  0  0  0  0  0  0  0  0  0  0
   -7.7054    2.8287   -0.9522 H   0  0  0  0  0  0  0  0  0  0  0  0
   -9.9585    3.6358   -0.4273 H   0  0  0  0  0  0  0  0  0  0  0  0
  -11.1497    2.8619    1.6419 H   0  0  0  0  0  0  0  0  0  0  0  0
  -10.0408    1.2823    3.1469 H   0  0  0  0  0  0  0  0  0  0  0  0
   -7.7454    0.4585    2.6148 H   0  0  0  0  0  0  0  0  0  0  0  0
   -1.2653   -2.0341   -3.3879 H   0  0  0  0  0  0  0  0  0  0  0  0
  1  2  1  0
  2  3  1  0
  3  4  1  0
  4  5  2  0
  5  6  1  0
  6  7  1  0
  7  8  2  0
  8  9  1  0
  9 10  2  0
 10 11  1  0
 11 12  2  0
 12 13  1  0
 13 14  1  0
 14 15  2  0
 14 16  2  0
 14 17  1  0
  2 18  1  0
 18 19  1  0
 19 20  1  0
 20 21  1  0
 21 22  2  0
 22 23  1  0
 23 24  2  0
 24 25  1  0
 25 26  2  0
 24 27  1  0
 27 28  2  0
 27 29  1  0
 29 30  1  0
 30 31  2  0
 31 32  1  0
 32 33  2  0
 33 34  1  0
 34 35  2  0
 20 36  1  0
  8  4  1  0
 26 21  1  0
 35 30  1  0
 12  7  1  0
  1 37  1  0
  1 38  1  0
  1 39  1  0
  2 40  1  1
  3 41  1  0
  3 42  1  0
  5 43  1  0
  6 44  1  0
  9 45  1  0
 10 46  1  0
 11 47  1  0
 17 48  1  0
 17 49  1  0
 17 50  1  0
 18 51  1  0
 19 52  1  0
 19 53  1  0
 20 54  1  1
 22 55  1  0
 23 56  1  0
 25 57  1  0
 26 58  1  0
 29 59  1  0
 31 60  1  0
 32 61  1  0
 33 62  1  0
 34 63  1  0
 35 64  1  0
 36 65  1  0
M  END
>  <Ligand ID>  (1) 
LIG0002224

>  <Ligand>  (1) 
CHEMBL2260987

>  <SMILES>  (1) 
C[C@H](Cc1c[nH]c2c1cccc2OS(=O)(=O)C)NC[C@@H](c1ccc(cc1)C(=O)Nc1ccccc1)O

>  <CID>  (1) 
76315639.0

>  <ChEMBL ID>  (1) 
nan

>  <InChiKey>  (1) 
IQESKMUIWATIEL-KOSHJBKYSA-N

>  <InChi>  (1) 
InChI=1S/C27H29N3O5S/c1-18(15-21-16-29-26-23(21)9-6-10-25(26)35-36(2,33)34)28-17-24(31)19-11-13-20(14-12-19)27(32)30-22-7-4-3-5-8-22/h3-14,16,18,24,28-29,31H,15,17H2,1-2H3,(H,30,32)/t18-,24+/m1/s1

>  <IUPAC Name>  (1) 
[3-[(2R)-2-[[(2R)-2-hydroxy-2-[4-(phenylcarbamoyl)phenyl]ethyl]amino]propyl]-1H-indol-7-yl] methanesulfonate

$$$$
