
     RDKit          3D

 23 23  0  0  0  0  0  0  0  0999 V2000
   -2.6035   -0.9560   -1.7498 C   0  0  0  0  0  0  0  0  0  0  0  0
   -2.5217   -1.0201   -0.3386 O   0  0  0  0  0  0  0  0  0  0  0  0
   -1.4227   -0.4422    0.2842 C   0  0  0  0  0  0  0  0  0  0  0  0
   -0.4082    0.1904   -0.4069 C   0  0  0  0  0  0  0  0  0  0  0  0
    0.6658    0.7492    0.2766 C   0  0  0  0  0  0  0  0  0  0  0  0
    0.7149    0.6691    1.6563 C   0  0  0  0  0  0  0  0  0  0  0  0
   -0.3085    0.0313    2.3471 C   0  0  0  0  0  0  0  0  0  0  0  0
   -1.3730   -0.5220    1.6628 C   0  0  0  0  0  0  0  0  0  0  0  0
   -2.3548   -1.1399    2.4028 O   0  0  0  0  0  0  0  0  0  0  0  0
    1.7744    1.4362   -0.4223 C   0  0  0  0  0  0  0  0  0  0  0  0
    2.8110    0.4277   -0.7331 C   0  0  0  0  0  0  0  0  0  0  0  0
    2.6963   -0.7933   -0.4222 O   0  0  0  0  0  0  0  0  0  0  0  0
    3.9781    0.7843   -1.3927 O   0  0  0  0  0  0  0  0  0  0  0  0
   -3.4029   -1.6420   -2.1287 H   0  0  0  0  0  0  0  0  0  0  0  0
   -2.9225    0.0587   -2.0877 H   0  0  0  0  0  0  0  0  0  0  0  0
   -1.6300   -1.2483   -2.1891 H   0  0  0  0  0  0  0  0  0  0  0  0
   -0.4463    0.2525   -1.4760 H   0  0  0  0  0  0  0  0  0  0  0  0
    1.5507    1.1017    2.2162 H   0  0  0  0  0  0  0  0  0  0  0  0
   -0.2384   -0.0135    3.4280 H   0  0  0  0  0  0  0  0  0  0  0  0
   -2.5837   -2.1079    2.1705 H   0  0  0  0  0  0  0  0  0  0  0  0
    1.3886    1.8531   -1.3855 H   0  0  0  0  0  0  0  0  0  0  0  0
    2.1515    2.2716    0.2104 H   0  0  0  0  0  0  0  0  0  0  0  0
    4.4850    0.0595   -1.9221 H   0  0  0  0  0  0  0  0  0  0  0  0
  1  2  1  0
  2  3  1  0
  3  4  2  0
  4  5  1  0
  5  6  2  0
  6  7  1  0
  7  8  2  0
  8  9  1  0
  5 10  1  0
 10 11  1  0
 11 12  2  0
 11 13  1  0
  8  3  1  0
  1 14  1  0
  1 15  1  0
  1 16  1  0
  4 17  1  0
  6 18  1  0
  7 19  1  0
  9 20  1  0
 10 21  1  0
 10 22  1  0
 13 23  1  0
M  END
>  <Ligand ID>  (1) 
LIG0000562

>  <Ligand>  (1) 
Homovanillic Acid

>  <SMILES>  (1) 
COc1cc(ccc1O)CC(=O)O

>  <CID>  (1) 
1738.0

>  <ChEMBL ID>  (1) 
nan

>  <InChiKey>  (1) 
QRMZSPFSDQBLIX-UHFFFAOYSA-N

>  <InChi>  (1) 
InChI=1S/C9H10O4/c1-13-8-4-6(5-9(11)12)2-3-7(8)10/h2-4,10H,5H2,1H3,(H,11,12)

>  <IUPAC Name>  (1) 
2-(4-hydroxy-3-methoxyphenyl)acetic acid

$$$$
