
     RDKit          3D

106110  0  0  0  0  0  0  0  0999 V2000
   -6.7004   -2.9768   -6.0196 I   0  0  0  0  0  0  0  0  0  0  0  0
   -5.3338   -2.7087   -4.4470 C   0  0  0  0  0  0  0  0  0  0  0  0
   -3.9875   -2.6843   -4.7394 C   0  0  0  0  0  0  0  0  0  0  0  0
   -3.0996   -2.5084   -3.7040 C   0  0  0  0  0  0  0  0  0  0  0  0
   -3.5602   -2.3599   -2.3994 C   0  0  0  0  0  0  0  0  0  0  0  0
   -4.9214   -2.3897   -2.1437 C   0  0  0  0  0  0  0  0  0  0  0  0
   -5.8366   -2.5665   -3.1763 C   0  0  0  0  0  0  0  0  0  0  0  0
   -2.5958   -2.1693   -1.2826 C   0  0  0  0  0  0  0  0  0  0  0  0
   -2.3202   -0.6963   -1.0726 C   0  0  2  0  0  0  0  0  0  0  0  0
   -1.3426   -0.5856    0.0662 C   0  0  0  0  0  0  0  0  0  0  0  0
   -1.6477    0.0834    1.0821 O   0  0  0  0  0  0  0  0  0  0  0  0
   -0.0715   -1.2607   -0.0479 N   0  0  0  0  0  0  0  0  0  0  0  0
    0.8251   -1.1245    1.0612 C   0  0  2  0  0  0  0  0  0  0  0  0
    2.1522   -0.7004    0.5177 C   0  0  0  0  0  0  0  0  0  0  0  0
    2.2386   -0.5395   -0.7228 O   0  0  0  0  0  0  0  0  0  0  0  0
    3.2802   -0.4834    1.3455 N   0  0  0  0  0  0  0  0  0  0  0  0
    4.5679   -0.0764    0.8216 C   0  0  2  0  0  0  0  0  0  0  0  0
    5.4639   -1.2413    0.9903 C   0  0  0  0  0  0  0  0  0  0  0  0
    5.0022   -2.2870    1.5428 O   0  0  0  0  0  0  0  0  0  0  0  0
    6.8205   -1.2698    0.5707 N   0  0  0  0  0  0  0  0  0  0  0  0
    5.0630    1.2000    1.4010 C   0  0  0  0  0  0  0  0  0  0  0  0
    6.3701    1.6226    0.8848 C   0  0  0  0  0  0  0  0  0  0  0  0
    7.5471    1.2549    1.5301 C   0  0  0  0  0  0  0  0  0  0  0  0
    8.7925    1.6282    1.0671 C   0  0  0  0  0  0  0  0  0  0  0  0
    8.8953    2.3936   -0.0747 C   0  0  0  0  0  0  0  0  0  0  0  0
    7.7419    2.7700   -0.7303 C   0  0  0  0  0  0  0  0  0  0  0  0
    6.4960    2.3895   -0.2568 C   0  0  0  0  0  0  0  0  0  0  0  0
   10.2329    2.7709   -0.5409 C   0  0  0  0  0  0  0  0  0  0  0  0
   10.3833    2.9159   -1.9099 C   0  0  0  0  0  0  0  0  0  0  0  0
   11.5993    3.2641   -2.4129 C   0  0  0  0  0  0  0  0  0  0  0  0
   12.6833    3.4750   -1.5858 C   0  0  0  0  0  0  0  0  0  0  0  0
   12.5018    3.3225   -0.2203 C   0  0  0  0  0  0  0  0  0  0  0  0
   11.2877    2.9707    0.3355 C   0  0  0  0  0  0  0  0  0  0  0  0
    0.9251   -2.2367    2.0228 C   0  0  0  0  0  0  0  0  0  0  0  0
    1.3701   -3.5734    1.6224 C   0  0  0  0  0  0  0  0  0  0  0  0
    0.5851   -4.3294    0.6189 C   0  0  0  0  0  0  0  0  0  0  0  0
    1.1599   -5.6623    0.3746 N   0  0  0  0  0  0  0  0  0  0  0  0
    0.7890   -6.7202    0.9744 C   0  0  0  0  0  0  0  0  0  0  0  0
    1.4539   -7.9417    0.6177 N   0  0  0  0  0  0  0  0  0  0  0  0
   -0.2284   -6.7750    1.9629 N   0  0  0  0  0  0  0  0  0  0  0  0
   -3.5388   -0.0092   -0.7791 N   0  0  0  0  0  0  0  0  0  0  0  0
   -4.0306    1.1294   -1.4475 C   0  0  0  0  0  0  0  0  0  0  0  0
   -3.3615    1.6194   -2.3976 O   0  0  0  0  0  0  0  0  0  0  0  0
   -5.3185    1.7338   -1.0296 C   0  0  2  0  0  0  0  0  0  0  0  0
   -5.2206    3.2019   -0.7309 C   0  0  0  0  0  0  0  0  0  0  0  0
   -6.5066    3.7972   -0.3177 C   0  0  0  0  0  0  0  0  0  0  0  0
   -7.3430    4.5003   -1.1920 C   0  0  0  0  0  0  0  0  0  0  0  0
   -8.4537    4.8915   -0.5151 N   0  0  0  0  0  0  0  0  0  0  0  0
   -8.3692    4.4701    0.7632 C   0  0  0  0  0  0  0  0  0  0  0  0
   -7.1726    3.8005    0.8770 C   0  0  0  0  0  0  0  0  0  0  0  0
   -6.8578    3.2787    2.1103 C   0  0  0  0  0  0  0  0  0  0  0  0
   -7.6922    3.4152    3.1750 C   0  0  0  0  0  0  0  0  0  0  0  0
   -8.9025    4.0810    3.0954 C   0  0  0  0  0  0  0  0  0  0  0  0
   -9.2283    4.6139    1.8475 C   0  0  0  0  0  0  0  0  0  0  0  0
   -5.9523    1.0297    0.0558 N   0  0  0  0  0  0  0  0  0  0  0  0
   -7.2884    0.5537   -0.1114 C   0  0  0  0  0  0  0  0  0  0  0  0
   -7.9356    0.7326   -1.1917 O   0  0  0  0  0  0  0  0  0  0  0  0
   -8.0060   -0.1858    0.9809 C   0  0  0  0  0  0  0  0  0  0  0  0
   -3.6166   -2.8005   -5.7651 H   0  0  0  0  0  0  0  0  0  0  0  0
   -2.0337   -2.4850   -3.9046 H   0  0  0  0  0  0  0  0  0  0  0  0
   -5.2678   -2.2733   -1.1284 H   0  0  0  0  0  0  0  0  0  0  0  0
   -6.8843   -2.5840   -2.9405 H   0  0  0  0  0  0  0  0  0  0  0  0
   -1.6452   -2.7144   -1.4966 H   0  0  0  0  0  0  0  0  0  0  0  0
   -3.0997   -2.5271   -0.3664 H   0  0  0  0  0  0  0  0  0  0  0  0
   -1.7823   -0.2315   -1.9370 H   0  0  0  0  0  0  0  0  0  0  0  0
    0.0834   -1.7643   -0.9314 H   0  0  0  0  0  0  0  0  0  0  0  0
    0.4735   -0.2342    1.6942 H   0  0  0  0  0  0  0  0  0  0  0  0
    3.2111   -0.6149    2.3880 H   0  0  0  0  0  0  0  0  0  0  0  0
    4.4108    0.0283   -0.2851 H   0  0  0  0  0  0  0  0  0  0  0  0
    7.5384   -1.6520    1.2262 H   0  0  0  0  0  0  0  0  0  0  0  0
    7.0892   -0.9077   -0.3915 H   0  0  0  0  0  0  0  0  0  0  0  0
    5.1600    1.1211    2.5067 H   0  0  0  0  0  0  0  0  0  0  0  0
    4.3404    2.0067    1.1273 H   0  0  0  0  0  0  0  0  0  0  0  0
    7.5442    0.6533    2.4411 H   0  0  0  0  0  0  0  0  0  0  0  0
    9.6954    1.3396    1.5704 H   0  0  0  0  0  0  0  0  0  0  0  0
    7.8550    3.3694   -1.6211 H   0  0  0  0  0  0  0  0  0  0  0  0
    5.5904    2.6755   -0.7567 H   0  0  0  0  0  0  0  0  0  0  0  0
    9.5394    2.7541   -2.5902 H   0  0  0  0  0  0  0  0  0  0  0  0
   11.7863    3.3949   -3.4864 H   0  0  0  0  0  0  0  0  0  0  0  0
   13.6600    3.7536   -1.9755 H   0  0  0  0  0  0  0  0  0  0  0  0
   13.3201    3.4776    0.4635 H   0  0  0  0  0  0  0  0  0  0  0  0
   11.1140    2.8447    1.3867 H   0  0  0  0  0  0  0  0  0  0  0  0
   -0.1112   -2.3488    2.4799 H   0  0  0  0  0  0  0  0  0  0  0  0
    1.5405   -1.8583    2.8856 H   0  0  0  0  0  0  0  0  0  0  0  0
    1.3561   -4.2134    2.5677 H   0  0  0  0  0  0  0  0  0  0  0  0
    2.4524   -3.6180    1.3204 H   0  0  0  0  0  0  0  0  0  0  0  0
    0.6078   -3.8637   -0.3895 H   0  0  0  0  0  0  0  0  0  0  0  0
   -0.4658   -4.4970    0.9487 H   0  0  0  0  0  0  0  0  0  0  0  0
    2.0793   -8.4355    1.3037 H   0  0  0  0  0  0  0  0  0  0  0  0
    1.2824   -8.3057   -0.3484 H   0  0  0  0  0  0  0  0  0  0  0  0
    0.0352   -6.9435    2.9515 H   0  0  0  0  0  0  0  0  0  0  0  0
   -1.2085   -6.6393    1.6299 H   0  0  0  0  0  0  0  0  0  0  0  0
   -4.1249   -0.3913    0.0135 H   0  0  0  0  0  0  0  0  0  0  0  0
   -6.0525    1.6574   -1.8903 H   0  0  0  0  0  0  0  0  0  0  0  0
   -4.8082    3.7718   -1.5946 H   0  0  0  0  0  0  0  0  0  0  0  0
   -4.4538    3.3319    0.0866 H   0  0  0  0  0  0  0  0  0  0  0  0
   -7.1400    4.7014   -2.2403 H   0  0  0  0  0  0  0  0  0  0  0  0
   -9.2629    5.4420   -0.9228 H   0  0  0  0  0  0  0  0  0  0  0  0
   -5.9239    2.7594    2.2345 H   0  0  0  0  0  0  0  0  0  0  0  0
   -7.4163    2.9928    4.1324 H   0  0  0  0  0  0  0  0  0  0  0  0
   -9.5554    4.1850    3.9364 H   0  0  0  0  0  0  0  0  0  0  0  0
  -10.1723    5.1336    1.7850 H   0  0  0  0  0  0  0  0  0  0  0  0
   -5.5074    0.8233    0.9744 H   0  0  0  0  0  0  0  0  0  0  0  0
   -7.6506    0.1203    1.9804 H   0  0  0  0  0  0  0  0  0  0  0  0
   -9.1037    0.0020    0.8986 H   0  0  0  0  0  0  0  0  0  0  0  0
   -7.8827   -1.2843    0.8908 H   0  0  0  0  0  0  0  0  0  0  0  0
  1  2  1  0
  2  3  2  0
  3  4  1  0
  4  5  2  0
  5  6  1  0
  6  7  2  0
  5  8  1  0
  8  9  1  0
  9 10  1  0
 10 11  2  0
 10 12  1  0
 12 13  1  0
 13 14  1  0
 14 15  2  0
 14 16  1  0
 16 17  1  0
 17 18  1  0
 18 19  2  0
 18 20  1  0
 17 21  1  0
 21 22  1  0
 22 23  2  0
 23 24  1  0
 24 25  2  0
 25 26  1  0
 26 27  2  0
 25 28  1  0
 28 29  2  0
 29 30  1  0
 30 31  2  0
 31 32  1  0
 32 33  2  0
 13 34  1  0
 34 35  1  0
 35 36  1  0
 36 37  1  0
 37 38  2  3
 38 39  1  0
 38 40  1  0
  9 41  1  0
 41 42  1  0
 42 43  2  0
 42 44  1  0
 44 45  1  0
 45 46  1  0
 46 47  2  0
 47 48  1  0
 48 49  1  0
 49 50  2  0
 50 51  1  0
 51 52  2  0
 52 53  1  0
 53 54  2  0
 44 55  1  0
 55 56  1  0
 56 57  2  0
 56 58  1  0
  7  2  1  0
 27 22  1  0
 33 28  1  0
 50 46  1  0
 54 49  1  0
  3 59  1  0
  4 60  1  0
  6 61  1  0
  7 62  1  0
  8 63  1  0
  8 64  1  0
  9 65  1  6
 12 66  1  0
 13 67  1  1
 16 68  1  0
 17 69  1  6
 20 70  1  0
 20 71  1  0
 21 72  1  0
 21 73  1  0
 23 74  1  0
 24 75  1  0
 26 76  1  0
 27 77  1  0
 29 78  1  0
 30 79  1  0
 31 80  1  0
 32 81  1  0
 33 82  1  0
 34 83  1  0
 34 84  1  0
 35 85  1  0
 35 86  1  0
 36 87  1  0
 36 88  1  0
 39 89  1  0
 39 90  1  0
 40 91  1  0
 40 92  1  0
 41 93  1  0
 44 94  1  6
 45 95  1  0
 45 96  1  0
 47 97  1  0
 48 98  1  0
 51 99  1  0
 52100  1  0
 53101  1  0
 54102  1  0
 55103  1  0
 58104  1  0
 58105  1  0
 58106  1  0
M  END
>  <Ligand ID>  (1) 
LIG0001447

>  <Ligand>  (1) 
CHEMBL3422428

>  <SMILES>  (1) 
Ic1ccc(cc1)C[C@H](C(=O)N[C@H](C(=O)N[C@H](C(=O)N)Cc1ccc(cc1)c1ccccc1)CCCN=C(N)N)NC(=O)[C@H](Cc1c[nH]c2c1cccc2)NC(=O)C

>  <CID>  (1) 
118735605.0

>  <ChEMBL ID>  (1) 
nan

>  <InChiKey>  (1) 
NXFNNHLGYYKVIN-DYLMPHRMSA-N

>  <InChi>  (1) 
InChI=1S/C43H48IN9O5/c1-26(54)50-38(24-31-25-49-34-11-6-5-10-33(31)34)42(58)53-37(23-28-15-19-32(44)20-16-28)41(57)51-35(12-7-21-48-43(46)47)40(56)52-36(39(45)55)22-27-13-17-30(18-14-27)29-8-3-2-4-9-29/h2-6,8-11,13-20,25,35-38,49H,7,12,21-24H2,1H3,(H2,45,55)(H,50,54)(H,51,57)(H,52,56)(H,53,58)(H4,46,47,48)/t35-,36-,37+,38-/m0/s1

>  <IUPAC Name>  (1) 
(2S)-2-[[(2R)-2-[[(2S)-2-acetamido-3-(1H-indol-3-yl)propanoyl]amino]-3-(4-iodophenyl)propanoyl]amino]-N-[(2S)-1-amino-1-oxo-3-(4-phenylphenyl)propan-2-yl]-5-(diaminomethylideneamino)pentanamide

$$$$
