
     RDKit          3D

211219  0  0  0  0  0  0  0  0999 V2000
    5.9628    5.4838    3.1173 N   0  0  0  0  0  0  0  0  0  0  0  0
    4.9721    5.9510    2.1801 C   0  0  0  0  0  0  0  0  0  0  0  0
    4.1255    6.8437    2.5139 O   0  0  0  0  0  0  0  0  0  0  0  0
    4.9953    5.3490    0.8396 C   0  0  0  0  0  0  0  0  0  0  0  0
    4.7018    3.8782    0.8319 C   0  0  2  0  0  0  0  0  0  0  0  0
    4.7752    3.3903   -0.5567 N   0  0  0  0  0  0  0  0  0  0  0  0
    5.9312    2.6564   -0.9270 C   0  0  0  0  0  0  0  0  0  0  0  0
    6.7425    2.3949    0.0031 O   0  0  0  0  0  0  0  0  0  0  0  0
    6.0843    2.2661   -2.3294 C   0  0  1  0  0  0  0  0  0  0  0  0
    7.2759    3.1013   -2.9152 C   0  0  0  0  0  0  0  0  0  0  0  0
    8.5475    2.9716   -2.2796 C   0  0  0  0  0  0  0  0  0  0  0  0
    9.5357    2.0230   -2.6033 C   0  0  0  0  0  0  0  0  0  0  0  0
   10.7390    1.9750   -1.9292 C   0  0  0  0  0  0  0  0  0  0  0  0
   10.9789    2.8806   -0.9163 C   0  0  0  0  0  0  0  0  0  0  0  0
   10.0517    3.8312   -0.5565 C   0  0  0  0  0  0  0  0  0  0  0  0
    8.8667    3.8457   -1.2489 C   0  0  0  0  0  0  0  0  0  0  0  0
   10.2396    4.7574    0.4405 C   0  0  0  0  0  0  0  0  0  0  0  0
   11.4565    4.7141    1.1281 C   0  0  0  0  0  0  0  0  0  0  0  0
   12.3907    3.7689    0.7772 C   0  0  0  0  0  0  0  0  0  0  0  0
   12.1808    2.8337   -0.2447 C   0  0  0  0  0  0  0  0  0  0  0  0
    6.2221    0.9254   -2.6947 N   0  0  0  0  0  0  0  0  0  0  0  0
    7.0385    0.1322   -1.6540 C   0  0  0  0  0  0  0  0  0  0  0  0
    5.9968   -0.5148   -0.6997 C   0  0  2  0  0  0  0  0  0  0  0  0
    6.8134   -1.0563    0.4303 C   0  0  0  0  0  0  0  0  0  0  0  0
    7.8626   -2.0430    0.0662 C   0  0  0  0  0  0  0  0  0  0  0  0
    8.5809   -2.4525    1.3422 C   0  0  0  0  0  0  0  0  0  0  0  0
    9.6615   -3.3717    1.1127 N   0  0  0  0  0  0  0  0  0  0  0  0
   10.5920   -3.5925    1.9825 C   0  0  0  0  0  0  0  0  0  0  0  0
   10.4846   -2.8669    3.2049 N   0  0  0  0  0  0  0  0  0  0  0  0
   11.6716   -4.4841    1.7817 N   0  0  0  0  0  0  0  0  0  0  0  0
    5.3877   -1.5891   -1.4887 N   0  0  0  0  0  0  0  0  0  0  0  0
    4.0224   -1.6731   -1.8530 C   0  0  0  0  0  0  0  0  0  0  0  0
    3.2337   -0.8682   -1.3070 O   0  0  0  0  0  0  0  0  0  0  0  0
    3.5415   -2.7095   -2.8490 C   0  0  1  0  0  0  0  0  0  0  0  0
    4.5407   -2.9746   -3.8783 C   0  0  0  0  0  0  0  0  0  0  0  0
    4.6518   -1.7594   -5.2137 S   0  0  0  0  0  0  0  0  0  0  0  0
    4.6096   -0.0325   -4.5981 C   0  0  0  0  0  0  0  0  0  0  0  0
    5.6978    0.0901   -3.6589 C   0  0  0  0  0  0  0  0  0  0  0  0
    6.5046   -0.9431   -3.7313 O   0  0  0  0  0  0  0  0  0  0  0  0
    2.7421   -3.7674   -2.3664 N   0  0  0  0  0  0  0  0  0  0  0  0
    1.4202   -3.5710   -2.0060 C   0  0  0  0  0  0  0  0  0  0  0  0
    0.9291   -2.3978   -1.9992 O   0  0  0  0  0  0  0  0  0  0  0  0
    0.4643   -4.6873   -1.5881 C   0  0  1  0  0  0  0  0  0  0  0  0
    1.1325   -5.7766   -0.8620 C   0  0  0  0  0  0  0  0  0  0  0  0
    0.1904   -6.8761   -0.5572 C   0  0  0  0  0  0  0  0  0  0  0  0
   -0.4914   -7.0564    0.6112 C   0  0  0  0  0  0  0  0  0  0  0  0
   -1.3319   -8.1582    0.6760 C   0  0  0  0  0  0  0  0  0  0  0  0
   -1.5194   -9.0566   -0.3320 C   0  0  0  0  0  0  0  0  0  0  0  0
   -0.8321   -8.8738   -1.5069 C   0  0  0  0  0  0  0  0  0  0  0  0
    0.0034   -7.7981   -1.6027 C   0  0  0  0  0  0  0  0  0  0  0  0
   -0.6134   -3.9867   -0.9298 N   0  0  0  0  0  0  0  0  0  0  0  0
   -1.9863   -4.0742   -1.1597 C   0  0  0  0  0  0  0  0  0  0  0  0
   -2.4118   -4.9516   -1.9406 O   0  0  0  0  0  0  0  0  0  0  0  0
   -2.8428   -3.0883   -0.4332 C   0  0  2  0  0  0  0  0  0  0  0  0
   -2.5361   -2.8898    0.9931 C   0  0  0  0  0  0  0  0  0  0  0  0
   -2.6699   -4.0531    1.8749 C   0  0  0  0  0  0  0  0  0  0  0  0
   -3.0527   -5.3166    1.6415 N   0  0  0  0  0  0  0  0  0  0  0  0
   -3.0296   -6.0261    2.7932 C   0  0  0  0  0  0  0  0  0  0  0  0
   -2.6260   -5.2040    3.7683 N   0  0  0  0  0  0  0  0  0  0  0  0
   -2.3985   -3.9924    3.2439 C   0  0  0  0  0  0  0  0  0  0  0  0
   -4.2642   -3.2602   -0.5986 N   0  0  0  0  0  0  0  0  0  0  0  0
   -4.9853   -2.5429   -1.6093 C   0  0  0  0  0  0  0  0  0  0  0  0
   -4.2901   -1.8846   -2.4121 O   0  0  0  0  0  0  0  0  0  0  0  0
   -6.4432   -2.5386   -1.7592 C   0  0  2  0  0  0  0  0  0  0  0  0
   -6.9511   -1.1495   -1.3388 C   0  0  0  0  0  0  0  0  0  0  0  0
   -6.1699    0.2133   -2.2029 S   0  0  0  0  0  0  0  0  0  0  0  0
   -4.1899    0.5570   -1.6157 S   0  0  0  0  0  0  0  0  0  0  0  0
   -3.9077    1.6948   -0.3290 C   0  0  0  0  0  0  0  0  0  0  0  0
   -3.8943    3.1803   -0.6218 C   0  0  2  0  0  0  0  0  0  0  0  0
   -3.6592    3.7788    0.7346 N   0  0  0  0  0  0  0  0  0  0  0  0
   -2.3938    3.6797    1.3139 C   0  0  0  0  0  0  0  0  0  0  0  0
   -1.4185    3.1142    0.7118 O   0  0  0  0  0  0  0  0  0  0  0  0
   -2.0687    4.2186    2.6928 C   0  0  1  0  0  0  0  0  0  0  0  0
   -0.7961    3.6437    3.1035 N   0  0  0  0  0  0  0  0  0  0  0  0
    0.4636    4.0617    2.6130 C   0  0  0  0  0  0  0  0  0  0  0  0
    0.5813    5.0092    1.8153 O   0  0  0  0  0  0  0  0  0  0  0  0
    1.6528    3.2726    3.1276 C   0  0  1  0  0  0  0  0  0  0  0  0
    2.9060    3.8072    2.6701 N   0  0  0  0  0  0  0  0  0  0  0  0
    3.4359    3.4609    1.4069 C   0  0  0  0  0  0  0  0  0  0  0  0
    2.7002    2.6858    0.6931 O   0  0  0  0  0  0  0  0  0  0  0  0
    1.5503    3.1697    4.5918 C   0  0  0  0  0  0  0  0  0  0  0  0
   -2.1548    5.6965    2.7748 C   0  0  0  0  0  0  0  0  0  0  0  0
   -1.8595    6.2411    4.1154 C   0  0  0  0  0  0  0  0  0  0  0  0
   -2.9228    6.3383    5.0063 C   0  0  0  0  0  0  0  0  0  0  0  0
   -2.7412    6.8487    6.3022 C   0  0  0  0  0  0  0  0  0  0  0  0
   -1.5032    7.2690    6.7262 C   0  0  0  0  0  0  0  0  0  0  0  0
   -0.4620    7.1727    5.8416 C   0  0  0  0  0  0  0  0  0  0  0  0
   -0.6446    6.6674    4.5641 C   0  0  0  0  0  0  0  0  0  0  0  0
   -5.0407    3.8042   -1.2206 C   0  0  0  0  0  0  0  0  0  0  0  0
   -5.6123    4.7463   -0.5638 O   0  0  0  0  0  0  0  0  0  0  0  0
   -5.6400    3.5105   -2.4724 N   0  0  0  0  0  0  0  0  0  0  0  0
   -6.8057    4.3292   -2.8274 C   0  0  2  0  0  0  0  0  0  0  0  0
   -8.0030    3.8395   -2.0556 C   0  0  0  0  0  0  0  0  0  0  0  0
   -7.9117    2.8371   -1.3458 O   0  0  0  0  0  0  0  0  0  0  0  0
   -9.2478    4.5166   -2.1221 N   0  0  0  0  0  0  0  0  0  0  0  0
   -7.0988    4.2934   -4.2779 C   0  0  0  0  0  0  0  0  0  0  0  0
   -8.2519    5.1022   -4.7314 C   0  0  0  0  0  0  0  0  0  0  0  0
   -7.9875    6.4438   -5.0322 C   0  0  0  0  0  0  0  0  0  0  0  0
   -9.0321    7.2467   -5.4721 C   0  0  0  0  0  0  0  0  0  0  0  0
  -10.3155    6.7687   -5.6228 C   0  0  0  0  0  0  0  0  0  0  0  0
  -10.5802    5.4436   -5.3289 C   0  0  0  0  0  0  0  0  0  0  0  0
   -9.5339    4.6309   -4.8854 C   0  0  0  0  0  0  0  0  0  0  0  0
  -11.3054    7.6242   -6.0640 O   0  0  0  0  0  0  0  0  0  0  0  0
   -6.9913   -3.4332   -0.7235 N   0  0  0  0  0  0  0  0  0  0  0  0
   -7.9668   -4.4092   -0.9674 C   0  0  0  0  0  0  0  0  0  0  0  0
   -8.5000   -4.6367   -2.0783 O   0  0  0  0  0  0  0  0  0  0  0  0
   -8.4088   -5.2488    0.1904 C   0  0  2  0  0  0  0  0  0  0  0  0
   -7.3305   -6.2502    0.5633 C   0  0  0  0  0  0  0  0  0  0  0  0
   -7.8461   -7.0318    1.7080 C   0  0  0  0  0  0  0  0  0  0  0  0
   -7.5821   -6.5995    2.9971 C   0  0  0  0  0  0  0  0  0  0  0  0
   -8.0466   -7.2925    4.1082 C   0  0  0  0  0  0  0  0  0  0  0  0
   -8.7971   -8.4502    3.9315 C   0  0  0  0  0  0  0  0  0  0  0  0
   -9.0703   -8.8949    2.6497 C   0  0  0  0  0  0  0  0  0  0  0  0
   -8.5962   -8.1885    1.5678 C   0  0  0  0  0  0  0  0  0  0  0  0
   -9.2776   -9.1642    5.0438 O   0  0  0  0  0  0  0  0  0  0  0  0
   -9.5596   -6.0581   -0.1802 N   0  0  0  0  0  0  0  0  0  0  0  0
    6.9866    5.6249    2.9440 H   0  0  0  0  0  0  0  0  0  0  0  0
    5.6918    4.9912    3.9854 H   0  0  0  0  0  0  0  0  0  0  0  0
    4.2901    5.9243    0.1813 H   0  0  0  0  0  0  0  0  0  0  0  0
    6.0590    5.4977    0.4667 H   0  0  0  0  0  0  0  0  0  0  0  0
    5.5175    3.4123    1.4366 H   0  0  0  0  0  0  0  0  0  0  0  0
    3.9761    3.6027   -1.1912 H   0  0  0  0  0  0  0  0  0  0  0  0
    5.2859    2.7912   -2.8919 H   0  0  0  0  0  0  0  0  0  0  0  0
    7.3145    2.7543   -3.9605 H   0  0  0  0  0  0  0  0  0  0  0  0
    6.9303    4.1308   -2.9027 H   0  0  0  0  0  0  0  0  0  0  0  0
    9.3149    1.3237   -3.4112 H   0  0  0  0  0  0  0  0  0  0  0  0
   11.4457    1.2169   -2.2336 H   0  0  0  0  0  0  0  0  0  0  0  0
    8.1326    4.5850   -0.9704 H   0  0  0  0  0  0  0  0  0  0  0  0
    9.4877    5.5066    0.7146 H   0  0  0  0  0  0  0  0  0  0  0  0
   11.5784    5.4448    1.9058 H   0  0  0  0  0  0  0  0  0  0  0  0
   13.3191    3.7763    1.3389 H   0  0  0  0  0  0  0  0  0  0  0  0
   12.9327    2.1100   -0.4965 H   0  0  0  0  0  0  0  0  0  0  0  0
    7.6448    0.7565   -1.0424 H   0  0  0  0  0  0  0  0  0  0  0  0
    7.6864   -0.5920   -2.1332 H   0  0  0  0  0  0  0  0  0  0  0  0
    5.2941    0.2475   -0.4213 H   0  0  0  0  0  0  0  0  0  0  0  0
    7.3320   -0.2200    0.9712 H   0  0  0  0  0  0  0  0  0  0  0  0
    6.1604   -1.5057    1.2336 H   0  0  0  0  0  0  0  0  0  0  0  0
    8.6308   -1.5818   -0.5928 H   0  0  0  0  0  0  0  0  0  0  0  0
    7.4536   -2.9707   -0.3581 H   0  0  0  0  0  0  0  0  0  0  0  0
    8.8706   -1.5846    1.9506 H   0  0  0  0  0  0  0  0  0  0  0  0
    7.8133   -3.0048    1.9586 H   0  0  0  0  0  0  0  0  0  0  0  0
   10.6400   -1.8545    3.3172 H   0  0  0  0  0  0  0  0  0  0  0  0
   10.2155   -3.4069    4.0491 H   0  0  0  0  0  0  0  0  0  0  0  0
   12.1057   -4.6061    0.8532 H   0  0  0  0  0  0  0  0  0  0  0  0
   12.0337   -5.0238    2.5857 H   0  0  0  0  0  0  0  0  0  0  0  0
    6.0561   -2.3715   -1.7386 H   0  0  0  0  0  0  0  0  0  0  0  0
    2.7163   -2.0716   -3.4417 H   0  0  0  0  0  0  0  0  0  0  0  0
    5.5721   -3.2020   -3.4940 H   0  0  0  0  0  0  0  0  0  0  0  0
    4.2551   -3.9467   -4.3864 H   0  0  0  0  0  0  0  0  0  0  0  0
    4.8518    0.5661   -5.5287 H   0  0  0  0  0  0  0  0  0  0  0  0
    3.5987    0.2511   -4.3129 H   0  0  0  0  0  0  0  0  0  0  0  0
    3.1545   -4.7229   -2.2799 H   0  0  0  0  0  0  0  0  0  0  0  0
    0.0635   -5.1176   -2.5309 H   0  0  0  0  0  0  0  0  0  0  0  0
    1.9256   -6.2002   -1.5397 H   0  0  0  0  0  0  0  0  0  0  0  0
    1.5989   -5.4523    0.1052 H   0  0  0  0  0  0  0  0  0  0  0  0
   -0.3540   -6.3547    1.4064 H   0  0  0  0  0  0  0  0  0  0  0  0
   -1.8890   -8.3473    1.5970 H   0  0  0  0  0  0  0  0  0  0  0  0
   -2.1728   -9.9190   -0.2791 H   0  0  0  0  0  0  0  0  0  0  0  0
   -0.9403   -9.5648   -2.3524 H   0  0  0  0  0  0  0  0  0  0  0  0
    0.5332   -7.6789   -2.5554 H   0  0  0  0  0  0  0  0  0  0  0  0
   -0.2584   -3.3179   -0.1582 H   0  0  0  0  0  0  0  0  0  0  0  0
   -2.6484   -2.0607   -0.9265 H   0  0  0  0  0  0  0  0  0  0  0  0
   -1.4961   -2.4889    1.1659 H   0  0  0  0  0  0  0  0  0  0  0  0
   -3.2315   -2.1043    1.3711 H   0  0  0  0  0  0  0  0  0  0  0  0
   -3.3275   -5.6943    0.7236 H   0  0  0  0  0  0  0  0  0  0  0  0
   -3.2825   -7.0588    2.9686 H   0  0  0  0  0  0  0  0  0  0  0  0
   -2.0630   -3.1523    3.8329 H   0  0  0  0  0  0  0  0  0  0  0  0
   -4.7407   -3.9283    0.0398 H   0  0  0  0  0  0  0  0  0  0  0  0
   -6.8064   -2.7979   -2.7502 H   0  0  0  0  0  0  0  0  0  0  0  0
   -6.7457   -1.0742   -0.2326 H   0  0  0  0  0  0  0  0  0  0  0  0
   -8.0669   -1.1199   -1.4646 H   0  0  0  0  0  0  0  0  0  0  0  0
   -2.9488    1.4370    0.2446 H   0  0  0  0  0  0  0  0  0  0  0  0
   -4.6809    1.5044    0.5011 H   0  0  0  0  0  0  0  0  0  0  0  0
   -2.9525    3.3710   -1.2278 H   0  0  0  0  0  0  0  0  0  0  0  0
   -4.4517    4.2641    1.2156 H   0  0  0  0  0  0  0  0  0  0  0  0
   -2.8511    3.8103    3.3613 H   0  0  0  0  0  0  0  0  0  0  0  0
   -0.8512    2.8703    3.8217 H   0  0  0  0  0  0  0  0  0  0  0  0
    1.5216    2.2650    2.6226 H   0  0  0  0  0  0  0  0  0  0  0  0
    3.3951    4.4541    3.3528 H   0  0  0  0  0  0  0  0  0  0  0  0
    2.5178    3.2276    5.1365 H   0  0  0  0  0  0  0  0  0  0  0  0
    1.0015    2.2521    4.9002 H   0  0  0  0  0  0  0  0  0  0  0  0
    0.9037    4.0120    4.9802 H   0  0  0  0  0  0  0  0  0  0  0  0
   -1.4657    6.2211    2.0748 H   0  0  0  0  0  0  0  0  0  0  0  0
   -3.2097    6.0163    2.5250 H   0  0  0  0  0  0  0  0  0  0  0  0
   -3.9221    6.0384    4.7617 H   0  0  0  0  0  0  0  0  0  0  0  0
   -3.5923    6.9141    6.9644 H   0  0  0  0  0  0  0  0  0  0  0  0
   -1.3041    7.6593    7.7112 H   0  0  0  0  0  0  0  0  0  0  0  0
    0.5252    7.5027    6.1697 H   0  0  0  0  0  0  0  0  0  0  0  0
    0.2061    6.6322    3.9318 H   0  0  0  0  0  0  0  0  0  0  0  0
   -5.2394    2.7828   -3.0580 H   0  0  0  0  0  0  0  0  0  0  0  0
   -6.6439    5.3491   -2.4323 H   0  0  0  0  0  0  0  0  0  0  0  0
  -10.1732    4.0427   -2.1159 H   0  0  0  0  0  0  0  0  0  0  0  0
   -9.2038    5.5780   -2.1809 H   0  0  0  0  0  0  0  0  0  0  0  0
   -7.2969    3.2429   -4.6457 H   0  0  0  0  0  0  0  0  0  0  0  0
   -6.2081    4.6235   -4.8812 H   0  0  0  0  0  0  0  0  0  0  0  0
   -6.9865    6.8498   -4.9210 H   0  0  0  0  0  0  0  0  0  0  0  0
   -8.7580    8.2796   -5.6821 H   0  0  0  0  0  0  0  0  0  0  0  0
  -11.5776    5.0814   -5.4488 H   0  0  0  0  0  0  0  0  0  0  0  0
   -9.7476    3.5855   -4.6546 H   0  0  0  0  0  0  0  0  0  0  0  0
  -11.8796    8.2192   -5.4882 H   0  0  0  0  0  0  0  0  0  0  0  0
   -6.6200   -3.2968    0.2440 H   0  0  0  0  0  0  0  0  0  0  0  0
   -8.6648   -4.6743    1.0836 H   0  0  0  0  0  0  0  0  0  0  0  0
   -7.0916   -6.9116   -0.2961 H   0  0  0  0  0  0  0  0  0  0  0  0
   -6.4002   -5.7383    0.8751 H   0  0  0  0  0  0  0  0  0  0  0  0
   -6.9903   -5.6849    3.1334 H   0  0  0  0  0  0  0  0  0  0  0  0
   -7.8488   -6.9706    5.1130 H   0  0  0  0  0  0  0  0  0  0  0  0
   -9.6572   -9.8076    2.4632 H   0  0  0  0  0  0  0  0  0  0  0  0
   -8.8173   -8.5546    0.5815 H   0  0  0  0  0  0  0  0  0  0  0  0
   -9.6464   -8.5940    5.8156 H   0  0  0  0  0  0  0  0  0  0  0  0
  -10.1211   -6.2309    0.6813 H   0  0  0  0  0  0  0  0  0  0  0  0
  -10.1533   -5.4536   -0.8014 H   0  0  0  0  0  0  0  0  0  0  0  0
  1  2  1  0
  2  3  2  0
  2  4  1  0
  4  5  1  0
  5  6  1  0
  6  7  1  0
  7  8  2  0
  7  9  1  0
  9 10  1  0
 10 11  1  0
 11 12  2  0
 12 13  1  0
 13 14  2  0
 14 15  1  0
 15 16  2  0
 15 17  1  0
 17 18  2  0
 18 19  1  0
 19 20  2  0
  9 21  1  0
 21 22  1  0
 22 23  1  0
 23 24  1  0
 24 25  1  0
 25 26  1  0
 26 27  1  0
 27 28  2  3
 28 29  1  0
 28 30  1  0
 23 31  1  0
 31 32  1  0
 32 33  2  0
 32 34  1  0
 34 35  1  0
 35 36  1  0
 36 37  1  0
 37 38  1  0
 38 39  2  0
 34 40  1  0
 40 41  1  0
 41 42  2  0
 41 43  1  0
 43 44  1  0
 44 45  1  0
 45 46  2  0
 46 47  1  0
 47 48  2  0
 48 49  1  0
 49 50  2  0
 43 51  1  0
 51 52  1  0
 52 53  2  0
 52 54  1  0
 54 55  1  0
 55 56  1  0
 56 57  1  0
 57 58  1  0
 58 59  2  0
 59 60  1  0
 54 61  1  0
 61 62  1  0
 62 63  2  0
 62 64  1  0
 64 65  1  0
 65 66  1  0
 66 67  1  0
 67 68  1  0
 68 69  1  0
 69 70  1  0
 70 71  1  0
 71 72  2  0
 71 73  1  0
 73 74  1  0
 74 75  1  0
 75 76  2  0
 75 77  1  0
 77 78  1  0
 78 79  1  0
 79 80  2  0
 77 81  1  0
 73 82  1  0
 82 83  1  0
 83 84  2  0
 84 85  1  0
 85 86  2  0
 86 87  1  0
 87 88  2  0
 69 89  1  0
 89 90  2  0
 89 91  1  0
 91 92  1  0
 92 93  1  0
 93 94  2  0
 93 95  1  0
 92 96  1  0
 96 97  1  0
 97 98  2  0
 98 99  1  0
 99100  2  0
100101  1  0
101102  2  0
100103  1  0
 64104  1  0
104105  1  0
105106  2  0
105107  1  0
107108  1  0
108109  1  0
109110  2  0
110111  1  0
111112  2  0
112113  1  0
113114  2  0
112115  1  0
107116  1  0
 79  5  1  0
 88 83  1  0
102 97  1  0
114109  1  0
 16 11  1  0
 38 21  1  0
 50 45  1  0
 60 56  2  0
 20 14  1  0
  1117  1  0
  1118  1  0
  4119  1  0
  4120  1  0
  5121  1  1
  6122  1  0
  9123  1  6
 10124  1  0
 10125  1  0
 12126  1  0
 13127  1  0
 16128  1  0
 17129  1  0
 18130  1  0
 19131  1  0
 20132  1  0
 22133  1  0
 22134  1  0
 23135  1  1
 24136  1  0
 24137  1  0
 25138  1  0
 25139  1  0
 26140  1  0
 26141  1  0
 29142  1  0
 29143  1  0
 30144  1  0
 30145  1  0
 31146  1  0
 34147  1  6
 35148  1  0
 35149  1  0
 37150  1  0
 37151  1  0
 40152  1  0
 43153  1  6
 44154  1  0
 44155  1  0
 46156  1  0
 47157  1  0
 48158  1  0
 49159  1  0
 50160  1  0
 51161  1  0
 54162  1  6
 55163  1  0
 55164  1  0
 57165  1  0
 58166  1  0
 60167  1  0
 61168  1  0
 64169  1  6
 65170  1  0
 65171  1  0
 68172  1  0
 68173  1  0
 69174  1  6
 70175  1  0
 73176  1  1
 74177  1  0
 77178  1  6
 78179  1  0
 81180  1  0
 81181  1  0
 81182  1  0
 82183  1  0
 82184  1  0
 84185  1  0
 85186  1  0
 86187  1  0
 87188  1  0
 88189  1  0
 91190  1  0
 92191  1  1
 95192  1  0
 95193  1  0
 96194  1  0
 96195  1  0
 98196  1  0
 99197  1  0
101198  1  0
102199  1  0
103200  1  0
104201  1  0
107202  1  1
108203  1  0
108204  1  0
110205  1  0
111206  1  0
113207  1  0
114208  1  0
115209  1  0
116210  1  0
116211  1  0
M  END
>  <Ligand ID>  (1) 
LIG0001139

>  <Ligand>  (1) 
BDBM50427680

>  <SMILES>  (1) 
NC(=O)C[C@@H]1NC(=O)[C@@H](Cc2ccc3c(c2)cccc3)N2C[C@H](CCCN=C(N)N)NC(=O)[C@@H](CSCC2=O)NC(=O)[C@@H](Cc2ccccc2)NC(=O)[C@H](Cc2[nH]cnc2)NC(=O)[C@H](CSSC[C@H](NC(=O)[C@@H](NC(=O)[C@@H](NC1=O)C)Cc1ccccc1)C(=O)N[C@H](C(=O)N)Cc1ccc(cc1)O)NC(=O)[C@H](Cc1ccc(cc1)O)N

>  <CID>  (1) 
91899980.0

>  <ChEMBL ID>  (1) 
nan

>  <InChiKey>  (1) 
KIRVLPVFDKQTQF-BVSPDFHBSA-N

>  <InChi>  (1) 
InChI=1S/C79H95N19O15S3/c1-44-69(104)91-58(32-45-11-4-2-5-12-45)72(107)97-64(76(111)90-57(68(82)103)31-48-21-26-55(100)27-22-48)41-116-115-40-63(95-70(105)56(80)30-47-19-24-54(99)25-20-47)77(112)93-60(35-53-37-85-43-87-53)74(109)92-59(33-46-13-6-3-7-14-46)73(108)96-62-39-114-42-67(102)98(38-52(89-75(62)110)17-10-28-86-79(83)84)65(78(113)94-61(36-66(81)101)71(106)88-44)34-49-18-23-50-15-8-9-16-51(50)29-49/h2-9,11-16,18-27,29,37,43-44,52,56-65,99-100H,10,17,28,30-36,38-42,80H2,1H3,(H2,81,101)(H2,82,103)(H,85,87)(H,88,106)(H,89,110)(H,90,111)(H,91,104)(H,92,109)(H,93,112)(H,94,113)(H,95,105)(H,96,108)(H,97,107)(H4,83,84,86)/t44-,52-,56-,57-,58-,59+,60-,61-,62+,63-,64-,65+/m0/s1

>  <IUPAC Name>  (1) 
(2R,5S,8S,11S,14R,19R,22S,25R,28S,34S)-N-[(2S)-1-amino-3-(4-hydroxyphenyl)-1-oxopropan-2-yl]-19-[[(2S)-2-amino-3-(4-hydroxyphenyl)propanoyl]amino]-5-(2-amino-2-oxoethyl)-11,25-dibenzyl-34-[3-(diaminomethylideneamino)propyl]-22-(1H-imidazol-5-ylmethyl)-8-methyl-2-(naphthalen-2-ylmethyl)-3,6,9,12,20,23,26,32,36-nonaoxo-16,17,30-trithia-1,4,7,10,13,21,24,27,35-nonazabicyclo[26.4.4]hexatriacontane-14-carboxamide

$$$$
