
     RDKit          3D

 57 57  0  0  0  0  0  0  0  0999 V2000
    6.7935   -1.3194    1.8289 C   0  0  0  0  0  0  0  0  0  0  0  0
    5.6800   -0.6384    1.0248 C   0  0  0  0  0  0  0  0  0  0  0  0
    6.1888   -0.3780   -0.3490 C   0  0  0  0  0  0  0  0  0  0  0  0
    5.1842    0.2743   -1.2458 C   0  0  0  0  0  0  0  0  0  0  0  0
    4.7801    1.6015   -0.6702 C   0  0  0  0  0  0  0  0  0  0  0  0
    3.7972    2.2770   -1.5806 C   0  0  0  0  0  0  0  0  0  0  0  0
    2.5764    1.4362   -1.7364 C   0  0  0  0  0  0  0  0  0  0  0  0
    1.9745    1.2201   -0.4611 O   0  0  0  0  0  0  0  0  0  0  0  0
    0.8202    0.4530   -0.4059 C   0  0  0  0  0  0  0  0  0  0  0  0
    0.2906   -0.0733   -1.5627 C   0  0  0  0  0  0  0  0  0  0  0  0
   -0.8546   -0.8348   -1.5077 C   0  0  0  0  0  0  0  0  0  0  0  0
   -1.5312   -1.1169   -0.3366 C   0  0  0  0  0  0  0  0  0  0  0  0
   -0.9661   -0.5664    0.8222 C   0  0  0  0  0  0  0  0  0  0  0  0
    0.1786    0.1975    0.7859 C   0  0  0  0  0  0  0  0  0  0  0  0
   -2.6879   -1.9733   -0.3760 C   0  0  0  0  0  0  0  0  0  0  0  0
   -4.0172   -1.5311   -0.7528 C   0  0  0  0  0  0  0  0  0  0  0  0
   -4.7440   -0.4615   -0.0167 C   0  0  1  0  0  0  0  0  0  0  0  0
   -4.1559    0.8926    0.0067 C   0  0  0  0  0  0  0  0  0  0  0  0
   -4.9145    1.9594    0.7340 C   0  0  0  0  0  0  0  0  0  0  0  0
   -5.1023    1.7199    2.1693 C   0  0  0  0  0  0  0  0  0  0  0  0
   -6.2504    1.9949    2.6644 O   0  0  0  0  0  0  0  0  0  0  0  0
   -4.1377    1.2229    3.0270 O   0  0  0  0  0  0  0  0  0  0  0  0
   -6.0584   -0.3192   -0.6968 N   0  0  0  0  0  0  0  0  0  0  0  0
   -5.0700   -1.0470    1.3499 C   0  0  0  0  0  0  0  0  0  0  0  0
    7.3370   -1.9974    1.1552 H   0  0  0  0  0  0  0  0  0  0  0  0
    7.4826   -0.5193    2.1575 H   0  0  0  0  0  0  0  0  0  0  0  0
    6.3885   -1.8237    2.7195 H   0  0  0  0  0  0  0  0  0  0  0  0
    5.3481    0.2532    1.5741 H   0  0  0  0  0  0  0  0  0  0  0  0
    4.8313   -1.3487    0.9786 H   0  0  0  0  0  0  0  0  0  0  0  0
    6.5415   -1.3214   -0.8391 H   0  0  0  0  0  0  0  0  0  0  0  0
    7.0759    0.3132   -0.3014 H   0  0  0  0  0  0  0  0  0  0  0  0
    5.6192    0.4371   -2.2619 H   0  0  0  0  0  0  0  0  0  0  0  0
    4.2699   -0.3498   -1.3656 H   0  0  0  0  0  0  0  0  0  0  0  0
    4.3332    1.4177    0.3383 H   0  0  0  0  0  0  0  0  0  0  0  0
    5.6911    2.2333   -0.4961 H   0  0  0  0  0  0  0  0  0  0  0  0
    3.5665    3.2712   -1.1354 H   0  0  0  0  0  0  0  0  0  0  0  0
    4.2294    2.4843   -2.5825 H   0  0  0  0  0  0  0  0  0  0  0  0
    2.7602    0.5302   -2.3033 H   0  0  0  0  0  0  0  0  0  0  0  0
    1.8687    2.0420   -2.3790 H   0  0  0  0  0  0  0  0  0  0  0  0
    0.7678    0.1057   -2.5282 H   0  0  0  0  0  0  0  0  0  0  0  0
   -1.2333   -1.2270   -2.4355 H   0  0  0  0  0  0  0  0  0  0  0  0
   -1.4741   -0.7684    1.7681 H   0  0  0  0  0  0  0  0  0  0  0  0
    0.6074    0.6197    1.6993 H   0  0  0  0  0  0  0  0  0  0  0  0
   -2.3848   -2.8885   -1.0021 H   0  0  0  0  0  0  0  0  0  0  0  0
   -2.7903   -2.4793    0.6539 H   0  0  0  0  0  0  0  0  0  0  0  0
   -4.6943   -2.4561   -0.6852 H   0  0  0  0  0  0  0  0  0  0  0  0
   -4.1294   -1.2881   -1.8523 H   0  0  0  0  0  0  0  0  0  0  0  0
   -4.1219    1.2542   -1.0821 H   0  0  0  0  0  0  0  0  0  0  0  0
   -3.1136    0.9910    0.3285 H   0  0  0  0  0  0  0  0  0  0  0  0
   -5.8552    2.2485    0.2191 H   0  0  0  0  0  0  0  0  0  0  0  0
   -4.2743    2.8889    0.6555 H   0  0  0  0  0  0  0  0  0  0  0  0
   -4.4352    0.5442    3.7347 H   0  0  0  0  0  0  0  0  0  0  0  0
   -6.5898   -1.2183   -0.6635 H   0  0  0  0  0  0  0  0  0  0  0  0
   -5.8965   -0.0650   -1.7127 H   0  0  0  0  0  0  0  0  0  0  0  0
   -4.1575   -1.2503    1.9428 H   0  0  0  0  0  0  0  0  0  0  0  0
   -5.8795   -0.5715    1.8804 H   0  0  0  0  0  0  0  0  0  0  0  0
   -5.4622   -2.0887    1.1056 H   0  0  0  0  0  0  0  0  0  0  0  0
  1  2  1  0
  2  3  1  0
  3  4  1  0
  4  5  1  0
  5  6  1  0
  6  7  1  0
  7  8  1  0
  8  9  1  0
  9 10  2  0
 10 11  1  0
 11 12  2  0
 12 13  1  0
 13 14  2  0
 12 15  1  0
 15 16  1  0
 16 17  1  0
 17 18  1  0
 18 19  1  0
 19 20  1  0
 20 21  2  0
 20 22  1  0
 17 23  1  6
 17 24  1  0
 14  9  1  0
  1 25  1  0
  1 26  1  0
  1 27  1  0
  2 28  1  0
  2 29  1  0
  3 30  1  0
  3 31  1  0
  4 32  1  0
  4 33  1  0
  5 34  1  0
  5 35  1  0
  6 36  1  0
  6 37  1  0
  7 38  1  0
  7 39  1  0
 10 40  1  0
 11 41  1  0
 13 42  1  0
 14 43  1  0
 15 44  1  0
 15 45  1  0
 16 46  1  0
 16 47  1  0
 18 48  1  0
 18 49  1  0
 19 50  1  0
 19 51  1  0
 22 52  1  0
 23 53  1  0
 23 54  1  0
 24 55  1  0
 24 56  1  0
 24 57  1  0
M  END
>  <Ligand ID>  (1) 
LIG0004298

>  <Ligand>  (1) 
CHEMBL1077288

>  <SMILES>  (1) 
CCCCCCCOc1ccc(cc1)CC[C@@](CCC(=O)O)(N)C

>  <CID>  (1) 
46881876.0

>  <ChEMBL ID>  (1) 
nan

>  <InChiKey>  (1) 
DGAGMTJLEUOLJC-FQEVSTJZSA-N

>  <InChi>  (1) 
InChI=1S/C20H33NO3/c1-3-4-5-6-7-16-24-18-10-8-17(9-11-18)12-14-20(2,21)15-13-19(22)23/h8-11H,3-7,12-16,21H2,1-2H3,(H,22,23)/t20-/m0/s1

>  <IUPAC Name>  (1) 
(4S)-4-amino-6-(4-heptoxyphenyl)-4-methylhexanoic acid

$$$$
