
     RDKit          3D

 45 48  0  0  0  0  0  0  0  0999 V2000
   -3.4999    0.4617    1.4071 O   0  0  0  0  0  0  0  0  0  0  0  0
   -3.2105   -0.5924    0.7672 C   0  0  0  0  0  0  0  0  0  0  0  0
   -3.8932   -1.8493    1.0871 C   0  0  0  0  0  0  0  0  0  0  0  0
   -3.7220   -3.0933    0.5125 C   0  0  0  0  0  0  0  0  0  0  0  0
   -4.5698   -4.0140    1.1118 C   0  0  0  0  0  0  0  0  0  0  0  0
   -5.2575   -3.2922    2.0638 C   0  0  0  0  0  0  0  0  0  0  0  0
   -4.8475   -2.0097    2.0395 N   0  0  0  0  0  0  0  0  0  0  0  0
   -2.2334   -0.6019   -0.2656 N   0  0  0  0  0  0  0  0  0  0  0  0
   -1.5328    0.5825   -0.6285 C   0  0  0  0  0  0  0  0  0  0  0  0
   -1.9732    1.4431   -1.5816 N   0  0  0  0  0  0  0  0  0  0  0  0
   -1.0996    2.4627   -1.6980 C   0  0  0  0  0  0  0  0  0  0  0  0
   -0.1093    2.1938   -0.7808 C   0  0  0  0  0  0  0  0  0  0  0  0
   -0.3544    1.0504   -0.1177 N   0  0  0  0  0  0  0  0  0  0  0  0
    0.3878    0.3673    0.9001 C   0  0  0  0  0  0  0  0  0  0  0  0
    1.3461   -0.6585    0.4513 C   0  0  0  0  0  0  0  0  0  0  0  0
    2.4119   -0.2878   -0.3989 N   0  0  0  0  0  0  0  0  0  0  0  0
    3.1490   -1.5256   -0.7056 C   0  0  0  0  0  0  0  0  0  0  0  0
    4.2939   -1.5486    0.2908 C   0  0  0  0  0  0  0  0  0  0  0  0
    4.7052   -0.0946    0.2590 C   0  0  0  0  0  0  0  0  0  0  0  0
    3.3698    0.6070    0.1793 C   0  0  0  0  0  0  0  0  0  0  0  0
    0.9245    3.0996   -0.6901 C   0  0  0  0  0  0  0  0  0  0  0  0
    0.9596    4.2241   -1.4872 C   0  0  0  0  0  0  0  0  0  0  0  0
   -0.0489    4.4599   -2.3942 C   0  0  0  0  0  0  0  0  0  0  0  0
   -1.1041    3.5750   -2.5150 C   0  0  0  0  0  0  0  0  0  0  0  0
   -3.0242   -3.2998   -0.2863 H   0  0  0  0  0  0  0  0  0  0  0  0
   -4.6837   -5.0736    0.8957 H   0  0  0  0  0  0  0  0  0  0  0  0
   -6.0068   -3.7601    2.7027 H   0  0  0  0  0  0  0  0  0  0  0  0
   -5.2408   -1.2834    2.6836 H   0  0  0  0  0  0  0  0  0  0  0  0
   -2.0077   -1.4785   -0.7814 H   0  0  0  0  0  0  0  0  0  0  0  0
   -0.3624   -0.1597    1.5555 H   0  0  0  0  0  0  0  0  0  0  0  0
    0.8363    1.1212    1.6092 H   0  0  0  0  0  0  0  0  0  0  0  0
    1.7988   -1.0955    1.3901 H   0  0  0  0  0  0  0  0  0  0  0  0
    0.8073   -1.5141    0.0001 H   0  0  0  0  0  0  0  0  0  0  0  0
    3.5563   -1.5388   -1.7173 H   0  0  0  0  0  0  0  0  0  0  0  0
    2.5375   -2.4312   -0.5108 H   0  0  0  0  0  0  0  0  0  0  0  0
    5.0870   -2.2240   -0.0517 H   0  0  0  0  0  0  0  0  0  0  0  0
    3.9165   -1.8142    1.2983 H   0  0  0  0  0  0  0  0  0  0  0  0
    5.3012    0.2180    1.1392 H   0  0  0  0  0  0  0  0  0  0  0  0
    5.2852    0.0296   -0.6903 H   0  0  0  0  0  0  0  0  0  0  0  0
    3.1015    0.9446    1.1966 H   0  0  0  0  0  0  0  0  0  0  0  0
    3.5248    1.4529   -0.5446 H   0  0  0  0  0  0  0  0  0  0  0  0
    1.7191    2.9328    0.0188 H   0  0  0  0  0  0  0  0  0  0  0  0
    1.7566    4.9547   -1.4418 H   0  0  0  0  0  0  0  0  0  0  0  0
   -0.0723    5.3312   -3.0493 H   0  0  0  0  0  0  0  0  0  0  0  0
   -1.9218    3.7286   -3.2228 H   0  0  0  0  0  0  0  0  0  0  0  0
  1  2  2  0
  2  3  1  0
  3  4  2  0
  4  5  1  0
  5  6  2  0
  6  7  1  0
  2  8  1  0
  8  9  1  0
  9 10  2  0
 10 11  1  0
 11 12  2  0
 12 13  1  0
 13 14  1  0
 14 15  1  0
 15 16  1  0
 16 17  1  0
 17 18  1  0
 18 19  1  0
 19 20  1  0
 12 21  1  0
 21 22  2  0
 22 23  1  0
 23 24  2  0
  7  3  1  0
 13  9  1  0
 20 16  1  0
 24 11  1  0
  4 25  1  0
  5 26  1  0
  6 27  1  0
  7 28  1  0
  8 29  1  0
 14 30  1  0
 14 31  1  0
 15 32  1  0
 15 33  1  0
 17 34  1  0
 17 35  1  0
 18 36  1  0
 18 37  1  0
 19 38  1  0
 19 39  1  0
 20 40  1  0
 20 41  1  0
 21 42  1  0
 22 43  1  0
 23 44  1  0
 24 45  1  0
M  END
>  <Ligand ID>  (1) 
LIG0003087

>  <Ligand>  (1) 
CHEMBL3394000

>  <SMILES>  (1) 
O=C(c1ccc[nH]1)Nc1nc2c(n1CCN1CCCC1)cccc2

>  <CID>  (1) 
118725850.0

>  <ChEMBL ID>  (1) 
nan

>  <InChiKey>  (1) 
BPAQFXCMGHLBBF-UHFFFAOYSA-N

>  <InChi>  (1) 
InChI=1S/C18H21N5O/c24-17(15-7-5-9-19-15)21-18-20-14-6-1-2-8-16(14)23(18)13-12-22-10-3-4-11-22/h1-2,5-9,19H,3-4,10-13H2,(H,20,21,24)

>  <IUPAC Name>  (1) 
N-[1-(2-pyrrolidin-1-ylethyl)benzimidazol-2-yl]-1H-pyrrole-2-carboxamide

$$$$
