
     RDKit          3D

 42 44  0  0  0  0  0  0  0  0999 V2000
    4.3999   -0.8194    2.5679 Cl  0  0  0  0  0  0  0  0  0  0  0  0
    4.7700   -0.8737    0.8678 C   0  0  0  0  0  0  0  0  0  0  0  0
    5.8313   -1.6523    0.4315 C   0  0  0  0  0  0  0  0  0  0  0  0
    6.1686   -1.7315   -0.9064 C   0  0  0  0  0  0  0  0  0  0  0  0
    5.4219   -1.0095   -1.8403 C   0  0  0  0  0  0  0  0  0  0  0  0
    4.3774   -0.2462   -1.3894 C   0  0  0  0  0  0  0  0  0  0  0  0
    4.0218   -0.1519   -0.0567 C   0  0  0  0  0  0  0  0  0  0  0  0
    2.9655    0.6245    0.3667 O   0  0  0  0  0  0  0  0  0  0  0  0
    2.1952    1.3641   -0.5603 C   0  0  0  0  0  0  0  0  0  0  0  0
    1.0934    2.1394    0.1284 C   0  0  0  0  0  0  0  0  0  0  0  0
    0.1618    1.3226    0.8499 N   0  0  0  0  0  0  0  0  0  0  0  0
   -0.9078    0.8723    0.2147 N   0  0  0  0  0  0  0  0  0  0  0  0
   -1.8378    0.0893    0.8376 C   0  0  0  0  0  0  0  0  0  0  0  0
   -1.5822   -0.1934    2.1603 C   0  0  0  0  0  0  0  0  0  0  0  0
   -0.4700    0.2696    2.8367 C   0  0  0  0  0  0  0  0  0  0  0  0
    0.4252    1.0550    2.1418 C   0  0  0  0  0  0  0  0  0  0  0  0
    1.4495    1.5096    2.6800 O   0  0  0  0  0  0  0  0  0  0  0  0
   -2.9751   -0.3791    0.1326 N   0  0  0  0  0  0  0  0  0  0  0  0
   -4.0017   -1.2207    0.7082 C   0  0  0  0  0  0  0  0  0  0  0  0
   -5.2606   -0.3934    0.5817 C   0  0  0  0  0  0  0  0  0  0  0  0
   -5.5751   -0.2359   -0.8019 N   0  0  0  0  0  0  0  0  0  0  0  0
   -4.5421    0.1374   -1.6922 C   0  0  0  0  0  0  0  0  0  0  0  0
   -3.1403   -0.0001   -1.2595 C   0  0  0  0  0  0  0  0  0  0  0  0
    6.4358   -2.2291    1.1330 H   0  0  0  0  0  0  0  0  0  0  0  0
    6.9828   -2.3242   -1.2735 H   0  0  0  0  0  0  0  0  0  0  0  0
    5.6521   -1.0430   -2.8997 H   0  0  0  0  0  0  0  0  0  0  0  0
    3.7945    0.3154   -2.1050 H   0  0  0  0  0  0  0  0  0  0  0  0
    2.8863    2.1377   -0.9692 H   0  0  0  0  0  0  0  0  0  0  0  0
    1.8188    0.7743   -1.4105 H   0  0  0  0  0  0  0  0  0  0  0  0
    1.5832    2.8791    0.7985 H   0  0  0  0  0  0  0  0  0  0  0  0
    0.5294    2.7392   -0.6083 H   0  0  0  0  0  0  0  0  0  0  0  0
   -2.2661   -0.8058    2.7294 H   0  0  0  0  0  0  0  0  0  0  0  0
   -0.2831    0.0380    3.8789 H   0  0  0  0  0  0  0  0  0  0  0  0
   -4.1347   -2.0960    0.0255 H   0  0  0  0  0  0  0  0  0  0  0  0
   -3.7975   -1.6198    1.6908 H   0  0  0  0  0  0  0  0  0  0  0  0
   -6.0734   -0.9965    1.0481 H   0  0  0  0  0  0  0  0  0  0  0  0
   -5.1157    0.5690    1.1157 H   0  0  0  0  0  0  0  0  0  0  0  0
   -6.4559    0.2973   -0.9721 H   0  0  0  0  0  0  0  0  0  0  0  0
   -4.7136    1.2209   -1.9619 H   0  0  0  0  0  0  0  0  0  0  0  0
   -4.6834   -0.4103   -2.6521 H   0  0  0  0  0  0  0  0  0  0  0  0
   -2.5264    0.9046   -1.4684 H   0  0  0  0  0  0  0  0  0  0  0  0
   -2.6218   -0.8277   -1.8283 H   0  0  0  0  0  0  0  0  0  0  0  0
  1  2  1  0
  2  3  2  0
  3  4  1  0
  4  5  2  0
  5  6  1  0
  6  7  2  0
  7  8  1  0
  8  9  1  0
  9 10  1  0
 10 11  1  0
 11 12  1  0
 12 13  2  0
 13 14  1  0
 14 15  2  0
 15 16  1  0
 16 17  2  0
 13 18  1  0
 18 19  1  0
 19 20  1  0
 20 21  1  0
 21 22  1  0
 22 23  1  0
  7  2  1  0
 16 11  1  0
 23 18  1  0
  3 24  1  0
  4 25  1  0
  5 26  1  0
  6 27  1  0
  9 28  1  0
  9 29  1  0
 10 30  1  0
 10 31  1  0
 14 32  1  0
 15 33  1  0
 19 34  1  0
 19 35  1  0
 20 36  1  0
 20 37  1  0
 21 38  1  0
 22 39  1  0
 22 40  1  0
 23 41  1  0
 23 42  1  0
M  END
>  <Ligand ID>  (1) 
LIG0003153

>  <Ligand>  (1) 
CHEMBL570937

>  <SMILES>  (1) 
Clc1ccccc1OCCn1nc(ccc1=O)N1CCNCC1

>  <CID>  (1) 
45485751.0

>  <ChEMBL ID>  (1) 
nan

>  <InChiKey>  (1) 
ULTUTYRTZUGKHC-UHFFFAOYSA-N

>  <InChi>  (1) 
InChI=1S/C16H19ClN4O2/c17-13-3-1-2-4-14(13)23-12-11-21-16(22)6-5-15(19-21)20-9-7-18-8-10-20/h1-6,18H,7-12H2

>  <IUPAC Name>  (1) 
2-[2-(2-chlorophenoxy)ethyl]-6-piperazin-1-ylpyridazin-3-one

$$$$
