
     RDKit          3D

 54 58  0  0  0  0  0  0  0  0999 V2000
   -5.9859   -1.2998   -4.1710 Cl  0  0  0  0  0  0  0  0  0  0  0  0
   -4.8501   -0.6347   -3.0149 C   0  0  0  0  0  0  0  0  0  0  0  0
   -3.4809   -0.6411   -3.2296 C   0  0  0  0  0  0  0  0  0  0  0  0
   -2.6225   -0.1011   -2.2815 C   0  0  0  0  0  0  0  0  0  0  0  0
   -3.0919    0.4529   -1.1097 C   0  0  0  0  0  0  0  0  0  0  0  0
   -4.4793    0.4384   -0.9340 C   0  0  0  0  0  0  0  0  0  0  0  0
   -5.3320   -0.0895   -1.8587 C   0  0  0  0  0  0  0  0  0  0  0  0
   -2.2429    1.0399   -0.0668 C   0  0  0  0  0  0  0  0  0  0  0  0
   -1.8209    0.0480    0.9535 C   0  0  0  0  0  0  0  0  0  0  0  0
   -2.6811   -0.3490    1.9516 C   0  0  0  0  0  0  0  0  0  0  0  0
   -2.2178   -1.2691    2.8656 C   0  0  0  0  0  0  0  0  0  0  0  0
   -0.9452   -1.7618    2.7735 C   0  0  0  0  0  0  0  0  0  0  0  0
   -0.0649   -1.3624    1.7661 C   0  0  0  0  0  0  0  0  0  0  0  0
   -0.5397   -0.4537    0.8672 C   0  0  0  0  0  0  0  0  0  0  0  0
    1.1901   -1.8579    1.6194 C   0  0  0  0  0  0  0  0  0  0  0  0
    2.2511   -1.4287    0.7650 C   0  0  0  0  0  0  0  0  0  0  0  0
    2.4910   -0.2976    0.1818 C   0  0  0  0  0  0  0  0  0  0  0  0
    3.6594   -0.0378   -0.6899 C   0  0  0  0  0  0  0  0  0  0  0  0
    3.8371    1.2082   -1.2781 C   0  0  0  0  0  0  0  0  0  0  0  0
    4.9020    1.5079   -2.0959 C   0  0  0  0  0  0  0  0  0  0  0  0
    5.8528    0.5547   -2.3650 C   0  0  0  0  0  0  0  0  0  0  0  0
    5.6986   -0.6846   -1.7948 C   0  0  0  0  0  0  0  0  0  0  0  0
    4.6121   -0.9852   -0.9623 C   0  0  0  0  0  0  0  0  0  0  0  0
    7.0157    0.8026   -3.2280 C   0  0  0  0  0  0  0  0  0  0  0  0
    8.2056    0.4899   -2.5681 F   0  0  0  0  0  0  0  0  0  0  0  0
    7.0910    2.1361   -3.5840 F   0  0  0  0  0  0  0  0  0  0  0  0
    6.9706    0.0781   -4.4210 F   0  0  0  0  0  0  0  0  0  0  0  0
    1.5432   -2.8411    2.5831 C   0  0  0  0  0  0  0  0  0  0  0  0
    0.6557   -3.2200    3.5649 C   0  0  0  0  0  0  0  0  0  0  0  0
    0.9807   -4.0946    4.4156 O   0  0  0  0  0  0  0  0  0  0  0  0
   -0.5736   -2.6910    3.6664 N   0  0  0  0  0  0  0  0  0  0  0  0
   -3.0311    2.0966    0.6170 C   0  0  0  0  0  0  0  0  0  0  0  0
   -3.7399    2.2716    1.4978 N   0  0  0  0  0  0  0  0  0  0  0  0
   -4.3387    3.3607    1.9176 C   0  0  0  0  0  0  0  0  0  0  0  0
   -4.0832    4.4718    1.1958 C   0  0  0  0  0  0  0  0  0  0  0  0
   -2.9312    3.8349   -0.1144 S   0  0  0  0  0  0  0  0  0  0  0  0
   -3.1299   -1.0793   -4.1534 H   0  0  0  0  0  0  0  0  0  0  0  0
   -1.5414   -0.1083   -2.4552 H   0  0  0  0  0  0  0  0  0  0  0  0
   -4.9179    0.8617   -0.0268 H   0  0  0  0  0  0  0  0  0  0  0  0
   -6.4077   -0.0798   -1.6809 H   0  0  0  0  0  0  0  0  0  0  0  0
   -1.3529    1.5006   -0.5612 H   0  0  0  0  0  0  0  0  0  0  0  0
   -3.6798    0.0011    2.0655 H   0  0  0  0  0  0  0  0  0  0  0  0
   -2.8735   -1.6005    3.6616 H   0  0  0  0  0  0  0  0  0  0  0  0
    0.0542   -0.1610    0.0555 H   0  0  0  0  0  0  0  0  0  0  0  0
    3.0164   -2.2183    0.5384 H   0  0  0  0  0  0  0  0  0  0  0  0
    1.8711    0.5568    0.3533 H   0  0  0  0  0  0  0  0  0  0  0  0
    3.1210    2.0060   -1.1057 H   0  0  0  0  0  0  0  0  0  0  0  0
    4.9914    2.4973   -2.5288 H   0  0  0  0  0  0  0  0  0  0  0  0
    6.4523   -1.4539   -2.0028 H   0  0  0  0  0  0  0  0  0  0  0  0
    4.5941   -1.9787   -0.5748 H   0  0  0  0  0  0  0  0  0  0  0  0
    2.5081   -3.3106    2.5688 H   0  0  0  0  0  0  0  0  0  0  0  0
   -1.2273   -2.9870    4.4135 H   0  0  0  0  0  0  0  0  0  0  0  0
   -5.0062    3.3703    2.8006 H   0  0  0  0  0  0  0  0  0  0  0  0
   -4.3759    5.4918    1.2330 H   0  0  0  0  0  0  0  0  0  0  0  0
  1  2  1  0
  2  3  2  0
  3  4  1  0
  4  5  2  0
  5  6  1  0
  6  7  2  0
  5  8  1  0
  8  9  1  0
  9 10  2  0
 10 11  1  0
 11 12  2  0
 12 13  1  0
 13 14  2  0
 13 15  1  0
 15 16  1  0
 16 17  2  0
 17 18  1  0
 18 19  2  0
 19 20  1  0
 20 21  2  0
 21 22  1  0
 22 23  2  0
 21 24  1  0
 24 25  1  0
 24 26  1  0
 24 27  1  0
 15 28  2  0
 28 29  1  0
 29 30  2  0
 29 31  1  0
  8 32  1  0
 32 33  2  0
 33 34  1  0
 34 35  2  0
 35 36  1  0
  7  2  1  0
 14  9  1  0
 23 18  1  0
 36 32  1  0
 31 12  1  0
  3 37  1  0
  4 38  1  0
  6 39  1  0
  7 40  1  0
  8 41  1  0
 10 42  1  0
 11 43  1  0
 14 44  1  0
 16 45  1  0
 17 46  1  0
 19 47  1  0
 20 48  1  0
 22 49  1  0
 23 50  1  0
 28 51  1  0
 31 52  1  0
 34 53  1  0
 35 54  1  0
M  END
>  <Ligand ID>  (1) 
LIG0005878

>  <Ligand>  (1) 
CHEMBL3962890

>  <SMILES>  (1) 
Clc1ccc(cc1)C(c1ccc2c(c1)c(/C=C/c1ccc(cc1)C(F)(F)F)cc(=O)[nH]2)c1nccs1

>  <CID>  (1) 
118324066.0

>  <ChEMBL ID>  (1) 
nan

>  <InChiKey>  (1) 
LWHNNHZAUBLVTM-DAFODLJHSA-N

>  <InChi>  (1) 
InChI=1S/C28H18ClF3N2OS/c29-22-10-5-18(6-11-22)26(27-33-13-14-36-27)20-7-12-24-23(15-20)19(16-25(35)34-24)4-1-17-2-8-21(9-3-17)28(30,31)32/h1-16,26H,(H,34,35)/b4-1+

>  <IUPAC Name>  (1) 
6-[(4-chlorophenyl)-(1,3-thiazol-2-yl)methyl]-4-[(E)-2-[4-(trifluoromethyl)phenyl]ethenyl]-1H-quinolin-2-one

$$$$
