
     RDKit          3D

 62 64  0  0  0  0  0  0  0  0999 V2000
   11.3941    0.5555    1.9032 O   0  0  0  0  0  0  0  0  0  0  0  0
   11.0888    0.8670    0.5870 C   0  0  0  0  0  0  0  0  0  0  0  0
   11.9713    1.4251   -0.1034 O   0  0  0  0  0  0  0  0  0  0  0  0
    9.7570    0.5610   -0.0245 C   0  0  0  0  0  0  0  0  0  0  0  0
    8.8593   -0.1179    0.9841 C   0  0  0  0  0  0  0  0  0  0  0  0
    7.5753   -0.4277    0.4219 N   0  0  0  0  0  0  0  0  0  0  0  0
    6.8166    0.7668    0.1532 C   0  0  0  0  0  0  0  0  0  0  0  0
    5.4812    0.3738   -0.4071 C   0  0  0  0  0  0  0  0  0  0  0  0
    5.2818    0.2169   -1.7702 C   0  0  0  0  0  0  0  0  0  0  0  0
    3.9592   -0.1396   -1.9003 C   0  0  0  0  0  0  0  0  0  0  0  0
    3.4252   -0.1819   -0.6296 C   0  0  0  0  0  0  0  0  0  0  0  0
    4.3649    0.1294    0.2198 O   0  0  0  0  0  0  0  0  0  0  0  0
    2.0206   -0.5311   -0.3886 C   0  0  0  0  0  0  0  0  0  0  0  0
    1.1467    0.3335   -0.7570 N   0  0  0  0  0  0  0  0  0  0  0  0
   -0.1871    0.1418   -0.5958 O   0  0  0  0  0  0  0  0  0  0  0  0
   -0.9659    0.6495    0.4651 C   0  0  0  0  0  0  0  0  0  0  0  0
   -2.3795    0.2297    0.2924 C   0  0  0  0  0  0  0  0  0  0  0  0
   -3.2298    1.0426   -0.4167 C   0  0  0  0  0  0  0  0  0  0  0  0
   -4.5526    0.7028   -0.6101 C   0  0  0  0  0  0  0  0  0  0  0  0
   -5.0996   -0.4820   -0.0974 C   0  0  0  0  0  0  0  0  0  0  0  0
   -4.2347   -1.3129    0.6256 C   0  0  0  0  0  0  0  0  0  0  0  0
   -2.8970   -0.9359    0.8021 C   0  0  0  0  0  0  0  0  0  0  0  0
   -4.6969   -2.5806    1.2080 C   0  0  0  0  0  0  0  0  0  0  0  0
   -5.2198   -3.4781    0.3039 F   0  0  0  0  0  0  0  0  0  0  0  0
   -3.5327   -3.2550    1.6560 F   0  0  0  0  0  0  0  0  0  0  0  0
   -5.4281   -2.4516    2.3678 F   0  0  0  0  0  0  0  0  0  0  0  0
   -6.5133   -0.8401   -0.3296 C   0  0  0  0  0  0  0  0  0  0  0  0
   -7.4691   -0.4486    0.7638 C   0  0  0  0  0  0  0  0  0  0  0  0
   -7.1753    0.9973    1.1133 C   0  0  0  0  0  0  0  0  0  0  0  0
   -7.6273    1.8900   -0.0190 C   0  0  0  0  0  0  0  0  0  0  0  0
   -7.7881    1.1483   -1.3056 C   0  0  0  0  0  0  0  0  0  0  0  0
   -6.9982   -0.0703   -1.5355 C   0  0  0  0  0  0  0  0  0  0  0  0
    1.6117   -1.8104    0.2461 C   0  0  0  0  0  0  0  0  0  0  0  0
   12.2554    0.9469    2.3099 H   0  0  0  0  0  0  0  0  0  0  0  0
    9.8531   -0.0808   -0.9141 H   0  0  0  0  0  0  0  0  0  0  0  0
    9.3194    1.5326   -0.3191 H   0  0  0  0  0  0  0  0  0  0  0  0
    8.7078    0.5489    1.8755 H   0  0  0  0  0  0  0  0  0  0  0  0
    9.3300   -1.0524    1.3539 H   0  0  0  0  0  0  0  0  0  0  0  0
    7.7012   -0.9512   -0.4542 H   0  0  0  0  0  0  0  0  0  0  0  0
    6.6559    1.3384    1.0931 H   0  0  0  0  0  0  0  0  0  0  0  0
    7.3249    1.4262   -0.5635 H   0  0  0  0  0  0  0  0  0  0  0  0
    5.9579    0.3315   -2.5839 H   0  0  0  0  0  0  0  0  0  0  0  0
    3.4292   -0.3495   -2.8295 H   0  0  0  0  0  0  0  0  0  0  0  0
   -0.5841    0.2096    1.4206 H   0  0  0  0  0  0  0  0  0  0  0  0
   -0.8667    1.7505    0.5627 H   0  0  0  0  0  0  0  0  0  0  0  0
   -2.8368    1.9760   -0.8310 H   0  0  0  0  0  0  0  0  0  0  0  0
   -5.1358    1.4011   -1.1912 H   0  0  0  0  0  0  0  0  0  0  0  0
   -2.2013   -1.5643    1.3608 H   0  0  0  0  0  0  0  0  0  0  0  0
   -6.6183   -1.9252   -0.5934 H   0  0  0  0  0  0  0  0  0  0  0  0
   -8.5335   -0.4090    0.3548 H   0  0  0  0  0  0  0  0  0  0  0  0
   -7.5355   -1.0804    1.6269 H   0  0  0  0  0  0  0  0  0  0  0  0
   -7.6782    1.2155    2.0698 H   0  0  0  0  0  0  0  0  0  0  0  0
   -6.0873    1.0732    1.2805 H   0  0  0  0  0  0  0  0  0  0  0  0
   -6.9245    2.7387   -0.1026 H   0  0  0  0  0  0  0  0  0  0  0  0
   -8.6060    2.3138    0.2732 H   0  0  0  0  0  0  0  0  0  0  0  0
   -8.8840    1.0001   -1.5264 H   0  0  0  0  0  0  0  0  0  0  0  0
   -7.4876    1.8879   -2.1085 H   0  0  0  0  0  0  0  0  0  0  0  0
   -7.6893   -0.7911   -2.0847 H   0  0  0  0  0  0  0  0  0  0  0  0
   -6.1785    0.0546   -2.2910 H   0  0  0  0  0  0  0  0  0  0  0  0
    2.4707   -2.2967    0.7711 H   0  0  0  0  0  0  0  0  0  0  0  0
    0.8183   -1.6858    0.9927 H   0  0  0  0  0  0  0  0  0  0  0  0
    1.2651   -2.5261   -0.5462 H   0  0  0  0  0  0  0  0  0  0  0  0
  1  2  1  0
  2  3  2  0
  2  4  1  0
  4  5  1  0
  5  6  1  0
  6  7  1  0
  7  8  1  0
  8  9  2  0
  9 10  1  0
 10 11  2  0
 11 12  1  0
 11 13  1  0
 13 14  2  0
 14 15  1  0
 15 16  1  0
 16 17  1  0
 17 18  2  0
 18 19  1  0
 19 20  2  0
 20 21  1  0
 21 22  2  0
 21 23  1  0
 23 24  1  0
 23 25  1  0
 23 26  1  0
 20 27  1  0
 27 28  1  0
 28 29  1  0
 29 30  1  0
 30 31  1  0
 31 32  1  0
 13 33  1  0
 12  8  1  0
 22 17  1  0
 32 27  1  0
  1 34  1  0
  4 35  1  0
  4 36  1  0
  5 37  1  0
  5 38  1  0
  6 39  1  0
  7 40  1  0
  7 41  1  0
  9 42  1  0
 10 43  1  0
 16 44  1  0
 16 45  1  0
 18 46  1  0
 19 47  1  0
 22 48  1  0
 27 49  1  0
 28 50  1  0
 28 51  1  0
 29 52  1  0
 29 53  1  0
 30 54  1  0
 30 55  1  0
 31 56  1  0
 31 57  1  0
 32 58  1  0
 32 59  1  0
 33 60  1  0
 33 61  1  0
 33 62  1  0
M  END
>  <Ligand ID>  (1) 
LIG0005576

>  <Ligand>  (1) 
CHEMBL2336063

>  <SMILES>  (1) 
OC(=O)CCNCc1ccc(o1)/C(=N/OCc1ccc(c(c1)C(F)(F)F)C1CCCCC1)/C

>  <CID>  (1) 
57570467.0

>  <ChEMBL ID>  (1) 
nan

>  <InChiKey>  (1) 
IAPYVZIEVKDGRR-MUFRIFMGSA-N

>  <InChi>  (1) 
InChI=1S/C24H29F3N2O4/c1-16(22-10-8-19(33-22)14-28-12-11-23(30)31)29-32-15-17-7-9-20(18-5-3-2-4-6-18)21(13-17)24(25,26)27/h7-10,13,18,28H,2-6,11-12,14-15H2,1H3,(H,30,31)/b29-16+

>  <IUPAC Name>  (1) 
3-[[5-[(E)-N-[[4-cyclohexyl-3-(trifluoromethyl)phenyl]methoxy]-C-methylcarbonimidoyl]furan-2-yl]methylamino]propanoic acid

$$$$
