
     RDKit          3D

 59 62  0  0  0  0  0  0  0  0999 V2000
   -1.2111   -4.9063    1.4163 C   0  0  0  0  0  0  0  0  0  0  0  0
   -0.9083   -3.5824    1.1358 O   0  0  0  0  0  0  0  0  0  0  0  0
   -1.7646   -2.5238    1.2991 C   0  0  0  0  0  0  0  0  0  0  0  0
   -3.0356   -2.8484    1.7873 C   0  0  0  0  0  0  0  0  0  0  0  0
   -3.9731   -1.8635    1.9848 C   0  0  0  0  0  0  0  0  0  0  0  0
   -3.5993   -0.5757    1.6828 C   0  0  0  0  0  0  0  0  0  0  0  0
   -2.3483   -0.2659    1.2039 C   0  0  0  0  0  0  0  0  0  0  0  0
   -1.3749   -1.2613    0.9957 C   0  0  0  0  0  0  0  0  0  0  0  0
   -0.1443   -0.8259    0.4874 N   0  0  0  0  0  0  0  0  0  0  0  0
    1.0691   -1.5103    0.3819 C   0  0  0  0  0  0  0  0  0  0  0  0
    1.2036   -2.6865    0.7717 O   0  0  0  0  0  0  0  0  0  0  0  0
    2.2286   -0.8647   -0.1932 C   0  0  0  0  0  0  0  0  0  0  0  0
    2.2550    0.8480   -0.8259 S   0  0  0  0  0  0  0  0  0  0  0  0
    4.0256    0.7339   -1.3026 C   0  0  0  0  0  0  0  0  0  0  0  0
    4.4044   -0.5391   -0.9490 C   0  0  0  0  0  0  0  0  0  0  0  0
    3.4779   -1.3294   -0.3894 C   0  0  0  0  0  0  0  0  0  0  0  0
    5.7756   -1.1718   -1.1194 C   0  0  0  0  0  0  0  0  0  0  0  0
    6.8680   -0.1681   -0.9896 C   0  0  0  0  0  0  0  0  0  0  0  0
    6.6067    0.9287    0.0021 C   0  0  0  0  0  0  0  0  0  0  0  0
    6.6386    2.2935   -0.6371 C   0  0  0  0  0  0  0  0  0  0  0  0
    5.2471    2.8413   -0.8667 C   0  0  0  0  0  0  0  0  0  0  0  0
    4.5827    1.9844   -1.9216 C   0  0  0  0  0  0  0  0  0  0  0  0
   -4.7584    0.7061    1.9207 S   0  0  0  0  0  0  0  0  0  0  0  0
   -4.0528    2.0162    2.1614 O   0  0  0  0  0  0  0  0  0  0  0  0
   -5.6549    0.3890    3.0788 O   0  0  0  0  0  0  0  0  0  0  0  0
   -5.6482    0.8884    0.4552 N   0  0  0  0  0  0  0  0  0  0  0  0
   -4.7432    1.2568   -0.5990 C   0  0  0  0  0  0  0  0  0  0  0  0
   -5.4777    1.1613   -1.9263 C   0  0  0  0  0  0  0  0  0  0  0  0
   -6.7820    1.6128   -1.8374 O   0  0  0  0  0  0  0  0  0  0  0  0
   -6.9689    2.4729   -0.7549 C   0  0  0  0  0  0  0  0  0  0  0  0
   -6.7758    1.7630    0.5688 C   0  0  0  0  0  0  0  0  0  0  0  0
   -2.0972   -5.2465    0.8296 H   0  0  0  0  0  0  0  0  0  0  0  0
   -0.3570   -5.5664    1.2469 H   0  0  0  0  0  0  0  0  0  0  0  0
   -1.5083   -4.9556    2.4889 H   0  0  0  0  0  0  0  0  0  0  0  0
   -3.3005   -3.8707    2.0158 H   0  0  0  0  0  0  0  0  0  0  0  0
   -4.9423   -2.1479    2.3621 H   0  0  0  0  0  0  0  0  0  0  0  0
   -2.1517    0.7752    0.9976 H   0  0  0  0  0  0  0  0  0  0  0  0
   -0.1206    0.1755    0.1138 H   0  0  0  0  0  0  0  0  0  0  0  0
    3.7301   -2.3821   -0.0791 H   0  0  0  0  0  0  0  0  0  0  0  0
    5.7823   -1.6142   -2.1143 H   0  0  0  0  0  0  0  0  0  0  0  0
    5.8902   -1.9358   -0.3194 H   0  0  0  0  0  0  0  0  0  0  0  0
    7.7678   -0.7340   -0.6567 H   0  0  0  0  0  0  0  0  0  0  0  0
    7.1820    0.2455   -1.9926 H   0  0  0  0  0  0  0  0  0  0  0  0
    5.6401    0.7499    0.5582 H   0  0  0  0  0  0  0  0  0  0  0  0
    7.3723    0.9264    0.8123 H   0  0  0  0  0  0  0  0  0  0  0  0
    7.1668    3.0112   -0.0018 H   0  0  0  0  0  0  0  0  0  0  0  0
    7.1895    2.1739   -1.6120 H   0  0  0  0  0  0  0  0  0  0  0  0
    4.6945    2.6852    0.0931 H   0  0  0  0  0  0  0  0  0  0  0  0
    5.2426    3.9119   -1.0784 H   0  0  0  0  0  0  0  0  0  0  0  0
    5.2375    1.7435   -2.7812 H   0  0  0  0  0  0  0  0  0  0  0  0
    3.7295    2.5546   -2.3892 H   0  0  0  0  0  0  0  0  0  0  0  0
   -4.4337    2.3150   -0.4876 H   0  0  0  0  0  0  0  0  0  0  0  0
   -3.9001    0.5675   -0.6332 H   0  0  0  0  0  0  0  0  0  0  0  0
   -5.4459    0.0755   -2.2022 H   0  0  0  0  0  0  0  0  0  0  0  0
   -4.8910    1.7006   -2.6962 H   0  0  0  0  0  0  0  0  0  0  0  0
   -6.2739    3.3475   -0.8051 H   0  0  0  0  0  0  0  0  0  0  0  0
   -8.0191    2.8212   -0.7758 H   0  0  0  0  0  0  0  0  0  0  0  0
   -7.6975    1.1617    0.7354 H   0  0  0  0  0  0  0  0  0  0  0  0
   -6.6477    2.5382    1.3494 H   0  0  0  0  0  0  0  0  0  0  0  0
  1  2  1  0
  2  3  1  0
  3  4  2  0
  4  5  1  0
  5  6  2  0
  6  7  1  0
  7  8  2  0
  8  9  1  0
  9 10  1  0
 10 11  2  0
 10 12  1  0
 12 13  1  0
 13 14  1  0
 14 15  2  0
 15 16  1  0
 15 17  1  0
 17 18  1  0
 18 19  1  0
 19 20  1  0
 20 21  1  0
 21 22  1  0
  6 23  1  0
 23 24  2  0
 23 25  2  0
 23 26  1  0
 26 27  1  0
 27 28  1  0
 28 29  1  0
 29 30  1  0
 30 31  1  0
  8  3  1  0
 16 12  2  0
 31 26  1  0
 22 14  1  0
  1 32  1  0
  1 33  1  0
  1 34  1  0
  4 35  1  0
  5 36  1  0
  7 37  1  0
  9 38  1  0
 16 39  1  0
 17 40  1  0
 17 41  1  0
 18 42  1  0
 18 43  1  0
 19 44  1  0
 19 45  1  0
 20 46  1  0
 20 47  1  0
 21 48  1  0
 21 49  1  0
 22 50  1  0
 22 51  1  0
 27 52  1  0
 27 53  1  0
 28 54  1  0
 28 55  1  0
 30 56  1  0
 30 57  1  0
 31 58  1  0
 31 59  1  0
M  END
>  <Ligand ID>  (1) 
LIG0002000

>  <Ligand>  (1) 
MLS-0435539.0001

>  <SMILES>  (1) 
COc1ccc(cc1NC(=O)c1sc2c(c1)CCCCCC2)S(=O)(=O)N1CCOCC1

>  <CID>  (1) 
16310040.0

>  <ChEMBL ID>  (1) 
nan

>  <InChiKey>  (1) 
DMFJVESKRGCNOS-UHFFFAOYSA-N

>  <InChi>  (1) 
InChI=1S/C22H28N2O5S2/c1-28-19-9-8-17(31(26,27)24-10-12-29-13-11-24)15-18(19)23-22(25)21-14-16-6-4-2-3-5-7-20(16)30-21/h8-9,14-15H,2-7,10-13H2,1H3,(H,23,25)

>  <IUPAC Name>  (1) 
N-(2-methoxy-5-morpholin-4-ylsulfonylphenyl)-4,5,6,7,8,9-hexahydrocycloocta[b]thiophene-2-carboxamide

$$$$
