
     RDKit          3D

 69 73  0  0  0  0  0  0  0  0999 V2000
   -4.0242   -4.9890    1.3713 O   0  0  0  0  0  0  0  0  0  0  0  0
   -4.0169   -3.7156    0.7821 C   0  0  0  0  0  0  0  0  0  0  0  0
   -5.1857   -3.2028    0.2677 C   0  0  0  0  0  0  0  0  0  0  0  0
   -5.1428   -1.9621   -0.2979 C   0  0  0  0  0  0  0  0  0  0  0  0
   -3.9614   -1.2280   -0.3594 C   0  0  0  0  0  0  0  0  0  0  0  0
   -2.7650   -1.7271    0.1554 C   0  0  0  0  0  0  0  0  0  0  0  0
   -2.8423   -2.9859    0.7214 C   0  0  0  0  0  0  0  0  0  0  0  0
   -1.5090   -0.9276    0.1222 C   0  0  0  0  0  0  0  0  0  0  0  0
   -1.9521    0.5014   -0.1054 C   0  0  0  0  0  0  0  0  0  0  0  0
   -0.9710    1.5638    0.2002 C   0  0  1  0  0  0  0  0  0  0  0  0
   -1.7147    2.6818    0.7524 N   0  0  0  0  0  0  0  0  0  0  0  0
   -2.6913    3.2298   -0.1306 C   0  0  0  0  0  0  0  0  0  0  0  0
   -2.0719    3.9463   -1.3076 C   0  0  0  0  0  0  0  0  0  0  0  0
   -3.0379    4.5634   -2.3030 C   0  0  0  0  0  0  0  0  0  0  0  0
   -2.2613    5.4433   -1.4030 C   0  0  0  0  0  0  0  0  0  0  0  0
    0.1001    1.2414    1.1971 C   0  0  0  0  0  0  0  0  0  0  0  0
    0.4843   -0.1916    1.2519 C   0  0  0  0  0  0  0  0  0  0  0  0
   -0.7657   -0.9975    1.4117 C   0  0  0  0  0  0  0  0  0  0  0  0
    1.3169   -0.6280    0.1675 N   0  0  0  0  0  0  0  0  0  0  0  0
    0.7126   -0.8129   -1.0837 C   0  0  0  0  0  0  0  0  0  0  0  0
   -0.6678   -1.4180   -1.0069 C   0  0  0  0  0  0  0  0  0  0  0  0
   -0.4967   -2.9059   -1.0117 C   0  0  0  0  0  0  0  0  0  0  0  0
    2.3474   -1.4800    0.5859 C   0  0  0  0  0  0  0  0  0  0  0  0
    3.2891   -1.9881   -0.4780 C   0  0  0  0  0  0  0  0  0  0  0  0
    4.0030   -0.8888   -1.2096 C   0  0  0  0  0  0  0  0  0  0  0  0
    4.8052   -0.0887   -0.2527 C   0  0  0  0  0  0  0  0  0  0  0  0
    4.3110    1.0151    0.3965 C   0  0  0  0  0  0  0  0  0  0  0  0
    5.0698    1.7637    1.2963 C   0  0  0  0  0  0  0  0  0  0  0  0
    6.3615    1.3728    1.5355 C   0  0  0  0  0  0  0  0  0  0  0  0
    6.8785    0.2635    0.8915 C   0  0  0  0  0  0  0  0  0  0  0  0
    6.1181   -0.4695    0.0031 C   0  0  0  0  0  0  0  0  0  0  0  0
   -4.5658   -5.7100    0.9588 H   0  0  0  0  0  0  0  0  0  0  0  0
   -6.0910   -3.7813    0.3220 H   0  0  0  0  0  0  0  0  0  0  0  0
   -6.0747   -1.5642   -0.7027 H   0  0  0  0  0  0  0  0  0  0  0  0
   -4.0407   -0.2648   -0.8310 H   0  0  0  0  0  0  0  0  0  0  0  0
   -1.9741   -3.4494    1.1504 H   0  0  0  0  0  0  0  0  0  0  0  0
   -2.2612    0.6182   -1.1604 H   0  0  0  0  0  0  0  0  0  0  0  0
   -2.8775    0.6337    0.5153 H   0  0  0  0  0  0  0  0  0  0  0  0
   -0.4904    1.9374   -0.7260 H   0  0  0  0  0  0  0  0  0  0  0  0
   -1.0764    3.3854    1.1703 H   0  0  0  0  0  0  0  0  0  0  0  0
   -3.3187    2.4049   -0.5496 H   0  0  0  0  0  0  0  0  0  0  0  0
   -3.3957    3.9129    0.3786 H   0  0  0  0  0  0  0  0  0  0  0  0
   -1.1122    3.5636   -1.6984 H   0  0  0  0  0  0  0  0  0  0  0  0
   -4.1086    4.3958   -2.0962 H   0  0  0  0  0  0  0  0  0  0  0  0
   -2.7547    4.5475   -3.3785 H   0  0  0  0  0  0  0  0  0  0  0  0
   -2.7986    5.8817   -0.5358 H   0  0  0  0  0  0  0  0  0  0  0  0
   -1.4252    6.0343   -1.7921 H   0  0  0  0  0  0  0  0  0  0  0  0
   -0.2201    1.5334    2.2184 H   0  0  0  0  0  0  0  0  0  0  0  0
    0.9863    1.8775    0.9735 H   0  0  0  0  0  0  0  0  0  0  0  0
    1.0758   -0.3348    2.1943 H   0  0  0  0  0  0  0  0  0  0  0  0
   -0.4636   -2.0097    1.7174 H   0  0  0  0  0  0  0  0  0  0  0  0
   -1.4034   -0.4685    2.1745 H   0  0  0  0  0  0  0  0  0  0  0  0
    1.3112   -1.5044   -1.7058 H   0  0  0  0  0  0  0  0  0  0  0  0
    0.6828    0.1258   -1.7208 H   0  0  0  0  0  0  0  0  0  0  0  0
   -1.1913   -1.1673   -1.9710 H   0  0  0  0  0  0  0  0  0  0  0  0
   -1.4397   -3.4245   -1.1868 H   0  0  0  0  0  0  0  0  0  0  0  0
    0.0094   -3.2664   -0.0873 H   0  0  0  0  0  0  0  0  0  0  0  0
    0.2503   -3.1905   -1.8244 H   0  0  0  0  0  0  0  0  0  0  0  0
    2.9521   -1.0108    1.3987 H   0  0  0  0  0  0  0  0  0  0  0  0
    1.8889   -2.3833    1.0925 H   0  0  0  0  0  0  0  0  0  0  0  0
    2.7790   -2.6894   -1.1633 H   0  0  0  0  0  0  0  0  0  0  0  0
    4.1064   -2.5677    0.0439 H   0  0  0  0  0  0  0  0  0  0  0  0
    3.3227   -0.2141   -1.7253 H   0  0  0  0  0  0  0  0  0  0  0  0
    4.6676   -1.3797   -1.9559 H   0  0  0  0  0  0  0  0  0  0  0  0
    3.2991    1.3442    0.2261 H   0  0  0  0  0  0  0  0  0  0  0  0
    4.6763    2.6248    1.7995 H   0  0  0  0  0  0  0  0  0  0  0  0
    6.9574    1.9563    2.2389 H   0  0  0  0  0  0  0  0  0  0  0  0
    7.9011   -0.0313    1.0923 H   0  0  0  0  0  0  0  0  0  0  0  0
    6.4968   -1.3448   -0.5172 H   0  0  0  0  0  0  0  0  0  0  0  0
  1  2  1  0
  2  3  2  0
  3  4  1  0
  4  5  2  0
  5  6  1  0
  6  7  2  0
  6  8  1  0
  8  9  1  0
  9 10  1  0
 10 11  1  0
 11 12  1  0
 12 13  1  0
 13 14  1  0
 14 15  1  0
 10 16  1  0
 16 17  1  0
 17 18  1  0
 17 19  1  0
 19 20  1  0
 20 21  1  0
 21 22  1  0
 19 23  1  0
 23 24  1  0
 24 25  1  0
 25 26  1  0
 26 27  2  0
 27 28  1  0
 28 29  2  0
 29 30  1  0
 30 31  2  0
  7  2  1  0
 18  8  1  0
 31 26  1  0
 21  8  1  0
 15 13  1  0
  1 32  1  0
  3 33  1  0
  4 34  1  0
  5 35  1  0
  7 36  1  0
  9 37  1  0
  9 38  1  0
 10 39  1  6
 11 40  1  0
 12 41  1  0
 12 42  1  0
 13 43  1  0
 14 44  1  0
 14 45  1  0
 15 46  1  0
 15 47  1  0
 16 48  1  0
 16 49  1  0
 17 50  1  0
 18 51  1  0
 18 52  1  0
 20 53  1  0
 20 54  1  0
 21 55  1  0
 22 56  1  0
 22 57  1  0
 22 58  1  0
 23 59  1  0
 23 60  1  0
 24 61  1  0
 24 62  1  0
 25 63  1  0
 25 64  1  0
 27 65  1  0
 28 66  1  0
 29 67  1  0
 30 68  1  0
 31 69  1  0
M  END
>  <Ligand ID>  (1) 
LIG0004012

>  <Ligand>  (1) 
CHEMBL3264442

>  <SMILES>  (1) 
Oc1cccc(c1)C12C[C@@H](NCC3CC3)CC(C1)N(CC2C)CCCc1ccccc1

>  <CID>  (1) 
90656090.0

>  <ChEMBL ID>  (1) 
nan

>  <InChiKey>  (1) 
IIUGSDSXFCBDCZ-NXMUZTMKSA-N

>  <InChi>  (1) 
InChI=1S/C28H38N2O/c1-21-20-30(14-6-9-22-7-3-2-4-8-22)26-16-25(29-19-23-12-13-23)17-28(21,18-26)24-10-5-11-27(31)15-24/h2-5,7-8,10-11,15,21,23,25-26,29,31H,6,9,12-14,16-20H2,1H3/t21?,25-,26?,28?/m0/s1

>  <IUPAC Name>  (1) 
3-[(7R)-7-(cyclopropylmethylamino)-4-methyl-2-(3-phenylpropyl)-2-azabicyclo[3.3.1]nonan-5-yl]phenol

$$$$
