
     RDKit          3D

 76 75  0  0  0  0  0  0  0  0999 V2000
    8.7385   -2.9428    0.7983 C   0  0  0  0  0  0  0  0  0  0  0  0
    7.5321   -2.5445   -0.0671 C   0  0  0  0  0  0  0  0  0  0  0  0
    6.7853   -1.5146    0.7215 C   0  0  0  0  0  0  0  0  0  0  0  0
    5.5644   -1.0171    0.0261 C   0  0  0  0  0  0  0  0  0  0  0  0
    5.7924   -0.3634   -1.2979 C   0  0  0  0  0  0  0  0  0  0  0  0
    6.6581    0.8236   -1.3134 C   0  0  0  0  0  0  0  0  0  0  0  0
    6.3984    2.0233   -0.5216 C   0  0  0  0  0  0  0  0  0  0  0  0
    5.1789    2.8051   -0.7220 C   0  0  0  0  0  0  0  0  0  0  0  0
    3.9120    2.1160   -0.3817 C   0  0  0  0  0  0  0  0  0  0  0  0
    2.7253    3.0638   -0.6127 C   0  0  0  0  0  0  0  0  0  0  0  0
    1.4410    2.3666   -0.2880 C   0  0  0  0  0  0  0  0  0  0  0  0
    1.4232    1.9328    1.1341 C   0  0  0  0  0  0  0  0  0  0  0  0
    0.1329    1.2366    1.5227 C   0  0  0  0  0  0  0  0  0  0  0  0
   -0.1271    0.0084    0.7185 C   0  0  0  0  0  0  0  0  0  0  0  0
   -1.4318   -0.5990    1.1916 C   0  0  0  0  0  0  0  0  0  0  0  0
   -2.5985    0.3219    1.0341 C   0  0  0  0  0  0  0  0  0  0  0  0
   -2.7651    0.6840   -0.4219 C   0  0  0  0  0  0  0  0  0  0  0  0
   -3.9359    1.6169   -0.6379 C   0  0  0  0  0  0  0  0  0  0  0  0
   -5.1488    1.1139   -0.2461 O   0  0  0  0  0  0  0  0  0  0  0  0
   -5.5552   -0.0367   -0.8705 C   0  0  0  0  0  0  0  0  0  0  0  0
   -6.9015   -0.4141   -0.2962 C   0  0  2  0  0  0  0  0  0  0  0  0
   -7.3343   -1.7723   -0.8647 C   0  0  0  0  0  0  0  0  0  0  0  0
   -8.4982   -2.1384   -0.1906 O   0  0  0  0  0  0  0  0  0  0  0  0
   -9.1181   -3.6191   -0.7052 P   0  0  0  0  0  0  0  0  0  0  0  0
   -8.1919   -4.3255   -1.9694 S   0  0  0  0  0  0  0  0  0  0  0  0
  -10.6665   -3.2799   -1.3455 O   0  0  0  0  0  0  0  0  0  0  0  0
   -9.2756   -4.7112    0.5685 O   0  0  0  0  0  0  0  0  0  0  0  0
   -7.8612    0.5419   -0.4798 O   0  0  0  0  0  0  0  0  0  0  0  0
   -8.3948    1.0346    0.7077 C   0  0  0  0  0  0  0  0  0  0  0  0
    9.3212   -1.9977    0.9435 H   0  0  0  0  0  0  0  0  0  0  0  0
    8.3187   -3.3381    1.7449 H   0  0  0  0  0  0  0  0  0  0  0  0
    9.3209   -3.7056    0.2576 H   0  0  0  0  0  0  0  0  0  0  0  0
    7.9140   -2.0896   -1.0178 H   0  0  0  0  0  0  0  0  0  0  0  0
    6.9355   -3.4263   -0.2916 H   0  0  0  0  0  0  0  0  0  0  0  0
    7.4188   -0.6526    0.9764 H   0  0  0  0  0  0  0  0  0  0  0  0
    6.4222   -2.0201    1.6640 H   0  0  0  0  0  0  0  0  0  0  0  0
    4.7943   -1.8163   -0.1208 H   0  0  0  0  0  0  0  0  0  0  0  0
    5.0653   -0.2828    0.6997 H   0  0  0  0  0  0  0  0  0  0  0  0
    6.3816   -1.1506   -1.9138 H   0  0  0  0  0  0  0  0  0  0  0  0
    4.8729   -0.2572   -1.8541 H   0  0  0  0  0  0  0  0  0  0  0  0
    7.7489    0.5329   -1.1576 H   0  0  0  0  0  0  0  0  0  0  0  0
    6.6747    1.1683   -2.4094 H   0  0  0  0  0  0  0  0  0  0  0  0
    7.3071    2.7141   -0.7210 H   0  0  0  0  0  0  0  0  0  0  0  0
    6.5743    1.8349    0.6021 H   0  0  0  0  0  0  0  0  0  0  0  0
    5.2162    3.7186   -0.0338 H   0  0  0  0  0  0  0  0  0  0  0  0
    5.1312    3.2995   -1.7392 H   0  0  0  0  0  0  0  0  0  0  0  0
    3.6385    1.2135   -0.9105 H   0  0  0  0  0  0  0  0  0  0  0  0
    3.9777    1.8451    0.6989 H   0  0  0  0  0  0  0  0  0  0  0  0
    2.7506    3.2629   -1.7096 H   0  0  0  0  0  0  0  0  0  0  0  0
    2.8551    4.0255   -0.0895 H   0  0  0  0  0  0  0  0  0  0  0  0
    0.5749    2.9974   -0.5743 H   0  0  0  0  0  0  0  0  0  0  0  0
    1.3907    1.4848   -0.9930 H   0  0  0  0  0  0  0  0  0  0  0  0
    2.2155    1.1385    1.2682 H   0  0  0  0  0  0  0  0  0  0  0  0
    1.5548    2.7779    1.8346 H   0  0  0  0  0  0  0  0  0  0  0  0
   -0.6738    1.9755    1.3375 H   0  0  0  0  0  0  0  0  0  0  0  0
    0.2346    0.9418    2.5870 H   0  0  0  0  0  0  0  0  0  0  0  0
   -0.1693    0.2066   -0.3726 H   0  0  0  0  0  0  0  0  0  0  0  0
    0.6940   -0.7255    0.8587 H   0  0  0  0  0  0  0  0  0  0  0  0
   -1.6242   -1.4660    0.5062 H   0  0  0  0  0  0  0  0  0  0  0  0
   -1.3474   -0.9911    2.2109 H   0  0  0  0  0  0  0  0  0  0  0  0
   -2.5473    1.2432    1.6413 H   0  0  0  0  0  0  0  0  0  0  0  0
   -3.5075   -0.2491    1.3179 H   0  0  0  0  0  0  0  0  0  0  0  0
   -2.8032   -0.2406   -0.9995 H   0  0  0  0  0  0  0  0  0  0  0  0
   -1.8643    1.2645   -0.7713 H   0  0  0  0  0  0  0  0  0  0  0  0
   -3.9579    2.0445   -1.6439 H   0  0  0  0  0  0  0  0  0  0  0  0
   -3.7311    2.4870    0.0459 H   0  0  0  0  0  0  0  0  0  0  0  0
   -5.6061    0.1624   -1.9598 H   0  0  0  0  0  0  0  0  0  0  0  0
   -4.8536   -0.8886   -0.7694 H   0  0  0  0  0  0  0  0  0  0  0  0
   -6.7707   -0.5761    0.7936 H   0  0  0  0  0  0  0  0  0  0  0  0
   -6.5545   -2.5250   -0.6291 H   0  0  0  0  0  0  0  0  0  0  0  0
   -7.4434   -1.6869   -1.9489 H   0  0  0  0  0  0  0  0  0  0  0  0
  -11.3605   -3.6379   -0.7172 H   0  0  0  0  0  0  0  0  0  0  0  0
   -9.2578   -4.2511    1.4620 H   0  0  0  0  0  0  0  0  0  0  0  0
   -8.8399    0.1241    1.2085 H   0  0  0  0  0  0  0  0  0  0  0  0
   -7.6267    1.3983    1.4215 H   0  0  0  0  0  0  0  0  0  0  0  0
   -9.2427    1.7017    0.5467 H   0  0  0  0  0  0  0  0  0  0  0  0
  1  2  1  0
  2  3  1  0
  3  4  1  0
  4  5  1  0
  5  6  1  0
  6  7  1  0
  7  8  1  0
  8  9  1  0
  9 10  1  0
 10 11  1  0
 11 12  1  0
 12 13  1  0
 13 14  1  0
 14 15  1  0
 15 16  1  0
 16 17  1  0
 17 18  1  0
 18 19  1  0
 19 20  1  0
 20 21  1  0
 21 22  1  0
 22 23  1  0
 23 24  1  0
 24 25  2  0
 24 26  1  0
 24 27  1  0
 21 28  1  0
 28 29  1  0
  1 30  1  0
  1 31  1  0
  1 32  1  0
  2 33  1  0
  2 34  1  0
  3 35  1  0
  3 36  1  0
  4 37  1  0
  4 38  1  0
  5 39  1  0
  5 40  1  0
  6 41  1  0
  6 42  1  0
  7 43  1  0
  7 44  1  0
  8 45  1  0
  8 46  1  0
  9 47  1  0
  9 48  1  0
 10 49  1  0
 10 50  1  0
 11 51  1  0
 11 52  1  0
 12 53  1  0
 12 54  1  0
 13 55  1  0
 13 56  1  0
 14 57  1  0
 14 58  1  0
 15 59  1  0
 15 60  1  0
 16 61  1  0
 16 62  1  0
 17 63  1  0
 17 64  1  0
 18 65  1  0
 18 66  1  0
 20 67  1  0
 20 68  1  0
 21 69  1  1
 22 70  1  0
 22 71  1  0
 26 72  1  0
 27 73  1  0
 29 74  1  0
 29 75  1  0
 29 76  1  0
M  END
>  <Ligand ID>  (1) 
LIG0000700

>  <Ligand>  (1) 
CHEMBL2335048

>  <SMILES>  (1) 
CCCCCCCCCCCCCCCCCCOC[C@H](COP(=S)(O)O)OC

>  <CID>  (1) 
71719457.0

>  <ChEMBL ID>  (1) 
nan

>  <InChiKey>  (1) 
JYAROLONGLXUOT-JOCHJYFZSA-N

>  <InChi>  (1) 
InChI=1S/C22H47O5PS/c1-3-4-5-6-7-8-9-10-11-12-13-14-15-16-17-18-19-26-20-22(25-2)21-27-28(23,24)29/h22H,3-21H2,1-2H3,(H2,23,24,29)/t22-/m1/s1

>  <IUPAC Name>  (1) 
dihydroxy-[(2R)-2-methoxy-3-octadecoxypropoxy]-sulfanylidene-lambda5-phosphane

$$$$
