
     RDKit          3D

 53 57  0  0  0  0  0  0  0  0999 V2000
   -4.5615    4.7629    1.8970 Cl  0  0  0  0  0  0  0  0  0  0  0  0
   -3.9640    3.1346    1.5488 C   0  0  0  0  0  0  0  0  0  0  0  0
   -2.9116    2.5947    2.2987 C   0  0  0  0  0  0  0  0  0  0  0  0
   -2.4476    1.3120    2.0174 C   0  0  0  0  0  0  0  0  0  0  0  0
   -3.0040    0.5506    1.0079 C   0  0  0  0  0  0  0  0  0  0  0  0
   -4.0524    1.0989    0.2670 C   0  0  0  0  0  0  0  0  0  0  0  0
   -4.5267    2.3757    0.5343 C   0  0  0  0  0  0  0  0  0  0  0  0
   -2.5665   -0.8079    0.6559 C   0  0  0  0  0  0  0  0  0  0  0  0
   -1.5149   -0.8538   -0.3558 C   0  0  0  0  0  0  0  0  0  0  0  0
   -1.7097   -0.7186   -1.7145 C   0  0  0  0  0  0  0  0  0  0  0  0
   -0.6900   -0.7741   -2.6406 C   0  0  0  0  0  0  0  0  0  0  0  0
    0.6180   -0.9738   -2.2399 C   0  0  0  0  0  0  0  0  0  0  0  0
    0.8287   -1.1103   -0.8817 C   0  0  0  0  0  0  0  0  0  0  0  0
   -0.1860   -1.0557    0.0396 C   0  0  0  0  0  0  0  0  0  0  0  0
    2.1202   -1.3171   -0.4563 C   0  0  0  0  0  0  0  0  0  0  0  0
    2.5188   -1.4513    0.9629 C   0  0  0  0  0  0  0  0  0  0  0  0
    2.6252   -0.1335    1.6584 C   0  0  0  0  0  0  0  0  0  0  0  0
    3.6148    0.7868    1.0720 C   0  0  0  0  0  0  0  0  0  0  0  0
    3.2743    1.6829    0.0772 C   0  0  0  0  0  0  0  0  0  0  0  0
    4.2123    2.5369   -0.4628 C   0  0  0  0  0  0  0  0  0  0  0  0
    5.5300    2.5223   -0.0223 C   0  0  0  0  0  0  0  0  0  0  0  0
    5.8912    1.6271    0.9784 C   0  0  0  0  0  0  0  0  0  0  0  0
    4.9197    0.7731    1.5075 C   0  0  0  0  0  0  0  0  0  0  0  0
    7.5395    1.5551    1.5821 Cl  0  0  0  0  0  0  0  0  0  0  0  0
    3.1253   -1.3764   -1.4186 C   0  0  0  0  0  0  0  0  0  0  0  0
    2.8390   -1.2316   -2.7602 C   0  0  0  0  0  0  0  0  0  0  0  0
    3.7185   -1.2787   -3.6642 O   0  0  0  0  0  0  0  0  0  0  0  0
    1.5668   -1.0282   -3.1624 N   0  0  0  0  0  0  0  0  0  0  0  0
   -3.7054   -1.6358    0.2210 C   0  0  0  0  0  0  0  0  0  0  0  0
   -4.2226   -1.8632   -0.8793 N   0  0  0  0  0  0  0  0  0  0  0  0
   -5.2515   -2.6351   -1.1232 C   0  0  0  0  0  0  0  0  0  0  0  0
   -5.7815   -3.2414    0.0201 C   0  0  0  0  0  0  0  0  0  0  0  0
   -4.6999   -2.6119    1.3849 S   0  0  0  0  0  0  0  0  0  0  0  0
   -2.4541    3.1843    3.1077 H   0  0  0  0  0  0  0  0  0  0  0  0
   -1.6319    0.8851    2.5938 H   0  0  0  0  0  0  0  0  0  0  0  0
   -4.5040    0.5015   -0.5400 H   0  0  0  0  0  0  0  0  0  0  0  0
   -5.3492    2.7897   -0.0565 H   0  0  0  0  0  0  0  0  0  0  0  0
   -2.1788   -1.2749    1.5920 H   0  0  0  0  0  0  0  0  0  0  0  0
   -2.7031   -0.5560   -2.0990 H   0  0  0  0  0  0  0  0  0  0  0  0
   -0.9100   -0.6595   -3.7090 H   0  0  0  0  0  0  0  0  0  0  0  0
   -0.0077   -1.1724    1.0774 H   0  0  0  0  0  0  0  0  0  0  0  0
    3.4390   -2.0728    1.0651 H   0  0  0  0  0  0  0  0  0  0  0  0
    1.7613   -2.0323    1.5662 H   0  0  0  0  0  0  0  0  0  0  0  0
    1.6482    0.3778    1.6130 H   0  0  0  0  0  0  0  0  0  0  0  0
    2.8692   -0.2364    2.7273 H   0  0  0  0  0  0  0  0  0  0  0  0
    2.2543    1.7161   -0.2852 H   0  0  0  0  0  0  0  0  0  0  0  0
    3.9913    3.2561   -1.2450 H   0  0  0  0  0  0  0  0  0  0  0  0
    6.2878    3.1925   -0.4393 H   0  0  0  0  0  0  0  0  0  0  0  0
    5.2058    0.0920    2.2726 H   0  0  0  0  0  0  0  0  0  0  0  0
    4.1427   -1.5389   -1.1018 H   0  0  0  0  0  0  0  0  0  0  0  0
    1.3069   -0.9122   -4.1812 H   0  0  0  0  0  0  0  0  0  0  0  0
   -5.6921   -2.8233   -2.0933 H   0  0  0  0  0  0  0  0  0  0  0  0
   -6.6220   -3.9319    0.1857 H   0  0  0  0  0  0  0  0  0  0  0  0
  1  2  1  0
  2  3  2  0
  3  4  1  0
  4  5  2  0
  5  6  1  0
  6  7  2  0
  5  8  1  0
  8  9  1  0
  9 10  2  0
 10 11  1  0
 11 12  2  0
 12 13  1  0
 13 14  2  0
 13 15  1  0
 15 16  1  0
 16 17  1  0
 17 18  1  0
 18 19  2  0
 19 20  1  0
 20 21  2  0
 21 22  1  0
 22 23  2  0
 22 24  1  0
 15 25  2  0
 25 26  1  0
 26 27  2  0
 26 28  1  0
  8 29  1  0
 29 30  2  0
 30 31  1  0
 31 32  2  0
 32 33  1  0
  7  2  1  0
 14  9  1  0
 23 18  1  0
 33 29  1  0
 28 12  1  0
  3 34  1  0
  4 35  1  0
  6 36  1  0
  7 37  1  0
  8 38  1  0
 10 39  1  0
 11 40  1  0
 14 41  1  0
 16 42  1  0
 16 43  1  0
 17 44  1  0
 17 45  1  0
 19 46  1  0
 20 47  1  0
 21 48  1  0
 23 49  1  0
 25 50  1  0
 28 51  1  0
 31 52  1  0
 32 53  1  0
M  END
>  <Ligand ID>  (1) 
LIG0005840

>  <Ligand>  (1) 
CHEMBL3957524

>  <SMILES>  (1) 
Clc1ccc(cc1)C(c1ccc2c(c1)c(CCc1cccc(c1)Cl)cc(=O)[nH]2)c1nccs1

>  <CID>  (1) 
118323983.0

>  <ChEMBL ID>  (1) 
nan

>  <InChiKey>  (1) 
QRHVHCOQSXTVEG-UHFFFAOYSA-N

>  <InChi>  (1) 
InChI=1S/C27H20Cl2N2OS/c28-21-9-6-18(7-10-21)26(27-30-12-13-33-27)20-8-11-24-23(15-20)19(16-25(32)31-24)5-4-17-2-1-3-22(29)14-17/h1-3,6-16,26H,4-5H2,(H,31,32)

>  <IUPAC Name>  (1) 
4-[2-(3-chlorophenyl)ethyl]-6-[(4-chlorophenyl)-(1,3-thiazol-2-yl)methyl]-1H-quinolin-2-one

$$$$
