
     RDKit          3D

 22 22  0  0  0  0  0  0  0  0999 V2000
    3.7098    0.5876    0.9836 N   0  0  0  0  0  0  0  0  0  0  0  0
    2.2686    0.4302    1.1611 C   0  0  0  0  0  0  0  0  0  0  0  0
    1.7075    0.2079   -0.2180 C   0  0  0  0  0  0  0  0  0  0  0  0
    0.2390    0.0234   -0.2545 C   0  0  0  0  0  0  0  0  0  0  0  0
   -0.3057   -1.2308   -0.1418 C   0  0  0  0  0  0  0  0  0  0  0  0
   -1.6745   -1.4075   -0.1754 C   0  0  0  0  0  0  0  0  0  0  0  0
   -2.5075   -0.3007   -0.3251 C   0  0  0  0  0  0  0  0  0  0  0  0
   -1.9908    0.9566   -0.4392 C   0  0  0  0  0  0  0  0  0  0  0  0
   -0.6203    1.1095   -0.4030 C   0  0  0  0  0  0  0  0  0  0  0  0
   -2.8551    2.0429   -0.5878 O   0  0  0  0  0  0  0  0  0  0  0  0
   -3.8785   -0.5003   -0.3562 O   0  0  0  0  0  0  0  0  0  0  0  0
    4.0341   -0.2855    0.5091 H   0  0  0  0  0  0  0  0  0  0  0  0
    3.8312    1.3974    0.3331 H   0  0  0  0  0  0  0  0  0  0  0  0
    2.0365   -0.4090    1.8546 H   0  0  0  0  0  0  0  0  0  0  0  0
    1.8477    1.3460    1.6261 H   0  0  0  0  0  0  0  0  0  0  0  0
    2.2741   -0.6085   -0.7096 H   0  0  0  0  0  0  0  0  0  0  0  0
    1.9557    1.1475   -0.7928 H   0  0  0  0  0  0  0  0  0  0  0  0
    0.3454   -2.0862   -0.0259 H   0  0  0  0  0  0  0  0  0  0  0  0
   -2.0489   -2.4112   -0.0828 H   0  0  0  0  0  0  0  0  0  0  0  0
   -0.2236    2.1310   -0.4966 H   0  0  0  0  0  0  0  0  0  0  0  0
   -3.8043    2.0058   -0.2488 H   0  0  0  0  0  0  0  0  0  0  0  0
   -4.3401   -0.8042   -1.2099 H   0  0  0  0  0  0  0  0  0  0  0  0
  1  2  1  0
  2  3  1  0
  3  4  1  0
  4  5  2  0
  5  6  1  0
  6  7  2  0
  7  8  1  0
  8  9  2  0
  8 10  1  0
  7 11  1  0
  9  4  1  0
  1 12  1  0
  1 13  1  0
  2 14  1  0
  2 15  1  0
  3 16  1  0
  3 17  1  0
  5 18  1  0
  6 19  1  0
  9 20  1  0
 10 21  1  0
 11 22  1  0
M  END
>  <Ligand ID>  (1) 
LIG0000584

>  <Ligand>  (1) 
dopamine

>  <SMILES>  (1) 
NCCc1ccc(c(c1)O)O

>  <CID>  (1) 
681.0

>  <ChEMBL ID>  (1) 
nan

>  <InChiKey>  (1) 
VYFYYTLLBUKUHU-UHFFFAOYSA-N

>  <InChi>  (1) 
InChI=1S/C8H11NO2/c9-4-3-6-1-2-7(10)8(11)5-6/h1-2,5,10-11H,3-4,9H2

>  <IUPAC Name>  (1) 
4-(2-aminoethyl)benzene-1,2-diol

$$$$
