
     RDKit          3D

 33 34  0  0  0  0  0  0  0  0999 V2000
    1.0268   -1.6968    2.5076 O   0  0  0  0  0  0  0  0  0  0  0  0
    0.3837   -1.1906    1.5598 C   0  0  0  0  0  0  0  0  0  0  0  0
    0.9935   -0.4523    0.5228 N   0  0  0  0  0  0  0  0  0  0  0  0
    2.3661   -0.1746    0.3877 C   0  0  0  0  0  0  0  0  0  0  0  0
    2.7702    0.5722   -0.7087 C   0  0  0  0  0  0  0  0  0  0  0  0
    4.0969    0.8821   -0.9053 C   0  0  0  0  0  0  0  0  0  0  0  0
    5.1002    0.4789   -0.0410 C   0  0  0  0  0  0  0  0  0  0  0  0
    4.7033   -0.2640    1.0507 C   0  0  0  0  0  0  0  0  0  0  0  0
    3.3553   -0.5768    1.2472 C   0  0  0  0  0  0  0  0  0  0  0  0
    7.1074    0.9619   -0.3609 I   0  0  0  0  0  0  0  0  0  0  0  0
   -1.0920   -1.4028    1.5680 C   0  0  0  0  0  0  0  0  0  0  0  0
   -1.7632   -0.7944    0.4515 N   0  0  0  0  0  0  0  0  0  0  0  0
   -2.2256    0.5197    0.5632 N   0  0  0  0  0  0  0  0  0  0  0  0
   -2.8211    1.0749   -0.4169 C   0  0  0  0  0  0  0  0  0  0  0  0
   -3.2887    2.4758   -0.2317 C   0  0  0  0  0  0  0  0  0  0  0  0
   -3.0865    0.4455   -1.7304 C   0  0  0  0  0  0  0  0  0  0  0  0
   -3.1064   -1.0447   -1.6152 C   0  0  0  0  0  0  0  0  0  0  0  0
   -1.9695   -1.4954   -0.7695 C   0  0  0  0  0  0  0  0  0  0  0  0
   -1.2052   -2.4435   -1.0804 O   0  0  0  0  0  0  0  0  0  0  0  0
    0.3278   -0.0794   -0.2180 H   0  0  0  0  0  0  0  0  0  0  0  0
    2.0401    0.9347   -1.4474 H   0  0  0  0  0  0  0  0  0  0  0  0
    4.3494    1.4665   -1.7775 H   0  0  0  0  0  0  0  0  0  0  0  0
    5.4622   -0.6018    1.7566 H   0  0  0  0  0  0  0  0  0  0  0  0
    3.1387   -1.1557    2.1186 H   0  0  0  0  0  0  0  0  0  0  0  0
   -1.2799   -2.4932    1.5564 H   0  0  0  0  0  0  0  0  0  0  0  0
   -1.5736   -1.0195    2.5017 H   0  0  0  0  0  0  0  0  0  0  0  0
   -4.3634    2.4121    0.0426 H   0  0  0  0  0  0  0  0  0  0  0  0
   -2.7770    2.9812    0.6001 H   0  0  0  0  0  0  0  0  0  0  0  0
   -3.2151    2.9972   -1.1933 H   0  0  0  0  0  0  0  0  0  0  0  0
   -2.2539    0.7829   -2.4066 H   0  0  0  0  0  0  0  0  0  0  0  0
   -4.0701    0.7926   -2.1524 H   0  0  0  0  0  0  0  0  0  0  0  0
   -3.0891   -1.5749   -2.5695 H   0  0  0  0  0  0  0  0  0  0  0  0
   -4.0413   -1.3177   -1.0689 H   0  0  0  0  0  0  0  0  0  0  0  0
  1  2  2  0
  2  3  1  0
  3  4  1  0
  4  5  2  0
  5  6  1  0
  6  7  2  0
  7  8  1  0
  8  9  2  0
  7 10  1  0
  2 11  1  0
 11 12  1  0
 12 13  1  0
 13 14  2  0
 14 15  1  0
 14 16  1  0
 16 17  1  0
 17 18  1  0
 18 19  2  0
  9  4  1  0
 18 12  1  0
  3 20  1  0
  5 21  1  0
  6 22  1  0
  8 23  1  0
  9 24  1  0
 11 25  1  0
 11 26  1  0
 15 27  1  0
 15 28  1  0
 15 29  1  0
 16 30  1  0
 16 31  1  0
 17 32  1  0
 17 33  1  0
M  END
>  <Ligand ID>  (1) 
LIG0003961

>  <Ligand>  (1) 
CHEMBL2391444

>  <SMILES>  (1) 
O=C(Nc1ccc(cc1)I)CN1N=C(C)CCC1=O

>  <CID>  (1) 
71699140.0

>  <ChEMBL ID>  (1) 
nan

>  <InChiKey>  (1) 
LFQQXAZIDQFKMO-UHFFFAOYSA-N

>  <InChi>  (1) 
InChI=1S/C13H14IN3O2/c1-9-2-7-13(19)17(16-9)8-12(18)15-11-5-3-10(14)4-6-11/h3-6H,2,7-8H2,1H3,(H,15,18)

>  <IUPAC Name>  (1) 
N-(4-iodophenyl)-2-(3-methyl-6-oxo-4,5-dihydropyridazin-1-yl)acetamide

$$$$
