
     RDKit          3D

 24 24  0  0  0  0  0  0  0  0999 V2000
    0.7247   -2.8788    0.5394 C   0  0  0  0  0  0  0  0  0  0  0  0
   -0.0777   -1.7480    0.4042 O   0  0  0  0  0  0  0  0  0  0  0  0
    0.3694   -0.4502    0.3728 C   0  0  0  0  0  0  0  0  0  0  0  0
    1.7224   -0.1755    0.4800 C   0  0  0  0  0  0  0  0  0  0  0  0
    2.2080    1.1142    0.4525 C   0  0  0  0  0  0  0  0  0  0  0  0
    3.6367    1.3839    0.5669 C   0  0  0  0  0  0  0  0  0  0  0  0
    4.0246    2.5920    0.5351 O   0  0  0  0  0  0  0  0  0  0  0  0
    1.2931    2.1295    0.3135 C   0  0  0  0  0  0  0  0  0  0  0  0
   -0.0643    1.8614    0.2055 C   0  0  0  0  0  0  0  0  0  0  0  0
   -0.5500    0.5705    0.2331 C   0  0  0  0  0  0  0  0  0  0  0  0
   -1.9155    0.3093    0.1240 O   0  0  0  0  0  0  0  0  0  0  0  0
   -2.5692    0.1014   -1.0784 C   0  0  0  0  0  0  0  0  0  0  0  0
   -1.9714    0.1322   -2.1897 O   0  0  0  0  0  0  0  0  0  0  0  0
   -4.0313   -0.1712   -1.0985 C   0  0  0  0  0  0  0  0  0  0  0  0
    0.0629   -3.7671    0.4293 H   0  0  0  0  0  0  0  0  0  0  0  0
    1.2038   -2.9689    1.5348 H   0  0  0  0  0  0  0  0  0  0  0  0
    1.5212   -2.8584   -0.2379 H   0  0  0  0  0  0  0  0  0  0  0  0
    2.4593   -0.9623    0.5902 H   0  0  0  0  0  0  0  0  0  0  0  0
    4.3168    0.5497    0.6746 H   0  0  0  0  0  0  0  0  0  0  0  0
    1.6359    3.1626    0.2873 H   0  0  0  0  0  0  0  0  0  0  0  0
   -0.7875    2.6717    0.0952 H   0  0  0  0  0  0  0  0  0  0  0  0
   -4.4743    0.3967   -0.2361 H   0  0  0  0  0  0  0  0  0  0  0  0
   -4.2840   -1.2303   -0.9761 H   0  0  0  0  0  0  0  0  0  0  0  0
   -4.4538    0.2354   -2.0215 H   0  0  0  0  0  0  0  0  0  0  0  0
  1  2  1  0
  2  3  1  0
  3  4  2  0
  4  5  1  0
  5  6  1  0
  6  7  2  0
  5  8  2  0
  8  9  1  0
  9 10  2  0
 10 11  1  0
 11 12  1  0
 12 13  2  0
 12 14  1  0
 10  3  1  0
  1 15  1  0
  1 16  1  0
  1 17  1  0
  4 18  1  0
  6 19  1  0
  8 20  1  0
  9 21  1  0
 14 22  1  0
 14 23  1  0
 14 24  1  0
M  END
>  <Ligand ID>  (1) 
LIG0005039

>  <Ligand>  (1) 
Vanillin acetate

>  <SMILES>  (1) 
COc1cc(C=O)ccc1OC(=O)C

>  <CID>  (1) 
61229.0

>  <ChEMBL ID>  (1) 
nan

>  <InChiKey>  (1) 
PZSJOBKRSVRODF-UHFFFAOYSA-N

>  <InChi>  (1) 
InChI=1S/C10H10O4/c1-7(12)14-9-4-3-8(6-11)5-10(9)13-2/h3-6H,1-2H3

>  <IUPAC Name>  (1) 
(4-formyl-2-methoxyphenyl) acetate

$$$$
