
     RDKit          3D

 67 69  0  0  0  0  0  0  0  0999 V2000
   -1.0547    0.1480    0.0004 C   0  0  0  0  0  0  0  0  0  0  0  0
    0.5806   -0.5410    0.0139 S   0  0  0  0  0  0  0  0  0  0  0  0
    0.8780   -1.2572    1.2986 O   0  0  0  0  0  0  0  0  0  0  0  0
    0.7936   -1.5139   -1.0996 O   0  0  0  0  0  0  0  0  0  0  0  0
    1.6896    0.7235   -0.2260 O   0  0  0  0  0  0  0  0  0  0  0  0
    2.2012   -0.3781   -0.9027 O   0  0  0  0  0  0  0  0  0  0  0  0
    2.2055    0.1637    0.2340 C   0  0  0  0  0  0  0  0  0  0  0  0
    0.9762    0.1451    0.9520 N   0  0  0  0  0  0  0  0  0  0  0  0
   -0.1968   -0.4600    0.4013 C   0  0  1  0  0  0  0  0  0  0  0  0
   -0.5236   -1.6447    1.3229 C   0  0  0  0  0  0  0  0  0  0  0  0
   -1.4812   -2.4715    0.5391 C   0  0  0  0  0  0  0  0  0  0  0  0
   -2.7960   -1.7368    0.4401 C   0  0  2  0  0  0  0  0  0  0  0  0
   -2.7107   -0.2708    0.6501 C   0  0  0  0  0  0  0  0  0  0  0  0
   -1.4141    0.3936    0.3619 C   0  0  2  0  0  0  0  0  0  0  0  0
   -1.4192    1.1277   -0.8921 N   0  0  0  0  0  0  0  0  0  0  0  0
   -0.2914    1.9833   -1.0634 C   0  0  0  0  0  0  0  0  0  0  0  0
   -0.8232    3.3277   -1.5780 C   0  0  0  0  0  0  0  0  0  0  0  0
   -2.1437    2.9231   -2.1515 C   0  0  0  0  0  0  0  0  0  0  0  0
   -2.6097    1.8707   -1.1459 C   0  0  0  0  0  0  0  0  0  0  0  0
   -3.7074   -2.3937    1.4579 C   0  0  0  0  0  0  0  0  0  0  0  0
   -4.4854   -3.3712    0.5755 C   0  0  0  0  0  0  0  0  0  0  0  0
   -4.5505   -2.5514   -0.6956 C   0  0  0  0  0  0  0  0  0  0  0  0
   -3.2811   -2.0600   -0.8205 O   0  0  0  0  0  0  0  0  0  0  0  0
    0.8818    0.7437    2.2712 C   0  0  0  0  0  0  0  0  0  0  0  0
    3.4223    0.7924    0.8067 C   0  0  0  0  0  0  0  0  0  0  0  0
    4.4927    0.6133   -0.2287 C   0  0  0  0  0  0  0  0  0  0  0  0
    5.2566   -0.5543   -0.1373 C   0  0  0  0  0  0  0  0  0  0  0  0
    6.2519   -0.7513   -1.0758 C   0  0  0  0  0  0  0  0  0  0  0  0
    6.5161    0.1499   -2.0864 C   0  0  0  0  0  0  0  0  0  0  0  0
    5.7394    1.2833   -2.1363 C   0  0  0  0  0  0  0  0  0  0  0  0
    4.7332    1.5227   -1.2196 C   0  0  0  0  0  0  0  0  0  0  0  0
    6.0421    2.4600   -3.4095 Cl  0  0  0  0  0  0  0  0  0  0  0  0
    7.7956   -0.1761   -3.2358 Cl  0  0  0  0  0  0  0  0  0  0  0  0
   -1.0058    1.2511    0.0688 H   0  0  0  0  0  0  0  0  0  0  0  0
   -1.5055   -0.0940   -0.9981 H   0  0  0  0  0  0  0  0  0  0  0  0
   -1.6919   -0.2961    0.8080 H   0  0  0  0  0  0  0  0  0  0  0  0
    1.3161    1.5796    0.1340 H   0  0  0  0  0  0  0  0  0  0  0  0
   -0.0302   -0.8916   -0.6102 H   0  0  0  0  0  0  0  0  0  0  0  0
   -1.1081   -1.2061    2.1770 H   0  0  0  0  0  0  0  0  0  0  0  0
    0.3666   -2.1527    1.6988 H   0  0  0  0  0  0  0  0  0  0  0  0
   -1.0291   -2.6802   -0.4428 H   0  0  0  0  0  0  0  0  0  0  0  0
   -1.5708   -3.4567    1.0577 H   0  0  0  0  0  0  0  0  0  0  0  0
   -3.0377   -0.0338    1.6851 H   0  0  0  0  0  0  0  0  0  0  0  0
   -3.4793    0.2158    0.0097 H   0  0  0  0  0  0  0  0  0  0  0  0
   -1.2317    1.2022    1.1314 H   0  0  0  0  0  0  0  0  0  0  0  0
    0.2218    2.2462   -0.1176 H   0  0  0  0  0  0  0  0  0  0  0  0
    0.3506    1.5822   -1.8532 H   0  0  0  0  0  0  0  0  0  0  0  0
   -0.1388    3.7221   -2.3616 H   0  0  0  0  0  0  0  0  0  0  0  0
   -0.9811    4.0468   -0.7412 H   0  0  0  0  0  0  0  0  0  0  0  0
   -1.9712    2.4075   -3.1082 H   0  0  0  0  0  0  0  0  0  0  0  0
   -2.8662    3.7579   -2.2341 H   0  0  0  0  0  0  0  0  0  0  0  0
   -3.0529    2.3897   -0.2958 H   0  0  0  0  0  0  0  0  0  0  0  0
   -3.3736    1.2771   -1.7294 H   0  0  0  0  0  0  0  0  0  0  0  0
   -4.4489   -1.6487    1.7977 H   0  0  0  0  0  0  0  0  0  0  0  0
   -3.1922   -2.9013    2.2715 H   0  0  0  0  0  0  0  0  0  0  0  0
   -3.8905   -4.3059    0.3987 H   0  0  0  0  0  0  0  0  0  0  0  0
   -5.4634   -3.5955    1.0077 H   0  0  0  0  0  0  0  0  0  0  0  0
   -4.7249   -3.2175   -1.5847 H   0  0  0  0  0  0  0  0  0  0  0  0
   -5.2973   -1.7570   -0.5909 H   0  0  0  0  0  0  0  0  0  0  0  0
    1.0024    1.8513    2.2539 H   0  0  0  0  0  0  0  0  0  0  0  0
    1.8045    0.3797    2.8123 H   0  0  0  0  0  0  0  0  0  0  0  0
    0.0221    0.3846    2.8398 H   0  0  0  0  0  0  0  0  0  0  0  0
    3.7555    0.3424    1.7479 H   0  0  0  0  0  0  0  0  0  0  0  0
    3.2816    1.8786    0.9935 H   0  0  0  0  0  0  0  0  0  0  0  0
    5.0512   -1.2611    0.6533 H   0  0  0  0  0  0  0  0  0  0  0  0
    6.8219   -1.6813   -0.9606 H   0  0  0  0  0  0  0  0  0  0  0  0
    4.1289    2.4250   -1.2749 H   0  0  0  0  0  0  0  0  0  0  0  0
  1  2  1  0
  2  3  2  0
  2  4  2  0
  2  5  1  0
  6  7  2  0
  7  8  1  0
  8  9  1  0
  9 10  1  0
 10 11  1  0
 11 12  1  0
 12 13  1  0
 13 14  1  0
 14 15  1  0
 15 16  1  0
 16 17  1  0
 17 18  1  0
 18 19  1  0
 12 20  1  0
 20 21  1  0
 21 22  1  0
 22 23  1  0
  8 24  1  0
  7 25  1  0
 25 26  1  0
 26 27  2  0
 27 28  1  0
 28 29  2  0
 29 30  1  0
 30 31  2  0
 30 32  1  0
 29 33  1  0
 14  9  1  0
 19 15  1  0
 31 26  1  0
 12 23  1  6
  1 34  1  0
  1 35  1  0
  1 36  1  0
  5 37  1  0
  9 38  1  6
 10 39  1  0
 10 40  1  0
 11 41  1  0
 11 42  1  0
 13 43  1  0
 13 44  1  0
 14 45  1  1
 16 46  1  0
 16 47  1  0
 17 48  1  0
 17 49  1  0
 18 50  1  0
 18 51  1  0
 19 52  1  0
 19 53  1  0
 20 54  1  0
 20 55  1  0
 21 56  1  0
 21 57  1  0
 22 58  1  0
 22 59  1  0
 24 60  1  0
 24 61  1  0
 24 62  1  0
 25 63  1  0
 25 64  1  0
 27 65  1  0
 28 66  1  0
 31 67  1  0
M  END
>  <Ligand ID>  (1) 
LIG0004505

>  <Ligand>  (1) 
Spiradoline mesylate [USAN]

>  <SMILES>  (1) 
CS(=O)(=O)O.O=C(N([C@H]1CC[C@]2(C[C@@H]1N1CCCC1)CCCO2)C)Cc1ccc(c(c1)Cl)Cl

>  <CID>  (1) 
55651.0

>  <ChEMBL ID>  (1) 
nan

>  <InChiKey>  (1) 
FHEZDPDAYTVKKG-JLBKCEDKSA-N

>  <InChi>  (1) 
InChI=1S/C22H30Cl2N2O2.CH4O3S/c1-25(21(27)14-16-5-6-17(23)18(24)13-16)19-7-9-22(8-4-12-28-22)15-20(19)26-10-2-3-11-26;1-5(2,3)4/h5-6,13,19-20H,2-4,7-12,14-15H2,1H3;1H3,(H,2,3,4)/t19-,20-,22-;/m0./s1

>  <IUPAC Name>  (1) 
2-(3,4-dichlorophenyl)-N-methyl-N-[(5R,7S,8S)-7-pyrrolidin-1-yl-1-oxaspiro[4.5]decan-8-yl]acetamide;methanesulfonic acid

$$$$
