
     RDKit          3D

177182  0  0  0  0  0  0  0  0999 V2000
   13.8932   -1.6496    5.9360 C   0  0  0  0  0  0  0  0  0  0  0  0
   12.8490   -1.2804    5.0243 N   0  0  0  0  0  0  0  0  0  0  0  0
   12.7198   -1.6979    3.8120 C   0  0  0  0  0  0  0  0  0  0  0  0
   11.6232   -1.2251    3.0564 N   0  0  0  0  0  0  0  0  0  0  0  0
   10.3853   -0.7331    3.6370 C   0  0  0  0  0  0  0  0  0  0  0  0
    9.4140   -0.3401    2.5873 C   0  0  0  0  0  0  0  0  0  0  0  0
    9.8783    0.7629    1.6565 C   0  0  0  0  0  0  0  0  0  0  0  0
    8.7700    0.9922    0.6220 C   0  0  1  0  0  0  0  0  0  0  0  0
    9.0711    2.0285   -0.3612 C   0  0  0  0  0  0  0  0  0  0  0  0
    9.0388    3.2358    0.0408 O   0  0  0  0  0  0  0  0  0  0  0  0
    9.3946    1.8498   -1.7258 N   0  0  0  0  0  0  0  0  0  0  0  0
    9.5950    3.0084   -2.5405 C   0  0  2  0  0  0  0  0  0  0  0  0
    9.1433    2.8468   -3.9495 C   0  0  0  0  0  0  0  0  0  0  0  0
    8.6248    1.7595   -4.3624 O   0  0  0  0  0  0  0  0  0  0  0  0
    9.3174    3.9634   -4.8105 N   0  0  0  0  0  0  0  0  0  0  0  0
   10.9890    3.5373   -2.4798 C   0  0  0  0  0  0  0  0  0  0  0  0
   12.0279    2.5918   -2.8957 C   0  0  0  0  0  0  0  0  0  0  0  0
   12.5105    2.4841   -4.2029 C   0  0  0  0  0  0  0  0  0  0  0  0
   13.4338    1.4903   -4.2188 N   0  0  0  0  0  0  0  0  0  0  0  0
   13.5799    0.9494   -3.0019 C   0  0  0  0  0  0  0  0  0  0  0  0
   12.7073    1.6340   -2.1899 C   0  0  0  0  0  0  0  0  0  0  0  0
   12.6123    1.3427   -0.8331 C   0  0  0  0  0  0  0  0  0  0  0  0
   13.4277    0.3450   -0.3581 C   0  0  0  0  0  0  0  0  0  0  0  0
   14.3087   -0.3578   -1.1421 C   0  0  0  0  0  0  0  0  0  0  0  0
   14.3967   -0.0606   -2.4945 C   0  0  0  0  0  0  0  0  0  0  0  0
    8.4379   -0.3265    0.0791 N   0  0  0  0  0  0  0  0  0  0  0  0
    7.0880   -0.6277   -0.0801 C   0  0  0  0  0  0  0  0  0  0  0  0
    6.2848    0.3573    0.2330 O   0  0  0  0  0  0  0  0  0  0  0  0
    6.3996   -1.8171   -0.5192 C   0  0  1  0  0  0  0  0  0  0  0  0
    5.0205   -1.3782   -0.8479 N   0  0  0  0  0  0  0  0  0  0  0  0
    4.0807   -1.0583    0.1560 C   0  0  0  0  0  0  0  0  0  0  0  0
    4.3442   -1.1141    1.3903 O   0  0  0  0  0  0  0  0  0  0  0  0
    2.7877   -0.6485   -0.2165 N   0  0  0  0  0  0  0  0  0  0  0  0
    1.7983   -0.2451    0.7066 N   0  0  0  0  0  0  0  0  0  0  0  0
    0.4990    0.1011    0.2944 C   0  0  0  0  0  0  0  0  0  0  0  0
    0.1619    0.0386   -0.9453 O   0  0  0  0  0  0  0  0  0  0  0  0
   -0.5848    0.5651    1.2019 C   0  0  1  0  0  0  0  0  0  0  0  0
   -1.8149    0.8060    0.4827 N   0  0  0  0  0  0  0  0  0  0  0  0
   -2.0093    2.0574   -0.1597 C   0  0  0  0  0  0  0  0  0  0  0  0
   -1.1260    2.9207   -0.1037 O   0  0  0  0  0  0  0  0  0  0  0  0
   -3.2578    2.3712   -0.9144 C   0  0  2  0  0  0  0  0  0  0  0  0
   -3.6934    3.7781   -0.8673 C   0  0  2  0  0  0  0  0  0  0  0  0
   -2.6199    4.6819   -1.0564 O   0  0  0  0  0  0  0  0  0  0  0  0
   -4.5753    4.2029    0.2534 C   0  0  0  0  0  0  0  0  0  0  0  0
   -4.3044    1.4424   -0.7100 N   0  0  0  0  0  0  0  0  0  0  0  0
   -4.7385    0.4038   -1.5699 C   0  0  0  0  0  0  0  0  0  0  0  0
   -4.2028    0.1579   -2.6864 O   0  0  0  0  0  0  0  0  0  0  0  0
   -5.9065   -0.4926   -1.1559 C   0  0  1  0  0  0  0  0  0  0  0  0
   -7.1558    0.1875   -1.1375 N   0  0  0  0  0  0  0  0  0  0  0  0
   -7.4250    1.5454   -1.3291 C   0  0  0  0  0  0  0  0  0  0  0  0
   -6.5368    2.4276   -1.5899 O   0  0  0  0  0  0  0  0  0  0  0  0
   -8.8072    2.1562   -1.2527 C   0  0  2  0  0  0  0  0  0  0  0  0
   -8.7429    3.5060   -0.6383 C   0  0  0  0  0  0  0  0  0  0  0  0
  -10.0020    4.2317   -0.4475 C   0  0  0  0  0  0  0  0  0  0  0  0
  -10.5966    5.1620   -1.2834 C   0  0  0  0  0  0  0  0  0  0  0  0
  -11.7502    5.5913   -0.7392 N   0  0  0  0  0  0  0  0  0  0  0  0
  -11.9462    4.9731    0.4408 C   0  0  0  0  0  0  0  0  0  0  0  0
  -10.8604    4.1223    0.6316 C   0  0  0  0  0  0  0  0  0  0  0  0
  -10.8655    3.4013    1.8148 C   0  0  0  0  0  0  0  0  0  0  0  0
  -11.8691    3.5076    2.7518 C   0  0  0  0  0  0  0  0  0  0  0  0
  -12.9264    4.3594    2.5296 C   0  0  0  0  0  0  0  0  0  0  0  0
  -12.9590    5.0990    1.3548 C   0  0  0  0  0  0  0  0  0  0  0  0
   -9.8224    1.3160   -0.7791 N   0  0  0  0  0  0  0  0  0  0  0  0
  -10.5930    0.5642   -1.7283 C   0  0  0  0  0  0  0  0  0  0  0  0
  -10.3327    0.6602   -2.9706 O   0  0  0  0  0  0  0  0  0  0  0  0
  -11.6988   -0.3456   -1.3655 C   0  0  1  0  0  0  0  0  0  0  0  0
  -11.0727   -1.7586   -1.4235 C   0  0  0  0  0  0  0  0  0  0  0  0
  -12.0272   -2.8129   -1.0664 C   0  0  0  0  0  0  0  0  0  0  0  0
  -12.1141   -3.1412    0.2937 C   0  0  0  0  0  0  0  0  0  0  0  0
  -12.9540   -4.1130    0.7753 C   0  0  0  0  0  0  0  0  0  0  0  0
  -13.7360   -4.7809   -0.1410 C   0  0  0  0  0  0  0  0  0  0  0  0
  -13.7031   -4.5091   -1.4994 C   0  0  0  0  0  0  0  0  0  0  0  0
  -12.8272   -3.5061   -1.9390 C   0  0  0  0  0  0  0  0  0  0  0  0
  -14.5840   -5.7645    0.3532 O   0  0  0  0  0  0  0  0  0  0  0  0
  -12.1589   -0.2259    0.0001 N   0  0  0  0  0  0  0  0  0  0  0  0
  -13.5873   -0.1811    0.1709 C   0  0  0  0  0  0  0  0  0  0  0  0
  -14.3649   -0.2383   -0.8408 O   0  0  0  0  0  0  0  0  0  0  0  0
  -14.2408   -0.0701    1.4852 C   0  0  0  0  0  0  0  0  0  0  0  0
   -5.8415   -1.8179   -1.7875 C   0  0  0  0  0  0  0  0  0  0  0  0
   -6.9635   -2.7168   -1.4040 C   0  0  0  0  0  0  0  0  0  0  0  0
   -8.0271   -2.6257   -2.0765 O   0  0  0  0  0  0  0  0  0  0  0  0
   -6.8063   -3.6282   -0.3195 N   0  0  0  0  0  0  0  0  0  0  0  0
   -0.8050   -0.1855    2.4334 C   0  0  0  0  0  0  0  0  0  0  0  0
   -1.1645   -1.6024    2.3311 C   0  0  0  0  0  0  0  0  0  0  0  0
   -0.2671   -2.6454    2.2899 C   0  0  0  0  0  0  0  0  0  0  0  0
   -0.6912   -3.9640    2.2033 C   0  0  0  0  0  0  0  0  0  0  0  0
   -2.0472   -4.2819    2.1543 C   0  0  0  0  0  0  0  0  0  0  0  0
   -2.9524   -3.2287    2.1954 C   0  0  0  0  0  0  0  0  0  0  0  0
   -2.5073   -1.9271    2.2811 C   0  0  0  0  0  0  0  0  0  0  0  0
    6.9432   -2.8663   -1.3478 C   0  0  0  0  0  0  0  0  0  0  0  0
    8.1124   -3.6539   -0.8463 C   0  0  0  0  0  0  0  0  0  0  0  0
    7.8075   -4.3416    0.4747 C   0  0  0  0  0  0  0  0  0  0  0  0
    8.4041   -4.8410   -1.8039 C   0  0  0  0  0  0  0  0  0  0  0  0
   13.6893   -2.6097    3.3110 N   0  0  0  0  0  0  0  0  0  0  0  0
   14.7676   -0.9495    5.9184 H   0  0  0  0  0  0  0  0  0  0  0  0
   13.5468   -1.7970    6.9799 H   0  0  0  0  0  0  0  0  0  0  0  0
   14.2949   -2.6508    5.6008 H   0  0  0  0  0  0  0  0  0  0  0  0
   11.7192   -1.2384    2.0195 H   0  0  0  0  0  0  0  0  0  0  0  0
    9.9202   -1.6071    4.1820 H   0  0  0  0  0  0  0  0  0  0  0  0
   10.5282    0.0755    4.3687 H   0  0  0  0  0  0  0  0  0  0  0  0
    8.4710    0.0274    3.0577 H   0  0  0  0  0  0  0  0  0  0  0  0
    9.1309   -1.2419    2.0138 H   0  0  0  0  0  0  0  0  0  0  0  0
   10.2127    1.6617    2.1530 H   0  0  0  0  0  0  0  0  0  0  0  0
   10.7156    0.3271    1.0765 H   0  0  0  0  0  0  0  0  0  0  0  0
    7.8951    1.4092    1.2176 H   0  0  0  0  0  0  0  0  0  0  0  0
    9.4631    0.8654   -2.0689 H   0  0  0  0  0  0  0  0  0  0  0  0
    8.9532    3.8386   -2.0744 H   0  0  0  0  0  0  0  0  0  0  0  0
    8.7889    4.8477   -4.6592 H   0  0  0  0  0  0  0  0  0  0  0  0
    9.9700    3.9529   -5.6317 H   0  0  0  0  0  0  0  0  0  0  0  0
   11.1723    3.7877   -1.3847 H   0  0  0  0  0  0  0  0  0  0  0  0
   11.0914    4.4989   -3.0677 H   0  0  0  0  0  0  0  0  0  0  0  0
   12.1680    3.1137   -5.0185 H   0  0  0  0  0  0  0  0  0  0  0  0
   13.9624    1.1787   -5.0617 H   0  0  0  0  0  0  0  0  0  0  0  0
   11.9294    1.8963   -0.2145 H   0  0  0  0  0  0  0  0  0  0  0  0
   13.3369    0.1349    0.7161 H   0  0  0  0  0  0  0  0  0  0  0  0
   14.9356   -1.1228   -0.7573 H   0  0  0  0  0  0  0  0  0  0  0  0
   15.0605   -0.5646   -3.1729 H   0  0  0  0  0  0  0  0  0  0  0  0
    9.1694   -0.9894   -0.1730 H   0  0  0  0  0  0  0  0  0  0  0  0
    6.1948   -2.3496    0.5206 H   0  0  0  0  0  0  0  0  0  0  0  0
    4.8309   -1.3366   -1.8791 H   0  0  0  0  0  0  0  0  0  0  0  0
    2.5216   -0.6374   -1.2361 H   0  0  0  0  0  0  0  0  0  0  0  0
    2.0496   -0.2022    1.7226 H   0  0  0  0  0  0  0  0  0  0  0  0
   -0.2282    1.6157    1.4668 H   0  0  0  0  0  0  0  0  0  0  0  0
   -2.5896    0.1097    0.3992 H   0  0  0  0  0  0  0  0  0  0  0  0
   -2.9390    2.1861   -2.0158 H   0  0  0  0  0  0  0  0  0  0  0  0
   -4.3039    3.9493   -1.8131 H   0  0  0  0  0  0  0  0  0  0  0  0
   -2.4684    5.0832   -0.1489 H   0  0  0  0  0  0  0  0  0  0  0  0
   -5.3850    4.9183   -0.0974 H   0  0  0  0  0  0  0  0  0  0  0  0
   -5.1390    3.3684    0.6961 H   0  0  0  0  0  0  0  0  0  0  0  0
   -4.0373    4.8108    1.0254 H   0  0  0  0  0  0  0  0  0  0  0  0
   -4.8316    1.4968    0.2176 H   0  0  0  0  0  0  0  0  0  0  0  0
   -5.6038   -0.6165   -0.0378 H   0  0  0  0  0  0  0  0  0  0  0  0
   -8.0116   -0.4305   -0.9496 H   0  0  0  0  0  0  0  0  0  0  0  0
   -9.0910    2.3615   -2.3659 H   0  0  0  0  0  0  0  0  0  0  0  0
   -8.0928    4.2078   -1.2709 H   0  0  0  0  0  0  0  0  0  0  0  0
   -8.1656    3.4942    0.3348 H   0  0  0  0  0  0  0  0  0  0  0  0
  -10.2146    5.5190   -2.2469 H   0  0  0  0  0  0  0  0  0  0  0  0
  -12.3946    6.2963   -1.1553 H   0  0  0  0  0  0  0  0  0  0  0  0
  -10.0431    2.7373    1.9986 H   0  0  0  0  0  0  0  0  0  0  0  0
  -11.7996    2.9139    3.6495 H   0  0  0  0  0  0  0  0  0  0  0  0
  -13.6837    4.4153    3.2850 H   0  0  0  0  0  0  0  0  0  0  0  0
  -13.8131    5.7552    1.2385 H   0  0  0  0  0  0  0  0  0  0  0  0
  -10.0882    1.1607    0.2168 H   0  0  0  0  0  0  0  0  0  0  0  0
  -12.5413   -0.3184   -2.0476 H   0  0  0  0  0  0  0  0  0  0  0  0
  -10.2191   -1.7008   -0.7182 H   0  0  0  0  0  0  0  0  0  0  0  0
  -10.6549   -1.8429   -2.4254 H   0  0  0  0  0  0  0  0  0  0  0  0
  -11.5038   -2.6236    1.0369 H   0  0  0  0  0  0  0  0  0  0  0  0
  -12.9899   -4.3364    1.8421 H   0  0  0  0  0  0  0  0  0  0  0  0
  -14.3316   -5.0596   -2.1855 H   0  0  0  0  0  0  0  0  0  0  0  0
  -12.7709   -3.2625   -2.9976 H   0  0  0  0  0  0  0  0  0  0  0  0
  -15.0018   -5.6460    1.2771 H   0  0  0  0  0  0  0  0  0  0  0  0
  -11.5565   -0.1716    0.8325 H   0  0  0  0  0  0  0  0  0  0  0  0
  -14.4024    0.9866    1.7769 H   0  0  0  0  0  0  0  0  0  0  0  0
  -13.6289   -0.5593    2.2568 H   0  0  0  0  0  0  0  0  0  0  0  0
  -15.2335   -0.5836    1.4738 H   0  0  0  0  0  0  0  0  0  0  0  0
   -5.8089   -1.7941   -2.9001 H   0  0  0  0  0  0  0  0  0  0  0  0
   -4.8955   -2.3373   -1.4646 H   0  0  0  0  0  0  0  0  0  0  0  0
   -7.5976   -3.8971    0.2985 H   0  0  0  0  0  0  0  0  0  0  0  0
   -5.8481   -4.0440   -0.1394 H   0  0  0  0  0  0  0  0  0  0  0  0
   -1.5744    0.3851    3.0394 H   0  0  0  0  0  0  0  0  0  0  0  0
    0.1416   -0.0999    3.0566 H   0  0  0  0  0  0  0  0  0  0  0  0
    0.7917   -2.4146    2.3262 H   0  0  0  0  0  0  0  0  0  0  0  0
   -0.0058   -4.7919    2.1705 H   0  0  0  0  0  0  0  0  0  0  0  0
   -2.3945   -5.3123    2.0858 H   0  0  0  0  0  0  0  0  0  0  0  0
   -4.0256   -3.4173    2.1633 H   0  0  0  0  0  0  0  0  0  0  0  0
   -3.2801   -1.1399    2.3113 H   0  0  0  0  0  0  0  0  0  0  0  0
    7.1192   -2.5664   -2.4335 H   0  0  0  0  0  0  0  0  0  0  0  0
    6.1186   -3.6482   -1.4909 H   0  0  0  0  0  0  0  0  0  0  0  0
    9.0459   -3.1090   -0.7913 H   0  0  0  0  0  0  0  0  0  0  0  0
    8.5473   -5.1635    0.5820 H   0  0  0  0  0  0  0  0  0  0  0  0
    6.8206   -4.8649    0.4491 H   0  0  0  0  0  0  0  0  0  0  0  0
    7.9312   -3.6862    1.3384 H   0  0  0  0  0  0  0  0  0  0  0  0
    8.8753   -5.6564   -1.1912 H   0  0  0  0  0  0  0  0  0  0  0  0
    7.4292   -5.2430   -2.1294 H   0  0  0  0  0  0  0  0  0  0  0  0
    9.0918   -4.5656   -2.6039 H   0  0  0  0  0  0  0  0  0  0  0  0
   14.6817   -2.3543    3.4097 H   0  0  0  0  0  0  0  0  0  0  0  0
   13.3913   -3.5226    2.8561 H   0  0  0  0  0  0  0  0  0  0  0  0
  1  2  1  0
  2  3  2  3
  3  4  1  0
  4  5  1  0
  5  6  1  0
  6  7  1  0
  7  8  1  0
  8  9  1  0
  9 10  2  0
  9 11  1  0
 11 12  1  0
 12 13  1  0
 13 14  2  0
 13 15  1  0
 12 16  1  0
 16 17  1  0
 17 18  2  0
 18 19  1  0
 19 20  1  0
 20 21  2  0
 21 22  1  0
 22 23  2  0
 23 24  1  0
 24 25  2  0
  8 26  1  0
 26 27  1  0
 27 28  2  0
 27 29  1  0
 29 30  1  0
 30 31  1  0
 31 32  2  0
 31 33  1  0
 33 34  1  0
 34 35  1  0
 35 36  2  0
 35 37  1  0
 37 38  1  0
 38 39  1  0
 39 40  2  0
 39 41  1  0
 41 42  1  0
 42 43  1  0
 42 44  1  0
 41 45  1  0
 45 46  1  0
 46 47  2  0
 46 48  1  0
 48 49  1  0
 49 50  1  0
 50 51  2  0
 50 52  1  0
 52 53  1  0
 53 54  1  0
 54 55  2  0
 55 56  1  0
 56 57  1  0
 57 58  2  0
 58 59  1  0
 59 60  2  0
 60 61  1  0
 61 62  2  0
 52 63  1  0
 63 64  1  0
 64 65  2  0
 64 66  1  0
 66 67  1  0
 67 68  1  0
 68 69  2  0
 69 70  1  0
 70 71  2  0
 71 72  1  0
 72 73  2  0
 71 74  1  0
 66 75  1  0
 75 76  1  0
 76 77  2  0
 76 78  1  0
 48 79  1  0
 79 80  1  0
 80 81  2  0
 80 82  1  0
 37 83  1  0
 83 84  1  0
 84 85  2  0
 85 86  1  0
 86 87  2  0
 87 88  1  0
 88 89  2  0
 29 90  1  0
 90 91  1  0
 91 92  1  0
 91 93  1  0
  3 94  1  0
 21 17  1  0
 58 54  1  0
 73 68  1  0
 89 84  1  0
 25 20  1  0
 62 57  1  0
  1 95  1  0
  1 96  1  0
  1 97  1  0
  4 98  1  0
  5 99  1  0
  5100  1  0
  6101  1  0
  6102  1  0
  7103  1  0
  7104  1  0
  8105  1  1
 11106  1  0
 12107  1  1
 15108  1  0
 15109  1  0
 16110  1  0
 16111  1  0
 18112  1  0
 19113  1  0
 22114  1  0
 23115  1  0
 24116  1  0
 25117  1  0
 26118  1  0
 29119  1  1
 30120  1  0
 33121  1  0
 34122  1  0
 37123  1  1
 38124  1  0
 41125  1  6
 42126  1  6
 43127  1  0
 44128  1  0
 44129  1  0
 44130  1  0
 45131  1  0
 48132  1  1
 49133  1  0
 52134  1  6
 53135  1  0
 53136  1  0
 55137  1  0
 56138  1  0
 59139  1  0
 60140  1  0
 61141  1  0
 62142  1  0
 63143  1  0
 66144  1  6
 67145  1  0
 67146  1  0
 69147  1  0
 70148  1  0
 72149  1  0
 73150  1  0
 74151  1  0
 75152  1  0
 78153  1  0
 78154  1  0
 78155  1  0
 79156  1  0
 79157  1  0
 82158  1  0
 82159  1  0
 83160  1  0
 83161  1  0
 85162  1  0
 86163  1  0
 87164  1  0
 88165  1  0
 89166  1  0
 90167  1  0
 90168  1  0
 91169  1  0
 92170  1  0
 92171  1  0
 92172  1  0
 93173  1  0
 93174  1  0
 93175  1  0
 94176  1  0
 94177  1  0
M  END
>  <Ligand ID>  (1) 
LIG0005349

>  <Ligand>  (1) 
CHEMBL3985112

>  <SMILES>  (1) 
CN=C(NCCC[C@@H](C(=O)N[C@H](C(=O)N)Cc1c[nH]c2c1cccc2)NC(=O)[C@@H](NC(=O)NNC(=O)[C@@H](NC(=O)[C@H]([C@H](O)C)NC(=O)[C@@H](NC(=O)[C@H](Cc1c[nH]c2c1cccc2)NC(=O)[C@@H](Cc1ccc(cc1)O)NC(=O)C)CC(=O)N)Cc1ccccc1)CC(C)C)N

>  <CID>  (1) 
134157013.0

>  <ChEMBL ID>  (1) 
nan

>  <InChiKey>  (1) 
BDPDXFSIFWZPCE-ROQQBXQPSA-N

>  <InChi>  (1) 
InChI=1S/C64H83N17O13/c1-34(2)26-48(57(88)73-46(20-13-25-69-63(67)68-5)56(87)74-47(55(66)86)29-39-32-70-44-18-11-9-16-42(39)44)78-64(94)81-80-61(92)50(27-37-14-7-6-8-15-37)77-62(93)54(35(3)82)79-60(91)52(31-53(65)85)76-59(90)51(30-40-33-71-45-19-12-10-17-43(40)45)75-58(89)49(72-36(4)83)28-38-21-23-41(84)24-22-38/h6-12,14-19,21-24,32-35,46-52,54,70-71,82,84H,13,20,25-31H2,1-5H3,(H2,65,85)(H2,66,86)(H,72,83)(H,73,88)(H,74,87)(H,75,89)(H,76,90)(H,77,93)(H,79,91)(H,80,92)(H3,67,68,69)(H2,78,81,94)/t35-,46+,47+,48+,49-,50+,51+,52+,54+/m1/s1

>  <IUPAC Name>  (1) 
(2S)-2-[[(2S)-2-[[(2R)-2-acetamido-3-(4-hydroxyphenyl)propanoyl]amino]-3-(1H-indol-3-yl)propanoyl]amino]-N-[(2S,3R)-1-[[(2S)-1-[2-[[(2S)-1-[[(2S)-1-[[(2S)-1-amino-3-(1H-indol-3-yl)-1-oxopropan-2-yl]amino]-5-[(N'-methylcarbamimidoyl)amino]-1-oxopentan-2-yl]amino]-4-methyl-1-oxopentan-2-yl]carbamoyl]hydrazinyl]-1-oxo-3-phenylpropan-2-yl]amino]-3-hydroxy-1-oxobutan-2-yl]butanediamide

$$$$
