
     RDKit          3D

 52 54  0  0  0  0  0  0  0  0999 V2000
   -0.1744   -2.5448    2.7508 O   0  0  0  0  0  0  0  0  0  0  0  0
    0.3100   -2.7056    1.6047 C   0  0  0  0  0  0  0  0  0  0  0  0
    1.2775   -3.7180    1.1071 C   0  0  0  0  0  0  0  0  0  0  0  0
    2.1493   -2.8231    0.1934 C   0  0  0  0  0  0  0  0  0  0  0  0
    1.1462   -1.9645   -0.4580 C   0  0  1  0  0  0  0  0  0  0  0  0
    0.0099   -1.8954    0.4735 N   0  0  0  0  0  0  0  0  0  0  0  0
   -1.1714   -1.1253    0.2280 C   0  0  0  0  0  0  0  0  0  0  0  0
   -1.2967    0.1872    0.6265 C   0  0  0  0  0  0  0  0  0  0  0  0
   -2.4290    0.9446    0.3977 C   0  0  0  0  0  0  0  0  0  0  0  0
   -3.4876    0.3872   -0.2527 C   0  0  0  0  0  0  0  0  0  0  0  0
   -3.4175   -0.9232   -0.6744 C   0  0  0  0  0  0  0  0  0  0  0  0
   -2.2686   -1.6804   -0.4383 C   0  0  0  0  0  0  0  0  0  0  0  0
   -4.7593    1.1165   -0.5514 C   0  0  0  0  0  0  0  0  0  0  0  0
   -4.6962    2.5428   -0.0309 C   0  0  0  0  0  0  0  0  0  0  0  0
   -5.0238    1.1303   -2.0424 C   0  0  0  0  0  0  0  0  0  0  0  0
   -5.9106    0.4193    0.1394 C   0  0  0  0  0  0  0  0  0  0  0  0
    1.5189   -0.5831   -0.8621 C   0  0  0  0  0  0  0  0  0  0  0  0
    2.5487   -0.4333   -1.7029 O   0  0  0  0  0  0  0  0  0  0  0  0
    3.8262   -0.6799   -1.3801 C   0  0  0  0  0  0  0  0  0  0  0  0
    4.3951    0.2365   -0.3537 C   0  0  0  0  0  0  0  0  0  0  0  0
    4.4763    0.1508    0.9997 C   0  0  0  0  0  0  0  0  0  0  0  0
    5.1151    1.3088    1.4532 C   0  0  0  0  0  0  0  0  0  0  0  0
    5.3806    2.0264    0.3246 C   0  0  0  0  0  0  0  0  0  0  0  0
    4.9578    1.3919   -0.7098 O   0  0  0  0  0  0  0  0  0  0  0  0
    6.0478    3.3277    0.2866 C   0  0  0  0  0  0  0  0  0  0  0  0
    6.2630    3.9414   -0.8066 O   0  0  0  0  0  0  0  0  0  0  0  0
    6.4844    3.9679    1.4381 O   0  0  0  0  0  0  0  0  0  0  0  0
    1.8827   -4.1830    1.9050 H   0  0  0  0  0  0  0  0  0  0  0  0
    0.7471   -4.4560    0.4783 H   0  0  0  0  0  0  0  0  0  0  0  0
    2.8043   -2.3001    0.8898 H   0  0  0  0  0  0  0  0  0  0  0  0
    2.6893   -3.5042   -0.5066 H   0  0  0  0  0  0  0  0  0  0  0  0
    0.7041   -2.4918   -1.3500 H   0  0  0  0  0  0  0  0  0  0  0  0
   -0.4890    0.6793    1.1459 H   0  0  0  0  0  0  0  0  0  0  0  0
   -2.4854    1.9733    0.7282 H   0  0  0  0  0  0  0  0  0  0  0  0
   -4.2452   -1.3893   -1.1933 H   0  0  0  0  0  0  0  0  0  0  0  0
   -2.1852   -2.7011   -0.7544 H   0  0  0  0  0  0  0  0  0  0  0  0
   -3.9612    3.1419   -0.6000 H   0  0  0  0  0  0  0  0  0  0  0  0
   -5.6913    2.9929   -0.1805 H   0  0  0  0  0  0  0  0  0  0  0  0
   -4.4080    2.5868    1.0230 H   0  0  0  0  0  0  0  0  0  0  0  0
   -5.4388    0.1776   -2.4039 H   0  0  0  0  0  0  0  0  0  0  0  0
   -4.1545    1.4743   -2.6224 H   0  0  0  0  0  0  0  0  0  0  0  0
   -5.8181    1.9054   -2.1911 H   0  0  0  0  0  0  0  0  0  0  0  0
   -6.6679    1.2025    0.3886 H   0  0  0  0  0  0  0  0  0  0  0  0
   -6.3332   -0.3271   -0.5917 H   0  0  0  0  0  0  0  0  0  0  0  0
   -5.5929   -0.1503    1.0325 H   0  0  0  0  0  0  0  0  0  0  0  0
    0.5991   -0.1778   -1.4018 H   0  0  0  0  0  0  0  0  0  0  0  0
    1.5579    0.0833    0.0439 H   0  0  0  0  0  0  0  0  0  0  0  0
    4.0904   -1.7012   -1.0358 H   0  0  0  0  0  0  0  0  0  0  0  0
    4.4560   -0.5473   -2.3123 H   0  0  0  0  0  0  0  0  0  0  0  0
    4.1497   -0.6066    1.6586 H   0  0  0  0  0  0  0  0  0  0  0  0
    5.3572    1.5983    2.4563 H   0  0  0  0  0  0  0  0  0  0  0  0
    7.1610    4.7177    1.4695 H   0  0  0  0  0  0  0  0  0  0  0  0
  1  2  2  0
  2  3  1  0
  3  4  1  0
  4  5  1  0
  5  6  1  0
  6  7  1  0
  7  8  2  0
  8  9  1  0
  9 10  2  0
 10 11  1  0
 11 12  2  0
 10 13  1  0
 13 14  1  0
 13 15  1  0
 13 16  1  0
  5 17  1  0
 17 18  1  0
 18 19  1  0
 19 20  1  0
 20 21  2  0
 21 22  1  0
 22 23  2  0
 23 24  1  0
 23 25  1  0
 25 26  2  0
 25 27  1  0
  6  2  1  0
 12  7  1  0
 24 20  1  0
  3 28  1  0
  3 29  1  0
  4 30  1  0
  4 31  1  0
  5 32  1  6
  8 33  1  0
  9 34  1  0
 11 35  1  0
 12 36  1  0
 14 37  1  0
 14 38  1  0
 14 39  1  0
 15 40  1  0
 15 41  1  0
 15 42  1  0
 16 43  1  0
 16 44  1  0
 16 45  1  0
 17 46  1  0
 17 47  1  0
 19 48  1  0
 19 49  1  0
 21 50  1  0
 22 51  1  0
 27 52  1  0
M  END
>  <Ligand ID>  (1) 
LIG0001474

>  <Ligand>  (1) 
SCHEMBL1310801

>  <SMILES>  (1) 
O=C1CC[C@@H](N1c1ccc(cc1)C(C)(C)C)COCc1ccc(o1)C(=O)O

>  <CID>  (1) 
11855324.0

>  <ChEMBL ID>  (1) 
nan

>  <InChiKey>  (1) 
BADIOVUTPYVHGM-MRXNPFEDSA-N

>  <InChi>  (1) 
InChI=1S/C21H25NO5/c1-21(2,3)14-4-6-15(7-5-14)22-16(8-11-19(22)23)12-26-13-17-9-10-18(27-17)20(24)25/h4-7,9-10,16H,8,11-13H2,1-3H3,(H,24,25)/t16-/m1/s1

>  <IUPAC Name>  (1) 
5-[[(2R)-1-(4-tert-butylphenyl)-5-oxopyrrolidin-2-yl]methoxymethyl]furan-2-carboxylic acid

$$$$
