
     RDKit          3D

 20 19  0  0  0  0  0  0  0  0999 V2000
   -2.5122   -0.2830   -0.7997 C   0  0  0  0  0  0  0  0  0  0  0  0
   -1.1531    0.2625   -0.2944 C   0  0  0  0  0  0  0  0  0  0  0  0
   -0.5882   -0.6385    0.7497 C   0  0  0  0  0  0  0  0  0  0  0  0
    0.6955   -0.2489    1.3811 C   0  0  0  0  0  0  0  0  0  0  0  0
    1.8682   -0.1032    0.4959 C   0  0  0  0  0  0  0  0  0  0  0  0
    1.8323    0.9315   -0.5614 C   0  0  0  0  0  0  0  0  0  0  0  0
   -3.2717   -0.0778   -0.0049 H   0  0  0  0  0  0  0  0  0  0  0  0
   -2.7788    0.3528   -1.6693 H   0  0  0  0  0  0  0  0  0  0  0  0
   -2.4047   -1.3516   -1.0314 H   0  0  0  0  0  0  0  0  0  0  0  0
   -0.5243    0.1774   -1.2332 H   0  0  0  0  0  0  0  0  0  0  0  0
   -1.2894    1.3008   -0.0210 H   0  0  0  0  0  0  0  0  0  0  0  0
   -1.3643   -0.7702    1.5695 H   0  0  0  0  0  0  0  0  0  0  0  0
   -0.4996   -1.6944    0.3362 H   0  0  0  0  0  0  0  0  0  0  0  0
    0.5473    0.6448    2.0577 H   0  0  0  0  0  0  0  0  0  0  0  0
    0.9539   -1.0682    2.1273 H   0  0  0  0  0  0  0  0  0  0  0  0
    2.8254    0.0374    1.0898 H   0  0  0  0  0  0  0  0  0  0  0  0
    2.0271   -1.1050   -0.0174 H   0  0  0  0  0  0  0  0  0  0  0  0
    1.0488    1.7134   -0.4516 H   0  0  0  0  0  0  0  0  0  0  0  0
    1.7630    0.4618   -1.5627 H   0  0  0  0  0  0  0  0  0  0  0  0
    2.8247    1.4583   -0.5887 H   0  0  0  0  0  0  0  0  0  0  0  0
  1  2  1  0
  2  3  1  0
  3  4  1  0
  4  5  1  0
  5  6  1  0
  1  7  1  0
  1  8  1  0
  1  9  1  0
  2 10  1  0
  2 11  1  0
  3 12  1  0
  3 13  1  0
  4 14  1  0
  4 15  1  0
  5 16  1  0
  5 17  1  0
  6 18  1  0
  6 19  1  0
  6 20  1  0
M  END
>  <Ligand ID>  (1) 
LIG0005020

>  <Ligand>  (1) 
hexane

>  <SMILES>  (1) 
CCCCCC

>  <CID>  (1) 
8058.0

>  <ChEMBL ID>  (1) 
nan

>  <InChiKey>  (1) 
VLKZOEOYAKHREP-UHFFFAOYSA-N

>  <InChi>  (1) 
InChI=1S/C6H14/c1-3-5-6-4-2/h3-6H2,1-2H3

>  <IUPAC Name>  (1) 
hexane

$$$$
