
     RDKit          3D

 44 47  0  0  0  0  0  0  0  0999 V2000
    1.0250    2.2104    1.0255 N   0  0  0  0  0  0  0  0  0  0  0  0
   -0.0266    1.8683    0.7725 C   0  0  0  0  0  0  0  0  0  0  0  0
   -1.3414    1.4541    0.4787 C   0  0  0  0  0  0  0  0  0  0  0  0
   -2.0093    2.1391   -0.5442 C   0  0  0  0  0  0  0  0  0  0  0  0
   -3.3058    1.8108   -0.8631 C   0  0  0  0  0  0  0  0  0  0  0  0
   -3.8883    0.7935   -0.1319 C   0  0  0  0  0  0  0  0  0  0  0  0
   -3.2317    0.1642    0.8287 N   0  0  0  0  0  0  0  0  0  0  0  0
   -1.9388    0.4528    1.1850 C   0  0  0  0  0  0  0  0  0  0  0  0
   -1.2323   -0.5251    2.4636 S   0  0  0  0  0  0  0  0  0  0  0  0
   -0.5021   -2.0695    1.9353 C   0  0  0  0  0  0  0  0  0  0  0  0
    0.7962   -1.9656    1.2279 C   0  0  0  0  0  0  0  0  0  0  0  0
    1.0803   -2.8844    0.4352 O   0  0  0  0  0  0  0  0  0  0  0  0
    1.6402   -0.8834    1.4624 N   0  0  0  0  0  0  0  0  0  0  0  0
    2.8853   -0.5724    0.8971 C   0  0  0  0  0  0  0  0  0  0  0  0
    3.9218    0.5771    1.7365 S   0  0  0  0  0  0  0  0  0  0  0  0
    5.2622    0.5519    0.5429 C   0  0  0  0  0  0  0  0  0  0  0  0
    4.8126   -0.3287   -0.3980 C   0  0  0  0  0  0  0  0  0  0  0  0
    3.5965   -0.8964   -0.2079 C   0  0  0  0  0  0  0  0  0  0  0  0
    3.0240   -1.8236   -1.2122 C   0  0  0  0  0  0  0  0  0  0  0  0
    2.5707   -2.5571   -2.0352 N   0  0  0  0  0  0  0  0  0  0  0  0
    5.9243   -0.4034   -1.4385 C   0  0  0  0  0  0  0  0  0  0  0  0
    6.6875    0.8494   -1.2185 C   0  0  0  0  0  0  0  0  0  0  0  0
    6.5747    1.1262    0.2700 C   0  0  0  0  0  0  0  0  0  0  0  0
   -5.2619    0.3779   -0.4041 C   0  0  0  0  0  0  0  0  0  0  0  0
   -5.8144   -0.6430    0.3400 C   0  0  0  0  0  0  0  0  0  0  0  0
   -7.1194   -1.0823    0.1248 C   0  0  0  0  0  0  0  0  0  0  0  0
   -7.8388   -0.4551   -0.8638 C   0  0  0  0  0  0  0  0  0  0  0  0
   -7.3255    0.5409   -1.6025 N   0  0  0  0  0  0  0  0  0  0  0  0
   -6.0548    0.9467   -1.3709 C   0  0  0  0  0  0  0  0  0  0  0  0
   -1.5399    2.9263   -1.1012 H   0  0  0  0  0  0  0  0  0  0  0  0
   -3.8042    2.3486   -1.6522 H   0  0  0  0  0  0  0  0  0  0  0  0
   -1.2392   -2.5336    1.2084 H   0  0  0  0  0  0  0  0  0  0  0  0
   -0.4378   -2.8235    2.7500 H   0  0  0  0  0  0  0  0  0  0  0  0
    1.2582   -0.2036    2.2174 H   0  0  0  0  0  0  0  0  0  0  0  0
    6.5793   -1.2701   -1.2136 H   0  0  0  0  0  0  0  0  0  0  0  0
    5.5364   -0.4550   -2.4541 H   0  0  0  0  0  0  0  0  0  0  0  0
    6.3712    1.6881   -1.8479 H   0  0  0  0  0  0  0  0  0  0  0  0
    7.7876    0.7052   -1.4029 H   0  0  0  0  0  0  0  0  0  0  0  0
    7.4105    0.7338    0.8620 H   0  0  0  0  0  0  0  0  0  0  0  0
    6.5279    2.2285    0.3719 H   0  0  0  0  0  0  0  0  0  0  0  0
   -5.2537   -1.1537    1.1322 H   0  0  0  0  0  0  0  0  0  0  0  0
   -7.5559   -1.8926    0.7160 H   0  0  0  0  0  0  0  0  0  0  0  0
   -8.8599   -0.8164   -1.0159 H   0  0  0  0  0  0  0  0  0  0  0  0
   -5.6908    1.7446   -1.9854 H   0  0  0  0  0  0  0  0  0  0  0  0
  1  2  3  0
  2  3  1  0
  3  4  2  0
  4  5  1  0
  5  6  2  0
  6  7  1  0
  7  8  2  0
  8  9  1  0
  9 10  1  0
 10 11  1  0
 11 12  2  0
 11 13  1  0
 13 14  1  0
 14 15  1  0
 15 16  1  0
 16 17  2  0
 17 18  1  0
 18 19  1  0
 19 20  3  0
 17 21  1  0
 21 22  1  0
 22 23  1  0
  6 24  1  0
 24 25  2  0
 25 26  1  0
 26 27  2  0
 27 28  1  0
 28 29  2  0
  8  3  1  0
 18 14  2  0
 29 24  1  0
 23 16  1  0
  4 30  1  0
  5 31  1  0
 10 32  1  0
 10 33  1  0
 13 34  1  0
 21 35  1  0
 21 36  1  0
 22 37  1  0
 22 38  1  0
 23 39  1  0
 23 40  1  0
 25 41  1  0
 26 42  1  0
 27 43  1  0
 29 44  1  0
M  END
>  <Ligand ID>  (1) 
LIG0003005

>  <Ligand>  (1) 
MLS000036435

>  <SMILES>  (1) 
N#Cc1ccc(nc1SCC(=O)Nc1sc2c(c1C#N)CCC2)c1cccnc1

>  <CID>  (1) 
660795.0

>  <ChEMBL ID>  (1) 
nan

>  <InChiKey>  (1) 
LWMHBSBGDXNSQU-UHFFFAOYSA-N

>  <InChi>  (1) 
InChI=1S/C21H15N5OS2/c22-9-13-6-7-17(14-3-2-8-24-11-14)25-20(13)28-12-19(27)26-21-16(10-23)15-4-1-5-18(15)29-21/h2-3,6-8,11H,1,4-5,12H2,(H,26,27)

>  <IUPAC Name>  (1) 
N-(3-cyano-5,6-dihydro-4H-cyclopenta[b]thiophen-2-yl)-2-(3-cyano-6-pyridin-3-ylpyridin-2-yl)sulfanylacetamide

$$$$
