
     RDKit          3D

 74 77  0  0  0  0  0  0  0  0999 V2000
   -6.1875   -0.9272    0.7562 O   0  0  0  0  0  0  0  0  0  0  0  0
   -5.4849   -1.7206    0.0834 C   0  0  0  0  0  0  0  0  0  0  0  0
   -4.0836   -1.5559   -0.2276 C   0  0  0  0  0  0  0  0  0  0  0  0
   -3.4495   -2.4611   -1.0540 C   0  0  0  0  0  0  0  0  0  0  0  0
   -2.1057   -2.3472   -1.4034 C   0  0  0  0  0  0  0  0  0  0  0  0
   -1.3481   -1.3133   -0.9313 C   0  0  0  0  0  0  0  0  0  0  0  0
   -1.9712   -0.3995   -0.1022 C   0  0  0  0  0  0  0  0  0  0  0  0
   -3.3126   -0.5011    0.2549 C   0  0  0  0  0  0  0  0  0  0  0  0
   -3.8470    0.4790    1.1490 N   0  0  0  0  0  0  0  0  0  0  0  0
   -3.0063    1.6044    1.5576 C   0  0  0  0  0  0  0  0  0  0  0  0
   -3.7378    2.3245    2.6835 C   0  0  0  0  0  0  0  0  0  0  0  0
   -5.1446    2.6590    2.3286 C   0  0  0  0  0  0  0  0  0  0  0  0
   -5.3710    3.1389    0.9359 C   0  0  0  0  0  0  0  0  0  0  0  0
   -4.4742    2.5603   -0.1035 C   0  0  0  0  0  0  0  0  0  0  0  0
   -3.0348    2.5843    0.3996 C   0  0  0  0  0  0  0  0  0  0  0  0
    0.0631   -1.1648   -1.2727 C   0  0  0  0  0  0  0  0  0  0  0  0
    0.6753    0.0718   -1.3644 C   0  0  0  0  0  0  0  0  0  0  0  0
    2.0118    0.1782   -1.6850 C   0  0  0  0  0  0  0  0  0  0  0  0
    2.7119   -0.9889   -1.9099 C   0  0  0  0  0  0  0  0  0  0  0  0
    2.1178   -2.2365   -1.8236 C   0  0  0  0  0  0  0  0  0  0  0  0
    0.7749   -2.3197   -1.5002 C   0  0  0  0  0  0  0  0  0  0  0  0
    4.1772   -0.9170   -2.2540 C   0  0  0  0  0  0  0  0  0  0  0  0
    4.8882   -0.9955   -0.9022 C   0  0  0  0  0  0  0  0  0  0  0  0
    6.3047   -0.9394   -1.0845 N   0  0  0  0  0  0  0  0  0  0  0  0
    7.0598   -1.0568    0.1122 C   0  0  0  0  0  0  0  0  0  0  0  0
    6.9941    0.0737    1.0788 C   0  0  1  0  0  0  0  0  0  0  0  0
    7.6837    1.2978    0.6628 C   0  0  0  0  0  0  0  0  0  0  0  0
    8.4860    1.4422   -0.4293 C   0  0  0  0  0  0  0  0  0  0  0  0
    9.1068    2.6363   -0.7712 C   0  0  0  0  0  0  0  0  0  0  0  0
    8.8848    3.7289    0.0576 C   0  0  0  0  0  0  0  0  0  0  0  0
    8.0859    3.6097    1.1565 N   0  0  0  0  0  0  0  0  0  0  0  0
    7.4987    2.4317    1.4575 C   0  0  0  0  0  0  0  0  0  0  0  0
    5.7070    0.3501    1.5450 O   0  0  0  0  0  0  0  0  0  0  0  0
   -6.1775   -2.8731   -0.3925 N   0  0  0  0  0  0  0  0  0  0  0  0
   -7.8563   -2.9922    0.0270 S   0  0  0  0  0  0  0  0  0  0  0  0
   -8.0379   -2.9997    1.5089 O   0  0  0  0  0  0  0  0  0  0  0  0
   -8.6101   -1.7845   -0.5124 O   0  0  0  0  0  0  0  0  0  0  0  0
   -8.5669   -4.4921   -0.6211 C   0  0  0  0  0  0  0  0  0  0  0  0
   -3.9449   -3.3256   -1.4943 H   0  0  0  0  0  0  0  0  0  0  0  0
   -1.6193   -3.0676   -2.0560 H   0  0  0  0  0  0  0  0  0  0  0  0
   -1.3293    0.4032    0.2594 H   0  0  0  0  0  0  0  0  0  0  0  0
   -4.7900    0.4625    1.5438 H   0  0  0  0  0  0  0  0  0  0  0  0
   -2.0266    1.3088    1.8988 H   0  0  0  0  0  0  0  0  0  0  0  0
   -3.7265    1.6229    3.5485 H   0  0  0  0  0  0  0  0  0  0  0  0
   -3.1483    3.2245    3.0042 H   0  0  0  0  0  0  0  0  0  0  0  0
   -5.4500    3.4975    3.0232 H   0  0  0  0  0  0  0  0  0  0  0  0
   -5.8396    1.8238    2.6376 H   0  0  0  0  0  0  0  0  0  0  0  0
   -6.4253    2.8467    0.6554 H   0  0  0  0  0  0  0  0  0  0  0  0
   -5.2278    4.2466    0.9127 H   0  0  0  0  0  0  0  0  0  0  0  0
   -4.7516    1.5473   -0.4494 H   0  0  0  0  0  0  0  0  0  0  0  0
   -4.5110    3.2193   -0.9915 H   0  0  0  0  0  0  0  0  0  0  0  0
   -2.8098    3.6172    0.7107 H   0  0  0  0  0  0  0  0  0  0  0  0
   -2.4107    2.3387   -0.4472 H   0  0  0  0  0  0  0  0  0  0  0  0
    0.1121    0.9829   -1.1850 H   0  0  0  0  0  0  0  0  0  0  0  0
    2.5387    1.1162   -1.7698 H   0  0  0  0  0  0  0  0  0  0  0  0
    2.6474   -3.1586   -1.9961 H   0  0  0  0  0  0  0  0  0  0  0  0
    0.3152   -3.3051   -1.4338 H   0  0  0  0  0  0  0  0  0  0  0  0
    4.4386   -1.7431   -2.9203 H   0  0  0  0  0  0  0  0  0  0  0  0
    4.4265    0.0397   -2.7352 H   0  0  0  0  0  0  0  0  0  0  0  0
    4.6359   -1.9082   -0.3649 H   0  0  0  0  0  0  0  0  0  0  0  0
    4.5537   -0.0681   -0.3717 H   0  0  0  0  0  0  0  0  0  0  0  0
    6.5054   -0.1265   -1.6900 H   0  0  0  0  0  0  0  0  0  0  0  0
    6.6465   -1.9551    0.6600 H   0  0  0  0  0  0  0  0  0  0  0  0
    8.1371   -1.2872   -0.0614 H   0  0  0  0  0  0  0  0  0  0  0  0
    7.5431   -0.2825    2.0026 H   0  0  0  0  0  0  0  0  0  0  0  0
    8.6635    0.6089   -1.0631 H   0  0  0  0  0  0  0  0  0  0  0  0
    9.7392    2.7328   -1.6390 H   0  0  0  0  0  0  0  0  0  0  0  0
    9.3257    4.7018   -0.1266 H   0  0  0  0  0  0  0  0  0  0  0  0
    6.8815    2.4206    2.3446 H   0  0  0  0  0  0  0  0  0  0  0  0
    5.4926    1.3084    1.3498 H   0  0  0  0  0  0  0  0  0  0  0  0
   -5.7806   -3.6317   -0.9526 H   0  0  0  0  0  0  0  0  0  0  0  0
   -9.5353   -4.2340   -1.1091 H   0  0  0  0  0  0  0  0  0  0  0  0
   -7.8633   -4.9594   -1.3181 H   0  0  0  0  0  0  0  0  0  0  0  0
   -8.8366   -5.2022    0.1983 H   0  0  0  0  0  0  0  0  0  0  0  0
  1  2  2  0
  2  3  1  0
  3  4  2  0
  4  5  1  0
  5  6  2  0
  6  7  1  0
  7  8  2  0
  8  9  1  0
  9 10  1  0
 10 11  1  0
 11 12  1  0
 12 13  1  0
 13 14  1  0
 14 15  1  0
  6 16  1  0
 16 17  2  0
 17 18  1  0
 18 19  2  0
 19 20  1  0
 20 21  2  0
 19 22  1  0
 22 23  1  0
 23 24  1  0
 24 25  1  0
 25 26  1  0
 26 27  1  0
 27 28  2  0
 28 29  1  0
 29 30  2  0
 30 31  1  0
 31 32  2  0
 26 33  1  0
  2 34  1  0
 34 35  1  0
 35 36  2  0
 35 37  2  0
 35 38  1  0
  8  3  1  0
 15 10  1  0
 21 16  1  0
 32 27  1  0
  4 39  1  0
  5 40  1  0
  7 41  1  0
  9 42  1  0
 10 43  1  0
 11 44  1  0
 11 45  1  0
 12 46  1  0
 12 47  1  0
 13 48  1  0
 13 49  1  0
 14 50  1  0
 14 51  1  0
 15 52  1  0
 15 53  1  0
 17 54  1  0
 18 55  1  0
 20 56  1  0
 21 57  1  0
 22 58  1  0
 22 59  1  0
 23 60  1  0
 23 61  1  0
 24 62  1  0
 25 63  1  0
 25 64  1  0
 26 65  1  1
 28 66  1  0
 29 67  1  0
 30 68  1  0
 32 69  1  0
 33 70  1  0
 34 71  1  0
 38 72  1  0
 38 73  1  0
 38 74  1  0
M  END
>  <Ligand ID>  (1) 
LIG0004929

>  <Ligand>  (1) 
CHEMBL452696

>  <SMILES>  (1) 
O=C(c1ccc(cc1NC1CCCCC1)c1ccc(cc1)CCNC[C@@H](c1cccnc1)O)NS(=O)(=O)C

>  <CID>  (1) 
42639494.0

>  <ChEMBL ID>  (1) 
nan

>  <InChiKey>  (1) 
ZLPSTDVUJLABPS-NDEPHWFRSA-N

>  <InChi>  (1) 
InChI=1S/C29H36N4O4S/c1-38(36,37)33-29(35)26-14-13-23(18-27(26)32-25-7-3-2-4-8-25)22-11-9-21(10-12-22)15-17-31-20-28(34)24-6-5-16-30-19-24/h5-6,9-14,16,18-19,25,28,31-32,34H,2-4,7-8,15,17,20H2,1H3,(H,33,35)/t28-/m0/s1

>  <IUPAC Name>  (1) 
2-(cyclohexylamino)-4-[4-[2-[[(2R)-2-hydroxy-2-pyridin-3-ylethyl]amino]ethyl]phenyl]-N-methylsulfonylbenzamide

$$$$
