
     RDKit          3D

 85 89  0  0  0  0  0  0  0  0999 V2000
  -13.5594   -0.6783   -1.4367 C   0  0  0  0  0  0  0  0  0  0  0  0
  -12.4931   -0.5822   -0.3868 C   0  0  0  0  0  0  0  0  0  0  0  0
  -11.4578    0.4864   -0.6640 C   0  0  0  0  0  0  0  0  0  0  0  0
  -10.7144    0.2914   -1.9446 C   0  0  0  0  0  0  0  0  0  0  0  0
   -9.9647   -1.0235   -1.9733 C   0  0  0  0  0  0  0  0  0  0  0  0
   -8.9544   -1.1289   -0.8730 C   0  0  0  0  0  0  0  0  0  0  0  0
   -7.9446   -0.0861   -0.9284 N   0  0  0  0  0  0  0  0  0  0  0  0
   -6.9458   -0.1388    0.1142 C   0  0  0  0  0  0  0  0  0  0  0  0
   -7.0599   -1.0619    0.9329 O   0  0  0  0  0  0  0  0  0  0  0  0
   -5.9305    0.8182    0.1556 N   0  0  0  0  0  0  0  0  0  0  0  0
   -4.8870    0.9084    1.1041 C   0  0  0  0  0  0  0  0  0  0  0  0
   -3.9782    1.9400    0.9834 C   0  0  0  0  0  0  0  0  0  0  0  0
   -2.9422    2.0842    1.8784 C   0  0  0  0  0  0  0  0  0  0  0  0
   -2.7424    1.2175    2.9461 C   0  0  0  0  0  0  0  0  0  0  0  0
   -3.6481    0.1877    3.0674 C   0  0  0  0  0  0  0  0  0  0  0  0
   -4.7005    0.0444    2.1551 C   0  0  0  0  0  0  0  0  0  0  0  0
   -1.4675    1.3654    4.0941 S   0  0  0  0  0  0  0  0  0  0  0  0
   -2.0282    0.9923    5.4617 O   0  0  0  0  0  0  0  0  0  0  0  0
   -0.9219    2.7729    4.1615 O   0  0  0  0  0  0  0  0  0  0  0  0
   -0.1637    0.3353    3.7021 N   0  0  0  0  0  0  0  0  0  0  0  0
    0.6216    0.3632    2.5426 C   0  0  0  0  0  0  0  0  0  0  0  0
    0.1795    0.3707    1.2498 C   0  0  0  0  0  0  0  0  0  0  0  0
    1.0425    0.3825    0.1503 C   0  0  0  0  0  0  0  0  0  0  0  0
    2.4021    0.3864    0.3689 C   0  0  0  0  0  0  0  0  0  0  0  0
    2.8853    0.3784    1.6608 C   0  0  0  0  0  0  0  0  0  0  0  0
    2.0064    0.3670    2.7215 C   0  0  0  0  0  0  0  0  0  0  0  0
    3.3906    0.3980   -0.7029 C   0  0  0  0  0  0  0  0  0  0  0  0
    3.1606    1.0201   -1.9181 C   0  0  0  0  0  0  0  0  0  0  0  0
    4.1489    0.9913   -2.8806 C   0  0  0  0  0  0  0  0  0  0  0  0
    5.3640    0.3760   -2.7078 C   0  0  0  0  0  0  0  0  0  0  0  0
    5.5951   -0.2449   -1.4967 C   0  0  0  0  0  0  0  0  0  0  0  0
    4.6186   -0.2183   -0.5416 C   0  0  0  0  0  0  0  0  0  0  0  0
    6.8849   -0.9420   -1.1990 C   0  0  0  0  0  0  0  0  0  0  0  0
    7.8683    0.0512   -0.5680 C   0  0  0  0  0  0  0  0  0  0  0  0
    8.0716    1.1254   -1.5413 N   0  0  0  0  0  0  0  0  0  0  0  0
    9.2065    1.9486   -1.1657 C   0  0  0  0  0  0  0  0  0  0  0  0
   10.4828    1.1803   -1.4342 C   0  0  0  0  0  0  0  0  0  0  0  0
   10.3523   -0.1465   -0.7786 C   0  0  0  0  0  0  0  0  0  0  0  0
    9.1462   -0.6779   -0.3744 C   0  0  0  0  0  0  0  0  0  0  0  0
    9.1880   -1.9238    0.2210 C   0  0  0  0  0  0  0  0  0  0  0  0
   10.3597   -2.6217    0.4136 C   0  0  0  0  0  0  0  0  0  0  0  0
   10.3796   -3.8688    1.0121 O   0  0  0  0  0  0  0  0  0  0  0  0
   11.5669   -2.0890    0.0087 C   0  0  0  0  0  0  0  0  0  0  0  0
   11.5488   -0.8463   -0.5881 C   0  0  0  0  0  0  0  0  0  0  0  0
   12.7767   -2.7264    0.1673 O   0  0  0  0  0  0  0  0  0  0  0  0
  -13.7844    0.2709   -1.9230 H   0  0  0  0  0  0  0  0  0  0  0  0
  -14.5018   -1.0311   -0.9226 H   0  0  0  0  0  0  0  0  0  0  0  0
  -13.3472   -1.4268   -2.2195 H   0  0  0  0  0  0  0  0  0  0  0  0
  -12.9901   -0.2718    0.5714 H   0  0  0  0  0  0  0  0  0  0  0  0
  -12.0250   -1.5629   -0.1777 H   0  0  0  0  0  0  0  0  0  0  0  0
  -11.8717    1.4931   -0.6113 H   0  0  0  0  0  0  0  0  0  0  0  0
  -10.7226    0.4117    0.1745 H   0  0  0  0  0  0  0  0  0  0  0  0
  -10.0140    1.1370   -2.0487 H   0  0  0  0  0  0  0  0  0  0  0  0
  -11.4074    0.3739   -2.8061 H   0  0  0  0  0  0  0  0  0  0  0  0
   -9.4868   -1.1558   -2.9602 H   0  0  0  0  0  0  0  0  0  0  0  0
  -10.6759   -1.8655   -1.8296 H   0  0  0  0  0  0  0  0  0  0  0  0
   -8.4334   -2.1197   -1.0212 H   0  0  0  0  0  0  0  0  0  0  0  0
   -9.4134   -1.1480    0.1345 H   0  0  0  0  0  0  0  0  0  0  0  0
   -7.9264    0.6586   -1.6638 H   0  0  0  0  0  0  0  0  0  0  0  0
   -5.9518    1.5561   -0.6143 H   0  0  0  0  0  0  0  0  0  0  0  0
   -4.0528    2.6771    0.1715 H   0  0  0  0  0  0  0  0  0  0  0  0
   -2.2613    2.8997    1.7452 H   0  0  0  0  0  0  0  0  0  0  0  0
   -3.5419   -0.5226    3.8837 H   0  0  0  0  0  0  0  0  0  0  0  0
   -5.3507   -0.7803    2.3275 H   0  0  0  0  0  0  0  0  0  0  0  0
    0.0851   -0.4127    4.4134 H   0  0  0  0  0  0  0  0  0  0  0  0
   -0.8760    0.3570    1.0500 H   0  0  0  0  0  0  0  0  0  0  0  0
    0.6654    0.3891   -0.8644 H   0  0  0  0  0  0  0  0  0  0  0  0
    3.9438    0.3813    1.8836 H   0  0  0  0  0  0  0  0  0  0  0  0
    2.4226    0.3609    3.7398 H   0  0  0  0  0  0  0  0  0  0  0  0
    2.2206    1.4995   -2.0602 H   0  0  0  0  0  0  0  0  0  0  0  0
    3.9748    1.4827   -3.8494 H   0  0  0  0  0  0  0  0  0  0  0  0
    6.1147    0.3724   -3.4823 H   0  0  0  0  0  0  0  0  0  0  0  0
    4.8251   -0.7174    0.4114 H   0  0  0  0  0  0  0  0  0  0  0  0
    7.3490   -1.3807   -2.0930 H   0  0  0  0  0  0  0  0  0  0  0  0
    6.6497   -1.7587   -0.4874 H   0  0  0  0  0  0  0  0  0  0  0  0
    7.4551    0.4505    0.3734 H   0  0  0  0  0  0  0  0  0  0  0  0
    8.2681    0.7343   -2.4850 H   0  0  0  0  0  0  0  0  0  0  0  0
    9.1212    2.8745   -1.7708 H   0  0  0  0  0  0  0  0  0  0  0  0
    9.1374    2.1351   -0.0806 H   0  0  0  0  0  0  0  0  0  0  0  0
   11.3149    1.7319   -0.9264 H   0  0  0  0  0  0  0  0  0  0  0  0
   10.6733    1.1038   -2.5243 H   0  0  0  0  0  0  0  0  0  0  0  0
    8.2786   -2.3961    0.5603 H   0  0  0  0  0  0  0  0  0  0  0  0
    9.8982   -4.6162    0.5320 H   0  0  0  0  0  0  0  0  0  0  0  0
   12.5032   -0.4111   -0.9149 H   0  0  0  0  0  0  0  0  0  0  0  0
   12.9902   -3.5515   -0.3782 H   0  0  0  0  0  0  0  0  0  0  0  0
  1  2  1  0
  2  3  1  0
  3  4  1  0
  4  5  1  0
  5  6  1  0
  6  7  1  0
  7  8  1  0
  8  9  2  0
  8 10  1  0
 10 11  1  0
 11 12  2  0
 12 13  1  0
 13 14  2  0
 14 15  1  0
 15 16  2  0
 14 17  1  0
 17 18  2  0
 17 19  2  0
 17 20  1  0
 20 21  1  0
 21 22  2  0
 22 23  1  0
 23 24  2  0
 24 25  1  0
 25 26  2  0
 24 27  1  0
 27 28  2  0
 28 29  1  0
 29 30  2  0
 30 31  1  0
 31 32  2  0
 31 33  1  0
 33 34  1  0
 34 35  1  0
 35 36  1  0
 36 37  1  0
 37 38  1  0
 38 39  2  0
 39 40  1  0
 40 41  2  0
 41 42  1  0
 41 43  1  0
 43 44  2  0
 43 45  1  0
 16 11  1  0
 26 21  1  0
 32 27  1  0
 39 34  1  0
 44 38  1  0
  1 46  1  0
  1 47  1  0
  1 48  1  0
  2 49  1  0
  2 50  1  0
  3 51  1  0
  3 52  1  0
  4 53  1  0
  4 54  1  0
  5 55  1  0
  5 56  1  0
  6 57  1  0
  6 58  1  0
  7 59  1  0
 10 60  1  0
 12 61  1  0
 13 62  1  0
 15 63  1  0
 16 64  1  0
 20 65  1  0
 22 66  1  0
 23 67  1  0
 25 68  1  0
 26 69  1  0
 28 70  1  0
 29 71  1  0
 30 72  1  0
 32 73  1  0
 33 74  1  0
 33 75  1  0
 34 76  1  0
 35 77  1  0
 36 78  1  0
 36 79  1  0
 37 80  1  0
 37 81  1  0
 40 82  1  0
 42 83  1  0
 44 84  1  0
 45 85  1  0
M  END
>  <Ligand ID>  (1) 
LIG0004308

>  <Ligand>  (1) 
CHEMBL74860

>  <SMILES>  (1) 
CCCCCCNC(=O)Nc1ccc(cc1)S(=O)(=O)Nc1ccc(cc1)c1cccc(c1)CC1NCCc2c1cc(O)c(c2)O

>  <CID>  (1) 
9962058.0

>  <ChEMBL ID>  (1) 
nan

>  <InChiKey>  (1) 
QWPHHLLRPMQBBN-UHFFFAOYSA-N

>  <InChi>  (1) 
InChI=1S/C35H40N4O5S/c1-2-3-4-5-18-37-35(42)38-28-13-15-30(16-14-28)45(43,44)39-29-11-9-25(10-12-29)26-8-6-7-24(20-26)21-32-31-23-34(41)33(40)22-27(31)17-19-36-32/h6-16,20,22-23,32,36,39-41H,2-5,17-19,21H2,1H3,(H2,37,38,42)

>  <IUPAC Name>  (1) 
1-[4-[[4-[3-[(6,7-dihydroxy-1,2,3,4-tetrahydroisoquinolin-1-yl)methyl]phenyl]phenyl]sulfamoyl]phenyl]-3-hexylurea

$$$$
