
     RDKit          3D

102105  0  0  0  0  0  0  0  0999 V2000
    8.9463   -4.3700   -2.3127 C   0  0  0  0  0  0  0  0  0  0  0  0
    8.1718   -3.1688   -1.7519 C   0  0  0  0  0  0  0  0  0  0  0  0
    8.4393   -2.9841   -0.2964 C   0  0  0  0  0  0  0  0  0  0  0  0
    7.6896   -1.8072    0.2497 C   0  0  0  0  0  0  0  0  0  0  0  0
    6.2409   -1.9445    0.1450 C   0  0  0  0  0  0  0  0  0  0  0  0
    5.6019   -2.8910   -0.3636 O   0  0  0  0  0  0  0  0  0  0  0  0
    5.4411   -0.8739    0.6881 N   0  0  0  0  0  0  0  0  0  0  0  0
    4.0132   -1.0065    0.5806 C   0  0  2  0  0  0  0  0  0  0  0  0
    3.2945    0.2527    0.2867 C   0  0  0  0  0  0  0  0  0  0  0  0
    3.9074    1.3322    0.2824 O   0  0  0  0  0  0  0  0  0  0  0  0
    1.9183    0.1797    0.0180 N   0  0  0  0  0  0  0  0  0  0  0  0
    1.0589    1.3060   -0.2692 C   0  0  2  0  0  0  0  0  0  0  0  0
   -0.0849    1.3710    0.6482 C   0  0  0  0  0  0  0  0  0  0  0  0
   -0.0550    0.5781    1.6460 O   0  0  0  0  0  0  0  0  0  0  0  0
   -1.2134    2.2068    0.5602 N   0  0  0  0  0  0  0  0  0  0  0  0
   -2.2806    2.2008    1.5601 C   0  0  2  0  0  0  0  0  0  0  0  0
   -3.3182    1.2205    1.2756 C   0  0  0  0  0  0  0  0  0  0  0  0
   -4.3827    1.0250    1.9089 O   0  0  0  0  0  0  0  0  0  0  0  0
   -3.1221    0.3522    0.1406 N   0  0  0  0  0  0  0  0  0  0  0  0
   -4.1140   -0.6700   -0.2085 C   0  0  2  0  0  0  0  0  0  0  0  0
   -3.6725   -2.0013    0.2064 C   0  0  0  0  0  0  0  0  0  0  0  0
   -4.3731   -3.0439    0.1983 O   0  0  0  0  0  0  0  0  0  0  0  0
   -2.3236   -2.1657    0.6695 N   0  0  0  0  0  0  0  0  0  0  0  0
   -4.5078   -0.5755   -1.6240 C   0  0  0  0  0  0  0  0  0  0  0  0
   -5.4578   -1.6207   -2.0287 C   0  0  0  0  0  0  0  0  0  0  0  0
   -6.8396   -1.5983   -2.0060 C   0  0  0  0  0  0  0  0  0  0  0  0
   -7.3221   -2.7815   -2.4345 N   0  0  0  0  0  0  0  0  0  0  0  0
   -6.3033   -3.5776   -2.7375 C   0  0  0  0  0  0  0  0  0  0  0  0
   -5.1263   -2.8908   -2.4987 C   0  0  0  0  0  0  0  0  0  0  0  0
   -3.9532   -3.5632   -2.7814 C   0  0  0  0  0  0  0  0  0  0  0  0
   -3.9089   -4.8463   -3.2729 C   0  0  0  0  0  0  0  0  0  0  0  0
   -5.0908   -5.5215   -3.5055 C   0  0  0  0  0  0  0  0  0  0  0  0
   -6.2759   -4.8808   -3.2358 C   0  0  0  0  0  0  0  0  0  0  0  0
   -2.7724    3.5278    1.9122 C   0  0  0  0  0  0  0  0  0  0  0  0
   -3.8522    3.5969    2.9309 C   0  0  0  0  0  0  0  0  0  0  0  0
   -4.2257    5.0717    3.2086 C   0  0  0  0  0  0  0  0  0  0  0  0
   -3.0588    5.7590    3.6861 N   0  0  0  0  0  0  0  0  0  0  0  0
   -3.1954    6.9566    4.1876 C   0  0  0  0  0  0  0  0  0  0  0  0
   -4.5090    7.5154    4.2305 N   0  0  0  0  0  0  0  0  0  0  0  0
   -2.0475    7.6544    4.6665 N   0  0  0  0  0  0  0  0  0  0  0  0
    0.8781    1.7093   -1.6494 C   0  0  0  0  0  0  0  0  0  0  0  0
    0.3342    0.8572   -2.6736 C   0  0  0  0  0  0  0  0  0  0  0  0
   -0.9918    0.8031   -3.0578 C   0  0  0  0  0  0  0  0  0  0  0  0
   -1.4356   -0.0337   -4.0737 C   0  0  0  0  0  0  0  0  0  0  0  0
   -0.5680   -0.8608   -4.7565 C   0  0  0  0  0  0  0  0  0  0  0  0
    0.7580   -0.8186   -4.3845 C   0  0  0  0  0  0  0  0  0  0  0  0
    1.1931    0.0102   -3.3796 C   0  0  0  0  0  0  0  0  0  0  0  0
    3.5356   -1.3643    2.0238 C   0  0  0  0  0  0  0  0  0  0  0  0
    3.9252   -0.2943    2.9530 C   0  0  0  0  0  0  0  0  0  0  0  0
    5.0896   -0.2333    3.6476 N   0  0  0  0  0  0  0  0  0  0  0  0
    5.0929    0.8967    4.3917 C   0  0  0  0  0  0  0  0  0  0  0  0
    3.9498    1.5636    4.1875 N   0  0  0  0  0  0  0  0  0  0  0  0
    3.2174    0.8307    3.2942 C   0  0  0  0  0  0  0  0  0  0  0  0
    9.9232   -4.3703   -1.7761 H   0  0  0  0  0  0  0  0  0  0  0  0
    8.4357   -5.3324   -2.0558 H   0  0  0  0  0  0  0  0  0  0  0  0
    9.1128   -4.2671   -3.4060 H   0  0  0  0  0  0  0  0  0  0  0  0
    7.1104   -3.4023   -1.9350 H   0  0  0  0  0  0  0  0  0  0  0  0
    8.4959   -2.2810   -2.3537 H   0  0  0  0  0  0  0  0  0  0  0  0
    8.0206   -3.8926    0.2242 H   0  0  0  0  0  0  0  0  0  0  0  0
    9.5340   -2.9168   -0.1100 H   0  0  0  0  0  0  0  0  0  0  0  0
    8.0424   -1.6671    1.3100 H   0  0  0  0  0  0  0  0  0  0  0  0
    8.0482   -0.8742   -0.2975 H   0  0  0  0  0  0  0  0  0  0  0  0
    5.8678   -0.0375    1.1382 H   0  0  0  0  0  0  0  0  0  0  0  0
    3.7008   -1.8178   -0.0910 H   0  0  0  0  0  0  0  0  0  0  0  0
    1.4392   -0.7676    0.0206 H   0  0  0  0  0  0  0  0  0  0  0  0
    1.7261    2.1787    0.1567 H   0  0  0  0  0  0  0  0  0  0  0  0
   -1.2686    2.8581   -0.2786 H   0  0  0  0  0  0  0  0  0  0  0  0
   -1.7510    1.7559    2.4858 H   0  0  0  0  0  0  0  0  0  0  0  0
   -2.2859    0.4147   -0.4619 H   0  0  0  0  0  0  0  0  0  0  0  0
   -5.0578   -0.4818    0.4108 H   0  0  0  0  0  0  0  0  0  0  0  0
   -2.1553   -2.7880    1.5114 H   0  0  0  0  0  0  0  0  0  0  0  0
   -1.5030   -1.7176    0.2358 H   0  0  0  0  0  0  0  0  0  0  0  0
   -5.0223    0.4047   -1.8541 H   0  0  0  0  0  0  0  0  0  0  0  0
   -3.6305   -0.6755   -2.3244 H   0  0  0  0  0  0  0  0  0  0  0  0
   -7.4087   -0.7218   -1.6800 H   0  0  0  0  0  0  0  0  0  0  0  0
   -8.3615   -2.9806   -2.4957 H   0  0  0  0  0  0  0  0  0  0  0  0
   -3.0112   -3.0528   -2.6071 H   0  0  0  0  0  0  0  0  0  0  0  0
   -2.9286   -5.2918   -3.4609 H   0  0  0  0  0  0  0  0  0  0  0  0
   -5.0078   -6.5255   -3.8932 H   0  0  0  0  0  0  0  0  0  0  0  0
   -7.2109   -5.3988   -3.4140 H   0  0  0  0  0  0  0  0  0  0  0  0
   -3.1443    4.0332    0.9832 H   0  0  0  0  0  0  0  0  0  0  0  0
   -1.8828    4.1702    2.2095 H   0  0  0  0  0  0  0  0  0  0  0  0
   -4.7611    3.0877    2.5296 H   0  0  0  0  0  0  0  0  0  0  0  0
   -3.5327    3.1464    3.8853 H   0  0  0  0  0  0  0  0  0  0  0  0
   -4.5934    5.4976    2.2568 H   0  0  0  0  0  0  0  0  0  0  0  0
   -5.0268    5.0430    3.9962 H   0  0  0  0  0  0  0  0  0  0  0  0
   -4.7021    8.4099    3.7695 H   0  0  0  0  0  0  0  0  0  0  0  0
   -5.3101    7.0346    4.7292 H   0  0  0  0  0  0  0  0  0  0  0  0
   -2.1313    8.3110    5.4471 H   0  0  0  0  0  0  0  0  0  0  0  0
   -1.1019    7.5225    4.2459 H   0  0  0  0  0  0  0  0  0  0  0  0
    1.8513    2.1858   -2.0257 H   0  0  0  0  0  0  0  0  0  0  0  0
    0.2103    2.6319   -1.6291 H   0  0  0  0  0  0  0  0  0  0  0  0
   -1.6634    1.4649   -2.5108 H   0  0  0  0  0  0  0  0  0  0  0  0
   -2.4947    0.0189   -4.2864 H   0  0  0  0  0  0  0  0  0  0  0  0
   -0.9630   -1.4924   -5.5334 H   0  0  0  0  0  0  0  0  0  0  0  0
    1.4256   -1.4774   -4.9332 H   0  0  0  0  0  0  0  0  0  0  0  0
    2.2528    0.0368   -3.0903 H   0  0  0  0  0  0  0  0  0  0  0  0
    3.9905   -2.3539    2.2380 H   0  0  0  0  0  0  0  0  0  0  0  0
    2.4292   -1.4461    2.0183 H   0  0  0  0  0  0  0  0  0  0  0  0
    5.8449   -0.9748    3.5857 H   0  0  0  0  0  0  0  0  0  0  0  0
    5.8851    1.2365    5.0589 H   0  0  0  0  0  0  0  0  0  0  0  0
    2.2485    1.1731    2.9745 H   0  0  0  0  0  0  0  0  0  0  0  0
  1  2  1  0
  2  3  1  0
  3  4  1  0
  4  5  1  0
  5  6  2  0
  5  7  1  0
  7  8  1  0
  8  9  1  0
  9 10  2  0
  9 11  1  0
 11 12  1  0
 12 13  1  0
 13 14  2  0
 13 15  1  0
 15 16  1  0
 16 17  1  0
 17 18  2  0
 17 19  1  0
 19 20  1  0
 20 21  1  0
 21 22  2  0
 21 23  1  0
 20 24  1  0
 24 25  1  0
 25 26  2  0
 26 27  1  0
 27 28  1  0
 28 29  2  0
 29 30  1  0
 30 31  2  0
 31 32  1  0
 32 33  2  0
 16 34  1  0
 34 35  1  0
 35 36  1  0
 36 37  1  0
 37 38  2  3
 38 39  1  0
 38 40  1  0
 12 41  1  0
 41 42  1  0
 42 43  2  0
 43 44  1  0
 44 45  2  0
 45 46  1  0
 46 47  2  0
  8 48  1  0
 48 49  1  0
 49 50  1  0
 50 51  1  0
 51 52  2  0
 52 53  1  0
 29 25  1  0
 47 42  1  0
 53 49  2  0
 33 28  1  0
  1 54  1  0
  1 55  1  0
  1 56  1  0
  2 57  1  0
  2 58  1  0
  3 59  1  0
  3 60  1  0
  4 61  1  0
  4 62  1  0
  7 63  1  0
  8 64  1  6
 11 65  1  0
 12 66  1  1
 15 67  1  0
 16 68  1  1
 19 69  1  0
 20 70  1  1
 23 71  1  0
 23 72  1  0
 24 73  1  0
 24 74  1  0
 26 75  1  0
 27 76  1  0
 30 77  1  0
 31 78  1  0
 32 79  1  0
 33 80  1  0
 34 81  1  0
 34 82  1  0
 35 83  1  0
 35 84  1  0
 36 85  1  0
 36 86  1  0
 39 87  1  0
 39 88  1  0
 40 89  1  0
 40 90  1  0
 41 91  1  0
 41 92  1  0
 43 93  1  0
 44 94  1  0
 45 95  1  0
 46 96  1  0
 47 97  1  0
 48 98  1  0
 48 99  1  0
 50100  1  0
 51101  1  0
 53102  1  0
M  END
>  <Ligand ID>  (1) 
LIG0004187

>  <Ligand>  (1) 
CHEMBL406276

>  <SMILES>  (1) 
CCCCC(=O)N[C@H](C(=O)N[C@H](C(=O)N[C@H](C(=O)N[C@H](C(=O)N)Cc1c[nH]c2c1cccc2)CCCN=C(N)N)Cc1ccccc1)Cc1[nH]cnc1

>  <CID>  (1) 
44322959.0

>  <ChEMBL ID>  (1) 
nan

>  <InChiKey>  (1) 
FZMMHTRNAWCOMM-ORYMTKCHSA-N

>  <InChi>  (1) 
InChI=1S/C37H49N11O5/c1-2-3-15-32(49)45-31(19-25-21-41-22-44-25)36(53)48-30(17-23-10-5-4-6-11-23)35(52)46-28(14-9-16-42-37(39)40)34(51)47-29(33(38)50)18-24-20-43-27-13-8-7-12-26(24)27/h4-8,10-13,20-22,28-31,43H,2-3,9,14-19H2,1H3,(H2,38,50)(H,41,44)(H,45,49)(H,46,52)(H,47,51)(H,48,53)(H4,39,40,42)/t28-,29-,30-,31-/m0/s1

>  <IUPAC Name>  (1) 
(2S)-N-[(2S)-1-amino-3-(1H-indol-3-yl)-1-oxopropan-2-yl]-5-(diaminomethylideneamino)-2-[[(2S)-2-[[(2S)-3-(1H-imidazol-5-yl)-2-(pentanoylamino)propanoyl]amino]-3-phenylpropanoyl]amino]pentanamide

$$$$
