
     RDKit          3D

 29 31  0  0  0  0  0  0  0  0999 V2000
   -4.9068    1.1389    0.4937 C   0  0  0  0  0  0  0  0  0  0  0  0
   -3.7079    1.8411    0.6289 C   0  0  0  0  0  0  0  0  0  0  0  0
   -2.4795    1.2218    0.4675 C   0  0  0  0  0  0  0  0  0  0  0  0
   -2.4550   -0.1321    0.1637 C   0  0  0  0  0  0  0  0  0  0  0  0
   -3.6219   -0.7830    0.0395 N   0  0  0  0  0  0  0  0  0  0  0  0
   -4.8280   -0.1990    0.1926 C   0  0  0  0  0  0  0  0  0  0  0  0
   -1.1804   -0.8210   -0.0141 C   0  0  0  0  0  0  0  0  0  0  0  0
   -1.1904   -2.1669   -0.3154 C   0  0  0  0  0  0  0  0  0  0  0  0
    0.0400   -2.7783   -0.4750 C   0  0  0  0  0  0  0  0  0  0  0  0
    1.2353   -2.1132   -0.3481 C   0  0  0  0  0  0  0  0  0  0  0  0
    1.1763   -0.7677   -0.0456 C   0  0  0  0  0  0  0  0  0  0  0  0
   -0.0271   -0.1851    0.1071 N   0  0  0  0  0  0  0  0  0  0  0  0
    2.4350   -0.0431    0.0936 C   0  0  0  0  0  0  0  0  0  0  0  0
    2.4816    1.3010    0.3938 C   0  0  0  0  0  0  0  0  0  0  0  0
    3.7042    1.9631    0.5196 C   0  0  0  0  0  0  0  0  0  0  0  0
    4.8621    1.2145    0.3306 C   0  0  0  0  0  0  0  0  0  0  0  0
    4.7977   -0.1490    0.0264 C   0  0  0  0  0  0  0  0  0  0  0  0
    3.5776   -0.6974   -0.0740 N   0  0  0  0  0  0  0  0  0  0  0  0
   -5.8745    1.6371    0.6232 H   0  0  0  0  0  0  0  0  0  0  0  0
   -3.7581    2.9118    0.8697 H   0  0  0  0  0  0  0  0  0  0  0  0
   -1.5412    1.7836    0.5760 H   0  0  0  0  0  0  0  0  0  0  0  0
   -5.7436   -0.7862    0.0779 H   0  0  0  0  0  0  0  0  0  0  0  0
   -2.0914   -2.7500   -0.4294 H   0  0  0  0  0  0  0  0  0  0  0  0
    0.0506   -3.8428   -0.7137 H   0  0  0  0  0  0  0  0  0  0  0  0
    2.1894   -2.6103   -0.4770 H   0  0  0  0  0  0  0  0  0  0  0  0
    1.5460    1.8562    0.5353 H   0  0  0  0  0  0  0  0  0  0  0  0
    3.7605    3.0239    0.7561 H   0  0  0  0  0  0  0  0  0  0  0  0
    5.8488    1.6737    0.4153 H   0  0  0  0  0  0  0  0  0  0  0  0
    5.7005   -0.7416   -0.1230 H   0  0  0  0  0  0  0  0  0  0  0  0
  1  2  2  0
  2  3  1  0
  3  4  2  0
  4  5  1  0
  5  6  2  0
  4  7  1  0
  7  8  2  0
  8  9  1  0
  9 10  2  0
 10 11  1  0
 11 12  2  0
 11 13  1  0
 13 14  2  0
 14 15  1  0
 15 16  2  0
 16 17  1  0
 17 18  2  0
  6  1  1  0
 12  7  1  0
 18 13  1  0
  1 19  1  0
  2 20  1  0
  3 21  1  0
  6 22  1  0
  8 23  1  0
  9 24  1  0
 10 25  1  0
 14 26  1  0
 15 27  1  0
 16 28  1  0
 17 29  1  0
M  END
>  <Ligand ID>  (1) 
LIG0002759

>  <Ligand>  (1) 
2,2':6',2''-Terpyridine

>  <SMILES>  (1) 
c1ccc(nc1)c1cccc(n1)c1ccccn1

>  <CID>  (1) 
70848.0

>  <ChEMBL ID>  (1) 
nan

>  <InChiKey>  (1) 
DRGAZIDRYFYHIJ-UHFFFAOYSA-N

>  <InChi>  (1) 
InChI=1S/C15H11N3/c1-3-10-16-12(6-1)14-8-5-9-15(18-14)13-7-2-4-11-17-13/h1-11H

>  <IUPAC Name>  (1) 
2,6-dipyridin-2-ylpyridine

$$$$
