
     RDKit          3D

 29 29  0  0  0  0  0  0  0  0999 V2000
    3.3262   -0.5409    0.1611 C   0  0  0  0  0  0  0  0  0  0  0  0
    2.2419   -0.1284   -0.8089 C   0  0  2  0  0  0  0  0  0  0  0  0
    1.4214    0.9560   -0.1984 C   0  0  0  0  0  0  0  0  0  0  0  0
    0.3915    0.4816    0.7904 C   0  0  0  0  0  0  0  0  0  0  0  0
   -0.6180   -0.4656    0.1822 C   0  0  2  0  0  0  0  0  0  0  0  0
   -0.0737   -0.8268   -1.1576 C   0  0  0  0  0  0  0  0  0  0  0  0
   -0.7204   -0.7461   -2.1886 O   0  0  0  0  0  0  0  0  0  0  0  0
    1.3556   -1.3102   -1.1741 C   0  0  0  0  0  0  0  0  0  0  0  0
   -1.9900    0.1157    0.1098 C   0  0  0  0  0  0  0  0  0  0  0  0
   -2.9255   -0.8853   -0.5035 C   0  0  0  0  0  0  0  0  0  0  0  0
   -2.4701    0.3488    1.5296 C   0  0  0  0  0  0  0  0  0  0  0  0
    3.7175   -1.5414   -0.0941 H   0  0  0  0  0  0  0  0  0  0  0  0
    4.0928    0.2405    0.2012 H   0  0  0  0  0  0  0  0  0  0  0  0
    2.8766   -0.6224    1.1847 H   0  0  0  0  0  0  0  0  0  0  0  0
    2.6998    0.2683   -1.7486 H   0  0  0  0  0  0  0  0  0  0  0  0
    2.0807    1.6587    0.3583 H   0  0  0  0  0  0  0  0  0  0  0  0
    0.8625    1.5432   -0.9725 H   0  0  0  0  0  0  0  0  0  0  0  0
    0.8394   -0.0084    1.6767 H   0  0  0  0  0  0  0  0  0  0  0  0
   -0.1352    1.4166    1.1377 H   0  0  0  0  0  0  0  0  0  0  0  0
   -0.6649   -1.4289    0.7578 H   0  0  0  0  0  0  0  0  0  0  0  0
    1.5751   -1.6859   -2.1738 H   0  0  0  0  0  0  0  0  0  0  0  0
    1.4752   -2.1010   -0.4185 H   0  0  0  0  0  0  0  0  0  0  0  0
   -1.9844    1.0552   -0.4802 H   0  0  0  0  0  0  0  0  0  0  0  0
   -2.9795   -0.8321   -1.5943 H   0  0  0  0  0  0  0  0  0  0  0  0
   -2.6821   -1.9137   -0.1699 H   0  0  0  0  0  0  0  0  0  0  0  0
   -3.9535   -0.6392   -0.1073 H   0  0  0  0  0  0  0  0  0  0  0  0
   -1.5923    0.4298    2.2087 H   0  0  0  0  0  0  0  0  0  0  0  0
   -3.0776   -0.5038    1.8850 H   0  0  0  0  0  0  0  0  0  0  0  0
   -3.0891    1.2683    1.6073 H   0  0  0  0  0  0  0  0  0  0  0  0
  1  2  1  0
  2  3  1  0
  3  4  1  0
  4  5  1  0
  5  6  1  0
  6  7  2  0
  6  8  1  0
  5  9  1  0
  9 10  1  0
  9 11  1  0
  8  2  1  0
  1 12  1  0
  1 13  1  0
  1 14  1  0
  2 15  1  6
  3 16  1  0
  3 17  1  0
  4 18  1  0
  4 19  1  0
  5 20  1  1
  8 21  1  0
  8 22  1  0
  9 23  1  0
 10 24  1  0
 10 25  1  0
 10 26  1  0
 11 27  1  0
 11 28  1  0
 11 29  1  0
M  END
>  <Ligand ID>  (1) 
LIG0000156

>  <Ligand>  (1) 
Menthone

>  <SMILES>  (1) 
C[C@@H]1CC[C@H](C(=O)C1)C(C)C

>  <CID>  (1) 
26447.0

>  <ChEMBL ID>  (1) 
nan

>  <InChiKey>  (1) 
NFLGAXVYCFJBMK-BDAKNGLRSA-N

>  <InChi>  (1) 
InChI=1S/C10H18O/c1-7(2)9-5-4-8(3)6-10(9)11/h7-9H,4-6H2,1-3H3/t8-,9+/m1/s1

>  <IUPAC Name>  (1) 
(2S,5R)-5-methyl-2-propan-2-ylcyclohexan-1-one

$$$$
