
     RDKit          3D

 24 23  0  0  0  0  0  0  0  0999 V2000
    3.6052   -0.3174    0.0632 N   0  0  0  0  0  0  0  0  0  0  0  0
    2.1894   -0.5916   -0.1132 C   0  0  0  0  0  0  0  0  0  0  0  0
    1.4412    0.6287    0.3863 C   0  0  0  0  0  0  0  0  0  0  0  0
   -0.0440    0.4235    0.2372 C   0  0  0  0  0  0  0  0  0  0  0  0
   -0.6598    0.8178   -0.9475 C   0  0  0  0  0  0  0  0  0  0  0  0
   -2.0234    0.6491   -1.1305 C   0  0  0  0  0  0  0  0  0  0  0  0
   -2.7523    0.0741   -0.0926 C   0  0  0  0  0  0  0  0  0  0  0  0
   -2.1487   -0.3171    1.0798 C   0  0  0  0  0  0  0  0  0  0  0  0
   -0.7907   -0.1436    1.2493 C   0  0  0  0  0  0  0  0  0  0  0  0
   -2.8732   -0.8920    2.1196 O   0  0  0  0  0  0  0  0  0  0  0  0
   -4.0998   -0.0910   -0.2770 O   0  0  0  0  0  0  0  0  0  0  0  0
    0.0000    0.0000    0.0000 Cl  0  0  0  0  0  0  0  0  0  0  0  0
    3.9834    0.2363   -0.7479 H   0  0  0  0  0  0  0  0  0  0  0  0
    3.7160    0.2458    0.9350 H   0  0  0  0  0  0  0  0  0  0  0  0
    4.1746   -1.1882    0.1242 H   0  0  0  0  0  0  0  0  0  0  0  0
    1.9064   -1.4203    0.5836 H   0  0  0  0  0  0  0  0  0  0  0  0
    1.9253   -0.8638   -1.1514 H   0  0  0  0  0  0  0  0  0  0  0  0
    1.7042    0.7476    1.4587 H   0  0  0  0  0  0  0  0  0  0  0  0
    1.7366    1.5523   -0.1331 H   0  0  0  0  0  0  0  0  0  0  0  0
   -0.0783    1.2639   -1.7461 H   0  0  0  0  0  0  0  0  0  0  0  0
   -2.5201    0.9568   -2.0620 H   0  0  0  0  0  0  0  0  0  0  0  0
   -0.3329   -0.4556    2.1742 H   0  0  0  0  0  0  0  0  0  0  0  0
   -3.2713   -1.8201    1.9228 H   0  0  0  0  0  0  0  0  0  0  0  0
   -4.7877    0.5049    0.1749 H   0  0  0  0  0  0  0  0  0  0  0  0
  1  2  1  0
  2  3  1  0
  3  4  1  0
  4  5  2  0
  5  6  1  0
  6  7  2  0
  7  8  1  0
  8  9  2  0
  8 10  1  0
  7 11  1  0
  9  4  1  0
  1 13  1  0
  1 14  1  0
  1 15  1  0
  2 16  1  0
  2 17  1  0
  3 18  1  0
  3 19  1  0
  5 20  1  0
  6 21  1  0
  9 22  1  0
 10 23  1  0
 11 24  1  0
M  CHG  2   1   1  12  -1
M  END
>  <Ligand ID>  (1) 
LIG0005787

>  <Ligand>  (1) 
3-hydroxytyraminium chloride

>  <SMILES>  (1) 
[NH3+]CCc1ccc(c(c1)O)O.[Cl-]

>  <CID>  (1) 
517540.0

>  <ChEMBL ID>  (1) 
nan

>  <InChiKey>  (1) 
CTENFNNZBMHDDG-UHFFFAOYSA-N

>  <InChi>  (1) 
InChI=1S/C8H11NO2.ClH/c9-4-3-6-1-2-7(10)8(11)5-6;/h1-2,5,10-11H,3-4,9H2;1H

>  <IUPAC Name>  (1) 
2-(3,4-dihydroxyphenyl)ethylazanium;chloride

$$$$
