
     RDKit          3D

 65 67  0  0  0  0  0  0  0  0999 V2000
   -1.3119   -2.3055   -2.6354 O   0  0  0  0  0  0  0  0  0  0  0  0
   -0.0101   -2.1359   -2.2244 C   0  0  2  0  0  0  0  0  0  0  0  0
    1.0165   -2.7986   -3.1176 C   0  0  2  0  0  0  0  0  0  0  0  0
    0.5166   -4.0442   -3.4967 O   0  0  0  0  0  0  0  0  0  0  0  0
    2.1638   -2.9201   -2.1525 C   0  0  2  0  0  0  0  0  0  0  0  0
    1.6228   -3.0837   -0.8883 O   0  0  0  0  0  0  0  0  0  0  0  0
    0.2717   -2.8916   -0.9213 C   0  0  1  0  0  0  0  0  0  0  0  0
   -0.2615   -2.0660    0.1293 N   0  0  0  0  0  0  0  0  0  0  0  0
   -1.5867   -2.0764    0.3499 C   0  0  0  0  0  0  0  0  0  0  0  0
   -2.1610   -1.3054    1.3397 C   0  0  0  0  0  0  0  0  0  0  0  0
   -1.3587   -0.5134    2.1121 C   0  0  0  0  0  0  0  0  0  0  0  0
   -0.0475   -0.5115    1.8844 N   0  0  0  0  0  0  0  0  0  0  0  0
    0.4842   -1.2747    0.9111 C   0  0  0  0  0  0  0  0  0  0  0  0
    1.7143   -1.2270    0.7504 O   0  0  0  0  0  0  0  0  0  0  0  0
   -1.9123    0.2973    3.1383 N   0  0  0  0  0  0  0  0  0  0  0  0
   -3.2233    0.3642    3.4238 O   0  0  0  0  0  0  0  0  0  0  0  0
   -3.8329    1.3041    2.6056 C   0  0  0  0  0  0  0  0  0  0  0  0
   -5.3036    1.3892    2.9922 C   0  0  0  0  0  0  0  0  0  0  0  0
   -6.0248    2.4070    2.1205 C   0  0  0  0  0  0  0  0  0  0  0  0
   -5.9347    2.0216    0.6995 C   0  0  0  0  0  0  0  0  0  0  0  0
   -6.9406    1.2028    0.1939 C   0  0  0  0  0  0  0  0  0  0  0  0
   -6.9141    0.8050   -1.1314 C   0  0  0  0  0  0  0  0  0  0  0  0
   -5.8645    1.2411   -1.9373 C   0  0  0  0  0  0  0  0  0  0  0  0
   -4.8603    2.0519   -1.4534 C   0  0  0  0  0  0  0  0  0  0  0  0
   -4.8984    2.4407   -0.1325 C   0  0  0  0  0  0  0  0  0  0  0  0
    2.9563   -1.6113   -2.2264 C   0  0  0  0  0  0  0  0  0  0  0  0
    3.9957   -1.6010   -1.3097 O   0  0  0  0  0  0  0  0  0  0  0  0
    4.8360   -0.1598   -1.2826 P   0  0  0  0  0  0  0  0  0  0  0  0
    6.2321   -0.2327   -1.8021 O   0  0  0  0  0  0  0  0  0  0  0  0
    4.9225    0.3099    0.3609 O   0  0  0  0  0  0  0  0  0  0  0  0
    6.4756    0.1436    0.9746 P   0  0  0  0  0  0  0  0  0  0  0  0
    7.5263    0.2401   -0.1138 O   0  0  0  0  0  0  0  0  0  0  0  0
    6.6714    1.3879    2.1305 O   0  0  0  0  0  0  0  0  0  0  0  0
    6.9998    2.7973    1.2389 P   0  0  0  0  0  0  0  0  0  0  0  0
    5.7148    3.2447    0.5810 O   0  0  0  0  0  0  0  0  0  0  0  0
    8.1792    2.4490    0.0639 O   0  0  0  0  0  0  0  0  0  0  0  0
    7.5919    4.0334    2.2331 O   0  0  0  0  0  0  0  0  0  0  0  0
    6.5591   -1.3568    1.7648 O   0  0  0  0  0  0  0  0  0  0  0  0
    4.0191    1.0602   -2.1450 O   0  0  0  0  0  0  0  0  0  0  0  0
   -1.3328   -2.1235   -3.6087 H   0  0  0  0  0  0  0  0  0  0  0  0
    0.2643   -1.0596   -2.1158 H   0  0  0  0  0  0  0  0  0  0  0  0
    1.2206   -2.1344   -3.9684 H   0  0  0  0  0  0  0  0  0  0  0  0
    1.2222   -4.6040   -3.9359 H   0  0  0  0  0  0  0  0  0  0  0  0
    2.8287   -3.7734   -2.3538 H   0  0  0  0  0  0  0  0  0  0  0  0
   -0.2985   -3.8458   -0.9761 H   0  0  0  0  0  0  0  0  0  0  0  0
   -2.2035   -2.7041   -0.2652 H   0  0  0  0  0  0  0  0  0  0  0  0
   -3.2250   -1.3711    1.4514 H   0  0  0  0  0  0  0  0  0  0  0  0
   -1.2782    0.8958    3.7310 H   0  0  0  0  0  0  0  0  0  0  0  0
   -3.3305    2.2641    2.7871 H   0  0  0  0  0  0  0  0  0  0  0  0
   -3.7232    0.9686    1.5570 H   0  0  0  0  0  0  0  0  0  0  0  0
   -5.3274    1.7356    4.0524 H   0  0  0  0  0  0  0  0  0  0  0  0
   -5.7897    0.3994    2.8891 H   0  0  0  0  0  0  0  0  0  0  0  0
   -5.5504    3.4069    2.3082 H   0  0  0  0  0  0  0  0  0  0  0  0
   -7.0753    2.4484    2.4731 H   0  0  0  0  0  0  0  0  0  0  0  0
   -7.7531    0.8716    0.8399 H   0  0  0  0  0  0  0  0  0  0  0  0
   -7.7052    0.1757   -1.4809 H   0  0  0  0  0  0  0  0  0  0  0  0
   -5.8394    0.9331   -2.9726 H   0  0  0  0  0  0  0  0  0  0  0  0
   -4.0423    2.3996   -2.0564 H   0  0  0  0  0  0  0  0  0  0  0  0
   -4.1453    3.0745    0.3145 H   0  0  0  0  0  0  0  0  0  0  0  0
    3.2631   -1.3859   -3.2521 H   0  0  0  0  0  0  0  0  0  0  0  0
    2.2718   -0.7961   -1.9145 H   0  0  0  0  0  0  0  0  0  0  0  0
    9.0034    2.9588    0.2336 H   0  0  0  0  0  0  0  0  0  0  0  0
    8.5283    3.7946    2.4511 H   0  0  0  0  0  0  0  0  0  0  0  0
    7.3939   -1.4566    2.2686 H   0  0  0  0  0  0  0  0  0  0  0  0
    4.6005    1.8523   -2.2520 H   0  0  0  0  0  0  0  0  0  0  0  0
  1  2  1  0
  2  3  1  0
  3  4  1  0
  3  5  1  0
  5  6  1  0
  6  7  1  0
  7  8  1  0
  8  9  1  0
  9 10  2  0
 10 11  1  0
 11 12  2  0
 12 13  1  0
 13 14  2  0
 11 15  1  0
 15 16  1  0
 16 17  1  0
 17 18  1  0
 18 19  1  0
 19 20  1  0
 20 21  2  0
 21 22  1  0
 22 23  2  0
 23 24  1  0
 24 25  2  0
  5 26  1  0
 26 27  1  0
 27 28  1  0
 28 29  2  0
 28 30  1  0
 30 31  1  0
 31 32  2  0
 31 33  1  0
 33 34  1  0
 34 35  2  0
 34 36  1  0
 34 37  1  0
 31 38  1  0
 28 39  1  0
  7  2  1  0
 13  8  1  0
 25 20  1  0
  1 40  1  0
  2 41  1  1
  3 42  1  6
  4 43  1  0
  5 44  1  6
  7 45  1  6
  9 46  1  0
 10 47  1  0
 15 48  1  0
 17 49  1  0
 17 50  1  0
 18 51  1  0
 18 52  1  0
 19 53  1  0
 19 54  1  0
 21 55  1  0
 22 56  1  0
 23 57  1  0
 24 58  1  0
 25 59  1  0
 26 60  1  0
 26 61  1  0
 36 62  1  0
 37 63  1  0
 38 64  1  0
 39 65  1  0
M  END
>  <Ligand ID>  (1) 
LIG0002678

>  <Ligand>  (1) 
MRS-4062

>  <SMILES>  (1) 
O[C@@H]1[C@H](O)[C@H](O[C@H]1n1ccc(nc1=O)NOCCCc1ccccc1)COP(=O)(OP(=O)(OP(=O)(O)O)O)O

>  <CID>  (1) 
53262902.0

>  <ChEMBL ID>  (1) 
nan

>  <InChiKey>  (1) 
FAYLMQPZASAIOS-MWQQHZPXSA-N

>  <InChi>  (1) 
InChI=1S/C18H26N3O15P3/c22-15-13(11-33-38(28,29)36-39(30,31)35-37(25,26)27)34-17(16(15)23)21-9-8-14(19-18(21)24)20-32-10-4-7-12-5-2-1-3-6-12/h1-3,5-6,8-9,13,15-17,22-23H,4,7,10-11H2,(H,28,29)(H,30,31)(H,19,20,24)(H2,25,26,27)/t13-,15-,16-,17-/m1/s1

>  <IUPAC Name>  (1) 
[[(2R,3S,4R,5R)-3,4-dihydroxy-5-[2-oxo-4-(3-phenylpropoxyamino)pyrimidin-1-yl]oxolan-2-yl]methoxy-hydroxyphosphoryl] phosphono hydrogen phosphate

$$$$
