
     RDKit          3D

 59 63  0  0  0  0  0  0  0  0999 V2000
    6.7942    3.5914   -2.3636 N   0  0  0  0  0  0  0  0  0  0  0  0
    6.2619    2.7445   -1.7526 C   0  0  0  0  0  0  0  0  0  0  0  0
    5.5940    1.6822   -1.0151 C   0  0  0  0  0  0  0  0  0  0  0  0
    4.2371    1.4827   -1.2025 C   0  0  0  0  0  0  0  0  0  0  0  0
    3.5726    0.4900   -0.5239 C   0  0  0  0  0  0  0  0  0  0  0  0
    4.2781   -0.3099    0.3512 C   0  0  0  0  0  0  0  0  0  0  0  0
    5.6462   -0.0908    0.5246 C   0  0  0  0  0  0  0  0  0  0  0  0
    6.3289    0.8943   -0.1426 C   0  0  0  0  0  0  0  0  0  0  0  0
    7.6680    1.1668   -0.0228 O   0  0  0  0  0  0  0  0  0  0  0  0
    8.5881    0.4992    0.7951 C   0  0  0  0  0  0  0  0  0  0  0  0
    9.1623    1.4420    1.8331 C   0  0  0  0  0  0  0  0  0  0  0  0
    9.7133   -0.1035   -0.0221 C   0  0  0  0  0  0  0  0  0  0  0  0
    2.1436    0.2790   -0.7203 C   0  0  0  0  0  0  0  0  0  0  0  0
    1.3782    0.9821   -1.5280 O   0  0  0  0  0  0  0  0  0  0  0  0
    0.1489    0.5459   -1.4778 N   0  0  0  0  0  0  0  0  0  0  0  0
    0.0927   -0.4753   -0.6137 C   0  0  0  0  0  0  0  0  0  0  0  0
    1.3529   -0.6216   -0.1544 N   0  0  0  0  0  0  0  0  0  0  0  0
   -1.0375   -1.3003   -0.2026 C   0  0  0  0  0  0  0  0  0  0  0  0
   -0.8950   -2.3242    0.7164 C   0  0  0  0  0  0  0  0  0  0  0  0
   -1.9588   -3.0906    1.0946 C   0  0  0  0  0  0  0  0  0  0  0  0
   -3.2390   -2.8817    0.5762 C   0  0  0  0  0  0  0  0  0  0  0  0
   -3.3735   -1.8585   -0.3402 C   0  0  0  0  0  0  0  0  0  0  0  0
   -2.2952   -1.0818   -0.7235 C   0  0  0  0  0  0  0  0  0  0  0  0
   -2.7411   -0.0680   -1.7140 C   0  0  0  0  0  0  0  0  0  0  0  0
   -3.9769   -0.7293   -2.2946 C   0  0  0  0  0  0  0  0  0  0  0  0
   -4.5755   -1.3885   -1.0628 C   0  0  2  0  0  0  0  0  0  0  0  0
   -5.3347   -0.3928   -0.3451 N   0  0  0  0  0  0  0  0  0  0  0  0
   -6.7313   -0.6246   -0.1916 C   0  0  0  0  0  0  0  0  0  0  0  0
   -7.2558   -1.6773   -0.6799 O   0  0  0  0  0  0  0  0  0  0  0  0
   -7.5346    0.3217    0.5071 N   0  0  0  0  0  0  0  0  0  0  0  0
   -7.3779    1.5929    1.1940 C   0  0  0  0  0  0  0  0  0  0  0  0
   -8.5204    1.1348    2.0975 C   0  0  0  0  0  0  0  0  0  0  0  0
   -8.9462    0.3994    0.8387 C   0  0  0  0  0  0  0  0  0  0  0  0
   -8.1221    0.3028    3.1416 O   0  0  0  0  0  0  0  0  0  0  0  0
    3.6512    2.0965   -1.8857 H   0  0  0  0  0  0  0  0  0  0  0  0
    3.7534   -1.0912    0.8847 H   0  0  0  0  0  0  0  0  0  0  0  0
    6.1510   -0.7370    1.2143 H   0  0  0  0  0  0  0  0  0  0  0  0
    8.0979   -0.3113    1.3621 H   0  0  0  0  0  0  0  0  0  0  0  0
   10.1284    1.0723    2.1877 H   0  0  0  0  0  0  0  0  0  0  0  0
    9.3548    2.4005    1.2825 H   0  0  0  0  0  0  0  0  0  0  0  0
    8.4438    1.6334    2.6403 H   0  0  0  0  0  0  0  0  0  0  0  0
    9.3982   -0.3233   -1.0727 H   0  0  0  0  0  0  0  0  0  0  0  0
   10.0696   -1.0035    0.5093 H   0  0  0  0  0  0  0  0  0  0  0  0
   10.5556    0.6179    0.0056 H   0  0  0  0  0  0  0  0  0  0  0  0
    0.1132   -2.4689    1.1078 H   0  0  0  0  0  0  0  0  0  0  0  0
   -1.8140   -3.8920    1.8228 H   0  0  0  0  0  0  0  0  0  0  0  0
   -4.0395   -3.5120    0.9068 H   0  0  0  0  0  0  0  0  0  0  0  0
   -3.0012    0.8539   -1.1652 H   0  0  0  0  0  0  0  0  0  0  0  0
   -1.9763    0.1274   -2.4914 H   0  0  0  0  0  0  0  0  0  0  0  0
   -3.7075   -1.4552   -3.0644 H   0  0  0  0  0  0  0  0  0  0  0  0
   -4.6639    0.0647   -2.6829 H   0  0  0  0  0  0  0  0  0  0  0  0
   -5.2339   -2.2155   -1.3963 H   0  0  0  0  0  0  0  0  0  0  0  0
   -4.8447    0.4486    0.0308 H   0  0  0  0  0  0  0  0  0  0  0  0
   -6.4120    1.7147    1.7225 H   0  0  0  0  0  0  0  0  0  0  0  0
   -7.7073    2.4296    0.5691 H   0  0  0  0  0  0  0  0  0  0  0  0
   -9.2087    1.9367    2.4287 H   0  0  0  0  0  0  0  0  0  0  0  0
   -9.4585   -0.5570    0.9734 H   0  0  0  0  0  0  0  0  0  0  0  0
   -9.4686    1.1367    0.1777 H   0  0  0  0  0  0  0  0  0  0  0  0
   -7.2267    0.5010    3.4733 H   0  0  0  0  0  0  0  0  0  0  0  0
  1  2  3  0
  2  3  1  0
  3  4  2  0
  4  5  1  0
  5  6  2  0
  6  7  1  0
  7  8  2  0
  8  9  1  0
  9 10  1  0
 10 11  1  0
 10 12  1  0
  5 13  1  0
 13 14  1  0
 14 15  1  0
 15 16  2  0
 16 17  1  0
 16 18  1  0
 18 19  2  0
 19 20  1  0
 20 21  2  0
 21 22  1  0
 22 23  2  0
 23 24  1  0
 24 25  1  0
 25 26  1  0
 26 27  1  0
 27 28  1  0
 28 29  2  0
 28 30  1  0
 30 31  1  0
 31 32  1  0
 32 33  1  0
 32 34  1  0
  8  3  1  0
 17 13  2  0
 23 18  1  0
 33 30  1  0
 26 22  1  0
  4 35  1  0
  6 36  1  0
  7 37  1  0
 10 38  1  0
 11 39  1  0
 11 40  1  0
 11 41  1  0
 12 42  1  0
 12 43  1  0
 12 44  1  0
 19 45  1  0
 20 46  1  0
 21 47  1  0
 24 48  1  0
 24 49  1  0
 25 50  1  0
 25 51  1  0
 26 52  1  6
 27 53  1  0
 31 54  1  0
 31 55  1  0
 32 56  1  0
 33 57  1  0
 33 58  1  0
 34 59  1  0
M  END
>  <Ligand ID>  (1) 
LIG0001525

>  <Ligand>  (1) 
CHEMBL3893172

>  <SMILES>  (1) 
N#Cc1cc(ccc1OC(C)C)c1onc(n1)c1cccc2c1CC[C@@H]2NC(=O)N1CC(C1)O

>  <CID>  (1) 
58344502.0

>  <ChEMBL ID>  (1) 
nan

>  <InChiKey>  (1) 
PKRZAGCYDFJIFC-NRFANRHFSA-N

>  <InChi>  (1) 
InChI=1S/C25H25N5O4/c1-14(2)33-22-9-6-15(10-16(22)11-26)24-28-23(29-34-24)20-5-3-4-19-18(20)7-8-21(19)27-25(32)30-12-17(31)13-30/h3-6,9-10,14,17,21,31H,7-8,12-13H2,1-2H3,(H,27,32)/t21-/m0/s1

>  <IUPAC Name>  (1) 
N-[(1S)-4-[5-(3-cyano-4-propan-2-yloxyphenyl)-1,2,4-oxadiazol-3-yl]-2,3-dihydro-1H-inden-1-yl]-3-hydroxyazetidine-1-carboxamide

$$$$
