
     RDKit          3D

 30 30  0  0  0  0  0  0  0  0999 V2000
   -3.4046    1.9804   -0.3572 C   0  0  0  0  0  0  0  0  0  0  0  0
   -3.0505    0.7157    0.3894 C   0  0  0  0  0  0  0  0  0  0  0  0
   -1.7783    0.2926   -0.1098 O   0  0  0  0  0  0  0  0  0  0  0  0
   -1.1448   -0.8492    0.3605 C   0  0  0  0  0  0  0  0  0  0  0  0
   -1.6940   -1.5622    1.2675 O   0  0  0  0  0  0  0  0  0  0  0  0
    0.1787   -1.2263   -0.2076 C   0  0  0  0  0  0  0  0  0  0  0  0
    1.2104   -0.1792   -0.0018 C   0  0  0  0  0  0  0  0  0  0  0  0
    2.0108    0.1352   -1.0791 C   0  0  0  0  0  0  0  0  0  0  0  0
    2.9714    1.1108   -0.8862 C   0  0  0  0  0  0  0  0  0  0  0  0
    3.0958    1.7240    0.3485 C   0  0  0  0  0  0  0  0  0  0  0  0
    2.2676    1.3808    1.4187 C   0  0  0  0  0  0  0  0  0  0  0  0
    1.3082    0.4080    1.2298 C   0  0  0  0  0  0  0  0  0  0  0  0
    0.0077   -1.5712   -1.6719 C   0  0  0  0  0  0  0  0  0  0  0  0
    0.6803   -2.4740    0.4883 C   0  0  0  0  0  0  0  0  0  0  0  0
   -3.3455    2.8256    0.3380 H   0  0  0  0  0  0  0  0  0  0  0  0
   -2.6665    2.2219   -1.1710 H   0  0  0  0  0  0  0  0  0  0  0  0
   -4.3935    1.9348   -0.8557 H   0  0  0  0  0  0  0  0  0  0  0  0
   -3.0348    0.8993    1.4671 H   0  0  0  0  0  0  0  0  0  0  0  0
   -3.8363   -0.0244    0.1111 H   0  0  0  0  0  0  0  0  0  0  0  0
    1.9010   -0.3567   -2.0463 H   0  0  0  0  0  0  0  0  0  0  0  0
    3.5939    1.3502   -1.7365 H   0  0  0  0  0  0  0  0  0  0  0  0
    3.8453    2.4790    0.4837 H   0  0  0  0  0  0  0  0  0  0  0  0
    2.3788    1.8742    2.3863 H   0  0  0  0  0  0  0  0  0  0  0  0
    0.6610    0.1427    2.0734 H   0  0  0  0  0  0  0  0  0  0  0  0
   -0.1777   -0.6182   -2.2101 H   0  0  0  0  0  0  0  0  0  0  0  0
    0.8782   -2.1300   -2.0722 H   0  0  0  0  0  0  0  0  0  0  0  0
   -0.9397   -2.1553   -1.7499 H   0  0  0  0  0  0  0  0  0  0  0  0
    0.9490   -2.2808    1.5573 H   0  0  0  0  0  0  0  0  0  0  0  0
   -0.0865   -3.2692    0.4904 H   0  0  0  0  0  0  0  0  0  0  0  0
    1.6146   -2.7783   -0.0533 H   0  0  0  0  0  0  0  0  0  0  0  0
  1  2  1  0
  2  3  1  0
  3  4  1  0
  4  5  2  0
  4  6  1  0
  6  7  1  0
  7  8  2  0
  8  9  1  0
  9 10  2  0
 10 11  1  0
 11 12  2  0
  6 13  1  0
  6 14  1  0
 12  7  1  0
  1 15  1  0
  1 16  1  0
  1 17  1  0
  2 18  1  0
  2 19  1  0
  8 20  1  0
  9 21  1  0
 10 22  1  0
 11 23  1  0
 12 24  1  0
 13 25  1  0
 13 26  1  0
 13 27  1  0
 14 28  1  0
 14 29  1  0
 14 30  1  0
M  END
>  <Ligand ID>  (1) 
LIG0000753

>  <Ligand>  (1) 
ethyl 2-methyl-2-phenylpropanoate

>  <SMILES>  (1) 
CCOC(=O)C(c1ccccc1)(C)C

>  <CID>  (1) 
232036.0

>  <ChEMBL ID>  (1) 
nan

>  <InChiKey>  (1) 
OFYSAFPKXXTYLU-UHFFFAOYSA-N

>  <InChi>  (1) 
InChI=1S/C12H16O2/c1-4-14-11(13)12(2,3)10-8-6-5-7-9-10/h5-9H,4H2,1-3H3

>  <IUPAC Name>  (1) 
ethyl 2-methyl-2-phenylpropanoate

$$$$
