
     RDKit          3D

138139  0  0  0  0  0  0  0  0999 V2000
    2.7284    3.3378    1.7013 C   0  0  0  0  0  0  0  0  0  0  0  0
    2.1486    2.2106    2.4584 C   0  0  0  0  0  0  0  0  0  0  0  0
    2.7540    0.8796    2.3656 C   0  0  0  0  0  0  0  0  0  0  0  0
    2.8024    0.0784    1.1440 C   0  0  0  0  0  0  0  0  0  0  0  0
    3.4344    0.5169   -0.0423 N   0  0  0  0  0  0  0  0  0  0  0  0
    2.8431    1.1454   -1.1660 C   0  0  0  0  0  0  0  0  0  0  0  0
    3.6910    1.6790   -1.9834 O   0  0  0  0  0  0  0  0  0  0  0  0
    1.4565    1.2799   -1.5598 C   0  0  2  0  0  0  0  0  0  0  0  0
    1.0104    2.7203   -1.6128 C   0  0  0  0  0  0  0  0  0  0  0  0
   -0.7600    2.7757   -2.0547 S   0  0  0  0  0  0  0  0  0  0  0  0
   -1.5787    4.4750   -0.9989 S   0  0  0  0  0  0  0  0  0  0  0  0
   -1.9707    3.7464    0.6617 C   0  0  0  0  0  0  0  0  0  0  0  0
   -2.7888    2.5358    0.3490 C   0  0  0  0  0  0  0  0  0  0  0  0
   -4.1298    2.7504   -0.2023 C   0  0  0  0  0  0  0  0  0  0  0  0
   -4.8057    3.7797   -0.1752 O   0  0  0  0  0  0  0  0  0  0  0  0
   -4.7439    1.6371   -0.8689 N   0  0  0  0  0  0  0  0  0  0  0  0
   -6.1801    1.6895   -1.2484 C   0  0  1  0  0  0  0  0  0  0  0  0
   -6.3338    1.3714   -2.6964 C   0  0  0  0  0  0  0  0  0  0  0  0
   -5.5862    2.3949   -3.5179 C   0  0  0  0  0  0  0  0  0  0  0  0
   -4.2607    2.2792   -3.8391 C   0  0  0  0  0  0  0  0  0  0  0  0
   -3.6513    3.2698   -4.5763 C   0  0  0  0  0  0  0  0  0  0  0  0
   -4.3940    4.3730   -4.9842 C   0  0  0  0  0  0  0  0  0  0  0  0
   -5.7547    4.4865   -4.6549 C   0  0  0  0  0  0  0  0  0  0  0  0
   -6.3587    3.4871   -3.9132 C   0  0  0  0  0  0  0  0  0  0  0  0
   -3.8038    5.4091   -5.7388 O   0  0  0  0  0  0  0  0  0  0  0  0
   -6.8510    0.7411   -0.2986 C   0  0  0  0  0  0  0  0  0  0  0  0
   -8.0541    0.7038   -0.0590 O   0  0  0  0  0  0  0  0  0  0  0  0
   -6.0551   -0.2437    0.4136 N   0  0  0  0  0  0  0  0  0  0  0  0
   -6.5504   -1.0440    1.5093 C   0  0  2  0  0  0  0  0  0  0  0  0
   -5.3699   -1.7311    2.0825 C   0  0  0  0  0  0  0  0  0  0  0  0
   -5.3455   -2.0222    3.2864 O   0  0  0  0  0  0  0  0  0  0  0  0
   -4.2150   -2.1183    1.3416 N   0  0  0  0  0  0  0  0  0  0  0  0
   -3.0084   -2.7071    1.8534 C   0  0  2  0  0  0  0  0  0  0  0  0
   -1.8499   -2.5605    0.9582 C   0  0  0  0  0  0  0  0  0  0  0  0
   -0.7805   -3.1161    1.2966 O   0  0  0  0  0  0  0  0  0  0  0  0
   -1.7699   -1.8524   -0.2722 N   0  0  0  0  0  0  0  0  0  0  0  0
   -0.6829   -1.9209   -1.1953 C   0  0  2  0  0  0  0  0  0  0  0  0
    0.2297   -0.8287   -1.4483 C   0  0  0  0  0  0  0  0  0  0  0  0
    1.0414   -1.0732   -2.4450 O   0  0  0  0  0  0  0  0  0  0  0  0
    0.4644    0.4360   -0.8800 N   0  0  0  0  0  0  0  0  0  0  0  0
   -1.2151   -2.4808   -2.5416 C   0  0  0  0  0  0  0  0  0  0  0  0
   -1.7500   -3.8282   -2.3358 C   0  0  0  0  0  0  0  0  0  0  0  0
   -1.7440   -4.4732   -1.2848 O   0  0  0  0  0  0  0  0  0  0  0  0
   -2.3509   -4.4743   -3.4825 N   0  0  0  0  0  0  0  0  0  0  0  0
   -3.1652   -4.2553    1.9222 C   0  0  0  0  0  0  0  0  0  0  0  0
   -4.2500   -4.7451    2.7885 C   0  0  0  0  0  0  0  0  0  0  0  0
   -4.1818   -6.2628    2.7314 C   0  0  0  0  0  0  0  0  0  0  0  0
   -3.3259   -6.8561    2.0311 O   0  0  0  0  0  0  0  0  0  0  0  0
   -5.1156   -7.0062    3.4949 N   0  0  0  0  0  0  0  0  0  0  0  0
   -7.5390   -2.1045    0.9813 C   0  0  2  0  0  0  0  0  0  0  0  0
   -8.0360   -2.8758    2.1687 C   0  0  0  0  0  0  0  0  0  0  0  0
   -8.7547   -1.9715    3.1602 C   0  0  0  0  0  0  0  0  0  0  0  0
   -6.9683   -2.9912   -0.0537 C   0  0  0  0  0  0  0  0  0  0  0  0
    4.8425    0.1297   -0.2147 C   0  0  0  0  0  0  0  0  0  0  0  0
    5.7782    1.1965    0.0976 C   0  0  0  0  0  0  0  0  0  0  0  0
    5.5473    2.3617    0.4602 O   0  0  0  0  0  0  0  0  0  0  0  0
    7.1829    0.8509   -0.0336 N   0  0  0  0  0  0  0  0  0  0  0  0
    8.2559    1.7672    0.2071 C   0  0  2  0  0  0  0  0  0  0  0  0
    9.2657    1.6618   -0.8501 C   0  0  0  0  0  0  0  0  0  0  0  0
    9.1191    0.7863   -1.7408 O   0  0  0  0  0  0  0  0  0  0  0  0
   10.4238    2.4888   -0.9585 N   0  0  0  0  0  0  0  0  0  0  0  0
   11.3015    2.2417   -2.0781 C   0  0  0  0  0  0  0  0  0  0  0  0
   11.8650    0.8798   -2.0105 C   0  0  0  0  0  0  0  0  0  0  0  0
   12.6488    0.4656   -2.9246 O   0  0  0  0  0  0  0  0  0  0  0  0
   11.6025   -0.0572   -0.9698 N   0  0  0  0  0  0  0  0  0  0  0  0
    8.7546    1.6352    1.6090 C   0  0  0  0  0  0  0  0  0  0  0  0
    9.2626    0.3088    2.0427 C   0  0  0  0  0  0  0  0  0  0  0  0
    8.2506   -0.8060    2.0051 C   0  0  0  0  0  0  0  0  0  0  0  0
    9.7165    0.4513    3.5101 C   0  0  0  0  0  0  0  0  0  0  0  0
    3.6668    3.7517    2.1950 H   0  0  0  0  0  0  0  0  0  0  0  0
    3.0271    3.1734    0.6646 H   0  0  0  0  0  0  0  0  0  0  0  0
    2.0507    4.2519    1.7213 H   0  0  0  0  0  0  0  0  0  0  0  0
    1.0151    2.1437    2.3018 H   0  0  0  0  0  0  0  0  0  0  0  0
    2.1772    2.5366    3.5587 H   0  0  0  0  0  0  0  0  0  0  0  0
    2.2596    0.1930    3.1558 H   0  0  0  0  0  0  0  0  0  0  0  0
    3.8143    0.9401    2.8465 H   0  0  0  0  0  0  0  0  0  0  0  0
    1.7583   -0.3160    0.9597 H   0  0  0  0  0  0  0  0  0  0  0  0
    3.3387   -0.8918    1.4322 H   0  0  0  0  0  0  0  0  0  0  0  0
    1.4815    0.9464   -2.6785 H   0  0  0  0  0  0  0  0  0  0  0  0
    1.1691    3.2961   -0.7051 H   0  0  0  0  0  0  0  0  0  0  0  0
    1.5447    3.2081   -2.4450 H   0  0  0  0  0  0  0  0  0  0  0  0
   -1.0506    3.4552    1.1567 H   0  0  0  0  0  0  0  0  0  0  0  0
   -2.5638    4.5012    1.2630 H   0  0  0  0  0  0  0  0  0  0  0  0
   -2.1955    1.9632   -0.4330 H   0  0  0  0  0  0  0  0  0  0  0  0
   -2.8442    1.8540    1.2656 H   0  0  0  0  0  0  0  0  0  0  0  0
   -4.1362    0.8551   -1.0844 H   0  0  0  0  0  0  0  0  0  0  0  0
   -6.6254    2.6693   -1.0317 H   0  0  0  0  0  0  0  0  0  0  0  0
   -7.3603    1.2185   -3.0401 H   0  0  0  0  0  0  0  0  0  0  0  0
   -5.8142    0.3891   -2.9093 H   0  0  0  0  0  0  0  0  0  0  0  0
   -3.6933    1.4019   -3.5038 H   0  0  0  0  0  0  0  0  0  0  0  0
   -2.6131    3.2622   -4.8707 H   0  0  0  0  0  0  0  0  0  0  0  0
   -6.2925    5.3526   -4.9895 H   0  0  0  0  0  0  0  0  0  0  0  0
   -7.4277    3.5397   -3.6380 H   0  0  0  0  0  0  0  0  0  0  0  0
   -3.0770    5.9545   -5.2683 H   0  0  0  0  0  0  0  0  0  0  0  0
   -5.1079   -0.3171    0.0649 H   0  0  0  0  0  0  0  0  0  0  0  0
   -7.1664   -0.4993    2.2347 H   0  0  0  0  0  0  0  0  0  0  0  0
   -4.2725   -1.9680    0.3297 H   0  0  0  0  0  0  0  0  0  0  0  0
   -2.7731   -2.3552    2.8670 H   0  0  0  0  0  0  0  0  0  0  0  0
   -2.5724   -1.2504   -0.4769 H   0  0  0  0  0  0  0  0  0  0  0  0
    0.0247   -2.7892   -0.8803 H   0  0  0  0  0  0  0  0  0  0  0  0
   -0.0619    0.6882   -0.0559 H   0  0  0  0  0  0  0  0  0  0  0  0
   -0.3123   -2.5625   -3.1936 H   0  0  0  0  0  0  0  0  0  0  0  0
   -1.8984   -1.7656   -3.0263 H   0  0  0  0  0  0  0  0  0  0  0  0
   -1.7010   -5.1062   -4.0152 H   0  0  0  0  0  0  0  0  0  0  0  0
   -3.3477   -4.3144   -3.7423 H   0  0  0  0  0  0  0  0  0  0  0  0
   -2.1948   -4.6369    2.2268 H   0  0  0  0  0  0  0  0  0  0  0  0
   -3.3246   -4.5276    0.8486 H   0  0  0  0  0  0  0  0  0  0  0  0
   -5.2616   -4.5255    2.3709 H   0  0  0  0  0  0  0  0  0  0  0  0
   -4.1078   -4.3953    3.8237 H   0  0  0  0  0  0  0  0  0  0  0  0
   -5.0497   -7.1718    4.5195 H   0  0  0  0  0  0  0  0  0  0  0  0
   -5.9251   -7.4172    3.0069 H   0  0  0  0  0  0  0  0  0  0  0  0
   -8.4256   -1.5889    0.5502 H   0  0  0  0  0  0  0  0  0  0  0  0
   -8.7437   -3.6695    1.8755 H   0  0  0  0  0  0  0  0  0  0  0  0
   -7.1930   -3.3047    2.7456 H   0  0  0  0  0  0  0  0  0  0  0  0
   -8.1334   -1.6994    4.0153 H   0  0  0  0  0  0  0  0  0  0  0  0
   -9.1951   -1.0753    2.6815 H   0  0  0  0  0  0  0  0  0  0  0  0
   -9.6176   -2.5649    3.5664 H   0  0  0  0  0  0  0  0  0  0  0  0
   -7.7904   -3.5019   -0.6379 H   0  0  0  0  0  0  0  0  0  0  0  0
   -6.2652   -2.4889   -0.7585 H   0  0  0  0  0  0  0  0  0  0  0  0
   -6.4095   -3.8192    0.4270 H   0  0  0  0  0  0  0  0  0  0  0  0
    4.9910   -0.2919   -1.2407 H   0  0  0  0  0  0  0  0  0  0  0  0
    5.0734   -0.7393    0.4557 H   0  0  0  0  0  0  0  0  0  0  0  0
    7.4400   -0.1183   -0.3430 H   0  0  0  0  0  0  0  0  0  0  0  0
    7.8543    2.8473    0.1804 H   0  0  0  0  0  0  0  0  0  0  0  0
   10.5902    3.2348   -0.2371 H   0  0  0  0  0  0  0  0  0  0  0  0
   10.6893    2.3761   -3.0212 H   0  0  0  0  0  0  0  0  0  0  0  0
   12.0816    3.0476   -2.0726 H   0  0  0  0  0  0  0  0  0  0  0  0
   11.1009   -0.9641   -1.1085 H   0  0  0  0  0  0  0  0  0  0  0  0
   11.9710    0.2303   -0.0161 H   0  0  0  0  0  0  0  0  0  0  0  0
    7.9612    1.9702    2.3298 H   0  0  0  0  0  0  0  0  0  0  0  0
    9.5816    2.3910    1.7851 H   0  0  0  0  0  0  0  0  0  0  0  0
   10.1614   -0.0091    1.4740 H   0  0  0  0  0  0  0  0  0  0  0  0
    8.2781   -1.3892    2.9834 H   0  0  0  0  0  0  0  0  0  0  0  0
    8.4786   -1.5517    1.2350 H   0  0  0  0  0  0  0  0  0  0  0  0
    7.2010   -0.4233    1.9936 H   0  0  0  0  0  0  0  0  0  0  0  0
   10.7575    0.7678    3.5684 H   0  0  0  0  0  0  0  0  0  0  0  0
    9.0212    1.1341    4.0571 H   0  0  0  0  0  0  0  0  0  0  0  0
    9.5929   -0.5438    3.9654 H   0  0  0  0  0  0  0  0  0  0  0  0
  1  2  1  0
  2  3  1  0
  3  4  1  0
  4  5  1  0
  5  6  1  0
  6  7  2  0
  6  8  1  0
  8  9  1  0
  9 10  1  0
 10 11  1  0
 11 12  1  0
 12 13  1  0
 13 14  1  0
 14 15  2  0
 14 16  1  0
 16 17  1  0
 17 18  1  0
 18 19  1  0
 19 20  2  0
 20 21  1  0
 21 22  2  0
 22 23  1  0
 23 24  2  0
 22 25  1  0
 17 26  1  0
 26 27  2  0
 26 28  1  0
 28 29  1  0
 29 30  1  0
 30 31  2  0
 30 32  1  0
 32 33  1  0
 33 34  1  0
 34 35  2  0
 34 36  1  0
 36 37  1  0
 37 38  1  0
 38 39  2  0
 38 40  1  0
 37 41  1  0
 41 42  1  0
 42 43  2  0
 42 44  1  0
 33 45  1  0
 45 46  1  0
 46 47  1  0
 47 48  2  0
 47 49  1  0
 29 50  1  0
 50 51  1  0
 51 52  1  0
 50 53  1  0
  5 54  1  0
 54 55  1  0
 55 56  2  0
 55 57  1  0
 57 58  1  0
 58 59  1  0
 59 60  2  0
 59 61  1  0
 61 62  1  0
 62 63  1  0
 63 64  2  0
 63 65  1  0
 58 66  1  0
 66 67  1  0
 67 68  1  0
 67 69  1  0
 40  8  1  0
 24 19  1  0
  1 70  1  0
  1 71  1  0
  1 72  1  0
  2 73  1  0
  2 74  1  0
  3 75  1  0
  3 76  1  0
  4 77  1  0
  4 78  1  0
  8 79  1  6
  9 80  1  0
  9 81  1  0
 12 82  1  0
 12 83  1  0
 13 84  1  0
 13 85  1  0
 16 86  1  0
 17 87  1  6
 18 88  1  0
 18 89  1  0
 20 90  1  0
 21 91  1  0
 23 92  1  0
 24 93  1  0
 25 94  1  0
 28 95  1  0
 29 96  1  1
 32 97  1  0
 33 98  1  1
 36 99  1  0
 37100  1  1
 40101  1  0
 41102  1  0
 41103  1  0
 44104  1  0
 44105  1  0
 45106  1  0
 45107  1  0
 46108  1  0
 46109  1  0
 49110  1  0
 49111  1  0
 50112  1  6
 51113  1  0
 51114  1  0
 52115  1  0
 52116  1  0
 52117  1  0
 53118  1  0
 53119  1  0
 53120  1  0
 54121  1  0
 54122  1  0
 57123  1  0
 58124  1  1
 61125  1  0
 62126  1  0
 62127  1  0
 65128  1  0
 65129  1  0
 66130  1  0
 66131  1  0
 67132  1  0
 68133  1  0
 68134  1  0
 68135  1  0
 69136  1  0
 69137  1  0
 69138  1  0
M  END
>  <Ligand ID>  (1) 
LIG0001903

>  <Ligand>  (1) 
CHEMBL3353931

>  <SMILES>  (1) 
CCCCN(C(=O)[C@@H]1CSSCCC(=O)N[C@@H](Cc2ccc(cc2)O)C(=O)N[C@H](C(=O)N[C@H](C(=O)N[C@H](C(=O)N1)CC(=O)N)CCC(=O)N)[C@H](CC)C)CC(=O)N[C@H](C(=O)NCC(=O)N)CC(C)C

>  <CID>  (1) 
118719820.0

>  <ChEMBL ID>  (1) 
nan

>  <InChiKey>  (1) 
FXMNRJABGLZZHG-FRGVEXLJSA-N

>  <InChi>  (1) 
InChI=1S/C44H69N11O12S2/c1-6-8-16-55(22-37(61)50-29(18-24(3)4)39(62)48-21-35(47)59)44(67)32-23-69-68-17-15-36(60)49-30(19-26-9-11-27(56)12-10-26)42(65)54-38(25(5)7-2)43(66)51-28(13-14-33(45)57)40(63)52-31(20-34(46)58)41(64)53-32/h9-12,24-25,28-32,38,56H,6-8,13-23H2,1-5H3,(H2,45,57)(H2,46,58)(H2,47,59)(H,48,62)(H,49,60)(H,50,61)(H,51,66)(H,52,63)(H,53,64)(H,54,65)/t25-,28-,29-,30-,31-,32-,38-/m0/s1

>  <IUPAC Name>  (1) 
(4R,7S,10S,13S,16S)-7-(2-amino-2-oxoethyl)-N-[2-[[(2S)-1-[(2-amino-2-oxoethyl)amino]-4-methyl-1-oxopentan-2-yl]amino]-2-oxoethyl]-10-(3-amino-3-oxopropyl)-13-[(2S)-butan-2-yl]-N-butyl-16-[(4-hydroxyphenyl)methyl]-6,9,12,15,18-pentaoxo-1,2-dithia-5,8,11,14,17-pentazacycloicosane-4-carboxamide

$$$$
