
     RDKit          3D

 48 49  0  0  0  0  0  0  0  0999 V2000
    0.5157   -1.6925   -0.3313 O   0  0  0  0  0  0  0  0  0  0  0  0
    0.0155   -1.1125    0.6726 C   0  0  0  0  0  0  0  0  0  0  0  0
   -1.4407   -1.0748    0.7419 C   0  0  0  0  0  0  0  0  0  0  0  0
   -2.1633   -1.6553   -0.2594 C   0  0  0  0  0  0  0  0  0  0  0  0
   -3.5609   -1.6574   -0.2590 C   0  0  0  0  0  0  0  0  0  0  0  0
   -4.2324   -1.0522    0.7891 C   0  0  0  0  0  0  0  0  0  0  0  0
   -3.5241   -0.4538    1.8213 C   0  0  0  0  0  0  0  0  0  0  0  0
   -2.1343   -0.4790    1.7736 C   0  0  0  0  0  0  0  0  0  0  0  0
   -5.6172   -1.0058    0.8732 O   0  0  0  0  0  0  0  0  0  0  0  0
   -6.3944    0.0050    0.3506 C   0  0  0  0  0  0  0  0  0  0  0  0
   -6.8433   -0.1277   -0.9442 C   0  0  0  0  0  0  0  0  0  0  0  0
   -7.6335    0.8817   -1.5008 C   0  0  0  0  0  0  0  0  0  0  0  0
   -7.9358    1.9897   -0.7136 C   0  0  0  0  0  0  0  0  0  0  0  0
   -7.4774    2.1061    0.5817 C   0  0  0  0  0  0  0  0  0  0  0  0
   -6.6943    1.1064    1.1341 C   0  0  0  0  0  0  0  0  0  0  0  0
    0.8645   -0.5445    1.6517 N   0  0  0  0  0  0  0  0  0  0  0  0
    2.2884   -0.6415    1.4801 C   0  0  0  0  0  0  0  0  0  0  0  0
    2.8207   -0.0056    0.2378 C   0  0  0  0  0  0  0  0  0  0  0  0
    4.3395   -0.2299    0.2667 C   0  0  0  0  0  0  0  0  0  0  0  0
    4.8851    0.4106   -0.9870 C   0  0  0  0  0  0  0  0  0  0  0  0
    6.3125    0.2933   -1.1237 N   0  0  0  0  0  0  0  0  0  0  0  0
    6.9602    1.5744   -0.8507 C   0  0  0  0  0  0  0  0  0  0  0  0
    6.9081   -0.7660   -0.3672 C   0  0  0  0  0  0  0  0  0  0  0  0
   -1.7040   -2.1459   -1.1086 H   0  0  0  0  0  0  0  0  0  0  0  0
   -4.1412   -2.1106   -1.0406 H   0  0  0  0  0  0  0  0  0  0  0  0
   -4.0555    0.0219    2.6449 H   0  0  0  0  0  0  0  0  0  0  0  0
   -1.5941   -0.0109    2.5812 H   0  0  0  0  0  0  0  0  0  0  0  0
   -6.5991   -0.9957   -1.5423 H   0  0  0  0  0  0  0  0  0  0  0  0
   -7.9876    0.7789   -2.5193 H   0  0  0  0  0  0  0  0  0  0  0  0
   -8.5485    2.7662   -1.1541 H   0  0  0  0  0  0  0  0  0  0  0  0
   -7.7096    2.9748    1.2106 H   0  0  0  0  0  0  0  0  0  0  0  0
   -6.3382    1.2047    2.1515 H   0  0  0  0  0  0  0  0  0  0  0  0
    0.4427   -0.0650    2.4817 H   0  0  0  0  0  0  0  0  0  0  0  0
    2.7818   -0.1759    2.3342 H   0  0  0  0  0  0  0  0  0  0  0  0
    2.5576   -1.7287    1.5269 H   0  0  0  0  0  0  0  0  0  0  0  0
    2.4872   -0.4662   -0.7043 H   0  0  0  0  0  0  0  0  0  0  0  0
    2.6843    1.0880    0.3000 H   0  0  0  0  0  0  0  0  0  0  0  0
    4.5444   -1.3038    0.2226 H   0  0  0  0  0  0  0  0  0  0  0  0
    4.6728    0.2810    1.1840 H   0  0  0  0  0  0  0  0  0  0  0  0
    4.3581   -0.0282   -1.8596 H   0  0  0  0  0  0  0  0  0  0  0  0
    4.6277    1.4949   -1.0155 H   0  0  0  0  0  0  0  0  0  0  0  0
    6.5063    0.0991   -2.1489 H   0  0  0  0  0  0  0  0  0  0  0  0
    7.9780    1.5036   -1.3122 H   0  0  0  0  0  0  0  0  0  0  0  0
    6.3926    2.3494   -1.4027 H   0  0  0  0  0  0  0  0  0  0  0  0
    7.0072    1.7499    0.2440 H   0  0  0  0  0  0  0  0  0  0  0  0
    6.8901   -1.7348   -0.8964 H   0  0  0  0  0  0  0  0  0  0  0  0
    7.9909   -0.5182   -0.2120 H   0  0  0  0  0  0  0  0  0  0  0  0
    6.4975   -0.8973    0.6501 H   0  0  0  0  0  0  0  0  0  0  0  0
  1  2  2  0
  2  3  1  0
  3  4  2  0
  4  5  1  0
  5  6  2  0
  6  7  1  0
  7  8  2  0
  6  9  1  0
  9 10  1  0
 10 11  2  0
 11 12  1  0
 12 13  2  0
 13 14  1  0
 14 15  2  0
  2 16  1  0
 16 17  1  0
 17 18  1  0
 18 19  1  0
 19 20  1  0
 20 21  1  0
 21 22  1  0
 21 23  1  0
  8  3  1  0
 15 10  1  0
  4 24  1  0
  5 25  1  0
  7 26  1  0
  8 27  1  0
 11 28  1  0
 12 29  1  0
 13 30  1  0
 14 31  1  0
 15 32  1  0
 16 33  1  0
 17 34  1  0
 17 35  1  0
 18 36  1  0
 18 37  1  0
 19 38  1  0
 19 39  1  0
 20 40  1  0
 20 41  1  0
 21 42  1  0
 22 43  1  0
 22 44  1  0
 22 45  1  0
 23 46  1  0
 23 47  1  0
 23 48  1  0
M  CHG  1  21   1
M  END
>  <Ligand ID>  (1) 
LIG0005551

>  <Ligand>  (1) 
CHEMBL229234

>  <SMILES>  (1) 
O=C(c1ccc(cc1)Oc1ccccc1)NCCCC[NH+](C)C

>  <CID>  (1) 
91935917.0

>  <ChEMBL ID>  (1) 
nan

>  <InChiKey>  (1) 
NTWNQAIYOHDEQN-UHFFFAOYSA-O

>  <InChi>  (1) 
InChI=1S/C19H24N2O2/c1-21(2)15-7-6-14-20-19(22)16-10-12-18(13-11-16)23-17-8-4-3-5-9-17/h3-5,8-13H,6-7,14-15H2,1-2H3,(H,20,22)/p+1

>  <IUPAC Name>  (1) 
dimethyl-[4-[(4-phenoxybenzoyl)amino]butyl]azanium

$$$$
