
     RDKit          3D

 26 26  0  0  0  0  0  0  0  0999 V2000
   -3.8028   -0.7996    0.5385 N   0  0  0  0  0  0  0  0  0  0  0  0
   -2.7481    0.1063    0.9513 C   0  0  0  0  0  0  0  0  0  0  0  0
   -1.4137   -0.4111    0.4819 C   0  0  0  0  0  0  0  0  0  0  0  0
   -1.2689   -0.5675   -0.9740 C   0  0  0  0  0  0  0  0  0  0  0  0
   -0.4700    0.4866   -0.2239 C   0  0  0  0  0  0  0  0  0  0  0  0
    0.9905    0.1843   -0.1671 C   0  0  0  0  0  0  0  0  0  0  0  0
    1.8599    1.2462   -0.2823 C   0  0  0  0  0  0  0  0  0  0  0  0
    3.2362    1.0165   -0.2354 C   0  0  0  0  0  0  0  0  0  0  0  0
    3.7003   -0.2579   -0.0758 C   0  0  0  0  0  0  0  0  0  0  0  0
    2.8094   -1.3073    0.0376 C   0  0  0  0  0  0  0  0  0  0  0  0
    1.4430   -1.1250   -0.0035 C   0  0  0  0  0  0  0  0  0  0  0  0
    0.6911    0.0000    0.0000 Cl  0  0  0  0  0  0  0  0  0  0  0  0
   -4.6931   -0.2698    0.3800 H   0  0  0  0  0  0  0  0  0  0  0  0
   -3.6042   -1.3200   -0.3361 H   0  0  0  0  0  0  0  0  0  0  0  0
   -2.9727    1.1390    0.6217 H   0  0  0  0  0  0  0  0  0  0  0  0
   -2.7803    0.1029    2.0800 H   0  0  0  0  0  0  0  0  0  0  0  0
   -0.9729   -1.1687    1.1414 H   0  0  0  0  0  0  0  0  0  0  0  0
   -1.9580   -0.1447   -1.7097 H   0  0  0  0  0  0  0  0  0  0  0  0
   -0.7463   -1.4730   -1.3432 H   0  0  0  0  0  0  0  0  0  0  0  0
   -0.6922    1.5575   -0.3553 H   0  0  0  0  0  0  0  0  0  0  0  0
    1.5334    2.2715   -0.4100 H   0  0  0  0  0  0  0  0  0  0  0  0
    3.9103    1.8681   -0.3282 H   0  0  0  0  0  0  0  0  0  0  0  0
    4.7609   -0.4270   -0.0406 H   0  0  0  0  0  0  0  0  0  0  0  0
    3.1456   -2.3416    0.1665 H   0  0  0  0  0  0  0  0  0  0  0  0
    0.7338   -1.9568    0.0864 H   0  0  0  0  0  0  0  0  0  0  0  0
   -0.6911    0.0000    0.0000 H   0  0  0  0  0  0  0  0  0  0  0  0
  1  2  1  0
  2  3  1  0
  3  4  1  0
  4  5  1  0
  5  6  1  0
  6  7  2  0
  7  8  1  0
  8  9  2  0
  9 10  1  0
 10 11  2  0
  5  3  1  0
 11  6  1  0
  1 13  1  0
  1 14  1  0
  2 15  1  0
  2 16  1  0
  3 17  1  0
  4 18  1  0
  4 19  1  0
  5 20  1  0
  7 21  1  0
  8 22  1  0
  9 23  1  0
 10 24  1  0
 11 25  1  0
 12 26  1  0
M  END
>  <Ligand ID>  (1) 
LIG0002859

>  <Ligand>  (1) 
(2-phenylcyclopropyl)methanamine hydrochloride

>  <SMILES>  (1) 
NCC1CC1c1ccccc1.Cl

>  <CID>  (1) 
16047417.0

>  <ChEMBL ID>  (1) 
nan

>  <InChiKey>  (1) 
IQFBVCYZPKNMIN-UHFFFAOYSA-N

>  <InChi>  (1) 
InChI=1S/C10H13N.ClH/c11-7-9-6-10(9)8-4-2-1-3-5-8;/h1-5,9-10H,6-7,11H2;1H

>  <IUPAC Name>  (1) 
(2-phenylcyclopropyl)methanamine;hydrochloride

$$$$
