
     RDKit          3D

 87 91  0  0  0  0  0  0  0  0999 V2000
   -3.7330    1.5486    1.8748 O   0  0  0  0  0  0  0  0  0  0  0  0
   -4.3656    1.2342    0.8403 C   0  0  0  0  0  0  0  0  0  0  0  0
   -5.8242    0.9932    0.9871 C   0  0  0  0  0  0  0  0  0  0  0  0
   -6.2846   -0.3264    0.4517 C   0  0  0  0  0  0  0  0  0  0  0  0
   -6.2441   -1.4400    1.4556 C   0  0  0  0  0  0  0  0  0  0  0  0
   -6.6863   -1.0563    2.8377 C   0  0  0  0  0  0  0  0  0  0  0  0
   -5.8147    0.1301    3.2514 C   0  0  0  0  0  0  0  0  0  0  0  0
   -6.1588    1.2025    2.3720 N   0  0  0  0  0  0  0  0  0  0  0  0
   -3.7008    1.1173   -0.4119 N   0  0  0  0  0  0  0  0  0  0  0  0
   -2.2813    1.3682   -0.4562 C   0  0  1  0  0  0  0  0  0  0  0  0
   -1.5696    0.1265   -0.8573 C   0  0  0  0  0  0  0  0  0  0  0  0
   -2.3518   -0.8452   -1.1790 O   0  0  0  0  0  0  0  0  0  0  0  0
   -0.1753   -0.0288   -0.8979 N   0  0  0  0  0  0  0  0  0  0  0  0
    0.8941    0.9188   -0.5654 C   0  0  0  0  0  0  0  0  0  0  0  0
    2.0567   -0.0211   -0.1789 C   0  0  1  0  0  0  0  0  0  0  0  0
    1.9402   -1.0016   -1.3538 C   0  0  0  0  0  0  0  0  0  0  0  0
    0.4583   -1.2902   -1.3198 C   0  0  1  0  0  0  0  0  0  0  0  0
    0.1299   -2.3746   -0.3166 C   0  0  0  0  0  0  0  0  0  0  0  0
    0.7236   -3.7097   -0.6463 C   0  0  0  0  0  0  0  0  0  0  0  0
    0.3501   -4.7586    0.4105 C   0  0  0  0  0  0  0  0  0  0  0  0
    0.9659   -6.0129    0.0087 N   0  0  0  0  0  0  0  0  0  0  0  0
    1.0732   -6.9365    0.9094 C   0  0  0  0  0  0  0  0  0  0  0  0
    1.6766   -8.1564    0.5033 N   0  0  0  0  0  0  0  0  0  0  0  0
    0.6176   -6.7661    2.2492 N   0  0  0  0  0  0  0  0  0  0  0  0
    3.2301    0.6896   -0.1973 O   0  0  0  0  0  0  0  0  0  0  0  0
    3.8646    0.5761    1.0454 C   0  0  0  0  0  0  0  0  0  0  0  0
    5.1210    1.3539    0.9785 C   0  0  0  0  0  0  0  0  0  0  0  0
    6.3250    0.8288    0.5782 C   0  0  0  0  0  0  0  0  0  0  0  0
    7.4235    1.6603    0.5591 C   0  0  0  0  0  0  0  0  0  0  0  0
    7.3693    2.9904    0.9222 C   0  0  0  0  0  0  0  0  0  0  0  0
    6.1607    3.5041    1.3206 C   0  0  0  0  0  0  0  0  0  0  0  0
    5.0651    2.6963    1.3454 C   0  0  0  0  0  0  0  0  0  0  0  0
    6.0451    4.8203    1.6936 C   0  0  0  0  0  0  0  0  0  0  0  0
    7.1641    5.6143    1.6601 C   0  0  0  0  0  0  0  0  0  0  0  0
    8.4129    5.1299    1.2606 C   0  0  0  0  0  0  0  0  0  0  0  0
    8.4862    3.7983    0.8930 C   0  0  0  0  0  0  0  0  0  0  0  0
   -1.8840    2.4749   -1.3678 C   0  0  0  0  0  0  0  0  0  0  0  0
   -2.2412    2.2933   -2.7759 C   0  0  0  0  0  0  0  0  0  0  0  0
   -1.3878    1.6662   -3.6918 C   0  0  0  0  0  0  0  0  0  0  0  0
   -1.7337    1.5014   -5.0148 C   0  0  0  0  0  0  0  0  0  0  0  0
   -2.9497    1.9565   -5.4829 C   0  0  0  0  0  0  0  0  0  0  0  0
   -3.8136    2.5817   -4.5953 C   0  0  0  0  0  0  0  0  0  0  0  0
   -3.4585    2.7468   -3.2531 C   0  0  0  0  0  0  0  0  0  0  0  0
   -6.3332    1.7905    0.4056 H   0  0  0  0  0  0  0  0  0  0  0  0
   -7.3224   -0.2436    0.0438 H   0  0  0  0  0  0  0  0  0  0  0  0
   -5.6482   -0.6016   -0.4126 H   0  0  0  0  0  0  0  0  0  0  0  0
   -6.9151   -2.2528    1.1028 H   0  0  0  0  0  0  0  0  0  0  0  0
   -5.2384   -1.9057    1.5684 H   0  0  0  0  0  0  0  0  0  0  0  0
   -6.4468   -1.9468    3.4837 H   0  0  0  0  0  0  0  0  0  0  0  0
   -7.7449   -0.8085    2.8980 H   0  0  0  0  0  0  0  0  0  0  0  0
   -6.0152    0.4454    4.2819 H   0  0  0  0  0  0  0  0  0  0  0  0
   -4.7601   -0.1665    3.0814 H   0  0  0  0  0  0  0  0  0  0  0  0
   -5.5831    2.0451    2.6765 H   0  0  0  0  0  0  0  0  0  0  0  0
   -4.2558    0.8513   -1.2770 H   0  0  0  0  0  0  0  0  0  0  0  0
   -1.9580    1.6081    0.5693 H   0  0  0  0  0  0  0  0  0  0  0  0
    0.6446    1.5688    0.2720 H   0  0  0  0  0  0  0  0  0  0  0  0
    1.2862    1.4485   -1.4577 H   0  0  0  0  0  0  0  0  0  0  0  0
    1.8279   -0.5326    0.7569 H   0  0  0  0  0  0  0  0  0  0  0  0
    2.5799   -1.8699   -1.2161 H   0  0  0  0  0  0  0  0  0  0  0  0
    2.1589   -0.4463   -2.2980 H   0  0  0  0  0  0  0  0  0  0  0  0
    0.0906   -1.5987   -2.3179 H   0  0  0  0  0  0  0  0  0  0  0  0
    0.4918   -2.0701    0.6874 H   0  0  0  0  0  0  0  0  0  0  0  0
   -0.9691   -2.4775   -0.2508 H   0  0  0  0  0  0  0  0  0  0  0  0
    1.8287   -3.6518   -0.5983 H   0  0  0  0  0  0  0  0  0  0  0  0
    0.3531   -4.1255   -1.6045 H   0  0  0  0  0  0  0  0  0  0  0  0
   -0.7477   -4.9231    0.4142 H   0  0  0  0  0  0  0  0  0  0  0  0
    0.6825   -4.4427    1.4125 H   0  0  0  0  0  0  0  0  0  0  0  0
    1.3343   -8.7034   -0.3266 H   0  0  0  0  0  0  0  0  0  0  0  0
    2.4930   -8.4779    1.0916 H   0  0  0  0  0  0  0  0  0  0  0  0
    1.3499   -6.5451    2.9653 H   0  0  0  0  0  0  0  0  0  0  0  0
   -0.3728   -6.8476    2.5381 H   0  0  0  0  0  0  0  0  0  0  0  0
    4.0885   -0.4732    1.3131 H   0  0  0  0  0  0  0  0  0  0  0  0
    3.2302    0.9959    1.8730 H   0  0  0  0  0  0  0  0  0  0  0  0
    6.3563   -0.2165    0.2947 H   0  0  0  0  0  0  0  0  0  0  0  0
    8.3573    1.2256    0.2420 H   0  0  0  0  0  0  0  0  0  0  0  0
    4.1199    3.1158    1.6616 H   0  0  0  0  0  0  0  0  0  0  0  0
    5.0924    5.2020    2.0018 H   0  0  0  0  0  0  0  0  0  0  0  0
    7.0610    6.6510    1.9565 H   0  0  0  0  0  0  0  0  0  0  0  0
    9.2907    5.7609    1.2364 H   0  0  0  0  0  0  0  0  0  0  0  0
    9.4385    3.4184    0.5854 H   0  0  0  0  0  0  0  0  0  0  0  0
   -0.7852    2.5782   -1.3195 H   0  0  0  0  0  0  0  0  0  0  0  0
   -2.2253    3.4796   -0.9716 H   0  0  0  0  0  0  0  0  0  0  0  0
   -0.4293    1.3015   -3.3502 H   0  0  0  0  0  0  0  0  0  0  0  0
   -1.0716    1.0138   -5.7274 H   0  0  0  0  0  0  0  0  0  0  0  0
   -3.2609    1.8439   -6.5245 H   0  0  0  0  0  0  0  0  0  0  0  0
   -4.7753    2.9410   -4.9746 H   0  0  0  0  0  0  0  0  0  0  0  0
   -4.1931    3.2441   -2.6331 H   0  0  0  0  0  0  0  0  0  0  0  0
  1  2  2  0
  2  3  1  0
  3  4  1  0
  4  5  1  0
  5  6  1  0
  6  7  1  0
  7  8  1  0
  2  9  1  0
  9 10  1  0
 10 11  1  0
 11 12  2  0
 11 13  1  0
 13 14  1  0
 14 15  1  0
 15 16  1  0
 16 17  1  0
 17 18  1  0
 18 19  1  0
 19 20  1  0
 20 21  1  0
 21 22  2  3
 22 23  1  0
 22 24  1  0
 15 25  1  0
 25 26  1  0
 26 27  1  0
 27 28  2  0
 28 29  1  0
 29 30  2  0
 30 31  1  0
 31 32  2  0
 31 33  1  0
 33 34  2  0
 34 35  1  0
 35 36  2  0
 10 37  1  0
 37 38  1  0
 38 39  2  0
 39 40  1  0
 40 41  2  0
 41 42  1  0
 42 43  2  0
  8  3  1  0
 17 13  1  0
 32 27  1  0
 43 38  1  0
 36 30  1  0
  3 44  1  0
  4 45  1  0
  4 46  1  0
  5 47  1  0
  5 48  1  0
  6 49  1  0
  6 50  1  0
  7 51  1  0
  7 52  1  0
  8 53  1  0
  9 54  1  0
 10 55  1  1
 14 56  1  0
 14 57  1  0
 15 58  1  1
 16 59  1  0
 16 60  1  0
 17 61  1  6
 18 62  1  0
 18 63  1  0
 19 64  1  0
 19 65  1  0
 20 66  1  0
 20 67  1  0
 23 68  1  0
 23 69  1  0
 24 70  1  0
 24 71  1  0
 26 72  1  0
 26 73  1  0
 28 74  1  0
 29 75  1  0
 32 76  1  0
 33 77  1  0
 34 78  1  0
 35 79  1  0
 36 80  1  0
 37 81  1  0
 37 82  1  0
 39 83  1  0
 40 84  1  0
 41 85  1  0
 42 86  1  0
 43 87  1  0
M  END
>  <Ligand ID>  (1) 
LIG0003115

>  <Ligand>  (1) 
CHEMBL213752

>  <SMILES>  (1) 
O=C(C1CCCCN1)N[C@@H](C(=O)N1C[C@@H](C[C@H]1CCCN=C(N)N)OCc1ccc2c(c1)cccc2)Cc1ccccc1

>  <CID>  (1) 
44413969.0

>  <ChEMBL ID>  (1) 
nan

>  <InChiKey>  (1) 
AIBOPTDBFGOAQA-AZEUVNARSA-N

>  <InChi>  (1) 
InChI=1S/C34H44N6O3/c35-34(36)38-18-8-13-28-21-29(43-23-25-15-16-26-11-4-5-12-27(26)19-25)22-40(28)33(42)31(20-24-9-2-1-3-10-24)39-32(41)30-14-6-7-17-37-30/h1-5,9-12,15-16,19,28-31,37H,6-8,13-14,17-18,20-23H2,(H,39,41)(H4,35,36,38)/t28-,29-,30?,31-/m1/s1

>  <IUPAC Name>  (1) 
N-[(2R)-1-[(2R,4R)-2-[3-(diaminomethylideneamino)propyl]-4-(naphthalen-2-ylmethoxy)pyrrolidin-1-yl]-1-oxo-3-phenylpropan-2-yl]piperidine-2-carboxamide

$$$$
