
     RDKit          3D

 52 54  0  0  0  0  0  0  0  0999 V2000
   -1.1645    2.0125    1.3256 C   0  0  0  0  0  0  0  0  0  0  0  0
   -1.1681    0.5928    0.7272 C   0  0  2  0  0  0  0  0  0  0  0  0
   -0.7978    0.7488   -0.7230 C   0  0  0  0  0  0  0  0  0  0  0  0
    0.4848    1.3348   -0.9605 N   0  0  0  0  0  0  0  0  0  0  0  0
    1.7373    0.7350   -0.7221 C   0  0  0  0  0  0  0  0  0  0  0  0
    1.9211   -0.5496   -0.2634 C   0  0  0  0  0  0  0  0  0  0  0  0
    3.1670   -1.0939   -0.0273 C   0  0  0  0  0  0  0  0  0  0  0  0
    4.3386   -0.3560   -0.2453 C   0  0  0  0  0  0  0  0  0  0  0  0
    4.1607    0.9150   -0.7021 C   0  0  0  0  0  0  0  0  0  0  0  0
    2.8935    1.4701   -0.9416 C   0  0  0  0  0  0  0  0  0  0  0  0
    5.5841   -1.0488   -0.0296 C   0  0  0  0  0  0  0  0  0  0  0  0
    5.6466   -2.3851   -0.1043 O   0  0  0  0  0  0  0  0  0  0  0  0
    6.8306   -2.8319    0.1148 C   0  0  0  0  0  0  0  0  0  0  0  0
    7.6250   -1.7425    0.3550 C   0  0  0  0  0  0  0  0  0  0  0  0
    6.8447   -0.5834    0.2706 C   0  0  0  0  0  0  0  0  0  0  0  0
    7.3489    0.7152    0.5762 C   0  0  0  0  0  0  0  0  0  0  0  0
    8.6208    0.8226    0.7315 O   0  0  0  0  0  0  0  0  0  0  0  0
    6.6712    1.8977    0.7413 O   0  0  0  0  0  0  0  0  0  0  0  0
   -2.5083    0.1145    0.9097 N   0  0  0  0  0  0  0  0  0  0  0  0
   -2.7480   -1.2017    0.4243 C   0  0  0  0  0  0  0  0  0  0  0  0
   -4.1663   -1.5974    0.6669 C   0  0  1  0  0  0  0  0  0  0  0  0
   -5.1734   -0.6346    0.2215 C   0  0  0  0  0  0  0  0  0  0  0  0
   -6.5086   -0.9347    0.5050 C   0  0  0  0  0  0  0  0  0  0  0  0
   -7.5276   -0.0913    0.1130 C   0  0  0  0  0  0  0  0  0  0  0  0
   -7.2821    1.0803   -0.5723 C   0  0  0  0  0  0  0  0  0  0  0  0
   -5.9693    1.3899   -0.8595 C   0  0  0  0  0  0  0  0  0  0  0  0
   -4.9472    0.5310   -0.4592 C   0  0  0  0  0  0  0  0  0  0  0  0
   -5.6114    2.8692   -1.7289 Cl  0  0  0  0  0  0  0  0  0  0  0  0
   -4.4738   -2.8992    0.2461 O   0  0  0  0  0  0  0  0  0  0  0  0
   -0.8778    1.9220    2.3881 H   0  0  0  0  0  0  0  0  0  0  0  0
   -0.4420    2.6363    0.7861 H   0  0  0  0  0  0  0  0  0  0  0  0
   -2.1732    2.4779    1.2085 H   0  0  0  0  0  0  0  0  0  0  0  0
   -0.4073    0.0175    1.2415 H   0  0  0  0  0  0  0  0  0  0  0  0
   -1.5921    1.2936   -1.2929 H   0  0  0  0  0  0  0  0  0  0  0  0
   -0.8568   -0.2975   -1.1544 H   0  0  0  0  0  0  0  0  0  0  0  0
    0.4807    2.3245   -1.3572 H   0  0  0  0  0  0  0  0  0  0  0  0
    1.0753   -1.1693   -0.0882 H   0  0  0  0  0  0  0  0  0  0  0  0
    3.2058   -2.1219    0.3379 H   0  0  0  0  0  0  0  0  0  0  0  0
    4.9765    1.5413   -0.9465 H   0  0  0  0  0  0  0  0  0  0  0  0
    2.8139    2.4929   -1.3051 H   0  0  0  0  0  0  0  0  0  0  0  0
    7.1382   -3.8674    0.1101 H   0  0  0  0  0  0  0  0  0  0  0  0
    8.6817   -1.8299    0.5702 H   0  0  0  0  0  0  0  0  0  0  0  0
    7.0376    2.8147    0.5495 H   0  0  0  0  0  0  0  0  0  0  0  0
   -2.9435    0.3393    1.8055 H   0  0  0  0  0  0  0  0  0  0  0  0
   -2.1039   -1.9731    0.9146 H   0  0  0  0  0  0  0  0  0  0  0  0
   -2.5837   -1.2777   -0.6882 H   0  0  0  0  0  0  0  0  0  0  0  0
   -4.2718   -1.6552    1.7953 H   0  0  0  0  0  0  0  0  0  0  0  0
   -6.7612   -1.8424    1.0413 H   0  0  0  0  0  0  0  0  0  0  0  0
   -8.5759   -0.3104    0.3262 H   0  0  0  0  0  0  0  0  0  0  0  0
   -8.0612    1.7587   -0.8908 H   0  0  0  0  0  0  0  0  0  0  0  0
   -3.9515    0.8385   -0.7284 H   0  0  0  0  0  0  0  0  0  0  0  0
   -3.6361   -3.3917    0.2016 H   0  0  0  0  0  0  0  0  0  0  0  0
  1  2  1  0
  2  3  1  0
  3  4  1  0
  4  5  1  0
  5  6  2  0
  6  7  1  0
  7  8  2  0
  8  9  1  0
  9 10  2  0
  8 11  1  0
 11 12  1  0
 12 13  1  0
 13 14  2  0
 14 15  1  0
 15 16  1  0
 16 17  2  0
 16 18  1  0
  2 19  1  0
 19 20  1  0
 20 21  1  0
 21 22  1  0
 22 23  2  0
 23 24  1  0
 24 25  2  0
 25 26  1  0
 26 27  2  0
 26 28  1  0
 21 29  1  0
 10  5  1  0
 15 11  2  0
 27 22  1  0
  1 30  1  0
  1 31  1  0
  1 32  1  0
  2 33  1  1
  3 34  1  0
  3 35  1  0
  4 36  1  0
  6 37  1  0
  7 38  1  0
  9 39  1  0
 10 40  1  0
 13 41  1  0
 14 42  1  0
 18 43  1  0
 19 44  1  0
 20 45  1  0
 20 46  1  0
 21 47  1  1
 23 48  1  0
 24 49  1  0
 25 50  1  0
 27 51  1  0
 29 52  1  0
M  END
>  <Ligand ID>  (1) 
LIG0002236

>  <Ligand>  (1) 
CHEMBL247520

>  <SMILES>  (1) 
C[C@H](CNc1ccc(cc1)c1occc1C(=O)O)NC[C@@H](c1cccc(c1)Cl)O

>  <CID>  (1) 
44441234.0

>  <ChEMBL ID>  (1) 
nan

>  <InChiKey>  (1) 
YFYQFWWLQLLILT-VLIAUNLRSA-N

>  <InChi>  (1) 
InChI=1S/C22H23ClN2O4/c1-14(24-13-20(26)16-3-2-4-17(23)11-16)12-25-18-7-5-15(6-8-18)21-19(22(27)28)9-10-29-21/h2-11,14,20,24-26H,12-13H2,1H3,(H,27,28)/t14-,20+/m1/s1

>  <IUPAC Name>  (1) 
2-[4-[[(2R)-2-[[(2R)-2-(3-chlorophenyl)-2-hydroxyethyl]amino]propyl]amino]phenyl]furan-3-carboxylic acid

$$$$
