
     RDKit          3D

 48 50  0  0  0  0  0  0  0  0999 V2000
    5.6470    2.9239   -0.7591 C   0  0  0  0  0  0  0  0  0  0  0  0
    4.5881    3.0744   -0.2125 C   0  0  0  0  0  0  0  0  0  0  0  0
    3.3073    3.2411    0.4567 C   0  0  0  0  0  0  0  0  0  0  0  0
    2.2559    2.4163   -0.1045 N   0  0  0  0  0  0  0  0  0  0  0  0
    2.5168    1.0196    0.1757 C   0  0  0  0  0  0  0  0  0  0  0  0
    1.4510    0.1252   -0.4057 C   0  0  2  0  0  0  0  0  0  0  0  0
    0.2047    0.4470    0.1247 O   0  0  0  0  0  0  0  0  0  0  0  0
   -0.8190   -0.2296   -0.5364 C   0  0  0  0  0  0  0  0  0  0  0  0
   -0.8018   -1.6804   -0.1111 C   0  0  0  0  0  0  0  0  0  0  0  0
    0.6006   -2.1461   -0.0627 C   0  0  0  0  0  0  0  0  0  0  0  0
    1.6967   -1.3173   -0.1989 C   0  0  0  0  0  0  0  0  0  0  0  0
    2.9883   -1.8308   -0.1435 C   0  0  0  0  0  0  0  0  0  0  0  0
    3.2110   -3.1936    0.0509 C   0  0  0  0  0  0  0  0  0  0  0  0
    2.1169   -4.0213    0.1869 C   0  0  0  0  0  0  0  0  0  0  0  0
    0.8357   -3.4838    0.1275 C   0  0  0  0  0  0  0  0  0  0  0  0
   -0.2616   -4.3547    0.2690 O   0  0  0  0  0  0  0  0  0  0  0  0
    2.3280   -5.3836    0.3813 O   0  0  0  0  0  0  0  0  0  0  0  0
   -2.1192    0.3638   -0.0950 C   0  0  0  0  0  0  0  0  0  0  0  0
   -2.2188    1.8408   -0.4285 C   0  0  0  0  0  0  0  0  0  0  0  0
   -3.2672    2.3939    0.5152 C   0  0  0  0  0  0  0  0  0  0  0  0
   -4.5955    1.8075    0.0232 C   0  0  0  0  0  0  0  0  0  0  0  0
   -4.5227    0.3066    0.1487 C   0  0  0  0  0  0  0  0  0  0  0  0
   -3.3500   -0.2951   -0.6113 C   0  0  0  0  0  0  0  0  0  0  0  0
    6.5779    2.8047   -1.2490 H   0  0  0  0  0  0  0  0  0  0  0  0
    3.4720    2.9482    1.5314 H   0  0  0  0  0  0  0  0  0  0  0  0
    2.9912    4.3138    0.5252 H   0  0  0  0  0  0  0  0  0  0  0  0
    1.3534    2.7363    0.3004 H   0  0  0  0  0  0  0  0  0  0  0  0
    2.5098    0.9203    1.2960 H   0  0  0  0  0  0  0  0  0  0  0  0
    3.5172    0.7937   -0.2337 H   0  0  0  0  0  0  0  0  0  0  0  0
    1.4081    0.2992   -1.5012 H   0  0  0  0  0  0  0  0  0  0  0  0
   -0.7099   -0.1850   -1.6533 H   0  0  0  0  0  0  0  0  0  0  0  0
   -1.2644   -1.7043    0.8976 H   0  0  0  0  0  0  0  0  0  0  0  0
   -1.3539   -2.3132   -0.8311 H   0  0  0  0  0  0  0  0  0  0  0  0
    3.8465   -1.2192   -0.2430 H   0  0  0  0  0  0  0  0  0  0  0  0
    4.1911   -3.6266    0.1003 H   0  0  0  0  0  0  0  0  0  0  0  0
   -0.8352   -4.3450    1.1001 H   0  0  0  0  0  0  0  0  0  0  0  0
    1.7978   -6.0271   -0.2188 H   0  0  0  0  0  0  0  0  0  0  0  0
   -2.1444    0.2567    1.0222 H   0  0  0  0  0  0  0  0  0  0  0  0
   -1.2417    2.3273   -0.3033 H   0  0  0  0  0  0  0  0  0  0  0  0
   -2.5661    1.9010   -1.4815 H   0  0  0  0  0  0  0  0  0  0  0  0
   -3.2652    3.4820    0.5623 H   0  0  0  0  0  0  0  0  0  0  0  0
   -3.0895    1.9124    1.5196 H   0  0  0  0  0  0  0  0  0  0  0  0
   -5.3683    2.1526    0.7316 H   0  0  0  0  0  0  0  0  0  0  0  0
   -4.8132    2.1311   -0.9972 H   0  0  0  0  0  0  0  0  0  0  0  0
   -4.3815    0.0872    1.2428 H   0  0  0  0  0  0  0  0  0  0  0  0
   -5.4848   -0.1408   -0.1697 H   0  0  0  0  0  0  0  0  0  0  0  0
   -3.5220   -0.1421   -1.6999 H   0  0  0  0  0  0  0  0  0  0  0  0
   -3.4172   -1.3868   -0.4252 H   0  0  0  0  0  0  0  0  0  0  0  0
  1  2  3  0
  2  3  1  0
  3  4  1  0
  4  5  1  0
  5  6  1  0
  6  7  1  0
  7  8  1  0
  8  9  1  0
  9 10  1  0
 10 11  2  0
 11 12  1  0
 12 13  2  0
 13 14  1  0
 14 15  2  0
 15 16  1  0
 14 17  1  0
  8 18  1  0
 18 19  1  0
 19 20  1  0
 20 21  1  0
 21 22  1  0
 22 23  1  0
 11  6  1  0
 23 18  1  0
 15 10  1  0
  1 24  1  0
  3 25  1  0
  3 26  1  0
  4 27  1  0
  5 28  1  0
  5 29  1  0
  6 30  1  6
  8 31  1  0
  9 32  1  0
  9 33  1  0
 12 34  1  0
 13 35  1  0
 16 36  1  0
 17 37  1  0
 18 38  1  0
 19 39  1  0
 19 40  1  0
 20 41  1  0
 20 42  1  0
 21 43  1  0
 21 44  1  0
 22 45  1  0
 22 46  1  0
 23 47  1  0
 23 48  1  0
M  END
>  <Ligand ID>  (1) 
LIG0005602

>  <Ligand>  (1) 
CHEMBL420788

>  <SMILES>  (1) 
C#CCNC[C@@H]1OC(Cc2c1ccc(c2O)O)C1CCCCC1

>  <CID>  (1) 
44320303.0

>  <ChEMBL ID>  (1) 
nan

>  <InChiKey>  (1) 
OTQGSZPQJUEZOA-ZVAWYAOSSA-N

>  <InChi>  (1) 
InChI=1S/C19H25NO3/c1-2-10-20-12-18-14-8-9-16(21)19(22)15(14)11-17(23-18)13-6-4-3-5-7-13/h1,8-9,13,17-18,20-22H,3-7,10-12H2/t17?,18-/m0/s1

>  <IUPAC Name>  (1) 
(1R)-3-cyclohexyl-1-[(prop-2-ynylamino)methyl]-3,4-dihydro-1H-isochromene-5,6-diol

$$$$
