
     RDKit          3D

 66 73  0  0  0  0  0  0  0  0999 V2000
    2.3895    0.1676    0.7477 O   0  0  0  0  0  0  0  0  0  0  0  0
    2.0487    0.3492   -0.4497 C   0  0  0  0  0  0  0  0  0  0  0  0
    0.7754   -0.0262   -0.9597 N   0  0  0  0  0  0  0  0  0  0  0  0
   -0.2536   -0.6521   -0.1588 C   0  0  1  0  0  0  0  0  0  0  0  0
   -0.6147    0.2728    0.9773 C   0  0  0  0  0  0  0  0  0  0  0  0
   -1.3869    1.3971    0.4559 C   0  0  0  0  0  0  0  0  0  0  0  0
   -1.5383    2.6765    0.9641 C   0  0  0  0  0  0  0  0  0  0  0  0
   -1.0417    3.3154    2.0820 C   0  0  0  0  0  0  0  0  0  0  0  0
   -1.3742    4.6427    2.3442 C   0  0  0  0  0  0  0  0  0  0  0  0
   -2.2033    5.3675    1.5097 C   0  0  0  0  0  0  0  0  0  0  0  0
   -2.6954    4.7051    0.3850 C   0  0  0  0  0  0  0  0  0  0  0  0
   -2.3657    3.3975    0.1298 C   0  0  0  0  0  0  0  0  0  0  0  0
   -2.7131    2.5909   -0.8594 N   0  0  0  0  0  0  0  0  0  0  0  0
   -2.1433    1.3810   -0.6957 C   0  0  0  0  0  0  0  0  0  0  0  0
   -2.2337    0.1826   -1.5254 C   0  0  1  0  0  0  0  0  0  0  0  0
   -1.4207   -0.9759   -1.0119 C   0  0  1  0  0  0  0  0  0  0  0  0
   -1.0240   -1.8492   -2.1589 C   0  0  0  0  0  0  0  0  0  0  0  0
   -0.1521   -2.9888   -1.7658 C   0  0  0  0  0  0  0  0  0  0  0  0
    0.8947   -2.6069   -0.8337 N   0  0  0  0  0  0  0  0  0  0  0  0
    0.2997   -1.9698    0.3528 C   0  0  0  0  0  0  0  0  0  0  0  0
   -0.6787   -2.8593    1.0237 C   0  0  0  0  0  0  0  0  0  0  0  0
   -2.0918   -2.5496    0.7931 C   0  0  0  0  0  0  0  0  0  0  0  0
   -2.4311   -1.6504   -0.1621 C   0  0  0  0  0  0  0  0  0  0  0  0
   -3.7047   -1.2462   -0.4819 C   0  0  0  0  0  0  0  0  0  0  0  0
   -3.5962   -0.3127   -1.5124 O   0  0  0  0  0  0  0  0  0  0  0  0
   -4.7312   -1.8167    0.2427 C   0  0  0  0  0  0  0  0  0  0  0  0
   -4.4230   -2.7444    1.2308 C   0  0  0  0  0  0  0  0  0  0  0  0
   -3.1196   -3.1219    1.5200 C   0  0  0  0  0  0  0  0  0  0  0  0
   -6.0403   -1.4416   -0.0430 O   0  0  0  0  0  0  0  0  0  0  0  0
    1.5869   -3.8264   -0.4592 C   0  0  0  0  0  0  0  0  0  0  0  0
    3.0505    0.9940   -1.3639 C   0  0  0  0  0  0  0  0  0  0  0  0
    4.2946    1.2939   -0.6141 C   0  0  0  0  0  0  0  0  0  0  0  0
    5.2690    0.2980   -0.5962 C   0  0  0  0  0  0  0  0  0  0  0  0
    6.4627    0.4755    0.0725 C   0  0  0  0  0  0  0  0  0  0  0  0
    6.6640    1.6766    0.7272 C   0  0  0  0  0  0  0  0  0  0  0  0
    5.7083    2.6787    0.7213 C   0  0  0  0  0  0  0  0  0  0  0  0
    4.5234    2.4744    0.0446 C   0  0  0  0  0  0  0  0  0  0  0  0
    0.6058    0.1797   -1.9897 H   0  0  0  0  0  0  0  0  0  0  0  0
    0.2417    0.5422    1.5894 H   0  0  0  0  0  0  0  0  0  0  0  0
   -1.2972   -0.3171    1.6497 H   0  0  0  0  0  0  0  0  0  0  0  0
   -0.3859    2.8064    2.7791 H   0  0  0  0  0  0  0  0  0  0  0  0
   -0.9987    5.1700    3.2149 H   0  0  0  0  0  0  0  0  0  0  0  0
   -2.4778    6.4004    1.6900 H   0  0  0  0  0  0  0  0  0  0  0  0
   -3.3541    5.2633   -0.2882 H   0  0  0  0  0  0  0  0  0  0  0  0
   -3.3478    2.8635   -1.6609 H   0  0  0  0  0  0  0  0  0  0  0  0
   -1.9861    0.3790   -2.5852 H   0  0  0  0  0  0  0  0  0  0  0  0
   -0.6116   -1.2359   -2.9876 H   0  0  0  0  0  0  0  0  0  0  0  0
   -1.9775   -2.2880   -2.5751 H   0  0  0  0  0  0  0  0  0  0  0  0
   -0.7651   -3.8112   -1.3362 H   0  0  0  0  0  0  0  0  0  0  0  0
    0.3553   -3.3846   -2.6631 H   0  0  0  0  0  0  0  0  0  0  0  0
    1.1543   -1.7921    1.0364 H   0  0  0  0  0  0  0  0  0  0  0  0
   -0.5158   -2.8242    2.1288 H   0  0  0  0  0  0  0  0  0  0  0  0
   -0.5212   -3.9181    0.7252 H   0  0  0  0  0  0  0  0  0  0  0  0
   -5.2307   -3.2051    1.8136 H   0  0  0  0  0  0  0  0  0  0  0  0
   -2.8908   -3.8509    2.2982 H   0  0  0  0  0  0  0  0  0  0  0  0
   -6.7490   -2.1409    0.1966 H   0  0  0  0  0  0  0  0  0  0  0  0
    1.9647   -3.8054    0.5756 H   0  0  0  0  0  0  0  0  0  0  0  0
    2.4403   -3.9792   -1.1437 H   0  0  0  0  0  0  0  0  0  0  0  0
    0.9125   -4.7146   -0.6107 H   0  0  0  0  0  0  0  0  0  0  0  0
    3.2562    0.3178   -2.2299 H   0  0  0  0  0  0  0  0  0  0  0  0
    2.6539    1.9527   -1.7569 H   0  0  0  0  0  0  0  0  0  0  0  0
    5.1138   -0.6400   -1.1064 H   0  0  0  0  0  0  0  0  0  0  0  0
    7.1959   -0.3171    0.0659 H   0  0  0  0  0  0  0  0  0  0  0  0
    7.6071    1.7919    1.2439 H   0  0  0  0  0  0  0  0  0  0  0  0
    5.8810    3.6261    1.2446 H   0  0  0  0  0  0  0  0  0  0  0  0
    3.7369    3.2324    0.0090 H   0  0  0  0  0  0  0  0  0  0  0  0
  1  2  2  0
  2  3  1  0
  4  3  1  6
  4  5  1  0
  5  6  1  0
  6  7  1  0
  7  8  2  0
  8  9  1  0
  9 10  2  0
 10 11  1  0
 11 12  2  0
 12 13  1  0
 13 14  1  0
 14 15  1  0
 15 16  1  0
 16 17  1  6
 17 18  1  0
 18 19  1  0
 19 20  1  0
 20 21  1  0
 21 22  1  0
 22 23  2  0
 23 24  1  0
 24 25  1  0
 24 26  2  0
 26 27  1  0
 27 28  2  0
 26 29  1  0
 19 30  1  0
  2 31  1  0
 31 32  1  0
 32 33  2  0
 33 34  1  0
 34 35  2  0
 35 36  1  0
 36 37  2  0
 20  4  1  0
 28 22  1  0
 37 32  1  0
 16  4  1  0
 14  6  2  0
 25 15  1  0
 12  7  1  0
 23 16  1  0
  3 38  1  0
  5 39  1  0
  5 40  1  0
  8 41  1  0
  9 42  1  0
 10 43  1  0
 11 44  1  0
 13 45  1  0
 15 46  1  6
 17 47  1  0
 17 48  1  0
 18 49  1  0
 18 50  1  0
 20 51  1  0
 21 52  1  0
 21 53  1  0
 27 54  1  0
 28 55  1  0
 29 56  1  0
 30 57  1  0
 30 58  1  0
 30 59  1  0
 31 60  1  0
 31 61  1  0
 33 62  1  0
 34 63  1  0
 35 64  1  0
 36 65  1  0
 37 66  1  0
M  END
>  <Ligand ID>  (1) 
LIG0004607

>  <Ligand>  (1) 
CHEMBL2113379

>  <SMILES>  (1) 
O=C(N[C@]12Cc3c4ccccc4[nH]c3[C@H]3[C@]42CCN(C1Cc1c4c(O3)c(cc1)O)C)Cc1ccccc1

>  <CID>  (1) 
10323346.0

>  <ChEMBL ID>  (1) 
nan

>  <InChiKey>  (1) 
KZCZLNDSDZJRFZ-LILGDFOTSA-N

>  <InChi>  (1) 
InChI=1S/C31H29N3O3/c1-34-14-13-30-26-19-11-12-23(35)28(26)37-29(30)27-21(20-9-5-6-10-22(20)32-27)17-31(30,24(34)16-19)33-25(36)15-18-7-3-2-4-8-18/h2-12,24,29,32,35H,13-17H2,1H3,(H,33,36)/t24?,29-,30-,31+/m0/s1

>  <IUPAC Name>  (1) 
N-[(1R,2S,13R)-16-hydroxy-22-methyl-14-oxa-11,22-diazaheptacyclo[13.9.1.01,13.02,21.04,12.05,10.019,25]pentacosa-4(12),5,7,9,15,17,19(25)-heptaen-2-yl]-2-phenylacetamide

$$$$
