
     RDKit          3D

 26 26  0  0  0  0  0  0  0  0999 V2000
   -3.4131    0.8837    0.7255 N   0  0  0  0  0  0  0  0  0  0  0  0
   -3.0236    0.0204   -0.3784 C   0  0  0  0  0  0  0  0  0  0  0  0
   -1.6141   -0.4729   -0.0177 C   0  0  1  0  0  0  0  0  0  0  0  0
   -0.9899   -1.3951   -1.0230 C   0  0  0  0  0  0  0  0  0  0  0  0
   -0.4823    0.0645   -0.7655 C   0  0  2  0  0  0  0  0  0  0  0  0
    0.9027    0.1373   -0.3019 C   0  0  0  0  0  0  0  0  0  0  0  0
    1.9067    0.0197   -1.2703 C   0  0  0  0  0  0  0  0  0  0  0  0
    3.2444    0.0643   -0.9285 C   0  0  0  0  0  0  0  0  0  0  0  0
    3.6411    0.2268    0.3830 C   0  0  0  0  0  0  0  0  0  0  0  0
    2.6673    0.3450    1.3541 C   0  0  0  0  0  0  0  0  0  0  0  0
    1.3231    0.2981    0.9921 C   0  0  0  0  0  0  0  0  0  0  0  0
    0.1552    0.4718    2.2805 Cl  0  0  0  0  0  0  0  0  0  0  0  0
    5.3161    0.2903    0.8755 Cl  0  0  0  0  0  0  0  0  0  0  0  0
    0.6887    0.0000    0.0000 Cl  0  0  0  0  0  0  0  0  0  0  0  0
   -3.0227    1.8430    0.6204 H   0  0  0  0  0  0  0  0  0  0  0  0
   -4.4222    0.8512    0.9305 H   0  0  0  0  0  0  0  0  0  0  0  0
   -3.7290   -0.7937   -0.5540 H   0  0  0  0  0  0  0  0  0  0  0  0
   -2.9437    0.6697   -1.2739 H   0  0  0  0  0  0  0  0  0  0  0  0
   -1.5369   -0.8272    1.0068 H   0  0  0  0  0  0  0  0  0  0  0  0
   -0.3167   -2.2120   -0.6765 H   0  0  0  0  0  0  0  0  0  0  0  0
   -1.5397   -1.5783   -1.9451 H   0  0  0  0  0  0  0  0  0  0  0  0
   -0.7806    0.7564   -1.6155 H   0  0  0  0  0  0  0  0  0  0  0  0
    1.6644   -0.1107   -2.3238 H   0  0  0  0  0  0  0  0  0  0  0  0
    4.0416   -0.0245   -1.6606 H   0  0  0  0  0  0  0  0  0  0  0  0
    2.9521    0.4722    2.3810 H   0  0  0  0  0  0  0  0  0  0  0  0
   -0.6887    0.0000    0.0000 H   0  0  0  0  0  0  0  0  0  0  0  0
  1  2  1  0
  2  3  1  0
  3  4  1  0
  4  5  1  0
  5  6  1  0
  6  7  2  0
  7  8  1  0
  8  9  2  0
  9 10  1  0
 10 11  2  0
 11 12  1  0
  9 13  1  0
  5  3  1  0
 11  6  1  0
  1 15  1  0
  1 16  1  0
  2 17  1  0
  2 18  1  0
  3 19  1  1
  4 20  1  0
  4 21  1  0
  5 22  1  6
  7 23  1  0
  8 24  1  0
 10 25  1  0
 14 26  1  0
M  END
>  <Ligand ID>  (1) 
LIG0002357

>  <Ligand>  (1) 
CHEMBL452458

>  <SMILES>  (1) 
NC[C@H]1C[C@@H]1c1ccc(cc1Cl)Cl.Cl

>  <CID>  (1) 
44572169.0

>  <ChEMBL ID>  (1) 
nan

>  <InChiKey>  (1) 
OMPRMNLJCKYRLI-VNUWRVCDSA-N

>  <InChi>  (1) 
InChI=1S/C10H11Cl2N.ClH/c11-7-1-2-8(10(12)4-7)9-3-6(9)5-13;/h1-2,4,6,9H,3,5,13H2;1H/t6-,9+;/m1./s1

>  <IUPAC Name>  (1) 
[(1S,2S)-2-(2,4-dichlorophenyl)cyclopropyl]methanamine;hydrochloride

$$$$
