
     RDKit          3D

 53 52  0  0  0  0  0  0  0  0999 V2000
   -7.7788   -0.6899   -0.6914 C   0  0  0  0  0  0  0  0  0  0  0  0
   -6.4043    0.0053   -0.8530 C   0  0  0  0  0  0  0  0  0  0  0  0
   -6.1400    0.7192    0.4304 C   0  0  0  0  0  0  0  0  0  0  0  0
   -4.9045    1.4900    0.5494 C   0  0  0  0  0  0  0  0  0  0  0  0
   -3.5654    0.9039    0.5049 C   0  0  0  0  0  0  0  0  0  0  0  0
   -3.0699    0.1597   -0.6625 C   0  0  0  0  0  0  0  0  0  0  0  0
   -1.6044   -0.2550   -0.3602 C   0  0  0  0  0  0  0  0  0  0  0  0
   -0.6940    0.8873   -0.1279 C   0  0  0  0  0  0  0  0  0  0  0  0
    0.7211    0.3483    0.1251 C   0  0  0  0  0  0  0  0  0  0  0  0
    0.8114   -0.5412    1.3016 C   0  0  0  0  0  0  0  0  0  0  0  0
    2.1744   -1.0499    1.5708 C   0  0  0  0  0  0  0  0  0  0  0  0
    2.8765   -1.9313    0.6396 C   0  0  0  0  0  0  0  0  0  0  0  0
    3.1996   -1.5454   -0.7371 C   0  0  0  0  0  0  0  0  0  0  0  0
    4.0307   -0.2968   -0.9045 C   0  0  0  0  0  0  0  0  0  0  0  0
    5.3902   -0.4097   -0.2155 C   0  0  0  0  0  0  0  0  0  0  0  0
    6.1195    0.8734   -0.4462 C   0  0  0  0  0  0  0  0  0  0  0  0
    5.5964    1.8063   -1.1088 O   0  0  0  0  0  0  0  0  0  0  0  0
    7.3910    0.9716    0.1072 O   0  0  0  0  0  0  0  0  0  0  0  0
    8.1761    2.1464   -0.0489 C   0  0  0  0  0  0  0  0  0  0  0  0
   -7.5769   -1.6172   -0.1212 H   0  0  0  0  0  0  0  0  0  0  0  0
   -8.3874   -0.0311   -0.0620 H   0  0  0  0  0  0  0  0  0  0  0  0
   -8.2074   -0.8790   -1.7010 H   0  0  0  0  0  0  0  0  0  0  0  0
   -6.5729    0.7169   -1.7068 H   0  0  0  0  0  0  0  0  0  0  0  0
   -5.6633   -0.7075   -1.1806 H   0  0  0  0  0  0  0  0  0  0  0  0
   -6.3407    0.0471    1.3165 H   0  0  0  0  0  0  0  0  0  0  0  0
   -6.9973    1.4721    0.5383 H   0  0  0  0  0  0  0  0  0  0  0  0
   -5.0083    2.3576   -0.2063 H   0  0  0  0  0  0  0  0  0  0  0  0
   -4.9335    2.1024    1.5268 H   0  0  0  0  0  0  0  0  0  0  0  0
   -2.8446    1.7899    0.6256 H   0  0  0  0  0  0  0  0  0  0  0  0
   -3.3360    0.3006    1.4280 H   0  0  0  0  0  0  0  0  0  0  0  0
   -3.0325    0.7169   -1.5973 H   0  0  0  0  0  0  0  0  0  0  0  0
   -3.5289   -0.8718   -0.8011 H   0  0  0  0  0  0  0  0  0  0  0  0
   -1.7254   -0.9093    0.5406 H   0  0  0  0  0  0  0  0  0  0  0  0
   -1.2441   -0.8674   -1.2015 H   0  0  0  0  0  0  0  0  0  0  0  0
   -0.9100    1.5138    0.7618 H   0  0  0  0  0  0  0  0  0  0  0  0
   -0.6356    1.5220   -1.0104 H   0  0  0  0  0  0  0  0  0  0  0  0
    1.1575   -0.0421   -0.7745 H   0  0  0  0  0  0  0  0  0  0  0  0
    1.3244    1.2745    0.3829 H   0  0  0  0  0  0  0  0  0  0  0  0
    0.5228    0.0796    2.2136 H   0  0  0  0  0  0  0  0  0  0  0  0
    0.0835   -1.4001    1.2555 H   0  0  0  0  0  0  0  0  0  0  0  0
    2.1429   -1.6142    2.5747 H   0  0  0  0  0  0  0  0  0  0  0  0
    2.7871   -0.1411    1.8664 H   0  0  0  0  0  0  0  0  0  0  0  0
    2.2187   -2.8705    0.5470 H   0  0  0  0  0  0  0  0  0  0  0  0
    3.8007   -2.3871    1.1226 H   0  0  0  0  0  0  0  0  0  0  0  0
    2.4589   -1.6172   -1.5202 H   0  0  0  0  0  0  0  0  0  0  0  0
    3.9609   -2.3702   -1.0848 H   0  0  0  0  0  0  0  0  0  0  0  0
    3.5157    0.6365   -0.6822 H   0  0  0  0  0  0  0  0  0  0  0  0
    4.2836   -0.2640   -2.0035 H   0  0  0  0  0  0  0  0  0  0  0  0
    5.9474   -1.2338   -0.6763 H   0  0  0  0  0  0  0  0  0  0  0  0
    5.2830   -0.5375    0.8727 H   0  0  0  0  0  0  0  0  0  0  0  0
    8.8383    2.2482    0.8289 H   0  0  0  0  0  0  0  0  0  0  0  0
    8.7605    2.0802   -0.9985 H   0  0  0  0  0  0  0  0  0  0  0  0
    7.5330    3.0440   -0.1464 H   0  0  0  0  0  0  0  0  0  0  0  0
  1  2  1  0
  2  3  1  0
  3  4  1  0
  4  5  1  0
  5  6  1  0
  6  7  1  0
  7  8  1  0
  8  9  1  0
  9 10  1  0
 10 11  1  0
 11 12  1  0
 12 13  1  0
 13 14  1  0
 14 15  1  0
 15 16  1  0
 16 17  2  0
 16 18  1  0
 18 19  1  0
  1 20  1  0
  1 21  1  0
  1 22  1  0
  2 23  1  0
  2 24  1  0
  3 25  1  0
  3 26  1  0
  4 27  1  0
  4 28  1  0
  5 29  1  0
  5 30  1  0
  6 31  1  0
  6 32  1  0
  7 33  1  0
  7 34  1  0
  8 35  1  0
  8 36  1  0
  9 37  1  0
  9 38  1  0
 10 39  1  0
 10 40  1  0
 11 41  1  0
 11 42  1  0
 12 43  1  0
 12 44  1  0
 13 45  1  0
 13 46  1  0
 14 47  1  0
 14 48  1  0
 15 49  1  0
 15 50  1  0
 19 51  1  0
 19 52  1  0
 19 53  1  0
M  END
>  <Ligand ID>  (1) 
LIG0000550

>  <Ligand>  (1) 
Methyl palmitate

>  <SMILES>  (1) 
CCCCCCCCCCCCCCCC(=O)OC

>  <CID>  (1) 
8181.0

>  <ChEMBL ID>  (1) 
nan

>  <InChiKey>  (1) 
FLIACVVOZYBSBS-UHFFFAOYSA-N

>  <InChi>  (1) 
InChI=1S/C17H34O2/c1-3-4-5-6-7-8-9-10-11-12-13-14-15-16-17(18)19-2/h3-16H2,1-2H3

>  <IUPAC Name>  (1) 
methyl hexadecanoate

$$$$
