
     RDKit          3D

 37 38  0  0  0  0  0  0  0  0999 V2000
   -2.1685    2.4221    1.1694 C   0  0  0  0  0  0  0  0  0  0  0  0
   -1.2658    1.0985    2.0248 S   0  0  0  0  0  0  0  0  0  0  0  0
   -2.1460   -0.4277    1.7226 C   0  0  0  0  0  0  0  0  0  0  0  0
   -3.1247   -0.8066    2.5716 N   0  0  0  0  0  0  0  0  0  0  0  0
   -3.8386   -1.9390    2.4214 C   0  0  0  0  0  0  0  0  0  0  0  0
   -4.7512   -2.2930    3.2126 O   0  0  0  0  0  0  0  0  0  0  0  0
   -3.5044   -2.7188    1.3142 C   0  0  0  0  0  0  0  0  0  0  0  0
   -2.4995   -2.3243    0.4472 C   0  0  0  0  0  0  0  0  0  0  0  0
   -1.8097   -1.1654    0.6505 N   0  0  0  0  0  0  0  0  0  0  0  0
   -0.7932   -0.8254   -0.2792 C   0  0  2  0  0  0  0  0  0  0  0  0
    0.2476   -0.0497    0.2444 O   0  0  0  0  0  0  0  0  0  0  0  0
    1.0713   -0.0870   -0.8918 C   0  0  1  0  0  0  0  0  0  0  0  0
    0.1787    0.3435   -2.0387 C   0  0  2  0  0  0  0  0  0  0  0  0
   -1.2013   -0.0186   -1.4653 C   0  0  1  0  0  0  0  0  0  0  0  0
   -1.8461   -0.8279   -2.4033 O   0  0  0  0  0  0  0  0  0  0  0  0
    0.4730   -0.3996   -3.1577 O   0  0  0  0  0  0  0  0  0  0  0  0
    2.2867    0.7921   -0.7709 C   0  0  0  0  0  0  0  0  0  0  0  0
    3.0416    0.3760    0.3124 O   0  0  0  0  0  0  0  0  0  0  0  0
    4.4242    1.3461    0.4773 P   0  0  0  0  0  0  0  0  0  0  0  0
    4.2751    2.5589   -0.4410 O   0  0  0  0  0  0  0  0  0  0  0  0
    5.8231    0.5483   -0.0292 O   0  0  0  0  0  0  0  0  0  0  0  0
    4.6391    1.8202    2.0787 O   0  0  0  0  0  0  0  0  0  0  0  0
   -1.5809    2.7762    0.2904 H   0  0  0  0  0  0  0  0  0  0  0  0
   -2.3643    3.2625    1.8435 H   0  0  0  0  0  0  0  0  0  0  0  0
   -3.1653    2.0714    0.7991 H   0  0  0  0  0  0  0  0  0  0  0  0
   -4.0196   -3.6497    1.1036 H   0  0  0  0  0  0  0  0  0  0  0  0
   -2.2533   -2.9501   -0.4148 H   0  0  0  0  0  0  0  0  0  0  0  0
   -0.2621   -1.7315   -0.6965 H   0  0  0  0  0  0  0  0  0  0  0  0
    1.3532   -1.1465   -1.0238 H   0  0  0  0  0  0  0  0  0  0  0  0
    0.2269    1.4431   -2.1952 H   0  0  0  0  0  0  0  0  0  0  0  0
   -1.7711    0.8902   -1.2598 H   0  0  0  0  0  0  0  0  0  0  0  0
   -1.1566   -1.5206   -2.6557 H   0  0  0  0  0  0  0  0  0  0  0  0
    1.2633   -0.9490   -3.0046 H   0  0  0  0  0  0  0  0  0  0  0  0
    2.0308    1.8493   -0.7827 H   0  0  0  0  0  0  0  0  0  0  0  0
    2.9002    0.5729   -1.6723 H   0  0  0  0  0  0  0  0  0  0  0  0
    5.7043   -0.4428   -0.1060 H   0  0  0  0  0  0  0  0  0  0  0  0
    5.5832    2.1019    2.1580 H   0  0  0  0  0  0  0  0  0  0  0  0
  1  2  1  0
  2  3  1  0
  3  4  2  0
  4  5  1  0
  5  6  2  0
  5  7  1  0
  7  8  2  0
  8  9  1  0
  9 10  1  0
 10 11  1  0
 11 12  1  0
 12 13  1  0
 13 14  1  0
 14 15  1  0
 13 16  1  0
 12 17  1  0
 17 18  1  0
 18 19  1  0
 19 20  2  0
 19 21  1  0
 19 22  1  0
  9  3  1  0
 14 10  1  0
  1 23  1  0
  1 24  1  0
  1 25  1  0
  7 26  1  0
  8 27  1  0
 10 28  1  6
 12 29  1  6
 13 30  1  6
 14 31  1  1
 15 32  1  0
 16 33  1  0
 17 34  1  0
 17 35  1  0
 21 36  1  0
 22 37  1  0
M  END
>  <Ligand ID>  (1) 
LIG0004963

>  <Ligand>  (1) 
CHEMBL1767417

>  <SMILES>  (1) 
CSc1nc(=O)ccn1[C@@H]1O[C@@H]([C@H]([C@H]1O)O)COP(=O)(O)O

>  <CID>  (1) 
52952394.0

>  <ChEMBL ID>  (1) 
nan

>  <InChiKey>  (1) 
VFWZRSQLLBLMNH-ZOQUXTDFSA-N

>  <InChi>  (1) 
InChI=1S/C10H15N2O8PS/c1-22-10-11-6(13)2-3-12(10)9-8(15)7(14)5(20-9)4-19-21(16,17)18/h2-3,5,7-9,14-15H,4H2,1H3,(H2,16,17,18)/t5-,7-,8-,9-/m1/s1

>  <IUPAC Name>  (1) 
[(2R,3S,4R,5R)-3,4-dihydroxy-5-(2-methylsulfanyl-4-oxopyrimidin-1-yl)oxolan-2-yl]methyl dihydrogen phosphate

$$$$
