
     RDKit          3D

 53 56  0  0  0  0  0  0  0  0999 V2000
    7.9207    0.3339   -0.3712 C   0  0  0  0  0  0  0  0  0  0  0  0
    6.9916   -0.6704   -0.7641 O   0  0  0  0  0  0  0  0  0  0  0  0
    5.7595   -0.8211   -0.1794 C   0  0  0  0  0  0  0  0  0  0  0  0
    4.8489   -1.8052   -0.5642 C   0  0  0  0  0  0  0  0  0  0  0  0
    3.6084   -1.9052    0.0730 C   0  0  0  0  0  0  0  0  0  0  0  0
    3.2856   -1.0247    1.0872 C   0  0  0  0  0  0  0  0  0  0  0  0
    4.2021   -0.0562    1.4540 C   0  0  0  0  0  0  0  0  0  0  0  0
    5.4275    0.0612    0.8420 C   0  0  0  0  0  0  0  0  0  0  0  0
    1.9990   -1.0576    1.8143 C   0  0  0  0  0  0  0  0  0  0  0  0
    0.9891   -0.2321    1.1922 N   0  0  0  0  0  0  0  0  0  0  0  0
    0.6993   -0.6410   -0.1606 C   0  0  0  0  0  0  0  0  0  0  0  0
   -0.3611    0.2613   -0.7496 C   0  0  0  0  0  0  0  0  0  0  0  0
   -1.6415    0.2356    0.0068 C   0  0  0  0  0  0  0  0  0  0  0  0
   -2.5969    1.1535   -0.6558 C   0  0  0  0  0  0  0  0  0  0  0  0
   -2.7747    1.2352   -2.0163 C   0  0  0  0  0  0  0  0  0  0  0  0
   -3.6788    2.1125   -2.6048 C   0  0  0  0  0  0  0  0  0  0  0  0
   -4.4335    2.9395   -1.7958 C   0  0  0  0  0  0  0  0  0  0  0  0
   -4.2763    2.8799   -0.4174 C   0  0  0  0  0  0  0  0  0  0  0  0
   -3.3597    1.9870    0.1295 C   0  0  0  0  0  0  0  0  0  0  0  0
   -5.1556    3.8148    0.1325 O   0  0  0  0  0  0  0  0  0  0  0  0
   -5.7383    4.5884   -0.8965 C   0  0  0  0  0  0  0  0  0  0  0  0
   -5.3951    3.8972   -2.0849 O   0  0  0  0  0  0  0  0  0  0  0  0
   -2.2677   -1.1078    0.1166 C   0  0  0  0  0  0  0  0  0  0  0  0
   -2.1413   -2.0732   -0.8660 C   0  0  0  0  0  0  0  0  0  0  0  0
   -2.7479   -3.3197   -0.7168 C   0  0  0  0  0  0  0  0  0  0  0  0
   -3.4845   -3.6060    0.4175 C   0  0  0  0  0  0  0  0  0  0  0  0
   -3.6226   -2.6455    1.4178 C   0  0  0  0  0  0  0  0  0  0  0  0
   -3.0094   -1.4055    1.2516 C   0  0  0  0  0  0  0  0  0  0  0  0
    7.5892    1.3428   -0.6732 H   0  0  0  0  0  0  0  0  0  0  0  0
    8.8662    0.1082   -0.9094 H   0  0  0  0  0  0  0  0  0  0  0  0
    8.1151    0.3293    0.7087 H   0  0  0  0  0  0  0  0  0  0  0  0
    5.1282   -2.4816   -1.3619 H   0  0  0  0  0  0  0  0  0  0  0  0
    2.8926   -2.6662   -0.2178 H   0  0  0  0  0  0  0  0  0  0  0  0
    3.9712    0.6380    2.2398 H   0  0  0  0  0  0  0  0  0  0  0  0
    6.1362    0.8311    1.1453 H   0  0  0  0  0  0  0  0  0  0  0  0
    1.6621   -2.0929    1.8577 H   0  0  0  0  0  0  0  0  0  0  0  0
    2.1427   -0.6768    2.8458 H   0  0  0  0  0  0  0  0  0  0  0  0
    1.2017    0.7735    1.2572 H   0  0  0  0  0  0  0  0  0  0  0  0
    1.6250   -0.4847   -0.7544 H   0  0  0  0  0  0  0  0  0  0  0  0
    0.4518   -1.7067   -0.1925 H   0  0  0  0  0  0  0  0  0  0  0  0
    0.0438    1.2946   -0.6601 H   0  0  0  0  0  0  0  0  0  0  0  0
   -0.4866    0.0989   -1.8309 H   0  0  0  0  0  0  0  0  0  0  0  0
   -1.4169    0.6278    1.0482 H   0  0  0  0  0  0  0  0  0  0  0  0
   -2.2152    0.6113   -2.6924 H   0  0  0  0  0  0  0  0  0  0  0  0
   -3.7900    2.1484   -3.6664 H   0  0  0  0  0  0  0  0  0  0  0  0
   -3.2577    1.9615    1.2058 H   0  0  0  0  0  0  0  0  0  0  0  0
   -5.3470    5.6392   -0.9058 H   0  0  0  0  0  0  0  0  0  0  0  0
   -6.8430    4.5910   -0.7080 H   0  0  0  0  0  0  0  0  0  0  0  0
   -1.5638   -1.8291   -1.7402 H   0  0  0  0  0  0  0  0  0  0  0  0
   -2.6498   -4.0707   -1.4811 H   0  0  0  0  0  0  0  0  0  0  0  0
   -3.9719   -4.5727    0.5642 H   0  0  0  0  0  0  0  0  0  0  0  0
   -4.2081   -2.8764    2.3168 H   0  0  0  0  0  0  0  0  0  0  0  0
   -3.1226   -0.6667    2.0340 H   0  0  0  0  0  0  0  0  0  0  0  0
  1  2  1  0
  2  3  1  0
  3  4  2  0
  4  5  1  0
  5  6  2  0
  6  7  1  0
  7  8  2  0
  6  9  1  0
  9 10  1  0
 10 11  1  0
 11 12  1  0
 12 13  1  0
 13 14  1  0
 14 15  2  0
 15 16  1  0
 16 17  2  0
 17 18  1  0
 18 19  2  0
 18 20  1  0
 20 21  1  0
 21 22  1  0
 13 23  1  0
 23 24  2  0
 24 25  1  0
 25 26  2  0
 26 27  1  0
 27 28  2  0
  8  3  1  0
 19 14  1  0
 28 23  1  0
 22 17  1  0
  1 29  1  0
  1 30  1  0
  1 31  1  0
  4 32  1  0
  5 33  1  0
  7 34  1  0
  8 35  1  0
  9 36  1  0
  9 37  1  0
 10 38  1  0
 11 39  1  0
 11 40  1  0
 12 41  1  0
 12 42  1  0
 13 43  1  0
 15 44  1  0
 16 45  1  0
 19 46  1  0
 21 47  1  0
 21 48  1  0
 24 49  1  0
 25 50  1  0
 26 51  1  0
 27 52  1  0
 28 53  1  0
M  END
>  <Ligand ID>  (1) 
LIG0004816

>  <Ligand>  (1) 
(3-Benzo[1,3]dioxol-5-yl-3-phenyl-propyl)-(4-methoxy-benzyl)-amine

>  <SMILES>  (1) 
COc1ccc(cc1)CNCCC(c1ccc2c(c1)OCO2)c1ccccc1

>  <CID>  (1) 
2921525.0

>  <ChEMBL ID>  (1) 
nan

>  <InChiKey>  (1) 
MSMGILWIFGCKCS-UHFFFAOYSA-N

>  <InChi>  (1) 
InChI=1S/C24H25NO3/c1-26-21-10-7-18(8-11-21)16-25-14-13-22(19-5-3-2-4-6-19)20-9-12-23-24(15-20)28-17-27-23/h2-12,15,22,25H,13-14,16-17H2,1H3

>  <IUPAC Name>  (1) 
3-(1,3-benzodioxol-5-yl)-N-[(4-methoxyphenyl)methyl]-3-phenylpropan-1-amine

$$$$
