
     RDKit          3D

 78 81  0  0  0  0  0  0  0  0999 V2000
    5.9665    0.9480    3.0448 C   0  0  0  0  0  0  0  0  0  0  0  0
    6.4224    0.8177    1.6131 C   0  0  1  0  0  0  0  0  0  0  0  0
    7.0411   -0.5420    1.3698 C   0  0  1  0  0  0  0  0  0  0  0  0
    7.9619   -0.4829    0.1758 C   0  0  0  0  0  0  0  0  0  0  0  0
    7.6637   -1.0631   -1.0186 C   0  0  0  0  0  0  0  0  0  0  0  0
    8.5738   -0.9525   -2.0623 C   0  0  0  0  0  0  0  0  0  0  0  0
    9.7670   -0.2706   -1.9145 C   0  0  0  0  0  0  0  0  0  0  0  0
   10.0175    0.3029   -0.6680 C   0  0  0  0  0  0  0  0  0  0  0  0
    9.1535    0.2197    0.3844 C   0  0  0  0  0  0  0  0  0  0  0  0
   10.6718   -0.1652   -2.9664 O   0  0  0  0  0  0  0  0  0  0  0  0
    7.8812   -0.8637    2.4352 O   0  0  0  0  0  0  0  0  0  0  0  0
    5.5485    1.2589    0.6145 N   0  0  0  0  0  0  0  0  0  0  0  0
    4.2907    0.6722    0.3976 C   0  0  0  0  0  0  0  0  0  0  0  0
    3.2460    0.8578    1.4319 C   0  0  0  0  0  0  0  0  0  0  0  0
    1.9420    0.2252    1.1098 C   0  0  0  0  0  0  0  0  0  0  0  0
    1.0138    0.9878    0.4083 C   0  0  0  0  0  0  0  0  0  0  0  0
   -0.2279    0.4720    0.0739 C   0  0  0  0  0  0  0  0  0  0  0  0
   -0.5739   -0.8193    0.4321 C   0  0  0  0  0  0  0  0  0  0  0  0
    0.3490   -1.5795    1.1302 C   0  0  0  0  0  0  0  0  0  0  0  0
    1.6066   -1.0610    1.4703 C   0  0  0  0  0  0  0  0  0  0  0  0
   -1.8923   -1.3018    0.0594 C   0  0  0  0  0  0  0  0  0  0  0  0
   -2.1708   -2.6164   -0.2302 C   0  0  0  0  0  0  0  0  0  0  0  0
   -3.4382   -3.0168   -0.5744 C   0  0  0  0  0  0  0  0  0  0  0  0
   -4.5199   -2.1339   -0.6545 C   0  0  0  0  0  0  0  0  0  0  0  0
   -4.2424   -0.8187   -0.3654 C   0  0  0  0  0  0  0  0  0  0  0  0
   -2.9664   -0.4155   -0.0190 C   0  0  0  0  0  0  0  0  0  0  0  0
   -5.2449    0.0914   -0.4240 O   0  0  0  0  0  0  0  0  0  0  0  0
   -5.1932    1.4507   -0.1790 C   0  0  0  0  0  0  0  0  0  0  0  0
   -5.5758    2.2570   -1.4340 C   0  0  0  0  0  0  0  0  0  0  0  0
   -5.2047    3.7024   -1.0981 C   0  0  0  0  0  0  0  0  0  0  0  0
   -6.1853    4.1855   -0.0619 C   0  0  0  0  0  0  0  0  0  0  0  0
   -6.9528    3.0798    0.6049 C   0  0  0  0  0  0  0  0  0  0  0  0
   -6.1104    1.8784    0.9581 C   0  0  0  0  0  0  0  0  0  0  0  0
   -5.8044   -2.6799   -1.0237 C   0  0  0  0  0  0  0  0  0  0  0  0
   -5.8553   -3.9388   -1.2593 O   0  0  0  0  0  0  0  0  0  0  0  0
   -7.0195   -1.9909   -1.1581 N   0  0  0  0  0  0  0  0  0  0  0  0
   -8.5284   -2.6779   -1.6030 S   0  0  0  0  0  0  0  0  0  0  0  0
   -9.0234   -2.1076   -2.9188 O   0  0  0  0  0  0  0  0  0  0  0  0
   -9.5952   -2.3921   -0.5833 O   0  0  0  0  0  0  0  0  0  0  0  0
   -8.3248   -4.4145   -1.8670 C   0  0  0  0  0  0  0  0  0  0  0  0
    5.6119   -0.0031    3.4944 H   0  0  0  0  0  0  0  0  0  0  0  0
    6.8482    1.2201    3.7099 H   0  0  0  0  0  0  0  0  0  0  0  0
    5.2822    1.8038    3.1684 H   0  0  0  0  0  0  0  0  0  0  0  0
    7.3185    1.5219    1.5589 H   0  0  0  0  0  0  0  0  0  0  0  0
    6.3433   -1.3510    1.1947 H   0  0  0  0  0  0  0  0  0  0  0  0
    6.7269   -1.6039   -1.1486 H   0  0  0  0  0  0  0  0  0  0  0  0
    8.3850   -1.3986   -3.0406 H   0  0  0  0  0  0  0  0  0  0  0  0
   10.9538    0.8327   -0.5679 H   0  0  0  0  0  0  0  0  0  0  0  0
    9.3634    0.6775    1.3643 H   0  0  0  0  0  0  0  0  0  0  0  0
   11.4989    0.3968   -2.8023 H   0  0  0  0  0  0  0  0  0  0  0  0
    8.2693   -1.7688    2.3401 H   0  0  0  0  0  0  0  0  0  0  0  0
    6.0387    1.4855   -0.2538 H   0  0  0  0  0  0  0  0  0  0  0  0
    4.3525   -0.4094    0.0546 H   0  0  0  0  0  0  0  0  0  0  0  0
    3.8823    1.1712   -0.5377 H   0  0  0  0  0  0  0  0  0  0  0  0
    3.5694    0.3752    2.3767 H   0  0  0  0  0  0  0  0  0  0  0  0
    3.0618    1.9435    1.5510 H   0  0  0  0  0  0  0  0  0  0  0  0
    1.2751    2.0058    0.1212 H   0  0  0  0  0  0  0  0  0  0  0  0
   -0.8811    1.1370   -0.4721 H   0  0  0  0  0  0  0  0  0  0  0  0
    0.1053   -2.5734    1.4156 H   0  0  0  0  0  0  0  0  0  0  0  0
    2.3355   -1.6467    2.0164 H   0  0  0  0  0  0  0  0  0  0  0  0
   -1.3644   -3.3274   -0.1794 H   0  0  0  0  0  0  0  0  0  0  0  0
   -3.5567   -4.0832   -0.7861 H   0  0  0  0  0  0  0  0  0  0  0  0
   -2.7113    0.6114    0.2170 H   0  0  0  0  0  0  0  0  0  0  0  0
   -4.1970    1.8324    0.0960 H   0  0  0  0  0  0  0  0  0  0  0  0
   -6.6549    2.2039   -1.6401 H   0  0  0  0  0  0  0  0  0  0  0  0
   -4.9309    1.9666   -2.2801 H   0  0  0  0  0  0  0  0  0  0  0  0
   -4.1904    3.7239   -0.6237 H   0  0  0  0  0  0  0  0  0  0  0  0
   -5.2727    4.3712   -1.9762 H   0  0  0  0  0  0  0  0  0  0  0  0
   -6.9416    4.8599   -0.5439 H   0  0  0  0  0  0  0  0  0  0  0  0
   -5.6526    4.8212    0.6941 H   0  0  0  0  0  0  0  0  0  0  0  0
   -7.8242    2.7577   -0.0058 H   0  0  0  0  0  0  0  0  0  0  0  0
   -7.3573    3.4754    1.5632 H   0  0  0  0  0  0  0  0  0  0  0  0
   -5.5540    2.0942    1.8798 H   0  0  0  0  0  0  0  0  0  0  0  0
   -6.7883    1.0326    1.1475 H   0  0  0  0  0  0  0  0  0  0  0  0
   -7.0310   -0.9583   -0.9734 H   0  0  0  0  0  0  0  0  0  0  0  0
   -9.2942   -4.8938   -2.1635 H   0  0  0  0  0  0  0  0  0  0  0  0
   -7.9266   -4.8558   -0.9382 H   0  0  0  0  0  0  0  0  0  0  0  0
   -7.5596   -4.5506   -2.6610 H   0  0  0  0  0  0  0  0  0  0  0  0
  1  2  1  0
  2  3  1  0
  3  4  1  0
  4  5  2  0
  5  6  1  0
  6  7  2  0
  7  8  1  0
  8  9  2  0
  7 10  1  0
  3 11  1  0
  2 12  1  0
 12 13  1  0
 13 14  1  0
 14 15  1  0
 15 16  2  0
 16 17  1  0
 17 18  2  0
 18 19  1  0
 19 20  2  0
 18 21  1  0
 21 22  2  0
 22 23  1  0
 23 24  2  0
 24 25  1  0
 25 26  2  0
 25 27  1  0
 27 28  1  0
 28 29  1  0
 29 30  1  0
 30 31  1  0
 31 32  1  0
 32 33  1  0
 24 34  1  0
 34 35  2  0
 34 36  1  0
 36 37  1  0
 37 38  2  0
 37 39  2  0
 37 40  1  0
  9  4  1  0
 20 15  1  0
 26 21  1  0
 33 28  1  0
  1 41  1  0
  1 42  1  0
  1 43  1  0
  2 44  1  1
  3 45  1  6
  5 46  1  0
  6 47  1  0
  8 48  1  0
  9 49  1  0
 10 50  1  0
 11 51  1  0
 12 52  1  0
 13 53  1  0
 13 54  1  0
 14 55  1  0
 14 56  1  0
 16 57  1  0
 17 58  1  0
 19 59  1  0
 20 60  1  0
 22 61  1  0
 23 62  1  0
 26 63  1  0
 28 64  1  0
 29 65  1  0
 29 66  1  0
 30 67  1  0
 30 68  1  0
 31 69  1  0
 31 70  1  0
 32 71  1  0
 32 72  1  0
 33 73  1  0
 33 74  1  0
 36 75  1  0
 40 76  1  0
 40 77  1  0
 40 78  1  0
M  END
>  <Ligand ID>  (1) 
LIG0002129

>  <Ligand>  (1) 
CHEMBL557253

>  <SMILES>  (1) 
C[C@@H]([C@@H](c1ccc(cc1)O)O)NCCc1ccc(cc1)c1ccc(c(c1)OC1CCCCC1)C(=O)NS(=O)(=O)C

>  <CID>  (1) 
16222840.0

>  <ChEMBL ID>  (1) 
nan

>  <InChiKey>  (1) 
PDNUKEKZGRGQLD-JRPXNJEYSA-N

>  <InChi>  (1) 
InChI=1S/C31H38N2O6S/c1-21(30(35)24-12-15-26(34)16-13-24)32-19-18-22-8-10-23(11-9-22)25-14-17-28(31(36)33-40(2,37)38)29(20-25)39-27-6-4-3-5-7-27/h8-17,20-21,27,30,32,34-35H,3-7,18-19H2,1-2H3,(H,33,36)/t21-,30-/m0/s1

>  <IUPAC Name>  (1) 
2-cyclohexyloxy-4-[4-[2-[[(1R,2S)-1-hydroxy-1-(4-hydroxyphenyl)propan-2-yl]amino]ethyl]phenyl]-N-methylsulfonylbenzamide

$$$$
