
     RDKit          3D

 49 52  0  0  0  0  0  0  0  0999 V2000
    4.3269   -2.4125   -0.3198 S   0  0  0  0  0  0  0  0  0  0  0  0
    3.4325   -1.1684    0.3052 C   0  0  0  0  0  0  0  0  0  0  0  0
    4.1678   -0.0103    0.7604 N   0  0  0  0  0  0  0  0  0  0  0  0
    5.5842    0.0694    0.6510 C   0  0  0  0  0  0  0  0  0  0  0  0
    6.0668    1.0627   -0.1999 C   0  0  0  0  0  0  0  0  0  0  0  0
    7.4289    1.2311   -0.4016 C   0  0  0  0  0  0  0  0  0  0  0  0
    8.2675    0.3876    0.2630 C   0  0  0  0  0  0  0  0  0  0  0  0
    7.8163   -0.6025    1.1097 C   0  0  0  0  0  0  0  0  0  0  0  0
    6.4501   -0.7713    1.3127 C   0  0  0  0  0  0  0  0  0  0  0  0
    5.9640   -1.7195    2.1326 F   0  0  0  0  0  0  0  0  0  0  0  0
    2.1069   -1.2228    0.3923 N   0  0  0  0  0  0  0  0  0  0  0  0
    1.0080   -1.6231    0.5197 N   0  0  0  0  0  0  0  0  0  0  0  0
   -0.1205   -0.7338    0.4449 C   0  0  0  0  0  0  0  0  0  0  0  0
   -1.3363   -0.8115    1.0901 C   0  0  0  0  0  0  0  0  0  0  0  0
   -1.6204   -1.8641    1.9655 O   0  0  0  0  0  0  0  0  0  0  0  0
   -2.1133    0.2309    0.7391 N   0  0  0  0  0  0  0  0  0  0  0  0
   -1.3719    0.9740   -0.1383 C   0  0  0  0  0  0  0  0  0  0  0  0
   -0.1393    0.3885   -0.3275 C   0  0  0  0  0  0  0  0  0  0  0  0
    0.8132    0.9474   -1.1703 C   0  0  0  0  0  0  0  0  0  0  0  0
    0.5689    2.1203   -1.8574 C   0  0  0  0  0  0  0  0  0  0  0  0
   -0.6524    2.7104   -1.6734 C   0  0  0  0  0  0  0  0  0  0  0  0
   -1.5973    2.1466   -0.8327 C   0  0  0  0  0  0  0  0  0  0  0  0
   -3.4389    0.6210    1.1289 C   0  0  0  0  0  0  0  0  0  0  0  0
   -4.5188    0.0712    0.3264 C   0  0  0  0  0  0  0  0  0  0  0  0
   -5.0228    0.8684   -0.7123 C   0  0  0  0  0  0  0  0  0  0  0  0
   -6.0385    0.4089   -1.5510 C   0  0  0  0  0  0  0  0  0  0  0  0
   -6.5972   -0.8360   -1.4062 C   0  0  0  0  0  0  0  0  0  0  0  0
   -6.1141   -1.6283   -0.3911 C   0  0  0  0  0  0  0  0  0  0  0  0
   -5.0943   -1.1673    0.4501 C   0  0  0  0  0  0  0  0  0  0  0  0
   -4.6882   -2.0793    1.5286 C   0  0  0  0  0  0  0  0  0  0  0  0
    3.6635    0.7984    1.1772 H   0  0  0  0  0  0  0  0  0  0  0  0
    5.3729    1.7189   -0.7105 H   0  0  0  0  0  0  0  0  0  0  0  0
    7.7330    2.0220   -1.0765 H   0  0  0  0  0  0  0  0  0  0  0  0
    9.3291    0.5147    0.1019 H   0  0  0  0  0  0  0  0  0  0  0  0
    8.4809   -1.2784    1.6385 H   0  0  0  0  0  0  0  0  0  0  0  0
   -1.7114   -2.8017    1.5503 H   0  0  0  0  0  0  0  0  0  0  0  0
    1.7840    0.4989   -1.3356 H   0  0  0  0  0  0  0  0  0  0  0  0
    1.2983    2.5469   -2.5029 H   0  0  0  0  0  0  0  0  0  0  0  0
   -0.8865    3.6391   -2.1977 H   0  0  0  0  0  0  0  0  0  0  0  0
   -2.5279    2.6856   -0.7391 H   0  0  0  0  0  0  0  0  0  0  0  0
   -3.5209    0.3283    2.2108 H   0  0  0  0  0  0  0  0  0  0  0  0
   -3.5192    1.7524    1.1798 H   0  0  0  0  0  0  0  0  0  0  0  0
   -4.6747    1.8565   -0.9142 H   0  0  0  0  0  0  0  0  0  0  0  0
   -6.4332    1.0233   -2.3590 H   0  0  0  0  0  0  0  0  0  0  0  0
   -7.3788   -1.2422   -2.0259 H   0  0  0  0  0  0  0  0  0  0  0  0
   -6.5312   -2.6247   -0.2438 H   0  0  0  0  0  0  0  0  0  0  0  0
   -4.0786   -2.9362    1.2203 H   0  0  0  0  0  0  0  0  0  0  0  0
   -5.6451   -2.5436    1.9178 H   0  0  0  0  0  0  0  0  0  0  0  0
   -4.2918   -1.5459    2.4183 H   0  0  0  0  0  0  0  0  0  0  0  0
  1  2  2  0
  2  3  1  0
  3  4  1  0
  4  5  2  0
  5  6  1  0
  6  7  2  0
  7  8  1  0
  8  9  2  0
  9 10  1  0
  2 11  1  0
 11 12  2  3
 12 13  1  0
 13 14  2  0
 14 15  1  0
 14 16  1  0
 16 17  1  0
 17 18  2  0
 18 19  1  0
 19 20  2  0
 20 21  1  0
 21 22  2  0
 16 23  1  0
 23 24  1  0
 24 25  2  0
 25 26  1  0
 26 27  2  0
 27 28  1  0
 28 29  2  0
 29 30  1  0
  9  4  1  0
 18 13  1  0
 29 24  1  0
 22 17  1  0
  3 31  1  0
  5 32  1  0
  6 33  1  0
  7 34  1  0
  8 35  1  0
 15 36  1  0
 19 37  1  0
 20 38  1  0
 21 39  1  0
 22 40  1  0
 23 41  1  0
 23 42  1  0
 25 43  1  0
 26 44  1  0
 27 45  1  0
 28 46  1  0
 30 47  1  0
 30 48  1  0
 30 49  1  0
M  END
>  <Ligand ID>  (1) 
LIG0003864

>  <Ligand>  (1) 
MLS000673621

>  <SMILES>  (1) 
S=C(Nc1ccccc1F)N=Nc1c(O)n(c2c1cccc2)Cc1ccccc1C

>  <CID>  (1) 
4329267.0

>  <ChEMBL ID>  (1) 
nan

>  <InChiKey>  (1) 
XSJVYXNQHHZDJN-UHFFFAOYSA-N

>  <InChi>  (1) 
InChI=1S/C23H19FN4OS/c1-15-8-2-3-9-16(15)14-28-20-13-7-4-10-17(20)21(22(28)29)26-27-23(30)25-19-12-6-5-11-18(19)24/h2-13,29H,14H2,1H3,(H,25,30)

>  <IUPAC Name>  (1) 
1-(2-fluorophenyl)-3-[2-hydroxy-1-[(2-methylphenyl)methyl]indol-3-yl]iminothiourea

$$$$
