
     RDKit          3D

 79 82  0  0  0  0  0  0  0  0999 V2000
   -7.3636    1.8166   -1.8394 N   0  0  0  0  0  0  0  0  0  0  0  0
   -7.7992    2.8800   -0.9941 C   0  0  0  0  0  0  0  0  0  0  0  0
   -7.0097    3.5759   -0.2570 N   0  0  0  0  0  0  0  0  0  0  0  0
   -5.5633    3.1847   -0.3484 C   0  0  0  0  0  0  0  0  0  0  0  0
   -5.4211    2.0526    0.5896 C   0  0  0  0  0  0  0  0  0  0  0  0
   -4.1653    1.3428    0.7501 C   0  0  0  0  0  0  0  0  0  0  0  0
   -2.9059    1.9013    1.2487 C   0  0  2  0  0  0  0  0  0  0  0  0
   -2.2594    2.9946    0.5336 C   0  0  0  0  0  0  0  0  0  0  0  0
   -2.5988    4.1985    0.5091 O   0  0  0  0  0  0  0  0  0  0  0  0
   -1.0750    2.7074   -0.2643 N   0  0  0  0  0  0  0  0  0  0  0  0
   -1.9568    0.7294    1.1734 N   0  0  0  0  0  0  0  0  0  0  0  0
   -1.4687    0.1491    2.3700 C   0  0  0  0  0  0  0  0  0  0  0  0
   -1.8004    0.5809    3.5046 O   0  0  0  0  0  0  0  0  0  0  0  0
   -0.5104   -1.0374    2.3425 C   0  0  2  0  0  0  0  0  0  0  0  0
   -0.3025   -1.2742    0.9335 N   0  0  0  0  0  0  0  0  0  0  0  0
    0.9535   -0.8253    0.3782 C   0  0  0  0  0  0  0  0  0  0  0  0
    1.7951   -0.2605    1.1602 O   0  0  0  0  0  0  0  0  0  0  0  0
    1.3288   -0.9670   -1.0183 C   0  0  1  0  0  0  0  0  0  0  0  0
    2.6476   -0.2866   -1.1138 N   0  0  0  0  0  0  0  0  0  0  0  0
    2.8519    0.8485   -1.9048 C   0  0  0  0  0  0  0  0  0  0  0  0
    1.8864    1.3057   -2.5564 O   0  0  0  0  0  0  0  0  0  0  0  0
    4.1621    1.4873   -1.9702 C   0  0  0  0  0  0  0  0  0  0  0  0
    5.2608    1.0406   -1.2701 C   0  0  0  0  0  0  0  0  0  0  0  0
    6.5011    1.6522   -1.3374 C   0  0  0  0  0  0  0  0  0  0  0  0
    6.6668    2.7636   -2.1388 C   0  0  0  0  0  0  0  0  0  0  0  0
    5.5795    3.2418   -2.8599 C   0  0  0  0  0  0  0  0  0  0  0  0
    4.3459    2.6110   -2.7752 C   0  0  0  0  0  0  0  0  0  0  0  0
    6.0295    4.3661   -3.5787 O   0  0  0  0  0  0  0  0  0  0  0  0
    7.2680    4.7610   -2.9959 C   0  0  0  0  0  0  0  0  0  0  0  0
    7.7856    3.5719   -2.3966 O   0  0  0  0  0  0  0  0  0  0  0  0
    1.5736   -2.3344   -1.5492 C   0  0  0  0  0  0  0  0  0  0  0  0
    2.6871   -3.0250   -0.8544 C   0  0  0  0  0  0  0  0  0  0  0  0
    3.9749   -2.9590   -1.2418 N   0  0  0  0  0  0  0  0  0  0  0  0
    4.7601   -3.6790   -0.4329 C   0  0  0  0  0  0  0  0  0  0  0  0
    3.9496   -4.2305    0.5122 N   0  0  0  0  0  0  0  0  0  0  0  0
    2.6824   -3.8323    0.2572 C   0  0  0  0  0  0  0  0  0  0  0  0
   -1.2403   -2.1189    3.0633 C   0  0  0  0  0  0  0  0  0  0  0  0
   -0.5297   -3.3966    3.1803 C   0  0  0  0  0  0  0  0  0  0  0  0
   -0.6402   -4.4433    2.2922 C   0  0  0  0  0  0  0  0  0  0  0  0
    0.0546   -5.6234    2.4738 C   0  0  0  0  0  0  0  0  0  0  0  0
    0.8899   -5.7960    3.5580 C   0  0  0  0  0  0  0  0  0  0  0  0
    1.0169   -4.7538    4.4661 C   0  0  0  0  0  0  0  0  0  0  0  0
    0.3152   -3.5687    4.2785 C   0  0  0  0  0  0  0  0  0  0  0  0
   -9.2107    3.1407   -1.0062 N   0  0  0  0  0  0  0  0  0  0  0  0
   -6.7835    1.9671   -2.7017 H   0  0  0  0  0  0  0  0  0  0  0  0
   -7.6106    0.8129   -1.6312 H   0  0  0  0  0  0  0  0  0  0  0  0
   -5.3456    2.9255   -1.4000 H   0  0  0  0  0  0  0  0  0  0  0  0
   -4.9845    4.0973   -0.1337 H   0  0  0  0  0  0  0  0  0  0  0  0
   -6.1999    1.2790    0.2486 H   0  0  0  0  0  0  0  0  0  0  0  0
   -5.8298    2.3167    1.6190 H   0  0  0  0  0  0  0  0  0  0  0  0
   -4.4004    0.4614    1.4751 H   0  0  0  0  0  0  0  0  0  0  0  0
   -3.9278    0.7194   -0.1891 H   0  0  0  0  0  0  0  0  0  0  0  0
   -2.9818    2.0932    2.3534 H   0  0  0  0  0  0  0  0  0  0  0  0
   -1.1695    2.2897   -1.2178 H   0  0  0  0  0  0  0  0  0  0  0  0
   -0.1472    2.9401    0.1656 H   0  0  0  0  0  0  0  0  0  0  0  0
   -1.6755    0.3665    0.2379 H   0  0  0  0  0  0  0  0  0  0  0  0
    0.4414   -0.7199    2.8304 H   0  0  0  0  0  0  0  0  0  0  0  0
   -0.9916   -1.7409    0.3106 H   0  0  0  0  0  0  0  0  0  0  0  0
    0.6279   -0.3945   -1.6521 H   0  0  0  0  0  0  0  0  0  0  0  0
    3.3887   -0.7471   -0.5330 H   0  0  0  0  0  0  0  0  0  0  0  0
    5.1815    0.1790   -0.6323 H   0  0  0  0  0  0  0  0  0  0  0  0
    7.3284    1.2312   -0.7455 H   0  0  0  0  0  0  0  0  0  0  0  0
    3.5438    3.0362   -3.3621 H   0  0  0  0  0  0  0  0  0  0  0  0
    7.9583    5.1782   -3.7349 H   0  0  0  0  0  0  0  0  0  0  0  0
    7.0210    5.4487   -2.1652 H   0  0  0  0  0  0  0  0  0  0  0  0
    1.8480   -2.2511   -2.6176 H   0  0  0  0  0  0  0  0  0  0  0  0
    0.7182   -3.0174   -1.5011 H   0  0  0  0  0  0  0  0  0  0  0  0
    4.3156   -2.4137   -2.0707 H   0  0  0  0  0  0  0  0  0  0  0  0
    5.8248   -3.7721   -0.5523 H   0  0  0  0  0  0  0  0  0  0  0  0
    1.7998   -4.0796    0.8013 H   0  0  0  0  0  0  0  0  0  0  0  0
   -2.2355   -2.3437    2.5952 H   0  0  0  0  0  0  0  0  0  0  0  0
   -1.5273   -1.7039    4.0715 H   0  0  0  0  0  0  0  0  0  0  0  0
   -1.2975   -4.3296    1.4236 H   0  0  0  0  0  0  0  0  0  0  0  0
   -0.0834   -6.4012    1.7340 H   0  0  0  0  0  0  0  0  0  0  0  0
    1.4397   -6.7356    3.6966 H   0  0  0  0  0  0  0  0  0  0  0  0
    1.6651   -4.8647    5.3239 H   0  0  0  0  0  0  0  0  0  0  0  0
    0.4362   -2.7735    5.0060 H   0  0  0  0  0  0  0  0  0  0  0  0
   -9.5868    4.0763   -1.2199 H   0  0  0  0  0  0  0  0  0  0  0  0
   -9.9063    2.3781   -0.7962 H   0  0  0  0  0  0  0  0  0  0  0  0
  1  2  1  0
  2  3  2  3
  3  4  1  0
  4  5  1  0
  5  6  1  0
  6  7  1  0
  7  8  1  0
  8  9  2  0
  8 10  1  0
  7 11  1  0
 11 12  1  0
 12 13  2  0
 12 14  1  0
 14 15  1  0
 15 16  1  0
 16 17  2  0
 16 18  1  0
 18 19  1  0
 19 20  1  0
 20 21  2  0
 20 22  1  0
 22 23  2  0
 23 24  1  0
 24 25  2  0
 25 26  1  0
 26 27  2  0
 26 28  1  0
 28 29  1  0
 29 30  1  0
 18 31  1  0
 31 32  1  0
 32 33  1  0
 33 34  1  0
 34 35  2  0
 35 36  1  0
 14 37  1  0
 37 38  1  0
 38 39  2  0
 39 40  1  0
 40 41  2  0
 41 42  1  0
 42 43  2  0
  2 44  1  0
 27 22  1  0
 36 32  2  0
 43 38  1  0
 30 25  1  0
  1 45  1  0
  1 46  1  0
  4 47  1  0
  4 48  1  0
  5 49  1  0
  5 50  1  0
  6 51  1  0
  6 52  1  0
  7 53  1  1
 10 54  1  0
 10 55  1  0
 11 56  1  0
 14 57  1  1
 15 58  1  0
 18 59  1  6
 19 60  1  0
 23 61  1  0
 24 62  1  0
 27 63  1  0
 29 64  1  0
 29 65  1  0
 31 66  1  0
 31 67  1  0
 33 68  1  0
 34 69  1  0
 36 70  1  0
 37 71  1  0
 37 72  1  0
 39 73  1  0
 40 74  1  0
 41 75  1  0
 42 76  1  0
 43 77  1  0
 44 78  1  0
 44 79  1  0
M  END
>  <Ligand ID>  (1) 
LIG0003255

>  <Ligand>  (1) 
CHEMBL569086

>  <SMILES>  (1) 
NC(=NCCC[C@H](C(=O)N)NC(=O)[C@H](NC(=O)[C@@H](NC(=O)c1ccc2c(c1)OCO2)Cc1[nH]cnc1)Cc1ccccc1)N

>  <CID>  (1) 
45487300.0

>  <ChEMBL ID>  (1) 
nan

>  <InChiKey>  (1) 
HTPHOYZWPBUSID-VSKRKVRLSA-N

>  <InChi>  (1) 
InChI=1S/C29H35N9O6/c30-25(39)20(7-4-10-34-29(31)32)36-27(41)21(11-17-5-2-1-3-6-17)38-28(42)22(13-19-14-33-15-35-19)37-26(40)18-8-9-23-24(12-18)44-16-43-23/h1-3,5-6,8-9,12,14-15,20-22H,4,7,10-11,13,16H2,(H2,30,39)(H,33,35)(H,36,41)(H,37,40)(H,38,42)(H4,31,32,34)/t20-,21-,22+/m1/s1

>  <IUPAC Name>  (1) 
N-[(2S)-1-[[(2R)-1-[[(2R)-1-amino-5-(diaminomethylideneamino)-1-oxopentan-2-yl]amino]-1-oxo-3-phenylpropan-2-yl]amino]-3-(1H-imidazol-5-yl)-1-oxopropan-2-yl]-1,3-benzodioxole-5-carboxamide

$$$$
