
     RDKit          3D

 32 34  0  0  0  0  0  0  0  0999 V2000
   -0.3553   -2.8954    0.2083 C   0  0  0  0  0  0  0  0  0  0  0  0
   -0.9704   -1.5631    0.1504 C   0  0  0  0  0  0  0  0  0  0  0  0
   -2.3208   -1.3882    0.1184 N   0  0  0  0  0  0  0  0  0  0  0  0
   -2.6341   -0.0958    0.0782 C   0  0  0  0  0  0  0  0  0  0  0  0
   -1.4203    0.5983    0.0842 C   0  0  0  0  0  0  0  0  0  0  0  0
   -0.3644   -0.2975    0.1307 C   0  0  0  0  0  0  0  0  0  0  0  0
    1.0811   -0.0154    0.0947 C   0  0  0  0  0  0  0  0  0  0  0  0
    1.6197    1.1460    0.3705 C   0  0  0  0  0  0  0  0  0  0  0  0
    3.0935    1.4324    0.3248 C   0  0  0  0  0  0  0  0  0  0  0  0
    3.6771    0.5991   -0.7107 N   0  0  0  0  0  0  0  0  0  0  0  0
    3.4006   -0.7486   -0.3253 C   0  0  0  0  0  0  0  0  0  0  0  0
    1.9510   -1.1330   -0.3006 C   0  0  0  0  0  0  0  0  0  0  0  0
   -1.5484    1.9700    0.0207 C   0  0  0  0  0  0  0  0  0  0  0  0
   -2.7898    2.6047   -0.0396 C   0  0  0  0  0  0  0  0  0  0  0  0
   -3.9475    1.8949   -0.0401 C   0  0  0  0  0  0  0  0  0  0  0  0
   -3.8522    0.5180    0.0200 C   0  0  0  0  0  0  0  0  0  0  0  0
   -1.2025   -3.6590    0.1414 H   0  0  0  0  0  0  0  0  0  0  0  0
    0.0584   -3.1024    1.2289 H   0  0  0  0  0  0  0  0  0  0  0  0
    0.2798   -3.1879   -0.6255 H   0  0  0  0  0  0  0  0  0  0  0  0
   -3.0649   -2.1463    0.1235 H   0  0  0  0  0  0  0  0  0  0  0  0
    1.0237    1.9711    0.7012 H   0  0  0  0  0  0  0  0  0  0  0  0
    3.2099    2.4731   -0.0121 H   0  0  0  0  0  0  0  0  0  0  0  0
    3.5678    1.2699    1.2908 H   0  0  0  0  0  0  0  0  0  0  0  0
    3.3202    0.8662   -1.6395 H   0  0  0  0  0  0  0  0  0  0  0  0
    3.9250   -1.3912   -1.0709 H   0  0  0  0  0  0  0  0  0  0  0  0
    3.8821   -0.9020    0.6815 H   0  0  0  0  0  0  0  0  0  0  0  0
    1.7309   -1.5114   -1.3228 H   0  0  0  0  0  0  0  0  0  0  0  0
    1.9014   -1.9404    0.4880 H   0  0  0  0  0  0  0  0  0  0  0  0
   -0.7056    2.6002   -0.0142 H   0  0  0  0  0  0  0  0  0  0  0  0
   -2.8432    3.6893   -0.0874 H   0  0  0  0  0  0  0  0  0  0  0  0
   -4.9092    2.3700   -0.0851 H   0  0  0  0  0  0  0  0  0  0  0  0
   -4.7937   -0.0257    0.0175 H   0  0  0  0  0  0  0  0  0  0  0  0
  1  2  1  0
  2  3  1  0
  3  4  1  0
  4  5  2  0
  5  6  1  0
  6  7  1  0
  7  8  2  0
  8  9  1  0
  9 10  1  0
 10 11  1  0
 11 12  1  0
  5 13  1  0
 13 14  2  0
 14 15  1  0
 15 16  2  0
  6  2  2  0
 12  7  1  0
 16  4  1  0
  1 17  1  0
  1 18  1  0
  1 19  1  0
  3 20  1  0
  8 21  1  0
  9 22  1  0
  9 23  1  0
 10 24  1  0
 11 25  1  0
 11 26  1  0
 12 27  1  0
 12 28  1  0
 13 29  1  0
 14 30  1  0
 15 31  1  0
 16 32  1  0
M  END
>  <Ligand ID>  (1) 
LIG0001707

>  <Ligand>  (1) 
2-methyl-3-(1,2,3,6-tetrahydropyridin-4-yl)-1H-indole

>  <SMILES>  (1) 
Cc1[nH]c2c(c1C1=CCNCC1)cccc2

>  <CID>  (1) 
3245407.0

>  <ChEMBL ID>  (1) 
nan

>  <InChiKey>  (1) 
JLVLNPGKFHWCCQ-UHFFFAOYSA-N

>  <InChi>  (1) 
InChI=1S/C14H16N2/c1-10-14(11-6-8-15-9-7-11)12-4-2-3-5-13(12)16-10/h2-6,15-16H,7-9H2,1H3

>  <IUPAC Name>  (1) 
2-methyl-3-(1,2,3,6-tetrahydropyridin-4-yl)-1H-indole

$$$$
