
     RDKit          3D

 51 53  0  0  0  0  0  0  0  0999 V2000
    6.9108    3.8317    1.2330 Cl  0  0  0  0  0  0  0  0  0  0  0  0
    6.8652    2.1656    0.6922 C   0  0  0  0  0  0  0  0  0  0  0  0
    7.9961    1.3818    0.5999 C   0  0  0  0  0  0  0  0  0  0  0  0
    7.9021    0.0655    0.1615 C   0  0  0  0  0  0  0  0  0  0  0  0
    6.6804   -0.4989   -0.1950 C   0  0  0  0  0  0  0  0  0  0  0  0
    5.5537    0.2789   -0.1038 C   0  0  0  0  0  0  0  0  0  0  0  0
    5.6709    1.5868    0.3356 C   0  0  0  0  0  0  0  0  0  0  0  0
    4.1814   -0.2779   -0.4867 C   0  0  2  0  0  0  0  0  0  0  0  0
    3.8118   -1.1887    0.6179 C   0  0  0  0  0  0  0  0  0  0  0  0
    2.6601   -1.9580    0.5975 N   0  0  0  0  0  0  0  0  0  0  0  0
    1.4059   -1.3848    0.7779 C   0  0  0  0  0  0  0  0  0  0  0  0
    0.9291   -0.5192   -0.3269 C   0  0  0  0  0  0  0  0  0  0  0  0
   -0.4777    0.0093   -0.0073 C   0  0  0  0  0  0  0  0  0  0  0  0
   -0.5846    1.1838    0.7552 C   0  0  0  0  0  0  0  0  0  0  0  0
   -1.8228    1.7112    1.0499 C   0  0  0  0  0  0  0  0  0  0  0  0
   -2.9439    1.0592    0.5789 C   0  0  0  0  0  0  0  0  0  0  0  0
   -2.8387   -0.1025   -0.1757 C   0  0  0  0  0  0  0  0  0  0  0  0
   -1.5889   -0.6418   -0.4777 C   0  0  0  0  0  0  0  0  0  0  0  0
   -4.1719    1.6301    0.9031 O   0  0  0  0  0  0  0  0  0  0  0  0
   -5.2883    1.0752    0.2781 C   0  0  0  0  0  0  0  0  0  0  0  0
   -5.6706    1.7100   -0.9077 C   0  0  0  0  0  0  0  0  0  0  0  0
   -6.7566    1.2829   -1.6509 C   0  0  0  0  0  0  0  0  0  0  0  0
   -7.4548    0.1956   -1.1738 C   0  0  0  0  0  0  0  0  0  0  0  0
   -7.0743   -0.4235   -0.0098 C   0  0  0  0  0  0  0  0  0  0  0  0
   -5.9786    0.0025    0.7468 C   0  0  0  0  0  0  0  0  0  0  0  0
   -7.8573   -1.5732    0.4265 C   0  0  0  0  0  0  0  0  0  0  0  0
   -8.8195   -1.9453   -0.2623 O   0  0  0  0  0  0  0  0  0  0  0  0
   -7.5025   -2.2318    1.6166 O   0  0  0  0  0  0  0  0  0  0  0  0
    4.3259   -0.9631   -1.7069 O   0  0  0  0  0  0  0  0  0  0  0  0
    8.9692    1.8223    0.8788 H   0  0  0  0  0  0  0  0  0  0  0  0
    8.7785   -0.5597    0.0822 H   0  0  0  0  0  0  0  0  0  0  0  0
    6.6350   -1.5355   -0.5344 H   0  0  0  0  0  0  0  0  0  0  0  0
    4.7772    2.2086    0.4095 H   0  0  0  0  0  0  0  0  0  0  0  0
    3.6013    0.6062   -0.6950 H   0  0  0  0  0  0  0  0  0  0  0  0
    4.6933   -1.9275    0.6968 H   0  0  0  0  0  0  0  0  0  0  0  0
    3.9186   -0.6139    1.6119 H   0  0  0  0  0  0  0  0  0  0  0  0
    2.6878   -2.8680    0.1136 H   0  0  0  0  0  0  0  0  0  0  0  0
    0.6156   -2.1696    1.0128 H   0  0  0  0  0  0  0  0  0  0  0  0
    1.3935   -0.7703    1.7325 H   0  0  0  0  0  0  0  0  0  0  0  0
    1.4914    0.4277   -0.4167 H   0  0  0  0  0  0  0  0  0  0  0  0
    0.8101   -1.0646   -1.2820 H   0  0  0  0  0  0  0  0  0  0  0  0
    0.3077    1.6662    1.1038 H   0  0  0  0  0  0  0  0  0  0  0  0
   -1.9233    2.6225    1.6436 H   0  0  0  0  0  0  0  0  0  0  0  0
   -3.7427   -0.5932   -0.5305 H   0  0  0  0  0  0  0  0  0  0  0  0
   -1.4937   -1.5543   -1.0668 H   0  0  0  0  0  0  0  0  0  0  0  0
   -5.1134    2.5743   -1.2860 H   0  0  0  0  0  0  0  0  0  0  0  0
   -7.0051    1.8126   -2.5601 H   0  0  0  0  0  0  0  0  0  0  0  0
   -8.3036   -0.1272   -1.7672 H   0  0  0  0  0  0  0  0  0  0  0  0
   -5.6726   -0.4741    1.6543 H   0  0  0  0  0  0  0  0  0  0  0  0
   -8.0256   -3.0249    1.9570 H   0  0  0  0  0  0  0  0  0  0  0  0
    4.5384   -1.9192   -1.5537 H   0  0  0  0  0  0  0  0  0  0  0  0
  1  2  1  0
  2  3  2  0
  3  4  1  0
  4  5  2  0
  5  6  1  0
  6  7  2  0
  6  8  1  0
  8  9  1  0
  9 10  1  0
 10 11  1  0
 11 12  1  0
 12 13  1  0
 13 14  2  0
 14 15  1  0
 15 16  2  0
 16 17  1  0
 17 18  2  0
 16 19  1  0
 19 20  1  0
 20 21  2  0
 21 22  1  0
 22 23  2  0
 23 24  1  0
 24 25  2  0
 24 26  1  0
 26 27  2  0
 26 28  1  0
  8 29  1  0
  7  2  1  0
 18 13  1  0
 25 20  1  0
  3 30  1  0
  4 31  1  0
  5 32  1  0
  7 33  1  0
  8 34  1  6
  9 35  1  0
  9 36  1  0
 10 37  1  0
 11 38  1  0
 11 39  1  0
 12 40  1  0
 12 41  1  0
 14 42  1  0
 15 43  1  0
 17 44  1  0
 18 45  1  0
 21 46  1  0
 22 47  1  0
 23 48  1  0
 25 49  1  0
 28 50  1  0
 29 51  1  0
M  END
>  <Ligand ID>  (1) 
LIG0005833

>  <Ligand>  (1) 
CHEMBL409828

>  <SMILES>  (1) 
Clc1cccc(c1)[C@H](CNCCc1ccc(cc1)Oc1cccc(c1)C(=O)O)O

>  <CID>  (1) 
24824352.0

>  <ChEMBL ID>  (1) 
nan

>  <InChiKey>  (1) 
LSLUBIPGYQOBQJ-QFIPXVFZSA-N

>  <InChi>  (1) 
InChI=1S/C23H22ClNO4/c24-19-5-1-3-17(13-19)22(26)15-25-12-11-16-7-9-20(10-8-16)29-21-6-2-4-18(14-21)23(27)28/h1-10,13-14,22,25-26H,11-12,15H2,(H,27,28)/t22-/m0/s1

>  <IUPAC Name>  (1) 
3-[4-[2-[[(2R)-2-(3-chlorophenyl)-2-hydroxyethyl]amino]ethyl]phenoxy]benzoic acid

$$$$
