
     RDKit          3D

 52 54  0  0  0  0  0  0  0  0999 V2000
   -4.9751   -1.7159   -1.7019 O   0  0  0  0  0  0  0  0  0  0  0  0
   -4.9896   -0.3304   -1.5646 C   0  0  0  0  0  0  0  0  0  0  0  0
   -4.3397    0.1736   -0.3226 C   0  0  0  0  0  0  0  0  0  0  0  0
   -5.0852   -0.2456    0.9316 C   0  0  0  0  0  0  0  0  0  0  0  0
   -6.4007    0.1893    0.7993 O   0  0  0  0  0  0  0  0  0  0  0  0
   -7.2361   -0.2785    2.1991 P   0  0  0  0  0  0  0  0  0  0  0  0
   -6.9867   -1.7813    2.3465 O   0  0  0  0  0  0  0  0  0  0  0  0
   -6.6045    0.4975    3.5572 O   0  0  0  0  0  0  0  0  0  0  0  0
   -8.8803    0.0183    2.0764 O   0  0  0  0  0  0  0  0  0  0  0  0
   -2.8781   -0.1646   -0.2356 C   0  0  0  0  0  0  0  0  0  0  0  0
   -2.1358    0.4311   -1.3863 C   0  0  0  0  0  0  0  0  0  0  0  0
   -0.6609    0.1138   -1.3133 C   0  0  0  0  0  0  0  0  0  0  0  0
   -0.1780   -1.0297   -1.9163 C   0  0  0  0  0  0  0  0  0  0  0  0
    1.1841   -1.2565   -1.8087 C   0  0  0  0  0  0  0  0  0  0  0  0
    2.0232   -0.3914   -1.1364 C   0  0  0  0  0  0  0  0  0  0  0  0
    1.4996    0.7416   -0.5470 C   0  0  0  0  0  0  0  0  0  0  0  0
    0.1407    1.0065   -0.6311 C   0  0  0  0  0  0  0  0  0  0  0  0
    3.4593   -0.6163   -1.0142 C   0  0  0  0  0  0  0  0  0  0  0  0
    4.1481   -1.6905   -1.5377 C   0  0  0  0  0  0  0  0  0  0  0  0
    5.4210   -1.5770   -1.2403 O   0  0  0  0  0  0  0  0  0  0  0  0
    5.6069   -0.4663   -0.5374 C   0  0  0  0  0  0  0  0  0  0  0  0
    4.3918    0.1364   -0.3927 N   0  0  0  0  0  0  0  0  0  0  0  0
    6.8574    0.0260   -0.0157 C   0  0  0  0  0  0  0  0  0  0  0  0
    6.9036    1.2034    0.7013 C   0  0  0  0  0  0  0  0  0  0  0  0
    8.0657    1.7278    1.2267 C   0  0  0  0  0  0  0  0  0  0  0  0
    9.2245    0.9813    0.9866 C   0  0  0  0  0  0  0  0  0  0  0  0
    9.1991   -0.1959    0.2735 C   0  0  0  0  0  0  0  0  0  0  0  0
    8.0168   -0.6883   -0.2363 C   0  0  0  0  0  0  0  0  0  0  0  0
   10.3667    1.5084    1.5099 F   0  0  0  0  0  0  0  0  0  0  0  0
   -4.4442    1.6387   -0.3630 N   0  0  0  0  0  0  0  0  0  0  0  0
   -4.5285   -2.1979   -0.9806 H   0  0  0  0  0  0  0  0  0  0  0  0
   -4.5423    0.1771   -2.4395 H   0  0  0  0  0  0  0  0  0  0  0  0
   -6.0593   -0.0177   -1.5570 H   0  0  0  0  0  0  0  0  0  0  0  0
   -4.5657    0.2630    1.7746 H   0  0  0  0  0  0  0  0  0  0  0  0
   -5.0039   -1.3384    1.0739 H   0  0  0  0  0  0  0  0  0  0  0  0
   -6.2610    1.4050    3.3489 H   0  0  0  0  0  0  0  0  0  0  0  0
   -9.1026    0.4324    1.2027 H   0  0  0  0  0  0  0  0  0  0  0  0
   -2.8266   -1.2931   -0.2566 H   0  0  0  0  0  0  0  0  0  0  0  0
   -2.4680    0.1249    0.7486 H   0  0  0  0  0  0  0  0  0  0  0  0
   -2.3194    1.5188   -1.4743 H   0  0  0  0  0  0  0  0  0  0  0  0
   -2.5519   -0.0296   -2.3300 H   0  0  0  0  0  0  0  0  0  0  0  0
   -0.8108   -1.7258   -2.4496 H   0  0  0  0  0  0  0  0  0  0  0  0
    1.6637   -2.1387   -2.2548 H   0  0  0  0  0  0  0  0  0  0  0  0
    2.1507    1.4455   -0.0058 H   0  0  0  0  0  0  0  0  0  0  0  0
   -0.2051    1.8970   -0.1560 H   0  0  0  0  0  0  0  0  0  0  0  0
    3.6699   -2.4788   -2.0989 H   0  0  0  0  0  0  0  0  0  0  0  0
    5.9979    1.7863    0.8885 H   0  0  0  0  0  0  0  0  0  0  0  0
    8.0599    2.6418    1.7756 H   0  0  0  0  0  0  0  0  0  0  0  0
   10.1266   -0.7446    0.1106 H   0  0  0  0  0  0  0  0  0  0  0  0
    8.0643   -1.6086   -0.7815 H   0  0  0  0  0  0  0  0  0  0  0  0
   -5.4234    1.8911   -0.1505 H   0  0  0  0  0  0  0  0  0  0  0  0
   -3.7783    2.0249    0.3278 H   0  0  0  0  0  0  0  0  0  0  0  0
  1  2  1  0
  2  3  1  0
  3  4  1  0
  4  5  1  0
  5  6  1  0
  6  7  2  0
  6  8  1  0
  6  9  1  0
  3 10  1  0
 10 11  1  0
 11 12  1  0
 12 13  2  0
 13 14  1  0
 14 15  2  0
 15 16  1  0
 16 17  2  0
 15 18  1  0
 18 19  2  0
 19 20  1  0
 20 21  1  0
 21 22  2  0
 21 23  1  0
 23 24  2  0
 24 25  1  0
 25 26  2  0
 26 27  1  0
 27 28  2  0
 26 29  1  0
  3 30  1  0
 17 12  1  0
 22 18  1  0
 28 23  1  0
  1 31  1  0
  2 32  1  0
  2 33  1  0
  4 34  1  0
  4 35  1  0
  8 36  1  0
  9 37  1  0
 10 38  1  0
 10 39  1  0
 11 40  1  0
 11 41  1  0
 13 42  1  0
 14 43  1  0
 16 44  1  0
 17 45  1  0
 19 46  1  0
 24 47  1  0
 25 48  1  0
 27 49  1  0
 28 50  1  0
 30 51  1  0
 30 52  1  0
M  END
>  <Ligand ID>  (1) 
LIG0005923

>  <Ligand>  (1) 
CHEMBL3341919

>  <SMILES>  (1) 
OCC(COP(=O)(O)O)(CCc1ccc(cc1)c1coc(n1)c1ccc(cc1)F)N

>  <CID>  (1) 
118716141.0

>  <ChEMBL ID>  (1) 
nan

>  <InChiKey>  (1) 
QQZRHZRWMMJCAU-UHFFFAOYSA-N

>  <InChi>  (1) 
InChI=1S/C20H22FN2O6P/c21-17-7-5-16(6-8-17)19-23-18(11-28-19)15-3-1-14(2-4-15)9-10-20(22,12-24)13-29-30(25,26)27/h1-8,11,24H,9-10,12-13,22H2,(H2,25,26,27)

>  <IUPAC Name>  (1) 
[2-amino-4-[4-[2-(4-fluorophenyl)-1,3-oxazol-4-yl]phenyl]-2-(hydroxymethyl)butyl] dihydrogen phosphate

$$$$
