
     RDKit          3D

111115  0  0  0  0  0  0  0  0999 V2000
    1.8652   -3.2378   -2.2664 O   0  0  0  0  0  0  0  0  0  0  0  0
    2.6509   -2.2684   -2.1761 C   0  0  0  0  0  0  0  0  0  0  0  0
    2.3938   -1.3004   -1.1825 N   0  0  0  0  0  0  0  0  0  0  0  0
    1.2258   -1.4190   -0.2675 C   0  0  2  0  0  0  0  0  0  0  0  0
    0.0719   -0.8444   -0.9675 C   0  0  0  0  0  0  0  0  0  0  0  0
    0.2387   -0.2757   -2.0649 O   0  0  0  0  0  0  0  0  0  0  0  0
   -1.2730   -0.8963   -0.4765 N   0  0  0  0  0  0  0  0  0  0  0  0
   -2.2835   -0.3067   -1.3003 C   0  0  0  0  0  0  0  0  0  0  0  0
   -3.5935   -0.3892   -0.6795 C   0  0  0  0  0  0  0  0  0  0  0  0
   -4.5916    0.0265   -1.3723 O   0  0  0  0  0  0  0  0  0  0  0  0
   -3.9103   -0.8713    0.6053 N   0  0  0  0  0  0  0  0  0  0  0  0
   -5.2701   -0.9373    1.1376 C   0  0  2  0  0  0  0  0  0  0  0  0
   -5.7156    0.3931    1.6640 C   0  0  0  0  0  0  0  0  0  0  0  0
   -6.8367    0.5104    2.2016 O   0  0  0  0  0  0  0  0  0  0  0  0
   -4.8940    1.4697    1.5495 O   0  0  0  0  0  0  0  0  0  0  0  0
   -5.1071    2.7886    1.9497 C   0  0  0  0  0  0  0  0  0  0  0  0
   -6.3010    3.3264    1.2292 C   0  0  0  0  0  0  0  0  0  0  0  0
   -7.5691    3.3398    1.7993 C   0  0  0  0  0  0  0  0  0  0  0  0
   -8.6454    3.8345    1.0475 C   0  0  0  0  0  0  0  0  0  0  0  0
   -8.4761    4.3039   -0.2360 C   0  0  0  0  0  0  0  0  0  0  0  0
   -7.2279    4.2903   -0.7966 C   0  0  0  0  0  0  0  0  0  0  0  0
   -6.1531    3.8084   -0.0737 C   0  0  0  0  0  0  0  0  0  0  0  0
   -7.0969    4.8077   -2.1870 C   0  0  0  0  0  0  0  0  0  0  0  0
   -8.2949    4.6102   -2.8639 F   0  0  0  0  0  0  0  0  0  0  0  0
   -6.7024    6.1149   -2.1866 F   0  0  0  0  0  0  0  0  0  0  0  0
   -6.1583    4.0599   -2.8722 F   0  0  0  0  0  0  0  0  0  0  0  0
  -10.0042    3.8335    1.7005 C   0  0  0  0  0  0  0  0  0  0  0  0
  -10.9605    3.8005    0.6959 F   0  0  0  0  0  0  0  0  0  0  0  0
  -10.1096    2.7656    2.5361 F   0  0  0  0  0  0  0  0  0  0  0  0
  -10.1285    5.0596    2.3591 F   0  0  0  0  0  0  0  0  0  0  0  0
   -5.4280   -2.0526    2.0999 C   0  0  0  0  0  0  0  0  0  0  0  0
   -5.1205   -3.3232    1.4051 C   0  0  0  0  0  0  0  0  0  0  0  0
   -3.9241   -3.9992    1.5834 C   0  0  0  0  0  0  0  0  0  0  0  0
   -3.9728   -5.1036    0.8112 N   0  0  0  0  0  0  0  0  0  0  0  0
   -5.1421   -5.1496    0.1586 C   0  0  0  0  0  0  0  0  0  0  0  0
   -5.8809   -4.0316    0.5221 C   0  0  0  0  0  0  0  0  0  0  0  0
   -7.1530   -3.7910    0.0096 C   0  0  0  0  0  0  0  0  0  0  0  0
   -7.7155   -4.6811   -0.8896 C   0  0  0  0  0  0  0  0  0  0  0  0
   -6.9737   -5.7866   -1.2421 C   0  0  0  0  0  0  0  0  0  0  0  0
   -5.7009   -6.0304   -0.7324 C   0  0  0  0  0  0  0  0  0  0  0  0
    1.5888   -0.8521    1.0546 C   0  0  0  0  0  0  0  0  0  0  0  0
    0.5246   -0.8653    2.0712 C   0  0  0  0  0  0  0  0  0  0  0  0
    0.2279   -1.9316    2.8722 C   0  0  0  0  0  0  0  0  0  0  0  0
   -0.7779   -1.9037    3.8443 C   0  0  0  0  0  0  0  0  0  0  0  0
   -1.4742   -0.7020    3.9526 C   0  0  0  0  0  0  0  0  0  0  0  0
   -1.1980    0.3900    3.1610 C   0  0  0  0  0  0  0  0  0  0  0  0
   -0.1994    0.3348    2.2093 C   0  0  0  0  0  0  0  0  0  0  0  0
   -2.7443   -0.6725    5.1785 Cl  0  0  0  0  0  0  0  0  0  0  0  0
    3.8068   -2.1931   -3.1190 C   0  0  0  0  0  0  0  0  0  0  0  0
    4.5872   -1.0058   -2.8603 N   0  0  0  0  0  0  0  0  0  0  0  0
    4.1046    0.3217   -3.0019 C   0  0  0  0  0  0  0  0  0  0  0  0
    2.9073    0.5620   -3.4124 O   0  0  0  0  0  0  0  0  0  0  0  0
    4.9036    1.5293   -2.6926 C   0  0  2  0  0  0  0  0  0  0  0  0
    6.2592    1.2613   -2.2904 N   0  0  0  0  0  0  0  0  0  0  0  0
    7.3827    2.0462   -2.5822 C   0  0  0  0  0  0  0  0  0  0  0  0
    7.1868    3.1179   -3.2559 O   0  0  0  0  0  0  0  0  0  0  0  0
    8.7778    1.7494   -2.1814 C   0  0  2  0  0  0  0  0  0  0  0  0
    8.7695    0.9097   -0.9309 C   0  0  0  0  0  0  0  0  0  0  0  0
   10.1650    0.5803   -0.4684 C   0  0  0  0  0  0  0  0  0  0  0  0
   10.7718   -0.5182   -1.0253 C   0  0  0  0  0  0  0  0  0  0  0  0
   12.0524   -0.9364   -0.6753 C   0  0  0  0  0  0  0  0  0  0  0  0
   12.7073   -0.1677    0.2935 C   0  0  0  0  0  0  0  0  0  0  0  0
   12.0827    0.9426    0.8516 C   0  0  0  0  0  0  0  0  0  0  0  0
   10.8127    1.3420    0.4925 C   0  0  0  0  0  0  0  0  0  0  0  0
   14.0062   -0.5424    0.6886 O   0  0  0  0  0  0  0  0  0  0  0  0
    9.5487    2.9457   -2.1105 N   0  0  0  0  0  0  0  0  0  0  0  0
    4.1853    2.3628   -1.6160 C   0  0  0  0  0  0  0  0  0  0  0  0
    2.9837   -0.4776   -1.0008 H   0  0  0  0  0  0  0  0  0  0  0  0
    1.0711   -2.5275   -0.2051 H   0  0  0  0  0  0  0  0  0  0  0  0
   -1.4142   -1.3707    0.4188 H   0  0  0  0  0  0  0  0  0  0  0  0
   -2.0140    0.7873   -1.3789 H   0  0  0  0  0  0  0  0  0  0  0  0
   -2.2526   -0.6704   -2.3493 H   0  0  0  0  0  0  0  0  0  0  0  0
   -3.1654   -1.1996    1.2336 H   0  0  0  0  0  0  0  0  0  0  0  0
   -5.9464   -1.1114    0.2490 H   0  0  0  0  0  0  0  0  0  0  0  0
   -4.2162    3.3791    1.6555 H   0  0  0  0  0  0  0  0  0  0  0  0
   -5.2260    2.9322    3.0424 H   0  0  0  0  0  0  0  0  0  0  0  0
   -7.7487    2.9893    2.7971 H   0  0  0  0  0  0  0  0  0  0  0  0
   -9.3387    4.6815   -0.8050 H   0  0  0  0  0  0  0  0  0  0  0  0
   -5.1667    3.8088   -0.5507 H   0  0  0  0  0  0  0  0  0  0  0  0
   -4.7902   -1.9355    3.0054 H   0  0  0  0  0  0  0  0  0  0  0  0
   -6.4843   -2.1220    2.4177 H   0  0  0  0  0  0  0  0  0  0  0  0
   -3.0745   -3.7357    2.2115 H   0  0  0  0  0  0  0  0  0  0  0  0
   -3.2390   -5.8267    0.7095 H   0  0  0  0  0  0  0  0  0  0  0  0
   -7.7343   -2.9082    0.2970 H   0  0  0  0  0  0  0  0  0  0  0  0
   -8.6862   -4.5462   -1.3135 H   0  0  0  0  0  0  0  0  0  0  0  0
   -7.3802   -6.5089   -1.9455 H   0  0  0  0  0  0  0  0  0  0  0  0
   -5.1927   -6.9195   -1.0623 H   0  0  0  0  0  0  0  0  0  0  0  0
    2.4210   -1.4917    1.4882 H   0  0  0  0  0  0  0  0  0  0  0  0
    2.0717    0.1552    0.9741 H   0  0  0  0  0  0  0  0  0  0  0  0
    0.8134   -2.8623    2.7464 H   0  0  0  0  0  0  0  0  0  0  0  0
   -0.9994   -2.7563    4.4693 H   0  0  0  0  0  0  0  0  0  0  0  0
   -1.7877    1.3040    3.3026 H   0  0  0  0  0  0  0  0  0  0  0  0
    0.0276    1.1913    1.5781 H   0  0  0  0  0  0  0  0  0  0  0  0
    3.4260   -2.0704   -4.1775 H   0  0  0  0  0  0  0  0  0  0  0  0
    4.4055   -3.1012   -3.1247 H   0  0  0  0  0  0  0  0  0  0  0  0
    5.5831   -1.1808   -2.5486 H   0  0  0  0  0  0  0  0  0  0  0  0
    4.9050    2.1982   -3.5709 H   0  0  0  0  0  0  0  0  0  0  0  0
    6.4097    0.3927   -1.7132 H   0  0  0  0  0  0  0  0  0  0  0  0
    9.2285    1.0570   -2.9656 H   0  0  0  0  0  0  0  0  0  0  0  0
    8.2531   -0.0573   -1.1843 H   0  0  0  0  0  0  0  0  0  0  0  0
    8.1801    1.4009   -0.1481 H   0  0  0  0  0  0  0  0  0  0  0  0
   10.2876   -1.1433   -1.7835 H   0  0  0  0  0  0  0  0  0  0  0  0
   12.5097   -1.8020   -1.1331 H   0  0  0  0  0  0  0  0  0  0  0  0
   12.6005    1.5372    1.6055 H   0  0  0  0  0  0  0  0  0  0  0  0
   10.3258    2.1991    0.9309 H   0  0  0  0  0  0  0  0  0  0  0  0
   14.6651   -0.8585   -0.0185 H   0  0  0  0  0  0  0  0  0  0  0  0
    9.6224    3.2459   -1.1187 H   0  0  0  0  0  0  0  0  0  0  0  0
    9.0311    3.7081   -2.6020 H   0  0  0  0  0  0  0  0  0  0  0  0
    3.1012    2.1192   -1.5870 H   0  0  0  0  0  0  0  0  0  0  0  0
    4.5752    2.0928   -0.6166 H   0  0  0  0  0  0  0  0  0  0  0  0
    4.2623    3.4505   -1.8193 H   0  0  0  0  0  0  0  0  0  0  0  0
  1  2  2  0
  2  3  1  0
  3  4  1  0
  4  5  1  0
  5  6  2  0
  5  7  1  0
  7  8  1  0
  8  9  1  0
  9 10  2  0
  9 11  1  0
 11 12  1  0
 12 13  1  0
 13 14  2  0
 13 15  1  0
 15 16  1  0
 16 17  1  0
 17 18  2  0
 18 19  1  0
 19 20  2  0
 20 21  1  0
 21 22  2  0
 21 23  1  0
 23 24  1  0
 23 25  1  0
 23 26  1  0
 19 27  1  0
 27 28  1  0
 27 29  1  0
 27 30  1  0
 12 31  1  0
 31 32  1  0
 32 33  2  0
 33 34  1  0
 34 35  1  0
 35 36  2  0
 36 37  1  0
 37 38  2  0
 38 39  1  0
 39 40  2  0
  4 41  1  0
 41 42  1  0
 42 43  2  0
 43 44  1  0
 44 45  2  0
 45 46  1  0
 46 47  2  0
 45 48  1  0
  2 49  1  0
 49 50  1  0
 50 51  1  0
 51 52  2  0
 51 53  1  0
 53 54  1  0
 54 55  1  0
 55 56  2  0
 55 57  1  0
 57 58  1  0
 58 59  1  0
 59 60  2  0
 60 61  1  0
 61 62  2  0
 62 63  1  0
 63 64  2  0
 62 65  1  0
 57 66  1  0
 53 67  1  0
 22 17  1  0
 36 32  1  0
 47 42  1  0
 64 59  1  0
 40 35  1  0
  3 68  1  0
  4 69  1  1
  7 70  1  0
  8 71  1  0
  8 72  1  0
 11 73  1  0
 12 74  1  6
 16 75  1  0
 16 76  1  0
 18 77  1  0
 20 78  1  0
 22 79  1  0
 31 80  1  0
 31 81  1  0
 33 82  1  0
 34 83  1  0
 37 84  1  0
 38 85  1  0
 39 86  1  0
 40 87  1  0
 41 88  1  0
 41 89  1  0
 43 90  1  0
 44 91  1  0
 46 92  1  0
 47 93  1  0
 49 94  1  0
 49 95  1  0
 50 96  1  0
 53 97  1  6
 54 98  1  0
 57 99  1  6
 58100  1  0
 58101  1  0
 60102  1  0
 61103  1  0
 63104  1  0
 64105  1  0
 65106  1  0
 66107  1  0
 66108  1  0
 67109  1  0
 67110  1  0
 67111  1  0
M  END
>  <Ligand ID>  (1) 
LIG0005368

>  <Ligand>  (1) 
CHEMBL3609615

>  <SMILES>  (1) 
O=C(N[C@H](C(=O)NCC(=O)N[C@H](C(=O)OCc1cc(cc(c1)C(F)(F)F)C(F)(F)F)Cc1c[nH]c2c1cccc2)Cc1ccc(cc1)Cl)CNC(=O)[C@H](NC(=O)[C@H](Cc1ccc(cc1)O)N)C

>  <CID>  (1) 
122187722.0

>  <ChEMBL ID>  (1) 
nan

>  <InChiKey>  (1) 
MTTXEONPPSHVNT-CDYHHZRJSA-N

>  <InChi>  (1) 
InChI=1S/C45H44ClF6N7O8/c1-24(57-41(64)34(53)16-25-8-12-32(60)13-9-25)40(63)55-21-38(61)58-36(17-26-6-10-31(46)11-7-26)42(65)56-22-39(62)59-37(18-28-20-54-35-5-3-2-4-33(28)35)43(66)67-23-27-14-29(44(47,48)49)19-30(15-27)45(50,51)52/h2-15,19-20,24,34,36-37,54,60H,16-18,21-23,53H2,1H3,(H,55,63)(H,56,65)(H,57,64)(H,58,61)(H,59,62)/t24-,34+,36+,37+/m1/s1

>  <IUPAC Name>  (1) 
[3,5-bis(trifluoromethyl)phenyl]methyl (2S)-2-[[2-[[(2S)-2-[[2-[[(2R)-2-[[(2S)-2-amino-3-(4-hydroxyphenyl)propanoyl]amino]propanoyl]amino]acetyl]amino]-3-(4-chlorophenyl)propanoyl]amino]acetyl]amino]-3-(1H-indol-3-yl)propanoate

$$$$
