
     RDKit          3D

 22 21  0  0  0  0  0  0  0  0999 V2000
    3.3927    0.1469    0.2251 C   0  0  0  0  0  0  0  0  0  0  0  0
    2.2531    0.3859   -0.5072 O   0  0  0  0  0  0  0  0  0  0  0  0
    1.0783    0.0184    0.1603 C   0  0  0  0  0  0  0  0  0  0  0  0
   -0.0520    0.3566   -0.8004 C   0  0  0  0  0  0  0  0  0  0  0  0
   -1.4070    0.0382   -0.2752 C   0  0  0  0  0  0  0  0  0  0  0  0
   -2.6141    0.5087   -1.5543 S   0  0  0  0  0  0  0  0  0  0  0  0
   -1.7788    0.7409    0.9876 C   0  0  0  0  0  0  0  0  0  0  0  0
   -1.5615   -1.4531   -0.0717 C   0  0  0  0  0  0  0  0  0  0  0  0
    4.3196    0.4546   -0.3425 H   0  0  0  0  0  0  0  0  0  0  0  0
    3.4028    0.6741    1.2016 H   0  0  0  0  0  0  0  0  0  0  0  0
    3.4439   -0.9374    0.4615 H   0  0  0  0  0  0  0  0  0  0  0  0
    1.0267   -1.0723    0.3586 H   0  0  0  0  0  0  0  0  0  0  0  0
    0.9102    0.6391    1.0644 H   0  0  0  0  0  0  0  0  0  0  0  0
    0.1177   -0.2796   -1.6947 H   0  0  0  0  0  0  0  0  0  0  0  0
    0.0658    1.3908   -1.1114 H   0  0  0  0  0  0  0  0  0  0  0  0
   -1.9995    1.1374   -2.6485 H   0  0  0  0  0  0  0  0  0  0  0  0
   -1.1029    1.5721    1.2709 H   0  0  0  0  0  0  0  0  0  0  0  0
   -2.8225    1.1224    1.0067 H   0  0  0  0  0  0  0  0  0  0  0  0
   -1.7312    0.0166    1.8448 H   0  0  0  0  0  0  0  0  0  0  0  0
   -0.8691   -2.0560   -0.6613 H   0  0  0  0  0  0  0  0  0  0  0  0
   -2.6391   -1.7252   -0.2697 H   0  0  0  0  0  0  0  0  0  0  0  0
   -1.4331   -1.6790    1.0124 H   0  0  0  0  0  0  0  0  0  0  0  0
  1  2  1  0
  2  3  1  0
  3  4  1  0
  4  5  1  0
  5  6  1  0
  5  7  1  0
  5  8  1  0
  1  9  1  0
  1 10  1  0
  1 11  1  0
  3 12  1  0
  3 13  1  0
  4 14  1  0
  4 15  1  0
  6 16  1  0
  7 17  1  0
  7 18  1  0
  7 19  1  0
  8 20  1  0
  8 21  1  0
  8 22  1  0
M  END
>  <Ligand ID>  (1) 
LIG0000563

>  <Ligand>  (1) 
4-Methoxy-2-methylbutane-2-thiol

>  <SMILES>  (1) 
COCCC(S)(C)C

>  <CID>  (1) 
526195.0

>  <ChEMBL ID>  (1) 
nan

>  <InChiKey>  (1) 
XVHGKKGBUDMTIQ-UHFFFAOYSA-N

>  <InChi>  (1) 
InChI=1S/C6H14OS/c1-6(2,8)4-5-7-3/h8H,4-5H2,1-3H3

>  <IUPAC Name>  (1) 
4-methoxy-2-methylbutane-2-thiol

$$$$
