
     RDKit          3D

 29 29  0  0  0  0  0  0  0  0999 V2000
   -4.3823    0.4099    0.7433 N   0  0  0  0  0  0  0  0  0  0  0  0
   -3.5218    0.1879   -0.4059 C   0  0  0  0  0  0  0  0  0  0  0  0
   -2.0967    0.2763    0.0872 C   0  0  1  0  0  0  0  0  0  0  0  0
   -1.7780   -0.7603    1.1585 C   0  0  0  0  0  0  0  0  0  0  0  0
   -1.1184   -0.7958   -0.1997 C   0  0  2  0  0  0  0  0  0  0  0  0
    0.3102   -0.4268   -0.1942 C   0  0  0  0  0  0  0  0  0  0  0  0
    1.1687   -1.1319   -1.0307 C   0  0  0  0  0  0  0  0  0  0  0  0
    2.5153   -0.7949   -1.0354 C   0  0  0  0  0  0  0  0  0  0  0  0
    2.9980    0.2028   -0.2424 C   0  0  0  0  0  0  0  0  0  0  0  0
    2.1644    0.9244    0.6034 C   0  0  0  0  0  0  0  0  0  0  0  0
    0.8293    0.5789    0.5977 C   0  0  0  0  0  0  0  0  0  0  0  0
    4.4636    0.5328   -0.2807 C   0  0  0  0  0  0  0  0  0  0  0  0
    0.6874    0.0000    0.0000 Cl  0  0  0  0  0  0  0  0  0  0  0  0
   -4.4183    1.4446    0.9082 H   0  0  0  0  0  0  0  0  0  0  0  0
   -3.8944    0.0116    1.5785 H   0  0  0  0  0  0  0  0  0  0  0  0
   -3.7467    0.9311   -1.1948 H   0  0  0  0  0  0  0  0  0  0  0  0
   -3.7096   -0.8525   -0.7474 H   0  0  0  0  0  0  0  0  0  0  0  0
   -1.7103    1.2891    0.1926 H   0  0  0  0  0  0  0  0  0  0  0  0
   -1.2250   -0.3513    2.0220 H   0  0  0  0  0  0  0  0  0  0  0  0
   -2.5024   -1.5677    1.3594 H   0  0  0  0  0  0  0  0  0  0  0  0
   -1.3698   -1.6215   -0.8907 H   0  0  0  0  0  0  0  0  0  0  0  0
    0.8424   -1.9252   -1.6744 H   0  0  0  0  0  0  0  0  0  0  0  0
    3.1967   -1.3428   -1.6887 H   0  0  0  0  0  0  0  0  0  0  0  0
    2.5431    1.7250    1.2416 H   0  0  0  0  0  0  0  0  0  0  0  0
    0.1307    1.1202    1.2490 H   0  0  0  0  0  0  0  0  0  0  0  0
    4.5256    1.5403   -0.7424 H   0  0  0  0  0  0  0  0  0  0  0  0
    4.9983   -0.2498   -0.8318 H   0  0  0  0  0  0  0  0  0  0  0  0
    4.7873    0.6455    0.7635 H   0  0  0  0  0  0  0  0  0  0  0  0
   -0.6874    0.0000    0.0000 H   0  0  0  0  0  0  0  0  0  0  0  0
  1  2  1  0
  2  3  1  0
  3  4  1  0
  4  5  1  0
  5  6  1  0
  6  7  2  0
  7  8  1  0
  8  9  2  0
  9 10  1  0
 10 11  2  0
  9 12  1  0
  5  3  1  0
 11  6  1  0
  1 14  1  0
  1 15  1  0
  2 16  1  0
  2 17  1  0
  3 18  1  1
  4 19  1  0
  4 20  1  0
  5 21  1  6
  7 22  1  0
  8 23  1  0
 10 24  1  0
 11 25  1  0
 12 26  1  0
 12 27  1  0
 12 28  1  0
 13 29  1  0
M  END
>  <Ligand ID>  (1) 
LIG0003795

>  <Ligand>  (1) 
CHEMBL471202

>  <SMILES>  (1) 
NC[C@H]1C[C@@H]1c1ccc(cc1)C.Cl

>  <CID>  (1) 
44573003.0

>  <ChEMBL ID>  (1) 
nan

>  <InChiKey>  (1) 
QTQXSVYMFOYPGS-NDXYWBNTSA-N

>  <InChi>  (1) 
InChI=1S/C11H15N.ClH/c1-8-2-4-9(5-3-8)11-6-10(11)7-12;/h2-5,10-11H,6-7,12H2,1H3;1H/t10-,11-;/m1./s1

>  <IUPAC Name>  (1) 
[(1S,2S)-2-(4-methylphenyl)cyclopropyl]methanamine;hydrochloride

$$$$
