
     RDKit          3D

 69 71  0  0  0  0  0  0  0  0999 V2000
   -6.1970    0.0555   -2.4460 C   0  0  0  0  0  0  0  0  0  0  0  0
   -5.5585   -0.8705   -1.3908 C   0  0  0  0  0  0  0  0  0  0  0  0
   -5.4893   -0.2688   -0.1542 O   0  0  0  0  0  0  0  0  0  0  0  0
   -4.3451   -0.0076    0.5405 C   0  0  0  0  0  0  0  0  0  0  0  0
   -3.0986   -0.3338    0.0454 C   0  0  0  0  0  0  0  0  0  0  0  0
   -1.9176   -0.0823    0.7228 C   0  0  0  0  0  0  0  0  0  0  0  0
   -2.0257    0.5244    1.9494 C   0  0  0  0  0  0  0  0  0  0  0  0
   -3.2561    0.8535    2.4538 C   0  0  0  0  0  0  0  0  0  0  0  0
   -4.4492    0.5994    1.7689 C   0  0  0  0  0  0  0  0  0  0  0  0
   -5.6664    1.0044    2.4294 C   0  0  0  0  0  0  0  0  0  0  0  0
   -5.5981    1.5628    3.5831 O   0  0  0  0  0  0  0  0  0  0  0  0
   -6.9770    0.8501    1.9312 N   0  0  0  0  0  0  0  0  0  0  0  0
   -8.3292    1.3968    2.8649 S   0  0  0  0  0  0  0  0  0  0  0  0
   -8.1713    2.8726    3.0973 O   0  0  0  0  0  0  0  0  0  0  0  0
   -8.3531    0.7392    4.2153 O   0  0  0  0  0  0  0  0  0  0  0  0
   -9.8554    1.1084    2.0464 C   0  0  0  0  0  0  0  0  0  0  0  0
   -0.6213   -0.4406    0.1621 C   0  0  0  0  0  0  0  0  0  0  0  0
   -0.5008   -0.3920   -1.2115 C   0  0  0  0  0  0  0  0  0  0  0  0
    0.6986   -0.7181   -1.8104 C   0  0  0  0  0  0  0  0  0  0  0  0
    1.8107   -1.1016   -1.0533 C   0  0  0  0  0  0  0  0  0  0  0  0
    1.6890   -1.1500    0.3192 C   0  0  0  0  0  0  0  0  0  0  0  0
    0.4639   -0.8153    0.9047 C   0  0  0  0  0  0  0  0  0  0  0  0
    3.0343   -1.4286   -1.7958 C   0  0  0  0  0  0  0  0  0  0  0  0
    3.8305   -0.1283   -1.9582 C   0  0  0  0  0  0  0  0  0  0  0  0
    4.1885    0.4446   -0.7055 N   0  0  0  0  0  0  0  0  0  0  0  0
    4.8989    1.6854   -0.7455 C   0  0  0  0  0  0  0  0  0  0  0  0
    6.2960    1.6138   -1.2970 C   0  0  1  0  0  0  0  0  0  0  0  0
    7.1181    0.7580   -0.4384 C   0  0  0  0  0  0  0  0  0  0  0  0
    8.4019    0.4485   -0.9040 C   0  0  0  0  0  0  0  0  0  0  0  0
    9.2662   -0.3500   -0.1862 C   0  0  0  0  0  0  0  0  0  0  0  0
    8.8855   -0.8812    1.0402 C   0  0  0  0  0  0  0  0  0  0  0  0
    7.6219   -0.5777    1.5001 C   0  0  0  0  0  0  0  0  0  0  0  0
    6.7449    0.2333    0.7705 C   0  0  0  0  0  0  0  0  0  0  0  0
    9.8155   -1.6845    1.7145 N   0  0  0  0  0  0  0  0  0  0  0  0
    6.3548    1.1743   -2.6186 O   0  0  0  0  0  0  0  0  0  0  0  0
   -6.4477   -2.1092   -1.3965 C   0  0  0  0  0  0  0  0  0  0  0  0
   -5.6382    0.9981   -2.5478 H   0  0  0  0  0  0  0  0  0  0  0  0
   -6.0756   -0.4977   -3.4218 H   0  0  0  0  0  0  0  0  0  0  0  0
   -7.2809    0.1859   -2.2555 H   0  0  0  0  0  0  0  0  0  0  0  0
   -4.6130   -1.1935   -1.8595 H   0  0  0  0  0  0  0  0  0  0  0  0
   -2.9574   -0.8207   -0.9286 H   0  0  0  0  0  0  0  0  0  0  0  0
   -1.1361    0.7429    2.5177 H   0  0  0  0  0  0  0  0  0  0  0  0
   -3.2590    1.3329    3.4349 H   0  0  0  0  0  0  0  0  0  0  0  0
   -7.1639    0.4177    1.0195 H   0  0  0  0  0  0  0  0  0  0  0  0
  -10.2907    0.1156    2.2025 H   0  0  0  0  0  0  0  0  0  0  0  0
   -9.7712    1.3372    0.9459 H   0  0  0  0  0  0  0  0  0  0  0  0
  -10.5906    1.8669    2.4263 H   0  0  0  0  0  0  0  0  0  0  0  0
   -1.3060   -0.1075   -1.8736 H   0  0  0  0  0  0  0  0  0  0  0  0
    0.7802   -0.6747   -2.8976 H   0  0  0  0  0  0  0  0  0  0  0  0
    2.5474   -1.4462    0.9072 H   0  0  0  0  0  0  0  0  0  0  0  0
    0.3516   -0.8469    1.9806 H   0  0  0  0  0  0  0  0  0  0  0  0
    2.8692   -1.9199   -2.7538 H   0  0  0  0  0  0  0  0  0  0  0  0
    3.6186   -2.1261   -1.1668 H   0  0  0  0  0  0  0  0  0  0  0  0
    3.2704    0.6037   -2.5565 H   0  0  0  0  0  0  0  0  0  0  0  0
    4.7603   -0.4638   -2.4958 H   0  0  0  0  0  0  0  0  0  0  0  0
    3.3269    0.6280   -0.1121 H   0  0  0  0  0  0  0  0  0  0  0  0
    4.9462    2.0575    0.3135 H   0  0  0  0  0  0  0  0  0  0  0  0
    4.3569    2.4635   -1.3388 H   0  0  0  0  0  0  0  0  0  0  0  0
    6.7259    2.6604   -1.2862 H   0  0  0  0  0  0  0  0  0  0  0  0
    8.7356    0.8505   -1.8671 H   0  0  0  0  0  0  0  0  0  0  0  0
   10.2483   -0.5491   -0.6107 H   0  0  0  0  0  0  0  0  0  0  0  0
    7.3290   -1.0005    2.4658 H   0  0  0  0  0  0  0  0  0  0  0  0
    5.7781    0.4383    1.1654 H   0  0  0  0  0  0  0  0  0  0  0  0
   10.8255   -1.3593    1.7797 H   0  0  0  0  0  0  0  0  0  0  0  0
    9.5996   -2.6014    2.1716 H   0  0  0  0  0  0  0  0  0  0  0  0
    5.6605    1.6586   -3.1605 H   0  0  0  0  0  0  0  0  0  0  0  0
   -5.8715   -2.8999   -0.8638 H   0  0  0  0  0  0  0  0  0  0  0  0
   -6.6385   -2.4729   -2.4120 H   0  0  0  0  0  0  0  0  0  0  0  0
   -7.3990   -1.9626   -0.8700 H   0  0  0  0  0  0  0  0  0  0  0  0
  1  2  1  0
  2  3  1  0
  3  4  1  0
  4  5  2  0
  5  6  1  0
  6  7  2  0
  7  8  1  0
  8  9  2  0
  9 10  1  0
 10 11  2  0
 10 12  1  0
 12 13  1  0
 13 14  2  0
 13 15  2  0
 13 16  1  0
  6 17  1  0
 17 18  2  0
 18 19  1  0
 19 20  2  0
 20 21  1  0
 21 22  2  0
 20 23  1  0
 23 24  1  0
 24 25  1  0
 25 26  1  0
 26 27  1  0
 27 28  1  0
 28 29  2  0
 29 30  1  0
 30 31  2  0
 31 32  1  0
 32 33  2  0
 31 34  1  0
 27 35  1  0
  2 36  1  0
  9  4  1  0
 22 17  1  0
 33 28  1  0
  1 37  1  0
  1 38  1  0
  1 39  1  0
  2 40  1  0
  5 41  1  0
  7 42  1  0
  8 43  1  0
 12 44  1  0
 16 45  1  0
 16 46  1  0
 16 47  1  0
 18 48  1  0
 19 49  1  0
 21 50  1  0
 22 51  1  0
 23 52  1  0
 23 53  1  0
 24 54  1  0
 24 55  1  0
 25 56  1  0
 26 57  1  0
 26 58  1  0
 27 59  1  6
 29 60  1  0
 30 61  1  0
 32 62  1  0
 33 63  1  0
 34 64  1  0
 34 65  1  0
 35 66  1  0
 36 67  1  0
 36 68  1  0
 36 69  1  0
M  END
>  <Ligand ID>  (1) 
LIG0003496

>  <Ligand>  (1) 
CHEMBL561335

>  <SMILES>  (1) 
CC(Oc1cc(ccc1C(=O)NS(=O)(=O)C)c1ccc(cc1)CCNC[C@@H](c1ccc(cc1)N)O)C

>  <CID>  (1) 
42640122.0

>  <ChEMBL ID>  (1) 
nan

>  <InChiKey>  (1) 
DSYPZNZEDDKOFW-VWLOTQADSA-N

>  <InChi>  (1) 
InChI=1S/C27H33N3O5S/c1-18(2)35-26-16-22(10-13-24(26)27(32)30-36(3,33)34)20-6-4-19(5-7-20)14-15-29-17-25(31)21-8-11-23(28)12-9-21/h4-13,16,18,25,29,31H,14-15,17,28H2,1-3H3,(H,30,32)/t25-/m0/s1

>  <IUPAC Name>  (1) 
4-[4-[2-[[(2R)-2-(4-aminophenyl)-2-hydroxyethyl]amino]ethyl]phenyl]-N-methylsulfonyl-2-propan-2-yloxybenzamide

$$$$
