
     RDKit          3D

 77 79  0  0  0  0  0  0  0  0999 V2000
    5.8247    0.6171   -0.9204 C   0  0  0  0  0  0  0  0  0  0  0  0
    4.7161    0.8918    0.0686 C   0  0  0  0  0  0  0  0  0  0  0  0
    4.2321   -0.2419    0.7330 N   0  0  0  0  0  0  0  0  0  0  0  0
    3.0227   -1.1238   -0.0318 S   0  0  0  0  0  0  0  0  0  0  0  0
    2.7154   -2.3528    0.7936 O   0  0  0  0  0  0  0  0  0  0  0  0
    3.5784   -1.6242   -1.3461 O   0  0  0  0  0  0  0  0  0  0  0  0
    1.5568   -0.1765   -0.2940 C   0  0  0  0  0  0  0  0  0  0  0  0
    0.5538   -0.1033    0.6494 C   0  0  0  0  0  0  0  0  0  0  0  0
   -0.5775    0.6753    0.3800 C   0  0  0  0  0  0  0  0  0  0  0  0
   -0.6254    1.3341   -0.8305 C   0  0  0  0  0  0  0  0  0  0  0  0
    0.3755    1.2625   -1.7760 C   0  0  0  0  0  0  0  0  0  0  0  0
    1.4914    0.4949   -1.5114 C   0  0  0  0  0  0  0  0  0  0  0  0
   -1.7862    2.1948   -1.1934 C   0  0  0  0  0  0  0  0  0  0  0  0
   -1.4772    3.3951   -1.3854 O   0  0  0  0  0  0  0  0  0  0  0  0
   -3.0544    1.6280   -1.2843 N   0  0  0  0  0  0  0  0  0  0  0  0
   -3.1340    0.1540   -1.1013 C   0  0  0  0  0  0  0  0  0  0  0  0
   -2.9739   -0.8137   -2.7562 S   0  0  0  0  0  0  0  0  0  0  0  0
   -3.1386   -2.3608   -1.8632 C   0  0  0  0  0  0  0  0  0  0  0  0
   -3.2794   -2.0121   -0.5673 C   0  0  0  0  0  0  0  0  0  0  0  0
   -3.2544   -0.7020   -0.3616 N   0  0  0  0  0  0  0  0  0  0  0  0
   -3.4270   -3.0588    0.3545 C   0  0  0  0  0  0  0  0  0  0  0  0
   -3.5897   -2.8277    1.8058 C   0  0  0  0  0  0  0  0  0  0  0  0
   -3.4195   -4.3359   -0.1048 C   0  0  0  0  0  0  0  0  0  0  0  0
   -3.2776   -4.7177   -1.4212 C   0  0  0  0  0  0  0  0  0  0  0  0
   -3.1308   -3.6806   -2.3381 C   0  0  0  0  0  0  0  0  0  0  0  0
   -3.5783   -5.4622    0.8849 C   0  0  0  0  0  0  0  0  0  0  0  0
   -4.3285    2.2419   -1.5165 C   0  0  0  0  0  0  0  0  0  0  0  0
   -5.0656    2.6481   -0.2795 C   0  0  0  0  0  0  0  0  0  0  0  0
   -4.5288    3.6955    0.5919 C   0  0  0  0  0  0  0  0  0  0  0  0
   -4.4106    5.0143    0.2168 N   0  0  0  0  0  0  0  0  0  0  0  0
   -3.5689    5.5668   -0.7189 C   0  0  0  0  0  0  0  0  0  0  0  0
   -5.2915    5.9462    0.9033 C   0  0  0  0  0  0  0  0  0  0  0  0
    4.8730   -0.7679    1.8574 C   0  0  0  0  0  0  0  0  0  0  0  0
    6.1042   -1.4881    1.4775 C   0  0  0  0  0  0  0  0  0  0  0  0
    6.1742   -2.8053    1.1313 C   0  0  0  0  0  0  0  0  0  0  0  0
    7.3595   -3.4155    0.7955 C   0  0  0  0  0  0  0  0  0  0  0  0
    8.5617   -2.7055    0.7933 C   0  0  0  0  0  0  0  0  0  0  0  0
    8.5053   -1.3723    1.1416 C   0  0  0  0  0  0  0  0  0  0  0  0
    7.3086   -0.7750    1.4759 C   0  0  0  0  0  0  0  0  0  0  0  0
    0.6900    0.0000    0.0000 Cl  0  0  0  0  0  0  0  0  0  0  0  0
    6.7853    1.1084   -0.6456 H   0  0  0  0  0  0  0  0  0  0  0  0
    6.0247   -0.4522   -1.0845 H   0  0  0  0  0  0  0  0  0  0  0  0
    5.5350    1.0605   -1.9044 H   0  0  0  0  0  0  0  0  0  0  0  0
    3.8522    1.3882   -0.4607 H   0  0  0  0  0  0  0  0  0  0  0  0
    5.1142    1.6764    0.7517 H   0  0  0  0  0  0  0  0  0  0  0  0
    0.6410   -0.6381    1.5806 H   0  0  0  0  0  0  0  0  0  0  0  0
   -1.3773    0.7569    1.0940 H   0  0  0  0  0  0  0  0  0  0  0  0
    0.2974    1.8010   -2.7239 H   0  0  0  0  0  0  0  0  0  0  0  0
    2.3051    0.4191   -2.2464 H   0  0  0  0  0  0  0  0  0  0  0  0
   -3.0824   -1.8811    2.0607 H   0  0  0  0  0  0  0  0  0  0  0  0
   -3.0113   -3.6461    2.3265 H   0  0  0  0  0  0  0  0  0  0  0  0
   -4.6530   -2.8419    2.1155 H   0  0  0  0  0  0  0  0  0  0  0  0
   -3.2747   -5.7391   -1.7636 H   0  0  0  0  0  0  0  0  0  0  0  0
   -3.0126   -3.8833   -3.4007 H   0  0  0  0  0  0  0  0  0  0  0  0
   -4.2791   -5.1011    1.6657 H   0  0  0  0  0  0  0  0  0  0  0  0
   -3.9285   -6.3821    0.3815 H   0  0  0  0  0  0  0  0  0  0  0  0
   -2.6127   -5.6658    1.3768 H   0  0  0  0  0  0  0  0  0  0  0  0
   -5.0223    1.4874   -2.0243 H   0  0  0  0  0  0  0  0  0  0  0  0
   -4.2773    3.0510   -2.2828 H   0  0  0  0  0  0  0  0  0  0  0  0
   -5.0721    1.6934    0.3562 H   0  0  0  0  0  0  0  0  0  0  0  0
   -6.1725    2.7579   -0.4837 H   0  0  0  0  0  0  0  0  0  0  0  0
   -3.5310    3.3068    0.9820 H   0  0  0  0  0  0  0  0  0  0  0  0
   -5.1530    3.6632    1.5507 H   0  0  0  0  0  0  0  0  0  0  0  0
   -3.5228    5.1942   -1.7416 H   0  0  0  0  0  0  0  0  0  0  0  0
   -3.8531    6.6645   -0.8430 H   0  0  0  0  0  0  0  0  0  0  0  0
   -2.5306    5.6602   -0.2674 H   0  0  0  0  0  0  0  0  0  0  0  0
   -4.6824    6.4240    1.7049 H   0  0  0  0  0  0  0  0  0  0  0  0
   -6.2078    5.4945    1.2800 H   0  0  0  0  0  0  0  0  0  0  0  0
   -5.4744    6.7737    0.1740 H   0  0  0  0  0  0  0  0  0  0  0  0
    4.2034   -1.5360    2.3194 H   0  0  0  0  0  0  0  0  0  0  0  0
    5.1082    0.0239    2.6053 H   0  0  0  0  0  0  0  0  0  0  0  0
    5.2643   -3.3853    1.1218 H   0  0  0  0  0  0  0  0  0  0  0  0
    7.3978   -4.4696    0.5211 H   0  0  0  0  0  0  0  0  0  0  0  0
    9.4993   -3.1634    0.5332 H   0  0  0  0  0  0  0  0  0  0  0  0
    9.3884   -0.7275    1.1712 H   0  0  0  0  0  0  0  0  0  0  0  0
    7.2788    0.2711    1.7469 H   0  0  0  0  0  0  0  0  0  0  0  0
   -0.6900    0.0000    0.0000 H   0  0  0  0  0  0  0  0  0  0  0  0
  1  2  1  0
  2  3  1  0
  3  4  1  0
  4  5  2  0
  4  6  2  0
  4  7  1  0
  7  8  2  0
  8  9  1  0
  9 10  2  0
 10 11  1  0
 11 12  2  0
 10 13  1  0
 13 14  2  0
 13 15  1  0
 15 16  1  0
 16 17  1  0
 17 18  1  0
 18 19  2  0
 19 20  1  0
 19 21  1  0
 21 22  1  0
 21 23  2  0
 23 24  1  0
 24 25  2  0
 23 26  1  0
 15 27  1  0
 27 28  1  0
 28 29  1  0
 29 30  1  0
 30 31  1  0
 30 32  1  0
  3 33  1  0
 33 34  1  0
 34 35  2  0
 35 36  1  0
 36 37  2  0
 37 38  1  0
 38 39  2  0
 12  7  1  0
 20 16  2  0
 39 34  1  0
 25 18  1  0
  1 41  1  0
  1 42  1  0
  1 43  1  0
  2 44  1  0
  2 45  1  0
  8 46  1  0
  9 47  1  0
 11 48  1  0
 12 49  1  0
 22 50  1  0
 22 51  1  0
 22 52  1  0
 24 53  1  0
 25 54  1  0
 26 55  1  0
 26 56  1  0
 26 57  1  0
 27 58  1  0
 27 59  1  0
 28 60  1  0
 28 61  1  0
 29 62  1  0
 29 63  1  0
 31 64  1  0
 31 65  1  0
 31 66  1  0
 32 67  1  0
 32 68  1  0
 32 69  1  0
 33 70  1  0
 33 71  1  0
 35 72  1  0
 36 73  1  0
 37 74  1  0
 38 75  1  0
 39 76  1  0
 40 77  1  0
M  END
>  <Ligand ID>  (1) 
LIG0004384

>  <Ligand>  (1) 
MLS001239388

>  <SMILES>  (1) 
CCN(S(=O)(=O)c1ccc(cc1)C(=O)N(c1sc2c(n1)c(C)c(cc2)C)CCCN(C)C)Cc1ccccc1.Cl

>  <CID>  (1) 
24892090.0

>  <ChEMBL ID>  (1) 
nan

>  <InChiKey>  (1) 
FPJRQEULQATKMY-UHFFFAOYSA-N

>  <InChi>  (1) 
InChI=1S/C30H36N4O3S2.ClH/c1-6-33(21-24-11-8-7-9-12-24)39(36,37)26-16-14-25(15-17-26)29(35)34(20-10-19-32(4)5)30-31-28-23(3)22(2)13-18-27(28)38-30;/h7-9,11-18H,6,10,19-21H2,1-5H3;1H

>  <IUPAC Name>  (1) 
4-[benzyl(ethyl)sulfamoyl]-N-[3-(dimethylamino)propyl]-N-(4,5-dimethyl-1,3-benzothiazol-2-yl)benzamide;hydrochloride

$$$$
