
     RDKit          3D

 50 54  0  0  0  0  0  0  0  0999 V2000
    8.6816   -0.1020    0.2294 C   0  0  0  0  0  0  0  0  0  0  0  0
    7.9616   -0.3646   -1.0986 C   0  0  0  0  0  0  0  0  0  0  0  0
    6.5695   -0.6598   -0.8173 N   0  0  0  0  0  0  0  0  0  0  0  0
    6.0344   -1.8475   -0.5857 N   0  0  0  0  0  0  0  0  0  0  0  0
    4.7222   -1.6719   -0.3726 N   0  0  0  0  0  0  0  0  0  0  0  0
    4.4461   -0.3755   -0.4725 C   0  0  0  0  0  0  0  0  0  0  0  0
    5.6184    0.2308   -0.7506 N   0  0  0  0  0  0  0  0  0  0  0  0
    3.1541    0.2935   -0.3198 C   0  0  1  0  0  0  0  0  0  0  0  0
    2.1182   -0.3675   -0.9941 O   0  0  0  0  0  0  0  0  0  0  0  0
    1.0469    0.4495   -0.6499 C   0  0  2  0  0  0  0  0  0  0  0  0
    1.1387    0.5573    0.8593 C   0  0  1  0  0  0  0  0  0  0  0  0
    2.6361    0.3070    1.0857 C   0  0  2  0  0  0  0  0  0  0  0  0
    3.1673    1.3509    1.8361 O   0  0  0  0  0  0  0  0  0  0  0  0
    0.8151    1.8494    1.2579 O   0  0  0  0  0  0  0  0  0  0  0  0
   -0.2344   -0.1183   -0.9734 N   0  0  0  0  0  0  0  0  0  0  0  0
   -0.5256   -1.0047   -1.9181 C   0  0  0  0  0  0  0  0  0  0  0  0
   -1.8635   -1.2528   -1.8594 N   0  0  0  0  0  0  0  0  0  0  0  0
   -2.4077   -0.5196   -0.8762 C   0  0  0  0  0  0  0  0  0  0  0  0
   -1.3686    0.1952   -0.3213 C   0  0  0  0  0  0  0  0  0  0  0  0
   -1.6698    1.0197    0.7045 N   0  0  0  0  0  0  0  0  0  0  0  0
   -2.9268    1.1419    1.1682 C   0  0  0  0  0  0  0  0  0  0  0  0
   -3.9298    0.4421    0.6211 N   0  0  0  0  0  0  0  0  0  0  0  0
   -3.7090   -0.4005   -0.4047 C   0  0  0  0  0  0  0  0  0  0  0  0
   -4.7878   -1.1549   -0.9950 N   0  0  0  0  0  0  0  0  0  0  0  0
   -6.1391   -1.0125   -0.4838 C   0  0  0  0  0  0  0  0  0  0  0  0
   -6.5966    0.4038   -0.6124 C   0  0  0  0  0  0  0  0  0  0  0  0
   -7.3287    0.6673    0.6825 C   0  0  0  0  0  0  0  0  0  0  0  0
   -7.0900   -0.5691    1.4981 C   0  0  0  0  0  0  0  0  0  0  0  0
   -6.1518   -1.3374    0.8541 O   0  0  0  0  0  0  0  0  0  0  0  0
    9.6609    0.3968    0.0347 H   0  0  0  0  0  0  0  0  0  0  0  0
    8.9200   -1.0585    0.7385 H   0  0  0  0  0  0  0  0  0  0  0  0
    8.0493    0.4826    0.9316 H   0  0  0  0  0  0  0  0  0  0  0  0
    8.1000    0.4916   -1.7859 H   0  0  0  0  0  0  0  0  0  0  0  0
    8.4676   -1.2648   -1.5203 H   0  0  0  0  0  0  0  0  0  0  0  0
    3.1706    1.3359   -0.6965 H   0  0  0  0  0  0  0  0  0  0  0  0
    1.1777    1.4287   -1.1658 H   0  0  0  0  0  0  0  0  0  0  0  0
    0.5130   -0.2193    1.3420 H   0  0  0  0  0  0  0  0  0  0  0  0
    2.7246   -0.6540    1.5939 H   0  0  0  0  0  0  0  0  0  0  0  0
    3.8718    0.9706    2.4029 H   0  0  0  0  0  0  0  0  0  0  0  0
    1.4363    2.4552    0.7943 H   0  0  0  0  0  0  0  0  0  0  0  0
    0.2102   -1.4244   -2.5900 H   0  0  0  0  0  0  0  0  0  0  0  0
   -3.1754    1.7988    1.9876 H   0  0  0  0  0  0  0  0  0  0  0  0
   -4.5511   -1.7862   -1.7818 H   0  0  0  0  0  0  0  0  0  0  0  0
   -6.7852   -1.6975   -1.0710 H   0  0  0  0  0  0  0  0  0  0  0  0
   -7.2861    0.4602   -1.4906 H   0  0  0  0  0  0  0  0  0  0  0  0
   -5.7663    1.1284   -0.7278 H   0  0  0  0  0  0  0  0  0  0  0  0
   -6.9133    1.5682    1.2034 H   0  0  0  0  0  0  0  0  0  0  0  0
   -8.4057    0.8770    0.5141 H   0  0  0  0  0  0  0  0  0  0  0  0
   -6.7470   -0.2934    2.5382 H   0  0  0  0  0  0  0  0  0  0  0  0
   -8.0527   -1.1456    1.6102 H   0  0  0  0  0  0  0  0  0  0  0  0
  1  2  1  0
  2  3  1  0
  3  4  1  0
  4  5  2  0
  5  6  1  0
  6  7  2  0
  6  8  1  0
  8  9  1  0
  9 10  1  0
 10 11  1  0
 11 12  1  0
 12 13  1  0
 11 14  1  0
 10 15  1  0
 15 16  1  0
 16 17  2  0
 17 18  1  0
 18 19  2  0
 19 20  1  0
 20 21  2  0
 21 22  1  0
 22 23  2  0
 23 24  1  0
 24 25  1  0
 25 26  1  0
 26 27  1  0
 27 28  1  0
 28 29  1  0
  7  3  1  0
 12  8  1  0
 19 15  1  0
 29 25  1  0
 23 18  1  0
  1 30  1  0
  1 31  1  0
  1 32  1  0
  2 33  1  0
  2 34  1  0
  8 35  1  6
 10 36  1  6
 11 37  1  1
 12 38  1  1
 13 39  1  0
 14 40  1  0
 16 41  1  0
 21 42  1  0
 24 43  1  0
 25 44  1  0
 26 45  1  0
 26 46  1  0
 27 47  1  0
 27 48  1  0
 28 49  1  0
 28 50  1  0
M  END
>  <Ligand ID>  (1) 
LIG0001929

>  <Ligand>  (1) 
CHEMBL3414944

>  <SMILES>  (1) 
CCn1nnc(n1)[C@H]1O[C@H]([C@@H]([C@@H]1O)O)n1cnc2c1ncnc2NC1CCCO1

>  <CID>  (1) 
118732978.0

>  <ChEMBL ID>  (1) 
nan

>  <InChiKey>  (1) 
OZWIQLJRUYENLH-BHETVNITSA-N

>  <InChi>  (1) 
InChI=1S/C16H21N9O4/c1-2-25-22-14(21-23-25)12-10(26)11(27)16(29-12)24-7-19-9-13(17-6-18-15(9)24)20-8-4-3-5-28-8/h6-8,10-12,16,26-27H,2-5H2,1H3,(H,17,18,20)/t8?,10-,11+,12-,16+/m0/s1

>  <IUPAC Name>  (1) 
(2R,3S,4R,5R)-2-(2-ethyltetrazol-5-yl)-5-[6-(oxolan-2-ylamino)purin-9-yl]oxolane-3,4-diol

$$$$
