
     RDKit          3D

 65 69  0  0  0  0  0  0  0  0999 V2000
   -1.8167    6.0767    0.0676 C   0  0  0  0  0  0  0  0  0  0  0  0
   -1.6877    4.5650    0.0269 C   0  0  0  0  0  0  0  0  0  0  0  0
   -2.9823    4.0257    0.2278 O   0  0  0  0  0  0  0  0  0  0  0  0
   -3.0785    2.6232    0.2248 C   0  0  0  0  0  0  0  0  0  0  0  0
   -1.9643    1.8330    0.0354 C   0  0  0  0  0  0  0  0  0  0  0  0
   -2.1308    0.4761    0.0443 C   0  0  0  0  0  0  0  0  0  0  0  0
   -3.3555   -0.1227    0.2331 C   0  0  0  0  0  0  0  0  0  0  0  0
   -4.4473    0.7066    0.4195 C   0  0  0  0  0  0  0  0  0  0  0  0
   -4.3307    2.0666    0.4187 C   0  0  0  0  0  0  0  0  0  0  0  0
   -5.4186    2.8960    0.6044 O   0  0  0  0  0  0  0  0  0  0  0  0
   -6.7053    2.3026    0.8034 C   0  0  0  0  0  0  0  0  0  0  0  0
   -3.5214   -1.4605    0.2410 N   0  0  0  0  0  0  0  0  0  0  0  0
   -2.4457   -2.2520    0.0565 C   0  0  0  0  0  0  0  0  0  0  0  0
   -1.2592   -1.6689   -0.1263 N   0  0  0  0  0  0  0  0  0  0  0  0
   -1.0461   -0.3433   -0.1418 C   0  0  0  0  0  0  0  0  0  0  0  0
    0.2809    0.1088   -0.3441 N   0  0  0  0  0  0  0  0  0  0  0  0
    1.0296    0.8904    0.6175 C   0  0  0  0  0  0  0  0  0  0  0  0
    2.3238    0.2112    1.0019 C   0  0  0  0  0  0  0  0  0  0  0  0
    2.9094   -0.5038   -0.1109 N   0  0  0  0  0  0  0  0  0  0  0  0
    2.1898   -1.0319   -1.2253 C   0  0  0  0  0  0  0  0  0  0  0  0
    0.9621   -0.2233   -1.5823 C   0  0  0  0  0  0  0  0  0  0  0  0
    4.3319   -0.6916   -0.0808 C   0  0  0  0  0  0  0  0  0  0  0  0
    4.7637   -2.0057   -0.0835 C   0  0  0  0  0  0  0  0  0  0  0  0
    6.1096   -2.3066   -0.0560 C   0  0  0  0  0  0  0  0  0  0  0  0
    7.0053   -1.2743   -0.0262 C   0  0  0  0  0  0  0  0  0  0  0  0
    6.5755    0.0378   -0.0235 C   0  0  0  0  0  0  0  0  0  0  0  0
    5.2181    0.3617   -0.0509 C   0  0  0  0  0  0  0  0  0  0  0  0
    4.7610    1.6548   -0.0490 O   0  0  0  0  0  0  0  0  0  0  0  0
    5.7101    2.6872   -0.0180 C   0  0  0  0  0  0  0  0  0  0  0  0
   -2.5514   -3.7117    0.0528 C   0  0  0  0  0  0  0  0  0  0  0  0
   -3.7768   -4.3166    0.2418 C   0  0  0  0  0  0  0  0  0  0  0  0
   -3.9064   -5.7066    0.2430 C   0  0  0  0  0  0  0  0  0  0  0  0
   -2.7816   -6.4774    0.0508 C   0  0  0  0  0  0  0  0  0  0  0  0
   -1.5426   -5.8852   -0.1405 C   0  0  0  0  0  0  0  0  0  0  0  0
   -1.4273   -4.5062   -0.1396 C   0  0  0  0  0  0  0  0  0  0  0  0
   -1.0391    6.5363   -0.5618 H   0  0  0  0  0  0  0  0  0  0  0  0
   -1.6961    6.4648    1.1094 H   0  0  0  0  0  0  0  0  0  0  0  0
   -2.8311    6.3438   -0.2632 H   0  0  0  0  0  0  0  0  0  0  0  0
   -1.2767    4.2253   -0.9456 H   0  0  0  0  0  0  0  0  0  0  0  0
   -1.0261    4.1872    0.8325 H   0  0  0  0  0  0  0  0  0  0  0  0
   -0.9998    2.2548   -0.1156 H   0  0  0  0  0  0  0  0  0  0  0  0
   -5.4388    0.2729    0.5731 H   0  0  0  0  0  0  0  0  0  0  0  0
   -6.9340    1.6840   -0.1023 H   0  0  0  0  0  0  0  0  0  0  0  0
   -6.7258    1.6276    1.6809 H   0  0  0  0  0  0  0  0  0  0  0  0
   -7.4847    3.0757    0.9047 H   0  0  0  0  0  0  0  0  0  0  0  0
    0.4019    1.1488    1.4862 H   0  0  0  0  0  0  0  0  0  0  0  0
    1.3227    1.8378    0.1222 H   0  0  0  0  0  0  0  0  0  0  0  0
    2.0818   -0.5058    1.8140 H   0  0  0  0  0  0  0  0  0  0  0  0
    3.0541    0.9273    1.4025 H   0  0  0  0  0  0  0  0  0  0  0  0
    1.8873   -2.0929   -0.9910 H   0  0  0  0  0  0  0  0  0  0  0  0
    2.8389   -1.0502   -2.1336 H   0  0  0  0  0  0  0  0  0  0  0  0
    1.2960    0.7022   -2.0528 H   0  0  0  0  0  0  0  0  0  0  0  0
    0.3174   -0.8373   -2.2209 H   0  0  0  0  0  0  0  0  0  0  0  0
    4.0647   -2.8334   -0.1070 H   0  0  0  0  0  0  0  0  0  0  0  0
    6.4128   -3.3410   -0.0590 H   0  0  0  0  0  0  0  0  0  0  0  0
    8.0731   -1.5162   -0.0045 H   0  0  0  0  0  0  0  0  0  0  0  0
    7.3160    0.8265    0.0006 H   0  0  0  0  0  0  0  0  0  0  0  0
    5.1354    3.6378    0.1338 H   0  0  0  0  0  0  0  0  0  0  0  0
    6.3462    2.7474   -0.9210 H   0  0  0  0  0  0  0  0  0  0  0  0
    6.4057    2.5829    0.8322 H   0  0  0  0  0  0  0  0  0  0  0  0
   -4.6468   -3.7046    0.3906 H   0  0  0  0  0  0  0  0  0  0  0  0
   -4.8940   -6.1273    0.3962 H   0  0  0  0  0  0  0  0  0  0  0  0
   -2.8522   -7.5598    0.0468 H   0  0  0  0  0  0  0  0  0  0  0  0
   -0.6537   -6.4792   -0.2922 H   0  0  0  0  0  0  0  0  0  0  0  0
   -0.4503   -4.0702   -0.2909 H   0  0  0  0  0  0  0  0  0  0  0  0
  1  2  1  0
  2  3  1  0
  3  4  1  0
  4  5  2  0
  5  6  1  0
  6  7  2  0
  7  8  1  0
  8  9  2  0
  9 10  1  0
 10 11  1  0
  7 12  1  0
 12 13  2  0
 13 14  1  0
 14 15  2  0
 15 16  1  0
 16 17  1  0
 17 18  1  0
 18 19  1  0
 19 20  1  0
 20 21  1  0
 19 22  1  0
 22 23  2  0
 23 24  1  0
 24 25  2  0
 25 26  1  0
 26 27  2  0
 27 28  1  0
 28 29  1  0
 13 30  1  0
 30 31  2  0
 31 32  1  0
 32 33  2  0
 33 34  1  0
 34 35  2  0
  9  4  1  0
 21 16  1  0
 27 22  1  0
 35 30  1  0
 15  6  1  0
  1 36  1  0
  1 37  1  0
  1 38  1  0
  2 39  1  0
  2 40  1  0
  5 41  1  0
  8 42  1  0
 11 43  1  0
 11 44  1  0
 11 45  1  0
 17 46  1  0
 17 47  1  0
 18 48  1  0
 18 49  1  0
 20 50  1  0
 20 51  1  0
 21 52  1  0
 21 53  1  0
 23 54  1  0
 24 55  1  0
 25 56  1  0
 26 57  1  0
 29 58  1  0
 29 59  1  0
 29 60  1  0
 31 61  1  0
 32 62  1  0
 33 63  1  0
 34 64  1  0
 35 65  1  0
M  END
>  <Ligand ID>  (1) 
LIG0004471

>  <Ligand>  (1) 
CHEMBL2431138

>  <SMILES>  (1) 
CCOc1cc2c(cc1OC)nc(nc2N1CCN(CC1)c1ccccc1OC)c1ccccc1

>  <CID>  (1) 
73353870.0

>  <ChEMBL ID>  (1) 
nan

>  <InChiKey>  (1) 
NXMBWHFJPVYHOT-UHFFFAOYSA-N

>  <InChi>  (1) 
InChI=1S/C28H30N4O3/c1-4-35-26-18-21-22(19-25(26)34-3)29-27(20-10-6-5-7-11-20)30-28(21)32-16-14-31(15-17-32)23-12-8-9-13-24(23)33-2/h5-13,18-19H,4,14-17H2,1-3H3

>  <IUPAC Name>  (1) 
6-ethoxy-7-methoxy-4-[4-(2-methoxyphenyl)piperazin-1-yl]-2-phenylquinazoline

$$$$
