
     RDKit          3D

205213  0  0  0  0  0  0  0  0999 V2000
    9.5588    0.0564    4.2436 N   0  0  0  0  0  0  0  0  0  0  0  0
    9.6050   -0.1378    2.8447 C   0  0  0  0  0  0  0  0  0  0  0  0
    8.6628    0.1635    2.0284 N   0  0  0  0  0  0  0  0  0  0  0  0
    7.4415    0.7481    2.5271 C   0  0  0  0  0  0  0  0  0  0  0  0
    6.4865   -0.2479    3.1310 C   0  0  0  0  0  0  0  0  0  0  0  0
    5.1967    0.2497    3.6000 C   0  0  0  0  0  0  0  0  0  0  0  0
    4.1950    0.8194    2.6278 C   0  0  2  0  0  0  0  0  0  0  0  0
    3.7897   -0.1150    1.6379 N   0  0  0  0  0  0  0  0  0  0  0  0
    4.4259   -0.6401    0.5065 C   0  0  0  0  0  0  0  0  0  0  0  0
    5.5002   -0.1945    0.1694 O   0  0  0  0  0  0  0  0  0  0  0  0
    3.7828   -1.7771   -0.3311 C   0  0  1  0  0  0  0  0  0  0  0  0
    4.8114   -2.8727   -0.1894 C   0  0  0  0  0  0  0  0  0  0  0  0
    4.5552   -4.1260   -0.8892 C   0  0  0  0  0  0  0  0  0  0  0  0
    5.0375   -4.2136   -2.2082 C   0  0  0  0  0  0  0  0  0  0  0  0
    4.9109   -5.3405   -2.9726 C   0  0  0  0  0  0  0  0  0  0  0  0
    4.2840   -6.4450   -2.4398 C   0  0  0  0  0  0  0  0  0  0  0  0
    3.8150   -6.3650   -1.1663 C   0  0  0  0  0  0  0  0  0  0  0  0
    3.9315   -5.2330   -0.3695 C   0  0  0  0  0  0  0  0  0  0  0  0
    4.2088   -7.6287   -3.2906 C   0  0  0  0  0  0  0  0  0  0  0  0
    4.1161   -7.5559   -4.6652 C   0  0  0  0  0  0  0  0  0  0  0  0
    4.0585   -8.7280   -5.4137 C   0  0  0  0  0  0  0  0  0  0  0  0
    4.0923   -9.9582   -4.7795 C   0  0  0  0  0  0  0  0  0  0  0  0
    4.1847  -10.0534   -3.3834 C   0  0  0  0  0  0  0  0  0  0  0  0
    4.2420   -8.8787   -2.6588 C   0  0  0  0  0  0  0  0  0  0  0  0
    2.5869   -2.1183    0.3906 N   0  0  0  0  0  0  0  0  0  0  0  0
    1.2679   -2.2073   -0.1396 C   0  0  0  0  0  0  0  0  0  0  0  0
    1.1728   -2.1661   -1.3597 O   0  0  0  0  0  0  0  0  0  0  0  0
    0.0750   -2.3547    0.7985 C   0  0  2  0  0  0  0  0  0  0  0  0
    0.3637   -3.4333    1.7767 C   0  0  0  0  0  0  0  0  0  0  0  0
    0.5710   -4.7739    1.2081 C   0  0  0  0  0  0  0  0  0  0  0  0
    0.8701   -5.8486    1.9816 N   0  0  0  0  0  0  0  0  0  0  0  0
    0.9607   -6.9042    1.2030 C   0  0  0  0  0  0  0  0  0  0  0  0
    0.7330   -6.5848   -0.1037 N   0  0  0  0  0  0  0  0  0  0  0  0
    0.4942   -5.2573   -0.0756 C   0  0  0  0  0  0  0  0  0  0  0  0
   -1.1335   -2.6513    0.0762 N   0  0  0  0  0  0  0  0  0  0  0  0
   -1.8037   -1.7819   -0.8320 C   0  0  0  0  0  0  0  0  0  0  0  0
   -1.2233   -0.7186   -1.0716 O   0  0  0  0  0  0  0  0  0  0  0  0
   -3.0912   -2.2240   -1.4008 C   0  0  1  0  0  0  0  0  0  0  0  0
   -3.6873   -3.1567   -0.4734 N   0  0  0  0  0  0  0  0  0  0  0  0
   -3.8877   -4.5274   -0.6380 C   0  0  0  0  0  0  0  0  0  0  0  0
   -3.5639   -5.1814   -1.6529 O   0  0  0  0  0  0  0  0  0  0  0  0
   -4.5426   -5.2595    0.4916 C   0  0  2  0  0  0  0  0  0  0  0  0
   -3.8285   -5.1193    1.7907 C   0  0  0  0  0  0  0  0  0  0  0  0
   -4.5491   -5.8614    2.8652 C   0  0  0  0  0  0  0  0  0  0  0  0
   -4.3077   -7.1806    3.1703 C   0  0  0  0  0  0  0  0  0  0  0  0
   -5.0504   -7.7699    4.2054 C   0  0  0  0  0  0  0  0  0  0  0  0
   -6.0006   -7.0579    4.9082 C   0  0  0  0  0  0  0  0  0  0  0  0
   -6.2374   -5.7310    4.5942 C   0  0  0  0  0  0  0  0  0  0  0  0
   -5.5144   -5.1275    3.5738 C   0  0  0  0  0  0  0  0  0  0  0  0
   -6.6975   -7.7167    5.9286 O   0  0  0  0  0  0  0  0  0  0  0  0
   -4.5967   -6.6556    0.1276 N   0  0  0  0  0  0  0  0  0  0  0  0
   -4.0265   -1.1292   -1.8680 C   0  0  0  0  0  0  0  0  0  0  0  0
   -4.3813   -0.2659   -0.7531 C   0  0  0  0  0  0  0  0  0  0  0  0
   -3.5932   -0.1389    0.1835 O   0  0  0  0  0  0  0  0  0  0  0  0
   -5.5623    0.5020   -0.5364 N   0  0  0  0  0  0  0  0  0  0  0  0
   -6.6057    0.3678   -1.4872 C   0  0  2  0  0  0  0  0  0  0  0  0
   -7.2039   -0.9471   -1.5798 C   0  0  0  0  0  0  0  0  0  0  0  0
   -6.8100   -1.8852   -0.7928 O   0  0  0  0  0  0  0  0  0  0  0  0
   -8.2322   -1.3456   -2.4812 N   0  0  0  0  0  0  0  0  0  0  0  0
   -6.2120    0.9331   -2.8088 C   0  0  0  0  0  0  0  0  0  0  0  0
   -7.2323    0.8325   -3.8700 C   0  0  0  0  0  0  0  0  0  0  0  0
   -8.1739    1.8612   -3.9092 C   0  0  0  0  0  0  0  0  0  0  0  0
   -9.1458    1.8444   -4.8763 C   0  0  0  0  0  0  0  0  0  0  0  0
   -9.1514    0.8084   -5.7731 C   0  0  0  0  0  0  0  0  0  0  0  0
   -8.2224   -0.2058   -5.7340 C   0  0  0  0  0  0  0  0  0  0  0  0
   -7.2357   -0.2119   -4.7721 C   0  0  0  0  0  0  0  0  0  0  0  0
  -10.1426    0.8145   -6.7425 O   0  0  0  0  0  0  0  0  0  0  0  0
   -5.6611    1.4503    0.6048 C   0  0  2  0  0  0  0  0  0  0  0  0
   -7.0779    1.9158    0.7761 C   0  0  0  0  0  0  0  0  0  0  0  0
   -4.8103    2.6087    0.2476 N   0  0  0  0  0  0  0  0  0  0  0  0
   -4.7215    3.7655    1.0695 C   0  0  0  0  0  0  0  0  0  0  0  0
   -5.3839    3.7354    2.1132 O   0  0  0  0  0  0  0  0  0  0  0  0
   -3.9213    4.9653    0.7645 C   0  0  1  0  0  0  0  0  0  0  0  0
   -3.1131    4.7556   -0.4527 N   0  0  0  0  0  0  0  0  0  0  0  0
   -1.7018    5.0486   -0.4579 C   0  0  0  0  0  0  0  0  0  0  0  0
   -1.2774    5.4930    0.6213 O   0  0  0  0  0  0  0  0  0  0  0  0
   -0.8763    4.8233   -1.6661 C   0  0  1  0  0  0  0  0  0  0  0  0
    0.5204    5.1468   -1.4677 N   0  0  0  0  0  0  0  0  0  0  0  0
    1.2876    5.8641   -2.4727 C   0  0  0  0  0  0  0  0  0  0  0  0
    0.6346    6.1899   -3.4642 O   0  0  0  0  0  0  0  0  0  0  0  0
    2.7276    6.1245   -2.2338 C   0  0  1  0  0  0  0  0  0  0  0  0
    3.0219    5.7735   -0.8678 N   0  0  0  0  0  0  0  0  0  0  0  0
    3.6827    4.6285   -0.3872 C   0  0  0  0  0  0  0  0  0  0  0  0
    3.9927    3.7630   -1.2155 O   0  0  0  0  0  0  0  0  0  0  0  0
    4.0296    4.3652    1.0330 C   0  0  1  0  0  0  0  0  0  0  0  0
    4.3881    2.9546    1.1556 N   0  0  0  0  0  0  0  0  0  0  0  0
    4.2019    2.2265    2.3679 C   0  0  0  0  0  0  0  0  0  0  0  0
    4.0341    3.0251    3.3641 O   0  0  0  0  0  0  0  0  0  0  0  0
    4.7998    5.3870    1.7252 C   0  0  0  0  0  0  0  0  0  0  0  0
    6.0985    5.8404    1.2853 C   0  0  0  0  0  0  0  0  0  0  0  0
    6.2988    7.0676    0.5953 C   0  0  0  0  0  0  0  0  0  0  0  0
    7.6241    7.1965    0.3336 N   0  0  0  0  0  0  0  0  0  0  0  0
    8.3002    6.1345    0.8086 C   0  0  0  0  0  0  0  0  0  0  0  0
    7.3701    5.3304    1.3781 C   0  0  0  0  0  0  0  0  0  0  0  0
    7.7940    4.1429    1.9758 C   0  0  0  0  0  0  0  0  0  0  0  0
    9.1237    3.8368    1.9638 C   0  0  0  0  0  0  0  0  0  0  0  0
   10.0581    4.6853    1.3700 C   0  0  0  0  0  0  0  0  0  0  0  0
    9.6521    5.8587    0.7784 C   0  0  0  0  0  0  0  0  0  0  0  0
    3.4904    5.2239   -3.2329 C   0  0  0  0  0  0  0  0  0  0  0  0
    4.9265    5.4018   -3.1121 C   0  0  0  0  0  0  0  0  0  0  0  0
    5.5103    6.2025   -2.3693 O   0  0  0  0  0  0  0  0  0  0  0  0
    5.7660    4.5625   -3.9402 N   0  0  0  0  0  0  0  0  0  0  0  0
   -0.8678    3.2765   -1.8218 C   0  0  0  0  0  0  0  0  0  0  0  0
   -4.8201    6.1795    0.5231 C   0  0  0  0  0  0  0  0  0  0  0  0
   -5.6601    6.4811    1.6897 C   0  0  0  0  0  0  0  0  0  0  0  0
   -6.9285    5.9555    1.7919 C   0  0  0  0  0  0  0  0  0  0  0  0
   -7.7644    6.2042    2.8593 C   0  0  0  0  0  0  0  0  0  0  0  0
   -7.2791    7.0218    3.8587 C   0  0  0  0  0  0  0  0  0  0  0  0
   -6.0102    7.5475    3.7558 C   0  0  0  0  0  0  0  0  0  0  0  0
   -5.1703    7.3004    2.6854 C   0  0  0  0  0  0  0  0  0  0  0  0
   -5.1766    0.9252    1.8663 C   0  0  0  0  0  0  0  0  0  0  0  0
   -4.1438    1.4361    2.4314 O   0  0  0  0  0  0  0  0  0  0  0  0
   -5.7732   -0.1285    2.5319 O   0  0  0  0  0  0  0  0  0  0  0  0
   10.7829   -0.7125    2.2682 N   0  0  0  0  0  0  0  0  0  0  0  0
    9.1170    0.8839    4.7008 H   0  0  0  0  0  0  0  0  0  0  0  0
    9.9936   -0.6746    4.8539 H   0  0  0  0  0  0  0  0  0  0  0  0
    6.9476    1.3132    1.7281 H   0  0  0  0  0  0  0  0  0  0  0  0
    7.7517    1.5032    3.3106 H   0  0  0  0  0  0  0  0  0  0  0  0
    6.4473   -1.1937    2.5425 H   0  0  0  0  0  0  0  0  0  0  0  0
    7.0334   -0.5945    4.0691 H   0  0  0  0  0  0  0  0  0  0  0  0
    5.3650    1.0334    4.3608 H   0  0  0  0  0  0  0  0  0  0  0  0
    4.6912   -0.5857    4.1547 H   0  0  0  0  0  0  0  0  0  0  0  0
    3.2598    0.7590    3.3503 H   0  0  0  0  0  0  0  0  0  0  0  0
    2.7896   -0.4954    1.7347 H   0  0  0  0  0  0  0  0  0  0  0  0
    3.6473   -1.4450   -1.3543 H   0  0  0  0  0  0  0  0  0  0  0  0
    5.8258   -2.5250   -0.5057 H   0  0  0  0  0  0  0  0  0  0  0  0
    4.9701   -3.1179    0.9085 H   0  0  0  0  0  0  0  0  0  0  0  0
    5.5348   -3.3535   -2.6662 H   0  0  0  0  0  0  0  0  0  0  0  0
    5.2940   -5.3918   -3.9958 H   0  0  0  0  0  0  0  0  0  0  0  0
    3.3361   -7.2425   -0.7504 H   0  0  0  0  0  0  0  0  0  0  0  0
    3.5593   -5.1776    0.6428 H   0  0  0  0  0  0  0  0  0  0  0  0
    4.0901   -6.5974   -5.1662 H   0  0  0  0  0  0  0  0  0  0  0  0
    3.9864   -8.6744   -6.4852 H   0  0  0  0  0  0  0  0  0  0  0  0
    4.0428  -10.8880   -5.3672 H   0  0  0  0  0  0  0  0  0  0  0  0
    4.2113  -11.0224   -2.9112 H   0  0  0  0  0  0  0  0  0  0  0  0
    4.3135   -8.9697   -1.5840 H   0  0  0  0  0  0  0  0  0  0  0  0
    2.6687   -2.3567    1.3809 H   0  0  0  0  0  0  0  0  0  0  0  0
   -0.0057   -1.3153    1.2599 H   0  0  0  0  0  0  0  0  0  0  0  0
   -0.5118   -3.4855    2.4861 H   0  0  0  0  0  0  0  0  0  0  0  0
    1.2373   -3.2426    2.4426 H   0  0  0  0  0  0  0  0  0  0  0  0
    1.1813   -7.9079    1.5012 H   0  0  0  0  0  0  0  0  0  0  0  0
    0.7465   -7.2347   -0.9340 H   0  0  0  0  0  0  0  0  0  0  0  0
    0.2714   -4.6834   -0.9592 H   0  0  0  0  0  0  0  0  0  0  0  0
   -1.5657   -3.5735    0.2084 H   0  0  0  0  0  0  0  0  0  0  0  0
   -2.7881   -2.8284   -2.3277 H   0  0  0  0  0  0  0  0  0  0  0  0
   -3.9993   -2.7315    0.4435 H   0  0  0  0  0  0  0  0  0  0  0  0
   -5.5836   -4.8857    0.6424 H   0  0  0  0  0  0  0  0  0  0  0  0
   -3.6958   -4.0744    2.1363 H   0  0  0  0  0  0  0  0  0  0  0  0
   -2.7858   -5.5321    1.7039 H   0  0  0  0  0  0  0  0  0  0  0  0
   -3.5638   -7.7254    2.6177 H   0  0  0  0  0  0  0  0  0  0  0  0
   -4.8814   -8.8020    4.4692 H   0  0  0  0  0  0  0  0  0  0  0  0
   -6.9912   -5.2162    5.1710 H   0  0  0  0  0  0  0  0  0  0  0  0
   -5.7106   -4.0753    3.3371 H   0  0  0  0  0  0  0  0  0  0  0  0
   -7.5382   -7.2973    6.3364 H   0  0  0  0  0  0  0  0  0  0  0  0
   -5.4683   -6.9292   -0.3627 H   0  0  0  0  0  0  0  0  0  0  0  0
   -3.7472   -6.8742   -0.4332 H   0  0  0  0  0  0  0  0  0  0  0  0
   -3.4028   -0.5405   -2.6159 H   0  0  0  0  0  0  0  0  0  0  0  0
   -4.7956   -1.6136   -2.4452 H   0  0  0  0  0  0  0  0  0  0  0  0
   -7.4502    1.0287   -1.0663 H   0  0  0  0  0  0  0  0  0  0  0  0
   -9.0314   -0.6695   -2.5874 H   0  0  0  0  0  0  0  0  0  0  0  0
   -8.2151   -2.2451   -3.0138 H   0  0  0  0  0  0  0  0  0  0  0  0
   -5.3125    0.4643   -3.1979 H   0  0  0  0  0  0  0  0  0  0  0  0
   -5.8947    2.0310   -2.6874 H   0  0  0  0  0  0  0  0  0  0  0  0
   -8.1550    2.6676   -3.1906 H   0  0  0  0  0  0  0  0  0  0  0  0
   -9.8862    2.6581   -4.9013 H   0  0  0  0  0  0  0  0  0  0  0  0
   -8.2195   -1.0372   -6.4543 H   0  0  0  0  0  0  0  0  0  0  0  0
   -6.4915   -1.0120   -4.7212 H   0  0  0  0  0  0  0  0  0  0  0  0
  -11.0148    1.2739   -6.5646 H   0  0  0  0  0  0  0  0  0  0  0  0
   -7.4383    2.6611    0.0816 H   0  0  0  0  0  0  0  0  0  0  0  0
   -7.7224    0.9959    0.8553 H   0  0  0  0  0  0  0  0  0  0  0  0
   -7.1405    2.3242    1.8320 H   0  0  0  0  0  0  0  0  0  0  0  0
   -4.2394    2.6391   -0.6028 H   0  0  0  0  0  0  0  0  0  0  0  0
   -3.2683    5.1977    1.6115 H   0  0  0  0  0  0  0  0  0  0  0  0
   -3.4795    4.4020   -1.3307 H   0  0  0  0  0  0  0  0  0  0  0  0
   -1.3167    5.2692   -2.5583 H   0  0  0  0  0  0  0  0  0  0  0  0
    1.0467    4.9083   -0.6366 H   0  0  0  0  0  0  0  0  0  0  0  0
    3.0125    7.1357   -2.5093 H   0  0  0  0  0  0  0  0  0  0  0  0
    2.7125    6.4320   -0.1351 H   0  0  0  0  0  0  0  0  0  0  0  0
    2.9846    4.4480    1.5746 H   0  0  0  0  0  0  0  0  0  0  0  0
    4.8005    2.4172    0.3915 H   0  0  0  0  0  0  0  0  0  0  0  0
    4.1383    6.3090    1.7878 H   0  0  0  0  0  0  0  0  0  0  0  0
    4.8931    5.0789    2.8049 H   0  0  0  0  0  0  0  0  0  0  0  0
    5.5415    7.7780    0.3224 H   0  0  0  0  0  0  0  0  0  0  0  0
    8.0078    8.0363   -0.1733 H   0  0  0  0  0  0  0  0  0  0  0  0
    7.0162    3.5485    2.4268 H   0  0  0  0  0  0  0  0  0  0  0  0
    9.4675    2.9208    2.4310 H   0  0  0  0  0  0  0  0  0  0  0  0
   11.1074    4.4649    1.3504 H   0  0  0  0  0  0  0  0  0  0  0  0
   10.3661    6.5200    0.3140 H   0  0  0  0  0  0  0  0  0  0  0  0
    3.1960    5.6725   -4.2338 H   0  0  0  0  0  0  0  0  0  0  0  0
    3.1080    4.2088   -3.2685 H   0  0  0  0  0  0  0  0  0  0  0  0
    6.0061    4.8925   -4.8849 H   0  0  0  0  0  0  0  0  0  0  0  0
    6.0796    3.6555   -3.5274 H   0  0  0  0  0  0  0  0  0  0  0  0
   -0.5505    2.9972   -2.8304 H   0  0  0  0  0  0  0  0  0  0  0  0
   -0.1119    2.8670   -1.1170 H   0  0  0  0  0  0  0  0  0  0  0  0
   -1.8460    2.8546   -1.5361 H   0  0  0  0  0  0  0  0  0  0  0  0
   -5.5068    5.8455   -0.3116 H   0  0  0  0  0  0  0  0  0  0  0  0
   -4.2585    7.0230    0.1087 H   0  0  0  0  0  0  0  0  0  0  0  0
   -7.3360    5.3039    1.0081 H   0  0  0  0  0  0  0  0  0  0  0  0
   -8.7519    5.7633    2.8834 H   0  0  0  0  0  0  0  0  0  0  0  0
   -7.8750    7.2640    4.7247 H   0  0  0  0  0  0  0  0  0  0  0  0
   -5.5967    8.1938    4.5366 H   0  0  0  0  0  0  0  0  0  0  0  0
   -4.1830    7.7287    2.6327 H   0  0  0  0  0  0  0  0  0  0  0  0
   -5.2088   -0.7212    3.1235 H   0  0  0  0  0  0  0  0  0  0  0  0
   11.1853   -1.6247    2.5705 H   0  0  0  0  0  0  0  0  0  0  0  0
   11.2337   -0.1611    1.5069 H   0  0  0  0  0  0  0  0  0  0  0  0
  1  2  1  0
  2  3  2  3
  3  4  1  0
  4  5  1  0
  5  6  1  0
  6  7  1  0
  7  8  1  0
  8  9  1  0
  9 10  2  0
  9 11  1  0
 11 12  1  0
 12 13  1  0
 13 14  2  0
 14 15  1  0
 15 16  2  0
 16 17  1  0
 17 18  2  0
 16 19  1  0
 19 20  2  0
 20 21  1  0
 21 22  2  0
 22 23  1  0
 23 24  2  0
 11 25  1  0
 25 26  1  0
 26 27  2  0
 26 28  1  0
 28 29  1  0
 29 30  1  0
 30 31  1  0
 31 32  2  0
 32 33  1  0
 33 34  1  0
 28 35  1  0
 35 36  1  0
 36 37  2  0
 36 38  1  0
 38 39  1  0
 39 40  1  0
 40 41  2  0
 40 42  1  0
 42 43  1  0
 43 44  1  0
 44 45  2  0
 45 46  1  0
 46 47  2  0
 47 48  1  0
 48 49  2  0
 47 50  1  0
 42 51  1  0
 38 52  1  0
 52 53  1  0
 53 54  2  0
 53 55  1  0
 55 56  1  0
 56 57  1  0
 57 58  2  0
 57 59  1  0
 56 60  1  0
 60 61  1  0
 61 62  2  0
 62 63  1  0
 63 64  2  0
 64 65  1  0
 65 66  2  0
 64 67  1  0
 55 68  1  0
 68 69  1  1
 68 70  1  0
 70 71  1  0
 71 72  2  0
 71 73  1  0
 73 74  1  0
 74 75  1  0
 75 76  2  0
 75 77  1  0
 77 78  1  0
 78 79  1  0
 79 80  2  0
 79 81  1  0
 81 82  1  0
 82 83  1  0
 83 84  2  0
 83 85  1  0
 85 86  1  0
 86 87  1  0
 87 88  2  0
 85 89  1  0
 89 90  1  0
 90 91  2  0
 91 92  1  0
 92 93  1  0
 93 94  2  0
 94 95  1  0
 95 96  2  0
 96 97  1  0
 97 98  2  0
 81 99  1  0
 99100  1  0
100101  2  0
100102  1  0
 77103  1  0
 73104  1  0
104105  1  0
105106  2  0
106107  1  0
107108  2  0
108109  1  0
109110  2  0
 68111  1  0
111112  2  0
111113  1  0
  2114  1  0
 87  7  1  0
 94 90  1  0
110105  1  0
 18 13  1  0
 24 19  1  0
 34 30  2  0
 49 44  1  0
 66 61  1  0
 98 93  1  0
  1115  1  0
  1116  1  0
  4117  1  0
  4118  1  0
  5119  1  0
  5120  1  0
  6121  1  0
  6122  1  0
  7123  1  1
  8124  1  0
 11125  1  6
 12126  1  0
 12127  1  0
 14128  1  0
 15129  1  0
 17130  1  0
 18131  1  0
 20132  1  0
 21133  1  0
 22134  1  0
 23135  1  0
 24136  1  0
 25137  1  0
 28138  1  1
 29139  1  0
 29140  1  0
 32141  1  0
 33142  1  0
 34143  1  0
 35144  1  0
 38145  1  6
 39146  1  0
 42147  1  1
 43148  1  0
 43149  1  0
 45150  1  0
 46151  1  0
 48152  1  0
 49153  1  0
 50154  1  0
 51155  1  0
 51156  1  0
 52157  1  0
 52158  1  0
 56159  1  1
 59160  1  0
 59161  1  0
 60162  1  0
 60163  1  0
 62164  1  0
 63165  1  0
 65166  1  0
 66167  1  0
 67168  1  0
 69169  1  0
 69170  1  0
 69171  1  0
 70172  1  0
 73173  1  1
 74174  1  0
 77175  1  6
 78176  1  0
 81177  1  1
 82178  1  0
 85179  1  1
 86180  1  0
 89181  1  0
 89182  1  0
 91183  1  0
 92184  1  0
 95185  1  0
 96186  1  0
 97187  1  0
 98188  1  0
 99189  1  0
 99190  1  0
102191  1  0
102192  1  0
103193  1  0
103194  1  0
103195  1  0
104196  1  0
104197  1  0
106198  1  0
107199  1  0
108200  1  0
109201  1  0
110202  1  0
113203  1  0
114204  1  0
114205  1  0
M  END
>  <Ligand ID>  (1) 
LIG0001128

>  <Ligand>  (1) 
CHEMBL2369975

>  <SMILES>  (1) 
NC(=NCCC[C@@H]1NC(=O)[C@@H](Cc2ccc(cc2)c2ccccc2)NC(=O)[C@H](Cc2nc[nH]c2)NC(=O)[C@@H](NC(=O)[C@H](Cc2ccc(cc2)O)N)CC(=O)N([C@H](C(=O)N)Cc2ccc(cc2)O)[C@](C)(NC(=O)[C@@H](NC(=O)[C@@H](NC(=O)[C@@H](NC(=O)[C@@H](NC1=O)Cc1c[nH]c2c1cccc2)CC(=O)N)C)Cc1ccccc1)C(=O)O)N

>  <CID>  (1) 
73348447.0

>  <ChEMBL ID>  (1) 
nan

>  <InChiKey>  (1) 
MVCDKVTUKAVIJS-MMQIJEJZSA-N

>  <InChi>  (1) 
InChI=1S/C79H91N19O16/c1-43-68(104)91-59(33-44-12-5-3-6-13-44)76(112)97-79(2,77(113)114)98(64(67(82)103)35-47-23-29-53(100)30-24-47)66(102)39-63(92-69(105)55(80)32-45-21-27-52(99)28-22-45)75(111)95-61(37-51-41-85-42-88-51)74(110)93-58(34-46-19-25-49(26-20-46)48-14-7-4-8-15-48)72(108)90-57(18-11-31-86-78(83)84)70(106)94-60(36-50-40-87-56-17-10-9-16-54(50)56)73(109)96-62(38-65(81)101)71(107)89-43/h3-10,12-17,19-30,40-43,55,57-64,87,99-100H,11,18,31-39,80H2,1-2H3,(H2,81,101)(H2,82,103)(H,85,88)(H,89,107)(H,90,108)(H,91,104)(H,92,105)(H,93,110)(H,94,106)(H,95,111)(H,96,109)(H,97,112)(H,113,114)(H4,83,84,86)/t43-,55-,57-,58+,59-,60-,61-,62-,63-,64-,79-/m0/s1

>  <IUPAC Name>  (1) 
(2S,5S,8S,11S,14S,17S,20R,23S,26S)-1-[(2S)-1-amino-3-(4-hydroxyphenyl)-1-oxopropan-2-yl]-26-[[(2S)-2-amino-3-(4-hydroxyphenyl)propanoyl]amino]-11-(2-amino-2-oxoethyl)-5-benzyl-17-[3-(diaminomethylideneamino)propyl]-23-(1H-imidazol-4-ylmethyl)-14-(1H-indol-3-ylmethyl)-2,8-dimethyl-4,7,10,13,16,19,22,25,28-nonaoxo-20-[(4-phenylphenyl)methyl]-1,3,6,9,12,15,18,21,24-nonazacyclooctacosane-2-carboxylic acid

$$$$
