
     RDKit          3D

 82 89  0  0  0  0  0  0  0  0999 V2000
    1.4905   -3.3445   -0.3707 C   0  0  0  0  0  0  0  0  0  0  0  0
    1.6372   -2.0656    0.0334 O   0  0  0  0  0  0  0  0  0  0  0  0
    0.5995   -1.2040    0.0211 C   0  0  2  0  0  0  0  0  0  0  0  0
    0.1430   -1.1346   -1.4305 C   0  0  0  0  0  0  0  0  0  0  0  0
   -0.8301   -0.0316   -1.6146 C   0  0  0  0  0  0  0  0  0  0  0  0
   -1.4306    0.3053   -0.2799 C   0  0  2  0  0  0  0  0  0  0  0  0
   -0.3600    1.0579    0.4624 C   0  0  0  0  0  0  0  0  0  0  0  0
    0.8668    0.1259    0.6149 C   0  0  2  0  0  0  0  0  0  0  0  0
    2.1073    0.8621    0.6124 C   0  0  2  0  0  0  0  0  0  0  0  0
    3.3463    0.3930    1.2840 C   0  0  0  0  0  0  0  0  0  0  0  0
    4.1048   -0.7994    1.0320 C   0  0  0  0  0  0  0  0  0  0  0  0
    4.7104   -1.0663   -0.2980 C   0  0  0  0  0  0  0  0  0  0  0  0
    5.5920    0.0106   -0.8325 C   0  0  0  0  0  0  0  0  0  0  0  0
    6.5222    0.5594    0.1747 C   0  0  0  0  0  0  0  0  0  0  0  0
    6.1783    0.4118    1.6031 C   0  0  0  0  0  0  0  0  0  0  0  0
    5.3233   -0.7226    2.0046 C   0  0  0  0  0  0  0  0  0  0  0  0
    1.8362    2.0435    1.4123 O   0  0  0  0  0  0  0  0  0  0  0  0
    2.4400    1.5809   -0.6997 C   0  0  0  0  0  0  0  0  0  0  0  0
   -1.7808   -0.9003    0.5122 C   0  0  2  0  0  0  0  0  0  0  0  0
   -0.5703   -1.7719    0.8008 C   0  0  1  0  0  0  0  0  0  0  0  0
   -1.0465   -3.0255    0.4555 O   0  0  0  0  0  0  0  0  0  0  0  0
   -2.1190   -3.0137   -0.4265 C   0  0  0  0  0  0  0  0  0  0  0  0
   -2.5563   -1.7233   -0.4555 C   0  0  0  0  0  0  0  0  0  0  0  0
   -3.5539   -1.1816   -1.1612 C   0  0  0  0  0  0  0  0  0  0  0  0
   -3.7885    0.2745   -1.0934 C   0  0  0  0  0  0  0  0  0  0  0  0
   -2.7041    1.0931   -0.4895 C   0  0  1  0  0  0  0  0  0  0  0  0
   -3.1877    1.5729    0.7759 N   0  0  0  0  0  0  0  0  0  0  0  0
   -3.3655    0.6032    1.7646 C   0  0  0  0  0  0  0  0  0  0  0  0
   -2.5702   -0.6432    1.7199 C   0  0  0  0  0  0  0  0  0  0  0  0
   -3.4937    2.9077    0.9593 C   0  0  0  0  0  0  0  0  0  0  0  0
   -4.7065    3.4265    0.2466 C   0  0  0  0  0  0  0  0  0  0  0  0
   -4.9242    3.4413   -1.1927 C   0  0  0  0  0  0  0  0  0  0  0  0
   -4.5233    4.7571   -0.5399 C   0  0  0  0  0  0  0  0  0  0  0  0
   -4.2641   -2.0555   -1.9866 C   0  0  0  0  0  0  0  0  0  0  0  0
   -3.8823   -3.4050   -2.0130 C   0  0  0  0  0  0  0  0  0  0  0  0
   -2.8154   -3.8868   -1.2389 C   0  0  0  0  0  0  0  0  0  0  0  0
   -2.4288   -5.2123   -1.2572 O   0  0  0  0  0  0  0  0  0  0  0  0
    1.1409   -3.4615   -1.4392 H   0  0  0  0  0  0  0  0  0  0  0  0
    1.0172   -4.0546    0.3247 H   0  0  0  0  0  0  0  0  0  0  0  0
    2.5514   -3.7569   -0.4568 H   0  0  0  0  0  0  0  0  0  0  0  0
    1.0197   -1.0798   -2.1200 H   0  0  0  0  0  0  0  0  0  0  0  0
   -0.3316   -2.0896   -1.7029 H   0  0  0  0  0  0  0  0  0  0  0  0
   -1.5958   -0.2600   -2.3868 H   0  0  0  0  0  0  0  0  0  0  0  0
   -0.2749    0.8671   -1.9612 H   0  0  0  0  0  0  0  0  0  0  0  0
   -0.1265    1.9181   -0.2205 H   0  0  0  0  0  0  0  0  0  0  0  0
   -0.6705    1.5187    1.3962 H   0  0  0  0  0  0  0  0  0  0  0  0
    0.7453   -0.1330    1.7595 H   0  0  0  0  0  0  0  0  0  0  0  0
    4.0863    1.2650    1.3554 H   0  0  0  0  0  0  0  0  0  0  0  0
    3.0418    0.3402    2.4060 H   0  0  0  0  0  0  0  0  0  0  0  0
    3.6653   -1.7700    1.3977 H   0  0  0  0  0  0  0  0  0  0  0  0
    5.4110   -1.9531   -0.1336 H   0  0  0  0  0  0  0  0  0  0  0  0
    4.0156   -1.4711   -1.0687 H   0  0  0  0  0  0  0  0  0  0  0  0
    5.0740    0.7869   -1.4468 H   0  0  0  0  0  0  0  0  0  0  0  0
    6.2364   -0.5062   -1.6190 H   0  0  0  0  0  0  0  0  0  0  0  0
    7.5686    0.2218   -0.0068 H   0  0  0  0  0  0  0  0  0  0  0  0
    6.5790    1.6783   -0.0242 H   0  0  0  0  0  0  0  0  0  0  0  0
    7.1803    0.2243    2.1400 H   0  0  0  0  0  0  0  0  0  0  0  0
    5.8861    1.3924    2.0972 H   0  0  0  0  0  0  0  0  0  0  0  0
    5.8723   -1.6644    1.9677 H   0  0  0  0  0  0  0  0  0  0  0  0
    4.8935   -0.5034    3.0103 H   0  0  0  0  0  0  0  0  0  0  0  0
    1.3094    2.6919    0.9020 H   0  0  0  0  0  0  0  0  0  0  0  0
    2.6812    0.9255   -1.5216 H   0  0  0  0  0  0  0  0  0  0  0  0
    1.7008    2.3793   -0.8869 H   0  0  0  0  0  0  0  0  0  0  0  0
    3.3835    2.1489   -0.4445 H   0  0  0  0  0  0  0  0  0  0  0  0
   -0.3897   -1.6562    1.9013 H   0  0  0  0  0  0  0  0  0  0  0  0
   -4.7471    0.3944   -0.5015 H   0  0  0  0  0  0  0  0  0  0  0  0
   -4.0916    0.6695   -2.1089 H   0  0  0  0  0  0  0  0  0  0  0  0
   -2.4083    1.9682   -1.0982 H   0  0  0  0  0  0  0  0  0  0  0  0
   -3.2218    1.0978    2.7647 H   0  0  0  0  0  0  0  0  0  0  0  0
   -4.4643    0.3272    1.7728 H   0  0  0  0  0  0  0  0  0  0  0  0
   -1.9649   -0.7884    2.6783 H   0  0  0  0  0  0  0  0  0  0  0  0
   -3.2976   -1.5164    1.8130 H   0  0  0  0  0  0  0  0  0  0  0  0
   -3.6132    3.2063    2.0536 H   0  0  0  0  0  0  0  0  0  0  0  0
   -2.6148    3.5550    0.6229 H   0  0  0  0  0  0  0  0  0  0  0  0
   -5.6532    3.4114    0.8839 H   0  0  0  0  0  0  0  0  0  0  0  0
   -4.2885    3.0320   -1.9751 H   0  0  0  0  0  0  0  0  0  0  0  0
   -6.0022    3.4863   -1.5408 H   0  0  0  0  0  0  0  0  0  0  0  0
   -5.2491    5.5537   -0.3942 H   0  0  0  0  0  0  0  0  0  0  0  0
   -3.4622    5.1023   -0.6820 H   0  0  0  0  0  0  0  0  0  0  0  0
   -5.0780   -1.6736   -2.5741 H   0  0  0  0  0  0  0  0  0  0  0  0
   -4.4350   -4.1062   -2.6582 H   0  0  0  0  0  0  0  0  0  0  0  0
   -3.0747   -5.9573   -1.3836 H   0  0  0  0  0  0  0  0  0  0  0  0
  1  2  1  0
  3  2  1  6
  3  4  1  0
  4  5  1  0
  6  5  1  6
  6  7  1  0
  7  8  1  0
  8  9  1  0
  9 10  1  0
 10 11  1  0
 11 12  1  0
 12 13  1  0
 13 14  1  0
 14 15  1  0
 15 16  1  0
  9 17  1  1
  9 18  1  0
  6 19  1  0
 19 20  1  0
 20 21  1  0
 21 22  1  0
 22 23  2  0
 23 24  1  0
 24 25  1  0
 25 26  1  0
 26 27  1  0
 27 28  1  0
 28 29  1  0
 27 30  1  0
 30 31  1  0
 31 32  1  0
 32 33  1  0
 24 34  2  0
 34 35  1  0
 35 36  2  0
 36 37  1  0
  8  3  1  0
 16 11  1  0
 19 29  1  1
 33 31  1  0
 20  3  1  0
 36 22  1  0
 26  6  1  0
 23 19  1  0
  1 38  1  0
  1 39  1  0
  1 40  1  0
  4 41  1  0
  4 42  1  0
  5 43  1  0
  5 44  1  0
  7 45  1  0
  7 46  1  0
  8 47  1  1
 10 48  1  0
 10 49  1  0
 11 50  1  0
 12 51  1  0
 12 52  1  0
 13 53  1  0
 13 54  1  0
 14 55  1  0
 14 56  1  0
 15 57  1  0
 15 58  1  0
 16 59  1  0
 16 60  1  0
 17 61  1  0
 18 62  1  0
 18 63  1  0
 18 64  1  0
 20 65  1  1
 25 66  1  0
 25 67  1  0
 26 68  1  6
 28 69  1  0
 28 70  1  0
 29 71  1  0
 29 72  1  0
 30 73  1  0
 30 74  1  0
 31 75  1  0
 32 76  1  0
 32 77  1  0
 33 78  1  0
 33 79  1  0
 34 80  1  0
 35 81  1  0
 37 82  1  0
M  END
>  <Ligand ID>  (1) 
LIG0005089

>  <Ligand>  (1) 
CHEMBL2338733

>  <SMILES>  (1) 
CO[C@]12CC[C@]3(C[C@@H]1[C@](CC1CCCCC1)(O)C)[C@@]14[C@H]2Oc2c4c(C[C@H]3N(CC1)CC1CC1)ccc2O

>  <CID>  (1) 
71624778.0

>  <ChEMBL ID>  (1) 
nan

>  <InChiKey>  (1) 
GQUAAJHEELJJGV-DGDULGEYSA-N

>  <InChi>  (1) 
InChI=1S/C32H45NO4/c1-29(35,17-20-6-4-3-5-7-20)24-18-30-12-13-32(24,36-2)28-31(30)14-15-33(19-21-8-9-21)25(30)16-22-10-11-23(34)27(37-28)26(22)31/h10-11,20-21,24-25,28,34-35H,3-9,12-19H2,1-2H3/t24-,25-,28-,29+,30-,31+,32-/m1/s1

>  <IUPAC Name>  (1) 
(1S,2S,6R,14R,15R,16R)-16-[(2S)-1-cyclohexyl-2-hydroxypropan-2-yl]-5-(cyclopropylmethyl)-15-methoxy-13-oxa-5-azahexacyclo[13.2.2.12,8.01,6.02,14.012,20]icosa-8(20),9,11-trien-11-ol

$$$$
