
     RDKit          3D

 41 43  0  0  0  0  0  0  0  0999 V2000
   -0.0513   -3.5840   -2.3941 Br  0  0  0  0  0  0  0  0  0  0  0  0
   -0.4701   -2.0125   -1.4004 C   0  0  0  0  0  0  0  0  0  0  0  0
   -1.6440   -2.0025   -0.6838 C   0  0  0  0  0  0  0  0  0  0  0  0
   -2.0086   -0.8996    0.0567 C   0  0  0  0  0  0  0  0  0  0  0  0
   -3.2977   -1.1259    0.7316 C   0  0  0  0  0  0  0  0  0  0  0  0
   -3.0826   -1.2201    2.2478 C   0  0  0  0  0  0  0  0  0  0  0  0
   -4.2239    0.0554    0.5121 C   0  0  0  0  0  0  0  0  0  0  0  0
   -3.7426    1.0669    1.4298 N   0  0  0  0  0  0  0  0  0  0  0  0
   -2.7809    1.9456    0.8971 C   0  0  0  0  0  0  0  0  0  0  0  0
   -1.3884    1.4556    0.7895 C   0  0  0  0  0  0  0  0  0  0  0  0
   -1.1818    0.1999    0.0728 C   0  0  0  0  0  0  0  0  0  0  0  0
   -0.0080    0.1646   -0.6557 C   0  0  0  0  0  0  0  0  0  0  0  0
    0.4013   -0.9045   -1.4071 C   0  0  0  0  0  0  0  0  0  0  0  0
    1.5225   -1.0252   -2.1446 O   0  0  0  0  0  0  0  0  0  0  0  0
    2.6110   -0.2714   -2.4447 C   0  0  0  0  0  0  0  0  0  0  0  0
    3.4868    0.1484   -1.3443 C   0  0  0  0  0  0  0  0  0  0  0  0
    4.4795   -0.7597   -0.9547 C   0  0  0  0  0  0  0  0  0  0  0  0
    5.3591   -0.4421    0.0587 C   0  0  0  0  0  0  0  0  0  0  0  0
    5.3018    0.7549    0.7177 C   0  0  0  0  0  0  0  0  0  0  0  0
    4.3192    1.6712    0.3424 C   0  0  0  0  0  0  0  0  0  0  0  0
    3.4496    1.3302   -0.6758 C   0  0  0  0  0  0  0  0  0  0  0  0
   -2.2883   -2.8569   -0.6949 H   0  0  0  0  0  0  0  0  0  0  0  0
   -3.8074   -2.0462    0.3840 H   0  0  0  0  0  0  0  0  0  0  0  0
   -2.4535   -2.0898    2.4443 H   0  0  0  0  0  0  0  0  0  0  0  0
   -4.0284   -1.3090    2.7824 H   0  0  0  0  0  0  0  0  0  0  0  0
   -2.5284   -0.3349    2.6036 H   0  0  0  0  0  0  0  0  0  0  0  0
   -4.1365    0.3392   -0.5539 H   0  0  0  0  0  0  0  0  0  0  0  0
   -5.2856   -0.2071    0.6838 H   0  0  0  0  0  0  0  0  0  0  0  0
   -4.5866    1.6056    1.7188 H   0  0  0  0  0  0  0  0  0  0  0  0
   -2.8008    2.9020    1.4596 H   0  0  0  0  0  0  0  0  0  0  0  0
   -3.1036    2.2042   -0.1471 H   0  0  0  0  0  0  0  0  0  0  0  0
   -0.7486    2.2282    0.3069 H   0  0  0  0  0  0  0  0  0  0  0  0
   -0.9836    1.3266    1.8179 H   0  0  0  0  0  0  0  0  0  0  0  0
    0.6059    1.0415   -0.6215 H   0  0  0  0  0  0  0  0  0  0  0  0
    2.2405    0.6376   -3.0228 H   0  0  0  0  0  0  0  0  0  0  0  0
    3.2334   -0.7991   -3.2114 H   0  0  0  0  0  0  0  0  0  0  0  0
    4.5671   -1.7270   -1.4480 H   0  0  0  0  0  0  0  0  0  0  0  0
    6.1006   -1.1741    0.3185 H   0  0  0  0  0  0  0  0  0  0  0  0
    5.9655    1.0395    1.5089 H   0  0  0  0  0  0  0  0  0  0  0  0
    4.2771    2.6163    0.8664 H   0  0  0  0  0  0  0  0  0  0  0  0
    2.7103    2.0581   -0.9464 H   0  0  0  0  0  0  0  0  0  0  0  0
  1  2  1  0
  2  3  2  0
  3  4  1  0
  4  5  1  0
  5  6  1  0
  5  7  1  0
  7  8  1  0
  8  9  1  0
  9 10  1  0
 10 11  1  0
 11 12  1  0
 12 13  2  0
 13 14  1  0
 14 15  1  0
 15 16  1  0
 16 17  2  0
 17 18  1  0
 18 19  2  0
 19 20  1  0
 20 21  2  0
 13  2  1  0
 21 16  1  0
 11  4  2  0
  3 22  1  0
  5 23  1  0
  6 24  1  0
  6 25  1  0
  6 26  1  0
  7 27  1  0
  7 28  1  0
  8 29  1  0
  9 30  1  0
  9 31  1  0
 10 32  1  0
 10 33  1  0
 12 34  1  0
 15 35  1  0
 15 36  1  0
 17 37  1  0
 18 38  1  0
 19 39  1  0
 20 40  1  0
 21 41  1  0
M  END
>  <Ligand ID>  (1) 
LIG0004026

>  <Ligand>  (1) 
CHEMBL179244

>  <SMILES>  (1) 
Brc1cc2C(C)CNCCc2cc1OCc1ccccc1

>  <CID>  (1) 
10472780.0

>  <ChEMBL ID>  (1) 
nan

>  <InChiKey>  (1) 
BNEIDDXVFTVOOR-UHFFFAOYSA-N

>  <InChi>  (1) 
InChI=1S/C18H20BrNO/c1-13-11-20-8-7-15-9-18(17(19)10-16(13)15)21-12-14-5-3-2-4-6-14/h2-6,9-10,13,20H,7-8,11-12H2,1H3

>  <IUPAC Name>  (1) 
7-bromo-5-methyl-8-phenylmethoxy-2,3,4,5-tetrahydro-1H-3-benzazepine

$$$$
