
     RDKit          3D

 23 24  0  0  0  0  0  0  0  0999 V2000
    3.9047    0.2221    0.1080 C   0  0  0  0  0  0  0  0  0  0  0  0
    2.7513   -0.7230    0.1455 C   0  0  0  0  0  0  0  0  0  0  0  0
    2.9804   -1.9672    0.2411 O   0  0  0  0  0  0  0  0  0  0  0  0
    1.4058   -0.1845    0.0712 C   0  0  0  0  0  0  0  0  0  0  0  0
    1.1244    1.1630   -0.0332 C   0  0  0  0  0  0  0  0  0  0  0  0
   -0.1924    1.6253   -0.1013 C   0  0  0  0  0  0  0  0  0  0  0  0
   -1.2584    0.7260   -0.0648 C   0  0  0  0  0  0  0  0  0  0  0  0
   -0.9536   -0.6166    0.0398 C   0  0  0  0  0  0  0  0  0  0  0  0
    0.3448   -1.0871    0.1080 C   0  0  0  0  0  0  0  0  0  0  0  0
   -1.9846   -1.5573    0.0802 C   0  0  0  0  0  0  0  0  0  0  0  0
   -3.3028   -1.1452    0.0157 C   0  0  0  0  0  0  0  0  0  0  0  0
   -3.5791    0.2032   -0.0886 C   0  0  0  0  0  0  0  0  0  0  0  0
   -2.5748    1.1557   -0.1305 C   0  0  0  0  0  0  0  0  0  0  0  0
    3.8129    0.8557   -0.8214 H   0  0  0  0  0  0  0  0  0  0  0  0
    3.8761    0.9114    0.9880 H   0  0  0  0  0  0  0  0  0  0  0  0
    4.8685   -0.3083    0.1582 H   0  0  0  0  0  0  0  0  0  0  0  0
    1.9446    1.8675   -0.0622 H   0  0  0  0  0  0  0  0  0  0  0  0
   -0.3899    2.6987   -0.1837 H   0  0  0  0  0  0  0  0  0  0  0  0
    0.5075   -2.1436    0.1883 H   0  0  0  0  0  0  0  0  0  0  0  0
   -1.7610   -2.6009    0.1612 H   0  0  0  0  0  0  0  0  0  0  0  0
   -4.1253   -1.8274    0.0430 H   0  0  0  0  0  0  0  0  0  0  0  0
   -4.6263    0.5165   -0.1389 H   0  0  0  0  0  0  0  0  0  0  0  0
   -2.7727    2.2160   -0.2121 H   0  0  0  0  0  0  0  0  0  0  0  0
  1  2  1  0
  2  3  2  0
  2  4  1  0
  4  5  2  0
  5  6  1  0
  6  7  2  0
  7  8  1  0
  8  9  2  0
  8 10  1  0
 10 11  2  0
 11 12  1  0
 12 13  2  0
  9  4  1  0
 13  7  1  0
  1 14  1  0
  1 15  1  0
  1 16  1  0
  5 17  1  0
  6 18  1  0
  9 19  1  0
 10 20  1  0
 11 21  1  0
 12 22  1  0
 13 23  1  0
M  END
>  <Ligand ID>  (1) 
LIG0000063

>  <Ligand>  (1) 
2-Acetylnaphthalene

>  <SMILES>  (1) 
CC(=O)c1ccc2c(c1)cccc2

>  <CID>  (1) 
7122.0

>  <ChEMBL ID>  (1) 
nan

>  <InChiKey>  (1) 
XSAYZAUNJMRRIR-UHFFFAOYSA-N

>  <InChi>  (1) 
InChI=1S/C12H10O/c1-9(13)11-7-6-10-4-2-3-5-12(10)8-11/h2-8H,1H3

>  <IUPAC Name>  (1) 
1-naphthalen-2-ylethanone

$$$$
