
     RDKit          3D

 31 32  0  0  0  0  0  0  0  0999 V2000
    4.4538   -0.5372   -0.7096 C   0  0  0  0  0  0  0  0  0  0  0  0
    3.7681    0.5232   -0.1103 O   0  0  0  0  0  0  0  0  0  0  0  0
    2.4091    0.4917    0.0688 C   0  0  0  0  0  0  0  0  0  0  0  0
    1.5850   -0.5411   -0.3017 C   0  0  0  0  0  0  0  0  0  0  0  0
    0.2301   -0.5275   -0.1018 C   0  0  0  0  0  0  0  0  0  0  0  0
   -0.4744   -1.7523   -0.5803 C   0  0  0  0  0  0  0  0  0  0  0  0
   -1.5662   -2.1712    0.3543 C   0  0  0  0  0  0  0  0  0  0  0  0
   -2.7577   -1.3882    0.3031 N   0  0  0  0  0  0  0  0  0  0  0  0
   -2.6013   -0.0380   -0.1464 C   0  0  0  0  0  0  0  0  0  0  0  0
   -1.7878    0.8252    0.8258 C   0  0  1  0  0  0  0  0  0  0  0  0
   -0.3708    0.5637    0.4998 C   0  0  0  0  0  0  0  0  0  0  0  0
    0.4491    1.6102    0.8775 C   0  0  0  0  0  0  0  0  0  0  0  0
    1.8155    1.5893    0.6725 C   0  0  0  0  0  0  0  0  0  0  0  0
    2.7824    2.9723    1.1883 Cl  0  0  0  0  0  0  0  0  0  0  0  0
   -2.2183    2.2299    0.5945 C   0  0  0  0  0  0  0  0  0  0  0  0
    5.4543   -0.1612   -1.0722 H   0  0  0  0  0  0  0  0  0  0  0  0
    3.8652   -0.9720   -1.5432 H   0  0  0  0  0  0  0  0  0  0  0  0
    4.6351   -1.3241    0.0775 H   0  0  0  0  0  0  0  0  0  0  0  0
    2.0254   -1.4072   -0.7741 H   0  0  0  0  0  0  0  0  0  0  0  0
    0.2444   -2.6150   -0.6393 H   0  0  0  0  0  0  0  0  0  0  0  0
   -0.8450   -1.5816   -1.6222 H   0  0  0  0  0  0  0  0  0  0  0  0
   -1.8133   -3.2318    0.1321 H   0  0  0  0  0  0  0  0  0  0  0  0
   -1.1593   -2.1387    1.3862 H   0  0  0  0  0  0  0  0  0  0  0  0
   -3.2527   -1.4868    1.1953 H   0  0  0  0  0  0  0  0  0  0  0  0
   -3.6052    0.3907   -0.2948 H   0  0  0  0  0  0  0  0  0  0  0  0
   -2.1272   -0.0558   -1.1524 H   0  0  0  0  0  0  0  0  0  0  0  0
   -2.0141    0.5057    1.8598 H   0  0  0  0  0  0  0  0  0  0  0  0
    0.0063    2.4846    1.3542 H   0  0  0  0  0  0  0  0  0  0  0  0
   -1.7869    2.6118   -0.3638 H   0  0  0  0  0  0  0  0  0  0  0  0
   -2.0167    2.9247    1.4259 H   0  0  0  0  0  0  0  0  0  0  0  0
   -3.3267    2.2067    0.4687 H   0  0  0  0  0  0  0  0  0  0  0  0
  1  2  1  0
  2  3  1  0
  3  4  2  0
  4  5  1  0
  5  6  1  0
  6  7  1  0
  7  8  1  0
  8  9  1  0
  9 10  1  0
 10 11  1  0
 11 12  1  0
 12 13  2  0
 13 14  1  0
 10 15  1  0
 13  3  1  0
 11  5  2  0
  1 16  1  0
  1 17  1  0
  1 18  1  0
  4 19  1  0
  6 20  1  0
  6 21  1  0
  7 22  1  0
  7 23  1  0
  8 24  1  0
  9 25  1  0
  9 26  1  0
 10 27  1  1
 12 28  1  0
 15 29  1  0
 15 30  1  0
 15 31  1  0
M  END
>  <Ligand ID>  (1) 
LIG0002317

>  <Ligand>  (1) 
CHEMBL253806

>  <SMILES>  (1) 
COc1cc2CCNC[C@@H](c2cc1Cl)C

>  <CID>  (1) 
24773895.0

>  <ChEMBL ID>  (1) 
nan

>  <InChiKey>  (1) 
SJJIKXOJEDKQRJ-QMMMGPOBSA-N

>  <InChi>  (1) 
InChI=1S/C12H16ClNO/c1-8-7-14-4-3-9-5-12(15-2)11(13)6-10(8)9/h5-6,8,14H,3-4,7H2,1-2H3/t8-/m0/s1

>  <IUPAC Name>  (1) 
(5R)-7-chloro-8-methoxy-5-methyl-2,3,4,5-tetrahydro-1H-3-benzazepine

$$$$
