
     RDKit          3D

  7  6  0  0  0  0  0  0  0  0999 V2000
   -1.1849   -0.6259   -0.6926 S   0  0  0  0  0  0  0  0  0  0  0  0
   -0.1064    0.6617   -0.0038 C   0  0  0  0  0  0  0  0  0  0  0  0
    1.3947   -0.1904    0.5953 S   0  0  0  0  0  0  0  0  0  0  0  0
   -1.6203   -1.3862    0.4228 H   0  0  0  0  0  0  0  0  0  0  0  0
   -0.5911    1.1245    0.8769 H   0  0  0  0  0  0  0  0  0  0  0  0
    0.1354    1.3922   -0.7935 H   0  0  0  0  0  0  0  0  0  0  0  0
    1.9726   -0.9760   -0.4051 H   0  0  0  0  0  0  0  0  0  0  0  0
  1  2  1  0
  2  3  1  0
  1  4  1  0
  2  5  1  0
  2  6  1  0
  3  7  1  0
M  END
>  <Ligand ID>  (1) 
LIG0002108

>  <Ligand>  (1) 
methanedithiol

>  <SMILES>  (1) 
SCS

>  <CID>  (1) 
138818.0

>  <ChEMBL ID>  (1) 
nan

>  <InChiKey>  (1) 
INBDPOJZYZJUDA-UHFFFAOYSA-N

>  <InChi>  (1) 
InChI=1S/CH4S2/c2-1-3/h2-3H,1H2

>  <IUPAC Name>  (1) 
methanedithiol

$$$$
