
     RDKit          3D

 27 28  0  0  0  0  0  0  0  0999 V2000
   -0.9857   -2.3212   -0.8293 C   0  0  0  0  0  0  0  0  0  0  0  0
   -0.8054   -1.2622    0.2324 C   0  0  2  0  0  0  0  0  0  0  0  0
   -1.9922   -0.3172    0.1051 C   0  0  0  0  0  0  0  0  0  0  0  0
   -1.8836    0.6705    1.1316 N   0  0  0  0  0  0  0  0  0  0  0  0
   -1.3284    1.9324    0.7310 C   0  0  0  0  0  0  0  0  0  0  0  0
   -0.4322    1.8277   -0.4507 C   0  0  0  0  0  0  0  0  0  0  0  0
    0.6544    0.8402   -0.2285 C   0  0  0  0  0  0  0  0  0  0  0  0
    0.4467   -0.5013    0.0680 C   0  0  0  0  0  0  0  0  0  0  0  0
    1.5487   -1.2940    0.2471 C   0  0  0  0  0  0  0  0  0  0  0  0
    2.8356   -0.7861    0.1389 C   0  0  0  0  0  0  0  0  0  0  0  0
    4.2471   -1.8046    0.3690 Cl  0  0  0  0  0  0  0  0  0  0  0  0
    3.0356    0.5660   -0.1600 C   0  0  0  0  0  0  0  0  0  0  0  0
    1.9273    1.3597   -0.3394 C   0  0  0  0  0  0  0  0  0  0  0  0
    4.6472    1.2373   -0.3034 Cl  0  0  0  0  0  0  0  0  0  0  0  0
   -0.1254   -3.0068   -0.9056 H   0  0  0  0  0  0  0  0  0  0  0  0
   -1.8640   -2.9388   -0.5158 H   0  0  0  0  0  0  0  0  0  0  0  0
   -1.2091   -1.8512   -1.7902 H   0  0  0  0  0  0  0  0  0  0  0  0
   -0.8802   -1.7326    1.2507 H   0  0  0  0  0  0  0  0  0  0  0  0
   -2.8890   -0.9345    0.3458 H   0  0  0  0  0  0  0  0  0  0  0  0
   -2.1244    0.0422   -0.9141 H   0  0  0  0  0  0  0  0  0  0  0  0
   -2.6729    0.7450    1.7721 H   0  0  0  0  0  0  0  0  0  0  0  0
   -0.6946    2.2706    1.5854 H   0  0  0  0  0  0  0  0  0  0  0  0
   -2.0660    2.7273    0.5565 H   0  0  0  0  0  0  0  0  0  0  0  0
   -0.9748    1.6530   -1.4092 H   0  0  0  0  0  0  0  0  0  0  0  0
    0.0691    2.8125   -0.5954 H   0  0  0  0  0  0  0  0  0  0  0  0
    1.4584   -2.3570    0.4823 H   0  0  0  0  0  0  0  0  0  0  0  0
    2.0577    2.4230   -0.5745 H   0  0  0  0  0  0  0  0  0  0  0  0
  1  2  1  0
  2  3  1  0
  3  4  1  0
  4  5  1  0
  5  6  1  0
  6  7  1  0
  7  8  2  0
  8  9  1  0
  9 10  2  0
 10 11  1  0
 10 12  1  0
 12 13  2  0
 12 14  1  0
  8  2  1  0
 13  7  1  0
  1 15  1  0
  1 16  1  0
  1 17  1  0
  2 18  1  1
  3 19  1  0
  3 20  1  0
  4 21  1  0
  5 22  1  0
  5 23  1  0
  6 24  1  0
  6 25  1  0
  9 26  1  0
 13 27  1  0
M  END
>  <Ligand ID>  (1) 
LIG0002184

>  <Ligand>  (1) 
CHEMBL253805

>  <SMILES>  (1) 
C[C@@H]1CNCCc2c1cc(Cl)c(c2)Cl

>  <CID>  (1) 
24773816.0

>  <ChEMBL ID>  (1) 
nan

>  <InChiKey>  (1) 
KTCVEIAEKPSBCJ-SSDOTTSWSA-N

>  <InChi>  (1) 
InChI=1S/C11H13Cl2N/c1-7-6-14-3-2-8-4-10(12)11(13)5-9(7)8/h4-5,7,14H,2-3,6H2,1H3/t7-/m1/s1

>  <IUPAC Name>  (1) 
(5S)-7,8-dichloro-5-methyl-2,3,4,5-tetrahydro-1H-3-benzazepine

$$$$
