
     RDKit          3D

 57 60  0  0  0  0  0  0  0  0999 V2000
    0.5241    2.0959    0.4041 O   0  0  0  0  0  0  0  0  0  0  0  0
    0.0010    0.9000    0.8656 C   0  0  0  0  0  0  0  0  0  0  0  0
    0.8900   -0.2304    0.3300 C   0  0  0  0  0  0  0  0  0  0  0  0
    0.3782   -1.5493    0.7926 C   0  0  0  0  0  0  0  0  0  0  0  0
   -0.6291   -2.0975   -0.1868 C   0  0  0  0  0  0  0  0  0  0  0  0
   -1.2985   -1.0359   -0.8702 N   0  0  0  0  0  0  0  0  0  0  0  0
   -0.4620   -0.3140   -1.7763 C   0  0  0  0  0  0  0  0  0  0  0  0
    0.9122   -0.2248   -1.1819 C   0  0  0  0  0  0  0  0  0  0  0  0
   -2.6163   -1.3247   -1.3349 C   0  0  0  0  0  0  0  0  0  0  0  0
   -3.1555   -0.1164   -2.0202 C   0  0  0  0  0  0  0  0  0  0  0  0
   -2.9785    0.0982   -3.3834 C   0  0  0  0  0  0  0  0  0  0  0  0
   -3.5877    1.2863   -3.6977 C   0  0  0  0  0  0  0  0  0  0  0  0
   -4.1245    1.7663   -2.5016 C   0  0  0  0  0  0  0  0  0  0  0  0
   -3.8535    0.9109   -1.5132 N   0  0  0  0  0  0  0  0  0  0  0  0
   -4.2380    1.0617   -0.1586 C   0  0  0  0  0  0  0  0  0  0  0  0
   -5.1823    0.2167    0.3825 C   0  0  0  0  0  0  0  0  0  0  0  0
   -5.5124    0.4170    1.7064 C   0  0  0  0  0  0  0  0  0  0  0  0
   -4.9135    1.4230    2.4399 C   0  0  0  0  0  0  0  0  0  0  0  0
   -3.9907    2.2229    1.8523 N   0  0  0  0  0  0  0  0  0  0  0  0
   -3.6366    2.0657    0.5638 C   0  0  0  0  0  0  0  0  0  0  0  0
    2.2762    0.0899    0.8011 C   0  0  0  0  0  0  0  0  0  0  0  0
    3.3435   -0.8603    0.4111 C   0  0  0  0  0  0  0  0  0  0  0  0
    4.6692   -0.3972    0.9585 C   0  0  0  0  0  0  0  0  0  0  0  0
    5.4769    0.4411    0.2187 C   0  0  0  0  0  0  0  0  0  0  0  0
    6.6913    0.8750    0.6997 C   0  0  0  0  0  0  0  0  0  0  0  0
    7.1009    0.4596    1.9451 C   0  0  0  0  0  0  0  0  0  0  0  0
    6.2990   -0.3677    2.6702 C   0  0  0  0  0  0  0  0  0  0  0  0
    5.0753   -0.8192    2.2130 C   0  0  0  0  0  0  0  0  0  0  0  0
   -0.2316    2.5786   -0.0139 H   0  0  0  0  0  0  0  0  0  0  0  0
   -1.0591    0.7442    0.6854 H   0  0  0  0  0  0  0  0  0  0  0  0
    0.1218    0.9123    1.9803 H   0  0  0  0  0  0  0  0  0  0  0  0
   -0.1077   -1.4926    1.8025 H   0  0  0  0  0  0  0  0  0  0  0  0
    1.2117   -2.2997    0.8018 H   0  0  0  0  0  0  0  0  0  0  0  0
   -1.3442   -2.7941    0.2807 H   0  0  0  0  0  0  0  0  0  0  0  0
   -0.1049   -2.7099   -0.9768 H   0  0  0  0  0  0  0  0  0  0  0  0
   -0.4731   -0.8233   -2.7720 H   0  0  0  0  0  0  0  0  0  0  0  0
   -0.8949    0.7010   -1.9216 H   0  0  0  0  0  0  0  0  0  0  0  0
    1.4396   -1.1727   -1.4717 H   0  0  0  0  0  0  0  0  0  0  0  0
    1.4997    0.6284   -1.5701 H   0  0  0  0  0  0  0  0  0  0  0  0
   -3.2914   -1.5379   -0.4930 H   0  0  0  0  0  0  0  0  0  0  0  0
   -2.6708   -2.2040   -2.0378 H   0  0  0  0  0  0  0  0  0  0  0  0
   -2.4628   -0.5285   -4.1032 H   0  0  0  0  0  0  0  0  0  0  0  0
   -3.6264    1.7283   -4.6691 H   0  0  0  0  0  0  0  0  0  0  0  0
   -4.6667    2.7121   -2.4916 H   0  0  0  0  0  0  0  0  0  0  0  0
   -5.6411   -0.5650   -0.2042 H   0  0  0  0  0  0  0  0  0  0  0  0
   -6.2402   -0.1968    2.2079 H   0  0  0  0  0  0  0  0  0  0  0  0
   -5.1563    1.5949    3.4710 H   0  0  0  0  0  0  0  0  0  0  0  0
   -2.8906    2.7192    0.1032 H   0  0  0  0  0  0  0  0  0  0  0  0
    2.5610    1.1136    0.4872 H   0  0  0  0  0  0  0  0  0  0  0  0
    2.2896    0.1373    1.9298 H   0  0  0  0  0  0  0  0  0  0  0  0
    3.1993   -1.8705    0.8350 H   0  0  0  0  0  0  0  0  0  0  0  0
    3.5032   -0.9701   -0.6688 H   0  0  0  0  0  0  0  0  0  0  0  0
    5.1100    0.7405   -0.7569 H   0  0  0  0  0  0  0  0  0  0  0  0
    7.3054    1.5325    0.0980 H   0  0  0  0  0  0  0  0  0  0  0  0
    8.0541    0.7786    2.3629 H   0  0  0  0  0  0  0  0  0  0  0  0
    6.6454   -0.6868    3.6609 H   0  0  0  0  0  0  0  0  0  0  0  0
    4.4626   -1.4755    2.8139 H   0  0  0  0  0  0  0  0  0  0  0  0
  1  2  1  0
  2  3  1  0
  3  4  1  0
  4  5  1  0
  5  6  1  0
  6  7  1  0
  7  8  1  0
  6  9  1  0
  9 10  1  0
 10 11  2  0
 11 12  1  0
 12 13  2  0
 13 14  1  0
 14 15  1  0
 15 16  2  0
 16 17  1  0
 17 18  2  0
 18 19  1  0
 19 20  2  0
  3 21  1  0
 21 22  1  0
 22 23  1  0
 23 24  2  0
 24 25  1  0
 25 26  2  0
 26 27  1  0
 27 28  2  0
  8  3  1  0
 14 10  1  0
 20 15  1  0
 28 23  1  0
  1 29  1  0
  2 30  1  0
  2 31  1  0
  4 32  1  0
  4 33  1  0
  5 34  1  0
  5 35  1  0
  7 36  1  0
  7 37  1  0
  8 38  1  0
  8 39  1  0
  9 40  1  0
  9 41  1  0
 11 42  1  0
 12 43  1  0
 13 44  1  0
 16 45  1  0
 17 46  1  0
 18 47  1  0
 20 48  1  0
 21 49  1  0
 21 50  1  0
 22 51  1  0
 22 52  1  0
 24 53  1  0
 25 54  1  0
 26 55  1  0
 27 56  1  0
 28 57  1  0
M  END
>  <Ligand ID>  (1) 
LIG0003132

>  <Ligand>  (1) 
MLS000773295

>  <SMILES>  (1) 
OCC1(CCN(CC1)Cc1cccn1c1cccnc1)CCc1ccccc1

>  <CID>  (1) 
16188490.0

>  <ChEMBL ID>  (1) 
nan

>  <InChiKey>  (1) 
KSACWQKQWKGSAM-UHFFFAOYSA-N

>  <InChi>  (1) 
InChI=1S/C24H29N3O/c28-20-24(11-10-21-6-2-1-3-7-21)12-16-26(17-13-24)19-23-9-5-15-27(23)22-8-4-14-25-18-22/h1-9,14-15,18,28H,10-13,16-17,19-20H2

>  <IUPAC Name>  (1) 
[4-(2-phenylethyl)-1-[(1-pyridin-3-ylpyrrol-2-yl)methyl]piperidin-4-yl]methanol

$$$$
