
     RDKit          3D

 12 12  0  0  0  0  0  0  0  0999 V2000
   -1.9246   -0.1548    0.0458 C   0  0  0  0  0  0  0  0  0  0  0  0
   -0.4200   -0.1988    0.0103 C   0  0  0  0  0  0  0  0  0  0  0  0
    0.3750    0.9366   -0.0215 C   0  0  0  0  0  0  0  0  0  0  0  0
    1.6842    0.5005   -0.0479 C   0  0  0  0  0  0  0  0  0  0  0  0
    1.6272   -0.8793   -0.0309 C   0  0  0  0  0  0  0  0  0  0  0  0
    0.3557   -1.2336    0.0035 O   0  0  0  0  0  0  0  0  0  0  0  0
   -2.2107    0.1506    1.0665 H   0  0  0  0  0  0  0  0  0  0  0  0
   -2.3312    0.5615   -0.7149 H   0  0  0  0  0  0  0  0  0  0  0  0
   -2.2867   -1.1902   -0.1653 H   0  0  0  0  0  0  0  0  0  0  0  0
    0.0508    1.9655   -0.0254 H   0  0  0  0  0  0  0  0  0  0  0  0
    2.6028    1.1076   -0.0767 H   0  0  0  0  0  0  0  0  0  0  0  0
    2.4776   -1.5656   -0.0434 H   0  0  0  0  0  0  0  0  0  0  0  0
  1  2  1  0
  2  3  2  0
  3  4  1  0
  4  5  2  0
  5  6  1  0
  6  2  1  0
  1  7  1  0
  1  8  1  0
  1  9  1  0
  3 10  1  0
  4 11  1  0
  5 12  1  0
M  END
>  <Ligand ID>  (1) 
LIG0000739

>  <Ligand>  (1) 
2-methylfuran

>  <SMILES>  (1) 
Cc1ccco1

>  <CID>  (1) 
10797.0

>  <ChEMBL ID>  (1) 
nan

>  <InChiKey>  (1) 
VQKFNUFAXTZWDK-UHFFFAOYSA-N

>  <InChi>  (1) 
InChI=1S/C5H6O/c1-5-3-2-4-6-5/h2-4H,1H3

>  <IUPAC Name>  (1) 
2-methylfuran

$$$$
