
     RDKit          3D

 30 31  0  0  0  0  0  0  0  0999 V2000
   -3.4789    2.1538   -1.3619 C   0  0  0  0  0  0  0  0  0  0  0  0
   -1.8984    1.8688   -0.5794 S   0  0  0  0  0  0  0  0  0  0  0  0
   -1.8725    2.6985    0.6727 O   0  0  0  0  0  0  0  0  0  0  0  0
   -0.8741    2.3417   -1.5846 O   0  0  0  0  0  0  0  0  0  0  0  0
   -1.6594    0.1793   -0.2047 C   0  0  0  0  0  0  0  0  0  0  0  0
   -2.6599   -0.7024   -0.5347 C   0  0  0  0  0  0  0  0  0  0  0  0
   -2.5449   -2.0518   -0.2709 C   0  0  0  0  0  0  0  0  0  0  0  0
   -1.4042   -2.4871    0.3300 C   0  0  0  0  0  0  0  0  0  0  0  0
   -0.4027   -1.5982    0.6596 C   0  0  0  0  0  0  0  0  0  0  0  0
   -0.4701   -0.2442    0.4167 C   0  0  0  0  0  0  0  0  0  0  0  0
    0.5187    0.6914    0.7514 N   0  0  0  0  0  0  0  0  0  0  0  0
    1.7817    0.4685    1.3603 C   0  0  0  0  0  0  0  0  0  0  0  0
    2.8013   -0.2164    0.5769 C   0  0  0  0  0  0  0  0  0  0  0  0
    3.1954   -1.5254    0.4626 C   0  0  0  0  0  0  0  0  0  0  0  0
    4.2019   -1.6320   -0.4265 N   0  0  0  0  0  0  0  0  0  0  0  0
    4.4575   -0.3987   -0.8846 C   0  0  0  0  0  0  0  0  0  0  0  0
    3.6298    0.4498   -0.2938 N   0  0  0  0  0  0  0  0  0  0  0  0
   -4.3171    1.8407   -0.7310 H   0  0  0  0  0  0  0  0  0  0  0  0
   -3.4613    1.5754   -2.3079 H   0  0  0  0  0  0  0  0  0  0  0  0
   -3.4960    3.2618   -1.5629 H   0  0  0  0  0  0  0  0  0  0  0  0
   -3.5723   -0.3673   -1.0131 H   0  0  0  0  0  0  0  0  0  0  0  0
   -3.3452   -2.7130   -0.5419 H   0  0  0  0  0  0  0  0  0  0  0  0
   -1.3240   -3.5613    0.5348 H   0  0  0  0  0  0  0  0  0  0  0  0
    0.4662   -2.0066    1.1421 H   0  0  0  0  0  0  0  0  0  0  0  0
    0.2817    1.7112    0.5100 H   0  0  0  0  0  0  0  0  0  0  0  0
    2.2067    1.4702    1.6640 H   0  0  0  0  0  0  0  0  0  0  0  0
    1.6001   -0.1490    2.2773 H   0  0  0  0  0  0  0  0  0  0  0  0
    2.7866   -2.3457    0.9894 H   0  0  0  0  0  0  0  0  0  0  0  0
    5.2324   -0.2052   -1.6199 H   0  0  0  0  0  0  0  0  0  0  0  0
    3.6207    1.4932   -0.4778 H   0  0  0  0  0  0  0  0  0  0  0  0
  1  2  1  0
  2  3  2  0
  2  4  2  0
  2  5  1  0
  5  6  2  0
  6  7  1  0
  7  8  2  0
  8  9  1  0
  9 10  2  0
 10 11  1  0
 11 12  1  0
 12 13  1  0
 13 14  2  0
 14 15  1  0
 15 16  2  0
 16 17  1  0
 10  5  1  0
 17 13  1  0
  1 18  1  0
  1 19  1  0
  1 20  1  0
  6 21  1  0
  7 22  1  0
  8 23  1  0
  9 24  1  0
 11 25  1  0
 12 26  1  0
 12 27  1  0
 14 28  1  0
 16 29  1  0
 17 30  1  0
M  END
>  <Ligand ID>  (1) 
LIG0004914

>  <Ligand>  (1) 
CHEMBL116843

>  <SMILES>  (1) 
CS(=O)(=O)c1ccccc1NCc1cnc[nH]1

>  <CID>  (1) 
44343251.0

>  <ChEMBL ID>  (1) 
nan

>  <InChiKey>  (1) 
SIYVFOFBPDBXEI-UHFFFAOYSA-N

>  <InChi>  (1) 
InChI=1S/C11H13N3O2S/c1-17(15,16)11-5-3-2-4-10(11)13-7-9-6-12-8-14-9/h2-6,8,13H,7H2,1H3,(H,12,14)

>  <IUPAC Name>  (1) 
N-(1H-imidazol-5-ylmethyl)-2-methylsulfonylaniline

$$$$
