
     RDKit          3D

 57 58  0  0  0  0  0  0  0  0999 V2000
   -7.7983   -1.1845   -2.2100 C   0  0  0  0  0  0  0  0  0  0  0  0
   -7.4617    0.2562   -1.8905 C   0  0  0  0  0  0  0  0  0  0  0  0
   -5.9544    0.3876   -1.8203 C   0  0  0  0  0  0  0  0  0  0  0  0
   -5.4612   -0.5183   -0.7487 C   0  0  0  0  0  0  0  0  0  0  0  0
   -6.2514   -1.2275   -0.0777 O   0  0  0  0  0  0  0  0  0  0  0  0
   -4.0409   -0.6018   -0.4535 C   0  0  0  0  0  0  0  0  0  0  0  0
   -3.0924    0.1308   -1.1277 C   0  0  0  0  0  0  0  0  0  0  0  0
   -1.7354    0.0169   -0.8079 C   0  0  0  0  0  0  0  0  0  0  0  0
   -1.2731   -0.8137    0.1775 C   0  0  0  0  0  0  0  0  0  0  0  0
   -2.2621   -1.5535    0.8530 C   0  0  0  0  0  0  0  0  0  0  0  0
   -3.5938   -1.4438    0.5409 C   0  0  0  0  0  0  0  0  0  0  0  0
   -4.5241   -2.1970    1.2396 O   0  0  0  0  0  0  0  0  0  0  0  0
   -1.8751   -2.4927    1.9462 C   0  0  0  0  0  0  0  0  0  0  0  0
    0.0045   -1.0097    0.5728 O   0  0  0  0  0  0  0  0  0  0  0  0
    1.1189   -0.3784    0.0716 C   0  0  0  0  0  0  0  0  0  0  0  0
    1.1490    1.0913    0.3241 C   0  0  0  0  0  0  0  0  0  0  0  0
    2.3639    1.7395   -0.2718 C   0  0  0  0  0  0  0  0  0  0  0  0
    3.6040    1.1526    0.3189 C   0  0  0  0  0  0  0  0  0  0  0  0
    4.7839    1.7782   -0.2265 O   0  0  0  0  0  0  0  0  0  0  0  0
    6.0424    1.3450    0.2212 C   0  0  0  0  0  0  0  0  0  0  0  0
    6.1251    0.3311    1.1726 C   0  0  0  0  0  0  0  0  0  0  0  0
    7.3558   -0.1051    1.6223 C   0  0  0  0  0  0  0  0  0  0  0  0
    8.4825    0.4957    1.0982 C   0  0  0  0  0  0  0  0  0  0  0  0
    8.4317    1.5024    0.1545 C   0  0  0  0  0  0  0  0  0  0  0  0
    7.1970    1.9383   -0.2950 C   0  0  0  0  0  0  0  0  0  0  0  0
    7.0645    2.9227   -1.2205 F   0  0  0  0  0  0  0  0  0  0  0  0
    9.7757    0.0244    1.5828 C   0  0  0  0  0  0  0  0  0  0  0  0
    9.8286   -0.8928    2.4428 O   0  0  0  0  0  0  0  0  0  0  0  0
   10.9718    0.5819    1.1016 O   0  0  0  0  0  0  0  0  0  0  0  0
   -8.0312    0.6425   -0.5483 C   0  0  0  0  0  0  0  0  0  0  0  0
   -6.9159   -1.8453   -2.2424 H   0  0  0  0  0  0  0  0  0  0  0  0
   -8.4772   -1.5731   -1.4299 H   0  0  0  0  0  0  0  0  0  0  0  0
   -8.3382   -1.2560   -3.1671 H   0  0  0  0  0  0  0  0  0  0  0  0
   -7.8209    0.9507   -2.6744 H   0  0  0  0  0  0  0  0  0  0  0  0
   -5.5408    0.1696   -2.8043 H   0  0  0  0  0  0  0  0  0  0  0  0
   -5.6790    1.4270   -1.5332 H   0  0  0  0  0  0  0  0  0  0  0  0
   -3.4232    0.7991   -1.9136 H   0  0  0  0  0  0  0  0  0  0  0  0
   -1.0745    0.6143   -1.4079 H   0  0  0  0  0  0  0  0  0  0  0  0
   -4.3662   -3.1326    1.5839 H   0  0  0  0  0  0  0  0  0  0  0  0
   -1.9819   -3.5491    1.6792 H   0  0  0  0  0  0  0  0  0  0  0  0
   -0.8315   -2.3344    2.2911 H   0  0  0  0  0  0  0  0  0  0  0  0
   -2.5470   -2.3393    2.8384 H   0  0  0  0  0  0  0  0  0  0  0  0
    1.3489   -0.6327   -0.9910 H   0  0  0  0  0  0  0  0  0  0  0  0
    2.0116   -0.8115    0.6300 H   0  0  0  0  0  0  0  0  0  0  0  0
    1.2168    1.2092    1.4476 H   0  0  0  0  0  0  0  0  0  0  0  0
    0.2849    1.6748    0.0384 H   0  0  0  0  0  0  0  0  0  0  0  0
    2.3400    1.6104   -1.3843 H   0  0  0  0  0  0  0  0  0  0  0  0
    2.3782    2.8396   -0.0714 H   0  0  0  0  0  0  0  0  0  0  0  0
    3.6580    0.0726   -0.0154 H   0  0  0  0  0  0  0  0  0  0  0  0
    3.6208    1.1411    1.4100 H   0  0  0  0  0  0  0  0  0  0  0  0
    5.2328   -0.1344    1.5781 H   0  0  0  0  0  0  0  0  0  0  0  0
    7.4073   -0.8942    2.3623 H   0  0  0  0  0  0  0  0  0  0  0  0
    9.3404    1.9698   -0.2522 H   0  0  0  0  0  0  0  0  0  0  0  0
   11.7894   -0.0358    0.9802 H   0  0  0  0  0  0  0  0  0  0  0  0
   -7.2701    1.0479    0.1296 H   0  0  0  0  0  0  0  0  0  0  0  0
   -8.4538   -0.2705   -0.0575 H   0  0  0  0  0  0  0  0  0  0  0  0
   -8.8531    1.3644   -0.6335 H   0  0  0  0  0  0  0  0  0  0  0  0
  1  2  1  0
  2  3  1  0
  3  4  1  0
  4  5  2  0
  4  6  1  0
  6  7  2  0
  7  8  1  0
  8  9  2  0
  9 10  1  0
 10 11  2  0
 11 12  1  0
 10 13  1  0
  9 14  1  0
 14 15  1  0
 15 16  1  0
 16 17  1  0
 17 18  1  0
 18 19  1  0
 19 20  1  0
 20 21  2  0
 21 22  1  0
 22 23  2  0
 23 24  1  0
 24 25  2  0
 25 26  1  0
 23 27  1  0
 27 28  2  0
 27 29  1  0
  2 30  1  0
 11  6  1  0
 25 20  1  0
  1 31  1  0
  1 32  1  0
  1 33  1  0
  2 34  1  0
  3 35  1  0
  3 36  1  0
  7 37  1  0
  8 38  1  0
 12 39  1  0
 13 40  1  0
 13 41  1  0
 13 42  1  0
 15 43  1  0
 15 44  1  0
 16 45  1  0
 16 46  1  0
 17 47  1  0
 17 48  1  0
 18 49  1  0
 18 50  1  0
 21 51  1  0
 22 52  1  0
 24 53  1  0
 29 54  1  0
 30 55  1  0
 30 56  1  0
 30 57  1  0
M  END
>  <Ligand ID>  (1) 
LIG0003640

>  <Ligand>  (1) 
CHEMBL3287693

>  <SMILES>  (1) 
CC(CC(=O)c1ccc(c(c1O)C)OCCCCOc1ccc(cc1F)C(=O)O)C

>  <CID>  (1) 
90643871.0

>  <ChEMBL ID>  (1) 
nan

>  <InChiKey>  (1) 
XGADSIWWVNFIKN-UHFFFAOYSA-N

>  <InChi>  (1) 
InChI=1S/C23H27FO6/c1-14(2)12-19(25)17-7-9-20(15(3)22(17)26)29-10-4-5-11-30-21-8-6-16(23(27)28)13-18(21)24/h6-9,13-14,26H,4-5,10-12H2,1-3H3,(H,27,28)

>  <IUPAC Name>  (1) 
3-fluoro-4-[4-[3-hydroxy-2-methyl-4-(3-methylbutanoyl)phenoxy]butoxy]benzoic acid

$$$$
