
     RDKit          3D

 81 86  0  0  0  0  0  0  0  0999 V2000
   12.4054    1.5631    2.0774 C   0  0  0  0  0  0  0  0  0  0  0  0
   12.0260    1.0616    0.8049 O   0  0  0  0  0  0  0  0  0  0  0  0
   10.7091    0.7338    0.5187 C   0  0  0  0  0  0  0  0  0  0  0  0
    9.6933    0.8713    1.4404 C   0  0  0  0  0  0  0  0  0  0  0  0
    8.3907    0.5415    1.1411 C   0  0  0  0  0  0  0  0  0  0  0  0
    8.0326    0.0496   -0.1161 C   0  0  0  0  0  0  0  0  0  0  0  0
    9.0431   -0.0912   -1.0441 C   0  0  0  0  0  0  0  0  0  0  0  0
   10.3439    0.2419   -0.7341 C   0  0  0  0  0  0  0  0  0  0  0  0
   11.3891    0.0708   -1.7757 C   0  0  0  0  0  0  0  0  0  0  0  0
    6.6503   -0.2690   -0.3521 C   0  0  0  0  0  0  0  0  0  0  0  0
    5.7001    0.5066    0.3217 C   0  0  0  0  0  0  0  0  0  0  0  0
    4.3536    0.2635    0.1475 C   0  0  0  0  0  0  0  0  0  0  0  0
    3.9627   -0.7619   -0.7062 C   0  0  0  0  0  0  0  0  0  0  0  0
    4.8725   -1.5430   -1.3833 C   0  0  0  0  0  0  0  0  0  0  0  0
    6.2169   -1.2843   -1.1959 C   0  0  0  0  0  0  0  0  0  0  0  0
    2.4801   -0.9539   -0.8377 C   0  0  0  0  0  0  0  0  0  0  0  0
    2.0090   -1.9193    0.1981 C   0  0  0  0  0  0  0  0  0  0  0  0
    0.5965   -2.1880    0.1817 N   0  0  0  0  0  0  0  0  0  0  0  0
   -0.3590   -1.1525    0.3765 C   0  0  0  0  0  0  0  0  0  0  0  0
    0.1305    0.0138    0.5636 O   0  0  0  0  0  0  0  0  0  0  0  0
   -1.7980   -1.3772    0.3681 C   0  0  0  0  0  0  0  0  0  0  0  0
   -2.3999   -2.5834    0.1999 C   0  0  0  0  0  0  0  0  0  0  0  0
   -3.7973   -2.6606    0.2123 C   0  0  0  0  0  0  0  0  0  0  0  0
   -4.5860   -1.5503    0.3898 C   0  0  0  0  0  0  0  0  0  0  0  0
   -3.9889   -0.3450    0.5579 C   0  0  0  0  0  0  0  0  0  0  0  0
   -2.6169   -0.2702    0.5459 C   0  0  0  0  0  0  0  0  0  0  0  0
   -4.7889    0.9052    0.7552 C   0  0  0  0  0  0  0  0  0  0  0  0
   -4.0227    1.9427    1.5136 C   0  0  0  0  0  0  0  0  0  0  0  0
   -5.1279    1.4142   -0.6068 C   0  0  0  0  0  0  0  0  0  0  0  0
   -6.2012    0.6010   -1.3164 C   0  0  0  0  0  0  0  0  0  0  0  0
   -7.2806    0.2469   -0.4779 N   0  0  0  0  0  0  0  0  0  0  0  0
   -6.8040   -0.4570    0.6874 C   0  0  0  0  0  0  0  0  0  0  0  0
   -6.0465   -1.7077    0.3936 C   0  0  0  0  0  0  0  0  0  0  0  0
   -6.0031    0.4887    1.5468 C   0  0  0  0  0  0  0  0  0  0  0  0
   -5.5430   -0.2370    2.7844 C   0  0  0  0  0  0  0  0  0  0  0  0
   -8.2223    1.2224   -0.1095 C   0  0  0  0  0  0  0  0  0  0  0  0
   -9.1821    1.7386   -1.1111 C   0  0  0  0  0  0  0  0  0  0  0  0
  -10.1502    0.7656   -1.7528 C   0  0  0  0  0  0  0  0  0  0  0  0
   -9.1350    1.5833   -2.5563 C   0  0  0  0  0  0  0  0  0  0  0  0
   11.6753    2.3120    2.4502 H   0  0  0  0  0  0  0  0  0  0  0  0
   12.4240    0.7391    2.8419 H   0  0  0  0  0  0  0  0  0  0  0  0
   13.3765    2.0677    2.0534 H   0  0  0  0  0  0  0  0  0  0  0  0
    9.9349    1.2550    2.4419 H   0  0  0  0  0  0  0  0  0  0  0  0
    7.6631    0.6839    1.9311 H   0  0  0  0  0  0  0  0  0  0  0  0
    8.7615   -0.4724   -2.0168 H   0  0  0  0  0  0  0  0  0  0  0  0
   12.3305    0.5953   -1.4962 H   0  0  0  0  0  0  0  0  0  0  0  0
   11.0497    0.4501   -2.7639 H   0  0  0  0  0  0  0  0  0  0  0  0
   11.5827   -1.0082   -1.9011 H   0  0  0  0  0  0  0  0  0  0  0  0
    5.9685    1.3050    0.9868 H   0  0  0  0  0  0  0  0  0  0  0  0
    3.6275    0.8634    0.6706 H   0  0  0  0  0  0  0  0  0  0  0  0
    4.5404   -2.3208   -2.0300 H   0  0  0  0  0  0  0  0  0  0  0  0
    6.9931   -1.8625   -1.7007 H   0  0  0  0  0  0  0  0  0  0  0  0
    2.2980   -1.4393   -1.8345 H   0  0  0  0  0  0  0  0  0  0  0  0
    1.9608    0.0066   -0.8703 H   0  0  0  0  0  0  0  0  0  0  0  0
    2.5503   -2.8824    0.0089 H   0  0  0  0  0  0  0  0  0  0  0  0
    2.3279   -1.6318    1.2359 H   0  0  0  0  0  0  0  0  0  0  0  0
    0.2220   -3.1606    0.0257 H   0  0  0  0  0  0  0  0  0  0  0  0
   -1.7926   -3.4565    0.0603 H   0  0  0  0  0  0  0  0  0  0  0  0
   -4.2075   -3.6513    0.0729 H   0  0  0  0  0  0  0  0  0  0  0  0
   -2.1727    0.6981    0.6816 H   0  0  0  0  0  0  0  0  0  0  0  0
   -4.7557    2.5659    2.0707 H   0  0  0  0  0  0  0  0  0  0  0  0
   -3.3287    1.5365    2.2595 H   0  0  0  0  0  0  0  0  0  0  0  0
   -3.4517    2.6027    0.7978 H   0  0  0  0  0  0  0  0  0  0  0  0
   -4.2033    1.3111   -1.2352 H   0  0  0  0  0  0  0  0  0  0  0  0
   -5.3710    2.4954   -0.6420 H   0  0  0  0  0  0  0  0  0  0  0  0
   -6.4012    1.1198   -2.2456 H   0  0  0  0  0  0  0  0  0  0  0  0
   -5.6817   -0.3540   -1.6071 H   0  0  0  0  0  0  0  0  0  0  0  0
   -7.7414   -0.7324    1.2581 H   0  0  0  0  0  0  0  0  0  0  0  0
   -6.2648   -2.4307    1.2341 H   0  0  0  0  0  0  0  0  0  0  0  0
   -6.4000   -2.2367   -0.5159 H   0  0  0  0  0  0  0  0  0  0  0  0
   -6.6041    1.3420    1.8844 H   0  0  0  0  0  0  0  0  0  0  0  0
   -5.6933    0.3513    3.7147 H   0  0  0  0  0  0  0  0  0  0  0  0
   -6.1167   -1.1914    2.9266 H   0  0  0  0  0  0  0  0  0  0  0  0
   -4.4600   -0.4952    2.7350 H   0  0  0  0  0  0  0  0  0  0  0  0
   -8.8602    0.7796    0.7237 H   0  0  0  0  0  0  0  0  0  0  0  0
   -7.6961    2.1089    0.3428 H   0  0  0  0  0  0  0  0  0  0  0  0
   -9.7282    2.6638   -0.7443 H   0  0  0  0  0  0  0  0  0  0  0  0
   -9.9306   -0.3068   -1.5480 H   0  0  0  0  0  0  0  0  0  0  0  0
  -11.2122    1.0004   -1.8059 H   0  0  0  0  0  0  0  0  0  0  0  0
   -8.4980    0.9336   -3.1515 H   0  0  0  0  0  0  0  0  0  0  0  0
   -9.6669    2.3712   -3.1751 H   0  0  0  0  0  0  0  0  0  0  0  0
  1  2  1  0
  2  3  1  0
  3  4  2  0
  4  5  1  0
  5  6  2  0
  6  7  1  0
  7  8  2  0
  8  9  1  0
  6 10  1  0
 10 11  2  0
 11 12  1  0
 12 13  2  0
 13 14  1  0
 14 15  2  0
 13 16  1  0
 16 17  1  0
 17 18  1  0
 18 19  1  0
 19 20  2  0
 19 21  1  0
 21 22  2  0
 22 23  1  0
 23 24  2  0
 24 25  1  0
 25 26  2  0
 25 27  1  0
 27 28  1  0
 27 29  1  0
 29 30  1  0
 30 31  1  0
 31 32  1  0
 32 33  1  0
 32 34  1  0
 34 35  1  0
 31 36  1  0
 36 37  1  0
 37 38  1  0
 38 39  1  0
  8  3  1  0
 15 10  1  0
 26 21  1  0
 34 27  1  0
 39 37  1  0
 33 24  1  0
  1 40  1  0
  1 41  1  0
  1 42  1  0
  4 43  1  0
  5 44  1  0
  7 45  1  0
  9 46  1  0
  9 47  1  0
  9 48  1  0
 11 49  1  0
 12 50  1  0
 14 51  1  0
 15 52  1  0
 16 53  1  0
 16 54  1  0
 17 55  1  0
 17 56  1  0
 18 57  1  0
 22 58  1  0
 23 59  1  0
 26 60  1  0
 28 61  1  0
 28 62  1  0
 28 63  1  0
 29 64  1  0
 29 65  1  0
 30 66  1  0
 30 67  1  0
 32 68  1  0
 33 69  1  0
 33 70  1  0
 34 71  1  0
 35 72  1  0
 35 73  1  0
 35 74  1  0
 36 75  1  0
 36 76  1  0
 37 77  1  0
 38 78  1  0
 38 79  1  0
 39 80  1  0
 39 81  1  0
M  END
>  <Ligand ID>  (1) 
LIG0003993

>  <Ligand>  (1) 
CHEMBL2208352

>  <SMILES>  (1) 
COc1ccc(cc1C)c1ccc(cc1)CCNC(=O)c1ccc2c(c1)C1(C)CCN(C(C2)C1C)CC1CC1

>  <CID>  (1) 
58443217.0

>  <ChEMBL ID>  (1) 
nan

>  <InChiKey>  (1) 
UYSKQJRXYUOGNB-UHFFFAOYSA-N

>  <InChi>  (1) 
InChI=1S/C35H42N2O2/c1-23-19-28(13-14-33(23)39-4)27-9-7-25(8-10-27)15-17-36-34(38)30-12-11-29-21-32-24(2)35(3,31(29)20-30)16-18-37(32)22-26-5-6-26/h7-14,19-20,24,26,32H,5-6,15-18,21-22H2,1-4H3,(H,36,38)

>  <IUPAC Name>  (1) 
10-(cyclopropylmethyl)-N-[2-[4-(4-methoxy-3-methylphenyl)phenyl]ethyl]-1,13-dimethyl-10-azatricyclo[7.3.1.02,7]trideca-2(7),3,5-triene-4-carboxamide

$$$$
