
     RDKit          3D

 18 17  0  0  0  0  0  0  0  0999 V2000
   -2.9433    0.0823    0.1057 C   0  0  0  0  0  0  0  0  0  0  0  0
   -1.7767   -0.8504    0.3792 C   0  0  0  0  0  0  0  0  0  0  0  0
   -0.5567    0.0115    0.5201 C   0  0  0  0  0  0  0  0  0  0  0  0
   -0.6721    1.2866    0.4708 O   0  0  0  0  0  0  0  0  0  0  0  0
    0.7585   -0.6010    0.7118 C   0  0  0  0  0  0  0  0  0  0  0  0
    0.8427   -1.8525    0.7487 O   0  0  0  0  0  0  0  0  0  0  0  0
    1.9796    0.1901    0.8648 C   0  0  0  0  0  0  0  0  0  0  0  0
    2.6228    0.6319   -0.4118 C   0  0  0  0  0  0  0  0  0  0  0  0
   -2.7981    0.9824    0.6996 H   0  0  0  0  0  0  0  0  0  0  0  0
   -2.9086    0.3684   -0.9888 H   0  0  0  0  0  0  0  0  0  0  0  0
   -3.9183   -0.4300    0.2589 H   0  0  0  0  0  0  0  0  0  0  0  0
   -1.7087   -1.5482   -0.4666 H   0  0  0  0  0  0  0  0  0  0  0  0
   -1.9513   -1.4151    1.3276 H   0  0  0  0  0  0  0  0  0  0  0  0
    1.7442    1.0693    1.4712 H   0  0  0  0  0  0  0  0  0  0  0  0
    2.7796   -0.3728    1.4278 H   0  0  0  0  0  0  0  0  0  0  0  0
    3.4882    1.2922   -0.1044 H   0  0  0  0  0  0  0  0  0  0  0  0
    3.0655   -0.1605   -1.0239 H   0  0  0  0  0  0  0  0  0  0  0  0
    1.9528    1.3158   -1.0030 H   0  0  0  0  0  0  0  0  0  0  0  0
  1  2  1  0
  2  3  1  0
  3  4  2  0
  3  5  1  0
  5  6  2  0
  5  7  1  0
  7  8  1  0
  1  9  1  0
  1 10  1  0
  1 11  1  0
  2 12  1  0
  2 13  1  0
  7 14  1  0
  7 15  1  0
  8 16  1  0
  8 17  1  0
  8 18  1  0
M  END
>  <Ligand ID>  (1) 
LIG0000116

>  <Ligand>  (1) 
3,4-Hexanedione

>  <SMILES>  (1) 
CCC(=O)C(=O)CC

>  <CID>  (1) 
62539.0

>  <ChEMBL ID>  (1) 
nan

>  <InChiKey>  (1) 
KVFQMAZOBTXCAZ-UHFFFAOYSA-N

>  <InChi>  (1) 
InChI=1S/C6H10O2/c1-3-5(7)6(8)4-2/h3-4H2,1-2H3

>  <IUPAC Name>  (1) 
hexane-3,4-dione

$$$$
