
     RDKit          3D

 38 40  0  0  0  0  0  0  0  0999 V2000
    0.2981   -1.6763   -1.7101 O   0  0  0  0  0  0  0  0  0  0  0  0
    0.9970   -1.9322   -0.5365 C   0  0  0  0  0  0  0  0  0  0  0  0
    1.1593   -3.1298   -0.1409 O   0  0  0  0  0  0  0  0  0  0  0  0
    1.5582   -0.8065    0.2618 C   0  0  2  0  0  0  0  0  0  0  0  0
    2.2339   -1.3318    1.4265 N   0  0  0  0  0  0  0  0  0  0  0  0
    0.5306    0.1632    0.7184 C   0  0  2  0  0  0  0  0  0  0  0  0
   -0.6155    0.2133   -0.0688 O   0  0  0  0  0  0  0  0  0  0  0  0
   -1.6816   -0.0582    0.7816 C   0  0  0  0  0  0  0  0  0  0  0  0
   -2.9978   -0.0475    0.1103 C   0  0  0  0  0  0  0  0  0  0  0  0
   -3.5618   -1.1832   -0.4616 C   0  0  0  0  0  0  0  0  0  0  0  0
   -4.8013   -1.0748   -1.0694 C   0  0  0  0  0  0  0  0  0  0  0  0
   -5.4999    0.1121   -1.1313 C   0  0  0  0  0  0  0  0  0  0  0  0
   -4.9305    1.2197   -0.5636 C   0  0  0  0  0  0  0  0  0  0  0  0
   -3.6907    1.1654    0.0578 C   0  0  0  0  0  0  0  0  0  0  0  0
   -5.5434    2.4232   -0.5774 F   0  0  0  0  0  0  0  0  0  0  0  0
   -6.7146    0.2322   -1.7234 F   0  0  0  0  0  0  0  0  0  0  0  0
    1.2562    1.4695    0.7811 C   0  0  0  0  0  0  0  0  0  0  0  0
    2.4207    1.4230   -0.1670 C   0  0  2  0  0  0  0  0  0  0  0  0
    2.4869    0.0275   -0.6083 C   0  0  1  0  0  0  0  0  0  0  0  0
    3.6330    0.6370    0.1368 C   0  0  2  0  0  0  0  0  0  0  0  0
    3.8931    0.1809    1.4170 F   0  0  0  0  0  0  0  0  0  0  0  0
    4.8357    0.9288   -0.6704 C   0  0  0  0  0  0  0  0  0  0  0  0
    4.7428    1.3495   -1.8499 O   0  0  0  0  0  0  0  0  0  0  0  0
    6.1157    0.7517   -0.1631 O   0  0  0  0  0  0  0  0  0  0  0  0
    0.1202   -2.4104   -2.4040 H   0  0  0  0  0  0  0  0  0  0  0  0
    2.4473   -2.3494    1.2980 H   0  0  0  0  0  0  0  0  0  0  0  0
    1.7478   -1.1235    2.3092 H   0  0  0  0  0  0  0  0  0  0  0  0
    0.1755   -0.0774    1.7494 H   0  0  0  0  0  0  0  0  0  0  0  0
   -1.7305    0.6777    1.6145 H   0  0  0  0  0  0  0  0  0  0  0  0
   -1.5306   -1.0871    1.1716 H   0  0  0  0  0  0  0  0  0  0  0  0
   -3.0279   -2.1184   -0.4213 H   0  0  0  0  0  0  0  0  0  0  0  0
   -5.2761   -1.9357   -1.5271 H   0  0  0  0  0  0  0  0  0  0  0  0
   -3.2625    2.0404    0.4952 H   0  0  0  0  0  0  0  0  0  0  0  0
    1.6309    1.6452    1.8012 H   0  0  0  0  0  0  0  0  0  0  0  0
    0.5807    2.3137    0.5099 H   0  0  0  0  0  0  0  0  0  0  0  0
    2.5224    2.2766   -0.8544 H   0  0  0  0  0  0  0  0  0  0  0  0
    2.5774   -0.2218   -1.6784 H   0  0  0  0  0  0  0  0  0  0  0  0
    6.9010    1.3136   -0.5040 H   0  0  0  0  0  0  0  0  0  0  0  0
  1  2  1  0
  2  3  2  0
  2  4  1  0
  4  5  1  1
  4  6  1  0
  6  7  1  0
  7  8  1  0
  8  9  1  0
  9 10  2  0
 10 11  1  0
 11 12  2  0
 12 13  1  0
 13 14  2  0
 13 15  1  0
 12 16  1  0
  6 17  1  0
 17 18  1  0
 18 19  1  0
 19 20  1  0
 20 21  1  1
 20 22  1  0
 22 23  2  0
 22 24  1  0
 19  4  1  0
 14  9  1  0
 20 18  1  0
  1 25  1  0
  5 26  1  0
  5 27  1  0
  6 28  1  1
  8 29  1  0
  8 30  1  0
 10 31  1  0
 11 32  1  0
 14 33  1  0
 17 34  1  0
 17 35  1  0
 18 36  1  6
 19 37  1  6
 24 38  1  0
M  END
>  <Ligand ID>  (1) 
LIG0005705

>  <Ligand>  (1) 
CHEMBL186630

>  <SMILES>  (1) 
OC(=O)[C@]1(N)[C@H](OCc2ccc(c(c2)F)F)C[C@@H]2[C@H]1[C@@]2(F)C(=O)O

>  <CID>  (1) 
11382367.0

>  <ChEMBL ID>  (1) 
nan

>  <InChiKey>  (1) 
MRMHYXQUHGBUJY-JAGWWQSPSA-N

>  <InChi>  (1) 
InChI=1S/C15H14F3NO5/c16-8-2-1-6(3-9(8)17)5-24-10-4-7-11(14(7,18)12(20)21)15(10,19)13(22)23/h1-3,7,10-11H,4-5,19H2,(H,20,21)(H,22,23)/t7-,10-,11+,14-,15+/m1/s1

>  <IUPAC Name>  (1) 
(1R,2R,3R,5R,6R)-2-amino-3-[(3,4-difluorophenyl)methoxy]-6-fluorobicyclo[3.1.0]hexane-2,6-dicarboxylic acid

$$$$
