
     RDKit          3D

 53 56  0  0  0  0  0  0  0  0999 V2000
   -0.3442    6.8881   -1.1570 F   0  0  0  0  0  0  0  0  0  0  0  0
   -0.4918    5.5714   -0.8467 C   0  0  0  0  0  0  0  0  0  0  0  0
   -1.2745    4.7398   -1.6561 C   0  0  0  0  0  0  0  0  0  0  0  0
   -1.4009    3.4163   -1.3132 C   0  0  0  0  0  0  0  0  0  0  0  0
   -0.7819    2.8668   -0.1924 C   0  0  0  0  0  0  0  0  0  0  0  0
   -0.0289    3.6963    0.5751 C   0  0  0  0  0  0  0  0  0  0  0  0
    0.1248    5.0323    0.2668 C   0  0  0  0  0  0  0  0  0  0  0  0
   -1.0157    1.4547    0.0494 C   0  0  0  0  0  0  0  0  0  0  0  0
   -2.2459    0.9080    0.0144 N   0  0  0  0  0  0  0  0  0  0  0  0
   -2.2355   -0.3809    0.2442 N   0  0  0  0  0  0  0  0  0  0  0  0
   -0.9498   -0.7130    0.4409 C   0  0  0  0  0  0  0  0  0  0  0  0
   -0.1502    0.4309    0.3235 C   0  0  0  0  0  0  0  0  0  0  0  0
    1.3257    0.4971    0.4598 C   0  0  0  0  0  0  0  0  0  0  0  0
    1.8354    0.6188   -0.8927 N   0  0  0  0  0  0  0  0  0  0  0  0
    3.2496    0.6943   -1.0035 C   0  0  0  0  0  0  0  0  0  0  0  0
    3.8597   -0.6033   -0.6610 C   0  0  0  0  0  0  0  0  0  0  0  0
    3.3711   -1.8121   -1.1304 C   0  0  0  0  0  0  0  0  0  0  0  0
    4.1648   -2.7782   -0.6246 N   0  0  0  0  0  0  0  0  0  0  0  0
    5.1025   -2.2177    0.1219 N   0  0  0  0  0  0  0  0  0  0  0  0
    4.9668   -0.8791    0.1383 C   0  0  0  0  0  0  0  0  0  0  0  0
    6.1246   -2.9878    0.8133 C   0  0  0  0  0  0  0  0  0  0  0  0
    3.8693    1.8484   -0.2843 C   0  0  0  0  0  0  0  0  0  0  0  0
   -3.3648   -1.2486    0.2761 C   0  0  0  0  0  0  0  0  0  0  0  0
   -4.6231   -0.7647    0.5827 C   0  0  0  0  0  0  0  0  0  0  0  0
   -5.6601   -1.6771    0.5892 C   0  0  0  0  0  0  0  0  0  0  0  0
   -5.4820   -3.0191    0.3069 C   0  0  0  0  0  0  0  0  0  0  0  0
   -4.2167   -3.4994   -0.0001 C   0  0  0  0  0  0  0  0  0  0  0  0
   -3.1491   -2.5942   -0.0134 C   0  0  0  0  0  0  0  0  0  0  0  0
   -6.6379   -3.9672    0.3262 C   0  0  0  0  0  0  0  0  0  0  0  0
   -1.7673    5.1614   -2.5421 H   0  0  0  0  0  0  0  0  0  0  0  0
   -2.0119    2.7965   -1.9566 H   0  0  0  0  0  0  0  0  0  0  0  0
    0.4622    3.3289    1.4532 H   0  0  0  0  0  0  0  0  0  0  0  0
    0.7300    5.6603    0.8987 H   0  0  0  0  0  0  0  0  0  0  0  0
   -0.5465   -1.6972    0.6586 H   0  0  0  0  0  0  0  0  0  0  0  0
    1.6650    1.3682    1.0223 H   0  0  0  0  0  0  0  0  0  0  0  0
    1.6414   -0.4683    0.9273 H   0  0  0  0  0  0  0  0  0  0  0  0
    1.4213   -0.1676   -1.4390 H   0  0  0  0  0  0  0  0  0  0  0  0
    3.4790    0.8527   -2.0934 H   0  0  0  0  0  0  0  0  0  0  0  0
    2.5165   -1.9436   -1.7781 H   0  0  0  0  0  0  0  0  0  0  0  0
    5.5694   -0.1364    0.6518 H   0  0  0  0  0  0  0  0  0  0  0  0
    5.7860   -3.3852    1.7916 H   0  0  0  0  0  0  0  0  0  0  0  0
    6.3932   -3.8920    0.1933 H   0  0  0  0  0  0  0  0  0  0  0  0
    7.0626   -2.3927    0.8754 H   0  0  0  0  0  0  0  0  0  0  0  0
    3.6997    1.8632    0.8037 H   0  0  0  0  0  0  0  0  0  0  0  0
    4.9667    1.9129   -0.4270 H   0  0  0  0  0  0  0  0  0  0  0  0
    3.4759    2.8098   -0.6836 H   0  0  0  0  0  0  0  0  0  0  0  0
   -4.7591    0.2813    0.8023 H   0  0  0  0  0  0  0  0  0  0  0  0
   -6.6426   -1.3201    0.8244 H   0  0  0  0  0  0  0  0  0  0  0  0
   -4.0481   -4.5426   -0.2247 H   0  0  0  0  0  0  0  0  0  0  0  0
   -2.1589   -2.9499   -0.2497 H   0  0  0  0  0  0  0  0  0  0  0  0
   -6.9976   -4.1983   -0.7054 H   0  0  0  0  0  0  0  0  0  0  0  0
   -6.3847   -4.9284    0.7839 H   0  0  0  0  0  0  0  0  0  0  0  0
   -7.4934   -3.5330    0.8688 H   0  0  0  0  0  0  0  0  0  0  0  0
  1  2  1  0
  2  3  2  0
  3  4  1  0
  4  5  2  0
  5  6  1  0
  6  7  2  0
  5  8  1  0
  8  9  2  0
  9 10  1  0
 10 11  1  0
 11 12  2  0
 12 13  1  0
 13 14  1  0
 14 15  1  0
 15 16  1  0
 16 17  1  0
 17 18  2  0
 18 19  1  0
 19 20  1  0
 19 21  1  0
 15 22  1  0
 10 23  1  0
 23 24  2  0
 24 25  1  0
 25 26  2  0
 26 27  1  0
 27 28  2  0
 26 29  1  0
  7  2  1  0
 12  8  1  0
 20 16  2  0
 28 23  1  0
  3 30  1  0
  4 31  1  0
  6 32  1  0
  7 33  1  0
 11 34  1  0
 13 35  1  0
 13 36  1  0
 14 37  1  0
 15 38  1  0
 17 39  1  0
 20 40  1  0
 21 41  1  0
 21 42  1  0
 21 43  1  0
 22 44  1  0
 22 45  1  0
 22 46  1  0
 24 47  1  0
 25 48  1  0
 27 49  1  0
 28 50  1  0
 29 51  1  0
 29 52  1  0
 29 53  1  0
M  END
>  <Ligand ID>  (1) 
LIG0003825

>  <Ligand>  (1) 
MLS000733767

>  <SMILES>  (1) 
Fc1ccc(cc1)c1nn(cc1CNC(c1cnn(c1)C)C)c1ccc(cc1)C

>  <CID>  (1) 
16192289.0

>  <ChEMBL ID>  (1) 
nan

>  <InChiKey>  (1) 
YDHCCEYOSMVWFD-UHFFFAOYSA-N

>  <InChi>  (1) 
InChI=1S/C23H24FN5/c1-16-4-10-22(11-5-16)29-15-20(12-25-17(2)19-13-26-28(3)14-19)23(27-29)18-6-8-21(24)9-7-18/h4-11,13-15,17,25H,12H2,1-3H3

>  <IUPAC Name>  (1) 
N-[[3-(4-fluorophenyl)-1-(4-methylphenyl)pyrazol-4-yl]methyl]-1-(1-methylpyrazol-4-yl)ethanamine

$$$$
