
     RDKit          3D

 41 43  0  0  0  0  0  0  0  0999 V2000
   -1.3286   -2.1716    1.2289 N   0  0  0  0  0  0  0  0  0  0  0  0
   -1.4659   -1.3048    0.4755 C   0  0  0  0  0  0  0  0  0  0  0  0
   -1.6403   -0.2388   -0.4726 C   0  0  0  0  0  0  0  0  0  0  0  0
   -0.5734    0.2788   -1.2043 C   0  0  0  0  0  0  0  0  0  0  0  0
    1.0305   -0.4473   -0.9083 S   0  0  0  0  0  0  0  0  0  0  0  0
    1.8056    0.4875    0.4396 C   0  0  0  0  0  0  0  0  0  0  0  0
    3.1513   -0.0564    0.7490 C   0  0  0  0  0  0  0  0  0  0  0  0
    3.3331   -1.0632    1.6900 C   0  0  0  0  0  0  0  0  0  0  0  0
    4.5968   -1.5489    1.9564 C   0  0  0  0  0  0  0  0  0  0  0  0
    5.6597   -1.0121    1.2696 C   0  0  0  0  0  0  0  0  0  0  0  0
    5.5012   -0.0132    0.3326 C   0  0  0  0  0  0  0  0  0  0  0  0
    4.2396    0.4545    0.0832 C   0  0  0  0  0  0  0  0  0  0  0  0
    6.6914    0.4998   -0.3515 C   0  0  0  0  0  0  0  0  0  0  0  0
    7.7952   -0.0006   -0.0455 O   0  0  0  0  0  0  0  0  0  0  0  0
    6.5893    1.5280   -1.3260 N   0  0  0  0  0  0  0  0  0  0  0  0
   -0.7591    1.2807   -2.0903 N   0  0  0  0  0  0  0  0  0  0  0  0
   -1.9855    1.8227   -2.3043 C   0  0  0  0  0  0  0  0  0  0  0  0
   -3.0875    1.3443   -1.6007 C   0  0  0  0  0  0  0  0  0  0  0  0
   -2.8808    0.3201   -0.6991 C   0  0  0  0  0  0  0  0  0  0  0  0
   -4.0438   -0.1729    0.0323 C   0  0  0  0  0  0  0  0  0  0  0  0
   -4.7464   -1.2103   -0.5514 C   0  0  0  0  0  0  0  0  0  0  0  0
   -5.8639   -1.7782    0.0208 C   0  0  0  0  0  0  0  0  0  0  0  0
   -6.2765   -1.2535    1.2505 C   0  0  0  0  0  0  0  0  0  0  0  0
   -5.5657   -0.2175    1.8222 C   0  0  0  0  0  0  0  0  0  0  0  0
   -4.4491    0.3455    1.2443 C   0  0  0  0  0  0  0  0  0  0  0  0
   -4.3951    1.9219   -1.8287 C   0  0  0  0  0  0  0  0  0  0  0  0
   -5.4378    2.3804   -2.0218 N   0  0  0  0  0  0  0  0  0  0  0  0
    1.1165    0.4250    1.3235 H   0  0  0  0  0  0  0  0  0  0  0  0
    1.8499    1.5336    0.1415 H   0  0  0  0  0  0  0  0  0  0  0  0
    2.4801   -1.4720    2.2200 H   0  0  0  0  0  0  0  0  0  0  0  0
    4.6776   -2.3268    2.6930 H   0  0  0  0  0  0  0  0  0  0  0  0
    6.6440   -1.4231    1.5087 H   0  0  0  0  0  0  0  0  0  0  0  0
    4.0873    1.2272   -0.6370 H   0  0  0  0  0  0  0  0  0  0  0  0
    7.1815    1.4820   -2.1881 H   0  0  0  0  0  0  0  0  0  0  0  0
    5.9430    2.3492   -1.2338 H   0  0  0  0  0  0  0  0  0  0  0  0
   -2.0761    2.6261   -3.0285 H   0  0  0  0  0  0  0  0  0  0  0  0
   -4.4305   -1.6189   -1.5024 H   0  0  0  0  0  0  0  0  0  0  0  0
   -6.4034   -2.5856   -0.4422 H   0  0  0  0  0  0  0  0  0  0  0  0
   -7.1466   -1.7015    1.6880 H   0  0  0  0  0  0  0  0  0  0  0  0
   -5.9265    0.1579    2.7818 H   0  0  0  0  0  0  0  0  0  0  0  0
   -3.8909    1.1522    1.6837 H   0  0  0  0  0  0  0  0  0  0  0  0
  1  2  3  0
  2  3  1  0
  3  4  2  0
  4  5  1  0
  5  6  1  0
  6  7  1  0
  7  8  2  0
  8  9  1  0
  9 10  2  0
 10 11  1  0
 11 12  2  0
 11 13  1  0
 13 14  2  0
 13 15  1  0
  4 16  1  0
 16 17  2  0
 17 18  1  0
 18 19  2  0
 19 20  1  0
 20 21  2  0
 21 22  1  0
 22 23  2  0
 23 24  1  0
 24 25  2  0
 18 26  1  0
 26 27  3  0
 19  3  1  0
 25 20  1  0
 12  7  1  0
  6 28  1  0
  6 29  1  0
  8 30  1  0
  9 31  1  0
 10 32  1  0
 12 33  1  0
 15 34  1  0
 15 35  1  0
 17 36  1  0
 21 37  1  0
 22 38  1  0
 23 39  1  0
 24 40  1  0
 25 41  1  0
M  END
>  <Ligand ID>  (1) 
LIG0002660

>  <Ligand>  (1) 
SCHEMBL246242

>  <SMILES>  (1) 
N#Cc1c(SCc2cccc(c2)C(=O)N)ncc(c1c1ccccc1)C#N

>  <CID>  (1) 
66631868.0

>  <ChEMBL ID>  (1) 
nan

>  <InChiKey>  (1) 
DYSMRUPLJIKSNE-UHFFFAOYSA-N

>  <InChi>  (1) 
InChI=1S/C21H14N4OS/c22-10-17-12-25-21(18(11-23)19(17)15-6-2-1-3-7-15)27-13-14-5-4-8-16(9-14)20(24)26/h1-9,12H,13H2,(H2,24,26)

>  <IUPAC Name>  (1) 
3-[(3,5-dicyano-4-phenylpyridin-2-yl)sulfanylmethyl]benzamide

$$$$
