
     RDKit          3D

 33 34  0  0  0  0  0  0  0  0999 V2000
   -0.0349   -2.7385   -0.0961 C   0  0  0  0  0  0  0  0  0  0  0  0
   -0.2417   -1.4427    0.6787 C   0  0  0  0  0  0  0  0  0  0  0  0
   -0.3445   -0.3123   -0.2554 N   0  0  0  0  0  0  0  0  0  0  0  0
   -1.4277    0.6213   -0.1926 C   0  0  0  0  0  0  0  0  0  0  0  0
   -1.5215    1.6907   -1.0905 C   0  0  0  0  0  0  0  0  0  0  0  0
   -2.5596    2.6021   -1.0393 C   0  0  0  0  0  0  0  0  0  0  0  0
   -3.5525    2.5063   -0.1053 C   0  0  0  0  0  0  0  0  0  0  0  0
   -3.4875    1.4676    0.7895 C   0  0  0  0  0  0  0  0  0  0  0  0
   -2.4363    0.5426    0.7396 C   0  0  0  0  0  0  0  0  0  0  0  0
   -4.8416    3.6685   -0.0698 Cl  0  0  0  0  0  0  0  0  0  0  0  0
    0.7141   -0.1982   -1.2165 C   0  0  0  0  0  0  0  0  0  0  0  0
    2.0534    0.0681   -0.6920 C   0  0  0  0  0  0  0  0  0  0  0  0
    3.0663   -0.7508   -0.3561 N   0  0  0  0  0  0  0  0  0  0  0  0
    4.1264   -0.0577    0.0889 C   0  0  0  0  0  0  0  0  0  0  0  0
    3.7772    1.2366    0.0340 N   0  0  0  0  0  0  0  0  0  0  0  0
    2.5321    1.3441   -0.4331 C   0  0  0  0  0  0  0  0  0  0  0  0
    0.8442   -1.2996    1.6829 C   0  0  0  0  0  0  0  0  0  0  0  0
   -0.5649   -3.5853    0.4301 H   0  0  0  0  0  0  0  0  0  0  0  0
    1.0277   -3.0502   -0.1318 H   0  0  0  0  0  0  0  0  0  0  0  0
   -0.4996   -2.6667   -1.0872 H   0  0  0  0  0  0  0  0  0  0  0  0
   -1.2118   -1.5850    1.2269 H   0  0  0  0  0  0  0  0  0  0  0  0
   -0.7914    1.8607   -1.8637 H   0  0  0  0  0  0  0  0  0  0  0  0
   -2.6124    3.4190   -1.7415 H   0  0  0  0  0  0  0  0  0  0  0  0
   -4.2739    1.3840    1.5363 H   0  0  0  0  0  0  0  0  0  0  0  0
   -2.4908   -0.2246    1.4953 H   0  0  0  0  0  0  0  0  0  0  0  0
    0.5210    0.4864   -2.0521 H   0  0  0  0  0  0  0  0  0  0  0  0
    0.7903   -1.2251   -1.7229 H   0  0  0  0  0  0  0  0  0  0  0  0
    3.0361   -1.7899   -0.4309 H   0  0  0  0  0  0  0  0  0  0  0  0
    5.0803   -0.4341    0.4291 H   0  0  0  0  0  0  0  0  0  0  0  0
    2.0121    2.2790   -0.5747 H   0  0  0  0  0  0  0  0  0  0  0  0
    0.3911   -1.4512    2.7107 H   0  0  0  0  0  0  0  0  0  0  0  0
    1.6290   -2.0804    1.5956 H   0  0  0  0  0  0  0  0  0  0  0  0
    1.2912   -0.2849    1.7141 H   0  0  0  0  0  0  0  0  0  0  0  0
  1  2  1  0
  2  3  1  0
  3  4  1  0
  4  5  2  0
  5  6  1  0
  6  7  2  0
  7  8  1  0
  8  9  2  0
  7 10  1  0
  3 11  1  0
 11 12  1  0
 12 13  1  0
 13 14  1  0
 14 15  2  0
 15 16  1  0
  2 17  1  0
  9  4  1  0
 16 12  2  0
  1 18  1  0
  1 19  1  0
  1 20  1  0
  2 21  1  0
  5 22  1  0
  6 23  1  0
  8 24  1  0
  9 25  1  0
 11 26  1  0
 11 27  1  0
 13 28  1  0
 14 29  1  0
 16 30  1  0
 17 31  1  0
 17 32  1  0
 17 33  1  0
M  END
>  <Ligand ID>  (1) 
LIG0003475

>  <Ligand>  (1) 
CHEMBL2206375

>  <SMILES>  (1) 
CC(N(c1ccc(cc1)Cl)Cc1[nH]cnc1)C

>  <CID>  (1) 
24947142.0

>  <ChEMBL ID>  (1) 
nan

>  <InChiKey>  (1) 
AOHLEOYTKMSKPD-UHFFFAOYSA-N

>  <InChi>  (1) 
InChI=1S/C13H16ClN3/c1-10(2)17(8-12-7-15-9-16-12)13-5-3-11(14)4-6-13/h3-7,9-10H,8H2,1-2H3,(H,15,16)

>  <IUPAC Name>  (1) 
4-chloro-N-(1H-imidazol-5-ylmethyl)-N-propan-2-ylaniline

$$$$
