
     RDKit          3D

102106  0  0  0  0  0  0  0  0999 V2000
   -0.7109    5.6820   -4.4137 N   0  0  0  0  0  0  0  0  0  0  0  0
   -2.1197    5.6168   -4.6360 C   0  0  0  0  0  0  0  0  0  0  0  0
   -2.8050    4.5305   -4.4984 N   0  0  0  0  0  0  0  0  0  0  0  0
   -2.1634    3.2866   -4.0976 C   0  0  0  0  0  0  0  0  0  0  0  0
   -2.4599    3.1009   -2.6126 C   0  0  0  0  0  0  0  0  0  0  0  0
   -1.8557    1.8594   -2.0495 C   0  0  0  0  0  0  0  0  0  0  0  0
   -2.1227    1.7860   -0.5216 C   0  0  1  0  0  0  0  0  0  0  0  0
   -3.5400    1.7499   -0.2817 C   0  0  0  0  0  0  0  0  0  0  0  0
   -4.3677    2.6924   -0.5471 O   0  0  0  0  0  0  0  0  0  0  0  0
   -4.1638    0.5982    0.2975 N   0  0  0  0  0  0  0  0  0  0  0  0
   -5.6309    0.5684    0.5256 C   0  0  2  0  0  0  0  0  0  0  0  0
   -5.8482    0.4048    1.9574 C   0  0  0  0  0  0  0  0  0  0  0  0
   -4.8880    0.1776    2.7675 O   0  0  0  0  0  0  0  0  0  0  0  0
   -7.1687    0.4962    2.5386 N   0  0  0  0  0  0  0  0  0  0  0  0
   -6.2140   -0.5610   -0.3066 C   0  0  0  0  0  0  0  0  0  0  0  0
   -5.6196   -1.8722    0.0161 C   0  0  0  0  0  0  0  0  0  0  0  0
   -4.5217   -2.3569   -0.7210 C   0  0  0  0  0  0  0  0  0  0  0  0
   -4.1214   -3.5334   -0.2183 N   0  0  0  0  0  0  0  0  0  0  0  0
   -4.9273   -3.8314    0.8260 C   0  0  0  0  0  0  0  0  0  0  0  0
   -5.8424   -2.8135    0.9649 C   0  0  0  0  0  0  0  0  0  0  0  0
   -6.7739   -2.8989    1.9491 C   0  0  0  0  0  0  0  0  0  0  0  0
   -6.7906   -3.9919    2.7905 C   0  0  0  0  0  0  0  0  0  0  0  0
   -5.8689   -5.0388    2.6705 C   0  0  0  0  0  0  0  0  0  0  0  0
   -4.9282   -4.9472    1.6702 C   0  0  0  0  0  0  0  0  0  0  0  0
   -1.3617    0.6354   -0.0136 N   0  0  0  0  0  0  0  0  0  0  0  0
    0.0554    0.6353    0.0538 C   0  0  0  0  0  0  0  0  0  0  0  0
    0.6807    1.6697   -0.3607 O   0  0  0  0  0  0  0  0  0  0  0  0
    0.7193   -0.5572    0.5887 C   0  0  1  0  0  0  0  0  0  0  0  0
    2.0819   -0.7575    0.1316 N   0  0  0  0  0  0  0  0  0  0  0  0
    2.3895   -2.0685   -0.3287 C   0  0  0  0  0  0  0  0  0  0  0  0
    1.4741   -2.9908   -0.3007 O   0  0  0  0  0  0  0  0  0  0  0  0
    3.6805   -2.5258   -0.8609 C   0  0  1  0  0  0  0  0  0  0  0  0
    4.6893   -1.4929   -0.9694 N   0  0  0  0  0  0  0  0  0  0  0  0
    5.1376   -1.1574   -2.2997 C   0  0  0  0  0  0  0  0  0  0  0  0
    4.6515   -1.7527   -3.3211 O   0  0  0  0  0  0  0  0  0  0  0  0
    6.1680   -0.1178   -2.5058 C   0  0  0  0  0  0  0  0  0  0  0  0
    6.5548    0.1886   -3.7854 C   0  0  0  0  0  0  0  0  0  0  0  0
    7.5012    1.1408   -4.0978 C   0  0  0  0  0  0  0  0  0  0  0  0
    8.0859    1.8193   -3.0267 C   0  0  0  0  0  0  0  0  0  0  0  0
    7.6907    1.5057   -1.7329 C   0  0  0  0  0  0  0  0  0  0  0  0
    6.7455    0.5488   -1.4992 N   0  0  0  0  0  0  0  0  0  0  0  0
    4.2470   -3.6459   -0.0109 C   0  0  0  0  0  0  0  0  0  0  0  0
    4.5072   -3.2664    1.3865 C   0  0  0  0  0  0  0  0  0  0  0  0
    3.6020   -3.3480    2.4184 C   0  0  0  0  0  0  0  0  0  0  0  0
    3.9702   -2.9635    3.7046 C   0  0  0  0  0  0  0  0  0  0  0  0
    5.2288   -2.4994    3.9739 C   0  0  0  0  0  0  0  0  0  0  0  0
    6.1425   -2.4131    2.9587 C   0  0  0  0  0  0  0  0  0  0  0  0
    5.7965   -2.7908    1.6686 C   0  0  0  0  0  0  0  0  0  0  0  0
    5.7495   -1.9917    5.5786 Cl  0  0  0  0  0  0  0  0  0  0  0  0
    0.7157   -0.5411    2.1208 C   0  0  0  0  0  0  0  0  0  0  0  0
    1.4328    0.6473    2.6414 C   0  0  0  0  0  0  0  0  0  0  0  0
    0.7244    1.8046    2.8613 C   0  0  0  0  0  0  0  0  0  0  0  0
    1.3299    2.9609    3.3638 C   0  0  0  0  0  0  0  0  0  0  0  0
    2.7034    2.9252    3.6487 C   0  0  0  0  0  0  0  0  0  0  0  0
    3.4048    1.7528    3.4225 C   0  0  0  0  0  0  0  0  0  0  0  0
    2.7918    0.6168    2.9241 C   0  0  0  0  0  0  0  0  0  0  0  0
   -2.8813    6.7759   -5.0251 N   0  0  0  0  0  0  0  0  0  0  0  0
   -0.0092    5.2791   -5.0794 H   0  0  0  0  0  0  0  0  0  0  0  0
   -0.4170    6.1589   -3.5282 H   0  0  0  0  0  0  0  0  0  0  0  0
   -1.1072    3.2620   -4.3486 H   0  0  0  0  0  0  0  0  0  0  0  0
   -2.6864    2.4649   -4.6287 H   0  0  0  0  0  0  0  0  0  0  0  0
   -3.5720    3.0952   -2.4959 H   0  0  0  0  0  0  0  0  0  0  0  0
   -2.0713    3.9754   -2.0387 H   0  0  0  0  0  0  0  0  0  0  0  0
   -2.3244    0.9763   -2.5651 H   0  0  0  0  0  0  0  0  0  0  0  0
   -0.7752    1.7709   -2.2381 H   0  0  0  0  0  0  0  0  0  0  0  0
   -1.5441    2.6677   -0.1003 H   0  0  0  0  0  0  0  0  0  0  0  0
   -3.6815   -0.2613    0.5991 H   0  0  0  0  0  0  0  0  0  0  0  0
   -6.1031    1.5179    0.2030 H   0  0  0  0  0  0  0  0  0  0  0  0
   -8.0257    0.4405    1.9233 H   0  0  0  0  0  0  0  0  0  0  0  0
   -7.2650    0.6151    3.5757 H   0  0  0  0  0  0  0  0  0  0  0  0
   -6.1616   -0.3355   -1.4006 H   0  0  0  0  0  0  0  0  0  0  0  0
   -7.2991   -0.6243   -0.0658 H   0  0  0  0  0  0  0  0  0  0  0  0
   -4.0367   -1.8909   -1.5670 H   0  0  0  0  0  0  0  0  0  0  0  0
   -3.3170   -4.1326   -0.5692 H   0  0  0  0  0  0  0  0  0  0  0  0
   -7.4954   -2.1267    2.0551 H   0  0  0  0  0  0  0  0  0  0  0  0
   -7.5496   -4.0591    3.5848 H   0  0  0  0  0  0  0  0  0  0  0  0
   -5.9306   -5.8723    3.3597 H   0  0  0  0  0  0  0  0  0  0  0  0
   -4.1844   -5.7460    1.5309 H   0  0  0  0  0  0  0  0  0  0  0  0
   -1.8294   -0.2354    0.3168 H   0  0  0  0  0  0  0  0  0  0  0  0
    0.1270   -1.4458    0.3285 H   0  0  0  0  0  0  0  0  0  0  0  0
    2.8201   -0.0299    0.1239 H   0  0  0  0  0  0  0  0  0  0  0  0
    3.5238   -2.9409   -1.8923 H   0  0  0  0  0  0  0  0  0  0  0  0
    5.0853   -0.9995   -0.1287 H   0  0  0  0  0  0  0  0  0  0  0  0
    6.0915   -0.3459   -4.6111 H   0  0  0  0  0  0  0  0  0  0  0  0
    7.7817    1.3597   -5.1283 H   0  0  0  0  0  0  0  0  0  0  0  0
    8.8308    2.5707   -3.2535 H   0  0  0  0  0  0  0  0  0  0  0  0
    8.1342    2.0230   -0.9035 H   0  0  0  0  0  0  0  0  0  0  0  0
    3.4584   -4.4496    0.0360 H   0  0  0  0  0  0  0  0  0  0  0  0
    5.1341   -4.0799   -0.5079 H   0  0  0  0  0  0  0  0  0  0  0  0
    2.5959   -3.7245    2.1973 H   0  0  0  0  0  0  0  0  0  0  0  0
    3.2266   -3.0393    4.5094 H   0  0  0  0  0  0  0  0  0  0  0  0
    7.1335   -2.0470    3.1707 H   0  0  0  0  0  0  0  0  0  0  0  0
    6.5419   -2.7175    0.8764 H   0  0  0  0  0  0  0  0  0  0  0  0
   -0.3368   -0.4767    2.4334 H   0  0  0  0  0  0  0  0  0  0  0  0
    1.1133   -1.5079    2.4686 H   0  0  0  0  0  0  0  0  0  0  0  0
   -0.3342    1.9022    2.6632 H   0  0  0  0  0  0  0  0  0  0  0  0
    0.8199    3.8714    3.5487 H   0  0  0  0  0  0  0  0  0  0  0  0
    3.2017    3.8221    4.0447 H   0  0  0  0  0  0  0  0  0  0  0  0
    4.4619    1.7755    3.6589 H   0  0  0  0  0  0  0  0  0  0  0  0
    3.3393   -0.3028    2.7434 H   0  0  0  0  0  0  0  0  0  0  0  0
   -3.3662    7.3021   -4.2589 H   0  0  0  0  0  0  0  0  0  0  0  0
   -2.9547    7.0901   -6.0188 H   0  0  0  0  0  0  0  0  0  0  0  0
  1  2  1  0
  2  3  2  3
  3  4  1  0
  4  5  1  0
  5  6  1  0
  6  7  1  0
  7  8  1  0
  8  9  2  0
  8 10  1  0
 10 11  1  0
 11 12  1  0
 12 13  2  0
 12 14  1  0
 11 15  1  0
 15 16  1  0
 16 17  2  0
 17 18  1  0
 18 19  1  0
 19 20  2  0
 20 21  1  0
 21 22  2  0
 22 23  1  0
 23 24  2  0
  7 25  1  0
 25 26  1  0
 26 27  2  0
 26 28  1  0
 28 29  1  0
 29 30  1  0
 30 31  2  0
 30 32  1  0
 32 33  1  0
 33 34  1  0
 34 35  2  0
 34 36  1  0
 36 37  2  0
 37 38  1  0
 38 39  2  0
 39 40  1  0
 40 41  2  0
 32 42  1  0
 42 43  1  0
 43 44  2  0
 44 45  1  0
 45 46  2  0
 46 47  1  0
 47 48  2  0
 46 49  1  0
 28 50  1  0
 50 51  1  0
 51 52  2  0
 52 53  1  0
 53 54  2  0
 54 55  1  0
 55 56  2  0
  2 57  1  0
 20 16  1  0
 41 36  1  0
 48 43  1  0
 56 51  1  0
 24 19  1  0
  1 58  1  0
  1 59  1  0
  4 60  1  0
  4 61  1  0
  5 62  1  0
  5 63  1  0
  6 64  1  0
  6 65  1  0
  7 66  1  1
 10 67  1  0
 11 68  1  6
 14 69  1  0
 14 70  1  0
 15 71  1  0
 15 72  1  0
 17 73  1  0
 18 74  1  0
 21 75  1  0
 22 76  1  0
 23 77  1  0
 24 78  1  0
 25 79  1  0
 28 80  1  1
 29 81  1  0
 32 82  1  6
 33 83  1  0
 37 84  1  0
 38 85  1  0
 39 86  1  0
 40 87  1  0
 42 88  1  0
 42 89  1  0
 44 90  1  0
 45 91  1  0
 47 92  1  0
 48 93  1  0
 50 94  1  0
 50 95  1  0
 52 96  1  0
 53 97  1  0
 54 98  1  0
 55 99  1  0
 56100  1  0
 57101  1  0
 57102  1  0
M  END
>  <Ligand ID>  (1) 
LIG0002620

>  <Ligand>  (1) 
CHEMBL364119

>  <SMILES>  (1) 
NC(=NCCC[C@@H](C(=O)N[C@H](C(=O)N)Cc1c[nH]c2c1cccc2)NC(=O)[C@@H](NC(=O)[C@@H](NC(=O)c1ccccn1)Cc1ccc(cc1)Cl)Cc1ccccc1)N

>  <CID>  (1) 
44394690.0

>  <ChEMBL ID>  (1) 
nan

>  <InChiKey>  (1) 
MEGNDEDUOKKAPH-BBACVFHCSA-N

>  <InChi>  (1) 
InChI=1S/C41H45ClN10O5/c42-28-17-15-26(16-18-28)22-35(51-37(54)31-13-6-7-19-46-31)40(57)52-34(21-25-9-2-1-3-10-25)39(56)49-32(14-8-20-47-41(44)45)38(55)50-33(36(43)53)23-27-24-48-30-12-5-4-11-29(27)30/h1-7,9-13,15-19,24,32-35,48H,8,14,20-23H2,(H2,43,53)(H,49,56)(H,50,55)(H,51,54)(H,52,57)(H4,44,45,47)/t32-,33-,34-,35-/m0/s1

>  <IUPAC Name>  (1) 
N-[(2S)-1-[[(2S)-1-[[(2S)-1-[[(2S)-1-amino-3-(1H-indol-3-yl)-1-oxopropan-2-yl]amino]-5-(diaminomethylideneamino)-1-oxopentan-2-yl]amino]-1-oxo-3-phenylpropan-2-yl]amino]-3-(4-chlorophenyl)-1-oxopropan-2-yl]pyridine-2-carboxamide

$$$$
