
     RDKit          3D

 70 69  0  0  0  0  0  0  0  0999 V2000
   -9.5309   -0.5927    0.6598 C   0  0  0  0  0  0  0  0  0  0  0  0
   -9.9965   -0.2352   -0.7555 C   0  0  0  0  0  0  0  0  0  0  0  0
   -8.9205    0.6506   -1.3663 C   0  0  0  0  0  0  0  0  0  0  0  0
   -7.6481   -0.1259   -1.3926 C   0  0  0  0  0  0  0  0  0  0  0  0
   -6.4830    0.6298   -1.9759 C   0  0  0  0  0  0  0  0  0  0  0  0
   -6.1706    1.8897   -1.2052 C   0  0  0  0  0  0  0  0  0  0  0  0
   -5.8226    1.5724    0.2352 C   0  0  0  0  0  0  0  0  0  0  0  0
   -4.6121    0.6650    0.3380 C   0  0  0  0  0  0  0  0  0  0  0  0
   -3.3774    1.2411   -0.2583 C   0  0  0  0  0  0  0  0  0  0  0  0
   -2.2393    0.2645   -0.1238 C   0  0  0  0  0  0  0  0  0  0  0  0
   -1.9677   -0.0565    1.3055 C   0  0  0  0  0  0  0  0  0  0  0  0
   -0.8141   -1.0304    1.4815 C   0  0  0  0  0  0  0  0  0  0  0  0
    0.4876   -0.5202    0.9336 C   0  0  0  0  0  0  0  0  0  0  0  0
    1.4963   -1.6094    1.1995 C   0  0  0  0  0  0  0  0  0  0  0  0
    1.5876   -2.5978    0.3955 O   0  0  0  0  0  0  0  0  0  0  0  0
    2.3372   -1.5826    2.2919 O   0  0  0  0  0  0  0  0  0  0  0  0
    3.2893   -2.5496    2.6003 C   0  0  0  0  0  0  0  0  0  0  0  0
    4.3563   -2.7513    1.5586 C   0  0  0  0  0  0  0  0  0  0  0  0
    5.1561   -1.5049    1.2964 C   0  0  0  0  0  0  0  0  0  0  0  0
    6.1430   -1.6250    0.3583 O   0  0  0  0  0  0  0  0  0  0  0  0
    7.0765   -0.2337    0.1823 P   0  0  0  0  0  0  0  0  0  0  0  0
    7.7243    0.0068    1.5503 O   0  0  0  0  0  0  0  0  0  0  0  0
    8.3711   -0.5024   -0.8720 O   0  0  0  0  0  0  0  0  0  0  0  0
    9.1990    0.6154   -0.8783 C   0  0  0  0  0  0  0  0  0  0  0  0
   10.4245    0.4502   -1.7506 C   0  0  1  0  0  0  0  0  0  0  0  0
   11.2141    1.7031   -1.6480 C   0  0  0  0  0  0  0  0  0  0  0  0
   12.3983    1.6722   -1.2352 O   0  0  0  0  0  0  0  0  0  0  0  0
   10.6328    2.9163   -2.0130 O   0  0  0  0  0  0  0  0  0  0  0  0
   11.2481   -0.6414   -1.3317 N   0  0  0  0  0  0  0  0  0  0  0  0
    6.2231    1.0969   -0.3524 O   0  0  0  0  0  0  0  0  0  0  0  0
  -10.4091   -0.6967    1.3466 H   0  0  0  0  0  0  0  0  0  0  0  0
   -8.9061    0.2223    1.0904 H   0  0  0  0  0  0  0  0  0  0  0  0
   -8.9480   -1.5276    0.6798 H   0  0  0  0  0  0  0  0  0  0  0  0
  -10.9703    0.2924   -0.6770 H   0  0  0  0  0  0  0  0  0  0  0  0
  -10.1377   -1.1821   -1.3192 H   0  0  0  0  0  0  0  0  0  0  0  0
   -8.8861    1.5510   -0.7313 H   0  0  0  0  0  0  0  0  0  0  0  0
   -9.2773    0.8814   -2.4068 H   0  0  0  0  0  0  0  0  0  0  0  0
   -7.4052   -0.4405   -0.3467 H   0  0  0  0  0  0  0  0  0  0  0  0
   -7.8186   -1.0612   -1.9619 H   0  0  0  0  0  0  0  0  0  0  0  0
   -5.5888   -0.0216   -1.9392 H   0  0  0  0  0  0  0  0  0  0  0  0
   -6.6839    0.8579   -3.0392 H   0  0  0  0  0  0  0  0  0  0  0  0
   -6.9559    2.6450   -1.2813 H   0  0  0  0  0  0  0  0  0  0  0  0
   -5.2668    2.3405   -1.6646 H   0  0  0  0  0  0  0  0  0  0  0  0
   -6.6453    1.0797    0.7752 H   0  0  0  0  0  0  0  0  0  0  0  0
   -5.5885    2.5020    0.7745 H   0  0  0  0  0  0  0  0  0  0  0  0
   -4.4182    0.6016    1.4521 H   0  0  0  0  0  0  0  0  0  0  0  0
   -4.8333   -0.3685    0.0184 H   0  0  0  0  0  0  0  0  0  0  0  0
   -3.4585    1.4727   -1.3420 H   0  0  0  0  0  0  0  0  0  0  0  0
   -3.1060    2.1646    0.3011 H   0  0  0  0  0  0  0  0  0  0  0  0
   -2.5202   -0.6879   -0.6570 H   0  0  0  0  0  0  0  0  0  0  0  0
   -1.2995    0.6505   -0.5745 H   0  0  0  0  0  0  0  0  0  0  0  0
   -2.8524   -0.6035    1.7288 H   0  0  0  0  0  0  0  0  0  0  0  0
   -1.7812    0.8126    1.9373 H   0  0  0  0  0  0  0  0  0  0  0  0
   -1.0421   -2.0218    1.0910 H   0  0  0  0  0  0  0  0  0  0  0  0
   -0.6744   -1.1023    2.5967 H   0  0  0  0  0  0  0  0  0  0  0  0
    0.4201   -0.3301   -0.1501 H   0  0  0  0  0  0  0  0  0  0  0  0
    0.8180    0.4022    1.4303 H   0  0  0  0  0  0  0  0  0  0  0  0
    2.8504   -3.5690    2.7809 H   0  0  0  0  0  0  0  0  0  0  0  0
    3.7305   -2.2659    3.5830 H   0  0  0  0  0  0  0  0  0  0  0  0
    3.8657   -3.1207    0.6357 H   0  0  0  0  0  0  0  0  0  0  0  0
    4.9894   -3.5950    1.9282 H   0  0  0  0  0  0  0  0  0  0  0  0
    4.4168   -0.7585    0.8812 H   0  0  0  0  0  0  0  0  0  0  0  0
    5.4791   -1.0786    2.2730 H   0  0  0  0  0  0  0  0  0  0  0  0
    8.5915    1.4834   -1.2476 H   0  0  0  0  0  0  0  0  0  0  0  0
    9.5163    0.8727    0.1567 H   0  0  0  0  0  0  0  0  0  0  0  0
   10.1055    0.2535   -2.7922 H   0  0  0  0  0  0  0  0  0  0  0  0
   11.1755    3.7863   -1.9241 H   0  0  0  0  0  0  0  0  0  0  0  0
   11.4029   -0.6974   -0.2990 H   0  0  0  0  0  0  0  0  0  0  0  0
   11.0278   -1.5619   -1.7243 H   0  0  0  0  0  0  0  0  0  0  0  0
    5.3012    0.8841   -0.6108 H   0  0  0  0  0  0  0  0  0  0  0  0
  1  2  1  0
  2  3  1  0
  3  4  1  0
  4  5  1  0
  5  6  1  0
  6  7  1  0
  7  8  1  0
  8  9  1  0
  9 10  1  0
 10 11  1  0
 11 12  1  0
 12 13  1  0
 13 14  1  0
 14 15  2  0
 14 16  1  0
 16 17  1  0
 17 18  1  0
 18 19  1  0
 19 20  1  0
 20 21  1  0
 21 22  2  0
 21 23  1  0
 23 24  1  0
 24 25  1  0
 25 26  1  0
 26 27  2  0
 26 28  1  0
 25 29  1  0
 21 30  1  0
  1 31  1  0
  1 32  1  0
  1 33  1  0
  2 34  1  0
  2 35  1  0
  3 36  1  0
  3 37  1  0
  4 38  1  0
  4 39  1  0
  5 40  1  0
  5 41  1  0
  6 42  1  0
  6 43  1  0
  7 44  1  0
  7 45  1  0
  8 46  1  0
  8 47  1  0
  9 48  1  0
  9 49  1  0
 10 50  1  0
 10 51  1  0
 11 52  1  0
 11 53  1  0
 12 54  1  0
 12 55  1  0
 13 56  1  0
 13 57  1  0
 17 58  1  0
 17 59  1  0
 18 60  1  0
 18 61  1  0
 19 62  1  0
 19 63  1  0
 24 64  1  0
 24 65  1  0
 25 66  1  6
 28 67  1  0
 29 68  1  0
 29 69  1  0
 30 70  1  0
M  END
>  <Ligand ID>  (1) 
LIG0004262

>  <Ligand>  (1) 
CHEMBL3577151

>  <SMILES>  (1) 
CCCCCCCCCCCCCC(=O)OCCCOP(=O)(OC[C@@H](C(=O)O)N)O

>  <CID>  (1) 
122177499.0

>  <ChEMBL ID>  (1) 
nan

>  <InChiKey>  (1) 
PQVATKARQXQHPW-SFHVURJKSA-N

>  <InChi>  (1) 
InChI=1S/C20H40NO8P/c1-2-3-4-5-6-7-8-9-10-11-12-14-19(22)27-15-13-16-28-30(25,26)29-17-18(21)20(23)24/h18H,2-17,21H2,1H3,(H,23,24)(H,25,26)/t18-/m0/s1

>  <IUPAC Name>  (1) 
(2S)-2-amino-3-[hydroxy(3-tetradecanoyloxypropoxy)phosphoryl]oxypropanoic acid

$$$$
