
     RDKit          3D

 66 67  0  0  0  0  0  0  0  0999 V2000
   -3.6584   -1.7778   -3.1797 C   0  0  0  0  0  0  0  0  0  0  0  0
   -2.3555   -1.1149   -3.3101 N   0  0  0  0  0  0  0  0  0  0  0  0
   -1.7460   -1.1297   -1.9686 C   0  0  1  0  0  0  0  0  0  0  0  0
   -0.4135   -0.4822   -2.0727 C   0  0  0  0  0  0  0  0  0  0  0  0
    0.1274    0.0173   -0.7562 C   0  0  1  0  0  0  0  0  0  0  0  0
   -0.8783    0.8892   -0.0290 C   0  0  0  0  0  0  0  0  0  0  0  0
   -2.0601    0.0044    0.2661 C   0  0  1  0  0  0  0  0  0  0  0  0
   -2.6671   -0.4003   -1.0564 C   0  0  0  0  0  0  0  0  0  0  0  0
   -1.6720   -1.1673    1.1317 C   0  0  1  0  0  0  0  0  0  0  0  0
   -0.3099   -1.6626    0.9504 C   0  0  0  0  0  0  0  0  0  0  0  0
    0.6212   -0.9745    0.1109 N   0  0  0  0  0  0  0  0  0  0  0  0
    1.8478   -0.6597    0.8221 C   0  0  0  0  0  0  0  0  0  0  0  0
    3.0101   -0.2755   -0.0447 C   0  0  0  0  0  0  0  0  0  0  0  0
    4.1746   -0.0062    0.8935 C   0  0  0  0  0  0  0  0  0  0  0  0
    5.4047    0.3287    0.1672 C   0  0  0  0  0  0  0  0  0  0  0  0
    6.2267   -0.7519   -0.1839 C   0  0  0  0  0  0  0  0  0  0  0  0
    7.3982   -0.6218   -0.8583 C   0  0  0  0  0  0  0  0  0  0  0  0
    7.7889    0.6672   -1.2118 C   0  0  0  0  0  0  0  0  0  0  0  0
    7.0006    1.7629   -0.8799 C   0  0  0  0  0  0  0  0  0  0  0  0
    5.7939    1.5986   -0.1831 C   0  0  0  0  0  0  0  0  0  0  0  0
   -1.9627   -0.8172    2.5991 C   0  0  0  0  0  0  0  0  0  0  0  0
   -3.1521    0.7298    0.9844 C   0  0  0  0  0  0  0  0  0  0  0  0
   -4.2488   -0.0711    1.3409 C   0  0  0  0  0  0  0  0  0  0  0  0
   -5.3358    0.4802    2.0088 C   0  0  0  0  0  0  0  0  0  0  0  0
   -5.2770    1.8514    2.3017 C   0  0  0  0  0  0  0  0  0  0  0  0
   -4.1842    2.6189    1.9383 C   0  0  0  0  0  0  0  0  0  0  0  0
   -3.1059    2.0675    1.2736 C   0  0  0  0  0  0  0  0  0  0  0  0
   -4.2079    3.9772    2.2669 O   0  0  0  0  0  0  0  0  0  0  0  0
    0.6913    0.0000    0.0000 Cl  0  0  0  0  0  0  0  0  0  0  0  0
    0.6883    0.0000    0.0000 Cl  0  0  0  0  0  0  0  0  0  0  0  0
   -4.4474   -1.0729   -2.8858 H   0  0  0  0  0  0  0  0  0  0  0  0
   -3.9165   -2.2896   -4.1471 H   0  0  0  0  0  0  0  0  0  0  0  0
   -3.5979   -2.5419   -2.3781 H   0  0  0  0  0  0  0  0  0  0  0  0
   -2.4708   -0.1179   -3.6233 H   0  0  0  0  0  0  0  0  0  0  0  0
   -1.7160   -2.2069   -1.6961 H   0  0  0  0  0  0  0  0  0  0  0  0
    0.3236   -1.1561   -2.5143 H   0  0  0  0  0  0  0  0  0  0  0  0
   -0.5072    0.4136   -2.7275 H   0  0  0  0  0  0  0  0  0  0  0  0
    0.9544    0.7163   -1.0302 H   0  0  0  0  0  0  0  0  0  0  0  0
   -1.2070    1.7201   -0.6490 H   0  0  0  0  0  0  0  0  0  0  0  0
   -0.3997    1.2080    0.9244 H   0  0  0  0  0  0  0  0  0  0  0  0
   -2.9627    0.5760   -1.5475 H   0  0  0  0  0  0  0  0  0  0  0  0
   -3.6337   -0.9309   -0.9431 H   0  0  0  0  0  0  0  0  0  0  0  0
   -2.3937   -1.9703    0.8726 H   0  0  0  0  0  0  0  0  0  0  0  0
    0.1792   -1.7539    1.9646 H   0  0  0  0  0  0  0  0  0  0  0  0
   -0.2792   -2.7405    0.5950 H   0  0  0  0  0  0  0  0  0  0  0  0
    2.0716   -1.5212    1.4801 H   0  0  0  0  0  0  0  0  0  0  0  0
    1.6462    0.1892    1.5448 H   0  0  0  0  0  0  0  0  0  0  0  0
    2.8312    0.6134   -0.6472 H   0  0  0  0  0  0  0  0  0  0  0  0
    3.2655   -1.1031   -0.7371 H   0  0  0  0  0  0  0  0  0  0  0  0
    4.3365   -0.9113    1.5005 H   0  0  0  0  0  0  0  0  0  0  0  0
    3.8423    0.8647    1.5306 H   0  0  0  0  0  0  0  0  0  0  0  0
    5.9269   -1.7710    0.0907 H   0  0  0  0  0  0  0  0  0  0  0  0
    8.0306   -1.4741   -1.1239 H   0  0  0  0  0  0  0  0  0  0  0  0
    8.7246    0.8227   -1.7588 H   0  0  0  0  0  0  0  0  0  0  0  0
    7.2849    2.7635   -1.1436 H   0  0  0  0  0  0  0  0  0  0  0  0
    5.1713    2.4100    0.0874 H   0  0  0  0  0  0  0  0  0  0  0  0
   -2.2411    0.2453    2.7241 H   0  0  0  0  0  0  0  0  0  0  0  0
   -0.9735   -0.9080    3.1299 H   0  0  0  0  0  0  0  0  0  0  0  0
   -2.6517   -1.5074    3.0759 H   0  0  0  0  0  0  0  0  0  0  0  0
   -4.2860   -1.1214    1.1098 H   0  0  0  0  0  0  0  0  0  0  0  0
   -6.2002   -0.1131    2.3038 H   0  0  0  0  0  0  0  0  0  0  0  0
   -6.1323    2.2583    2.8211 H   0  0  0  0  0  0  0  0  0  0  0  0
   -2.2651    2.6669    0.9900 H   0  0  0  0  0  0  0  0  0  0  0  0
   -4.4660    4.6627    1.5417 H   0  0  0  0  0  0  0  0  0  0  0  0
   -0.6913    0.0000    0.0000 H   0  0  0  0  0  0  0  0  0  0  0  0
   -0.6883    0.0000    0.0000 H   0  0  0  0  0  0  0  0  0  0  0  0
  1  2  1  0
  2  3  1  0
  3  4  1  0
  4  5  1  0
  5  6  1  0
  6  7  1  0
  7  8  1  0
  7  9  1  0
  9 10  1  0
 10 11  1  0
 11 12  1  0
 12 13  1  0
 13 14  1  0
 14 15  1  0
 15 16  2  0
 16 17  1  0
 17 18  2  0
 18 19  1  0
 19 20  2  0
  9 21  1  0
  7 22  1  1
 22 23  2  0
 23 24  1  0
 24 25  2  0
 25 26  1  0
 26 27  2  0
 26 28  1  0
  8  3  1  0
 20 15  1  0
 27 22  1  0
 11  5  1  0
  1 31  1  0
  1 32  1  0
  1 33  1  0
  2 34  1  0
  3 35  1  1
  4 36  1  0
  4 37  1  0
  5 38  1  6
  6 39  1  0
  6 40  1  0
  8 41  1  0
  8 42  1  0
  9 43  1  6
 10 44  1  0
 10 45  1  0
 12 46  1  0
 12 47  1  0
 13 48  1  0
 13 49  1  0
 14 50  1  0
 14 51  1  0
 16 52  1  0
 17 53  1  0
 18 54  1  0
 19 55  1  0
 20 56  1  0
 21 57  1  0
 21 58  1  0
 21 59  1  0
 23 60  1  0
 24 61  1  0
 25 62  1  0
 27 63  1  0
 28 64  1  0
 29 65  1  0
 30 66  1  0
M  END
>  <Ligand ID>  (1) 
LIG0005254

>  <Ligand>  (1) 
CHEMBL3217272

>  <SMILES>  (1) 
CN[C@H]1C[C@H]2C[C@@](C1)([C@@H](CN2CCCc1ccccc1)C)c1cccc(c1)O.Cl.Cl

>  <CID>  (1) 
72713098.0

>  <ChEMBL ID>  (1) 
nan

>  <InChiKey>  (1) 
XEZDTNPNVDUMNH-MQPHJAPDSA-N

>  <InChi>  (1) 
InChI=1S/C25H34N2O.2ClH/c1-19-18-27(13-7-10-20-8-4-3-5-9-20)23-15-22(26-2)16-25(19,17-23)21-11-6-12-24(28)14-21;;/h3-6,8-9,11-12,14,19,22-23,26,28H,7,10,13,15-18H2,1-2H3;2*1H/t19-,22+,23+,25+;;/m1../s1

>  <IUPAC Name>  (1) 
3-[(1R,4S,5S,7R)-4-methyl-7-(methylamino)-2-(3-phenylpropyl)-2-azabicyclo[3.3.1]nonan-5-yl]phenol;dihydrochloride

$$$$
