
     RDKit          3D

 39 41  0  0  0  0  0  0  0  0999 V2000
   -6.1845    0.6968   -2.1179 O   0  0  0  0  0  0  0  0  0  0  0  0
   -4.9989    0.4571   -1.4441 C   0  0  0  0  0  0  0  0  0  0  0  0
   -4.5915   -0.8302   -1.1787 C   0  0  0  0  0  0  0  0  0  0  0  0
   -3.3920   -1.0448   -0.4965 C   0  0  0  0  0  0  0  0  0  0  0  0
   -2.6475    0.0359   -0.1069 C   0  0  0  0  0  0  0  0  0  0  0  0
   -3.0719    1.3437   -0.3820 C   0  0  0  0  0  0  0  0  0  0  0  0
   -4.2551    1.5746   -1.0559 C   0  0  0  0  0  0  0  0  0  0  0  0
   -1.4053   -0.0806    0.6037 N   0  0  0  0  0  0  0  0  0  0  0  0
   -1.3608   -0.5710    1.8551 C   0  0  0  0  0  0  0  0  0  0  0  0
   -2.4681   -1.0811    2.7128 C   0  0  0  0  0  0  0  0  0  0  0  0
   -0.0517   -0.5446    2.2794 C   0  0  0  0  0  0  0  0  0  0  0  0
    0.7020   -0.0115    1.2146 C   0  0  0  0  0  0  0  0  0  0  0  0
   -0.1685    0.2663    0.1875 C   0  0  0  0  0  0  0  0  0  0  0  0
    0.1509    0.8501   -1.1356 C   0  0  0  0  0  0  0  0  0  0  0  0
    2.1288    0.1825    1.3508 C   0  0  0  0  0  0  0  0  0  0  0  0
    3.0651   -0.1950    0.5365 C   0  0  0  0  0  0  0  0  0  0  0  0
    2.9159   -1.0896   -1.0376 S   0  0  0  0  0  0  0  0  0  0  0  0
    4.5950   -0.7383   -1.5567 C   0  0  0  0  0  0  0  0  0  0  0  0
    5.1469   -0.9349   -3.0880 S   0  0  0  0  0  0  0  0  0  0  0  0
    5.2744   -0.2782   -0.4078 N   0  0  0  0  0  0  0  0  0  0  0  0
    4.4916    0.0107    0.6970 C   0  0  0  0  0  0  0  0  0  0  0  0
    4.9852    0.4375    1.8111 O   0  0  0  0  0  0  0  0  0  0  0  0
    6.7453   -0.1242   -0.4202 C   0  0  0  0  0  0  0  0  0  0  0  0
   -6.6867    1.5450   -2.1883 H   0  0  0  0  0  0  0  0  0  0  0  0
   -5.1664   -1.6789   -1.4870 H   0  0  0  0  0  0  0  0  0  0  0  0
   -3.0459   -2.0619   -0.2711 H   0  0  0  0  0  0  0  0  0  0  0  0
   -2.4911    2.2035   -0.0754 H   0  0  0  0  0  0  0  0  0  0  0  0
   -4.6116    2.5911   -1.2866 H   0  0  0  0  0  0  0  0  0  0  0  0
   -3.3906   -0.5763    2.3684 H   0  0  0  0  0  0  0  0  0  0  0  0
   -2.5310   -2.1724    2.7255 H   0  0  0  0  0  0  0  0  0  0  0  0
   -2.3030   -0.7842    3.7797 H   0  0  0  0  0  0  0  0  0  0  0  0
    0.3213   -0.8685    3.2391 H   0  0  0  0  0  0  0  0  0  0  0  0
    0.8967    1.6669   -1.0944 H   0  0  0  0  0  0  0  0  0  0  0  0
   -0.8056    1.3067   -1.5430 H   0  0  0  0  0  0  0  0  0  0  0  0
    0.3844    0.0713   -1.9177 H   0  0  0  0  0  0  0  0  0  0  0  0
    2.4481    0.7209    2.2632 H   0  0  0  0  0  0  0  0  0  0  0  0
    7.0603    0.8494   -0.7824 H   0  0  0  0  0  0  0  0  0  0  0  0
    7.2005   -0.9416   -1.0098 H   0  0  0  0  0  0  0  0  0  0  0  0
    7.1153   -0.2025    0.6276 H   0  0  0  0  0  0  0  0  0  0  0  0
  1  2  1  0
  2  3  2  0
  3  4  1  0
  4  5  2  0
  5  6  1  0
  6  7  2  0
  5  8  1  0
  8  9  1  0
  9 10  1  0
  9 11  2  0
 11 12  1  0
 12 13  2  0
 13 14  1  0
 12 15  1  0
 15 16  2  0
 16 17  1  0
 17 18  1  0
 18 19  2  0
 18 20  1  0
 20 21  1  0
 21 22  2  0
 20 23  1  0
  7  2  1  0
 13  8  1  0
 21 16  1  0
  1 24  1  0
  3 25  1  0
  4 26  1  0
  6 27  1  0
  7 28  1  0
 10 29  1  0
 10 30  1  0
 10 31  1  0
 11 32  1  0
 14 33  1  0
 14 34  1  0
 14 35  1  0
 15 36  1  0
 23 37  1  0
 23 38  1  0
 23 39  1  0
M  END
>  <Ligand ID>  (1) 
LIG0003723

>  <Ligand>  (1) 
MLS000779144

>  <SMILES>  (1) 
Oc1ccc(cc1)n1c(C)cc(c1C)/C=C/1\SC(=S)N(C1=O)C

>  <CID>  (1) 
1967479.0

>  <ChEMBL ID>  (1) 
nan

>  <InChiKey>  (1) 
XDOKLSJPKKDTBH-DHDCSXOGSA-N

>  <InChi>  (1) 
InChI=1S/C17H16N2O2S2/c1-10-8-12(9-15-16(21)18(3)17(22)23-15)11(2)19(10)13-4-6-14(20)7-5-13/h4-9,20H,1-3H3/b15-9-

>  <IUPAC Name>  (1) 
(5Z)-5-[[1-(4-hydroxyphenyl)-2,5-dimethylpyrrol-3-yl]methylidene]-3-methyl-2-sulfanylidene-1,3-thiazolidin-4-one

$$$$
