
     RDKit          3D

 28 28  0  0  0  0  0  0  0  0999 V2000
    0.8846    3.2857    0.7049 C   0  0  0  0  0  0  0  0  0  0  0  0
    0.6062    2.9842   -0.7426 C   0  0  0  0  0  0  0  0  0  0  0  0
   -0.1518    1.8147   -0.8332 O   0  0  0  0  0  0  0  0  0  0  0  0
    0.3152    0.6170   -0.3840 C   0  0  0  0  0  0  0  0  0  0  0  0
    1.5422    0.3770    0.1828 C   0  0  0  0  0  0  0  0  0  0  0  0
    1.9447   -0.8797    0.6193 C   0  0  0  0  0  0  0  0  0  0  0  0
    3.2682   -1.0581    1.2140 C   0  0  0  0  0  0  0  0  0  0  0  0
    3.6353   -2.1917    1.6094 O   0  0  0  0  0  0  0  0  0  0  0  0
    1.0978   -1.9606    0.4928 C   0  0  0  0  0  0  0  0  0  0  0  0
   -0.1474   -1.7480   -0.0762 C   0  0  0  0  0  0  0  0  0  0  0  0
   -0.5291   -0.4927   -0.5034 C   0  0  0  0  0  0  0  0  0  0  0  0
   -1.7648   -0.3306   -1.0576 O   0  0  0  0  0  0  0  0  0  0  0  0
   -2.7326   -1.3014   -1.2568 C   0  0  0  0  0  0  0  0  0  0  0  0
   -3.2161   -1.9818   -0.0294 C   0  0  0  0  0  0  0  0  0  0  0  0
    0.6032    2.4701    1.3982 H   0  0  0  0  0  0  0  0  0  0  0  0
    0.3082    4.1844    1.0351 H   0  0  0  0  0  0  0  0  0  0  0  0
    1.9793    3.4584    0.8411 H   0  0  0  0  0  0  0  0  0  0  0  0
   -0.0032    3.8030   -1.2191 H   0  0  0  0  0  0  0  0  0  0  0  0
    1.5643    2.8668   -1.3259 H   0  0  0  0  0  0  0  0  0  0  0  0
    2.2444    1.1694    0.2999 H   0  0  0  0  0  0  0  0  0  0  0  0
    3.9280   -0.2026    1.3096 H   0  0  0  0  0  0  0  0  0  0  0  0
    1.4353   -2.9272    0.8404 H   0  0  0  0  0  0  0  0  0  0  0  0
   -0.7810   -2.6229   -0.1577 H   0  0  0  0  0  0  0  0  0  0  0  0
   -2.3275   -2.0826   -1.9654 H   0  0  0  0  0  0  0  0  0  0  0  0
   -3.5901   -0.8620   -1.8316 H   0  0  0  0  0  0  0  0  0  0  0  0
   -4.2985   -1.7445    0.1022 H   0  0  0  0  0  0  0  0  0  0  0  0
   -3.1364   -3.0720   -0.1278 H   0  0  0  0  0  0  0  0  0  0  0  0
   -2.6787   -1.5723    0.8610 H   0  0  0  0  0  0  0  0  0  0  0  0
  1  2  1  0
  2  3  1  0
  3  4  1  0
  4  5  2  0
  5  6  1  0
  6  7  1  0
  7  8  2  0
  6  9  2  0
  9 10  1  0
 10 11  2  0
 11 12  1  0
 12 13  1  0
 13 14  1  0
 11  4  1  0
  1 15  1  0
  1 16  1  0
  1 17  1  0
  2 18  1  0
  2 19  1  0
  5 20  1  0
  7 21  1  0
  9 22  1  0
 10 23  1  0
 13 24  1  0
 13 25  1  0
 14 26  1  0
 14 27  1  0
 14 28  1  0
M  END
>  <Ligand ID>  (1) 
LIG0002080

>  <Ligand>  (1) 
3,4-diethoxybenzaldehyde

>  <SMILES>  (1) 
CCOc1cc(C=O)ccc1OCC

>  <CID>  (1) 
74847.0

>  <ChEMBL ID>  (1) 
nan

>  <InChiKey>  (1) 
SSTRYEXQYQGGAS-UHFFFAOYSA-N

>  <InChi>  (1) 
InChI=1S/C11H14O3/c1-3-13-10-6-5-9(8-12)7-11(10)14-4-2/h5-8H,3-4H2,1-2H3

>  <IUPAC Name>  (1) 
3,4-diethoxybenzaldehyde

$$$$
