
     RDKit          3D

 30 30  0  0  0  0  0  0  0  0999 V2000
    3.1556   -0.9175    1.2354 N   0  0  0  0  0  0  0  0  0  0  0  0
    1.7162   -1.0825    0.9301 C   0  0  0  0  0  0  0  0  0  0  0  0
    1.5996   -1.1251   -0.5668 C   0  0  0  0  0  0  0  0  0  0  0  0
    2.0835    0.1022   -1.3266 C   0  0  0  0  0  0  0  0  0  0  0  0
    0.6827   -0.3481   -1.3953 C   0  0  0  0  0  0  0  0  0  0  0  0
   -0.4601    0.4226   -0.8769 C   0  0  0  0  0  0  0  0  0  0  0  0
   -1.3002    0.0224    0.1319 C   0  0  0  0  0  0  0  0  0  0  0  0
   -1.1214   -1.2125    0.7245 O   0  0  0  0  0  0  0  0  0  0  0  0
   -1.9947   -1.6021    1.7571 C   0  0  0  0  0  0  0  0  0  0  0  0
   -2.3290    0.8709    0.5438 C   0  0  0  0  0  0  0  0  0  0  0  0
   -2.5379    2.1072   -0.0285 C   0  0  0  0  0  0  0  0  0  0  0  0
   -1.6942    2.5091   -1.0432 C   0  0  0  0  0  0  0  0  0  0  0  0
   -0.6737    1.6793   -1.4583 C   0  0  0  0  0  0  0  0  0  0  0  0
    0.3545    2.2646   -2.7536 Cl  0  0  0  0  0  0  0  0  0  0  0  0
   -1.9162    3.7266   -1.5927 F   0  0  0  0  0  0  0  0  0  0  0  0
    0.6829    0.0000    0.0000 Cl  0  0  0  0  0  0  0  0  0  0  0  0
    3.6879   -1.5182    0.5547 H   0  0  0  0  0  0  0  0  0  0  0  0
    3.4666    0.0659    1.0084 H   0  0  0  0  0  0  0  0  0  0  0  0
    1.2582   -0.1151    1.2858 H   0  0  0  0  0  0  0  0  0  0  0  0
    1.3779   -1.9630    1.4622 H   0  0  0  0  0  0  0  0  0  0  0  0
    2.0543   -2.0633   -0.9861 H   0  0  0  0  0  0  0  0  0  0  0  0
    2.4230    0.9166   -0.6782 H   0  0  0  0  0  0  0  0  0  0  0  0
    2.7394   -0.0268   -2.2180 H   0  0  0  0  0  0  0  0  0  0  0  0
    0.4193   -0.8511   -2.3792 H   0  0  0  0  0  0  0  0  0  0  0  0
   -1.7997   -2.6986    1.9068 H   0  0  0  0  0  0  0  0  0  0  0  0
   -1.7679   -1.0773    2.7257 H   0  0  0  0  0  0  0  0  0  0  0  0
   -3.0619   -1.4403    1.5415 H   0  0  0  0  0  0  0  0  0  0  0  0
   -3.0126    0.5894    1.3387 H   0  0  0  0  0  0  0  0  0  0  0  0
   -3.3492    2.7650    0.3033 H   0  0  0  0  0  0  0  0  0  0  0  0
   -0.6829    0.0000    0.0000 H   0  0  0  0  0  0  0  0  0  0  0  0
  1  2  1  0
  2  3  1  0
  3  4  1  0
  4  5  1  0
  5  6  1  0
  6  7  2  0
  7  8  1  0
  8  9  1  0
  7 10  1  0
 10 11  2  0
 11 12  1  0
 12 13  2  0
 13 14  1  0
 12 15  1  0
  5  3  1  0
 13  6  1  0
  1 17  1  0
  1 18  1  0
  2 19  1  0
  2 20  1  0
  3 21  1  0
  4 22  1  0
  4 23  1  0
  5 24  1  0
  9 25  1  0
  9 26  1  0
  9 27  1  0
 10 28  1  0
 11 29  1  0
 16 30  1  0
M  END
>  <Ligand ID>  (1) 
LIG0004718

>  <Ligand>  (1) 
CHEMBL3770225

>  <SMILES>  (1) 
NCC1CC1c1c(OC)ccc(c1Cl)F.Cl

>  <CID>  (1) 
127028101.0

>  <ChEMBL ID>  (1) 
nan

>  <InChiKey>  (1) 
PLYUWWSULGPEOY-UHFFFAOYSA-N

>  <InChi>  (1) 
InChI=1S/C11H13ClFNO.ClH/c1-15-9-3-2-8(13)11(12)10(9)7-4-6(7)5-14;/h2-3,6-7H,4-5,14H2,1H3;1H

>  <IUPAC Name>  (1) 
[2-(2-chloro-3-fluoro-6-methoxyphenyl)cyclopropyl]methanamine;hydrochloride

$$$$
