
     RDKit          3D

 43 43  0  0  0  0  0  0  0  0999 V2000
    5.9153    2.2259   -0.3869 O   0  0  0  0  0  0  0  0  0  0  0  0
    4.9969    1.2105   -0.6402 C   0  0  0  0  0  0  0  0  0  0  0  0
    3.8426    1.5132   -1.0052 O   0  0  0  0  0  0  0  0  0  0  0  0
    5.4296   -0.1798   -0.4660 C   0  0  0  0  0  0  0  0  0  0  0  0
    4.9114   -0.7854    0.8230 C   0  0  0  0  0  0  0  0  0  0  0  0
    3.4252   -0.7344    0.7568 C   0  0  0  0  0  0  0  0  0  0  0  0
    2.6971    0.3472    1.2204 C   0  0  0  0  0  0  0  0  0  0  0  0
    1.3206    0.3837    1.1560 C   0  0  0  0  0  0  0  0  0  0  0  0
    0.6785   -0.7198    0.6010 C   0  0  0  0  0  0  0  0  0  0  0  0
    1.3733   -1.8155    0.1288 C   0  0  0  0  0  0  0  0  0  0  0  0
    2.7452   -1.8244    0.2058 C   0  0  0  0  0  0  0  0  0  0  0  0
   -0.8155   -0.7535    0.5002 C   0  0  0  0  0  0  0  0  0  0  0  0
   -1.2947   -0.4157   -1.2119 P   0  0  0  0  0  0  0  0  0  0  0  0
   -0.0344   -0.3412   -2.0821 O   0  0  0  0  0  0  0  0  0  0  0  0
   -2.1778    1.1529   -1.3364 C   0  0  0  0  0  0  0  0  0  0  0  0
   -3.6478    0.9037   -1.3118 C   0  0  0  0  0  0  0  0  0  0  0  0
   -4.0686    0.2277   -0.0428 C   0  0  2  0  0  0  0  0  0  0  0  0
   -5.5609    0.0414   -0.1622 C   0  0  0  0  0  0  0  0  0  0  0  0
   -6.0413   -0.7098   -1.0789 O   0  0  0  0  0  0  0  0  0  0  0  0
   -6.4076    0.6969    0.7371 O   0  0  0  0  0  0  0  0  0  0  0  0
   -3.7617    1.1019    1.0740 N   0  0  0  0  0  0  0  0  0  0  0  0
   -2.1865   -1.7147   -1.7768 O   0  0  0  0  0  0  0  0  0  0  0  0
   -1.2727   -2.0000    0.9120 O   0  0  0  0  0  0  0  0  0  0  0  0
    5.6668    3.1898   -0.4237 H   0  0  0  0  0  0  0  0  0  0  0  0
    6.5464   -0.2487   -0.4191 H   0  0  0  0  0  0  0  0  0  0  0  0
    5.1225   -0.7700   -1.3496 H   0  0  0  0  0  0  0  0  0  0  0  0
    5.2043   -1.8350    0.9181 H   0  0  0  0  0  0  0  0  0  0  0  0
    5.2208   -0.2131    1.7006 H   0  0  0  0  0  0  0  0  0  0  0  0
    3.2099    1.2064    1.6536 H   0  0  0  0  0  0  0  0  0  0  0  0
    0.7351    1.2314    1.5180 H   0  0  0  0  0  0  0  0  0  0  0  0
    0.8556   -2.6623   -0.2981 H   0  0  0  0  0  0  0  0  0  0  0  0
    3.3352   -2.6525   -0.1472 H   0  0  0  0  0  0  0  0  0  0  0  0
   -1.1959    0.0305    1.1858 H   0  0  0  0  0  0  0  0  0  0  0  0
   -1.8861    1.7109   -2.2623 H   0  0  0  0  0  0  0  0  0  0  0  0
   -1.8725    1.7919   -0.4811 H   0  0  0  0  0  0  0  0  0  0  0  0
   -4.0119    0.3390   -2.1830 H   0  0  0  0  0  0  0  0  0  0  0  0
   -4.2142    1.8821   -1.3532 H   0  0  0  0  0  0  0  0  0  0  0  0
   -3.5821   -0.7386    0.0744 H   0  0  0  0  0  0  0  0  0  0  0  0
   -7.4177    0.6077    0.6827 H   0  0  0  0  0  0  0  0  0  0  0  0
   -4.4408    1.0254    1.8376 H   0  0  0  0  0  0  0  0  0  0  0  0
   -3.6421    2.0788    0.7194 H   0  0  0  0  0  0  0  0  0  0  0  0
   -3.0296   -1.4195   -2.1535 H   0  0  0  0  0  0  0  0  0  0  0  0
   -0.6699   -2.3647    1.6125 H   0  0  0  0  0  0  0  0  0  0  0  0
  1  2  1  0
  2  3  2  0
  2  4  1  0
  4  5  1  0
  5  6  1  0
  6  7  2  0
  7  8  1  0
  8  9  2  0
  9 10  1  0
 10 11  2  0
  9 12  1  0
 12 13  1  0
 13 14  2  0
 13 15  1  0
 15 16  1  0
 16 17  1  0
 17 18  1  0
 18 19  2  0
 18 20  1  0
 17 21  1  0
 13 22  1  0
 12 23  1  0
 11  6  1  0
  1 24  1  0
  4 25  1  0
  4 26  1  0
  5 27  1  0
  5 28  1  0
  7 29  1  0
  8 30  1  0
 10 31  1  0
 11 32  1  0
 12 33  1  0
 15 34  1  0
 15 35  1  0
 16 36  1  0
 16 37  1  0
 17 38  1  1
 20 39  1  0
 21 40  1  0
 21 41  1  0
 22 42  1  0
 23 43  1  0
M  END
>  <Ligand ID>  (1) 
LIG0002545

>  <Ligand>  (1) 
US9212196, Derivative 12

>  <SMILES>  (1) 
OC(=O)CCc1ccc(cc1)C(P(=O)(CC[C@H](C(=O)O)N)O)O

>  <CID>  (1) 
122197944.0

>  <ChEMBL ID>  (1) 
nan

>  <InChiKey>  (1) 
WQHZBTAYFHHLRA-YNODCEANSA-N

>  <InChi>  (1) 
InChI=1S/C14H20NO7P/c15-11(13(18)19)7-8-23(21,22)14(20)10-4-1-9(2-5-10)3-6-12(16)17/h1-2,4-5,11,14,20H,3,6-8,15H2,(H,16,17)(H,18,19)(H,21,22)/t11-,14?/m1/s1

>  <IUPAC Name>  (1) 
(2R)-2-amino-4-[[[4-(2-carboxyethyl)phenyl]-hydroxymethyl]-hydroxyphosphoryl]butanoic acid

$$$$
