
     RDKit          3D

 63 68  0  0  0  0  0  0  0  0999 V2000
    4.2915    1.5180   -1.3617 C   0  0  0  0  0  0  0  0  0  0  0  0
    4.6027    1.4799    0.0912 C   0  0  0  0  0  0  0  0  0  0  0  0
    3.5355    1.4452    1.0809 C   0  0  0  0  0  0  0  0  0  0  0  0
    2.5635    0.3197    1.1685 C   0  0  2  0  0  0  0  0  0  0  0  0
    1.6760    0.0251    0.0379 C   0  0  2  0  0  0  0  0  0  0  0  0
    0.7070    1.0735   -0.4439 C   0  0  0  0  0  0  0  0  0  0  0  0
   -0.5233    0.3879   -1.0289 C   0  0  0  0  0  0  0  0  0  0  0  0
    0.0199   -0.6046   -2.0034 C   0  0  0  0  0  0  0  0  0  0  0  0
    0.9333   -1.4460   -1.5053 C   0  0  0  0  0  0  0  0  0  0  0  0
    0.9908   -1.3572    0.0553 C   0  0  1  0  0  0  0  0  0  0  0  0
    1.8370   -2.3631    0.4010 O   0  0  0  0  0  0  0  0  0  0  0  0
    1.2641   -3.6078    0.4276 C   0  0  0  0  0  0  0  0  0  0  0  0
   -0.3544   -1.5111    0.3904 C   0  0  2  0  0  0  0  0  0  0  0  0
   -1.0809   -0.2322    0.1831 C   0  0  0  0  0  0  0  0  0  0  0  0
   -1.3857    0.6408    1.3225 C   0  0  0  0  0  0  0  0  0  0  0  0
   -2.1927    1.7979    0.7781 C   0  0  0  0  0  0  0  0  0  0  0  0
   -1.6252    2.3426   -0.4403 N   0  0  0  0  0  0  0  0  0  0  0  0
   -1.5900    1.2777   -1.4830 C   0  0  0  0  0  0  0  0  0  0  0  0
   -2.9797    0.7418   -1.6850 C   0  0  0  0  0  0  0  0  0  0  0  0
   -3.3376   -0.3827   -0.7776 C   0  0  0  0  0  0  0  0  0  0  0  0
   -2.3797   -0.8591    0.0155 C   0  0  0  0  0  0  0  0  0  0  0  0
   -2.4419   -1.9136    0.8912 C   0  0  0  0  0  0  0  0  0  0  0  0
   -1.1570   -1.9798    1.4353 O   0  0  0  0  0  0  0  0  0  0  0  0
   -3.6697   -2.5457    0.9525 C   0  0  0  0  0  0  0  0  0  0  0  0
   -3.7828   -3.6080    1.8219 O   0  0  0  0  0  0  0  0  0  0  0  0
   -4.7453   -2.1040    0.1493 C   0  0  0  0  0  0  0  0  0  0  0  0
   -4.5687   -1.0060   -0.7280 C   0  0  0  0  0  0  0  0  0  0  0  0
   -2.4425    3.4481   -0.8363 C   0  0  0  0  0  0  0  0  0  0  0  0
    1.9108    0.5964    2.4001 O   0  0  0  0  0  0  0  0  0  0  0  0
    3.4336   -0.9100    1.5388 C   0  0  0  0  0  0  0  0  0  0  0  0
    3.3291    1.9745   -1.6363 H   0  0  0  0  0  0  0  0  0  0  0  0
    5.0468    2.1551   -1.9268 H   0  0  0  0  0  0  0  0  0  0  0  0
    4.3940    0.5271   -1.8733 H   0  0  0  0  0  0  0  0  0  0  0  0
    5.1933    2.4396    0.2948 H   0  0  0  0  0  0  0  0  0  0  0  0
    5.3995    0.7011    0.2335 H   0  0  0  0  0  0  0  0  0  0  0  0
    3.9145    1.6460    2.1299 H   0  0  0  0  0  0  0  0  0  0  0  0
    2.9038    2.3878    0.9048 H   0  0  0  0  0  0  0  0  0  0  0  0
    2.4472   -0.0308   -0.7970 H   0  0  0  0  0  0  0  0  0  0  0  0
    0.4485    1.8084    0.3457 H   0  0  0  0  0  0  0  0  0  0  0  0
    1.0668    1.7048   -1.2801 H   0  0  0  0  0  0  0  0  0  0  0  0
   -0.3167   -0.6183   -3.0227 H   0  0  0  0  0  0  0  0  0  0  0  0
    1.5548   -2.0986   -2.0421 H   0  0  0  0  0  0  0  0  0  0  0  0
    0.4273   -3.6745    1.1500 H   0  0  0  0  0  0  0  0  0  0  0  0
    0.9133   -3.9762   -0.5489 H   0  0  0  0  0  0  0  0  0  0  0  0
    2.0349   -4.3230    0.8272 H   0  0  0  0  0  0  0  0  0  0  0  0
   -0.7441   -2.2718   -0.3826 H   0  0  0  0  0  0  0  0  0  0  0  0
   -2.0331    0.1106    2.0712 H   0  0  0  0  0  0  0  0  0  0  0  0
   -0.5971    1.0744    1.9179 H   0  0  0  0  0  0  0  0  0  0  0  0
   -3.2523    1.5828    0.6400 H   0  0  0  0  0  0  0  0  0  0  0  0
   -2.1343    2.6369    1.5116 H   0  0  0  0  0  0  0  0  0  0  0  0
   -1.2917    1.8067   -2.4096 H   0  0  0  0  0  0  0  0  0  0  0  0
   -3.7090    1.5653   -1.5004 H   0  0  0  0  0  0  0  0  0  0  0  0
   -3.1148    0.4171   -2.7300 H   0  0  0  0  0  0  0  0  0  0  0  0
   -3.2981   -4.4874    1.7274 H   0  0  0  0  0  0  0  0  0  0  0  0
   -5.6943   -2.6072    0.2104 H   0  0  0  0  0  0  0  0  0  0  0  0
   -5.3609   -0.6484   -1.3507 H   0  0  0  0  0  0  0  0  0  0  0  0
   -1.9660    4.3727   -0.4021 H   0  0  0  0  0  0  0  0  0  0  0  0
   -2.4169    3.6101   -1.9388 H   0  0  0  0  0  0  0  0  0  0  0  0
   -3.4746    3.4115   -0.4502 H   0  0  0  0  0  0  0  0  0  0  0  0
    1.6946    1.5619    2.4392 H   0  0  0  0  0  0  0  0  0  0  0  0
    4.2958   -0.4864    2.1362 H   0  0  0  0  0  0  0  0  0  0  0  0
    2.9278   -1.5739    2.2411 H   0  0  0  0  0  0  0  0  0  0  0  0
    3.9032   -1.3615    0.6632 H   0  0  0  0  0  0  0  0  0  0  0  0
  1  2  1  0
  2  3  1  0
  3  4  1  0
  4  5  1  0
  5  6  1  0
  6  7  1  0
  7  8  1  0
  8  9  2  0
  9 10  1  0
 10 11  1  1
 11 12  1  0
 10 13  1  0
 13 14  1  0
 14 15  1  0
 15 16  1  0
 16 17  1  0
 17 18  1  0
 18 19  1  0
 19 20  1  0
 20 21  1  0
 21 22  2  0
 22 23  1  0
 22 24  1  0
 24 25  1  0
 24 26  2  0
 26 27  1  0
 17 28  1  0
  4 29  1  1
  4 30  1  0
 10  5  1  0
 23 13  1  0
 18  7  1  0
 27 20  2  0
 14  7  1  0
 21 14  1  0
  1 31  1  0
  1 32  1  0
  1 33  1  0
  2 34  1  0
  2 35  1  0
  3 36  1  0
  3 37  1  0
  5 38  1  6
  6 39  1  0
  6 40  1  0
  8 41  1  0
  9 42  1  0
 12 43  1  0
 12 44  1  0
 12 45  1  0
 13 46  1  6
 15 47  1  0
 15 48  1  0
 16 49  1  0
 16 50  1  0
 18 51  1  0
 19 52  1  0
 19 53  1  0
 25 54  1  0
 26 55  1  0
 27 56  1  0
 28 57  1  0
 28 58  1  0
 28 59  1  0
 29 60  1  0
 30 61  1  0
 30 62  1  0
 30 63  1  0
M  END
>  <Ligand ID>  (1) 
LIG0004065

>  <Ligand>  (1) 
CHEMBL1169585

>  <SMILES>  (1) 
CCC[C@]([C@@H]1CC23C=C[C@]1(OC)[C@@H]1C43CCN(C2Cc2c4c(O1)c(O)cc2)C)(O)C

>  <CID>  (1) 
49799969.0

>  <ChEMBL ID>  (1) 
nan

>  <InChiKey>  (1) 
CAHCBJPUTCKATP-QQAQEGDCSA-N

>  <InChi>  (1) 
InChI=1S/C25H33NO4/c1-5-8-22(2,28)17-14-23-9-10-25(17,29-4)21-24(23)11-12-26(3)18(23)13-15-6-7-16(27)20(30-21)19(15)24/h6-7,9-10,17-18,21,27-28H,5,8,11-14H2,1-4H3/t17-,18?,21-,22+,23?,24?,25+/m0/s1

>  <IUPAC Name>  (1) 
(14S,15R,19S)-19-[(2R)-2-hydroxypentan-2-yl]-15-methoxy-5-methyl-13-oxa-5-azahexacyclo[13.2.2.12,8.01,6.02,14.012,20]icosa-8(20),9,11,16-tetraen-11-ol

$$$$
