
     RDKit          3D

 33 35  0  0  0  0  0  0  0  0999 V2000
    3.8633    1.3528    0.9950 C   0  0  0  0  0  0  0  0  0  0  0  0
    4.3096   -0.0585    0.6438 C   0  0  0  0  0  0  0  0  0  0  0  0
    3.4967   -0.3727   -0.5048 N   0  0  0  0  0  0  0  0  0  0  0  0
    2.4886    0.3914   -0.6447 C   0  0  0  0  0  0  0  0  0  0  0  0
    2.5118    1.3439    0.4388 N   0  0  0  0  0  0  0  0  0  0  0  0
    1.4186    0.4424   -1.6749 C   0  0  0  0  0  0  0  0  0  0  0  0
    0.0785    0.4530   -1.0893 N   0  0  0  0  0  0  0  0  0  0  0  0
   -0.4802   -0.6776   -0.4336 C   0  0  0  0  0  0  0  0  0  0  0  0
    0.2853   -1.8256   -0.4246 C   0  0  0  0  0  0  0  0  0  0  0  0
   -0.1195   -3.0156    0.1405 C   0  0  0  0  0  0  0  0  0  0  0  0
   -1.3628   -3.0367    0.7231 C   0  0  0  0  0  0  0  0  0  0  0  0
   -2.1270   -1.8922    0.7143 C   0  0  0  0  0  0  0  0  0  0  0  0
   -1.7234   -0.6981    0.1490 C   0  0  0  0  0  0  0  0  0  0  0  0
   -2.5739    0.4980    0.1835 C   0  0  0  0  0  0  0  0  0  0  0  0
   -3.8737    0.4670    0.7372 C   0  0  0  0  0  0  0  0  0  0  0  0
   -4.5753    1.5893    0.7232 C   0  0  0  0  0  0  0  0  0  0  0  0
   -4.0035    2.7314    0.1694 C   0  0  0  0  0  0  0  0  0  0  0  0
   -2.3875    2.0817   -0.3300 S   0  0  0  0  0  0  0  0  0  0  0  0
    4.4590    2.1143    0.4400 H   0  0  0  0  0  0  0  0  0  0  0  0
    3.8493    1.4790    2.0780 H   0  0  0  0  0  0  0  0  0  0  0  0
    4.0845   -0.7115    1.5175 H   0  0  0  0  0  0  0  0  0  0  0  0
    5.3769   -0.0747    0.4146 H   0  0  0  0  0  0  0  0  0  0  0  0
    1.7047    1.9323    0.7762 H   0  0  0  0  0  0  0  0  0  0  0  0
    1.5027   -0.4510   -2.3587 H   0  0  0  0  0  0  0  0  0  0  0  0
    1.5184    1.3114   -2.3454 H   0  0  0  0  0  0  0  0  0  0  0  0
   -0.4205    1.3619   -1.2032 H   0  0  0  0  0  0  0  0  0  0  0  0
    1.2593   -1.8301   -0.8890 H   0  0  0  0  0  0  0  0  0  0  0  0
    0.5194   -3.8966    0.1241 H   0  0  0  0  0  0  0  0  0  0  0  0
   -1.7032   -3.9430    1.1682 H   0  0  0  0  0  0  0  0  0  0  0  0
   -3.1092   -2.0024    1.2051 H   0  0  0  0  0  0  0  0  0  0  0  0
   -4.3038   -0.4735    1.1746 H   0  0  0  0  0  0  0  0  0  0  0  0
   -5.6067    1.6794    1.1310 H   0  0  0  0  0  0  0  0  0  0  0  0
   -4.3562    3.7306    0.0427 H   0  0  0  0  0  0  0  0  0  0  0  0
  1  2  1  0
  2  3  1  0
  3  4  2  0
  4  5  1  0
  4  6  1  0
  6  7  1  0
  7  8  1  0
  8  9  2  0
  9 10  1  0
 10 11  2  0
 11 12  1  0
 12 13  2  0
 13 14  1  0
 14 15  2  0
 15 16  1  0
 16 17  2  0
 17 18  1  0
  5  1  1  0
 13  8  1  0
 18 14  1  0
  1 19  1  0
  1 20  1  0
  2 21  1  0
  2 22  1  0
  5 23  1  0
  6 24  1  0
  6 25  1  0
  7 26  1  0
  9 27  1  0
 10 28  1  0
 11 29  1  0
 12 30  1  0
 15 31  1  0
 16 32  1  0
 17 33  1  0
M  END
>  <Ligand ID>  (1) 
LIG0003174

>  <Ligand>  (1) 
CHEMBL346380

>  <SMILES>  (1) 
C1CN=C(N1)CNc1ccccc1c1cccs1

>  <CID>  (1) 
44369351.0

>  <ChEMBL ID>  (1) 
nan

>  <InChiKey>  (1) 
WOEAXPAQYOXTOS-UHFFFAOYSA-N

>  <InChi>  (1) 
InChI=1S/C14H15N3S/c1-2-5-12(17-10-14-15-7-8-16-14)11(4-1)13-6-3-9-18-13/h1-6,9,17H,7-8,10H2,(H,15,16)

>  <IUPAC Name>  (1) 
N-(4,5-dihydro-1H-imidazol-2-ylmethyl)-2-thiophen-2-ylaniline

$$$$
