
     RDKit          3D

128132  0  0  0  0  0  0  0  0999 V2000
   -5.4314   -1.4099    4.7956 C   0  0  0  0  0  0  0  0  0  0  0  0
   -4.1259   -0.9691    4.1255 C   0  0  0  0  0  0  0  0  0  0  0  0
   -4.1972   -1.5924    2.7113 C   0  0  0  0  0  0  0  0  0  0  0  0
   -2.9289   -1.3075    1.9993 C   0  0  0  0  0  0  0  0  0  0  0  0
   -2.7797   -1.8514    0.6063 C   0  0  1  0  0  0  0  0  0  0  0  0
   -3.7063   -1.3117   -0.3654 C   0  0  0  0  0  0  0  0  0  0  0  0
   -3.1510   -0.5465   -1.2741 O   0  0  0  0  0  0  0  0  0  0  0  0
   -5.0849   -1.4565   -0.5218 N   0  0  0  0  0  0  0  0  0  0  0  0
   -5.7979   -0.8190   -1.5984 C   0  0  2  0  0  0  0  0  0  0  0  0
   -6.7569    0.2176   -1.1907 C   0  0  0  0  0  0  0  0  0  0  0  0
   -6.8164    0.4849    0.0588 O   0  0  0  0  0  0  0  0  0  0  0  0
   -7.5764    0.8900   -2.1224 N   0  0  0  0  0  0  0  0  0  0  0  0
   -8.5230    1.9169   -1.6772 C   0  0  2  0  0  0  0  0  0  0  0  0
   -9.8745    1.3696   -1.5310 C   0  0  0  0  0  0  0  0  0  0  0  0
  -10.8842    1.9019   -1.0784 O   0  0  0  0  0  0  0  0  0  0  0  0
  -10.0482   -0.0052   -1.9856 N   0  0  0  0  0  0  0  0  0  0  0  0
   -8.4901    3.1537   -2.5113 C   0  0  0  0  0  0  0  0  0  0  0  0
   -9.4778    4.1532   -2.0130 C   0  0  0  0  0  0  0  0  0  0  0  0
   -9.1279    5.0686   -1.0176 C   0  0  0  0  0  0  0  0  0  0  0  0
  -10.0428    6.0018   -0.5539 C   0  0  0  0  0  0  0  0  0  0  0  0
  -11.2908    5.9846   -1.1121 C   0  0  0  0  0  0  0  0  0  0  0  0
  -11.6518    5.0952   -2.0883 C   0  0  0  0  0  0  0  0  0  0  0  0
  -10.7470    4.1609   -2.5576 C   0  0  0  0  0  0  0  0  0  0  0  0
   -6.3935   -1.8263   -2.5645 C   0  0  0  0  0  0  0  0  0  0  0  0
   -7.3510   -2.7401   -1.9715 C   0  0  0  0  0  0  0  0  0  0  0  0
   -7.9312   -3.6377   -2.6799 O   0  0  0  0  0  0  0  0  0  0  0  0
   -7.7295   -2.7433   -0.6222 O   0  0  0  0  0  0  0  0  0  0  0  0
   -1.3771   -1.6920    0.2578 N   0  0  0  0  0  0  0  0  0  0  0  0
   -0.5570   -2.8368    0.4055 C   0  0  0  0  0  0  0  0  0  0  0  0
   -1.1663   -3.8808    0.8524 O   0  0  0  0  0  0  0  0  0  0  0  0
    0.8518   -2.9938    0.1249 C   0  0  2  0  0  0  0  0  0  0  0  0
    1.7478   -3.6018    1.1531 C   0  0  0  0  0  0  0  0  0  0  0  0
    1.8413   -2.9057    2.4304 C   0  0  0  0  0  0  0  0  0  0  0  0
    2.8465   -1.9445    2.6750 C   0  0  0  0  0  0  0  0  0  0  0  0
    2.6711   -1.4182    3.8989 N   0  0  0  0  0  0  0  0  0  0  0  0
    1.6035   -1.9728    4.4902 C   0  0  0  0  0  0  0  0  0  0  0  0
    1.0938   -2.8957    3.5754 C   0  0  0  0  0  0  0  0  0  0  0  0
   -0.0119   -3.6232    3.9434 C   0  0  0  0  0  0  0  0  0  0  0  0
   -0.6364   -3.4818    5.1600 C   0  0  0  0  0  0  0  0  0  0  0  0
   -0.1331   -2.5572    6.0781 C   0  0  0  0  0  0  0  0  0  0  0  0
    0.9846   -1.8298    5.6972 C   0  0  0  0  0  0  0  0  0  0  0  0
    1.5116   -1.9197   -0.6056 N   0  0  0  0  0  0  0  0  0  0  0  0
    1.1614   -1.6653   -1.9528 C   0  0  0  0  0  0  0  0  0  0  0  0
    0.2471   -2.3592   -2.4470 O   0  0  0  0  0  0  0  0  0  0  0  0
    1.8022   -0.6352   -2.8022 C   0  0  0  0  0  0  0  0  0  0  0  0
    2.9622   -0.1245   -2.0322 N   0  0  0  0  0  0  0  0  0  0  0  0
    3.9331   -1.1057   -1.7606 C   0  0  0  0  0  0  0  0  0  0  0  0
    3.5978   -2.2855   -2.2282 O   0  0  0  0  0  0  0  0  0  0  0  0
    5.1928   -1.0575   -1.0743 C   0  0  2  0  0  0  0  0  0  0  0  0
    5.9436    0.1155   -0.8536 N   0  0  0  0  0  0  0  0  0  0  0  0
    5.9393    1.3730   -1.4343 C   0  0  0  0  0  0  0  0  0  0  0  0
    5.2067    1.7770   -2.3818 O   0  0  0  0  0  0  0  0  0  0  0  0
    6.8928    2.4529   -0.9427 C   0  0  2  0  0  0  0  0  0  0  0  0
    7.9946    2.5960   -2.0124 C   0  0  0  0  0  0  0  0  0  0  0  0
    8.9828    3.6168   -1.6057 C   0  0  0  0  0  0  0  0  0  0  0  0
   10.0643    3.1598   -0.8629 C   0  0  0  0  0  0  0  0  0  0  0  0
   11.0329    4.0783   -0.4698 C   0  0  0  0  0  0  0  0  0  0  0  0
   10.9357    5.4053   -0.7993 C   0  0  0  0  0  0  0  0  0  0  0  0
    9.8611    5.8759   -1.5403 C   0  0  0  0  0  0  0  0  0  0  0  0
    8.9221    4.9421   -1.9129 C   0  0  0  0  0  0  0  0  0  0  0  0
   11.9530    6.2633   -0.3653 O   0  0  0  0  0  0  0  0  0  0  0  0
    7.5210    1.9956    0.2668 N   0  0  0  0  0  0  0  0  0  0  0  0
    6.1244   -2.1451   -1.5447 C   0  0  0  0  0  0  0  0  0  0  0  0
    7.4416   -2.1265   -0.8650 C   0  0  0  0  0  0  0  0  0  0  0  0
    8.5228   -1.4117   -1.3319 C   0  0  0  0  0  0  0  0  0  0  0  0
    9.7533   -1.4025   -0.7101 C   0  0  0  0  0  0  0  0  0  0  0  0
    9.9089   -2.1470    0.4380 C   0  0  0  0  0  0  0  0  0  0  0  0
    8.8657   -2.8828    0.9540 C   0  0  0  0  0  0  0  0  0  0  0  0
    7.6650   -2.8614    0.3053 C   0  0  0  0  0  0  0  0  0  0  0  0
   -6.2807   -1.4611    4.0916 H   0  0  0  0  0  0  0  0  0  0  0  0
   -5.6839   -0.7775    5.6616 H   0  0  0  0  0  0  0  0  0  0  0  0
   -5.2768   -2.4796    5.1198 H   0  0  0  0  0  0  0  0  0  0  0  0
   -4.1075    0.1376    4.0271 H   0  0  0  0  0  0  0  0  0  0  0  0
   -3.2578   -1.3411    4.6882 H   0  0  0  0  0  0  0  0  0  0  0  0
   -4.2774   -2.6989    2.9354 H   0  0  0  0  0  0  0  0  0  0  0  0
   -5.1270   -1.2741    2.2544 H   0  0  0  0  0  0  0  0  0  0  0  0
   -2.7731   -0.1857    1.9858 H   0  0  0  0  0  0  0  0  0  0  0  0
   -2.0864   -1.6569    2.6650 H   0  0  0  0  0  0  0  0  0  0  0  0
   -3.0067   -2.9731    0.7590 H   0  0  0  0  0  0  0  0  0  0  0  0
   -5.5909   -2.0615    0.1593 H   0  0  0  0  0  0  0  0  0  0  0  0
   -5.0523   -0.2670   -2.2119 H   0  0  0  0  0  0  0  0  0  0  0  0
   -7.5279    0.6745   -3.1473 H   0  0  0  0  0  0  0  0  0  0  0  0
   -8.1823    2.1698   -0.6512 H   0  0  0  0  0  0  0  0  0  0  0  0
   -9.6418   -0.3437   -2.8725 H   0  0  0  0  0  0  0  0  0  0  0  0
  -10.6106   -0.6780   -1.3887 H   0  0  0  0  0  0  0  0  0  0  0  0
   -8.8182    2.8293   -3.5463 H   0  0  0  0  0  0  0  0  0  0  0  0
   -7.4860    3.5841   -2.6231 H   0  0  0  0  0  0  0  0  0  0  0  0
   -8.1228    5.0105   -0.6370 H   0  0  0  0  0  0  0  0  0  0  0  0
   -9.7020    6.6673    0.2115 H   0  0  0  0  0  0  0  0  0  0  0  0
  -12.0257    6.7210   -0.7470 H   0  0  0  0  0  0  0  0  0  0  0  0
  -12.6650    5.1532   -2.4732 H   0  0  0  0  0  0  0  0  0  0  0  0
  -11.0365    3.4620   -3.3317 H   0  0  0  0  0  0  0  0  0  0  0  0
   -5.5037   -2.4282   -2.9143 H   0  0  0  0  0  0  0  0  0  0  0  0
   -6.7187   -1.2625   -3.4519 H   0  0  0  0  0  0  0  0  0  0  0  0
   -7.9675   -3.5884   -0.1281 H   0  0  0  0  0  0  0  0  0  0  0  0
   -0.9495   -0.8305   -0.0777 H   0  0  0  0  0  0  0  0  0  0  0  0
    0.8130   -3.8069   -0.6839 H   0  0  0  0  0  0  0  0  0  0  0  0
    1.4845   -4.6934    1.3251 H   0  0  0  0  0  0  0  0  0  0  0  0
    2.7477   -3.6657    0.6512 H   0  0  0  0  0  0  0  0  0  0  0  0
    3.6420   -1.6542    2.0040 H   0  0  0  0  0  0  0  0  0  0  0  0
    3.2494   -0.6849    4.3648 H   0  0  0  0  0  0  0  0  0  0  0  0
   -0.4132   -4.3543    3.2711 H   0  0  0  0  0  0  0  0  0  0  0  0
   -1.4962   -4.0608    5.4244 H   0  0  0  0  0  0  0  0  0  0  0  0
   -0.6056   -2.4183    7.0548 H   0  0  0  0  0  0  0  0  0  0  0  0
    1.3423   -1.1175    6.4403 H   0  0  0  0  0  0  0  0  0  0  0  0
    2.2233   -1.3656   -0.0749 H   0  0  0  0  0  0  0  0  0  0  0  0
    2.1961   -0.9872   -3.7509 H   0  0  0  0  0  0  0  0  0  0  0  0
    1.1431    0.2507   -2.9703 H   0  0  0  0  0  0  0  0  0  0  0  0
    3.0502    0.8260   -1.6909 H   0  0  0  0  0  0  0  0  0  0  0  0
    4.9172   -1.3838    0.0390 H   0  0  0  0  0  0  0  0  0  0  0  0
    6.6984    0.0056   -0.0610 H   0  0  0  0  0  0  0  0  0  0  0  0
    6.3533    3.4028   -0.8569 H   0  0  0  0  0  0  0  0  0  0  0  0
    8.4990    1.6420   -2.1900 H   0  0  0  0  0  0  0  0  0  0  0  0
    7.4945    2.8915   -2.9752 H   0  0  0  0  0  0  0  0  0  0  0  0
   10.1501    2.1043   -0.5988 H   0  0  0  0  0  0  0  0  0  0  0  0
   11.9016    3.7345    0.1252 H   0  0  0  0  0  0  0  0  0  0  0  0
    9.8273    6.9126   -1.7774 H   0  0  0  0  0  0  0  0  0  0  0  0
    8.0491    5.2724   -2.4980 H   0  0  0  0  0  0  0  0  0  0  0  0
   11.9513    6.4893    0.6202 H   0  0  0  0  0  0  0  0  0  0  0  0
    6.7935    1.7292    0.9770 H   0  0  0  0  0  0  0  0  0  0  0  0
    8.0727    2.7694    0.7344 H   0  0  0  0  0  0  0  0  0  0  0  0
    6.2804   -2.0875   -2.6591 H   0  0  0  0  0  0  0  0  0  0  0  0
    5.6309   -3.1325   -1.3966 H   0  0  0  0  0  0  0  0  0  0  0  0
    8.4330   -0.8235   -2.2357 H   0  0  0  0  0  0  0  0  0  0  0  0
   10.6118   -0.8547   -1.0547 H   0  0  0  0  0  0  0  0  0  0  0  0
   10.8477   -2.1946    0.9986 H   0  0  0  0  0  0  0  0  0  0  0  0
    8.9613   -3.4789    1.8474 H   0  0  0  0  0  0  0  0  0  0  0  0
    6.8463   -3.4375    0.7145 H   0  0  0  0  0  0  0  0  0  0  0  0
  1  2  1  0
  2  3  1  0
  3  4  1  0
  4  5  1  0
  5  6  1  0
  6  7  2  0
  6  8  1  0
  8  9  1  0
  9 10  1  0
 10 11  2  0
 10 12  1  0
 12 13  1  0
 13 14  1  0
 14 15  2  0
 14 16  1  0
 13 17  1  0
 17 18  1  0
 18 19  2  0
 19 20  1  0
 20 21  2  0
 21 22  1  0
 22 23  2  0
  9 24  1  0
 24 25  1  0
 25 26  2  0
 25 27  1  0
  5 28  1  0
 28 29  1  0
 29 30  2  0
 29 31  1  0
 31 32  1  0
 32 33  1  0
 33 34  2  0
 34 35  1  0
 35 36  1  0
 36 37  2  0
 37 38  1  0
 38 39  2  0
 39 40  1  0
 40 41  2  0
 31 42  1  0
 42 43  1  0
 43 44  2  0
 43 45  1  0
 45 46  1  0
 46 47  1  0
 47 48  2  0
 47 49  1  0
 49 50  1  0
 50 51  1  0
 51 52  2  0
 51 53  1  0
 53 54  1  0
 54 55  1  0
 55 56  2  0
 56 57  1  0
 57 58  2  0
 58 59  1  0
 59 60  2  0
 58 61  1  0
 53 62  1  0
 49 63  1  0
 63 64  1  0
 64 65  2  0
 65 66  1  0
 66 67  2  0
 67 68  1  0
 68 69  2  0
 23 18  1  0
 37 33  1  0
 60 55  1  0
 69 64  1  0
 41 36  1  0
  1 70  1  0
  1 71  1  0
  1 72  1  0
  2 73  1  0
  2 74  1  0
  3 75  1  0
  3 76  1  0
  4 77  1  0
  4 78  1  0
  5 79  1  1
  8 80  1  0
  9 81  1  6
 12 82  1  0
 13 83  1  1
 16 84  1  0
 16 85  1  0
 17 86  1  0
 17 87  1  0
 19 88  1  0
 20 89  1  0
 21 90  1  0
 22 91  1  0
 23 92  1  0
 24 93  1  0
 24 94  1  0
 27 95  1  0
 28 96  1  0
 31 97  1  6
 32 98  1  0
 32 99  1  0
 34100  1  0
 35101  1  0
 38102  1  0
 39103  1  0
 40104  1  0
 41105  1  0
 42106  1  0
 45107  1  0
 45108  1  0
 46109  1  0
 49110  1  1
 50111  1  0
 53112  1  1
 54113  1  0
 54114  1  0
 56115  1  0
 57116  1  0
 59117  1  0
 60118  1  0
 61119  1  0
 62120  1  0
 62121  1  0
 63122  1  0
 63123  1  0
 65124  1  0
 66125  1  0
 67126  1  0
 68127  1  0
 69128  1  0
M  END
>  <Ligand ID>  (1) 
LIG0001762

>  <Ligand>  (1) 
Tyr-D-Phe-Gly-Trp-Nle-Asp-Phe-NH2

>  <SMILES>  (1) 
CCCC[C@@H](C(=O)N[C@H](C(=O)N[C@H](C(=O)N)Cc1ccccc1)CC(=O)O)NC(=O)[C@H](Cc1c[nH]c2c1cccc2)NC(=O)CNC(=O)[C@H](NC(=O)[C@H](Cc1ccc(cc1)O)N)Cc1ccccc1

>  <CID>  (1) 
11051303.0

>  <ChEMBL ID>  (1) 
nan

>  <InChiKey>  (1) 
DWHRPZRXNRDAQF-GEQJWKGNSA-N

>  <InChi>  (1) 
InChI=1S/C50H59N9O10/c1-2-3-17-38(48(67)59-42(27-44(62)63)50(69)57-39(45(52)64)24-30-12-6-4-7-13-30)56-49(68)41(26-33-28-53-37-18-11-10-16-35(33)37)55-43(61)29-54-47(66)40(25-31-14-8-5-9-15-31)58-46(65)36(51)23-32-19-21-34(60)22-20-32/h4-16,18-22,28,36,38-42,53,60H,2-3,17,23-27,29,51H2,1H3,(H2,52,64)(H,54,66)(H,55,61)(H,56,68)(H,57,69)(H,58,65)(H,59,67)(H,62,63)/t36-,38-,39-,40+,41-,42-/m0/s1

>  <IUPAC Name>  (1) 
(3S)-3-[[(2S)-2-[[(2S)-2-[[2-[[(2R)-2-[[(2S)-2-amino-3-(4-hydroxyphenyl)propanoyl]amino]-3-phenylpropanoyl]amino]acetyl]amino]-3-(1H-indol-3-yl)propanoyl]amino]hexanoyl]amino]-4-[[(2S)-1-amino-1-oxo-3-phenylpropan-2-yl]amino]-4-oxobutanoic acid

$$$$
