
     RDKit          3D

 23 22  0  0  0  0  0  0  0  0999 V2000
    3.7170    0.1049   -0.4943 C   0  0  0  0  0  0  0  0  0  0  0  0
    2.4829    0.5277    0.2427 C   0  0  0  0  0  0  0  0  0  0  0  0
    1.3723   -0.3080   -0.0399 O   0  0  0  0  0  0  0  0  0  0  0  0
    0.1752   -0.0014    0.5945 C   0  0  0  0  0  0  0  0  0  0  0  0
    0.1907    0.9966    1.3655 O   0  0  0  0  0  0  0  0  0  0  0  0
   -0.9980   -0.8389    0.3313 C   0  0  0  0  0  0  0  0  0  0  0  0
   -2.1751   -0.3320    1.1149 C   0  0  0  0  0  0  0  0  0  0  0  0
   -2.5716    1.0704    0.7978 C   0  0  0  0  0  0  0  0  0  0  0  0
   -1.2992   -1.0123   -1.1323 C   0  0  0  0  0  0  0  0  0  0  0  0
    3.7622   -0.9838   -0.6584 H   0  0  0  0  0  0  0  0  0  0  0  0
    3.8255    0.6201   -1.4487 H   0  0  0  0  0  0  0  0  0  0  0  0
    4.5777    0.3643    0.1732 H   0  0  0  0  0  0  0  0  0  0  0  0
    2.6450    0.4624    1.3349 H   0  0  0  0  0  0  0  0  0  0  0  0
    2.2150    1.5483   -0.1007 H   0  0  0  0  0  0  0  0  0  0  0  0
   -0.7659   -1.8552    0.7129 H   0  0  0  0  0  0  0  0  0  0  0  0
   -3.0389   -1.0376    1.0288 H   0  0  0  0  0  0  0  0  0  0  0  0
   -1.8956   -0.3496    2.1890 H   0  0  0  0  0  0  0  0  0  0  0  0
   -3.6583    1.1531    1.0921 H   0  0  0  0  0  0  0  0  0  0  0  0
   -2.4227    1.3808   -0.2546 H   0  0  0  0  0  0  0  0  0  0  0  0
   -2.0113    1.7768    1.4417 H   0  0  0  0  0  0  0  0  0  0  0  0
   -2.2632   -1.5625   -1.1868 H   0  0  0  0  0  0  0  0  0  0  0  0
   -1.3379   -0.0249   -1.6331 H   0  0  0  0  0  0  0  0  0  0  0  0
   -0.5261   -1.6988   -1.5674 H   0  0  0  0  0  0  0  0  0  0  0  0
  1  2  1  0
  2  3  1  0
  3  4  1  0
  4  5  2  0
  4  6  1  0
  6  7  1  0
  7  8  1  0
  6  9  1  0
  1 10  1  0
  1 11  1  0
  1 12  1  0
  2 13  1  0
  2 14  1  0
  6 15  1  0
  7 16  1  0
  7 17  1  0
  8 18  1  0
  8 19  1  0
  8 20  1  0
  9 21  1  0
  9 22  1  0
  9 23  1  0
M  END
>  <Ligand ID>  (1) 
LIG0002079

>  <Ligand>  (1) 
ethyl 2-methylbutanoate

>  <SMILES>  (1) 
CCOC(=O)C(CC)C

>  <CID>  (1) 
24020.0

>  <ChEMBL ID>  (1) 
nan

>  <InChiKey>  (1) 
HCRBXQFHJMCTLF-UHFFFAOYSA-N

>  <InChi>  (1) 
InChI=1S/C7H14O2/c1-4-6(3)7(8)9-5-2/h6H,4-5H2,1-3H3

>  <IUPAC Name>  (1) 
ethyl 2-methylbutanoate

$$$$
