
     RDKit          3D

 33 33  0  0  0  0  0  0  0  0999 V2000
   -4.3599   -0.9135    0.2470 F   0  0  0  0  0  0  0  0  0  0  0  0
   -3.7147   -1.9825   -0.2696 C   0  0  0  0  0  0  0  0  0  0  0  0
   -2.6007   -1.5623   -1.1933 C   0  0  0  0  0  0  0  0  0  0  0  0
   -1.6575   -0.8247   -0.5976 O   0  0  0  0  0  0  0  0  0  0  0  0
   -1.3545    0.3108    0.0216 C   0  0  0  0  0  0  0  0  0  0  0  0
   -2.2084    1.3710    0.2753 C   0  0  0  0  0  0  0  0  0  0  0  0
   -1.8303    2.5234    0.9212 C   0  0  0  0  0  0  0  0  0  0  0  0
   -2.7167    3.5415    1.1470 F   0  0  0  0  0  0  0  0  0  0  0  0
   -0.5329    2.6340    1.3394 C   0  0  0  0  0  0  0  0  0  0  0  0
    0.3498    1.6046    1.1071 C   0  0  0  0  0  0  0  0  0  0  0  0
   -0.0043    0.4493    0.4672 C   0  0  0  0  0  0  0  0  0  0  0  0
    0.8777   -0.6822    0.1877 C   0  0  0  0  0  0  0  0  0  0  0  0
    1.5971   -0.6374   -1.1627 C   0  0  0  0  0  0  0  0  0  0  0  0
    2.3222   -0.7297    0.1330 C   0  0  0  0  0  0  0  0  0  0  0  0
    3.2891    0.3106    0.5881 C   0  0  0  0  0  0  0  0  0  0  0  0
    4.6857   -0.1226    0.3429 N   0  0  0  0  0  0  0  0  0  0  0  0
   -0.0410    4.0965    2.1624 Cl  0  0  0  0  0  0  0  0  0  0  0  0
    0.6862    0.0000    0.0000 Cl  0  0  0  0  0  0  0  0  0  0  0  0
   -4.4403   -2.6558   -0.7834 H   0  0  0  0  0  0  0  0  0  0  0  0
   -3.2324   -2.5295    0.5836 H   0  0  0  0  0  0  0  0  0  0  0  0
   -2.1851   -2.4812   -1.7210 H   0  0  0  0  0  0  0  0  0  0  0  0
   -3.0767   -0.9894   -2.0570 H   0  0  0  0  0  0  0  0  0  0  0  0
   -3.2427    1.3413   -0.0550 H   0  0  0  0  0  0  0  0  0  0  0  0
    1.3577    1.7472    1.4587 H   0  0  0  0  0  0  0  0  0  0  0  0
    0.3632   -1.6905    0.3245 H   0  0  0  0  0  0  0  0  0  0  0  0
    1.5328    0.3282   -1.7056 H   0  0  0  0  0  0  0  0  0  0  0  0
    1.5138   -1.4962   -1.8536 H   0  0  0  0  0  0  0  0  0  0  0  0
    2.7904   -1.7692    0.2611 H   0  0  0  0  0  0  0  0  0  0  0  0
    3.2778    0.4607    1.6941 H   0  0  0  0  0  0  0  0  0  0  0  0
    3.1708    1.2347   -0.0014 H   0  0  0  0  0  0  0  0  0  0  0  0
    5.3441    0.2722    1.0231 H   0  0  0  0  0  0  0  0  0  0  0  0
    4.7256   -1.1593    0.2565 H   0  0  0  0  0  0  0  0  0  0  0  0
   -0.6862    0.0000    0.0000 H   0  0  0  0  0  0  0  0  0  0  0  0
  1  2  1  0
  2  3  1  0
  3  4  1  0
  4  5  1  0
  5  6  2  0
  6  7  1  0
  7  8  1  0
  7  9  2  0
  9 10  1  0
 10 11  2  0
 11 12  1  0
 12 13  1  0
 13 14  1  0
 14 15  1  0
 15 16  1  0
  9 17  1  0
 11  5  1  0
 14 12  1  0
  2 19  1  0
  2 20  1  0
  3 21  1  0
  3 22  1  0
  6 23  1  0
 10 24  1  0
 12 25  1  0
 13 26  1  0
 13 27  1  0
 14 28  1  0
 15 29  1  0
 15 30  1  0
 16 31  1  0
 16 32  1  0
 18 33  1  0
M  END
>  <Ligand ID>  (1) 
LIG0002856

>  <Ligand>  (1) 
CHEMBL3769421

>  <SMILES>  (1) 
FCCOc1cc(F)c(cc1C1CC1CN)Cl.Cl

>  <CID>  (1) 
127029581.0

>  <ChEMBL ID>  (1) 
nan

>  <InChiKey>  (1) 
DONNJXVUHXCJHL-UHFFFAOYSA-N

>  <InChi>  (1) 
InChI=1S/C12H14ClF2NO.ClH/c13-10-4-9(8-3-7(8)6-16)12(5-11(10)15)17-2-1-14;/h4-5,7-8H,1-3,6,16H2;1H

>  <IUPAC Name>  (1) 
[2-[5-chloro-4-fluoro-2-(2-fluoroethoxy)phenyl]cyclopropyl]methanamine;hydrochloride

$$$$
