
     RDKit          3D

 55 57  0  0  0  0  0  0  0  0999 V2000
    4.8918    3.3821    2.3081 C   0  0  0  0  0  0  0  0  0  0  0  0
    4.8904    2.1373    1.5337 N   0  0  0  0  0  0  0  0  0  0  0  0
    5.8753    1.5887    0.8687 N   0  0  0  0  0  0  0  0  0  0  0  0
    5.4526    0.4680    0.3099 N   0  0  0  0  0  0  0  0  0  0  0  0
    4.1571    0.2989    0.6302 C   0  0  0  0  0  0  0  0  0  0  0  0
    3.8339    1.3572    1.3951 N   0  0  0  0  0  0  0  0  0  0  0  0
    3.2504   -0.8114    0.2369 C   0  0  0  0  0  0  0  0  0  0  0  0
    3.7705   -1.5432   -0.9821 C   0  0  0  0  0  0  0  0  0  0  0  0
    2.7537   -2.6481   -1.2751 C   0  0  0  0  0  0  0  0  0  0  0  0
    3.9014   -0.5913   -2.1249 C   0  0  0  0  0  0  0  0  0  0  0  0
    5.0875   -2.2305   -0.7102 C   0  0  0  0  0  0  0  0  0  0  0  0
    1.9860   -0.2220   -0.1810 N   0  0  0  0  0  0  0  0  0  0  0  0
    0.7753   -0.5509    0.4518 C   0  0  0  0  0  0  0  0  0  0  0  0
    0.7443   -1.3715    1.4071 O   0  0  0  0  0  0  0  0  0  0  0  0
   -0.4674    0.0663   -0.0027 C   0  0  0  0  0  0  0  0  0  0  0  0
   -0.4797    0.9313   -1.0002 N   0  0  0  0  0  0  0  0  0  0  0  0
   -1.6017    1.4971   -1.4207 C   0  0  0  0  0  0  0  0  0  0  0  0
   -2.8594    1.2353   -0.8564 C   0  0  0  0  0  0  0  0  0  0  0  0
   -2.8741    0.3385    0.1840 C   0  0  0  0  0  0  0  0  0  0  0  0
   -1.6799   -0.2394    0.6033 C   0  0  0  0  0  0  0  0  0  0  0  0
   -4.0488    0.0317    0.7857 O   0  0  0  0  0  0  0  0  0  0  0  0
   -4.3153   -0.8289    1.8387 C   0  0  2  0  0  0  0  0  0  0  0  0
   -5.3267   -1.9129    1.4632 C   0  0  0  0  0  0  0  0  0  0  0  0
   -5.4965   -2.6958    2.6042 F   0  0  0  0  0  0  0  0  0  0  0  0
   -4.8210   -2.7224    0.4708 F   0  0  0  0  0  0  0  0  0  0  0  0
   -6.5346   -1.3759    1.1034 F   0  0  0  0  0  0  0  0  0  0  0  0
   -4.9699   -0.0255    2.9426 C   0  0  0  0  0  0  0  0  0  0  0  0
   -4.0000    1.9262   -1.4337 C   0  0  0  0  0  0  0  0  0  0  0  0
   -4.6809    1.4856   -2.6676 C   0  0  0  0  0  0  0  0  0  0  0  0
   -5.3825    1.4002   -1.3236 C   0  0  0  0  0  0  0  0  0  0  0  0
    5.9377    3.7257    2.3444 H   0  0  0  0  0  0  0  0  0  0  0  0
    4.5185    3.1973    3.3384 H   0  0  0  0  0  0  0  0  0  0  0  0
    4.2369    4.1393    1.8525 H   0  0  0  0  0  0  0  0  0  0  0  0
    3.0975   -1.5151    1.0835 H   0  0  0  0  0  0  0  0  0  0  0  0
    2.6065   -3.2086   -0.3280 H   0  0  0  0  0  0  0  0  0  0  0  0
    1.7678   -2.2001   -1.5311 H   0  0  0  0  0  0  0  0  0  0  0  0
    3.1306   -3.3408   -2.0530 H   0  0  0  0  0  0  0  0  0  0  0  0
    3.8952    0.4581   -1.7688 H   0  0  0  0  0  0  0  0  0  0  0  0
    3.1543   -0.7887   -2.9124 H   0  0  0  0  0  0  0  0  0  0  0  0
    4.8941   -0.7541   -2.6204 H   0  0  0  0  0  0  0  0  0  0  0  0
    5.2511   -2.4291    0.3602 H   0  0  0  0  0  0  0  0  0  0  0  0
    5.1020   -3.2289   -1.2068 H   0  0  0  0  0  0  0  0  0  0  0  0
    5.9099   -1.6618   -1.1903 H   0  0  0  0  0  0  0  0  0  0  0  0
    2.0168    0.4572   -0.9728 H   0  0  0  0  0  0  0  0  0  0  0  0
   -1.5207    2.2019   -2.2525 H   0  0  0  0  0  0  0  0  0  0  0  0
   -1.6257   -0.9517    1.4155 H   0  0  0  0  0  0  0  0  0  0  0  0
   -3.4357   -1.3298    2.2345 H   0  0  0  0  0  0  0  0  0  0  0  0
   -5.6342   -0.7038    3.5516 H   0  0  0  0  0  0  0  0  0  0  0  0
   -5.6493    0.7600    2.5199 H   0  0  0  0  0  0  0  0  0  0  0  0
   -4.2270    0.3925    3.6392 H   0  0  0  0  0  0  0  0  0  0  0  0
   -3.9543    3.0530   -1.3147 H   0  0  0  0  0  0  0  0  0  0  0  0
   -4.3973    0.5721   -3.2101 H   0  0  0  0  0  0  0  0  0  0  0  0
   -5.1236    2.2475   -3.3409 H   0  0  0  0  0  0  0  0  0  0  0  0
   -6.2382    2.1049   -1.1294 H   0  0  0  0  0  0  0  0  0  0  0  0
   -5.5446    0.4278   -0.8697 H   0  0  0  0  0  0  0  0  0  0  0  0
  1  2  1  0
  2  3  1  0
  3  4  2  0
  4  5  1  0
  5  6  2  0
  5  7  1  0
  7  8  1  0
  8  9  1  0
  8 10  1  0
  8 11  1  0
  7 12  1  0
 12 13  1  0
 13 14  2  0
 13 15  1  0
 15 16  2  0
 16 17  1  0
 17 18  2  0
 18 19  1  0
 19 20  2  0
 19 21  1  0
 21 22  1  0
 22 23  1  0
 23 24  1  0
 23 25  1  0
 23 26  1  0
 22 27  1  0
 18 28  1  0
 28 29  1  0
 29 30  1  0
  6  2  1  0
 20 15  1  0
 30 28  1  0
  1 31  1  0
  1 32  1  0
  1 33  1  0
  7 34  1  0
  9 35  1  0
  9 36  1  0
  9 37  1  0
 10 38  1  0
 10 39  1  0
 10 40  1  0
 11 41  1  0
 11 42  1  0
 11 43  1  0
 12 44  1  0
 17 45  1  0
 20 46  1  0
 22 47  1  1
 27 48  1  0
 27 49  1  0
 27 50  1  0
 28 51  1  0
 29 52  1  0
 29 53  1  0
 30 54  1  0
 30 55  1  0
M  END
>  <Ligand ID>  (1) 
LIG0005189

>  <Ligand>  (1) 
CHEMBL3973847

>  <SMILES>  (1) 
Cn1nnc(n1)C(C(C)(C)C)NC(=O)c1ncc(c(c1)O[C@H](C(F)(F)F)C)C1CC1

>  <CID>  (1) 
90203600.0

>  <ChEMBL ID>  (1) 
nan

>  <InChiKey>  (1) 
IOQQQQVNNDAJFX-MYHCZTBNSA-N

>  <InChi>  (1) 
InChI=1S/C19H25F3N6O2/c1-10(19(20,21)22)30-14-8-13(23-9-12(14)11-6-7-11)17(29)24-15(18(2,3)4)16-25-27-28(5)26-16/h8-11,15H,6-7H2,1-5H3,(H,24,29)/t10-,15?/m0/s1

>  <IUPAC Name>  (1) 
5-cyclopropyl-N-[2,2-dimethyl-1-(2-methyltetrazol-5-yl)propyl]-4-[(2S)-1,1,1-trifluoropropan-2-yl]oxypyridine-2-carboxamide

$$$$
