
     RDKit          3D

 54 53  0  0  0  0  0  0  0  0999 V2000
    7.6271    1.3623    1.2694 C   0  0  0  0  0  0  0  0  0  0  0  0
    7.1823    1.6385   -0.1334 C   0  0  0  0  0  0  0  0  0  0  0  0
    5.7424    1.1056   -0.2509 C   0  0  0  0  0  0  0  0  0  0  0  0
    5.8283   -0.3600    0.0483 C   0  0  0  0  0  0  0  0  0  0  0  0
    4.4722   -0.9940   -0.0230 C   0  0  0  0  0  0  0  0  0  0  0  0
    3.9163   -0.8118   -1.4096 C   0  0  0  0  0  0  0  0  0  0  0  0
    2.5730   -1.4705   -1.4978 C   0  0  0  0  0  0  0  0  0  0  0  0
    1.6197   -0.8656   -0.5257 C   0  0  0  0  0  0  0  0  0  0  0  0
    0.2372   -1.5074   -0.6057 C   0  0  0  0  0  0  0  0  0  0  0  0
   -0.6265   -0.7906    0.4387 C   0  0  0  0  0  0  0  0  0  0  0  0
   -1.9969   -1.3794    0.4078 C   0  0  0  0  0  0  0  0  0  0  0  0
   -3.0845   -0.6454    0.1277 C   0  0  0  0  0  0  0  0  0  0  0  0
   -4.3888   -1.3531    0.1295 C   0  0  2  0  0  0  0  0  0  0  0  0
   -5.4234   -0.4877   -0.5272 C   0  0  2  0  0  0  0  0  0  0  0  0
   -5.6492    0.7526    0.3475 C   0  0  0  0  0  0  0  0  0  0  0  0
   -6.6737    1.5137   -0.2153 O   0  0  0  0  0  0  0  0  0  0  0  0
   -7.0188    2.9037    0.6583 P   0  0  0  0  0  0  0  0  0  0  0  0
   -6.5740    4.1558   -0.1009 O   0  0  0  0  0  0  0  0  0  0  0  0
   -8.6833    3.0070    0.8592 O   0  0  0  0  0  0  0  0  0  0  0  0
   -6.2356    2.8412    2.1464 O   0  0  0  0  0  0  0  0  0  0  0  0
   -6.6512   -1.2726   -0.5879 N   0  0  0  0  0  0  0  0  0  0  0  0
   -4.7595   -1.7249    1.4155 O   0  0  0  0  0  0  0  0  0  0  0  0
    8.2317    2.2188    1.6277 H   0  0  0  0  0  0  0  0  0  0  0  0
    6.7811    1.2192    1.9929 H   0  0  0  0  0  0  0  0  0  0  0  0
    8.1981    0.3901    1.3231 H   0  0  0  0  0  0  0  0  0  0  0  0
    7.7757    1.0440   -0.8719 H   0  0  0  0  0  0  0  0  0  0  0  0
    7.1875    2.7154   -0.4125 H   0  0  0  0  0  0  0  0  0  0  0  0
    5.0808    1.6240    0.4412 H   0  0  0  0  0  0  0  0  0  0  0  0
    5.4622    1.3445   -1.2985 H   0  0  0  0  0  0  0  0  0  0  0  0
    6.3294   -0.5335    1.0119 H   0  0  0  0  0  0  0  0  0  0  0  0
    6.4561   -0.8693   -0.7371 H   0  0  0  0  0  0  0  0  0  0  0  0
    3.8220   -0.5044    0.7361 H   0  0  0  0  0  0  0  0  0  0  0  0
    4.5317   -2.0801    0.2201 H   0  0  0  0  0  0  0  0  0  0  0  0
    3.7839    0.2978   -1.5850 H   0  0  0  0  0  0  0  0  0  0  0  0
    4.6271   -1.1877   -2.1773 H   0  0  0  0  0  0  0  0  0  0  0  0
    2.1950   -1.3074   -2.5428 H   0  0  0  0  0  0  0  0  0  0  0  0
    2.6751   -2.5724   -1.3862 H   0  0  0  0  0  0  0  0  0  0  0  0
    1.9242   -1.0254    0.5407 H   0  0  0  0  0  0  0  0  0  0  0  0
    1.4960    0.2064   -0.6990 H   0  0  0  0  0  0  0  0  0  0  0  0
   -0.2078   -1.3402   -1.6079 H   0  0  0  0  0  0  0  0  0  0  0  0
    0.2402   -2.5831   -0.4146 H   0  0  0  0  0  0  0  0  0  0  0  0
   -0.7311    0.2813    0.1928 H   0  0  0  0  0  0  0  0  0  0  0  0
   -0.1420   -0.8584    1.4299 H   0  0  0  0  0  0  0  0  0  0  0  0
   -2.0567   -2.4468    0.6278 H   0  0  0  0  0  0  0  0  0  0  0  0
   -2.9479    0.4027   -0.0813 H   0  0  0  0  0  0  0  0  0  0  0  0
   -4.2193   -2.2854   -0.4837 H   0  0  0  0  0  0  0  0  0  0  0  0
   -5.0705   -0.2095   -1.5375 H   0  0  0  0  0  0  0  0  0  0  0  0
   -4.6999    1.3098    0.3496 H   0  0  0  0  0  0  0  0  0  0  0  0
   -5.8633    0.4011    1.3602 H   0  0  0  0  0  0  0  0  0  0  0  0
   -8.9952    3.9203    0.7298 H   0  0  0  0  0  0  0  0  0  0  0  0
   -5.3478    3.2585    2.1480 H   0  0  0  0  0  0  0  0  0  0  0  0
   -6.6955   -1.8977    0.2555 H   0  0  0  0  0  0  0  0  0  0  0  0
   -6.6818   -1.8557   -1.4566 H   0  0  0  0  0  0  0  0  0  0  0  0
   -4.5722   -2.6943    1.5710 H   0  0  0  0  0  0  0  0  0  0  0  0
  1  2  1  0
  2  3  1  0
  3  4  1  0
  4  5  1  0
  5  6  1  0
  6  7  1  0
  7  8  1  0
  8  9  1  0
  9 10  1  0
 10 11  1  0
 11 12  2  0
 12 13  1  0
 13 14  1  0
 14 15  1  0
 15 16  1  0
 16 17  1  0
 17 18  2  0
 17 19  1  0
 17 20  1  0
 14 21  1  0
 13 22  1  0
  1 23  1  0
  1 24  1  0
  1 25  1  0
  2 26  1  0
  2 27  1  0
  3 28  1  0
  3 29  1  0
  4 30  1  0
  4 31  1  0
  5 32  1  0
  5 33  1  0
  6 34  1  0
  6 35  1  0
  7 36  1  0
  7 37  1  0
  8 38  1  0
  8 39  1  0
  9 40  1  0
  9 41  1  0
 10 42  1  0
 10 43  1  0
 11 44  1  0
 12 45  1  0
 13 46  1  6
 14 47  1  6
 15 48  1  0
 15 49  1  0
 19 50  1  0
 20 51  1  0
 21 52  1  0
 21 53  1  0
 22 54  1  0
M  END
>  <Ligand ID>  (1) 
LIG0004255

>  <Ligand>  (1) 
CHEMBL199791

>  <SMILES>  (1) 
CCCCCCCCCC/C=C/[C@H]([C@H](COP(=O)(O)O)N)O

>  <CID>  (1) 
44406004.0

>  <ChEMBL ID>  (1) 
nan

>  <InChiKey>  (1) 
LDACFZBJXUAJHJ-AMXOMPAFSA-N

>  <InChi>  (1) 
InChI=1S/C15H32NO5P/c1-2-3-4-5-6-7-8-9-10-11-12-15(17)14(16)13-21-22(18,19)20/h11-12,14-15,17H,2-10,13,16H2,1H3,(H2,18,19,20)/b12-11+/t14-,15+/m0/s1

>  <IUPAC Name>  (1) 
[(E,2S,3R)-2-amino-3-hydroxypentadec-4-enyl] dihydrogen phosphate

$$$$
