
     RDKit          3D

 62 62  0  0  0  0  0  0  0  0999 V2000
   -7.4431    2.3875    1.5413 C   0  0  0  0  0  0  0  0  0  0  0  0
   -7.0303    0.9532    1.6546 C   0  0  0  0  0  0  0  0  0  0  0  0
   -7.0742    0.2355    0.3243 C   0  0  0  0  0  0  0  0  0  0  0  0
   -6.1735    0.8497   -0.6938 C   0  0  0  0  0  0  0  0  0  0  0  0
   -4.7405    0.8196   -0.2101 C   0  0  0  0  0  0  0  0  0  0  0  0
   -4.2618   -0.5846    0.0414 C   0  0  0  0  0  0  0  0  0  0  0  0
   -2.8191   -0.5558    0.5235 C   0  0  0  0  0  0  0  0  0  0  0  0
   -1.9142    0.0831   -0.5063 C   0  0  0  0  0  0  0  0  0  0  0  0
   -1.9049   -0.6386   -1.8057 C   0  0  0  0  0  0  0  0  0  0  0  0
   -1.3786   -2.0466   -1.6781 C   0  0  0  0  0  0  0  0  0  0  0  0
    0.0220   -1.9853   -1.2250 C   0  0  0  0  0  0  0  0  0  0  0  0
    0.4618   -2.0192    0.0651 C   0  0  0  0  0  0  0  0  0  0  0  0
    1.8221   -1.9476    0.3684 C   0  0  0  0  0  0  0  0  0  0  0  0
    2.7779   -1.8398   -0.6215 C   0  0  0  0  0  0  0  0  0  0  0  0
    2.3386   -1.8056   -1.9219 C   0  0  0  0  0  0  0  0  0  0  0  0
    0.9960   -1.8761   -2.2222 C   0  0  0  0  0  0  0  0  0  0  0  0
    4.1689   -1.7662   -0.3231 N   0  0  0  0  0  0  0  0  0  0  0  0
    4.7680   -0.4664   -0.1161 C   0  0  0  0  0  0  0  0  0  0  0  0
    3.9887    0.5007   -0.2207 O   0  0  0  0  0  0  0  0  0  0  0  0
    6.2102   -0.3783    0.1939 C   0  0  1  0  0  0  0  0  0  0  0  0
    6.4206    0.1547    1.5615 C   0  0  0  0  0  0  0  0  0  0  0  0
    5.8571    1.5196    1.7169 C   0  0  0  0  0  0  0  0  0  0  0  0
    6.6357    2.6626    0.5544 P   0  0  0  0  0  0  0  0  0  0  0  0
    7.0346    3.9047    1.3377 O   0  0  0  0  0  0  0  0  0  0  0  0
    5.5690    3.1146   -0.6514 O   0  0  0  0  0  0  0  0  0  0  0  0
    8.0438    2.0614   -0.1325 O   0  0  0  0  0  0  0  0  0  0  0  0
    6.8063   -1.7279    0.1119 N   0  0  0  0  0  0  0  0  0  0  0  0
   -7.8928    2.6987    2.5040 H   0  0  0  0  0  0  0  0  0  0  0  0
   -6.5890    3.0759    1.3779 H   0  0  0  0  0  0  0  0  0  0  0  0
   -8.2206    2.5494    0.7495 H   0  0  0  0  0  0  0  0  0  0  0  0
   -6.0428    0.8902    2.1196 H   0  0  0  0  0  0  0  0  0  0  0  0
   -7.7338    0.4575    2.3716 H   0  0  0  0  0  0  0  0  0  0  0  0
   -8.1304    0.2484   -0.0181 H   0  0  0  0  0  0  0  0  0  0  0  0
   -6.8067   -0.8300    0.4590 H   0  0  0  0  0  0  0  0  0  0  0  0
   -6.5015    1.8635   -0.9656 H   0  0  0  0  0  0  0  0  0  0  0  0
   -6.2679    0.2223   -1.6198 H   0  0  0  0  0  0  0  0  0  0  0  0
   -4.6399    1.3907    0.7325 H   0  0  0  0  0  0  0  0  0  0  0  0
   -4.1275    1.2539   -1.0272 H   0  0  0  0  0  0  0  0  0  0  0  0
   -4.4309   -1.2706   -0.7939 H   0  0  0  0  0  0  0  0  0  0  0  0
   -4.8336   -1.0250    0.9066 H   0  0  0  0  0  0  0  0  0  0  0  0
   -2.4909   -1.5735    0.7594 H   0  0  0  0  0  0  0  0  0  0  0  0
   -2.7939    0.0773    1.4282 H   0  0  0  0  0  0  0  0  0  0  0  0
   -0.8843    0.0342   -0.0830 H   0  0  0  0  0  0  0  0  0  0  0  0
   -2.1329    1.1480   -0.6416 H   0  0  0  0  0  0  0  0  0  0  0  0
   -2.9020   -0.6509   -2.3034 H   0  0  0  0  0  0  0  0  0  0  0  0
   -1.2678   -0.0313   -2.5029 H   0  0  0  0  0  0  0  0  0  0  0  0
   -1.4613   -2.5992   -2.6510 H   0  0  0  0  0  0  0  0  0  0  0  0
   -1.9636   -2.6258   -0.9148 H   0  0  0  0  0  0  0  0  0  0  0  0
   -0.2288   -2.1062    0.8833 H   0  0  0  0  0  0  0  0  0  0  0  0
    2.1303   -1.9775    1.4035 H   0  0  0  0  0  0  0  0  0  0  0  0
    3.1032   -1.7200   -2.7027 H   0  0  0  0  0  0  0  0  0  0  0  0
    0.7098   -1.8439   -3.2790 H   0  0  0  0  0  0  0  0  0  0  0  0
    4.7211   -2.6470   -0.2609 H   0  0  0  0  0  0  0  0  0  0  0  0
    6.7254    0.1989   -0.6019 H   0  0  0  0  0  0  0  0  0  0  0  0
    5.9259   -0.5708    2.2715 H   0  0  0  0  0  0  0  0  0  0  0  0
    7.5011    0.1032    1.8171 H   0  0  0  0  0  0  0  0  0  0  0  0
    4.7770    1.5515    1.6276 H   0  0  0  0  0  0  0  0  0  0  0  0
    6.0748    1.8268    2.7839 H   0  0  0  0  0  0  0  0  0  0  0  0
    5.6908    4.0709   -0.8761 H   0  0  0  0  0  0  0  0  0  0  0  0
    8.7788    2.7248   -0.1506 H   0  0  0  0  0  0  0  0  0  0  0  0
    6.4113   -2.3681    0.8326 H   0  0  0  0  0  0  0  0  0  0  0  0
    6.6125   -2.1552   -0.8190 H   0  0  0  0  0  0  0  0  0  0  0  0
  1  2  1  0
  2  3  1  0
  3  4  1  0
  4  5  1  0
  5  6  1  0
  6  7  1  0
  7  8  1  0
  8  9  1  0
  9 10  1  0
 10 11  1  0
 11 12  2  0
 12 13  1  0
 13 14  2  0
 14 15  1  0
 15 16  2  0
 14 17  1  0
 17 18  1  0
 18 19  2  0
 18 20  1  0
 20 21  1  0
 21 22  1  0
 22 23  1  0
 23 24  2  0
 23 25  1  0
 23 26  1  0
 20 27  1  0
 16 11  1  0
  1 28  1  0
  1 29  1  0
  1 30  1  0
  2 31  1  0
  2 32  1  0
  3 33  1  0
  3 34  1  0
  4 35  1  0
  4 36  1  0
  5 37  1  0
  5 38  1  0
  6 39  1  0
  6 40  1  0
  7 41  1  0
  7 42  1  0
  8 43  1  0
  8 44  1  0
  9 45  1  0
  9 46  1  0
 10 47  1  0
 10 48  1  0
 12 49  1  0
 13 50  1  0
 15 51  1  0
 16 52  1  0
 17 53  1  0
 20 54  1  6
 21 55  1  0
 21 56  1  0
 22 57  1  0
 22 58  1  0
 25 59  1  0
 26 60  1  0
 27 61  1  0
 27 62  1  0
M  END
>  <Ligand ID>  (1) 
LIG0001886

>  <Ligand>  (1) 
CHEMBL228139

>  <SMILES>  (1) 
CCCCCCCCCCc1ccc(cc1)NC(=O)[C@@H](CCP(=O)(O)O)N

>  <CID>  (1) 
44422601.0

>  <ChEMBL ID>  (1) 
nan

>  <InChiKey>  (1) 
SVRDRLVEBSVBGO-LJQANCHMSA-N

>  <InChi>  (1) 
InChI=1S/C20H35N2O4P/c1-2-3-4-5-6-7-8-9-10-17-11-13-18(14-12-17)22-20(23)19(21)15-16-27(24,25)26/h11-14,19H,2-10,15-16,21H2,1H3,(H,22,23)(H2,24,25,26)/t19-/m1/s1

>  <IUPAC Name>  (1) 
[(3R)-3-amino-4-(4-decylanilino)-4-oxobutyl]phosphonic acid

$$$$
