
     RDKit          3D

 48 51  0  0  0  0  0  0  0  0999 V2000
   -7.4939    0.4416   -0.7388 C   0  0  0  0  0  0  0  0  0  0  0  0
   -6.0577    0.4615   -0.4639 N   0  0  0  0  0  0  0  0  0  0  0  0
   -5.5852    1.4882    0.4235 C   0  0  0  0  0  0  0  0  0  0  0  0
   -6.3924    2.3331    0.9378 O   0  0  0  0  0  0  0  0  0  0  0  0
   -4.1596    1.5757    0.7493 C   0  0  1  0  0  0  0  0  0  0  0  0
   -3.3742    0.6013    0.1300 O   0  0  0  0  0  0  0  0  0  0  0  0
   -2.0754    1.1108    0.3521 C   0  0  2  0  0  0  0  0  0  0  0  0
   -2.2595    2.4710   -0.3107 C   0  0  1  0  0  0  0  0  0  0  0  0
   -3.5526    2.9122    0.3760 C   0  0  2  0  0  0  0  0  0  0  0  0
   -3.1934    3.6479    1.4899 O   0  0  0  0  0  0  0  0  0  0  0  0
   -1.2110    3.3268   -0.0140 O   0  0  0  0  0  0  0  0  0  0  0  0
   -1.0468    0.3170   -0.2516 N   0  0  0  0  0  0  0  0  0  0  0  0
   -0.9798    0.0353   -1.5584 C   0  0  0  0  0  0  0  0  0  0  0  0
    0.1106   -0.7236   -1.7435 N   0  0  0  0  0  0  0  0  0  0  0  0
    0.7138   -0.9106   -0.5633 C   0  0  0  0  0  0  0  0  0  0  0  0
   -0.0156   -0.2506    0.3999 C   0  0  0  0  0  0  0  0  0  0  0  0
    0.3707   -0.2747    1.6834 N   0  0  0  0  0  0  0  0  0  0  0  0
    1.4971   -0.9655    2.0054 C   0  0  0  0  0  0  0  0  0  0  0  0
    1.9743   -0.9760    3.6963 Cl  0  0  0  0  0  0  0  0  0  0  0  0
    2.2078   -1.6093    1.0622 N   0  0  0  0  0  0  0  0  0  0  0  0
    1.8783   -1.6267   -0.2409 C   0  0  0  0  0  0  0  0  0  0  0  0
    2.6151   -2.3005   -1.2411 N   0  0  0  0  0  0  0  0  0  0  0  0
    3.8135   -3.0596   -1.0373 C   0  0  0  0  0  0  0  0  0  0  0  0
    4.9534   -2.3031   -0.4967 C   0  0  0  0  0  0  0  0  0  0  0  0
    5.7834   -1.6379   -1.4063 C   0  0  0  0  0  0  0  0  0  0  0  0
    6.8799   -0.9136   -0.9850 C   0  0  0  0  0  0  0  0  0  0  0  0
    7.1878   -0.8271    0.3634 C   0  0  0  0  0  0  0  0  0  0  0  0
    6.3854   -1.4741    1.2815 C   0  0  0  0  0  0  0  0  0  0  0  0
    5.2885   -2.1952    0.8211 C   0  0  0  0  0  0  0  0  0  0  0  0
    6.8031   -1.3809    3.3636 I   0  0  0  0  0  0  0  0  0  0  0  0
   -7.8411   -0.5606   -1.0763 H   0  0  0  0  0  0  0  0  0  0  0  0
   -8.0812    0.6681    0.1939 H   0  0  0  0  0  0  0  0  0  0  0  0
   -7.7636    1.2276   -1.4964 H   0  0  0  0  0  0  0  0  0  0  0  0
   -5.4001   -0.2390   -0.8924 H   0  0  0  0  0  0  0  0  0  0  0  0
   -4.0287    1.4080    1.8565 H   0  0  0  0  0  0  0  0  0  0  0  0
   -1.9508    1.2716    1.4252 H   0  0  0  0  0  0  0  0  0  0  0  0
   -2.4242    2.2935   -1.3806 H   0  0  0  0  0  0  0  0  0  0  0  0
   -4.2037    3.5022   -0.2765 H   0  0  0  0  0  0  0  0  0  0  0  0
   -2.2324    3.5529    1.7457 H   0  0  0  0  0  0  0  0  0  0  0  0
   -1.1935    4.0139   -0.7503 H   0  0  0  0  0  0  0  0  0  0  0  0
   -1.6829    0.3655   -2.3157 H   0  0  0  0  0  0  0  0  0  0  0  0
    2.2482   -2.2367   -2.2219 H   0  0  0  0  0  0  0  0  0  0  0  0
    4.1006   -3.6143   -1.9663 H   0  0  0  0  0  0  0  0  0  0  0  0
    3.5823   -3.8963   -0.3095 H   0  0  0  0  0  0  0  0  0  0  0  0
    5.5727   -1.6843   -2.4620 H   0  0  0  0  0  0  0  0  0  0  0  0
    7.4903   -0.4168   -1.7331 H   0  0  0  0  0  0  0  0  0  0  0  0
    8.0443   -0.2626    0.7068 H   0  0  0  0  0  0  0  0  0  0  0  0
    4.6981   -2.6861    1.5610 H   0  0  0  0  0  0  0  0  0  0  0  0
  1  2  1  0
  2  3  1  0
  3  4  2  0
  3  5  1  0
  5  6  1  0
  6  7  1  0
  7  8  1  0
  8  9  1  0
  9 10  1  0
  8 11  1  0
  7 12  1  0
 12 13  1  0
 13 14  2  0
 14 15  1  0
 15 16  2  0
 16 17  1  0
 17 18  2  0
 18 19  1  0
 18 20  1  0
 20 21  2  0
 21 22  1  0
 22 23  1  0
 23 24  1  0
 24 25  2  0
 25 26  1  0
 26 27  2  0
 27 28  1  0
 28 29  2  0
 28 30  1  0
  9  5  1  0
 16 12  1  0
 29 24  1  0
 21 15  1  0
  1 31  1  0
  1 32  1  0
  1 33  1  0
  2 34  1  0
  5 35  1  1
  7 36  1  1
  8 37  1  6
  9 38  1  6
 10 39  1  0
 11 40  1  0
 13 41  1  0
 22 42  1  0
 23 43  1  0
 23 44  1  0
 25 45  1  0
 26 46  1  0
 27 47  1  0
 29 48  1  0
M  END
>  <Ligand ID>  (1) 
LIG0004641

>  <Ligand>  (1) 
Cl-IB-MECA

>  <SMILES>  (1) 
CNC(=O)[C@H]1O[C@H]([C@@H]([C@@H]1O)O)n1cnc2c1nc(Cl)nc2NCc1cccc(c1)I

>  <CID>  (1) 
3035850.0

>  <ChEMBL ID>  (1) 
nan

>  <InChiKey>  (1) 
IPSYPUKKXMNCNQ-PFHKOEEOSA-N

>  <InChi>  (1) 
InChI=1S/C18H18ClIN6O4/c1-21-16(29)13-11(27)12(28)17(30-13)26-7-23-10-14(24-18(19)25-15(10)26)22-6-8-3-2-4-9(20)5-8/h2-5,7,11-13,17,27-28H,6H2,1H3,(H,21,29)(H,22,24,25)/t11-,12+,13-,17+/m0/s1

>  <IUPAC Name>  (1) 
(2S,3S,4R,5R)-5-[2-chloro-6-[(3-iodophenyl)methylamino]purin-9-yl]-3,4-dihydroxy-N-methyloxolane-2-carboxamide

$$$$
