
     RDKit          3D

 58 60  0  0  0  0  0  0  0  0999 V2000
   -8.1473    1.8498    0.0067 O   0  0  0  0  0  0  0  0  0  0  0  0
   -7.7006    0.5491   -0.3039 C   0  0  0  0  0  0  0  0  0  0  0  0
   -7.9281    0.1564   -1.4599 O   0  0  0  0  0  0  0  0  0  0  0  0
   -7.0130   -0.2240    0.7492 C   0  0  0  0  0  0  0  0  0  0  0  0
   -5.5242   -0.0186    0.6351 C   0  0  0  0  0  0  0  0  0  0  0  0
   -5.0555   -0.4897   -0.6943 C   0  0  0  0  0  0  0  0  0  0  0  0
   -3.5579   -0.3207   -0.8883 C   0  0  1  0  0  0  0  0  0  0  0  0
   -3.1178    1.0945   -0.7846 C   0  0  0  0  0  0  0  0  0  0  0  0
   -2.1043    1.3739    0.2696 C   0  0  0  0  0  0  0  0  0  0  0  0
   -1.1553    0.2750    0.5835 C   0  0  1  0  0  0  0  0  0  0  0  0
   -1.6030   -1.0892    0.1282 C   0  0  1  0  0  0  0  0  0  0  0  0
   -2.9448   -1.2245   -0.0713 O   0  0  0  0  0  0  0  0  0  0  0  0
   -0.7271   -1.5128   -1.0249 C   0  0  0  0  0  0  0  0  0  0  0  0
    0.2256   -0.3495   -1.2786 C   0  0  2  0  0  0  0  0  0  0  0  0
    0.2311    0.4558   -0.0261 C   0  0  2  0  0  0  0  0  0  0  0  0
    1.2459   -0.0314    0.9223 C   0  0  0  0  0  0  0  0  0  0  0  0
    2.1072   -1.0030    0.7348 C   0  0  0  0  0  0  0  0  0  0  0  0
    3.0632   -1.3502    1.8236 C   0  0  2  0  0  0  0  0  0  0  0  0
    4.2806   -0.4379    1.6539 C   0  0  0  0  0  0  0  0  0  0  0  0
    4.8352   -0.7362    0.3851 O   0  0  0  0  0  0  0  0  0  0  0  0
    5.9667   -0.0542   -0.0464 C   0  0  0  0  0  0  0  0  0  0  0  0
    6.5299   -0.3275   -1.2886 C   0  0  0  0  0  0  0  0  0  0  0  0
    7.6688    0.3696   -1.7046 C   0  0  0  0  0  0  0  0  0  0  0  0
    8.2458    1.3286   -0.8996 C   0  0  0  0  0  0  0  0  0  0  0  0
    7.6865    1.5949    0.3256 C   0  0  0  0  0  0  0  0  0  0  0  0
    6.5713    0.9116    0.7315 C   0  0  0  0  0  0  0  0  0  0  0  0
    3.4270   -2.6784    1.7659 O   0  0  0  0  0  0  0  0  0  0  0  0
   -0.2681    0.4097   -2.3769 O   0  0  0  0  0  0  0  0  0  0  0  0
   -8.1230    2.5833   -0.6980 H   0  0  0  0  0  0  0  0  0  0  0  0
   -7.2997   -1.2871    0.5879 H   0  0  0  0  0  0  0  0  0  0  0  0
   -7.3852    0.1438    1.7355 H   0  0  0  0  0  0  0  0  0  0  0  0
   -5.0511   -0.5564    1.4894 H   0  0  0  0  0  0  0  0  0  0  0  0
   -5.3480    1.0592    0.8207 H   0  0  0  0  0  0  0  0  0  0  0  0
   -5.6290    0.0087   -1.4922 H   0  0  0  0  0  0  0  0  0  0  0  0
   -5.2591   -1.5773   -0.7709 H   0  0  0  0  0  0  0  0  0  0  0  0
   -3.3781   -0.6424   -1.9549 H   0  0  0  0  0  0  0  0  0  0  0  0
   -3.9819    1.8012   -0.6021 H   0  0  0  0  0  0  0  0  0  0  0  0
   -2.6924    1.4978   -1.7527 H   0  0  0  0  0  0  0  0  0  0  0  0
   -2.6806    1.6265    1.2095 H   0  0  0  0  0  0  0  0  0  0  0  0
   -1.5406    2.2974    0.0147 H   0  0  0  0  0  0  0  0  0  0  0  0
   -0.9904    0.2774    1.7017 H   0  0  0  0  0  0  0  0  0  0  0  0
   -1.3440   -1.8106    0.9614 H   0  0  0  0  0  0  0  0  0  0  0  0
   -0.0931   -2.3951   -0.8032 H   0  0  0  0  0  0  0  0  0  0  0  0
   -1.2804   -1.7693   -1.9420 H   0  0  0  0  0  0  0  0  0  0  0  0
    1.2239   -0.6672   -1.6145 H   0  0  0  0  0  0  0  0  0  0  0  0
    0.4238    1.5431   -0.2374 H   0  0  0  0  0  0  0  0  0  0  0  0
    1.2860    0.4765    1.8960 H   0  0  0  0  0  0  0  0  0  0  0  0
    2.1554   -1.5712   -0.1743 H   0  0  0  0  0  0  0  0  0  0  0  0
    2.5680   -1.1127    2.8099 H   0  0  0  0  0  0  0  0  0  0  0  0
    4.9993   -0.5331    2.4898 H   0  0  0  0  0  0  0  0  0  0  0  0
    3.9256    0.6228    1.6319 H   0  0  0  0  0  0  0  0  0  0  0  0
    6.1183   -1.0648   -1.9532 H   0  0  0  0  0  0  0  0  0  0  0  0
    8.1063    0.1499   -2.6824 H   0  0  0  0  0  0  0  0  0  0  0  0
    9.1334    1.8848   -1.2034 H   0  0  0  0  0  0  0  0  0  0  0  0
    8.1136    2.3468    0.9923 H   0  0  0  0  0  0  0  0  0  0  0  0
    6.1519    1.1521    1.7179 H   0  0  0  0  0  0  0  0  0  0  0  0
    3.6200   -2.9008    0.8077 H   0  0  0  0  0  0  0  0  0  0  0  0
   -0.9868   -0.1044   -2.8038 H   0  0  0  0  0  0  0  0  0  0  0  0
  1  2  1  0
  2  3  2  0
  2  4  1  0
  4  5  1  0
  5  6  1  0
  6  7  1  0
  7  8  1  0
  8  9  1  0
  9 10  1  0
 10 11  1  0
 11 12  1  0
 11 13  1  0
 13 14  1  0
 14 15  1  0
 15 16  1  0
 16 17  2  0
 17 18  1  0
 18 19  1  0
 19 20  1  0
 20 21  1  0
 21 22  2  0
 22 23  1  0
 23 24  2  0
 24 25  1  0
 25 26  2  0
 18 27  1  0
 14 28  1  0
 12  7  1  0
 26 21  1  0
 15 10  1  0
  1 29  1  0
  4 30  1  0
  4 31  1  0
  5 32  1  0
  5 33  1  0
  6 34  1  0
  6 35  1  0
  7 36  1  6
  8 37  1  0
  8 38  1  0
  9 39  1  0
  9 40  1  0
 10 41  1  1
 11 42  1  1
 13 43  1  0
 13 44  1  0
 14 45  1  6
 15 46  1  6
 16 47  1  0
 17 48  1  0
 18 49  1  1
 19 50  1  0
 19 51  1  0
 22 52  1  0
 23 53  1  0
 24 54  1  0
 25 55  1  0
 26 56  1  0
 27 57  1  0
 28 58  1  0
M  END
>  <Ligand ID>  (1) 
LIG0000843

>  <Ligand>  (1) 
CHEMBL3805134

>  <SMILES>  (1) 
OC(=O)CCC[C@H]1CC[C@H]2[C@@H](O1)C[C@H]([C@@H]2/C=C/[C@H](COc1ccccc1)O)O

>  <CID>  (1) 
69753740.0

>  <ChEMBL ID>  (1) 
nan

>  <InChiKey>  (1) 
FTBNLUSUCXCIGD-NGVALPOPSA-N

>  <InChi>  (1) 
InChI=1S/C22H30O6/c23-15(14-27-16-5-2-1-3-6-16)9-11-18-19-12-10-17(7-4-8-22(25)26)28-21(19)13-20(18)24/h1-3,5-6,9,11,15,17-21,23-24H,4,7-8,10,12-14H2,(H,25,26)/b11-9+/t15-,17+,18-,19-,20-,21+/m1/s1

>  <IUPAC Name>  (1) 
4-[(2S,4aR,5R,6R,7aS)-6-hydroxy-5-[(E,3R)-3-hydroxy-4-phenoxybut-1-enyl]-2,3,4,4a,5,6,7,7a-octahydrocyclopenta[b]pyran-2-yl]butanoic acid

$$$$
