
     RDKit          3D

 38 37  0  0  0  0  0  0  0  0999 V2000
    6.0549   -0.4189   -0.9462 C   0  0  0  0  0  0  0  0  0  0  0  0
    4.8902    0.2758   -0.2820 C   0  0  0  0  0  0  0  0  0  0  0  0
    3.7029   -0.6538   -0.1436 C   0  0  0  0  0  0  0  0  0  0  0  0
    2.5970    0.1163    0.5234 C   0  0  0  0  0  0  0  0  0  0  0  0
    1.3921   -0.7498    0.6893 C   0  0  0  0  0  0  0  0  0  0  0  0
    0.2397   -0.0381    1.3547 C   0  0  0  0  0  0  0  0  0  0  0  0
   -0.2236    1.1616    0.5873 C   0  0  0  0  0  0  0  0  0  0  0  0
   -0.6922    0.8287   -0.7885 C   0  0  0  0  0  0  0  0  0  0  0  0
   -1.7595   -0.0625   -0.7605 O   0  0  0  0  0  0  0  0  0  0  0  0
   -2.9928    0.1456   -0.1631 C   0  0  0  0  0  0  0  0  0  0  0  0
   -3.2329    1.2210    0.4246 O   0  0  0  0  0  0  0  0  0  0  0  0
   -3.9943   -0.9180   -0.2394 C   0  0  0  0  0  0  0  0  0  0  0  0
   -5.2898   -0.5830    0.4410 C   0  0  0  0  0  0  0  0  0  0  0  0
   -6.0003    0.6132   -0.0883 C   0  0  0  0  0  0  0  0  0  0  0  0
    5.6356   -1.0280   -1.7762 H   0  0  0  0  0  0  0  0  0  0  0  0
    6.6288   -1.0296   -0.2221 H   0  0  0  0  0  0  0  0  0  0  0  0
    6.7181    0.3937   -1.3402 H   0  0  0  0  0  0  0  0  0  0  0  0
    4.6178    1.1680   -0.8636 H   0  0  0  0  0  0  0  0  0  0  0  0
    5.1532    0.5927    0.7537 H   0  0  0  0  0  0  0  0  0  0  0  0
    3.4125   -0.9686   -1.1833 H   0  0  0  0  0  0  0  0  0  0  0  0
    3.9971   -1.5688    0.3758 H   0  0  0  0  0  0  0  0  0  0  0  0
    2.9690    0.3922    1.5297 H   0  0  0  0  0  0  0  0  0  0  0  0
    2.3663    0.9751   -0.1238 H   0  0  0  0  0  0  0  0  0  0  0  0
    1.7001   -1.6176    1.3078 H   0  0  0  0  0  0  0  0  0  0  0  0
    1.0546   -1.1829   -0.2816 H   0  0  0  0  0  0  0  0  0  0  0  0
    0.4962    0.2144    2.3950 H   0  0  0  0  0  0  0  0  0  0  0  0
   -0.6178   -0.7410    1.3937 H   0  0  0  0  0  0  0  0  0  0  0  0
    0.5489    1.9549    0.5129 H   0  0  0  0  0  0  0  0  0  0  0  0
   -1.0604    1.6274    1.1429 H   0  0  0  0  0  0  0  0  0  0  0  0
   -0.9027    1.7625   -1.3489 H   0  0  0  0  0  0  0  0  0  0  0  0
    0.1384    0.3437   -1.3510 H   0  0  0  0  0  0  0  0  0  0  0  0
   -4.1266   -1.2041   -1.3003 H   0  0  0  0  0  0  0  0  0  0  0  0
   -3.5751   -1.7961    0.3048 H   0  0  0  0  0  0  0  0  0  0  0  0
   -5.1866   -0.5410    1.5299 H   0  0  0  0  0  0  0  0  0  0  0  0
   -5.9705   -1.4644    0.2494 H   0  0  0  0  0  0  0  0  0  0  0  0
   -5.6558    1.5750    0.3929 H   0  0  0  0  0  0  0  0  0  0  0  0
   -5.9555    0.6768   -1.1879 H   0  0  0  0  0  0  0  0  0  0  0  0
   -7.0767    0.5275    0.1818 H   0  0  0  0  0  0  0  0  0  0  0  0
  1  2  1  0
  2  3  1  0
  3  4  1  0
  4  5  1  0
  5  6  1  0
  6  7  1  0
  7  8  1  0
  8  9  1  0
  9 10  1  0
 10 11  2  0
 10 12  1  0
 12 13  1  0
 13 14  1  0
  1 15  1  0
  1 16  1  0
  1 17  1  0
  2 18  1  0
  2 19  1  0
  3 20  1  0
  3 21  1  0
  4 22  1  0
  4 23  1  0
  5 24  1  0
  5 25  1  0
  6 26  1  0
  6 27  1  0
  7 28  1  0
  7 29  1  0
  8 30  1  0
  8 31  1  0
 12 32  1  0
 12 33  1  0
 13 34  1  0
 13 35  1  0
 14 36  1  0
 14 37  1  0
 14 38  1  0
M  END
>  <Ligand ID>  (1) 
LIG0002078

>  <Ligand>  (1) 
octyl butanoate

>  <SMILES>  (1) 
CCCCCCCCOC(=O)CCC

>  <CID>  (1) 
61030.0

>  <ChEMBL ID>  (1) 
nan

>  <InChiKey>  (1) 
PWLNAUNEAKQYLH-UHFFFAOYSA-N

>  <InChi>  (1) 
InChI=1S/C12H24O2/c1-3-5-6-7-8-9-11-14-12(13)10-4-2/h3-11H2,1-2H3

>  <IUPAC Name>  (1) 
octyl butanoate

$$$$
