
     RDKit          3D

 66 69  0  0  0  0  0  0  0  0999 V2000
   -2.2663    0.1912   -0.9378 C   0  0  0  0  0  0  0  0  0  0  0  0
   -1.9592    0.3748    0.5041 C   0  0  2  0  0  0  0  0  0  0  0  0
   -3.0562    1.0464    1.3076 C   0  0  0  0  0  0  0  0  0  0  0  0
   -4.3054    0.2785    1.2546 C   0  0  0  0  0  0  0  0  0  0  0  0
   -4.6885   -0.6309    2.2431 C   0  0  0  0  0  0  0  0  0  0  0  0
   -5.8724   -1.1961    1.8939 N   0  0  0  0  0  0  0  0  0  0  0  0
   -6.2862   -0.6907    0.7076 C   0  0  0  0  0  0  0  0  0  0  0  0
   -5.3124    0.2188    0.3214 C   0  0  0  0  0  0  0  0  0  0  0  0
   -5.5099    0.8806   -0.8557 C   0  0  0  0  0  0  0  0  0  0  0  0
   -6.6108    0.6866   -1.6591 C   0  0  0  0  0  0  0  0  0  0  0  0
   -7.5568   -0.2386   -1.2243 C   0  0  0  0  0  0  0  0  0  0  0  0
   -7.4163   -0.9392   -0.0446 C   0  0  0  0  0  0  0  0  0  0  0  0
   -8.3957   -1.8420    0.3237 O   0  0  0  0  0  0  0  0  0  0  0  0
   -9.6826   -1.2629    1.2673 S   0  0  0  0  0  0  0  0  0  0  0  0
  -10.6133   -0.5063    0.3693 O   0  0  0  0  0  0  0  0  0  0  0  0
  -10.3596   -2.4378    1.9255 O   0  0  0  0  0  0  0  0  0  0  0  0
   -8.9966   -0.1563    2.4985 C   0  0  0  0  0  0  0  0  0  0  0  0
   -0.7631    1.1198    0.7502 N   0  0  0  0  0  0  0  0  0  0  0  0
    0.3894    0.4754    0.2337 C   0  0  0  0  0  0  0  0  0  0  0  0
    1.6729    1.2382    0.5632 C   0  0  1  0  0  0  0  0  0  0  0  0
    2.7773    0.4233   -0.0054 C   0  0  0  0  0  0  0  0  0  0  0  0
    2.9916    0.4373   -1.3729 C   0  0  0  0  0  0  0  0  0  0  0  0
    4.0171   -0.3143   -1.9178 C   0  0  0  0  0  0  0  0  0  0  0  0
    4.8572   -1.0955   -1.1491 C   0  0  0  0  0  0  0  0  0  0  0  0
    4.6168   -1.0884    0.2183 C   0  0  0  0  0  0  0  0  0  0  0  0
    3.6117   -0.3583    0.7985 C   0  0  0  0  0  0  0  0  0  0  0  0
    6.1110   -2.0414   -1.8957 S   0  0  0  0  0  0  0  0  0  0  0  0
    6.4897   -3.1777   -0.9661 O   0  0  0  0  0  0  0  0  0  0  0  0
    5.5166   -2.6329   -3.1497 O   0  0  0  0  0  0  0  0  0  0  0  0
    7.4649   -1.0599   -2.2394 N   0  0  0  0  0  0  0  0  0  0  0  0
    8.2607   -0.3535   -1.3319 C   0  0  0  0  0  0  0  0  0  0  0  0
    9.6475   -0.5189   -1.4479 C   0  0  0  0  0  0  0  0  0  0  0  0
   10.5287    0.1183   -0.6004 C   0  0  0  0  0  0  0  0  0  0  0  0
   10.0620    0.9412    0.3903 C   0  0  0  0  0  0  0  0  0  0  0  0
    8.7071    1.1224    0.5275 C   0  0  0  0  0  0  0  0  0  0  0  0
    7.8387    0.4755   -0.3312 C   0  0  0  0  0  0  0  0  0  0  0  0
    1.6517    2.5116    0.0389 O   0  0  0  0  0  0  0  0  0  0  0  0
   -1.3951   -0.3319   -1.4189 H   0  0  0  0  0  0  0  0  0  0  0  0
   -3.0956   -0.5526   -1.0675 H   0  0  0  0  0  0  0  0  0  0  0  0
   -2.4689    1.0914   -1.5184 H   0  0  0  0  0  0  0  0  0  0  0  0
   -1.7710   -0.6565    0.9224 H   0  0  0  0  0  0  0  0  0  0  0  0
   -3.2546    2.0523    0.8691 H   0  0  0  0  0  0  0  0  0  0  0  0
   -2.7207    1.2229    2.3529 H   0  0  0  0  0  0  0  0  0  0  0  0
   -4.1373   -0.8674    3.1627 H   0  0  0  0  0  0  0  0  0  0  0  0
   -6.4274   -1.9149    2.4172 H   0  0  0  0  0  0  0  0  0  0  0  0
   -4.7796    1.5872   -1.1725 H   0  0  0  0  0  0  0  0  0  0  0  0
   -6.7401    1.2281   -2.5903 H   0  0  0  0  0  0  0  0  0  0  0  0
   -8.4371   -0.4155   -1.8356 H   0  0  0  0  0  0  0  0  0  0  0  0
   -9.8303    0.3621    3.0142 H   0  0  0  0  0  0  0  0  0  0  0  0
   -8.3767   -0.7507    3.1994 H   0  0  0  0  0  0  0  0  0  0  0  0
   -8.3202    0.5414    1.9482 H   0  0  0  0  0  0  0  0  0  0  0  0
   -0.8135    2.1339    0.5788 H   0  0  0  0  0  0  0  0  0  0  0  0
    0.5018   -0.5478    0.6081 H   0  0  0  0  0  0  0  0  0  0  0  0
    0.3132    0.4027   -0.8911 H   0  0  0  0  0  0  0  0  0  0  0  0
    1.8204    1.2932    1.6557 H   0  0  0  0  0  0  0  0  0  0  0  0
    2.3988    1.0090   -2.0659 H   0  0  0  0  0  0  0  0  0  0  0  0
    4.2083   -0.3206   -3.0023 H   0  0  0  0  0  0  0  0  0  0  0  0
    5.2534   -1.6891    0.8636 H   0  0  0  0  0  0  0  0  0  0  0  0
    3.4508   -0.3742    1.8633 H   0  0  0  0  0  0  0  0  0  0  0  0
    7.7386   -0.9741   -3.2683 H   0  0  0  0  0  0  0  0  0  0  0  0
   10.0648   -1.1658   -2.2227 H   0  0  0  0  0  0  0  0  0  0  0  0
   11.6097   -0.0033   -0.6812 H   0  0  0  0  0  0  0  0  0  0  0  0
   10.7234    1.4690    1.0890 H   0  0  0  0  0  0  0  0  0  0  0  0
    8.3520    1.7731    1.3125 H   0  0  0  0  0  0  0  0  0  0  0  0
    6.8004    0.6469   -0.2012 H   0  0  0  0  0  0  0  0  0  0  0  0
    1.7710    2.5780   -0.9294 H   0  0  0  0  0  0  0  0  0  0  0  0
  1  2  1  0
  2  3  1  0
  3  4  1  0
  4  5  2  0
  5  6  1  0
  6  7  1  0
  7  8  2  0
  8  9  1  0
  9 10  2  0
 10 11  1  0
 11 12  2  0
 12 13  1  0
 13 14  1  0
 14 15  2  0
 14 16  2  0
 14 17  1  0
  2 18  1  0
 18 19  1  0
 19 20  1  0
 20 21  1  0
 21 22  2  0
 22 23  1  0
 23 24  2  0
 24 25  1  0
 25 26  2  0
 24 27  1  0
 27 28  2  0
 27 29  2  0
 27 30  1  0
 30 31  1  0
 31 32  2  0
 32 33  1  0
 33 34  2  0
 34 35  1  0
 35 36  2  0
 20 37  1  0
  8  4  1  0
 26 21  1  0
 36 31  1  0
 12  7  1  0
  1 38  1  0
  1 39  1  0
  1 40  1  0
  2 41  1  1
  3 42  1  0
  3 43  1  0
  5 44  1  0
  6 45  1  0
  9 46  1  0
 10 47  1  0
 11 48  1  0
 17 49  1  0
 17 50  1  0
 17 51  1  0
 18 52  1  0
 19 53  1  0
 19 54  1  0
 20 55  1  1
 22 56  1  0
 23 57  1  0
 25 58  1  0
 26 59  1  0
 30 60  1  0
 32 61  1  0
 33 62  1  0
 34 63  1  0
 35 64  1  0
 36 65  1  0
 37 66  1  0
M  END
>  <Ligand ID>  (1) 
LIG0002225

>  <Ligand>  (1) 
CHEMBL2260986

>  <SMILES>  (1) 
C[C@H](Cc1c[nH]c2c1cccc2OS(=O)(=O)C)NC[C@@H](c1ccc(cc1)S(=O)(=O)Nc1ccccc1)O

>  <CID>  (1) 
76315638.0

>  <ChEMBL ID>  (1) 
nan

>  <InChiKey>  (1) 
NMACOKKNLCJGHY-KOSHJBKYSA-N

>  <InChi>  (1) 
InChI=1S/C26H29N3O6S2/c1-18(15-20-16-28-26-23(20)9-6-10-25(26)35-36(2,31)32)27-17-24(30)19-11-13-22(14-12-19)37(33,34)29-21-7-4-3-5-8-21/h3-14,16,18,24,27-30H,15,17H2,1-2H3/t18-,24+/m1/s1

>  <IUPAC Name>  (1) 
[3-[(2R)-2-[[(2R)-2-hydroxy-2-[4-(phenylsulfamoyl)phenyl]ethyl]amino]propyl]-1H-indol-7-yl] methanesulfonate

$$$$
