
     RDKit          3D

 55 59  0  0  0  0  0  0  0  0999 V2000
   -7.2356   -1.0984   -0.0371 C   0  0  0  0  0  0  0  0  0  0  0  0
   -5.9025   -0.6858    0.5799 C   0  0  2  0  0  0  0  0  0  0  0  0
   -6.1200   -0.0259    1.9419 C   0  0  0  0  0  0  0  0  0  0  0  0
   -6.4790    1.3988    1.5244 C   0  0  0  0  0  0  0  0  0  0  0  0
   -5.7682    1.5766    0.2204 C   0  0  0  0  0  0  0  0  0  0  0  0
   -5.2606    0.3100   -0.2152 N   0  0  0  0  0  0  0  0  0  0  0  0
   -3.8347    0.2498   -0.2151 C   0  0  0  0  0  0  0  0  0  0  0  0
   -3.2463   -1.0059   -0.7640 C   0  0  0  0  0  0  0  0  0  0  0  0
   -1.7462   -0.8361   -0.6647 C   0  0  0  0  0  0  0  0  0  0  0  0
   -1.1564   -1.2997    0.4914 C   0  0  0  0  0  0  0  0  0  0  0  0
    0.2067   -1.1589    0.6390 C   0  0  0  0  0  0  0  0  0  0  0  0
    0.9667   -0.5754   -0.3291 C   0  0  0  0  0  0  0  0  0  0  0  0
    0.3416   -0.1246   -1.4699 C   0  0  0  0  0  0  0  0  0  0  0  0
   -1.0249   -0.2372   -1.6793 C   0  0  0  0  0  0  0  0  0  0  0  0
    1.1427    0.4652   -2.4228 C   0  0  0  0  0  0  0  0  0  0  0  0
    2.5144    0.5743   -2.1917 C   0  0  0  0  0  0  0  0  0  0  0  0
    3.1286    0.1233   -1.0586 C   0  0  0  0  0  0  0  0  0  0  0  0
    2.2814   -0.4547   -0.1437 N   0  0  0  0  0  0  0  0  0  0  0  0
    4.5040    0.2081   -0.6916 C   0  0  0  0  0  0  0  0  0  0  0  0
    4.8136    0.0325    0.6674 C   0  0  0  0  0  0  0  0  0  0  0  0
    6.1033    0.0699    1.1426 C   0  0  0  0  0  0  0  0  0  0  0  0
    6.3436   -0.1069    2.4875 C   0  0  0  0  0  0  0  0  0  0  0  0
    7.6685   -0.0565    2.9073 C   0  0  0  0  0  0  0  0  0  0  0  0
    8.7170    0.1590    2.0393 C   0  0  0  0  0  0  0  0  0  0  0  0
    8.4147    0.3239    0.7397 N   0  0  0  0  0  0  0  0  0  0  0  0
    7.1509    0.2847    0.2803 C   0  0  0  0  0  0  0  0  0  0  0  0
    6.8514    0.4502   -1.0149 N   0  0  0  0  0  0  0  0  0  0  0  0
    5.5848    0.4173   -1.5095 C   0  0  0  0  0  0  0  0  0  0  0  0
    5.4306    0.5692   -2.9724 C   0  0  0  0  0  0  0  0  0  0  0  0
   -8.0352   -0.5179    0.4745 H   0  0  0  0  0  0  0  0  0  0  0  0
   -7.2688   -0.8677   -1.1139 H   0  0  0  0  0  0  0  0  0  0  0  0
   -7.3565   -2.1964    0.1077 H   0  0  0  0  0  0  0  0  0  0  0  0
   -5.2909   -1.5914    0.7775 H   0  0  0  0  0  0  0  0  0  0  0  0
   -6.9513   -0.4801    2.5077 H   0  0  0  0  0  0  0  0  0  0  0  0
   -5.1793   -0.0106    2.5019 H   0  0  0  0  0  0  0  0  0  0  0  0
   -7.5963    1.4152    1.4210 H   0  0  0  0  0  0  0  0  0  0  0  0
   -6.1880    2.1175    2.3043 H   0  0  0  0  0  0  0  0  0  0  0  0
   -6.5311    1.9314   -0.5280 H   0  0  0  0  0  0  0  0  0  0  0  0
   -4.9329    2.3178    0.3071 H   0  0  0  0  0  0  0  0  0  0  0  0
   -3.4957    0.3474    0.8544 H   0  0  0  0  0  0  0  0  0  0  0  0
   -3.3549    1.0920   -0.7482 H   0  0  0  0  0  0  0  0  0  0  0  0
   -3.5722   -1.8640   -0.1519 H   0  0  0  0  0  0  0  0  0  0  0  0
   -3.5439   -1.2237   -1.8014 H   0  0  0  0  0  0  0  0  0  0  0  0
   -1.7212   -1.7676    1.2827 H   0  0  0  0  0  0  0  0  0  0  0  0
    0.6550   -1.5218    1.5411 H   0  0  0  0  0  0  0  0  0  0  0  0
   -1.5134    0.1166   -2.5770 H   0  0  0  0  0  0  0  0  0  0  0  0
    0.6945    0.8256   -3.3180 H   0  0  0  0  0  0  0  0  0  0  0  0
    3.0677    1.0683   -2.9568 H   0  0  0  0  0  0  0  0  0  0  0  0
    4.0349   -0.1406    1.4068 H   0  0  0  0  0  0  0  0  0  0  0  0
    5.5677   -0.2792    3.2157 H   0  0  0  0  0  0  0  0  0  0  0  0
    7.8644   -0.1967    3.9733 H   0  0  0  0  0  0  0  0  0  0  0  0
    9.7167    0.1872    2.4193 H   0  0  0  0  0  0  0  0  0  0  0  0
    6.4693    0.3392   -3.4106 H   0  0  0  0  0  0  0  0  0  0  0  0
    4.8247   -0.2344   -3.4488 H   0  0  0  0  0  0  0  0  0  0  0  0
    5.2465    1.5873   -3.3216 H   0  0  0  0  0  0  0  0  0  0  0  0
  1  2  1  0
  2  3  1  0
  3  4  1  0
  4  5  1  0
  5  6  1  0
  6  7  1  0
  7  8  1  0
  8  9  1  0
  9 10  2  0
 10 11  1  0
 11 12  2  0
 12 13  1  0
 13 14  2  0
 13 15  1  0
 15 16  2  0
 16 17  1  0
 17 18  2  0
 17 19  1  0
 19 20  2  0
 20 21  1  0
 21 22  2  0
 22 23  1  0
 23 24  2  0
 24 25  1  0
 25 26  2  0
 26 27  1  0
 27 28  2  0
 28 29  1  0
  6  2  1  0
 14  9  1  0
 28 19  1  0
 18 12  1  0
 26 21  1  0
  1 30  1  0
  1 31  1  0
  1 32  1  0
  2 33  1  1
  3 34  1  0
  3 35  1  0
  4 36  1  0
  4 37  1  0
  5 38  1  0
  5 39  1  0
  7 40  1  0
  7 41  1  0
  8 42  1  0
  8 43  1  0
 10 44  1  0
 11 45  1  0
 14 46  1  0
 15 47  1  0
 16 48  1  0
 20 49  1  0
 22 50  1  0
 23 51  1  0
 24 52  1  0
 29 53  1  0
 29 54  1  0
 29 55  1  0
M  END
>  <Ligand ID>  (1) 
LIG0005244

>  <Ligand>  (1) 
CHEMBL263101

>  <SMILES>  (1) 
C[C@@H]1CCCN1CCc1ccc2c(c1)ccc(n2)c1cc2cccnc2nc1C

>  <CID>  (1) 
11710694.0

>  <ChEMBL ID>  (1) 
nan

>  <InChiKey>  (1) 
VLKAMDZYTNJHHG-QGZVFWFLSA-N

>  <InChi>  (1) 
InChI=1S/C25H26N4/c1-17-5-4-13-29(17)14-11-19-7-9-23-20(15-19)8-10-24(28-23)22-16-21-6-3-12-26-25(21)27-18(22)2/h3,6-10,12,15-17H,4-5,11,13-14H2,1-2H3/t17-/m1/s1

>  <IUPAC Name>  (1) 
2-methyl-3-[6-[2-[(2R)-2-methylpyrrolidin-1-yl]ethyl]quinolin-2-yl]-1,8-naphthyridine

$$$$
