
     RDKit          3D

102105  0  0  0  0  0  0  0  0999 V2000
   -0.7071    4.0437   -1.2828 O   0  0  0  0  0  0  0  0  0  0  0  0
   -1.3401    4.1921   -0.2416 C   0  0  0  0  0  0  0  0  0  0  0  0
   -0.5303    4.2193    0.9612 N   0  0  0  0  0  0  0  0  0  0  0  0
    0.9097    4.0948    0.9551 C   0  0  0  0  0  0  0  0  0  0  0  0
    1.3374    4.0057    2.4152 C   0  0  0  0  0  0  0  0  0  0  0  0
    0.6581    2.9371    3.1559 C   0  0  0  0  0  0  0  0  0  0  0  0
    0.8918    1.5030    2.9554 C   0  0  0  0  0  0  0  0  0  0  0  0
    0.9658    0.9051    1.6352 C   0  0  1  0  0  0  0  0  0  0  0  0
    2.2989    1.0434    1.0695 N   0  0  0  0  0  0  0  0  0  0  0  0
    2.5844    1.0175   -0.3151 C   0  0  0  0  0  0  0  0  0  0  0  0
    1.6458    0.8578   -1.1212 O   0  0  0  0  0  0  0  0  0  0  0  0
    4.0155    1.1831   -0.7363 C   0  0  2  0  0  0  0  0  0  0  0  0
    4.5236   -0.1830   -1.1767 C   0  0  0  0  0  0  0  0  0  0  0  0
    5.9166   -0.1846   -1.6174 C   0  0  0  0  0  0  0  0  0  0  0  0
    7.0211   -0.2225   -0.8021 C   0  0  0  0  0  0  0  0  0  0  0  0
    6.9385   -0.3358    0.6733 C   0  0  0  0  0  0  0  0  0  0  0  0
    8.3185   -0.1853   -1.3304 C   0  0  0  0  0  0  0  0  0  0  0  0
    8.5411   -0.1100   -2.6848 C   0  0  0  0  0  0  0  0  0  0  0  0
    7.4409   -0.0729   -3.5074 C   0  0  0  0  0  0  0  0  0  0  0  0
    6.1513   -0.1093   -2.9921 C   0  0  0  0  0  0  0  0  0  0  0  0
    5.0063   -0.0720   -3.9637 C   0  0  0  0  0  0  0  0  0  0  0  0
    9.8181   -0.0724   -3.2130 O   0  0  0  0  0  0  0  0  0  0  0  0
    4.7624    1.6946    0.3890 N   0  0  0  0  0  0  0  0  0  0  0  0
    0.4677   -0.4792    1.4891 C   0  0  0  0  0  0  0  0  0  0  0  0
    1.1991   -1.2981    0.9184 O   0  0  0  0  0  0  0  0  0  0  0  0
   -0.7889   -0.9564    1.9525 N   0  0  0  0  0  0  0  0  0  0  0  0
   -1.1628   -2.2948    1.4607 C   0  0  2  0  0  0  0  0  0  0  0  0
   -2.1723   -1.9276    0.3689 C   0  0  0  0  0  0  0  0  0  0  0  0
   -2.4663   -2.6862   -0.5534 O   0  0  0  0  0  0  0  0  0  0  0  0
   -2.8416   -0.6698    0.3812 N   0  0  0  0  0  0  0  0  0  0  0  0
   -3.5848   -0.0606   -0.6927 C   0  0  2  0  0  0  0  0  0  0  0  0
   -3.4898    1.4330   -0.4487 C   0  0  0  0  0  0  0  0  0  0  0  0
   -3.2953    1.7864    0.7080 O   0  0  0  0  0  0  0  0  0  0  0  0
   -3.5916    2.4232   -1.4400 N   0  0  0  0  0  0  0  0  0  0  0  0
   -3.6969    3.8469   -1.1316 C   0  0  1  0  0  0  0  0  0  0  0  0
   -2.7853    4.3348   -0.0595 C   0  0  0  0  0  0  0  0  0  0  0  0
   -3.8885    4.6955   -2.2880 C   0  0  0  0  0  0  0  0  0  0  0  0
   -3.9783    4.3084   -3.4907 O   0  0  0  0  0  0  0  0  0  0  0  0
   -3.9884    6.1072   -2.0869 N   0  0  0  0  0  0  0  0  0  0  0  0
   -5.0842   -0.3048   -0.5764 C   0  0  0  0  0  0  0  0  0  0  0  0
   -5.5180   -1.6828   -0.6014 C   0  0  0  0  0  0  0  0  0  0  0  0
   -6.0645   -2.2384    0.5430 C   0  0  0  0  0  0  0  0  0  0  0  0
   -6.5780   -3.5387    0.5609 C   0  0  0  0  0  0  0  0  0  0  0  0
   -6.5231   -4.2767   -0.6256 C   0  0  0  0  0  0  0  0  0  0  0  0
   -5.9683   -3.7115   -1.7787 C   0  0  0  0  0  0  0  0  0  0  0  0
   -5.4672   -2.4256   -1.7771 C   0  0  0  0  0  0  0  0  0  0  0  0
   -4.9438   -1.9372   -2.9241 F   0  0  0  0  0  0  0  0  0  0  0  0
   -7.0177   -5.5334   -0.6165 F   0  0  0  0  0  0  0  0  0  0  0  0
   -1.6859   -3.2159    2.4861 C   0  0  0  0  0  0  0  0  0  0  0  0
   -1.9823   -4.5278    1.8681 C   0  0  0  0  0  0  0  0  0  0  0  0
   -0.9752   -5.4676    1.8326 C   0  0  0  0  0  0  0  0  0  0  0  0
   -1.1447   -6.7195    1.2774 C   0  0  0  0  0  0  0  0  0  0  0  0
   -2.3662   -7.0570    0.7328 C   0  0  0  0  0  0  0  0  0  0  0  0
   -3.3803   -6.1264    0.7625 C   0  0  0  0  0  0  0  0  0  0  0  0
   -3.1990   -4.8683    1.3239 C   0  0  0  0  0  0  0  0  0  0  0  0
   -1.0675    4.3472    1.8175 H   0  0  0  0  0  0  0  0  0  0  0  0
    1.3173    5.1291    0.5824 H   0  0  0  0  0  0  0  0  0  0  0  0
    1.3498    3.3760    0.3309 H   0  0  0  0  0  0  0  0  0  0  0  0
    1.0706    5.0148    2.8478 H   0  0  0  0  0  0  0  0  0  0  0  0
    2.4470    3.9800    2.4841 H   0  0  0  0  0  0  0  0  0  0  0  0
   -0.4756    3.1189    3.1957 H   0  0  0  0  0  0  0  0  0  0  0  0
    0.8878    3.1223    4.2855 H   0  0  0  0  0  0  0  0  0  0  0  0
    1.8141    1.2329    3.5820 H   0  0  0  0  0  0  0  0  0  0  0  0
    0.0823    0.9786    3.5923 H   0  0  0  0  0  0  0  0  0  0  0  0
    0.2780    1.4430    0.8759 H   0  0  0  0  0  0  0  0  0  0  0  0
    3.0879    1.1705    1.7513 H   0  0  0  0  0  0  0  0  0  0  0  0
    3.9891    1.8948   -1.5895 H   0  0  0  0  0  0  0  0  0  0  0  0
    3.8261   -0.6516   -1.8988 H   0  0  0  0  0  0  0  0  0  0  0  0
    4.4355   -0.8262   -0.2532 H   0  0  0  0  0  0  0  0  0  0  0  0
    5.9781   -0.7323    1.0432 H   0  0  0  0  0  0  0  0  0  0  0  0
    7.1486    0.6292    1.2043 H   0  0  0  0  0  0  0  0  0  0  0  0
    7.7414   -1.0379    1.0148 H   0  0  0  0  0  0  0  0  0  0  0  0
    9.1924   -0.2141   -0.6825 H   0  0  0  0  0  0  0  0  0  0  0  0
    7.5950   -0.0129   -4.5911 H   0  0  0  0  0  0  0  0  0  0  0  0
    4.3414   -0.9512   -3.8265 H   0  0  0  0  0  0  0  0  0  0  0  0
    4.4025    0.8485   -3.8611 H   0  0  0  0  0  0  0  0  0  0  0  0
    5.3833   -0.1483   -5.0019 H   0  0  0  0  0  0  0  0  0  0  0  0
   10.5877    0.3834   -2.7072 H   0  0  0  0  0  0  0  0  0  0  0  0
    4.2250    2.5339    0.7488 H   0  0  0  0  0  0  0  0  0  0  0  0
    5.6595    2.1043    0.0032 H   0  0  0  0  0  0  0  0  0  0  0  0
   -1.3076   -0.3733    2.5730 H   0  0  0  0  0  0  0  0  0  0  0  0
   -0.3004   -2.8046    0.9568 H   0  0  0  0  0  0  0  0  0  0  0  0
   -2.7855   -0.1689    1.2761 H   0  0  0  0  0  0  0  0  0  0  0  0
   -3.2397   -0.3165   -1.6999 H   0  0  0  0  0  0  0  0  0  0  0  0
   -3.5811    2.0815   -2.4094 H   0  0  0  0  0  0  0  0  0  0  0  0
   -4.7183    3.8456   -0.5432 H   0  0  0  0  0  0  0  0  0  0  0  0
   -3.0681    4.0000    0.9722 H   0  0  0  0  0  0  0  0  0  0  0  0
   -2.9275    5.4798    0.0414 H   0  0  0  0  0  0  0  0  0  0  0  0
   -4.8411    6.5216   -1.6511 H   0  0  0  0  0  0  0  0  0  0  0  0
   -3.1742    6.6736   -2.3964 H   0  0  0  0  0  0  0  0  0  0  0  0
   -5.6040    0.3093   -1.3590 H   0  0  0  0  0  0  0  0  0  0  0  0
   -5.3852    0.1936    0.3909 H   0  0  0  0  0  0  0  0  0  0  0  0
   -6.1030   -1.6495    1.4699 H   0  0  0  0  0  0  0  0  0  0  0  0
   -6.9941   -3.9279    1.4717 H   0  0  0  0  0  0  0  0  0  0  0  0
   -5.9429   -4.3255   -2.6914 H   0  0  0  0  0  0  0  0  0  0  0  0
   -0.8818   -3.3500    3.2482 H   0  0  0  0  0  0  0  0  0  0  0  0
   -2.5585   -2.8290    3.0541 H   0  0  0  0  0  0  0  0  0  0  0  0
   -0.0071   -5.2354    2.2501 H   0  0  0  0  0  0  0  0  0  0  0  0
   -0.2909   -7.4147    1.2868 H   0  0  0  0  0  0  0  0  0  0  0  0
   -2.4735   -8.0457    0.3035 H   0  0  0  0  0  0  0  0  0  0  0  0
   -4.3524   -6.3608    0.3422 H   0  0  0  0  0  0  0  0  0  0  0  0
   -3.9665   -4.1169    1.3659 H   0  0  0  0  0  0  0  0  0  0  0  0
  1  2  2  0
  2  3  1  0
  3  4  1  0
  4  5  1  0
  5  6  1  0
  6  7  1  0
  7  8  1  0
  8  9  1  0
  9 10  1  0
 10 11  2  0
 10 12  1  0
 12 13  1  0
 13 14  1  0
 14 15  2  0
 15 16  1  0
 15 17  1  0
 17 18  2  0
 18 19  1  0
 19 20  2  0
 20 21  1  0
 18 22  1  0
 12 23  1  0
  8 24  1  0
 24 25  2  0
 24 26  1  0
 26 27  1  0
 27 28  1  0
 28 29  2  0
 28 30  1  0
 30 31  1  0
 31 32  1  0
 32 33  2  0
 32 34  1  0
 34 35  1  0
 35 36  1  0
 35 37  1  0
 37 38  2  0
 37 39  1  0
 31 40  1  0
 40 41  1  0
 41 42  2  0
 42 43  1  0
 43 44  2  0
 44 45  1  0
 45 46  2  0
 46 47  1  0
 44 48  1  0
 27 49  1  0
 49 50  1  0
 50 51  2  0
 51 52  1  0
 52 53  2  0
 53 54  1  0
 54 55  2  0
 36  2  1  0
 46 41  1  0
 55 50  1  0
 20 14  1  0
  3 56  1  0
  4 57  1  0
  4 58  1  0
  5 59  1  0
  5 60  1  0
  6 61  1  0
  6 62  1  0
  7 63  1  0
  7 64  1  0
  8 65  1  6
  9 66  1  0
 12 67  1  6
 13 68  1  0
 13 69  1  0
 16 70  1  0
 16 71  1  0
 16 72  1  0
 17 73  1  0
 19 74  1  0
 21 75  1  0
 21 76  1  0
 21 77  1  0
 22 78  1  0
 23 79  1  0
 23 80  1  0
 26 81  1  0
 27 82  1  6
 30 83  1  0
 31 84  1  6
 34 85  1  0
 35 86  1  1
 36 87  1  0
 36 88  1  0
 39 89  1  0
 39 90  1  0
 40 91  1  0
 40 92  1  0
 42 93  1  0
 43 94  1  0
 45 95  1  0
 49 96  1  0
 49 97  1  0
 51 98  1  0
 52 99  1  0
 53100  1  0
 54101  1  0
 55102  1  0
M  END
>  <Ligand ID>  (1) 
LIG0003750

>  <Ligand>  (1) 
CHEMBL3580749

>  <SMILES>  (1) 
O=C1NCCCC[C@@H](NC(=O)[C@H](Cc2c(C)cc(cc2C)O)N)C(=O)N[C@H](C(=O)N[C@H](C(=O)N[C@@H](C1)C(=O)N)Cc1ccc(cc1F)F)Cc1ccccc1

>  <CID>  (1) 
122178426.0

>  <ChEMBL ID>  (1) 
nan

>  <InChiKey>  (1) 
JMEAERPFLWHOHL-WUXKFAKNSA-N

>  <InChi>  (1) 
InChI=1S/C39H47F2N7O7/c1-21-14-26(49)15-22(2)27(21)19-29(42)36(52)45-30-10-6-7-13-44-34(50)20-31(35(43)51)46-39(55)33(17-24-11-12-25(40)18-28(24)41)48-38(54)32(47-37(30)53)16-23-8-4-3-5-9-23/h3-5,8-9,11-12,14-15,18,29-33,49H,6-7,10,13,16-17,19-20,42H2,1-2H3,(H2,43,51)(H,44,50)(H,45,52)(H,46,55)(H,47,53)(H,48,54)/t29-,30+,31-,32-,33-/m0/s1

>  <IUPAC Name>  (1) 
(2S,5S,8S,16R)-16-[[(2S)-2-amino-3-(4-hydroxy-2,6-dimethylphenyl)propanoyl]amino]-2-benzyl-5-[(2,4-difluorophenyl)methyl]-3,6,10,17-tetraoxo-1,4,7,11-tetrazacycloheptadecane-8-carboxamide

$$$$
