
     RDKit          3D

 89 89  0  0  0  0  0  0  0  0999 V2000
   -0.9916   -0.0713   -0.0139 C   0  0  0  0  0  0  0  0  0  0  0  0
    0.4508    0.2874    0.0031 C   0  0  0  0  0  0  0  0  0  0  0  0
    0.7625    1.4908    0.0867 O   0  0  0  0  0  0  0  0  0  0  0  0
    1.4367   -0.6671   -0.0704 O   0  0  0  0  0  0  0  0  0  0  0  0
   -8.3923    3.3843    1.8124 O   0  0  0  0  0  0  0  0  0  0  0  0
   -9.1180    2.2881    1.4009 C   0  0  0  0  0  0  0  0  0  0  0  0
   -8.3299    1.0331    1.6122 C   0  0  0  0  0  0  0  0  0  0  0  0
   -7.7371    0.4080    0.5124 C   0  0  0  0  0  0  0  0  0  0  0  0
   -6.9952   -0.7656    0.6775 C   0  0  0  0  0  0  0  0  0  0  0  0
   -6.8456   -1.3174    1.9532 C   0  0  0  0  0  0  0  0  0  0  0  0
   -7.4465   -0.6750    3.0339 C   0  0  0  0  0  0  0  0  0  0  0  0
   -8.1801    0.4856    2.8698 C   0  0  0  0  0  0  0  0  0  0  0  0
   -8.7504    1.0731    3.9827 O   0  0  0  0  0  0  0  0  0  0  0  0
   -6.4059   -1.3608   -0.5215 C   0  0  2  0  0  0  0  0  0  0  0  0
   -5.1606   -0.7071   -1.0248 C   0  0  0  0  0  0  0  0  0  0  0  0
   -4.1331   -0.6951   -0.0109 N   0  0  0  0  0  0  0  0  0  0  0  0
   -2.8956   -0.0788   -0.4561 C   0  0  0  0  0  0  0  0  0  0  0  0
   -2.1967   -0.8810   -1.5005 C   0  0  0  0  0  0  0  0  0  0  0  0
   -0.8855   -0.2272   -1.9598 C   0  0  0  0  0  0  0  0  0  0  0  0
   -1.1015    1.1109   -2.5406 C   0  0  0  0  0  0  0  0  0  0  0  0
    0.1235    1.7859   -3.0330 C   0  0  0  0  0  0  0  0  0  0  0  0
    1.1588    2.0443   -2.0131 C   0  0  0  0  0  0  0  0  0  0  0  0
    1.7227    0.9308   -1.4575 O   0  0  0  0  0  0  0  0  0  0  0  0
    2.3972    0.1830   -2.3975 C   0  0  0  0  0  0  0  0  0  0  0  0
    3.0954   -0.9630   -1.7164 C   0  0  0  0  0  0  0  0  0  0  0  0
    2.1032   -1.8333   -1.0034 C   0  0  0  0  0  0  0  0  0  0  0  0
    2.8616   -2.9916   -0.3395 C   0  0  0  0  0  0  0  0  0  0  0  0
    3.8372   -2.4145    0.6154 C   0  0  0  0  0  0  0  0  0  0  0  0
    3.4801   -2.1474    1.9287 C   0  0  0  0  0  0  0  0  0  0  0  0
    4.4293   -1.6136    2.8037 C   0  0  0  0  0  0  0  0  0  0  0  0
    5.7183   -1.3440    2.3943 C   0  0  0  0  0  0  0  0  0  0  0  0
    6.0828   -1.6089    1.0803 C   0  0  0  0  0  0  0  0  0  0  0  0
    5.1336   -2.1332    0.2385 C   0  0  0  0  0  0  0  0  0  0  0  0
    7.7005   -1.2983    0.4808 S   0  0  0  0  0  0  0  0  0  0  0  0
    7.9388   -2.2848   -0.6420 O   0  0  0  0  0  0  0  0  0  0  0  0
    8.7035   -1.6554    1.5405 O   0  0  0  0  0  0  0  0  0  0  0  0
    7.9150    0.2511   -0.1583 N   0  0  0  0  0  0  0  0  0  0  0  0
    7.7234    1.3498    0.7215 C   0  0  0  0  0  0  0  0  0  0  0  0
    8.8803    2.3065    0.7838 C   0  0  0  0  0  0  0  0  0  0  0  0
    6.5314    2.1437    0.1706 C   0  0  0  0  0  0  0  0  0  0  0  0
   -7.3790   -1.3505   -1.5340 O   0  0  0  0  0  0  0  0  0  0  0  0
   -1.4888    0.5135   -0.8164 H   0  0  0  0  0  0  0  0  0  0  0  0
   -1.4476    0.0928    0.9944 H   0  0  0  0  0  0  0  0  0  0  0  0
   -1.1365   -1.1428   -0.2279 H   0  0  0  0  0  0  0  0  0  0  0  0
    2.4145   -0.5034    0.0444 H   0  0  0  0  0  0  0  0  0  0  0  0
   -7.6433    3.5838    1.1895 H   0  0  0  0  0  0  0  0  0  0  0  0
   -9.4344    2.3126    0.3418 H   0  0  0  0  0  0  0  0  0  0  0  0
  -10.0521    2.2224    1.9996 H   0  0  0  0  0  0  0  0  0  0  0  0
   -7.8546    0.8393   -0.4824 H   0  0  0  0  0  0  0  0  0  0  0  0
   -6.2685   -2.2255    2.0671 H   0  0  0  0  0  0  0  0  0  0  0  0
   -7.3000   -1.1437    3.9981 H   0  0  0  0  0  0  0  0  0  0  0  0
   -9.1920    1.9800    3.9592 H   0  0  0  0  0  0  0  0  0  0  0  0
   -6.1826   -2.4455   -0.3041 H   0  0  0  0  0  0  0  0  0  0  0  0
   -5.3376    0.2773   -1.4746 H   0  0  0  0  0  0  0  0  0  0  0  0
   -4.7667   -1.3838   -1.8339 H   0  0  0  0  0  0  0  0  0  0  0  0
   -4.4833   -0.1052    0.7946 H   0  0  0  0  0  0  0  0  0  0  0  0
   -2.2321   -0.0451    0.4341 H   0  0  0  0  0  0  0  0  0  0  0  0
   -3.0803    0.9705   -0.7527 H   0  0  0  0  0  0  0  0  0  0  0  0
   -2.7945   -1.0290   -2.4241 H   0  0  0  0  0  0  0  0  0  0  0  0
   -1.8901   -1.8758   -1.1210 H   0  0  0  0  0  0  0  0  0  0  0  0
   -0.4099   -0.9409   -2.6619 H   0  0  0  0  0  0  0  0  0  0  0  0
   -0.2102   -0.1237   -1.0873 H   0  0  0  0  0  0  0  0  0  0  0  0
   -1.8432    1.1130   -3.3832 H   0  0  0  0  0  0  0  0  0  0  0  0
   -1.5000    1.7758   -1.7058 H   0  0  0  0  0  0  0  0  0  0  0  0
    0.5970    1.2037   -3.8846 H   0  0  0  0  0  0  0  0  0  0  0  0
   -0.1675    2.7812   -3.5244 H   0  0  0  0  0  0  0  0  0  0  0  0
    1.9611    2.7482   -2.4151 H   0  0  0  0  0  0  0  0  0  0  0  0
    0.6984    2.6769   -1.1827 H   0  0  0  0  0  0  0  0  0  0  0  0
    1.7750   -0.2540   -3.1923 H   0  0  0  0  0  0  0  0  0  0  0  0
    3.1658    0.8191   -2.9220 H   0  0  0  0  0  0  0  0  0  0  0  0
    3.7193   -1.5327   -2.4412 H   0  0  0  0  0  0  0  0  0  0  0  0
    3.8143   -0.4950   -0.9996 H   0  0  0  0  0  0  0  0  0  0  0  0
    1.3094   -2.2078   -1.6484 H   0  0  0  0  0  0  0  0  0  0  0  0
    1.6718   -1.2147   -0.1636 H   0  0  0  0  0  0  0  0  0  0  0  0
    3.4243   -3.4709   -1.1861 H   0  0  0  0  0  0  0  0  0  0  0  0
    2.1762   -3.7174    0.1219 H   0  0  0  0  0  0  0  0  0  0  0  0
    2.4684   -2.3497    2.2829 H   0  0  0  0  0  0  0  0  0  0  0  0
    4.1683   -1.4002    3.8272 H   0  0  0  0  0  0  0  0  0  0  0  0
    6.4823   -0.9325    3.0344 H   0  0  0  0  0  0  0  0  0  0  0  0
    5.4125   -2.3386   -0.7759 H   0  0  0  0  0  0  0  0  0  0  0  0
    7.6349    0.3770   -1.1339 H   0  0  0  0  0  0  0  0  0  0  0  0
    7.4505    1.0726    1.7501 H   0  0  0  0  0  0  0  0  0  0  0  0
    9.8303    1.7922    1.0795 H   0  0  0  0  0  0  0  0  0  0  0  0
    8.6654    3.0215    1.6052 H   0  0  0  0  0  0  0  0  0  0  0  0
    8.9952    2.9257   -0.1288 H   0  0  0  0  0  0  0  0  0  0  0  0
    6.8939    3.0380   -0.4014 H   0  0  0  0  0  0  0  0  0  0  0  0
    5.8658    2.5001    0.9605 H   0  0  0  0  0  0  0  0  0  0  0  0
    5.9530    1.5500   -0.5774 H   0  0  0  0  0  0  0  0  0  0  0  0
   -7.0746   -0.7807   -2.2783 H   0  0  0  0  0  0  0  0  0  0  0  0
  1  2  1  0
  2  3  2  0
  2  4  1  0
  5  6  1  0
  6  7  1  0
  7  8  2  0
  8  9  1  0
  9 10  2  0
 10 11  1  0
 11 12  2  0
 12 13  1  0
  9 14  1  0
 14 15  1  0
 15 16  1  0
 16 17  1  0
 17 18  1  0
 18 19  1  0
 19 20  1  0
 20 21  1  0
 21 22  1  0
 22 23  1  0
 23 24  1  0
 24 25  1  0
 25 26  1  0
 26 27  1  0
 27 28  1  0
 28 29  2  0
 29 30  1  0
 30 31  2  0
 31 32  1  0
 32 33  2  0
 32 34  1  0
 34 35  2  0
 34 36  2  0
 34 37  1  0
 37 38  1  0
 38 39  1  0
 38 40  1  0
 14 41  1  0
 12  7  1  0
 33 28  1  0
  1 42  1  0
  1 43  1  0
  1 44  1  0
  4 45  1  0
  5 46  1  0
  6 47  1  0
  6 48  1  0
  8 49  1  0
 10 50  1  0
 11 51  1  0
 13 52  1  0
 14 53  1  1
 15 54  1  0
 15 55  1  0
 16 56  1  0
 17 57  1  0
 17 58  1  0
 18 59  1  0
 18 60  1  0
 19 61  1  0
 19 62  1  0
 20 63  1  0
 20 64  1  0
 21 65  1  0
 21 66  1  0
 22 67  1  0
 22 68  1  0
 24 69  1  0
 24 70  1  0
 25 71  1  0
 25 72  1  0
 26 73  1  0
 26 74  1  0
 27 75  1  0
 27 76  1  0
 29 77  1  0
 30 78  1  0
 31 79  1  0
 33 80  1  0
 37 81  1  0
 38 82  1  0
 39 83  1  0
 39 84  1  0
 39 85  1  0
 40 86  1  0
 40 87  1  0
 40 88  1  0
 41 89  1  0
M  END
>  <Ligand ID>  (1) 
LIG0003490

>  <Ligand>  (1) 
CHEMBL514032

>  <SMILES>  (1) 
CC(=O)O.OCc1cc(ccc1O)[C@H](CNCCCCCCOCCCCc1cccc(c1)S(=O)(=O)NC(C)C)O

>  <CID>  (1) 
42625516.0

>  <ChEMBL ID>  (1) 
nan

>  <InChiKey>  (1) 
KGLPPDRMRKNOLZ-JCOPYZAKSA-N

>  <InChi>  (1) 
InChI=1S/C28H44N2O6S.C2H4O2/c1-22(2)30-37(34,35)26-12-9-11-23(18-26)10-5-8-17-36-16-7-4-3-6-15-29-20-28(33)24-13-14-27(32)25(19-24)21-31;1-2(3)4/h9,11-14,18-19,22,28-33H,3-8,10,15-17,20-21H2,1-2H3;1H3,(H,3,4)/t28-;/m0./s1

>  <IUPAC Name>  (1) 
acetic acid;3-[4-[6-[[(2R)-2-hydroxy-2-[4-hydroxy-3-(hydroxymethyl)phenyl]ethyl]amino]hexoxy]butyl]-N-propan-2-ylbenzenesulfonamide

$$$$
