
     RDKit          3D

 74 77  0  0  0  0  0  0  0  0999 V2000
   -6.6782   -0.7722    1.5195 C   0  0  0  0  0  0  0  0  0  0  0  0
   -7.0213   -2.0950    0.9277 C   0  0  0  0  0  0  0  0  0  0  0  0
   -6.7241   -2.2092   -0.5267 C   0  0  0  0  0  0  0  0  0  0  0  0
   -7.3898   -1.2715   -1.3775 N   0  0  0  0  0  0  0  0  0  0  0  0
   -8.6495   -1.5016   -1.8589 C   0  0  0  0  0  0  0  0  0  0  0  0
   -9.3803   -2.5028   -1.6352 O   0  0  0  0  0  0  0  0  0  0  0  0
   -9.0362   -0.4822   -2.6381 N   0  0  0  0  0  0  0  0  0  0  0  0
   -8.0060    0.3822   -2.6369 C   0  0  0  0  0  0  0  0  0  0  0  0
   -6.9709   -0.0774   -1.8670 C   0  0  0  0  0  0  0  0  0  0  0  0
   -5.7701    0.6437   -1.7119 C   0  0  0  0  0  0  0  0  0  0  0  0
   -5.7213    1.8435   -2.3903 C   0  0  0  0  0  0  0  0  0  0  0  0
   -6.7536    2.3258   -3.1708 C   0  0  0  0  0  0  0  0  0  0  0  0
   -7.9049    1.5876   -3.2941 C   0  0  0  0  0  0  0  0  0  0  0  0
   -4.8303    0.1043   -0.9448 O   0  0  0  0  0  0  0  0  0  0  0  0
   -3.5889    0.2867   -0.4691 C   0  0  0  0  0  0  0  0  0  0  0  0
   -2.4375    0.3580   -1.4278 C   0  0  2  0  0  0  0  0  0  0  0  0
   -1.1024    0.2206   -0.7077 C   0  0  0  0  0  0  0  0  0  0  0  0
   -0.0920   -0.0287   -1.6984 N   0  0  0  0  0  0  0  0  0  0  0  0
    1.2121   -0.2850   -1.1699 C   0  0  0  0  0  0  0  0  0  0  0  0
    1.7717    0.8508   -0.3455 C   0  0  0  0  0  0  0  0  0  0  0  0
    3.1288    0.3681    0.1101 C   0  0  0  0  0  0  0  0  0  0  0  0
    3.2234   -0.3088    1.3344 C   0  0  0  0  0  0  0  0  0  0  0  0
    4.4421   -0.7836    1.7715 C   0  0  0  0  0  0  0  0  0  0  0  0
    5.5950   -0.5968    1.0053 C   0  0  0  0  0  0  0  0  0  0  0  0
    5.4868    0.0710   -0.1922 C   0  0  0  0  0  0  0  0  0  0  0  0
    4.2619    0.5579   -0.6519 C   0  0  0  0  0  0  0  0  0  0  0  0
    6.7610   -1.1058    1.5179 O   0  0  0  0  0  0  0  0  0  0  0  0
    7.6728   -0.4587    2.3042 C   0  0  0  0  0  0  0  0  0  0  0  0
    7.5402    0.8747    2.7046 C   0  0  0  0  0  0  0  0  0  0  0  0
    8.5230    1.4618    3.5117 C   0  0  0  0  0  0  0  0  0  0  0  0
    9.5873    0.6636    3.8674 C   0  0  0  0  0  0  0  0  0  0  0  0
    9.7206   -0.6529    3.4728 C   0  0  0  0  0  0  0  0  0  0  0  0
    8.7610   -1.1854    2.7008 N   0  0  0  0  0  0  0  0  0  0  0  0
   10.6512    1.2105    4.7095 C   0  0  0  0  0  0  0  0  0  0  0  0
   11.6631    0.5176    5.0573 O   0  0  0  0  0  0  0  0  0  0  0  0
   10.6386    2.5478    5.2007 N   0  0  0  0  0  0  0  0  0  0  0  0
    1.2703   -1.5937   -0.3948 C   0  0  0  0  0  0  0  0  0  0  0  0
    2.1282   -0.4993   -2.3798 C   0  0  0  0  0  0  0  0  0  0  0  0
   -2.4413    1.3869   -2.3295 O   0  0  0  0  0  0  0  0  0  0  0  0
   -5.6018   -0.7766    1.8506 H   0  0  0  0  0  0  0  0  0  0  0  0
   -7.2712   -0.6418    2.4639 H   0  0  0  0  0  0  0  0  0  0  0  0
   -6.9118    0.0756    0.8608 H   0  0  0  0  0  0  0  0  0  0  0  0
   -8.0489   -2.4395    1.1882 H   0  0  0  0  0  0  0  0  0  0  0  0
   -6.3553   -2.8520    1.4375 H   0  0  0  0  0  0  0  0  0  0  0  0
   -7.0173   -3.2395   -0.8391 H   0  0  0  0  0  0  0  0  0  0  0  0
   -5.6117   -2.0675   -0.6569 H   0  0  0  0  0  0  0  0  0  0  0  0
   -9.9421   -0.3758   -3.1423 H   0  0  0  0  0  0  0  0  0  0  0  0
   -4.8543    2.4611   -2.3131 H   0  0  0  0  0  0  0  0  0  0  0  0
   -6.6928    3.2843   -3.7001 H   0  0  0  0  0  0  0  0  0  0  0  0
   -8.6992    1.9848   -3.9103 H   0  0  0  0  0  0  0  0  0  0  0  0
   -3.5822    1.2296    0.1790 H   0  0  0  0  0  0  0  0  0  0  0  0
   -3.3654   -0.5128    0.3048 H   0  0  0  0  0  0  0  0  0  0  0  0
   -2.5559   -0.5824   -2.0766 H   0  0  0  0  0  0  0  0  0  0  0  0
   -1.1356   -0.5349    0.0833 H   0  0  0  0  0  0  0  0  0  0  0  0
   -0.8976    1.2069   -0.2296 H   0  0  0  0  0  0  0  0  0  0  0  0
   -0.3341   -0.7736   -2.3621 H   0  0  0  0  0  0  0  0  0  0  0  0
    1.9319    1.7649   -0.9105 H   0  0  0  0  0  0  0  0  0  0  0  0
    1.1535    1.0216    0.5632 H   0  0  0  0  0  0  0  0  0  0  0  0
    2.3689   -0.4773    1.9644 H   0  0  0  0  0  0  0  0  0  0  0  0
    4.4954   -1.3057    2.7180 H   0  0  0  0  0  0  0  0  0  0  0  0
    6.4030    0.1971   -0.7577 H   0  0  0  0  0  0  0  0  0  0  0  0
    4.1985    1.0790   -1.5884 H   0  0  0  0  0  0  0  0  0  0  0  0
    6.6659    1.4230    2.3735 H   0  0  0  0  0  0  0  0  0  0  0  0
    8.4339    2.4807    3.8271 H   0  0  0  0  0  0  0  0  0  0  0  0
   10.5460   -1.2862    3.7448 H   0  0  0  0  0  0  0  0  0  0  0  0
    9.9890    2.8814    5.9513 H   0  0  0  0  0  0  0  0  0  0  0  0
   11.3092    3.2776    4.8111 H   0  0  0  0  0  0  0  0  0  0  0  0
    0.7240   -1.4835    0.5540 H   0  0  0  0  0  0  0  0  0  0  0  0
    2.3141   -1.9437   -0.2585 H   0  0  0  0  0  0  0  0  0  0  0  0
    0.7519   -2.4058   -0.9460 H   0  0  0  0  0  0  0  0  0  0  0  0
    2.3277    0.4280   -2.9214 H   0  0  0  0  0  0  0  0  0  0  0  0
    3.0524   -1.0243   -2.0958 H   0  0  0  0  0  0  0  0  0  0  0  0
    1.6226   -1.1770   -3.1233 H   0  0  0  0  0  0  0  0  0  0  0  0
   -2.9513    1.2520   -3.1460 H   0  0  0  0  0  0  0  0  0  0  0  0
  1  2  1  0
  2  3  1  0
  3  4  1  0
  4  5  1  0
  5  6  2  0
  5  7  1  0
  7  8  1  0
  8  9  2  0
  9 10  1  0
 10 11  2  0
 11 12  1  0
 12 13  2  0
 10 14  1  0
 14 15  1  0
 15 16  1  0
 16 17  1  0
 17 18  1  0
 18 19  1  0
 19 20  1  0
 20 21  1  0
 21 22  2  0
 22 23  1  0
 23 24  2  0
 24 25  1  0
 25 26  2  0
 24 27  1  0
 27 28  1  0
 28 29  2  0
 29 30  1  0
 30 31  2  0
 31 32  1  0
 32 33  2  0
 31 34  1  0
 34 35  2  0
 34 36  1  0
 19 37  1  0
 19 38  1  0
 16 39  1  0
  9  4  1  0
 26 21  1  0
 33 28  1  0
 13  8  1  0
  1 40  1  0
  1 41  1  0
  1 42  1  0
  2 43  1  0
  2 44  1  0
  3 45  1  0
  3 46  1  0
  7 47  1  0
 11 48  1  0
 12 49  1  0
 13 50  1  0
 15 51  1  0
 15 52  1  0
 16 53  1  6
 17 54  1  0
 17 55  1  0
 18 56  1  0
 20 57  1  0
 20 58  1  0
 22 59  1  0
 23 60  1  0
 25 61  1  0
 26 62  1  0
 29 63  1  0
 30 64  1  0
 32 65  1  0
 36 66  1  0
 36 67  1  0
 37 68  1  0
 37 69  1  0
 37 70  1  0
 38 71  1  0
 38 72  1  0
 38 73  1  0
 39 74  1  0
M  END
>  <Ligand ID>  (1) 
LIG0004346

>  <Ligand>  (1) 
CHEMBL434763

>  <SMILES>  (1) 
CCCn1c(=O)[nH]c2c1c(ccc2)OC[C@H](CNC(Cc1ccc(cc1)Oc1ccc(cn1)C(=O)N)(C)C)O

>  <CID>  (1) 
44419324.0

>  <ChEMBL ID>  (1) 
nan

>  <InChiKey>  (1) 
BHDFOPDSNPFXBU-NRFANRHFSA-N

>  <InChi>  (1) 
InChI=1S/C29H35N5O5/c1-4-14-34-26-23(33-28(34)37)6-5-7-24(26)38-18-21(35)17-32-29(2,3)15-19-8-11-22(12-9-19)39-25-13-10-20(16-31-25)27(30)36/h5-13,16,21,32,35H,4,14-15,17-18H2,1-3H3,(H2,30,36)(H,33,37)/t21-/m0/s1

>  <IUPAC Name>  (1) 
6-[4-[2-[[(2S)-2-hydroxy-3-[(2-oxo-3-propyl-1H-benzimidazol-4-yl)oxy]propyl]amino]-2-methylpropyl]phenoxy]pyridine-3-carboxamide

$$$$
