
     RDKit          3D

100104  0  0  0  0  0  0  0  0999 V2000
   -0.1088    6.6900    0.7050 N   0  0  0  0  0  0  0  0  0  0  0  0
   -1.4734    6.2971    0.4830 C   0  0  0  0  0  0  0  0  0  0  0  0
   -1.6459    5.1695   -0.1135 N   0  0  0  0  0  0  0  0  0  0  0  0
   -2.9208    4.6068   -0.4260 C   0  0  0  0  0  0  0  0  0  0  0  0
   -2.8448    3.1438   -0.8000 C   0  0  0  0  0  0  0  0  0  0  0  0
   -2.2767    2.3898    0.3647 C   0  0  0  0  0  0  0  0  0  0  0  0
   -2.1682    0.9073    0.0804 C   0  0  1  0  0  0  0  0  0  0  0  0
   -3.4572    0.2955   -0.2493 C   0  0  0  0  0  0  0  0  0  0  0  0
   -3.6027   -0.0709   -1.4805 O   0  0  0  0  0  0  0  0  0  0  0  0
   -4.5339    0.0611    0.5985 N   0  0  0  0  0  0  0  0  0  0  0  0
   -5.7541   -0.5314    0.1289 C   0  0  2  0  0  0  0  0  0  0  0  0
   -6.9709    0.0996    0.6741 C   0  0  0  0  0  0  0  0  0  0  0  0
   -6.9689    1.0390    1.5114 O   0  0  0  0  0  0  0  0  0  0  0  0
   -8.2280   -0.4171    0.1943 N   0  0  0  0  0  0  0  0  0  0  0  0
   -5.7788   -2.0326    0.1520 C   0  0  0  0  0  0  0  0  0  0  0  0
   -5.5802   -2.6909    1.4319 C   0  0  0  0  0  0  0  0  0  0  0  0
   -6.6219   -3.2011    2.2181 C   0  0  0  0  0  0  0  0  0  0  0  0
   -6.1347   -3.7399    3.3415 N   0  0  0  0  0  0  0  0  0  0  0  0
   -4.7842   -3.6166    3.3529 C   0  0  0  0  0  0  0  0  0  0  0  0
   -4.4451   -2.9671    2.1703 C   0  0  0  0  0  0  0  0  0  0  0  0
   -3.1168   -2.6939    1.8640 C   0  0  0  0  0  0  0  0  0  0  0  0
   -2.1167   -3.0667    2.7376 C   0  0  0  0  0  0  0  0  0  0  0  0
   -2.4283   -3.7133    3.9201 C   0  0  0  0  0  0  0  0  0  0  0  0
   -3.7693   -3.9833    4.2174 C   0  0  0  0  0  0  0  0  0  0  0  0
   -1.2383    0.6812   -0.9836 N   0  0  0  0  0  0  0  0  0  0  0  0
    0.0866    0.3497   -0.6202 C   0  0  0  0  0  0  0  0  0  0  0  0
    0.3232    0.3314    0.6448 O   0  0  0  0  0  0  0  0  0  0  0  0
    1.2151    0.0202   -1.4841 C   0  0  2  0  0  0  0  0  0  0  0  0
    2.4568   -0.0794   -0.6909 N   0  0  0  0  0  0  0  0  0  0  0  0
    2.6087   -1.1631    0.2579 C   0  0  0  0  0  0  0  0  0  0  0  0
    1.6963   -2.0143    0.4115 O   0  0  0  0  0  0  0  0  0  0  0  0
    3.8871   -1.1813    1.0184 C   0  0  1  0  0  0  0  0  0  0  0  0
    4.3271   -2.4849    1.5378 C   0  0  0  0  0  0  0  0  0  0  0  0
    4.5823   -3.5786    0.6058 C   0  0  0  0  0  0  0  0  0  0  0  0
    3.6687   -4.6285    0.4038 C   0  0  0  0  0  0  0  0  0  0  0  0
    4.2006   -5.4917   -0.5136 N   0  0  0  0  0  0  0  0  0  0  0  0
    5.4075   -5.0404   -0.9043 C   0  0  0  0  0  0  0  0  0  0  0  0
    5.6504   -3.8611   -0.2191 C   0  0  0  0  0  0  0  0  0  0  0  0
    6.8334   -3.1734   -0.4209 C   0  0  0  0  0  0  0  0  0  0  0  0
    7.7580   -3.7075   -1.3296 C   0  0  0  0  0  0  0  0  0  0  0  0
    7.4901   -4.8950   -2.0045 C   0  0  0  0  0  0  0  0  0  0  0  0
    6.3047   -5.5848   -1.8032 C   0  0  0  0  0  0  0  0  0  0  0  0
    4.8908   -0.2984    0.4894 N   0  0  0  0  0  0  0  0  0  0  0  0
    5.2524    0.9486    1.0882 C   0  0  0  0  0  0  0  0  0  0  0  0
    4.6951    1.3541    2.1411 O   0  0  0  0  0  0  0  0  0  0  0  0
    6.3110    1.8164    0.4781 C   0  0  0  0  0  0  0  0  0  0  0  0
    1.3494    0.6013   -2.8114 C   0  0  0  0  0  0  0  0  0  0  0  0
    1.4431    2.0514   -2.9567 C   0  0  0  0  0  0  0  0  0  0  0  0
    2.7017    2.6635   -2.8489 C   0  0  0  0  0  0  0  0  0  0  0  0
    2.8577    4.0299   -3.0003 C   0  0  0  0  0  0  0  0  0  0  0  0
    1.7905    4.8555   -3.2633 C   0  0  0  0  0  0  0  0  0  0  0  0
    0.5522    4.2731   -3.3719 C   0  0  0  0  0  0  0  0  0  0  0  0
    0.3951    2.9031   -3.2198 C   0  0  0  0  0  0  0  0  0  0  0  0
   -2.5729    7.1210    0.9086 N   0  0  0  0  0  0  0  0  0  0  0  0
    0.4009    6.9923   -0.1528 H   0  0  0  0  0  0  0  0  0  0  0  0
    0.2935    6.6592    1.6646 H   0  0  0  0  0  0  0  0  0  0  0  0
   -3.6768    4.6829    0.3861 H   0  0  0  0  0  0  0  0  0  0  0  0
   -3.3433    5.1581   -1.2957 H   0  0  0  0  0  0  0  0  0  0  0  0
   -2.2356    3.0733   -1.7102 H   0  0  0  0  0  0  0  0  0  0  0  0
   -3.8689    2.8073   -1.0741 H   0  0  0  0  0  0  0  0  0  0  0  0
   -2.7308    2.6406    1.3222 H   0  0  0  0  0  0  0  0  0  0  0  0
   -1.2071    2.7481    0.4495 H   0  0  0  0  0  0  0  0  0  0  0  0
   -1.8032    0.4261    1.0457 H   0  0  0  0  0  0  0  0  0  0  0  0
   -4.4496    0.3244    1.6019 H   0  0  0  0  0  0  0  0  0  0  0  0
   -5.7524   -0.2962   -0.9974 H   0  0  0  0  0  0  0  0  0  0  0  0
   -8.4842   -1.3568    0.5704 H   0  0  0  0  0  0  0  0  0  0  0  0
   -8.8195    0.0974   -0.4624 H   0  0  0  0  0  0  0  0  0  0  0  0
   -6.7319   -2.4189   -0.3337 H   0  0  0  0  0  0  0  0  0  0  0  0
   -4.9816   -2.3577   -0.5832 H   0  0  0  0  0  0  0  0  0  0  0  0
   -7.6566   -3.1525    1.9221 H   0  0  0  0  0  0  0  0  0  0  0  0
   -6.6279   -4.2065    4.1443 H   0  0  0  0  0  0  0  0  0  0  0  0
   -2.8192   -2.2033    0.9612 H   0  0  0  0  0  0  0  0  0  0  0  0
   -1.0702   -2.8782    2.5490 H   0  0  0  0  0  0  0  0  0  0  0  0
   -1.6291   -4.0025    4.5966 H   0  0  0  0  0  0  0  0  0  0  0  0
   -4.0443   -4.4955    5.1424 H   0  0  0  0  0  0  0  0  0  0  0  0
   -1.4491    0.7350   -2.0000 H   0  0  0  0  0  0  0  0  0  0  0  0
    1.0213   -1.1178   -1.6782 H   0  0  0  0  0  0  0  0  0  0  0  0
    3.2327    0.6232   -0.8076 H   0  0  0  0  0  0  0  0  0  0  0  0
    3.5648   -0.5985    1.9893 H   0  0  0  0  0  0  0  0  0  0  0  0
    5.2992   -2.3452    2.1152 H   0  0  0  0  0  0  0  0  0  0  0  0
    3.6085   -2.8020    2.3428 H   0  0  0  0  0  0  0  0  0  0  0  0
    2.6905   -4.7320    0.9043 H   0  0  0  0  0  0  0  0  0  0  0  0
    3.6718   -6.3472   -0.7982 H   0  0  0  0  0  0  0  0  0  0  0  0
    7.0350   -2.2435    0.1152 H   0  0  0  0  0  0  0  0  0  0  0  0
    8.6828   -3.1520   -1.4741 H   0  0  0  0  0  0  0  0  0  0  0  0
    8.2644   -5.2313   -2.6835 H   0  0  0  0  0  0  0  0  0  0  0  0
    6.1261   -6.5101   -2.3438 H   0  0  0  0  0  0  0  0  0  0  0  0
    5.3818   -0.5916   -0.3876 H   0  0  0  0  0  0  0  0  0  0  0  0
    7.1544    2.0195    1.1532 H   0  0  0  0  0  0  0  0  0  0  0  0
    6.7279    1.3389   -0.4404 H   0  0  0  0  0  0  0  0  0  0  0  0
    5.8306    2.7653    0.1135 H   0  0  0  0  0  0  0  0  0  0  0  0
    2.1926    0.0797   -3.3358 H   0  0  0  0  0  0  0  0  0  0  0  0
    0.4493    0.2755   -3.4256 H   0  0  0  0  0  0  0  0  0  0  0  0
    3.5980    2.0999   -2.6481 H   0  0  0  0  0  0  0  0  0  0  0  0
    3.8362    4.4969   -2.9132 H   0  0  0  0  0  0  0  0  0  0  0  0
    1.9476    5.9094   -3.3763 H   0  0  0  0  0  0  0  0  0  0  0  0
   -0.2815    4.9389   -3.5825 H   0  0  0  0  0  0  0  0  0  0  0  0
   -0.5797    2.4967   -3.3184 H   0  0  0  0  0  0  0  0  0  0  0  0
   -2.8659    7.1724    1.9229 H   0  0  0  0  0  0  0  0  0  0  0  0
   -3.0963    7.6860    0.1946 H   0  0  0  0  0  0  0  0  0  0  0  0
  1  2  1  0
  2  3  2  3
  3  4  1  0
  4  5  1  0
  5  6  1  0
  6  7  1  0
  7  8  1  0
  8  9  2  0
  8 10  1  0
 10 11  1  0
 11 12  1  0
 12 13  2  0
 12 14  1  0
 11 15  1  0
 15 16  1  0
 16 17  2  0
 17 18  1  0
 18 19  1  0
 19 20  2  0
 20 21  1  0
 21 22  2  0
 22 23  1  0
 23 24  2  0
  7 25  1  0
 25 26  1  0
 26 27  2  0
 26 28  1  0
 28 29  1  0
 29 30  1  0
 30 31  2  0
 30 32  1  0
 32 33  1  0
 33 34  1  0
 34 35  2  0
 35 36  1  0
 36 37  1  0
 37 38  2  0
 38 39  1  0
 39 40  2  0
 40 41  1  0
 41 42  2  0
 32 43  1  0
 43 44  1  0
 44 45  2  0
 44 46  1  0
 28 47  1  0
 47 48  1  0
 48 49  2  0
 49 50  1  0
 50 51  2  0
 51 52  1  0
 52 53  2  0
  2 54  1  0
 20 16  1  0
 38 34  1  0
 53 48  1  0
 24 19  1  0
 42 37  1  0
  1 55  1  0
  1 56  1  0
  4 57  1  0
  4 58  1  0
  5 59  1  0
  5 60  1  0
  6 61  1  0
  6 62  1  0
  7 63  1  1
 10 64  1  0
 11 65  1  6
 14 66  1  0
 14 67  1  0
 15 68  1  0
 15 69  1  0
 17 70  1  0
 18 71  1  0
 21 72  1  0
 22 73  1  0
 23 74  1  0
 24 75  1  0
 25 76  1  0
 28 77  1  6
 29 78  1  0
 32 79  1  1
 33 80  1  0
 33 81  1  0
 35 82  1  0
 36 83  1  0
 39 84  1  0
 40 85  1  0
 41 86  1  0
 42 87  1  0
 43 88  1  0
 46 89  1  0
 46 90  1  0
 46 91  1  0
 47 92  1  0
 47 93  1  0
 49 94  1  0
 50 95  1  0
 51 96  1  0
 52 97  1  0
 53 98  1  0
 54 99  1  0
 54100  1  0
M  END
>  <Ligand ID>  (1) 
LIG0001457

>  <Ligand>  (1) 
CHEMBL432027

>  <SMILES>  (1) 
NC(=NCCC[C@@H](C(=O)N[C@H](C(=O)N)Cc1c[nH]c2c1cccc2)NC(=O)[C@H](NC(=O)[C@@H](Cc1c[nH]c2c1cccc2)NC(=O)C)Cc1ccccc1)N

>  <CID>  (1) 
11147006.0

>  <ChEMBL ID>  (1) 
nan

>  <InChiKey>  (1) 
YSBBQLMGIDMSEJ-PSWJWLENSA-N

>  <InChi>  (1) 
InChI=1S/C39H46N10O5/c1-23(50)46-34(20-26-22-45-30-15-8-6-13-28(26)30)38(54)49-33(18-24-10-3-2-4-11-24)37(53)47-31(16-9-17-43-39(41)42)36(52)48-32(35(40)51)19-25-21-44-29-14-7-5-12-27(25)29/h2-8,10-15,21-22,31-34,44-45H,9,16-20H2,1H3,(H2,40,51)(H,46,50)(H,47,53)(H,48,52)(H,49,54)(H4,41,42,43)/t31-,32-,33+,34+/m0/s1

>  <IUPAC Name>  (1) 
(2S)-2-[[(2R)-2-[[(2R)-2-acetamido-3-(1H-indol-3-yl)propanoyl]amino]-3-phenylpropanoyl]amino]-N-[(2S)-1-amino-3-(1H-indol-3-yl)-1-oxopropan-2-yl]-5-(diaminomethylideneamino)pentanamide

$$$$
