
     RDKit          3D

100103  0  0  0  0  0  0  0  0999 V2000
   -4.7524    3.9313    3.3843 C   0  0  0  0  0  0  0  0  0  0  0  0
   -5.1715    4.0719    2.1408 C   0  0  0  0  0  0  0  0  0  0  0  0
   -5.0832    3.1377    1.0265 C   0  0  0  0  0  0  0  0  0  0  0  0
   -4.4721    1.8340    1.2522 C   0  0  0  0  0  0  0  0  0  0  0  0
   -3.9334    1.4130    2.2929 O   0  0  0  0  0  0  0  0  0  0  0  0
   -4.4956    0.9212    0.1392 N   0  0  0  0  0  0  0  0  0  0  0  0
   -3.8977   -0.4411    0.2814 C   0  0  2  0  0  0  0  0  0  0  0  0
   -2.9804   -0.6438   -0.8444 C   0  0  0  0  0  0  0  0  0  0  0  0
   -2.9079    0.3521   -1.6684 O   0  0  0  0  0  0  0  0  0  0  0  0
   -2.1846   -1.7456   -1.1446 N   0  0  0  0  0  0  0  0  0  0  0  0
   -1.3360   -1.8050   -2.2869 C   0  0  2  0  0  0  0  0  0  0  0  0
   -0.1881   -0.8098   -2.2146 C   0  0  0  0  0  0  0  0  0  0  0  0
    0.5735   -0.7263   -3.2237 O   0  0  0  0  0  0  0  0  0  0  0  0
    0.0318   -0.0092   -1.0703 N   0  0  0  0  0  0  0  0  0  0  0  0
    1.1533    0.9000   -1.0925 C   0  0  2  0  0  0  0  0  0  0  0  0
    2.3231    0.2833   -0.3564 C   0  0  0  0  0  0  0  0  0  0  0  0
    2.1564   -0.8597    0.1476 O   0  0  0  0  0  0  0  0  0  0  0  0
    3.5608    0.9783   -0.2463 N   0  0  0  0  0  0  0  0  0  0  0  0
    4.6351    0.2849    0.4829 C   0  0  2  0  0  0  0  0  0  0  0  0
    5.0348    1.1017    1.6543 C   0  0  0  0  0  0  0  0  0  0  0  0
    4.5168    2.2204    1.9311 O   0  0  0  0  0  0  0  0  0  0  0  0
    6.0639    0.6021    2.5256 N   0  0  0  0  0  0  0  0  0  0  0  0
    5.8154    0.0478   -0.4379 C   0  0  0  0  0  0  0  0  0  0  0  0
    6.9455   -0.6431    0.2076 C   0  0  0  0  0  0  0  0  0  0  0  0
    8.1649   -0.1100    0.6406 C   0  0  0  0  0  0  0  0  0  0  0  0
    8.8994   -1.1269    1.1717 N   0  0  0  0  0  0  0  0  0  0  0  0
    8.2108   -2.2767    1.0991 C   0  0  0  0  0  0  0  0  0  0  0  0
    6.9764   -2.0084    0.4974 C   0  0  0  0  0  0  0  0  0  0  0  0
    6.0809   -3.0390    0.3098 C   0  0  0  0  0  0  0  0  0  0  0  0
    6.3413   -4.3452    0.6906 C   0  0  0  0  0  0  0  0  0  0  0  0
    7.5720   -4.5705    1.2822 C   0  0  0  0  0  0  0  0  0  0  0  0
    8.4977   -3.5835    1.4921 C   0  0  0  0  0  0  0  0  0  0  0  0
    0.8764    2.2803   -0.6356 C   0  0  0  0  0  0  0  0  0  0  0  0
    0.3850    2.3717    0.7872 C   0  0  0  0  0  0  0  0  0  0  0  0
    0.1304    3.8284    1.1787 C   0  0  0  0  0  0  0  0  0  0  0  0
   -0.3260    3.9563    2.5356 N   0  0  0  0  0  0  0  0  0  0  0  0
    0.4358    4.5337    3.4012 C   0  0  0  0  0  0  0  0  0  0  0  0
   -0.0780    4.6301    4.7400 N   0  0  0  0  0  0  0  0  0  0  0  0
    1.7303    5.0577    3.0601 N   0  0  0  0  0  0  0  0  0  0  0  0
   -1.8877   -1.9791   -3.6232 C   0  0  0  0  0  0  0  0  0  0  0  0
   -2.8115   -1.0318   -4.2062 C   0  0  0  0  0  0  0  0  0  0  0  0
   -2.3327    0.0900   -4.8974 C   0  0  0  0  0  0  0  0  0  0  0  0
   -3.1707    1.0051   -5.4895 C   0  0  0  0  0  0  0  0  0  0  0  0
   -4.5328    0.8689   -5.4352 C   0  0  0  0  0  0  0  0  0  0  0  0
   -5.0369   -0.2225   -4.7633 C   0  0  0  0  0  0  0  0  0  0  0  0
   -4.2012   -1.1309   -4.1758 C   0  0  0  0  0  0  0  0  0  0  0  0
   -5.0925   -1.3485    0.1578 C   0  0  0  0  0  0  0  0  0  0  0  0
   -4.8786   -2.7804    0.2818 C   0  0  0  0  0  0  0  0  0  0  0  0
   -4.8646   -3.3180    1.5785 C   0  0  0  0  0  0  0  0  0  0  0  0
   -4.7058   -4.6610    1.8137 C   0  0  0  0  0  0  0  0  0  0  0  0
   -4.5524   -5.5425    0.7782 C   0  0  0  0  0  0  0  0  0  0  0  0
   -4.5609   -5.0503   -0.5152 C   0  0  0  0  0  0  0  0  0  0  0  0
   -4.7225   -3.6903   -0.7332 C   0  0  0  0  0  0  0  0  0  0  0  0
   -4.3508   -7.2491    1.1164 Cl  0  0  0  0  0  0  0  0  0  0  0  0
   -4.2545    3.0494    3.7724 H   0  0  0  0  0  0  0  0  0  0  0  0
   -4.8955    4.7313    4.1136 H   0  0  0  0  0  0  0  0  0  0  0  0
   -5.6626    5.0433    1.9196 H   0  0  0  0  0  0  0  0  0  0  0  0
   -4.4108    3.6549    0.2558 H   0  0  0  0  0  0  0  0  0  0  0  0
   -6.0511    3.0593    0.4513 H   0  0  0  0  0  0  0  0  0  0  0  0
   -4.9153    1.1686   -0.7738 H   0  0  0  0  0  0  0  0  0  0  0  0
   -3.4602   -0.4585    1.2786 H   0  0  0  0  0  0  0  0  0  0  0  0
   -2.2239   -2.5574   -0.4498 H   0  0  0  0  0  0  0  0  0  0  0  0
   -0.7236   -2.7708   -2.1036 H   0  0  0  0  0  0  0  0  0  0  0  0
   -0.5895   -0.0646   -0.2288 H   0  0  0  0  0  0  0  0  0  0  0  0
    1.5143    0.9396   -2.1532 H   0  0  0  0  0  0  0  0  0  0  0  0
    3.6969    1.9198   -0.6569 H   0  0  0  0  0  0  0  0  0  0  0  0
    4.2482   -0.6958    0.7997 H   0  0  0  0  0  0  0  0  0  0  0  0
    6.0337   -0.3864    2.8546 H   0  0  0  0  0  0  0  0  0  0  0  0
    6.8267    1.2825    2.8002 H   0  0  0  0  0  0  0  0  0  0  0  0
    5.5016   -0.5617   -1.3139 H   0  0  0  0  0  0  0  0  0  0  0  0
    6.1049    1.0409   -0.8512 H   0  0  0  0  0  0  0  0  0  0  0  0
    8.4703    0.9180    0.5699 H   0  0  0  0  0  0  0  0  0  0  0  0
    9.8641   -1.0772    1.5878 H   0  0  0  0  0  0  0  0  0  0  0  0
    5.1199   -2.8651   -0.1520 H   0  0  0  0  0  0  0  0  0  0  0  0
    5.6196   -5.1395    0.5327 H   0  0  0  0  0  0  0  0  0  0  0  0
    7.8519   -5.5760    1.6103 H   0  0  0  0  0  0  0  0  0  0  0  0
    9.4617   -3.7904    1.9596 H   0  0  0  0  0  0  0  0  0  0  0  0
    0.1748    2.7530   -1.3480 H   0  0  0  0  0  0  0  0  0  0  0  0
    1.8310    2.8432   -0.6658 H   0  0  0  0  0  0  0  0  0  0  0  0
   -0.5641    1.7771    0.8424 H   0  0  0  0  0  0  0  0  0  0  0  0
    1.0687    1.9372    1.5145 H   0  0  0  0  0  0  0  0  0  0  0  0
    1.0949    4.3558    1.0777 H   0  0  0  0  0  0  0  0  0  0  0  0
   -0.6463    4.2934    0.5304 H   0  0  0  0  0  0  0  0  0  0  0  0
    0.5326    4.5909    5.5774 H   0  0  0  0  0  0  0  0  0  0  0  0
   -1.1063    4.7446    4.9120 H   0  0  0  0  0  0  0  0  0  0  0  0
    1.8507    5.9907    2.5980 H   0  0  0  0  0  0  0  0  0  0  0  0
    2.5486    4.4575    3.2991 H   0  0  0  0  0  0  0  0  0  0  0  0
   -2.2527   -3.0516   -3.6992 H   0  0  0  0  0  0  0  0  0  0  0  0
   -1.0063   -2.0082   -4.3436 H   0  0  0  0  0  0  0  0  0  0  0  0
   -1.2569    0.2761   -4.9897 H   0  0  0  0  0  0  0  0  0  0  0  0
   -2.7434    1.8536   -6.0131 H   0  0  0  0  0  0  0  0  0  0  0  0
   -5.1281    1.6215   -5.9177 H   0  0  0  0  0  0  0  0  0  0  0  0
   -6.1184   -0.3089   -4.7313 H   0  0  0  0  0  0  0  0  0  0  0  0
   -4.6515   -1.9682   -3.6657 H   0  0  0  0  0  0  0  0  0  0  0  0
   -5.5905   -1.2036   -0.8590 H   0  0  0  0  0  0  0  0  0  0  0  0
   -5.9096   -1.0645    0.8641 H   0  0  0  0  0  0  0  0  0  0  0  0
   -4.9866   -2.6315    2.4322 H   0  0  0  0  0  0  0  0  0  0  0  0
   -4.7044   -5.0163    2.8576 H   0  0  0  0  0  0  0  0  0  0  0  0
   -4.4405   -5.7331   -1.3675 H   0  0  0  0  0  0  0  0  0  0  0  0
   -4.7259   -3.3260   -1.7464 H   0  0  0  0  0  0  0  0  0  0  0  0
  1  2  2  0
  2  3  1  0
  3  4  1  0
  4  5  2  0
  4  6  1  0
  6  7  1  0
  7  8  1  0
  8  9  2  0
  8 10  1  0
 10 11  1  0
 11 12  1  0
 12 13  2  0
 12 14  1  0
 14 15  1  0
 15 16  1  0
 16 17  2  0
 16 18  1  0
 18 19  1  0
 19 20  1  0
 20 21  2  0
 20 22  1  0
 19 23  1  0
 23 24  1  0
 24 25  2  0
 25 26  1  0
 26 27  1  0
 27 28  2  0
 28 29  1  0
 29 30  2  0
 30 31  1  0
 31 32  2  0
 15 33  1  0
 33 34  1  0
 34 35  1  0
 35 36  1  0
 36 37  2  3
 37 38  1  0
 37 39  1  0
 11 40  1  0
 40 41  1  0
 41 42  2  0
 42 43  1  0
 43 44  2  0
 44 45  1  0
 45 46  2  0
  7 47  1  0
 47 48  1  0
 48 49  2  0
 49 50  1  0
 50 51  2  0
 51 52  1  0
 52 53  2  0
 51 54  1  0
 28 24  1  0
 46 41  1  0
 53 48  1  0
 32 27  1  0
  1 55  1  0
  1 56  1  0
  2 57  1  0
  3 58  1  0
  3 59  1  0
  6 60  1  0
  7 61  1  1
 10 62  1  0
 11 63  1  1
 14 64  1  0
 15 65  1  6
 18 66  1  0
 19 67  1  1
 22 68  1  0
 22 69  1  0
 23 70  1  0
 23 71  1  0
 25 72  1  0
 26 73  1  0
 29 74  1  0
 30 75  1  0
 31 76  1  0
 32 77  1  0
 33 78  1  0
 33 79  1  0
 34 80  1  0
 34 81  1  0
 35 82  1  0
 35 83  1  0
 38 84  1  0
 38 85  1  0
 39 86  1  0
 39 87  1  0
 40 88  1  0
 40 89  1  0
 42 90  1  0
 43 91  1  0
 44 92  1  0
 45 93  1  0
 46 94  1  0
 47 95  1  0
 47 96  1  0
 49 97  1  0
 50 98  1  0
 52 99  1  0
 53100  1  0
M  END
>  <Ligand ID>  (1) 
LIG0002335

>  <Ligand>  (1) 
CHEMBL185868

>  <SMILES>  (1) 
C=CCC(=O)N[C@H](C(=O)N[C@H](C(=O)N[C@H](C(=O)N[C@H](C(=O)N)Cc1c[nH]c2c1cccc2)CCCN=C(N)N)Cc1ccccc1)Cc1ccc(cc1)Cl

>  <CID>  (1) 
44394585.0

>  <ChEMBL ID>  (1) 
nan

>  <InChiKey>  (1) 
MIXOOSFLMRUUSE-YRCZKMHPSA-N

>  <InChi>  (1) 
InChI=1S/C39H46ClN9O5/c1-2-9-34(50)46-32(21-25-15-17-27(40)18-16-25)37(53)49-33(20-24-10-4-3-5-11-24)38(54)47-30(14-8-19-44-39(42)43)36(52)48-31(35(41)51)22-26-23-45-29-13-7-6-12-28(26)29/h2-7,10-13,15-18,23,30-33,45H,1,8-9,14,19-22H2,(H2,41,51)(H,46,50)(H,47,54)(H,48,52)(H,49,53)(H4,42,43,44)/t30-,31-,32-,33-/m0/s1

>  <IUPAC Name>  (1) 
(2S)-N-[(2S)-1-amino-3-(1H-indol-3-yl)-1-oxopropan-2-yl]-2-[[(2S)-2-[[(2S)-2-(but-3-enoylamino)-3-(4-chlorophenyl)propanoyl]amino]-3-phenylpropanoyl]amino]-5-(diaminomethylideneamino)pentanamide

$$$$
