
     RDKit          3D

 27 27  0  0  0  0  0  0  0  0999 V2000
    3.1341    0.8424   -0.0406 C   0  0  0  0  0  0  0  0  0  0  0  0
    2.0636    0.1178    0.7047 C   0  0  0  0  0  0  0  0  0  0  0  0
    2.4432   -0.5527    1.7876 C   0  0  0  0  0  0  0  0  0  0  0  0
    0.6913    0.1978    0.1953 C   0  0  0  0  0  0  0  0  0  0  0  0
    0.5560   -0.3572   -1.2136 C   0  0  0  0  0  0  0  0  0  0  0  0
   -0.8456   -0.0839   -1.6358 C   0  0  0  0  0  0  0  0  0  0  0  0
   -1.8098    0.1358   -0.7677 C   0  0  0  0  0  0  0  0  0  0  0  0
   -1.6513    0.1437    0.7003 C   0  0  0  0  0  0  0  0  0  0  0  0
   -0.3246   -0.5625    1.0118 C   0  0  0  0  0  0  0  0  0  0  0  0
   -2.7103   -0.4571    1.3555 O   0  0  0  0  0  0  0  0  0  0  0  0
   -3.1892    0.4012   -1.3130 C   0  0  0  0  0  0  0  0  0  0  0  0
    2.7760    1.2165   -1.0218 H   0  0  0  0  0  0  0  0  0  0  0  0
    3.5334    1.6969    0.5765 H   0  0  0  0  0  0  0  0  0  0  0  0
    3.9923    0.1491   -0.1524 H   0  0  0  0  0  0  0  0  0  0  0  0
    3.5107   -0.5035    2.0226 H   0  0  0  0  0  0  0  0  0  0  0  0
    1.8005   -1.1188    2.4248 H   0  0  0  0  0  0  0  0  0  0  0  0
    0.4354    1.2915    0.1296 H   0  0  0  0  0  0  0  0  0  0  0  0
    0.6277   -1.4766   -1.0841 H   0  0  0  0  0  0  0  0  0  0  0  0
    1.3147    0.0114   -1.8986 H   0  0  0  0  0  0  0  0  0  0  0  0
   -1.0726   -0.0672   -2.7118 H   0  0  0  0  0  0  0  0  0  0  0  0
   -1.5273    1.1840    1.0948 H   0  0  0  0  0  0  0  0  0  0  0  0
   -0.1284   -0.5658    2.0990 H   0  0  0  0  0  0  0  0  0  0  0  0
   -0.4263   -1.6099    0.6320 H   0  0  0  0  0  0  0  0  0  0  0  0
   -2.6405   -1.4336    1.4522 H   0  0  0  0  0  0  0  0  0  0  0  0
   -3.5958   -0.5860   -1.5991 H   0  0  0  0  0  0  0  0  0  0  0  0
   -3.1297    1.0975   -2.1978 H   0  0  0  0  0  0  0  0  0  0  0  0
   -3.8273    0.8894   -0.5505 H   0  0  0  0  0  0  0  0  0  0  0  0
  1  2  1  0
  2  3  2  0
  2  4  1  0
  4  5  1  0
  5  6  1  0
  6  7  2  0
  7  8  1  0
  8  9  1  0
  8 10  1  0
  7 11  1  0
  9  4  1  0
  1 12  1  0
  1 13  1  0
  1 14  1  0
  3 15  1  0
  3 16  1  0
  4 17  1  0
  5 18  1  0
  5 19  1  0
  6 20  1  0
  8 21  1  0
  9 22  1  0
  9 23  1  0
 10 24  1  0
 11 25  1  0
 11 26  1  0
 11 27  1  0
M  END
>  <Ligand ID>  (1) 
LIG0000293

>  <Ligand>  (1) 
Carveol

>  <SMILES>  (1) 
CC(=C)C1CC=C(C(C1)O)C

>  <CID>  (1) 
7438.0

>  <ChEMBL ID>  (1) 
nan

>  <InChiKey>  (1) 
BAVONGHXFVOKBV-UHFFFAOYSA-N

>  <InChi>  (1) 
InChI=1S/C10H16O/c1-7(2)9-5-4-8(3)10(11)6-9/h4,9-11H,1,5-6H2,2-3H3

>  <IUPAC Name>  (1) 
2-methyl-5-prop-1-en-2-ylcyclohex-2-en-1-ol

$$$$
