
     RDKit          3D

119122  0  0  0  0  0  0  0  0999 V2000
    9.1448   -2.3658    1.7698 C   0  0  0  0  0  0  0  0  0  0  0  0
    7.6261   -2.5648    1.6785 C   0  0  0  0  0  0  0  0  0  0  0  0
    7.1684   -1.5006    0.6403 C   0  0  0  0  0  0  0  0  0  0  0  0
    5.9070   -2.0298    0.0823 C   0  0  0  0  0  0  0  0  0  0  0  0
    4.6763   -1.8577    0.9781 C   0  0  2  0  0  0  0  0  0  0  0  0
    3.8930   -3.0298    0.8619 N   0  0  0  0  0  0  0  0  0  0  0  0
    3.1357   -3.4392    2.0167 C   0  0  0  0  0  0  0  0  0  0  0  0
    3.4195   -2.7943    3.1092 O   0  0  0  0  0  0  0  0  0  0  0  0
    2.1182   -4.5353    1.9881 C   0  0  0  0  0  0  0  0  0  0  0  0
    0.7881   -4.0481    2.4637 C   0  0  0  0  0  0  0  0  0  0  0  0
   -0.2945   -4.4165    1.4081 C   0  0  2  0  0  0  0  0  0  0  0  0
   -1.4257   -3.5436    1.6743 N   0  0  0  0  0  0  0  0  0  0  0  0
   -1.6470   -2.3345    0.9072 C   0  0  0  0  0  0  0  0  0  0  0  0
   -0.5828   -1.8860    0.3403 O   0  0  0  0  0  0  0  0  0  0  0  0
   -2.9766   -1.7499    0.8191 C   0  0  1  0  0  0  0  0  0  0  0  0
   -2.8835   -0.5040   -0.0575 N   0  0  0  0  0  0  0  0  0  0  0  0
   -3.6351    0.5839    0.2688 C   0  0  0  0  0  0  0  0  0  0  0  0
   -4.8223    0.3124    0.8119 O   0  0  0  0  0  0  0  0  0  0  0  0
   -3.4319    2.0504    0.1924 C   0  0  1  0  0  0  0  0  0  0  0  0
   -2.3916    2.4049   -0.7734 N   0  0  0  0  0  0  0  0  0  0  0  0
   -0.9690    2.3255   -0.4777 C   0  0  0  0  0  0  0  0  0  0  0  0
   -0.6210    2.1455    0.6569 O   0  0  0  0  0  0  0  0  0  0  0  0
    0.0366    2.3524   -1.6853 C   0  0  2  0  0  0  0  0  0  0  0  0
    1.2743    1.8272   -1.3388 N   0  0  0  0  0  0  0  0  0  0  0  0
    1.8510    1.4219   -0.0948 C   0  0  0  0  0  0  0  0  0  0  0  0
    1.1245    0.7374    0.6497 O   0  0  0  0  0  0  0  0  0  0  0  0
    3.2592    1.7342    0.2481 C   0  0  1  0  0  0  0  0  0  0  0  0
    4.0376    0.6255    0.7753 N   0  0  0  0  0  0  0  0  0  0  0  0
    3.9562   -0.6700    0.1918 C   0  0  0  0  0  0  0  0  0  0  0  0
    3.3586   -0.7919   -0.8360 O   0  0  0  0  0  0  0  0  0  0  0  0
    4.1602    2.2976   -0.7912 C   0  0  0  0  0  0  0  0  0  0  0  0
    3.5412    3.4344   -1.5388 C   0  0  0  0  0  0  0  0  0  0  0  0
    5.2339    3.0744    0.0341 C   0  0  0  0  0  0  0  0  0  0  0  0
    0.0038    3.8695   -1.8414 C   0  0  0  0  0  0  0  0  0  0  0  0
    0.7422    4.6368   -2.7947 C   0  0  0  0  0  0  0  0  0  0  0  0
    0.3426    4.5733   -4.1418 C   0  0  0  0  0  0  0  0  0  0  0  0
    0.9153    5.4344   -5.0586 C   0  0  0  0  0  0  0  0  0  0  0  0
    1.8564    6.3414   -4.6690 C   0  0  0  0  0  0  0  0  0  0  0  0
    2.3152    6.3738   -3.3791 C   0  0  0  0  0  0  0  0  0  0  0  0
    1.7491    5.5366   -2.4781 C   0  0  0  0  0  0  0  0  0  0  0  0
   -4.7106    2.7643   -0.0997 C   0  0  0  0  0  0  0  0  0  0  0  0
   -4.8725    3.9874    0.7690 C   0  0  0  0  0  0  0  0  0  0  0  0
   -6.1186    3.6906    1.6379 C   0  0  0  0  0  0  0  0  0  0  0  0
   -5.7151    3.3280    2.9730 N   0  0  0  0  0  0  0  0  0  0  0  0
   -5.5141    4.5346    3.6790 C   0  0  0  0  0  0  0  0  0  0  0  0
   -5.6177    5.8056    3.0384 N   0  0  0  0  0  0  0  0  0  0  0  0
   -5.1969    4.3871    5.0525 N   0  0  0  0  0  0  0  0  0  0  0  0
   -4.1808   -2.4502    0.4276 C   0  0  0  0  0  0  0  0  0  0  0  0
   -4.3477   -2.9481   -0.9202 C   0  0  0  0  0  0  0  0  0  0  0  0
   -4.5631   -2.1150   -2.0083 C   0  0  0  0  0  0  0  0  0  0  0  0
   -4.5842   -2.9146   -3.1770 N   0  0  0  0  0  0  0  0  0  0  0  0
   -4.4634   -4.2071   -2.7876 C   0  0  0  0  0  0  0  0  0  0  0  0
   -4.3140   -4.2011   -1.4662 C   0  0  0  0  0  0  0  0  0  0  0  0
   -4.4148   -5.4004   -0.7795 C   0  0  0  0  0  0  0  0  0  0  0  0
   -4.6209   -6.5398   -1.5794 C   0  0  0  0  0  0  0  0  0  0  0  0
   -4.7438   -6.5658   -2.9028 C   0  0  0  0  0  0  0  0  0  0  0  0
   -4.6718   -5.3586   -3.5975 C   0  0  0  0  0  0  0  0  0  0  0  0
   -0.5925   -5.8546    1.3965 C   0  0  0  0  0  0  0  0  0  0  0  0
    0.1776   -6.6074    0.6792 O   0  0  0  0  0  0  0  0  0  0  0  0
   -1.5972   -6.5752    2.0631 N   0  0  0  0  0  0  0  0  0  0  0  0
    9.5708   -3.2914    2.1407 H   0  0  0  0  0  0  0  0  0  0  0  0
    9.4405   -1.4264    2.1744 H   0  0  0  0  0  0  0  0  0  0  0  0
    9.4003   -2.3504    0.6242 H   0  0  0  0  0  0  0  0  0  0  0  0
    7.3835   -3.5444    1.2818 H   0  0  0  0  0  0  0  0  0  0  0  0
    7.1993   -2.3639    2.6663 H   0  0  0  0  0  0  0  0  0  0  0  0
    7.8991   -1.1449    0.0057 H   0  0  0  0  0  0  0  0  0  0  0  0
    6.8595   -0.6280    1.3718 H   0  0  0  0  0  0  0  0  0  0  0  0
    5.7131   -1.6341   -0.9604 H   0  0  0  0  0  0  0  0  0  0  0  0
    5.9887   -3.1322   -0.0761 H   0  0  0  0  0  0  0  0  0  0  0  0
    4.8739   -1.4315    1.9238 H   0  0  0  0  0  0  0  0  0  0  0  0
    3.8683   -3.7260    0.1095 H   0  0  0  0  0  0  0  0  0  0  0  0
    2.3834   -5.4152    2.6209 H   0  0  0  0  0  0  0  0  0  0  0  0
    2.0487   -4.9827    0.9427 H   0  0  0  0  0  0  0  0  0  0  0  0
    0.4402   -4.6433    3.3531 H   0  0  0  0  0  0  0  0  0  0  0  0
    0.7387   -3.0201    2.6581 H   0  0  0  0  0  0  0  0  0  0  0  0
    0.2048   -4.1577    0.4718 H   0  0  0  0  0  0  0  0  0  0  0  0
   -2.0281   -3.6487    2.4947 H   0  0  0  0  0  0  0  0  0  0  0  0
   -3.2104   -1.3822    1.8712 H   0  0  0  0  0  0  0  0  0  0  0  0
   -2.3908   -0.5858   -0.9430 H   0  0  0  0  0  0  0  0  0  0  0  0
   -3.0343    2.3047    1.1895 H   0  0  0  0  0  0  0  0  0  0  0  0
   -2.6851    2.8402   -1.6831 H   0  0  0  0  0  0  0  0  0  0  0  0
   -0.5817    1.9338   -2.4995 H   0  0  0  0  0  0  0  0  0  0  0  0
    1.8396    1.4172   -2.1618 H   0  0  0  0  0  0  0  0  0  0  0  0
    3.1341    2.4504    1.1044 H   0  0  0  0  0  0  0  0  0  0  0  0
    4.7119    0.8128    1.4968 H   0  0  0  0  0  0  0  0  0  0  0  0
    4.6451    1.6089   -1.4270 H   0  0  0  0  0  0  0  0  0  0  0  0
    3.0927    3.0712   -2.5054 H   0  0  0  0  0  0  0  0  0  0  0  0
    4.1583    4.2853   -1.7338 H   0  0  0  0  0  0  0  0  0  0  0  0
    2.6968    3.7210   -0.8246 H   0  0  0  0  0  0  0  0  0  0  0  0
    5.2094    2.8290    1.1003 H   0  0  0  0  0  0  0  0  0  0  0  0
    4.9908    4.1919    0.0330 H   0  0  0  0  0  0  0  0  0  0  0  0
    6.1801    3.0177   -0.4883 H   0  0  0  0  0  0  0  0  0  0  0  0
    0.3790    4.1986   -0.7891 H   0  0  0  0  0  0  0  0  0  0  0  0
   -1.0557    4.2775   -1.7988 H   0  0  0  0  0  0  0  0  0  0  0  0
   -0.3992    3.8112   -4.3837 H   0  0  0  0  0  0  0  0  0  0  0  0
    0.5608    5.4080   -6.0561 H   0  0  0  0  0  0  0  0  0  0  0  0
    2.3152    6.9947   -5.3916 H   0  0  0  0  0  0  0  0  0  0  0  0
    3.1329    6.9972   -3.0609 H   0  0  0  0  0  0  0  0  0  0  0  0
    2.1069    5.6697   -1.4237 H   0  0  0  0  0  0  0  0  0  0  0  0
   -4.5689    3.2116   -1.1853 H   0  0  0  0  0  0  0  0  0  0  0  0
   -5.5512    2.1016   -0.1868 H   0  0  0  0  0  0  0  0  0  0  0  0
   -3.9656    3.9258    1.5063 H   0  0  0  0  0  0  0  0  0  0  0  0
   -4.8978    4.9327    0.3112 H   0  0  0  0  0  0  0  0  0  0  0  0
   -6.7691    4.4700    1.4933 H   0  0  0  0  0  0  0  0  0  0  0  0
   -6.6187    2.7103    1.2264 H   0  0  0  0  0  0  0  0  0  0  0  0
   -6.5980    6.1993    3.0292 H   0  0  0  0  0  0  0  0  0  0  0  0
   -4.8049    6.2730    2.5835 H   0  0  0  0  0  0  0  0  0  0  0  0
   -5.8501    3.7686    5.6146 H   0  0  0  0  0  0  0  0  0  0  0  0
   -4.3976    4.8606    5.4958 H   0  0  0  0  0  0  0  0  0  0  0  0
   -5.0418   -1.9882    0.8874 H   0  0  0  0  0  0  0  0  0  0  0  0
   -4.0698   -3.4507    1.1114 H   0  0  0  0  0  0  0  0  0  0  0  0
   -4.6569   -1.0545   -2.0181 H   0  0  0  0  0  0  0  0  0  0  0  0
   -4.6947   -2.5100   -4.1222 H   0  0  0  0  0  0  0  0  0  0  0  0
   -4.3104   -5.4594    0.3037 H   0  0  0  0  0  0  0  0  0  0  0  0
   -4.7912   -7.5039   -1.0492 H   0  0  0  0  0  0  0  0  0  0  0  0
   -4.8851   -7.5251   -3.4608 H   0  0  0  0  0  0  0  0  0  0  0  0
   -4.6803   -5.2726   -4.6564 H   0  0  0  0  0  0  0  0  0  0  0  0
   -2.4885   -6.9251    1.5997 H   0  0  0  0  0  0  0  0  0  0  0  0
   -1.4329   -6.8878    3.0801 H   0  0  0  0  0  0  0  0  0  0  0  0
  1  2  1  0
  2  3  1  0
  3  4  1  0
  4  5  1  0
  5  6  1  0
  6  7  1  0
  7  8  2  0
  7  9  1  0
  9 10  1  0
 10 11  1  0
 11 12  1  0
 12 13  1  0
 13 14  2  0
 13 15  1  0
 15 16  1  0
 16 17  1  0
 17 18  2  0
 17 19  1  0
 19 20  1  0
 20 21  1  0
 21 22  2  0
 21 23  1  0
 23 24  1  0
 24 25  1  0
 25 26  2  0
 25 27  1  0
 27 28  1  0
 28 29  1  0
 29 30  2  0
 27 31  1  0
 31 32  1  0
 31 33  1  0
 23 34  1  0
 34 35  1  0
 35 36  2  0
 36 37  1  0
 37 38  2  0
 38 39  1  0
 39 40  2  0
 19 41  1  0
 41 42  1  0
 42 43  1  0
 43 44  1  0
 44 45  2  3
 45 46  1  0
 45 47  1  0
 15 48  1  0
 48 49  1  0
 49 50  2  0
 50 51  1  0
 51 52  1  0
 52 53  2  0
 53 54  1  0
 54 55  2  0
 55 56  1  0
 56 57  2  0
 11 58  1  0
 58 59  2  0
 58 60  1  0
 29  5  1  0
 40 35  1  0
 53 49  1  0
 57 52  1  0
  1 61  1  0
  1 62  1  0
  1 63  1  0
  2 64  1  0
  2 65  1  0
  3 66  1  0
  3 67  1  0
  4 68  1  0
  4 69  1  0
  5 70  1  1
  6 71  1  0
  9 72  1  0
  9 73  1  0
 10 74  1  0
 10 75  1  0
 11 76  1  6
 12 77  1  0
 15 78  1  1
 16 79  1  0
 19 80  1  1
 20 81  1  0
 23 82  1  6
 24 83  1  0
 27 84  1  1
 28 85  1  0
 31 86  1  0
 32 87  1  0
 32 88  1  0
 32 89  1  0
 33 90  1  0
 33 91  1  0
 33 92  1  0
 34 93  1  0
 34 94  1  0
 36 95  1  0
 37 96  1  0
 38 97  1  0
 39 98  1  0
 40 99  1  0
 41100  1  0
 41101  1  0
 42102  1  0
 42103  1  0
 43104  1  0
 43105  1  0
 46106  1  0
 46107  1  0
 47108  1  0
 47109  1  0
 48110  1  0
 48111  1  0
 50112  1  0
 51113  1  0
 54114  1  0
 55115  1  0
 56116  1  0
 57117  1  0
 60118  1  0
 60119  1  0
M  END
>  <Ligand ID>  (1) 
LIG0001838

>  <Ligand>  (1) 
CHEMBL427205

>  <SMILES>  (1) 
CCCC[C@@H]1NC(=O)CC[C@H](NC(=O)[C@@H](NC(=O)[C@@H](NC(=O)[C@H](NC(=O)[C@@H](NC1=O)C(C)C)Cc1ccccc1)CCCN=C(N)N)Cc1c[nH]c2c1cccc2)C(=O)N

>  <CID>  (1) 
11593084.0

>  <ChEMBL ID>  (1) 
nan

>  <InChiKey>  (1) 
STHTUYXXUBUJIE-NMIKHESWSA-N

>  <InChi>  (1) 
InChI=1S/C42H59N11O7/c1-4-5-15-30-38(57)53-35(24(2)3)41(60)52-32(21-25-12-7-6-8-13-25)39(58)50-31(17-11-20-46-42(44)45)37(56)51-33(22-26-23-47-28-16-10-9-14-27(26)28)40(59)49-29(36(43)55)18-19-34(54)48-30/h6-10,12-14,16,23-24,29-33,35,47H,4-5,11,15,17-22H2,1-3H3,(H2,43,55)(H,48,54)(H,49,59)(H,50,58)(H,51,56)(H,52,60)(H,53,57)(H4,44,45,46)/t29-,30-,31-,32+,33-,35-/m0/s1

>  <IUPAC Name>  (1) 
(2S,5S,8R,11S,14S,17S)-8-benzyl-2-butyl-11-[3-(diaminomethylideneamino)propyl]-14-(1H-indol-3-ylmethyl)-3,6,9,12,15,20-hexaoxo-5-propan-2-yl-1,4,7,10,13,16-hexazacycloicosane-17-carboxamide

$$$$
