
     RDKit          3D

 72 76  0  0  0  0  0  0  0  0999 V2000
   -2.3030   -2.8159    0.4365 C   0  0  0  0  0  0  0  0  0  0  0  0
   -2.0923   -1.5502    1.2875 C   0  0  2  0  0  0  0  0  0  0  0  0
   -3.4041   -1.3722    2.0084 C   0  0  0  0  0  0  0  0  0  0  0  0
   -4.5526   -1.2430    1.1223 C   0  0  0  0  0  0  0  0  0  0  0  0
   -5.4032   -2.3242    0.8298 C   0  0  0  0  0  0  0  0  0  0  0  0
   -6.3577   -1.9226   -0.0263 N   0  0  0  0  0  0  0  0  0  0  0  0
   -6.1923   -0.6278   -0.3231 C   0  0  0  0  0  0  0  0  0  0  0  0
   -5.0765   -0.2106    0.3880 C   0  0  0  0  0  0  0  0  0  0  0  0
   -4.7107    1.1022    0.2475 C   0  0  0  0  0  0  0  0  0  0  0  0
   -5.4122    1.9581   -0.5567 C   0  0  0  0  0  0  0  0  0  0  0  0
   -6.5197    1.5561   -1.2676 C   0  0  0  0  0  0  0  0  0  0  0  0
   -6.9051    0.2266   -1.1355 C   0  0  0  0  0  0  0  0  0  0  0  0
   -8.0244   -0.2360   -1.8360 O   0  0  0  0  0  0  0  0  0  0  0  0
   -9.5266   -0.1001   -1.0123 S   0  0  0  0  0  0  0  0  0  0  0  0
   -9.4649    1.0291   -0.0147 O   0  0  0  0  0  0  0  0  0  0  0  0
   -9.8537   -1.3611   -0.2548 O   0  0  0  0  0  0  0  0  0  0  0  0
  -10.7749    0.1699   -2.2360 C   0  0  0  0  0  0  0  0  0  0  0  0
   -1.6578   -0.5153    0.4482 N   0  0  0  0  0  0  0  0  0  0  0  0
   -1.1321    0.6492    1.0851 C   0  0  0  0  0  0  0  0  0  0  0  0
    0.1765    0.4521    1.7801 C   0  0  1  0  0  0  0  0  0  0  0  0
    1.2981    0.0199    0.9556 C   0  0  0  0  0  0  0  0  0  0  0  0
    1.7209   -1.2914    1.0367 C   0  0  0  0  0  0  0  0  0  0  0  0
    2.7881   -1.6925    0.2636 C   0  0  0  0  0  0  0  0  0  0  0  0
    3.4024   -0.7782   -0.5666 C   0  0  0  0  0  0  0  0  0  0  0  0
    3.0198    0.5355   -0.6818 C   0  0  0  0  0  0  0  0  0  0  0  0
    1.9306    0.9085    0.1187 C   0  0  0  0  0  0  0  0  0  0  0  0
    3.6332    1.5053   -1.4882 N   0  0  0  0  0  0  0  0  0  0  0  0
    4.7994    1.3947   -2.2952 C   0  0  0  0  0  0  0  0  0  0  0  0
    6.0709    1.2991   -1.5639 C   0  0  0  0  0  0  0  0  0  0  0  0
    6.6287    2.5090   -1.1254 C   0  0  0  0  0  0  0  0  0  0  0  0
    7.8198    2.5623   -0.4477 C   0  0  0  0  0  0  0  0  0  0  0  0
    8.5180    1.4097   -0.1716 C   0  0  0  0  0  0  0  0  0  0  0  0
    7.9928    0.2171   -0.5905 C   0  0  0  0  0  0  0  0  0  0  0  0
    6.7791    0.1714   -1.2806 C   0  0  0  0  0  0  0  0  0  0  0  0
    8.6746   -0.9381   -0.3218 C   0  0  0  0  0  0  0  0  0  0  0  0
    9.8828   -0.9296    0.3635 C   0  0  0  0  0  0  0  0  0  0  0  0
   10.4149    0.2777    0.7879 C   0  0  0  0  0  0  0  0  0  0  0  0
    9.7126    1.4443    0.5088 C   0  0  0  0  0  0  0  0  0  0  0  0
    0.5165    1.7027    2.3362 O   0  0  0  0  0  0  0  0  0  0  0  0
   -2.5510   -3.6956    1.0568 H   0  0  0  0  0  0  0  0  0  0  0  0
   -3.1634   -2.6953   -0.2596 H   0  0  0  0  0  0  0  0  0  0  0  0
   -1.4045   -3.0672   -0.1387 H   0  0  0  0  0  0  0  0  0  0  0  0
   -1.3426   -1.8596    2.0602 H   0  0  0  0  0  0  0  0  0  0  0  0
   -3.3590   -0.5428    2.7546 H   0  0  0  0  0  0  0  0  0  0  0  0
   -3.5169   -2.2943    2.6420 H   0  0  0  0  0  0  0  0  0  0  0  0
   -5.3089   -3.3407    1.2330 H   0  0  0  0  0  0  0  0  0  0  0  0
   -7.1040   -2.5409   -0.3914 H   0  0  0  0  0  0  0  0  0  0  0  0
   -3.8556    1.4413    0.7986 H   0  0  0  0  0  0  0  0  0  0  0  0
   -5.1113    2.9845   -0.6556 H   0  0  0  0  0  0  0  0  0  0  0  0
   -7.0634    2.2489   -1.8999 H   0  0  0  0  0  0  0  0  0  0  0  0
  -10.8853    1.2639   -2.3932 H   0  0  0  0  0  0  0  0  0  0  0  0
  -11.7183   -0.2838   -1.8509 H   0  0  0  0  0  0  0  0  0  0  0  0
  -10.4549   -0.3053   -3.1706 H   0  0  0  0  0  0  0  0  0  0  0  0
   -1.1915   -0.7905   -0.4265 H   0  0  0  0  0  0  0  0  0  0  0  0
   -1.8477    0.9808    1.8731 H   0  0  0  0  0  0  0  0  0  0  0  0
   -1.0598    1.4751    0.3619 H   0  0  0  0  0  0  0  0  0  0  0  0
    0.0800   -0.2224    2.6480 H   0  0  0  0  0  0  0  0  0  0  0  0
    1.2289   -1.9887    1.6898 H   0  0  0  0  0  0  0  0  0  0  0  0
    3.1389   -2.7227    0.3121 H   0  0  0  0  0  0  0  0  0  0  0  0
    4.2176   -1.1379   -1.1605 H   0  0  0  0  0  0  0  0  0  0  0  0
    1.5440    1.9227    0.1056 H   0  0  0  0  0  0  0  0  0  0  0  0
    3.1549    2.4679   -1.4988 H   0  0  0  0  0  0  0  0  0  0  0  0
    4.8964    2.2670   -2.9785 H   0  0  0  0  0  0  0  0  0  0  0  0
    4.6491    0.5157   -2.9782 H   0  0  0  0  0  0  0  0  0  0  0  0
    6.1243    3.4579   -1.3128 H   0  0  0  0  0  0  0  0  0  0  0  0
    8.2591    3.4947   -0.1043 H   0  0  0  0  0  0  0  0  0  0  0  0
    6.4443   -0.7871   -1.5852 H   0  0  0  0  0  0  0  0  0  0  0  0
    8.2890   -1.9079   -0.6396 H   0  0  0  0  0  0  0  0  0  0  0  0
   10.3808   -1.8825    0.5484 H   0  0  0  0  0  0  0  0  0  0  0  0
   11.3612    0.2850    1.3251 H   0  0  0  0  0  0  0  0  0  0  0  0
   10.1465    2.3691    0.8494 H   0  0  0  0  0  0  0  0  0  0  0  0
    0.6077    1.6993    3.3007 H   0  0  0  0  0  0  0  0  0  0  0  0
  1  2  1  0
  2  3  1  0
  3  4  1  0
  4  5  2  0
  5  6  1  0
  6  7  1  0
  7  8  2  0
  8  9  1  0
  9 10  2  0
 10 11  1  0
 11 12  2  0
 12 13  1  0
 13 14  1  0
 14 15  2  0
 14 16  2  0
 14 17  1  0
  2 18  1  0
 18 19  1  0
 19 20  1  0
 20 21  1  0
 21 22  2  0
 22 23  1  0
 23 24  2  0
 24 25  1  0
 25 26  2  0
 25 27  1  0
 27 28  1  0
 28 29  1  0
 29 30  2  0
 30 31  1  0
 31 32  2  0
 32 33  1  0
 33 34  2  0
 33 35  1  0
 35 36  2  0
 36 37  1  0
 37 38  2  0
 20 39  1  0
  8  4  1  0
 26 21  1  0
 34 29  1  0
 12  7  1  0
 38 32  1  0
  1 40  1  0
  1 41  1  0
  1 42  1  0
  2 43  1  1
  3 44  1  0
  3 45  1  0
  5 46  1  0
  6 47  1  0
  9 48  1  0
 10 49  1  0
 11 50  1  0
 17 51  1  0
 17 52  1  0
 17 53  1  0
 18 54  1  0
 19 55  1  0
 19 56  1  0
 20 57  1  1
 22 58  1  0
 23 59  1  0
 24 60  1  0
 26 61  1  0
 27 62  1  0
 28 63  1  0
 28 64  1  0
 30 65  1  0
 31 66  1  0
 34 67  1  0
 35 68  1  0
 36 69  1  0
 37 70  1  0
 38 71  1  0
 39 72  1  0
M  END
>  <Ligand ID>  (1) 
LIG0002220

>  <Ligand>  (1) 
CHEMBL183552

>  <SMILES>  (1) 
C[C@H](Cc1c[nH]c2c1cccc2OS(=O)(=O)C)NC[C@@H](c1cccc(c1)NCc1ccc2c(c1)cccc2)O

>  <CID>  (1) 
44392542.0

>  <ChEMBL ID>  (1) 
nan

>  <InChiKey>  (1) 
YQMMWNSOEMZESN-PBBNMVCDSA-N

>  <InChi>  (1) 
InChI=1S/C31H33N3O4S/c1-21(15-26-19-34-31-28(26)11-6-12-30(31)38-39(2,36)37)32-20-29(35)25-9-5-10-27(17-25)33-18-22-13-14-23-7-3-4-8-24(23)16-22/h3-14,16-17,19,21,29,32-35H,15,18,20H2,1-2H3/t21-,29+/m1/s1

>  <IUPAC Name>  (1) 
[3-[(2R)-2-[[(2R)-2-hydroxy-2-[3-(naphthalen-2-ylmethylamino)phenyl]ethyl]amino]propyl]-1H-indol-7-yl] methanesulfonate

$$$$
