
     RDKit          3D

 52 54  0  0  0  0  0  0  0  0999 V2000
    0.6176   -3.0800    1.2256 O   0  0  0  0  0  0  0  0  0  0  0  0
    0.1889   -1.9392    0.5424 C   0  0  2  0  0  0  0  0  0  0  0  0
   -1.3420   -1.8323    0.5967 C   0  0  2  0  0  0  0  0  0  0  0  0
   -1.7874   -3.1518    0.7737 O   0  0  0  0  0  0  0  0  0  0  0  0
   -1.6612   -1.4387   -0.8075 C   0  0  2  0  0  0  0  0  0  0  0  0
   -0.4428   -1.0226   -1.3886 O   0  0  0  0  0  0  0  0  0  0  0  0
    0.3792   -2.0551   -0.9549 C   0  0  1  0  0  0  0  0  0  0  0  0
    1.7502   -1.9509   -1.3769 N   0  0  0  0  0  0  0  0  0  0  0  0
    2.3620   -3.0775   -1.7844 C   0  0  0  0  0  0  0  0  0  0  0  0
    3.6803   -3.0548   -2.2053 C   0  0  0  0  0  0  0  0  0  0  0  0
    4.2960   -1.8037   -2.1703 C   0  0  0  0  0  0  0  0  0  0  0  0
    5.5032   -1.6855   -2.5376 O   0  0  0  0  0  0  0  0  0  0  0  0
    3.6481   -0.7039   -1.7561 N   0  0  0  0  0  0  0  0  0  0  0  0
    2.3818   -0.7503   -1.3565 C   0  0  0  0  0  0  0  0  0  0  0  0
    1.4396    0.6457   -0.7943 S   0  0  0  0  0  0  0  0  0  0  0  0
    2.3485    2.1853   -0.7957 C   0  0  0  0  0  0  0  0  0  0  0  0
    3.4574    2.2548    0.1674 C   0  0  0  0  0  0  0  0  0  0  0  0
    3.1480    2.7008    1.4566 C   0  0  0  0  0  0  0  0  0  0  0  0
    4.1466    2.8016    2.4304 C   0  0  0  0  0  0  0  0  0  0  0  0
    5.4638    2.4648    2.1488 C   0  0  0  0  0  0  0  0  0  0  0  0
    5.7589    2.0243    0.8688 C   0  0  0  0  0  0  0  0  0  0  0  0
    4.7557    1.9331   -0.0766 C   0  0  0  0  0  0  0  0  0  0  0  0
   -2.7193   -0.3733   -0.8453 C   0  0  0  0  0  0  0  0  0  0  0  0
   -3.8583   -0.9072   -0.2471 O   0  0  0  0  0  0  0  0  0  0  0  0
   -5.1472    0.1548   -0.2390 P   0  0  0  0  0  0  0  0  0  0  0  0
   -5.2369    0.9359   -1.5460 O   0  0  0  0  0  0  0  0  0  0  0  0
   -5.0430    1.2520    1.0701 O   0  0  0  0  0  0  0  0  0  0  0  0
   -6.1558    2.4897    0.9122 P   0  0  0  0  0  0  0  0  0  0  0  0
   -6.2187    3.2477    2.2123 O   0  0  0  0  0  0  0  0  0  0  0  0
   -7.7145    1.9245    0.5817 O   0  0  0  0  0  0  0  0  0  0  0  0
   -5.7036    3.5476   -0.3340 O   0  0  0  0  0  0  0  0  0  0  0  0
   -6.6102   -0.6713   -0.0403 O   0  0  0  0  0  0  0  0  0  0  0  0
    0.0022   -3.8312    0.9752 H   0  0  0  0  0  0  0  0  0  0  0  0
    0.6552   -1.0426    0.9589 H   0  0  0  0  0  0  0  0  0  0  0  0
   -1.7001   -1.1538    1.3696 H   0  0  0  0  0  0  0  0  0  0  0  0
   -2.7072   -3.2633    0.3930 H   0  0  0  0  0  0  0  0  0  0  0  0
   -2.0219   -2.2716   -1.4433 H   0  0  0  0  0  0  0  0  0  0  0  0
   -0.0738   -3.0127   -1.2584 H   0  0  0  0  0  0  0  0  0  0  0  0
    1.8529   -4.0445   -1.8005 H   0  0  0  0  0  0  0  0  0  0  0  0
    4.2144   -3.9322   -2.5412 H   0  0  0  0  0  0  0  0  0  0  0  0
    1.6141    3.0002   -0.5901 H   0  0  0  0  0  0  0  0  0  0  0  0
    2.8131    2.3520   -1.8102 H   0  0  0  0  0  0  0  0  0  0  0  0
    2.1335    2.9705    1.7077 H   0  0  0  0  0  0  0  0  0  0  0  0
    3.9043    3.1525    3.4446 H   0  0  0  0  0  0  0  0  0  0  0  0
    6.2418    2.5379    2.8889 H   0  0  0  0  0  0  0  0  0  0  0  0
    6.7851    1.7436    0.5883 H   0  0  0  0  0  0  0  0  0  0  0  0
    5.0315    1.5934   -1.0491 H   0  0  0  0  0  0  0  0  0  0  0  0
   -3.0038   -0.0905   -1.8748 H   0  0  0  0  0  0  0  0  0  0  0  0
   -2.4330    0.5254   -0.2304 H   0  0  0  0  0  0  0  0  0  0  0  0
   -7.7416    1.4435   -0.2640 H   0  0  0  0  0  0  0  0  0  0  0  0
   -4.7516    3.7623   -0.2459 H   0  0  0  0  0  0  0  0  0  0  0  0
   -6.5000   -1.5033    0.4742 H   0  0  0  0  0  0  0  0  0  0  0  0
  1  2  1  0
  2  3  1  0
  3  4  1  0
  3  5  1  0
  5  6  1  0
  6  7  1  0
  7  8  1  0
  8  9  1  0
  9 10  2  0
 10 11  1  0
 11 12  2  0
 11 13  1  0
 13 14  2  0
 14 15  1  0
 15 16  1  0
 16 17  1  0
 17 18  2  0
 18 19  1  0
 19 20  2  0
 20 21  1  0
 21 22  2  0
  5 23  1  0
 23 24  1  0
 24 25  1  0
 25 26  2  0
 25 27  1  0
 27 28  1  0
 28 29  2  0
 28 30  1  0
 28 31  1  0
 25 32  1  0
  7  2  1  0
 14  8  1  0
 22 17  1  0
  1 33  1  0
  2 34  1  1
  3 35  1  1
  4 36  1  0
  5 37  1  6
  7 38  1  6
  9 39  1  0
 10 40  1  0
 16 41  1  0
 16 42  1  0
 18 43  1  0
 19 44  1  0
 20 45  1  0
 21 46  1  0
 22 47  1  0
 23 48  1  0
 23 49  1  0
 30 50  1  0
 31 51  1  0
 32 52  1  0
M  END
>  <Ligand ID>  (1) 
LIG0002712

>  <Ligand>  (1) 
CHEMBL1767412

>  <SMILES>  (1) 
O[C@@H]1[C@H](O)[C@H](O[C@H]1n1ccc(=O)nc1SCc1ccccc1)COP(=O)(OP(=O)(O)O)O

>  <CID>  (1) 
52952282.0

>  <ChEMBL ID>  (1) 
nan

>  <InChiKey>  (1) 
PFEYFSWPCKPKPU-NMFUWQPSSA-N

>  <InChi>  (1) 
InChI=1S/C16H20N2O11P2S/c19-12-6-7-18(16(17-12)32-9-10-4-2-1-3-5-10)15-14(21)13(20)11(28-15)8-27-31(25,26)29-30(22,23)24/h1-7,11,13-15,20-21H,8-9H2,(H,25,26)(H2,22,23,24)/t11-,13-,14-,15-/m1/s1

>  <IUPAC Name>  (1) 
[(2R,3S,4R,5R)-5-(2-benzylsulfanyl-4-oxopyrimidin-1-yl)-3,4-dihydroxyoxolan-2-yl]methyl phosphono hydrogen phosphate

$$$$
