
     RDKit          3D

192199  0  0  0  0  0  0  0  0999 V2000
   -8.2350   -7.3186    2.6697 O   0  0  0  0  0  0  0  0  0  0  0  0
   -7.8389   -6.0227    3.0128 C   0  0  0  0  0  0  0  0  0  0  0  0
   -8.3042   -5.4312    4.1744 C   0  0  0  0  0  0  0  0  0  0  0  0
   -7.9297   -4.1428    4.5413 C   0  0  0  0  0  0  0  0  0  0  0  0
   -7.0584   -3.4148    3.7214 C   0  0  0  0  0  0  0  0  0  0  0  0
   -6.5863   -3.9810    2.5703 C   0  0  0  0  0  0  0  0  0  0  0  0
   -6.9776   -5.2779    2.2235 C   0  0  0  0  0  0  0  0  0  0  0  0
   -6.7350   -2.0298    4.1837 C   0  0  0  0  0  0  0  0  0  0  0  0
   -7.7419   -1.0515    3.5839 C   0  0  1  0  0  0  0  0  0  0  0  0
   -7.4614    0.3171    4.0386 C   0  0  0  0  0  0  0  0  0  0  0  0
   -7.2176    1.2320    3.2031 O   0  0  0  0  0  0  0  0  0  0  0  0
   -7.4453    0.6942    5.4441 C   0  0  0  0  0  0  0  0  0  0  0  0
   -7.7088   -0.1403    6.3755 O   0  0  0  0  0  0  0  0  0  0  0  0
   -7.1446    1.9793    5.8742 O   0  0  0  0  0  0  0  0  0  0  0  0
   -7.7072   -1.1478    2.1303 N   0  0  0  0  0  0  0  0  0  0  0  0
   -6.5174   -0.6485    1.6036 N   0  0  0  0  0  0  0  0  0  0  0  0
   -6.3083   -0.7960    0.1905 C   0  0  0  0  0  0  0  0  0  0  0  0
   -7.2127   -1.3853   -0.4458 O   0  0  0  0  0  0  0  0  0  0  0  0
   -5.0693   -0.2599   -0.4078 C   0  0  1  0  0  0  0  0  0  0  0  0
   -4.2911    0.5742    0.5027 N   0  0  0  0  0  0  0  0  0  0  0  0
   -4.1631    2.0060    0.2445 C   0  0  0  0  0  0  0  0  0  0  0  0
   -4.7937    2.3558   -0.7709 O   0  0  0  0  0  0  0  0  0  0  0  0
   -3.3696    2.8968    1.1113 C   0  0  0  0  0  0  0  0  0  0  0  0
   -3.2733    4.3128    0.6110 C   0  0  2  0  0  0  0  0  0  0  0  0
   -2.6336    4.3017   -0.7002 N   0  0  0  0  0  0  0  0  0  0  0  0
   -2.4265    5.5937   -1.1431 N   0  0  0  0  0  0  0  0  0  0  0  0
   -2.9303    5.7912   -2.4672 C   0  0  1  0  0  0  0  0  0  0  0  0
   -2.2064    4.9071   -3.4686 C   0  0  0  0  0  0  0  0  0  0  0  0
   -2.7362    5.2001   -4.8235 C   0  0  0  0  0  0  0  0  0  0  0  0
   -1.9411    5.0241   -5.9427 C   0  0  0  0  0  0  0  0  0  0  0  0
   -2.4052    5.2638   -7.2152 C   0  0  0  0  0  0  0  0  0  0  0  0
   -3.6940    5.6952   -7.4487 C   0  0  0  0  0  0  0  0  0  0  0  0
   -4.5069    5.8783   -6.3370 C   0  0  0  0  0  0  0  0  0  0  0  0
   -4.0280    5.6337   -5.0628 C   0  0  0  0  0  0  0  0  0  0  0  0
   -4.9024    5.8479   -3.9662 N   0  0  0  0  0  0  0  0  0  0  0  0
   -4.3736    5.5974   -2.6463 C   0  0  0  0  0  0  0  0  0  0  0  0
   -5.2035    5.2407   -1.7883 O   0  0  0  0  0  0  0  0  0  0  0  0
   -4.1661    5.9355   -8.7305 O   0  0  0  0  0  0  0  0  0  0  0  0
   -2.3140    4.9920    1.5730 C   0  0  0  0  0  0  0  0  0  0  0  0
   -2.7427    5.5222    2.5969 O   0  0  0  0  0  0  0  0  0  0  0  0
   -0.9213    5.0316    1.3466 N   0  0  0  0  0  0  0  0  0  0  0  0
    0.0738    5.7230    2.1137 C   0  0  1  0  0  0  0  0  0  0  0  0
   -0.0706    5.2523    3.6093 C   0  0  0  0  0  0  0  0  0  0  0  0
    0.9844    5.9846    4.3554 C   0  0  0  0  0  0  0  0  0  0  0  0
    0.8206    7.2483    4.9428 C   0  0  0  0  0  0  0  0  0  0  0  0
    1.9845    7.6118    5.5339 N   0  0  0  0  0  0  0  0  0  0  0  0
    2.8517    6.6054    5.3237 C   0  0  0  0  0  0  0  0  0  0  0  0
    2.2518    5.6174    4.6095 N   0  0  0  0  0  0  0  0  0  0  0  0
    1.4688    5.3840    1.7558 C   0  0  0  0  0  0  0  0  0  0  0  0
    2.4401    6.1105    2.0134 O   0  0  0  0  0  0  0  0  0  0  0  0
    1.7585    4.1767    1.0958 N   0  0  0  0  0  0  0  0  0  0  0  0
    3.1171    3.7242    0.7130 C   0  0  1  0  0  0  0  0  0  0  0  0
    3.5180    2.9889    2.0355 C   0  0  0  0  0  0  0  0  0  0  0  0
    4.8473    2.3564    1.9915 C   0  0  0  0  0  0  0  0  0  0  0  0
    6.0339    3.2132    1.7476 C   0  0  0  0  0  0  0  0  0  0  0  0
    7.1981    2.3230    1.7411 N   0  0  0  0  0  0  0  0  0  0  0  0
    8.3111    2.5858    2.3140 C   0  0  0  0  0  0  0  0  0  0  0  0
    8.4506    3.8252    3.0089 N   0  0  0  0  0  0  0  0  0  0  0  0
    9.3366    1.6165    2.2237 N   0  0  0  0  0  0  0  0  0  0  0  0
    3.0276    2.6761   -0.3077 C   0  0  0  0  0  0  0  0  0  0  0  0
    1.8747    2.2536   -0.5862 O   0  0  0  0  0  0  0  0  0  0  0  0
    4.0803    2.0728   -1.0353 N   0  0  0  0  0  0  0  0  0  0  0  0
    3.7000    0.9366   -1.9088 C   0  0  1  0  0  0  0  0  0  0  0  0
    4.1369    1.2150   -3.3248 C   0  0  0  0  0  0  0  0  0  0  0  0
    5.6238    1.3969   -3.4049 C   0  0  0  0  0  0  0  0  0  0  0  0
    6.2135    2.6440   -3.2158 C   0  0  0  0  0  0  0  0  0  0  0  0
    7.6080    2.7299   -3.3091 C   0  0  0  0  0  0  0  0  0  0  0  0
    8.4043    1.6497   -3.5737 C   0  0  0  0  0  0  0  0  0  0  0  0
    7.8198    0.4182   -3.7610 C   0  0  0  0  0  0  0  0  0  0  0  0
    6.4454    0.3053   -3.6746 C   0  0  0  0  0  0  0  0  0  0  0  0
    4.4232   -0.2834   -1.3687 C   0  0  0  0  0  0  0  0  0  0  0  0
    5.5058   -0.0538   -0.8389 O   0  0  0  0  0  0  0  0  0  0  0  0
    3.9348   -1.5771   -1.4299 N   0  0  0  0  0  0  0  0  0  0  0  0
    4.5705   -2.8248   -0.9615 C   0  0  2  0  0  0  0  0  0  0  0  0
    3.5257   -3.6441   -0.3411 C   0  0  0  0  0  0  0  0  0  0  0  0
    2.3792   -3.1277   -0.2662 O   0  0  0  0  0  0  0  0  0  0  0  0
    3.6206   -4.9528    0.1936 N   0  0  0  0  0  0  0  0  0  0  0  0
    2.4232   -5.4934    0.8313 C   0  0  2  0  0  0  0  0  0  0  0  0
    1.1759   -5.2732    0.0965 C   0  0  0  0  0  0  0  0  0  0  0  0
    1.1504   -5.1943   -1.1292 O   0  0  0  0  0  0  0  0  0  0  0  0
   -0.1144   -5.1124    0.7161 N   0  0  0  0  0  0  0  0  0  0  0  0
   -1.3510   -5.0375   -0.0108 C   0  0  2  0  0  0  0  0  0  0  0  0
   -1.4796   -3.8673   -0.9214 C   0  0  0  0  0  0  0  0  0  0  0  0
   -0.5860   -3.0464   -1.1576 O   0  0  0  0  0  0  0  0  0  0  0  0
   -2.7145   -3.6114   -1.6059 N   0  0  0  0  0  0  0  0  0  0  0  0
   -2.8734   -2.5904   -2.6200 C   0  0  2  0  0  0  0  0  0  0  0  0
   -3.7037   -1.4913   -2.0887 C   0  0  0  0  0  0  0  0  0  0  0  0
   -3.9830   -0.5418   -2.8355 O   0  0  0  0  0  0  0  0  0  0  0  0
   -4.2300   -1.4002   -0.7702 N   0  0  0  0  0  0  0  0  0  0  0  0
   -3.6818   -3.1589   -3.7901 C   0  0  0  0  0  0  0  0  0  0  0  0
   -3.0589   -4.3324   -4.4150 C   0  0  0  0  0  0  0  0  0  0  0  0
   -3.4244   -5.5829   -3.8984 C   0  0  0  0  0  0  0  0  0  0  0  0
   -2.9207   -6.7590   -4.3906 C   0  0  0  0  0  0  0  0  0  0  0  0
   -2.0211   -6.7158   -5.4331 C   0  0  0  0  0  0  0  0  0  0  0  0
   -1.6493   -5.4840   -5.9577 C   0  0  0  0  0  0  0  0  0  0  0  0
   -2.1648   -4.2929   -5.4512 C   0  0  0  0  0  0  0  0  0  0  0  0
   -2.4940   -5.1925    0.9181 C   0  0  0  0  0  0  0  0  0  0  0  0
    2.3701   -5.4147    2.2891 C   0  0  0  0  0  0  0  0  0  0  0  0
    3.4799   -6.1434    2.9847 C   0  0  0  0  0  0  0  0  0  0  0  0
    3.5405   -5.9753    4.2400 O   0  0  0  0  0  0  0  0  0  0  0  0
    4.4123   -6.9730    2.3249 N   0  0  0  0  0  0  0  0  0  0  0  0
    5.7005   -2.4260   -0.0340 C   0  0  0  0  0  0  0  0  0  0  0  0
    6.4903   -3.4599    0.6022 C   0  0  0  0  0  0  0  0  0  0  0  0
    6.1765   -3.9782    1.8574 C   0  0  0  0  0  0  0  0  0  0  0  0
    7.0181   -4.9376    2.4100 C   0  0  0  0  0  0  0  0  0  0  0  0
    8.1435   -5.4029    1.7834 C   0  0  0  0  0  0  0  0  0  0  0  0
    8.4604   -4.8932    0.5397 C   0  0  0  0  0  0  0  0  0  0  0  0
    7.6238   -3.9501    0.0075 C   0  0  0  0  0  0  0  0  0  0  0  0
   -8.9854   -7.3755    1.9825 H   0  0  0  0  0  0  0  0  0  0  0  0
   -8.9770   -6.0116    4.8004 H   0  0  0  0  0  0  0  0  0  0  0  0
   -8.3322   -3.7604    5.4546 H   0  0  0  0  0  0  0  0  0  0  0  0
   -5.9097   -3.4213    1.9431 H   0  0  0  0  0  0  0  0  0  0  0  0
   -6.6313   -5.7643    1.3207 H   0  0  0  0  0  0  0  0  0  0  0  0
   -6.8467   -1.9766    5.2770 H   0  0  0  0  0  0  0  0  0  0  0  0
   -5.7024   -1.8223    3.9222 H   0  0  0  0  0  0  0  0  0  0  0  0
   -8.7447   -1.3474    3.9178 H   0  0  0  0  0  0  0  0  0  0  0  0
   -6.5947    2.0849    6.7421 H   0  0  0  0  0  0  0  0  0  0  0  0
   -8.5696   -0.7870    1.6849 H   0  0  0  0  0  0  0  0  0  0  0  0
   -5.7640   -0.1856    2.1499 H   0  0  0  0  0  0  0  0  0  0  0  0
   -5.3489    0.3237   -1.3148 H   0  0  0  0  0  0  0  0  0  0  0  0
   -3.8018    0.2653    1.3307 H   0  0  0  0  0  0  0  0  0  0  0  0
   -3.8575    2.8712    2.1189 H   0  0  0  0  0  0  0  0  0  0  0  0
   -2.3717    2.4283    1.2325 H   0  0  0  0  0  0  0  0  0  0  0  0
   -4.1854    4.8806    0.6256 H   0  0  0  0  0  0  0  0  0  0  0  0
   -3.2654    3.8398   -1.3730 H   0  0  0  0  0  0  0  0  0  0  0  0
   -2.8863    6.2366   -0.4757 H   0  0  0  0  0  0  0  0  0  0  0  0
   -2.7412    6.8816   -2.7691 H   0  0  0  0  0  0  0  0  0  0  0  0
   -2.4518    3.8534   -3.2198 H   0  0  0  0  0  0  0  0  0  0  0  0
   -1.1039    5.1151   -3.4322 H   0  0  0  0  0  0  0  0  0  0  0  0
   -0.9077    4.6819   -5.7956 H   0  0  0  0  0  0  0  0  0  0  0  0
   -1.7765    5.1245   -8.1068 H   0  0  0  0  0  0  0  0  0  0  0  0
   -5.5169    6.2146   -6.4743 H   0  0  0  0  0  0  0  0  0  0  0  0
   -5.9011    6.1760   -4.0967 H   0  0  0  0  0  0  0  0  0  0  0  0
   -4.9010    6.6372   -8.8037 H   0  0  0  0  0  0  0  0  0  0  0  0
   -0.6134    4.4951    0.5188 H   0  0  0  0  0  0  0  0  0  0  0  0
   -0.1524    6.7814    2.2120 H   0  0  0  0  0  0  0  0  0  0  0  0
    0.1543    4.1819    3.5854 H   0  0  0  0  0  0  0  0  0  0  0  0
   -1.0203    5.5599    4.0183 H   0  0  0  0  0  0  0  0  0  0  0  0
   -0.0561    7.8766    4.9592 H   0  0  0  0  0  0  0  0  0  0  0  0
    2.2267    8.4704    6.0533 H   0  0  0  0  0  0  0  0  0  0  0  0
    3.8828    6.5975    5.6744 H   0  0  0  0  0  0  0  0  0  0  0  0
    1.0039    3.5511    0.8678 H   0  0  0  0  0  0  0  0  0  0  0  0
    3.8409    4.5007    0.6277 H   0  0  0  0  0  0  0  0  0  0  0  0
    2.7287    2.2601    2.2973 H   0  0  0  0  0  0  0  0  0  0  0  0
    3.4869    3.8150    2.7915 H   0  0  0  0  0  0  0  0  0  0  0  0
    4.8622    1.5252    1.2365 H   0  0  0  0  0  0  0  0  0  0  0  0
    4.9806    1.8080    2.9751 H   0  0  0  0  0  0  0  0  0  0  0  0
    6.0201    3.7586    0.7921 H   0  0  0  0  0  0  0  0  0  0  0  0
    6.1806    3.9925    2.5485 H   0  0  0  0  0  0  0  0  0  0  0  0
    8.4525    4.6783    2.4004 H   0  0  0  0  0  0  0  0  0  0  0  0
    8.5378    3.8592    4.0480 H   0  0  0  0  0  0  0  0  0  0  0  0
    9.8521    1.3720    1.3624 H   0  0  0  0  0  0  0  0  0  0  0  0
    9.5900    1.1025    3.0881 H   0  0  0  0  0  0  0  0  0  0  0  0
    5.0035    2.4420   -0.9341 H   0  0  0  0  0  0  0  0  0  0  0  0
    2.6415    0.7233   -1.8851 H   0  0  0  0  0  0  0  0  0  0  0  0
    3.8766    0.3795   -3.9659 H   0  0  0  0  0  0  0  0  0  0  0  0
    3.6354    2.1202   -3.6988 H   0  0  0  0  0  0  0  0  0  0  0  0
    5.6116    3.5219   -3.0060 H   0  0  0  0  0  0  0  0  0  0  0  0
    8.0938    3.6914   -3.1683 H   0  0  0  0  0  0  0  0  0  0  0  0
    9.4899    1.7337   -3.6463 H   0  0  0  0  0  0  0  0  0  0  0  0
    8.4748   -0.4094   -3.9699 H   0  0  0  0  0  0  0  0  0  0  0  0
    6.0400   -0.7015   -3.8354 H   0  0  0  0  0  0  0  0  0  0  0  0
    2.9994   -1.7032   -1.8461 H   0  0  0  0  0  0  0  0  0  0  0  0
    4.9833   -3.2965   -1.8630 H   0  0  0  0  0  0  0  0  0  0  0  0
    4.5099   -5.4211    0.0817 H   0  0  0  0  0  0  0  0  0  0  0  0
    2.5871   -6.6392    0.6040 H   0  0  0  0  0  0  0  0  0  0  0  0
   -0.1014   -5.0409    1.7250 H   0  0  0  0  0  0  0  0  0  0  0  0
   -1.3948   -5.8949   -0.7717 H   0  0  0  0  0  0  0  0  0  0  0  0
   -3.4968   -4.1964   -1.3186 H   0  0  0  0  0  0  0  0  0  0  0  0
   -1.9116   -2.1466   -2.9275 H   0  0  0  0  0  0  0  0  0  0  0  0
   -3.9717   -2.1625   -0.1465 H   0  0  0  0  0  0  0  0  0  0  0  0
   -4.6830   -3.4153   -3.3381 H   0  0  0  0  0  0  0  0  0  0  0  0
   -3.8941   -2.3646   -4.5358 H   0  0  0  0  0  0  0  0  0  0  0  0
   -4.1404   -5.6605   -3.0716 H   0  0  0  0  0  0  0  0  0  0  0  0
   -3.1966   -7.7206   -4.0043 H   0  0  0  0  0  0  0  0  0  0  0  0
   -1.6197   -7.6359   -5.8242 H   0  0  0  0  0  0  0  0  0  0  0  0
   -0.9433   -5.4704   -6.7762 H   0  0  0  0  0  0  0  0  0  0  0  0
   -1.8888   -3.3230   -5.8456 H   0  0  0  0  0  0  0  0  0  0  0  0
   -2.1670   -5.2178    1.9832 H   0  0  0  0  0  0  0  0  0  0  0  0
   -3.0937   -6.1254    0.7060 H   0  0  0  0  0  0  0  0  0  0  0  0
   -3.2424   -4.3667    0.8449 H   0  0  0  0  0  0  0  0  0  0  0  0
    1.3902   -5.8576    2.6466 H   0  0  0  0  0  0  0  0  0  0  0  0
    2.4066   -4.3371    2.6290 H   0  0  0  0  0  0  0  0  0  0  0  0
    4.2950   -7.3964    1.3847 H   0  0  0  0  0  0  0  0  0  0  0  0
    5.3087   -7.1922    2.8188 H   0  0  0  0  0  0  0  0  0  0  0  0
    5.2908   -1.7475    0.7278 H   0  0  0  0  0  0  0  0  0  0  0  0
    6.4313   -1.8917   -0.7195 H   0  0  0  0  0  0  0  0  0  0  0  0
    5.2857   -3.6302    2.3721 H   0  0  0  0  0  0  0  0  0  0  0  0
    6.7493   -5.3261    3.3921 H   0  0  0  0  0  0  0  0  0  0  0  0
    8.7968   -6.1436    2.2127 H   0  0  0  0  0  0  0  0  0  0  0  0
    9.3229   -5.1940   -0.0300 H   0  0  0  0  0  0  0  0  0  0  0  0
    7.8749   -3.5576   -0.9659 H   0  0  0  0  0  0  0  0  0  0  0  0
  1  2  1  0
  2  3  2  0
  3  4  1  0
  4  5  2  0
  5  6  1  0
  6  7  2  0
  5  8  1  0
  8  9  1  0
  9 10  1  0
 10 11  2  0
 10 12  1  0
 12 13  2  0
 12 14  1  0
  9 15  1  0
 15 16  1  0
 16 17  1  0
 17 18  2  0
 17 19  1  0
 19 20  1  0
 20 21  1  0
 21 22  2  0
 21 23  1  0
 23 24  1  0
 24 25  1  0
 25 26  1  0
 26 27  1  0
 27 28  1  0
 28 29  1  0
 29 30  2  0
 30 31  1  0
 31 32  2  0
 32 33  1  0
 33 34  2  0
 34 35  1  0
 35 36  1  0
 36 37  2  0
 32 38  1  0
 24 39  1  0
 39 40  2  0
 39 41  1  0
 41 42  1  0
 42 43  1  0
 43 44  1  0
 44 45  2  0
 45 46  1  0
 46 47  1  0
 47 48  2  0
 42 49  1  0
 49 50  2  0
 49 51  1  0
 51 52  1  0
 52 53  1  0
 53 54  1  0
 54 55  1  0
 55 56  1  0
 56 57  2  3
 57 58  1  0
 57 59  1  0
 52 60  1  0
 60 61  2  0
 60 62  1  0
 62 63  1  0
 63 64  1  0
 64 65  1  0
 65 66  2  0
 66 67  1  0
 67 68  2  0
 68 69  1  0
 69 70  2  0
 63 71  1  0
 71 72  2  0
 71 73  1  0
 73 74  1  0
 74 75  1  0
 75 76  2  0
 75 77  1  0
 77 78  1  0
 78 79  1  0
 79 80  2  0
 79 81  1  0
 81 82  1  0
 82 83  1  0
 83 84  2  0
 83 85  1  0
 85 86  1  0
 86 87  1  0
 87 88  2  0
 87 89  1  0
 86 90  1  0
 90 91  1  0
 91 92  2  0
 92 93  1  0
 93 94  2  0
 94 95  1  0
 95 96  2  0
 82 97  1  0
 78 98  1  0
 98 99  1  0
 99100  2  0
 99101  1  0
 74102  1  0
102103  1  0
103104  2  0
104105  1  0
105106  2  0
106107  1  0
107108  2  0
  7  2  1  0
 89 19  1  0
 96 91  1  0
108103  1  0
 36 27  1  0
 48 44  1  0
 70 65  1  0
 34 29  1  0
  1109  1  0
  3110  1  0
  4111  1  0
  6112  1  0
  7113  1  0
  8114  1  0
  8115  1  0
  9116  1  1
 14117  1  0
 15118  1  0
 16119  1  0
 19120  1  6
 20121  1  0
 23122  1  0
 23123  1  0
 24124  1  6
 25125  1  0
 26126  1  0
 27127  1  6
 28128  1  0
 28129  1  0
 30130  1  0
 31131  1  0
 33132  1  0
 35133  1  0
 38134  1  0
 41135  1  0
 42136  1  1
 43137  1  0
 43138  1  0
 45139  1  0
 46140  1  0
 47141  1  0
 51142  1  0
 52143  1  6
 53144  1  0
 53145  1  0
 54146  1  0
 54147  1  0
 55148  1  0
 55149  1  0
 58150  1  0
 58151  1  0
 59152  1  0
 59153  1  0
 62154  1  0
 63155  1  6
 64156  1  0
 64157  1  0
 66158  1  0
 67159  1  0
 68160  1  0
 69161  1  0
 70162  1  0
 73163  1  0
 74164  1  6
 77165  1  0
 78166  1  1
 81167  1  0
 82168  1  6
 85169  1  0
 86170  1  6
 89171  1  0
 90172  1  0
 90173  1  0
 92174  1  0
 93175  1  0
 94176  1  0
 95177  1  0
 96178  1  0
 97179  1  0
 97180  1  0
 97181  1  0
 98182  1  0
 98183  1  0
101184  1  0
101185  1  0
102186  1  0
102187  1  0
104188  1  0
105189  1  0
106190  1  0
107191  1  0
108192  1  0
M  END
>  <Ligand ID>  (1) 
LIG0002287

>  <Ligand>  (1) 
CHEMBL2371699

>  <SMILES>  (1) 
Oc1ccc(cc1)C[C@@H](C(=O)C(=O)O)NNC(=O)[C@H]1NC(=O)C[C@H](NN[C@H]2Cc3ccc(cc3NC2=O)O)C(=O)N[C@@H](Cc2c[nH]cn2)C(=O)N[C@@H](CCCN=C(N)N)C(=O)N[C@@H](Cc2ccccc2)C(=O)N[C@H](C(=O)N[C@H](C(=O)N[C@H](C(=O)N[C@H](C(=O)N1)Cc1ccccc1)C)CC(=O)N)Cc1ccccc1

>  <CID>  (1) 
73348613.0

>  <ChEMBL ID>  (1) 
nan

>  <InChiKey>  (1) 
BXRPCYASTSTGKR-LVJKDFONSA-N

>  <InChi>  (1) 
InChI=1S/C71H84N20O17/c1-37-60(97)81-51(29-40-16-9-4-10-17-40)66(103)87-59(69(106)91-88-48(58(96)70(107)108)26-41-19-22-44(92)23-20-41)86-57(95)34-55(90-89-54-30-42-21-24-45(93)32-47(42)80-67(54)104)68(105)84-52(31-43-35-75-36-77-43)65(102)79-46(18-11-25-76-71(73)74)61(98)82-49(27-38-12-5-2-6-13-38)63(100)83-50(28-39-14-7-3-8-15-39)64(101)85-53(33-56(72)94)62(99)78-37/h2-10,12-17,19-24,32,35-37,46,48-55,59,88-90,92-93H,11,18,25-31,33-34H2,1H3,(H2,72,94)(H,75,77)(H,78,99)(H,79,102)(H,80,104)(H,81,97)(H,82,98)(H,83,100)(H,84,105)(H,85,101)(H,86,95)(H,87,103)(H,91,106)(H,107,108)(H4,73,74,76)/t37-,46-,48-,49-,50-,51-,52-,53-,54-,55-,59-/m0/s1

>  <IUPAC Name>  (1) 
(3S)-3-[2-[(2S,5S,8S,11S,14S,17S,20S,23S,26S)-11-(2-amino-2-oxoethyl)-5,14,17-tribenzyl-20-[3-(diaminomethylideneamino)propyl]-26-[2-[(3S)-7-hydroxy-2-oxo-3,4-dihydro-1H-quinolin-3-yl]hydrazinyl]-23-(1H-imidazol-4-ylmethyl)-8-methyl-4,7,10,13,16,19,22,25,28-nonaoxo-1,3,6,9,12,15,18,21,24-nonazacyclooctacosane-2-carbonyl]hydrazinyl]-4-(4-hydroxyphenyl)-2-oxobutanoic acid

$$$$
