
     RDKit          3D

 64 66  0  0  0  0  0  0  0  0999 V2000
   -3.9515   -0.5022    3.0609 C   0  0  0  0  0  0  0  0  0  0  0  0
   -3.1190   -0.7781    1.8368 C   0  0  1  0  0  0  0  0  0  0  0  0
   -3.3780   -0.0736    0.6605 N   0  0  0  0  0  0  0  0  0  0  0  0
   -4.5463   -0.2099   -0.1067 C   0  0  0  0  0  0  0  0  0  0  0  0
   -5.8584    0.2663    0.3842 C   0  0  1  0  0  0  0  0  0  0  0  0
   -6.9317    0.0947   -0.6637 C   0  0  0  0  0  0  0  0  0  0  0  0
   -7.5377   -1.1204   -0.8908 C   0  0  0  0  0  0  0  0  0  0  0  0
   -8.5182   -1.3104   -1.8392 C   0  0  0  0  0  0  0  0  0  0  0  0
   -8.9199   -0.2171   -2.6112 C   0  0  0  0  0  0  0  0  0  0  0  0
   -8.3217    0.9937   -2.3910 C   0  0  0  0  0  0  0  0  0  0  0  0
   -7.3382    1.1816   -1.4386 C   0  0  0  0  0  0  0  0  0  0  0  0
   -8.8135    2.3938   -3.3564 Cl  0  0  0  0  0  0  0  0  0  0  0  0
   -6.2828   -0.3945    1.4897 O   0  0  0  0  0  0  0  0  0  0  0  0
   -1.6488   -0.7322    2.2643 C   0  0  0  0  0  0  0  0  0  0  0  0
   -0.6946   -0.9277    1.2470 N   0  0  0  0  0  0  0  0  0  0  0  0
   -0.1935    0.0748    0.3580 C   0  0  0  0  0  0  0  0  0  0  0  0
   -0.5556    1.4043    0.4347 C   0  0  0  0  0  0  0  0  0  0  0  0
   -0.0855    2.3755   -0.4180 C   0  0  0  0  0  0  0  0  0  0  0  0
    0.8070    1.9743   -1.4105 C   0  0  0  0  0  0  0  0  0  0  0  0
    1.2080    0.6591   -1.5391 C   0  0  0  0  0  0  0  0  0  0  0  0
    0.6997   -0.2521   -0.6555 C   0  0  0  0  0  0  0  0  0  0  0  0
    2.1503    0.3429   -2.6280 C   0  0  0  0  0  0  0  0  0  0  0  0
    3.5384    0.4799   -2.2680 N   0  0  0  0  0  0  0  0  0  0  0  0
    4.2741   -0.4257   -1.4917 C   0  0  0  0  0  0  0  0  0  0  0  0
    3.7595   -1.4736   -1.0298 O   0  0  0  0  0  0  0  0  0  0  0  0
    5.6398   -0.1345   -1.2293 N   0  0  0  0  0  0  0  0  0  0  0  0
    6.6612   -1.1617   -0.2914 S   0  0  0  0  0  0  0  0  0  0  0  0
    6.7605   -2.4725   -1.0246 O   0  0  0  0  0  0  0  0  0  0  0  0
    6.0643   -1.2992    1.0661 O   0  0  0  0  0  0  0  0  0  0  0  0
    8.2881   -0.4779   -0.1757 C   0  0  0  0  0  0  0  0  0  0  0  0
    9.2636   -0.7733   -1.1067 C   0  0  0  0  0  0  0  0  0  0  0  0
   10.5015   -0.2178   -0.9731 C   0  0  0  0  0  0  0  0  0  0  0  0
   10.7518    0.6261    0.0888 C   0  0  0  0  0  0  0  0  0  0  0  0
    9.8098    0.9478    1.0396 C   0  0  0  0  0  0  0  0  0  0  0  0
    8.5511    0.3696    0.8846 C   0  0  0  0  0  0  0  0  0  0  0  0
   -4.6437   -1.3323    3.2945 H   0  0  0  0  0  0  0  0  0  0  0  0
   -4.4070    0.4939    3.0778 H   0  0  0  0  0  0  0  0  0  0  0  0
   -3.2493   -0.4904    3.9546 H   0  0  0  0  0  0  0  0  0  0  0  0
   -3.2962   -1.8921    1.5810 H   0  0  0  0  0  0  0  0  0  0  0  0
   -2.5804   -0.3783   -0.0231 H   0  0  0  0  0  0  0  0  0  0  0  0
   -4.6056   -1.3329   -0.3704 H   0  0  0  0  0  0  0  0  0  0  0  0
   -4.3464    0.3190   -1.0925 H   0  0  0  0  0  0  0  0  0  0  0  0
   -5.8284    1.3776    0.6035 H   0  0  0  0  0  0  0  0  0  0  0  0
   -7.2217   -1.9696   -0.2864 H   0  0  0  0  0  0  0  0  0  0  0  0
   -9.0008   -2.2683   -2.0213 H   0  0  0  0  0  0  0  0  0  0  0  0
   -9.6994   -0.3631   -3.3674 H   0  0  0  0  0  0  0  0  0  0  0  0
   -6.8901    2.1686   -1.2997 H   0  0  0  0  0  0  0  0  0  0  0  0
   -7.2680   -0.5854    1.4884 H   0  0  0  0  0  0  0  0  0  0  0  0
   -1.4675    0.2514    2.7536 H   0  0  0  0  0  0  0  0  0  0  0  0
   -1.4985   -1.4926    3.0731 H   0  0  0  0  0  0  0  0  0  0  0  0
   -0.2973   -1.8982    1.1101 H   0  0  0  0  0  0  0  0  0  0  0  0
   -1.2490    1.6728    1.2196 H   0  0  0  0  0  0  0  0  0  0  0  0
   -0.3766    3.4159   -0.3480 H   0  0  0  0  0  0  0  0  0  0  0  0
    1.1876    2.7235   -2.0905 H   0  0  0  0  0  0  0  0  0  0  0  0
    1.0057   -1.2865   -0.7451 H   0  0  0  0  0  0  0  0  0  0  0  0
    1.8961    0.9196   -3.5266 H   0  0  0  0  0  0  0  0  0  0  0  0
    1.9833   -0.7363   -2.9126 H   0  0  0  0  0  0  0  0  0  0  0  0
    4.0208    1.3538   -2.6379 H   0  0  0  0  0  0  0  0  0  0  0  0
    6.0746    0.7546   -1.6196 H   0  0  0  0  0  0  0  0  0  0  0  0
    8.9882   -1.4527   -1.9227 H   0  0  0  0  0  0  0  0  0  0  0  0
   11.2451   -0.4707   -1.7230 H   0  0  0  0  0  0  0  0  0  0  0  0
   11.7308    1.0715    0.2032 H   0  0  0  0  0  0  0  0  0  0  0  0
    9.9937    1.6061    1.8742 H   0  0  0  0  0  0  0  0  0  0  0  0
    7.7665    0.5909    1.6119 H   0  0  0  0  0  0  0  0  0  0  0  0
  1  2  1  0
  2  3  1  0
  3  4  1  0
  4  5  1  0
  5  6  1  0
  6  7  2  0
  7  8  1  0
  8  9  2  0
  9 10  1  0
 10 11  2  0
 10 12  1  0
  5 13  1  0
  2 14  1  0
 14 15  1  0
 15 16  1  0
 16 17  2  0
 17 18  1  0
 18 19  2  0
 19 20  1  0
 20 21  2  0
 20 22  1  0
 22 23  1  0
 23 24  1  0
 24 25  2  0
 24 26  1  0
 26 27  1  0
 27 28  2  0
 27 29  2  0
 27 30  1  0
 30 31  2  0
 31 32  1  0
 32 33  2  0
 33 34  1  0
 34 35  2  0
 11  6  1  0
 21 16  1  0
 35 30  1  0
  1 36  1  0
  1 37  1  0
  1 38  1  0
  2 39  1  6
  3 40  1  0
  4 41  1  0
  4 42  1  0
  5 43  1  1
  7 44  1  0
  8 45  1  0
  9 46  1  0
 11 47  1  0
 13 48  1  0
 14 49  1  0
 14 50  1  0
 15 51  1  0
 17 52  1  0
 18 53  1  0
 19 54  1  0
 21 55  1  0
 22 56  1  0
 22 57  1  0
 23 58  1  0
 26 59  1  0
 31 60  1  0
 32 61  1  0
 33 62  1  0
 34 63  1  0
 35 64  1  0
M  END
>  <Ligand ID>  (1) 
LIG0002263

>  <Ligand>  (1) 
CHEMBL154906

>  <SMILES>  (1) 
C[C@@H](NC[C@@H](c1cccc(c1)Cl)O)CNc1cccc(c1)CNC(=O)NS(=O)(=O)c1ccccc1

>  <CID>  (1) 
11038599.0

>  <ChEMBL ID>  (1) 
nan

>  <InChiKey>  (1) 
GCPYHBLSPJNXID-KOSHJBKYSA-N

>  <InChi>  (1) 
InChI=1S/C25H29ClN4O4S/c1-18(27-17-24(31)20-8-6-9-21(26)14-20)15-28-22-10-5-7-19(13-22)16-29-25(32)30-35(33,34)23-11-3-2-4-12-23/h2-14,18,24,27-28,31H,15-17H2,1H3,(H2,29,30,32)/t18-,24+/m1/s1

>  <IUPAC Name>  (1) 
1-(benzenesulfonyl)-3-[[3-[[(2R)-2-[[(2R)-2-(3-chlorophenyl)-2-hydroxyethyl]amino]propyl]amino]phenyl]methyl]urea

$$$$
