
     RDKit          3D

 22 22  0  0  0  0  0  0  0  0999 V2000
    3.2421   -0.1398    0.7718 C   0  0  0  0  0  0  0  0  0  0  0  0
    2.5274    0.4157   -0.4457 C   0  0  0  0  0  0  0  0  0  0  0  0
    1.0717    0.0891   -0.4069 C   0  0  0  0  0  0  0  0  0  0  0  0
    0.6804   -1.0927   -0.9955 C   0  0  0  0  0  0  0  0  0  0  0  0
   -0.6292   -1.4062   -0.9714 N   0  0  0  0  0  0  0  0  0  0  0  0
   -1.5365   -0.6017   -0.3952 C   0  0  0  0  0  0  0  0  0  0  0  0
   -1.1529    0.5700    0.1891 C   0  0  0  0  0  0  0  0  0  0  0  0
    0.1632    0.8844    0.1645 N   0  0  0  0  0  0  0  0  0  0  0  0
   -2.0736    1.5027    0.8375 C   0  0  0  0  0  0  0  0  0  0  0  0
   -2.9460   -0.9979   -0.4014 C   0  0  0  0  0  0  0  0  0  0  0  0
    4.2897   -0.3572    0.5038 H   0  0  0  0  0  0  0  0  0  0  0  0
    2.7338   -1.1126    1.0210 H   0  0  0  0  0  0  0  0  0  0  0  0
    3.2338    0.5594    1.6114 H   0  0  0  0  0  0  0  0  0  0  0  0
    3.0071    0.0722   -1.3823 H   0  0  0  0  0  0  0  0  0  0  0  0
    2.6658    1.5077   -0.4079 H   0  0  0  0  0  0  0  0  0  0  0  0
    1.4096   -1.7472   -1.4630 H   0  0  0  0  0  0  0  0  0  0  0  0
   -1.8411    1.5074    1.9367 H   0  0  0  0  0  0  0  0  0  0  0  0
   -3.1266    1.4066    0.5945 H   0  0  0  0  0  0  0  0  0  0  0  0
   -1.7870    2.5396    0.4929 H   0  0  0  0  0  0  0  0  0  0  0  0
   -3.5755   -0.5726    0.3811 H   0  0  0  0  0  0  0  0  0  0  0  0
   -3.3862   -0.9166   -1.4297 H   0  0  0  0  0  0  0  0  0  0  0  0
   -2.9701   -2.1103   -0.2053 H   0  0  0  0  0  0  0  0  0  0  0  0
  1  2  1  0
  2  3  1  0
  3  4  2  0
  4  5  1  0
  5  6  2  0
  6  7  1  0
  7  8  2  0
  7  9  1  0
  6 10  1  0
  8  3  1  0
  1 11  1  0
  1 12  1  0
  1 13  1  0
  2 14  1  0
  2 15  1  0
  4 16  1  0
  9 17  1  0
  9 18  1  0
  9 19  1  0
 10 20  1  0
 10 21  1  0
 10 22  1  0
M  END
>  <Ligand ID>  (1) 
LIG0000345

>  <Ligand>  (1) 
5-Ethyl-2,3-dimethylpyrazine

>  <SMILES>  (1) 
CCc1cnc(c(n1)C)C

>  <CID>  (1) 
27460.0

>  <ChEMBL ID>  (1) 
nan

>  <InChiKey>  (1) 
CIBKSMZEVHTQLG-UHFFFAOYSA-N

>  <InChi>  (1) 
InChI=1S/C8H12N2/c1-4-8-5-9-6(2)7(3)10-8/h5H,4H2,1-3H3

>  <IUPAC Name>  (1) 
5-ethyl-2,3-dimethylpyrazine

$$$$
