
     RDKit          3D

 16 17  0  0  0  0  0  0  0  0999 V2000
   -3.4962   -1.2106    0.5000 O   0  0  0  0  0  0  0  0  0  0  0  0
   -2.3148   -0.8094    0.3349 C   0  0  0  0  0  0  0  0  0  0  0  0
   -1.8757    0.5605   -0.0415 C   0  0  0  0  0  0  0  0  0  0  0  0
   -0.4012    0.3793   -0.0716 C   0  0  0  0  0  0  0  0  0  0  0  0
   -0.0618   -0.9205    0.2461 C   0  0  0  0  0  0  0  0  0  0  0  0
   -1.2179   -1.6485    0.4942 O   0  0  0  0  0  0  0  0  0  0  0  0
    1.2823   -1.2934    0.2722 C   0  0  0  0  0  0  0  0  0  0  0  0
    2.2406   -0.3519   -0.0207 C   0  0  0  0  0  0  0  0  0  0  0  0
    1.9186    0.9530   -0.3406 C   0  0  0  0  0  0  0  0  0  0  0  0
    0.5793    1.3235   -0.3664 C   0  0  0  0  0  0  0  0  0  0  0  0
   -2.2884    0.7304   -1.0610 H   0  0  0  0  0  0  0  0  0  0  0  0
   -2.2084    1.3233    0.6907 H   0  0  0  0  0  0  0  0  0  0  0  0
    1.5413   -2.3183    0.5232 H   0  0  0  0  0  0  0  0  0  0  0  0
    3.2845   -0.7003    0.0148 H   0  0  0  0  0  0  0  0  0  0  0  0
    2.7068    1.6601   -0.5642 H   0  0  0  0  0  0  0  0  0  0  0  0
    0.3109    2.3229   -0.6103 H   0  0  0  0  0  0  0  0  0  0  0  0
  1  2  2  0
  2  3  1  0
  3  4  1  0
  4  5  2  0
  5  6  1  0
  5  7  1  0
  7  8  2  0
  8  9  1  0
  9 10  2  0
  6  2  1  0
 10  4  1  0
  3 11  1  0
  3 12  1  0
  7 13  1  0
  8 14  1  0
  9 15  1  0
 10 16  1  0
M  END
>  <Ligand ID>  (1) 
LIG0000102

>  <Ligand>  (1) 
Isophthalide

>  <SMILES>  (1) 
O=C1Cc2c(O1)cccc2

>  <CID>  (1) 
68382.0

>  <ChEMBL ID>  (1) 
nan

>  <InChiKey>  (1) 
ACZGCWSMSTYWDQ-UHFFFAOYSA-N

>  <InChi>  (1) 
InChI=1S/C8H6O2/c9-8-5-6-3-1-2-4-7(6)10-8/h1-4H,5H2

>  <IUPAC Name>  (1) 
3H-1-benzofuran-2-one

$$$$
