
     RDKit          3D

 24 25  0  0  0  0  0  0  0  0999 V2000
   -3.7264    0.7512   -0.1080 N   0  0  0  0  0  0  0  0  0  0  0  0
   -2.8709   -0.4210   -0.1079 C   0  0  0  0  0  0  0  0  0  0  0  0
   -1.4628    0.0548    0.1247 C   0  0  0  0  0  0  0  0  0  0  0  0
   -0.9688    1.0160   -0.9370 C   0  0  0  0  0  0  0  0  0  0  0  0
   -0.3785   -0.3208   -0.8198 C   0  0  0  0  0  0  0  0  0  0  0  0
    0.9569   -0.5051   -0.2278 C   0  0  0  0  0  0  0  0  0  0  0  0
    1.7364   -1.5988   -0.6051 C   0  0  0  0  0  0  0  0  0  0  0  0
    2.9671   -1.7305   -0.0316 C   0  0  0  0  0  0  0  0  0  0  0  0
    3.4757   -0.8434    0.8957 C   0  0  0  0  0  0  0  0  0  0  0  0
    2.7064    0.2497    1.2782 C   0  0  0  0  0  0  0  0  0  0  0  0
    1.4618    0.3821    0.6975 C   0  0  0  0  0  0  0  0  0  0  0  0
   -3.1685    1.5326   -0.5200 H   0  0  0  0  0  0  0  0  0  0  0  0
   -3.8939    1.0128    0.8963 H   0  0  0  0  0  0  0  0  0  0  0  0
   -3.1959   -1.1906    0.6174 H   0  0  0  0  0  0  0  0  0  0  0  0
   -2.8815   -0.9145   -1.1086 H   0  0  0  0  0  0  0  0  0  0  0  0
   -1.2362    0.2741    1.1847 H   0  0  0  0  0  0  0  0  0  0  0  0
   -1.5953    1.2072   -1.8321 H   0  0  0  0  0  0  0  0  0  0  0  0
   -0.5152    1.9242   -0.5300 H   0  0  0  0  0  0  0  0  0  0  0  0
   -0.6870   -1.0905   -1.5519 H   0  0  0  0  0  0  0  0  0  0  0  0
    1.3233   -2.2738   -1.3249 H   0  0  0  0  0  0  0  0  0  0  0  0
    3.5829   -2.5628   -0.3064 H   0  0  0  0  0  0  0  0  0  0  0  0
    4.4469   -0.9838    1.3216 H   0  0  0  0  0  0  0  0  0  0  0  0
    3.0754    0.9664    2.0045 H   0  0  0  0  0  0  0  0  0  0  0  0
    0.8482    1.2376    0.9905 H   0  0  0  0  0  0  0  0  0  0  0  0
  1  2  1  0
  2  3  1  0
  3  4  1  0
  4  5  1  0
  5  6  1  0
  6  7  2  0
  7  8  1  0
  8  9  2  0
  9 10  1  0
 10 11  2  0
  5  3  1  0
 11  6  1  0
  1 12  1  0
  1 13  1  0
  2 14  1  0
  2 15  1  0
  3 16  1  0
  4 17  1  0
  4 18  1  0
  5 19  1  0
  7 20  1  0
  8 21  1  0
  9 22  1  0
 10 23  1  0
 11 24  1  0
M  END
>  <Ligand ID>  (1) 
LIG0002858

>  <Ligand>  (1) 
15639-87-9

>  <SMILES>  (1) 
NCC1CC1c1ccccc1

>  <CID>  (1) 
12370465.0

>  <ChEMBL ID>  (1) 
nan

>  <InChiKey>  (1) 
ATTLDOZXPZCOGK-UHFFFAOYSA-N

>  <InChi>  (1) 
InChI=1S/C10H13N/c11-7-9-6-10(9)8-4-2-1-3-5-8/h1-5,9-10H,6-7,11H2

>  <IUPAC Name>  (1) 
(2-phenylcyclopropyl)methanamine

$$$$
