
     RDKit          3D

 61 65  0  0  0  0  0  0  0  0999 V2000
    9.4034    0.2053    0.0790 O   0  0  0  0  0  0  0  0  0  0  0  0
    8.0038    0.3405    0.0022 C   0  0  0  0  0  0  0  0  0  0  0  0
    7.5227    0.5258   -1.1418 O   0  0  0  0  0  0  0  0  0  0  0  0
    7.2180    0.2565    1.2473 C   0  0  0  0  0  0  0  0  0  0  0  0
    5.8471    0.3569    0.9497 O   0  0  0  0  0  0  0  0  0  0  0  0
    5.1559   -0.5409    0.1659 C   0  0  0  0  0  0  0  0  0  0  0  0
    5.7073   -1.6583   -0.4181 C   0  0  0  0  0  0  0  0  0  0  0  0
    4.9745   -2.5393   -1.2009 C   0  0  0  0  0  0  0  0  0  0  0  0
    3.6293   -2.2995   -1.4138 C   0  0  0  0  0  0  0  0  0  0  0  0
    3.0856   -1.1794   -0.8254 C   0  0  0  0  0  0  0  0  0  0  0  0
    3.8000   -0.2967   -0.0467 C   0  0  0  0  0  0  0  0  0  0  0  0
    3.1542    0.8856    0.5631 C   0  0  0  0  0  0  0  0  0  0  0  0
    1.9966    1.4501   -0.1937 C   0  0  0  0  0  0  0  0  0  0  0  0
    1.6667    0.6296   -1.3845 C   0  0  0  0  0  0  0  0  0  0  0  0
    1.6213   -0.8271   -1.0052 C   0  0  0  0  0  0  0  0  0  0  0  0
    0.4582    1.1157   -2.1387 C   0  0  0  0  0  0  0  0  0  0  0  0
   -0.7569    1.1493   -1.3687 N   0  0  0  0  0  0  0  0  0  0  0  0
   -1.0079    2.2693   -0.6878 N   0  0  0  0  0  0  0  0  0  0  0  0
   -2.1015    2.4398    0.0786 C   0  0  0  0  0  0  0  0  0  0  0  0
   -3.0235    1.4168    0.1794 C   0  0  0  0  0  0  0  0  0  0  0  0
   -2.7968    0.2351   -0.5152 C   0  0  0  0  0  0  0  0  0  0  0  0
   -1.6438    0.1511   -1.2786 C   0  0  0  0  0  0  0  0  0  0  0  0
   -1.4544   -0.9224   -1.9010 O   0  0  0  0  0  0  0  0  0  0  0  0
   -3.7366   -0.8909   -0.4507 C   0  0  0  0  0  0  0  0  0  0  0  0
   -3.9376   -1.4739    0.7744 C   0  0  0  0  0  0  0  0  0  0  0  0
   -4.8177   -2.5349    0.8564 C   0  0  0  0  0  0  0  0  0  0  0  0
   -5.4862   -3.0106   -0.2515 C   0  0  0  0  0  0  0  0  0  0  0  0
   -5.2801   -2.4186   -1.4874 C   0  0  0  0  0  0  0  0  0  0  0  0
   -4.3998   -1.3580   -1.5665 C   0  0  0  0  0  0  0  0  0  0  0  0
   -4.2325    1.4979    0.9771 C   0  0  0  0  0  0  0  0  0  0  0  0
   -4.1930    1.6977    2.3427 C   0  0  0  0  0  0  0  0  0  0  0  0
   -5.3960    1.7611    3.0217 C   0  0  0  0  0  0  0  0  0  0  0  0
   -6.6200    1.6330    2.3877 C   0  0  0  0  0  0  0  0  0  0  0  0
   -6.6602    1.4333    1.0236 C   0  0  0  0  0  0  0  0  0  0  0  0
   -5.4639    1.3674    0.3290 C   0  0  0  0  0  0  0  0  0  0  0  0
    9.9556    0.4504   -0.7152 H   0  0  0  0  0  0  0  0  0  0  0  0
    7.4895    1.0388    1.9929 H   0  0  0  0  0  0  0  0  0  0  0  0
    7.4125   -0.7128    1.7926 H   0  0  0  0  0  0  0  0  0  0  0  0
    6.7495   -1.9027   -0.2795 H   0  0  0  0  0  0  0  0  0  0  0  0
    5.4497   -3.4151   -1.6471 H   0  0  0  0  0  0  0  0  0  0  0  0
    3.0124   -2.9618   -2.0204 H   0  0  0  0  0  0  0  0  0  0  0  0
    2.8615    0.5525    1.5989 H   0  0  0  0  0  0  0  0  0  0  0  0
    3.9492    1.6542    0.7647 H   0  0  0  0  0  0  0  0  0  0  0  0
    2.1376    2.5334   -0.4280 H   0  0  0  0  0  0  0  0  0  0  0  0
    1.1060    1.4058    0.4922 H   0  0  0  0  0  0  0  0  0  0  0  0
    2.5326    0.7694   -2.1056 H   0  0  0  0  0  0  0  0  0  0  0  0
    1.0506   -0.9608   -0.0720 H   0  0  0  0  0  0  0  0  0  0  0  0
    1.1915   -1.4616   -1.8107 H   0  0  0  0  0  0  0  0  0  0  0  0
    0.3515    0.3941   -3.0020 H   0  0  0  0  0  0  0  0  0  0  0  0
    0.7017    2.0779   -2.6340 H   0  0  0  0  0  0  0  0  0  0  0  0
   -2.2748    3.3621    0.6184 H   0  0  0  0  0  0  0  0  0  0  0  0
   -3.4498   -1.1526    1.6731 H   0  0  0  0  0  0  0  0  0  0  0  0
   -4.9878   -3.0061    1.8145 H   0  0  0  0  0  0  0  0  0  0  0  0
   -6.1692   -3.8437   -0.1545 H   0  0  0  0  0  0  0  0  0  0  0  0
   -5.7924   -2.7700   -2.3835 H   0  0  0  0  0  0  0  0  0  0  0  0
   -4.1990   -0.8532   -2.5160 H   0  0  0  0  0  0  0  0  0  0  0  0
   -3.2389    1.8003    2.8555 H   0  0  0  0  0  0  0  0  0  0  0  0
   -5.4075    1.9164    4.0919 H   0  0  0  0  0  0  0  0  0  0  0  0
   -7.5631    1.6799    2.9003 H   0  0  0  0  0  0  0  0  0  0  0  0
   -7.5926    1.3280    0.4881 H   0  0  0  0  0  0  0  0  0  0  0  0
   -5.5127    1.2104   -0.7409 H   0  0  0  0  0  0  0  0  0  0  0  0
  1  2  1  0
  2  3  2  0
  2  4  1  0
  4  5  1  0
  5  6  1  0
  6  7  2  0
  7  8  1  0
  8  9  2  0
  9 10  1  0
 10 11  2  0
 11 12  1  0
 12 13  1  0
 13 14  1  0
 14 15  1  0
 14 16  1  0
 16 17  1  0
 17 18  1  0
 18 19  2  0
 19 20  1  0
 20 21  2  0
 21 22  1  0
 22 23  2  0
 21 24  1  0
 24 25  2  0
 25 26  1  0
 26 27  2  0
 27 28  1  0
 28 29  2  0
 20 30  1  0
 30 31  2  0
 31 32  1  0
 32 33  2  0
 33 34  1  0
 34 35  2  0
 11  6  1  0
 22 17  1  0
 29 24  1  0
 35 30  1  0
 15 10  1  0
  1 36  1  0
  4 37  1  0
  4 38  1  0
  7 39  1  0
  8 40  1  0
  9 41  1  0
 12 42  1  0
 12 43  1  0
 13 44  1  0
 13 45  1  0
 14 46  1  0
 15 47  1  0
 15 48  1  0
 16 49  1  0
 16 50  1  0
 19 51  1  0
 25 52  1  0
 26 53  1  0
 27 54  1  0
 28 55  1  0
 29 56  1  0
 31 57  1  0
 32 58  1  0
 33 59  1  0
 34 60  1  0
 35 61  1  0
M  END
>  <Ligand ID>  (1) 
LIG0003014

>  <Ligand>  (1) 
CHEMBL3398222

>  <SMILES>  (1) 
OC(=O)COc1cccc2c1CCC(C2)Cn1ncc(c(c1=O)c1ccccc1)c1ccccc1

>  <CID>  (1) 
118727301.0

>  <ChEMBL ID>  (1) 
nan

>  <InChiKey>  (1) 
IAGFPTIINWCRHK-UHFFFAOYSA-N

>  <InChi>  (1) 
InChI=1S/C29H26N2O4/c32-27(33)19-35-26-13-7-12-23-16-20(14-15-24(23)26)18-31-29(34)28(22-10-5-2-6-11-22)25(17-30-31)21-8-3-1-4-9-21/h1-13,17,20H,14-16,18-19H2,(H,32,33)

>  <IUPAC Name>  (1) 
2-[[6-[(6-oxo-4,5-diphenylpyridazin-1-yl)methyl]-5,6,7,8-tetrahydronaphthalen-1-yl]oxy]acetic acid

$$$$
