
     RDKit          3D

 30 32  0  0  0  0  0  0  0  0999 V2000
    0.6085    2.3618    0.9374 O   0  0  0  0  0  0  0  0  0  0  0  0
    0.2124    1.2075    0.6960 C   0  0  0  0  0  0  0  0  0  0  0  0
   -1.1360    0.7560    0.6801 N   0  0  0  0  0  0  0  0  0  0  0  0
   -2.3670    1.4595    0.8904 C   0  0  0  0  0  0  0  0  0  0  0  0
   -3.4982    0.6302    0.3309 C   0  0  0  0  0  0  0  0  0  0  0  0
   -3.1242    0.0640   -0.9464 N   0  0  0  0  0  0  0  0  0  0  0  0
   -2.0831   -0.9357   -0.8101 C   0  0  0  0  0  0  0  0  0  0  0  0
   -1.2051   -0.6608    0.3883 C   0  0  0  0  0  0  0  0  0  0  0  0
    0.2108   -1.0254    0.1809 C   0  0  0  0  0  0  0  0  0  0  0  0
    1.0441    0.0533    0.3740 C   0  0  0  0  0  0  0  0  0  0  0  0
    2.4127   -0.0691    0.2432 C   0  0  0  0  0  0  0  0  0  0  0  0
    2.9265   -1.3244   -0.0925 C   0  0  0  0  0  0  0  0  0  0  0  0
    2.0997   -2.4111   -0.2886 C   0  0  0  0  0  0  0  0  0  0  0  0
    0.7235   -2.2826   -0.1555 C   0  0  0  0  0  0  0  0  0  0  0  0
    3.3019    0.9530    0.4190 O   0  0  0  0  0  0  0  0  0  0  0  0
    3.7920    1.8517   -0.5198 C   0  0  0  0  0  0  0  0  0  0  0  0
    4.6739    2.7040    0.1556 F   0  0  0  0  0  0  0  0  0  0  0  0
    4.5939    1.2249   -1.4813 F   0  0  0  0  0  0  0  0  0  0  0  0
    2.8443    2.6461   -1.1123 F   0  0  0  0  0  0  0  0  0  0  0  0
   -2.5824    1.6616    1.9615 H   0  0  0  0  0  0  0  0  0  0  0  0
   -2.3394    2.4649    0.3871 H   0  0  0  0  0  0  0  0  0  0  0  0
   -4.3648    1.3070    0.1387 H   0  0  0  0  0  0  0  0  0  0  0  0
   -3.7757   -0.1431    1.0762 H   0  0  0  0  0  0  0  0  0  0  0  0
   -3.9859   -0.4600   -1.2873 H   0  0  0  0  0  0  0  0  0  0  0  0
   -2.4887   -1.9594   -0.6930 H   0  0  0  0  0  0  0  0  0  0  0  0
   -1.4576   -0.9058   -1.7074 H   0  0  0  0  0  0  0  0  0  0  0  0
   -1.5599   -1.1741    1.2972 H   0  0  0  0  0  0  0  0  0  0  0  0
    3.9919   -1.4626   -0.2045 H   0  0  0  0  0  0  0  0  0  0  0  0
    2.4539   -3.3985   -0.5491 H   0  0  0  0  0  0  0  0  0  0  0  0
    0.0778   -3.1330   -0.3090 H   0  0  0  0  0  0  0  0  0  0  0  0
  1  2  2  0
  2  3  1  0
  3  4  1  0
  4  5  1  0
  5  6  1  0
  6  7  1  0
  7  8  1  0
  8  9  1  0
  9 10  2  0
 10 11  1  0
 11 12  2  0
 12 13  1  0
 13 14  2  0
 11 15  1  0
 15 16  1  0
 16 17  1  0
 16 18  1  0
 16 19  1  0
 10  2  1  0
  8  3  1  0
 14  9  1  0
  4 20  1  0
  4 21  1  0
  5 22  1  0
  5 23  1  0
  6 24  1  0
  7 25  1  0
  7 26  1  0
  8 27  1  0
 12 28  1  0
 13 29  1  0
 14 30  1  0
M  END
>  <Ligand ID>  (1) 
LIG0003225

>  <Ligand>  (1) 
CHEMBL219734

>  <SMILES>  (1) 
O=C1N2CCNCC2c2c1c(ccc2)OC(F)(F)F

>  <CID>  (1) 
11448649.0

>  <ChEMBL ID>  (1) 
nan

>  <InChiKey>  (1) 
QCDPKPGZFATVMP-UHFFFAOYSA-N

>  <InChi>  (1) 
InChI=1S/C12H11F3N2O2/c13-12(14,15)19-9-3-1-2-7-8-6-16-4-5-17(8)11(18)10(7)9/h1-3,8,16H,4-6H2

>  <IUPAC Name>  (1) 
7-(trifluoromethoxy)-2,3,4,10b-tetrahydro-1H-pyrazino[1,2-b]isoindol-6-one

$$$$
