
     RDKit          3D

 58 59  0  0  0  0  0  0  0  0999 V2000
   -4.5282    0.8724   -1.7722 C   0  0  0  0  0  0  0  0  0  0  0  0
   -4.1780    1.4120   -0.4198 C   0  0  1  0  0  0  0  0  0  0  0  0
   -5.4426    1.4800    0.4090 C   0  0  0  0  0  0  0  0  0  0  0  0
   -6.0757    0.0980    0.5707 C   0  0  0  0  0  0  0  0  0  0  0  0
   -7.3422    0.2605    1.4182 C   0  0  0  0  0  0  0  0  0  0  0  0
   -8.3309    1.1869    0.7612 C   0  0  0  0  0  0  0  0  0  0  0  0
   -3.1248    0.5860    0.2825 C   0  0  0  0  0  0  0  0  0  0  0  0
   -1.8476    0.5330   -0.5015 C   0  0  1  0  0  0  0  0  0  0  0  0
   -0.8035   -0.2783    0.1809 C   0  0  0  0  0  0  0  0  0  0  0  0
    0.4941   -0.0135    0.1134 C   0  0  0  0  0  0  0  0  0  0  0  0
    1.4100   -0.9225    0.8540 C   0  0  1  0  0  0  0  0  0  0  0  0
    1.3538   -2.3172    0.2151 C   0  0  0  0  0  0  0  0  0  0  0  0
    1.8011   -1.9501   -1.2018 C   0  0  0  0  0  0  0  0  0  0  0  0
    2.8747   -0.9498   -0.8979 C   0  0  0  0  0  0  0  0  0  0  0  0
    3.7421   -0.4892   -1.7085 O   0  0  0  0  0  0  0  0  0  0  0  0
    2.7761   -0.5753    0.4933 N   0  0  0  0  0  0  0  0  0  0  0  0
    3.8134    0.0101    1.3193 C   0  0  0  0  0  0  0  0  0  0  0  0
    4.6376   -1.0690    2.0150 C   0  0  0  0  0  0  0  0  0  0  0  0
    5.4592   -2.1799    0.8800 S   0  0  0  0  0  0  0  0  0  0  0  0
    6.7015   -1.0853    0.0196 C   0  0  0  0  0  0  0  0  0  0  0  0
    7.0684   -0.0272   -0.0082 N   0  0  0  0  0  0  0  0  0  0  0  0
    8.0092    0.5671   -0.7309 C   0  0  0  0  0  0  0  0  0  0  0  0
    8.6331   -0.3025   -1.5986 C   0  0  0  0  0  0  0  0  0  0  0  0
    7.7854   -1.9420   -1.2867 S   0  0  0  0  0  0  0  0  0  0  0  0
    8.3790    1.9821   -0.6515 C   0  0  0  0  0  0  0  0  0  0  0  0
    7.7980    2.7843    0.1538 O   0  0  0  0  0  0  0  0  0  0  0  0
    9.3654    2.5137   -1.4366 O   0  0  0  0  0  0  0  0  0  0  0  0
   -2.0523   -0.0165   -1.7658 O   0  0  0  0  0  0  0  0  0  0  0  0
   -3.9424    1.3576   -2.6062 H   0  0  0  0  0  0  0  0  0  0  0  0
   -4.4859   -0.2337   -1.8528 H   0  0  0  0  0  0  0  0  0  0  0  0
   -5.5902    1.1487   -1.9830 H   0  0  0  0  0  0  0  0  0  0  0  0
   -3.8383    2.4567   -0.5525 H   0  0  0  0  0  0  0  0  0  0  0  0
   -5.3165    1.9814    1.3737 H   0  0  0  0  0  0  0  0  0  0  0  0
   -6.1902    2.0673   -0.2001 H   0  0  0  0  0  0  0  0  0  0  0  0
   -6.3398   -0.3320   -0.4046 H   0  0  0  0  0  0  0  0  0  0  0  0
   -5.3968   -0.5845    1.0850 H   0  0  0  0  0  0  0  0  0  0  0  0
   -7.0983    0.6663    2.4152 H   0  0  0  0  0  0  0  0  0  0  0  0
   -7.7875   -0.7408    1.6107 H   0  0  0  0  0  0  0  0  0  0  0  0
   -8.1078    1.3856   -0.3169 H   0  0  0  0  0  0  0  0  0  0  0  0
   -8.3998    2.1603    1.3084 H   0  0  0  0  0  0  0  0  0  0  0  0
   -9.3432    0.6979    0.7438 H   0  0  0  0  0  0  0  0  0  0  0  0
   -2.9227    1.0773    1.2419 H   0  0  0  0  0  0  0  0  0  0  0  0
   -3.4707   -0.4431    0.4316 H   0  0  0  0  0  0  0  0  0  0  0  0
   -1.4618    1.5659   -0.6938 H   0  0  0  0  0  0  0  0  0  0  0  0
   -1.1562   -1.1341    0.7631 H   0  0  0  0  0  0  0  0  0  0  0  0
    0.8324    0.8398   -0.4682 H   0  0  0  0  0  0  0  0  0  0  0  0
    1.2299   -0.9477    1.9298 H   0  0  0  0  0  0  0  0  0  0  0  0
    2.1560   -2.8980    0.6925 H   0  0  0  0  0  0  0  0  0  0  0  0
    0.3527   -2.7467    0.2556 H   0  0  0  0  0  0  0  0  0  0  0  0
    0.9492   -1.4068   -1.6501 H   0  0  0  0  0  0  0  0  0  0  0  0
    2.1588   -2.7994   -1.7782 H   0  0  0  0  0  0  0  0  0  0  0  0
    3.3096    0.5503    2.1539 H   0  0  0  0  0  0  0  0  0  0  0  0
    4.4880    0.6759    0.7743 H   0  0  0  0  0  0  0  0  0  0  0  0
    5.3142   -0.5539    2.7121 H   0  0  0  0  0  0  0  0  0  0  0  0
    3.9521   -1.7021    2.6502 H   0  0  0  0  0  0  0  0  0  0  0  0
    9.4234   -0.2092   -2.3306 H   0  0  0  0  0  0  0  0  0  0  0  0
    9.8286    3.3663   -1.1160 H   0  0  0  0  0  0  0  0  0  0  0  0
   -1.5230   -0.8379   -1.8947 H   0  0  0  0  0  0  0  0  0  0  0  0
  1  2  1  0
  2  3  1  0
  3  4  1  0
  4  5  1  0
  5  6  1  0
  2  7  1  0
  7  8  1  0
  8  9  1  0
  9 10  2  0
 10 11  1  0
 11 12  1  0
 12 13  1  0
 13 14  1  0
 14 15  2  0
 14 16  1  0
 16 17  1  0
 17 18  1  0
 18 19  1  0
 19 20  1  0
 20 21  2  0
 21 22  1  0
 22 23  2  0
 23 24  1  0
 22 25  1  0
 25 26  2  0
 25 27  1  0
  8 28  1  0
 16 11  1  0
 24 20  1  0
  1 29  1  0
  1 30  1  0
  1 31  1  0
  2 32  1  6
  3 33  1  0
  3 34  1  0
  4 35  1  0
  4 36  1  0
  5 37  1  0
  5 38  1  0
  6 39  1  0
  6 40  1  0
  6 41  1  0
  7 42  1  0
  7 43  1  0
  8 44  1  6
  9 45  1  0
 10 46  1  0
 11 47  1  1
 12 48  1  0
 12 49  1  0
 13 50  1  0
 13 51  1  0
 17 52  1  0
 17 53  1  0
 18 54  1  0
 18 55  1  0
 23 56  1  0
 27 57  1  0
 28 58  1  0
M  END
>  <Ligand ID>  (1) 
LIG0004170

>  <Ligand>  (1) 
CHEMBL3754586

>  <SMILES>  (1) 
C[C@@H](CCCC)C[C@@H](/C=C/[C@H]1CCC(=O)N1CCSc1nc(cs1)C(=O)O)O

>  <CID>  (1) 
127037150.0

>  <ChEMBL ID>  (1) 
nan

>  <InChiKey>  (1) 
YPIKUTNQCOTYDP-YRCJHFKKSA-N

>  <InChi>  (1) 
InChI=1S/C20H30N2O4S2/c1-3-4-5-14(2)12-16(23)8-6-15-7-9-18(24)22(15)10-11-27-20-21-17(13-28-20)19(25)26/h6,8,13-16,23H,3-5,7,9-12H2,1-2H3,(H,25,26)/b8-6+/t14-,15-,16+/m0/s1

>  <IUPAC Name>  (1) 
2-[2-[(2R)-2-[(E,3S,5S)-3-hydroxy-5-methylnon-1-enyl]-5-oxopyrrolidin-1-yl]ethylsulfanyl]-1,3-thiazole-4-carboxylic acid

$$$$
