
     RDKit          3D

 39 40  0  0  0  0  0  0  0  0999 V2000
   -1.4494    1.8404    2.4507 O   0  0  0  0  0  0  0  0  0  0  0  0
   -0.8283    0.6493    2.1734 C   0  0  2  0  0  0  0  0  0  0  0  0
    0.0999    0.8836    0.9739 C   0  0  1  0  0  0  0  0  0  0  0  0
    1.2250   -0.1334    1.1212 C   0  0  0  0  0  0  0  0  0  0  0  0
    2.0714   -0.0758    0.0166 O   0  0  0  0  0  0  0  0  0  0  0  0
    3.3343   -1.1722    0.1148 P   0  0  0  0  0  0  0  0  0  0  0  0
    2.7886   -2.5047    0.5586 O   0  0  0  0  0  0  0  0  0  0  0  0
    3.9645   -1.3533   -1.4511 O   0  0  0  0  0  0  0  0  0  0  0  0
    5.3544   -0.4151   -1.6149 P   0  0  0  0  0  0  0  0  0  0  0  0
    6.2838   -0.9795   -2.6696 O   0  0  0  0  0  0  0  0  0  0  0  0
    4.8899    1.1615   -2.0635 O   0  0  0  0  0  0  0  0  0  0  0  0
    6.1906   -0.4059   -0.1389 O   0  0  0  0  0  0  0  0  0  0  0  0
    4.5181   -0.6834    1.2159 O   0  0  0  0  0  0  0  0  0  0  0  0
   -0.6194    0.6046   -0.1604 O   0  0  0  0  0  0  0  0  0  0  0  0
   -1.9725    0.5623    0.2403 C   0  0  2  0  0  0  0  0  0  0  0  0
   -1.8422   -0.2700    1.4678 C   0  0  2  0  0  0  0  0  0  0  0  0
   -2.9858   -0.4455    2.1945 O   0  0  0  0  0  0  0  0  0  0  0  0
   -2.8578    0.1057   -0.7500 N   0  0  0  0  0  0  0  0  0  0  0  0
   -3.3000    0.9697   -1.6936 C   0  0  0  0  0  0  0  0  0  0  0  0
   -4.1633    0.6173   -2.6972 C   0  0  0  0  0  0  0  0  0  0  0  0
   -4.7571    1.8778   -4.0055 Br  0  0  0  0  0  0  0  0  0  0  0  0
   -4.6214   -0.6835   -2.7717 C   0  0  0  0  0  0  0  0  0  0  0  0
   -5.4139   -1.0378   -3.6803 O   0  0  0  0  0  0  0  0  0  0  0  0
   -4.1776   -1.5405   -1.8289 N   0  0  0  0  0  0  0  0  0  0  0  0
   -3.3330   -1.1628   -0.8605 C   0  0  0  0  0  0  0  0  0  0  0  0
   -2.9693   -2.0025   -0.0313 O   0  0  0  0  0  0  0  0  0  0  0  0
   -0.8007    2.5703    2.6242 H   0  0  0  0  0  0  0  0  0  0  0  0
   -0.3193    0.1622    2.9967 H   0  0  0  0  0  0  0  0  0  0  0  0
    0.4661    1.9074    0.9262 H   0  0  0  0  0  0  0  0  0  0  0  0
    0.7801   -1.1469    1.1202 H   0  0  0  0  0  0  0  0  0  0  0  0
    1.7759   -0.0132    2.0689 H   0  0  0  0  0  0  0  0  0  0  0  0
    5.4276    1.7930   -1.5194 H   0  0  0  0  0  0  0  0  0  0  0  0
    6.4654    0.4966    0.1228 H   0  0  0  0  0  0  0  0  0  0  0  0
    4.4723    0.2779    1.4424 H   0  0  0  0  0  0  0  0  0  0  0  0
   -2.1930    1.5997    0.5984 H   0  0  0  0  0  0  0  0  0  0  0  0
   -1.2474   -1.2112    1.3354 H   0  0  0  0  0  0  0  0  0  0  0  0
   -2.7833   -0.3015    3.1476 H   0  0  0  0  0  0  0  0  0  0  0  0
   -2.9666    2.0094   -1.6776 H   0  0  0  0  0  0  0  0  0  0  0  0
   -4.5068   -2.5503   -1.8515 H   0  0  0  0  0  0  0  0  0  0  0  0
  1  2  1  0
  2  3  1  0
  3  4  1  0
  4  5  1  0
  5  6  1  0
  6  7  2  0
  6  8  1  0
  8  9  1  0
  9 10  2  0
  9 11  1  0
  9 12  1  0
  6 13  1  0
  3 14  1  0
 14 15  1  0
 15 16  1  0
 16 17  1  0
 15 18  1  0
 18 19  1  0
 19 20  2  0
 20 21  1  0
 20 22  1  0
 22 23  2  0
 22 24  1  0
 24 25  1  0
 25 26  2  0
 16  2  1  0
 25 18  1  0
  1 27  1  0
  2 28  1  1
  3 29  1  6
  4 30  1  0
  4 31  1  0
 11 32  1  0
 12 33  1  0
 13 34  1  0
 15 35  1  1
 16 36  1  6
 17 37  1  0
 19 38  1  0
 24 39  1  0
M  END
>  <Ligand ID>  (1) 
LIG0001209

>  <Ligand>  (1) 
CHEMBL214698

>  <SMILES>  (1) 
O[C@@H]1[C@@H](COP(=O)(OP(=O)(O)O)O)O[C@H]([C@@H]1O)n1cc(Br)c(=O)[nH]c1=O

>  <CID>  (1) 
23379800.0

>  <ChEMBL ID>  (1) 
nan

>  <InChiKey>  (1) 
LEODOYNQKMXKRC-UAKXSSHOSA-N

>  <InChi>  (1) 
InChI=1S/C9H13BrN2O12P2/c10-3-1-12(9(16)11-7(3)15)8-6(14)5(13)4(23-8)2-22-26(20,21)24-25(17,18)19/h1,4-6,8,13-14H,2H2,(H,20,21)(H,11,15,16)(H2,17,18,19)/t4-,5-,6-,8-/m1/s1

>  <IUPAC Name>  (1) 
[(2R,3S,4R,5R)-5-(5-bromo-2,4-dioxopyrimidin-1-yl)-3,4-dihydroxyoxolan-2-yl]methyl phosphono hydrogen phosphate

$$$$
