
     RDKit          3D

 41 41  0  0  0  0  0  0  0  0999 V2000
    8.5326   -0.2825   -1.3196 O   0  0  0  0  0  0  0  0  0  0  0  0
    7.4409    0.5651   -1.1746 C   0  0  0  0  0  0  0  0  0  0  0  0
    7.6288    1.7973   -1.3811 O   0  0  0  0  0  0  0  0  0  0  0  0
    6.1163    0.0801   -0.7992 C   0  0  0  0  0  0  0  0  0  0  0  0
    5.1017    0.9015   -0.6688 C   0  0  0  0  0  0  0  0  0  0  0  0
    3.7518    0.4915   -0.2974 C   0  0  0  0  0  0  0  0  0  0  0  0
    2.7270    1.4289   -0.1798 C   0  0  0  0  0  0  0  0  0  0  0  0
    1.4399    1.0735    0.1697 C   0  0  0  0  0  0  0  0  0  0  0  0
    1.1162   -0.2453    0.4196 C   0  0  0  0  0  0  0  0  0  0  0  0
    2.1126   -1.1950    0.3104 C   0  0  0  0  0  0  0  0  0  0  0  0
    3.3998   -0.8170   -0.0422 C   0  0  0  0  0  0  0  0  0  0  0  0
   -0.2527   -0.6869    0.7997 C   0  0  0  0  0  0  0  0  0  0  0  0
   -1.4037    0.6530    0.5341 P   0  0  0  0  0  0  0  0  0  0  0  0
   -1.2158    1.6964    1.6103 O   0  0  0  0  0  0  0  0  0  0  0  0
   -3.0869   -0.0449    0.6379 C   0  0  0  0  0  0  0  0  0  0  0  0
   -3.9735    0.8753   -0.1743 C   0  0  0  0  0  0  0  0  0  0  0  0
   -5.3904    0.3717   -0.1434 C   0  0  2  0  0  0  0  0  0  0  0  0
   -5.8141    0.3612    1.2994 C   0  0  0  0  0  0  0  0  0  0  0  0
   -5.8649    1.4510    1.9387 O   0  0  0  0  0  0  0  0  0  0  0  0
   -6.1540   -0.8032    1.9624 O   0  0  0  0  0  0  0  0  0  0  0  0
   -5.4088   -0.9830   -0.6605 N   0  0  0  0  0  0  0  0  0  0  0  0
   -1.2017    1.2695   -1.0190 O   0  0  0  0  0  0  0  0  0  0  0  0
   -0.5487   -1.8188    0.0463 O   0  0  0  0  0  0  0  0  0  0  0  0
    9.4726    0.0311   -1.0354 H   0  0  0  0  0  0  0  0  0  0  0  0
    5.9765   -0.9776   -0.6269 H   0  0  0  0  0  0  0  0  0  0  0  0
    5.2825    1.9472   -0.8491 H   0  0  0  0  0  0  0  0  0  0  0  0
    2.9304    2.4677   -0.3645 H   0  0  0  0  0  0  0  0  0  0  0  0
    0.6782    1.8373    0.2482 H   0  0  0  0  0  0  0  0  0  0  0  0
    1.8914   -2.2561    0.5022 H   0  0  0  0  0  0  0  0  0  0  0  0
    4.1252   -1.6027   -0.1092 H   0  0  0  0  0  0  0  0  0  0  0  0
   -0.2858   -1.0241    1.8697 H   0  0  0  0  0  0  0  0  0  0  0  0
   -3.4238   -0.1158    1.6747 H   0  0  0  0  0  0  0  0  0  0  0  0
   -3.0314   -1.0659    0.2083 H   0  0  0  0  0  0  0  0  0  0  0  0
   -3.8961    1.8763    0.3162 H   0  0  0  0  0  0  0  0  0  0  0  0
   -3.6338    0.9617   -1.2083 H   0  0  0  0  0  0  0  0  0  0  0  0
   -6.0501    1.0201   -0.7429 H   0  0  0  0  0  0  0  0  0  0  0  0
   -6.2686   -0.8319    2.9818 H   0  0  0  0  0  0  0  0  0  0  0  0
   -6.3549   -1.4304   -0.5143 H   0  0  0  0  0  0  0  0  0  0  0  0
   -5.1406   -0.9437   -1.6676 H   0  0  0  0  0  0  0  0  0  0  0  0
   -0.8295    0.6307   -1.6525 H   0  0  0  0  0  0  0  0  0  0  0  0
   -0.4945   -1.6016   -0.8988 H   0  0  0  0  0  0  0  0  0  0  0  0
  1  2  1  0
  2  3  2  0
  2  4  1  0
  4  5  2  0
  5  6  1  0
  6  7  2  0
  7  8  1  0
  8  9  2  0
  9 10  1  0
 10 11  2  0
  9 12  1  0
 12 13  1  0
 13 14  2  0
 13 15  1  0
 15 16  1  0
 16 17  1  0
 17 18  1  0
 18 19  2  0
 18 20  1  0
 17 21  1  0
 13 22  1  0
 12 23  1  0
 11  6  1  0
  1 24  1  0
  4 25  1  0
  5 26  1  0
  7 27  1  0
  8 28  1  0
 10 29  1  0
 11 30  1  0
 12 31  1  0
 15 32  1  0
 15 33  1  0
 16 34  1  0
 16 35  1  0
 17 36  1  6
 20 37  1  0
 21 38  1  0
 21 39  1  0
 22 40  1  0
 23 41  1  0
M  END
>  <Ligand ID>  (1) 
LIG0002533

>  <Ligand>  (1) 
US9212196, Derivative 11

>  <SMILES>  (1) 
OC(=O)/C=C/c1ccc(cc1)C(P(=O)(CC[C@H](C(=O)O)N)O)O

>  <CID>  (1) 
122197943.0

>  <ChEMBL ID>  (1) 
nan

>  <InChiKey>  (1) 
QKKOTCXCHRJFNS-WQMQZYANSA-N

>  <InChi>  (1) 
InChI=1S/C14H18NO7P/c15-11(13(18)19)7-8-23(21,22)14(20)10-4-1-9(2-5-10)3-6-12(16)17/h1-6,11,14,20H,7-8,15H2,(H,16,17)(H,18,19)(H,21,22)/b6-3+/t11-,14?/m1/s1

>  <IUPAC Name>  (1) 
(2R)-2-amino-4-[[[4-[(E)-2-carboxyethenyl]phenyl]-hydroxymethyl]-hydroxyphosphoryl]butanoic acid

$$$$
