
     RDKit          3D

 92 97  0  0  0  0  0  0  0  0999 V2000
   -1.4288   -1.7268    1.9822 O   0  0  0  0  0  0  0  0  0  0  0  0
   -0.8592   -0.4349    1.9332 C   0  0  2  0  0  0  0  0  0  0  0  0
   -1.4841    0.3946    0.8568 C   0  0  0  0  0  0  0  0  0  0  0  0
   -2.8458    0.6136    0.9939 O   0  0  0  0  0  0  0  0  0  0  0  0
   -3.5698    1.2573    1.9290 C   0  0  0  0  0  0  0  0  0  0  0  0
   -3.1045    1.9199    3.0399 C   0  0  0  0  0  0  0  0  0  0  0  0
   -3.9158    2.5610    3.9558 C   0  0  0  0  0  0  0  0  0  0  0  0
   -5.2579    2.5488    3.7643 C   0  0  0  0  0  0  0  0  0  0  0  0
   -5.7930    1.8910    2.6498 C   0  0  0  0  0  0  0  0  0  0  0  0
   -4.9667    1.2717    1.7724 C   0  0  0  0  0  0  0  0  0  0  0  0
   -5.8221    0.6214    0.6452 C   0  0  0  0  0  0  0  0  0  0  0  0
   -5.4097    1.3090   -0.5935 C   0  0  0  0  0  0  0  0  0  0  0  0
   -6.0158    1.0102   -1.8780 C   0  0  0  0  0  0  0  0  0  0  0  0
   -5.5478    0.1575   -2.8438 C   0  0  0  0  0  0  0  0  0  0  0  0
   -6.1661   -0.0866   -4.0457 C   0  0  0  0  0  0  0  0  0  0  0  0
   -7.3478    0.5499   -4.3506 C   0  0  0  0  0  0  0  0  0  0  0  0
   -7.8557    1.4149   -3.4144 C   0  0  0  0  0  0  0  0  0  0  0  0
   -7.2241    1.6586   -2.1973 C   0  0  0  0  0  0  0  0  0  0  0  0
   -5.5816   -0.8163    0.8646 C   0  0  0  0  0  0  0  0  0  0  0  0
   -6.2155   -1.8396    0.0466 C   0  0  0  0  0  0  0  0  0  0  0  0
   -5.6878   -2.4961   -1.0300 C   0  0  0  0  0  0  0  0  0  0  0  0
   -6.3424   -3.4588   -1.7652 C   0  0  0  0  0  0  0  0  0  0  0  0
   -7.6265   -3.8112   -1.4170 C   0  0  0  0  0  0  0  0  0  0  0  0
   -8.2130   -3.1716   -0.3240 C   0  0  0  0  0  0  0  0  0  0  0  0
   -7.5276   -2.2099    0.3920 C   0  0  0  0  0  0  0  0  0  0  0  0
   -7.1886    1.0396    1.0895 C   0  0  0  0  0  0  0  0  0  0  0  0
   -8.3013    0.7924    0.5104 O   0  0  0  0  0  0  0  0  0  0  0  0
   -7.1395    1.7826    2.2882 N   0  0  0  0  0  0  0  0  0  0  0  0
    0.6459   -0.6323    1.7003 C   0  0  0  0  0  0  0  0  0  0  0  0
    1.2045    0.6863    1.6439 N   0  0  0  0  0  0  0  0  0  0  0  0
    2.6205    0.7522    1.4675 C   0  0  0  0  0  0  0  0  0  0  0  0
    3.1543    0.0829    0.2488 C   0  0  0  0  0  0  0  0  0  0  0  0
    4.6426    0.2563    0.2347 C   0  0  0  0  0  0  0  0  0  0  0  0
    5.4562   -0.6744    0.8473 C   0  0  0  0  0  0  0  0  0  0  0  0
    6.8369   -0.5739    0.8686 C   0  0  0  0  0  0  0  0  0  0  0  0
    7.4410    0.5003    0.2533 C   0  0  0  0  0  0  0  0  0  0  0  0
    6.6482    1.4517   -0.3706 C   0  0  0  0  0  0  0  0  0  0  0  0
    5.2591    1.3249   -0.3764 C   0  0  0  0  0  0  0  0  0  0  0  0
    8.8251    0.5766    0.2893 O   0  0  0  0  0  0  0  0  0  0  0  0
    9.5605   -0.0369   -0.7153 C   0  0  0  0  0  0  0  0  0  0  0  0
    8.9669   -0.7334   -1.7598 C   0  0  0  0  0  0  0  0  0  0  0  0
    9.8111   -1.3016   -2.6998 C   0  0  0  0  0  0  0  0  0  0  0  0
   11.1873   -1.1774   -2.5976 C   0  0  0  0  0  0  0  0  0  0  0  0
   11.7184   -0.4748   -1.5396 C   0  0  0  0  0  0  0  0  0  0  0  0
   10.9103    0.0827   -0.6187 N   0  0  0  0  0  0  0  0  0  0  0  0
   12.0412   -1.7994   -3.6220 C   0  0  0  0  0  0  0  0  0  0  0  0
   11.5151   -2.4228   -4.5581 O   0  0  0  0  0  0  0  0  0  0  0  0
   13.4646   -1.6512   -3.4848 N   0  0  0  0  0  0  0  0  0  0  0  0
    2.9638    2.2421    1.3279 C   0  0  0  0  0  0  0  0  0  0  0  0
    3.3674    0.3021    2.7194 C   0  0  0  0  0  0  0  0  0  0  0  0
   -0.7694   -2.2668    2.5265 H   0  0  0  0  0  0  0  0  0  0  0  0
   -1.0435   -0.0189    2.9328 H   0  0  0  0  0  0  0  0  0  0  0  0
   -0.9155    1.3693    0.7325 H   0  0  0  0  0  0  0  0  0  0  0  0
   -1.3214   -0.1522   -0.1249 H   0  0  0  0  0  0  0  0  0  0  0  0
   -2.0466    1.9771    3.2269 H   0  0  0  0  0  0  0  0  0  0  0  0
   -3.4936    3.0736    4.8251 H   0  0  0  0  0  0  0  0  0  0  0  0
   -5.8928    3.0473    4.4766 H   0  0  0  0  0  0  0  0  0  0  0  0
   -5.6206    2.4213   -0.4089 H   0  0  0  0  0  0  0  0  0  0  0  0
   -4.2756    1.3320   -0.7036 H   0  0  0  0  0  0  0  0  0  0  0  0
   -4.6196   -0.3489   -2.6537 H   0  0  0  0  0  0  0  0  0  0  0  0
   -5.7611   -0.7760   -4.7910 H   0  0  0  0  0  0  0  0  0  0  0  0
   -7.8583    0.3875   -5.2702 H   0  0  0  0  0  0  0  0  0  0  0  0
   -8.7919    1.9250   -3.6449 H   0  0  0  0  0  0  0  0  0  0  0  0
   -7.6968    2.3578   -1.5534 H   0  0  0  0  0  0  0  0  0  0  0  0
   -4.4649   -1.0006    0.8871 H   0  0  0  0  0  0  0  0  0  0  0  0
   -5.8326   -0.9874    1.9786 H   0  0  0  0  0  0  0  0  0  0  0  0
   -4.6765   -2.2504   -1.3157 H   0  0  0  0  0  0  0  0  0  0  0  0
   -5.9079   -3.9661   -2.6137 H   0  0  0  0  0  0  0  0  0  0  0  0
   -8.1816   -4.5601   -1.9625 H   0  0  0  0  0  0  0  0  0  0  0  0
   -9.2307   -3.4570   -0.0552 H   0  0  0  0  0  0  0  0  0  0  0  0
   -8.0465   -1.7743    1.2290 H   0  0  0  0  0  0  0  0  0  0  0  0
   -7.9746    2.1814    2.8116 H   0  0  0  0  0  0  0  0  0  0  0  0
    0.7358   -1.2255    0.7827 H   0  0  0  0  0  0  0  0  0  0  0  0
    1.0079   -1.2219    2.5616 H   0  0  0  0  0  0  0  0  0  0  0  0
    1.0077    1.1215    2.5874 H   0  0  0  0  0  0  0  0  0  0  0  0
    2.9784   -1.0123    0.2298 H   0  0  0  0  0  0  0  0  0  0  0  0
    2.7861    0.5211   -0.6786 H   0  0  0  0  0  0  0  0  0  0  0  0
    5.0521   -1.5573    1.3577 H   0  0  0  0  0  0  0  0  0  0  0  0
    7.4552   -1.3320    1.3651 H   0  0  0  0  0  0  0  0  0  0  0  0
    7.1584    2.2789   -0.8414 H   0  0  0  0  0  0  0  0  0  0  0  0
    4.6417    2.0812   -0.8707 H   0  0  0  0  0  0  0  0  0  0  0  0
    7.8848   -0.8133   -1.8124 H   0  0  0  0  0  0  0  0  0  0  0  0
    9.3637   -1.8486   -3.5221 H   0  0  0  0  0  0  0  0  0  0  0  0
   12.8111   -0.3965   -1.4907 H   0  0  0  0  0  0  0  0  0  0  0  0
   14.0516   -2.4344   -3.1660 H   0  0  0  0  0  0  0  0  0  0  0  0
   13.9205   -0.7185   -3.7159 H   0  0  0  0  0  0  0  0  0  0  0  0
    4.0290    2.4240    1.4587 H   0  0  0  0  0  0  0  0  0  0  0  0
    2.3767    2.8256    2.0865 H   0  0  0  0  0  0  0  0  0  0  0  0
    2.6271    2.6073    0.3297 H   0  0  0  0  0  0  0  0  0  0  0  0
    2.9476    0.8299    3.6174 H   0  0  0  0  0  0  0  0  0  0  0  0
    4.4274    0.6234    2.6819 H   0  0  0  0  0  0  0  0  0  0  0  0
    3.3568   -0.7885    2.8634 H   0  0  0  0  0  0  0  0  0  0  0  0
  1  2  1  0
  2  3  1  0
  3  4  1  0
  4  5  1  0
  5  6  2  0
  6  7  1  0
  7  8  2  0
  8  9  1  0
  9 10  2  0
 10 11  1  0
 11 12  1  0
 12 13  1  0
 13 14  2  0
 14 15  1  0
 15 16  2  0
 16 17  1  0
 17 18  2  0
 11 19  1  0
 19 20  1  0
 20 21  2  0
 21 22  1  0
 22 23  2  0
 23 24  1  0
 24 25  2  0
 11 26  1  0
 26 27  2  0
 26 28  1  0
  2 29  1  0
 29 30  1  0
 30 31  1  0
 31 32  1  0
 32 33  1  0
 33 34  2  0
 34 35  1  0
 35 36  2  0
 36 37  1  0
 37 38  2  0
 36 39  1  0
 39 40  1  0
 40 41  2  0
 41 42  1  0
 42 43  2  0
 43 44  1  0
 44 45  2  0
 43 46  1  0
 46 47  2  0
 46 48  1  0
 31 49  1  0
 31 50  1  0
 10  5  1  0
 18 13  1  0
 25 20  1  0
 38 33  1  0
 45 40  1  0
 28  9  1  0
  1 51  1  0
  2 52  1  1
  3 53  1  0
  3 54  1  0
  6 55  1  0
  7 56  1  0
  8 57  1  0
 12 58  1  0
 12 59  1  0
 14 60  1  0
 15 61  1  0
 16 62  1  0
 17 63  1  0
 18 64  1  0
 19 65  1  0
 19 66  1  0
 21 67  1  0
 22 68  1  0
 23 69  1  0
 24 70  1  0
 25 71  1  0
 28 72  1  0
 29 73  1  0
 29 74  1  0
 30 75  1  0
 32 76  1  0
 32 77  1  0
 34 78  1  0
 35 79  1  0
 37 80  1  0
 38 81  1  0
 41 82  1  0
 42 83  1  0
 44 84  1  0
 48 85  1  0
 48 86  1  0
 49 87  1  0
 49 88  1  0
 49 89  1  0
 50 90  1  0
 50 91  1  0
 50 92  1  0
M  END
>  <Ligand ID>  (1) 
LIG0003395

>  <Ligand>  (1) 
CHEMBL250579

>  <SMILES>  (1) 
O[C@H](COc1cccc2c1C(Cc1ccccc1)(Cc1ccccc1)C(=O)N2)CNC(Cc1ccc(cc1)Oc1ccc(cn1)C(=O)N)(C)C

>  <CID>  (1) 
44444172.0

>  <ChEMBL ID>  (1) 
nan

>  <InChiKey>  (1) 
BGHYFJPSEDCVLZ-YTTGMZPUSA-N

>  <InChi>  (1) 
InChI=1S/C41H42N4O5/c1-40(2,22-30-16-19-33(20-17-30)50-36-21-18-31(25-43-36)38(42)47)44-26-32(46)27-49-35-15-9-14-34-37(35)41(39(48)45-34,23-28-10-5-3-6-11-28)24-29-12-7-4-8-13-29/h3-21,25,32,44,46H,22-24,26-27H2,1-2H3,(H2,42,47)(H,45,48)/t32-/m0/s1

>  <IUPAC Name>  (1) 
6-[4-[2-[[(2S)-3-[(3,3-dibenzyl-2-oxo-1H-indol-4-yl)oxy]-2-hydroxypropyl]amino]-2-methylpropyl]phenoxy]pyridine-3-carboxamide

$$$$
