
     RDKit          3D

109113  0  0  0  0  0  0  0  0999 V2000
    5.2261   -0.1274   -2.7268 O   0  0  0  0  0  0  0  0  0  0  0  0
    5.8141   -0.6624   -1.7524 C   0  0  0  0  0  0  0  0  0  0  0  0
    5.0412   -1.4244   -0.8164 N   0  0  0  0  0  0  0  0  0  0  0  0
    3.6112   -1.5284   -1.0261 C   0  0  2  0  0  0  0  0  0  0  0  0
    2.8937   -1.1589    0.2311 C   0  0  0  0  0  0  0  0  0  0  0  0
    3.6136   -0.7716    1.1746 O   0  0  0  0  0  0  0  0  0  0  0  0
    1.5050   -1.2215    0.4114 N   0  0  0  0  0  0  0  0  0  0  0  0
    0.6873   -0.9556    1.4994 C   0  0  2  0  0  0  0  0  0  0  0  0
   -0.4811   -0.1246    1.2023 C   0  0  0  0  0  0  0  0  0  0  0  0
   -1.1329    0.3260    2.2136 O   0  0  0  0  0  0  0  0  0  0  0  0
   -0.9825    0.2406   -0.0546 N   0  0  0  0  0  0  0  0  0  0  0  0
   -2.1650    1.0958   -0.0617 C   0  0  2  0  0  0  0  0  0  0  0  0
   -3.3887    0.2700    0.2607 C   0  0  0  0  0  0  0  0  0  0  0  0
   -3.2354   -0.9359    0.4577 O   0  0  0  0  0  0  0  0  0  0  0  0
   -4.6090    0.9893    0.3076 N   0  0  0  0  0  0  0  0  0  0  0  0
   -5.8132    0.2213    0.6332 C   0  0  2  0  0  0  0  0  0  0  0  0
   -6.8304    0.3410   -0.4055 C   0  0  0  0  0  0  0  0  0  0  0  0
   -6.7276    1.1497   -1.3816 O   0  0  0  0  0  0  0  0  0  0  0  0
   -7.9859   -0.4959   -0.3157 N   0  0  0  0  0  0  0  0  0  0  0  0
   -6.3188    0.7201    1.9603 C   0  0  0  0  0  0  0  0  0  0  0  0
   -6.6329    2.1481    1.9975 C   0  0  0  0  0  0  0  0  0  0  0  0
   -5.7010    3.0910    2.4769 C   0  0  0  0  0  0  0  0  0  0  0  0
   -6.2164    4.3178    2.3841 N   0  0  0  0  0  0  0  0  0  0  0  0
   -7.4421    4.2399    1.8689 C   0  0  0  0  0  0  0  0  0  0  0  0
   -7.7016    2.9056    1.6297 C   0  0  0  0  0  0  0  0  0  0  0  0
   -8.9245    2.5649    1.1084 C   0  0  0  0  0  0  0  0  0  0  0  0
   -9.8790    3.5152    0.8247 C   0  0  0  0  0  0  0  0  0  0  0  0
   -9.6129    4.8615    1.0667 C   0  0  0  0  0  0  0  0  0  0  0  0
   -8.3800    5.1886    1.5908 C   0  0  0  0  0  0  0  0  0  0  0  0
   -2.4267    1.7604   -1.3623 C   0  0  0  0  0  0  0  0  0  0  0  0
   -2.6544    0.7733   -2.4916 C   0  0  0  0  0  0  0  0  0  0  0  0
   -2.9372    1.4698   -3.8013 C   0  0  0  0  0  0  0  0  0  0  0  0
   -3.1801    0.5584   -4.8655 N   0  0  0  0  0  0  0  0  0  0  0  0
   -2.9394   -0.6684   -4.9938 C   0  0  0  0  0  0  0  0  0  0  0  0
   -2.3235   -1.5376   -4.0647 N   0  0  0  0  0  0  0  0  0  0  0  0
   -3.3436   -1.2821   -6.2436 N   0  0  0  0  0  0  0  0  0  0  0  0
    1.1002   -0.8343    2.9169 C   0  0  0  0  0  0  0  0  0  0  0  0
    1.6701   -2.0627    3.5054 C   0  0  0  0  0  0  0  0  0  0  0  0
    2.9691   -2.3322    3.7878 C   0  0  0  0  0  0  0  0  0  0  0  0
    3.3874   -3.5663    4.2946 C   0  0  0  0  0  0  0  0  0  0  0  0
    2.4390   -4.5676    4.5235 C   0  0  0  0  0  0  0  0  0  0  0  0
    1.1335   -4.3152    4.2487 C   0  0  0  0  0  0  0  0  0  0  0  0
    0.7323   -3.0899    3.7471 C   0  0  0  0  0  0  0  0  0  0  0  0
    3.2455   -2.9184   -1.3996 C   0  0  0  0  0  0  0  0  0  0  0  0
    3.5334   -3.9886   -0.4461 C   0  0  0  0  0  0  0  0  0  0  0  0
    4.0729   -4.0559    0.7655 N   0  0  0  0  0  0  0  0  0  0  0  0
    4.1029   -5.3412    1.2185 C   0  0  0  0  0  0  0  0  0  0  0  0
    3.5681   -6.0936    0.2654 N   0  0  0  0  0  0  0  0  0  0  0  0
    3.2070   -5.3287   -0.7620 C   0  0  0  0  0  0  0  0  0  0  0  0
    7.2682   -0.5548   -1.4931 C   0  0  0  0  0  0  0  0  0  0  0  0
    7.9393    0.3731   -2.4744 C   0  0  0  0  0  0  0  0  0  0  0  0
    7.3959    1.7708   -2.4350 C   0  0  0  0  0  0  0  0  0  0  0  0
    7.5742    2.3007   -1.0433 C   0  0  0  0  0  0  0  0  0  0  0  0
    8.7528    2.9171   -0.7075 C   0  0  0  0  0  0  0  0  0  0  0  0
    8.9104    3.3995    0.5624 C   0  0  0  0  0  0  0  0  0  0  0  0
    7.9418    3.3016    1.5327 C   0  0  0  0  0  0  0  0  0  0  0  0
    6.7636    2.6814    1.1803 C   0  0  0  0  0  0  0  0  0  0  0  0
    6.5773    2.1796   -0.1066 C   0  0  0  0  0  0  0  0  0  0  0  0
    5.5632   -1.8579   -0.0399 H   0  0  0  0  0  0  0  0  0  0  0  0
    3.3000   -0.8456   -1.8667 H   0  0  0  0  0  0  0  0  0  0  0  0
    0.9830   -1.5420   -0.4993 H   0  0  0  0  0  0  0  0  0  0  0  0
    0.1327   -2.0464    1.6116 H   0  0  0  0  0  0  0  0  0  0  0  0
   -0.4952   -0.1021   -0.9022 H   0  0  0  0  0  0  0  0  0  0  0  0
   -2.1343    1.8093    0.7616 H   0  0  0  0  0  0  0  0  0  0  0  0
   -4.7059    2.0130    0.1272 H   0  0  0  0  0  0  0  0  0  0  0  0
   -5.5477   -0.8612    0.7635 H   0  0  0  0  0  0  0  0  0  0  0  0
   -8.4451   -0.7173    0.6003 H   0  0  0  0  0  0  0  0  0  0  0  0
   -8.3445   -0.8725   -1.2242 H   0  0  0  0  0  0  0  0  0  0  0  0
   -7.2409    0.1341    2.2265 H   0  0  0  0  0  0  0  0  0  0  0  0
   -5.5822    0.4307    2.7527 H   0  0  0  0  0  0  0  0  0  0  0  0
   -4.7078    2.8607    2.8661 H   0  0  0  0  0  0  0  0  0  0  0  0
   -5.7276    5.2016    2.6724 H   0  0  0  0  0  0  0  0  0  0  0  0
   -9.1366    1.5439    0.9372 H   0  0  0  0  0  0  0  0  0  0  0  0
  -10.8243    3.1731    0.4135 H   0  0  0  0  0  0  0  0  0  0  0  0
  -10.3636    5.5990    0.8438 H   0  0  0  0  0  0  0  0  0  0  0  0
   -8.1217    6.2203    1.7975 H   0  0  0  0  0  0  0  0  0  0  0  0
   -1.5608    2.4031   -1.6254 H   0  0  0  0  0  0  0  0  0  0  0  0
   -3.2953    2.4345   -1.3396 H   0  0  0  0  0  0  0  0  0  0  0  0
   -3.4541    0.0607   -2.2846 H   0  0  0  0  0  0  0  0  0  0  0  0
   -1.6876    0.2209   -2.6574 H   0  0  0  0  0  0  0  0  0  0  0  0
   -2.1261    2.2112   -4.0578 H   0  0  0  0  0  0  0  0  0  0  0  0
   -3.8666    2.1140   -3.6809 H   0  0  0  0  0  0  0  0  0  0  0  0
   -1.2818   -1.6842   -4.0447 H   0  0  0  0  0  0  0  0  0  0  0  0
   -2.8535   -2.0911   -3.3424 H   0  0  0  0  0  0  0  0  0  0  0  0
   -4.3752   -1.4600   -6.4388 H   0  0  0  0  0  0  0  0  0  0  0  0
   -2.6080   -1.5433   -6.9359 H   0  0  0  0  0  0  0  0  0  0  0  0
    0.1551   -0.6215    3.5107 H   0  0  0  0  0  0  0  0  0  0  0  0
    1.6831    0.0847    3.1703 H   0  0  0  0  0  0  0  0  0  0  0  0
    3.7110   -1.5978    3.6506 H   0  0  0  0  0  0  0  0  0  0  0  0
    4.4283   -3.7669    4.5148 H   0  0  0  0  0  0  0  0  0  0  0  0
    2.7435   -5.5515    4.9173 H   0  0  0  0  0  0  0  0  0  0  0  0
    0.4189   -5.1203    4.4401 H   0  0  0  0  0  0  0  0  0  0  0  0
   -0.3148   -2.9578    3.5520 H   0  0  0  0  0  0  0  0  0  0  0  0
    2.1354   -2.9726   -1.6163 H   0  0  0  0  0  0  0  0  0  0  0  0
    3.7854   -3.2274   -2.3680 H   0  0  0  0  0  0  0  0  0  0  0  0
    4.4327   -3.2907    1.3459 H   0  0  0  0  0  0  0  0  0  0  0  0
    4.4716   -5.7279    2.1551 H   0  0  0  0  0  0  0  0  0  0  0  0
    2.7422   -5.6794   -1.6864 H   0  0  0  0  0  0  0  0  0  0  0  0
    7.7865   -1.5393   -1.5218 H   0  0  0  0  0  0  0  0  0  0  0  0
    7.4438   -0.1449   -0.4746 H   0  0  0  0  0  0  0  0  0  0  0  0
    7.7875   -0.0615   -3.5013 H   0  0  0  0  0  0  0  0  0  0  0  0
    9.0270    0.4550   -2.2295 H   0  0  0  0  0  0  0  0  0  0  0  0
    6.3504    1.8657   -2.7194 H   0  0  0  0  0  0  0  0  0  0  0  0
    7.9659    2.4274   -3.1444 H   0  0  0  0  0  0  0  0  0  0  0  0
    9.5504    3.0373   -1.4126 H   0  0  0  0  0  0  0  0  0  0  0  0
    9.8599    3.8884    0.8059 H   0  0  0  0  0  0  0  0  0  0  0  0
    8.0237    3.6623    2.5340 H   0  0  0  0  0  0  0  0  0  0  0  0
    5.9674    2.5795    1.9044 H   0  0  0  0  0  0  0  0  0  0  0  0
    5.6412    1.7246   -0.3038 H   0  0  0  0  0  0  0  0  0  0  0  0
  1  2  2  0
  2  3  1  0
  3  4  1  0
  4  5  1  0
  5  6  2  0
  5  7  1  0
  7  8  1  0
  8  9  1  0
  9 10  2  0
  9 11  1  0
 11 12  1  0
 12 13  1  0
 13 14  2  0
 13 15  1  0
 15 16  1  0
 16 17  1  0
 17 18  2  0
 17 19  1  0
 16 20  1  0
 20 21  1  0
 21 22  2  0
 22 23  1  0
 23 24  1  0
 24 25  2  0
 25 26  1  0
 26 27  2  0
 27 28  1  0
 28 29  2  0
 12 30  1  0
 30 31  1  0
 31 32  1  0
 32 33  1  0
 33 34  2  3
 34 35  1  0
 34 36  1  0
  8 37  1  0
 37 38  1  0
 38 39  2  0
 39 40  1  0
 40 41  2  0
 41 42  1  0
 42 43  2  0
  4 44  1  0
 44 45  1  0
 45 46  1  0
 46 47  1  0
 47 48  2  0
 48 49  1  0
  2 50  1  0
 50 51  1  0
 51 52  1  0
 52 53  1  0
 53 54  2  0
 54 55  1  0
 55 56  2  0
 56 57  1  0
 57 58  2  0
 25 21  1  0
 43 38  1  0
 49 45  2  0
 58 53  1  0
 29 24  1  0
  3 59  1  0
  4 60  1  6
  7 61  1  0
  8 62  1  1
 11 63  1  0
 12 64  1  1
 15 65  1  0
 16 66  1  1
 19 67  1  0
 19 68  1  0
 20 69  1  0
 20 70  1  0
 22 71  1  0
 23 72  1  0
 26 73  1  0
 27 74  1  0
 28 75  1  0
 29 76  1  0
 30 77  1  0
 30 78  1  0
 31 79  1  0
 31 80  1  0
 32 81  1  0
 32 82  1  0
 35 83  1  0
 35 84  1  0
 36 85  1  0
 36 86  1  0
 37 87  1  0
 37 88  1  0
 39 89  1  0
 40 90  1  0
 41 91  1  0
 42 92  1  0
 43 93  1  0
 44 94  1  0
 44 95  1  0
 46 96  1  0
 47 97  1  0
 49 98  1  0
 50 99  1  0
 50100  1  0
 51101  1  0
 51102  1  0
 52103  1  0
 52104  1  0
 54105  1  0
 55106  1  0
 56107  1  0
 57108  1  0
 58109  1  0
M  END
>  <Ligand ID>  (1) 
LIG0002674

>  <Ligand>  (1) 
CHEMBL431801

>  <SMILES>  (1) 
O=C(N[C@H](C(=O)N[C@H](C(=O)N[C@H](C(=O)N[C@H](C(=O)N)Cc1c[nH]c2c1cccc2)CCCN=C(N)N)Cc1ccccc1)Cc1[nH]cnc1)CCCc1ccccc1

>  <CID>  (1) 
44322896.0

>  <ChEMBL ID>  (1) 
nan

>  <InChiKey>  (1) 
CHNMWUKSZIMHIX-ZYADHFCISA-N

>  <InChi>  (1) 
InChI=1S/C42H51N11O5/c43-38(55)34(22-29-24-48-32-17-8-7-16-31(29)32)52-39(56)33(18-10-20-47-42(44)45)51-40(57)35(21-28-13-5-2-6-14-28)53-41(58)36(23-30-25-46-26-49-30)50-37(54)19-9-15-27-11-3-1-4-12-27/h1-8,11-14,16-17,24-26,33-36,48H,9-10,15,18-23H2,(H2,43,55)(H,46,49)(H,50,54)(H,51,57)(H,52,56)(H,53,58)(H4,44,45,47)/t33-,34-,35-,36-/m0/s1

>  <IUPAC Name>  (1) 
(2S)-N-[(2S)-1-amino-3-(1H-indol-3-yl)-1-oxopropan-2-yl]-5-(diaminomethylideneamino)-2-[[(2S)-2-[[(2S)-3-(1H-imidazol-5-yl)-2-(4-phenylbutanoylamino)propanoyl]amino]-3-phenylpropanoyl]amino]pentanamide

$$$$
