
     RDKit          3D

 99103  0  0  0  0  0  0  0  0999 V2000
    3.8703   -6.9459    0.1433 N   0  0  0  0  0  0  0  0  0  0  0  0
    3.3601   -6.2610    1.2896 C   0  0  0  0  0  0  0  0  0  0  0  0
    3.6884   -5.0154    1.5296 N   0  0  0  0  0  0  0  0  0  0  0  0
    4.5730   -4.3088    0.6405 C   0  0  0  0  0  0  0  0  0  0  0  0
    4.2396   -2.8067    0.6319 C   0  0  0  0  0  0  0  0  0  0  0  0
    2.8188   -2.6111    0.1635 C   0  0  0  0  0  0  0  0  0  0  0  0
    2.3585   -1.1942    0.1177 C   0  0  1  0  0  0  0  0  0  0  0  0
    3.1629   -0.3212   -0.7933 C   0  0  0  0  0  0  0  0  0  0  0  0
    4.3683   -0.1710   -0.4794 O   0  0  0  0  0  0  0  0  0  0  0  0
    2.5699    0.2816   -1.9283 N   0  0  0  0  0  0  0  0  0  0  0  0
    3.2942    1.1406   -2.8684 C   0  0  2  0  0  0  0  0  0  0  0  0
    4.5284    0.5391   -3.3070 C   0  0  0  0  0  0  0  0  0  0  0  0
    5.2291    1.1446   -4.1983 O   0  0  0  0  0  0  0  0  0  0  0  0
    5.0991   -0.6906   -2.8669 N   0  0  0  0  0  0  0  0  0  0  0  0
    3.2573    2.5515   -2.4171 C   0  0  0  0  0  0  0  0  0  0  0  0
    3.8402    2.7713   -1.0283 C   0  0  0  0  0  0  0  0  0  0  0  0
    2.8692    2.7184    0.0240 C   0  0  0  0  0  0  0  0  0  0  0  0
    3.8856    2.9347    1.5603 S   0  0  0  0  0  0  0  0  0  0  0  0
    5.4740    3.0717    0.6391 C   0  0  0  0  0  0  0  0  0  0  0  0
    5.1029    2.9468   -0.6822 C   0  0  0  0  0  0  0  0  0  0  0  0
    6.2205    3.0505   -1.5589 C   0  0  0  0  0  0  0  0  0  0  0  0
    7.4819    3.2468   -1.0644 C   0  0  0  0  0  0  0  0  0  0  0  0
    7.7762    3.3599    0.2801 C   0  0  0  0  0  0  0  0  0  0  0  0
    6.6939    3.2628    1.1409 C   0  0  0  0  0  0  0  0  0  0  0  0
    0.9634   -1.1702   -0.3623 N   0  0  0  0  0  0  0  0  0  0  0  0
   -0.0413   -0.4501    0.3516 C   0  0  0  0  0  0  0  0  0  0  0  0
    0.2660    0.1718    1.3993 O   0  0  0  0  0  0  0  0  0  0  0  0
   -1.4112   -0.4767   -0.1963 C   0  0  2  0  0  0  0  0  0  0  0  0
   -2.3052    0.4132    0.5629 N   0  0  0  0  0  0  0  0  0  0  0  0
   -3.2467    1.2429   -0.1209 C   0  0  0  0  0  0  0  0  0  0  0  0
   -3.2440    1.1380   -1.3859 O   0  0  0  0  0  0  0  0  0  0  0  0
   -4.1655    2.1631    0.5949 C   0  0  2  0  0  0  0  0  0  0  0  0
   -4.2875    3.4829   -0.0981 C   0  0  0  0  0  0  0  0  0  0  0  0
   -4.8271    3.2867   -1.4889 C   0  0  0  0  0  0  0  0  0  0  0  0
   -4.1556    3.3587   -2.6900 C   0  0  0  0  0  0  0  0  0  0  0  0
   -5.0112    3.1251   -3.7007 N   0  0  0  0  0  0  0  0  0  0  0  0
   -6.2611    2.8937   -3.2081 C   0  0  0  0  0  0  0  0  0  0  0  0
   -6.1487    2.9944   -1.8223 C   0  0  0  0  0  0  0  0  0  0  0  0
   -7.3043    2.7961   -1.0686 C   0  0  0  0  0  0  0  0  0  0  0  0
   -8.4930    2.5155   -1.6624 C   0  0  0  0  0  0  0  0  0  0  0  0
   -8.6174    2.4123   -3.0448 C   0  0  0  0  0  0  0  0  0  0  0  0
   -7.4778    2.6065   -3.8188 C   0  0  0  0  0  0  0  0  0  0  0  0
   -3.9381    2.1992    1.9995 N   0  0  0  0  0  0  0  0  0  0  0  0
   -4.8344    1.7010    2.9917 C   0  0  0  0  0  0  0  0  0  0  0  0
   -5.9341    1.1700    2.7270 O   0  0  0  0  0  0  0  0  0  0  0  0
   -4.3912    1.8431    4.4287 C   0  0  0  0  0  0  0  0  0  0  0  0
   -1.9843   -1.8874   -0.1091 C   0  0  0  0  0  0  0  0  0  0  0  0
   -2.0683   -2.4124    1.2476 C   0  0  0  0  0  0  0  0  0  0  0  0
   -1.0720   -3.1460    1.8744 C   0  0  0  0  0  0  0  0  0  0  0  0
   -1.1984   -3.6228    3.1632 C   0  0  0  0  0  0  0  0  0  0  0  0
   -2.3553   -3.3666    3.8652 C   0  0  0  0  0  0  0  0  0  0  0  0
   -3.3732   -2.6423    3.2849 C   0  0  0  0  0  0  0  0  0  0  0  0
   -3.2118   -2.1830    1.9976 C   0  0  0  0  0  0  0  0  0  0  0  0
   -2.4960   -4.1180    5.8331 I   0  0  0  0  0  0  0  0  0  0  0  0
    2.4927   -6.9723    2.1549 N   0  0  0  0  0  0  0  0  0  0  0  0
    3.2223   -7.5071   -0.4545 H   0  0  0  0  0  0  0  0  0  0  0  0
    4.8897   -6.9084   -0.1311 H   0  0  0  0  0  0  0  0  0  0  0  0
    4.3631   -4.7023   -0.3975 H   0  0  0  0  0  0  0  0  0  0  0  0
    5.6438   -4.4378    0.8599 H   0  0  0  0  0  0  0  0  0  0  0  0
    4.9854   -2.3024   -0.0343 H   0  0  0  0  0  0  0  0  0  0  0  0
    4.3938   -2.4452    1.6708 H   0  0  0  0  0  0  0  0  0  0  0  0
    2.7333   -3.0836   -0.8424 H   0  0  0  0  0  0  0  0  0  0  0  0
    2.1388   -3.1985    0.8358 H   0  0  0  0  0  0  0  0  0  0  0  0
    2.3596   -0.7568    1.1156 H   0  0  0  0  0  0  0  0  0  0  0  0
    1.5345    0.0702   -2.0627 H   0  0  0  0  0  0  0  0  0  0  0  0
    2.5599    1.1347   -3.7844 H   0  0  0  0  0  0  0  0  0  0  0  0
    6.1126   -0.7593   -2.5694 H   0  0  0  0  0  0  0  0  0  0  0  0
    4.4909   -1.5503   -2.8430 H   0  0  0  0  0  0  0  0  0  0  0  0
    2.2495    2.9530   -2.4942 H   0  0  0  0  0  0  0  0  0  0  0  0
    3.8935    3.2166   -3.0620 H   0  0  0  0  0  0  0  0  0  0  0  0
    1.8410    2.5939    0.0084 H   0  0  0  0  0  0  0  0  0  0  0  0
    6.1006    2.9978   -2.6195 H   0  0  0  0  0  0  0  0  0  0  0  0
    8.3020    3.3177   -1.7705 H   0  0  0  0  0  0  0  0  0  0  0  0
    8.7613    3.5125    0.6791 H   0  0  0  0  0  0  0  0  0  0  0  0
    6.8166    3.3385    2.2285 H   0  0  0  0  0  0  0  0  0  0  0  0
    0.7505   -1.7007   -1.2418 H   0  0  0  0  0  0  0  0  0  0  0  0
   -1.4984   -0.1726   -1.2537 H   0  0  0  0  0  0  0  0  0  0  0  0
   -2.2632    0.4520    1.6188 H   0  0  0  0  0  0  0  0  0  0  0  0
   -5.1868    1.6719    0.4579 H   0  0  0  0  0  0  0  0  0  0  0  0
   -4.8614    4.2313    0.4549 H   0  0  0  0  0  0  0  0  0  0  0  0
   -3.2706    3.9049   -0.2246 H   0  0  0  0  0  0  0  0  0  0  0  0
   -3.1085    3.5702   -2.7744 H   0  0  0  0  0  0  0  0  0  0  0  0
   -4.8395    3.1034   -4.7336 H   0  0  0  0  0  0  0  0  0  0  0  0
   -7.2552    2.8654    0.0031 H   0  0  0  0  0  0  0  0  0  0  0  0
   -9.4035    2.3574   -1.0986 H   0  0  0  0  0  0  0  0  0  0  0  0
   -9.5902    2.1829   -3.5103 H   0  0  0  0  0  0  0  0  0  0  0  0
   -7.5557    2.5296   -4.9117 H   0  0  0  0  0  0  0  0  0  0  0  0
   -3.0197    2.6358    2.3231 H   0  0  0  0  0  0  0  0  0  0  0  0
   -3.9516    0.8835    4.7425 H   0  0  0  0  0  0  0  0  0  0  0  0
   -3.6915    2.6953    4.5526 H   0  0  0  0  0  0  0  0  0  0  0  0
   -5.3171    1.9908    5.0380 H   0  0  0  0  0  0  0  0  0  0  0  0
   -2.9927   -1.8675   -0.5973 H   0  0  0  0  0  0  0  0  0  0  0  0
   -1.3697   -2.5387   -0.7798 H   0  0  0  0  0  0  0  0  0  0  0  0
   -0.1887   -3.3349    1.3181 H   0  0  0  0  0  0  0  0  0  0  0  0
   -0.3951   -4.1823    3.5941 H   0  0  0  0  0  0  0  0  0  0  0  0
   -4.2897   -2.4387    3.8384 H   0  0  0  0  0  0  0  0  0  0  0  0
   -4.0555   -1.6103    1.5827 H   0  0  0  0  0  0  0  0  0  0  0  0
    1.9028   -7.7655    1.8367 H   0  0  0  0  0  0  0  0  0  0  0  0
    2.4291   -6.7070    3.1544 H   0  0  0  0  0  0  0  0  0  0  0  0
  1  2  1  0
  2  3  2  3
  3  4  1  0
  4  5  1  0
  5  6  1  0
  6  7  1  0
  7  8  1  0
  8  9  2  0
  8 10  1  0
 10 11  1  0
 11 12  1  0
 12 13  2  0
 12 14  1  0
 11 15  1  0
 15 16  1  0
 16 17  2  0
 17 18  1  0
 18 19  1  0
 19 20  2  0
 20 21  1  0
 21 22  2  0
 22 23  1  0
 23 24  2  0
  7 25  1  0
 25 26  1  0
 26 27  2  0
 26 28  1  0
 28 29  1  0
 29 30  1  0
 30 31  2  0
 30 32  1  0
 32 33  1  0
 33 34  1  0
 34 35  2  0
 35 36  1  0
 36 37  1  0
 37 38  2  0
 38 39  1  0
 39 40  2  0
 40 41  1  0
 41 42  2  0
 32 43  1  0
 43 44  1  0
 44 45  2  0
 44 46  1  0
 28 47  1  0
 47 48  1  0
 48 49  2  0
 49 50  1  0
 50 51  2  0
 51 52  1  0
 52 53  2  0
 51 54  1  0
  2 55  1  0
 20 16  1  0
 38 34  1  0
 53 48  1  0
 24 19  1  0
 42 37  1  0
  1 56  1  0
  1 57  1  0
  4 58  1  0
  4 59  1  0
  5 60  1  0
  5 61  1  0
  6 62  1  0
  6 63  1  0
  7 64  1  1
 10 65  1  0
 11 66  1  6
 14 67  1  0
 14 68  1  0
 15 69  1  0
 15 70  1  0
 17 71  1  0
 21 72  1  0
 22 73  1  0
 23 74  1  0
 24 75  1  0
 25 76  1  0
 28 77  1  6
 29 78  1  0
 32 79  1  1
 33 80  1  0
 33 81  1  0
 35 82  1  0
 36 83  1  0
 39 84  1  0
 40 85  1  0
 41 86  1  0
 42 87  1  0
 43 88  1  0
 46 89  1  0
 46 90  1  0
 46 91  1  0
 47 92  1  0
 47 93  1  0
 49 94  1  0
 50 95  1  0
 52 96  1  0
 53 97  1  0
 55 98  1  0
 55 99  1  0
M  END
>  <Ligand ID>  (1) 
LIG0001450

>  <Ligand>  (1) 
CHEMBL3422429

>  <SMILES>  (1) 
NC(=NCCC[C@@H](C(=O)N[C@H](C(=O)N)Cc1csc2c1cccc2)NC(=O)[C@H](NC(=O)[C@H](Cc1c[nH]c2c1cccc2)NC(=O)C)Cc1ccc(cc1)I)N

>  <CID>  (1) 
118735606.0

>  <ChEMBL ID>  (1) 
nan

>  <InChiKey>  (1) 
REKSTTUGBVDPCU-SSNHPIBPSA-N

>  <InChi>  (1) 
InChI=1S/C39H44IN9O5S/c1-22(50)46-33(18-24-20-45-29-9-4-2-7-27(24)29)38(54)49-32(17-23-12-14-26(40)15-13-23)37(53)47-30(10-6-16-44-39(42)43)36(52)48-31(35(41)51)19-25-21-55-34-11-5-3-8-28(25)34/h2-5,7-9,11-15,20-21,30-33,45H,6,10,16-19H2,1H3,(H2,41,51)(H,46,50)(H,47,53)(H,48,52)(H,49,54)(H4,42,43,44)/t30-,31-,32+,33-/m0/s1

>  <IUPAC Name>  (1) 
(2S)-2-[[(2R)-2-[[(2S)-2-acetamido-3-(1H-indol-3-yl)propanoyl]amino]-3-(4-iodophenyl)propanoyl]amino]-N-[(2S)-1-amino-3-(1-benzothiophen-3-yl)-1-oxopropan-2-yl]-5-(diaminomethylideneamino)pentanamide

$$$$
