
     RDKit          3D

 24 24  0  0  0  0  0  0  0  0999 V2000
   -2.9787   -1.0199   -0.0784 C   0  0  0  0  0  0  0  0  0  0  0  0
   -1.4923   -1.0265   -0.2119 C   0  0  0  0  0  0  0  0  0  0  0  0
   -0.8228    0.1784    0.4472 C   0  0  1  0  0  0  0  0  0  0  0  0
    0.6595    0.0428    0.2372 C   0  0  0  0  0  0  0  0  0  0  0  0
    1.1873   -0.0282   -1.0360 C   0  0  0  0  0  0  0  0  0  0  0  0
    2.5605   -0.1519   -1.1296 C   0  0  0  0  0  0  0  0  0  0  0  0
    3.3882   -0.2047   -0.0364 C   0  0  0  0  0  0  0  0  0  0  0  0
    2.8222   -0.1307    1.2172 C   0  0  0  0  0  0  0  0  0  0  0  0
    1.4536   -0.0068    1.3430 C   0  0  0  0  0  0  0  0  0  0  0  0
   -1.3409    1.3927   -0.2307 C   0  0  0  0  0  0  0  0  0  0  0  0
   -2.2326    1.3334   -1.1433 O   0  0  0  0  0  0  0  0  0  0  0  0
   -0.8937    2.6716    0.0793 O   0  0  0  0  0  0  0  0  0  0  0  0
   -3.3661   -0.1405    0.4619 H   0  0  0  0  0  0  0  0  0  0  0  0
   -3.4261   -1.1395   -1.0862 H   0  0  0  0  0  0  0  0  0  0  0  0
   -3.3204   -1.9295    0.4884 H   0  0  0  0  0  0  0  0  0  0  0  0
   -1.1430   -1.0033   -1.2652 H   0  0  0  0  0  0  0  0  0  0  0  0
   -1.0698   -1.9207    0.2879 H   0  0  0  0  0  0  0  0  0  0  0  0
   -1.0858    0.2219    1.5069 H   0  0  0  0  0  0  0  0  0  0  0  0
    0.5530    0.0117   -1.9031 H   0  0  0  0  0  0  0  0  0  0  0  0
    3.0252   -0.2116   -2.1011 H   0  0  0  0  0  0  0  0  0  0  0  0
    4.4558   -0.3014   -0.1372 H   0  0  0  0  0  0  0  0  0  0  0  0
    3.4987   -0.1748    2.0637 H   0  0  0  0  0  0  0  0  0  0  0  0
    1.0300    0.0499    2.3509 H   0  0  0  0  0  0  0  0  0  0  0  0
   -1.4618    3.4878   -0.1245 H   0  0  0  0  0  0  0  0  0  0  0  0
  1  2  1  0
  2  3  1  0
  3  4  1  0
  4  5  2  0
  5  6  1  0
  6  7  2  0
  7  8  1  0
  8  9  2  0
  3 10  1  0
 10 11  2  0
 10 12  1  0
  9  4  1  0
  1 13  1  0
  1 14  1  0
  1 15  1  0
  2 16  1  0
  2 17  1  0
  3 18  1  1
  5 19  1  0
  6 20  1  0
  7 21  1  0
  8 22  1  0
  9 23  1  0
 12 24  1  0
M  END
>  <Ligand ID>  (1) 
LIG0000133

>  <Ligand>  (1) 
(2S)-2-phenylbutanoic acid

>  <SMILES>  (1) 
CC[C@@H](c1ccccc1)C(=O)O

>  <CID>  (1) 
785329.0

>  <ChEMBL ID>  (1) 
nan

>  <InChiKey>  (1) 
OFJWFSNDPCAWDK-VIFPVBQESA-N

>  <InChi>  (1) 
InChI=1S/C10H12O2/c1-2-9(10(11)12)8-6-4-3-5-7-8/h3-7,9H,2H2,1H3,(H,11,12)/t9-/m0/s1

>  <IUPAC Name>  (1) 
(2S)-2-phenylbutanoic acid

$$$$
