
     RDKit          3D

 54 58  0  0  0  0  0  0  0  0999 V2000
    8.1614   -2.1997    0.5547 C   0  0  0  0  0  0  0  0  0  0  0  0
    8.0516   -2.3059   -0.8523 O   0  0  0  0  0  0  0  0  0  0  0  0
    6.8930   -2.0647   -1.5590 C   0  0  0  0  0  0  0  0  0  0  0  0
    6.7878   -2.1674   -2.9168 C   0  0  0  0  0  0  0  0  0  0  0  0
    5.5962   -1.9123   -3.5715 C   0  0  0  0  0  0  0  0  0  0  0  0
    4.4452   -1.5371   -2.8673 C   0  0  0  0  0  0  0  0  0  0  0  0
    4.5737   -1.4412   -1.5118 C   0  0  0  0  0  0  0  0  0  0  0  0
    5.7598   -1.6922   -0.8309 C   0  0  0  0  0  0  0  0  0  0  0  0
    3.2944   -1.2922   -3.6261 N   0  0  0  0  0  0  0  0  0  0  0  0
    2.2646    0.0693   -3.5162 S   0  0  0  0  0  0  0  0  0  0  0  0
    3.0841    1.3326   -3.7776 O   0  0  0  0  0  0  0  0  0  0  0  0
    1.2336    0.0414   -4.6250 O   0  0  0  0  0  0  0  0  0  0  0  0
    1.5109    0.2440   -1.9631 C   0  0  0  0  0  0  0  0  0  0  0  0
    1.9703    1.0525   -0.9558 C   0  0  0  0  0  0  0  0  0  0  0  0
    1.3345    1.1583    0.2642 C   0  0  0  0  0  0  0  0  0  0  0  0
    0.1880    0.4249    0.4915 C   0  0  0  0  0  0  0  0  0  0  0  0
   -0.3143   -0.4067   -0.4979 C   0  0  0  0  0  0  0  0  0  0  0  0
    0.3544   -0.4808   -1.7015 C   0  0  0  0  0  0  0  0  0  0  0  0
   -1.4238   -0.9856    0.0008 N   0  0  0  0  0  0  0  0  0  0  0  0
   -1.6374   -0.5448    1.2750 C   0  0  0  0  0  0  0  0  0  0  0  0
   -0.6425    0.3071    1.5379 N   0  0  0  0  0  0  0  0  0  0  0  0
   -2.7812   -1.0171    2.0829 C   0  0  0  0  0  0  0  0  0  0  0  0
   -3.9539   -0.3191    1.9619 O   0  0  0  0  0  0  0  0  0  0  0  0
   -4.3209    0.9534    2.2082 C   0  0  0  0  0  0  0  0  0  0  0  0
   -3.5335    1.9688    2.6981 C   0  0  0  0  0  0  0  0  0  0  0  0
   -3.9787    3.2508    2.9265 C   0  0  0  0  0  0  0  0  0  0  0  0
   -5.2987    3.5277    2.6445 C   0  0  0  0  0  0  0  0  0  0  0  0
   -6.1424    2.5613    2.1530 C   0  0  0  0  0  0  0  0  0  0  0  0
   -5.6534    1.3026    1.9427 C   0  0  0  0  0  0  0  0  0  0  0  0
   -6.5217    0.3435    1.4463 C   0  0  0  0  0  0  0  0  0  0  0  0
   -7.8398    0.6620    1.1762 C   0  0  0  0  0  0  0  0  0  0  0  0
   -8.3280    1.9324    1.3900 C   0  0  0  0  0  0  0  0  0  0  0  0
   -7.4587    2.9026    1.8896 C   0  0  0  0  0  0  0  0  0  0  0  0
    7.9013   -1.2101    0.9453 H   0  0  0  0  0  0  0  0  0  0  0  0
    9.2228   -2.4412    0.8151 H   0  0  0  0  0  0  0  0  0  0  0  0
    7.5407   -2.9706    1.0704 H   0  0  0  0  0  0  0  0  0  0  0  0
    7.6680   -2.4561   -3.4747 H   0  0  0  0  0  0  0  0  0  0  0  0
    5.5953   -2.0159   -4.6507 H   0  0  0  0  0  0  0  0  0  0  0  0
    3.7310   -1.1684   -0.9254 H   0  0  0  0  0  0  0  0  0  0  0  0
    5.8002   -1.5993    0.2458 H   0  0  0  0  0  0  0  0  0  0  0  0
    3.0363   -2.0281   -4.3415 H   0  0  0  0  0  0  0  0  0  0  0  0
    2.8868    1.6303   -1.1557 H   0  0  0  0  0  0  0  0  0  0  0  0
    1.7216    1.8098    1.0492 H   0  0  0  0  0  0  0  0  0  0  0  0
   -0.0827   -1.1494   -2.4446 H   0  0  0  0  0  0  0  0  0  0  0  0
   -2.0205   -1.6718   -0.5311 H   0  0  0  0  0  0  0  0  0  0  0  0
   -2.8999   -2.1257    1.9555 H   0  0  0  0  0  0  0  0  0  0  0  0
   -2.4697   -0.9360    3.1727 H   0  0  0  0  0  0  0  0  0  0  0  0
   -2.5015    1.7651    2.9289 H   0  0  0  0  0  0  0  0  0  0  0  0
   -3.3054    4.0273    3.3203 H   0  0  0  0  0  0  0  0  0  0  0  0
   -5.6440    4.5370    2.8259 H   0  0  0  0  0  0  0  0  0  0  0  0
   -6.1601   -0.6622    1.2702 H   0  0  0  0  0  0  0  0  0  0  0  0
   -8.5373   -0.0686    0.7883 H   0  0  0  0  0  0  0  0  0  0  0  0
   -9.3608    2.2183    1.1882 H   0  0  0  0  0  0  0  0  0  0  0  0
   -7.7968    3.9258    2.0768 H   0  0  0  0  0  0  0  0  0  0  0  0
  1  2  1  0
  2  3  1  0
  3  4  2  0
  4  5  1  0
  5  6  2  0
  6  7  1  0
  7  8  2  0
  6  9  1  0
  9 10  1  0
 10 11  2  0
 10 12  2  0
 10 13  1  0
 13 14  2  0
 14 15  1  0
 15 16  2  0
 16 17  1  0
 17 18  2  0
 17 19  1  0
 19 20  1  0
 20 21  2  0
 20 22  1  0
 22 23  1  0
 23 24  1  0
 24 25  2  0
 25 26  1  0
 26 27  2  0
 27 28  1  0
 28 29  2  0
 29 30  1  0
 30 31  2  0
 31 32  1  0
 32 33  2  0
  8  3  1  0
 18 13  1  0
 29 24  1  0
 21 16  1  0
 33 28  1  0
  1 34  1  0
  1 35  1  0
  1 36  1  0
  4 37  1  0
  5 38  1  0
  7 39  1  0
  8 40  1  0
  9 41  1  0
 14 42  1  0
 15 43  1  0
 18 44  1  0
 19 45  1  0
 22 46  1  0
 22 47  1  0
 25 48  1  0
 26 49  1  0
 27 50  1  0
 30 51  1  0
 31 52  1  0
 32 53  1  0
 33 54  1  0
M  END
>  <Ligand ID>  (1) 
LIG0004823

>  <Ligand>  (1) 
MLS000402329

>  <SMILES>  (1) 
COc1ccc(cc1)NS(=O)(=O)c1ccc2c(c1)[nH]c(n2)COc1cccc2c1cccc2

>  <CID>  (1) 
2106395.0

>  <ChEMBL ID>  (1) 
nan

>  <InChiKey>  (1) 
QUWDHYVVJHSYHA-UHFFFAOYSA-N

>  <InChi>  (1) 
InChI=1S/C25H21N3O4S/c1-31-19-11-9-18(10-12-19)28-33(29,30)20-13-14-22-23(15-20)27-25(26-22)16-32-24-8-4-6-17-5-2-3-7-21(17)24/h2-15,28H,16H2,1H3,(H,26,27)

>  <IUPAC Name>  (1) 
N-(4-methoxyphenyl)-2-(naphthalen-1-yloxymethyl)-3H-benzimidazole-5-sulfonamide

$$$$
