
     RDKit          3D

 79 83  0  0  0  0  0  0  0  0999 V2000
   13.3580   -1.8465    1.1224 C   0  0  0  0  0  0  0  0  0  0  0  0
   12.5905   -0.6009    1.5169 C   0  0  0  0  0  0  0  0  0  0  0  0
   11.3415   -0.5103    0.8814 O   0  0  0  0  0  0  0  0  0  0  0  0
   10.3106   -1.4204    0.9848 C   0  0  0  0  0  0  0  0  0  0  0  0
   10.4490   -2.4438    1.7011 O   0  0  0  0  0  0  0  0  0  0  0  0
    9.0409   -1.2596    0.2959 C   0  0  0  0  0  0  0  0  0  0  0  0
    8.0593   -2.2060    0.4491 C   0  0  0  0  0  0  0  0  0  0  0  0
    6.8617   -2.0252   -0.2162 C   0  0  0  0  0  0  0  0  0  0  0  0
    6.6769   -0.9096   -1.0128 C   0  0  0  0  0  0  0  0  0  0  0  0
    7.6585    0.0459   -1.1723 C   0  0  0  0  0  0  0  0  0  0  0  0
    8.8639   -0.1395   -0.5007 C   0  0  0  0  0  0  0  0  0  0  0  0
    5.1562   -0.6352   -1.8769 S   0  0  0  0  0  0  0  0  0  0  0  0
    5.4463    0.0564   -3.1800 O   0  0  0  0  0  0  0  0  0  0  0  0
    4.5573   -1.9840   -2.2260 O   0  0  0  0  0  0  0  0  0  0  0  0
    4.1461    0.2560   -0.8617 O   0  0  0  0  0  0  0  0  0  0  0  0
    3.0149    0.9475   -1.2562 C   0  0  0  0  0  0  0  0  0  0  0  0
    3.1997    2.2832   -1.6409 C   0  0  0  0  0  0  0  0  0  0  0  0
    2.1307    3.0613   -2.0512 C   0  0  0  0  0  0  0  0  0  0  0  0
    0.8904    2.4574   -2.0603 C   0  0  0  0  0  0  0  0  0  0  0  0
    0.6770    1.1546   -1.6902 C   0  0  0  0  0  0  0  0  0  0  0  0
    1.7495    0.4007   -1.2870 C   0  0  0  0  0  0  0  0  0  0  0  0
    1.3188   -0.8322   -0.9728 N   0  0  0  0  0  0  0  0  0  0  0  0
   -0.0106   -0.8753   -1.1690 C   0  0  0  0  0  0  0  0  0  0  0  0
   -0.4604    0.3464   -1.6185 C   0  0  0  0  0  0  0  0  0  0  0  0
   -1.8489    0.7761   -1.9660 C   0  0  0  0  0  0  0  0  0  0  0  0
   -2.4265    1.6549   -0.8738 C   0  0  2  0  0  0  0  0  0  0  0  0
   -2.5263    1.0579    0.3993 N   0  0  0  0  0  0  0  0  0  0  0  0
   -3.1415   -0.1785    0.6057 C   0  0  0  0  0  0  0  0  0  0  0  0
   -4.5949   -0.3525    0.4520 C   0  0  1  0  0  0  0  0  0  0  0  0
   -5.3953    0.3966    1.4604 C   0  0  0  0  0  0  0  0  0  0  0  0
   -4.7436    1.1316    2.4206 C   0  0  0  0  0  0  0  0  0  0  0  0
   -5.4149    1.8546    3.3962 C   0  0  0  0  0  0  0  0  0  0  0  0
   -6.7937    1.8422    3.4122 C   0  0  0  0  0  0  0  0  0  0  0  0
   -7.4581    1.0925    2.4333 C   0  0  0  0  0  0  0  0  0  0  0  0
   -6.7702    0.3809    1.4719 C   0  0  0  0  0  0  0  0  0  0  0  0
   -8.8820    1.1189    2.5135 N   0  0  0  0  0  0  0  0  0  0  0  0
   -9.8156   -0.3226    2.3830 S   0  0  0  0  0  0  0  0  0  0  0  0
   -9.4842   -1.2117    3.5339 O   0  0  0  0  0  0  0  0  0  0  0  0
  -11.2765    0.0727    2.5395 O   0  0  0  0  0  0  0  0  0  0  0  0
   -9.6474   -1.1369    0.8797 C   0  0  0  0  0  0  0  0  0  0  0  0
   -9.2233   -2.3633    0.5057 C   0  0  0  0  0  0  0  0  0  0  0  0
   -9.2199   -2.6956   -0.7901 C   0  0  0  0  0  0  0  0  0  0  0  0
   -9.6533   -1.7658   -1.7053 C   0  0  0  0  0  0  0  0  0  0  0  0
  -10.1036   -0.3078   -0.6896 S   0  0  0  0  0  0  0  0  0  0  0  0
   -5.1580   -0.1238   -0.7674 O   0  0  0  0  0  0  0  0  0  0  0  0
   -3.6928    2.3317   -1.2811 C   0  0  0  0  0  0  0  0  0  0  0  0
   12.7919   -2.4193    0.3592 H   0  0  0  0  0  0  0  0  0  0  0  0
   13.4211   -2.4805    2.0209 H   0  0  0  0  0  0  0  0  0  0  0  0
   14.3727   -1.5972    0.7490 H   0  0  0  0  0  0  0  0  0  0  0  0
   13.1843    0.2720    1.1738 H   0  0  0  0  0  0  0  0  0  0  0  0
   12.4674   -0.4976    2.6168 H   0  0  0  0  0  0  0  0  0  0  0  0
    8.1552   -3.0905    1.0574 H   0  0  0  0  0  0  0  0  0  0  0  0
    6.0706   -2.7559   -0.1129 H   0  0  0  0  0  0  0  0  0  0  0  0
    7.5001    0.9276   -1.8081 H   0  0  0  0  0  0  0  0  0  0  0  0
    9.6231    0.6169   -0.6361 H   0  0  0  0  0  0  0  0  0  0  0  0
    4.1914    2.7250   -1.6206 H   0  0  0  0  0  0  0  0  0  0  0  0
    2.2869    4.0920   -2.3458 H   0  0  0  0  0  0  0  0  0  0  0  0
    0.0522    3.0537   -2.3783 H   0  0  0  0  0  0  0  0  0  0  0  0
    1.9283   -1.6257   -0.6303 H   0  0  0  0  0  0  0  0  0  0  0  0
   -0.6115   -1.7475   -0.9950 H   0  0  0  0  0  0  0  0  0  0  0  0
   -1.9250    1.3029   -2.9241 H   0  0  0  0  0  0  0  0  0  0  0  0
   -2.4698   -0.1397   -2.0405 H   0  0  0  0  0  0  0  0  0  0  0  0
   -1.6161    2.4837   -0.7292 H   0  0  0  0  0  0  0  0  0  0  0  0
   -1.6595    1.2345    0.9495 H   0  0  0  0  0  0  0  0  0  0  0  0
   -2.6741   -0.9882   -0.0613 H   0  0  0  0  0  0  0  0  0  0  0  0
   -2.8757   -0.5733    1.6312 H   0  0  0  0  0  0  0  0  0  0  0  0
   -4.8125   -1.4432    0.6902 H   0  0  0  0  0  0  0  0  0  0  0  0
   -3.6479    1.1970    2.4820 H   0  0  0  0  0  0  0  0  0  0  0  0
   -4.8966    2.4293    4.1472 H   0  0  0  0  0  0  0  0  0  0  0  0
   -7.2932    2.4010    4.1650 H   0  0  0  0  0  0  0  0  0  0  0  0
   -7.3202   -0.1838    0.7356 H   0  0  0  0  0  0  0  0  0  0  0  0
   -9.3206    2.0623    2.6561 H   0  0  0  0  0  0  0  0  0  0  0  0
   -8.8771   -3.0892    1.2925 H   0  0  0  0  0  0  0  0  0  0  0  0
   -8.8808   -3.6907   -1.1567 H   0  0  0  0  0  0  0  0  0  0  0  0
   -9.7436   -1.7909   -2.7665 H   0  0  0  0  0  0  0  0  0  0  0  0
   -5.2126   -0.9353   -1.3325 H   0  0  0  0  0  0  0  0  0  0  0  0
   -3.5148    3.4082   -1.5712 H   0  0  0  0  0  0  0  0  0  0  0  0
   -4.0837    1.8681   -2.1867 H   0  0  0  0  0  0  0  0  0  0  0  0
   -4.3660    2.4013   -0.4180 H   0  0  0  0  0  0  0  0  0  0  0  0
  1  2  1  0
  2  3  1  0
  3  4  1  0
  4  5  2  0
  4  6  1  0
  6  7  2  0
  7  8  1  0
  8  9  2  0
  9 10  1  0
 10 11  2  0
  9 12  1  0
 12 13  2  0
 12 14  2  0
 12 15  1  0
 15 16  1  0
 16 17  2  0
 17 18  1  0
 18 19  2  0
 19 20  1  0
 20 21  2  0
 21 22  1  0
 22 23  1  0
 23 24  2  0
 24 25  1  0
 25 26  1  0
 26 27  1  0
 27 28  1  0
 28 29  1  0
 29 30  1  0
 30 31  2  0
 31 32  1  0
 32 33  2  0
 33 34  1  0
 34 35  2  0
 34 36  1  0
 36 37  1  0
 37 38  2  0
 37 39  2  0
 37 40  1  0
 40 41  2  0
 41 42  1  0
 42 43  2  0
 43 44  1  0
 29 45  1  0
 26 46  1  0
 11  6  1  0
 21 16  1  0
 35 30  1  0
 44 40  1  0
 24 20  1  0
  1 47  1  0
  1 48  1  0
  1 49  1  0
  2 50  1  0
  2 51  1  0
  7 52  1  0
  8 53  1  0
 10 54  1  0
 11 55  1  0
 17 56  1  0
 18 57  1  0
 19 58  1  0
 22 59  1  0
 23 60  1  0
 25 61  1  0
 25 62  1  0
 26 63  1  1
 27 64  1  0
 28 65  1  0
 28 66  1  0
 29 67  1  1
 31 68  1  0
 32 69  1  0
 33 70  1  0
 35 71  1  0
 36 72  1  0
 41 73  1  0
 42 74  1  0
 43 75  1  0
 45 76  1  0
 46 77  1  0
 46 78  1  0
 46 79  1  0
M  END
>  <Ligand ID>  (1) 
LIG0004448

>  <Ligand>  (1) 
CHEMBL186236

>  <SMILES>  (1) 
CCOC(=O)c1ccc(cc1)S(=O)(=O)Oc1cccc2c1[nH]cc2C[C@H](NC[C@@H](c1cccc(c1)NS(=O)(=O)c1cccs1)O)C

>  <CID>  (1) 
44396737.0

>  <ChEMBL ID>  (1) 
nan

>  <InChiKey>  (1) 
WKBLQNSAOBQMPB-PIKZIKFNSA-N

>  <InChi>  (1) 
InChI=1S/C32H33N3O8S3/c1-3-42-32(37)22-12-14-26(15-13-22)46(40,41)43-29-10-5-9-27-24(19-34-31(27)29)17-21(2)33-20-28(36)23-7-4-8-25(18-23)35-45(38,39)30-11-6-16-44-30/h4-16,18-19,21,28,33-36H,3,17,20H2,1-2H3/t21-,28+/m1/s1

>  <IUPAC Name>  (1) 
ethyl 4-[[3-[(2R)-2-[[(2R)-2-hydroxy-2-[3-(thiophen-2-ylsulfonylamino)phenyl]ethyl]amino]propyl]-1H-indol-7-yl]oxysulfonyl]benzoate

$$$$
