
     RDKit          3D

 57 60  0  0  0  0  0  0  0  0999 V2000
    5.8071   -3.6190    2.1675 C   0  0  0  0  0  0  0  0  0  0  0  0
    5.4953   -3.3113    0.8222 O   0  0  0  0  0  0  0  0  0  0  0  0
    5.0819   -2.0226    0.5139 C   0  0  0  0  0  0  0  0  0  0  0  0
    4.9642   -1.0238    1.4726 C   0  0  0  0  0  0  0  0  0  0  0  0
    4.5515    0.2417    1.1312 C   0  0  0  0  0  0  0  0  0  0  0  0
    4.2308    0.5904   -0.1860 C   0  0  0  0  0  0  0  0  0  0  0  0
    4.3553   -0.4192   -1.1221 C   0  0  0  0  0  0  0  0  0  0  0  0
    4.7681   -1.6977   -0.8017 C   0  0  0  0  0  0  0  0  0  0  0  0
    3.8061    1.9437   -0.5181 C   0  0  0  0  0  0  0  0  0  0  0  0
    4.6863    3.0267   -0.5550 C   0  0  0  0  0  0  0  0  0  0  0  0
    6.1606    2.9991   -0.2675 C   0  0  0  0  0  0  0  0  0  0  0  0
    3.9226    4.0726   -0.9012 N   0  0  0  0  0  0  0  0  0  0  0  0
    2.6636    3.7172   -1.0756 N   0  0  0  0  0  0  0  0  0  0  0  0
    2.5449    2.3770   -0.8427 C   0  0  0  0  0  0  0  0  0  0  0  0
    1.2976    1.6374   -0.9321 C   0  0  0  0  0  0  0  0  0  0  0  0
    1.0623    0.6057   -1.8083 C   0  0  0  0  0  0  0  0  0  0  0  0
   -0.1331   -0.0795   -1.8725 C   0  0  0  0  0  0  0  0  0  0  0  0
   -1.1875    0.2625   -1.0170 C   0  0  0  0  0  0  0  0  0  0  0  0
   -0.9501    1.2993   -0.1372 C   0  0  0  0  0  0  0  0  0  0  0  0
    0.2480    1.9826   -0.0763 C   0  0  0  0  0  0  0  0  0  0  0  0
    0.4002    3.0283    0.8541 O   0  0  0  0  0  0  0  0  0  0  0  0
   -2.3870   -0.4276   -1.0814 O   0  0  0  0  0  0  0  0  0  0  0  0
   -3.5265   -0.2216   -0.3184 C   0  0  0  0  0  0  0  0  0  0  0  0
   -4.5664   -1.2256   -0.7600 C   0  0  0  0  0  0  0  0  0  0  0  0
   -5.8009   -1.1794   -0.0883 N   0  0  0  0  0  0  0  0  0  0  0  0
   -6.6519   -0.0766   -0.2624 C   0  0  0  0  0  0  0  0  0  0  0  0
   -8.0302   -0.4510    0.2825 C   0  0  0  0  0  0  0  0  0  0  0  0
   -7.8289   -0.5604    1.6544 O   0  0  0  0  0  0  0  0  0  0  0  0
   -7.1349   -1.7098    1.9141 C   0  0  0  0  0  0  0  0  0  0  0  0
   -6.0638   -2.0833    0.9462 C   0  0  0  0  0  0  0  0  0  0  0  0
    5.9502   -4.7264    2.2892 H   0  0  0  0  0  0  0  0  0  0  0  0
    6.7439   -3.1353    2.4947 H   0  0  0  0  0  0  0  0  0  0  0  0
    4.9977   -3.3097    2.8651 H   0  0  0  0  0  0  0  0  0  0  0  0
    5.2190   -1.3148    2.4946 H   0  0  0  0  0  0  0  0  0  0  0  0
    4.4846    0.9673    1.9425 H   0  0  0  0  0  0  0  0  0  0  0  0
    4.1306   -0.2255   -2.1502 H   0  0  0  0  0  0  0  0  0  0  0  0
    4.8616   -2.4791   -1.5487 H   0  0  0  0  0  0  0  0  0  0  0  0
    6.4093    2.0621    0.2710 H   0  0  0  0  0  0  0  0  0  0  0  0
    6.7229    2.9839   -1.2220 H   0  0  0  0  0  0  0  0  0  0  0  0
    6.4449    3.8346    0.3834 H   0  0  0  0  0  0  0  0  0  0  0  0
    4.3059    5.0388   -1.0116 H   0  0  0  0  0  0  0  0  0  0  0  0
    1.8344    0.3171   -2.4752 H   0  0  0  0  0  0  0  0  0  0  0  0
   -0.2470   -0.8780   -2.5862 H   0  0  0  0  0  0  0  0  0  0  0  0
   -1.7454    1.5787    0.5267 H   0  0  0  0  0  0  0  0  0  0  0  0
    0.5883    3.9591    0.5045 H   0  0  0  0  0  0  0  0  0  0  0  0
   -3.3819   -0.1812    0.7572 H   0  0  0  0  0  0  0  0  0  0  0  0
   -3.9362    0.7799   -0.6234 H   0  0  0  0  0  0  0  0  0  0  0  0
   -4.7730   -1.0633   -1.8581 H   0  0  0  0  0  0  0  0  0  0  0  0
   -4.1552   -2.2596   -0.7100 H   0  0  0  0  0  0  0  0  0  0  0  0
   -6.8083    0.2451   -1.3105 H   0  0  0  0  0  0  0  0  0  0  0  0
   -6.3424    0.8484    0.2961 H   0  0  0  0  0  0  0  0  0  0  0  0
   -8.2443   -1.4659   -0.1244 H   0  0  0  0  0  0  0  0  0  0  0  0
   -8.8129    0.2447   -0.0181 H   0  0  0  0  0  0  0  0  0  0  0  0
   -7.8643   -2.5333    2.0664 H   0  0  0  0  0  0  0  0  0  0  0  0
   -6.6653   -1.5595    2.9336 H   0  0  0  0  0  0  0  0  0  0  0  0
   -5.1341   -2.3407    1.4914 H   0  0  0  0  0  0  0  0  0  0  0  0
   -6.3681   -3.0628    0.4700 H   0  0  0  0  0  0  0  0  0  0  0  0
  1  2  1  0
  2  3  1  0
  3  4  2  0
  4  5  1  0
  5  6  2  0
  6  7  1  0
  7  8  2  0
  6  9  1  0
  9 10  2  0
 10 11  1  0
 10 12  1  0
 12 13  1  0
 13 14  2  0
 14 15  1  0
 15 16  2  0
 16 17  1  0
 17 18  2  0
 18 19  1  0
 19 20  2  0
 20 21  1  0
 18 22  1  0
 22 23  1  0
 23 24  1  0
 24 25  1  0
 25 26  1  0
 26 27  1  0
 27 28  1  0
 28 29  1  0
 29 30  1  0
  8  3  1  0
 14  9  1  0
 20 15  1  0
 30 25  1  0
  1 31  1  0
  1 32  1  0
  1 33  1  0
  4 34  1  0
  5 35  1  0
  7 36  1  0
  8 37  1  0
 11 38  1  0
 11 39  1  0
 11 40  1  0
 12 41  1  0
 16 42  1  0
 17 43  1  0
 19 44  1  0
 21 45  1  0
 23 46  1  0
 23 47  1  0
 24 48  1  0
 24 49  1  0
 26 50  1  0
 26 51  1  0
 27 52  1  0
 27 53  1  0
 29 54  1  0
 29 55  1  0
 30 56  1  0
 30 57  1  0
M  END
>  <Ligand ID>  (1) 
LIG0003596

>  <Ligand>  (1) 
MLS-0437223.0001

>  <SMILES>  (1) 
COc1ccc(cc1)c1c(C)[nH]nc1c1ccc(cc1O)OCCN1CCOCC1

>  <CID>  (1) 
135656441.0

>  <ChEMBL ID>  (1) 
nan

>  <InChiKey>  (1) 
NIPGIHSVDXHMBO-UHFFFAOYSA-N

>  <InChi>  (1) 
InChI=1S/C23H27N3O4/c1-16-22(17-3-5-18(28-2)6-4-17)23(25-24-16)20-8-7-19(15-21(20)27)30-14-11-26-9-12-29-13-10-26/h3-8,15,27H,9-14H2,1-2H3,(H,24,25)

>  <IUPAC Name>  (1) 
2-[4-(4-methoxyphenyl)-5-methyl-1H-pyrazol-3-yl]-5-(2-morpholin-4-ylethoxy)phenol

$$$$
