
     RDKit          3D

 58 61  0  0  0  0  0  0  0  0999 V2000
   -4.2430   -5.4249    1.9445 C   0  0  0  0  0  0  0  0  0  0  0  0
   -3.4701   -5.3280    0.7764 O   0  0  0  0  0  0  0  0  0  0  0  0
   -3.2764   -4.1105    0.1535 C   0  0  0  0  0  0  0  0  0  0  0  0
   -3.8278   -2.9551    0.6491 C   0  0  0  0  0  0  0  0  0  0  0  0
   -3.6187   -1.7498    0.0063 C   0  0  0  0  0  0  0  0  0  0  0  0
   -2.8436   -1.6865   -1.1574 C   0  0  0  0  0  0  0  0  0  0  0  0
   -2.2895   -2.8304   -1.6602 C   0  0  0  0  0  0  0  0  0  0  0  0
   -2.5194   -4.0262   -0.9893 C   0  0  0  0  0  0  0  0  0  0  0  0
   -2.6907   -0.3406   -1.7619 C   0  0  0  0  0  0  0  0  0  0  0  0
   -1.5555    0.4308   -1.2558 C   0  0  0  0  0  0  0  0  0  0  0  0
   -1.7838    1.4630   -0.3358 C   0  0  0  0  0  0  0  0  0  0  0  0
   -0.7478    2.2181    0.1732 C   0  0  0  0  0  0  0  0  0  0  0  0
   -1.0872    3.2849    1.1367 C   0  0  0  0  0  0  0  0  0  0  0  0
   -1.3509    4.5847    0.4619 C   0  0  0  0  0  0  0  0  0  0  0  0
   -0.2646    5.4179    0.2743 C   0  0  0  0  0  0  0  0  0  0  0  0
   -0.4024    6.6498   -0.3437 C   0  0  0  0  0  0  0  0  0  0  0  0
   -1.6774    6.9961   -0.7590 C   0  0  0  0  0  0  0  0  0  0  0  0
   -2.7722    6.1760   -0.5795 C   0  0  0  0  0  0  0  0  0  0  0  0
   -2.6198    4.9524    0.0375 C   0  0  0  0  0  0  0  0  0  0  0  0
    0.5050    1.9430   -0.2343 N   0  0  0  0  0  0  0  0  0  0  0  0
    0.7753    0.9801   -1.1004 N   0  0  0  0  0  0  0  0  0  0  0  0
   -0.2388    0.2325   -1.6060 C   0  0  0  0  0  0  0  0  0  0  0  0
    0.0366   -0.6776   -2.4277 O   0  0  0  0  0  0  0  0  0  0  0  0
    2.1328    0.7570   -1.4838 C   0  0  0  0  0  0  0  0  0  0  0  0
    2.8272   -0.2340   -0.5997 C   0  0  0  0  0  0  0  0  0  0  0  0
    2.1533   -0.7174    0.3296 O   0  0  0  0  0  0  0  0  0  0  0  0
    4.1694   -0.5704   -0.8439 N   0  0  0  0  0  0  0  0  0  0  0  0
    4.9543   -1.4796   -0.1061 C   0  0  0  0  0  0  0  0  0  0  0  0
    6.2622   -1.6784   -0.5091 C   0  0  0  0  0  0  0  0  0  0  0  0
    7.0864   -2.5528    0.1650 C   0  0  0  0  0  0  0  0  0  0  0  0
    6.6709   -3.2740    1.2647 C   0  0  0  0  0  0  0  0  0  0  0  0
    5.3685   -3.0826    1.6743 C   0  0  0  0  0  0  0  0  0  0  0  0
    4.5336   -2.1933    0.9871 C   0  0  0  0  0  0  0  0  0  0  0  0
    7.8457   -4.4745    2.1674 Br  0  0  0  0  0  0  0  0  0  0  0  0
   -4.5339   -6.4835    2.0824 H   0  0  0  0  0  0  0  0  0  0  0  0
   -5.1611   -4.8214    1.9083 H   0  0  0  0  0  0  0  0  0  0  0  0
   -3.6546   -5.1350    2.8556 H   0  0  0  0  0  0  0  0  0  0  0  0
   -4.4411   -2.9466    1.5536 H   0  0  0  0  0  0  0  0  0  0  0  0
   -4.0638   -0.8529    0.4157 H   0  0  0  0  0  0  0  0  0  0  0  0
   -1.7026   -2.7911   -2.5417 H   0  0  0  0  0  0  0  0  0  0  0  0
   -2.0948   -4.9564   -1.3591 H   0  0  0  0  0  0  0  0  0  0  0  0
   -3.6280    0.2544   -1.6035 H   0  0  0  0  0  0  0  0  0  0  0  0
   -2.6225   -0.5265   -2.8733 H   0  0  0  0  0  0  0  0  0  0  0  0
   -2.8269    1.6492   -0.0330 H   0  0  0  0  0  0  0  0  0  0  0  0
   -0.2864    3.3994    1.8852 H   0  0  0  0  0  0  0  0  0  0  0  0
   -2.0136    3.0257    1.6944 H   0  0  0  0  0  0  0  0  0  0  0  0
    0.7217    5.1296    0.6058 H   0  0  0  0  0  0  0  0  0  0  0  0
    0.4541    7.3107   -0.4939 H   0  0  0  0  0  0  0  0  0  0  0  0
   -1.8042    7.9659   -1.2488 H   0  0  0  0  0  0  0  0  0  0  0  0
   -3.7712    6.4500   -0.9062 H   0  0  0  0  0  0  0  0  0  0  0  0
   -3.4478    4.2647    0.2062 H   0  0  0  0  0  0  0  0  0  0  0  0
    2.7203    1.7040   -1.5591 H   0  0  0  0  0  0  0  0  0  0  0  0
    2.1394    0.2971   -2.4937 H   0  0  0  0  0  0  0  0  0  0  0  0
    4.6220   -0.0789   -1.6735 H   0  0  0  0  0  0  0  0  0  0  0  0
    6.6797   -1.1489   -1.3718 H   0  0  0  0  0  0  0  0  0  0  0  0
    8.0988   -2.6714   -0.1912 H   0  0  0  0  0  0  0  0  0  0  0  0
    5.0284   -3.6367    2.5296 H   0  0  0  0  0  0  0  0  0  0  0  0
    3.5465   -2.1013    1.3642 H   0  0  0  0  0  0  0  0  0  0  0  0
  1  2  1  0
  2  3  1  0
  3  4  2  0
  4  5  1  0
  5  6  2  0
  6  7  1  0
  7  8  2  0
  6  9  1  0
  9 10  1  0
 10 11  2  0
 11 12  1  0
 12 13  1  0
 13 14  1  0
 14 15  2  0
 15 16  1  0
 16 17  2  0
 17 18  1  0
 18 19  2  0
 12 20  2  0
 20 21  1  0
 21 22  1  0
 22 23  2  0
 21 24  1  0
 24 25  1  0
 25 26  2  0
 25 27  1  0
 27 28  1  0
 28 29  2  0
 29 30  1  0
 30 31  2  0
 31 32  1  0
 32 33  2  0
 31 34  1  0
  8  3  1  0
 22 10  1  0
 33 28  1  0
 19 14  1  0
  1 35  1  0
  1 36  1  0
  1 37  1  0
  4 38  1  0
  5 39  1  0
  7 40  1  0
  8 41  1  0
  9 42  1  0
  9 43  1  0
 11 44  1  0
 13 45  1  0
 13 46  1  0
 15 47  1  0
 16 48  1  0
 17 49  1  0
 18 50  1  0
 19 51  1  0
 24 52  1  0
 24 53  1  0
 27 54  1  0
 29 55  1  0
 30 56  1  0
 32 57  1  0
 33 58  1  0
M  END
>  <Ligand ID>  (1) 
LIG0004812

>  <Ligand>  (1) 
CHEMBL2391276

>  <SMILES>  (1) 
COc1ccc(cc1)Cc1cc(Cc2ccccc2)nn(c1=O)CC(=O)Nc1ccc(cc1)Br

>  <CID>  (1) 
71698878.0

>  <ChEMBL ID>  (1) 
nan

>  <InChiKey>  (1) 
DFGQHQWDBGAVQM-UHFFFAOYSA-N

>  <InChi>  (1) 
InChI=1S/C27H24BrN3O3/c1-34-25-13-7-20(8-14-25)15-21-17-24(16-19-5-3-2-4-6-19)30-31(27(21)33)18-26(32)29-23-11-9-22(28)10-12-23/h2-14,17H,15-16,18H2,1H3,(H,29,32)

>  <IUPAC Name>  (1) 
2-[3-benzyl-5-[(4-methoxyphenyl)methyl]-6-oxopyridazin-1-yl]-N-(4-bromophenyl)acetamide

$$$$
