
     RDKit          3D

 20 20  0  0  0  0  0  0  0  0999 V2000
   -1.0755    0.6473    1.9341 O   0  0  0  0  0  0  0  0  0  0  0  0
   -1.7402   -0.1037    0.9776 C   0  0  0  0  0  0  0  0  0  0  0  0
   -2.9815    0.1032    0.8151 O   0  0  0  0  0  0  0  0  0  0  0  0
   -1.0905   -1.1342    0.1349 C   0  0  2  0  0  0  0  0  0  0  0  0
   -0.0872   -0.5525   -0.7928 C   0  0  0  0  0  0  0  0  0  0  0  0
    1.0014    0.1541   -0.2242 N   0  0  0  0  0  0  0  0  0  0  0  0
    2.1260   -0.3927    0.1700 O   0  0  0  0  0  0  0  0  0  0  0  0
    2.9089    0.5127    0.6508 C   0  0  0  0  0  0  0  0  0  0  0  0
    4.0763    0.3061    1.1181 O   0  0  0  0  0  0  0  0  0  0  0  0
    2.3277    1.7205    0.5953 N   0  0  0  0  0  0  0  0  0  0  0  0
    1.1087    1.4841    0.0346 C   0  0  0  0  0  0  0  0  0  0  0  0
    0.2796    2.3854   -0.1779 O   0  0  0  0  0  0  0  0  0  0  0  0
   -2.1836   -1.7687   -0.6347 N   0  0  0  0  0  0  0  0  0  0  0  0
   -1.3631    1.6096    2.1380 H   0  0  0  0  0  0  0  0  0  0  0  0
   -0.7046   -1.9366    0.7697 H   0  0  0  0  0  0  0  0  0  0  0  0
    0.3411   -1.4127   -1.3881 H   0  0  0  0  0  0  0  0  0  0  0  0
   -0.5814    0.0876   -1.5712 H   0  0  0  0  0  0  0  0  0  0  0  0
    2.7386    2.6158    0.9150 H   0  0  0  0  0  0  0  0  0  0  0  0
   -1.9916   -2.7674   -0.8065 H   0  0  0  0  0  0  0  0  0  0  0  0
   -3.1090   -1.5579   -0.2421 H   0  0  0  0  0  0  0  0  0  0  0  0
  1  2  1  0
  2  3  2  0
  2  4  1  0
  4  5  1  0
  5  6  1  0
  6  7  1  0
  7  8  1  0
  8  9  2  0
  8 10  1  0
 10 11  1  0
 11 12  2  0
  4 13  1  0
 11  6  1  0
  1 14  1  0
  4 15  1  1
  5 16  1  0
  5 17  1  0
 10 18  1  0
 13 19  1  0
 13 20  1  0
M  END
>  <Ligand ID>  (1) 
LIG0000341

>  <Ligand>  (1) 
QUISQUALIC ACID

>  <SMILES>  (1) 
OC(=O)[C@H](Cn1oc(=O)[nH]c1=O)N

>  <CID>  (1) 
40539.0

>  <ChEMBL ID>  (1) 
nan

>  <InChiKey>  (1) 
ASNFTDCKZKHJSW-REOHCLBHSA-N

>  <InChi>  (1) 
InChI=1S/C5H7N3O5/c6-2(3(9)10)1-8-4(11)7-5(12)13-8/h2H,1,6H2,(H,9,10)(H,7,11,12)/t2-/m0/s1

>  <IUPAC Name>  (1) 
(2S)-2-amino-3-(3,5-dioxo-1,2,4-oxadiazolidin-2-yl)propanoic acid

$$$$
