
     RDKit          3D

145150  0  0  0  0  0  0  0  0999 V2000
    8.9486    3.9309   -0.9873 C   0  0  0  0  0  0  0  0  0  0  0  0
   10.1991    3.5131   -0.3260 C   0  0  0  0  0  0  0  0  0  0  0  0
   10.2274    2.3159    0.5291 C   0  0  0  0  0  0  0  0  0  0  0  0
    9.9839    0.9844   -0.0032 C   0  0  0  0  0  0  0  0  0  0  0  0
    8.7169    0.5749   -0.6131 C   0  0  1  0  0  0  0  0  0  0  0  0
    7.5848    0.7297    0.3130 C   0  0  0  0  0  0  0  0  0  0  0  0
    7.8262    0.5809    1.5501 O   0  0  0  0  0  0  0  0  0  0  0  0
    6.2483    1.0302   -0.1030 N   0  0  0  0  0  0  0  0  0  0  0  0
    5.1652    1.1710    0.9211 C   0  0  1  0  0  0  0  0  0  0  0  0
    4.5235    2.4903    0.7068 C   0  0  0  0  0  0  0  0  0  0  0  0
    3.3591    2.7176    1.6237 C   0  0  0  0  0  0  0  0  0  0  0  0
    2.8631    4.1350    1.5570 C   0  0  0  0  0  0  0  0  0  0  0  0
    2.4617    4.5689    0.2044 C   0  0  0  0  0  0  0  0  0  0  0  0
    1.3313    3.8793   -0.4031 C   0  0  0  0  0  0  0  0  0  0  0  0
    0.9726    2.5940   -0.4755 N   0  0  0  0  0  0  0  0  0  0  0  0
   -0.1474    2.5065   -1.1415 N   0  0  0  0  0  0  0  0  0  0  0  0
   -0.6060    3.6593   -1.5461 N   0  0  0  0  0  0  0  0  0  0  0  0
    0.3321    4.5679   -1.0816 C   0  0  0  0  0  0  0  0  0  0  0  0
   -1.6980    4.2501   -2.2760 C   0  0  0  0  0  0  0  0  0  0  0  0
   -2.9278    4.3581   -1.3949 C   0  0  2  0  0  0  0  0  0  0  0  0
   -3.9243    3.3437   -1.5586 N   0  0  0  0  0  0  0  0  0  0  0  0
   -3.8176    1.9536   -1.4854 C   0  0  0  0  0  0  0  0  0  0  0  0
   -2.6898    1.4817   -1.3765 O   0  0  0  0  0  0  0  0  0  0  0  0
   -4.9523    0.9609   -1.5400 C   0  0  1  0  0  0  0  0  0  0  0  0
   -4.3440   -0.3892   -1.6125 N   0  0  0  0  0  0  0  0  0  0  0  0
   -3.4275   -0.8454   -0.6167 C   0  0  0  0  0  0  0  0  0  0  0  0
   -3.2816   -0.0808    0.3465 O   0  0  0  0  0  0  0  0  0  0  0  0
   -2.6909   -2.1262   -0.6922 C   0  0  1  0  0  0  0  0  0  0  0  0
   -1.8239   -2.3867    0.4008 N   0  0  0  0  0  0  0  0  0  0  0  0
   -2.0458   -2.1193    1.7762 C   0  0  0  0  0  0  0  0  0  0  0  0
   -3.1440   -1.7107    2.1181 O   0  0  0  0  0  0  0  0  0  0  0  0
   -1.0005   -2.3206    2.8359 C   0  0  2  0  0  0  0  0  0  0  0  0
    0.2949   -2.6295    2.2790 N   0  0  0  0  0  0  0  0  0  0  0  0
    1.3286   -1.6205    2.2522 C   0  0  0  0  0  0  0  0  0  0  0  0
    0.9706   -0.5293    2.7489 O   0  0  0  0  0  0  0  0  0  0  0  0
    2.6729   -1.7415    1.7304 C   0  0  1  0  0  0  0  0  0  0  0  0
    3.3996   -0.4511    1.8619 N   0  0  0  0  0  0  0  0  0  0  0  0
    4.3512   -0.0398    0.8787 C   0  0  0  0  0  0  0  0  0  0  0  0
    4.4673   -0.8199   -0.0813 O   0  0  0  0  0  0  0  0  0  0  0  0
    3.6027   -2.6934    2.4660 C   0  0  0  0  0  0  0  0  0  0  0  0
    3.2215   -4.0852    2.5147 C   0  0  0  0  0  0  0  0  0  0  0  0
    2.5037   -4.8269    3.3689 N   0  0  0  0  0  0  0  0  0  0  0  0
    2.4608   -6.1249    2.9582 C   0  0  0  0  0  0  0  0  0  0  0  0
    3.1602   -6.2214    1.8243 N   0  0  0  0  0  0  0  0  0  0  0  0
    3.6288   -5.0139    1.5297 C   0  0  0  0  0  0  0  0  0  0  0  0
   -1.5738   -3.2475    3.8306 C   0  0  0  0  0  0  0  0  0  0  0  0
   -1.9907   -4.5740    3.3961 C   0  0  0  0  0  0  0  0  0  0  0  0
   -1.1112   -5.6477    3.4518 C   0  0  0  0  0  0  0  0  0  0  0  0
   -1.4479   -6.9159    3.0528 C   0  0  0  0  0  0  0  0  0  0  0  0
   -2.6941   -7.1950    2.5720 C   0  0  0  0  0  0  0  0  0  0  0  0
   -3.6082   -6.1562    2.4985 C   0  0  0  0  0  0  0  0  0  0  0  0
   -3.2630   -4.8787    2.9013 C   0  0  0  0  0  0  0  0  0  0  0  0
   -3.4840   -3.2304   -1.2456 C   0  0  0  0  0  0  0  0  0  0  0  0
   -4.7389   -3.6112   -0.5413 C   0  0  0  0  0  0  0  0  0  0  0  0
   -5.4142   -4.8066   -1.2065 C   0  0  0  0  0  0  0  0  0  0  0  0
   -5.7541   -4.6001   -2.5740 N   0  0  0  0  0  0  0  0  0  0  0  0
   -6.8684   -5.0131   -3.1196 C   0  0  0  0  0  0  0  0  0  0  0  0
   -7.0726   -4.7354   -4.4960 N   0  0  0  0  0  0  0  0  0  0  0  0
   -7.8411   -5.7243   -2.3248 N   0  0  0  0  0  0  0  0  0  0  0  0
   -5.8401    1.0499   -0.3527 C   0  0  0  0  0  0  0  0  0  0  0  0
   -6.5037    2.3390   -0.1355 C   0  0  0  0  0  0  0  0  0  0  0  0
   -6.1033    3.2796    0.8223 C   0  0  0  0  0  0  0  0  0  0  0  0
   -6.9006    4.3440    0.7977 N   0  0  0  0  0  0  0  0  0  0  0  0
   -7.8340    4.1473   -0.1588 C   0  0  0  0  0  0  0  0  0  0  0  0
   -7.6107    2.9121   -0.7530 C   0  0  0  0  0  0  0  0  0  0  0  0
   -8.4091    2.4276   -1.7708 C   0  0  0  0  0  0  0  0  0  0  0  0
   -9.4669    3.1990   -2.2147 C   0  0  0  0  0  0  0  0  0  0  0  0
   -9.7273    4.4336   -1.6539 C   0  0  0  0  0  0  0  0  0  0  0  0
   -8.9080    4.8852   -0.6379 C   0  0  0  0  0  0  0  0  0  0  0  0
   -3.5421    5.6850   -1.4013 C   0  0  0  0  0  0  0  0  0  0  0  0
   -4.8037    5.7493   -1.5337 O   0  0  0  0  0  0  0  0  0  0  0  0
   -2.8515    6.8984   -1.2730 N   0  0  0  0  0  0  0  0  0  0  0  0
    8.3692    0.9020   -1.9392 N   0  0  0  0  0  0  0  0  0  0  0  0
    8.6200   -0.0843   -2.9829 C   0  0  0  0  0  0  0  0  0  0  0  0
    9.1289   -1.1935   -2.7307 O   0  0  0  0  0  0  0  0  0  0  0  0
    8.2657    0.2229   -4.4087 C   0  0  0  0  0  0  0  0  0  0  0  0
    8.0195    3.4184   -0.6603 H   0  0  0  0  0  0  0  0  0  0  0  0
    8.7369    5.0332   -0.8779 H   0  0  0  0  0  0  0  0  0  0  0  0
    9.0143    3.7985   -2.1007 H   0  0  0  0  0  0  0  0  0  0  0  0
   10.9919    3.3709   -1.1346 H   0  0  0  0  0  0  0  0  0  0  0  0
   10.5784    4.4252    0.2462 H   0  0  0  0  0  0  0  0  0  0  0  0
    9.6046    2.5041    1.4800 H   0  0  0  0  0  0  0  0  0  0  0  0
   11.2856    2.3117    1.0036 H   0  0  0  0  0  0  0  0  0  0  0  0
   10.1593    0.2202    0.8651 H   0  0  0  0  0  0  0  0  0  0  0  0
   10.8534    0.7007   -0.7182 H   0  0  0  0  0  0  0  0  0  0  0  0
    8.8441   -0.6223   -0.6382 H   0  0  0  0  0  0  0  0  0  0  0  0
    6.0475    1.1517   -1.1073 H   0  0  0  0  0  0  0  0  0  0  0  0
    5.7443    1.1448    1.9025 H   0  0  0  0  0  0  0  0  0  0  0  0
    4.2348    2.6504   -0.3696 H   0  0  0  0  0  0  0  0  0  0  0  0
    5.2547    3.3179    0.9155 H   0  0  0  0  0  0  0  0  0  0  0  0
    2.5571    2.0247    1.2963 H   0  0  0  0  0  0  0  0  0  0  0  0
    3.6491    2.5270    2.6723 H   0  0  0  0  0  0  0  0  0  0  0  0
    1.9584    4.1659    2.2347 H   0  0  0  0  0  0  0  0  0  0  0  0
    3.5788    4.8500    2.0170 H   0  0  0  0  0  0  0  0  0  0  0  0
    3.3923    4.4992   -0.4430 H   0  0  0  0  0  0  0  0  0  0  0  0
    2.2717    5.6902    0.1972 H   0  0  0  0  0  0  0  0  0  0  0  0
    0.3245    5.6413   -1.2096 H   0  0  0  0  0  0  0  0  0  0  0  0
   -1.9174    3.6790   -3.2068 H   0  0  0  0  0  0  0  0  0  0  0  0
   -1.4414    5.2905   -2.5542 H   0  0  0  0  0  0  0  0  0  0  0  0
   -2.5432    4.1796   -0.3079 H   0  0  0  0  0  0  0  0  0  0  0  0
   -4.9063    3.6726   -1.7793 H   0  0  0  0  0  0  0  0  0  0  0  0
   -5.5396    1.0648   -2.4731 H   0  0  0  0  0  0  0  0  0  0  0  0
   -4.5472   -1.0545   -2.3518 H   0  0  0  0  0  0  0  0  0  0  0  0
   -1.9351   -1.8505   -1.5527 H   0  0  0  0  0  0  0  0  0  0  0  0
   -0.9028   -2.8335    0.2128 H   0  0  0  0  0  0  0  0  0  0  0  0
   -0.9293   -1.2679    3.2893 H   0  0  0  0  0  0  0  0  0  0  0  0
    0.5844   -3.5169    1.8732 H   0  0  0  0  0  0  0  0  0  0  0  0
    2.6547   -2.0394    0.6555 H   0  0  0  0  0  0  0  0  0  0  0  0
    3.2632    0.1874    2.6403 H   0  0  0  0  0  0  0  0  0  0  0  0
    4.6031   -2.5480    1.9502 H   0  0  0  0  0  0  0  0  0  0  0  0
    3.7751   -2.2332    3.4768 H   0  0  0  0  0  0  0  0  0  0  0  0
    2.0567   -4.4233    4.2218 H   0  0  0  0  0  0  0  0  0  0  0  0
    1.9550   -6.9484    3.4492 H   0  0  0  0  0  0  0  0  0  0  0  0
    4.2356   -4.8051    0.6592 H   0  0  0  0  0  0  0  0  0  0  0  0
   -0.8211   -3.3065    4.6875 H   0  0  0  0  0  0  0  0  0  0  0  0
   -2.4640   -2.7893    4.3573 H   0  0  0  0  0  0  0  0  0  0  0  0
   -0.1337   -5.4368    3.8410 H   0  0  0  0  0  0  0  0  0  0  0  0
   -0.6802   -7.7001    3.1445 H   0  0  0  0  0  0  0  0  0  0  0  0
   -2.9024   -8.2059    2.2755 H   0  0  0  0  0  0  0  0  0  0  0  0
   -4.6114   -6.3897    2.1111 H   0  0  0  0  0  0  0  0  0  0  0  0
   -4.0342   -4.1308    2.8149 H   0  0  0  0  0  0  0  0  0  0  0  0
   -2.8548   -4.1779   -1.2679 H   0  0  0  0  0  0  0  0  0  0  0  0
   -3.6744   -3.0527   -2.3485 H   0  0  0  0  0  0  0  0  0  0  0  0
   -4.6283   -3.7601    0.5372 H   0  0  0  0  0  0  0  0  0  0  0  0
   -5.4702   -2.7607   -0.6598 H   0  0  0  0  0  0  0  0  0  0  0  0
   -6.3345   -5.1121   -0.6535 H   0  0  0  0  0  0  0  0  0  0  0  0
   -4.7224   -5.6980   -1.1826 H   0  0  0  0  0  0  0  0  0  0  0  0
   -7.0840   -3.8046   -4.9277 H   0  0  0  0  0  0  0  0  0  0  0  0
   -7.2241   -5.5830   -5.1201 H   0  0  0  0  0  0  0  0  0  0  0  0
   -8.1196   -6.7185   -2.5587 H   0  0  0  0  0  0  0  0  0  0  0  0
   -8.2884   -5.2350   -1.4927 H   0  0  0  0  0  0  0  0  0  0  0  0
   -6.6381    0.2536   -0.4811 H   0  0  0  0  0  0  0  0  0  0  0  0
   -5.3462    0.7569    0.6016 H   0  0  0  0  0  0  0  0  0  0  0  0
   -5.2498    3.1527    1.4969 H   0  0  0  0  0  0  0  0  0  0  0  0
   -6.8171    5.2012    1.4206 H   0  0  0  0  0  0  0  0  0  0  0  0
   -8.1906    1.4636   -2.1977 H   0  0  0  0  0  0  0  0  0  0  0  0
  -10.1231    2.8645   -3.0180 H   0  0  0  0  0  0  0  0  0  0  0  0
  -10.5666    5.0143   -2.0265 H   0  0  0  0  0  0  0  0  0  0  0  0
   -9.0956    5.8703   -0.1726 H   0  0  0  0  0  0  0  0  0  0  0  0
   -3.1265    7.5464   -0.4767 H   0  0  0  0  0  0  0  0  0  0  0  0
   -2.0884    7.2529   -1.8751 H   0  0  0  0  0  0  0  0  0  0  0  0
    7.9177    1.7575   -2.3133 H   0  0  0  0  0  0  0  0  0  0  0  0
    9.1152    0.7340   -4.8725 H   0  0  0  0  0  0  0  0  0  0  0  0
    7.9670   -0.7123   -4.9071 H   0  0  0  0  0  0  0  0  0  0  0  0
    7.4170    0.9460   -4.3587 H   0  0  0  0  0  0  0  0  0  0  0  0
  1  2  1  0
  2  3  1  0
  3  4  1  0
  4  5  1  0
  5  6  1  0
  6  7  2  0
  6  8  1  0
  8  9  1  0
  9 10  1  0
 10 11  1  0
 11 12  1  0
 12 13  1  0
 13 14  1  0
 14 15  1  0
 15 16  2  0
 16 17  1  0
 17 18  1  0
 17 19  1  0
 19 20  1  0
 20 21  1  0
 21 22  1  0
 22 23  2  0
 22 24  1  0
 24 25  1  0
 25 26  1  0
 26 27  2  0
 26 28  1  0
 28 29  1  0
 29 30  1  0
 30 31  2  0
 30 32  1  0
 32 33  1  0
 33 34  1  0
 34 35  2  0
 34 36  1  0
 36 37  1  0
 37 38  1  0
 38 39  2  0
 36 40  1  0
 40 41  1  0
 41 42  1  0
 42 43  1  0
 43 44  2  0
 44 45  1  0
 32 46  1  0
 46 47  1  0
 47 48  2  0
 48 49  1  0
 49 50  2  0
 50 51  1  0
 51 52  2  0
 28 53  1  0
 53 54  1  0
 54 55  1  0
 55 56  1  0
 56 57  2  3
 57 58  1  0
 57 59  1  0
 24 60  1  0
 60 61  1  0
 61 62  2  0
 62 63  1  0
 63 64  1  0
 64 65  2  0
 65 66  1  0
 66 67  2  0
 67 68  1  0
 68 69  2  0
 20 70  1  0
 70 71  2  0
 70 72  1  0
  5 73  1  0
 73 74  1  0
 74 75  2  0
 74 76  1  0
 38  9  1  0
 45 41  2  0
 52 47  1  0
 65 61  1  0
 18 14  2  0
 69 64  1  0
  1 77  1  0
  1 78  1  0
  1 79  1  0
  2 80  1  0
  2 81  1  0
  3 82  1  0
  3 83  1  0
  4 84  1  0
  4 85  1  0
  5 86  1  6
  8 87  1  0
  9 88  1  1
 10 89  1  0
 10 90  1  0
 11 91  1  0
 11 92  1  0
 12 93  1  0
 12 94  1  0
 13 95  1  0
 13 96  1  0
 18 97  1  0
 19 98  1  0
 19 99  1  0
 20100  1  1
 21101  1  0
 24102  1  6
 25103  1  0
 28104  1  6
 29105  1  0
 32106  1  1
 33107  1  0
 36108  1  6
 37109  1  0
 40110  1  0
 40111  1  0
 42112  1  0
 43113  1  0
 45114  1  0
 46115  1  0
 46116  1  0
 48117  1  0
 49118  1  0
 50119  1  0
 51120  1  0
 52121  1  0
 53122  1  0
 53123  1  0
 54124  1  0
 54125  1  0
 55126  1  0
 55127  1  0
 58128  1  0
 58129  1  0
 59130  1  0
 59131  1  0
 60132  1  0
 60133  1  0
 62134  1  0
 63135  1  0
 66136  1  0
 67137  1  0
 68138  1  0
 69139  1  0
 72140  1  0
 72141  1  0
 73142  1  0
 76143  1  0
 76144  1  0
 76145  1  0
M  END
>  <Ligand ID>  (1) 
LIG0001792

>  <Ligand>  (1) 
CHEMBL3358546

>  <SMILES>  (1) 
CCCC[C@@H](C(=O)N[C@H]1CCCCc2nnn(c2)C[C@H](NC(=O)[C@@H](NC(=O)[C@@H](NC(=O)[C@H](NC(=O)[C@@H](NC1=O)Cc1[nH]cnc1)Cc1ccccc1)CCCN=C(N)N)Cc1c[nH]c2c1cccc2)C(=O)N)NC(=O)C

>  <CID>  (1) 
118722938.0

>  <ChEMBL ID>  (1) 
nan

>  <InChiKey>  (1) 
YMFIKOFGKXEQLT-ZRBRQIMBSA-N

>  <InChi>  (1) 
InChI=1S/C51H69N17O8/c1-3-4-17-37(59-30(2)69)45(71)60-38-19-10-8-15-33-27-68(67-66-33)28-43(44(52)70)65-49(75)41(23-32-25-57-36-18-11-9-16-35(32)36)63-47(73)39(20-12-21-56-51(53)54)61-48(74)40(22-31-13-6-5-7-14-31)62-50(76)42(64-46(38)72)24-34-26-55-29-58-34/h5-7,9,11,13-14,16,18,25-27,29,37-43,57H,3-4,8,10,12,15,17,19-24,28H2,1-2H3,(H2,52,70)(H,55,58)(H,59,69)(H,60,71)(H,61,74)(H,62,76)(H,63,73)(H,64,72)(H,65,75)(H4,53,54,56)/t37-,38-,39-,40+,41-,42-,43-/m0/s1

>  <IUPAC Name>  (1) 
(3S,6S,9S,12R,15S,18S)-18-[[(2S)-2-acetamidohexanoyl]amino]-12-benzyl-9-[3-(diaminomethylideneamino)propyl]-15-(1H-imidazol-5-ylmethyl)-6-(1H-indol-3-ylmethyl)-5,8,11,14,17-pentaoxo-1,4,7,10,13,16,24,25-octazabicyclo[21.2.1]hexacosa-23(26),24-diene-3-carboxamide

$$$$
