
     RDKit          3D

 20 19  0  0  0  0  0  0  0  0999 V2000
   -2.0194    1.3064    0.6723 N   0  0  0  0  0  0  0  0  0  0  0  0
   -1.1929    0.5024   -0.2580 C   0  0  2  0  0  0  0  0  0  0  0  0
   -1.9485   -0.7603   -0.4456 C   0  0  0  0  0  0  0  0  0  0  0  0
   -2.9556   -0.6991   -1.2164 O   0  0  0  0  0  0  0  0  0  0  0  0
   -1.6665   -1.9651    0.1279 O   0  0  0  0  0  0  0  0  0  0  0  0
    0.1427    0.3253    0.3815 C   0  0  0  0  0  0  0  0  0  0  0  0
    1.1605   -0.4332   -0.3970 C   0  0  1  0  0  0  0  0  0  0  0  0
    2.4592   -0.5509    0.3310 C   0  0  0  0  0  0  0  0  0  0  0  0
    2.9898   -1.6637    0.5902 O   0  0  0  0  0  0  0  0  0  0  0  0
    3.1258    0.5991    0.7481 O   0  0  0  0  0  0  0  0  0  0  0  0
    0.7229   -1.6985   -0.6893 O   0  0  0  0  0  0  0  0  0  0  0  0
   -1.3510    1.9358    1.2089 H   0  0  0  0  0  0  0  0  0  0  0  0
   -2.6338    1.9185    0.0991 H   0  0  0  0  0  0  0  0  0  0  0  0
   -2.5171    0.6681    1.3094 H   0  0  0  0  0  0  0  0  0  0  0  0
   -1.0837    0.9755   -1.2408 H   0  0  0  0  0  0  0  0  0  0  0  0
    0.5755    1.3586    0.5322 H   0  0  0  0  0  0  0  0  0  0  0  0
    0.0210   -0.1389    1.4017 H   0  0  0  0  0  0  0  0  0  0  0  0
    1.3463    0.0928   -1.3664 H   0  0  0  0  0  0  0  0  0  0  0  0
    3.6210    0.6177    1.6442 H   0  0  0  0  0  0  0  0  0  0  0  0
    1.2038   -2.3905   -0.1632 H   0  0  0  0  0  0  0  0  0  0  0  0
  1  2  1  0
  2  3  1  0
  3  4  2  0
  3  5  1  0
  2  6  1  0
  6  7  1  0
  7  8  1  0
  8  9  2  0
  8 10  1  0
  7 11  1  0
  1 12  1  0
  1 13  1  0
  1 14  1  0
  2 15  1  6
  6 16  1  0
  6 17  1  0
  7 18  1  6
 10 19  1  0
 11 20  1  0
M  CHG  2   1   1   5  -1
M  END
>  <Ligand ID>  (1) 
LIG0002112

>  <Ligand>  (1) 
BDBM50100942

>  <SMILES>  (1) 
[NH3+][C@H](C(=O)[O-])C[C@@H](C(=O)O)O

>  <CID>  (1) 
44286641.0

>  <ChEMBL ID>  (1) 
nan

>  <InChiKey>  (1) 
HBDWQSHEVMSFGY-HRFVKAFMSA-N

>  <InChi>  (1) 
InChI=1S/C5H9NO5/c6-2(4(8)9)1-3(7)5(10)11/h2-3,7H,1,6H2,(H,8,9)(H,10,11)/t2-,3-/m0/s1

>  <IUPAC Name>  (1) 
(2S,4S)-2-azaniumyl-4,5-dihydroxy-5-oxopentanoate

$$$$
