
     RDKit          3D

 62 66  0  0  0  0  0  0  0  0999 V2000
   -2.2432    2.6957    0.4390 N   0  0  0  0  0  0  0  0  0  0  0  0
   -2.3515    1.6047   -0.4483 C   0  0  0  0  0  0  0  0  0  0  0  0
   -2.1655    1.8887   -1.6878 O   0  0  0  0  0  0  0  0  0  0  0  0
   -2.6540    0.2126   -0.0481 C   0  0  0  0  0  0  0  0  0  0  0  0
   -3.9729    0.1438    0.6385 C   0  0  0  0  0  0  0  0  0  0  0  0
   -4.3031   -0.9290    1.4673 C   0  0  0  0  0  0  0  0  0  0  0  0
   -5.5249   -1.0069    2.1060 C   0  0  0  0  0  0  0  0  0  0  0  0
   -6.4620   -0.0241    1.9456 C   0  0  0  0  0  0  0  0  0  0  0  0
   -6.1686    1.0416    1.1388 C   0  0  0  0  0  0  0  0  0  0  0  0
   -4.9451    1.1137    0.5028 C   0  0  0  0  0  0  0  0  0  0  0  0
   -2.8135   -0.5897   -1.2904 C   0  0  0  0  0  0  0  0  0  0  0  0
   -3.6318   -0.1027   -2.2904 C   0  0  0  0  0  0  0  0  0  0  0  0
   -3.7983   -0.8368   -3.4621 C   0  0  0  0  0  0  0  0  0  0  0  0
   -3.1855   -2.0392   -3.6870 C   0  0  0  0  0  0  0  0  0  0  0  0
   -2.3640   -2.5266   -2.6812 C   0  0  0  0  0  0  0  0  0  0  0  0
   -2.1982   -1.7916   -1.5096 C   0  0  0  0  0  0  0  0  0  0  0  0
   -1.5381   -0.3007    0.8172 C   0  0  2  0  0  0  0  0  0  0  0  0
   -1.3231    0.4711    2.0872 C   0  0  0  0  0  0  0  0  0  0  0  0
    0.0404    1.1160    1.9726 C   0  0  0  0  0  0  0  0  0  0  0  0
    0.4491    0.9681    0.5839 N   0  0  0  0  0  0  0  0  0  0  0  0
   -0.1981   -0.2400    0.1073 C   0  0  0  0  0  0  0  0  0  0  0  0
    1.8902    0.8485    0.5928 C   0  0  0  0  0  0  0  0  0  0  0  0
    2.4594    0.6878   -0.7954 C   0  0  0  0  0  0  0  0  0  0  0  0
    3.9191    0.5689   -0.7586 C   0  0  0  0  0  0  0  0  0  0  0  0
    4.7232    1.6881   -0.8362 C   0  0  0  0  0  0  0  0  0  0  0  0
    6.1000    1.5949   -0.8040 C   0  0  0  0  0  0  0  0  0  0  0  0
    6.6911    0.3379   -0.6902 C   0  0  0  0  0  0  0  0  0  0  0  0
    5.9117   -0.8021   -0.6104 C   0  0  0  0  0  0  0  0  0  0  0  0
    4.5412   -0.6563   -0.6468 C   0  0  0  0  0  0  0  0  0  0  0  0
    6.8110   -1.9877   -0.4973 C   0  0  0  0  0  0  0  0  0  0  0  0
    8.1701   -1.3346   -0.2353 C   0  0  0  0  0  0  0  0  0  0  0  0
    8.0234    0.0090   -0.6394 O   0  0  0  0  0  0  0  0  0  0  0  0
   -1.3256    3.2157    0.5192 H   0  0  0  0  0  0  0  0  0  0  0  0
   -3.0044    3.0597    1.0486 H   0  0  0  0  0  0  0  0  0  0  0  0
   -3.6077   -1.7395    1.6369 H   0  0  0  0  0  0  0  0  0  0  0  0
   -5.7803   -1.8421    2.7504 H   0  0  0  0  0  0  0  0  0  0  0  0
   -7.4256   -0.0833    2.4480 H   0  0  0  0  0  0  0  0  0  0  0  0
   -6.9191    1.8128    1.0203 H   0  0  0  0  0  0  0  0  0  0  0  0
   -4.7698    1.9753   -0.1242 H   0  0  0  0  0  0  0  0  0  0  0  0
   -4.1685    0.8245   -2.2385 H   0  0  0  0  0  0  0  0  0  0  0  0
   -4.4461   -0.4616   -4.2660 H   0  0  0  0  0  0  0  0  0  0  0  0
   -3.3263   -2.5951   -4.6025 H   0  0  0  0  0  0  0  0  0  0  0  0
   -1.8745   -3.4682   -2.8389 H   0  0  0  0  0  0  0  0  0  0  0  0
   -1.5611   -2.2093   -0.7714 H   0  0  0  0  0  0  0  0  0  0  0  0
   -1.6847   -1.3680    1.0791 H   0  0  0  0  0  0  0  0  0  0  0  0
   -2.0477    1.2603    2.2921 H   0  0  0  0  0  0  0  0  0  0  0  0
   -1.2202   -0.2322    2.9740 H   0  0  0  0  0  0  0  0  0  0  0  0
    0.8038    0.6535    2.6414 H   0  0  0  0  0  0  0  0  0  0  0  0
    0.0403    2.1976    2.2023 H   0  0  0  0  0  0  0  0  0  0  0  0
   -0.2744   -0.2093   -0.9903 H   0  0  0  0  0  0  0  0  0  0  0  0
    0.4730   -1.0849    0.3640 H   0  0  0  0  0  0  0  0  0  0  0  0
    2.2896    1.7903    1.0235 H   0  0  0  0  0  0  0  0  0  0  0  0
    2.1446    0.0447    1.2908 H   0  0  0  0  0  0  0  0  0  0  0  0
    2.0451   -0.1736   -1.3319 H   0  0  0  0  0  0  0  0  0  0  0  0
    2.2070    1.6269   -1.3445 H   0  0  0  0  0  0  0  0  0  0  0  0
    4.2168    2.6452   -0.9238 H   0  0  0  0  0  0  0  0  0  0  0  0
    6.7003    2.4984   -0.8674 H   0  0  0  0  0  0  0  0  0  0  0  0
    3.9505   -1.5709   -0.5821 H   0  0  0  0  0  0  0  0  0  0  0  0
    6.4680   -2.5941    0.3413 H   0  0  0  0  0  0  0  0  0  0  0  0
    6.8725   -2.5324   -1.4545 H   0  0  0  0  0  0  0  0  0  0  0  0
    8.3530   -1.4159    0.8539 H   0  0  0  0  0  0  0  0  0  0  0  0
    8.9831   -1.8480   -0.7852 H   0  0  0  0  0  0  0  0  0  0  0  0
  1  2  1  0
  2  3  2  0
  2  4  1  0
  4  5  1  0
  5  6  2  0
  6  7  1  0
  7  8  2  0
  8  9  1  0
  9 10  2  0
  4 11  1  0
 11 12  2  0
 12 13  1  0
 13 14  2  0
 14 15  1  0
 15 16  2  0
  4 17  1  0
 17 18  1  0
 18 19  1  0
 19 20  1  0
 20 21  1  0
 20 22  1  0
 22 23  1  0
 23 24  1  0
 24 25  2  0
 25 26  1  0
 26 27  2  0
 27 28  1  0
 28 29  2  0
 28 30  1  0
 30 31  1  0
 31 32  1  0
 10  5  1  0
 16 11  1  0
 21 17  1  0
 29 24  1  0
 32 27  1  0
  1 33  1  0
  1 34  1  0
  6 35  1  0
  7 36  1  0
  8 37  1  0
  9 38  1  0
 10 39  1  0
 12 40  1  0
 13 41  1  0
 14 42  1  0
 15 43  1  0
 16 44  1  0
 17 45  1  1
 18 46  1  0
 18 47  1  0
 19 48  1  0
 19 49  1  0
 21 50  1  0
 21 51  1  0
 22 52  1  0
 22 53  1  0
 23 54  1  0
 23 55  1  0
 25 56  1  0
 26 57  1  0
 29 58  1  0
 30 59  1  0
 30 60  1  0
 31 61  1  0
 31 62  1  0
M  END
>  <Ligand ID>  (1) 
LIG0000851

>  <Ligand>  (1) 
Darifenacin

>  <SMILES>  (1) 
NC(=O)C(c1ccccc1)(c1ccccc1)[C@@H]1CCN(C1)CCc1ccc2c(c1)CCO2

>  <CID>  (1) 
444031.0

>  <ChEMBL ID>  (1) 
nan

>  <InChiKey>  (1) 
HXGBXQDTNZMWGS-RUZDIDTESA-N

>  <InChi>  (1) 
InChI=1S/C28H30N2O2/c29-27(31)28(23-7-3-1-4-8-23,24-9-5-2-6-10-24)25-14-17-30(20-25)16-13-21-11-12-26-22(19-21)15-18-32-26/h1-12,19,25H,13-18,20H2,(H2,29,31)/t25-/m1/s1

>  <IUPAC Name>  (1) 
2-[(3S)-1-[2-(2,3-dihydro-1-benzofuran-5-yl)ethyl]pyrrolidin-3-yl]-2,2-diphenylacetamide

$$$$
