
     RDKit          3D

 63 65  0  0  0  0  0  0  0  0999 V2000
   -4.7734   -2.6898    4.3460 N   0  0  0  0  0  0  0  0  0  0  0  0
   -5.1752   -2.1233    3.4074 C   0  0  0  0  0  0  0  0  0  0  0  0
   -5.6553   -1.4236    2.2272 C   0  0  0  0  0  0  0  0  0  0  0  0
   -6.3427   -0.2194    2.3635 C   0  0  0  0  0  0  0  0  0  0  0  0
   -6.8083    0.4568    1.2559 C   0  0  0  0  0  0  0  0  0  0  0  0
   -6.5777   -0.0860    0.0216 C   0  0  0  0  0  0  0  0  0  0  0  0
   -5.9013   -1.2692   -0.1121 C   0  0  0  0  0  0  0  0  0  0  0  0
   -5.4133   -1.9869    0.9721 C   0  0  0  0  0  0  0  0  0  0  0  0
   -4.7046   -3.2751    0.8376 C   0  0  0  0  0  0  0  0  0  0  0  0
   -3.3703   -3.3124    1.0835 O   0  0  0  0  0  0  0  0  0  0  0  0
   -2.3259   -2.6735    0.5167 C   0  0  0  0  0  0  0  0  0  0  0  0
   -1.0478   -2.9616    1.0397 C   0  0  0  0  0  0  0  0  0  0  0  0
    0.0557   -2.3736    0.5429 N   0  0  0  0  0  0  0  0  0  0  0  0
    0.0165   -1.4876   -0.4662 C   0  0  0  0  0  0  0  0  0  0  0  0
   -1.2013   -1.2041   -0.9752 N   0  0  0  0  0  0  0  0  0  0  0  0
   -2.3397   -1.7671   -0.5128 C   0  0  0  0  0  0  0  0  0  0  0  0
    1.1478   -0.8518   -1.0261 N   0  0  0  0  0  0  0  0  0  0  0  0
    0.9926    0.4530   -1.7104 C   0  0  0  0  0  0  0  0  0  0  0  0
    1.8419    1.4050   -0.8640 C   0  0  0  0  0  0  0  0  0  0  0  0
    3.1170    0.8490   -0.4918 N   0  0  0  0  0  0  0  0  0  0  0  0
    3.1947   -0.5154    0.0723 C   0  0  0  0  0  0  0  0  0  0  0  0
    2.4979   -1.3633   -1.0028 C   0  0  1  0  0  0  0  0  0  0  0  0
    2.6704   -2.8175   -0.8515 C   0  0  0  0  0  0  0  0  0  0  0  0
    4.3439    1.5973   -0.6532 C   0  0  0  0  0  0  0  0  0  0  0  0
    4.2190    2.7566   -1.1292 O   0  0  0  0  0  0  0  0  0  0  0  0
    5.5346    1.0213   -0.2905 O   0  0  0  0  0  0  0  0  0  0  0  0
    6.7291    1.7611   -0.4550 C   0  0  0  0  0  0  0  0  0  0  0  0
    6.9611    2.1536   -1.9192 C   0  0  0  0  0  0  0  0  0  0  0  0
    7.8468    0.8302    0.0184 C   0  0  0  0  0  0  0  0  0  0  0  0
    6.6389    3.0075    0.3866 C   0  0  0  0  0  0  0  0  0  0  0  0
   -7.6680    1.9752    1.3374 S   0  0  0  0  0  0  0  0  0  0  0  0
   -8.7512    2.0305    0.3005 O   0  0  0  0  0  0  0  0  0  0  0  0
   -8.3063    2.1527    2.7026 O   0  0  0  0  0  0  0  0  0  0  0  0
   -6.5435    3.3530    1.1433 C   0  0  0  0  0  0  0  0  0  0  0  0
   -6.5302    0.2184    3.3543 H   0  0  0  0  0  0  0  0  0  0  0  0
   -6.9138    0.3874   -0.9149 H   0  0  0  0  0  0  0  0  0  0  0  0
   -5.7218   -1.6944   -1.1036 H   0  0  0  0  0  0  0  0  0  0  0  0
   -5.2087   -4.0029    1.5490 H   0  0  0  0  0  0  0  0  0  0  0  0
   -4.9690   -3.6490   -0.2054 H   0  0  0  0  0  0  0  0  0  0  0  0
   -0.9406   -3.6721    1.8615 H   0  0  0  0  0  0  0  0  0  0  0  0
   -3.2478   -1.4884   -0.9770 H   0  0  0  0  0  0  0  0  0  0  0  0
    1.3172    0.3916   -2.7492 H   0  0  0  0  0  0  0  0  0  0  0  0
   -0.0470    0.7746   -1.5499 H   0  0  0  0  0  0  0  0  0  0  0  0
    1.9716    2.3216   -1.4555 H   0  0  0  0  0  0  0  0  0  0  0  0
    1.2416    1.6859    0.0502 H   0  0  0  0  0  0  0  0  0  0  0  0
    4.2301   -0.8091    0.2412 H   0  0  0  0  0  0  0  0  0  0  0  0
    2.5453   -0.5691    0.9812 H   0  0  0  0  0  0  0  0  0  0  0  0
    3.0021   -1.0108   -1.9662 H   0  0  0  0  0  0  0  0  0  0  0  0
    2.6630   -3.2552   -1.9016 H   0  0  0  0  0  0  0  0  0  0  0  0
    3.7214   -3.0427   -0.5112 H   0  0  0  0  0  0  0  0  0  0  0  0
    1.9293   -3.3883   -0.3071 H   0  0  0  0  0  0  0  0  0  0  0  0
    6.2573    1.5324   -2.5231 H   0  0  0  0  0  0  0  0  0  0  0  0
    7.9972    1.9015   -2.2281 H   0  0  0  0  0  0  0  0  0  0  0  0
    6.7296    3.2239   -2.0918 H   0  0  0  0  0  0  0  0  0  0  0  0
    7.6241   -0.1718   -0.4521 H   0  0  0  0  0  0  0  0  0  0  0  0
    8.8050    1.2305   -0.3237 H   0  0  0  0  0  0  0  0  0  0  0  0
    7.7543    0.7096    1.1005 H   0  0  0  0  0  0  0  0  0  0  0  0
    7.5869    3.0897    0.9902 H   0  0  0  0  0  0  0  0  0  0  0  0
    6.5437    3.9192   -0.2716 H   0  0  0  0  0  0  0  0  0  0  0  0
    5.7566    3.0137    1.0359 H   0  0  0  0  0  0  0  0  0  0  0  0
   -7.1214    4.2949    1.2323 H   0  0  0  0  0  0  0  0  0  0  0  0
   -6.0698    3.3129    0.1458 H   0  0  0  0  0  0  0  0  0  0  0  0
   -5.8075    3.3445    1.9682 H   0  0  0  0  0  0  0  0  0  0  0  0
  1  2  3  0
  2  3  1  0
  3  4  2  0
  4  5  1  0
  5  6  2  0
  6  7  1  0
  7  8  2  0
  8  9  1  0
  9 10  1  0
 10 11  1  0
 11 12  2  0
 12 13  1  0
 13 14  2  0
 14 15  1  0
 15 16  2  0
 14 17  1  0
 17 18  1  0
 18 19  1  0
 19 20  1  0
 20 21  1  0
 21 22  1  0
 22 23  1  0
 20 24  1  0
 24 25  2  0
 24 26  1  0
 26 27  1  0
 27 28  1  0
 27 29  1  0
 27 30  1  0
  5 31  1  0
 31 32  2  0
 31 33  2  0
 31 34  1  0
  8  3  1  0
 16 11  1  0
 22 17  1  0
  4 35  1  0
  6 36  1  0
  7 37  1  0
  9 38  1  0
  9 39  1  0
 12 40  1  0
 16 41  1  0
 18 42  1  0
 18 43  1  0
 19 44  1  0
 19 45  1  0
 21 46  1  0
 21 47  1  0
 22 48  1  6
 23 49  1  0
 23 50  1  0
 23 51  1  0
 28 52  1  0
 28 53  1  0
 28 54  1  0
 29 55  1  0
 29 56  1  0
 29 57  1  0
 30 58  1  0
 30 59  1  0
 30 60  1  0
 34 61  1  0
 34 62  1  0
 34 63  1  0
M  END
>  <Ligand ID>  (1) 
LIG0005281

>  <Ligand>  (1) 
CHEMBL2086673

>  <SMILES>  (1) 
N#Cc1cc(ccc1COc1cnc(nc1)N1CCN(C[C@H]1C)C(=O)OC(C)(C)C)S(=O)(=O)C

>  <CID>  (1) 
60155366.0

>  <ChEMBL ID>  (1) 
nan

>  <InChiKey>  (1) 
PBWNUNVXZZYHOC-MRXNPFEDSA-N

>  <InChi>  (1) 
InChI=1S/C23H29N5O5S/c1-16-14-27(22(29)33-23(2,3)4)8-9-28(16)21-25-12-19(13-26-21)32-15-17-6-7-20(34(5,30)31)10-18(17)11-24/h6-7,10,12-13,16H,8-9,14-15H2,1-5H3/t16-/m1/s1

>  <IUPAC Name>  (1) 
tert-butyl (3R)-4-[5-[(2-cyano-4-methylsulfonylphenyl)methoxy]pyrimidin-2-yl]-3-methylpiperazine-1-carboxylate

$$$$
