
     RDKit          3D

 68 70  0  0  0  0  0  0  0  0999 V2000
   -4.8762    3.0571   -0.3195 C   0  0  0  0  0  0  0  0  0  0  0  0
   -6.0781    2.1824   -0.3875 C   0  0  0  0  0  0  0  0  0  0  0  0
   -5.8420    0.9117   -1.6274 S   0  0  0  0  0  0  0  0  0  0  0  0
   -4.6126   -0.2460   -1.0621 C   0  0  0  0  0  0  0  0  0  0  0  0
   -3.2850   -0.2132   -1.4047 C   0  0  0  0  0  0  0  0  0  0  0  0
   -2.4268   -1.1927   -0.8807 C   0  0  0  0  0  0  0  0  0  0  0  0
   -2.9498   -2.1760   -0.0272 C   0  0  0  0  0  0  0  0  0  0  0  0
   -4.2815   -2.2114    0.3195 C   0  0  0  0  0  0  0  0  0  0  0  0
   -5.0950   -1.2437   -0.1996 C   0  0  0  0  0  0  0  0  0  0  0  0
   -6.5030   -1.2055    0.2647 C   0  0  0  0  0  0  0  0  0  0  0  0
   -7.4658   -1.0085   -0.4973 O   0  0  0  0  0  0  0  0  0  0  0  0
   -6.6378   -1.4113    1.6834 N   0  0  0  0  0  0  0  0  0  0  0  0
   -8.1309   -1.3801    2.5117 S   0  0  0  0  0  0  0  0  0  0  0  0
   -9.2881   -1.7176    1.6165 O   0  0  0  0  0  0  0  0  0  0  0  0
   -8.0656   -2.2757    3.7187 O   0  0  0  0  0  0  0  0  0  0  0  0
   -8.4289    0.2930    3.1291 C   0  0  0  0  0  0  0  0  0  0  0  0
   -1.0116   -1.2267   -1.1051 C   0  0  0  0  0  0  0  0  0  0  0  0
   -0.3180   -0.8318   -2.2173 C   0  0  0  0  0  0  0  0  0  0  0  0
    1.0940   -0.8787   -2.2598 C   0  0  0  0  0  0  0  0  0  0  0  0
    1.8388   -1.3149   -1.2102 C   0  0  0  0  0  0  0  0  0  0  0  0
    1.1360   -1.7223   -0.0705 C   0  0  0  0  0  0  0  0  0  0  0  0
   -0.2271   -1.6750   -0.0322 C   0  0  0  0  0  0  0  0  0  0  0  0
    3.3062   -1.3975   -1.1185 C   0  0  0  0  0  0  0  0  0  0  0  0
    3.8141   -0.0679   -0.5597 C   0  0  0  0  0  0  0  0  0  0  0  0
    5.2264   -0.0534   -0.3731 N   0  0  0  0  0  0  0  0  0  0  0  0
    5.6698   -0.8492    0.7303 C   0  0  0  0  0  0  0  0  0  0  0  0
    7.1874   -0.7555    0.8339 C   0  0  1  0  0  0  0  0  0  0  0  0
    7.6718    0.6057    0.6498 C   0  0  0  0  0  0  0  0  0  0  0  0
    7.0587    1.7295    1.2143 C   0  0  0  0  0  0  0  0  0  0  0  0
    7.5502    2.9491    0.9368 N   0  0  0  0  0  0  0  0  0  0  0  0
    8.6237    3.1126    0.1248 C   0  0  0  0  0  0  0  0  0  0  0  0
    9.2785    2.0499   -0.4649 C   0  0  0  0  0  0  0  0  0  0  0  0
    8.7763    0.7911   -0.1824 C   0  0  0  0  0  0  0  0  0  0  0  0
    9.4569   -0.3203   -0.7594 N   0  0  0  0  0  0  0  0  0  0  0  0
    7.6812   -1.4350    1.9240 O   0  0  0  0  0  0  0  0  0  0  0  0
   -7.3844    2.9326   -0.5866 C   0  0  0  0  0  0  0  0  0  0  0  0
   -5.1923    4.1433   -0.3589 H   0  0  0  0  0  0  0  0  0  0  0  0
   -4.1625    2.9307   -1.1707 H   0  0  0  0  0  0  0  0  0  0  0  0
   -4.2963    2.8630    0.6114 H   0  0  0  0  0  0  0  0  0  0  0  0
   -6.2172    1.7075    0.6511 H   0  0  0  0  0  0  0  0  0  0  0  0
   -2.9156    0.5572   -2.0666 H   0  0  0  0  0  0  0  0  0  0  0  0
   -2.3278   -2.9585    0.3855 H   0  0  0  0  0  0  0  0  0  0  0  0
   -4.6539   -2.9873    0.9876 H   0  0  0  0  0  0  0  0  0  0  0  0
   -5.7749   -1.5986    2.2864 H   0  0  0  0  0  0  0  0  0  0  0  0
   -9.3748    0.6993    2.7741 H   0  0  0  0  0  0  0  0  0  0  0  0
   -8.4613    0.3148    4.2372 H   0  0  0  0  0  0  0  0  0  0  0  0
   -7.5752    0.9724    2.8340 H   0  0  0  0  0  0  0  0  0  0  0  0
   -0.8776   -0.4830   -3.0707 H   0  0  0  0  0  0  0  0  0  0  0  0
    1.6221   -0.5548   -3.1500 H   0  0  0  0  0  0  0  0  0  0  0  0
    1.6749   -2.0870    0.8054 H   0  0  0  0  0  0  0  0  0  0  0  0
   -0.6946   -2.0017    0.8981 H   0  0  0  0  0  0  0  0  0  0  0  0
    3.7750   -1.5061   -2.1252 H   0  0  0  0  0  0  0  0  0  0  0  0
    3.6718   -2.2264   -0.4867 H   0  0  0  0  0  0  0  0  0  0  0  0
    3.2910   -0.0025    0.4497 H   0  0  0  0  0  0  0  0  0  0  0  0
    3.4195    0.7829   -1.1346 H   0  0  0  0  0  0  0  0  0  0  0  0
    5.7858   -0.1361   -1.2352 H   0  0  0  0  0  0  0  0  0  0  0  0
    5.3946   -1.9181    0.6169 H   0  0  0  0  0  0  0  0  0  0  0  0
    5.1980   -0.5309    1.6894 H   0  0  0  0  0  0  0  0  0  0  0  0
    7.5351   -1.3826   -0.0753 H   0  0  0  0  0  0  0  0  0  0  0  0
    6.2038    1.5539    1.8530 H   0  0  0  0  0  0  0  0  0  0  0  0
    8.9516    4.1467   -0.0478 H   0  0  0  0  0  0  0  0  0  0  0  0
   10.1320    2.1860   -1.1094 H   0  0  0  0  0  0  0  0  0  0  0  0
   10.3139   -0.6394   -0.2206 H   0  0  0  0  0  0  0  0  0  0  0  0
    9.1813   -0.8083   -1.6218 H   0  0  0  0  0  0  0  0  0  0  0  0
    7.0587   -2.1744    2.1501 H   0  0  0  0  0  0  0  0  0  0  0  0
   -7.5097    3.5923    0.3196 H   0  0  0  0  0  0  0  0  0  0  0  0
   -7.4266    3.5546   -1.4710 H   0  0  0  0  0  0  0  0  0  0  0  0
   -8.2105    2.1865   -0.5176 H   0  0  0  0  0  0  0  0  0  0  0  0
  1  2  1  0
  2  3  1  0
  3  4  1  0
  4  5  2  0
  5  6  1  0
  6  7  2  0
  7  8  1  0
  8  9  2  0
  9 10  1  0
 10 11  2  0
 10 12  1  0
 12 13  1  0
 13 14  2  0
 13 15  2  0
 13 16  1  0
  6 17  1  0
 17 18  2  0
 18 19  1  0
 19 20  2  0
 20 21  1  0
 21 22  2  0
 20 23  1  0
 23 24  1  0
 24 25  1  0
 25 26  1  0
 26 27  1  0
 27 28  1  0
 28 29  2  0
 29 30  1  0
 30 31  2  0
 31 32  1  0
 32 33  2  0
 33 34  1  0
 27 35  1  0
  2 36  1  0
  9  4  1  0
 22 17  1  0
 33 28  1  0
  1 37  1  0
  1 38  1  0
  1 39  1  0
  2 40  1  0
  5 41  1  0
  7 42  1  0
  8 43  1  0
 12 44  1  0
 16 45  1  0
 16 46  1  0
 16 47  1  0
 18 48  1  0
 19 49  1  0
 21 50  1  0
 22 51  1  0
 23 52  1  0
 23 53  1  0
 24 54  1  0
 24 55  1  0
 25 56  1  0
 26 57  1  0
 26 58  1  0
 27 59  1  6
 29 60  1  0
 31 61  1  0
 32 62  1  0
 34 63  1  0
 34 64  1  0
 35 65  1  0
 36 66  1  0
 36 67  1  0
 36 68  1  0
M  END
>  <Ligand ID>  (1) 
LIG0003504

>  <Ligand>  (1) 
CHEMBL490733

>  <SMILES>  (1) 
CC(Sc1cc(ccc1C(=O)NS(=O)(=O)C)c1ccc(cc1)CCNC[C@@H](c1cnccc1N)O)C

>  <CID>  (1) 
44565932.0

>  <ChEMBL ID>  (1) 
nan

>  <InChiKey>  (1) 
PSRIBYPGMDXJKD-DEOSSOPVSA-N

>  <InChi>  (1) 
InChI=1S/C26H32N4O4S2/c1-17(2)35-25-14-20(8-9-21(25)26(32)30-36(3,33)34)19-6-4-18(5-7-19)10-12-29-16-24(31)22-15-28-13-11-23(22)27/h4-9,11,13-15,17,24,29,31H,10,12,16H2,1-3H3,(H2,27,28)(H,30,32)/t24-/m0/s1

>  <IUPAC Name>  (1) 
4-[4-[2-[[(2R)-2-(4-aminopyridin-3-yl)-2-hydroxyethyl]amino]ethyl]phenyl]-N-methylsulfonyl-2-propan-2-ylsulfanylbenzamide

$$$$
