
     RDKit          3D

160163  0  0  0  0  0  0  0  0999 V2000
    6.9559   -3.6170    3.9053 C   0  0  0  0  0  0  0  0  0  0  0  0
    6.9924   -2.2165    3.6128 N   0  0  0  0  0  0  0  0  0  0  0  0
    6.1331   -1.5482    2.9337 C   0  0  0  0  0  0  0  0  0  0  0  0
    6.3767   -0.1209    2.7575 N   0  0  0  0  0  0  0  0  0  0  0  0
    7.6807    0.3258    3.0135 C   0  0  0  0  0  0  0  0  0  0  0  0
    8.2246    1.6248    2.6542 C   0  0  0  0  0  0  0  0  0  0  0  0
    8.3990    2.0385    1.2481 C   0  0  0  0  0  0  0  0  0  0  0  0
    7.3989    2.3341    0.2725 C   0  0  1  0  0  0  0  0  0  0  0  0
    8.0824    2.6083   -1.0884 C   0  0  0  0  0  0  0  0  0  0  0  0
    7.3519    2.2552   -2.0514 O   0  0  0  0  0  0  0  0  0  0  0  0
    9.3532    3.1851   -1.2049 N   0  0  0  0  0  0  0  0  0  0  0  0
   10.0865    3.5318   -2.3548 C   0  0  2  0  0  0  0  0  0  0  0  0
    9.1887    4.0574   -3.4461 C   0  0  0  0  0  0  0  0  0  0  0  0
    9.7560    4.2380   -4.5591 O   0  0  0  0  0  0  0  0  0  0  0  0
    7.8326    4.3583   -3.3484 N   0  0  0  0  0  0  0  0  0  0  0  0
   11.0893    2.5890   -2.9140 C   0  0  0  0  0  0  0  0  0  0  0  0
   12.2045    2.2239   -2.0399 C   0  0  0  0  0  0  0  0  0  0  0  0
   13.4411    2.8753   -2.0947 C   0  0  0  0  0  0  0  0  0  0  0  0
   14.2816    2.3706   -1.1849 N   0  0  0  0  0  0  0  0  0  0  0  0
   13.6324    1.4039   -0.5304 C   0  0  0  0  0  0  0  0  0  0  0  0
   12.3467    1.2943   -1.0412 C   0  0  0  0  0  0  0  0  0  0  0  0
   11.4785    0.3566   -0.5438 C   0  0  0  0  0  0  0  0  0  0  0  0
   11.8218   -0.5182    0.4731 C   0  0  0  0  0  0  0  0  0  0  0  0
   13.1149   -0.3901    0.9688 C   0  0  0  0  0  0  0  0  0  0  0  0
   14.0061    0.5368    0.4944 C   0  0  0  0  0  0  0  0  0  0  0  0
    6.1841    1.6513    0.0688 N   0  0  0  0  0  0  0  0  0  0  0  0
    5.1017    2.3936   -0.5276 C   0  0  0  0  0  0  0  0  0  0  0  0
    5.3711    3.6004   -0.8611 O   0  0  0  0  0  0  0  0  0  0  0  0
    3.7560    1.9171   -0.7899 C   0  0  1  0  0  0  0  0  0  0  0  0
    3.2519    0.8366   -0.0174 N   0  0  0  0  0  0  0  0  0  0  0  0
    2.5792   -0.3216   -0.5381 C   0  0  0  0  0  0  0  0  0  0  0  0
    2.4390   -0.4905   -1.7958 O   0  0  0  0  0  0  0  0  0  0  0  0
    2.0888   -1.2386    0.4154 N   0  0  0  0  0  0  0  0  0  0  0  0
    1.4179   -2.4352    0.1784 N   0  0  0  0  0  0  0  0  0  0  0  0
   -0.0172   -2.5036    0.0404 C   0  0  0  0  0  0  0  0  0  0  0  0
   -0.7024   -1.4218    0.1330 O   0  0  0  0  0  0  0  0  0  0  0  0
   -0.6902   -3.7989   -0.1924 C   0  0  1  0  0  0  0  0  0  0  0  0
   -2.1552   -3.6105   -0.1184 N   0  0  0  0  0  0  0  0  0  0  0  0
   -2.8383   -4.0247    1.0441 C   0  0  0  0  0  0  0  0  0  0  0  0
   -2.1183   -4.5324    1.9632 O   0  0  0  0  0  0  0  0  0  0  0  0
   -4.2767   -3.9334    1.3042 C   0  0  2  0  0  0  0  0  0  0  0  0
   -4.7536   -5.4005    1.5474 C   0  0  2  0  0  0  0  0  0  0  0  0
   -4.0453   -5.9722    2.5891 O   0  0  0  0  0  0  0  0  0  0  0  0
   -4.5103   -6.2319    0.3047 C   0  0  0  0  0  0  0  0  0  0  0  0
   -5.0874   -3.4684    0.2154 N   0  0  0  0  0  0  0  0  0  0  0  0
   -6.2810   -2.7225    0.4746 C   0  0  0  0  0  0  0  0  0  0  0  0
   -6.6549   -2.4276    1.6411 O   0  0  0  0  0  0  0  0  0  0  0  0
   -7.0709   -2.3199   -0.7391 C   0  0  1  0  0  0  0  0  0  0  0  0
   -8.3019   -1.7061   -0.2229 N   0  0  0  0  0  0  0  0  0  0  0  0
   -9.4271   -2.5326   -0.1260 C   0  0  0  0  0  0  0  0  0  0  0  0
   -9.2451   -3.7607   -0.4960 O   0  0  0  0  0  0  0  0  0  0  0  0
  -10.7763   -2.2192    0.3303 C   0  0  0  0  0  0  0  0  0  0  0  0
  -11.0711   -0.8741    0.7006 N   0  0  0  0  0  0  0  0  0  0  0  0
  -10.9785    0.2219   -0.2224 C   0  0  0  0  0  0  0  0  0  0  0  0
  -10.5992   -0.0787   -1.3844 O   0  0  0  0  0  0  0  0  0  0  0  0
  -11.3090    1.6220    0.1597 C   0  0  1  0  0  0  0  0  0  0  0  0
  -12.2475    2.1351   -0.8908 C   0  0  0  0  0  0  0  0  0  0  0  0
  -12.6892    3.5159   -0.6780 C   0  0  0  0  0  0  0  0  0  0  0  0
  -11.9217    4.5678   -1.1515 C   0  0  0  0  0  0  0  0  0  0  0  0
  -12.3221    5.8960   -1.0020 C   0  0  0  0  0  0  0  0  0  0  0  0
  -13.5152    6.1538   -0.3645 C   0  0  0  0  0  0  0  0  0  0  0  0
  -14.3173    5.1359    0.1261 C   0  0  0  0  0  0  0  0  0  0  0  0
  -13.8953    3.8335   -0.0365 C   0  0  0  0  0  0  0  0  0  0  0  0
  -13.9291    7.4760   -0.2115 O   0  0  0  0  0  0  0  0  0  0  0  0
  -11.7463    1.7888    1.5050 N   0  0  0  0  0  0  0  0  0  0  0  0
  -12.9976    1.2171    1.9221 C   0  0  0  0  0  0  0  0  0  0  0  0
  -13.7335    0.5579    1.1331 O   0  0  0  0  0  0  0  0  0  0  0  0
  -13.5080    1.3628    3.3177 C   0  0  0  0  0  0  0  0  0  0  0  0
   -6.3477   -1.3677   -1.6209 C   0  0  0  0  0  0  0  0  0  0  0  0
   -7.1650   -1.0090   -2.8052 C   0  0  0  0  0  0  0  0  0  0  0  0
   -6.6817   -0.1428   -3.6015 O   0  0  0  0  0  0  0  0  0  0  0  0
   -8.4267   -1.5571   -3.1070 N   0  0  0  0  0  0  0  0  0  0  0  0
   -0.3802   -4.3322   -1.5502 C   0  0  0  0  0  0  0  0  0  0  0  0
    1.0242   -4.5831   -1.8707 C   0  0  0  0  0  0  0  0  0  0  0  0
    1.6081   -5.7802   -1.4751 C   0  0  0  0  0  0  0  0  0  0  0  0
    2.9054   -6.0519   -1.7957 C   0  0  0  0  0  0  0  0  0  0  0  0
    3.6372   -5.1294   -2.5188 C   0  0  0  0  0  0  0  0  0  0  0  0
    3.1002   -3.9255   -2.9353 C   0  0  0  0  0  0  0  0  0  0  0  0
    1.7710   -3.6492   -2.6049 C   0  0  0  0  0  0  0  0  0  0  0  0
    2.8150    3.1113   -0.8086 C   0  0  0  0  0  0  0  0  0  0  0  0
    2.7226    3.9083    0.4273 C   0  0  0  0  0  0  0  0  0  0  0  0
    2.2453    3.1876    1.6516 C   0  0  0  0  0  0  0  0  0  0  0  0
    1.7248    5.0468    0.1364 C   0  0  0  0  0  0  0  0  0  0  0  0
    5.0258   -2.2184    2.3818 N   0  0  0  0  0  0  0  0  0  0  0  0
    7.2567   -4.2461    3.0294 H   0  0  0  0  0  0  0  0  0  0  0  0
    7.7623   -3.8152    4.6636 H   0  0  0  0  0  0  0  0  0  0  0  0
    6.0176   -3.9831    4.3656 H   0  0  0  0  0  0  0  0  0  0  0  0
    5.5332    0.4224    2.4747 H   0  0  0  0  0  0  0  0  0  0  0  0
    7.8313    0.1978    4.1479 H   0  0  0  0  0  0  0  0  0  0  0  0
    8.4116   -0.5119    2.6521 H   0  0  0  0  0  0  0  0  0  0  0  0
    9.2226    1.7194    3.2164 H   0  0  0  0  0  0  0  0  0  0  0  0
    7.6479    2.4858    3.1582 H   0  0  0  0  0  0  0  0  0  0  0  0
    9.3024    1.4528    0.7868 H   0  0  0  0  0  0  0  0  0  0  0  0
    8.9876    3.0608    1.3894 H   0  0  0  0  0  0  0  0  0  0  0  0
    7.0510    3.4767    0.4387 H   0  0  0  0  0  0  0  0  0  0  0  0
    9.8476    3.3867   -0.2639 H   0  0  0  0  0  0  0  0  0  0  0  0
   10.6801    4.5117   -2.0521 H   0  0  0  0  0  0  0  0  0  0  0  0
    7.2052    4.0053   -4.1359 H   0  0  0  0  0  0  0  0  0  0  0  0
    7.3537    4.8926   -2.6021 H   0  0  0  0  0  0  0  0  0  0  0  0
   10.5234    1.6144   -3.1168 H   0  0  0  0  0  0  0  0  0  0  0  0
   11.4487    2.9816   -3.9051 H   0  0  0  0  0  0  0  0  0  0  0  0
   13.7152    3.6935   -2.7788 H   0  0  0  0  0  0  0  0  0  0  0  0
   15.2809    2.6492   -0.9826 H   0  0  0  0  0  0  0  0  0  0  0  0
   10.4848    0.3150   -0.9755 H   0  0  0  0  0  0  0  0  0  0  0  0
   11.1200   -1.2650    0.8620 H   0  0  0  0  0  0  0  0  0  0  0  0
   13.3996   -1.0553    1.7517 H   0  0  0  0  0  0  0  0  0  0  0  0
   14.9944    0.5621    0.9474 H   0  0  0  0  0  0  0  0  0  0  0  0
    5.9577    0.6567    0.2585 H   0  0  0  0  0  0  0  0  0  0  0  0
    3.7124    1.5307   -1.8887 H   0  0  0  0  0  0  0  0  0  0  0  0
    3.4141    0.8970    1.0323 H   0  0  0  0  0  0  0  0  0  0  0  0
    2.1998   -1.0146    1.4557 H   0  0  0  0  0  0  0  0  0  0  0  0
    2.0244   -3.2918    0.1245 H   0  0  0  0  0  0  0  0  0  0  0  0
   -0.3585   -4.4605    0.6465 H   0  0  0  0  0  0  0  0  0  0  0  0
   -2.6947   -3.1811   -0.8925 H   0  0  0  0  0  0  0  0  0  0  0  0
   -4.5445   -3.3880    2.2620 H   0  0  0  0  0  0  0  0  0  0  0  0
   -5.8426   -5.3866    1.7654 H   0  0  0  0  0  0  0  0  0  0  0  0
   -4.6345   -6.5425    3.1713 H   0  0  0  0  0  0  0  0  0  0  0  0
   -5.2689   -7.0335    0.3244 H   0  0  0  0  0  0  0  0  0  0  0  0
   -4.6425   -5.6788   -0.6399 H   0  0  0  0  0  0  0  0  0  0  0  0
   -3.4840   -6.6906    0.3469 H   0  0  0  0  0  0  0  0  0  0  0  0
   -4.7983   -3.6779   -0.7581 H   0  0  0  0  0  0  0  0  0  0  0  0
   -7.3009   -3.2618   -1.3048 H   0  0  0  0  0  0  0  0  0  0  0  0
   -8.3653   -0.7194    0.0644 H   0  0  0  0  0  0  0  0  0  0  0  0
  -11.5078   -2.5661   -0.4671 H   0  0  0  0  0  0  0  0  0  0  0  0
  -11.0444   -2.8996    1.2044 H   0  0  0  0  0  0  0  0  0  0  0  0
  -11.3706   -0.6453    1.6962 H   0  0  0  0  0  0  0  0  0  0  0  0
  -10.3560    2.2348    0.0374 H   0  0  0  0  0  0  0  0  0  0  0  0
  -11.7488    2.1134   -1.8956 H   0  0  0  0  0  0  0  0  0  0  0  0
  -13.1703    1.5085   -0.9730 H   0  0  0  0  0  0  0  0  0  0  0  0
  -10.9611    4.3960   -1.6672 H   0  0  0  0  0  0  0  0  0  0  0  0
  -11.6965    6.7011   -1.3853 H   0  0  0  0  0  0  0  0  0  0  0  0
  -15.2516    5.3906    0.6224 H   0  0  0  0  0  0  0  0  0  0  0  0
  -14.5455    3.0619    0.3540 H   0  0  0  0  0  0  0  0  0  0  0  0
  -13.6445    8.1433   -0.9474 H   0  0  0  0  0  0  0  0  0  0  0  0
  -11.2165    2.3134    2.2350 H   0  0  0  0  0  0  0  0  0  0  0  0
  -12.7207    1.7686    3.9898 H   0  0  0  0  0  0  0  0  0  0  0  0
  -14.4236    1.9863    3.3505 H   0  0  0  0  0  0  0  0  0  0  0  0
  -13.7646    0.3688    3.7011 H   0  0  0  0  0  0  0  0  0  0  0  0
   -5.3770   -1.7802   -1.9955 H   0  0  0  0  0  0  0  0  0  0  0  0
   -6.1486   -0.4032   -1.0586 H   0  0  0  0  0  0  0  0  0  0  0  0
   -8.7218   -2.5327   -2.9104 H   0  0  0  0  0  0  0  0  0  0  0  0
   -9.1541   -0.9375   -3.5772 H   0  0  0  0  0  0  0  0  0  0  0  0
   -0.7639   -3.6082   -2.3343 H   0  0  0  0  0  0  0  0  0  0  0  0
   -0.9718   -5.2687   -1.7089 H   0  0  0  0  0  0  0  0  0  0  0  0
    1.0555   -6.5348   -0.9023 H   0  0  0  0  0  0  0  0  0  0  0  0
    3.4345   -6.9637   -1.5213 H   0  0  0  0  0  0  0  0  0  0  0  0
    4.6791   -5.3396   -2.7796 H   0  0  0  0  0  0  0  0  0  0  0  0
    3.6245   -3.1813   -3.4948 H   0  0  0  0  0  0  0  0  0  0  0  0
    1.3237   -2.7207   -2.9182 H   0  0  0  0  0  0  0  0  0  0  0  0
    3.1596    3.7925   -1.6302 H   0  0  0  0  0  0  0  0  0  0  0  0
    1.7885    2.8062   -1.1163 H   0  0  0  0  0  0  0  0  0  0  0  0
    3.6723    4.4168    0.7104 H   0  0  0  0  0  0  0  0  0  0  0  0
    1.5820    3.9078    2.2215 H   0  0  0  0  0  0  0  0  0  0  0  0
    1.6328    2.3165    1.3681 H   0  0  0  0  0  0  0  0  0  0  0  0
    3.0720    2.9744    2.3331 H   0  0  0  0  0  0  0  0  0  0  0  0
    0.7839    4.5329   -0.1350 H   0  0  0  0  0  0  0  0  0  0  0  0
    1.6455    5.7326    0.9893 H   0  0  0  0  0  0  0  0  0  0  0  0
    2.1081    5.5405   -0.7725 H   0  0  0  0  0  0  0  0  0  0  0  0
    5.2410   -3.1220    1.8352 H   0  0  0  0  0  0  0  0  0  0  0  0
    4.0403   -1.9739    2.4289 H   0  0  0  0  0  0  0  0  0  0  0  0
  1  2  1  0
  2  3  2  3
  3  4  1  0
  4  5  1  0
  5  6  1  0
  6  7  1  0
  7  8  1  0
  8  9  1  0
  9 10  2  0
  9 11  1  0
 11 12  1  0
 12 13  1  0
 13 14  2  0
 13 15  1  0
 12 16  1  0
 16 17  1  0
 17 18  2  0
 18 19  1  0
 19 20  1  0
 20 21  2  0
 21 22  1  0
 22 23  2  0
 23 24  1  0
 24 25  2  0
  8 26  1  0
 26 27  1  0
 27 28  2  0
 27 29  1  0
 29 30  1  0
 30 31  1  0
 31 32  2  0
 31 33  1  0
 33 34  1  0
 34 35  1  0
 35 36  2  0
 35 37  1  0
 37 38  1  0
 38 39  1  0
 39 40  2  0
 39 41  1  0
 41 42  1  0
 42 43  1  0
 42 44  1  0
 41 45  1  0
 45 46  1  0
 46 47  2  0
 46 48  1  0
 48 49  1  0
 49 50  1  0
 50 51  2  0
 50 52  1  0
 52 53  1  0
 53 54  1  0
 54 55  2  0
 54 56  1  0
 56 57  1  0
 57 58  1  0
 58 59  2  0
 59 60  1  0
 60 61  2  0
 61 62  1  0
 62 63  2  0
 61 64  1  0
 56 65  1  0
 65 66  1  0
 66 67  2  0
 66 68  1  0
 48 69  1  0
 69 70  1  0
 70 71  2  0
 70 72  1  0
 37 73  1  0
 73 74  1  0
 74 75  2  0
 75 76  1  0
 76 77  2  0
 77 78  1  0
 78 79  2  0
 29 80  1  0
 80 81  1  0
 81 82  1  0
 81 83  1  0
  3 84  1  0
 21 17  1  0
 63 58  1  0
 79 74  1  0
 25 20  1  0
  1 85  1  0
  1 86  1  0
  1 87  1  0
  4 88  1  0
  5 89  1  0
  5 90  1  0
  6 91  1  0
  6 92  1  0
  7 93  1  0
  7 94  1  0
  8 95  1  1
 11 96  1  0
 12 97  1  1
 15 98  1  0
 15 99  1  0
 16100  1  0
 16101  1  0
 18102  1  0
 19103  1  0
 22104  1  0
 23105  1  0
 24106  1  0
 25107  1  0
 26108  1  0
 29109  1  6
 30110  1  0
 33111  1  0
 34112  1  0
 37113  1  1
 38114  1  0
 41115  1  1
 42116  1  1
 43117  1  0
 44118  1  0
 44119  1  0
 44120  1  0
 45121  1  0
 48122  1  6
 49123  1  0
 52124  1  0
 52125  1  0
 53126  1  0
 56127  1  1
 57128  1  0
 57129  1  0
 59130  1  0
 60131  1  0
 62132  1  0
 63133  1  0
 64134  1  0
 65135  1  0
 68136  1  0
 68137  1  0
 68138  1  0
 69139  1  0
 69140  1  0
 72141  1  0
 72142  1  0
 73143  1  0
 73144  1  0
 75145  1  0
 76146  1  0
 77147  1  0
 78148  1  0
 79149  1  0
 80150  1  0
 80151  1  0
 81152  1  0
 82153  1  0
 82154  1  0
 82155  1  0
 83156  1  0
 83157  1  0
 83158  1  0
 84159  1  0
 84160  1  0
M  END
>  <Ligand ID>  (1) 
LIG0005355

>  <Ligand>  (1) 
CHEMBL3896533

>  <SMILES>  (1) 
CN=C(NCCC[C@@H](C(=O)N[C@H](C(=O)N)Cc1c[nH]c2c1cccc2)NC(=O)[C@@H](NC(=O)NNC(=O)[C@@H](NC(=O)[C@H]([C@H](O)C)NC(=O)[C@@H](NC(=O)CNC(=O)[C@@H](Cc1ccc(cc1)O)NC(=O)C)CC(=O)N)Cc1ccccc1)CC(C)C)N

>  <CID>  (1) 
24995519.0

>  <ChEMBL ID>  (1) 
nan

>  <InChiKey>  (1) 
YKNXJAQUXMTJGB-INAOFNLRSA-N

>  <InChi>  (1) 
InChI=1S/C55H76N16O13/c1-29(2)22-40(50(80)65-38(16-11-21-60-54(58)59-5)49(79)66-39(47(57)77)25-34-27-61-37-15-10-9-14-36(34)37)68-55(84)71-70-52(82)42(23-32-12-7-6-8-13-32)67-53(83)46(30(3)72)69-51(81)43(26-44(56)75)64-45(76)28-62-48(78)41(63-31(4)73)24-33-17-19-35(74)20-18-33/h6-10,12-15,17-20,27,29-30,38-43,46,61,72,74H,11,16,21-26,28H2,1-5H3,(H2,56,75)(H2,57,77)(H,62,78)(H,63,73)(H,64,76)(H,65,80)(H,66,79)(H,67,83)(H,69,81)(H,70,82)(H3,58,59,60)(H2,68,71,84)/t30-,38+,39+,40+,41-,42+,43+,46+/m1/s1

>  <IUPAC Name>  (1) 
(2S)-2-[[2-[[(2R)-2-acetamido-3-(4-hydroxyphenyl)propanoyl]amino]acetyl]amino]-N-[(2S,3R)-1-[[(2S)-1-[2-[[(2S)-1-[[(2S)-1-[[(2S)-1-amino-3-(1H-indol-3-yl)-1-oxopropan-2-yl]amino]-5-[(N'-methylcarbamimidoyl)amino]-1-oxopentan-2-yl]amino]-4-methyl-1-oxopentan-2-yl]carbamoyl]hydrazinyl]-1-oxo-3-phenylpropan-2-yl]amino]-3-hydroxy-1-oxobutan-2-yl]butanediamide

$$$$
