
     RDKit          3D

 81 89  0  0  0  0  0  0  0  0999 V2000
    0.9438   -3.2320    0.9428 C   0  0  0  0  0  0  0  0  0  0  0  0
    1.4989   -2.0383    1.2774 O   0  0  0  0  0  0  0  0  0  0  0  0
    0.8340   -0.8940    0.9476 C   0  0  2  0  0  0  0  0  0  0  0  0
    0.6880   -0.8853   -0.5622 C   0  0  0  0  0  0  0  0  0  0  0  0
    0.3161    0.4708   -1.0901 C   0  0  0  0  0  0  0  0  0  0  0  0
   -0.0664    1.3542    0.0882 C   0  0  2  0  0  0  0  0  0  0  0  0
    1.2068    1.5845    0.8443 C   0  0  0  0  0  0  0  0  0  0  0  0
    1.7368    0.2602    1.3364 C   0  0  2  0  0  0  0  0  0  0  0  0
    3.1681    0.0009    0.9156 C   0  0  0  0  0  0  0  0  0  0  0  0
    3.6414   -1.1544    1.5344 O   0  0  0  0  0  0  0  0  0  0  0  0
    4.9396   -1.4660    1.2057 C   0  0  0  0  0  0  0  0  0  0  0  0
    5.1679   -1.7029   -0.2356 C   0  0  0  0  0  0  0  0  0  0  0  0
    5.5142   -0.6586   -1.0812 C   0  0  0  0  0  0  0  0  0  0  0  0
    5.7205   -0.9219   -2.4253 C   0  0  0  0  0  0  0  0  0  0  0  0
    5.5976   -2.1755   -2.9632 C   0  0  0  0  0  0  0  0  0  0  0  0
    5.2545   -3.2054   -2.1207 C   0  0  0  0  0  0  0  0  0  0  0  0
    5.0371   -2.9916   -0.7641 C   0  0  0  0  0  0  0  0  0  0  0  0
   -1.0232    0.6253    0.9670 C   0  0  2  0  0  0  0  0  0  0  0  0
   -0.4709   -0.6500    1.6019 C   0  0  1  0  0  0  0  0  0  0  0  0
   -1.4844   -1.6216    1.3631 O   0  0  0  0  0  0  0  0  0  0  0  0
   -2.2865   -1.2518    0.2984 C   0  0  0  0  0  0  0  0  0  0  0  0
   -2.0215    0.0485    0.0378 C   0  0  0  0  0  0  0  0  0  0  0  0
   -2.5480    0.8525   -0.9152 C   0  0  0  0  0  0  0  0  0  0  0  0
   -2.0823    2.2399   -1.0680 C   0  0  0  0  0  0  0  0  0  0  0  0
   -0.7641    2.5718   -0.4242 C   0  0  1  0  0  0  0  0  0  0  0  0
   -1.0516    3.5158    0.6263 N   0  0  0  0  0  0  0  0  0  0  0  0
   -1.5098    2.9505    1.8279 C   0  0  0  0  0  0  0  0  0  0  0  0
   -1.6541    1.5040    1.9665 C   0  0  0  0  0  0  0  0  0  0  0  0
   -0.2958    4.7014    0.6590 C   0  0  0  0  0  0  0  0  0  0  0  0
   -0.5528    5.6526   -0.4737 C   0  0  0  0  0  0  0  0  0  0  0  0
   -1.8989    6.2265   -0.7100 C   0  0  0  0  0  0  0  0  0  0  0  0
   -0.9083    7.1028   -0.0841 C   0  0  0  0  0  0  0  0  0  0  0  0
   -3.5045    0.2534   -1.7441 C   0  0  0  0  0  0  0  0  0  0  0  0
   -3.8374   -1.0921   -1.5370 C   0  0  0  0  0  0  0  0  0  0  0  0
   -3.2389   -1.8514   -0.5253 C   0  0  0  0  0  0  0  0  0  0  0  0
   -3.5503   -3.1763   -0.3045 O   0  0  0  0  0  0  0  0  0  0  0  0
   -4.5121   -3.8294   -1.1161 C   0  0  0  0  0  0  0  0  0  0  0  0
   -4.6279   -5.2322   -0.6396 C   0  0  0  0  0  0  0  0  0  0  0  0
   -3.8943   -6.2920   -1.0740 N   0  0  0  0  0  0  0  0  0  0  0  0
   -4.3211   -7.3350   -0.3912 N   0  0  0  0  0  0  0  0  0  0  0  0
   -5.2760   -6.9658    0.4360 N   0  0  0  0  0  0  0  0  0  0  0  0
   -5.4878   -5.6679    0.3044 N   0  0  0  0  0  0  0  0  0  0  0  0
   -0.0460   -3.4626    1.3625 H   0  0  0  0  0  0  0  0  0  0  0  0
    1.6170   -4.0252    1.3393 H   0  0  0  0  0  0  0  0  0  0  0  0
    0.9416   -3.3883   -0.1763 H   0  0  0  0  0  0  0  0  0  0  0  0
   -0.0928   -1.6568   -0.8182 H   0  0  0  0  0  0  0  0  0  0  0  0
    1.6077   -1.2162   -1.0517 H   0  0  0  0  0  0  0  0  0  0  0  0
    1.1935    0.9651   -1.5872 H   0  0  0  0  0  0  0  0  0  0  0  0
   -0.4321    0.3612   -1.8624 H   0  0  0  0  0  0  0  0  0  0  0  0
    1.0365    2.2148    1.7335 H   0  0  0  0  0  0  0  0  0  0  0  0
    1.9660    2.0559    0.1635 H   0  0  0  0  0  0  0  0  0  0  0  0
    1.7662    0.2150    2.4643 H   0  0  0  0  0  0  0  0  0  0  0  0
    3.7608    0.8979    1.1218 H   0  0  0  0  0  0  0  0  0  0  0  0
    3.2303   -0.1914   -0.1918 H   0  0  0  0  0  0  0  0  0  0  0  0
    5.6792   -0.7357    1.6127 H   0  0  0  0  0  0  0  0  0  0  0  0
    5.1813   -2.4296    1.7230 H   0  0  0  0  0  0  0  0  0  0  0  0
    5.6120    0.3291   -0.6609 H   0  0  0  0  0  0  0  0  0  0  0  0
    5.9918   -0.0580   -3.0458 H   0  0  0  0  0  0  0  0  0  0  0  0
    5.7752   -2.3007   -4.0250 H   0  0  0  0  0  0  0  0  0  0  0  0
    5.1465   -4.2080   -2.5010 H   0  0  0  0  0  0  0  0  0  0  0  0
    4.7644   -3.8056   -0.0880 H   0  0  0  0  0  0  0  0  0  0  0  0
   -0.3387   -0.4191    2.6782 H   0  0  0  0  0  0  0  0  0  0  0  0
   -2.9089    2.8909   -0.6968 H   0  0  0  0  0  0  0  0  0  0  0  0
   -2.0238    2.5128   -2.1679 H   0  0  0  0  0  0  0  0  0  0  0  0
   -0.1177    3.0895   -1.1505 H   0  0  0  0  0  0  0  0  0  0  0  0
   -0.8280    3.3360    2.6512 H   0  0  0  0  0  0  0  0  0  0  0  0
   -2.4942    3.4545    2.1179 H   0  0  0  0  0  0  0  0  0  0  0  0
   -2.7720    1.2729    1.9289 H   0  0  0  0  0  0  0  0  0  0  0  0
   -1.3999    1.2218    3.0267 H   0  0  0  0  0  0  0  0  0  0  0  0
   -0.5206    5.2280    1.6093 H   0  0  0  0  0  0  0  0  0  0  0  0
    0.8107    4.5525    0.6823 H   0  0  0  0  0  0  0  0  0  0  0  0
    0.0926    5.5957   -1.3966 H   0  0  0  0  0  0  0  0  0  0  0  0
   -2.7203    5.8338   -0.0462 H   0  0  0  0  0  0  0  0  0  0  0  0
   -2.2681    6.3539   -1.7485 H   0  0  0  0  0  0  0  0  0  0  0  0
   -1.0014    7.3346    1.0048 H   0  0  0  0  0  0  0  0  0  0  0  0
   -0.5254    7.9252   -0.7231 H   0  0  0  0  0  0  0  0  0  0  0  0
   -3.9566    0.8468   -2.5186 H   0  0  0  0  0  0  0  0  0  0  0  0
   -4.5860   -1.5707   -2.1810 H   0  0  0  0  0  0  0  0  0  0  0  0
   -4.2168   -3.7769   -2.1834 H   0  0  0  0  0  0  0  0  0  0  0  0
   -5.5038   -3.3149   -0.9948 H   0  0  0  0  0  0  0  0  0  0  0  0
   -5.8166   -7.5524    1.1105 H   0  0  0  0  0  0  0  0  0  0  0  0
  1  2  1  0
  3  2  1  1
  3  4  1  0
  4  5  1  0
  6  5  1  6
  6  7  1  0
  7  8  1  0
  8  9  1  0
  9 10  1  0
 10 11  1  0
 11 12  1  0
 12 13  2  0
 13 14  1  0
 14 15  2  0
 15 16  1  0
 16 17  2  0
  6 18  1  0
 18 19  1  0
 19 20  1  0
 20 21  1  0
 21 22  2  0
 22 23  1  0
 23 24  1  0
 24 25  1  0
 25 26  1  0
 26 27  1  0
 27 28  1  0
 26 29  1  0
 29 30  1  0
 30 31  1  0
 31 32  1  0
 23 33  2  0
 33 34  1  0
 34 35  2  0
 35 36  1  0
 36 37  1  0
 37 38  1  0
 38 39  1  0
 39 40  2  0
 40 41  1  0
 41 42  1  0
  8  3  1  0
 17 12  1  0
 18 28  1  1
 32 30  1  0
 42 38  2  0
 19  3  1  0
 35 21  1  0
 25  6  1  0
 22 18  1  0
  1 43  1  0
  1 44  1  0
  1 45  1  0
  4 46  1  0
  4 47  1  0
  5 48  1  0
  5 49  1  0
  7 50  1  0
  7 51  1  0
  8 52  1  1
  9 53  1  0
  9 54  1  0
 11 55  1  0
 11 56  1  0
 13 57  1  0
 14 58  1  0
 15 59  1  0
 16 60  1  0
 17 61  1  0
 19 62  1  1
 24 63  1  0
 24 64  1  0
 25 65  1  6
 27 66  1  0
 27 67  1  0
 28 68  1  0
 28 69  1  0
 29 70  1  0
 29 71  1  0
 30 72  1  0
 31 73  1  0
 31 74  1  0
 32 75  1  0
 32 76  1  0
 33 77  1  0
 34 78  1  0
 37 79  1  0
 37 80  1  0
 41 81  1  0
M  END
>  <Ligand ID>  (1) 
LIG0004697

>  <Ligand>  (1) 
SCHEMBL15485931

>  <SMILES>  (1) 
CO[C@]12CC[C@]3(C[C@@H]1COCc1ccccc1)[C@@]14[C@H]2Oc2c4c(C[C@H]3N(CC1)CC1CC1)ccc2OCc1nn[nH]n1

>  <CID>  (1) 
89978722.0

>  <ChEMBL ID>  (1) 
nan

>  <InChiKey>  (1) 
RSYFMDJMLZHEDG-SMHPFREUSA-N

>  <InChi>  (1) 
InChI=1S/C33H39N5O4/c1-39-33-12-11-31(16-24(33)19-40-18-22-5-3-2-4-6-22)26-15-23-9-10-25(41-20-27-34-36-37-35-27)29-28(23)32(31,30(33)42-29)13-14-38(26)17-21-7-8-21/h2-6,9-10,21,24,26,30H,7-8,11-20H2,1H3,(H,34,35,36,37)/t24-,26-,30-,31-,32+,33-/m1/s1

>  <IUPAC Name>  (1) 
(1S,2S,6R,14R,15R,16R)-5-(cyclopropylmethyl)-15-methoxy-16-(phenylmethoxymethyl)-11-(2H-tetrazol-5-ylmethoxy)-13-oxa-5-azahexacyclo[13.2.2.12,8.01,6.02,14.012,20]icosa-8(20),9,11-triene

$$$$
