
     RDKit          3D

 53 56  0  0  0  0  0  0  0  0999 V2000
   -7.4363    1.5200    0.9716 C   0  0  0  0  0  0  0  0  0  0  0  0
   -6.5405    0.8752    0.0501 N   0  0  0  0  0  0  0  0  0  0  0  0
   -5.1478    0.8333    0.3493 C   0  0  0  0  0  0  0  0  0  0  0  0
   -4.7002    1.3625    1.4272 O   0  0  0  0  0  0  0  0  0  0  0  0
   -4.2694    0.1625   -0.6246 C   0  0  1  0  0  0  0  0  0  0  0  0
   -2.9055    0.1885   -0.2537 O   0  0  0  0  0  0  0  0  0  0  0  0
   -2.4168   -0.6898   -1.2167 C   0  0  2  0  0  0  0  0  0  0  0  0
   -3.1904   -1.9281   -0.9240 C   0  0  1  0  0  0  0  0  0  0  0  0
   -4.5901   -1.3402   -0.7002 C   0  0  2  0  0  0  0  0  0  0  0  0
   -5.3412   -1.6262   -1.8362 O   0  0  0  0  0  0  0  0  0  0  0  0
   -3.2099   -2.8446   -1.9642 O   0  0  0  0  0  0  0  0  0  0  0  0
   -1.0075   -0.8104   -1.2825 N   0  0  0  0  0  0  0  0  0  0  0  0
   -0.3464   -1.4966   -2.2420 C   0  0  0  0  0  0  0  0  0  0  0  0
    0.9722   -1.3937   -1.9985 N   0  0  0  0  0  0  0  0  0  0  0  0
    1.1331   -0.6321   -0.8719 C   0  0  0  0  0  0  0  0  0  0  0  0
   -0.1192   -0.2657   -0.4225 C   0  0  0  0  0  0  0  0  0  0  0  0
   -0.2107    0.4950    0.6835 N   0  0  0  0  0  0  0  0  0  0  0  0
    0.8951    0.8937    1.3419 C   0  0  0  0  0  0  0  0  0  0  0  0
    0.7888    1.6963    2.5325 N   0  0  0  0  0  0  0  0  0  0  0  0
    0.8371    0.9700    3.7962 C   0  0  0  0  0  0  0  0  0  0  0  0
    2.1260    0.5251    0.8864 N   0  0  0  0  0  0  0  0  0  0  0  0
    2.2953   -0.2297   -0.2045 C   0  0  0  0  0  0  0  0  0  0  0  0
    3.5877   -0.6196   -0.6717 N   0  0  0  0  0  0  0  0  0  0  0  0
    4.8051   -0.2090   -0.0118 C   0  0  0  0  0  0  0  0  0  0  0  0
    6.0527   -0.7998   -0.6761 C   0  0  0  0  0  0  0  0  0  0  0  0
    7.1478    0.0587   -0.0804 C   0  0  0  0  0  0  0  0  0  0  0  0
    6.5053    1.3970    0.2456 C   0  0  0  0  0  0  0  0  0  0  0  0
    5.0850    1.2799   -0.2752 C   0  0  0  0  0  0  0  0  0  0  0  0
   -7.0319    2.4475    1.4159 H   0  0  0  0  0  0  0  0  0  0  0  0
   -7.7584    0.8658    1.8123 H   0  0  0  0  0  0  0  0  0  0  0  0
   -8.3625    1.7992    0.3851 H   0  0  0  0  0  0  0  0  0  0  0  0
   -6.8984    0.4366   -0.8423 H   0  0  0  0  0  0  0  0  0  0  0  0
   -4.3385    0.5337   -1.6497 H   0  0  0  0  0  0  0  0  0  0  0  0
   -2.8345   -0.2882   -2.1893 H   0  0  0  0  0  0  0  0  0  0  0  0
   -2.8935   -2.3899    0.0288 H   0  0  0  0  0  0  0  0  0  0  0  0
   -5.0322   -1.7134    0.2287 H   0  0  0  0  0  0  0  0  0  0  0  0
   -4.7654   -1.4763   -2.6209 H   0  0  0  0  0  0  0  0  0  0  0  0
   -2.4594   -3.4915   -1.7724 H   0  0  0  0  0  0  0  0  0  0  0  0
   -0.8075   -2.0458   -3.0796 H   0  0  0  0  0  0  0  0  0  0  0  0
    0.6821    2.7338    2.4907 H   0  0  0  0  0  0  0  0  0  0  0  0
    1.9331    0.9066    4.0479 H   0  0  0  0  0  0  0  0  0  0  0  0
    0.3860    1.6260    4.5657 H   0  0  0  0  0  0  0  0  0  0  0  0
    0.3676   -0.0103    3.7513 H   0  0  0  0  0  0  0  0  0  0  0  0
    3.6392   -1.2267   -1.5243 H   0  0  0  0  0  0  0  0  0  0  0  0
    4.8216   -0.4042    1.0586 H   0  0  0  0  0  0  0  0  0  0  0  0
    6.0055   -0.5884   -1.7614 H   0  0  0  0  0  0  0  0  0  0  0  0
    6.1607   -1.8692   -0.4296 H   0  0  0  0  0  0  0  0  0  0  0  0
    7.4660   -0.4387    0.8605 H   0  0  0  0  0  0  0  0  0  0  0  0
    7.9924    0.1686   -0.7978 H   0  0  0  0  0  0  0  0  0  0  0  0
    6.4161    1.4935    1.3563 H   0  0  0  0  0  0  0  0  0  0  0  0
    7.0370    2.2581   -0.1909 H   0  0  0  0  0  0  0  0  0  0  0  0
    4.3659    1.9414    0.2120 H   0  0  0  0  0  0  0  0  0  0  0  0
    5.1099    1.3598   -1.3834 H   0  0  0  0  0  0  0  0  0  0  0  0
  1  2  1  0
  2  3  1  0
  3  4  2  0
  3  5  1  0
  5  6  1  0
  6  7  1  0
  7  8  1  0
  8  9  1  0
  9 10  1  0
  8 11  1  0
  7 12  1  0
 12 13  1  0
 13 14  2  0
 14 15  1  0
 15 16  2  0
 16 17  1  0
 17 18  2  0
 18 19  1  0
 19 20  1  0
 18 21  1  0
 21 22  2  0
 22 23  1  0
 23 24  1  0
 24 25  1  0
 25 26  1  0
 26 27  1  0
 27 28  1  0
  9  5  1  0
 16 12  1  0
 28 24  1  0
 22 15  1  0
  1 29  1  0
  1 30  1  0
  1 31  1  0
  2 32  1  0
  5 33  1  6
  7 34  1  6
  8 35  1  1
  9 36  1  1
 10 37  1  0
 11 38  1  0
 13 39  1  0
 19 40  1  0
 20 41  1  0
 20 42  1  0
 20 43  1  0
 23 44  1  0
 24 45  1  0
 25 46  1  0
 25 47  1  0
 26 48  1  0
 26 49  1  0
 27 50  1  0
 27 51  1  0
 28 52  1  0
 28 53  1  0
M  END
>  <Ligand ID>  (1) 
LIG0001990

>  <Ligand>  (1) 
CHEMBL3133081

>  <SMILES>  (1) 
CNC(=O)[C@H]1O[C@H]([C@@H]([C@@H]1O)O)n1cnc2c1nc(NC)nc2NC1CCCC1

>  <CID>  (1) 
76314797.0

>  <ChEMBL ID>  (1) 
nan

>  <InChiKey>  (1) 
ZKLXTXSQNULGEI-MEQWQQMJSA-N

>  <InChi>  (1) 
InChI=1S/C17H25N7O4/c1-18-15(27)12-10(25)11(26)16(28-12)24-7-20-9-13(21-8-5-3-4-6-8)22-17(19-2)23-14(9)24/h7-8,10-12,16,25-26H,3-6H2,1-2H3,(H,18,27)(H2,19,21,22,23)/t10-,11+,12-,16+/m0/s1

>  <IUPAC Name>  (1) 
(2S,3S,4R,5R)-5-[6-(cyclopentylamino)-2-(methylamino)purin-9-yl]-3,4-dihydroxy-N-methyloxolane-2-carboxamide

$$$$
