
     RDKit          3D

 35 38  0  0  0  0  0  0  0  0999 V2000
   -2.8379    3.0678    1.0390 C   0  0  0  0  0  0  0  0  0  0  0  0
   -3.0694    2.6863   -0.2665 C   0  0  0  0  0  0  0  0  0  0  0  0
   -2.6242    1.4344   -0.6380 C   0  0  0  0  0  0  0  0  0  0  0  0
   -1.9709    0.5808    0.2446 C   0  0  0  0  0  0  0  0  0  0  0  0
   -1.7872    1.0480    1.5223 C   0  0  0  0  0  0  0  0  0  0  0  0
   -2.2113    2.2759    1.9258 N   0  0  0  0  0  0  0  0  0  0  0  0
   -1.5632   -0.7317   -0.2238 C   0  0  0  0  0  0  0  0  0  0  0  0
   -2.6132   -1.5525   -0.6702 C   0  0  0  0  0  0  0  0  0  0  0  0
   -2.4001   -2.8313   -1.1142 C   0  0  0  0  0  0  0  0  0  0  0  0
   -1.0990   -3.2879   -1.1059 C   0  0  0  0  0  0  0  0  0  0  0  0
   -0.0481   -2.4764   -0.6633 C   0  0  0  0  0  0  0  0  0  0  0  0
   -0.2536   -1.1858   -0.2148 C   0  0  0  0  0  0  0  0  0  0  0  0
    0.8296   -0.3213    0.2261 C   0  0  2  0  0  0  0  0  0  0  0  0
    1.3440    0.6342   -0.8590 C   0  0  0  0  0  0  0  0  0  0  0  0
    2.6644    0.9910   -0.2078 C   0  0  0  0  0  0  0  0  0  0  0  0
    3.0911   -0.0718    0.5057 N   0  0  0  0  0  0  0  0  0  0  0  0
    2.1076   -1.1695    0.3626 C   0  0  0  0  0  0  0  0  0  0  0  0
    4.2695    0.2513    1.0912 C   0  0  0  0  0  0  0  0  0  0  0  0
    4.5808    1.5642    0.7236 C   0  0  0  0  0  0  0  0  0  0  0  0
    3.5777    1.9809   -0.0689 N   0  0  0  0  0  0  0  0  0  0  0  0
   -3.1917    4.0570    1.3245 H   0  0  0  0  0  0  0  0  0  0  0  0
   -3.5716    3.3089   -0.9938 H   0  0  0  0  0  0  0  0  0  0  0  0
   -2.7917    1.0976   -1.6710 H   0  0  0  0  0  0  0  0  0  0  0  0
   -1.3091    0.4532    2.2847 H   0  0  0  0  0  0  0  0  0  0  0  0
   -3.6351   -1.1960   -0.6774 H   0  0  0  0  0  0  0  0  0  0  0  0
   -3.2017   -3.4412   -1.4489 H   0  0  0  0  0  0  0  0  0  0  0  0
   -0.9192   -4.2931   -1.4527 H   0  0  0  0  0  0  0  0  0  0  0  0
    0.9233   -2.9505   -0.7007 H   0  0  0  0  0  0  0  0  0  0  0  0
    0.6642    0.2584    1.1307 H   0  0  0  0  0  0  0  0  0  0  0  0
    0.7044    1.5049   -0.9970 H   0  0  0  0  0  0  0  0  0  0  0  0
    1.5950    0.0756   -1.7714 H   0  0  0  0  0  0  0  0  0  0  0  0
    2.0963   -1.8356    1.2153 H   0  0  0  0  0  0  0  0  0  0  0  0
    2.3382   -1.6052   -0.6202 H   0  0  0  0  0  0  0  0  0  0  0  0
    4.8395   -0.4174    1.7254 H   0  0  0  0  0  0  0  0  0  0  0  0
    5.4725    2.0968    1.0439 H   0  0  0  0  0  0  0  0  0  0  0  0
  1  2  2  0
  2  3  1  0
  3  4  2  0
  4  5  1  0
  5  6  2  0
  4  7  1  0
  7  8  2  0
  8  9  1  0
  9 10  2  0
 10 11  1  0
 11 12  2  0
 12 13  1  0
 13 14  1  0
 14 15  1  0
 15 16  1  0
 16 17  1  0
 16 18  1  0
 18 19  2  0
 19 20  1  0
  6  1  1  0
 12  7  1  0
 17 13  1  0
 20 15  2  0
  1 21  1  0
  2 22  1  0
  3 23  1  0
  5 24  1  0
  8 25  1  0
  9 26  1  0
 10 27  1  0
 11 28  1  0
 13 29  1  1
 14 30  1  0
 14 31  1  0
 17 32  1  0
 17 33  1  0
 18 34  1  0
 19 35  1  0
M  END
>  <Ligand ID>  (1) 
LIG0002430

>  <Ligand>  (1) 
CHEMBL468711

>  <SMILES>  (1) 
c1ccc(cn1)c1ccccc1[C@@H]1Cc2n(C1)ccn2

>  <CID>  (1) 
44574078.0

>  <ChEMBL ID>  (1) 
nan

>  <InChiKey>  (1) 
JVQZWPGHLBOWKN-CQSZACIVSA-N

>  <InChi>  (1) 
InChI=1S/C17H15N3/c1-2-6-16(14-10-17-19-8-9-20(17)12-14)15(5-1)13-4-3-7-18-11-13/h1-9,11,14H,10,12H2/t14-/m1/s1

>  <IUPAC Name>  (1) 
(6S)-6-(2-pyridin-3-ylphenyl)-6,7-dihydro-5H-pyrrolo[1,2-a]imidazole

$$$$
