
     RDKit          3D

 49 53  0  0  0  0  0  0  0  0999 V2000
   -0.2530    1.9592    0.1646 O   0  0  0  0  0  0  0  0  0  0  0  0
   -0.0762    0.6732    0.1754 C   0  0  0  0  0  0  0  0  0  0  0  0
    1.3030    0.2608   -0.1239 C   0  0  0  0  0  0  0  0  0  0  0  0
    1.5137   -0.4729   -1.3898 C   0  0  0  0  0  0  0  0  0  0  0  0
    3.0153   -0.7104   -1.5722 C   0  0  0  0  0  0  0  0  0  0  0  0
    3.7485    0.5817   -1.7089 C   0  0  0  0  0  0  0  0  0  0  0  0
    3.5810    1.3286   -0.3976 C   0  0  0  0  0  0  0  0  0  0  0  0
    2.1274    1.5790   -0.2287 C   0  0  0  0  0  0  0  0  0  0  0  0
    4.1232    0.5604    0.7649 C   0  0  0  0  0  0  0  0  0  0  0  0
    3.3800   -0.7639    0.8387 C   0  0  0  0  0  0  0  0  0  0  0  0
    1.9084   -0.4636    1.0315 C   0  0  0  0  0  0  0  0  0  0  0  0
    3.6032   -1.4937   -0.4459 C   0  0  0  0  0  0  0  0  0  0  0  0
   -1.1947   -0.1134    0.4657 N   0  0  0  0  0  0  0  0  0  0  0  0
   -1.3401   -1.5432    0.4436 C   0  0  0  0  0  0  0  0  0  0  0  0
   -2.5528   -1.9905   -0.3470 C   0  0  0  0  0  0  0  0  0  0  0  0
   -3.6229   -1.0559   -0.3837 N   0  0  0  0  0  0  0  0  0  0  0  0
   -3.6585    0.1089    0.3981 C   0  0  0  0  0  0  0  0  0  0  0  0
   -2.4145    0.5988    0.8380 C   0  0  0  0  0  0  0  0  0  0  0  0
   -2.3397    1.7445    1.6225 C   0  0  0  0  0  0  0  0  0  0  0  0
   -3.5167    2.4168    1.9750 C   0  0  0  0  0  0  0  0  0  0  0  0
   -4.7369    1.9060    1.5215 C   0  0  0  0  0  0  0  0  0  0  0  0
   -4.8128    0.7700    0.7450 C   0  0  0  0  0  0  0  0  0  0  0  0
   -4.7412   -1.3133   -1.2725 C   0  0  0  0  0  0  0  0  0  0  0  0
    1.0685   -1.4695   -1.4363 H   0  0  0  0  0  0  0  0  0  0  0  0
    1.2560    0.1386   -2.3036 H   0  0  0  0  0  0  0  0  0  0  0  0
    3.1521   -1.2838   -2.5218 H   0  0  0  0  0  0  0  0  0  0  0  0
    4.8012    0.4139   -1.9261 H   0  0  0  0  0  0  0  0  0  0  0  0
    3.2763    1.2021   -2.4769 H   0  0  0  0  0  0  0  0  0  0  0  0
    4.0829    2.3021   -0.4761 H   0  0  0  0  0  0  0  0  0  0  0  0
    1.9524    2.1092    0.7320 H   0  0  0  0  0  0  0  0  0  0  0  0
    1.7136    2.1968   -1.0609 H   0  0  0  0  0  0  0  0  0  0  0  0
    5.2199    0.3574    0.6100 H   0  0  0  0  0  0  0  0  0  0  0  0
    3.9659    1.1504    1.6734 H   0  0  0  0  0  0  0  0  0  0  0  0
    3.7553   -1.2745    1.7339 H   0  0  0  0  0  0  0  0  0  0  0  0
    1.8341    0.2387    1.9082 H   0  0  0  0  0  0  0  0  0  0  0  0
    1.4190   -1.4141    1.2137 H   0  0  0  0  0  0  0  0  0  0  0  0
    4.6913   -1.5559   -0.6305 H   0  0  0  0  0  0  0  0  0  0  0  0
    3.2509   -2.5555   -0.4053 H   0  0  0  0  0  0  0  0  0  0  0  0
   -0.4579   -2.0473    0.0632 H   0  0  0  0  0  0  0  0  0  0  0  0
   -1.5094   -1.9655    1.4683 H   0  0  0  0  0  0  0  0  0  0  0  0
   -2.9462   -2.9634    0.0135 H   0  0  0  0  0  0  0  0  0  0  0  0
   -2.1984   -2.1640   -1.3885 H   0  0  0  0  0  0  0  0  0  0  0  0
   -1.3622    2.1083    1.9741 H   0  0  0  0  0  0  0  0  0  0  0  0
   -3.4742    3.3193    2.5907 H   0  0  0  0  0  0  0  0  0  0  0  0
   -5.6681    2.4029    1.7763 H   0  0  0  0  0  0  0  0  0  0  0  0
   -5.7398    0.3490    0.3780 H   0  0  0  0  0  0  0  0  0  0  0  0
   -5.1323   -0.3827   -1.7283 H   0  0  0  0  0  0  0  0  0  0  0  0
   -5.5700   -1.8347   -0.7635 H   0  0  0  0  0  0  0  0  0  0  0  0
   -4.4245   -1.9450   -2.1315 H   0  0  0  0  0  0  0  0  0  0  0  0
  1  2  2  0
  2  3  1  0
  3  4  1  0
  4  5  1  0
  5  6  1  0
  6  7  1  0
  7  8  1  0
  7  9  1  0
  9 10  1  0
 10 11  1  0
 10 12  1  0
  2 13  1  0
 13 14  1  0
 14 15  1  0
 15 16  1  0
 16 17  1  0
 17 18  2  0
 18 19  1  0
 19 20  2  0
 20 21  1  0
 21 22  2  0
 16 23  1  0
 11  3  1  0
 18 13  1  0
  8  3  1  0
 22 17  1  0
 12  5  1  0
  4 24  1  0
  4 25  1  0
  5 26  1  0
  6 27  1  0
  6 28  1  0
  7 29  1  0
  8 30  1  0
  8 31  1  0
  9 32  1  0
  9 33  1  0
 10 34  1  0
 11 35  1  0
 11 36  1  0
 12 37  1  0
 12 38  1  0
 14 39  1  0
 14 40  1  0
 15 41  1  0
 15 42  1  0
 19 43  1  0
 20 44  1  0
 21 45  1  0
 22 46  1  0
 23 47  1  0
 23 48  1  0
 23 49  1  0
M  END
>  <Ligand ID>  (1) 
LIG0004631

>  <Ligand>  (1) 
CHEMBL2338177

>  <SMILES>  (1) 
O=C(C12CC3CC(C2)CC(C1)C3)N1CCN(c2c1cccc2)C

>  <CID>  (1) 
71559522.0

>  <ChEMBL ID>  (1) 
nan

>  <InChiKey>  (1) 
XFUZEHDTQWLVQK-UHFFFAOYSA-N

>  <InChi>  (1) 
InChI=1S/C20H26N2O/c1-21-6-7-22(18-5-3-2-4-17(18)21)19(23)20-11-14-8-15(12-20)10-16(9-14)13-20/h2-5,14-16H,6-13H2,1H3

>  <IUPAC Name>  (1) 
1-adamantyl-(4-methyl-2,3-dihydroquinoxalin-1-yl)methanone

$$$$
