
     RDKit          3D

 48 51  0  0  0  0  0  0  0  0999 V2000
    5.8008   -1.9495   -0.7028 C   0  0  0  0  0  0  0  0  0  0  0  0
    5.1056   -0.6514   -0.4096 C   0  0  0  0  0  0  0  0  0  0  0  0
    5.9079    0.4169   -0.0739 C   0  0  0  0  0  0  0  0  0  0  0  0
    5.2856    1.6342    0.2032 C   0  0  0  0  0  0  0  0  0  0  0  0
    3.9118    1.7216    0.1318 C   0  0  0  0  0  0  0  0  0  0  0  0
    3.1004    0.6551   -0.2042 C   0  0  0  0  0  0  0  0  0  0  0  0
    3.7162   -0.5485   -0.4781 C   0  0  0  0  0  0  0  0  0  0  0  0
    1.8141    1.0489   -0.1891 N   0  0  0  0  0  0  0  0  0  0  0  0
    0.7066    0.2033   -0.4874 C   0  0  0  0  0  0  0  0  0  0  0  0
    0.3801   -0.7709    0.6033 C   0  0  0  0  0  0  0  0  0  0  0  0
   -1.0571   -1.2641    0.5043 C   0  0  0  0  0  0  0  0  0  0  0  0
   -2.0289   -0.2310    0.6682 N   0  0  0  0  0  0  0  0  0  0  0  0
   -1.3649    1.0287    0.4827 C   0  0  0  0  0  0  0  0  0  0  0  0
   -0.5631    0.9651   -0.7976 C   0  0  0  0  0  0  0  0  0  0  0  0
   -3.2452   -0.3950   -0.0630 C   0  0  0  0  0  0  0  0  0  0  0  0
   -4.1236    0.7944    0.2494 C   0  0  0  0  0  0  0  0  0  0  0  0
   -5.5958    0.5194   -0.0210 C   0  0  0  0  0  0  0  0  0  0  0  0
   -5.9477   -0.5498    0.8027 O   0  0  0  0  0  0  0  0  0  0  0  0
   -5.3780   -1.6821    0.2309 C   0  0  0  0  0  0  0  0  0  0  0  0
   -3.8764   -1.6965    0.3579 C   0  0  0  0  0  0  0  0  0  0  0  0
    1.8498    2.3566    0.1568 C   0  0  0  0  0  0  0  0  0  0  0  0
    0.8619    3.0991    0.2840 O   0  0  0  0  0  0  0  0  0  0  0  0
    3.1151    2.7591    0.3495 N   0  0  0  0  0  0  0  0  0  0  0  0
    5.8290   -2.4807    0.2693 H   0  0  0  0  0  0  0  0  0  0  0  0
    5.1506   -2.5112   -1.3884 H   0  0  0  0  0  0  0  0  0  0  0  0
    6.8094   -1.7789   -1.0925 H   0  0  0  0  0  0  0  0  0  0  0  0
    6.9906    0.3430   -0.0189 H   0  0  0  0  0  0  0  0  0  0  0  0
    5.9028    2.4815    0.4682 H   0  0  0  0  0  0  0  0  0  0  0  0
    3.1159   -1.4063   -0.7446 H   0  0  0  0  0  0  0  0  0  0  0  0
    0.9190   -0.4091   -1.4121 H   0  0  0  0  0  0  0  0  0  0  0  0
    1.0072   -1.6930    0.4395 H   0  0  0  0  0  0  0  0  0  0  0  0
    0.6291   -0.4144    1.6107 H   0  0  0  0  0  0  0  0  0  0  0  0
   -1.1631   -1.9621    1.3858 H   0  0  0  0  0  0  0  0  0  0  0  0
   -1.1719   -1.8646   -0.4163 H   0  0  0  0  0  0  0  0  0  0  0  0
   -0.7123    1.1386    1.3980 H   0  0  0  0  0  0  0  0  0  0  0  0
   -2.0059    1.9089    0.4389 H   0  0  0  0  0  0  0  0  0  0  0  0
   -1.1930    0.3741   -1.5229 H   0  0  0  0  0  0  0  0  0  0  0  0
   -0.4111    1.9273   -1.2921 H   0  0  0  0  0  0  0  0  0  0  0  0
   -3.0319   -0.4263   -1.1474 H   0  0  0  0  0  0  0  0  0  0  0  0
   -3.8361    1.6302   -0.4191 H   0  0  0  0  0  0  0  0  0  0  0  0
   -4.0429    1.0230    1.3275 H   0  0  0  0  0  0  0  0  0  0  0  0
   -5.7856    0.3146   -1.0916 H   0  0  0  0  0  0  0  0  0  0  0  0
   -6.1447    1.4142    0.3162 H   0  0  0  0  0  0  0  0  0  0  0  0
   -5.7790   -2.5569    0.7832 H   0  0  0  0  0  0  0  0  0  0  0  0
   -5.7396   -1.7307   -0.7954 H   0  0  0  0  0  0  0  0  0  0  0  0
   -3.5223   -2.4971   -0.3250 H   0  0  0  0  0  0  0  0  0  0  0  0
   -3.5974   -2.0126    1.3848 H   0  0  0  0  0  0  0  0  0  0  0  0
    3.4079    3.7249    0.6234 H   0  0  0  0  0  0  0  0  0  0  0  0
  1  2  1  0
  2  3  2  0
  3  4  1  0
  4  5  2  0
  5  6  1  0
  6  7  2  0
  6  8  1  0
  8  9  1  0
  9 10  1  0
 10 11  1  0
 11 12  1  0
 12 13  1  0
 13 14  1  0
 12 15  1  0
 15 16  1  0
 16 17  1  0
 17 18  1  0
 18 19  1  0
 19 20  1  0
  8 21  1  0
 21 22  2  0
 21 23  1  0
  7  2  1  0
 14  9  1  0
 20 15  1  0
 23  5  1  0
  1 24  1  0
  1 25  1  0
  1 26  1  0
  3 27  1  0
  4 28  1  0
  7 29  1  0
  9 30  1  0
 10 31  1  0
 10 32  1  0
 11 33  1  0
 11 34  1  0
 13 35  1  0
 13 36  1  0
 14 37  1  0
 14 38  1  0
 15 39  1  0
 16 40  1  0
 16 41  1  0
 17 42  1  0
 17 43  1  0
 19 44  1  0
 19 45  1  0
 20 46  1  0
 20 47  1  0
 23 48  1  0
M  END
>  <Ligand ID>  (1) 
LIG0000961

>  <Ligand>  (1) 
CHEMBL2146599

>  <SMILES>  (1) 
Cc1ccc2c(c1)n(C1CCN(CC1)C1CCOCC1)c(=O)[nH]2

>  <CID>  (1) 
16123945.0

>  <ChEMBL ID>  (1) 
nan

>  <InChiKey>  (1) 
YTAGXFHCBLRULY-UHFFFAOYSA-N

>  <InChi>  (1) 
InChI=1S/C18H25N3O2/c1-13-2-3-16-17(12-13)21(18(22)19-16)15-4-8-20(9-5-15)14-6-10-23-11-7-14/h2-3,12,14-15H,4-11H2,1H3,(H,19,22)

>  <IUPAC Name>  (1) 
5-methyl-3-[1-(oxan-4-yl)piperidin-4-yl]-1H-benzimidazol-2-one

$$$$
