
     RDKit          3D

 74 79  0  0  0  0  0  0  0  0999 V2000
    9.5552   -4.1450    2.9932 Cl  0  0  0  0  0  0  0  0  0  0  0  0
    8.6136   -2.8915    2.2136 C   0  0  0  0  0  0  0  0  0  0  0  0
    8.3393   -2.9439    0.8621 C   0  0  0  0  0  0  0  0  0  0  0  0
    7.5977   -1.9507    0.2603 C   0  0  0  0  0  0  0  0  0  0  0  0
    7.0951   -0.8601    0.9740 C   0  0  0  0  0  0  0  0  0  0  0  0
    7.3876   -0.8395    2.3208 C   0  0  0  0  0  0  0  0  0  0  0  0
    8.1263   -1.8170    2.9524 C   0  0  0  0  0  0  0  0  0  0  0  0
    6.3155    0.1731    0.3061 C   0  0  0  0  0  0  0  0  0  0  0  0
    5.3151    0.8921    0.9116 C   0  0  0  0  0  0  0  0  0  0  0  0
    4.5910    1.8733    0.2415 C   0  0  0  0  0  0  0  0  0  0  0  0
    4.8815    2.1513   -1.1058 C   0  0  0  0  0  0  0  0  0  0  0  0
    5.8970    1.4201   -1.7175 C   0  0  0  0  0  0  0  0  0  0  0  0
    6.5944    0.4531   -1.0190 C   0  0  0  0  0  0  0  0  0  0  0  0
    4.1840    3.1539   -1.8768 C   0  0  0  0  0  0  0  0  0  0  0  0
    3.0651    2.7866   -2.7653 C   0  0  0  0  0  0  0  0  0  0  0  0
    1.9342    2.1259   -2.2341 N   0  0  0  0  0  0  0  0  0  0  0  0
    1.8747    0.8253   -1.6785 C   0  0  0  0  0  0  0  0  0  0  0  0
    2.9087    0.1105   -1.6381 O   0  0  0  0  0  0  0  0  0  0  0  0
    0.6602    0.2305   -1.1291 C   0  0  0  0  0  0  0  0  0  0  0  0
    0.7131   -1.0564   -0.6392 C   0  0  0  0  0  0  0  0  0  0  0  0
   -0.3886   -1.7008   -0.0920 C   0  0  0  0  0  0  0  0  0  0  0  0
   -1.6030   -1.0491   -0.0221 C   0  0  0  0  0  0  0  0  0  0  0  0
   -1.6388    0.2420   -0.5182 C   0  0  0  0  0  0  0  0  0  0  0  0
   -0.5482    0.8796   -1.0601 C   0  0  0  0  0  0  0  0  0  0  0  0
   -2.9862    0.9188   -0.4097 C   0  0  1  0  0  0  0  0  0  0  0  0
   -2.8371    2.4154   -0.5849 C   0  0  0  0  0  0  0  0  0  0  0  0
   -3.9227    0.3979   -1.4260 C   0  0  0  0  0  0  0  0  0  0  0  0
   -4.9348   -0.6047   -0.9996 C   0  0  0  0  0  0  0  0  0  0  0  0
   -5.0811   -0.7767    0.4000 N   0  0  0  0  0  0  0  0  0  0  0  0
   -3.8194   -0.7540    1.1150 C   0  0  0  0  0  0  0  0  0  0  0  0
   -2.8108   -1.6900    0.5510 C   0  0  0  0  0  0  0  0  0  0  0  0
   -3.3876    0.7033    1.0323 C   0  0  2  0  0  0  0  0  0  0  0  0
   -4.5426    1.5558    1.4583 C   0  0  0  0  0  0  0  0  0  0  0  0
   -5.9658   -1.7909    0.8127 C   0  0  0  0  0  0  0  0  0  0  0  0
   -7.3923   -1.4074    0.4926 C   0  0  0  0  0  0  0  0  0  0  0  0
   -8.5082   -2.3247    0.8349 C   0  0  0  0  0  0  0  0  0  0  0  0
   -8.3082   -1.1411    1.7038 C   0  0  0  0  0  0  0  0  0  0  0  0
    8.7204   -3.7889    0.2723 H   0  0  0  0  0  0  0  0  0  0  0  0
    7.3949   -2.0161   -0.8113 H   0  0  0  0  0  0  0  0  0  0  0  0
    7.0102    0.0007    2.9165 H   0  0  0  0  0  0  0  0  0  0  0  0
    8.3102   -1.7207    4.0223 H   0  0  0  0  0  0  0  0  0  0  0  0
    5.0743    0.6976    1.9419 H   0  0  0  0  0  0  0  0  0  0  0  0
    3.8110    2.4228    0.7406 H   0  0  0  0  0  0  0  0  0  0  0  0
    6.1319    1.6222   -2.7528 H   0  0  0  0  0  0  0  0  0  0  0  0
    7.3796   -0.0789   -1.5719 H   0  0  0  0  0  0  0  0  0  0  0  0
    3.7824    3.9153   -1.1481 H   0  0  0  0  0  0  0  0  0  0  0  0
    4.9755    3.7472   -2.4246 H   0  0  0  0  0  0  0  0  0  0  0  0
    3.4053    2.2061   -3.6734 H   0  0  0  0  0  0  0  0  0  0  0  0
    2.7127    3.7575   -3.2399 H   0  0  0  0  0  0  0  0  0  0  0  0
    1.0007    2.6475   -2.2397 H   0  0  0  0  0  0  0  0  0  0  0  0
    1.6355   -1.6511   -0.6533 H   0  0  0  0  0  0  0  0  0  0  0  0
   -0.3120   -2.7173    0.2858 H   0  0  0  0  0  0  0  0  0  0  0  0
   -0.6648    1.8878   -1.4241 H   0  0  0  0  0  0  0  0  0  0  0  0
   -2.1648    2.8442    0.1733 H   0  0  0  0  0  0  0  0  0  0  0  0
   -3.8568    2.8371   -0.4452 H   0  0  0  0  0  0  0  0  0  0  0  0
   -2.5445    2.6655   -1.6296 H   0  0  0  0  0  0  0  0  0  0  0  0
   -4.3899    1.2549   -2.0026 H   0  0  0  0  0  0  0  0  0  0  0  0
   -3.2845   -0.0931   -2.2242 H   0  0  0  0  0  0  0  0  0  0  0  0
   -5.9162   -0.2492   -1.4159 H   0  0  0  0  0  0  0  0  0  0  0  0
   -4.7948   -1.5929   -1.5410 H   0  0  0  0  0  0  0  0  0  0  0  0
   -4.0644   -0.9796    2.1929 H   0  0  0  0  0  0  0  0  0  0  0  0
   -2.4303   -2.3307    1.3989 H   0  0  0  0  0  0  0  0  0  0  0  0
   -3.2337   -2.4261   -0.1639 H   0  0  0  0  0  0  0  0  0  0  0  0
   -2.5170    0.8528    1.6748 H   0  0  0  0  0  0  0  0  0  0  0  0
   -4.1425    2.5028    1.8893 H   0  0  0  0  0  0  0  0  0  0  0  0
   -5.0763    1.0383    2.2913 H   0  0  0  0  0  0  0  0  0  0  0  0
   -5.2982    1.7052    0.6738 H   0  0  0  0  0  0  0  0  0  0  0  0
   -5.8021   -2.7678    0.2678 H   0  0  0  0  0  0  0  0  0  0  0  0
   -5.9092   -2.0336    1.9005 H   0  0  0  0  0  0  0  0  0  0  0  0
   -7.4997   -0.6473   -0.2878 H   0  0  0  0  0  0  0  0  0  0  0  0
   -9.3702   -2.2694    0.1317 H   0  0  0  0  0  0  0  0  0  0  0  0
   -8.2924   -3.3300    1.2220 H   0  0  0  0  0  0  0  0  0  0  0  0
   -7.7908   -1.2291    2.6975 H   0  0  0  0  0  0  0  0  0  0  0  0
   -8.9635   -0.2490    1.6746 H   0  0  0  0  0  0  0  0  0  0  0  0
  1  2  1  0
  2  3  2  0
  3  4  1  0
  4  5  2  0
  5  6  1  0
  6  7  2  0
  5  8  1  0
  8  9  2  0
  9 10  1  0
 10 11  2  0
 11 12  1  0
 12 13  2  0
 11 14  1  0
 14 15  1  0
 15 16  1  0
 16 17  1  0
 17 18  2  0
 17 19  1  0
 19 20  2  0
 20 21  1  0
 21 22  2  0
 22 23  1  0
 23 24  2  0
 23 25  1  0
 25 26  1  6
 25 27  1  0
 27 28  1  0
 28 29  1  0
 29 30  1  0
 30 31  1  0
 30 32  1  0
 32 33  1  0
 29 34  1  0
 34 35  1  0
 35 36  1  0
 36 37  1  0
  7  2  1  0
 13  8  1  0
 24 19  1  0
 32 25  1  0
 37 35  1  0
 31 22  1  0
  3 38  1  0
  4 39  1  0
  6 40  1  0
  7 41  1  0
  9 42  1  0
 10 43  1  0
 12 44  1  0
 13 45  1  0
 14 46  1  0
 14 47  1  0
 15 48  1  0
 15 49  1  0
 16 50  1  0
 20 51  1  0
 21 52  1  0
 24 53  1  0
 26 54  1  0
 26 55  1  0
 26 56  1  0
 27 57  1  0
 27 58  1  0
 28 59  1  0
 28 60  1  0
 30 61  1  0
 31 62  1  0
 31 63  1  0
 32 64  1  1
 33 65  1  0
 33 66  1  0
 33 67  1  0
 34 68  1  0
 34 69  1  0
 35 70  1  0
 36 71  1  0
 36 72  1  0
 37 73  1  0
 37 74  1  0
M  END
>  <Ligand ID>  (1) 
LIG0002294

>  <Ligand>  (1) 
CHEMBL438871

>  <SMILES>  (1) 
Clc1ccc(cc1)c1ccc(cc1)CCNC(=O)c1ccc2c(c1)[C@@]1(C)CCN(C(C2)[C@@H]1C)CC1CC1

>  <CID>  (1) 
16048864.0

>  <ChEMBL ID>  (1) 
nan

>  <InChiKey>  (1) 
HBFGVZXGRNVTQZ-BOIKFFOWSA-N

>  <InChi>  (1) 
InChI=1S/C33H37ClN2O/c1-22-31-20-27-9-10-28(19-30(27)33(22,2)16-18-36(31)21-24-3-4-24)32(37)35-17-15-23-5-7-25(8-6-23)26-11-13-29(34)14-12-26/h5-14,19,22,24,31H,3-4,15-18,20-21H2,1-2H3,(H,35,37)/t22-,31?,33-/m0/s1

>  <IUPAC Name>  (1) 
(1S,13R)-N-[2-[4-(4-chlorophenyl)phenyl]ethyl]-10-(cyclopropylmethyl)-1,13-dimethyl-10-azatricyclo[7.3.1.02,7]trideca-2(7),3,5-triene-4-carboxamide

$$$$
