
     RDKit          3D

  9  8  0  0  0  0  0  0  0  0999 V2000
    1.4894    0.0899   -0.2456 C   0  0  0  0  0  0  0  0  0  0  0  0
   -0.1431   -0.0216   -0.9563 S   0  0  0  0  0  0  0  0  0  0  0  0
   -1.4801   -0.0756    0.2333 C   0  0  0  0  0  0  0  0  0  0  0  0
    1.5471   -0.1448    0.8284 H   0  0  0  0  0  0  0  0  0  0  0  0
    1.9288    1.0831   -0.4633 H   0  0  0  0  0  0  0  0  0  0  0  0
    2.1370   -0.6561   -0.7683 H   0  0  0  0  0  0  0  0  0  0  0  0
   -2.3287   -0.6075   -0.2686 H   0  0  0  0  0  0  0  0  0  0  0  0
   -1.8995    0.9328    0.4699 H   0  0  0  0  0  0  0  0  0  0  0  0
   -1.2509   -0.6002    1.1706 H   0  0  0  0  0  0  0  0  0  0  0  0
  1  2  1  0
  2  3  1  0
  1  4  1  0
  1  5  1  0
  1  6  1  0
  3  7  1  0
  3  8  1  0
  3  9  1  0
M  END
>  <Ligand ID>  (1) 
LIG0000351

>  <Ligand>  (1) 
Dimethyl sulfide

>  <SMILES>  (1) 
CSC

>  <CID>  (1) 
1068.0

>  <ChEMBL ID>  (1) 
nan

>  <InChiKey>  (1) 
QMMFVYPAHWMCMS-UHFFFAOYSA-N

>  <InChi>  (1) 
InChI=1S/C2H6S/c1-3-2/h1-2H3

>  <IUPAC Name>  (1) 
methylsulfanylmethane

$$$$
