
     RDKit          3D

110113  0  0  0  0  0  0  0  0999 V2000
    1.0624    1.3876    1.6806 O   0  0  0  0  0  0  0  0  0  0  0  0
    1.1917    1.7496    0.4625 C   0  0  0  0  0  0  0  0  0  0  0  0
    2.5512    2.2520    0.0758 C   0  0  0  0  0  0  0  0  0  0  0  0
    3.3766    2.2913    1.2741 N   0  0  0  0  0  0  0  0  0  0  0  0
    4.1684    1.3001    1.8186 C   0  0  0  0  0  0  0  0  0  0  0  0
    4.7335    1.6322    2.9720 O   0  0  0  0  0  0  0  0  0  0  0  0
    4.5286   -0.0491    1.4116 C   0  0  0  0  0  0  0  0  0  0  0  0
    4.0880   -0.5548    0.1607 N   0  0  0  0  0  0  0  0  0  0  0  0
    4.9871   -0.3410   -0.9627 C   0  0  0  0  0  0  0  0  0  0  0  0
    4.6903   -0.7463   -2.1210 O   0  0  0  0  0  0  0  0  0  0  0  0
    6.2801    0.3580   -0.7888 C   0  0  0  0  0  0  0  0  0  0  0  0
    6.9753    0.4118   -2.0509 N   0  0  0  0  0  0  0  0  0  0  0  0
    7.3342   -0.7973   -2.6642 C   0  0  0  0  0  0  0  0  0  0  0  0
    7.0152   -1.8762   -2.0666 O   0  0  0  0  0  0  0  0  0  0  0  0
    8.0512   -0.9467   -3.9395 C   0  0  0  0  0  0  0  0  0  0  0  0
    2.8732   -1.2641   -0.1138 C   0  0  0  0  0  0  0  0  0  0  0  0
    3.0316   -2.7283    0.1158 C   0  0  0  0  0  0  0  0  0  0  0  0
    2.7022   -3.2935    1.3199 C   0  0  0  0  0  0  0  0  0  0  0  0
    2.8056   -4.6240    1.6108 C   0  0  0  0  0  0  0  0  0  0  0  0
    3.2666   -5.4809    0.6577 C   0  0  0  0  0  0  0  0  0  0  0  0
    3.6109   -4.9447   -0.5741 C   0  0  0  0  0  0  0  0  0  0  0  0
    3.5039   -3.5915   -0.8654 C   0  0  0  0  0  0  0  0  0  0  0  0
    3.3326    3.6011    1.9735 C   0  0  0  0  0  0  0  0  0  0  0  0
    4.2989    4.5724    1.4562 C   0  0  0  0  0  0  0  0  0  0  0  0
    5.6017    4.6951    1.8770 C   0  0  0  0  0  0  0  0  0  0  0  0
    6.4930    5.6258    1.4009 C   0  0  0  0  0  0  0  0  0  0  0  0
    6.0749    6.5175    0.4251 C   0  0  0  0  0  0  0  0  0  0  0  0
    4.7836    6.4315   -0.0243 C   0  0  0  0  0  0  0  0  0  0  0  0
    3.8892    5.4760    0.4749 C   0  0  0  0  0  0  0  0  0  0  0  0
    0.0860    1.6591   -0.4109 N   0  0  0  0  0  0  0  0  0  0  0  0
   -1.1315    1.1191    0.1574 C   0  0  2  0  0  0  0  0  0  0  0  0
   -1.9701    0.3593   -0.7731 C   0  0  0  0  0  0  0  0  0  0  0  0
   -1.7996    0.3710   -2.0300 O   0  0  0  0  0  0  0  0  0  0  0  0
   -3.0142   -0.4269   -0.2174 N   0  0  0  0  0  0  0  0  0  0  0  0
   -3.9317   -1.2345   -1.0384 C   0  0  2  0  0  0  0  0  0  0  0  0
   -5.2410   -1.2324   -0.4487 C   0  0  0  0  0  0  0  0  0  0  0  0
   -5.3610   -0.7256    0.7251 O   0  0  0  0  0  0  0  0  0  0  0  0
   -6.4604   -1.7181   -1.0012 N   0  0  0  0  0  0  0  0  0  0  0  0
   -7.7155   -1.6651   -0.3340 C   0  0  0  0  0  0  0  0  0  0  0  0
   -7.8665   -2.3780    0.9240 C   0  0  0  0  0  0  0  0  0  0  0  0
   -9.0419   -2.2873    1.4700 O   0  0  0  0  0  0  0  0  0  0  0  0
   -6.9379   -3.1436    1.6301 N   0  0  0  0  0  0  0  0  0  0  0  0
   -3.3030   -2.4724   -1.4867 C   0  0  0  0  0  0  0  0  0  0  0  0
   -4.1444   -3.3756   -2.2551 C   0  0  0  0  0  0  0  0  0  0  0  0
   -4.3933   -3.4393   -3.6021 C   0  0  0  0  0  0  0  0  0  0  0  0
   -5.2570   -4.4227   -3.9056 N   0  0  0  0  0  0  0  0  0  0  0  0
   -5.5686   -5.0037   -2.7326 C   0  0  0  0  0  0  0  0  0  0  0  0
   -4.9147   -4.4017   -1.6856 C   0  0  0  0  0  0  0  0  0  0  0  0
   -5.0985   -4.8874   -0.4223 C   0  0  0  0  0  0  0  0  0  0  0  0
   -5.9192   -5.9700   -0.1262 C   0  0  0  0  0  0  0  0  0  0  0  0
   -6.5790   -6.5714   -1.2061 C   0  0  0  0  0  0  0  0  0  0  0  0
   -6.4009   -6.0846   -2.5033 C   0  0  0  0  0  0  0  0  0  0  0  0
   -1.9132    2.1796    0.9099 C   0  0  0  0  0  0  0  0  0  0  0  0
   -2.3429    3.3459    0.0759 C   0  0  0  0  0  0  0  0  0  0  0  0
   -3.0837    4.3824    0.9295 C   0  0  0  0  0  0  0  0  0  0  0  0
   -2.2163    4.8639    1.9925 N   0  0  0  0  0  0  0  0  0  0  0  0
   -2.7206    5.2369    3.1400 C   0  0  0  0  0  0  0  0  0  0  0  0
   -4.1005    5.2021    3.4289 N   0  0  0  0  0  0  0  0  0  0  0  0
   -1.7574    5.6996    4.1020 N   0  0  0  0  0  0  0  0  0  0  0  0
    2.4692    3.2700   -0.3282 H   0  0  0  0  0  0  0  0  0  0  0  0
    2.9997    1.5748   -0.6875 H   0  0  0  0  0  0  0  0  0  0  0  0
    5.6469   -0.1703    1.4952 H   0  0  0  0  0  0  0  0  0  0  0  0
    4.1718   -0.7664    2.2274 H   0  0  0  0  0  0  0  0  0  0  0  0
    6.9174   -0.1983   -0.0495 H   0  0  0  0  0  0  0  0  0  0  0  0
    6.0905    1.3911   -0.4181 H   0  0  0  0  0  0  0  0  0  0  0  0
    7.2285    1.3096   -2.5421 H   0  0  0  0  0  0  0  0  0  0  0  0
    7.7294   -0.2403   -4.7247 H   0  0  0  0  0  0  0  0  0  0  0  0
    9.1533   -0.8136   -3.7332 H   0  0  0  0  0  0  0  0  0  0  0  0
    7.9434   -1.9825   -4.3552 H   0  0  0  0  0  0  0  0  0  0  0  0
    2.0637   -0.9422    0.5929 H   0  0  0  0  0  0  0  0  0  0  0  0
    2.5595   -1.1148   -1.1699 H   0  0  0  0  0  0  0  0  0  0  0  0
    2.3212   -2.6509    2.1245 H   0  0  0  0  0  0  0  0  0  0  0  0
    2.5166   -4.9955    2.5902 H   0  0  0  0  0  0  0  0  0  0  0  0
    3.3780   -6.5450    0.8051 H   0  0  0  0  0  0  0  0  0  0  0  0
    3.9824   -5.6223   -1.3284 H   0  0  0  0  0  0  0  0  0  0  0  0
    3.7848   -3.2682   -1.8352 H   0  0  0  0  0  0  0  0  0  0  0  0
    3.5413    3.4318    3.0590 H   0  0  0  0  0  0  0  0  0  0  0  0
    2.3100    3.9863    1.9003 H   0  0  0  0  0  0  0  0  0  0  0  0
    5.9765    4.0209    2.6394 H   0  0  0  0  0  0  0  0  0  0  0  0
    7.5215    5.7141    1.7473 H   0  0  0  0  0  0  0  0  0  0  0  0
    6.7958    7.2531    0.0549 H   0  0  0  0  0  0  0  0  0  0  0  0
    4.4537    7.1312   -0.7916 H   0  0  0  0  0  0  0  0  0  0  0  0
    2.9021    5.5127    0.0572 H   0  0  0  0  0  0  0  0  0  0  0  0
    0.1851    1.9742   -1.3994 H   0  0  0  0  0  0  0  0  0  0  0  0
   -0.7847    0.4297    0.9828 H   0  0  0  0  0  0  0  0  0  0  0  0
   -3.1952   -0.4750    0.8085 H   0  0  0  0  0  0  0  0  0  0  0  0
   -3.9715   -0.5888   -2.0048 H   0  0  0  0  0  0  0  0  0  0  0  0
   -6.4161   -2.1113   -1.9538 H   0  0  0  0  0  0  0  0  0  0  0  0
   -8.0096   -0.5678   -0.2173 H   0  0  0  0  0  0  0  0  0  0  0  0
   -8.5278   -2.0389   -1.0286 H   0  0  0  0  0  0  0  0  0  0  0  0
   -7.1267   -4.1856    1.7074 H   0  0  0  0  0  0  0  0  0  0  0  0
   -6.0747   -2.8367    2.1144 H   0  0  0  0  0  0  0  0  0  0  0  0
   -2.4335   -2.2091   -2.1947 H   0  0  0  0  0  0  0  0  0  0  0  0
   -2.8631   -3.0924   -0.6547 H   0  0  0  0  0  0  0  0  0  0  0  0
   -3.9660   -2.7986   -4.3741 H   0  0  0  0  0  0  0  0  0  0  0  0
   -5.6012   -4.6633   -4.8680 H   0  0  0  0  0  0  0  0  0  0  0  0
   -4.5925   -4.4294    0.4284 H   0  0  0  0  0  0  0  0  0  0  0  0
   -6.0412   -6.3351    0.8878 H   0  0  0  0  0  0  0  0  0  0  0  0
   -7.2173   -7.4152   -0.9881 H   0  0  0  0  0  0  0  0  0  0  0  0
   -6.9396   -6.5846   -3.3012 H   0  0  0  0  0  0  0  0  0  0  0  0
   -1.3738    2.5011    1.8241 H   0  0  0  0  0  0  0  0  0  0  0  0
   -2.8515    1.6971    1.2801 H   0  0  0  0  0  0  0  0  0  0  0  0
   -1.4825    3.8813   -0.3748 H   0  0  0  0  0  0  0  0  0  0  0  0
   -3.0379    3.0998   -0.7273 H   0  0  0  0  0  0  0  0  0  0  0  0
   -4.0613    4.0661    1.2650 H   0  0  0  0  0  0  0  0  0  0  0  0
   -3.2138    5.2653    0.2536 H   0  0  0  0  0  0  0  0  0  0  0  0
   -4.7292    5.7849    2.8474 H   0  0  0  0  0  0  0  0  0  0  0  0
   -4.4561    4.6135    4.1972 H   0  0  0  0  0  0  0  0  0  0  0  0
   -1.9718    5.4606    5.0964 H   0  0  0  0  0  0  0  0  0  0  0  0
   -0.9067    6.2305    3.8364 H   0  0  0  0  0  0  0  0  0  0  0  0
  1  2  2  0
  2  3  1  0
  3  4  1  0
  4  5  1  0
  5  6  2  0
  5  7  1  0
  7  8  1  0
  8  9  1  0
  9 10  2  0
  9 11  1  0
 11 12  1  0
 12 13  1  0
 13 14  2  0
 13 15  1  0
  8 16  1  0
 16 17  1  0
 17 18  2  0
 18 19  1  0
 19 20  2  0
 20 21  1  0
 21 22  2  0
  4 23  1  0
 23 24  1  0
 24 25  2  0
 25 26  1  0
 26 27  2  0
 27 28  1  0
 28 29  2  0
  2 30  1  0
 30 31  1  0
 31 32  1  0
 32 33  2  0
 32 34  1  0
 34 35  1  0
 35 36  1  0
 36 37  2  0
 36 38  1  0
 38 39  1  0
 39 40  1  0
 40 41  2  0
 40 42  1  0
 35 43  1  0
 43 44  1  0
 44 45  2  0
 45 46  1  0
 46 47  1  0
 47 48  2  0
 48 49  1  0
 49 50  2  0
 50 51  1  0
 51 52  2  0
 31 53  1  0
 53 54  1  0
 54 55  1  0
 55 56  1  0
 56 57  2  3
 57 58  1  0
 57 59  1  0
 22 17  1  0
 29 24  1  0
 48 44  1  0
 52 47  1  0
  3 60  1  0
  3 61  1  0
  7 62  1  0
  7 63  1  0
 11 64  1  0
 11 65  1  0
 12 66  1  0
 15 67  1  0
 15 68  1  0
 15 69  1  0
 16 70  1  0
 16 71  1  0
 18 72  1  0
 19 73  1  0
 20 74  1  0
 21 75  1  0
 22 76  1  0
 23 77  1  0
 23 78  1  0
 25 79  1  0
 26 80  1  0
 27 81  1  0
 28 82  1  0
 29 83  1  0
 30 84  1  0
 31 85  1  1
 34 86  1  0
 35 87  1  6
 38 88  1  0
 39 89  1  0
 39 90  1  0
 42 91  1  0
 42 92  1  0
 43 93  1  0
 43 94  1  0
 45 95  1  0
 46 96  1  0
 49 97  1  0
 50 98  1  0
 51 99  1  0
 52100  1  0
 53101  1  0
 53102  1  0
 54103  1  0
 54104  1  0
 55105  1  0
 55106  1  0
 58107  1  0
 58108  1  0
 59109  1  0
 59110  1  0
M  END
>  <Ligand ID>  (1) 
LIG0003331

>  <Ligand>  (1) 
CHEMBL589308

>  <SMILES>  (1) 
O=C(CN(C(=O)CN(C(=O)CNC(=O)C)Cc1ccccc1)Cc1ccccc1)N[C@H](C(=O)N[C@H](C(=O)NCC(=O)N)Cc1c[nH]c2c1cccc2)CCCN=C(N)N

>  <CID>  (1) 
46232219.0

>  <ChEMBL ID>  (1) 
nan

>  <InChiKey>  (1) 
UENCACMFJICPLI-HEVIKAOCSA-N

>  <InChi>  (1) 
InChI=1S/C41H51N11O7/c1-27(53)46-22-37(56)52(24-29-13-6-3-7-14-29)26-38(57)51(23-28-11-4-2-5-12-28)25-36(55)49-33(17-10-18-45-41(43)44)40(59)50-34(39(58)48-21-35(42)54)19-30-20-47-32-16-9-8-15-31(30)32/h2-9,11-16,20,33-34,47H,10,17-19,21-26H2,1H3,(H2,42,54)(H,46,53)(H,48,58)(H,49,55)(H,50,59)(H4,43,44,45)/t33-,34-/m0/s1

>  <IUPAC Name>  (1) 
(2S)-2-[[2-[[2-[(2-acetamidoacetyl)-benzylamino]acetyl]-benzylamino]acetyl]amino]-N-[(2S)-1-[(2-amino-2-oxoethyl)amino]-3-(1H-indol-3-yl)-1-oxopropan-2-yl]-5-(diaminomethylideneamino)pentanamide

$$$$
