
     RDKit          3D

 65 69  0  0  0  0  0  0  0  0999 V2000
    3.8883   -1.1181   -0.1635 O   0  0  0  0  0  0  0  0  0  0  0  0
    3.8685   -0.0798    0.5463 C   0  0  0  0  0  0  0  0  0  0  0  0
    2.6362    0.4851    1.1491 C   0  0  0  0  0  0  0  0  0  0  0  0
    1.4636   -0.3276    0.6364 C   0  0  1  0  0  0  0  0  0  0  0  0
    0.1554    0.1606    1.1981 C   0  0  0  0  0  0  0  0  0  0  0  0
   -0.9608   -0.5846    0.5576 C   0  0  1  0  0  0  0  0  0  0  0  0
   -0.7102   -1.9459    0.6377 O   0  0  0  0  0  0  0  0  0  0  0  0
   -2.3037   -0.3153    1.1828 C   0  0  1  0  0  0  0  0  0  0  0  0
   -2.7336    1.1108    1.1125 C   0  0  0  0  0  0  0  0  0  0  0  0
   -2.0369    1.8676    0.0431 C   0  0  0  0  0  0  0  0  0  0  0  0
   -1.2497    1.2600   -0.9233 C   0  0  0  0  0  0  0  0  0  0  0  0
   -1.0761   -0.2186   -0.9088 C   0  0  1  0  0  0  0  0  0  0  0  0
    0.2219   -0.6031   -1.5945 C   0  0  0  0  0  0  0  0  0  0  0  0
    1.4009   -0.1062   -0.8368 C   0  0  0  0  0  0  0  0  0  0  0  0
    2.2664    0.4644   -1.4727 O   0  0  0  0  0  0  0  0  0  0  0  0
   -2.1984   -0.8838   -1.6053 C   0  0  0  0  0  0  0  0  0  0  0  0
   -3.4272   -1.1336   -0.7946 C   0  0  0  0  0  0  0  0  0  0  0  0
   -3.2556   -1.1955    0.6076 N   0  0  0  0  0  0  0  0  0  0  0  0
   -3.4170   -2.4527    1.2439 C   0  0  0  0  0  0  0  0  0  0  0  0
   -4.7945   -3.0200    1.2820 C   0  0  0  0  0  0  0  0  0  0  0  0
   -5.9088   -2.2886    1.9566 C   0  0  0  0  0  0  0  0  0  0  0  0
   -5.9160   -2.5931    0.4503 C   0  0  0  0  0  0  0  0  0  0  0  0
   -0.6655    2.0852   -1.8512 C   0  0  0  0  0  0  0  0  0  0  0  0
   -0.8337    3.4671   -1.8516 C   0  0  0  0  0  0  0  0  0  0  0  0
   -1.6168    4.0692   -0.8898 C   0  0  0  0  0  0  0  0  0  0  0  0
   -2.2159    3.2500    0.0575 C   0  0  0  0  0  0  0  0  0  0  0  0
   -0.1949    4.2301   -2.8428 O   0  0  0  0  0  0  0  0  0  0  0  0
    5.0866    0.6437    0.8202 N   0  0  0  0  0  0  0  0  0  0  0  0
    6.3298    0.1509    0.2652 C   0  0  2  0  0  0  0  0  0  0  0  0
    7.3854   -0.0337    1.2934 C   0  0  0  0  0  0  0  0  0  0  0  0
    7.1858    0.2251    2.5065 O   0  0  0  0  0  0  0  0  0  0  0  0
    8.6174   -0.5150    0.8219 O   0  0  0  0  0  0  0  0  0  0  0  0
    6.8382    1.0618   -0.8420 C   0  0  0  0  0  0  0  0  0  0  0  0
    2.7303    0.4770    2.2524 H   0  0  0  0  0  0  0  0  0  0  0  0
    2.5140    1.5286    0.7714 H   0  0  0  0  0  0  0  0  0  0  0  0
    1.6176   -1.3939    0.8793 H   0  0  0  0  0  0  0  0  0  0  0  0
    0.0916   -0.0627    2.3041 H   0  0  0  0  0  0  0  0  0  0  0  0
    0.1359    1.2516    1.0616 H   0  0  0  0  0  0  0  0  0  0  0  0
   -0.5033   -2.2820    1.5310 H   0  0  0  0  0  0  0  0  0  0  0  0
   -2.2074   -0.5839    2.2549 H   0  0  0  0  0  0  0  0  0  0  0  0
   -3.8520    1.1190    0.9689 H   0  0  0  0  0  0  0  0  0  0  0  0
   -2.5627    1.6601    2.0656 H   0  0  0  0  0  0  0  0  0  0  0  0
    0.2326   -0.3321   -2.6450 H   0  0  0  0  0  0  0  0  0  0  0  0
    0.2531   -1.7237   -1.5517 H   0  0  0  0  0  0  0  0  0  0  0  0
   -1.8365   -1.8302   -2.0669 H   0  0  0  0  0  0  0  0  0  0  0  0
   -2.4945   -0.2548   -2.4780 H   0  0  0  0  0  0  0  0  0  0  0  0
   -4.2037   -0.3648   -1.0203 H   0  0  0  0  0  0  0  0  0  0  0  0
   -3.8617   -2.1000   -1.1300 H   0  0  0  0  0  0  0  0  0  0  0  0
   -2.6694   -3.1933    0.8604 H   0  0  0  0  0  0  0  0  0  0  0  0
   -3.1127   -2.3030    2.3229 H   0  0  0  0  0  0  0  0  0  0  0  0
   -4.7819   -4.1245    1.5362 H   0  0  0  0  0  0  0  0  0  0  0  0
   -5.7738   -1.2482    2.2955 H   0  0  0  0  0  0  0  0  0  0  0  0
   -6.6743   -2.8502    2.5165 H   0  0  0  0  0  0  0  0  0  0  0  0
   -5.9882   -1.6770   -0.1370 H   0  0  0  0  0  0  0  0  0  0  0  0
   -6.6417   -3.3690    0.0816 H   0  0  0  0  0  0  0  0  0  0  0  0
   -0.0470    1.6777   -2.6227 H   0  0  0  0  0  0  0  0  0  0  0  0
   -1.7683    5.1375   -0.8609 H   0  0  0  0  0  0  0  0  0  0  0  0
   -2.8402    3.7321    0.8240 H   0  0  0  0  0  0  0  0  0  0  0  0
    0.8362    4.1991   -2.8880 H   0  0  0  0  0  0  0  0  0  0  0  0
    5.1134    1.5008    1.3965 H   0  0  0  0  0  0  0  0  0  0  0  0
    6.0844   -0.8320   -0.2007 H   0  0  0  0  0  0  0  0  0  0  0  0
    9.3685   -0.7179    1.5001 H   0  0  0  0  0  0  0  0  0  0  0  0
    7.7147    1.6417   -0.4891 H   0  0  0  0  0  0  0  0  0  0  0  0
    7.2193    0.4182   -1.6880 H   0  0  0  0  0  0  0  0  0  0  0  0
    6.0787    1.7832   -1.1907 H   0  0  0  0  0  0  0  0  0  0  0  0
  1  2  2  0
  2  3  1  0
  3  4  1  0
  4  5  1  0
  5  6  1  0
  6  7  1  6
  6  8  1  0
  8  9  1  0
  9 10  1  0
 10 11  2  0
 11 12  1  0
 12 13  1  6
 13 14  1  0
 14 15  2  0
 12 16  1  0
 16 17  1  0
 17 18  1  0
 18 19  1  0
 19 20  1  0
 20 21  1  0
 21 22  1  0
 11 23  1  0
 23 24  2  0
 24 25  1  0
 25 26  2  0
 24 27  1  0
  2 28  1  0
 28 29  1  0
 29 30  1  0
 30 31  2  0
 30 32  1  0
 29 33  1  0
 14  4  1  0
 22 20  1  0
 12  6  1  0
 18  8  1  0
 26 10  1  0
  3 34  1  0
  3 35  1  0
  4 36  1  6
  5 37  1  0
  5 38  1  0
  7 39  1  0
  8 40  1  1
  9 41  1  0
  9 42  1  0
 13 43  1  0
 13 44  1  0
 16 45  1  0
 16 46  1  0
 17 47  1  0
 17 48  1  0
 19 49  1  0
 19 50  1  0
 20 51  1  0
 21 52  1  0
 21 53  1  0
 22 54  1  0
 22 55  1  0
 23 56  1  0
 25 57  1  0
 26 58  1  0
 27 59  1  0
 28 60  1  0
 29 61  1  6
 32 62  1  0
 33 63  1  0
 33 64  1  0
 33 65  1  0
M  END
>  <Ligand ID>  (1) 
LIG0005170

>  <Ligand>  (1) 
CHEMBL3923032

>  <SMILES>  (1) 
O=C(C[C@H]1C[C@@]2(O)[C@H]3Cc4c([C@]2(CC1=O)CCN3CC1CC1)cc(cc4)O)N[C@H](C(=O)O)C

>  <CID>  (1) 
77106751.0

>  <ChEMBL ID>  (1) 
nan

>  <InChiKey>  (1) 
XJIVENQJWIEECJ-YSHMZDJXSA-N

>  <InChi>  (1) 
InChI=1S/C25H32N2O6/c1-14(23(31)32)26-22(30)9-17-11-25(33)21-8-16-4-5-18(28)10-19(16)24(25,12-20(17)29)6-7-27(21)13-15-2-3-15/h4-5,10,14-15,17,21,28,33H,2-3,6-9,11-13H2,1H3,(H,26,30)(H,31,32)/t14-,17-,21+,24+,25+/m0/s1

>  <IUPAC Name>  (1) 
(2S)-2-[[2-[(1R,9R,10S,12R)-17-(cyclopropylmethyl)-4,10-dihydroxy-13-oxo-17-azatetracyclo[7.5.3.01,10.02,7]heptadeca-2(7),3,5-trien-12-yl]acetyl]amino]propanoic acid

$$$$
