
     RDKit          3D

 33 35  0  0  0  0  0  0  0  0999 V2000
   -2.9590   -2.7905   -0.8207 C   0  0  0  0  0  0  0  0  0  0  0  0
   -3.9285   -1.8106   -0.8560 C   0  0  0  0  0  0  0  0  0  0  0  0
   -3.5569   -0.5129   -0.6618 N   0  0  0  0  0  0  0  0  0  0  0  0
   -2.2573   -0.2110   -0.4400 C   0  0  0  0  0  0  0  0  0  0  0  0
   -1.3192   -1.1732   -0.4074 N   0  0  0  0  0  0  0  0  0  0  0  0
   -1.6301   -2.4754   -0.5933 C   0  0  0  0  0  0  0  0  0  0  0  0
   -1.8967    1.1761   -0.2377 C   0  0  0  0  0  0  0  0  0  0  0  0
   -2.8512    2.1666   -0.2697 C   0  0  0  0  0  0  0  0  0  0  0  0
   -2.5769    3.5008   -0.0856 C   0  0  0  0  0  0  0  0  0  0  0  0
   -1.2507    3.8801    0.1484 C   0  0  0  0  0  0  0  0  0  0  0  0
   -0.2889    2.8841    0.1808 C   0  0  0  0  0  0  0  0  0  0  0  0
   -0.5841    1.5495   -0.0063 C   0  0  0  0  0  0  0  0  0  0  0  0
    0.3781    0.5463    0.0255 O   0  0  0  0  0  0  0  0  0  0  0  0
    1.7112    0.9398    0.2620 C   0  0  0  0  0  0  0  0  0  0  0  0
    2.6159   -0.2387    0.2665 C   0  0  0  0  0  0  0  0  0  0  0  0
    3.6171   -0.4313   -0.5303 N   0  0  0  0  0  0  0  0  0  0  0  0
    4.2655   -1.6900   -0.2285 C   0  0  0  0  0  0  0  0  0  0  0  0
    3.7834   -2.0159    1.1670 C   0  0  0  0  0  0  0  0  0  0  0  0
    2.4928   -1.3327    1.1706 N   0  0  0  0  0  0  0  0  0  0  0  0
   -3.2367   -3.8343   -0.9739 H   0  0  0  0  0  0  0  0  0  0  0  0
   -4.9723   -2.0118   -1.0297 H   0  0  0  0  0  0  0  0  0  0  0  0
   -0.8485   -3.2208   -0.5600 H   0  0  0  0  0  0  0  0  0  0  0  0
   -3.8797    1.8760   -0.4507 H   0  0  0  0  0  0  0  0  0  0  0  0
   -3.3552    4.2685   -0.1160 H   0  0  0  0  0  0  0  0  0  0  0  0
   -1.0072    4.9317    0.2974 H   0  0  0  0  0  0  0  0  0  0  0  0
    0.7525    3.1298    0.3590 H   0  0  0  0  0  0  0  0  0  0  0  0
    1.9987    1.6744   -0.4886 H   0  0  0  0  0  0  0  0  0  0  0  0
    1.7133    1.4751    1.2433 H   0  0  0  0  0  0  0  0  0  0  0  0
    3.8908   -2.4174   -0.9906 H   0  0  0  0  0  0  0  0  0  0  0  0
    5.3693   -1.5739   -0.2619 H   0  0  0  0  0  0  0  0  0  0  0  0
    3.6853   -3.1047    1.2890 H   0  0  0  0  0  0  0  0  0  0  0  0
    4.4880   -1.5694    1.8768 H   0  0  0  0  0  0  0  0  0  0  0  0
    1.6372   -1.5843    1.7223 H   0  0  0  0  0  0  0  0  0  0  0  0
  1  2  2  0
  2  3  1  0
  3  4  2  0
  4  5  1  0
  5  6  2  0
  4  7  1  0
  7  8  2  0
  8  9  1  0
  9 10  2  0
 10 11  1  0
 11 12  2  0
 12 13  1  0
 13 14  1  0
 14 15  1  0
 15 16  2  0
 16 17  1  0
 17 18  1  0
 18 19  1  0
  6  1  1  0
 12  7  1  0
 19 15  1  0
  1 20  1  0
  2 21  1  0
  6 22  1  0
  8 23  1  0
  9 24  1  0
 10 25  1  0
 11 26  1  0
 14 27  1  0
 14 28  1  0
 17 29  1  0
 17 30  1  0
 18 31  1  0
 18 32  1  0
 19 33  1  0
M  END
>  <Ligand ID>  (1) 
LIG0003200

>  <Ligand>  (1) 
CHEMBL358802

>  <SMILES>  (1) 
c1cnc(nc1)c1ccccc1OCC1=NCCN1

>  <CID>  (1) 
44362289.0

>  <ChEMBL ID>  (1) 
nan

>  <InChiKey>  (1) 
QFTZHTMOMYVJRT-UHFFFAOYSA-N

>  <InChi>  (1) 
InChI=1S/C14H14N4O/c1-2-5-12(19-10-13-15-8-9-16-13)11(4-1)14-17-6-3-7-18-14/h1-7H,8-10H2,(H,15,16)

>  <IUPAC Name>  (1) 
2-[2-(4,5-dihydro-1H-imidazol-2-ylmethoxy)phenyl]pyrimidine

$$$$
