
     RDKit          3D

 29 31  0  0  0  0  0  0  0  0999 V2000
    0.3185   -2.5243   -1.0810 O   0  0  0  0  0  0  0  0  0  0  0  0
    0.3335   -1.3463   -0.6366 C   0  0  0  0  0  0  0  0  0  0  0  0
   -0.8907   -0.6166   -0.4339 N   0  0  0  0  0  0  0  0  0  0  0  0
   -2.0867   -1.4044   -0.2769 C   0  0  0  0  0  0  0  0  0  0  0  0
   -3.3598   -0.6540   -0.3880 C   0  0  0  0  0  0  0  0  0  0  0  0
   -3.2567    0.7653   -0.3083 N   0  0  0  0  0  0  0  0  0  0  0  0
   -2.0982    1.2530    0.3659 C   0  0  0  0  0  0  0  0  0  0  0  0
   -0.8749    0.8186   -0.3971 C   0  0  1  0  0  0  0  0  0  0  0  0
    0.3304    1.2547    0.3437 C   0  0  0  0  0  0  0  0  0  0  0  0
    1.5746    0.5701    0.1580 C   0  0  0  0  0  0  0  0  0  0  0  0
    1.6115   -0.7136   -0.3232 C   0  0  0  0  0  0  0  0  0  0  0  0
    2.8049   -1.3541   -0.4949 C   0  0  0  0  0  0  0  0  0  0  0  0
    4.0022   -0.7368   -0.1927 C   0  0  0  0  0  0  0  0  0  0  0  0
    3.9740    0.5580    0.2931 C   0  0  0  0  0  0  0  0  0  0  0  0
    2.7678    1.1766    0.4558 C   0  0  0  0  0  0  0  0  0  0  0  0
   -2.0154   -2.2271   -1.0461 H   0  0  0  0  0  0  0  0  0  0  0  0
   -2.0188   -1.9208    0.7084 H   0  0  0  0  0  0  0  0  0  0  0  0
   -3.8023   -0.8816   -1.3964 H   0  0  0  0  0  0  0  0  0  0  0  0
   -4.1030   -1.0564    0.3455 H   0  0  0  0  0  0  0  0  0  0  0  0
   -4.0966    1.1147    0.2112 H   0  0  0  0  0  0  0  0  0  0  0  0
   -2.1270    2.3733    0.2678 H   0  0  0  0  0  0  0  0  0  0  0  0
   -1.9870    0.9722    1.4184 H   0  0  0  0  0  0  0  0  0  0  0  0
   -0.8727    1.2508   -1.4126 H   0  0  0  0  0  0  0  0  0  0  0  0
    0.2308    2.0165    1.1574 H   0  0  0  0  0  0  0  0  0  0  0  0
    0.2511    1.6876    0.6522 H   0  0  0  0  0  0  0  0  0  0  0  0
    2.8129   -2.3488   -0.8689 H   0  0  0  0  0  0  0  0  0  0  0  0
    4.9475   -1.2775   -0.3413 H   0  0  0  0  0  0  0  0  0  0  0  0
    4.8786    1.0758    0.5408 H   0  0  0  0  0  0  0  0  0  0  0  0
    2.7515    2.1748    0.8307 H   0  0  0  0  0  0  0  0  0  0  0  0
  1  2  2  0
  2  3  1  0
  3  4  1  0
  4  5  1  0
  5  6  1  0
  6  7  1  0
  7  8  1  0
  8  9  1  0
  9 10  1  0
 10 11  2  0
 11 12  1  0
 12 13  2  0
 13 14  1  0
 14 15  2  0
 11  2  1  0
  8  3  1  0
 15 10  1  0
  4 16  1  0
  4 17  1  0
  5 18  1  0
  5 19  1  0
  6 20  1  0
  7 21  1  0
  7 22  1  0
  8 23  1  6
  9 24  1  0
  9 25  1  0
 12 26  1  0
 13 27  1  0
 14 28  1  0
 15 29  1  0
M  END
>  <Ligand ID>  (1) 
LIG0003219

>  <Ligand>  (1) 
SCHEMBL5458020

>  <SMILES>  (1) 
O=C1N2CCNC[C@H]2Cc2c1cccc2

>  <CID>  (1) 
24826786.0

>  <ChEMBL ID>  (1) 
nan

>  <InChiKey>  (1) 
AUEGWMBCKGVNGW-SNVBAGLBSA-N

>  <InChi>  (1) 
InChI=1S/C12H14N2O/c15-12-11-4-2-1-3-9(11)7-10-8-13-5-6-14(10)12/h1-4,10,13H,5-8H2/t10-/m1/s1

>  <IUPAC Name>  (1) 
(11aR)-1,2,3,4,11,11a-hexahydropyrazino[1,2-b]isoquinolin-6-one

$$$$
