
     RDKit          3D

 59 61  0  0  0  0  0  0  0  0999 V2000
    9.7748    1.7278    0.9547 C   0  0  0  0  0  0  0  0  0  0  0  0
    8.3557    1.6855    0.6525 N   0  0  0  0  0  0  0  0  0  0  0  0
    7.7688    0.6908   -0.1808 C   0  0  0  0  0  0  0  0  0  0  0  0
    8.5212   -0.2058   -0.6868 O   0  0  0  0  0  0  0  0  0  0  0  0
    6.3239    0.7054   -0.4467 C   0  0  0  0  0  0  0  0  0  0  0  0
    5.5677    1.6704    0.1090 N   0  0  0  0  0  0  0  0  0  0  0  0
    4.2525    1.7444   -0.0889 C   0  0  0  0  0  0  0  0  0  0  0  0
    3.6776    0.7795   -0.8992 C   0  0  0  0  0  0  0  0  0  0  0  0
    4.4354   -0.2288   -1.4860 C   0  0  0  0  0  0  0  0  0  0  0  0
    5.7955   -0.2770   -1.2608 C   0  0  0  0  0  0  0  0  0  0  0  0
    3.7051   -1.1988   -2.3298 C   0  0  0  0  0  0  0  0  0  0  0  0
    3.1752   -2.5630   -1.2279 S   0  0  0  0  0  0  0  0  0  0  0  0
    1.9825   -1.8239   -0.1006 C   0  0  0  0  0  0  0  0  0  0  0  0
    2.5009   -1.3023    1.0398 N   0  0  0  0  0  0  0  0  0  0  0  0
    1.6908   -0.7275    1.9429 C   0  0  0  0  0  0  0  0  0  0  0  0
    2.2965   -0.1896    3.1368 N   0  0  0  0  0  0  0  0  0  0  0  0
    0.3378   -0.6576    1.7318 C   0  0  0  0  0  0  0  0  0  0  0  0
   -0.1809   -1.1942    0.5622 C   0  0  0  0  0  0  0  0  0  0  0  0
    0.6327   -1.7904   -0.3815 C   0  0  0  0  0  0  0  0  0  0  0  0
    0.1401   -2.3568   -1.6023 C   0  0  0  0  0  0  0  0  0  0  0  0
   -0.2756   -2.8067   -2.5836 N   0  0  0  0  0  0  0  0  0  0  0  0
   -1.6198   -1.1267    0.3204 C   0  0  0  0  0  0  0  0  0  0  0  0
   -2.0601    0.0158   -0.3576 C   0  0  0  0  0  0  0  0  0  0  0  0
   -3.4078    0.1462   -0.6202 C   0  0  0  0  0  0  0  0  0  0  0  0
   -4.2694   -0.8465   -0.2085 C   0  0  0  0  0  0  0  0  0  0  0  0
   -3.8683   -1.9812    0.4598 C   0  0  0  0  0  0  0  0  0  0  0  0
   -2.4994   -2.1099    0.7244 C   0  0  0  0  0  0  0  0  0  0  0  0
   -5.6316   -0.6540   -0.5066 O   0  0  0  0  0  0  0  0  0  0  0  0
   -6.0882    0.4860   -1.1861 C   0  0  0  0  0  0  0  0  0  0  0  0
   -7.5792    0.4144   -1.3602 C   0  0  0  0  0  0  0  0  0  0  0  0
   -7.9670   -0.6891   -2.0816 O   0  0  0  0  0  0  0  0  0  0  0  0
   -8.2023    0.3898    0.0138 C   0  0  0  0  0  0  0  0  0  0  0  0
   -7.9871    1.6685   -2.1155 C   0  0  0  0  0  0  0  0  0  0  0  0
   -0.5012   -0.0373    2.7159 C   0  0  0  0  0  0  0  0  0  0  0  0
   -1.1606    0.4619    3.5199 N   0  0  0  0  0  0  0  0  0  0  0  0
    9.9009    2.2599    1.9213 H   0  0  0  0  0  0  0  0  0  0  0  0
   10.1793    0.7082    0.9722 H   0  0  0  0  0  0  0  0  0  0  0  0
   10.2901    2.3259    0.1672 H   0  0  0  0  0  0  0  0  0  0  0  0
    7.7024    2.4007    1.0463 H   0  0  0  0  0  0  0  0  0  0  0  0
    3.6060    2.5054    0.3396 H   0  0  0  0  0  0  0  0  0  0  0  0
    2.6135    0.8308   -1.0662 H   0  0  0  0  0  0  0  0  0  0  0  0
    6.3790   -1.0602   -1.7176 H   0  0  0  0  0  0  0  0  0  0  0  0
    2.8352   -0.7489   -2.8400 H   0  0  0  0  0  0  0  0  0  0  0  0
    4.4260   -1.6181   -3.0709 H   0  0  0  0  0  0  0  0  0  0  0  0
    2.9306   -0.7858    3.6993 H   0  0  0  0  0  0  0  0  0  0  0  0
    2.0731    0.7953    3.3973 H   0  0  0  0  0  0  0  0  0  0  0  0
   -1.3722    0.7840   -0.6733 H   0  0  0  0  0  0  0  0  0  0  0  0
   -3.7554    1.0266   -1.1438 H   0  0  0  0  0  0  0  0  0  0  0  0
   -4.5608   -2.7323    0.7655 H   0  0  0  0  0  0  0  0  0  0  0  0
   -2.1139   -2.9807    1.2482 H   0  0  0  0  0  0  0  0  0  0  0  0
   -5.6558    0.4460   -2.2251 H   0  0  0  0  0  0  0  0  0  0  0  0
   -5.7505    1.4314   -0.7612 H   0  0  0  0  0  0  0  0  0  0  0  0
   -8.2822   -0.4258   -2.9797 H   0  0  0  0  0  0  0  0  0  0  0  0
   -8.5841    1.3805    0.3099 H   0  0  0  0  0  0  0  0  0  0  0  0
   -7.4479    0.1302    0.8132 H   0  0  0  0  0  0  0  0  0  0  0  0
   -8.9718   -0.4031    0.0964 H   0  0  0  0  0  0  0  0  0  0  0  0
   -7.7008    2.5748   -1.5387 H   0  0  0  0  0  0  0  0  0  0  0  0
   -9.0253    1.6654   -2.4594 H   0  0  0  0  0  0  0  0  0  0  0  0
   -7.3515    1.6701   -3.0387 H   0  0  0  0  0  0  0  0  0  0  0  0
  1  2  1  0
  2  3  1  0
  3  4  2  0
  3  5  1  0
  5  6  2  0
  6  7  1  0
  7  8  2  0
  8  9  1  0
  9 10  2  0
  9 11  1  0
 11 12  1  0
 12 13  1  0
 13 14  2  0
 14 15  1  0
 15 16  1  0
 15 17  2  0
 17 18  1  0
 18 19  2  0
 19 20  1  0
 20 21  3  0
 18 22  1  0
 22 23  2  0
 23 24  1  0
 24 25  2  0
 25 26  1  0
 26 27  2  0
 25 28  1  0
 28 29  1  0
 29 30  1  0
 30 31  1  0
 30 32  1  0
 30 33  1  0
 17 34  1  0
 34 35  3  0
 10  5  1  0
 19 13  1  0
 27 22  1  0
  1 36  1  0
  1 37  1  0
  1 38  1  0
  2 39  1  0
  7 40  1  0
  8 41  1  0
 10 42  1  0
 11 43  1  0
 11 44  1  0
 16 45  1  0
 16 46  1  0
 23 47  1  0
 24 48  1  0
 26 49  1  0
 27 50  1  0
 29 51  1  0
 29 52  1  0
 31 53  1  0
 32 54  1  0
 32 55  1  0
 32 56  1  0
 33 57  1  0
 33 58  1  0
 33 59  1  0
M  END
>  <Ligand ID>  (1) 
LIG0003406

>  <Ligand>  (1) 
SCHEMBL3327283

>  <SMILES>  (1) 
CNC(=O)c1nccc(c1)CSc1nc(N)c(c(c1C#N)c1ccc(cc1)OCC(O)(C)C)C#N

>  <CID>  (1) 
68597350.0

>  <ChEMBL ID>  (1) 
nan

>  <InChiKey>  (1) 
XQOOPCOOQAMMQP-UHFFFAOYSA-N

>  <InChi>  (1) 
InChI=1S/C25H24N6O3S/c1-25(2,33)14-34-17-6-4-16(5-7-17)21-18(11-26)22(28)31-24(19(21)12-27)35-13-15-8-9-30-20(10-15)23(32)29-3/h4-10,33H,13-14H2,1-3H3,(H2,28,31)(H,29,32)

>  <IUPAC Name>  (1) 
4-[[6-amino-3,5-dicyano-4-[4-(2-hydroxy-2-methylpropoxy)phenyl]pyridin-2-yl]sulfanylmethyl]-N-methylpyridine-2-carboxamide

$$$$
