
     RDKit          3D

 68 72  0  0  0  0  0  0  0  0999 V2000
    0.1418    0.1332   -2.2881 O   0  0  0  0  0  0  0  0  0  0  0  0
    0.1603   -0.1607   -1.0308 C   0  0  0  0  0  0  0  0  0  0  0  0
   -0.9846   -0.7605   -0.5090 N   0  0  0  0  0  0  0  0  0  0  0  0
   -1.2523   -1.1397    0.8592 C   0  0  0  0  0  0  0  0  0  0  0  0
   -1.3570   -2.6445    0.8136 C   0  0  0  0  0  0  0  0  0  0  0  0
   -1.0016   -3.3720    1.9481 C   0  0  0  0  0  0  0  0  0  0  0  0
   -1.0904   -4.7459    1.9400 C   0  0  0  0  0  0  0  0  0  0  0  0
   -1.5333   -5.3952    0.8022 C   0  0  0  0  0  0  0  0  0  0  0  0
   -1.8799   -4.6548   -0.3099 C   0  0  0  0  0  0  0  0  0  0  0  0
   -1.7992   -3.2661   -0.3276 C   0  0  0  0  0  0  0  0  0  0  0  0
   -2.1974   -2.5910   -1.5759 C   0  0  0  0  0  0  0  0  0  0  0  0
   -2.0993   -1.0908   -1.4374 C   0  0  1  0  0  0  0  0  0  0  0  0
   -3.3910   -0.5425   -0.9111 C   0  0  0  0  0  0  0  0  0  0  0  0
   -4.5516   -1.2576   -0.8707 N   0  0  0  0  0  0  0  0  0  0  0  0
   -5.5192   -0.4845   -0.3493 C   0  0  0  0  0  0  0  0  0  0  0  0
   -4.9459    0.7355   -0.0606 C   0  0  0  0  0  0  0  0  0  0  0  0
   -3.6478    0.6706   -0.4136 N   0  0  0  0  0  0  0  0  0  0  0  0
   -5.6347    1.8823    0.5196 C   0  0  0  0  0  0  0  0  0  0  0  0
   -4.8891    3.0221    0.7257 C   0  0  0  0  0  0  0  0  0  0  0  0
   -5.5060    4.1371    1.2754 C   0  0  0  0  0  0  0  0  0  0  0  0
   -6.8434    4.0548    1.5924 C   0  0  0  0  0  0  0  0  0  0  0  0
   -7.5912    2.8979    1.3810 C   0  0  0  0  0  0  0  0  0  0  0  0
   -6.9728    1.7977    0.8361 C   0  0  0  0  0  0  0  0  0  0  0  0
    1.4157    0.1953   -0.3392 C   0  0  2  0  0  0  0  0  0  0  0  0
    2.5658    0.1176   -1.3090 C   0  0  0  0  0  0  0  0  0  0  0  0
    3.8878    0.4541   -0.7526 C   0  0  0  0  0  0  0  0  0  0  0  0
    4.6978   -0.4027   -0.0563 C   0  0  0  0  0  0  0  0  0  0  0  0
    4.3325   -1.8209    0.1385 C   0  0  0  0  0  0  0  0  0  0  0  0
    5.9300   -0.0136    0.4818 C   0  0  0  0  0  0  0  0  0  0  0  0
    6.3893    1.2765    0.3284 C   0  0  0  0  0  0  0  0  0  0  0  0
    5.5852    2.1452   -0.3702 C   0  0  0  0  0  0  0  0  0  0  0  0
    4.3557    1.7629   -0.9083 C   0  0  0  0  0  0  0  0  0  0  0  0
    3.5708    2.7880   -1.6488 C   0  0  0  0  0  0  0  0  0  0  0  0
    7.6708    1.6612    0.8946 C   0  0  0  0  0  0  0  0  0  0  0  0
    8.3507    0.8203    1.5168 O   0  0  0  0  0  0  0  0  0  0  0  0
    8.1392    2.9970    0.7338 N   0  0  0  0  0  0  0  0  0  0  0  0
    1.6588   -0.4676    0.8811 N   0  0  0  0  0  0  0  0  0  0  0  0
   -2.2415   -0.7207    1.2011 H   0  0  0  0  0  0  0  0  0  0  0  0
   -0.4817   -0.8891    1.5817 H   0  0  0  0  0  0  0  0  0  0  0  0
   -0.6522   -2.8831    2.8513 H   0  0  0  0  0  0  0  0  0  0  0  0
   -0.8120   -5.2903    2.8247 H   0  0  0  0  0  0  0  0  0  0  0  0
   -1.6024   -6.4760    0.7978 H   0  0  0  0  0  0  0  0  0  0  0  0
   -2.2266   -5.1984   -1.1930 H   0  0  0  0  0  0  0  0  0  0  0  0
   -1.6298   -2.9597   -2.4576 H   0  0  0  0  0  0  0  0  0  0  0  0
   -3.2746   -2.7984   -1.8340 H   0  0  0  0  0  0  0  0  0  0  0  0
   -1.8649   -0.6669   -2.4161 H   0  0  0  0  0  0  0  0  0  0  0  0
   -6.5643   -0.7742   -0.1865 H   0  0  0  0  0  0  0  0  0  0  0  0
   -2.9295    1.4246   -0.3274 H   0  0  0  0  0  0  0  0  0  0  0  0
   -3.8281    3.0935    0.4763 H   0  0  0  0  0  0  0  0  0  0  0  0
   -4.9060    5.0295    1.4326 H   0  0  0  0  0  0  0  0  0  0  0  0
   -7.3207    4.9464    2.0269 H   0  0  0  0  0  0  0  0  0  0  0  0
   -8.6460    2.8408    1.6345 H   0  0  0  0  0  0  0  0  0  0  0  0
   -7.5496    0.8928    0.6690 H   0  0  0  0  0  0  0  0  0  0  0  0
    1.3842    1.3109   -0.0618 H   0  0  0  0  0  0  0  0  0  0  0  0
    2.3475    0.8522   -2.1412 H   0  0  0  0  0  0  0  0  0  0  0  0
    2.5753   -0.8714   -1.8288 H   0  0  0  0  0  0  0  0  0  0  0  0
    3.5413   -2.1615   -0.5767 H   0  0  0  0  0  0  0  0  0  0  0  0
    3.9779   -2.0404    1.1510 H   0  0  0  0  0  0  0  0  0  0  0  0
    5.2120   -2.4703   -0.0800 H   0  0  0  0  0  0  0  0  0  0  0  0
    6.5476   -0.7105    1.0271 H   0  0  0  0  0  0  0  0  0  0  0  0
    5.9374    3.1567   -0.4952 H   0  0  0  0  0  0  0  0  0  0  0  0
    3.3931    2.4893   -2.7208 H   0  0  0  0  0  0  0  0  0  0  0  0
    2.6230    3.0336   -1.1479 H   0  0  0  0  0  0  0  0  0  0  0  0
    4.1683    3.7246   -1.7171 H   0  0  0  0  0  0  0  0  0  0  0  0
    7.5819    3.7709    1.1719 H   0  0  0  0  0  0  0  0  0  0  0  0
    8.9988    3.2384    0.2082 H   0  0  0  0  0  0  0  0  0  0  0  0
    1.6437   -1.4977    0.8372 H   0  0  0  0  0  0  0  0  0  0  0  0
    2.4338   -0.1343    1.4650 H   0  0  0  0  0  0  0  0  0  0  0  0
  1  2  2  0
  2  3  1  0
  3  4  1  0
  4  5  1  0
  5  6  2  0
  6  7  1  0
  7  8  2  0
  8  9  1  0
  9 10  2  0
 10 11  1  0
 11 12  1  0
 12 13  1  0
 13 14  2  0
 14 15  1  0
 15 16  2  0
 16 17  1  0
 16 18  1  0
 18 19  2  0
 19 20  1  0
 20 21  2  0
 21 22  1  0
 22 23  2  0
  2 24  1  0
 24 25  1  0
 25 26  1  0
 26 27  2  0
 27 28  1  0
 27 29  1  0
 29 30  2  0
 30 31  1  0
 31 32  2  0
 32 33  1  0
 30 34  1  0
 34 35  2  0
 34 36  1  0
 24 37  1  0
 12  3  1  0
 17 13  1  0
 23 18  1  0
 32 26  1  0
 10  5  1  0
  4 38  1  0
  4 39  1  0
  6 40  1  0
  7 41  1  0
  8 42  1  0
  9 43  1  0
 11 44  1  0
 11 45  1  0
 12 46  1  6
 15 47  1  0
 17 48  1  0
 19 49  1  0
 20 50  1  0
 21 51  1  0
 22 52  1  0
 23 53  1  0
 24 54  1  1
 25 55  1  0
 25 56  1  0
 28 57  1  0
 28 58  1  0
 28 59  1  0
 29 60  1  0
 31 61  1  0
 33 62  1  0
 33 63  1  0
 33 64  1  0
 36 65  1  0
 36 66  1  0
 37 67  1  0
 37 68  1  0
M  END
>  <Ligand ID>  (1) 
LIG0003764

>  <Ligand>  (1) 
CHEMBL427214

>  <SMILES>  (1) 
O=C(N1Cc2ccccc2C[C@H]1c1ncc([nH]1)c1ccccc1)[C@H](Cc1c(C)cc(cc1C)C(=O)N)N

>  <CID>  (1) 
10255149.0

>  <ChEMBL ID>  (1) 
nan

>  <InChiKey>  (1) 
WVYNHNGKKPVPMO-BDYUSTAISA-N

>  <InChi>  (1) 
InChI=1S/C30H31N5O2/c1-18-12-23(28(32)36)13-19(2)24(18)15-25(31)30(37)35-17-22-11-7-6-10-21(22)14-27(35)29-33-16-26(34-29)20-8-4-3-5-9-20/h3-13,16,25,27H,14-15,17,31H2,1-2H3,(H2,32,36)(H,33,34)/t25-,27-/m0/s1

>  <IUPAC Name>  (1) 
4-[(2S)-2-amino-3-oxo-3-[(3S)-3-(5-phenyl-1H-imidazol-2-yl)-3,4-dihydro-1H-isoquinolin-2-yl]propyl]-3,5-dimethylbenzamide

$$$$
