
     RDKit          3D

 26 26  0  0  0  0  0  0  0  0999 V2000
    3.1383    1.5884    0.6828 N   0  0  0  0  0  0  0  0  0  0  0  0
    2.9193    0.1949    0.4103 C   0  0  0  0  0  0  0  0  0  0  0  0
    1.6349   -0.0357   -0.3691 C   0  0  1  0  0  0  0  0  0  0  0  0
    1.2460   -1.4254   -0.7408 C   0  0  0  0  0  0  0  0  0  0  0  0
    0.5155   -0.6751    0.3209 C   0  0  2  0  0  0  0  0  0  0  0  0
   -0.8977   -0.2639    0.1440 C   0  0  0  0  0  0  0  0  0  0  0  0
   -1.2914    0.9428   -0.3776 C   0  0  0  0  0  0  0  0  0  0  0  0
   -0.3789    1.8355   -0.7605 F   0  0  0  0  0  0  0  0  0  0  0  0
   -2.6361    1.2649   -0.5181 C   0  0  0  0  0  0  0  0  0  0  0  0
   -3.6247    0.3926   -0.1421 C   0  0  0  0  0  0  0  0  0  0  0  0
   -3.2307   -0.8284    0.3857 C   0  0  0  0  0  0  0  0  0  0  0  0
   -1.8913   -1.1676    0.5335 C   0  0  0  0  0  0  0  0  0  0  0  0
   -1.5433   -2.3878    1.0610 F   0  0  0  0  0  0  0  0  0  0  0  0
    0.6840    0.0000    0.0000 Cl  0  0  0  0  0  0  0  0  0  0  0  0
    3.8391    2.0196    0.0158 H   0  0  0  0  0  0  0  0  0  0  0  0
    2.2264    2.1138    0.5921 H   0  0  0  0  0  0  0  0  0  0  0  0
    3.7879   -0.2753   -0.1021 H   0  0  0  0  0  0  0  0  0  0  0  0
    2.8166   -0.3487    1.3692 H   0  0  0  0  0  0  0  0  0  0  0  0
    1.5396    0.6852   -1.2044 H   0  0  0  0  0  0  0  0  0  0  0  0
    1.9368   -2.2563   -0.4893 H   0  0  0  0  0  0  0  0  0  0  0  0
    0.7010   -1.6008   -1.6843 H   0  0  0  0  0  0  0  0  0  0  0  0
    0.7385   -1.0734    1.3532 H   0  0  0  0  0  0  0  0  0  0  0  0
   -2.8944    2.2416   -0.9402 H   0  0  0  0  0  0  0  0  0  0  0  0
   -4.6782    0.6177   -0.2404 H   0  0  0  0  0  0  0  0  0  0  0  0
   -3.9732   -1.5586    0.7006 H   0  0  0  0  0  0  0  0  0  0  0  0
   -0.6840    0.0000    0.0000 H   0  0  0  0  0  0  0  0  0  0  0  0
  1  2  1  0
  2  3  1  0
  3  4  1  0
  4  5  1  0
  5  6  1  0
  6  7  2  0
  7  8  1  0
  7  9  1  0
  9 10  2  0
 10 11  1  0
 11 12  2  0
 12 13  1  0
  5  3  1  0
 12  6  1  0
  1 15  1  0
  1 16  1  0
  2 17  1  0
  2 18  1  0
  3 19  1  6
  4 20  1  0
  4 21  1  0
  5 22  1  1
  9 23  1  0
 10 24  1  0
 11 25  1  0
 14 26  1  0
M  END
>  <Ligand ID>  (1) 
LIG0002367

>  <Ligand>  (1) 
CHEMBL498863

>  <SMILES>  (1) 
NC[C@H]1C[C@@H]1c1c(F)cccc1F.Cl

>  <CID>  (1) 
44573015.0

>  <ChEMBL ID>  (1) 
nan

>  <InChiKey>  (1) 
ZUNMYZYZEKBQRE-HHQFNNIRSA-N

>  <InChi>  (1) 
InChI=1S/C10H11F2N.ClH/c11-8-2-1-3-9(12)10(8)7-4-6(7)5-13;/h1-3,6-7H,4-5,13H2;1H/t6-,7+;/m1./s1

>  <IUPAC Name>  (1) 
[(1S,2S)-2-(2,6-difluorophenyl)cyclopropyl]methanamine;hydrochloride

$$$$
