
     RDKit          3D

 43 44  0  0  0  0  0  0  0  0999 V2000
   -0.7712    0.2216   -0.4385 O   0  0  0  0  0  0  0  0  0  0  0  0
   -1.2404   -0.9148   -0.1176 C   0  0  0  0  0  0  0  0  0  0  0  0
   -0.4178   -2.0485    0.1112 N   0  0  0  0  0  0  0  0  0  0  0  0
    1.0056   -1.8904   -0.0295 C   0  0  0  0  0  0  0  0  0  0  0  0
    1.5262   -0.7682   -0.3505 N   0  0  0  0  0  0  0  0  0  0  0  0
    2.9800   -0.5852   -0.4997 C   0  0  0  0  0  0  0  0  0  0  0  0
    3.1588    0.8024   -1.0201 C   0  0  0  0  0  0  0  0  0  0  0  0
    4.5474    1.2532   -1.2581 C   0  0  0  0  0  0  0  0  0  0  0  0
    5.4326    1.3336   -0.0896 C   0  0  0  0  0  0  0  0  0  0  0  0
    5.2083    1.1175    1.2481 C   0  0  0  0  0  0  0  0  0  0  0  0
    6.3709    1.3580    1.9136 N   0  0  0  0  0  0  0  0  0  0  0  0
    7.3115    1.7208    1.0047 C   0  0  0  0  0  0  0  0  0  0  0  0
    6.7448    1.7068   -0.2110 N   0  0  0  0  0  0  0  0  0  0  0  0
    1.8154   -3.0445    0.2054 N   0  0  0  0  0  0  0  0  0  0  0  0
   -2.7252   -1.0070    0.0108 C   0  0  0  0  0  0  0  0  0  0  0  0
   -3.3280    0.3479   -0.2896 C   0  0  0  0  0  0  0  0  0  0  0  0
   -4.8104    0.3387   -0.1823 C   0  0  0  0  0  0  0  0  0  0  0  0
   -5.3915    0.6333    1.0455 C   0  0  0  0  0  0  0  0  0  0  0  0
   -6.7629    0.6381    1.1978 C   0  0  0  0  0  0  0  0  0  0  0  0
   -7.5486    0.3379    0.0805 C   0  0  0  0  0  0  0  0  0  0  0  0
   -6.9438    0.0495   -1.1251 C   0  0  0  0  0  0  0  0  0  0  0  0
   -5.5739    0.0396   -1.2975 C   0  0  0  0  0  0  0  0  0  0  0  0
   -0.8536   -2.9616    0.3733 H   0  0  0  0  0  0  0  0  0  0  0  0
    3.4308   -0.8448    0.4411 H   0  0  0  0  0  0  0  0  0  0  0  0
    3.2980   -1.2984   -1.2990 H   0  0  0  0  0  0  0  0  0  0  0  0
    2.6449    0.8153   -2.0285 H   0  0  0  0  0  0  0  0  0  0  0  0
    2.5713    1.5348   -0.4223 H   0  0  0  0  0  0  0  0  0  0  0  0
    5.0015    0.6554   -2.0831 H   0  0  0  0  0  0  0  0  0  0  0  0
    4.4687    2.2901   -1.7108 H   0  0  0  0  0  0  0  0  0  0  0  0
    4.3085    0.8237    1.7562 H   0  0  0  0  0  0  0  0  0  0  0  0
    8.3472    1.9857    1.1628 H   0  0  0  0  0  0  0  0  0  0  0  0
    7.2458    1.9491   -1.1167 H   0  0  0  0  0  0  0  0  0  0  0  0
    2.2841   -3.1578    1.1328 H   0  0  0  0  0  0  0  0  0  0  0  0
    1.9252   -3.7608   -0.5613 H   0  0  0  0  0  0  0  0  0  0  0  0
   -3.1117   -1.7499   -0.7073 H   0  0  0  0  0  0  0  0  0  0  0  0
   -2.9405   -1.3612    1.0185 H   0  0  0  0  0  0  0  0  0  0  0  0
   -3.0842    0.6088   -1.3396 H   0  0  0  0  0  0  0  0  0  0  0  0
   -2.8696    1.1315    0.3461 H   0  0  0  0  0  0  0  0  0  0  0  0
   -4.7303    0.8578    1.8744 H   0  0  0  0  0  0  0  0  0  0  0  0
   -7.2116    0.8676    2.1540 H   0  0  0  0  0  0  0  0  0  0  0  0
   -8.6065    0.3503    0.2323 H   0  0  0  0  0  0  0  0  0  0  0  0
   -7.5573   -0.1843   -1.9953 H   0  0  0  0  0  0  0  0  0  0  0  0
   -5.1484   -0.1916   -2.2583 H   0  0  0  0  0  0  0  0  0  0  0  0
  1  2  2  0
  2  3  1  0
  3  4  1  0
  4  5  2  3
  5  6  1  0
  6  7  1  0
  7  8  1  0
  8  9  1  0
  9 10  2  0
 10 11  1  0
 11 12  2  0
 12 13  1  0
  4 14  1  0
  2 15  1  0
 15 16  1  0
 16 17  1  0
 17 18  2  0
 18 19  1  0
 19 20  2  0
 20 21  1  0
 21 22  2  0
 13  9  1  0
 22 17  1  0
  3 23  1  0
  6 24  1  0
  6 25  1  0
  7 26  1  0
  7 27  1  0
  8 28  1  0
  8 29  1  0
 10 30  1  0
 12 31  1  0
 13 32  1  0
 14 33  1  0
 14 34  1  0
 15 35  1  0
 15 36  1  0
 16 37  1  0
 16 38  1  0
 18 39  1  0
 19 40  1  0
 20 41  1  0
 21 42  1  0
 22 43  1  0
M  END
>  <Ligand ID>  (1) 
LIG0001260

>  <Ligand>  (1) 
UR-AK51

>  <SMILES>  (1) 
O=C(NC(=NCCCc1cnc[nH]1)N)CCc1ccccc1

>  <CID>  (1) 
25149712.0

>  <ChEMBL ID>  (1) 
nan

>  <InChiKey>  (1) 
PUDXEVBPMISDEU-UHFFFAOYSA-N

>  <InChi>  (1) 
InChI=1S/C16H21N5O/c17-16(19-10-4-7-14-11-18-12-20-14)21-15(22)9-8-13-5-2-1-3-6-13/h1-3,5-6,11-12H,4,7-10H2,(H,18,20)(H3,17,19,21,22)

>  <IUPAC Name>  (1) 
N-[N'-[3-(1H-imidazol-5-yl)propyl]carbamimidoyl]-3-phenylpropanamide

$$$$
