
     RDKit          3D

 67 71  0  0  0  0  0  0  0  0999 V2000
   -3.0646   -1.0012   -1.3880 O   0  0  0  0  0  0  0  0  0  0  0  0
   -2.6130   -1.0927   -0.0183 C   0  0  2  0  0  0  0  0  0  0  0  0
   -2.9531    0.2768    0.5962 C   0  0  0  0  0  0  0  0  0  0  0  0
   -4.3607    0.4083    0.3751 O   0  0  0  0  0  0  0  0  0  0  0  0
   -5.1276    1.4805    0.7873 C   0  0  0  0  0  0  0  0  0  0  0  0
   -4.6952    2.5643    1.4692 C   0  0  0  0  0  0  0  0  0  0  0  0
   -5.5530    3.6057    1.8448 C   0  0  0  0  0  0  0  0  0  0  0  0
   -6.8901    3.5412    1.5151 C   0  0  0  0  0  0  0  0  0  0  0  0
   -7.3704    2.4281    0.8063 C   0  0  0  0  0  0  0  0  0  0  0  0
   -6.4888    1.4064    0.4470 C   0  0  0  0  0  0  0  0  0  0  0  0
   -7.2275    0.4425   -0.2494 C   0  0  0  0  0  0  0  0  0  0  0  0
   -6.8533   -0.7695   -0.8367 C   0  0  0  0  0  0  0  0  0  0  0  0
   -7.7733   -1.5653   -1.4855 C   0  0  0  0  0  0  0  0  0  0  0  0
   -9.0789   -1.1252   -1.5395 C   0  0  0  0  0  0  0  0  0  0  0  0
   -9.4300    0.0768   -0.9531 C   0  0  0  0  0  0  0  0  0  0  0  0
   -8.5287    0.8900   -0.2963 C   0  0  0  0  0  0  0  0  0  0  0  0
   -8.5872    2.0925    0.3479 N   0  0  0  0  0  0  0  0  0  0  0  0
   -1.1405   -1.3408   -0.0390 C   0  0  0  0  0  0  0  0  0  0  0  0
   -0.5021   -1.5341    1.1622 N   0  0  0  0  0  0  0  0  0  0  0  0
   -0.2429   -0.6172    2.1647 C   0  0  0  0  0  0  0  0  0  0  0  0
    0.7324    0.5059    1.8410 C   0  0  0  0  0  0  0  0  0  0  0  0
    2.0787    0.0389    1.4728 C   0  0  0  0  0  0  0  0  0  0  0  0
    2.4800   -0.1683    0.1494 C   0  0  0  0  0  0  0  0  0  0  0  0
    3.7809   -0.6170   -0.1347 C   0  0  0  0  0  0  0  0  0  0  0  0
    4.7079   -0.8734    0.8271 C   0  0  0  0  0  0  0  0  0  0  0  0
    4.3024   -0.6656    2.1535 C   0  0  0  0  0  0  0  0  0  0  0  0
    3.0245   -0.2225    2.4530 C   0  0  0  0  0  0  0  0  0  0  0  0
    6.0433   -1.2692    0.6364 N   0  0  0  0  0  0  0  0  0  0  0  0
    6.7523   -1.1879   -0.6228 C   0  0  0  0  0  0  0  0  0  0  0  0
    6.2205   -0.7363   -1.6716 O   0  0  0  0  0  0  0  0  0  0  0  0
    8.1856   -1.6393   -0.7220 C   0  0  0  0  0  0  0  0  0  0  0  0
    8.7810   -0.9387   -1.8947 C   0  0  0  0  0  0  0  0  0  0  0  0
    9.3208    0.3262   -1.6313 C   0  0  0  0  0  0  0  0  0  0  0  0
    9.8879    1.1083   -2.5998 C   0  0  0  0  0  0  0  0  0  0  0  0
    9.9152    0.5935   -3.8876 C   0  0  0  0  0  0  0  0  0  0  0  0
    9.3818   -0.6698   -4.1721 C   0  0  0  0  0  0  0  0  0  0  0  0
    8.8301   -1.3861   -3.1399 N   0  0  0  0  0  0  0  0  0  0  0  0
   -3.1975   -1.9745   -1.6582 H   0  0  0  0  0  0  0  0  0  0  0  0
   -3.2341   -1.8435    0.4547 H   0  0  0  0  0  0  0  0  0  0  0  0
   -2.3690    1.0495    0.1040 H   0  0  0  0  0  0  0  0  0  0  0  0
   -2.7510    0.2374    1.6599 H   0  0  0  0  0  0  0  0  0  0  0  0
   -3.6697    2.6517    1.7397 H   0  0  0  0  0  0  0  0  0  0  0  0
   -5.1789    4.4714    2.4026 H   0  0  0  0  0  0  0  0  0  0  0  0
   -7.6135    4.3072    1.7666 H   0  0  0  0  0  0  0  0  0  0  0  0
   -5.8109   -1.1027   -0.7732 H   0  0  0  0  0  0  0  0  0  0  0  0
   -7.4419   -2.5117   -1.9312 H   0  0  0  0  0  0  0  0  0  0  0  0
   -9.8207   -1.7430   -2.0569 H   0  0  0  0  0  0  0  0  0  0  0  0
  -10.4599    0.4147   -1.0062 H   0  0  0  0  0  0  0  0  0  0  0  0
   -9.4320    2.6805    0.4756 H   0  0  0  0  0  0  0  0  0  0  0  0
   -0.6553   -0.5303   -0.6944 H   0  0  0  0  0  0  0  0  0  0  0  0
   -1.0384   -2.2968   -0.6913 H   0  0  0  0  0  0  0  0  0  0  0  0
   -0.3150   -2.5502    1.4296 H   0  0  0  0  0  0  0  0  0  0  0  0
   -1.0110   -0.2210    2.8174 H   0  0  0  0  0  0  0  0  0  0  0  0
    0.3952   -1.2309    2.9538 H   0  0  0  0  0  0  0  0  0  0  0  0
    0.3143    1.1866    1.0796 H   0  0  0  0  0  0  0  0  0  0  0  0
    0.8509    1.0889    2.7813 H   0  0  0  0  0  0  0  0  0  0  0  0
    1.7591    0.0227   -0.6294 H   0  0  0  0  0  0  0  0  0  0  0  0
    4.0255   -0.7637   -1.1605 H   0  0  0  0  0  0  0  0  0  0  0  0
    4.9915   -0.8479    2.9879 H   0  0  0  0  0  0  0  0  0  0  0  0
    2.7576   -0.0784    3.4953 H   0  0  0  0  0  0  0  0  0  0  0  0
    6.5811   -1.6538    1.4788 H   0  0  0  0  0  0  0  0  0  0  0  0
    8.7531   -1.3958    0.1866 H   0  0  0  0  0  0  0  0  0  0  0  0
    8.2420   -2.7450   -0.9359 H   0  0  0  0  0  0  0  0  0  0  0  0
    9.3021    0.7233   -0.6129 H   0  0  0  0  0  0  0  0  0  0  0  0
   10.2791    2.0783   -2.3336 H   0  0  0  0  0  0  0  0  0  0  0  0
   10.3708    1.2118   -4.6679 H   0  0  0  0  0  0  0  0  0  0  0  0
    9.4323   -1.0007   -5.1747 H   0  0  0  0  0  0  0  0  0  0  0  0
  1  2  1  0
  2  3  1  0
  3  4  1  0
  4  5  1  0
  5  6  2  0
  6  7  1  0
  7  8  2  0
  8  9  1  0
  9 10  2  0
 10 11  1  0
 11 12  2  0
 12 13  1  0
 13 14  2  0
 14 15  1  0
 15 16  2  0
 16 17  1  0
  2 18  1  0
 18 19  1  0
 19 20  1  0
 20 21  1  0
 21 22  1  0
 22 23  2  0
 23 24  1  0
 24 25  2  0
 25 26  1  0
 26 27  2  0
 25 28  1  0
 28 29  1  0
 29 30  2  0
 29 31  1  0
 31 32  1  0
 32 33  2  0
 33 34  1  0
 34 35  2  0
 35 36  1  0
 36 37  2  0
 10  5  1  0
 16 11  1  0
 27 22  1  0
 37 32  1  0
 17  9  1  0
  1 38  1  0
  2 39  1  1
  3 40  1  0
  3 41  1  0
  6 42  1  0
  7 43  1  0
  8 44  1  0
 12 45  1  0
 13 46  1  0
 14 47  1  0
 15 48  1  0
 17 49  1  0
 18 50  1  0
 18 51  1  0
 19 52  1  0
 20 53  1  0
 20 54  1  0
 21 55  1  0
 21 56  1  0
 23 57  1  0
 24 58  1  0
 26 59  1  0
 27 60  1  0
 28 61  1  0
 31 62  1  0
 31 63  1  0
 33 64  1  0
 34 65  1  0
 35 66  1  0
 36 67  1  0
M  END
>  <Ligand ID>  (1) 
LIG0002748

>  <Ligand>  (1) 
CHEMBL466923

>  <SMILES>  (1) 
O[C@H](COc1cccc2c1c1ccccc1[nH]2)CNCCc1ccc(cc1)NC(=O)Cc1ccccn1

>  <CID>  (1) 
44574720.0

>  <ChEMBL ID>  (1) 
nan

>  <InChiKey>  (1) 
AGRJTCRVGVQVTB-DEOSSOPVSA-N

>  <InChi>  (1) 
InChI=1S/C30H30N4O3/c35-24(20-37-28-10-5-9-27-30(28)25-7-1-2-8-26(25)34-27)19-31-17-15-21-11-13-22(14-12-21)33-29(36)18-23-6-3-4-16-32-23/h1-14,16,24,31,34-35H,15,17-20H2,(H,33,36)/t24-/m0/s1

>  <IUPAC Name>  (1) 
N-[4-[2-[[(2S)-3-(9H-carbazol-4-yloxy)-2-hydroxypropyl]amino]ethyl]phenyl]-2-pyridin-2-ylacetamide

$$$$
