
     RDKit          3D

 44 46  0  0  0  0  0  0  0  0999 V2000
    3.5829    0.9821    1.8075 O   0  0  0  0  0  0  0  0  0  0  0  0
    2.4708    1.1164    1.2511 C   0  0  0  0  0  0  0  0  0  0  0  0
    1.5660    2.1633    1.7930 C   0  0  0  0  0  0  0  0  0  0  0  0
    0.3212    2.2446    1.0354 N   0  0  0  0  0  0  0  0  0  0  0  0
    0.1902    3.0939    0.0121 N   0  0  0  0  0  0  0  0  0  0  0  0
   -0.9555    3.1889   -0.6875 C   0  0  0  0  0  0  0  0  0  0  0  0
   -1.0750    4.1507   -1.8295 C   0  0  0  0  0  0  0  0  0  0  0  0
   -2.0392    2.3763   -0.3339 C   0  0  0  0  0  0  0  0  0  0  0  0
   -1.9330    1.4763    0.7326 C   0  0  0  0  0  0  0  0  0  0  0  0
   -0.7284    1.4529    1.3828 C   0  0  0  0  0  0  0  0  0  0  0  0
   -0.5494    0.6847    2.3412 O   0  0  0  0  0  0  0  0  0  0  0  0
   -3.0834    0.5956    1.0887 C   0  0  0  0  0  0  0  0  0  0  0  0
   -2.9233   -0.7757    0.5698 C   0  0  0  0  0  0  0  0  0  0  0  0
   -3.4330   -1.0100   -0.7123 C   0  0  0  0  0  0  0  0  0  0  0  0
   -3.3522   -2.2437   -1.3209 C   0  0  0  0  0  0  0  0  0  0  0  0
   -2.7416   -3.2650   -0.6165 C   0  0  0  0  0  0  0  0  0  0  0  0
   -2.2284   -3.0711    0.6479 C   0  0  0  0  0  0  0  0  0  0  0  0
   -2.3230   -1.8087    1.2444 C   0  0  0  0  0  0  0  0  0  0  0  0
   -1.4585   -4.3908    1.5109 Cl  0  0  0  0  0  0  0  0  0  0  0  0
    2.0739    0.3181    0.1592 N   0  0  0  0  0  0  0  0  0  0  0  0
    2.8136   -0.7071   -0.4506 C   0  0  0  0  0  0  0  0  0  0  0  0
    2.2457   -1.3806   -1.5299 C   0  0  0  0  0  0  0  0  0  0  0  0
    2.9034   -2.4022   -2.1746 C   0  0  0  0  0  0  0  0  0  0  0  0
    4.1668   -2.8093   -1.7774 C   0  0  0  0  0  0  0  0  0  0  0  0
    4.7370   -2.1657   -0.7282 C   0  0  0  0  0  0  0  0  0  0  0  0
    4.0650   -1.1283   -0.0764 C   0  0  0  0  0  0  0  0  0  0  0  0
    5.0462   -4.2297   -2.6929 Br  0  0  0  0  0  0  0  0  0  0  0  0
    1.3185    2.0327    2.8624 H   0  0  0  0  0  0  0  0  0  0  0  0
    2.0565    3.1728    1.7230 H   0  0  0  0  0  0  0  0  0  0  0  0
   -0.3219    4.9584   -1.6173 H   0  0  0  0  0  0  0  0  0  0  0  0
   -0.9047    3.6735   -2.8057 H   0  0  0  0  0  0  0  0  0  0  0  0
   -2.0667    4.6462   -1.8043 H   0  0  0  0  0  0  0  0  0  0  0  0
   -2.9653    2.4500   -0.8959 H   0  0  0  0  0  0  0  0  0  0  0  0
   -3.2534    0.5901    2.1837 H   0  0  0  0  0  0  0  0  0  0  0  0
   -4.0155    1.0827    0.6755 H   0  0  0  0  0  0  0  0  0  0  0  0
   -3.9187   -0.1948   -1.2694 H   0  0  0  0  0  0  0  0  0  0  0  0
   -3.7643   -2.3680   -2.3161 H   0  0  0  0  0  0  0  0  0  0  0  0
   -2.6915   -4.2391   -1.1289 H   0  0  0  0  0  0  0  0  0  0  0  0
   -1.9296   -1.6552    2.2241 H   0  0  0  0  0  0  0  0  0  0  0  0
    1.1075    0.5304   -0.2299 H   0  0  0  0  0  0  0  0  0  0  0  0
    1.2642   -1.1079   -1.8863 H   0  0  0  0  0  0  0  0  0  0  0  0
    2.4095   -2.8848   -3.0041 H   0  0  0  0  0  0  0  0  0  0  0  0
    5.7247   -2.4629   -0.3962 H   0  0  0  0  0  0  0  0  0  0  0  0
    4.5923   -0.6801    0.7396 H   0  0  0  0  0  0  0  0  0  0  0  0
  1  2  2  0
  2  3  1  0
  3  4  1  0
  4  5  1  0
  5  6  2  0
  6  7  1  0
  6  8  1  0
  8  9  2  0
  9 10  1  0
 10 11  2  0
  9 12  1  0
 12 13  1  0
 13 14  2  0
 14 15  1  0
 15 16  2  0
 16 17  1  0
 17 18  2  0
 17 19  1  0
  2 20  1  0
 20 21  1  0
 21 22  2  0
 22 23  1  0
 23 24  2  0
 24 25  1  0
 25 26  2  0
 24 27  1  0
 10  4  1  0
 18 13  1  0
 26 21  1  0
  3 28  1  0
  3 29  1  0
  7 30  1  0
  7 31  1  0
  7 32  1  0
  8 33  1  0
 12 34  1  0
 12 35  1  0
 14 36  1  0
 15 37  1  0
 16 38  1  0
 18 39  1  0
 20 40  1  0
 22 41  1  0
 23 42  1  0
 25 43  1  0
 26 44  1  0
M  END
>  <Ligand ID>  (1) 
LIG0003940

>  <Ligand>  (1) 
CHEMBL2391281

>  <SMILES>  (1) 
O=C(Cn1nc(C)cc(c1=O)Cc1cccc(c1)Cl)Nc1ccc(cc1)Br

>  <CID>  (1) 
71698968.0

>  <ChEMBL ID>  (1) 
nan

>  <InChiKey>  (1) 
RVGUEIYQNAFCQT-UHFFFAOYSA-N

>  <InChi>  (1) 
InChI=1S/C20H17BrClN3O2/c1-13-9-15(10-14-3-2-4-17(22)11-14)20(27)25(24-13)12-19(26)23-18-7-5-16(21)6-8-18/h2-9,11H,10,12H2,1H3,(H,23,26)

>  <IUPAC Name>  (1) 
N-(4-bromophenyl)-2-[5-[(3-chlorophenyl)methyl]-3-methyl-6-oxopyridazin-1-yl]acetamide

$$$$
