
     RDKit          3D

 81 85  0  0  0  0  0  0  0  0999 V2000
   -6.9211   -1.5837   -1.0358 C   0  0  0  0  0  0  0  0  0  0  0  0
   -5.6033   -1.4630   -1.7596 C   0  0  0  0  0  0  0  0  0  0  0  0
   -4.3811   -1.6656   -1.0125 C   0  0  0  0  0  0  0  0  0  0  0  0
   -3.8320   -0.8831    0.0972 C   0  0  0  0  0  0  0  0  0  0  0  0
   -2.5696   -1.6399    0.4959 C   0  0  0  0  0  0  0  0  0  0  0  0
   -1.3934   -1.4344   -0.3877 C   0  0  0  0  0  0  0  0  0  0  0  0
   -0.9157   -0.0621   -0.0539 N   0  0  0  0  0  0  0  0  0  0  0  0
   -1.9824    0.8620    0.2203 C   0  0  0  0  0  0  0  0  0  0  0  0
   -3.2011    0.3822   -0.5673 C   0  0  0  0  0  0  0  0  0  0  0  0
    0.4608    0.1175   -0.0264 C   0  0  0  0  0  0  0  0  0  0  0  0
    1.1512   -0.9614   -0.2635 O   0  0  0  0  0  0  0  0  0  0  0  0
    1.2587    1.3079    0.2256 C   0  0  2  0  0  0  0  0  0  0  0  0
    1.1728    2.3916   -0.8280 C   0  0  0  0  0  0  0  0  0  0  0  0
    1.9991    3.5713   -0.5112 C   0  0  0  0  0  0  0  0  0  0  0  0
    3.2890    3.7689   -0.9101 C   0  0  0  0  0  0  0  0  0  0  0  0
    4.0022    4.9088   -0.5622 C   0  0  0  0  0  0  0  0  0  0  0  0
    3.4248    5.9020    0.2128 C   0  0  0  0  0  0  0  0  0  0  0  0
    2.1204    5.7152    0.6231 C   0  0  0  0  0  0  0  0  0  0  0  0
    1.4276    4.5794    0.2696 C   0  0  0  0  0  0  0  0  0  0  0  0
    4.3115    7.3435    0.6590 Cl  0  0  0  0  0  0  0  0  0  0  0  0
    2.6622    0.8623    0.3407 N   0  0  0  0  0  0  0  0  0  0  0  0
    3.3638    0.3106   -0.7610 C   0  0  0  0  0  0  0  0  0  0  0  0
    2.8693    0.1551   -1.9048 O   0  0  0  0  0  0  0  0  0  0  0  0
    4.7937   -0.1302   -0.5942 C   0  0  2  0  0  0  0  0  0  0  0  0
    5.3295   -0.6588   -1.8045 N   0  0  0  0  0  0  0  0  0  0  0  0
    5.7749   -2.0187   -1.7555 C   0  0  0  0  0  0  0  0  0  0  0  0
    6.6047   -2.3018   -0.5504 C   0  0  0  0  0  0  0  0  0  0  0  0
    6.1048   -1.7876    0.6523 C   0  0  0  0  0  0  0  0  0  0  0  0
    4.8260   -1.0326    0.5909 C   0  0  0  0  0  0  0  0  0  0  0  0
    6.7911   -1.9883    1.8336 C   0  0  0  0  0  0  0  0  0  0  0  0
    7.9728   -2.7031    1.7976 C   0  0  0  0  0  0  0  0  0  0  0  0
    8.4540   -3.2067    0.5921 C   0  0  0  0  0  0  0  0  0  0  0  0
    7.7707   -3.0096   -0.5992 C   0  0  0  0  0  0  0  0  0  0  0  0
   -4.5511   -0.5207    1.2939 C   0  0  0  0  0  0  0  0  0  0  0  0
   -5.6873    0.3678    1.3281 C   0  0  0  0  0  0  0  0  0  0  0  0
   -6.3525    1.0973    0.4335 N   0  0  0  0  0  0  0  0  0  0  0  0
   -7.3522    1.7585    0.9774 N   0  0  0  0  0  0  0  0  0  0  0  0
   -7.3309    1.4476    2.2542 N   0  0  0  0  0  0  0  0  0  0  0  0
   -6.3626    0.6274    2.5073 N   0  0  0  0  0  0  0  0  0  0  0  0
   -6.0597    0.0873    3.8172 C   0  0  0  0  0  0  0  0  0  0  0  0
   -5.6322   -2.5780   -2.8371 C   0  0  0  0  0  0  0  0  0  0  0  0
   -6.7756   -1.8889    0.0157 H   0  0  0  0  0  0  0  0  0  0  0  0
   -7.5459   -2.4463   -1.4542 H   0  0  0  0  0  0  0  0  0  0  0  0
   -7.5997   -0.7184   -1.1819 H   0  0  0  0  0  0  0  0  0  0  0  0
   -5.5985   -0.5441   -2.4165 H   0  0  0  0  0  0  0  0  0  0  0  0
   -4.3604   -2.7764   -0.7116 H   0  0  0  0  0  0  0  0  0  0  0  0
   -3.5372   -1.6613   -1.8149 H   0  0  0  0  0  0  0  0  0  0  0  0
   -2.2914   -1.2509    1.5156 H   0  0  0  0  0  0  0  0  0  0  0  0
   -2.8595   -2.7051    0.6152 H   0  0  0  0  0  0  0  0  0  0  0  0
   -0.6303   -2.1751   -0.1077 H   0  0  0  0  0  0  0  0  0  0  0  0
   -1.5481   -1.5222   -1.4599 H   0  0  0  0  0  0  0  0  0  0  0  0
   -2.1773    0.7754    1.3205 H   0  0  0  0  0  0  0  0  0  0  0  0
   -1.8152    1.9008   -0.0829 H   0  0  0  0  0  0  0  0  0  0  0  0
   -2.8329    0.0384   -1.5423 H   0  0  0  0  0  0  0  0  0  0  0  0
   -3.8912    1.1899   -0.6894 H   0  0  0  0  0  0  0  0  0  0  0  0
    1.0021    1.7603    1.1942 H   0  0  0  0  0  0  0  0  0  0  0  0
    0.1331    2.7277   -0.9031 H   0  0  0  0  0  0  0  0  0  0  0  0
    1.4478    1.9990   -1.8388 H   0  0  0  0  0  0  0  0  0  0  0  0
    3.7818    3.0408   -1.5114 H   0  0  0  0  0  0  0  0  0  0  0  0
    5.0349    5.0430   -0.8947 H   0  0  0  0  0  0  0  0  0  0  0  0
    1.5987    6.4601    1.2393 H   0  0  0  0  0  0  0  0  0  0  0  0
    0.4019    4.4704    0.6130 H   0  0  0  0  0  0  0  0  0  0  0  0
    3.1878    0.9380    1.2386 H   0  0  0  0  0  0  0  0  0  0  0  0
    5.3817    0.7953   -0.3334 H   0  0  0  0  0  0  0  0  0  0  0  0
    4.6954   -0.5789   -2.6376 H   0  0  0  0  0  0  0  0  0  0  0  0
    6.4001   -2.1942   -2.6573 H   0  0  0  0  0  0  0  0  0  0  0  0
    4.8995   -2.7053   -1.8037 H   0  0  0  0  0  0  0  0  0  0  0  0
    3.9594   -1.7299    0.5684 H   0  0  0  0  0  0  0  0  0  0  0  0
    4.7871   -0.3708    1.5037 H   0  0  0  0  0  0  0  0  0  0  0  0
    6.4047   -1.5903    2.7655 H   0  0  0  0  0  0  0  0  0  0  0  0
    8.5604   -2.8949    2.6970 H   0  0  0  0  0  0  0  0  0  0  0  0
    9.3893   -3.7652    0.6048 H   0  0  0  0  0  0  0  0  0  0  0  0
    8.1323   -3.3946   -1.5422 H   0  0  0  0  0  0  0  0  0  0  0  0
   -3.8322   -0.1124    2.0822 H   0  0  0  0  0  0  0  0  0  0  0  0
   -4.8474   -1.5048    1.8038 H   0  0  0  0  0  0  0  0  0  0  0  0
   -6.9830   -0.3610    4.2200 H   0  0  0  0  0  0  0  0  0  0  0  0
   -5.7102    0.8719    4.5182 H   0  0  0  0  0  0  0  0  0  0  0  0
   -5.2425   -0.6782    3.7622 H   0  0  0  0  0  0  0  0  0  0  0  0
   -5.7540   -3.5566   -2.3322 H   0  0  0  0  0  0  0  0  0  0  0  0
   -6.4996   -2.3305   -3.4791 H   0  0  0  0  0  0  0  0  0  0  0  0
   -4.6734   -2.4894   -3.3805 H   0  0  0  0  0  0  0  0  0  0  0  0
  1  2  1  0
  2  3  1  0
  3  4  1  0
  4  5  1  0
  5  6  1  0
  6  7  1  0
  7  8  1  0
  8  9  1  0
  7 10  1  0
 10 11  2  0
 10 12  1  0
 12 13  1  0
 13 14  1  0
 14 15  2  0
 15 16  1  0
 16 17  2  0
 17 18  1  0
 18 19  2  0
 17 20  1  0
 12 21  1  0
 21 22  1  0
 22 23  2  0
 22 24  1  0
 24 25  1  0
 25 26  1  0
 26 27  1  0
 27 28  2  0
 28 29  1  0
 28 30  1  0
 30 31  2  0
 31 32  1  0
 32 33  2  0
  4 34  1  0
 34 35  1  0
 35 36  2  0
 36 37  1  0
 37 38  2  0
 38 39  1  0
 39 40  1  0
  2 41  1  0
  9  4  1  0
 19 14  1  0
 29 24  1  0
 39 35  1  0
 33 27  1  0
  1 42  1  0
  1 43  1  0
  1 44  1  0
  2 45  1  0
  3 46  1  0
  3 47  1  0
  5 48  1  0
  5 49  1  0
  6 50  1  0
  6 51  1  0
  8 52  1  0
  8 53  1  0
  9 54  1  0
  9 55  1  0
 12 56  1  1
 13 57  1  0
 13 58  1  0
 15 59  1  0
 16 60  1  0
 18 61  1  0
 19 62  1  0
 21 63  1  0
 24 64  1  1
 25 65  1  0
 26 66  1  0
 26 67  1  0
 29 68  1  0
 29 69  1  0
 30 70  1  0
 31 71  1  0
 32 72  1  0
 33 73  1  0
 34 74  1  0
 34 75  1  0
 40 76  1  0
 40 77  1  0
 40 78  1  0
 41 79  1  0
 41 80  1  0
 41 81  1  0
M  END
>  <Ligand ID>  (1) 
LIG0003465

>  <Ligand>  (1) 
CHEMBL398816

>  <SMILES>  (1) 
CC(CC1(CCN(CC1)C(=O)[C@H](Cc1ccc(cc1)Cl)NC(=O)[C@@H]1NCc2c(C1)cccc2)Cc1nnnn1C)C

>  <CID>  (1) 
44441642.0

>  <ChEMBL ID>  (1) 
nan

>  <InChiKey>  (1) 
VCELGISYJREWRH-SXOMAYOGSA-N

>  <InChi>  (1) 
InChI=1S/C31H40ClN7O2/c1-21(2)18-31(19-28-35-36-37-38(28)3)12-14-39(15-13-31)30(41)27(16-22-8-10-25(32)11-9-22)34-29(40)26-17-23-6-4-5-7-24(23)20-33-26/h4-11,21,26-27,33H,12-20H2,1-3H3,(H,34,40)/t26-,27+/m1/s1

>  <IUPAC Name>  (1) 
(3R)-N-[(2S)-3-(4-chlorophenyl)-1-[4-(2-methylpropyl)-4-[(1-methyltetrazol-5-yl)methyl]piperidin-1-yl]-1-oxopropan-2-yl]-1,2,3,4-tetrahydroisoquinoline-3-carboxamide

$$$$
