
     RDKit          3D

 32 34  0  0  0  0  0  0  0  0999 V2000
   -2.6968    0.9329   -3.2101 O   0  0  0  0  0  0  0  0  0  0  0  0
   -2.1314    0.8629   -2.0873 C   0  0  0  0  0  0  0  0  0  0  0  0
   -2.7715    1.3075   -0.8208 C   0  0  0  0  0  0  0  0  0  0  0  0
   -2.6572    0.2583    0.2311 C   0  0  0  0  0  0  0  0  0  0  0  0
   -1.3933   -0.5098    0.2818 C   0  0  1  0  0  0  0  0  0  0  0  0
   -0.4659   -0.3063   -0.8584 C   0  0  0  0  0  0  0  0  0  0  0  0
   -0.7731    0.3235   -1.9700 C   0  0  0  0  0  0  0  0  0  0  0  0
    0.9187   -0.8773   -0.6810 C   0  0  2  0  0  0  0  0  0  0  0  0
    0.9087   -1.8981    0.4438 C   0  0  0  0  0  0  0  0  0  0  0  0
    0.8309   -0.6831    1.3694 C   0  0  2  0  0  0  0  0  0  0  0  0
   -0.5555   -0.1749    1.5209 C   0  0  0  0  0  0  0  0  0  0  0  0
    1.6811   -0.0244    0.3428 C   0  0  0  0  0  0  0  0  0  0  0  0
    1.6020    1.4349    0.1544 C   0  0  0  0  0  0  0  0  0  0  0  0
    3.1059   -0.5273    0.4363 C   0  0  0  0  0  0  0  0  0  0  0  0
   -2.3835    2.2919   -0.4769 H   0  0  0  0  0  0  0  0  0  0  0  0
   -3.8502    1.4700   -1.0305 H   0  0  0  0  0  0  0  0  0  0  0  0
   -2.7750    0.7431    1.2407 H   0  0  0  0  0  0  0  0  0  0  0  0
   -3.5227   -0.4394    0.1715 H   0  0  0  0  0  0  0  0  0  0  0  0
   -1.6706   -1.6066    0.3103 H   0  0  0  0  0  0  0  0  0  0  0  0
   -0.0681    0.4592   -2.7998 H   0  0  0  0  0  0  0  0  0  0  0  0
    1.4444   -1.1298   -1.5909 H   0  0  0  0  0  0  0  0  0  0  0  0
    1.9353   -2.3433    0.4868 H   0  0  0  0  0  0  0  0  0  0  0  0
    0.0936   -2.6070    0.4825 H   0  0  0  0  0  0  0  0  0  0  0  0
    1.4002   -0.8297    2.3049 H   0  0  0  0  0  0  0  0  0  0  0  0
   -0.9781   -0.6427    2.4344 H   0  0  0  0  0  0  0  0  0  0  0  0
   -0.6544    0.9048    1.6607 H   0  0  0  0  0  0  0  0  0  0  0  0
    1.8314    1.7282   -0.9084 H   0  0  0  0  0  0  0  0  0  0  0  0
    0.6782    1.9426    0.4097 H   0  0  0  0  0  0  0  0  0  0  0  0
    2.4130    1.9050    0.7474 H   0  0  0  0  0  0  0  0  0  0  0  0
    3.3718   -1.1903   -0.4052 H   0  0  0  0  0  0  0  0  0  0  0  0
    3.8279    0.3177    0.4374 H   0  0  0  0  0  0  0  0  0  0  0  0
    3.3041   -1.0927    1.3724 H   0  0  0  0  0  0  0  0  0  0  0  0
  1  2  2  0
  2  3  1  0
  3  4  1  0
  4  5  1  0
  5  6  1  0
  6  7  2  0
  6  8  1  0
  8  9  1  0
  9 10  1  0
 10 11  1  0
 10 12  1  0
 12 13  1  0
 12 14  1  0
  7  2  1  0
 12  8  1  0
 11  5  1  0
  3 15  1  0
  3 16  1  0
  4 17  1  0
  4 18  1  0
  5 19  1  1
  7 20  1  0
  8 21  1  6
  9 22  1  0
  9 23  1  0
 10 24  1  1
 11 25  1  0
 11 26  1  0
 13 27  1  0
 13 28  1  0
 13 29  1  0
 14 30  1  0
 14 31  1  0
 14 32  1  0
M  END
>  <Ligand ID>  (1) 
LIG0005048

>  <Ligand>  (1) 
(1R,7R,9S)-10,10-dimethyltricyclo[7.1.1.02,7]undec-2-en-4-one

>  <SMILES>  (1) 
O=C1CC[C@H]2C(=C1)[C@@H]1C[C@H](C2)C1(C)C

>  <CID>  (1) 
12729602.0

>  <ChEMBL ID>  (1) 
nan

>  <InChiKey>  (1) 
OEFUEUWVTAXZDS-PTRXPTGYSA-N

>  <InChi>  (1) 
InChI=1S/C13H18O/c1-13(2)9-5-8-3-4-10(14)7-11(8)12(13)6-9/h7-9,12H,3-6H2,1-2H3/t8-,9+,12+/m1/s1

>  <IUPAC Name>  (1) 
(1R,7R,9S)-10,10-dimethyltricyclo[7.1.1.02,7]undec-2-en-4-one

$$$$
