
     RDKit          3D

 47 47  0  0  0  0  0  0  0  0999 V2000
    2.4626   -0.7313   -1.7235 O   0  0  0  0  0  0  0  0  0  0  0  0
    2.0222   -0.8614   -0.5943 C   0  0  0  0  0  0  0  0  0  0  0  0
    2.1391    0.2687    0.4100 C   0  0  0  0  0  0  0  0  0  0  0  0
    2.6962    1.4291   -0.3400 C   0  0  0  0  0  0  0  0  0  0  0  0
    2.6685    2.7325    0.3476 C   0  0  0  0  0  0  0  0  0  0  0  0
    1.3652    3.3473    0.7119 C   0  0  0  0  0  0  0  0  0  0  0  0
    0.4367    3.5769   -0.4313 C   0  0  0  0  0  0  0  0  0  0  0  0
   -0.4085    2.4163   -0.8387 C   0  0  0  0  0  0  0  0  0  0  0  0
   -1.5268    2.2553    0.1752 C   0  0  0  0  0  0  0  0  0  0  0  0
   -2.4005    1.0505   -0.0837 C   0  0  0  0  0  0  0  0  0  0  0  0
   -1.7208   -0.2569    0.3516 C   0  0  0  0  0  0  0  0  0  0  0  0
   -2.5371   -1.3813   -0.1590 C   0  0  0  0  0  0  0  0  0  0  0  0
   -2.3982   -2.7246    0.3801 C   0  0  0  0  0  0  0  0  0  0  0  0
   -1.1801   -3.4979    0.5304 C   0  0  0  0  0  0  0  0  0  0  0  0
   -0.2953   -3.8126   -0.6155 C   0  0  0  0  0  0  0  0  0  0  0  0
    0.4705   -2.6736   -1.2035 C   0  0  0  0  0  0  0  0  0  0  0  0
    1.3435   -2.0759   -0.1020 C   0  0  0  0  0  0  0  0  0  0  0  0
    1.2155    0.4202    0.9466 H   0  0  0  0  0  0  0  0  0  0  0  0
    2.9093   -0.0469    1.1787 H   0  0  0  0  0  0  0  0  0  0  0  0
    2.3539    1.5228   -1.3929 H   0  0  0  0  0  0  0  0  0  0  0  0
    3.8229    1.1977   -0.4946 H   0  0  0  0  0  0  0  0  0  0  0  0
    3.3658    2.7370    1.2380 H   0  0  0  0  0  0  0  0  0  0  0  0
    3.1747    3.4766   -0.3453 H   0  0  0  0  0  0  0  0  0  0  0  0
    0.8292    2.7068    1.4625 H   0  0  0  0  0  0  0  0  0  0  0  0
    1.5656    4.3047    1.2672 H   0  0  0  0  0  0  0  0  0  0  0  0
   -0.2187    4.4760   -0.1751 H   0  0  0  0  0  0  0  0  0  0  0  0
    1.0369    3.9773   -1.3023 H   0  0  0  0  0  0  0  0  0  0  0  0
   -0.8786    2.7470   -1.8337 H   0  0  0  0  0  0  0  0  0  0  0  0
    0.1245    1.5149   -1.0482 H   0  0  0  0  0  0  0  0  0  0  0  0
   -2.1754    3.1481    0.0751 H   0  0  0  0  0  0  0  0  0  0  0  0
   -1.1382    2.2364    1.1985 H   0  0  0  0  0  0  0  0  0  0  0  0
   -2.7538    0.9837   -1.1097 H   0  0  0  0  0  0  0  0  0  0  0  0
   -3.2804    1.1549    0.5830 H   0  0  0  0  0  0  0  0  0  0  0  0
   -1.6322   -0.1968    1.4369 H   0  0  0  0  0  0  0  0  0  0  0  0
   -0.7318   -0.3181   -0.1167 H   0  0  0  0  0  0  0  0  0  0  0  0
   -3.6469   -1.1060   -0.0799 H   0  0  0  0  0  0  0  0  0  0  0  0
   -2.4135   -1.4141   -1.2915 H   0  0  0  0  0  0  0  0  0  0  0  0
   -3.0456   -2.8106    1.3502 H   0  0  0  0  0  0  0  0  0  0  0  0
   -3.0882   -3.3807   -0.2979 H   0  0  0  0  0  0  0  0  0  0  0  0
   -0.5573   -3.1892    1.4345 H   0  0  0  0  0  0  0  0  0  0  0  0
   -1.5282   -4.5416    0.9029 H   0  0  0  0  0  0  0  0  0  0  0  0
    0.4776   -4.5978   -0.3570 H   0  0  0  0  0  0  0  0  0  0  0  0
   -0.9261   -4.3028   -1.4047 H   0  0  0  0  0  0  0  0  0  0  0  0
   -0.1106   -1.9160   -1.7236 H   0  0  0  0  0  0  0  0  0  0  0  0
    1.1770   -3.1096   -1.9450 H   0  0  0  0  0  0  0  0  0  0  0  0
    2.1212   -2.8602    0.1105 H   0  0  0  0  0  0  0  0  0  0  0  0
    0.8141   -1.8750    0.8254 H   0  0  0  0  0  0  0  0  0  0  0  0
  1  2  2  0
  2  3  1  0
  3  4  1  0
  4  5  1  0
  5  6  1  0
  6  7  1  0
  7  8  1  0
  8  9  1  0
  9 10  1  0
 10 11  1  0
 11 12  1  0
 12 13  1  0
 13 14  1  0
 14 15  1  0
 15 16  1  0
 16 17  1  0
 17  2  1  0
  3 18  1  0
  3 19  1  0
  4 20  1  0
  4 21  1  0
  5 22  1  0
  5 23  1  0
  6 24  1  0
  6 25  1  0
  7 26  1  0
  7 27  1  0
  8 28  1  0
  8 29  1  0
  9 30  1  0
  9 31  1  0
 10 32  1  0
 10 33  1  0
 11 34  1  0
 11 35  1  0
 12 36  1  0
 12 37  1  0
 13 38  1  0
 13 39  1  0
 14 40  1  0
 14 41  1  0
 15 42  1  0
 15 43  1  0
 16 44  1  0
 16 45  1  0
 17 46  1  0
 17 47  1  0
M  END
>  <Ligand ID>  (1) 
LIG0002095

>  <Ligand>  (1) 
cyclohexadecanone

>  <SMILES>  (1) 
O=C1CCCCCCCCCCCCCCC1

>  <CID>  (1) 
75695.0

>  <ChEMBL ID>  (1) 
nan

>  <InChiKey>  (1) 
LXJDKGYSHYYKFJ-UHFFFAOYSA-N

>  <InChi>  (1) 
InChI=1S/C16H30O/c17-16-14-12-10-8-6-4-2-1-3-5-7-9-11-13-15-16/h1-15H2

>  <IUPAC Name>  (1) 
cyclohexadecanone

$$$$
