
     RDKit          3D

 39 41  0  0  0  0  0  0  0  0999 V2000
   -4.2276    0.9753   -1.1360 C   0  0  0  0  0  0  0  0  0  0  0  0
   -4.2553   -0.0621   -0.0037 C   0  0  0  0  0  0  0  0  0  0  0  0
   -3.2075   -1.0177   -0.2916 N   0  0  0  0  0  0  0  0  0  0  0  0
   -3.4564   -2.0954   -1.0566 N   0  0  0  0  0  0  0  0  0  0  0  0
   -2.3360   -2.8183   -1.2005 C   0  0  0  0  0  0  0  0  0  0  0  0
   -1.3678   -2.1603   -0.4988 C   0  0  0  0  0  0  0  0  0  0  0  0
   -1.9182   -1.0109    0.0836 C   0  0  0  0  0  0  0  0  0  0  0  0
   -1.1863   -0.0410    0.8927 C   0  0  0  0  0  0  0  0  0  0  0  0
   -1.6499    0.3349    2.1591 C   0  0  0  0  0  0  0  0  0  0  0  0
   -0.9976    1.2565    2.9405 C   0  0  0  0  0  0  0  0  0  0  0  0
    0.1586    1.8465    2.4828 C   0  0  0  0  0  0  0  0  0  0  0  0
    0.6094    1.4753    1.2420 C   0  0  0  0  0  0  0  0  0  0  0  0
   -0.0058    0.5599    0.4220 C   0  0  0  0  0  0  0  0  0  0  0  0
    0.5081    0.2772   -0.8629 N   0  0  0  0  0  0  0  0  0  0  0  0
    1.7054    0.8050   -1.4409 C   0  0  0  0  0  0  0  0  0  0  0  0
    2.9490    0.1753   -0.9517 C   0  0  0  0  0  0  0  0  0  0  0  0
    3.7830   -0.4069   -1.7799 N   0  0  0  0  0  0  0  0  0  0  0  0
    4.9271   -0.9565   -1.1176 C   0  0  0  0  0  0  0  0  0  0  0  0
    4.9506   -0.1285    0.1661 C   0  0  0  0  0  0  0  0  0  0  0  0
    3.5002    0.0454    0.3387 N   0  0  0  0  0  0  0  0  0  0  0  0
   -5.2556    1.3000   -1.3533 H   0  0  0  0  0  0  0  0  0  0  0  0
   -3.5532    1.8215   -0.8683 H   0  0  0  0  0  0  0  0  0  0  0  0
   -3.8278    0.5198   -2.0724 H   0  0  0  0  0  0  0  0  0  0  0  0
   -5.2591   -0.5356    0.0123 H   0  0  0  0  0  0  0  0  0  0  0  0
   -4.1176    0.4374    0.9644 H   0  0  0  0  0  0  0  0  0  0  0  0
   -2.2271   -3.7417   -1.7638 H   0  0  0  0  0  0  0  0  0  0  0  0
   -0.3444   -2.5155   -0.4317 H   0  0  0  0  0  0  0  0  0  0  0  0
   -2.5495   -0.1014    2.5890 H   0  0  0  0  0  0  0  0  0  0  0  0
   -1.3619    1.5421    3.9173 H   0  0  0  0  0  0  0  0  0  0  0  0
    0.6602    2.5730    3.1159 H   0  0  0  0  0  0  0  0  0  0  0  0
    1.5219    1.9478    0.8935 H   0  0  0  0  0  0  0  0  0  0  0  0
   -0.0458   -0.3925   -1.4803 H   0  0  0  0  0  0  0  0  0  0  0  0
    1.6766    0.8131   -2.5525 H   0  0  0  0  0  0  0  0  0  0  0  0
    1.7823    1.8944   -1.1395 H   0  0  0  0  0  0  0  0  0  0  0  0
    4.7858   -2.0167   -0.7838 H   0  0  0  0  0  0  0  0  0  0  0  0
    5.8765   -0.8217   -1.6737 H   0  0  0  0  0  0  0  0  0  0  0  0
    5.3208   -0.6804    1.0287 H   0  0  0  0  0  0  0  0  0  0  0  0
    5.4297    0.8423   -0.0308 H   0  0  0  0  0  0  0  0  0  0  0  0
    3.0051    0.0605    1.2420 H   0  0  0  0  0  0  0  0  0  0  0  0
  1  2  1  0
  2  3  1  0
  3  4  1  0
  4  5  2  0
  5  6  1  0
  6  7  2  0
  7  8  1  0
  8  9  2  0
  9 10  1  0
 10 11  2  0
 11 12  1  0
 12 13  2  0
 13 14  1  0
 14 15  1  0
 15 16  1  0
 16 17  2  0
 17 18  1  0
 18 19  1  0
 19 20  1  0
  7  3  1  0
 13  8  1  0
 20 16  1  0
  1 21  1  0
  1 22  1  0
  1 23  1  0
  2 24  1  0
  2 25  1  0
  5 26  1  0
  6 27  1  0
  9 28  1  0
 10 29  1  0
 11 30  1  0
 12 31  1  0
 14 32  1  0
 15 33  1  0
 15 34  1  0
 18 35  1  0
 18 36  1  0
 19 37  1  0
 19 38  1  0
 20 39  1  0
M  END
>  <Ligand ID>  (1) 
LIG0004387

>  <Ligand>  (1) 
CHEMBL17221

>  <SMILES>  (1) 
CCn1nccc1c1ccccc1NCC1=NCCN1

>  <CID>  (1) 
9838294.0

>  <ChEMBL ID>  (1) 
nan

>  <InChiKey>  (1) 
ITCCBDZCYYRNQI-UHFFFAOYSA-N

>  <InChi>  (1) 
InChI=1S/C15H19N5/c1-2-20-14(7-8-19-20)12-5-3-4-6-13(12)18-11-15-16-9-10-17-15/h3-8,18H,2,9-11H2,1H3,(H,16,17)

>  <IUPAC Name>  (1) 
N-(4,5-dihydro-1H-imidazol-2-ylmethyl)-2-(2-ethylpyrazol-3-yl)aniline

$$$$
